# Generated by pormake.
# Topology gar, (4,6)-cn, num edge types: 1
# Building blocks:
#     Node 0, Type 0, BuildingBlock: CEKHIL_clean_sbu_0, # of connection points: 4
#     Node 1, Type 0, BuildingBlock: CEKHIL_clean_sbu_0, # of connection points: 4
#     Node 2, Type 0, BuildingBlock: CEKHIL_clean_sbu_0, # of connection points: 4
#     Node 3, Type 0, BuildingBlock: CEKHIL_clean_sbu_0, # of connection points: 4
#     Node 4, Type 0, BuildingBlock: CEKHIL_clean_sbu_0, # of connection points: 4
#     Node 5, Type 0, BuildingBlock: CEKHIL_clean_sbu_0, # of connection points: 4
#     Node 6, Type 0, BuildingBlock: CEKHIL_clean_sbu_0, # of connection points: 4
#     Node 7, Type 0, BuildingBlock: CEKHIL_clean_sbu_0, # of connection points: 4
#     Node 8, Type 0, BuildingBlock: CEKHIL_clean_sbu_0, # of connection points: 4
#     Node 9, Type 0, BuildingBlock: CEKHIL_clean_sbu_0, # of connection points: 4
#     Node 10, Type 0, BuildingBlock: CEKHIL_clean_sbu_0, # of connection points: 4
#     Node 11, Type 0, BuildingBlock: CEKHIL_clean_sbu_0, # of connection points: 4
#     Node 12, Type 0, BuildingBlock: CEKHIL_clean_sbu_0, # of connection points: 4
#     Node 13, Type 0, BuildingBlock: CEKHIL_clean_sbu_0, # of connection points: 4
#     Node 14, Type 0, BuildingBlock: CEKHIL_clean_sbu_0, # of connection points: 4
#     Node 15, Type 0, BuildingBlock: CEKHIL_clean_sbu_0, # of connection points: 4
#     Node 16, Type 0, BuildingBlock: CEKHIL_clean_sbu_0, # of connection points: 4
#     Node 17, Type 0, BuildingBlock: CEKHIL_clean_sbu_0, # of connection points: 4
#     Node 18, Type 0, BuildingBlock: CEKHIL_clean_sbu_0, # of connection points: 4
#     Node 19, Type 0, BuildingBlock: CEKHIL_clean_sbu_0, # of connection points: 4
#     Node 20, Type 0, BuildingBlock: CEKHIL_clean_sbu_0, # of connection points: 4
#     Node 21, Type 0, BuildingBlock: CEKHIL_clean_sbu_0, # of connection points: 4
#     Node 22, Type 0, BuildingBlock: CEKHIL_clean_sbu_0, # of connection points: 4
#     Node 23, Type 0, BuildingBlock: CEKHIL_clean_sbu_0, # of connection points: 4
#     Node 24, Type 1, BuildingBlock: KUMBOL_clean_sbu_0, # of connection points: 6
#     Node 25, Type 1, BuildingBlock: KUMBOL_clean_sbu_0, # of connection points: 6
#     Node 26, Type 1, BuildingBlock: KUMBOL_clean_sbu_0, # of connection points: 6
#     Node 27, Type 1, BuildingBlock: KUMBOL_clean_sbu_0, # of connection points: 6
#     Node 28, Type 1, BuildingBlock: KUMBOL_clean_sbu_0, # of connection points: 6
#     Node 29, Type 1, BuildingBlock: KUMBOL_clean_sbu_0, # of connection points: 6
#     Node 30, Type 1, BuildingBlock: KUMBOL_clean_sbu_0, # of connection points: 6
#     Node 31, Type 1, BuildingBlock: KUMBOL_clean_sbu_0, # of connection points: 6
#     Node 32, Type 1, BuildingBlock: KUMBOL_clean_sbu_0, # of connection points: 6
#     Node 33, Type 1, BuildingBlock: KUMBOL_clean_sbu_0, # of connection points: 6
#     Node 34, Type 1, BuildingBlock: KUMBOL_clean_sbu_0, # of connection points: 6
#     Node 35, Type 1, BuildingBlock: KUMBOL_clean_sbu_0, # of connection points: 6
#     Node 36, Type 1, BuildingBlock: KUMBOL_clean_sbu_0, # of connection points: 6
#     Node 37, Type 1, BuildingBlock: KUMBOL_clean_sbu_0, # of connection points: 6
#     Node 38, Type 1, BuildingBlock: KUMBOL_clean_sbu_0, # of connection points: 6
#     Node 39, Type 1, BuildingBlock: KUMBOL_clean_sbu_0, # of connection points: 6
#     Edge 40, Type (0, 1), BuildingBlock: CIFDUS_clean_linker_0, # of connection points: 2
#     Edge 41, Type (0, 1), BuildingBlock: CIFDUS_clean_linker_0, # of connection points: 2
#     Edge 42, Type (0, 1), BuildingBlock: CIFDUS_clean_linker_0, # of connection points: 2
#     Edge 43, Type (0, 1), BuildingBlock: CIFDUS_clean_linker_0, # of connection points: 2
#     Edge 44, Type (0, 1), BuildingBlock: CIFDUS_clean_linker_0, # of connection points: 2
#     Edge 45, Type (0, 1), BuildingBlock: CIFDUS_clean_linker_0, # of connection points: 2
#     Edge 46, Type (0, 1), BuildingBlock: CIFDUS_clean_linker_0, # of connection points: 2
#     Edge 47, Type (0, 1), BuildingBlock: CIFDUS_clean_linker_0, # of connection points: 2
#     Edge 48, Type (0, 1), BuildingBlock: CIFDUS_clean_linker_0, # of connection points: 2
#     Edge 49, Type (0, 1), BuildingBlock: CIFDUS_clean_linker_0, # of connection points: 2
#     Edge 50, Type (0, 1), BuildingBlock: CIFDUS_clean_linker_0, # of connection points: 2
#     Edge 51, Type (0, 1), BuildingBlock: CIFDUS_clean_linker_0, # of connection points: 2
#     Edge 52, Type (0, 1), BuildingBlock: CIFDUS_clean_linker_0, # of connection points: 2
#     Edge 53, Type (0, 1), BuildingBlock: CIFDUS_clean_linker_0, # of connection points: 2
#     Edge 54, Type (0, 1), BuildingBlock: CIFDUS_clean_linker_0, # of connection points: 2
#     Edge 55, Type (0, 1), BuildingBlock: CIFDUS_clean_linker_0, # of connection points: 2
#     Edge 56, Type (0, 1), BuildingBlock: CIFDUS_clean_linker_0, # of connection points: 2
#     Edge 57, Type (0, 1), BuildingBlock: CIFDUS_clean_linker_0, # of connection points: 2
#     Edge 58, Type (0, 1), BuildingBlock: CIFDUS_clean_linker_0, # of connection points: 2
#     Edge 59, Type (0, 1), BuildingBlock: CIFDUS_clean_linker_0, # of connection points: 2
#     Edge 60, Type (0, 1), BuildingBlock: CIFDUS_clean_linker_0, # of connection points: 2
#     Edge 61, Type (0, 1), BuildingBlock: CIFDUS_clean_linker_0, # of connection points: 2
#     Edge 62, Type (0, 1), BuildingBlock: CIFDUS_clean_linker_0, # of connection points: 2
#     Edge 63, Type (0, 1), BuildingBlock: CIFDUS_clean_linker_0, # of connection points: 2
#     Edge 64, Type (0, 1), BuildingBlock: CIFDUS_clean_linker_0, # of connection points: 2
#     Edge 65, Type (0, 1), BuildingBlock: CIFDUS_clean_linker_0, # of connection points: 2
#     Edge 66, Type (0, 1), BuildingBlock: CIFDUS_clean_linker_0, # of connection points: 2
#     Edge 67, Type (0, 1), BuildingBlock: CIFDUS_clean_linker_0, # of connection points: 2
#     Edge 68, Type (0, 1), BuildingBlock: CIFDUS_clean_linker_0, # of connection points: 2
#     Edge 69, Type (0, 1), BuildingBlock: CIFDUS_clean_linker_0, # of connection points: 2
#     Edge 70, Type (0, 1), BuildingBlock: CIFDUS_clean_linker_0, # of connection points: 2
#     Edge 71, Type (0, 1), BuildingBlock: CIFDUS_clean_linker_0, # of connection points: 2
#     Edge 72, Type (0, 1), BuildingBlock: CIFDUS_clean_linker_0, # of connection points: 2
#     Edge 73, Type (0, 1), BuildingBlock: CIFDUS_clean_linker_0, # of connection points: 2
#     Edge 74, Type (0, 1), BuildingBlock: CIFDUS_clean_linker_0, # of connection points: 2
#     Edge 75, Type (0, 1), BuildingBlock: CIFDUS_clean_linker_0, # of connection points: 2
#     Edge 76, Type (0, 1), BuildingBlock: CIFDUS_clean_linker_0, # of connection points: 2
#     Edge 77, Type (0, 1), BuildingBlock: CIFDUS_clean_linker_0, # of connection points: 2
#     Edge 78, Type (0, 1), BuildingBlock: CIFDUS_clean_linker_0, # of connection points: 2
#     Edge 79, Type (0, 1), BuildingBlock: CIFDUS_clean_linker_0, # of connection points: 2
#     Edge 80, Type (0, 1), BuildingBlock: CIFDUS_clean_linker_0, # of connection points: 2
#     Edge 81, Type (0, 1), BuildingBlock: CIFDUS_clean_linker_0, # of connection points: 2
#     Edge 82, Type (0, 1), BuildingBlock: CIFDUS_clean_linker_0, # of connection points: 2
#     Edge 83, Type (0, 1), BuildingBlock: CIFDUS_clean_linker_0, # of connection points: 2
#     Edge 84, Type (0, 1), BuildingBlock: CIFDUS_clean_linker_0, # of connection points: 2
#     Edge 85, Type (0, 1), BuildingBlock: CIFDUS_clean_linker_0, # of connection points: 2
#     Edge 86, Type (0, 1), BuildingBlock: CIFDUS_clean_linker_0, # of connection points: 2
#     Edge 87, Type (0, 1), BuildingBlock: CIFDUS_clean_linker_0, # of connection points: 2
#     Edge 88, Type (0, 1), BuildingBlock: CIFDUS_clean_linker_0, # of connection points: 2
#     Edge 89, Type (0, 1), BuildingBlock: CIFDUS_clean_linker_0, # of connection points: 2
#     Edge 90, Type (0, 1), BuildingBlock: CIFDUS_clean_linker_0, # of connection points: 2
#     Edge 91, Type (0, 1), BuildingBlock: CIFDUS_clean_linker_0, # of connection points: 2
#     Edge 92, Type (0, 1), BuildingBlock: CIFDUS_clean_linker_0, # of connection points: 2
#     Edge 93, Type (0, 1), BuildingBlock: CIFDUS_clean_linker_0, # of connection points: 2
#     Edge 94, Type (0, 1), BuildingBlock: CIFDUS_clean_linker_0, # of connection points: 2
#     Edge 95, Type (0, 1), BuildingBlock: CIFDUS_clean_linker_0, # of connection points: 2
#     Edge 96, Type (0, 1), BuildingBlock: CIFDUS_clean_linker_0, # of connection points: 2
#     Edge 97, Type (0, 1), BuildingBlock: CIFDUS_clean_linker_0, # of connection points: 2
#     Edge 98, Type (0, 1), BuildingBlock: CIFDUS_clean_linker_0, # of connection points: 2
#     Edge 99, Type (0, 1), BuildingBlock: CIFDUS_clean_linker_0, # of connection points: 2
#     Edge 100, Type (0, 1), BuildingBlock: CIFDUS_clean_linker_0, # of connection points: 2
#     Edge 101, Type (0, 1), BuildingBlock: CIFDUS_clean_linker_0, # of connection points: 2
#     Edge 102, Type (0, 1), BuildingBlock: CIFDUS_clean_linker_0, # of connection points: 2
#     Edge 103, Type (0, 1), BuildingBlock: CIFDUS_clean_linker_0, # of connection points: 2
#     Edge 104, Type (0, 1), BuildingBlock: CIFDUS_clean_linker_0, # of connection points: 2
#     Edge 105, Type (0, 1), BuildingBlock: CIFDUS_clean_linker_0, # of connection points: 2
#     Edge 106, Type (0, 1), BuildingBlock: CIFDUS_clean_linker_0, # of connection points: 2
#     Edge 107, Type (0, 1), BuildingBlock: CIFDUS_clean_linker_0, # of connection points: 2
#     Edge 108, Type (0, 1), BuildingBlock: CIFDUS_clean_linker_0, # of connection points: 2
#     Edge 109, Type (0, 1), BuildingBlock: CIFDUS_clean_linker_0, # of connection points: 2
#     Edge 110, Type (0, 1), BuildingBlock: CIFDUS_clean_linker_0, # of connection points: 2
#     Edge 111, Type (0, 1), BuildingBlock: CIFDUS_clean_linker_0, # of connection points: 2
#     Edge 112, Type (0, 1), BuildingBlock: CIFDUS_clean_linker_0, # of connection points: 2
#     Edge 113, Type (0, 1), BuildingBlock: CIFDUS_clean_linker_0, # of connection points: 2
#     Edge 114, Type (0, 1), BuildingBlock: CIFDUS_clean_linker_0, # of connection points: 2
#     Edge 115, Type (0, 1), BuildingBlock: CIFDUS_clean_linker_0, # of connection points: 2
#     Edge 116, Type (0, 1), BuildingBlock: CIFDUS_clean_linker_0, # of connection points: 2
#     Edge 117, Type (0, 1), BuildingBlock: CIFDUS_clean_linker_0, # of connection points: 2
#     Edge 118, Type (0, 1), BuildingBlock: CIFDUS_clean_linker_0, # of connection points: 2
#     Edge 119, Type (0, 1), BuildingBlock: CIFDUS_clean_linker_0, # of connection points: 2
#     Edge 120, Type (0, 1), BuildingBlock: CIFDUS_clean_linker_0, # of connection points: 2
#     Edge 121, Type (0, 1), BuildingBlock: CIFDUS_clean_linker_0, # of connection points: 2
#     Edge 122, Type (0, 1), BuildingBlock: CIFDUS_clean_linker_0, # of connection points: 2
#     Edge 123, Type (0, 1), BuildingBlock: CIFDUS_clean_linker_0, # of connection points: 2
#     Edge 124, Type (0, 1), BuildingBlock: CIFDUS_clean_linker_0, # of connection points: 2
#     Edge 125, Type (0, 1), BuildingBlock: CIFDUS_clean_linker_0, # of connection points: 2
#     Edge 126, Type (0, 1), BuildingBlock: CIFDUS_clean_linker_0, # of connection points: 2
#     Edge 127, Type (0, 1), BuildingBlock: CIFDUS_clean_linker_0, # of connection points: 2
#     Edge 128, Type (0, 1), BuildingBlock: CIFDUS_clean_linker_0, # of connection points: 2
#     Edge 129, Type (0, 1), BuildingBlock: CIFDUS_clean_linker_0, # of connection points: 2
#     Edge 130, Type (0, 1), BuildingBlock: CIFDUS_clean_linker_0, # of connection points: 2
#     Edge 131, Type (0, 1), BuildingBlock: CIFDUS_clean_linker_0, # of connection points: 2
#     Edge 132, Type (0, 1), BuildingBlock: CIFDUS_clean_linker_0, # of connection points: 2
#     Edge 133, Type (0, 1), BuildingBlock: CIFDUS_clean_linker_0, # of connection points: 2
#     Edge 134, Type (0, 1), BuildingBlock: CIFDUS_clean_linker_0, # of connection points: 2
#     Edge 135, Type (0, 1), BuildingBlock: CIFDUS_clean_linker_0, # of connection points: 2
# Relax obj value: 0.129
# Max RMSD: 0.331
# Mean RMSD: 0.153
data_MOF--net-gar--node1-CEKHIL_clean_sbu_0--node2-KUMBOL_clean_sbu_0--edge1-CIFDUS_clean_linker_0
_symmetry_space_group_name_H-M    P1
_symmetry_Int_Tables_number       1
_symmetry_cell_setting            triclinic
loop_
_symmetry_equiv_pos_as_xyz
'x, y, z'
_cell_length_a     54.87647
_cell_length_b     48.95928
_cell_length_c     48.554037
_cell_angle_alpha  100.1335
_cell_angle_beta   94.134107
_cell_angle_gamma 101.76353
loop_
_atom_site_label
_atom_site_type_symbol
_atom_site_fract_x
_atom_site_fract_y
_atom_site_fract_z
_atom_type_partial_charge
Co0 Co 0.13973 0.33876 0.39421 0.0
O1 O 0.17377 0.33568 0.39424 0.0
O2 O 0.14543 0.31924 0.35721 0.0
C3 C 0.14831 0.38524 0.41433 0.0
O4 O 0.10291 0.34047 0.38707 0.0
Co5 Co 0.11992 0.3552 0.45218 0.0
O6 O 0.0937 0.3647 0.42753 0.0
C7 C 0.12856 0.29762 0.43421 0.0
C8 C 0.16875 0.32389 0.36786 0.0
C9 C 0.0889 0.35468 0.40114 0.0
O10 O 0.13075 0.30181 0.40886 0.0
O11 O 0.12694 0.3172 0.45481 0.0
O12 O 0.14864 0.37769 0.3874 0.0
O13 O 0.14543 0.36484 0.42814 0.0
Co14 Co 1.01442 0.7718 0.67028 0.0
O15 O 0.97894 0.76883 0.66378 0.0
O16 O 0.99913 0.77101 0.70541 0.0
C17 C 0.0246 0.80609 0.64451 0.0
O18 O 0.0513 0.77574 0.68446 0.0
Co19 Co 0.04432 0.75954 0.61825 0.0
O20 O 0.07362 0.77434 0.64721 0.0
C21 C 1.01387 0.71232 0.63988 0.0
C22 C 0.97809 0.76984 0.6905 0.0
C23 C 0.07227 0.77731 0.67367 0.0
O24 O 1.01015 0.729 0.66209 0.0
O25 O 0.02399 0.72097 0.61912 0.0
O26 O 0.02047 0.8131 0.67056 0.0
O27 O 0.02072 0.77928 0.6349 0.0
Co28 Co 0.64762 0.83973 0.89414 0.0
O29 O 0.683 0.84256 0.90258 0.0
O30 O 0.66133 0.82573 0.86045 0.0
C31 C 0.64658 0.88374 0.91644 0.0
O32 O 0.6117 0.83491 0.8768 0.0
Co33 Co 0.61204 0.84502 0.94095 0.0
O34 O 0.58727 0.84714 0.91002 0.0
C35 C 0.63295 0.79409 0.92807 0.0
C36 C 0.68279 0.83256 0.87593 0.0
C37 C 0.59084 0.84026 0.88431 0.0
O38 O 0.63986 0.80073 0.9048 0.0
O39 O 0.62435 0.81054 0.94649 0.0
O40 O 0.65375 0.88003 0.89138 0.0
O41 O 0.64302 0.86162 0.92787 0.0
Co42 Co 0.50597 0.2679 0.1753 0.0
O43 O 0.47049 0.26405 0.17613 0.0
O44 O 0.49732 0.26783 0.21353 0.0
C45 C 0.51077 0.30037 0.14675 0.0
O46 O 0.54398 0.27191 0.18154 0.0
Co47 Co 0.52594 0.2518 0.11567 0.0
O48 O 0.55895 0.2626 0.13945 0.0
C49 C 0.49732 0.21128 0.14225 0.0
C50 C 0.47416 0.26452 0.2029 0.0
C51 C 0.56211 0.26919 0.16637 0.0
O52 O 0.50194 0.22551 0.1675 0.0
O53 O 0.49497 0.2245 0.12219 0.0
O54 O 0.51065 0.30896 0.17371 0.0
O55 O 0.50627 0.27335 0.13847 0.0
Co56 Co 0.11509 0.83484 0.12877 0.0
O57 O 0.07854 0.82943 0.1236 0.0
O58 O 0.10006 0.82963 0.16346 0.0
C59 C 0.12135 0.87497 0.10612 0.0
O60 O 0.15277 0.8399 0.14551 0.0
Co61 Co 0.1454 0.82651 0.08324 0.0
O62 O 0.17606 0.83375 0.11027 0.0
C63 C 0.11678 0.77424 0.0958 0.0
C64 C 0.07826 0.82723 0.14982 0.0
C65 C 0.17425 0.83802 0.13657 0.0
O66 O 0.11138 0.79103 0.11719 0.0
O67 O 0.12923 0.7845 0.0773 0.0
O68 O 0.11867 0.87679 0.13267 0.0
O69 O 0.12004 0.84884 0.09324 0.0
Co70 Co 0.53667 0.78231 0.43419 0.0
O71 O 0.57329 0.78823 0.43509 0.0
O72 O 0.54652 0.76662 0.39814 0.0
C73 C 0.53733 0.82912 0.4555 0.0
O74 O 0.49809 0.77509 0.42071 0.0
Co75 Co 0.50737 0.78682 0.48273 0.0
O76 O 0.48106 0.79517 0.45694 0.0
C77 C 0.53007 0.73637 0.4726 0.0
C78 C 0.56976 0.77623 0.40861 0.0
C79 C 0.48015 0.7862 0.43057 0.0
O80 O 0.53559 0.7436 0.44873 0.0
O81 O 0.5196 0.75216 0.48973 0.0
O82 O 0.5389 0.82183 0.42878 0.0
O83 O 0.53652 0.8084 0.46909 0.0
Co84 Co 0.61132 0.32928 0.62404 0.0
O85 O 0.57543 0.32341 0.61377 0.0
O86 O 0.59249 0.32244 0.65582 0.0
C87 C 0.61995 0.37062 0.60364 0.0
O88 O 0.64707 0.33447 0.64553 0.0
Co89 Co 0.64667 0.32266 0.58507 0.0
O90 O 0.67508 0.32954 0.61531 0.0
C91 C 0.61586 0.26939 0.59203 0.0
C92 C 0.5722 0.32012 0.63929 0.0
C93 C 0.66977 0.33322 0.64052 0.0
O94 O 0.6084 0.28569 0.61219 0.0
O95 O 0.63069 0.28035 0.57583 0.0
O96 O 0.61461 0.371 0.62924 0.0
O97 O 0.62034 0.34509 0.5901 0.0
Co98 Co 0.04156 0.28896 0.93399 0.0
O99 O 0.0779 0.3 0.9419 0.0
O100 O 0.05783 0.27725 0.90086 0.0
C101 C 0.03539 0.33402 0.95251 0.0
O102 O 1.00479 0.27714 0.91444 0.0
Co103 Co 1.00818 0.28296 0.9747 0.0
O104 O 0.9803 0.28679 0.94746 0.0
C105 C 0.03606 0.23845 0.96755 0.0
C106 C 0.07912 0.28944 0.91572 0.0
C107 C 0.98349 0.28185 0.92154 0.0
O108 O 0.04264 0.25017 0.94641 0.0
O109 O 0.02214 0.24958 0.98414 0.0
O110 O 0.04064 0.32639 0.92722 0.0
O111 O 0.03514 0.31464 0.96813 0.0
Co112 Co 0.43463 0.06115 0.31356 0.0
O113 O 0.4308 0.09847 0.30927 0.0
O114 O 0.39994 0.06015 0.30422 0.0
C115 C 0.46145 0.07531 0.35328 0.0
O116 O 0.43 0.01966 0.31589 0.0
Co117 Co 0.48497 0.04149 0.314 0.0
O118 O 0.46547 1.00389 0.31859 0.0
C119 C 0.45971 0.05091 0.26156 0.0
C120 C 0.40703 0.08686 0.3031 0.0
C121 C 0.4417 0.99969 0.31727 0.0
O122 O 0.43922 0.05147 0.2726 0.0
O123 O 0.48035 0.05081 0.27562 0.0
O124 O 0.43744 0.07209 0.35467 0.0
O125 O 0.4683 0.07136 0.3284 0.0
Co126 Co 0.30827 0.1947 0.51089 0.0
O127 O 0.34426 0.19982 0.51584 0.0
O128 O 0.31791 0.16112 0.52119 0.0
C129 C 0.30691 0.21013 0.46871 0.0
O130 O 0.26971 0.18107 0.50714 0.0
Co131 Co 0.28539 0.24568 0.51307 0.0
O132 O 0.25246 0.21839 0.50461 0.0
C133 C 0.30469 0.23488 0.56675 0.0
C134 C 0.34103 0.17473 0.52198 0.0
C135 C 0.2503 0.19201 0.50469 0.0
O136 O 0.30883 0.21177 0.55247 0.0
O137 O 0.29687 0.25323 0.55475 0.0
O138 O 0.30744 0.18405 0.47011 0.0
O139 O 0.30914 0.22713 0.49302 0.0
Co140 Co 0.20182 1.01878 0.78683 0.0
O141 O 0.19854 0.97516 0.78367 0.0
O142 O 0.23271 1.00162 0.77868 0.0
C143 C 0.18053 0.02624 0.83086 0.0
O144 O 0.22012 0.06276 0.79058 0.0
Co145 Co 0.16518 0.05694 0.78868 0.0
O146 O 0.19317 0.09137 0.79429 0.0
C147 C 0.16949 0.02813 0.73097 0.0
C148 C 0.22196 0.97577 0.77989 0.0
C149 C 0.21557 0.08831 0.79296 0.0
O150 O 0.18783 1.0177 0.74244 0.0
O151 O 0.15702 0.04232 0.74697 0.0
O152 O 0.2034 0.02262 0.83044 0.0
O153 O 0.17118 0.02486 0.80525 0.0
Co154 Co 0.3432 0.95513 0.02072 0.0
O155 O 0.30919 0.9592 0.02281 0.0
O156 O 0.3427 0.99441 0.03541 0.0
C157 C 0.33584 0.92736 0.9777 0.0
O158 O 0.38103 0.95944 0.02035 0.0
Co159 Co 0.35685 0.89557 0.01326 0.0
O160 O 0.39006 0.91668 1.00647 0.0
C161 C 0.34077 0.92158 0.0666 0.0
C162 C 0.31842 0.986 0.03278 0.0
C163 C 0.39658 0.94376 0.01287 0.0
O164 O 0.34477 0.94628 0.05983 0.0
O165 O 0.34155 0.89871 0.04955 0.0
O166 O 0.33991 0.95485 0.97999 0.0
O167 O 0.33498 0.91808 1.00075 0.0
Co168 Co 0.34025 0.40763 0.03838 0.0
O169 O 0.3041 0.40201 0.0339 0.0
O170 O 0.32999 0.44334 0.05053 0.0
C171 C 0.34257 0.38279 0.99437 0.0
O172 O 0.37865 0.42278 0.04418 0.0
Co173 Co 0.3657 0.35754 0.03734 0.0
O174 O 0.39681 0.38558 0.03484 0.0
C175 C 0.34073 0.375 0.08697 0.0
C176 C 0.30702 0.42915 0.04291 0.0
C177 C 0.39822 0.41234 0.04016 0.0
O178 O 0.33924 0.39807 0.07797 0.0
O179 O 0.34854 0.35477 0.07234 0.0
O180 O 0.34101 0.40926 0.99836 0.0
O181 O 0.3409 0.37156 0.01659 0.0
Co182 Co 0.80884 0.13894 0.01861 0.0
O183 O 0.84404 0.14209 0.01728 0.0
O184 O 0.81852 0.10604 0.0295 0.0
C185 C 0.80203 0.15111 0.97654 0.0
O186 O 0.77142 0.12826 0.02162 0.0
Co187 Co 0.78582 0.19222 0.01672 0.0
O188 O 0.75381 0.16559 0.01846 0.0
C189 C 0.81583 0.18777 0.06797 0.0
C190 C 0.84099 0.11757 0.02474 0.0
C191 C 0.75244 0.13996 0.02138 0.0
O192 O 0.815 0.16117 0.0587 0.0
O193 O 0.80847 0.20402 0.05274 0.0
O194 O 0.80249 0.12486 0.97751 0.0
O195 O 0.80707 0.16864 1.00024 0.0
Co196 Co 0.2228 0.55596 0.26505 0.0
O197 O 0.22697 0.51757 0.25991 0.0
O198 O 0.25402 0.55384 0.24991 0.0
C199 C 0.21096 0.55793 0.30869 0.0
O200 O 0.22552 0.5984 0.26836 0.0
Co201 Co 0.17103 0.57053 0.27505 0.0
O202 O 0.19009 0.61061 0.28134 0.0
C203 C 0.18025 0.54299 0.21881 0.0
C204 C 0.24836 0.52702 0.25124 0.0
C205 C 0.2126 0.61711 0.27553 0.0
O206 O 0.20398 0.54815 0.2263 0.0
O207 O 0.16416 0.54711 0.23604 0.0
O208 O 0.23464 0.56244 0.30536 0.0
O209 O 0.19577 0.55045 0.28589 0.0
Co210 Co 0.8381 0.90623 0.53637 0.0
O211 O 0.80164 0.89734 0.53072 0.0
O212 O 0.82485 0.93777 0.55474 0.0
C213 C 0.8431 0.89187 0.48998 0.0
O214 O 0.87546 0.92605 0.54473 0.0
Co215 Co 0.87053 0.86288 0.52526 0.0
O216 O 0.89882 0.89597 0.52728 0.0
C217 C 0.8443 0.86513 0.57646 0.0
C218 C 0.8027 0.92313 0.54394 0.0
C219 C 0.8966 0.92092 0.53787 0.0
O220 O 0.83806 0.88826 0.57189 0.0
O221 O 0.85563 0.85083 0.55901 0.0
O222 O 0.83884 0.91669 0.49954 0.0
O223 O 0.84257 0.8753 0.50814 0.0
Co224 Co 0.95637 0.08642 0.28938 0.0
O225 O 0.95836 0.1301 0.29383 0.0
O226 O 0.92415 0.10069 0.27947 0.0
C227 C 0.98011 0.08475 0.33501 0.0
O228 O 0.94063 0.0411 0.28337 0.0
Co229 Co 0.9981 0.05317 0.28759 0.0
O230 O 0.97193 0.01915 0.29013 0.0
C231 C 0.98907 0.07532 0.23588 0.0
C232 C 0.93455 0.12764 0.28615 0.0
C233 C 0.94847 1.01787 0.28585 0.0
O234 O 0.9691 0.08313 0.24672 0.0
O235 O 1.00378 0.065 0.25068 0.0
O236 O 0.95715 0.08834 0.33293 0.0
O237 O 0.98821 0.08477 0.31071 0.0
Co238 Co 0.30598 0.63179 0.53061 0.0
O239 O 0.33994 0.62782 0.52937 0.0
O240 O 0.30823 0.59274 0.53203 0.0
C241 C 0.30612 0.65569 0.49508 0.0
O242 O 0.26819 0.62923 0.53192 0.0
Co243 Co 0.2968 0.69384 0.54326 0.0
O244 O 0.26116 0.67361 0.53652 0.0
C245 C 0.3186 0.66923 0.5877 0.0
C246 C 0.33211 0.60132 0.53044 0.0
C247 C 0.25336 0.64676 0.53378 0.0
O248 O 0.31217 0.64389 0.57284 0.0
O249 O 0.31725 0.69168 0.57817 0.0
O250 O 0.30119 0.62806 0.48938 0.0
O251 O 0.31234 0.66733 0.5211 0.0
Co252 Co 0.45666 0.58872 0.7896 0.0
O253 O 0.45985 0.63249 0.79439 0.0
O254 O 0.42499 0.60411 0.78024 0.0
C255 C 0.47954 0.58622 0.83523 0.0
O256 O 0.44012 0.54376 0.78366 0.0
Co257 Co 0.49729 0.55438 0.78728 0.0
O258 O 0.47075 0.52072 0.79003 0.0
C259 C 0.48842 0.57616 0.73524 0.0
C260 C 0.4361 0.63084 0.78714 0.0
C261 C 0.44743 0.52025 0.78608 0.0
O262 O 0.46905 0.58496 0.74663 0.0
O263 O 0.50286 0.56529 0.74982 0.0
O264 O 0.45684 0.59049 0.83285 0.0
O265 O 0.48819 0.58622 0.81113 0.0
Co266 Co 0.71684 0.0455 0.74799 0.0
O267 O 0.7125 1.00624 0.75206 0.0
O268 O 0.74826 0.03421 0.74643 0.0
C269 C 0.69452 0.05921 0.78298 0.0
O270 O 0.7302 0.08669 0.74572 0.0
Co271 Co 0.67372 0.0755 0.7346 0.0
O272 O 0.6999 0.11122 0.7441 0.0
C273 C 0.68628 0.03082 0.6924 0.0
C274 C 0.73653 1.00978 0.75076 0.0
C275 C 0.72292 0.11011 0.74658 0.0
O276 O 0.70808 0.0337 0.7058 0.0
O277 O 0.66924 0.04256 0.7026 0.0
O278 O 0.71756 0.05735 0.78901 0.0
O279 O 0.68565 0.05091 0.75696 0.0
Co280 Co 0.80959 0.69369 1.00883 0.0
O281 O 0.84608 0.70052 0.01396 0.0
O282 O 0.82039 0.66132 0.01926 0.0
C283 C 0.80658 0.70886 0.96657 0.0
O284 O 0.77196 0.67612 1.00463 0.0
Co285 Co 0.78011 0.73867 1.01001 0.0
O286 O 0.74895 0.70813 1.00065 0.0
C287 C 0.8026 0.73233 0.06426 0.0
C288 C 0.84329 0.67519 0.01977 0.0
C289 C 0.75055 0.68265 1.00112 0.0
O290 O 0.80922 0.7105 0.05038 0.0
O291 O 0.79199 0.74848 0.05178 0.0
O292 O 0.80933 0.68347 0.9682 0.0
O293 O 0.80727 0.72561 0.99081 0.0
Co294 Co 0.94859 0.56892 0.81044 0.0
O295 O 0.95371 0.60681 0.80209 0.0
O296 O 0.91698 0.5778 0.80276 0.0
C297 C 0.97732 0.57955 0.84834 0.0
O298 O 0.9343 0.52978 0.81748 0.0
Co299 Co 0.98793 0.53176 0.8122 0.0
O300 O 0.96152 0.50231 0.82266 0.0
C301 C 0.96564 0.54111 0.75787 0.0
C302 C 0.92933 0.60203 0.7987 0.0
C303 C 0.93931 0.50631 0.82164 0.0
O304 O 0.94897 0.5525 0.76962 0.0
O305 O 0.98365 0.53425 0.77139 0.0
O306 O 0.95506 0.58448 0.85078 0.0
O307 O 0.98176 0.5696 0.82329 0.0
Co308 Co 0.84111 0.45487 0.51422 0.0
O309 O 0.80797 0.45934 0.52091 0.0
O310 O 0.84238 0.49312 0.53449 0.0
C311 C 0.83062 0.43307 0.46913 0.0
O312 O 0.87837 0.45805 0.50959 0.0
Co313 Co 0.85198 0.3945 0.49561 0.0
O314 O 0.88427 0.41609 0.48686 0.0
C315 C 0.84214 0.41455 0.55405 0.0
C316 C 0.81808 0.48535 0.53308 0.0
C317 C 0.89225 0.44257 0.49694 0.0
O318 O 0.84494 0.4404 0.55038 0.0
O319 O 0.84153 0.39339 0.5341 0.0
O320 O 0.83538 0.46072 0.47553 0.0
O321 O 0.83069 0.42016 0.48993 0.0
Co322 Co 0.70078 0.51677 0.28519 0.0
O323 O 0.69633 0.47302 0.28195 0.0
O324 O 0.73094 0.49794 0.27613 0.0
C325 C 0.67983 0.52492 0.32949 0.0
O326 O 0.71984 0.56068 0.28887 0.0
Co327 Co 0.66498 0.55651 0.28814 0.0
O328 O 0.6937 0.59024 0.29446 0.0
C329 C 0.66784 0.52695 0.23019 0.0
C330 C 0.71951 0.47243 0.27782 0.0
C331 C 0.71584 0.58659 0.29223 0.0
O332 O 0.68615 0.51607 0.2411 0.0
O333 O 0.65597 0.54158 0.24658 0.0
O334 O 0.70246 0.5205 0.3289 0.0
O335 O 0.67063 0.52396 0.30396 0.0
Gd336 Gd 0.11264 0.07719 0.05249 0.0
Gd337 Gd 0.0563 0.0377 0.01547 0.0
C338 C 0.04726 0.94156 1.00885 0.0
C339 C 0.0459 0.9248 0.95849 0.0
C340 C 0.04994 0.97511 0.97754 0.0
C341 C 0.05014 0.96969 1.00438 0.0
C342 C 0.04695 0.95263 0.95413 0.0
C343 C 0.04606 0.91927 0.98585 0.0
C344 C 0.04436 0.93653 0.03604 0.0
C345 C 0.04316 0.95906 0.05757 0.0
N346 N 0.05076 0.99165 0.02589 0.0
C347 C 0.04609 0.98657 0.052 0.0
H348 H 0.04531 1.00383 0.06885 0.0
C349 C 0.04523 1.00753 0.94793 0.0
N350 N 0.05029 1.00207 0.97422 0.0
C351 C 0.04258 0.98608 0.92401 0.0
C352 C 0.04389 0.95858 0.9271 0.0
H353 H 0.04427 0.02881 0.94543 0.0
H354 H 0.04419 0.89757 0.98889 0.0
H355 H 0.15081 0.09724 1.00144 0.0
H356 H 0.04209 0.91524 0.04038 0.0
H357 H 0.04018 0.95532 0.07851 0.0
H358 H 0.04392 0.90728 0.94081 0.0
H359 H 0.09964 0.10935 0.11682 0.0
H360 H 0.14247 0.17885 0.98989 0.0
H361 H 0.15829 0.13544 0.97533 0.0
H362 H 0.10343 0.21243 0.06969 0.0
H363 H 0.03945 0.99076 0.90324 0.0
H364 H 0.04155 0.94191 0.90857 0.0
H365 H 0.12214 0.20735 0.02519 0.0
H366 H 0.08848 0.1533 0.1378 0.0
N367 N 0.12627 0.11534 0.02823 0.0
C368 C 0.13811 0.1614 1.00099 0.0
C369 C 0.14688 0.13687 0.99258 0.0
C370 C 0.12532 0.16388 0.02479 0.0
C371 C 0.1199 0.14039 0.03843 0.0
C372 C 0.14159 0.11448 1.00706 0.0
N373 N 0.10468 0.12068 0.07655 0.0
C374 C 0.10888 0.14313 0.06326 0.0
C375 C 0.09352 0.15054 0.1165 0.0
C376 C 0.09511 0.17269 0.10184 0.0
C377 C 0.09913 0.125 0.10388 0.0
C378 C 0.10366 0.16954 0.07531 0.0
H379 H 0.09095 0.19258 0.11176 0.0
O380 O 0.13097 0.07961 0.09444 0.0
O381 O 0.0873 0.03402 0.04693 0.0
O382 O 0.04622 0.05421 0.06107 0.0
O383 O 0.0853 0.06685 0.08625 0.0
O384 O 0.12408 0.03456 0.04211 0.0
O385 O 0.15272 0.09386 0.06232 0.0
O386 O 0.02388 0.04595 0.9924 0.0
O387 O 0.07629 0.0834 0.03217 0.0
O388 O 0.12329 0.05885 1.00818 0.0
O389 O 0.08585 0.03489 0.98193 0.0
O390 O 0.06289 0.07266 0.99008 0.0
O391 O 0.01941 0.02812 0.02965 0.0
C392 C 0.10297 1.01771 0.04354 0.0
C393 C 0.10781 0.19227 0.06099 0.0
C394 C 0.11848 0.18939 0.03569 0.0
C395 C 0.15318 0.08946 0.08794 0.0
C396 C 0.174 0.07805 0.09889 0.0
C397 C 0.17955 0.08218 0.12818 0.0
C398 C 0.18947 0.06521 0.08112 0.0
C399 C 0.21067 0.05732 0.09279 0.0
C400 C 0.2003 0.07403 0.13973 0.0
C401 C 0.21586 0.06185 0.12222 0.0
C402 C 0.0603 0.06231 0.08598 0.0
C403 C 0.07294 0.0939 1.00998 0.0
C404 C 1.00844 0.03684 1.00945 0.0
C405 C 0.98331 0.02067 0.99753 0.0
C406 C 0.97916 0.99564 0.97714 0.0
C407 C 0.96296 0.03141 1.00682 0.0
C408 C 0.9383 1.01832 0.995 0.0
C409 C 0.95466 0.98183 0.96585 0.0
C410 C 0.93433 0.99315 0.9745 0.0
C411 C 0.11072 0.04485 0.98336 0.0
H412 H 0.168 0.09217 0.14218 0.0
H413 H 0.18545 0.062 0.05845 0.0
H414 H 0.20445 0.07737 0.16237 0.0
H415 H 0.23185 0.05564 0.13169 0.0
H416 H 0.99473 0.98696 0.96992 0.0
H417 H 0.96656 0.05037 0.02319 0.0
H418 H 0.95142 0.96258 0.94996 0.0
H419 H 0.91567 0.9826 0.96462 0.0
Gd420 Gd 0.31486 0.82634 0.3178 0.0
Gd421 Gd 0.33705 0.79519 0.2539 0.0
C422 C 0.29586 0.70954 0.19651 0.0
C423 C 0.32869 0.68308 0.19374 0.0
C424 C 0.33641 0.7307 0.22274 0.0
C425 C 0.31241 0.73288 0.21463 0.0
C426 C 0.34482 0.70574 0.21236 0.0
C427 C 0.30423 0.68496 0.18586 0.0
C428 C 0.27106 0.71103 0.19025 0.0
C429 C 0.26288 0.73462 0.20298 0.0
N430 N 0.30479 0.75692 0.22567 0.0
C431 C 0.27973 0.75695 0.22096 0.0
H432 H 0.27146 0.7729 0.23208 0.0
C433 C 0.3758 0.75152 0.24858 0.0
N434 N 0.35153 0.75273 0.24107 0.0
C435 C 0.38487 0.72732 0.23901 0.0
C436 C 0.36928 0.70424 0.22087 0.0
H437 H 0.38865 0.7694 0.26178 0.0
H438 H 0.29179 0.66707 0.17186 0.0
H439 H 0.37298 0.86371 0.35042 0.0
H440 H 0.25784 0.69357 0.17658 0.0
H441 H 0.24333 0.73537 0.19958 0.0
H442 H 0.33487 0.66389 0.18554 0.0
H443 H 0.25432 0.82855 0.31615 0.0
H444 H 0.37266 0.95175 0.36515 0.0
H445 H 0.39452 0.91285 0.36803 0.0
H446 H 0.28749 0.9536 0.33944 0.0
H447 H 0.40402 0.72666 0.24539 0.0
H448 H 0.37638 0.68551 0.21334 0.0
H449 H 0.33292 0.96679 0.35344 0.0
H450 H 0.22812 0.8642 0.31855 0.0
N451 N 0.33837 0.87333 0.33617 0.0
C452 C 0.36281 0.92991 0.35719 0.0
C453 C 0.37518 0.90801 0.35891 0.0
C454 C 0.33763 0.9233 0.34621 0.0
C455 C 0.32564 0.89445 0.33609 0.0
C456 C 0.36263 0.87978 0.34854 0.0
N457 N 0.28873 0.85917 0.32113 0.0
C458 C 0.30008 0.88713 0.32809 0.0
C459 C 0.24833 0.87098 0.32093 0.0
C460 C 0.25972 0.89984 0.3256 0.0
C461 C 0.26321 0.85088 0.31955 0.0
C462 C 0.28587 0.90829 0.33012 0.0
H463 H 0.24818 0.91543 0.327 0.0
O464 O 0.31562 0.79761 0.34711 0.0
O465 O 0.31576 0.78603 0.28917 0.0
O466 O 0.30364 0.81222 0.23756 0.0
O467 O 0.28861 0.8307 0.27943 0.0
O468 O 0.28098 0.7918 0.30039 0.0
O469 O 0.30186 0.83554 0.35903 0.0
O470 O 0.37683 0.81251 0.25587 0.0
O471 O 0.34302 0.83332 0.28853 0.0
O472 O 0.35378 0.81852 0.32945 0.0
O473 O 0.35662 0.78284 0.29241 0.0
O474 O 0.33728 0.83958 0.24746 0.0
O475 O 0.35424 0.79865 0.21524 0.0
C476 C 0.2928 0.77436 0.28694 0.0
C477 C 0.29805 0.93706 0.33815 0.0
C478 C 0.3239 0.94455 0.34619 0.0
C479 C 0.30382 0.81125 0.36503 0.0
C480 C 0.28177 0.7939 0.37414 0.0
C481 C 0.25795 0.80022 0.37174 0.0
C482 C 0.28478 0.77017 0.38524 0.0
C483 C 0.26453 0.75305 0.39464 0.0
C484 C 0.23752 0.78283 0.38025 0.0
C485 C 0.24073 0.75936 0.39171 0.0
C486 C 0.28705 0.82445 0.25124 0.0
C487 C 0.34281 0.8519 0.27355 0.0
C488 C 0.37625 0.81128 0.22883 0.0
C489 C 0.39018 0.83701 0.22043 0.0
C490 C 0.41635 0.8437 0.22566 0.0
C491 C 0.37801 0.85518 0.20799 0.0
C492 C 0.39187 0.87948 0.19975 0.0
C493 C 0.43025 0.86789 0.21818 0.0
C494 C 0.41823 0.8855 0.20511 0.0
C495 C 0.36454 0.79779 0.31838 0.0
H496 H 0.25506 0.81854 0.36343 0.0
H497 H 0.30315 0.76518 0.38678 0.0
H498 H 0.21922 0.78782 0.37837 0.0
H499 H 0.22482 0.74673 0.39904 0.0
H500 H 0.42606 0.8301 0.23549 0.0
H501 H 0.3578 0.85011 0.20458 0.0
H502 H 0.45049 0.87273 0.22203 0.0
H503 H 0.42984 0.90322 0.19839 0.0
Gd504 Gd 0.54375 0.04238 0.54503 0.0
Gd505 Gd 0.60229 0.05297 0.51049 0.0
C506 C 0.64801 0.13863 0.49984 0.0
C507 C 0.64285 0.13458 0.44902 0.0
C508 C 0.62296 0.09559 0.47029 0.0
C509 C 0.6327 0.11116 0.49669 0.0
C510 C 0.62816 0.10691 0.44606 0.0
C511 C 0.65276 0.15042 0.47587 0.0
C512 C 0.65839 0.1532 0.52693 0.0
C513 C 0.6538 0.14006 0.54992 0.0
N514 N 0.62769 0.09909 0.5193 0.0
C515 C 0.63855 0.1127 0.54565 0.0
H516 H 0.63513 0.10273 0.56356 0.0
C517 C 0.60079 0.05172 0.44258 0.0
N518 N 0.6091 0.06891 0.46827 0.0
C519 C 0.60522 0.06205 0.41788 0.0
C520 C 0.61882 0.08986 0.41963 0.0
H521 H 0.59024 0.03023 0.44123 0.0
H522 H 0.66436 0.17157 0.47784 0.0
H523 H 0.509 0.98779 0.49768 0.0
H524 H 0.67021 0.17438 0.53027 0.0
H525 H 0.66195 0.15098 0.57092 0.0
H526 H 0.64697 0.14374 0.43067 0.0
H527 H 0.56146 0.07184 0.61492 0.0
H528 H 0.48204 0.92015 0.54029 0.0
H529 H 0.4854 0.93886 0.49628 0.0
H530 H 0.5099 0.96117 0.63723 0.0
H531 H 0.5982 0.04856 0.39755 0.0
H532 H 0.62235 0.09777 0.40048 0.0
H533 H 0.49108 0.92877 0.59282 0.0
H534 H 0.557 0.05748 0.66033 0.0
N535 N 0.5203 0.99603 0.54171 0.0
C536 C 0.49268 0.94154 0.54097 0.0
C537 C 0.49453 0.952 0.51609 0.0
C538 C 0.50395 0.95908 0.56655 0.0
C539 C 0.51768 0.98674 0.56632 0.0
C540 C 0.50815 0.97962 0.51692 0.0
N541 N 0.5409 0.03198 0.59061 0.0
C542 C 0.52804 1.00525 0.59145 0.0
C543 C 0.54874 0.04261 0.64111 0.0
C544 C 0.53587 1.01525 0.64227 0.0
C545 C 0.55105 0.05073 0.61506 0.0
C546 C 0.5253 0.99619 0.61732 0.0
H547 H 0.53418 1.00906 0.66252 0.0
O548 O 0.5248 0.07686 0.54137 0.0
O549 O 0.57569 0.07437 0.53487 0.0
O550 O 0.60723 0.05459 0.55751 0.0
O551 O 0.57224 0.0249 0.56791 0.0
O552 O 0.56145 0.08617 0.57182 0.0
O553 O 0.50285 0.03516 0.54026 0.0
O554 O 0.62462 0.02383 0.49222 0.0
O555 O 0.56853 0.02175 0.51739 0.0
O556 O 0.53855 0.03345 0.49788 0.0
O557 O 0.571 0.06458 0.48435 0.0
O558 O 0.58883 1.00745 0.48641 0.0
O559 O 0.63729 0.05094 0.533 0.0
C560 C 0.57785 0.09506 0.5557 0.0
C561 C 0.51212 0.96846 0.61755 0.0
C562 C 0.50146 0.94998 0.59225 0.0
C563 C 0.50239 0.06154 0.54028 0.0
C564 C 0.48547 0.0742 0.5584 0.0
C565 C 0.49095 0.0797 0.58777 0.0
C566 C 0.4644 0.08221 0.54639 0.0
C567 C 0.44934 0.09628 0.56373 0.0
C568 C 0.47593 0.09333 0.60496 0.0
C569 C 0.45541 0.10178 0.59308 0.0
C570 C 0.59671 0.03466 0.57077 0.0
C571 C 0.57053 0.99936 0.50037 0.0
C572 C 0.64205 0.03135 0.51358 0.0
C573 C 0.66826 0.03469 0.50722 0.0
C574 C 0.67777 0.05382 0.49026 0.0
C575 C 0.68409 1.01893 0.51856 0.0
C576 C 0.70943 0.02274 0.51327 0.0
C577 C 0.70268 0.05737 0.48467 0.0
C578 C 0.71841 0.04211 0.49613 0.0
C579 C 0.5469 0.05185 0.48207 0.0
H580 H 0.50703 0.07377 0.59735 0.0
H581 H 0.46016 0.07821 0.5237 0.0
H582 H 0.48036 0.09762 0.62761 0.0
H583 H 0.44416 0.11254 0.60685 0.0
H584 H 0.66592 0.06603 0.4814 0.0
H585 H 0.67687 1.00429 0.53191 0.0
H586 H 0.7099 0.07215 0.4715 0.0
H587 H 0.73769 0.04538 0.49149 0.0
Gd588 Gd 0.35532 0.2949 0.78348 0.0
Gd589 Gd 0.29581 0.31609 0.78117 0.0
C590 C 0.25867 0.30528 0.6909 0.0
C591 C 0.26299 0.35419 0.68521 0.0
C592 C 0.27802 0.34366 0.72982 0.0
C593 C 0.27054 0.31478 0.71882 0.0
C594 C 0.27343 0.36361 0.71337 0.0
C595 C 0.25565 0.32508 0.67399 0.0
C596 C 0.24966 0.27615 0.68089 0.0
C597 C 0.25158 0.2573 0.69884 0.0
N598 N 0.27375 0.296 0.73563 0.0
C599 C 0.26328 0.26758 0.7263 0.0
H600 H 0.26403 0.25209 0.73926 0.0
C601 C 0.29016 0.38006 0.7702 0.0
N602 N 0.28785 0.35225 0.75721 0.0
C603 C 0.2862 0.40057 0.75474 0.0
C604 C 0.27836 0.3924 0.72601 0.0
H605 H 0.29544 0.38665 0.79264 0.0
H606 H 0.24695 0.31809 0.65245 0.0
H607 H 0.38485 0.35491 0.83044 0.0
H608 H 0.24059 0.26808 0.6596 0.0
H609 H 0.24406 0.23474 0.69153 0.0
H610 H 0.2597 0.36924 0.67222 0.0
H611 H 0.35826 0.22637 0.76342 0.0
H612 H 0.40473 0.33065 0.90771 0.0
H613 H 0.40311 0.36792 0.87971 0.0
H614 H 0.38804 0.22912 0.88343 0.0
H615 H 0.28894 0.42261 0.76509 0.0
H616 H 0.27504 0.40829 0.71409 0.0
H617 H 0.39831 0.27873 0.90911 0.0
H618 H 0.36564 0.18663 0.78567 0.0
N619 N 0.37512 0.31033 0.83009 0.0
C620 C 0.39662 0.32468 0.88591 0.0
C621 C 0.39582 0.34576 0.87015 0.0
C622 C 0.38802 0.29609 0.87297 0.0
C623 C 0.37753 0.28946 0.84454 0.0
C624 C 0.38534 0.33817 0.842 0.0
N625 N 0.36382 0.25613 0.80218 0.0
C626 C 0.37169 0.26149 0.83013 0.0
C627 C 0.36718 0.20751 0.79846 0.0
C628 C 0.37321 0.2121 0.82758 0.0
C629 C 0.36313 0.23005 0.78592 0.0
C630 C 0.37623 0.2395 0.8437 0.0
H631 H 0.37651 0.19465 0.83723 0.0
O632 O 0.37601 0.30655 0.74899 0.0
O633 O 0.3241 0.30087 0.75463 0.0
O634 O 0.28733 0.26858 0.78149 0.0
O635 O 0.32494 0.25497 0.78951 0.0
O636 O 0.3362 0.2631 0.7451 0.0
O637 O 0.39431 0.29133 0.78156 0.0
O638 O 0.27762 0.34227 0.81065 0.0
O639 O 0.33177 0.31976 0.80832 0.0
O640 O 0.36493 0.34355 0.78416 0.0
O641 O 0.32693 0.35771 0.78565 0.0
O642 O 0.29932 0.3051 0.82424 0.0
O643 O 0.25721 0.30066 0.78828 0.0
C644 C 0.32158 0.2781 0.73627 0.0
C645 C 0.38484 0.24579 0.87254 0.0
C646 C 0.3907 0.27405 0.88716 0.0
C647 C 0.39639 0.29973 0.7578 0.0
C648 C 0.40851 0.28326 0.7364 0.0
C649 C 0.39557 0.25642 0.72152 0.0
C650 C 0.43283 0.29472 0.73004 0.0
C651 C 0.44389 0.27957 0.70857 0.0
C652 C 0.4065 0.24121 0.70066 0.0
C653 C 0.43036 0.25264 0.69415 0.0
C654 C 0.29979 0.24908 0.78653 0.0
C655 C 0.32308 0.31307 0.83027 0.0
C656 C 0.25658 0.32318 0.80684 0.0
C657 C 0.23264 0.33269 0.80707 0.0
C658 C 0.22818 0.35343 0.79198 0.0
C659 C 0.21364 0.32023 0.8222 0.0
C660 C 0.19033 0.32825 0.82182 0.0
C661 C 0.20532 0.36175 0.79198 0.0
C662 C 0.18649 0.34919 0.80661 0.0
C663 C 0.3518 0.3638 0.78488 0.0
H664 H 0.37691 0.24731 0.72587 0.0
H665 H 0.44284 0.31558 0.74129 0.0
H666 H 0.39637 0.22046 0.68934 0.0
H667 H 0.43836 0.24023 0.6779 0.0
H668 H 0.24221 0.36304 0.78002 0.0
H669 H 0.21676 0.30391 0.83365 0.0
H670 H 0.20206 0.37782 0.7803 0.0
H671 H 0.16879 0.35575 0.80598 0.0
Gd672 Gd 0.08385 0.02116 0.51757 0.0
Gd673 Gd 0.069 0.08406 0.54489 0.0
C674 C 0.10803 0.11056 0.63557 0.0
C675 C 0.07395 0.09645 0.66281 0.0
C676 C 0.06633 0.08943 0.61162 0.0
C677 C 0.09144 0.10098 0.61038 0.0
C678 C 0.05732 0.08776 0.63803 0.0
C679 C 0.09924 0.10776 0.66158 0.0
C680 C 0.133 0.12303 0.63409 0.0
C681 C 0.14076 0.12702 0.60821 0.0
N682 N 0.09961 0.10347 0.58486 0.0
C683 C 0.12375 0.11772 0.58391 0.0
H684 H 0.13054 0.12291 0.56492 0.0
C685 C 0.02516 0.07361 0.58868 0.0
N686 N 0.05052 0.08083 0.58736 0.0
C687 C 0.01551 0.07138 0.6142 0.0
C688 C 0.0317 0.07796 0.63896 0.0
H689 H 1.01189 0.06985 0.57021 0.0
H690 H 0.1118 0.11473 0.68095 0.0
H691 H 0.02403 0.99988 0.48759 0.0
H692 H 0.14625 0.13044 0.6529 0.0
H693 H 0.15986 0.13769 0.60696 0.0
H694 H 0.06735 0.09496 0.68311 0.0
H695 H 0.14153 1.01102 0.50863 0.0
H696 H 0.02419 0.98564 0.39816 0.0
H697 H 1.00096 0.98683 0.44001 0.0
H698 H 0.11096 0.99273 0.38638 0.0
H699 H 0.9955 0.06499 0.61476 0.0
H700 H 0.02414 0.0764 0.65877 0.0
H701 H 0.06546 0.98859 0.37831 0.0
H702 H 0.16732 1.00245 0.46958 0.0
N703 N 0.05997 1.00705 0.47301 0.0
C704 C 0.03441 0.99147 0.41903 0.0
C705 C 0.02123 0.992 0.44258 0.0
C706 C 0.0606 0.99707 0.42269 0.0
C707 C 0.073 1.00458 0.45033 0.0
C708 C 0.03437 0.9995 0.46956 0.0
N709 N 0.10947 1.0119 0.48173 0.0
C710 C 0.09858 1.00705 0.45484 0.0
C711 C 0.14808 1.00396 0.46513 0.0
C712 C 0.13771 1.0011 0.43738 0.0
C713 C 0.13344 1.00874 0.48715 0.0
C714 C 0.11249 1.0019 0.43189 0.0
H715 H 0.14902 0.99717 0.42033 0.0
O716 O 0.10053 0.98833 0.53058 0.0
O717 O 0.08487 0.04853 0.56086 0.0
O718 O 0.10557 0.09675 0.52671 0.0
O719 O 0.11629 0.0542 0.50924 0.0
O720 O 0.11733 0.03533 0.55154 0.0
O721 O 0.06175 0.97782 0.5129 0.0
O722 O 0.03697 0.10367 0.54384 0.0
O723 O 0.05876 0.0508 0.50455 0.0
O724 O 0.05313 1.01465 0.54521 0.0
O725 O 0.0332 0.04849 0.53551 0.0
O726 O 0.0709 0.09173 0.49976 0.0
O727 O 0.07432 0.13012 0.55149 0.0
C728 C 0.10695 0.04723 0.57213 0.0
C729 C 0.10053 0.99635 0.40429 0.0
C730 C 0.07461 0.99398 0.3997 0.0
C731 C 0.07994 0.96899 0.52448 0.0
C732 C 0.08181 0.93949 0.51567 0.0
C733 C 0.09464 0.93076 0.493 0.0
C734 C 0.072 0.92021 0.5323 0.0
C735 C 0.07552 0.89223 0.52724 0.0
C736 C 0.09778 0.90276 0.4873 0.0
C737 C 0.08847 0.88363 0.50436 0.0
C738 C 0.12118 0.08222 0.51488 0.0
C739 C 0.0608 0.06664 0.48539 0.0
C740 C 0.05053 0.12922 0.54644 0.0
C741 C 0.04273 0.14621 0.52648 0.0
C742 C 0.01833 0.15085 0.52618 0.0
C743 C 0.05871 0.15758 0.50776 0.0
C744 C 0.0501 0.17324 0.48877 0.0
C745 C 1.00978 0.16628 0.50751 0.0
C746 C 0.02546 0.17738 0.48896 0.0
C747 C 0.03231 0.02334 0.54224 0.0
H748 H 0.10245 0.94559 0.48012 0.0
H749 H 0.06177 0.92729 0.54949 0.0
H750 H 0.10783 0.89598 0.46989 0.0
H751 H 0.09181 0.86234 0.49992 0.0
H752 H 1.00583 0.14245 0.54046 0.0
H753 H 0.07762 0.15419 0.50784 0.0
H754 H 0.99095 0.16986 0.50757 0.0
H755 H 0.01844 0.18991 0.47521 0.0
Gd756 Gd 0.3015 0.78568 0.79088 0.0
Gd757 Gd 0.35522 0.82288 0.76761 0.0
C758 C 0.33653 0.90478 0.74766 0.0
C759 C 0.32517 0.89248 0.69715 0.0
C760 C 0.33855 0.85804 0.7222 0.0
C761 C 0.34117 0.87735 0.74747 0.0
C762 C 0.33127 0.86594 0.69669 0.0
C763 C 0.32791 0.9119 0.72255 0.0
C764 C 0.34088 0.92444 0.77308 0.0
C765 C 0.35078 0.91714 0.79725 0.0
N766 N 0.34937 0.86996 0.77163 0.0
C767 C 0.35544 0.88998 0.79601 0.0
H768 H 0.36418 0.88562 0.81472 0.0
C769 C 0.3485 0.81667 0.6971 0.0
N770 N 0.34522 0.83271 0.72222 0.0
C771 C 0.3409 0.82326 0.67145 0.0
C772 C 0.33159 0.84762 0.67125 0.0
H773 H 0.35743 0.79888 0.69639 0.0
H774 H 0.32383 0.93264 0.72247 0.0
H775 H 0.31257 0.72504 0.75479 0.0
H776 H 0.33735 0.94557 0.77409 0.0
H777 H 0.35512 0.93254 0.81684 0.0
H778 H 0.31924 0.89863 0.6778 0.0
H779 H 0.27671 0.81532 0.84647 0.0
H780 H 0.30183 0.66215 0.80599 0.0
H781 H 0.31129 0.67611 0.76073 0.0
H782 H 0.2774 0.71051 0.89046 0.0
H783 H 0.3428 0.80987 0.65182 0.0
H784 H 0.32611 0.85293 0.65131 0.0
H785 H 0.29002 0.67546 0.85469 0.0
H786 H 0.26311 0.80398 0.89111 0.0
N787 N 0.30413 0.73938 0.79619 0.0
C788 C 0.30235 0.6838 0.80346 0.0
C789 C 0.30761 0.69157 0.77788 0.0
C790 C 0.29721 0.70391 0.82524 0.0
C791 C 0.29796 0.7318 0.82079 0.0
C792 C 0.30841 0.71954 0.77461 0.0
N793 N 0.28962 0.77717 0.83474 0.0
C794 C 0.2907 0.7514 0.8408 0.0
C795 C 0.27105 0.78909 0.87728 0.0
C796 C 0.27334 0.76333 0.88456 0.0
C797 C 0.2789 0.79547 0.85193 0.0
C798 C 0.28272 0.74383 0.86597 0.0
H799 H 0.26701 0.75831 0.90408 0.0
O800 O 0.26441 0.79503 0.78849 0.0
O801 O 0.31355 0.82526 0.77114 0.0
O802 O 0.35552 0.8375 0.81418 0.0
O803 O 0.32716 0.80391 0.83074 0.0
O804 O 0.29549 0.83055 0.80658 0.0
O805 O 0.26934 0.75388 0.76828 0.0
O806 O 0.38663 0.8392 0.74625 0.0
O807 O 0.34192 0.78134 0.78338 0.0
O808 O 0.30089 0.76974 0.74438 0.0
O809 O 0.34162 0.78346 0.73496 0.0
O810 O 0.37613 0.78692 0.76946 0.0
O811 O 0.39202 0.84108 0.79123 0.0
C812 C 0.30323 0.84357 0.78689 0.0
C813 C 0.28329 0.71663 0.87117 0.0
C814 C 0.29046 0.69668 0.85081 0.0
C815 C 0.25357 0.77009 0.77404 0.0
C816 C 0.22894 0.75724 0.78154 0.0
C817 C 0.22599 0.73663 0.79844 0.0
C818 C 0.20782 0.76571 0.77083 0.0
C819 C 0.18349 0.75298 0.77579 0.0
C820 C 0.20206 0.72436 0.80417 0.0
C821 C 0.18095 0.73222 0.79279 0.0
C822 C 0.34554 0.82676 0.83488 0.0
C823 C 0.36146 0.76914 0.78097 0.0
C824 C 0.40281 0.8433 0.76837 0.0
C825 C 0.42449 0.82985 0.76454 0.0
C826 C 0.42457 0.8094 0.74023 0.0
C827 C 0.44484 0.83655 0.78571 0.0
C828 C 0.465 0.82282 0.78281 0.0
C829 C 0.44449 0.79585 0.73722 0.0
C830 C 0.46452 0.80238 0.75833 0.0
C831 C 0.31896 0.7676 0.72839 0.0
H832 H 0.24205 0.72987 0.80695 0.0
H833 H 0.21052 0.78221 0.7584 0.0
H834 H 0.19981 0.70829 0.81708 0.0
H835 H 0.16266 0.72148 0.79679 0.0
H836 H 0.40909 0.80351 0.72364 0.0
H837 H 0.4449 0.8524 0.80438 0.0
H838 H 0.44425 0.77996 0.71857 0.0
H839 H 0.47942 0.79097 0.7557 0.0
Gd840 Gd 0.56929 0.06178 1.00342 0.0
Gd841 Gd 0.58452 0.03532 0.06666 0.0
C842 C 0.64807 0.09356 0.12977 0.0
C843 C 0.68512 0.0822 0.11035 0.0
C844 C 0.64351 0.05704 0.0878 0.0
C845 C 0.63278 0.07327 0.10769 0.0
C846 C 0.66988 0.06081 0.08952 0.0
C847 C 0.67424 0.09859 0.13042 0.0
C848 C 0.63667 0.10738 0.15124 0.0
C849 C 0.61078 0.09961 0.15128 0.0
N850 N 0.60744 0.06779 0.10667 0.0
C851 C 0.59647 0.07913 0.12918 0.0
H852 H 0.57647 0.0728 0.12978 0.0
C853 C 0.63845 1.01789 0.05023 0.0
N854 N 0.62827 0.03688 0.06746 0.0
C855 C 0.66437 0.0207 0.05129 0.0
C856 C 0.6802 0.04259 0.07065 0.0
H857 H 0.62718 1.00003 0.03566 0.0
H858 H 0.68624 0.1144 0.14695 0.0
H859 H 0.53803 0.99549 0.97276 0.0
H860 H 0.64776 0.12311 0.16851 0.0
H861 H 0.60184 0.10924 0.16844 0.0
H862 H 0.70535 0.08569 0.1116 0.0
H863 H 0.57158 0.13168 1.00828 0.0
H864 H 0.46301 0.99889 0.94631 0.0
H865 H 0.4959 0.97149 0.94986 0.0
H866 H 0.46337 0.09815 0.96884 0.0
H867 H 0.67211 1.00583 0.03719 0.0
H868 H 0.70029 0.04476 0.07132 0.0
H869 H 0.45089 0.04611 0.95416 0.0
H870 H 0.5422 0.16295 1.00235 0.0
N871 N 0.52941 0.0364 0.98237 0.0
C872 C 0.4816 1.00968 0.95629 0.0
C873 C 0.50013 0.99415 0.95818 0.0
C874 C 0.48747 0.03906 0.96659 0.0
C875 C 0.51198 0.0521 0.97937 0.0
C876 C 0.5241 1.00793 0.97123 0.0
N877 N 0.54324 0.09355 0.99792 0.0
C878 C 0.51904 0.08149 0.98758 0.0
C879 C 0.5354 0.1401 0.99838 0.0
C880 C 0.5101 0.12812 0.98951 0.0
C881 C 0.55194 0.12239 1.00181 0.0
C882 C 0.50175 0.09849 0.98332 0.0
H883 H 0.49737 0.14188 0.98655 0.0
O884 O 0.60126 0.07685 0.98172 0.0
O885 O 0.60016 0.05853 0.03447 0.0
O886 O 0.57134 0.07633 0.08032 0.0
O887 O 0.55788 0.09072 0.0392 0.0
O888 O 0.59812 0.09899 0.02731 0.0
O889 O 0.5652 0.0586 0.95804 0.0
O890 O 0.57051 0.99006 0.06504 0.0
O891 O 0.55521 0.03162 0.03098 0.0
O892 O 0.5804 0.02023 0.98923 0.0
O893 O 0.58607 1.00184 0.02975 0.0
O894 O 0.54449 0.03689 0.07178 0.0
O895 O 0.58571 1.01768 0.10463 0.0
C896 C 0.61082 0.08475 0.04054 0.0
C897 C 0.47697 0.08545 0.97202 0.0
C898 C 0.46986 0.05581 0.96364 0.0
C899 C 0.58832 0.07107 0.95727 0.0
C900 C 0.59322 0.09272 0.93979 0.0
C901 C 0.57679 0.11064 0.9361 0.0
C902 C 0.61445 0.09429 0.92534 0.0
C903 C 0.6191 0.113 0.90659 0.0
C904 C 0.58175 0.13002 0.91815 0.0
C905 C 0.60268 0.13107 0.90323 0.0
C906 C 0.56161 0.09359 0.06687 0.0
C907 C 0.53689 0.03308 0.04531 0.0
C908 C 0.5729 0.99266 0.09217 0.0
C909 C 0.55012 0.98143 0.1044 0.0
C910 C 0.54144 0.95209 0.10199 0.0
C911 C 0.53678 1.00017 0.11834 0.0
C912 C 0.51576 0.99019 0.13161 0.0
C913 C 0.51994 0.94172 0.11404 0.0
C914 C 0.50733 0.96056 0.12906 0.0
C915 C 0.58537 1.00033 1.00237 0.0
H916 H 0.55996 0.10928 0.94652 0.0
H917 H 0.62661 0.07969 0.92751 0.0
H918 H 0.56897 0.1437 0.91521 0.0
H919 H 0.60572 0.14545 0.8886 0.0
H920 H 0.55132 0.93728 0.09093 0.0
H921 H 0.54323 0.02274 0.11934 0.0
H922 H 0.51337 0.91903 0.11235 0.0
H923 H 0.49159 0.95181 0.13942 0.0
Gd924 Gd 0.29652 0.26893 0.26826 0.0
Gd925 Gd 0.34883 0.33138 0.29402 0.0
C926 C 0.42808 0.32902 0.27081 0.0
C927 C 0.45161 0.33482 0.31653 0.0
C928 C 0.40657 0.33166 0.31262 0.0
C929 C 0.40581 0.32844 0.28383 0.0
C930 C 0.42956 0.33528 0.3294 0.0
C931 C 0.45091 0.33195 0.28728 0.0
C932 C 0.42681 0.32678 0.24164 0.0
C933 C 0.40373 0.32384 0.22617 0.0
N934 N 0.3834 0.32554 0.26859 0.0
C935 C 0.38219 0.32328 0.23999 0.0
H936 H 0.3647 0.32054 0.2273 0.0
C937 C 0.38603 0.34122 0.35298 0.0
N938 N 0.38514 0.33322 0.32438 0.0
C939 C 0.40808 0.34404 0.37055 0.0
C940 C 0.42992 0.34064 0.3587 0.0
H941 H 0.36962 0.34578 0.36222 0.0
H942 H 0.46812 0.33218 0.27762 0.0
H943 H 0.28803 0.2781 0.34166 0.0
H944 H 0.44345 0.32706 0.23086 0.0
H945 H 0.40245 0.32179 0.20352 0.0
H946 H 0.4694 0.33748 0.32905 0.0
H947 H 0.26392 0.27907 0.20928 0.0
H948 H 0.21307 0.2396 0.34777 0.0
H949 H 0.25628 0.26058 0.36966 0.0
H950 H 0.17214 0.23347 0.25641 0.0
H951 H 0.40835 0.34959 0.39317 0.0
H952 H 0.44716 0.34347 0.3723 0.0
H953 H 0.18193 0.2295 0.30545 0.0
H954 H 0.22119 0.26881 0.18778 0.0
N955 N 0.2658 0.26288 0.30164 0.0
C956 C 0.22758 0.24603 0.33473 0.0
C957 C 0.2519 0.25764 0.34708 0.0
C958 C 0.22192 0.24505 0.30609 0.0
C959 C 0.24154 0.25409 0.29003 0.0
C960 C 0.27053 0.26649 0.33043 0.0
N961 N 0.255 0.26835 0.24896 0.0
C962 C 0.23596 0.25718 0.26285 0.0
C963 C 0.22498 0.26578 0.2091 0.0
C964 C 0.20547 0.25447 0.22329 0.0
C965 C 0.24958 0.27232 0.22206 0.0
C966 C 0.21074 0.25013 0.25049 0.0
H967 H 0.18642 0.24919 0.21307 0.0
O968 O 0.29369 0.24837 0.22454 0.0
O969 O 0.33679 0.28885 0.26653 0.0
O970 O 0.33363 0.33758 0.25168 0.0
O971 O 0.30155 0.29753 0.23563 0.0
O972 O 0.32904 0.24761 0.27291 0.0
O973 O 0.28325 0.22302 0.25584 0.0
O974 O 0.35869 0.37281 0.32211 0.0
O975 O 0.30695 0.31483 0.28776 0.0
O976 O 0.31339 0.26167 0.30967 0.0
O977 O 0.3456 0.30227 0.32706 0.0
O978 O 0.32276 0.34248 0.32512 0.0
O979 O 0.35561 0.36988 0.2764 0.0
C980 C 0.34662 0.26809 0.26919 0.0
C981 C 0.19149 0.23926 0.2657 0.0
C982 C 0.19707 0.23681 0.29352 0.0
C983 C 0.28709 0.22286 0.22959 0.0
C984 C 0.30103 0.20248 0.21605 0.0
C985 C 0.30055 0.19723 0.1866 0.0
C986 C 0.31636 0.19002 0.23206 0.0
C987 C 0.33191 0.17366 0.2189 0.0
C988 C 0.31565 0.18029 0.17343 0.0
C989 C 0.33153 0.16876 0.18955 0.0
C990 C 0.31608 0.32161 0.23215 0.0
C991 C 0.30208 0.32796 0.31091 0.0
C992 C 0.36068 0.38615 0.30125 0.0
C993 C 0.3675 0.41725 0.30549 0.0
C994 C 0.38335 0.43319 0.32932 0.0
C995 C 0.35663 0.43118 0.28671 0.0
C996 C 0.3599 0.46097 0.29261 0.0
C997 C 0.38796 0.46283 0.33448 0.0
C998 C 0.37609 0.47669 0.31652 0.0
C999 C 0.33117 0.27745 0.32956 0.0
H1000 H 0.28886 0.2067 0.17385 0.0
H1001 H 0.31686 0.19361 0.25478 0.0
H1002 H 0.31532 0.17647 0.15075 0.0
H1003 H 0.34347 0.15604 0.17919 0.0
H1004 H 0.39193 0.42272 0.34404 0.0
H1005 H 0.34455 0.41862 0.26826 0.0
H1006 H 0.40006 0.47508 0.35302 0.0
H1007 H 0.37875 0.49958 0.32215 0.0
Gd1008 Gd 0.5818 0.52488 0.01684 0.0
Gd1009 Gd 0.56687 0.5886 0.05093 0.0
C1010 C 0.60729 0.60951 0.14039 0.0
C1011 C 0.57297 0.59953 0.1685 0.0
C1012 C 0.56467 0.593 0.11743 0.0
C1013 C 0.59015 0.60167 0.11563 0.0
C1014 C 0.55589 0.59243 0.14407 0.0
C1015 C 0.59858 0.60807 0.16666 0.0
C1016 C 0.63278 0.61849 0.1381 0.0
C1017 C 0.64071 0.6201 0.11174 0.0
N1018 N 0.59828 0.6025 0.0899 0.0
C1019 C 0.62318 0.61234 0.08785 0.0
H1020 H 0.6301 0.61416 0.068 0.0
C1021 C 0.52312 0.58191 0.09541 0.0
N1022 N 0.54841 0.58617 0.09348 0.0
C1023 C 0.51365 0.58072 0.1212 0.0
C1024 C 0.5301 0.58547 0.14559 0.0
H1025 H 0.50993 0.58024 0.07729 0.0
H1026 H 0.61152 0.61373 0.18575 0.0
H1027 H 0.52421 0.50517 0.9815 0.0
H1028 H 0.64645 0.62448 0.15657 0.0
H1029 H 0.66039 0.62738 0.10978 0.0
H1030 H 0.56651 0.59893 0.189 0.0
H1031 H 0.64135 0.51908 0.01368 0.0
H1032 H 0.53099 0.49092 0.89327 0.0
H1033 H 0.50458 0.49213 0.93245 0.0
H1034 H 0.61925 0.49964 0.8899 0.0
H1035 H 0.49364 0.57673 0.1223 0.0
H1036 H 0.52269 0.58483 0.16562 0.0
H1037 H 0.574 0.49433 0.87756 0.0
H1038 H 0.67042 0.51245 0.9777 0.0
N1039 N 0.56151 0.51184 0.97051 0.0
C1040 C 0.53975 0.49661 0.91482 0.0
C1041 C 0.52478 0.49716 0.93687 0.0
C1042 C 0.5658 0.50225 0.92089 0.0
C1043 C 0.57621 0.50953 0.94933 0.0
C1044 C 0.53603 0.50459 0.96474 0.0
N1045 N 0.61039 0.51716 0.98383 0.0
C1046 C 0.60153 0.51228 0.95623 0.0
C1047 C 0.65111 0.51248 0.97137 0.0
C1048 C 0.64254 0.50887 0.94289 0.0
C1049 C 0.63459 0.51611 0.99166 0.0
C1050 C 0.61735 0.50818 0.93496 0.0
H1051 H 0.65532 0.50585 0.92719 0.0
O1052 O 0.59823 0.49229 0.03139 0.0
O1053 O 0.58181 0.55005 0.06138 0.0
O1054 O 0.60079 0.6007 0.02845 0.0
O1055 O 0.61225 0.55959 1.00706 0.0
O1056 O 0.61387 0.53604 0.05234 0.0
O1057 O 0.55964 0.4816 0.01181 0.0
O1058 O 0.5454 0.62079 0.06173 0.0
O1059 O 0.56221 0.5598 1.00798 0.0
O1060 O 0.54309 0.51424 0.03094 0.0
O1061 O 0.52999 0.55632 0.04354 0.0
O1062 O 0.54371 0.59193 0.01101 0.0
O1063 O 0.58339 0.63291 0.05137 0.0
C1064 C 0.60333 0.54737 0.07296 0.0
C1065 C 0.60737 0.50258 0.90656 0.0
C1066 C 0.58161 0.49959 0.89953 0.0
C1067 C 0.57728 0.47342 0.02536 0.0
C1068 C 0.57709 0.44321 0.02298 0.0
C1069 C 0.58396 0.42734 0.99909 0.0
C1070 C 0.56966 0.43016 0.04546 0.0
C1071 C 0.56864 0.40108 0.04412 0.0
C1072 C 0.58319 0.3984 0.99765 0.0
C1073 C 0.57549 0.38527 0.01993 0.0
C1074 C 0.61569 0.58754 0.01361 0.0
C1075 C 0.54845 0.57187 0.99259 0.0
C1076 C 0.56243 0.64089 0.05553 0.0
C1077 C 0.55361 0.65784 0.03603 0.0
C1078 C 0.53017 0.66487 0.03828 0.0
C1079 C 0.56789 0.66656 0.01479 0.0
C1080 C 0.55858 0.68154 0.99568 0.0
C1081 C 0.5209 0.67975 0.01948 0.0
C1082 C 0.5349 0.68797 0.9983 0.0
C1083 C 0.52571 0.5283 0.0383 0.0
H1084 H 0.58981 0.43728 0.98167 0.0
H1085 H 0.5641 0.44258 0.06377 0.0
H1086 H 0.58848 0.38606 0.97918 0.0
H1087 H 0.575 0.36281 0.01831 0.0
H1088 H 0.51891 0.65868 0.05453 0.0
H1089 H 0.58607 0.66155 0.01293 0.0
H1090 H 0.50281 0.68507 0.02141 0.0
H1091 H 0.52742 0.70004 0.98439 0.0
Gd1092 Gd 0.7969 0.2766 0.27936 0.0
Gd1093 Gd 0.85359 0.31902 0.27174 0.0
C1094 C 0.86338 0.4038 0.24175 0.0
C1095 C 0.88075 0.39324 0.19751 0.0
C1096 C 0.87049 0.35669 0.22554 0.0
C1097 C 0.86199 0.37549 0.24519 0.0
C1098 C 0.88018 0.36543 0.20156 0.0
C1099 C 0.87243 0.41242 0.21761 0.0
C1100 C 0.85622 0.42283 0.26298 0.0
C1101 C 0.84824 0.41358 0.28706 0.0
N1102 N 0.85341 0.36651 0.26832 0.0
C1103 C 0.84696 0.38528 0.28938 0.0
H1104 H 0.8403 0.37857 0.30789 0.0
C1105 C 0.88004 0.31158 0.21239 0.0
N1106 N 0.86999 0.33008 0.23028 0.0
C1107 C 0.88959 0.31918 0.18821 0.0
C1108 C 0.88949 0.34615 0.18264 0.0
H1109 H 0.88023 0.29061 0.2162 0.0
H1110 H 0.87346 0.434 0.21453 0.0
H1111 H 0.81192 0.21692 0.24598 0.0
H1112 H 0.85708 0.44474 0.26116 0.0
H1113 H 0.84279 0.42814 0.30373 0.0
H1114 H 0.88803 0.40028 0.17918 0.0
H1115 H 0.76008 0.30075 0.32705 0.0
H1116 H 0.80067 0.15477 0.29809 0.0
H1117 H 0.81337 0.16914 0.25398 0.0
H1118 H 0.76324 0.19876 0.37493 0.0
H1119 H 0.89702 0.30421 0.17387 0.0
H1120 H 0.89702 0.35202 0.16395 0.0
H1121 H 0.78264 0.16634 0.34356 0.0
H1122 H 0.74179 0.28769 0.36868 0.0
N1123 N 0.79921 0.23036 0.2855 0.0
C1124 C 0.80007 0.17593 0.29473 0.0
C1125 C 0.80716 0.18392 0.26979 0.0
C1126 C 0.79135 0.19497 0.31454 0.0
C1127 C 0.79085 0.22227 0.3091 0.0
C1128 C 0.80645 0.21124 0.26542 0.0
N1129 N 0.77775 0.26549 0.31939 0.0
C1130 C 0.7798 0.24042 0.32663 0.0
C1131 C 0.75267 0.27434 0.35723 0.0
C1132 C 0.75597 0.24955 0.36593 0.0
C1133 C 0.76334 0.28178 0.33356 0.0
C1134 C 0.76917 0.2319 0.35024 0.0
H1135 H 0.74751 0.24373 0.38415 0.0
O1136 O 0.76141 0.28402 0.26238 0.0
O1137 O 0.81153 0.32027 0.26722 0.0
O1138 O 0.84184 0.33174 0.3145 0.0
O1139 O 0.814 0.29334 0.32389 0.0
O1140 O 0.78505 0.31866 0.29449 0.0
O1141 O 0.76886 0.24234 0.25266 0.0
O1142 O 0.8928 0.31709 0.27651 0.0
O1143 O 0.83929 0.27598 0.28486 0.0
O1144 O 0.81105 0.26373 0.23746 0.0
O1145 O 0.83187 0.30634 0.22927 0.0
O1146 O 0.86597 0.27695 0.25805 0.0
O1147 O 0.87897 0.34695 0.30644 0.0
C1148 C 0.79754 0.33596 0.28074 0.0
C1149 C 0.77107 0.20552 0.35673 0.0
C1150 C 0.78212 0.18706 0.33888 0.0
C1151 C 0.75216 0.25755 0.25135 0.0
C1152 C 0.72675 0.24568 0.25805 0.0
C1153 C 0.72299 0.22516 0.27512 0.0
C1154 C 0.70607 0.25556 0.24793 0.0
C1155 C 0.68178 0.24508 0.25482 0.0
C1156 C 0.6991 0.21474 0.28203 0.0
C1157 C 0.67866 0.22452 0.27199 0.0
C1158 C 0.82939 0.31833 0.33211 0.0
C1159 C 0.85377 0.26024 0.27247 0.0
C1160 C 0.89843 0.33761 0.29845 0.0
C1161 C 0.92194 0.35855 0.29934 0.0
C1162 C 0.92242 0.38506 0.2919 0.0
C1163 C 0.94442 0.3518 0.3085 0.0
C1164 C 0.96728 0.37161 0.31099 0.0
C1165 C 0.94518 0.40471 0.29396 0.0
C1166 C 0.9675 0.39818 0.3037 0.0
C1167 C 0.82007 0.27988 0.22 0.0
H1168 H 0.73847 0.21713 0.28313 0.0
H1169 H 0.70899 0.27164 0.23502 0.0
H1170 H 0.69638 0.19887 0.29514 0.0
H1171 H 0.66029 0.21553 0.27729 0.0
H1172 H 0.90531 0.3907 0.28484 0.0
H1173 H 0.94402 0.33143 0.31456 0.0
H1174 H 0.94548 0.4252 0.28832 0.0
H1175 H 0.98492 0.41383 0.30557 0.0
Gd1176 Gd 0.05767 0.56205 0.48906 0.0
Gd1177 Gd 0.08531 0.53991 0.55038 0.0
C1178 C 0.15592 0.60503 0.59511 0.0
C1179 C 0.18735 0.57659 0.59207 0.0
C1180 C 0.14439 0.55576 0.57105 0.0
C1181 C 0.1376 0.58123 0.58038 0.0
C1182 C 0.16932 0.55313 0.57708 0.0
C1183 C 0.18066 0.60248 0.60106 0.0
C1184 C 0.14917 0.63112 0.60243 0.0
C1185 C 0.12507 0.63343 0.59396 0.0
N1186 N 0.11363 0.58331 0.57345 0.0
C1187 C 0.10772 0.60952 0.57899 0.0
H1188 H 0.09014 0.61304 0.57113 0.0
C1189 C 0.13237 0.50745 0.54895 0.0
N1190 N 0.12679 0.53362 0.55583 0.0
C1191 C 0.15675 0.50384 0.55424 0.0
C1192 C 0.17542 0.5269 0.56806 0.0
H1193 H 0.11799 0.48899 0.53934 0.0
H1194 H 0.19488 0.62056 0.61222 0.0
H1195 H 0.04371 0.49103 0.45274 0.0
H1196 H 0.1627 0.64983 0.61359 0.0
H1197 H 0.11996 0.65385 0.59835 0.0
H1198 H 0.20655 0.57495 0.59672 0.0
H1199 H 0.03464 0.62092 0.50644 0.0
H1200 H 0.9679 0.47003 0.41814 0.0
H1201 H 1.00908 0.45783 0.42396 0.0
H1202 H 0.9367 0.55204 0.45216 0.0
H1203 H 0.16102 0.48316 0.548 0.0
H1204 H 0.19432 0.52406 0.57224 0.0
H1205 H 0.94098 0.50451 0.42988 0.0
H1206 H 0.99484 0.63572 0.50135 0.0
N1207 N 0.02466 0.52531 0.46183 0.0
C1208 C 0.98359 0.48565 0.43031 0.0
C1209 C 1.00681 0.47877 0.43342 0.0
C1210 C 0.98069 0.51229 0.44354 0.0
C1211 C 1.00175 0.53202 0.45925 0.0
C1212 C 0.02699 0.49858 0.44957 0.0
N1213 N 0.01946 0.57738 0.48711 0.0
C1214 C 0.99909 0.5586 0.47239 0.0
C1215 C 0.99566 0.6139 0.49331 0.0
C1216 C 0.97412 0.59419 0.48046 0.0
C1217 C 0.0183 0.60527 0.49602 0.0
C1218 C 0.97571 0.56636 0.46931 0.0
H1219 H 0.95655 0.6009 0.47844 0.0
O1220 O 0.0703 0.60645 0.48721 0.0
O1221 O 0.09002 0.57138 0.52279 0.0
O1222 O 0.06224 0.56936 0.57042 0.0
O1223 O 0.04409 0.58128 0.53011 0.0
O1224 O 0.09818 0.57035 0.48138 0.0
O1225 O 0.0576 0.57483 0.44846 0.0
O1226 O 0.07897 0.49656 0.55721 0.0
O1227 O 0.05407 0.52938 0.51538 0.0
O1228 O 0.07619 0.52735 0.46987 0.0
O1229 O 0.09503 0.51483 0.50966 0.0
O1230 O 0.04449 0.52358 0.55467 0.0
O1231 O 0.08962 0.53228 0.59279 0.0
C1232 C 0.10756 0.57513 0.50723 0.0
C1233 C 0.95479 0.54652 0.45439 0.0
C1234 C 0.95727 0.51955 0.44157 0.0
C1235 C 0.06835 0.60134 0.45972 0.0
C1236 C 0.09047 0.61494 0.44759 0.0
C1237 C 0.09844 0.64466 0.4539 0.0
C1238 C 0.1045 0.59872 0.43118 0.0
C1239 C 0.12627 0.612 0.42091 0.0
C1240 C 0.12012 0.65799 0.44402 0.0
C1241 C 0.13396 0.64185 0.42761 0.0
C1242 C 0.04705 0.58239 0.55778 0.0
C1243 C 0.03601 0.52046 0.52868 0.0
C1244 C 0.0817 0.50471 0.58455 0.0
C1245 C 0.06166 0.49072 0.59918 0.0
C1246 C 0.05849 0.46166 0.59946 0.0
C1247 C 0.04551 0.50614 0.61266 0.0
C1248 C 0.02711 0.4932 0.62784 0.0
C1249 C 0.03966 0.44829 0.61353 0.0
C1250 C 0.02423 0.46394 0.62789 0.0
C1251 C 0.08993 0.51227 0.48188 0.0
H1252 H 0.08799 0.65754 0.46671 0.0
H1253 H 0.09865 0.57573 0.42668 0.0
H1254 H 0.12612 0.68095 0.44895 0.0
H1255 H 0.15031 0.65281 0.41958 0.0
H1256 H 0.07064 0.44937 0.58888 0.0
H1257 H 0.04758 0.52842 0.61169 0.0
H1258 H 0.0374 0.42588 0.61389 0.0
H1259 H 1.01073 0.45324 0.63986 0.0
Gd1260 Gd 0.85593 0.79184 0.28239 0.0
Gd1261 Gd 0.79603 0.8142 0.27777 0.0
C1262 C 0.7534 0.80084 0.18971 0.0
C1263 C 0.75166 0.84916 0.18567 0.0
C1264 C 0.77166 0.83974 0.22832 0.0
C1265 C 0.76657 0.81115 0.21687 0.0
C1266 C 0.76362 0.85904 0.21323 0.0
C1267 C 0.74658 0.82007 0.17391 0.0
C1268 C 0.74687 0.77149 0.17957 0.0
C1269 C 0.75264 0.75321 0.19678 0.0
N1270 N 0.77334 0.79326 0.23287 0.0
C1271 C 0.76556 0.76445 0.2236 0.0
H1272 H 0.76991 0.74966 0.23611 0.0
C1273 C 0.78454 0.87568 0.26893 0.0
N1274 N 0.78282 0.84838 0.25508 0.0
C1275 C 0.77711 0.89572 0.25485 0.0
C1276 C 0.76697 0.88747 0.22669 0.0
H1277 H 0.79233 0.88218 0.29078 0.0
H1278 H 0.73673 0.81258 0.15291 0.0
H1279 H 0.88645 0.85072 0.32859 0.0
H1280 H 0.73685 0.76273 0.15881 0.0
H1281 H 0.74726 0.73042 0.18938 0.0
H1282 H 0.7456 0.86369 0.17362 0.0
H1283 H 0.85718 0.7233 0.26093 0.0
H1284 H 0.91155 0.82619 0.40398 0.0
H1285 H 0.90751 0.86367 0.37692 0.0
H1286 H 0.89507 0.72462 0.37835 0.0
H1287 H 0.77918 0.91748 0.26575 0.0
H1288 H 0.76104 0.90296 0.21585 0.0
H1289 H 0.9063 0.7741 0.40453 0.0
H1290 H 0.86612 0.68308 0.28142 0.0
N1291 N 0.87744 0.80619 0.32827 0.0
C1292 C 0.90214 0.82033 0.38271 0.0
C1293 C 0.9 0.84152 0.36747 0.0
C1294 C 0.89327 0.79177 0.36978 0.0
C1295 C 0.88111 0.78532 0.34206 0.0
C1296 C 0.88798 0.83401 0.33994 0.0
N1297 N 0.8654 0.75276 0.3 0.0
C1298 C 0.87484 0.75762 0.32741 0.0
C1299 C 0.86847 0.70388 0.29466 0.0
C1300 C 0.87656 0.70815 0.32334 0.0
C1301 C 0.86349 0.72668 0.28313 0.0
C1302 C 0.88046 0.73542 0.33996 0.0
H1303 H 0.88064 0.69053 0.33218 0.0
O1304 O 0.87765 0.77679 0.24916 0.0
O1305 O 0.82592 0.80036 0.25312 0.0
O1306 O 0.78902 0.76697 0.28176 0.0
O1307 O 0.8264 0.75298 0.29079 0.0
O1308 O 0.83808 0.76289 0.24194 0.0
O1309 O 0.89371 0.81526 0.27873 0.0
O1310 O 0.77259 0.83408 0.30613 0.0
O1311 O 0.82679 0.80748 0.30692 0.0
O1312 O 0.86375 0.84081 0.2826 0.0
O1313 O 0.82581 0.85341 0.27197 0.0
O1314 O 0.81438 0.84495 0.31695 0.0
O1315 O 0.7629 0.78908 0.29083 0.0
C1316 C 0.82375 0.77841 0.2338 0.0
C1317 C 0.89092 0.74143 0.36821 0.0
C1318 C 0.8973 0.76959 0.38312 0.0
C1319 C 0.89746 0.79717 0.25728 0.0
C1320 C 0.92214 0.78883 0.25827 0.0
C1321 C 0.92647 0.76949 0.27517 0.0
C1322 C 0.94151 0.79996 0.24258 0.0
C1323 C 0.96494 0.7918 0.2443 0.0
C1324 C 0.94914 0.76092 0.27636 0.0
C1325 C 0.96814 0.7719 0.26117 0.0
C1326 C 0.8013 0.74739 0.28749 0.0
C1327 C 0.82933 0.83018 0.3253 0.0
C1328 C 0.75644 0.81057 0.30593 0.0
C1329 C 0.72947 0.81131 0.30252 0.0
C1330 C 0.71916 0.81741 0.27767 0.0
C1331 C 0.71373 0.80536 0.32371 0.0
C1332 C 0.68778 0.80517 0.31975 0.0
C1333 C 0.69379 0.81764 0.2738 0.0
C1334 C 0.67826 0.81159 0.2945 0.0
C1335 C 0.85086 0.86008 0.27698 0.0
H1336 H 0.91232 0.76095 0.28756 0.0
H1337 H 0.9386 0.81527 0.22975 0.0
H1338 H 0.95211 0.74581 0.28938 0.0
H1339 H 0.98561 0.76492 0.26278 0.0
H1340 H 0.73075 0.82193 0.26121 0.0
H1341 H 0.72156 0.80043 0.34289 0.0
H1342 H 0.68608 0.82253 0.25456 0.0
H1343 H 0.65872 0.8123 0.29083 0.0
Gd1344 Gd 0.80844 0.32165 0.81303 0.0
Gd1345 Gd 0.84355 0.30079 0.7552 0.0
C1346 C 0.80304 0.21151 0.70688 0.0
C1347 C 0.82481 0.18087 0.72848 0.0
C1348 C 0.83798 0.23244 0.74274 0.0
C1349 C 0.81913 0.2357 0.72412 0.0
C1350 C 0.84173 0.20496 0.74418 0.0
C1351 C 0.80542 0.18415 0.7099 0.0
C1352 C 0.78556 0.21549 0.68646 0.0
C1353 C 0.78563 0.24291 0.6823 0.0
N1354 N 0.81749 0.26249 0.72161 0.0
C1355 C 0.80227 0.2661 0.6995 0.0
H1356 H 0.80309 0.28662 0.69416 0.0
C1357 C 0.87654 0.2536 0.76983 0.0
N1358 N 0.85404 0.25616 0.75751 0.0
C1359 C 0.88097 0.22699 0.77234 0.0
C1360 C 0.86307 0.20251 0.76021 0.0
H1361 H 0.89152 0.27195 0.77746 0.0
H1362 H 0.79293 0.16541 0.69724 0.0
H1363 H 0.84785 0.33568 0.87473 0.0
H1364 H 0.77281 0.19752 0.67294 0.0
H1365 H 0.77319 0.24621 0.66545 0.0
H1366 H 0.82711 0.15966 0.72979 0.0
H1367 H 0.76171 0.35098 0.78796 0.0
H1368 H 0.87836 0.42472 0.89632 0.0
H1369 H 0.87751 0.37599 0.90393 0.0
H1370 H 0.8255 0.46291 0.8381 0.0
H1371 H 0.89846 0.22541 0.78309 0.0
H1372 H 0.86665 0.18185 0.76183 0.0
H1373 H 0.85883 0.45696 0.87164 0.0
H1374 H 0.75552 0.39757 0.78191 0.0
N1375 N 0.83417 0.35993 0.84689 0.0
C1376 C 0.86576 0.4068 0.88256 0.0
C1377 C 0.86542 0.37935 0.88681 0.0
C1378 C 0.8487 0.41087 0.86175 0.0
C1379 C 0.8328 0.38674 0.84419 0.0
C1380 C 0.84893 0.35623 0.86935 0.0
N1381 N 0.79871 0.36645 0.80957 0.0
C1382 C 0.81447 0.39011 0.82494 0.0
C1383 C 0.77261 0.39586 0.79343 0.0
C1384 C 0.79026 0.42026 0.80634 0.0
C1385 C 0.7767 0.36918 0.79617 0.0
C1386 C 0.811 0.41766 0.82328 0.0
H1387 H 0.78691 0.44097 0.80453 0.0
O1388 O 0.7683 0.30978 0.81443 0.0
O1389 O 0.8099 0.28801 0.77636 0.0
O1390 O 0.81235 0.31857 0.73592 0.0
O1391 O 0.78511 0.31909 0.77041 0.0
O1392 O 0.80608 0.27573 0.81484 0.0
O1393 O 0.79345 0.31944 0.85293 0.0
O1394 O 0.88356 0.31314 0.75321 0.0
O1395 O 0.84229 0.33389 0.79233 0.0
O1396 O 0.84007 0.30435 0.83265 0.0
O1397 O 0.86661 0.30174 0.79745 0.0
O1398 O 0.84669 0.34726 0.75471 0.0
O1399 O 0.85791 0.30388 0.71509 0.0
C1400 C 0.80636 0.26686 0.78826 0.0
C1401 C 0.82762 0.44166 0.83953 0.0
C1402 C 0.84653 0.43827 0.85867 0.0
C1403 C 0.77058 0.30885 0.84105 0.0
C1404 C 0.75709 0.28235 0.84849 0.0
C1405 C 0.7313 0.27254 0.84018 0.0
C1406 C 0.7698 0.26639 0.86337 0.0
C1407 C 0.75687 0.2415 0.8711 0.0
C1408 C 0.71845 0.24728 0.84689 0.0
C1409 C 0.73106 0.23189 0.86241 0.0
C1410 C 0.79031 0.32124 0.74437 0.0
C1411 C 0.84655 0.35558 0.78138 0.0
C1412 C 0.88083 0.31467 0.72675 0.0
C1413 C 0.89394 0.34157 0.71963 0.0
C1414 C 0.91958 0.35187 0.72843 0.0
C1415 C 0.88114 0.35717 0.7043 0.0
C1416 C 0.89403 0.38191 0.69607 0.0
C1417 C 0.93231 0.37706 0.72158 0.0
C1418 C 0.91979 0.39182 0.70524 0.0
C1419 C 0.86177 0.30055 0.82377 0.0
H1420 H 0.72114 0.28439 0.82847 0.0
H1421 H 0.78983 0.27351 0.86922 0.0
H1422 H 0.69854 0.23988 0.84048 0.0
H1423 H 0.72046 0.21303 0.86833 0.0
H1424 H 0.92978 0.34037 0.74056 0.0
H1425 H 0.86116 0.34975 0.69844 0.0
H1426 H 0.95214 0.38479 0.72833 0.0
H1427 H 0.9306 0.41037 0.69902 0.0
Gd1428 Gd 0.80482 0.77021 0.7609 0.0
Gd1429 Gd 0.8498 0.83397 0.79696 0.0
C1430 C 0.92879 0.83974 0.769 0.0
C1431 C 0.94822 0.81565 0.80109 0.0
C1432 C 0.90529 0.82122 0.8046 0.0
C1433 C 0.90648 0.835 0.78208 0.0
C1434 C 0.92645 0.81198 0.81473 0.0
C1435 C 0.94937 0.82945 0.77822 0.0
C1436 C 0.92998 0.85515 0.74735 0.0
C1437 C 0.90991 0.86694 0.7404 0.0
N1438 N 0.88628 0.84477 0.77364 0.0
C1439 C 0.88852 0.86231 0.7544 0.0
H1440 H 0.87424 0.87361 0.75001 0.0
C1441 C 0.88384 0.80829 0.84222 0.0
N1442 N 0.88388 0.81778 0.81726 0.0
C1443 C 0.90411 0.79851 0.85277 0.0
C1444 C 0.92534 0.79981 0.83866 0.0
H1445 H 0.8689 0.8091 0.85519 0.0
H1446 H 0.96643 0.83254 0.76813 0.0
H1447 H 0.77713 0.73712 0.811 0.0
H1448 H 0.94665 0.85899 0.73665 0.0
H1449 H 0.91108 0.88016 0.72465 0.0
H1450 H 0.96443 0.80832 0.80837 0.0
H1451 H 0.78707 0.78657 0.69728 0.0
H1452 H 0.70624 0.75789 0.81953 0.0
H1453 H 0.73981 0.73557 0.83534 0.0
H1454 H 0.69338 0.80255 0.74165 0.0
H1455 H 0.90353 0.79058 0.87222 0.0
H1456 H 0.94113 0.79246 0.84704 0.0
H1457 H 0.6891 0.78266 0.7845 0.0
H1458 H 0.75447 0.80599 0.67657 0.0
N1459 N 0.76776 0.76462 0.78408 0.0
C1460 C 0.72322 0.75961 0.80925 0.0
C1461 C 0.74218 0.74722 0.81837 0.0
C1462 C 0.72591 0.77292 0.78614 0.0
C1463 C 0.74858 0.77492 0.77364 0.0
C1464 C 0.76397 0.74912 0.80495 0.0
N1465 N 0.77244 0.78639 0.73709 0.0
C1466 C 0.75106 0.78631 0.74961 0.0
C1467 C 0.75354 0.80138 0.69752 0.0
C1468 C 0.73277 0.80436 0.71158 0.0
C1469 C 0.77271 0.7913 0.7101 0.0
C1470 C 0.73084 0.79573 0.73739 0.0
H1471 H 0.7177 0.8117 0.70156 0.0
O1472 O 0.80053 0.74441 0.71885 0.0
O1473 O 0.84493 0.793 0.76669 0.0
O1474 O 0.83787 0.8424 0.75425 0.0
O1475 O 0.82192 0.79648 0.72902 0.0
O1476 O 0.83781 0.7504 0.76886 0.0
O1477 O 0.78669 0.72549 0.75329 0.0
O1478 O 0.85516 0.85673 0.84033 0.0
O1479 O 0.80993 0.81078 0.79137 0.0
O1480 O 0.81566 0.76198 0.80456 0.0
O1481 O 0.83255 0.80821 0.82875 0.0
O1482 O 0.81658 0.85277 0.78753 0.0
O1483 O 0.8624 0.88 0.80683 0.0
C1484 C 0.85525 0.77267 0.76946 0.0
C1485 C 0.70887 0.79507 0.75057 0.0
C1486 C 0.7064 0.78366 0.77489 0.0
C1487 C 0.79041 0.72109 0.72685 0.0
C1488 C 0.80032 0.69606 0.71642 0.0
C1489 C 0.79414 0.68226 0.68815 0.0
C1490 C 0.81624 0.68605 0.7342 0.0
C1491 C 0.8265 0.66299 0.72362 0.0
C1492 C 0.80411 0.65892 0.67768 0.0
C1493 C 0.82045 0.64941 0.6953 0.0
C1494 C 0.82994 0.8243 0.7302 0.0
C1495 C 0.79937 0.83079 0.78837 0.0
C1496 C 0.85924 0.88159 0.83334 0.0
C1497 C 0.8433 0.90062 0.84518 0.0
C1498 C 0.84304 0.90711 0.87446 0.0
C1499 C 0.82674 0.91033 0.82765 0.0
C1500 C 0.80916 0.92495 0.83912 0.0
C1501 C 0.82609 0.92236 0.88602 0.0
C1502 C 0.80904 0.93096 0.86849 0.0
C1503 C 0.82338 0.78076 0.82841 0.0
H1504 H 0.78171 0.68962 0.67419 0.0
H1505 H 0.82089 0.69621 0.75618 0.0
H1506 H 0.79927 0.6483 0.65587 0.0
H1507 H 0.82815 0.63137 0.68697 0.0
H1508 H 0.85563 0.89988 0.88835 0.0
H1509 H 0.8269 0.90582 0.80503 0.0
H1510 H 0.82594 0.9272 0.90863 0.0
H1511 H 0.79595 0.94262 0.87791 0.0
Gd1512 Gd 0.60998 0.57388 0.54937 0.0
Gd1513 Gd 0.55458 0.5331 0.51364 0.0
C1514 C 0.54881 0.44275 0.53111 0.0
C1515 C 0.56357 0.41877 0.48968 0.0
C1516 C 0.56055 0.46837 0.49395 0.0
C1517 C 0.55225 0.46807 0.52017 0.0
C1518 C 0.56521 0.44321 0.47795 0.0
C1519 C 0.55532 0.41852 0.51619 0.0
C1520 C 0.53842 0.44225 0.55647 0.0
C1521 C 0.5308 0.46616 0.56976 0.0
N1522 N 0.54643 0.49201 0.53445 0.0
C1523 C 0.53455 0.4907 0.55823 0.0
H1524 H 0.5271 0.50798 0.56838 0.0
C1525 C 0.56234 0.48996 0.45432 0.0
N1526 N 0.56152 0.49215 0.48287 0.0
C1527 C 0.56755 0.46589 0.43786 0.0
C1528 C 0.5698 0.44269 0.44997 0.0
H1529 H 0.55937 0.50696 0.44387 0.0
H1530 H 0.55329 0.39918 0.52459 0.0
H1531 H 0.64166 0.59542 0.49567 0.0
H1532 H 0.53552 0.42327 0.5655 0.0
H1533 H 0.52181 0.46565 0.58885 0.0
H1534 H 0.56752 0.39953 0.47787 0.0
H1535 H 0.59871 0.60383 0.61609 0.0
H1536 H 0.63404 0.67903 0.49088 0.0
H1537 H 0.64875 0.63575 0.47226 0.0
H1538 H 0.59522 0.70749 0.57261 0.0
H1539 H 0.56935 0.46508 0.41569 0.0
H1540 H 0.57342 0.42383 0.43705 0.0
H1541 H 0.61357 0.70524 0.52789 0.0
H1542 H 0.58594 0.64608 0.63901 0.0
N1543 N 0.61977 0.61305 0.526 0.0
C1544 C 0.63021 0.66086 0.50107 0.0
C1545 C 0.63833 0.63641 0.49038 0.0
C1546 C 0.61805 0.66194 0.52538 0.0
C1547 C 0.61344 0.6376 0.5379 0.0
C1548 C 0.63344 0.61293 0.50345 0.0
N1549 N 0.60031 0.61583 0.57566 0.0
C1550 C 0.60292 0.6388 0.56305 0.0
C1551 C 0.58991 0.64408 0.61731 0.0
C1552 C 0.58943 0.66638 0.60326 0.0
C1553 C 0.59641 0.61947 0.60361 0.0
C1554 C 0.597 0.66445 0.57628 0.0
H1555 H 0.58479 0.68565 0.61408 0.0
O1556 O 0.63153 0.58195 0.59055 0.0
O1557 O 0.58478 0.53066 0.5469 0.0
O1558 O 0.54239 0.55169 0.55758 0.0
O1559 O 0.5815 0.56396 0.5825 0.0
O1560 O 0.62202 0.53156 0.54294 0.0
O1561 O 0.65041 0.58945 0.55421 0.0
O1562 O 0.53117 0.53022 0.47468 0.0
O1563 O 0.57971 0.57636 0.51597 0.0
O1564 O 0.62265 0.55334 0.50749 0.0
O1565 O 0.5846 0.54088 0.48036 0.0
O1566 O 0.54265 0.57511 0.52218 0.0
O1567 O 0.51428 0.51629 0.51009 0.0
C1568 C 0.60096 0.51487 0.54471 0.0
C1569 C 0.60007 0.68791 0.56294 0.0
C1570 C 0.61064 0.68668 0.53757 0.0
C1571 C 0.65281 0.5903 0.58118 0.0
C1572 C 0.67522 0.58314 0.59421 0.0
C1573 C 0.6824 0.59401 0.62302 0.0
C1574 C 0.69059 0.56803 0.57852 0.0
C1575 C 0.71312 0.56414 0.59165 0.0
C1576 C 0.70453 0.59009 0.63608 0.0
C1577 C 0.71983 0.57534 0.62057 0.0
C1578 C 0.55652 0.56015 0.5825 0.0
C1579 C 0.56325 0.59172 0.51896 0.0
C1580 C 0.51055 0.5196 0.48427 0.0
C1581 C 0.48734 0.52783 0.4747 0.0
C1582 C 0.48081 0.52377 0.44554 0.0
C1583 C 0.47052 0.53676 0.49326 0.0
C1584 C 0.44722 0.54091 0.48243 0.0
C1585 C 0.45799 0.52816 0.43487 0.0
C1586 C 0.44124 0.53649 0.45311 0.0
C1587 C 0.60976 0.5447 0.48199 0.0
H1588 H 0.67101 0.606 0.63539 0.0
H1589 H 0.68534 0.55988 0.55618 0.0
H1590 H 0.7099 0.59863 0.65831 0.0
H1591 H 0.73678 0.57232 0.63133 0.0
H1592 H 0.49326 0.51662 0.43089 0.0
H1593 H 0.47523 0.53989 0.51583 0.0
H1594 H 0.45317 0.52489 0.41234 0.0
H1595 H 0.4237 0.53999 0.44426 0.0
Gd1596 Gd 0.04485 0.54954 0.05145 0.0
Gd1597 Gd 0.10297 0.55466 0.01861 0.0
C1598 C 0.15314 0.63941 0.0118 0.0
C1599 C 0.15133 0.63613 0.96113 0.0
C1600 C 0.12824 0.59737 0.98055 0.0
C1601 C 0.13687 0.61235 1.0075 0.0
C1602 C 0.13581 0.60879 0.95702 0.0
C1603 C 0.15995 0.65143 0.98849 0.0
C1604 C 0.16254 0.65328 0.03937 0.0
C1605 C 0.15623 0.63978 0.06173 0.0
N1606 N 0.13011 0.59997 0.02951 0.0
C1607 C 0.1402 0.61283 0.05636 0.0
H1608 H 0.1356 0.60269 0.07388 0.0
C1609 C 0.10708 0.55394 0.95125 0.0
N1610 N 0.11357 0.5709 0.97735 0.0
C1611 C 0.11401 0.56435 0.92724 0.0
C1612 C 0.12818 0.59204 0.93011 0.0
H1613 H 0.09611 0.53252 0.94885 0.0
H1614 H 0.17231 0.67227 0.99138 0.0
H1615 H 1.01068 0.50044 0.99811 0.0
H1616 H 0.17503 0.67412 0.04358 0.0
H1617 H 0.16372 0.65011 0.08311 0.0
H1618 H 0.15721 0.64536 0.94333 0.0
H1619 H 0.05479 0.57313 0.12135 0.0
H1620 H 0.97505 0.42907 0.03132 0.0
H1621 H 0.98364 0.45239 0.99072 0.0
H1622 H 0.99636 0.46026 0.13099 0.0
H1623 H 0.1084 0.55103 0.90657 0.0
H1624 H 0.13361 0.60002 0.9115 0.0
H1625 H 0.97997 0.43217 0.08371 0.0
H1626 H 0.0449 0.55529 0.16461 0.0
N1627 N 0.01824 0.50401 0.04237 0.0
C1628 C 0.98707 0.45014 0.03469 0.0
C1629 C 0.99182 0.46326 0.01174 0.0
C1630 C 0.99728 0.46474 0.06182 0.0
C1631 C 1.0129 0.49207 0.06503 0.0
C1632 C 1.00721 0.49052 0.01604 0.0
N1633 N 0.03639 0.53443 0.09384 0.0
C1634 C 0.02213 0.50782 0.0916 0.0
C1635 C 0.03846 0.54168 0.14421 0.0
C1636 C 0.0246 0.51399 0.14228 0.0
C1637 C 0.04402 0.55173 0.11964 0.0
C1638 C 0.01601 0.49677 0.11576 0.0
H1639 H 0.02028 0.50628 0.16135 0.0
O1640 O 0.0265 0.58279 0.06954 0.0
O1641 O 0.07731 0.57993 0.03991 0.0
O1642 O 0.10823 0.55594 0.06568 0.0
O1643 O 0.07077 0.53108 0.0768 0.0
O1644 O 0.06625 0.59134 0.07884 0.0
O1645 O 1.0079 0.55137 0.03324 0.0
O1646 O 0.12248 0.52292 0.9994 0.0
O1647 O 0.07013 0.52443 0.02929 0.0
O1648 O 0.03882 0.54768 1.00462 0.0
O1649 O 0.0762 0.57107 0.99139 0.0
O1650 O 0.0815 0.51333 0.9905 0.0
O1651 O 0.13791 0.54981 0.03953 0.0
C1652 C 0.08137 0.60001 0.06149 0.0
C1653 C 1.00114 0.4692 0.11269 0.0
C1654 C 0.99182 0.4532 0.08576 0.0
C1655 C 1.00624 0.57341 0.05185 0.0
C1656 C 0.98218 0.57239 0.06387 0.0
C1657 C 0.97721 0.55827 0.08626 0.0
C1658 C 0.96408 0.58579 0.05314 0.0
C1659 C 0.94101 0.58466 0.06457 0.0
C1660 C 0.95464 0.55742 0.09787 0.0
C1661 C 0.93668 0.57044 0.08716 0.0
C1662 C 0.09535 0.53988 0.08128 0.0
C1663 C 0.06581 0.50483 1.00735 0.0
C1664 C 0.14124 0.53013 0.01924 0.0
C1665 C 0.1667 0.53347 1.01017 0.0
C1666 C 0.17344 0.55022 0.99012 0.0
C1667 C 0.18455 0.52014 0.02166 0.0
C1668 C 0.20905 0.5241 0.01343 0.0
C1669 C 0.19746 0.55394 0.98175 0.0
C1670 C 0.21514 0.54111 0.99331 0.0
C1671 C 0.05142 0.56299 0.98829 0.0
H1672 H 0.9908 0.548 0.09489 0.0
H1673 H 0.96775 0.59655 0.03568 0.0
H1674 H 0.95102 0.54658 0.11524 0.0
H1675 H 0.91933 0.56946 0.09666 0.0
H1676 H 0.16015 0.56039 0.98084 0.0
H1677 H 0.17953 0.50721 0.03722 0.0
H1678 H 0.20241 0.56686 0.9662 0.0
H1679 H 0.23361 0.54428 0.98626 0.0
H1680 H 0.03278 0.21043 0.01408 0.0
H1681 H 0.05956 0.20401 0.93232 0.0
H1682 H 0.07355 0.16095 0.93848 0.0
H1683 H 0.07792 0.12354 0.96635 0.0
H1684 H 0.05189 0.12945 0.04823 0.0
H1685 H 0.03843 0.17336 0.04285 0.0
C1686 C 0.04165 0.19972 0.99747 0.0
C1687 C 0.04471 0.21125 0.97243 0.0
C1688 C 0.05012 0.17444 1.00129 0.0
C1689 C 0.05661 0.19641 0.95172 0.0
C1690 C 0.06474 0.17146 0.95527 0.0
C1691 C 0.06954 0.13453 0.98326 0.0
C1692 C 0.06669 0.12291 1.00812 0.0
C1693 C 0.06161 0.16008 0.97988 0.0
C1694 C 0.05515 0.13769 0.02921 0.0
C1695 C 0.04718 0.16293 0.02596 0.0
H1696 H 0.18023 0.83593 0.1946 0.0
H1697 H 0.2222 0.84129 0.12318 0.0
H1698 H 0.25968 0.838 0.15106 0.0
H1699 H 0.28141 0.83174 0.19552 0.0
H1700 H 0.24002 0.82616 0.26708 0.0
H1701 H 0.20272 0.83162 0.24005 0.0
C1702 C 0.19759 0.83677 0.18514 0.0
C1703 C 0.19769 0.83892 0.15629 0.0
C1704 C 0.21977 0.83477 0.2016 0.0
C1705 C 0.22085 0.83964 0.14499 0.0
C1706 C 0.24262 0.83768 0.16105 0.0
C1707 C 0.26433 0.83196 0.2054 0.0
C1708 C 0.26429 0.82919 0.23403 0.0
C1709 C 0.24241 0.83491 0.18934 0.0
C1710 C 0.24148 0.82928 0.24577 0.0
C1711 C 0.21975 0.83204 0.22999 0.0
H1712 H 0.5288 0.8745 0.4325 0.0
H1713 H 0.55238 0.8536 0.51127 0.0
H1714 H 0.56134 0.90404 0.53383 0.0
H1715 H 0.56688 0.95536 0.52997 0.0
H1716 H 0.54221 0.97538 0.45122 0.0
H1717 H 0.52892 0.92477 0.43041 0.0
C1718 C 0.53564 0.88087 0.4547 0.0
C1719 C 0.54015 0.85988 0.46991 0.0
C1720 C 0.54047 0.91015 0.46778 0.0
C1721 C 0.54876 0.86894 0.4988 0.0
C1722 C 0.55395 0.89798 0.5118 0.0
C1723 C 0.55763 0.94862 0.50864 0.0
C1724 C 0.55492 0.96954 0.49252 0.0
C1725 C 0.55037 0.91899 0.49642 0.0
C1726 C 0.54387 0.96004 0.46446 0.0
C1727 C 0.53657 0.93094 0.45236 0.0
H1728 H 0.55873 0.32325 0.6932 0.0
H1729 H 0.52791 0.30114 0.60586 0.0
H1730 H 0.48589 0.28774 0.61952 0.0
H1731 H 0.45771 0.28093 0.65598 0.0
H1732 H 0.48745 0.30422 0.74353 0.0
H1733 H 0.52976 0.31894 0.7302 0.0
C1734 C 0.5428 0.31556 0.67718 0.0
C1735 C 0.54663 0.31307 0.64846 0.0
C1736 C 0.51838 0.3082 0.68525 0.0
C1737 C 0.52566 0.30331 0.62806 0.0
C1738 C 0.50154 0.29559 0.63587 0.0
C1739 C 0.47344 0.28929 0.67219 0.0
C1740 C 0.46935 0.29124 0.70075 0.0
C1741 C 0.49767 0.29775 0.66435 0.0
C1742 C 0.48996 0.30259 0.72142 0.0
C1743 C 0.51421 0.31083 0.71377 0.0
H1744 H 0.02765 0.79438 0.58883 0.0
H1745 H 0.04448 0.86359 0.66071 0.0
H1746 H 0.06258 0.89623 0.63078 0.0
H1747 H 0.07404 0.90453 0.58432 0.0
H1748 H 0.05478 0.83517 0.51237 0.0
H1749 H 0.03786 0.80285 0.54259 0.0
C1750 C 0.03528 0.81663 0.59804 0.0
C1751 C 0.03481 0.82658 0.62698 0.0
C1752 C 0.04544 0.83509 0.58077 0.0
C1753 C 0.04458 0.85546 0.63849 0.0
C1754 C 0.05499 0.87405 0.6214 0.0
C1755 C 0.06584 0.88244 0.57509 0.0
C1756 C 0.06572 0.87241 0.54594 0.0
C1757 C 0.05553 0.86404 0.5925 0.0
C1758 C 0.05555 0.84349 0.53468 0.0
C1759 C 0.04563 0.82501 0.55192 0.0
H1760 H 0.54202 0.84082 0.89108 0.0
H1761 H 0.59306 0.83533 0.82765 0.0
H1762 H 0.55897 0.83125 0.79103 0.0
H1763 H 0.51458 0.828 0.77682 0.0
H1764 H 0.46308 0.83121 0.83985 0.0
H1765 H 0.49761 0.83815 0.87685 0.0
C1766 C 0.54575 0.83881 0.86926 0.0
C1767 C 0.5701 0.83818 0.86218 0.0
C1768 C 0.526 0.83623 0.84822 0.0
C1769 C 0.5745 0.83559 0.83375 0.0
C1770 C 0.55502 0.83334 0.81277 0.0
C1771 C 0.51085 0.83004 0.79863 0.0
C1772 C 0.48622 0.82894 0.80548 0.0
C1773 C 0.53067 0.83336 0.81974 0.0
C1774 C 0.48186 0.83229 0.83394 0.0
C1775 C 0.50158 0.83601 0.85512 0.0
H1776 H 0.53701 0.20976 0.11466 0.0
H1777 H 0.48318 0.15782 0.15492 0.0
H1778 H 0.50046 0.11608 0.13733 0.0
H1779 H 0.52855 0.09414 0.10607 0.0
H1780 H 0.57975 0.14774 0.06423 0.0
H1781 H 0.56604 0.18956 0.08714 0.0
C1782 C 0.52916 0.18939 0.11985 0.0
C1783 C 0.50872 0.18659 0.13562 0.0
C1784 C 0.53873 0.16596 0.10927 0.0
C1785 C 0.4989 0.16024 0.14261 0.0
C1786 C 0.5087 0.1365 0.13247 0.0
C1787 C 0.53682 0.11513 0.10248 0.0
C1788 C 0.55494 0.11824 0.08354 0.0
C1789 C 0.52825 0.13901 0.11514 0.0
C1790 C 0.56562 0.14518 0.07862 0.0
C1791 C 0.55781 0.16896 0.09167 0.0
H1792 H 0.21634 0.33039 0.38848 0.0
H1793 H 0.16871 0.30873 0.30973 0.0
H1794 H 0.20587 0.30882 0.28398 0.0
H1795 H 0.25298 0.31756 0.2847 0.0
H1796 H 0.29783 0.33923 0.36555 0.0
H1797 H 0.26078 0.3384 0.38944 0.0
C1798 C 0.21383 0.32546 0.36564 0.0
C1799 C 0.18974 0.31961 0.35112 0.0
C1800 C 0.23499 0.32625 0.35129 0.0
C1801 C 0.18707 0.3132 0.32149 0.0
C1802 C 0.20834 0.31355 0.30679 0.0
C1803 C 0.2544 0.32145 0.30747 0.0
C1804 C 0.27813 0.32726 0.32324 0.0
C1805 C 0.23256 0.32039 0.32153 0.0
C1806 C 0.27986 0.33408 0.35279 0.0
C1807 C 0.25864 0.33344 0.36661 0.0
H1808 H 0.03562 0.07324 0.21674 0.0
H1809 H 0.96216 0.0781 0.18315 0.0
H1810 H 0.97625 0.07402 0.13558 0.0
H1811 H 1.01022 0.06761 0.10163 0.0
H1812 H 0.08311 0.06389 0.13862 0.0
H1813 H 0.06844 0.06861 0.18491 0.0
C1814 C 0.02228 0.07365 0.19934 0.0
C1815 C 0.99728 0.07627 0.20518 0.0
C1816 C 0.03066 0.07115 0.17153 0.0
C1817 C 0.98135 0.07658 0.18091 0.0
C1818 C 0.98958 0.07397 0.15313 0.0
C1819 C 0.02308 0.06777 0.11968 0.0
C1820 C 0.04849 0.06516 0.11508 0.0
C1821 C 1.01429 0.07096 0.14777 0.0
C1822 C 0.0639 0.06579 0.13998 0.0
C1823 C 0.05535 0.06854 0.16708 0.0
H1824 H 0.26914 0.64701 0.45167 0.0
H1825 H 0.33683 0.70513 0.49365 0.0
H1826 H 0.33008 0.74009 0.46564 0.0
H1827 H 0.30353 0.75569 0.43259 0.0
H1828 H 0.23526 0.69917 0.39003 0.0
H1829 H 0.24317 0.66226 0.41556 0.0
C1830 C 0.28261 0.66706 0.45402 0.0
C1831 C 0.30353 0.67358 0.47436 0.0
C1832 C 0.27822 0.68751 0.43834 0.0
C1833 C 0.32067 0.69979 0.47792 0.0
C1834 C 0.31676 0.71981 0.46209 0.0
C1835 C 0.29061 0.73508 0.42833 0.0
C1836 C 0.26899 0.73008 0.40926 0.0
C1837 C 0.29537 0.71413 0.44273 0.0
C1838 C 0.252 0.70358 0.40477 0.0
C1839 C 0.25661 0.68242 0.41917 0.0
H1840 H 0.64693 0.98959 0.66818 0.0
H1841 H 0.71187 0.0463 0.64977 0.0
H1842 H 0.68886 0.05072 0.60635 0.0
H1843 H 0.64766 0.04965 0.58276 0.0
H1844 H 0.58171 0.99502 0.60284 0.0
H1845 H 0.60744 0.97984 0.63768 0.0
C1846 C 0.65639 1.00159 0.65374 0.0
C1847 C 0.68071 1.01824 0.66235 0.0
C1848 C 0.64236 1.00598 0.63033 0.0
C1849 C 0.69308 0.03345 0.64359 0.0
C1850 C 0.67965 0.03666 0.61922 0.0
C1851 C 0.63885 0.03382 0.59403 0.0
C1852 C 0.61263 0.02398 0.59044 0.0
C1853 C 0.65378 0.02493 0.61381 0.0
C1854 C 0.60174 1.00354 0.60559 0.0
C1855 C 0.61649 0.99457 0.62532 0.0
H1856 H 0.34798 0.40198 0.94515 0.0
H1857 H 0.33626 0.32499 0.97869 0.0
H1858 H 0.33099 0.29653 0.93099 0.0
H1859 H 0.32618 0.29333 0.87917 0.0
H1860 H 0.33831 0.37046 0.84606 0.0
H1861 H 0.34693 0.39891 0.89384 0.0
C1862 C 0.34452 0.37898 0.94208 0.0
C1863 C 0.34228 0.36571 0.96559 0.0
C1864 C 0.34146 0.3627 0.9145 0.0
C1865 C 0.33799 0.33585 0.96108 0.0
C1866 C 0.33488 0.31951 0.93374 0.0
C1867 C 0.33119 0.31637 0.88254 0.0
C1868 C 0.33211 0.32977 0.85912 0.0
C1869 C 0.33606 0.33266 0.91022 0.0
C1870 C 0.33806 0.35964 0.86371 0.0
C1871 C 0.34283 0.37593 0.89106 0.0
H1872 H 0.96872 0.0673 0.38902 0.0
H1873 H 0.0314 0.09434 0.34409 0.0
H1874 H 0.06024 0.09071 0.38323 0.0
H1875 H 0.06963 0.08077 0.43182 0.0
H1876 H 1.00796 0.05141 0.47682 0.0
H1877 H 0.97838 0.05476 0.43758 0.0
C1878 C 0.98866 0.07252 0.38749 0.0
C1879 C 0.99696 0.08159 0.36212 0.0
C1880 C 1.00609 0.06965 0.41085 0.0
C1881 C 0.02341 0.08752 0.36216 0.0
C1882 C 0.04035 0.08537 0.38506 0.0
C1883 C 0.04972 0.0745 0.43315 0.0
C1884 C 0.04192 0.06486 0.45827 0.0
C1885 C 0.03222 0.07645 0.40973 0.0
C1886 C 0.0155 0.05799 0.45843 0.0
C1887 C 0.99823 0.06023 0.43559 0.0
H1888 H 0.28345 0.67054 0.62189 0.0
H1889 H 0.36313 0.68158 0.62044 0.0
H1890 H 0.37031 0.71272 0.667 0.0
H1891 H 0.35386 0.744 0.70258 0.0
H1892 H 0.27399 0.73681 0.70097 0.0
H1893 H 0.26677 0.69738 0.66065 0.0
C1894 C 0.30231 0.67866 0.63256 0.0
C1895 C 0.32277 0.67374 0.61825 0.0
C1896 C 0.30617 0.69835 0.65793 0.0
C1897 C 0.34719 0.68477 0.63155 0.0
C1898 C 0.35124 0.7031 0.65776 0.0
C1899 C 0.33487 0.73389 0.69334 0.0
C1900 C 0.31449 0.74386 0.70408 0.0
C1901 C 0.33089 0.7114 0.67017 0.0
C1902 C 0.28998 0.7299 0.69261 0.0
C1903 C 0.28583 0.70722 0.66975 0.0
H1904 H 0.70624 0.07917 0.83996 0.0
H1905 H 0.64896 0.06981 0.77092 0.0
H1906 H 0.62246 0.08986 0.80274 0.0
H1907 H 0.61338 0.10562 0.85032 0.0
H1908 H 0.6683 0.1125 0.92065 0.0
H1909 H 0.69792 0.09838 0.88836 0.0
C1910 C 0.68805 0.08176 0.83197 0.0
C1911 C 0.67964 0.07285 0.80313 0.0
C1912 C 0.67241 0.09292 0.85062 0.0
C1913 C 0.65602 0.07639 0.79301 0.0
C1914 C 0.64072 0.0879 0.8112 0.0
C1915 C 0.63208 0.10479 0.85854 0.0
C1916 C 0.63875 0.11016 0.88768 0.0
C1917 C 0.64849 0.09571 0.84004 0.0
C1918 C 0.66284 0.10841 0.89816 0.0
C1919 C 0.67967 0.10019 0.87975 0.0
H1920 H 0.31749 0.32653 0.10267 0.0
H1921 H 0.34965 0.4151 0.13622 0.0
H1922 H 0.34389 0.40708 0.18414 0.0
H1923 H 0.33237 0.37371 0.21693 0.0
H1924 H 0.29871 0.28556 0.18193 0.0
H1925 H 0.30198 0.29472 0.13458 0.0
C1926 C 0.32298 0.34419 0.12044 0.0
C1927 C 0.33417 0.37138 0.11575 0.0
C1928 C 0.3193 0.33946 0.14786 0.0
C1929 C 0.34091 0.39401 0.13908 0.0
C1930 C 0.33774 0.38936 0.16655 0.0
C1931 C 0.32538 0.35659 0.19894 0.0
C1932 C 0.31507 0.32892 0.20336 0.0
C1933 C 0.32733 0.36202 0.1713 0.0
C1934 C 0.30623 0.30713 0.17956 0.0
C1935 C 0.30836 0.31229 0.15227 0.0
H1936 H 0.268 0.97668 0.02053 0.0
H1937 H 0.33177 0.03876 0.06652 0.0
H1938 H 0.3039 0.06781 0.08725 0.0
H1939 H 0.26126 0.07308 0.09586 0.0
H1940 H 0.19752 1.01134 0.04961 0.0
H1941 H 0.22551 0.9848 0.02503 0.0
C1942 C 0.27581 0.99671 0.03488 0.0
C1943 C 0.3019 1.00534 0.04234 0.0
C1944 C 0.25967 1.01328 0.04671 0.0
C1945 C 0.31177 0.03156 0.06058 0.0
C1946 C 0.29583 0.04813 0.07251 0.0
C1947 C 0.25355 0.05397 0.08015 0.0
C1948 C 0.22742 0.04391 0.07477 0.0
C1949 C 0.26975 0.03882 0.06629 0.0
C1950 C 0.21758 0.01945 0.05407 0.0
C1951 C 0.23358 1.0042 0.04018 0.0
H1952 H 0.70166 0.68783 0.99498 0.0
H1953 H 0.74651 0.62643 1.0042 0.0
H1954 H 0.70881 0.59069 1.00615 0.0
H1955 H 0.66302 0.57767 1.00897 0.0
H1956 H 0.61877 0.63963 1.00055 0.0
H1957 H 0.65595 0.6739 0.99435 0.0
C1958 C 0.70326 0.66658 0.99714 0.0
C1959 C 0.72714 0.66014 0.99961 0.0
C1960 C 0.68142 0.64605 0.99852 0.0
C1961 C 0.72855 0.63228 1.00233 0.0
C1962 C 0.70691 0.61171 1.00349 0.0
C1963 C 0.66147 0.59845 1.0052 0.0
C1964 C 0.63803 0.60605 1.00541 0.0
C1965 C 0.68323 0.61843 1.00208 0.0
C1966 C 0.63652 0.63329 1.00084 0.0
C1967 C 0.65785 0.65296 0.99728 0.0
H1968 H 0.76084 0.45138 0.24987 0.0
H1969 H 0.70873 0.43008 0.30915 0.0
H1970 H 0.72752 0.39013 0.31561 0.0
H1971 H 0.75918 0.35955 0.30585 0.0
H1972 H 0.80758 0.3749 0.24178 0.0
H1973 H 0.79061 0.41686 0.23648 0.0
C1974 C 0.75327 0.43816 0.26427 0.0
C1975 C 0.73249 0.44561 0.27914 0.0
C1976 C 0.76409 0.41326 0.26741 0.0
C1977 C 0.72402 0.42649 0.2971 0.0
C1978 C 0.7351 0.40305 0.30096 0.0
C1979 C 0.76642 0.37182 0.29055 0.0
C1980 C 0.78634 0.36302 0.27526 0.0
C1981 C 0.75526 0.39592 0.28645 0.0
C1982 C 0.79362 0.38019 0.25514 0.0
C1983 C 0.7834 0.40468 0.25185 0.0
H1984 H 0.91879 0.49565 0.52201 0.0
H1985 H 0.92648 0.41787 0.46915 0.0
H1986 H 0.97154 0.43635 0.47168 0.0
H1987 H 1.00956 0.47265 0.49337 0.0
H1988 H 1.00139 0.54733 0.54944 0.0
H1989 H 0.95615 0.53262 0.54107 0.0
C1990 C 0.93019 0.48284 0.51068 0.0
C1991 C 0.91914 0.45525 0.49574 0.0
C1992 C 0.9562 0.49335 0.51255 0.0
C1993 C 0.9344 0.43907 0.48117 0.0
C1994 C 0.96025 0.44959 0.48261 0.0
C1995 C 0.99774 0.48628 0.50247 0.0
C1996 C 1.00883 0.51282 0.51957 0.0
C1997 C 0.97148 0.47647 0.49878 0.0
C1998 C 0.99337 0.52871 0.53374 0.0
C1999 C 0.96739 0.5197 0.52961 0.0
H2000 H 0.41774 0.13814 0.28748 0.0
H2001 H 0.35634 0.06915 0.29299 0.0
H2002 H 0.32736 0.09064 0.26811 0.0
H2003 H 0.31996 0.12737 0.24188 0.0
H2004 H 0.38138 0.19511 0.23446 0.0
H2005 H 0.41 0.176 0.26311 0.0
C2006 C 0.39796 0.12807 0.28363 0.0
C2007 C 0.3892 0.10209 0.29197 0.0
C2008 C 0.38151 0.14017 0.2687 0.0
C2009 C 0.36354 0.08917 0.28673 0.0
C2010 C 0.34697 0.10136 0.2724 0.0
C2011 C 0.33963 0.1378 0.24668 0.0
C2012 C 0.34889 0.16222 0.23609 0.0
C2013 C 0.35584 0.12649 0.26277 0.0
C2014 C 0.37421 0.176 0.24232 0.0
C2015 C 0.39044 0.16515 0.2587 0.0
H2016 H 0.34628 0.11911 0.51487 0.0
H2017 H 0.38539 0.20562 0.54905 0.0
H2018 H 0.4222 0.18921 0.56445 0.0
H2019 H 0.44342 0.15039 0.56904 0.0
H2020 H 0.40641 0.064 0.53224 0.0
H2021 H 0.36894 0.08002 0.5168 0.0
C2022 C 0.36286 0.13427 0.52574 0.0
C2023 C 0.36297 0.16357 0.531 0.0
C2024 C 0.38446 0.12469 0.53392 0.0
C2025 C 0.38476 0.18299 0.54472 0.0
C2026 C 0.40587 0.17363 0.55357 0.0
C2027 C 0.42719 0.13514 0.55742 0.0
C2028 C 0.42762 0.10608 0.55178 0.0
C2029 C 0.40596 0.14458 0.54833 0.0
C2030 C 0.40655 0.08651 0.53663 0.0
C2031 C 0.38509 0.09567 0.52797 0.0
H2032 H 0.71237 0.64326 0.30135 0.0
H2033 H 0.76686 0.59265 0.28251 0.0
H2034 H 0.79805 0.63608 0.28021 0.0
H2035 H 0.81011 0.69007 0.28221 0.0
H2036 H 0.75344 0.738 0.30117 0.0
H2037 H 0.72406 0.69504 0.30459 0.0
C2038 C 0.73106 0.64131 0.29685 0.0
C2039 C 0.73658 0.61365 0.29222 0.0
C2040 C 0.74909 0.66666 0.29539 0.0
C2041 C 0.76139 0.61289 0.28639 0.0
C2042 C 0.77944 0.6381 0.28498 0.0
C2043 C 0.79144 0.69132 0.28733 0.0
C2044 C 0.78471 0.71857 0.29116 0.0
C2045 C 0.77364 0.66542 0.28928 0.0
C2046 C 0.75993 0.71839 0.29761 0.0
C2047 C 0.74273 0.69338 0.29971 0.0
H2048 H 0.93855 0.4543 0.83592 0.0
H2049 H 0.89148 0.5031 0.80037 0.0
H2050 H 0.85853 0.46071 0.78496 0.0
H2051 H 0.84473 0.40883 0.77654 0.0
H2052 H 0.88873 0.36021 0.81643 0.0
H2053 H 0.92128 0.40321 0.83477 0.0
C2054 C 0.9209 0.45573 0.82533 0.0
C2055 C 0.91783 0.48179 0.81887 0.0
C2056 C 0.90161 0.43119 0.81676 0.0
C2057 C 0.89461 0.48335 0.80551 0.0
C2058 C 0.87572 0.45903 0.79637 0.0
C2059 C 0.86128 0.40789 0.78968 0.0
C2060 C 0.8644 0.38174 0.79533 0.0
C2061 C 0.87935 0.43274 0.80102 0.0
C2062 C 0.88589 0.38039 0.81218 0.0
C2063 C 0.9045 0.40491 0.82259 0.0
H2064 H 0.10882 0.92753 0.12559 0.0
H2065 H 0.12776 0.87857 0.05064 0.0
H2066 H 0.12334 0.91653 0.02498 0.0
H2067 H 0.11454 0.96487 0.02323 0.0
H2068 H 0.09455 1.01303 0.09792 0.0
H2069 H 0.09881 0.97499 0.12348 0.0
C2070 C 0.11212 0.92501 0.10365 0.0
C2071 C 0.11895 0.89952 0.09054 0.0
C2072 C 0.10915 0.94721 0.08856 0.0
C2073 C 0.12268 0.8974 0.06181 0.0
C2074 C 0.12009 0.91937 0.04694 0.0
C2075 C 0.11083 0.96701 0.04503 0.0
C2076 C 0.10358 0.9922 0.05812 0.0
C2077 C 0.11333 0.94453 0.05995 0.0
C2078 C 0.09953 0.99414 0.08673 0.0
C2079 C 0.10215 0.9722 0.10154 0.0
H2080 H 0.93292 0.2805 0.92637 0.0
H2081 H 0.98695 0.28708 0.8663 0.0
H2082 H 0.95521 0.29387 0.83161 0.0
H2083 H 0.91226 0.30019 0.81847 0.0
H2084 H 0.85731 0.28954 0.87718 0.0
H2085 H 0.88901 0.28291 0.91178 0.0
C2086 C 0.93781 0.28314 0.90562 0.0
C2087 C 0.96276 0.28315 0.89937 0.0
C2088 C 0.91913 0.28676 0.88531 0.0
C2089 C 0.9682 0.28667 0.87208 0.0
C2090 C 0.94993 0.29076 0.85211 0.0
C2091 C 0.90688 0.29583 0.83853 0.0
C2092 C 0.88185 0.29548 0.84465 0.0
C2093 C 0.92531 0.29108 0.85844 0.0
C2094 C 0.87611 0.29041 0.87144 0.0
C2095 C 0.89438 0.2864 0.89142 0.0
H2096 H 0.61119 0.22648 0.54401 0.0
H2097 H 0.60367 0.23855 0.63289 0.0
H2098 H 0.59346 0.18705 0.62974 0.0
H2099 H 0.58622 0.13788 0.60209 0.0
H2100 H 0.58758 0.12488 0.51231 0.0
H2101 H 0.60085 0.17652 0.51544 0.0
C2102 C 0.60731 0.21791 0.56274 0.0
C2103 C 0.60845 0.23707 0.58883 0.0
C2104 C 0.60061 0.18768 0.56063 0.0
C2105 C 0.60297 0.22494 0.61255 0.0
C2106 C 0.59717 0.19523 0.61077 0.0
C2107 C 0.58971 0.14624 0.58315 0.0
C2108 C 0.58727 0.12686 0.5571 0.0
C2109 C 0.59595 0.1763 0.58499 0.0
C2110 C 0.59074 0.13869 0.53284 0.0
C2111 C 0.59793 0.16848 0.53463 0.0
H2112 H 0.62029 0.80188 0.42143 0.0
H2113 H 0.56622 0.74974 0.3539 0.0
H2114 H 0.59808 0.75238 0.3215 0.0
H2115 H 0.64045 0.77177 0.31105 0.0
H2116 H 0.69516 0.82446 0.37739 0.0
H2117 H 0.66431 0.81884 0.41134 0.0
C2118 C 0.61557 0.79079 0.39972 0.0
C2119 C 0.59063 0.7757 0.39027 0.0
C2120 C 0.63418 0.79255 0.38081 0.0
C2121 C 0.58504 0.76158 0.36195 0.0
C2122 C 0.60332 0.76311 0.34327 0.0
C2123 C 0.64574 0.78201 0.33296 0.0
C2124 C 0.67018 0.79882 0.34142 0.0
C2125 C 0.6278 0.77893 0.35228 0.0
C2126 C 0.67664 0.81133 0.37013 0.0
C2127 C 0.65887 0.80828 0.38956 0.0
H2128 H 0.09404 0.25103 0.40711 0.0
H2129 H 0.15224 0.28049 0.47667 0.0
H2130 H 0.1352 0.24002 0.49793 0.0
H2131 H 0.09851 0.20312 0.50186 0.0
H2132 H 0.03899 0.17506 0.43343 0.0
H2133 H 0.06165 0.20779 0.40664 0.0
C2134 C 0.10358 0.24781 0.42624 0.0
C2135 C 0.12429 0.26866 0.44037 0.0
C2136 C 0.09291 0.22519 0.43905 0.0
C2137 C 0.13627 0.2646 0.46544 0.0
C2138 C 0.12635 0.24165 0.47777 0.0
C2139 C 0.09089 0.20347 0.48071 0.0
C2140 C 0.06679 0.18722 0.47 0.0
C2141 C 0.10383 0.22279 0.4656 0.0
C2142 C 0.05722 0.18793 0.44249 0.0
C2143 C 0.07019 0.20662 0.42712 0.0
H2144 H 0.57615 0.27091 0.2222 0.0
H2145 H 0.60565 0.27043 0.14205 0.0
H2146 H 0.64569 0.26504 0.16274 0.0
H2147 H 0.67113 0.25556 0.20223 0.0
H2148 H 0.64204 0.25633 0.28253 0.0
H2149 H 0.60329 0.26635 0.26309 0.0
C2150 C 0.59144 0.27015 0.20934 0.0
C2151 C 0.58759 0.2708 0.18046 0.0
C2152 C 0.61454 0.26664 0.22129 0.0
C2153 C 0.6078 0.26975 0.16426 0.0
C2154 C 0.63081 0.26658 0.17605 0.0
C2155 C 0.65656 0.25849 0.21568 0.0
C2156 C 0.65949 0.25472 0.24373 0.0
C2157 C 0.63421 0.26426 0.20436 0.0
C2158 C 0.64017 0.25842 0.26068 0.0
C2159 C 0.61799 0.26431 0.24962 0.0
H2160 H 0.62186 0.88945 0.96198 0.0
H2161 H 0.65037 0.93458 0.89822 0.0
H2162 H 0.63226 0.97473 0.9181 0.0
H2163 H 0.60848 0.99666 0.95437 0.0
H2164 H 0.57815 0.94811 0.01508 0.0
H2165 H 0.59586 0.90869 0.99449 0.0
C2166 C 0.62392 0.90778 0.952 0.0
C2167 C 0.63728 0.90894 0.92853 0.0
C2168 C 0.61271 0.92987 0.96269 0.0
C2169 C 0.64012 0.93323 0.91636 0.0
C2170 C 0.62964 0.95603 0.92759 0.0
C2171 C 0.60533 0.97716 0.96259 0.0
C2172 C 0.59217 0.97524 0.98626 0.0
C2173 C 0.61575 0.95448 0.95071 0.0
C2174 C 0.58839 0.95009 0.997 0.0
C2175 C 0.5986 0.92762 0.98537 0.0
H2176 H 0.9604 0.75033 0.73692 0.0
H2177 H 0.94254 0.79455 0.67137 0.0
H2178 H 0.90329 0.79941 0.68992 0.0
H2179 H 0.87398 0.79168 0.72476 0.0
H2180 H 0.88917 0.74477 0.78871 0.0
H2181 H 0.92909 0.73981 0.77063 0.0
C2182 C 0.94787 0.76101 0.7268 0.0
C2183 C 0.95447 0.77218 0.70286 0.0
C2184 C 0.92475 0.76307 0.73717 0.0
C2185 C 0.9379 0.78568 0.68975 0.0
C2186 C 0.9154 0.78847 0.70031 0.0
C2187 C 0.88612 0.78051 0.73481 0.0
C2188 C 0.87922 0.7695 0.75862 0.0
C2189 C 0.90865 0.77733 0.72399 0.0
C2190 C 0.89452 0.75401 0.77074 0.0
C2191 C 0.91729 0.75118 0.76039 0.0
H2192 H 0.19421 0.0348 0.89191 0.0
H2193 H 0.12972 0.02426 0.8318 0.0
H2194 H 0.10316 0.02739 0.87009 0.0
H2195 H 0.0966 0.03361 0.92224 0.0
H2196 H 0.16151 0.04652 0.98242 0.0
H2197 H 0.18781 0.04206 0.94408 0.0
C2198 C 0.17436 0.03316 0.8868 0.0
C2199 C 0.16483 0.02908 0.8574 0.0
C2200 C 0.15844 0.03544 0.90985 0.0
C2201 C 0.13859 0.02733 0.8531 0.0
C2202 C 0.12298 0.02913 0.87551 0.0
C2203 C 0.11646 0.03531 0.92734 0.0
C2204 C 0.12616 0.04035 0.95678 0.0
C2205 C 0.13239 0.03319 0.90428 0.0
C2206 C 0.15248 0.04268 0.9611 0.0
C2207 C 0.16796 0.0401 0.93864 0.0
H2208 H 0.86612 0.4487 0.60316 0.0
H2209 H 0.81892 0.36593 0.56874 0.0
H2210 H 0.82859 0.34955 0.61184 0.0
H2211 H 0.8564 0.35577 0.6543 0.0
H2212 H 0.90301 0.4385 0.69095 0.0
H2213 H 0.88792 0.45765 0.65149 0.0
C2214 C 0.85735 0.42741 0.60553 0.0
C2215 C 0.84229 0.40834 0.58265 0.0
C2216 C 0.86345 0.41783 0.63027 0.0
C2217 C 0.83095 0.38083 0.58594 0.0
C2218 C 0.83655 0.37139 0.61051 0.0
C2219 C 0.8627 0.37828 0.65459 0.0
C2220 C 0.88135 0.39536 0.67553 0.0
C2221 C 0.85374 0.38926 0.63216 0.0
C2222 C 0.88933 0.42443 0.67472 0.0
C2223 C 0.88054 0.43554 0.65224 0.0
H2224 H 0.45318 0.05807 0.40253 0.0
H2225 H 0.51117 0.09808 0.35803 0.0
H2226 H 0.54322 0.09621 0.39488 0.0
H2227 H 0.55497 0.07949 0.43795 0.0
H2228 H 0.49641 0.03629 0.48003 0.0
H2229 H 0.46471 0.04326 0.44629 0.0
C2230 C 0.47279 0.06689 0.40126 0.0
C2231 C 0.47986 0.07819 0.37777 0.0
C2232 C 0.49116 0.06483 0.42197 0.0
C2233 C 0.50535 0.08921 0.37605 0.0
C2234 C 0.52369 0.08805 0.39701 0.0
C2235 C 0.53529 0.07171 0.43972 0.0
C2236 C 0.52823 0.05717 0.46134 0.0
C2237 C 0.51688 0.07522 0.41975 0.0
C2238 C 0.50256 0.04735 0.46346 0.0
C2239 C 0.48426 0.05135 0.44418 0.0
H2240 H 0.8048 0.78223 0.10309 0.0
H2241 H 0.80775 0.69393 0.0972 0.0
H2242 H 0.81221 0.70031 0.14827 0.0
H2243 H 0.8162 0.73051 0.19478 0.0
H2244 H 0.81787 0.81986 0.20266 0.0
H2245 H 0.81017 0.81351 0.15106 0.0
C2246 C 0.80642 0.7644 0.11299 0.0
C2247 C 0.80597 0.73754 0.09593 0.0
C2248 C 0.80957 0.76835 0.14288 0.0
C2249 C 0.80824 0.71484 0.10942 0.0
C2250 C 0.81068 0.71843 0.13878 0.0
C2251 C 0.81473 0.74866 0.18528 0.0
C2252 C 0.81693 0.77551 0.20277 0.0
C2253 C 0.81147 0.74502 0.1557 0.0
C2254 C 0.81548 0.7988 0.1899 0.0
C2255 C 0.81136 0.79517 0.16031 0.0
H2256 H 0.12264 0.02876 0.70309 0.0
H2257 H 0.19779 0.02745 0.68363 0.0
H2258 H 0.18596 0.03438 0.63574 0.0
H2259 H 0.15423 0.04279 0.59826 0.0
H2260 H 0.07834 0.03893 0.6172 0.0
H2261 H 0.09048 0.0329 0.66497 0.0
C2262 C 0.13667 0.02945 0.68849 0.0
C2263 C 0.16156 0.02691 0.69847 0.0
C2264 C 0.12951 0.03344 0.6602 0.0
C2265 C 0.1786 0.02845 0.6779 0.0
C2266 C 0.17172 0.03286 0.65006 0.0
C2267 C 0.14015 0.0409 0.61274 0.0
C2268 C 0.1151 0.04333 0.60316 0.0
C2269 C 0.14726 0.03578 0.64077 0.0
C2270 C 0.09778 0.0393 0.62311 0.0
C2271 C 0.10481 0.03517 0.65081 0.0
H2272 H 0.80832 0.37846 0.45052 0.0
H2273 H 0.85309 0.45104 0.42506 0.0
H2274 H 0.85857 0.4206 0.38116 0.0
H2275 H 0.85235 0.37348 0.35202 0.0
H2276 H 0.80606 0.30098 0.37628 0.0
H2277 H 0.80047 0.33136 0.41998 0.0
C2278 C 0.819 0.38765 0.43513 0.0
C2279 C 0.83026 0.41682 0.44073 0.0
C2280 C 0.82226 0.37005 0.41039 0.0
C2281 C 0.844 0.42868 0.42085 0.0
C2282 C 0.8474 0.41123 0.39606 0.0
C2283 C 0.84071 0.36419 0.36652 0.0
C2284 C 0.82895 0.33507 0.36039 0.0
C2285 C 0.83692 0.38187 0.39092 0.0
C2286 C 0.81486 0.32339 0.38018 0.0
C2287 C 0.81159 0.34076 0.40508 0.0
H2288 H 0.49499 0.07565 0.23341 0.0
H2289 H 0.42494 1.01412 0.22169 0.0
H2290 H 0.43447 0.9924 0.17542 0.0
H2291 H 0.467 0.98465 0.14426 0.0
H2292 H 0.53981 0.04259 0.16255 0.0
H2293 H 0.52457 0.07233 0.19904 0.0
C2294 C 0.48141 0.05815 0.22016 0.0
C2295 C 0.45964 0.0461 0.23088 0.0
C2296 C 0.48776 0.04474 0.19474 0.0
C2297 C 0.4419 0.0237 0.2137 0.0
C2298 C 0.44755 1.011 0.18748 0.0
C2299 C 0.47956 1.00379 0.15613 0.0
C2300 C 0.50473 1.01072 0.15057 0.0
C2301 C 0.4712 0.02019 0.17875 0.0
C2302 C 0.52029 0.03638 0.16564 0.0
C2303 C 0.51169 0.0535 0.187 0.0
H2304 H 0.81372 0.76368 0.95534 0.0
H2305 H 0.80104 0.67556 0.91444 0.0
H2306 H 0.80481 0.68934 0.86884 0.0
H2307 H 0.8131 0.72636 0.83992 0.0
H2308 H 0.82591 0.81461 0.88041 0.0
H2309 H 0.82089 0.80091 0.92597 0.0
C2310 C 0.81154 0.74748 0.93644 0.0
C2311 C 0.80707 0.7185 0.93871 0.0
C2312 C 0.814 0.7556 0.90984 0.0
C2313 C 0.80452 0.698 0.91371 0.0
C2314 C 0.80672 0.70586 0.88742 0.0
C2315 C 0.81468 0.74265 0.85864 0.0
C2316 C 0.82002 0.7716 0.85631 0.0
C2317 C 0.81171 0.7346 0.88513 0.0
C2318 C 0.82206 0.79218 0.88117 0.0
C2319 C 0.81909 0.78435 0.90744 0.0
H2320 H 0.83882 0.06061 0.02073 0.0
H2321 H 0.89024 0.14178 0.02857 0.0
H2322 H 0.92475 0.11812 0.02084 0.0
H2323 H 0.93949 0.07492 1.00716 0.0
H2324 H 0.88949 0.99299 1.00042 0.0
H2325 H 0.85505 1.01645 0.01147 0.0
C2326 C 0.85768 0.07306 0.02129 0.0
C2327 C 0.86195 0.10289 0.02499 0.0
C2328 C 0.87754 0.05923 0.01633 0.0
C2329 C 0.88643 0.11878 0.02552 0.0
C2330 C 0.90618 0.10528 0.02099 0.0
C2331 C 0.92131 0.06199 1.00882 0.0
C2332 C 0.91727 0.03212 1.00298 0.0
C2333 C 0.90182 0.07555 0.01565 0.0
C2334 C 0.89317 1.01599 1.00438 0.0
C2335 C 0.87349 0.02941 0.01094 0.0
H2336 H 0.4109 0.47063 0.04195 0.0
H2337 H 0.44331 0.39719 0.04135 0.0
H2338 H 0.48475 0.42624 0.04114 0.0
H2339 H 0.51223 0.47193 0.04001 0.0
H2340 H 0.48108 0.54601 0.04004 0.0
H2341 H 0.4392 0.51748 0.04177 0.0
C2342 C 0.42703 0.46101 0.04196 0.0
C2343 C 0.42361 0.4315 0.04156 0.0
C2344 C 0.45126 0.478 0.04169 0.0
C2345 C 0.44498 0.41964 0.04148 0.0
C2346 C 0.46888 0.4363 0.04137 0.0
C2347 C 0.49635 0.48198 0.0404 0.0
C2348 C 0.50006 0.51127 0.04001 0.0
C2349 C 0.47227 0.46541 0.04123 0.0
C2350 C 0.47904 0.52367 0.04066 0.0
C2351 C 0.45496 0.50727 0.04151 0.0
H2352 H 0.39419 0.65211 0.81263 0.0
H2353 H 0.44808 0.67242 0.7549 0.0
H2354 H 0.42978 0.71249 0.7472 0.0
H2355 H 0.39847 0.74365 0.75594 0.0
H2356 H 0.34905 0.72979 0.81921 0.0
H2357 H 0.36462 0.68703 0.82476 0.0
C2358 C 0.40217 0.66506 0.7982 0.0
C2359 C 0.42325 0.65737 0.78416 0.0
C2360 C 0.39162 0.68991 0.79431 0.0
C2361 C 0.43241 0.67619 0.76622 0.0
C2362 C 0.42164 0.69967 0.76167 0.0
C2363 C 0.39045 0.73129 0.77082 0.0
C2364 C 0.37019 0.74034 0.78531 0.0
C2365 C 0.40114 0.70702 0.77538 0.0
C2366 C 0.36242 0.72355 0.80553 0.0
C2367 C 0.37213 0.69885 0.80926 0.0
H2368 H 0.22507 0.59231 0.51543 0.0
H2369 H 0.2196 0.67766 0.55176 0.0
H2370 H 0.17438 0.66245 0.54903 0.0
H2371 H 0.13579 0.62594 0.53306 0.0
H2372 H 0.14045 0.54132 0.49497 0.0
H2373 H 0.18614 0.55499 0.50146 0.0
C2374 C 0.21401 0.60749 0.52295 0.0
C2375 C 0.22588 0.63616 0.53342 0.0
C2376 C 0.1877 0.59871 0.52102 0.0
C2377 C 0.21111 0.65553 0.54312 0.0
C2378 C 0.18514 0.64689 0.54165 0.0
C2379 C 0.1469 0.61033 0.52713 0.0
C2380 C 0.13484 0.58221 0.51519 0.0
C2381 C 0.17318 0.61867 0.53024 0.0
C2382 C 0.14933 0.56267 0.50557 0.0
C2383 C 0.1755 0.57062 0.509 0.0
H2384 H 0.7224 0.96916 0.78145 0.0
H2385 H 0.78313 1.00519 0.73797 0.0
H2386 H 0.8105 0.97925 0.75936 0.0
H2387 H 0.81878 0.95194 0.79551 0.0
H2388 H 0.75878 0.91807 0.84104 0.0
H2389 H 0.72952 0.93751 0.81387 0.0
C2390 C 0.74142 0.97071 0.7761 0.0
C2391 C 0.7508 0.98917 0.75833 0.0
C2392 C 0.75734 0.95661 0.78935 0.0
C2393 C 0.77555 0.99121 0.75174 0.0
C2394 C 0.79125 0.97652 0.76409 0.0
C2395 C 0.7992 0.94842 0.79911 0.0
C2396 C 0.791 0.93408 0.82056 0.0
C2397 C 0.78263 0.96007 0.78376 0.0
C2398 C 0.76561 0.92966 0.82507 0.0
C2399 C 0.74887 0.94063 0.80945 0.0
H2400 H 0.8022 0.97931 0.55942 0.0
H2401 H 0.75383 0.89772 0.52363 0.0
H2402 H 0.71963 0.92097 0.51349 0.0
H2403 H 0.70471 0.96518 0.5103 0.0
H2404 H 0.75437 0.04644 0.54402 0.0
H2405 H 0.7865 0.0228 0.55951 0.0
C2406 C 0.78405 0.96651 0.5499 0.0
C2407 C 0.78073 0.93672 0.54233 0.0
C2408 C 0.76463 0.9801 0.54342 0.0
C2409 C 0.75703 0.92064 0.52977 0.0
C2410 C 0.73744 0.93398 0.5238 0.0
C2411 C 0.7224 0.97763 0.52151 0.0
C2412 C 0.72715 1.00759 0.52587 0.0
C2413 C 0.74118 0.96378 0.52986 0.0
C2414 C 0.75029 0.0234 0.5402 0.0
C2415 C 0.76871 1.00988 0.54906 0.0
H2416 H 0.3962 0.50072 0.79805 0.0
H2417 H 0.45885 0.46969 0.76584 0.0
H2418 H 0.43657 0.42108 0.76318 0.0
H2419 H 0.39973 0.38537 0.77067 0.0
H2420 H 0.33638 0.41443 0.80246 0.0
H2421 H 0.35786 0.4638 0.80423 0.0
C2422 C 0.40496 0.48345 0.79006 0.0
C2423 C 0.42988 0.49016 0.78225 0.0
C2424 C 0.39169 0.45421 0.78853 0.0
C2425 C 0.44017 0.4664 0.77233 0.0
C2426 C 0.42729 0.43802 0.77074 0.0
C2427 C 0.39042 0.40234 0.77802 0.0
C2428 C 0.36582 0.39505 0.78613 0.0
C2429 C 0.40313 0.43139 0.77903 0.0
C2430 C 0.35478 0.4183 0.79547 0.0
C2431 C 0.36733 0.44705 0.79668 0.0
H2432 H 0.26172 0.64095 0.27259 0.0
H2433 H 0.18921 0.66152 0.27996 0.0
H2434 H 0.20766 0.7114 0.28134 0.0
H2435 H 0.24424 0.74939 0.2823 0.0
H2436 H 0.31739 0.73042 0.27867 0.0
H2437 H 0.29873 0.6795 0.27299 0.0
C2438 C 0.24992 0.65631 0.2744 0.0
C2439 C 0.22409 0.64742 0.27632 0.0
C2440 C 0.26071 0.68516 0.27552 0.0
C2441 C 0.20914 0.66769 0.2787 0.0
C2442 C 0.21965 0.69625 0.27937 0.0
C2443 C 0.25609 0.73407 0.28009 0.0
C2444 C 0.28207 0.74349 0.28055 0.0
C2445 C 0.24538 0.70521 0.27805 0.0
C2446 C 0.29727 0.72354 0.27783 0.0
C2447 C 0.28662 0.69451 0.27489 0.0
H2448 H 0.55761 0.69399 0.45035 0.0
H2449 H 0.51429 0.71623 0.51851 0.0
H2450 H 0.52147 0.67643 0.53828 0.0
H2451 H 0.5391 0.63403 0.53767 0.0
H2452 H 0.58184 0.60873 0.47075 0.0
H2453 H 0.5759 0.64971 0.4499 0.0
C2454 C 0.54958 0.69016 0.46942 0.0
C2455 C 0.53514 0.70923 0.48236 0.0
C2456 C 0.55379 0.66616 0.48145 0.0
C2457 C 0.5254 0.70295 0.50737 0.0
C2458 C 0.5295 0.67976 0.51907 0.0
C2459 C 0.54737 0.63749 0.5186 0.0
C2460 C 0.56158 0.61821 0.50652 0.0
C2461 C 0.5436 0.66113 0.50649 0.0
C2462 C 0.57145 0.62324 0.48132 0.0
C2463 C 0.56782 0.64681 0.46917 0.0
H2464 H 0.72106 0.33891 0.6393 0.0
H2465 H 0.66409 0.32698 0.69542 0.0
H2466 H 0.69533 0.32217 0.73191 0.0
H2467 H 0.73897 0.31901 0.74767 0.0
H2468 H 0.79606 0.33412 0.69206 0.0
H2469 H 0.76493 0.33943 0.6562 0.0
C2470 C 0.71536 0.33553 0.65958 0.0
C2471 C 0.68979 0.33338 0.66415 0.0
C2472 C 0.73366 0.33292 0.68082 0.0
C2473 C 0.68334 0.32898 0.69089 0.0
C2474 C 0.70133 0.32604 0.7119 0.0
C2475 C 0.74482 0.32389 0.72794 0.0
C2476 C 0.77035 0.32584 0.72306 0.0
C2477 C 0.7266 0.32767 0.70712 0.0
C2478 C 0.77687 0.33193 0.69682 0.0
C2479 C 0.75893 0.33516 0.6761 0.0
H2480 H 0.04727 0.37069 1.00689 0.0
H2481 H 0.023 0.36891 0.91985 0.0
H2482 H 0.02847 0.42013 0.9294 0.0
H2483 H 0.04396 0.46655 0.96058 0.0
H2484 H 0.06652 0.47121 0.04824 0.0
H2485 H 0.05771 0.41881 0.04057 0.0
C2486 C 0.04268 0.38142 0.99017 0.0
C2487 C 0.035 0.36525 0.96235 0.0
C2488 C 0.0458 0.41187 0.99585 0.0
C2489 C 0.02927 0.38019 0.94127 0.0
C2490 C 0.03241 0.4098 0.94669 0.0
C2491 C 0.0465 0.45616 0.97821 0.0
C2492 C 0.05587 0.47316 1.00498 0.0
C2493 C 0.04128 0.426 0.97361 0.0
C2494 C 0.05909 0.45899 0.02744 0.0
C2495 C 0.05421 0.42883 0.02293 0.0
H2496 H 0.07232 0.83232 0.20596 0.0
H2497 H 0.03003 0.80992 0.12387 0.0
H2498 H 0.991 0.79915 0.1453 0.0
H2499 H 0.96865 0.79358 0.1878 0.0
H2500 H 1.01164 0.81719 0.26955 0.0
H2501 H 0.05005 0.83026 0.24807 0.0
C2502 C 0.05458 0.82518 0.19272 0.0
C2503 C 0.05434 0.82178 0.16323 0.0
C2504 C 0.03205 0.8193 0.20525 0.0
C2505 C 0.03097 0.81273 0.14658 0.0
C2506 C 1.00854 0.80654 0.15887 0.0
C2507 C 0.98635 0.80216 0.20089 0.0
C2508 C 0.98709 0.8043 0.23038 0.0
C2509 C 1.00877 0.8095 0.18824 0.0
C2510 C 1.01039 0.81519 0.24688 0.0
C2511 C 0.03249 0.82258 0.23457 0.0
H2512 H 0.54162 0.35405 0.15472 0.0
H2513 H 0.49402 0.28749 0.0919 0.0
H2514 H 0.50746 0.31268 0.05489 0.0
H2515 H 0.5342 0.35204 0.0396 0.0
H2516 H 0.58236 0.41921 0.10099 0.0
H2517 H 0.56734 0.39562 0.13909 0.0
C2518 C 0.53392 0.34545 0.13299 0.0
C2519 C 0.51688 0.31891 0.12608 0.0
C2520 C 0.54208 0.35996 0.11143 0.0
C2521 C 0.50725 0.30782 0.09778 0.0
C2522 C 0.51497 0.32214 0.07651 0.0
C2523 C 0.54151 0.36143 0.06131 0.0
C2524 C 0.55955 0.3871 0.06742 0.0
C2525 C 0.53273 0.34789 0.08299 0.0
C2526 C 0.56844 0.39938 0.09574 0.0
C2527 C 0.55987 0.38589 0.11753 0.0
H2528 H 0.05991 0.32481 0.35257 0.0
H2529 H 0.06904 0.40052 0.4167 0.0
H2530 H 0.03346 0.41333 0.39347 0.0
H2531 H 0.99881 0.40255 0.35583 0.0
H2532 H 0.98713 0.32557 0.29326 0.0
H2533 H 0.02446 0.31368 0.31481 0.0
C2534 C 0.05409 0.3441 0.36134 0.0
C2535 C 0.06708 0.36159 0.38636 0.0
C2536 C 0.03311 0.35112 0.34816 0.0
C2537 C 0.05924 0.38649 0.39761 0.0
C2538 C 0.03893 0.39394 0.3843 0.0
C2539 C 1.00467 0.38336 0.34678 0.0
C2540 C 0.99053 0.36509 0.32293 0.0
C2541 C 0.02563 0.37636 0.35968 0.0
C2542 C 0.99788 0.33996 0.31163 0.0
C2543 C 0.01917 0.33317 0.32395 0.0
H2544 H 0.98417 0.66949 0.6028 0.0
H2545 H 0.04068 0.68807 0.67364 0.0
H2546 H 0.05499 0.64486 0.65551 0.0
H2547 H 0.05806 0.60933 0.61327 0.0
H2548 H 1.00156 0.59244 0.54232 0.0
H2549 H 0.98088 0.62736 0.56628 0.0
C2550 C 0.99863 0.66311 0.61504 0.0
C2551 C 1.01148 0.68185 0.63927 0.0
C2552 C 1.00766 0.63929 0.60362 0.0
C2553 C 0.03035 0.67371 0.65499 0.0
C2554 C 0.03896 0.64936 0.64423 0.0
C2555 C 0.04097 0.61293 0.60332 0.0
C2556 C 0.03228 0.59953 0.57523 0.0
C2557 C 0.0289 0.63318 0.61752 0.0
C2558 C 1.00973 0.60391 0.56302 0.0
C2559 C 0.9975 0.62349 0.577 0.0
H2560 H 0.69683 0.85069 0.82896 0.0
H2561 H 0.72126 0.81187 0.89594 0.0
H2562 H 0.76017 0.80867 0.87501 0.0
H2563 H 0.78611 0.81525 0.83673 0.0
H2564 H 0.76378 0.85763 0.77173 0.0
H2565 H 0.72529 0.86213 0.79329 0.0
C2566 C 0.71073 0.84151 0.83884 0.0
C2567 C 0.70618 0.8309 0.86349 0.0
C2568 C 0.73334 0.84075 0.82727 0.0
C2569 C 0.72443 0.8198 0.87674 0.0
C2570 C 0.74662 0.8181 0.86487 0.0
C2571 C 0.77278 0.82538 0.82726 0.0
C2572 C 0.77701 0.83497 0.80204 0.0
C2573 C 0.75111 0.82822 0.84 0.0
C2574 C 0.76033 0.84937 0.79071 0.0
C2575 C 0.73843 0.85192 0.80302 0.0
H2576 H 0.53402 0.57131 0.71436 0.0
H2577 H 0.46124 0.58041 0.68313 0.0
H2578 H 0.47427 0.5758 0.63506 0.0
H2579 H 0.50714 0.5679 0.59983 0.0
H2580 H 0.57939 0.55981 0.63456 0.0
H2581 H 0.56576 0.56505 0.68131 0.0
C2582 C 0.52061 0.57256 0.69739 0.0
C2583 C 0.49613 0.57656 0.70414 0.0
C2584 C 0.52839 0.56977 0.66921 0.0
C2585 C 0.48008 0.57784 0.68029 0.0
C2586 C 0.4877 0.57492 0.65218 0.0
C2587 C 0.52009 0.5672 0.61746 0.0
C2588 C 0.54505 0.56329 0.61197 0.0
C2589 C 0.51191 0.57063 0.64594 0.0
C2590 C 0.56054 0.56282 0.63648 0.0
C2591 C 0.55258 0.56584 0.6639 0.0
H2592 H 0.81521 0.20405 0.96851 0.0
H2593 H 0.7725 0.12091 0.92786 0.0
H2594 H 0.75587 0.14143 0.88966 0.0
H2595 H 0.75096 0.18421 0.87063 0.0
H2596 H 0.7921 0.26706 0.9153 0.0
H2597 H 0.81221 0.24529 0.94889 0.0
C2598 C 0.80241 0.1903 0.95115 0.0
C2599 C 0.79477 0.16117 0.95104 0.0
C2600 C 0.79265 0.20226 0.93005 0.0
C2601 C 0.77858 0.14347 0.92827 0.0
C2602 C 0.76898 0.15525 0.90663 0.0
C2603 C 0.76431 0.19745 0.88773 0.0
C2604 C 0.77001 0.22728 0.89025 0.0
C2605 C 0.7754 0.18481 0.90775 0.0
C2606 C 0.78765 0.24408 0.91234 0.0
C2607 C 0.79905 0.23168 0.93182 0.0
H2608 H 0.13442 0.51305 0.19574 0.0
H2609 H 0.20447 0.55826 0.17475 0.0
H2610 H 0.1844 0.55905 0.12831 0.0
H2611 H 0.1456 0.5538 0.09741 0.0
H2612 H 0.07557 0.50874 0.11902 0.0
H2613 H 0.09699 0.50145 0.16184 0.0
C2614 C 0.14542 0.52251 0.18073 0.0
C2615 C 0.17071 0.53604 0.18873 0.0
C2616 C 0.13363 0.52367 0.15461 0.0
C2617 C 0.18493 0.54775 0.16902 0.0
C2618 C 0.17339 0.54854 0.14264 0.0
C2619 C 0.13502 0.54216 0.11131 0.0
C2620 C 0.10883 0.53283 0.10554 0.0
C2621 C 0.1475 0.53775 0.13581 0.0
C2622 C 0.09557 0.5171 0.12343 0.0
C2623 C 0.10784 0.51265 0.14783 0.0
H2624 H 0.83785 0.8377 0.45751 0.0
H2625 H 0.85584 0.92697 0.45387 0.0
H2626 H 0.85624 0.91525 0.4032 0.0
H2627 H 0.84703 0.88039 0.35927 0.0
H2628 H 0.82785 0.79092 0.36046 0.0
H2629 H 0.83279 0.80175 0.41237 0.0
C2630 C 0.84225 0.85451 0.44563 0.0
C2631 C 0.84649 0.88327 0.45964 0.0
C2632 C 0.84212 0.84757 0.41593 0.0
C2633 C 0.85217 0.90473 0.44381 0.0
C2634 C 0.85243 0.89806 0.41471 0.0
C2635 C 0.84439 0.86321 0.37093 0.0
C2636 C 0.83723 0.83493 0.35606 0.0
C2637 C 0.84675 0.86967 0.40049 0.0
C2638 C 0.83372 0.81286 0.37139 0.0
C2639 C 0.83631 0.81913 0.40109 0.0
H2640 H 0.46526 0.56791 0.88725 0.0
H2641 H 0.53101 0.59544 0.84733 0.0
H2642 H 0.55763 0.59139 0.88843 0.0
H2643 H 0.56381 0.58218 0.93842 0.0
H2644 H 0.49809 0.55238 0.97724 0.0
H2645 H 0.47147 0.55482 0.9355 0.0
C2646 C 0.4854 0.57306 0.88718 0.0
C2647 C 0.49531 0.5825 0.86279 0.0
C2648 C 0.50136 0.56986 0.91152 0.0
C2649 C 0.5219 0.58835 0.86468 0.0
C2650 C 0.53752 0.58594 0.8887 0.0
C2651 C 0.54371 0.575 0.9376 0.0
C2652 C 0.5338 0.56546 0.96195 0.0
C2653 C 0.52775 0.57674 0.9126 0.0
C2654 C 0.50718 0.55844 0.95946 0.0
C2655 C 0.49158 0.56029 0.93523 0.0
H2656 H 0.82974 0.24348 0.09149 0.0
H2657 H 0.81511 0.16001 0.11254 0.0
H2658 H 0.81547 0.18154 0.16215 0.0
H2659 H 0.81573 0.22378 0.1983 0.0
H2660 H 0.82821 0.30671 0.17597 0.0
H2661 H 0.83229 0.28547 0.12765 0.0
C2662 C 0.82693 0.22991 0.10694 0.0
C2663 C 0.82209 0.20015 0.09829 0.0
C2664 C 0.82614 0.24229 0.13497 0.0
C2665 C 0.81894 0.18297 0.11865 0.0
C2666 C 0.8188 0.19526 0.14693 0.0
C2667 C 0.81917 0.23718 0.18283 0.0
C2668 C 0.82138 0.26674 0.19059 0.0
C2669 C 0.82153 0.22482 0.1551 0.0
C2670 C 0.82628 0.28388 0.17043 0.0
C2671 C 0.82874 0.27178 0.14287 0.0
H2672 H 0.16469 0.53892 0.32094 0.0
H2673 H 0.23543 0.59473 0.35674 0.0
H2674 H 0.21567 0.61433 0.39725 0.0
H2675 H 0.17698 0.61976 0.41877 0.0
H2676 H 0.10613 0.56579 0.3796 0.0
H2677 H 0.12737 0.54097 0.34444 0.0
C2678 C 0.17589 0.55512 0.33783 0.0
C2679 C 0.20131 0.56574 0.33578 0.0
C2680 C 0.16431 0.56678 0.36031 0.0
C2681 C 0.21577 0.58631 0.35792 0.0
C2682 C 0.20442 0.59768 0.38088 0.0
C2683 C 0.16621 0.60254 0.40256 0.0
C2684 C 0.13991 0.59494 0.40173 0.0
C2685 C 0.17848 0.58882 0.3817 0.0
C2686 C 0.12635 0.57204 0.38101 0.0
C2687 C 0.13845 0.55793 0.36068 0.0
H2688 H 0.83885 0.89373 0.62995 0.0
H2689 H 0.83753 0.81009 0.5825 0.0
H2690 H 0.83243 0.79006 0.62467 0.0
H2691 H 0.83012 0.79592 0.67584 0.0
H2692 H 0.83227 0.87933 0.72413 0.0
H2693 H 0.83531 0.89935 0.68151 0.0
C2694 C 0.83714 0.87109 0.62877 0.0
C2695 C 0.83867 0.85364 0.60272 0.0
C2696 C 0.83458 0.85946 0.65358 0.0
C2697 C 0.83663 0.8243 0.60201 0.0
C2698 C 0.83369 0.81268 0.62627 0.0
C2699 C 0.83107 0.81845 0.67707 0.0
C2700 C 0.83105 0.83594 0.70347 0.0
C2701 C 0.83296 0.83002 0.6523 0.0
C2702 C 0.83247 0.86519 0.70434 0.0
C2703 C 0.83413 0.87675 0.67983 0.0
H2704 H 0.76752 0.47569 0.52559 0.0
H2705 H 0.83301 0.53884 0.56583 0.0
H2706 H 0.8062 0.56971 0.58606 0.0
H2707 H 0.76406 0.5776 0.59396 0.0
H2708 H 0.69885 0.51393 0.55383 0.0
H2709 H 0.72572 0.48461 0.53139 0.0
C2710 C 0.77599 0.49623 0.53876 0.0
C2711 C 0.80224 0.50482 0.54448 0.0
C2712 C 0.7605 0.51379 0.5502 0.0
C2713 C 0.81287 0.53166 0.56125 0.0
C2714 C 0.79754 0.54929 0.57281 0.0
C2715 C 0.75575 0.55731 0.58028 0.0
C2716 C 0.72947 0.54785 0.57576 0.0
C2717 C 0.77133 0.5404 0.56771 0.0
C2718 C 0.71897 0.5218 0.55752 0.0
C2719 C 0.73434 0.50492 0.54486 0.0
H2720 H 0.23479 0.13368 0.50019 0.0
H2721 H 0.20677 0.21067 0.50838 0.0
H2722 H 0.16486 0.18392 0.51112 0.0
H2723 H 0.13588 0.13898 0.51327 0.0
H2724 H 0.16344 0.06186 0.50499 0.0
H2725 H 0.20504 0.08803 0.49976 0.0
C2726 C 0.21952 0.1446 0.50235 0.0
C2727 C 0.22434 0.17435 0.50412 0.0
C2728 C 0.19503 0.12896 0.50385 0.0
C2729 C 0.204 0.18789 0.50687 0.0
C2730 C 0.17983 0.17257 0.50854 0.0
C2731 C 0.1509 0.12779 0.5101 0.0
C2732 C 0.14615 0.09822 0.50934 0.0
C2733 C 0.17511 0.14314 0.50735 0.0
C2734 C 0.16609 0.08435 0.50519 0.0
C2735 C 0.19014 0.09945 0.50246 0.0
H2736 H 0.24192 0.93465 0.74005 0.0
H2737 H 0.23735 0.95939 0.82884 0.0
H2738 H 0.26141 0.92445 0.83841 0.0
H2739 H 0.28462 0.8855 0.82288 0.0
H2740 H 0.28657 0.8569 0.73429 0.0
H2741 H 0.26391 0.89321 0.72418 0.0
C2742 C 0.24593 0.9326 0.76166 0.0
C2743 C 0.23679 0.95111 0.78363 0.0
C2744 C 0.26012 0.91112 0.76736 0.0
C2745 C 0.24316 0.94654 0.81107 0.0
C2746 C 0.25734 0.92611 0.81668 0.0
C2747 C 0.2805 0.88707 0.80114 0.0
C2748 C 0.28933 0.86792 0.77966 0.0
C2749 C 0.26614 0.90808 0.79522 0.0
C2750 C 0.28194 0.87105 0.7519 0.0
C2751 C 0.26834 0.89213 0.746 0.0
H2752 H 0.41935 1.00046 0.02735 0.0
H2753 H 0.43472 0.91749 0.99929 0.0
H2754 H 0.47938 0.93838 1.00464 0.0
H2755 H 0.51449 0.97937 0.02143 0.0
H2756 H 0.49992 0.06226 0.0496 0.0
H2757 H 0.45461 0.04235 0.04018 0.0
C2758 C 0.43241 0.98695 0.02216 0.0
C2759 C 0.42352 0.95731 0.01338 0.0
C2760 C 0.45828 0.99908 0.02543 0.0
C2761 C 0.44086 0.94028 1.00646 0.0
C2762 C 0.4665 0.95219 1.00953 0.0
C2763 C 0.50128 0.99307 0.02476 0.0
C2764 C 0.51024 0.02225 0.03522 0.0
C2765 C 0.47544 0.9814 0.01959 0.0
C2766 C 0.49321 0.03981 0.04075 0.0
C2767 C 0.4674 0.0284 0.03552 0.0
H2768 H 0.88222 0.60572 0.80652 0.0
H2769 H 0.94549 0.64099 0.76619 0.0
H2770 H 0.919 0.66461 0.7399 0.0
H2771 H 0.87659 0.67021 0.72448 0.0
H2772 H 0.81375 0.63452 0.76504 0.0
H2773 H 0.84127 0.61567 0.79519 0.0
C2774 C 0.89029 0.61898 0.7923 0.0
C2775 C 0.91558 0.62142 0.78792 0.0
C2776 C 0.87492 0.63183 0.777 0.0
C2777 C 0.92602 0.63892 0.76986 0.0
C2778 C 0.91084 0.65212 0.75464 0.0
C2779 C 0.86914 0.65836 0.74004 0.0
C2780 C 0.84336 0.65304 0.74241 0.0
C2781 C 0.88509 0.64786 0.75733 0.0
C2782 C 0.8336 0.63833 0.76285 0.0
C2783 C 0.84929 0.6277 0.78004 0.0
H2784 H 0.84171 0.62104 0.02656 0.0
H2785 H 0.89354 0.70053 0.02818 0.0
H2786 H 0.92867 0.67936 0.04048 0.0
H2787 H 0.94457 0.63828 0.05268 0.0
H2788 H 0.89185 0.55926 0.05067 0.0
H2789 H 0.85739 0.58009 0.03646 0.0
C2790 C 0.86068 0.63379 0.02955 0.0
C2791 C 0.86489 0.66242 0.02659 0.0
C2792 C 0.88075 0.62147 0.03655 0.0
C2793 C 0.88969 0.67847 0.03037 0.0
C2794 C 0.90982 0.66634 0.03741 0.0
C2795 C 0.92557 0.62558 0.04875 0.0
C2796 C 0.92083 0.59726 0.05299 0.0
C2797 C 0.90559 0.63786 0.04075 0.0
C2798 C 0.89603 0.58117 0.04794 0.0
C2799 C 0.87627 0.59306 0.03979 0.0
H2800 H 0.21025 0.14382 0.79562 0.0
H2801 H 0.26779 0.09569 0.78945 0.0
H2802 H 0.29889 0.13934 0.78756 0.0
H2803 H 0.31015 0.19285 0.78669 0.0
H2804 H 0.25013 0.23799 0.79267 0.0
H2805 H 0.22086 0.19488 0.79542 0.0
C2806 C 0.22958 0.14247 0.79398 0.0
C2807 C 0.23602 0.1155 0.79283 0.0
C2808 C 0.24753 0.16788 0.7927 0.0
C2809 C 0.2616 0.11544 0.79054 0.0
C2810 C 0.27961 0.14076 0.78939 0.0
C2811 C 0.29074 0.19345 0.78874 0.0
C2812 C 0.28315 0.21998 0.78927 0.0
C2813 C 0.27294 0.16744 0.79033 0.0
C2814 C 0.25743 0.21896 0.79188 0.0
C2815 C 0.24023 0.19386 0.79356 0.0
H2816 H 0.39225 0.98212 0.29912 0.0
H2817 H 0.45683 0.95092 0.3246 0.0
H2818 H 0.43176 0.90207 0.31275 0.0
H2819 H 0.39149 0.86831 0.29448 0.0
H2820 H 0.32787 0.89993 0.26757 0.0
H2821 H 0.35283 0.94886 0.28013 0.0
C2822 C 0.40091 0.96476 0.30245 0.0
C2823 C 0.4264 0.97028 0.31305 0.0
C2824 C 0.38665 0.93687 0.29493 0.0
C2825 C 0.43725 0.94733 0.3167 0.0
C2826 C 0.42297 0.9194 0.30973 0.0
C2827 C 0.38319 0.88606 0.29159 0.0
C2828 C 0.35781 0.88103 0.28113 0.0
C2829 C 0.39771 0.91395 0.29869 0.0
C2830 C 0.34728 0.90371 0.27627 0.0
C2831 C 0.36152 0.93153 0.28343 0.0
H2832 H 0.60154 0.41955 0.62192 0.0
H2833 H 0.63329 0.37932 0.55127 0.0
H2834 H 0.63019 0.41885 0.5273 0.0
H2835 H 0.61901 0.4661 0.52606 0.0
H2836 H 0.58526 0.50493 0.59563 0.0
H2837 H 0.58862 0.46556 0.61975 0.0
C2838 C 0.60792 0.41929 0.6013 0.0
C2839 C 0.61803 0.39584 0.58891 0.0
C2840 C 0.60562 0.44228 0.58711 0.0
C2841 C 0.62565 0.39654 0.56184 0.0
C2842 C 0.62384 0.41941 0.54797 0.0
C2843 C 0.61217 0.46591 0.54643 0.0
C2844 C 0.60135 0.48883 0.55848 0.0
C2845 C 0.61392 0.44257 0.5603 0.0
C2846 C 0.59309 0.4878 0.5852 0.0
C2847 C 0.59519 0.46512 0.5992 0.0
H2848 H 0.45926 0.75877 0.37474 0.0
H2849 H 0.45028 0.82342 0.44377 0.0
H2850 H 0.41517 0.83266 0.41637 0.0
H2851 H 0.38636 0.82344 0.37267 0.0
H2852 H 0.39196 0.75624 0.30472 0.0
H2853 H 0.42821 0.74758 0.33116 0.0
C2854 C 0.44967 0.77488 0.38384 0.0
C2855 C 0.45802 0.79025 0.41179 0.0
C2856 C 0.42856 0.78002 0.36784 0.0
C2857 C 0.44474 0.81089 0.4227 0.0
C2858 C 0.42443 0.81639 0.40689 0.0
C2859 C 0.3954 0.80685 0.36343 0.0
C2860 C 0.38631 0.79128 0.33582 0.0
C2861 C 0.41606 0.80119 0.3794 0.0
C2862 C 0.39853 0.76954 0.32512 0.0
C2863 C 0.41939 0.76428 0.34057 0.0
H2864 H 0.11299 0.73101 0.04853 0.0
H2865 H 0.10442 0.74387 0.13721 0.0
H2866 H 0.09472 0.69243 0.13457 0.0
H2867 H 0.08833 0.64319 0.10744 0.0
H2868 H 0.09189 0.62942 0.01792 0.0
H2869 H 0.10425 0.68103 0.02061 0.0
C2870 C 0.10897 0.72265 0.06735 0.0
C2871 C 0.10961 0.742 0.09319 0.0
C2872 C 0.10278 0.6925 0.06557 0.0
C2873 C 0.10407 0.73012 0.11703 0.0
C2874 C 0.09858 0.70046 0.11555 0.0
C2875 C 0.092 0.65137 0.08845 0.0
C2876 C 0.09014 0.63183 0.0626 0.0
C2877 C 0.09788 0.68136 0.09 0.0
C2878 C 0.09422 0.64339 0.03829 0.0
C2879 C 0.10096 0.67315 0.03982 0.0
H2880 H 0.08635 0.27578 0.86027 0.0
H2881 H 0.12621 0.31414 0.94226 0.0
H2882 H 0.16487 0.32713 0.92091 0.0
H2883 H 0.18678 0.33134 0.87828 0.0
H2884 H 0.14614 0.29485 0.79647 0.0
H2885 H 0.10873 0.27716 0.81821 0.0
C2886 C 0.10356 0.28661 0.87354 0.0
C2887 C 0.10322 0.294 0.90289 0.0
C2888 C 0.12572 0.2945 0.86104 0.0
C2889 C 0.12579 0.30816 0.91964 0.0
C2890 C 0.14797 0.3157 0.90741 0.0
C2891 C 0.16984 0.31903 0.86534 0.0
C2892 C 0.16923 0.31427 0.83579 0.0
C2893 C 0.1481 0.30951 0.87806 0.0
C2894 C 0.14705 0.29868 0.81923 0.0
C2895 C 0.12563 0.28867 0.83167 0.0
H2896 H 0.59791 0.74786 0.90384 0.0
H2897 H 0.66165 0.77746 0.96677 0.0
H2898 H 0.64555 0.73963 0.99186 0.0
H2899 H 0.6083 0.70702 1.00197 0.0
H2900 H 0.543 0.68006 0.94061 0.0
H2901 H 0.56456 0.70774 0.90888 0.0
C2902 C 0.60891 0.74492 0.92215 0.0
C2903 C 0.63096 0.76516 0.93339 0.0
C2904 C 0.59865 0.7243 0.93742 0.0
C2905 C 0.6448 0.76177 0.95755 0.0
C2906 C 0.63532 0.74049 0.97221 0.0
C2907 C 0.59909 0.70644 0.98129 0.0
C2908 C 0.57381 0.6922 0.97403 0.0
C2909 C 0.61144 0.72294 0.96335 0.0
C2910 C 0.5622 0.69157 0.94706 0.0
C2911 C 0.57455 0.70732 0.92884 0.0
H2912 H 0.07811 0.77139 0.72896 0.0
H2913 H 0.11977 0.78703 0.65898 0.0
H2914 H 0.15753 0.78155 0.68457 0.0
H2915 H 0.17781 0.76766 0.72433 0.0
H2916 H 0.13795 0.7548 0.79617 0.0
H2917 H 0.1004 0.76315 0.77194 0.0
C2918 C 0.09554 0.77417 0.71953 0.0
C2919 C 0.09583 0.77926 0.69184 0.0
C2920 C 0.11748 0.77086 0.73439 0.0
C2921 C 0.11873 0.78279 0.68007 0.0
C2922 C 0.14044 0.77957 0.69467 0.0
C2923 C 0.16125 0.7674 0.73523 0.0
C2924 C 0.16096 0.76033 0.76213 0.0
C2925 C 0.13988 0.77289 0.72151 0.0
C2926 C 0.13879 0.75949 0.77525 0.0
C2927 C 0.11728 0.76454 0.76149 0.0
H2928 H 0.1193 0.41696 0.39293 0.0
H2929 H 0.16847 0.41505 0.46563 0.0
H2930 H 0.15652 0.45667 0.49193 0.0
H2931 H 0.12938 0.48997 0.49539 0.0
H2932 H 0.07709 0.49018 0.42503 0.0
H2933 H 0.09325 0.45311 0.3962 0.0
C2934 C 0.12783 0.42624 0.41427 0.0
C2935 C 0.14486 0.41333 0.42743 0.0
C2936 C 0.11994 0.44933 0.4297 0.0
C2937 C 0.15544 0.42491 0.45521 0.0
C2938 C 0.14849 0.44851 0.47025 0.0
C2939 C 0.12102 0.48162 0.47412 0.0
C2940 C 0.10109 0.49188 0.46316 0.0
C2941 C 0.13014 0.46018 0.45799 0.0
C2942 C 0.09188 0.48208 0.43453 0.0
C2943 C 0.10122 0.46095 0.41794 0.0
H2944 H 0.42505 0.25365 0.18359 0.0
H2945 H 0.47462 0.26706 0.26014 0.0
H2946 H 0.43864 0.26472 0.28756 0.0
H2947 H 0.39348 0.26507 0.29002 0.0
H2948 H 0.34542 0.25481 0.21304 0.0
H2949 H 0.38016 0.2489 0.18548 0.0
C2950 C 0.42808 0.25589 0.20627 0.0
C2951 C 0.4526 0.26108 0.21982 0.0
C2952 C 0.40745 0.25503 0.22182 0.0
C2953 C 0.456 0.2634 0.24919 0.0
C2954 C 0.4354 0.26194 0.26486 0.0
C2955 C 0.39073 0.26124 0.26721 0.0
C2956 C 0.36732 0.26136 0.25346 0.0
C2957 C 0.41111 0.25877 0.2515 0.0
C2958 C 0.36355 0.25557 0.22395 0.0
C2959 C 0.38339 0.25221 0.20823 0.0
H2960 H 0.69276 0.53089 0.39046 0.0
H2961 H 0.62989 0.52747 0.33054 0.0
H2962 H 0.60336 0.5321 0.36871 0.0
H2963 H 0.59632 0.53751 0.42076 0.0
H2964 H 0.65971 0.5425 0.48066 0.0
H2965 H 0.68593 0.53713 0.44245 0.0
C2966 C 0.67329 0.53117 0.38536 0.0
C2967 C 0.66421 0.52862 0.35605 0.0
C2968 C 0.65737 0.53422 0.40835 0.0
C2969 C 0.63842 0.52927 0.35178 0.0
C2970 C 0.62282 0.53196 0.37413 0.0
C2971 C 0.61582 0.53737 0.42584 0.0
C2972 C 0.62508 0.5405 0.45521 0.0
C2973 C 0.63177 0.53448 0.40282 0.0
C2974 C 0.65098 0.54027 0.45943 0.0
C2975 C 0.66644 0.53713 0.43704 0.0
H2976 H 0.36889 0.95441 0.11374 0.0
H2977 H 0.30855 0.88095 0.0846 0.0
H2978 H 0.31664 0.86307 0.12731 0.0
H2979 H 0.34753 0.8623 0.16505 0.0
H2980 H 0.40719 0.93644 0.19675 0.0
H2981 H 0.39281 0.95978 0.16036 0.0
C2982 C 0.35679 0.93523 0.11745 0.0
C2983 C 0.33855 0.91862 0.09595 0.0
C2984 C 0.36214 0.92453 0.14171 0.0
C2985 C 0.32293 0.89382 0.10085 0.0
C2986 C 0.32775 0.88342 0.12509 0.0
C2987 C 0.35704 0.88398 0.16515 0.0
C2988 C 0.37931 0.89678 0.18307 0.0
C2989 C 0.34843 0.89762 0.14461 0.0
C2990 C 0.39088 0.92512 0.1823 0.0
C2991 C 0.38251 0.93876 0.16166 0.0
H2992 H 0.96924 0.58512 0.90333 0.0
H2993 H 0.02619 0.57691 0.84756 0.0
H2994 H 0.05541 0.57389 0.88665 0.0
H2995 H 0.06345 0.56936 0.9359 0.0
H2996 H 1.00568 0.57532 0.9908 0.0
H2997 H 0.97828 0.58368 0.9531 0.0
C2998 C 0.98814 0.58305 0.89985 0.0
C2999 C 0.99548 0.58099 0.87267 0.0
C3000 C 1.00467 0.58066 0.92225 0.0
C3001 C 0.02003 0.57828 0.86836 0.0
C3002 C 0.03677 0.57654 0.89067 0.0
C3003 C 0.04503 0.57278 0.93963 0.0
C3004 C 0.03646 0.57107 0.96589 0.0
C3005 C 0.0291 0.57704 0.91759 0.0
C3006 C 1.0125 0.57573 0.97053 0.0
C3007 C 0.99682 0.58068 0.949 0.0
H3008 H 0.30968 0.28467 0.60612 0.0
H3009 H 0.30593 0.19469 0.59885 0.0
H3010 H 0.30879 0.20006 0.64987 0.0
H3011 H 0.31274 0.22994 0.69689 0.0
H3012 H 0.32119 0.32051 0.70548 0.0
H3013 H 0.31563 0.31529 0.65404 0.0
C3014 C 0.3095 0.26623 0.61568 0.0
C3015 C 0.30755 0.23924 0.59832 0.0
C3016 C 0.31166 0.26953 0.64544 0.0
C3017 C 0.30755 0.21573 0.61137 0.0
C3018 C 0.30907 0.21874 0.64068 0.0
C3019 C 0.3131 0.24854 0.6875 0.0
C3020 C 0.3163 0.27546 0.70514 0.0
C3021 C 0.31111 0.24547 0.65794 0.0
C3022 C 0.31765 0.2994 0.69254 0.0
C3023 C 0.31481 0.29643 0.66305 0.0
H3024 H 0.62071 0.5286 0.20367 0.0
H3025 H 0.69497 0.52546 0.18196 0.0
H3026 H 0.68237 0.53261 0.13439 0.0
H3027 H 0.65033 0.54177 0.09792 0.0
H3028 H 0.57523 0.54013 0.11894 0.0
H3029 H 0.58805 0.53359 0.16641 0.0
C3030 C 0.63436 0.52892 0.18863 0.0
C3031 C 0.65926 0.52579 0.19787 0.0
C3032 C 0.62674 0.53305 0.16052 0.0
C3033 C 0.67581 0.52689 0.17679 0.0
C3034 C 0.66848 0.53144 0.14915 0.0
C3035 C 0.63655 0.54022 0.11278 0.0
C3036 C 0.61156 0.5433 0.10387 0.0
C3037 C 0.64404 0.53494 0.14059 0.0
C3038 C 0.59462 0.53974 0.12428 0.0
C3039 C 0.60205 0.53542 0.15182 0.0
H3040 H 0.36646 0.93072 0.93604 0.0
H3041 H 0.30327 0.87743 0.96233 0.0
H3042 H 0.30377 0.83899 0.9231 0.0
H3043 H 0.32182 0.82081 0.88139 0.0
H3044 H 0.38411 0.8736 0.85335 0.0
H3045 H 0.3856 0.9112 0.89423 0.0
C3046 C 0.35252 0.91091 0.93263 0.0
C3047 C 0.33443 0.90699 0.95138 0.0
C3048 C 0.35324 0.88858 0.91029 0.0
C3049 C 0.31703 0.88092 0.94765 0.0
C3050 C 0.31748 0.85886 0.92549 0.0
C3051 C 0.33545 0.84059 0.8839 0.0
C3052 C 0.35159 0.84503 0.8633 0.0
C3053 C 0.3355 0.86245 0.90673 0.0
C3054 C 0.37056 0.87008 0.86821 0.0
C3055 C 0.37138 0.8917 0.89152 0.0
H3056 H 0.99675 0.57073 0.72914 0.0
H3057 H 0.93499 0.49854 0.71957 0.0
H3058 H 0.94613 0.4793 0.67319 0.0
H3059 H 0.97906 0.47832 0.64133 0.0
H3060 H 0.04402 0.54824 0.65624 0.0
H3061 H 0.02552 0.57358 0.69342 0.0
C3062 C 0.98514 0.55146 0.7162 0.0
C3063 C 0.96521 0.53598 0.72732 0.0
C3064 C 0.99257 0.53988 0.69062 0.0
C3065 C 0.95029 0.51085 0.71098 0.0
C3066 C 0.95692 0.49969 0.68473 0.0
C3067 C 0.9891 0.49918 0.65256 0.0
C3068 C 1.01323 0.51083 0.6462 0.0
C3069 C 0.97899 0.51317 0.67526 0.0
C3070 C 0.02545 0.53846 0.66031 0.0
C3071 C 1.01499 0.55303 0.68196 0.0
H3072 H 0.33093 0.26207 0.45771 0.0
H3073 H 0.28751 0.17925 0.41706 0.0
H3074 H 0.29259 0.19167 0.37093 0.0
H3075 H 0.30939 0.22578 0.34167 0.0
H3076 H 0.35319 0.30855 0.38182 0.0
H3077 H 0.34867 0.29619 0.42787 0.0
C3078 C 0.32235 0.24688 0.43876 0.0
C3079 C 0.30857 0.21978 0.44107 0.0
C3080 C 0.32592 0.25393 0.41192 0.0
C3081 C 0.29807 0.20026 0.4161 0.0
C3082 C 0.30109 0.20731 0.38959 0.0
C3083 C 0.31833 0.2411 0.3604 0.0
C3084 C 0.33203 0.26816 0.35768 0.0
C3085 C 0.31515 0.23398 0.38716 0.0
C3086 C 0.34309 0.28746 0.38262 0.0
C3087 C 0.34015 0.28048 0.40927 0.0
H3088 H 0.3816 0.6148 0.54801 0.0
H3089 H 0.3224 0.54528 0.50448 0.0
H3090 H 0.35348 0.51817 0.48861 0.0
H3091 H 0.39754 0.51785 0.48108 0.0
H3092 H 0.45653 0.58762 0.52465 0.0
H3093 H 0.42554 0.61088 0.54708 0.0
C3094 C 0.3755 0.59341 0.53561 0.0
C3095 C 0.34978 0.58213 0.5271 0.0
C3096 C 0.39347 0.57819 0.5264 0.0
C3097 C 0.34206 0.55435 0.51133 0.0
C3098 C 0.35986 0.53899 0.50205 0.0
C3099 C 0.40359 0.53784 0.496 0.0
C3100 C 0.42924 0.55123 0.50096 0.0
C3101 C 0.38561 0.5512 0.50853 0.0
C3102 C 0.43692 0.57693 0.52054 0.0
C3103 C 0.41918 0.59032 0.53316 0.0
H3104 H 0.94523 0.91835 0.54799 0.0
H3105 H 0.89873 0.97705 0.53521 0.0
H3106 H 0.93619 1.01454 0.53567 0.0
H3107 H 0.98281 0.02984 0.53709 0.0
H3108 H 0.02791 0.97026 0.55308 0.0
H3109 H 0.99068 0.93443 0.55376 0.0
C3110 C 0.94324 0.93941 0.54552 0.0
C3111 C 0.91915 0.94474 0.54141 0.0
C3112 C 0.9648 0.96088 0.54613 0.0
C3113 C 0.91703 0.97232 0.53856 0.0
C3114 C 0.93849 0.99376 0.53864 0.0
C3115 C 0.98449 1.00916 0.54105 0.0
C3116 C 1.00846 1.00305 0.54472 0.0
C3117 C 0.9626 0.98822 0.54204 0.0
C3118 C 1.00999 0.97592 0.54987 0.0
C3119 C 0.98858 0.95516 0.55033 0.0
H3120 H 0.89486 0.15167 0.31409 0.0
H3121 H 0.9421 0.16441 0.24827 0.0
H3122 H 0.92214 0.20261 0.23835 0.0
H3123 H 0.8908 0.23404 0.24703 0.0
H3124 H 0.84658 0.22637 0.31604 0.0
H3125 H 0.86498 0.18643 0.32519 0.0
C3126 C 0.90109 0.16261 0.29747 0.0
C3127 C 0.92089 0.15337 0.28197 0.0
C3128 C 0.88947 0.18633 0.29205 0.0
C3129 C 0.92761 0.16952 0.26097 0.0
C3130 C 0.91586 0.19193 0.25513 0.0
C3131 C 0.88478 0.22386 0.26421 0.0
C3132 C 0.86566 0.23421 0.27986 0.0
C3133 C 0.89664 0.20081 0.2703 0.0
C3134 C 0.85993 0.21978 0.30242 0.0
C3135 C 0.87096 0.19646 0.30791 0.0
H3136 H 0.71975 0.15824 0.05483 0.0
H3137 H 0.73056 0.08484 0.99762 0.0
H3138 H 0.6877 0.05957 1.00089 0.0
H3139 H 0.64589 0.06095 0.01583 0.0
H3140 H 0.63578 0.13357 0.0746 0.0
H3141 H 0.67987 0.15681 0.07513 0.0
C3142 C 0.71271 0.13662 0.04328 0.0
C3143 C 0.72788 0.1235 0.02556 0.0
C3144 C 0.68834 0.12225 0.04559 0.0
C3145 C 0.71899 0.09532 0.01118 0.0
C3146 C 0.69454 0.08097 0.01299 0.0
C3147 C 0.65367 0.08138 0.02954 0.0
C3148 C 0.63801 0.09539 0.04569 0.0
C3149 C 0.67889 0.09452 0.0296 0.0
C3150 C 0.64781 0.12234 0.06246 0.0
C3151 C 0.67288 0.13563 0.0626 0.0
H3152 H 0.29871 0.54414 0.25184 0.0
H3153 H 0.23916 0.46945 0.24348 0.0
H3154 H 0.26967 0.44095 0.25123 0.0
H3155 H 0.31153 0.43981 0.26986 0.0
H3156 H 0.37173 0.51417 0.27917 0.0
H3157 H 0.34244 0.54044 0.26192 0.0
C3158 C 0.2925 0.52145 0.25087 0.0
C3159 C 0.26676 0.50898 0.24771 0.0
C3160 C 0.31011 0.50537 0.2563 0.0
C3161 C 0.25891 0.47958 0.24635 0.0
C3162 C 0.27632 0.46331 0.25092 0.0
C3163 C 0.31867 0.46139 0.26718 0.0
C3164 C 0.34383 0.47508 0.2764 0.0
C3165 C 0.3018 0.47634 0.25739 0.0
C3166 C 0.35233 0.5033 0.27302 0.0
C3167 C 0.33562 0.51831 0.26301 0.0
H3168 H 0.30784 0.48612 0.05075 0.0
H3169 H 0.25731 0.40364 0.03149 0.0
H3170 H 0.22203 0.42571 0.0234 0.0
H3171 H 0.20585 0.4683 0.01755 0.0
H3172 H 0.25679 0.55043 0.03535 0.0
H3173 H 0.29122 0.52884 0.04837 0.0
C3174 C 0.28906 0.473 0.04522 0.0
C3175 C 0.28537 0.4432 0.04167 0.0
C3176 C 0.26879 0.48583 0.04008 0.0
C3177 C 0.26083 0.4266 0.03432 0.0
C3178 C 0.24057 0.43922 0.02961 0.0
C3179 C 0.22438 0.48149 0.02483 0.0
C3180 C 0.22872 0.51095 0.02532 0.0
C3181 C 0.24435 0.46879 0.03183 0.0
C3182 C 0.25296 0.52769 0.03453 0.0
C3183 C 0.2727 0.51534 0.04197 0.0
H3184 H 0.89423 0.99634 0.28257 0.0
H3185 H 0.96383 0.96793 0.2825 0.0
H3186 H 0.94158 0.91966 0.28007 0.0
H3187 H 0.90255 0.88319 0.27862 0.0
H3188 H 0.83222 0.90913 0.27733 0.0
H3189 H 0.854 0.95842 0.27961 0.0
C3190 C 0.90468 0.97975 0.28193 0.0
C3191 C 0.93147 0.9874 0.28302 0.0
C3192 C 0.89137 0.95045 0.28033 0.0
C3193 C 0.94366 0.96429 0.28205 0.0
C3194 C 0.93078 0.93594 0.28059 0.0
C3195 C 0.89174 0.89943 0.27873 0.0
C3196 C 0.86516 0.89121 0.27766 0.0
C3197 C 0.90464 0.92847 0.27987 0.0
C3198 C 0.85234 0.91363 0.27788 0.0
C3199 C 0.86502 0.94238 0.27929 0.0
H3200 H 0.7207 0.16119 0.73265 0.0
H3201 H 0.76844 0.11882 0.77636 0.0
H3202 H 0.79878 0.16368 0.79279 0.0
H3203 H 0.81057 0.21552 0.79733 0.0
H3204 H 0.76488 0.25766 0.75093 0.0
H3205 H 0.73479 0.21249 0.73313 0.0
C3206 C 0.73784 0.16182 0.74558 0.0
C3207 C 0.7422 0.13684 0.75349 0.0
C3208 C 0.75545 0.18765 0.75467 0.0
C3209 C 0.76465 0.13779 0.76994 0.0
C3210 C 0.78195 0.16344 0.77953 0.0
C3211 C 0.79415 0.21457 0.78303 0.0
C3212 C 0.78995 0.23947 0.77508 0.0
C3213 C 0.77734 0.18855 0.77243 0.0
C3214 C 0.76858 0.23844 0.75684 0.0
C3215 C 0.75136 0.21272 0.7468 0.0
loop_
_geom_bond_atom_site_label_1
_geom_bond_atom_site_label_2
_geom_bond_distance
_geom_bond_site_symmetry_2
_ccdc_geom_bond_type
Co0 O1 2.216 . S
Co0 O2 2.091 . S
Co0 O4 2.004 . S
Co0 O10 2.021 . S
Co0 O12 2.137 . S
Co0 O13 2.244 . S
O1 Co0 2.216 . S
O1 C8 1.247 . S
O2 Co0 2.091 . S
O2 C8 1.261 . S
C3 O12 1.247 . S
C3 O13 1.272 . S
O4 Co0 2.004 . S
O4 C9 1.259 . S
Co5 O6 2.061 . S
Co5 O11 2.052 . S
Co5 O13 2.135 . S
O6 Co5 2.061 . S
O6 C9 1.235 . S
C7 O10 1.238 . S
C7 O11 1.241 . S
C8 O1 1.247 . S
C8 O2 1.261 . S
C9 O4 1.259 . S
C9 O6 1.235 . S
O10 Co0 2.021 . S
O10 C7 1.238 . S
O11 Co5 2.052 . S
O11 C7 1.241 . S
O12 Co0 2.137 . S
O12 C3 1.247 . S
O13 Co0 2.244 . S
O13 C3 1.272 . S
O13 Co5 2.135 . S
Co14 O15 2.216 . S
Co14 O16 2.091 . S
Co14 O18 2.004 1_655 S
Co14 O24 2.021 . S
Co14 O26 2.137 . S
Co14 O27 2.244 1_655 S
O15 Co14 2.216 . S
O15 C22 1.247 . S
O16 Co14 2.091 . S
O16 C22 1.261 . S
C17 O26 1.247 1_455 S
C17 O27 1.272 . S
O18 Co14 2.004 1_455 S
O18 C23 1.259 . S
Co19 O20 2.061 . S
Co19 O25 2.052 . S
Co19 O27 2.135 . S
O20 Co19 2.061 . S
O20 C23 1.235 . S
C21 O24 1.238 . S
C21 O25 1.241 1_655 S
C22 O15 1.247 . S
C22 O16 1.261 . S
C23 O18 1.259 . S
C23 O20 1.235 . S
O24 Co14 2.021 . S
O24 C21 1.238 . S
O25 Co19 2.052 . S
O25 C21 1.241 1_455 S
O26 Co14 2.137 . S
O26 C17 1.247 1_655 S
O27 Co14 2.244 1_455 S
O27 C17 1.272 . S
O27 Co19 2.135 . S
Co28 O29 2.216 . S
Co28 O30 2.091 . S
Co28 O32 2.004 . S
Co28 O38 2.021 . S
Co28 O40 2.137 . S
Co28 O41 2.244 . S
O29 Co28 2.216 . S
O29 C36 1.247 . S
O30 Co28 2.091 . S
O30 C36 1.261 . S
C31 O40 1.247 . S
C31 O41 1.272 . S
O32 Co28 2.004 . S
O32 C37 1.259 . S
Co33 O34 2.061 . S
Co33 O39 2.052 . S
Co33 O41 2.135 . S
O34 Co33 2.061 . S
O34 C37 1.235 . S
C35 O38 1.238 . S
C35 O39 1.241 . S
C36 O29 1.247 . S
C36 O30 1.261 . S
C37 O32 1.259 . S
C37 O34 1.235 . S
O38 Co28 2.021 . S
O38 C35 1.238 . S
O39 Co33 2.052 . S
O39 C35 1.241 . S
O40 Co28 2.137 . S
O40 C31 1.247 . S
O41 Co28 2.244 . S
O41 C31 1.272 . S
O41 Co33 2.135 . S
Co42 O43 2.216 . S
Co42 O44 2.091 . S
Co42 O46 2.004 . S
Co42 O52 2.021 . S
Co42 O54 2.137 . S
Co42 O55 2.244 . S
O43 Co42 2.216 . S
O43 C50 1.247 . S
O44 Co42 2.091 . S
O44 C50 1.261 . S
C45 O54 1.247 . S
C45 O55 1.272 . S
O46 Co42 2.004 . S
O46 C51 1.259 . S
Co47 O48 2.061 . S
Co47 O53 2.052 . S
Co47 O55 2.135 . S
O48 Co47 2.061 . S
O48 C51 1.235 . S
C49 O52 1.238 . S
C49 O53 1.241 . S
C50 O43 1.247 . S
C50 O44 1.261 . S
C51 O46 1.259 . S
C51 O48 1.235 . S
O52 Co42 2.021 . S
O52 C49 1.238 . S
O53 Co47 2.052 . S
O53 C49 1.241 . S
O54 Co42 2.137 . S
O54 C45 1.247 . S
O55 Co42 2.244 . S
O55 C45 1.272 . S
O55 Co47 2.135 . S
Co56 O57 2.216 . S
Co56 O58 2.091 . S
Co56 O60 2.004 . S
Co56 O66 2.021 . S
Co56 O68 2.137 . S
Co56 O69 2.244 . S
O57 Co56 2.216 . S
O57 C64 1.247 . S
O58 Co56 2.091 . S
O58 C64 1.261 . S
C59 O68 1.247 . S
C59 O69 1.272 . S
O60 Co56 2.004 . S
O60 C65 1.259 . S
Co61 O62 2.061 . S
Co61 O67 2.052 . S
Co61 O69 2.135 . S
O62 Co61 2.061 . S
O62 C65 1.235 . S
C63 O66 1.238 . S
C63 O67 1.241 . S
C64 O57 1.247 . S
C64 O58 1.261 . S
C65 O60 1.259 . S
C65 O62 1.235 . S
O66 Co56 2.021 . S
O66 C63 1.238 . S
O67 Co61 2.052 . S
O67 C63 1.241 . S
O68 Co56 2.137 . S
O68 C59 1.247 . S
O69 Co56 2.244 . S
O69 C59 1.272 . S
O69 Co61 2.135 . S
Co70 O71 2.216 . S
Co70 O72 2.091 . S
Co70 O74 2.004 . S
Co70 O80 2.021 . S
Co70 O82 2.137 . S
Co70 O83 2.244 . S
O71 Co70 2.216 . S
O71 C78 1.247 . S
O72 Co70 2.091 . S
O72 C78 1.261 . S
C73 O82 1.247 . S
C73 O83 1.272 . S
O74 Co70 2.004 . S
O74 C79 1.259 . S
Co75 O76 2.061 . S
Co75 O81 2.052 . S
Co75 O83 2.135 . S
O76 Co75 2.061 . S
O76 C79 1.235 . S
C77 O80 1.238 . S
C77 O81 1.241 . S
C78 O71 1.247 . S
C78 O72 1.261 . S
C79 O74 1.259 . S
C79 O76 1.235 . S
O80 Co70 2.021 . S
O80 C77 1.238 . S
O81 Co75 2.052 . S
O81 C77 1.241 . S
O82 Co70 2.137 . S
O82 C73 1.247 . S
O83 Co70 2.244 . S
O83 C73 1.272 . S
O83 Co75 2.135 . S
Co84 O85 2.216 . S
Co84 O86 2.091 . S
Co84 O88 2.004 . S
Co84 O94 2.021 . S
Co84 O96 2.137 . S
Co84 O97 2.244 . S
O85 Co84 2.216 . S
O85 C92 1.247 . S
O86 Co84 2.091 . S
O86 C92 1.261 . S
C87 O96 1.247 . S
C87 O97 1.272 . S
O88 Co84 2.004 . S
O88 C93 1.259 . S
Co89 O90 2.061 . S
Co89 O95 2.052 . S
Co89 O97 2.135 . S
O90 Co89 2.061 . S
O90 C93 1.235 . S
C91 O94 1.238 . S
C91 O95 1.241 . S
C92 O85 1.247 . S
C92 O86 1.261 . S
C93 O88 1.259 . S
C93 O90 1.235 . S
O94 Co84 2.021 . S
O94 C91 1.238 . S
O95 Co89 2.052 . S
O95 C91 1.241 . S
O96 Co84 2.137 . S
O96 C87 1.247 . S
O97 Co84 2.244 . S
O97 C87 1.272 . S
O97 Co89 2.135 . S
Co98 O99 2.216 . S
Co98 O100 2.091 . S
Co98 O102 2.004 1_455 S
Co98 O108 2.021 . S
Co98 O110 2.137 . S
Co98 O111 2.244 . S
O99 Co98 2.216 . S
O99 C106 1.247 . S
O100 Co98 2.091 . S
O100 C106 1.261 . S
C101 O110 1.247 . S
C101 O111 1.272 . S
O102 Co98 2.004 1_655 S
O102 C107 1.259 . S
Co103 O104 2.061 . S
Co103 O109 2.052 1_655 S
Co103 O111 2.135 1_655 S
O104 Co103 2.061 . S
O104 C107 1.235 . S
C105 O108 1.238 . S
C105 O109 1.241 . S
C106 O99 1.247 . S
C106 O100 1.261 . S
C107 O102 1.259 . S
C107 O104 1.235 . S
O108 Co98 2.021 . S
O108 C105 1.238 . S
O109 Co103 2.052 1_455 S
O109 C105 1.241 . S
O110 Co98 2.137 . S
O110 C101 1.247 . S
O111 Co98 2.244 . S
O111 C101 1.272 . S
O111 Co103 2.135 1_455 S
Co112 O113 2.216 . S
Co112 O114 2.091 . S
Co112 O116 2.004 1_545 S
Co112 O122 2.021 . S
Co112 O124 2.137 . S
Co112 O125 2.244 . S
O113 Co112 2.216 . S
O113 C120 1.247 . S
O114 Co112 2.091 . S
O114 C120 1.261 . S
C115 O124 1.247 . S
C115 O125 1.272 . S
O116 Co112 2.004 1_565 S
O116 C121 1.259 . S
Co117 O118 2.061 . S
Co117 O123 2.052 . S
Co117 O125 2.135 1_565 S
O118 Co117 2.061 . S
O118 C121 1.235 . S
C119 O122 1.238 . S
C119 O123 1.241 1_545 S
C120 O113 1.247 . S
C120 O114 1.261 . S
C121 O116 1.259 . S
C121 O118 1.235 . S
O122 Co112 2.021 . S
O122 C119 1.238 . S
O123 Co117 2.052 . S
O123 C119 1.241 1_565 S
O124 Co112 2.137 . S
O124 C115 1.247 . S
O125 Co112 2.244 . S
O125 C115 1.272 . S
O125 Co117 2.135 1_545 S
Co126 O127 2.216 . S
Co126 O128 2.091 . S
Co126 O130 2.004 . S
Co126 O136 2.021 . S
Co126 O138 2.137 . S
Co126 O139 2.244 . S
O127 Co126 2.216 . S
O127 C134 1.247 . S
O128 Co126 2.091 . S
O128 C134 1.261 . S
C129 O138 1.247 . S
C129 O139 1.272 . S
O130 Co126 2.004 . S
O130 C135 1.259 . S
Co131 O132 2.061 . S
Co131 O137 2.052 . S
Co131 O139 2.135 . S
O132 Co131 2.061 . S
O132 C135 1.235 . S
C133 O136 1.238 . S
C133 O137 1.241 . S
C134 O127 1.247 . S
C134 O128 1.261 . S
C135 O130 1.259 . S
C135 O132 1.235 . S
O136 Co126 2.021 . S
O136 C133 1.238 . S
O137 Co131 2.052 . S
O137 C133 1.241 . S
O138 Co126 2.137 . S
O138 C129 1.247 . S
O139 Co126 2.244 . S
O139 C129 1.272 . S
O139 Co131 2.135 . S
Co140 O141 2.216 . S
Co140 O142 2.091 . S
Co140 O144 2.004 1_565 S
Co140 O150 2.021 . S
Co140 O152 2.137 . S
Co140 O153 2.244 1_565 S
O141 Co140 2.216 . S
O141 C148 1.247 . S
O142 Co140 2.091 . S
O142 C148 1.261 . S
C143 O152 1.247 1_545 S
C143 O153 1.272 . S
O144 Co140 2.004 1_545 S
O144 C149 1.259 . S
Co145 O146 2.061 . S
Co145 O151 2.052 . S
Co145 O153 2.135 . S
O146 Co145 2.061 . S
O146 C149 1.235 . S
C147 O150 1.238 . S
C147 O151 1.241 1_565 S
C148 O141 1.247 . S
C148 O142 1.261 . S
C149 O144 1.259 . S
C149 O146 1.235 . S
O150 Co140 2.021 . S
O150 C147 1.238 . S
O151 Co145 2.052 . S
O151 C147 1.241 1_545 S
O152 Co140 2.137 . S
O152 C143 1.247 1_565 S
O153 Co140 2.244 1_545 S
O153 C143 1.272 . S
O153 Co145 2.135 . S
Co154 O155 2.216 . S
Co154 O156 2.091 . S
Co154 O158 2.004 . S
Co154 O164 2.021 . S
Co154 O166 2.137 1_554 S
Co154 O167 2.244 1_554 S
O155 Co154 2.216 . S
O155 C162 1.246 . S
O156 Co154 2.091 . S
O156 C162 1.261 . S
C157 O166 1.247 . S
C157 O167 1.272 . S
O158 Co154 2.004 . S
O158 C163 1.259 . S
Co159 O160 2.063 1_556 S
Co159 O165 2.025 1_556 S
Co159 O167 2.152 . S
O160 Co159 2.063 1_554 S
O160 C163 1.235 . S
C161 O164 1.238 . S
C161 O165 1.241 . S
C162 O155 1.246 . S
C162 O156 1.261 . S
C163 O158 1.259 . S
C163 O160 1.235 . S
O164 Co154 2.021 . S
O164 C161 1.238 . S
O165 Co159 2.025 1_554 S
O165 C161 1.241 . S
O166 Co154 2.137 1_556 S
O166 C157 1.247 . S
O167 Co154 2.244 1_556 S
O167 C157 1.272 . S
O167 Co159 2.152 . S
Co168 O169 2.216 . S
Co168 O170 2.091 . S
Co168 O172 2.004 . S
Co168 O178 2.021 . S
Co168 O180 2.137 1_554 S
Co168 O181 2.244 . S
O169 Co168 2.216 . S
O169 C176 1.247 . S
O170 Co168 2.091 . S
O170 C176 1.261 . S
C171 O180 1.247 . S
C171 O181 1.272 1_556 S
O172 Co168 2.004 . S
O172 C177 1.259 . S
Co173 O174 2.061 . S
Co173 O179 2.052 . S
Co173 O181 2.135 . S
O174 Co173 2.061 . S
O174 C177 1.235 . S
C175 O178 1.238 . S
C175 O179 1.241 . S
C176 O169 1.247 . S
C176 O170 1.261 . S
C177 O172 1.259 . S
C177 O174 1.235 . S
O178 Co168 2.021 . S
O178 C175 1.238 . S
O179 Co173 2.052 . S
O179 C175 1.241 . S
O180 Co168 2.137 1_556 S
O180 C171 1.247 . S
O181 Co168 2.244 . S
O181 C171 1.272 1_554 S
O181 Co173 2.135 . S
Co182 O183 2.216 . S
Co182 O184 2.091 . S
Co182 O186 2.004 . S
Co182 O192 2.021 . S
Co182 O194 2.137 1_554 S
Co182 O195 2.244 . S
O183 Co182 2.216 . S
O183 C190 1.247 . S
O184 Co182 2.091 . S
O184 C190 1.261 . S
C185 O194 1.247 . S
C185 O195 1.272 1_556 S
O186 Co182 2.004 . S
O186 C191 1.259 . S
Co187 O188 2.061 . S
Co187 O193 2.052 . S
Co187 O195 2.135 . S
O188 Co187 2.061 . S
O188 C191 1.235 . S
C189 O192 1.238 . S
C189 O193 1.241 . S
C190 O183 1.247 . S
C190 O184 1.261 . S
C191 O186 1.259 . S
C191 O188 1.235 . S
O192 Co182 2.021 . S
O192 C189 1.238 . S
O193 Co187 2.052 . S
O193 C189 1.241 . S
O194 Co182 2.137 1_556 S
O194 C185 1.247 . S
O195 Co182 2.244 . S
O195 C185 1.272 1_554 S
O195 Co187 2.135 . S
Co196 O197 2.216 . S
Co196 O198 2.091 . S
Co196 O200 2.004 . S
Co196 O206 2.021 . S
Co196 O208 2.137 . S
Co196 O209 2.244 . S
O197 Co196 2.216 . S
O197 C204 1.247 . S
O198 Co196 2.091 . S
O198 C204 1.261 . S
C199 O208 1.247 . S
C199 O209 1.272 . S
O200 Co196 2.004 . S
O200 C205 1.259 . S
Co201 O202 2.061 . S
Co201 O207 2.052 . S
Co201 O209 2.135 . S
O202 Co201 2.061 . S
O202 C205 1.235 . S
C203 O206 1.238 . S
C203 O207 1.241 . S
C204 O197 1.247 . S
C204 O198 1.261 . S
C205 O200 1.259 . S
C205 O202 1.235 . S
O206 Co196 2.021 . S
O206 C203 1.238 . S
O207 Co201 2.052 . S
O207 C203 1.241 . S
O208 Co196 2.137 . S
O208 C199 1.247 . S
O209 Co196 2.244 . S
O209 C199 1.272 . S
O209 Co201 2.135 . S
Co210 O211 2.216 . S
Co210 O212 2.091 . S
Co210 O214 2.004 . S
Co210 O220 2.021 . S
Co210 O222 2.137 . S
Co210 O223 2.244 . S
O211 Co210 2.216 . S
O211 C218 1.247 . S
O212 Co210 2.091 . S
O212 C218 1.261 . S
C213 O222 1.247 . S
C213 O223 1.272 . S
O214 Co210 2.004 . S
O214 C219 1.259 . S
Co215 O216 2.061 . S
Co215 O221 2.052 . S
Co215 O223 2.135 . S
O216 Co215 2.061 . S
O216 C219 1.235 . S
C217 O220 1.238 . S
C217 O221 1.241 . S
C218 O211 1.247 . S
C218 O212 1.261 . S
C219 O214 1.259 . S
C219 O216 1.235 . S
O220 Co210 2.021 . S
O220 C217 1.238 . S
O221 Co215 2.052 . S
O221 C217 1.241 . S
O222 Co210 2.137 . S
O222 C213 1.247 . S
O223 Co210 2.244 . S
O223 C213 1.272 . S
O223 Co215 2.135 . S
Co224 O225 2.216 . S
Co224 O226 2.091 . S
Co224 O228 2.004 . S
Co224 O234 2.021 . S
Co224 O236 2.137 . S
Co224 O237 2.244 . S
O225 Co224 2.216 . S
O225 C232 1.247 . S
O226 Co224 2.091 . S
O226 C232 1.261 . S
C227 O236 1.247 . S
C227 O237 1.272 . S
O228 Co224 2.004 . S
O228 C233 1.259 . S
Co229 O230 2.061 . S
Co229 O235 2.052 . S
Co229 O237 2.135 . S
O230 Co229 2.061 . S
O230 C233 1.235 . S
C231 O234 1.238 . S
C231 O235 1.241 . S
C232 O225 1.247 . S
C232 O226 1.261 . S
C233 O228 1.259 . S
C233 O230 1.235 . S
O234 Co224 2.021 . S
O234 C231 1.238 . S
O235 Co229 2.052 . S
O235 C231 1.241 . S
O236 Co224 2.137 . S
O236 C227 1.247 . S
O237 Co224 2.244 . S
O237 C227 1.272 . S
O237 Co229 2.135 . S
Co238 O239 2.216 . S
Co238 O240 2.091 . S
Co238 O242 2.004 . S
Co238 O248 2.021 . S
Co238 O250 2.137 . S
Co238 O251 2.244 . S
O239 Co238 2.216 . S
O239 C246 1.247 . S
O240 Co238 2.091 . S
O240 C246 1.261 . S
C241 O250 1.247 . S
C241 O251 1.272 . S
O242 Co238 2.004 . S
O242 C247 1.259 . S
Co243 O244 2.061 . S
Co243 O249 2.052 . S
Co243 O251 2.135 . S
O244 Co243 2.061 . S
O244 C247 1.235 . S
C245 O248 1.238 . S
C245 O249 1.241 . S
C246 O239 1.247 . S
C246 O240 1.261 . S
C247 O242 1.259 . S
C247 O244 1.235 . S
O248 Co238 2.021 . S
O248 C245 1.238 . S
O249 Co243 2.052 . S
O249 C245 1.241 . S
O250 Co238 2.137 . S
O250 C241 1.247 . S
O251 Co238 2.244 . S
O251 C241 1.272 . S
O251 Co243 2.135 . S
Co252 O253 2.216 . S
Co252 O254 2.091 . S
Co252 O256 2.004 . S
Co252 O262 2.021 . S
Co252 O264 2.137 . S
Co252 O265 2.244 . S
O253 Co252 2.216 . S
O253 C260 1.247 . S
O254 Co252 2.091 . S
O254 C260 1.261 . S
C255 O264 1.247 . S
C255 O265 1.272 . S
O256 Co252 2.004 . S
O256 C261 1.259 . S
Co257 O258 2.061 . S
Co257 O263 2.052 . S
Co257 O265 2.135 . S
O258 Co257 2.061 . S
O258 C261 1.235 . S
C259 O262 1.238 . S
C259 O263 1.241 . S
C260 O253 1.247 . S
C260 O254 1.261 . S
C261 O256 1.259 . S
C261 O258 1.235 . S
O262 Co252 2.021 . S
O262 C259 1.238 . S
O263 Co257 2.052 . S
O263 C259 1.241 . S
O264 Co252 2.137 . S
O264 C255 1.247 . S
O265 Co252 2.244 . S
O265 C255 1.272 . S
O265 Co257 2.135 . S
Co266 O267 2.216 . S
Co266 O268 2.091 . S
Co266 O270 2.004 . S
Co266 O276 2.021 . S
Co266 O278 2.137 . S
Co266 O279 2.244 . S
O267 Co266 2.216 . S
O267 C274 1.247 . S
O268 Co266 2.091 . S
O268 C274 1.261 . S
C269 O278 1.247 . S
C269 O279 1.272 . S
O270 Co266 2.004 . S
O270 C275 1.259 . S
Co271 O272 2.061 . S
Co271 O277 2.052 . S
Co271 O279 2.135 . S
O272 Co271 2.061 . S
O272 C275 1.235 . S
C273 O276 1.238 . S
C273 O277 1.241 . S
C274 O267 1.247 . S
C274 O268 1.261 . S
C275 O270 1.259 . S
C275 O272 1.235 . S
O276 Co266 2.021 . S
O276 C273 1.238 . S
O277 Co271 2.052 . S
O277 C273 1.241 . S
O278 Co266 2.137 . S
O278 C269 1.247 . S
O279 Co266 2.244 . S
O279 C269 1.272 . S
O279 Co271 2.135 . S
Co280 O281 2.216 . S
Co280 O282 2.091 . S
Co280 O284 2.004 . S
Co280 O290 2.021 1_556 S
Co280 O292 2.137 . S
Co280 O293 2.244 . S
O281 Co280 2.216 . S
O281 C288 1.247 . S
O282 Co280 2.091 . S
O282 C288 1.261 . S
C283 O292 1.247 . S
C283 O293 1.272 . S
O284 Co280 2.004 . S
O284 C289 1.259 . S
Co285 O286 2.062 . S
Co285 O291 2.052 . S
Co285 O293 2.135 1_554 S
O286 Co285 2.062 . S
O286 C289 1.235 1_554 S
C287 O290 1.238 . S
C287 O291 1.241 . S
C288 O281 1.247 . S
C288 O282 1.261 . S
C289 O284 1.259 . S
C289 O286 1.235 1_556 S
O290 Co280 2.021 1_554 S
O290 C287 1.238 . S
O291 Co285 2.052 . S
O291 C287 1.241 . S
O292 Co280 2.137 . S
O292 C283 1.247 . S
O293 Co280 2.244 . S
O293 C283 1.272 . S
O293 Co285 2.135 1_556 S
Co294 O295 2.216 . S
Co294 O296 2.091 . S
Co294 O298 2.004 . S
Co294 O304 2.021 . S
Co294 O306 2.137 . S
Co294 O307 2.244 . S
O295 Co294 2.216 . S
O295 C302 1.247 . S
O296 Co294 2.091 . S
O296 C302 1.261 . S
C297 O306 1.247 . S
C297 O307 1.272 . S
O298 Co294 2.004 . S
O298 C303 1.259 . S
Co299 O300 2.061 . S
Co299 O305 2.052 . S
Co299 O307 2.135 . S
O300 Co299 2.061 . S
O300 C303 1.235 . S
C301 O304 1.238 . S
C301 O305 1.241 . S
C302 O295 1.247 . S
C302 O296 1.261 . S
C303 O298 1.259 . S
C303 O300 1.235 . S
O304 Co294 2.021 . S
O304 C301 1.238 . S
O305 Co299 2.052 . S
O305 C301 1.241 . S
O306 Co294 2.137 . S
O306 C297 1.247 . S
O307 Co294 2.244 . S
O307 C297 1.272 . S
O307 Co299 2.135 . S
Co308 O309 2.216 . S
Co308 O310 2.091 . S
Co308 O312 2.004 . S
Co308 O318 2.021 . S
Co308 O320 2.137 . S
Co308 O321 2.244 . S
O309 Co308 2.216 . S
O309 C316 1.247 . S
O310 Co308 2.091 . S
O310 C316 1.261 . S
C311 O320 1.247 . S
C311 O321 1.272 . S
O312 Co308 2.004 . S
O312 C317 1.259 . S
Co313 O314 2.061 . S
Co313 O319 2.052 . S
Co313 O321 2.135 . S
O314 Co313 2.061 . S
O314 C317 1.235 . S
C315 O318 1.238 . S
C315 O319 1.241 . S
C316 O309 1.247 . S
C316 O310 1.261 . S
C317 O312 1.259 . S
C317 O314 1.235 . S
O318 Co308 2.021 . S
O318 C315 1.238 . S
O319 Co313 2.052 . S
O319 C315 1.241 . S
O320 Co308 2.137 . S
O320 C311 1.247 . S
O321 Co308 2.244 . S
O321 C311 1.272 . S
O321 Co313 2.135 . S
Co322 O323 2.216 . S
Co322 O324 2.091 . S
Co322 O326 2.004 . S
Co322 O332 2.021 . S
Co322 O334 2.137 . S
Co322 O335 2.244 . S
O323 Co322 2.216 . S
O323 C330 1.247 . S
O324 Co322 2.091 . S
O324 C330 1.261 . S
C325 O334 1.247 . S
C325 O335 1.272 . S
O326 Co322 2.004 . S
O326 C331 1.259 . S
Co327 O328 2.061 . S
Co327 O333 2.052 . S
Co327 O335 2.135 . S
O328 Co327 2.061 . S
O328 C331 1.235 . S
C329 O332 1.238 . S
C329 O333 1.241 . S
C330 O323 1.247 . S
C330 O324 1.261 . S
C331 O326 1.259 . S
C331 O328 1.235 . S
O332 Co322 2.021 . S
O332 C329 1.238 . S
O333 Co327 2.052 . S
O333 C329 1.241 . S
O334 Co322 2.137 . S
O334 C325 1.247 . S
O335 Co322 2.244 . S
O335 C325 1.272 . S
O335 Co327 2.135 . S
Gd336 N367 2.661 . S
Gd336 N373 2.601 . S
Gd336 O380 2.545 . S
Gd336 O381 2.606 . S
Gd336 O383 2.429 . S
Gd336 O384 2.545 . S
Gd336 O385 2.412 . S
Gd336 O387 2.362 . S
Gd336 O388 2.324 1_554 S
Gd336 C395 2.828 . S
Gd337 N346 2.661 1_545 S
Gd337 N350 2.601 1_544 S
Gd337 O381 2.362 . S
Gd337 O382 2.324 . S
Gd337 O386 2.545 1_454 S
Gd337 O387 2.606 . S
Gd337 O389 2.429 1_554 S
Gd337 O390 2.552 . S
Gd337 O391 2.412 1_455 S
Gd337 C404 2.828 1_454 S
C338 C341 1.421 . S
C338 C343 1.431 1_554 S
C338 C344 1.412 . S
C339 C342 1.437 . S
C339 C343 1.317 . S
C339 H358 0.929 . S
C340 C341 1.426 1_556 S
C340 C342 1.413 . S
C340 N350 1.359 1_655 S
C341 C338 1.421 . S
C341 C340 1.426 1_554 S
C341 N346 1.348 1_655 S
C342 C339 1.437 . S
C342 C340 1.413 . S
C342 C352 1.391 . S
C343 C338 1.431 1_556 S
C343 C339 1.317 . S
C343 H354 0.930 1_556 S
C344 C338 1.412 . S
C344 C345 1.355 1_655 S
C344 H356 0.930 . S
C345 C344 1.355 1_455 S
C345 C347 1.402 . S
C345 H357 0.930 . S
N346 Gd337 2.661 1_565 S
N346 C341 1.348 1_455 S
N346 C347 1.307 . S
C347 C345 1.402 . S
C347 N346 1.307 . S
C347 H348 0.930 . S
H348 C347 0.930 . S
C349 N350 1.334 . S
C349 C351 1.394 1_455 S
C349 H353 0.930 . S
N350 Gd337 2.601 1_566 S
N350 C340 1.359 1_455 S
N350 C349 1.334 . S
C351 C349 1.394 1_655 S
C351 C352 1.359 . S
C351 H363 0.930 . S
C352 C342 1.391 . S
C352 C351 1.359 . S
C352 H364 0.929 . S
H353 C349 0.930 . S
H354 C343 0.930 1_554 S
H355 C372 0.930 . S
H356 C344 0.930 . S
H357 C345 0.930 . S
H358 C339 0.929 . S
H359 C377 0.930 . S
H360 C368 0.930 . S
H361 C369 0.930 . S
H362 C393 0.929 . S
H363 C351 0.930 . S
H364 C352 0.929 . S
H365 C394 0.930 . S
H366 C375 0.930 . S
N367 Gd336 2.661 . S
N367 C371 1.350 . S
N367 C372 1.307 1_554 S
C368 H360 0.930 . S
C368 C369 1.355 . S
C368 C370 1.412 1_556 S
C369 H361 0.930 . S
C369 C368 1.355 . S
C369 C372 1.402 . S
C370 C368 1.412 1_554 S
C370 C371 1.417 . S
C370 C394 1.431 . S
C371 N367 1.350 . S
C371 C370 1.417 . S
C371 C374 1.426 . S
C372 H355 0.930 . S
C372 N367 1.307 1_556 S
C372 C369 1.402 . S
N373 Gd336 2.601 . S
N373 C374 1.359 . S
N373 C377 1.334 . S
C374 C371 1.426 . S
C374 N373 1.359 . S
C374 C378 1.413 . S
C375 H366 0.930 . S
C375 C376 1.359 . S
C375 C377 1.394 . S
C376 C375 1.359 . S
C376 C378 1.391 . S
C376 H379 0.929 . S
C377 H359 0.930 . S
C377 N373 1.334 . S
C377 C375 1.394 . S
C378 C374 1.413 . S
C378 C376 1.391 . S
C378 C393 1.437 . S
H379 C376 0.929 . S
O380 Gd336 2.545 . S
O380 C395 1.258 . S
O381 Gd336 2.606 . S
O381 Gd337 2.362 . S
O381 C392 1.284 1_545 S
O382 Gd337 2.324 . S
O382 C402 1.254 . S
O383 Gd336 2.429 . S
O383 C402 1.268 . S
O384 Gd336 2.545 . S
O384 C392 1.250 1_545 S
O385 Gd336 2.412 . S
O385 C395 1.252 . S
O386 Gd337 2.545 1_656 S
O386 C404 1.258 . S
O387 Gd336 2.362 . S
O387 Gd337 2.606 . S
O387 C403 1.284 . S
O388 Gd336 2.324 1_556 S
O388 C411 1.254 . S
O389 Gd337 2.429 1_556 S
O389 C411 1.268 . S
O390 Gd337 2.552 . S
O390 C403 1.262 . S
O391 Gd337 2.412 1_655 S
O391 C404 1.252 1_554 S
C392 O381 1.284 1_565 S
C392 O384 1.250 1_565 S
C393 H362 0.929 . S
C393 C378 1.437 . S
C393 C394 1.317 . S
C394 H365 0.930 . S
C394 C370 1.431 . S
C394 C393 1.317 . S
C395 Gd336 2.828 . S
C395 O380 1.258 . S
C395 O385 1.252 . S
C395 C396 1.497 . S
C396 C395 1.497 . S
C396 C397 1.395 . S
C396 C398 1.380 . S
C397 C396 1.395 . S
C397 C400 1.398 . S
C397 H412 0.930 . S
C398 C396 1.380 . S
C398 C399 1.391 . S
C398 H413 0.930 . S
C399 C398 1.391 . S
C399 C401 1.387 . S
C400 C397 1.398 . S
C400 C401 1.380 . S
C400 H414 0.930 . S
C401 C399 1.387 . S
C401 C400 1.380 . S
C401 H415 0.930 . S
C402 O382 1.254 . S
C402 O383 1.268 . S
C403 O387 1.284 . S
C403 O390 1.262 . S
C404 Gd337 2.828 1_656 S
C404 O386 1.258 . S
C404 O391 1.252 1_556 S
C404 C405 1.497 . S
C405 C404 1.497 . S
C405 C406 1.395 . S
C405 C407 1.380 1_556 S
C406 C405 1.395 . S
C406 C409 1.398 . S
C406 H416 0.930 . S
C407 C405 1.380 1_554 S
C407 C408 1.391 1_554 S
C407 H417 0.930 . S
C408 C407 1.391 1_556 S
C408 C410 1.387 . S
C409 C406 1.398 . S
C409 C410 1.380 . S
C409 H418 0.930 . S
C410 C408 1.387 . S
C410 C409 1.380 . S
C410 H419 0.930 . S
C411 O388 1.254 . S
C411 O389 1.268 . S
H412 C397 0.930 . S
H413 C398 0.930 . S
H414 C400 0.930 . S
H415 C401 0.930 . S
H416 C406 0.930 . S
H417 C407 0.930 . S
H418 C409 0.930 . S
H419 C410 0.930 . S
Gd420 N451 2.661 . S
Gd420 N457 2.601 . S
Gd420 O464 2.545 . S
Gd420 O465 2.606 . S
Gd420 O467 2.429 . S
Gd420 O468 2.545 . S
Gd420 O469 2.412 . S
Gd420 O471 2.362 . S
Gd420 O472 2.324 . S
Gd420 C479 2.828 . S
Gd421 N430 2.661 . S
Gd421 N434 2.601 . S
Gd421 O465 2.362 . S
Gd421 O466 2.324 . S
Gd421 O470 2.545 . S
Gd421 O471 2.606 . S
Gd421 O473 2.429 . S
Gd421 O474 2.545 . S
Gd421 O475 2.412 . S
Gd421 C488 2.828 . S
C422 C425 1.417 . S
C422 C427 1.431 . S
C422 C428 1.412 . S
C423 C426 1.437 . S
C423 C427 1.317 . S
C423 H442 0.929 . S
C424 C425 1.426 . S
C424 C426 1.413 . S
C424 N434 1.359 . S
C425 C422 1.417 . S
C425 C424 1.426 . S
C425 N430 1.350 . S
C426 C423 1.437 . S
C426 C424 1.413 . S
C426 C436 1.391 . S
C427 C422 1.431 . S
C427 C423 1.317 . S
C427 H438 0.930 . S
C428 C422 1.412 . S
C428 C429 1.355 . S
C428 H440 0.930 . S
C429 C428 1.355 . S
C429 C431 1.402 . S
C429 H441 0.930 . S
N430 Gd421 2.661 . S
N430 C425 1.350 . S
N430 C431 1.307 . S
C431 C429 1.402 . S
C431 N430 1.307 . S
C431 H432 0.930 . S
H432 C431 0.930 . S
C433 N434 1.334 . S
C433 C435 1.394 . S
C433 H437 0.930 . S
N434 Gd421 2.601 . S
N434 C424 1.359 . S
N434 C433 1.334 . S
C435 C433 1.394 . S
C435 C436 1.359 . S
C435 H447 0.930 . S
C436 C426 1.391 . S
C436 C435 1.359 . S
C436 H448 0.929 . S
H437 C433 0.930 . S
H438 C427 0.930 . S
H439 C456 0.930 . S
H440 C428 0.930 . S
H441 C429 0.930 . S
H442 C423 0.929 . S
H443 C461 0.930 . S
H444 C452 0.930 . S
H445 C453 0.930 . S
H446 C477 0.929 . S
H447 C435 0.930 . S
H448 C436 0.929 . S
H449 C478 0.930 . S
H450 C459 0.930 . S
N451 Gd420 2.661 . S
N451 C455 1.350 . S
N451 C456 1.307 . S
C452 H444 0.930 . S
C452 C453 1.355 . S
C452 C454 1.412 . S
C453 H445 0.930 . S
C453 C452 1.355 . S
C453 C456 1.402 . S
C454 C452 1.412 . S
C454 C455 1.417 . S
C454 C478 1.431 . S
C455 N451 1.350 . S
C455 C454 1.417 . S
C455 C458 1.426 . S
C456 H439 0.930 . S
C456 N451 1.307 . S
C456 C453 1.402 . S
N457 Gd420 2.601 . S
N457 C458 1.359 . S
N457 C461 1.334 . S
C458 C455 1.426 . S
C458 N457 1.359 . S
C458 C462 1.413 . S
C459 H450 0.930 . S
C459 C460 1.359 . S
C459 C461 1.394 . S
C460 C459 1.359 . S
C460 C462 1.391 . S
C460 H463 0.929 . S
C461 H443 0.930 . S
C461 N457 1.334 . S
C461 C459 1.394 . S
C462 C458 1.413 . S
C462 C460 1.391 . S
C462 C477 1.437 . S
H463 C460 0.929 . S
O464 Gd420 2.545 . S
O464 C479 1.258 . S
O465 Gd420 2.606 . S
O465 Gd421 2.362 . S
O465 C476 1.284 . S
O466 Gd421 2.324 . S
O466 C486 1.254 . S
O467 Gd420 2.429 . S
O467 C486 1.268 . S
O468 Gd420 2.545 . S
O468 C476 1.250 . S
O469 Gd420 2.412 . S
O469 C479 1.252 . S
O470 Gd421 2.545 . S
O470 C488 1.258 . S
O471 Gd420 2.362 . S
O471 Gd421 2.606 . S
O471 C487 1.284 . S
O472 Gd420 2.324 . S
O472 C495 1.254 . S
O473 Gd421 2.429 . S
O473 C495 1.268 . S
O474 Gd421 2.545 . S
O474 C487 1.250 . S
O475 Gd421 2.412 . S
O475 C488 1.252 . S
C476 O465 1.284 . S
C476 O468 1.250 . S
C477 H446 0.929 . S
C477 C462 1.437 . S
C477 C478 1.317 . S
C478 H449 0.930 . S
C478 C454 1.431 . S
C478 C477 1.317 . S
C479 Gd420 2.828 . S
C479 O464 1.258 . S
C479 O469 1.252 . S
C479 C480 1.497 . S
C480 C479 1.497 . S
C480 C481 1.395 . S
C480 C482 1.380 . S
C481 C480 1.395 . S
C481 C484 1.398 . S
C481 H496 0.930 . S
C482 C480 1.380 . S
C482 C483 1.391 . S
C482 H497 0.930 . S
C483 C482 1.391 . S
C483 C485 1.387 . S
C484 C481 1.398 . S
C484 C485 1.380 . S
C484 H498 0.930 . S
C485 C483 1.387 . S
C485 C484 1.380 . S
C485 H499 0.930 . S
C486 O466 1.254 . S
C486 O467 1.268 . S
C487 O471 1.284 . S
C487 O474 1.250 . S
C488 Gd421 2.828 . S
C488 O470 1.258 . S
C488 O475 1.252 . S
C488 C489 1.497 . S
C489 C488 1.497 . S
C489 C490 1.395 . S
C489 C491 1.380 . S
C490 C489 1.395 . S
C490 C493 1.398 . S
C490 H500 0.930 . S
C491 C489 1.380 . S
C491 C492 1.391 . S
C491 H501 0.930 . S
C492 C491 1.391 . S
C492 C494 1.387 . S
C493 C490 1.398 . S
C493 C494 1.380 . S
C493 H502 0.930 . S
C494 C492 1.387 . S
C494 C493 1.380 . S
C494 H503 0.930 . S
C495 O472 1.254 . S
C495 O473 1.268 . S
H496 C481 0.930 . S
H497 C482 0.930 . S
H498 C484 0.930 . S
H499 C485 0.930 . S
H500 C490 0.930 . S
H501 C491 0.930 . S
H502 C493 0.930 . S
H503 C494 0.930 . S
Gd504 N535 2.661 1_545 S
Gd504 N541 2.623 . S
Gd504 O548 2.545 . S
Gd504 O549 2.606 . S
Gd504 O551 2.429 . S
Gd504 O552 2.545 . S
Gd504 O553 2.412 . S
Gd504 O555 2.362 . S
Gd504 O556 2.324 . S
Gd504 C563 2.828 . S
Gd505 N514 2.661 . S
Gd505 N518 2.601 . S
Gd505 O549 2.362 . S
Gd505 O550 2.324 . S
Gd505 O554 2.545 . S
Gd505 O555 2.606 . S
Gd505 O557 2.429 . S
Gd505 O558 2.545 1_545 S
Gd505 O559 2.412 . S
Gd505 C572 2.828 . S
C506 C509 1.417 . S
C506 C511 1.431 . S
C506 C512 1.412 . S
C507 C510 1.437 . S
C507 C511 1.317 . S
C507 H526 0.929 . S
C508 C509 1.426 . S
C508 C510 1.413 . S
C508 N518 1.359 . S
C509 C506 1.417 . S
C509 C508 1.426 . S
C509 N514 1.350 . S
C510 C507 1.437 . S
C510 C508 1.413 . S
C510 C520 1.391 . S
C511 C506 1.431 . S
C511 C507 1.317 . S
C511 H522 0.930 . S
C512 C506 1.412 . S
C512 C513 1.355 . S
C512 H524 0.930 . S
C513 C512 1.355 . S
C513 C515 1.402 . S
C513 H525 0.930 . S
N514 Gd505 2.661 . S
N514 C509 1.350 . S
N514 C515 1.307 . S
C515 C513 1.402 . S
C515 N514 1.307 . S
C515 H516 0.930 . S
H516 C515 0.930 . S
C517 N518 1.334 . S
C517 C519 1.394 . S
C517 H521 0.930 . S
N518 Gd505 2.601 . S
N518 C508 1.359 . S
N518 C517 1.334 . S
C519 C517 1.394 . S
C519 C520 1.359 . S
C519 H531 0.930 . S
C520 C510 1.391 . S
C520 C519 1.359 . S
C520 H532 0.929 . S
H521 C517 0.930 . S
H522 C511 0.930 . S
H523 C540 0.930 . S
H524 C512 0.930 . S
H525 C513 0.930 . S
H526 C507 0.929 . S
H527 C545 0.930 . S
H528 C536 0.930 . S
H529 C537 0.930 . S
H530 C561 0.929 . S
H531 C519 0.930 . S
H532 C520 0.929 . S
H533 C562 0.930 . S
H534 C543 0.930 1_545 S
N535 Gd504 2.661 1_565 S
N535 C539 1.350 . S
N535 C540 1.307 . S
C536 H528 0.930 . S
C536 C537 1.355 . S
C536 C538 1.412 . S
C537 H529 0.930 . S
C537 C536 1.355 . S
C537 C540 1.402 . S
C538 C536 1.412 . S
C538 C539 1.417 . S
C538 C562 1.431 . S
C539 N535 1.350 . S
C539 C538 1.417 . S
C539 C542 1.426 . S
C540 H523 0.930 . S
C540 N535 1.307 . S
C540 C537 1.402 . S
N541 Gd504 2.623 . S
N541 C542 1.337 1_545 S
N541 C545 1.338 . S
C542 C539 1.426 . S
C542 N541 1.337 1_565 S
C542 C546 1.413 . S
C543 H534 0.930 1_565 S
C543 C544 1.359 . S
C543 C545 1.394 1_565 S
C544 C543 1.359 . S
C544 C546 1.391 . S
C544 H547 0.929 . S
C545 H527 0.930 . S
C545 N541 1.338 . S
C545 C543 1.394 1_545 S
C546 C542 1.413 . S
C546 C544 1.391 . S
C546 C561 1.437 . S
H547 C544 0.929 . S
O548 Gd504 2.545 . S
O548 C563 1.258 . S
O549 Gd504 2.606 . S
O549 Gd505 2.362 . S
O549 C560 1.284 . S
O550 Gd505 2.324 . S
O550 C570 1.254 . S
O551 Gd504 2.429 . S
O551 C570 1.268 . S
O552 Gd504 2.545 . S
O552 C560 1.250 . S
O553 Gd504 2.412 . S
O553 C563 1.252 . S
O554 Gd505 2.545 . S
O554 C572 1.258 . S
O555 Gd504 2.362 . S
O555 Gd505 2.606 . S
O555 C571 1.284 1_545 S
O556 Gd504 2.324 . S
O556 C579 1.254 . S
O557 Gd505 2.429 . S
O557 C579 1.268 . S
O558 Gd505 2.545 1_565 S
O558 C571 1.250 . S
O559 Gd505 2.412 . S
O559 C572 1.252 . S
C560 O549 1.284 . S
C560 O552 1.250 . S
C561 H530 0.929 . S
C561 C546 1.437 . S
C561 C562 1.317 . S
C562 H533 0.930 . S
C562 C538 1.431 . S
C562 C561 1.317 . S
C563 Gd504 2.828 . S
C563 O548 1.258 . S
C563 O553 1.252 . S
C563 C564 1.497 . S
C564 C563 1.497 . S
C564 C565 1.395 . S
C564 C566 1.380 . S
C565 C564 1.395 . S
C565 C568 1.398 . S
C565 H580 0.930 . S
C566 C564 1.380 . S
C566 C567 1.391 . S
C566 H581 0.930 . S
C567 C566 1.391 . S
C567 C569 1.387 . S
C568 C565 1.398 . S
C568 C569 1.380 . S
C568 H582 0.930 . S
C569 C567 1.387 . S
C569 C568 1.380 . S
C569 H583 0.930 . S
C570 O550 1.254 . S
C570 O551 1.268 . S
C571 O555 1.284 1_565 S
C571 O558 1.250 . S
C572 Gd505 2.828 . S
C572 O554 1.258 . S
C572 O559 1.252 . S
C572 C573 1.497 1_545 S
C573 C572 1.497 1_565 S
C573 C574 1.395 . S
C573 C575 1.380 . S
C574 C573 1.395 . S
C574 C577 1.398 . S
C574 H584 0.930 1_565 S
C575 C573 1.380 . S
C575 C576 1.391 . S
C575 H585 0.930 . S
C576 C575 1.391 . S
C576 C578 1.387 . S
C577 C574 1.398 . S
C577 C578 1.380 . S
C577 H586 0.930 . S
C578 C576 1.387 . S
C578 C577 1.380 . S
C578 H587 0.930 . S
C579 O556 1.254 . S
C579 O557 1.268 . S
H580 C565 0.930 . S
H581 C566 0.930 . S
H582 C568 0.930 . S
H583 C569 0.930 . S
H584 C574 0.930 1_545 S
H585 C575 0.930 . S
H586 C577 0.930 . S
H587 C578 0.930 . S
Gd588 N619 2.661 . S
Gd588 N625 2.601 . S
Gd588 O632 2.545 . S
Gd588 O633 2.606 . S
Gd588 O635 2.429 . S
Gd588 O636 2.545 . S
Gd588 O637 2.412 . S
Gd588 O639 2.362 . S
Gd588 O640 2.324 . S
Gd588 C647 2.828 . S
Gd589 N598 2.661 . S
Gd589 N602 2.601 . S
Gd589 O633 2.362 . S
Gd589 O634 2.324 . S
Gd589 O638 2.545 . S
Gd589 O639 2.606 . S
Gd589 O641 2.429 . S
Gd589 O642 2.545 . S
Gd589 O643 2.412 . S
Gd589 C656 2.828 . S
C590 C593 1.417 . S
C590 C595 1.431 . S
C590 C596 1.412 . S
C591 C594 1.437 . S
C591 C595 1.317 . S
C591 H610 0.929 . S
C592 C593 1.426 . S
C592 C594 1.413 . S
C592 N602 1.359 . S
C593 C590 1.417 . S
C593 C592 1.426 . S
C593 N598 1.350 . S
C594 C591 1.437 . S
C594 C592 1.413 . S
C594 C604 1.391 . S
C595 C590 1.431 . S
C595 C591 1.317 . S
C595 H606 0.930 . S
C596 C590 1.412 . S
C596 C597 1.355 . S
C596 H608 0.930 . S
C597 C596 1.355 . S
C597 C599 1.402 . S
C597 H609 0.930 . S
N598 Gd589 2.661 . S
N598 C593 1.350 . S
N598 C599 1.307 . S
C599 C597 1.402 . S
C599 N598 1.307 . S
C599 H600 0.930 . S
H600 C599 0.930 . S
C601 N602 1.334 . S
C601 C603 1.394 . S
C601 H605 0.930 . S
N602 Gd589 2.601 . S
N602 C592 1.359 . S
N602 C601 1.334 . S
C603 C601 1.394 . S
C603 C604 1.359 . S
C603 H615 0.930 . S
C604 C594 1.391 . S
C604 C603 1.359 . S
C604 H616 0.929 . S
H605 C601 0.930 . S
H606 C595 0.930 . S
H607 C624 0.930 . S
H608 C596 0.930 . S
H609 C597 0.930 . S
H610 C591 0.929 . S
H611 C629 0.930 . S
H612 C620 0.930 . S
H613 C621 0.930 . S
H614 C645 0.929 . S
H615 C603 0.930 . S
H616 C604 0.929 . S
H617 C646 0.930 . S
H618 C627 0.930 . S
N619 Gd588 2.661 . S
N619 C623 1.350 . S
N619 C624 1.307 . S
C620 H612 0.930 . S
C620 C621 1.355 . S
C620 C622 1.412 . S
C621 H613 0.930 . S
C621 C620 1.355 . S
C621 C624 1.402 . S
C622 C620 1.412 . S
C622 C623 1.417 . S
C622 C646 1.431 . S
C623 N619 1.350 . S
C623 C622 1.417 . S
C623 C626 1.426 . S
C624 H607 0.930 . S
C624 N619 1.307 . S
C624 C621 1.402 . S
N625 Gd588 2.601 . S
N625 C626 1.359 . S
N625 C629 1.334 . S
C626 C623 1.426 . S
C626 N625 1.359 . S
C626 C630 1.413 . S
C627 H618 0.930 . S
C627 C628 1.359 . S
C627 C629 1.394 . S
C628 C627 1.359 . S
C628 C630 1.391 . S
C628 H631 0.929 . S
C629 H611 0.930 . S
C629 N625 1.334 . S
C629 C627 1.394 . S
C630 C626 1.413 . S
C630 C628 1.391 . S
C630 C645 1.437 . S
H631 C628 0.929 . S
O632 Gd588 2.545 . S
O632 C647 1.258 . S
O633 Gd588 2.606 . S
O633 Gd589 2.362 . S
O633 C644 1.284 . S
O634 Gd589 2.324 . S
O634 C654 1.254 . S
O635 Gd588 2.429 . S
O635 C654 1.268 . S
O636 Gd588 2.545 . S
O636 C644 1.250 . S
O637 Gd588 2.412 . S
O637 C647 1.252 . S
O638 Gd589 2.545 . S
O638 C656 1.258 . S
O639 Gd588 2.362 . S
O639 Gd589 2.606 . S
O639 C655 1.284 . S
O640 Gd588 2.324 . S
O640 C663 1.254 . S
O641 Gd589 2.429 . S
O641 C663 1.268 . S
O642 Gd589 2.545 . S
O642 C655 1.250 . S
O643 Gd589 2.412 . S
O643 C656 1.252 . S
C644 O633 1.284 . S
C644 O636 1.250 . S
C645 H614 0.929 . S
C645 C630 1.437 . S
C645 C646 1.317 . S
C646 H617 0.930 . S
C646 C622 1.431 . S
C646 C645 1.317 . S
C647 Gd588 2.828 . S
C647 O632 1.258 . S
C647 O637 1.252 . S
C647 C648 1.497 . S
C648 C647 1.497 . S
C648 C649 1.395 . S
C648 C650 1.380 . S
C649 C648 1.395 . S
C649 C652 1.398 . S
C649 H664 0.930 . S
C650 C648 1.380 . S
C650 C651 1.391 . S
C650 H665 0.930 . S
C651 C650 1.391 . S
C651 C653 1.387 . S
C652 C649 1.398 . S
C652 C653 1.380 . S
C652 H666 0.930 . S
C653 C651 1.387 . S
C653 C652 1.380 . S
C653 H667 0.930 . S
C654 O634 1.254 . S
C654 O635 1.268 . S
C655 O639 1.284 . S
C655 O642 1.250 . S
C656 Gd589 2.828 . S
C656 O638 1.258 . S
C656 O643 1.252 . S
C656 C657 1.497 . S
C657 C656 1.497 . S
C657 C658 1.395 . S
C657 C659 1.380 . S
C658 C657 1.395 . S
C658 C661 1.398 . S
C658 H668 0.930 . S
C659 C657 1.380 . S
C659 C660 1.391 . S
C659 H669 0.930 . S
C660 C659 1.391 . S
C660 C662 1.387 . S
C661 C658 1.398 . S
C661 C662 1.380 . S
C661 H670 0.930 . S
C662 C660 1.387 . S
C662 C661 1.380 . S
C662 H671 0.930 . S
C663 O640 1.254 . S
C663 O641 1.268 . S
H664 C649 0.930 . S
H665 C650 0.930 . S
H666 C652 0.930 . S
H667 C653 0.930 . S
H668 C658 0.930 . S
H669 C659 0.930 . S
H670 C661 0.930 . S
H671 C662 0.930 . S
Gd672 N703 2.661 . S
Gd672 N709 2.601 . S
Gd672 O716 2.545 . S
Gd672 O717 2.606 1_565 S
Gd672 O719 2.429 1_565 S
Gd672 O720 2.545 . S
Gd672 O721 2.412 . S
Gd672 O723 2.362 1_565 S
Gd672 O724 2.324 . S
Gd672 C731 2.828 . S
Gd673 N682 2.661 . S
Gd673 N686 2.601 . S
Gd673 O717 2.362 . S
Gd673 O718 2.324 . S
Gd673 O722 2.545 . S
Gd673 O723 2.606 . S
Gd673 O725 2.429 . S
Gd673 O726 2.545 . S
Gd673 O727 2.412 . S
Gd673 C740 2.828 . S
C674 C677 1.417 . S
C674 C679 1.431 . S
C674 C680 1.412 . S
C675 C678 1.437 . S
C675 C679 1.317 . S
C675 H694 0.929 . S
C676 C677 1.426 . S
C676 C678 1.413 . S
C676 N686 1.359 . S
C677 C674 1.417 . S
C677 C676 1.426 . S
C677 N682 1.350 . S
C678 C675 1.437 . S
C678 C676 1.413 . S
C678 C688 1.391 . S
C679 C674 1.431 . S
C679 C675 1.317 . S
C679 H690 0.930 . S
C680 C674 1.412 . S
C680 C681 1.355 . S
C680 H692 0.930 . S
C681 C680 1.355 . S
C681 C683 1.402 . S
C681 H693 0.930 . S
N682 Gd673 2.661 . S
N682 C677 1.350 . S
N682 C683 1.307 . S
C683 C681 1.402 . S
C683 N682 1.307 . S
C683 H684 0.930 . S
H684 C683 0.930 . S
C685 N686 1.334 . S
C685 C687 1.394 . S
C685 H689 0.930 . S
N686 Gd673 2.601 . S
N686 C676 1.359 . S
N686 C685 1.334 . S
C687 C685 1.394 . S
C687 C688 1.359 . S
C687 H699 0.930 1_455 S
C688 C678 1.391 . S
C688 C687 1.359 . S
C688 H700 0.929 . S
H689 C685 0.930 . S
H690 C679 0.930 . S
H691 C708 0.930 . S
H692 C680 0.930 . S
H693 C681 0.930 . S
H694 C675 0.929 . S
H695 C713 0.930 . S
H696 C704 0.930 1_655 S
H697 C705 0.930 . S
H698 C729 0.929 . S
H699 C687 0.930 1_655 S
H700 C688 0.929 . S
H701 C730 0.930 . S
H702 C711 0.930 . S
N703 Gd672 2.661 . S
N703 C707 1.350 . S
N703 C708 1.307 . S
C704 H696 0.930 1_455 S
C704 C705 1.355 1_455 S
C704 C706 1.412 . S
C705 H697 0.930 . S
C705 C704 1.355 1_655 S
C705 C708 1.402 1_655 S
C706 C704 1.412 . S
C706 C707 1.417 . S
C706 C730 1.431 . S
C707 N703 1.350 . S
C707 C706 1.417 . S
C707 C710 1.426 . S
C708 H691 0.930 . S
C708 N703 1.307 . S
C708 C705 1.402 1_455 S
N709 Gd672 2.601 . S
N709 C710 1.359 . S
N709 C713 1.334 . S
C710 C707 1.426 . S
C710 N709 1.359 . S
C710 C714 1.413 . S
C711 H702 0.930 . S
C711 C712 1.359 . S
C711 C713 1.394 . S
C712 C711 1.359 . S
C712 C714 1.391 . S
C712 H715 0.929 . S
C713 H695 0.930 . S
C713 N709 1.334 . S
C713 C711 1.394 . S
C714 C710 1.413 . S
C714 C712 1.391 . S
C714 C729 1.437 . S
H715 C712 0.929 . S
O716 Gd672 2.545 . S
O716 C731 1.258 . S
O717 Gd672 2.606 1_545 S
O717 Gd673 2.362 . S
O717 C728 1.284 . S
O718 Gd673 2.324 . S
O718 C738 1.254 . S
O719 Gd672 2.429 1_545 S
O719 C738 1.268 . S
O720 Gd672 2.545 . S
O720 C728 1.250 1_565 S
O721 Gd672 2.412 . S
O721 C731 1.252 . S
O722 Gd673 2.545 . S
O722 C740 1.258 . S
O723 Gd672 2.362 1_545 S
O723 Gd673 2.606 . S
O723 C739 1.284 . S
O724 Gd672 2.324 . S
O724 C747 1.254 1_565 S
O725 Gd673 2.429 . S
O725 C747 1.268 . S
O726 Gd673 2.545 . S
O726 C739 1.250 . S
O727 Gd673 2.412 . S
O727 C740 1.252 . S
C728 O717 1.284 . S
C728 O720 1.250 1_545 S
C729 H698 0.929 . S
C729 C714 1.437 . S
C729 C730 1.317 . S
C730 H701 0.930 . S
C730 C706 1.431 . S
C730 C729 1.317 . S
C731 Gd672 2.828 . S
C731 O716 1.258 . S
C731 O721 1.252 . S
C731 C732 1.497 . S
C732 C731 1.497 . S
C732 C733 1.395 . S
C732 C734 1.380 . S
C733 C732 1.395 . S
C733 C736 1.398 . S
C733 H748 0.930 . S
C734 C732 1.380 . S
C734 C735 1.391 . S
C734 H749 0.930 . S
C735 C734 1.391 . S
C735 C737 1.387 . S
C736 C733 1.398 . S
C736 C737 1.380 . S
C736 H750 0.930 . S
C737 C735 1.387 . S
C737 C736 1.380 . S
C737 H751 0.930 . S
C738 O718 1.254 . S
C738 O719 1.268 . S
C739 O723 1.284 . S
C739 O726 1.250 . S
C740 Gd673 2.828 . S
C740 O722 1.258 . S
C740 O727 1.252 . S
C740 C741 1.497 . S
C741 C740 1.497 . S
C741 C742 1.395 . S
C741 C743 1.380 . S
C742 C741 1.395 . S
C742 C745 1.398 . S
C742 H752 0.930 . S
C743 C741 1.380 . S
C743 C744 1.391 . S
C743 H753 0.930 . S
C744 C743 1.391 . S
C744 C746 1.387 . S
C745 C742 1.398 . S
C745 C746 1.380 . S
C745 H754 0.930 . S
C746 C744 1.387 . S
C746 C745 1.380 . S
C746 H755 0.930 . S
C747 O724 1.254 1_545 S
C747 O725 1.268 . S
H748 C733 0.930 . S
H749 C734 0.930 . S
H750 C736 0.930 . S
H751 C737 0.930 . S
H752 C742 0.930 . S
H753 C743 0.930 . S
H754 C745 0.930 . S
H755 C746 0.930 . S
Gd756 N787 2.661 . S
Gd756 N793 2.601 . S
Gd756 O800 2.545 . S
Gd756 O801 2.606 . S
Gd756 O803 2.429 . S
Gd756 O804 2.545 . S
Gd756 O805 2.412 . S
Gd756 O807 2.362 . S
Gd756 O808 2.324 . S
Gd756 C815 2.828 . S
Gd757 N766 2.661 . S
Gd757 N770 2.601 . S
Gd757 O801 2.362 . S
Gd757 O802 2.324 . S
Gd757 O806 2.545 . S
Gd757 O807 2.606 . S
Gd757 O809 2.429 . S
Gd757 O810 2.545 . S
Gd757 O811 2.412 . S
Gd757 C824 2.828 . S
C758 C761 1.417 . S
C758 C763 1.431 . S
C758 C764 1.412 . S
C759 C762 1.437 . S
C759 C763 1.317 . S
C759 H778 0.929 . S
C760 C761 1.426 . S
C760 C762 1.413 . S
C760 N770 1.359 . S
C761 C758 1.417 . S
C761 C760 1.426 . S
C761 N766 1.350 . S
C762 C759 1.437 . S
C762 C760 1.413 . S
C762 C772 1.391 . S
C763 C758 1.431 . S
C763 C759 1.317 . S
C763 H774 0.930 . S
C764 C758 1.412 . S
C764 C765 1.355 . S
C764 H776 0.930 . S
C765 C764 1.355 . S
C765 C767 1.402 . S
C765 H777 0.930 . S
N766 Gd757 2.661 . S
N766 C761 1.350 . S
N766 C767 1.307 . S
C767 C765 1.402 . S
C767 N766 1.307 . S
C767 H768 0.930 . S
H768 C767 0.930 . S
C769 N770 1.334 . S
C769 C771 1.394 . S
C769 H773 0.930 . S
N770 Gd757 2.601 . S
N770 C760 1.359 . S
N770 C769 1.334 . S
C771 C769 1.394 . S
C771 C772 1.359 . S
C771 H783 0.930 . S
C772 C762 1.391 . S
C772 C771 1.359 . S
C772 H784 0.929 . S
H773 C769 0.930 . S
H774 C763 0.930 . S
H775 C792 0.930 . S
H776 C764 0.930 . S
H777 C765 0.930 . S
H778 C759 0.929 . S
H779 C797 0.930 . S
H780 C788 0.930 . S
H781 C789 0.930 . S
H782 C813 0.929 . S
H783 C771 0.930 . S
H784 C772 0.929 . S
H785 C814 0.930 . S
H786 C795 0.930 . S
N787 Gd756 2.661 . S
N787 C791 1.350 . S
N787 C792 1.307 . S
C788 H780 0.930 . S
C788 C789 1.355 . S
C788 C790 1.412 . S
C789 H781 0.930 . S
C789 C788 1.355 . S
C789 C792 1.402 . S
C790 C788 1.412 . S
C790 C791 1.417 . S
C790 C814 1.431 . S
C791 N787 1.350 . S
C791 C790 1.417 . S
C791 C794 1.426 . S
C792 H775 0.930 . S
C792 N787 1.307 . S
C792 C789 1.402 . S
N793 Gd756 2.601 . S
N793 C794 1.359 . S
N793 C797 1.334 . S
C794 C791 1.426 . S
C794 N793 1.359 . S
C794 C798 1.413 . S
C795 H786 0.930 . S
C795 C796 1.359 . S
C795 C797 1.394 . S
C796 C795 1.359 . S
C796 C798 1.391 . S
C796 H799 0.929 . S
C797 H779 0.930 . S
C797 N793 1.334 . S
C797 C795 1.394 . S
C798 C794 1.413 . S
C798 C796 1.391 . S
C798 C813 1.437 . S
H799 C796 0.929 . S
O800 Gd756 2.545 . S
O800 C815 1.258 . S
O801 Gd756 2.606 . S
O801 Gd757 2.362 . S
O801 C812 1.284 . S
O802 Gd757 2.324 . S
O802 C822 1.254 . S
O803 Gd756 2.429 . S
O803 C822 1.268 . S
O804 Gd756 2.545 . S
O804 C812 1.250 . S
O805 Gd756 2.412 . S
O805 C815 1.252 . S
O806 Gd757 2.545 . S
O806 C824 1.258 . S
O807 Gd756 2.362 . S
O807 Gd757 2.606 . S
O807 C823 1.284 . S
O808 Gd756 2.324 . S
O808 C831 1.254 . S
O809 Gd757 2.429 . S
O809 C831 1.268 . S
O810 Gd757 2.545 . S
O810 C823 1.250 . S
O811 Gd757 2.412 . S
O811 C824 1.252 . S
C812 O801 1.284 . S
C812 O804 1.250 . S
C813 H782 0.929 . S
C813 C798 1.437 . S
C813 C814 1.317 . S
C814 H785 0.930 . S
C814 C790 1.431 . S
C814 C813 1.317 . S
C815 Gd756 2.828 . S
C815 O800 1.258 . S
C815 O805 1.252 . S
C815 C816 1.497 . S
C816 C815 1.497 . S
C816 C817 1.395 . S
C816 C818 1.380 . S
C817 C816 1.395 . S
C817 C820 1.398 . S
C817 H832 0.930 . S
C818 C816 1.380 . S
C818 C819 1.391 . S
C818 H833 0.930 . S
C819 C818 1.391 . S
C819 C821 1.387 . S
C820 C817 1.398 . S
C820 C821 1.380 . S
C820 H834 0.930 . S
C821 C819 1.387 . S
C821 C820 1.380 . S
C821 H835 0.930 . S
C822 O802 1.254 . S
C822 O803 1.268 . S
C823 O807 1.284 . S
C823 O810 1.250 . S
C824 Gd757 2.828 . S
C824 O806 1.258 . S
C824 O811 1.252 . S
C824 C825 1.497 . S
C825 C824 1.497 . S
C825 C826 1.395 . S
C825 C827 1.380 . S
C826 C825 1.395 . S
C826 C829 1.398 . S
C826 H836 0.930 . S
C827 C825 1.380 . S
C827 C828 1.391 . S
C827 H837 0.930 . S
C828 C827 1.391 . S
C828 C830 1.387 . S
C829 C826 1.398 . S
C829 C830 1.380 . S
C829 H838 0.930 . S
C830 C828 1.387 . S
C830 C829 1.380 . S
C830 H839 0.930 . S
C831 O808 1.254 . S
C831 O809 1.268 . S
H832 C817 0.930 . S
H833 C818 0.930 . S
H834 C820 0.930 . S
H835 C821 0.930 . S
H836 C826 0.930 . S
H837 C827 0.930 . S
H838 C829 0.930 . S
H839 C830 0.930 . S
Gd840 N871 2.661 . S
Gd840 N877 2.601 . S
Gd840 O884 2.545 . S
Gd840 O885 2.606 1_556 S
Gd840 O887 2.429 1_556 S
Gd840 O888 2.545 . S
Gd840 O889 2.412 . S
Gd840 O891 2.362 1_556 S
Gd840 O892 2.324 . S
Gd840 C899 2.828 . S
Gd841 N850 2.661 . S
Gd841 N854 2.601 . S
Gd841 O885 2.362 . S
Gd841 O886 2.324 . S
Gd841 O890 2.545 1_545 S
Gd841 O891 2.606 . S
Gd841 O893 2.429 1_545 S
Gd841 O894 2.545 . S
Gd841 O895 2.412 . S
Gd841 C908 2.828 . S
C842 C845 1.417 . S
C842 C847 1.431 . S
C842 C848 1.412 . S
C843 C846 1.437 . S
C843 C847 1.317 . S
C843 H862 0.929 . S
C844 C845 1.426 . S
C844 C846 1.413 . S
C844 N854 1.359 . S
C845 C842 1.417 . S
C845 C844 1.426 . S
C845 N850 1.350 . S
C846 C843 1.437 . S
C846 C844 1.413 . S
C846 C856 1.391 1_545 S
C847 C842 1.431 . S
C847 C843 1.317 . S
C847 H858 0.930 . S
C848 C842 1.412 . S
C848 C849 1.355 . S
C848 H860 0.930 . S
C849 C848 1.355 . S
C849 C851 1.402 . S
C849 H861 0.930 . S
N850 Gd841 2.661 . S
N850 C845 1.350 . S
N850 C851 1.307 . S
C851 C849 1.402 . S
C851 N850 1.307 . S
C851 H852 0.930 . S
H852 C851 0.930 . S
C853 N854 1.334 1_565 S
C853 C855 1.394 . S
C853 H857 0.930 . S
N854 Gd841 2.601 . S
N854 C844 1.359 . S
N854 C853 1.334 1_545 S
C855 C853 1.394 . S
C855 C856 1.359 . S
C855 H867 0.930 . S
C856 C846 1.391 1_565 S
C856 C855 1.359 . S
C856 H868 0.929 . S
H857 C853 0.930 . S
H858 C847 0.930 . S
H859 C876 0.930 . S
H860 C848 0.930 . S
H861 C849 0.930 . S
H862 C843 0.929 . S
H863 C881 0.930 . S
H864 C872 0.930 . S
H865 C873 0.930 . S
H866 C897 0.929 . S
H867 C855 0.930 . S
H868 C856 0.929 . S
H869 C898 0.930 . S
H870 C879 0.930 . S
N871 Gd840 2.661 . S
N871 C875 1.350 . S
N871 C876 1.307 1_545 S
C872 H864 0.930 . S
C872 C873 1.355 . S
C872 C874 1.412 1_565 S
C873 H865 0.930 . S
C873 C872 1.355 . S
C873 C876 1.402 . S
C874 C872 1.412 1_545 S
C874 C875 1.417 . S
C874 C898 1.431 . S
C875 N871 1.350 . S
C875 C874 1.417 . S
C875 C878 1.426 . S
C876 H859 0.930 . S
C876 N871 1.307 1_565 S
C876 C873 1.402 . S
N877 Gd840 2.601 . S
N877 C878 1.359 . S
N877 C881 1.334 . S
C878 C875 1.426 . S
C878 N877 1.359 . S
C878 C882 1.413 . S
C879 H870 0.930 . S
C879 C880 1.359 . S
C879 C881 1.394 . S
C880 C879 1.359 . S
C880 C882 1.391 . S
C880 H883 0.929 . S
C881 H863 0.930 . S
C881 N877 1.334 . S
C881 C879 1.394 . S
C882 C878 1.413 . S
C882 C880 1.391 . S
C882 C897 1.437 . S
H883 C880 0.929 . S
O884 Gd840 2.545 . S
O884 C899 1.258 . S
O885 Gd840 2.606 1_554 S
O885 Gd841 2.362 . S
O885 C896 1.284 . S
O886 Gd841 2.324 . S
O886 C906 1.254 . S
O887 Gd840 2.429 1_554 S
O887 C906 1.268 . S
O888 Gd840 2.545 . S
O888 C896 1.250 1_556 S
O889 Gd840 2.412 . S
O889 C899 1.252 . S
O890 Gd841 2.545 1_565 S
O890 C908 1.258 1_565 S
O891 Gd840 2.362 1_554 S
O891 Gd841 2.606 . S
O891 C907 1.284 . S
O892 Gd840 2.324 . S
O892 C915 1.254 1_545 S
O893 Gd841 2.429 1_565 S
O893 C915 1.268 1_554 S
O894 Gd841 2.545 . S
O894 C907 1.250 . S
O895 Gd841 2.412 . S
O895 C908 1.252 . S
C896 O885 1.284 . S
C896 O888 1.250 1_554 S
C897 H866 0.929 . S
C897 C882 1.437 . S
C897 C898 1.317 . S
C898 H869 0.930 . S
C898 C874 1.431 . S
C898 C897 1.317 . S
C899 Gd840 2.828 . S
C899 O884 1.258 . S
C899 O889 1.252 . S
C899 C900 1.497 . S
C900 C899 1.497 . S
C900 C901 1.395 . S
C900 C902 1.380 . S
C901 C900 1.395 . S
C901 C904 1.398 . S
C901 H916 0.930 . S
C902 C900 1.380 . S
C902 C903 1.391 . S
C902 H917 0.930 . S
C903 C902 1.391 . S
C903 C905 1.387 . S
C904 C901 1.398 . S
C904 C905 1.380 . S
C904 H918 0.930 . S
C905 C903 1.387 . S
C905 C904 1.380 . S
C905 H919 0.930 . S
C906 O886 1.254 . S
C906 O887 1.268 . S
C907 O891 1.284 . S
C907 O894 1.250 . S
C908 Gd841 2.828 . S
C908 O890 1.258 1_545 S
C908 O895 1.252 . S
C908 C909 1.497 1_545 S
C909 C908 1.497 1_565 S
C909 C910 1.395 . S
C909 C911 1.380 1_565 S
C910 C909 1.395 . S
C910 C913 1.398 . S
C910 H920 0.930 . S
C911 C909 1.380 1_545 S
C911 C912 1.391 . S
C911 H921 0.930 . S
C912 C911 1.391 . S
C912 C914 1.387 1_545 S
C913 C910 1.398 . S
C913 C914 1.380 . S
C913 H922 0.930 . S
C914 C912 1.387 1_565 S
C914 C913 1.380 . S
C914 H923 0.930 . S
C915 O892 1.254 1_565 S
C915 O893 1.268 1_556 S
H916 C901 0.930 . S
H917 C902 0.930 . S
H918 C904 0.930 . S
H919 C905 0.930 . S
H920 C910 0.930 . S
H921 C911 0.930 . S
H922 C913 0.930 . S
H923 C914 0.930 . S
Gd924 N955 2.661 . S
Gd924 N961 2.601 . S
Gd924 O968 2.545 . S
Gd924 O969 2.606 . S
Gd924 O971 2.429 . S
Gd924 O972 2.545 . S
Gd924 O973 2.412 . S
Gd924 O975 2.362 . S
Gd924 O976 2.324 . S
Gd924 C983 2.828 . S
Gd925 N934 2.661 . S
Gd925 N938 2.601 . S
Gd925 O969 2.362 . S
Gd925 O970 2.324 . S
Gd925 O974 2.545 . S
Gd925 O975 2.606 . S
Gd925 O977 2.429 . S
Gd925 O978 2.545 . S
Gd925 O979 2.412 . S
Gd925 C992 2.828 . S
C926 C929 1.417 . S
C926 C931 1.431 . S
C926 C932 1.412 . S
C927 C930 1.437 . S
C927 C931 1.317 . S
C927 H946 0.929 . S
C928 C929 1.426 . S
C928 C930 1.413 . S
C928 N938 1.359 . S
C929 C926 1.417 . S
C929 C928 1.426 . S
C929 N934 1.350 . S
C930 C927 1.437 . S
C930 C928 1.413 . S
C930 C940 1.391 . S
C931 C926 1.431 . S
C931 C927 1.317 . S
C931 H942 0.930 . S
C932 C926 1.412 . S
C932 C933 1.355 . S
C932 H944 0.930 . S
C933 C932 1.355 . S
C933 C935 1.402 . S
C933 H945 0.930 . S
N934 Gd925 2.661 . S
N934 C929 1.350 . S
N934 C935 1.307 . S
C935 C933 1.402 . S
C935 N934 1.307 . S
C935 H936 0.930 . S
H936 C935 0.930 . S
C937 N938 1.334 . S
C937 C939 1.394 . S
C937 H941 0.930 . S
N938 Gd925 2.601 . S
N938 C928 1.359 . S
N938 C937 1.334 . S
C939 C937 1.394 . S
C939 C940 1.359 . S
C939 H951 0.930 . S
C940 C930 1.391 . S
C940 C939 1.359 . S
C940 H952 0.929 . S
H941 C937 0.930 . S
H942 C931 0.930 . S
H943 C960 0.930 . S
H944 C932 0.930 . S
H945 C933 0.930 . S
H946 C927 0.929 . S
H947 C965 0.930 . S
H948 C956 0.930 . S
H949 C957 0.930 . S
H950 C981 0.929 . S
H951 C939 0.930 . S
H952 C940 0.929 . S
H953 C982 0.930 . S
H954 C963 0.930 . S
N955 Gd924 2.661 . S
N955 C959 1.350 . S
N955 C960 1.307 . S
C956 H948 0.930 . S
C956 C957 1.355 . S
C956 C958 1.412 . S
C957 H949 0.930 . S
C957 C956 1.355 . S
C957 C960 1.402 . S
C958 C956 1.412 . S
C958 C959 1.417 . S
C958 C982 1.431 . S
C959 N955 1.350 . S
C959 C958 1.417 . S
C959 C962 1.426 . S
C960 H943 0.930 . S
C960 N955 1.307 . S
C960 C957 1.402 . S
N961 Gd924 2.601 . S
N961 C962 1.359 . S
N961 C965 1.334 . S
C962 C959 1.426 . S
C962 N961 1.359 . S
C962 C966 1.413 . S
C963 H954 0.930 . S
C963 C964 1.359 . S
C963 C965 1.394 . S
C964 C963 1.359 . S
C964 C966 1.391 . S
C964 H967 0.929 . S
C965 H947 0.930 . S
C965 N961 1.334 . S
C965 C963 1.394 . S
C966 C962 1.413 . S
C966 C964 1.391 . S
C966 C981 1.437 . S
H967 C964 0.929 . S
O968 Gd924 2.545 . S
O968 C983 1.258 . S
O969 Gd924 2.606 . S
O969 Gd925 2.362 . S
O969 C980 1.284 . S
O970 Gd925 2.324 . S
O970 C990 1.254 . S
O971 Gd924 2.429 . S
O971 C990 1.268 . S
O972 Gd924 2.545 . S
O972 C980 1.250 . S
O973 Gd924 2.412 . S
O973 C983 1.252 . S
O974 Gd925 2.545 . S
O974 C992 1.258 . S
O975 Gd924 2.362 . S
O975 Gd925 2.606 . S
O975 C991 1.284 . S
O976 Gd924 2.324 . S
O976 C999 1.254 . S
O977 Gd925 2.429 . S
O977 C999 1.268 . S
O978 Gd925 2.545 . S
O978 C991 1.250 . S
O979 Gd925 2.412 . S
O979 C992 1.252 . S
C980 O969 1.284 . S
C980 O972 1.250 . S
C981 H950 0.929 . S
C981 C966 1.437 . S
C981 C982 1.317 . S
C982 H953 0.930 . S
C982 C958 1.431 . S
C982 C981 1.317 . S
C983 Gd924 2.828 . S
C983 O968 1.258 . S
C983 O973 1.252 . S
C983 C984 1.497 . S
C984 C983 1.497 . S
C984 C985 1.395 . S
C984 C986 1.380 . S
C985 C984 1.395 . S
C985 C988 1.398 . S
C985 H1000 0.930 . S
C986 C984 1.380 . S
C986 C987 1.391 . S
C986 H1001 0.930 . S
C987 C986 1.391 . S
C987 C989 1.387 . S
C988 C985 1.398 . S
C988 C989 1.380 . S
C988 H1002 0.930 . S
C989 C987 1.387 . S
C989 C988 1.380 . S
C989 H1003 0.930 . S
C990 O970 1.254 . S
C990 O971 1.268 . S
C991 O975 1.284 . S
C991 O978 1.250 . S
C992 Gd925 2.828 . S
C992 O974 1.258 . S
C992 O979 1.252 . S
C992 C993 1.497 . S
C993 C992 1.497 . S
C993 C994 1.395 . S
C993 C995 1.380 . S
C994 C993 1.395 . S
C994 C997 1.398 . S
C994 H1004 0.930 . S
C995 C993 1.380 . S
C995 C996 1.391 . S
C995 H1005 0.930 . S
C996 C995 1.391 . S
C996 C998 1.387 . S
C997 C994 1.398 . S
C997 C998 1.380 . S
C997 H1006 0.930 . S
C998 C996 1.387 . S
C998 C997 1.380 . S
C998 H1007 0.930 . S
C999 O976 1.254 . S
C999 O977 1.268 . S
H1000 C985 0.930 . S
H1001 C986 0.930 . S
H1002 C988 0.930 . S
H1003 C989 0.930 . S
H1004 C994 0.930 . S
H1005 C995 0.930 . S
H1006 C997 0.930 . S
H1007 C998 0.930 . S
Gd1008 N1039 2.661 1_554 S
Gd1008 N1045 2.601 1_554 S
Gd1008 O1052 2.545 . S
Gd1008 O1053 2.606 . S
Gd1008 O1055 2.429 . S
Gd1008 O1056 2.545 . S
Gd1008 O1057 2.412 . S
Gd1008 O1059 2.362 1_554 S
Gd1008 O1060 2.324 . S
Gd1008 C1067 2.828 . S
Gd1009 N1018 2.661 . S
Gd1009 N1022 2.601 . S
Gd1009 O1053 2.362 . S
Gd1009 O1054 2.324 . S
Gd1009 O1058 2.545 . S
Gd1009 O1059 2.606 1_554 S
Gd1009 O1061 2.429 . S
Gd1009 O1062 2.545 1_554 S
Gd1009 O1063 2.412 . S
Gd1009 C1076 2.828 . S
C1010 C1013 1.417 . S
C1010 C1015 1.431 . S
C1010 C1016 1.412 . S
C1011 C1014 1.437 . S
C1011 C1015 1.317 . S
C1011 H1030 0.929 . S
C1012 C1013 1.426 . S
C1012 C1014 1.413 . S
C1012 N1022 1.359 . S
C1013 C1010 1.417 . S
C1013 C1012 1.426 . S
C1013 N1018 1.350 . S
C1014 C1011 1.437 . S
C1014 C1012 1.413 . S
C1014 C1024 1.391 . S
C1015 C1010 1.431 . S
C1015 C1011 1.317 . S
C1015 H1026 0.930 . S
C1016 C1010 1.412 . S
C1016 C1017 1.355 . S
C1016 H1028 0.930 . S
C1017 C1016 1.355 . S
C1017 C1019 1.402 . S
C1017 H1029 0.930 . S
N1018 Gd1009 2.661 . S
N1018 C1013 1.350 . S
N1018 C1019 1.307 . S
C1019 C1017 1.402 . S
C1019 N1018 1.307 . S
C1019 H1020 0.930 . S
H1020 C1019 0.930 . S
C1021 N1022 1.334 . S
C1021 C1023 1.394 . S
C1021 H1025 0.930 . S
N1022 Gd1009 2.601 . S
N1022 C1012 1.359 . S
N1022 C1021 1.334 . S
C1023 C1021 1.394 . S
C1023 C1024 1.359 . S
C1023 H1035 0.930 . S
C1024 C1014 1.391 . S
C1024 C1023 1.359 . S
C1024 H1036 0.929 . S
H1025 C1021 0.930 . S
H1026 C1015 0.930 . S
H1027 C1044 0.930 . S
H1028 C1016 0.930 . S
H1029 C1017 0.930 . S
H1030 C1011 0.929 . S
H1031 C1049 0.930 . S
H1032 C1040 0.930 . S
H1033 C1041 0.930 . S
H1034 C1065 0.929 . S
H1035 C1023 0.930 . S
H1036 C1024 0.929 . S
H1037 C1066 0.930 . S
H1038 C1047 0.930 . S
N1039 Gd1008 2.661 1_556 S
N1039 C1043 1.350 . S
N1039 C1044 1.307 . S
C1040 H1032 0.930 . S
C1040 C1041 1.355 . S
C1040 C1042 1.412 . S
C1041 H1033 0.930 . S
C1041 C1040 1.355 . S
C1041 C1044 1.402 . S
C1042 C1040 1.412 . S
C1042 C1043 1.417 . S
C1042 C1066 1.431 . S
C1043 N1039 1.350 . S
C1043 C1042 1.417 . S
C1043 C1046 1.426 . S
C1044 H1027 0.930 . S
C1044 N1039 1.307 . S
C1044 C1041 1.402 . S
N1045 Gd1008 2.601 1_556 S
N1045 C1046 1.359 . S
N1045 C1049 1.334 . S
C1046 C1043 1.426 . S
C1046 N1045 1.359 . S
C1046 C1050 1.413 . S
C1047 H1038 0.930 . S
C1047 C1048 1.359 . S
C1047 C1049 1.394 . S
C1048 C1047 1.359 . S
C1048 C1050 1.391 . S
C1048 H1051 0.929 . S
C1049 H1031 0.930 . S
C1049 N1045 1.334 . S
C1049 C1047 1.394 . S
C1050 C1046 1.413 . S
C1050 C1048 1.391 . S
C1050 C1065 1.437 . S
H1051 C1048 0.929 . S
O1052 Gd1008 2.545 . S
O1052 C1067 1.258 . S
O1053 Gd1008 2.606 . S
O1053 Gd1009 2.362 . S
O1053 C1064 1.284 . S
O1054 Gd1009 2.324 . S
O1054 C1074 1.254 . S
O1055 Gd1008 2.429 . S
O1055 C1074 1.268 . S
O1056 Gd1008 2.545 . S
O1056 C1064 1.250 . S
O1057 Gd1008 2.412 . S
O1057 C1067 1.252 . S
O1058 Gd1009 2.545 . S
O1058 C1076 1.258 . S
O1059 Gd1008 2.362 1_556 S
O1059 Gd1009 2.606 1_556 S
O1059 C1075 1.284 . S
O1060 Gd1008 2.324 . S
O1060 C1083 1.254 . S
O1061 Gd1009 2.429 . S
O1061 C1083 1.268 . S
O1062 Gd1009 2.545 1_556 S
O1062 C1075 1.250 . S
O1063 Gd1009 2.412 . S
O1063 C1076 1.252 . S
C1064 O1053 1.284 . S
C1064 O1056 1.250 . S
C1065 H1034 0.929 . S
C1065 C1050 1.437 . S
C1065 C1066 1.317 . S
C1066 H1037 0.930 . S
C1066 C1042 1.431 . S
C1066 C1065 1.317 . S
C1067 Gd1008 2.828 . S
C1067 O1052 1.258 . S
C1067 O1057 1.252 . S
C1067 C1068 1.497 . S
C1068 C1067 1.497 . S
C1068 C1069 1.395 . S
C1068 C1070 1.380 . S
C1069 C1068 1.395 . S
C1069 C1072 1.398 . S
C1069 H1084 0.946 . S
C1070 C1068 1.380 . S
C1070 C1071 1.391 . S
C1070 H1085 0.930 . S
C1071 C1070 1.391 . S
C1071 C1073 1.387 . S
C1072 C1069 1.398 . S
C1072 C1073 1.380 . S
C1072 H1086 0.930 . S
C1073 C1071 1.387 . S
C1073 C1072 1.380 . S
C1073 H1087 0.930 . S
C1074 O1054 1.254 . S
C1074 O1055 1.268 . S
C1075 O1059 1.284 . S
C1075 O1062 1.250 . S
C1076 Gd1009 2.828 . S
C1076 O1058 1.258 . S
C1076 O1063 1.252 . S
C1076 C1077 1.497 . S
C1077 C1076 1.497 . S
C1077 C1078 1.395 . S
C1077 C1079 1.380 . S
C1078 C1077 1.395 . S
C1078 C1081 1.398 . S
C1078 H1088 0.930 . S
C1079 C1077 1.380 . S
C1079 C1080 1.391 1_554 S
C1079 H1089 0.930 1_554 S
C1080 C1079 1.391 1_556 S
C1080 C1082 1.387 1_556 S
C1081 C1078 1.398 . S
C1081 C1082 1.380 . S
C1081 H1090 0.930 . S
C1082 C1080 1.387 1_554 S
C1082 C1081 1.380 . S
C1082 H1091 0.930 . S
C1083 O1060 1.254 . S
C1083 O1061 1.268 . S
H1084 C1069 0.946 . S
H1085 C1070 0.930 . S
H1086 C1072 0.930 . S
H1087 C1073 0.930 . S
H1088 C1078 0.930 . S
H1089 C1079 0.930 1_556 S
H1090 C1081 0.930 . S
H1091 C1082 0.930 . S
Gd1092 N1123 2.661 . S
Gd1092 N1129 2.601 . S
Gd1092 O1136 2.545 . S
Gd1092 O1137 2.606 . S
Gd1092 O1139 2.429 . S
Gd1092 O1140 2.545 . S
Gd1092 O1141 2.412 . S
Gd1092 O1143 2.362 . S
Gd1092 O1144 2.324 . S
Gd1092 C1151 2.828 . S
Gd1093 N1102 2.661 . S
Gd1093 N1106 2.601 . S
Gd1093 O1137 2.362 . S
Gd1093 O1138 2.324 . S
Gd1093 O1142 2.545 . S
Gd1093 O1143 2.606 . S
Gd1093 O1145 2.429 . S
Gd1093 O1146 2.545 . S
Gd1093 O1147 2.412 . S
Gd1093 C1160 2.828 . S
C1094 C1097 1.417 . S
C1094 C1099 1.431 . S
C1094 C1100 1.412 . S
C1095 C1098 1.437 . S
C1095 C1099 1.317 . S
C1095 H1114 0.929 . S
C1096 C1097 1.426 . S
C1096 C1098 1.413 . S
C1096 N1106 1.359 . S
C1097 C1094 1.417 . S
C1097 C1096 1.426 . S
C1097 N1102 1.350 . S
C1098 C1095 1.437 . S
C1098 C1096 1.413 . S
C1098 C1108 1.391 . S
C1099 C1094 1.431 . S
C1099 C1095 1.317 . S
C1099 H1110 0.930 . S
C1100 C1094 1.412 . S
C1100 C1101 1.355 . S
C1100 H1112 0.930 . S
C1101 C1100 1.355 . S
C1101 C1103 1.402 . S
C1101 H1113 0.930 . S
N1102 Gd1093 2.661 . S
N1102 C1097 1.350 . S
N1102 C1103 1.307 . S
C1103 C1101 1.402 . S
C1103 N1102 1.307 . S
C1103 H1104 0.930 . S
H1104 C1103 0.930 . S
C1105 N1106 1.334 . S
C1105 C1107 1.394 . S
C1105 H1109 0.930 . S
N1106 Gd1093 2.601 . S
N1106 C1096 1.359 . S
N1106 C1105 1.334 . S
C1107 C1105 1.394 . S
C1107 C1108 1.359 . S
C1107 H1119 0.930 . S
C1108 C1098 1.391 . S
C1108 C1107 1.359 . S
C1108 H1120 0.929 . S
H1109 C1105 0.930 . S
H1110 C1099 0.930 . S
H1111 C1128 0.930 . S
H1112 C1100 0.930 . S
H1113 C1101 0.930 . S
H1114 C1095 0.929 . S
H1115 C1133 0.930 . S
H1116 C1124 0.930 . S
H1117 C1125 0.930 . S
H1118 C1149 0.929 . S
H1119 C1107 0.930 . S
H1120 C1108 0.929 . S
H1121 C1150 0.930 . S
H1122 C1131 0.930 . S
N1123 Gd1092 2.661 . S
N1123 C1127 1.350 . S
N1123 C1128 1.307 . S
C1124 H1116 0.930 . S
C1124 C1125 1.355 . S
C1124 C1126 1.412 . S
C1125 H1117 0.930 . S
C1125 C1124 1.355 . S
C1125 C1128 1.402 . S
C1126 C1124 1.412 . S
C1126 C1127 1.417 . S
C1126 C1150 1.431 . S
C1127 N1123 1.350 . S
C1127 C1126 1.417 . S
C1127 C1130 1.426 . S
C1128 H1111 0.930 . S
C1128 N1123 1.307 . S
C1128 C1125 1.402 . S
N1129 Gd1092 2.601 . S
N1129 C1130 1.359 . S
N1129 C1133 1.334 . S
C1130 C1127 1.426 . S
C1130 N1129 1.359 . S
C1130 C1134 1.413 . S
C1131 H1122 0.930 . S
C1131 C1132 1.359 . S
C1131 C1133 1.394 . S
C1132 C1131 1.359 . S
C1132 C1134 1.391 . S
C1132 H1135 0.929 . S
C1133 H1115 0.930 . S
C1133 N1129 1.334 . S
C1133 C1131 1.394 . S
C1134 C1130 1.413 . S
C1134 C1132 1.391 . S
C1134 C1149 1.437 . S
H1135 C1132 0.929 . S
O1136 Gd1092 2.545 . S
O1136 C1151 1.258 . S
O1137 Gd1092 2.606 . S
O1137 Gd1093 2.362 . S
O1137 C1148 1.284 . S
O1138 Gd1093 2.324 . S
O1138 C1158 1.254 . S
O1139 Gd1092 2.429 . S
O1139 C1158 1.268 . S
O1140 Gd1092 2.545 . S
O1140 C1148 1.250 . S
O1141 Gd1092 2.412 . S
O1141 C1151 1.252 . S
O1142 Gd1093 2.545 . S
O1142 C1160 1.258 . S
O1143 Gd1092 2.362 . S
O1143 Gd1093 2.606 . S
O1143 C1159 1.284 . S
O1144 Gd1092 2.324 . S
O1144 C1167 1.254 . S
O1145 Gd1093 2.429 . S
O1145 C1167 1.268 . S
O1146 Gd1093 2.545 . S
O1146 C1159 1.250 . S
O1147 Gd1093 2.412 . S
O1147 C1160 1.252 . S
C1148 O1137 1.284 . S
C1148 O1140 1.250 . S
C1149 H1118 0.929 . S
C1149 C1134 1.437 . S
C1149 C1150 1.317 . S
C1150 H1121 0.930 . S
C1150 C1126 1.431 . S
C1150 C1149 1.317 . S
C1151 Gd1092 2.828 . S
C1151 O1136 1.258 . S
C1151 O1141 1.252 . S
C1151 C1152 1.497 . S
C1152 C1151 1.497 . S
C1152 C1153 1.395 . S
C1152 C1154 1.380 . S
C1153 C1152 1.395 . S
C1153 C1156 1.398 . S
C1153 H1168 0.930 . S
C1154 C1152 1.380 . S
C1154 C1155 1.391 . S
C1154 H1169 0.930 . S
C1155 C1154 1.391 . S
C1155 C1157 1.387 . S
C1156 C1153 1.398 . S
C1156 C1157 1.380 . S
C1156 H1170 0.930 . S
C1157 C1155 1.387 . S
C1157 C1156 1.380 . S
C1157 H1171 0.930 . S
C1158 O1138 1.254 . S
C1158 O1139 1.268 . S
C1159 O1143 1.284 . S
C1159 O1146 1.250 . S
C1160 Gd1093 2.828 . S
C1160 O1142 1.258 . S
C1160 O1147 1.252 . S
C1160 C1161 1.497 . S
C1161 C1160 1.497 . S
C1161 C1162 1.395 . S
C1161 C1163 1.380 . S
C1162 C1161 1.395 . S
C1162 C1165 1.398 . S
C1162 H1172 0.930 . S
C1163 C1161 1.380 . S
C1163 C1164 1.391 . S
C1163 H1173 0.930 . S
C1164 C1163 1.391 . S
C1164 C1166 1.387 . S
C1165 C1162 1.398 . S
C1165 C1166 1.380 . S
C1165 H1174 0.930 . S
C1166 C1164 1.387 . S
C1166 C1165 1.380 . S
C1166 H1175 0.930 . S
C1167 O1144 1.254 . S
C1167 O1145 1.268 . S
H1168 C1153 0.930 . S
H1169 C1154 0.930 . S
H1170 C1156 0.930 . S
H1171 C1157 0.930 . S
H1172 C1162 0.930 . S
H1173 C1163 0.930 . S
H1174 C1165 0.930 . S
H1175 C1166 0.930 . S
Gd1176 N1207 2.661 . S
Gd1176 N1213 2.601 . S
Gd1176 O1220 2.545 . S
Gd1176 O1221 2.606 . S
Gd1176 O1223 2.429 . S
Gd1176 O1224 2.545 . S
Gd1176 O1225 2.412 . S
Gd1176 O1227 2.362 . S
Gd1176 O1228 2.324 . S
Gd1176 C1235 2.828 . S
Gd1177 N1186 2.661 . S
Gd1177 N1190 2.601 . S
Gd1177 O1221 2.362 . S
Gd1177 O1222 2.324 . S
Gd1177 O1226 2.545 . S
Gd1177 O1227 2.606 . S
Gd1177 O1229 2.429 . S
Gd1177 O1230 2.545 . S
Gd1177 O1231 2.412 . S
Gd1177 C1244 2.828 . S
C1178 C1181 1.417 . S
C1178 C1183 1.431 . S
C1178 C1184 1.412 . S
C1179 C1182 1.437 . S
C1179 C1183 1.317 . S
C1179 H1198 0.929 . S
C1180 C1181 1.426 . S
C1180 C1182 1.413 . S
C1180 N1190 1.359 . S
C1181 C1178 1.417 . S
C1181 C1180 1.426 . S
C1181 N1186 1.350 . S
C1182 C1179 1.437 . S
C1182 C1180 1.413 . S
C1182 C1192 1.391 . S
C1183 C1178 1.431 . S
C1183 C1179 1.317 . S
C1183 H1194 0.930 . S
C1184 C1178 1.412 . S
C1184 C1185 1.355 . S
C1184 H1196 0.930 . S
C1185 C1184 1.355 . S
C1185 C1187 1.402 . S
C1185 H1197 0.930 . S
N1186 Gd1177 2.661 . S
N1186 C1181 1.350 . S
N1186 C1187 1.307 . S
C1187 C1185 1.402 . S
C1187 N1186 1.307 . S
C1187 H1188 0.930 . S
H1188 C1187 0.930 . S
C1189 N1190 1.334 . S
C1189 C1191 1.394 . S
C1189 H1193 0.930 . S
N1190 Gd1177 2.601 . S
N1190 C1180 1.359 . S
N1190 C1189 1.334 . S
C1191 C1189 1.394 . S
C1191 C1192 1.359 . S
C1191 H1203 0.930 . S
C1192 C1182 1.391 . S
C1192 C1191 1.359 . S
C1192 H1204 0.929 . S
H1193 C1189 0.930 . S
H1194 C1183 0.930 . S
H1195 C1212 0.930 . S
H1196 C1184 0.930 . S
H1197 C1185 0.930 . S
H1198 C1179 0.929 . S
H1199 C1217 0.930 . S
H1200 C1208 0.930 . S
H1201 C1209 0.930 . S
H1202 C1233 0.929 . S
H1203 C1191 0.930 . S
H1204 C1192 0.929 . S
H1205 C1234 0.930 . S
H1206 C1215 0.930 . S
N1207 Gd1176 2.661 . S
N1207 C1211 1.343 1_455 S
N1207 C1212 1.307 . S
C1208 H1200 0.930 . S
C1208 C1209 1.355 . S
C1208 C1210 1.412 . S
C1209 H1201 0.930 . S
C1209 C1208 1.355 . S
C1209 C1212 1.402 1_655 S
C1210 C1208 1.412 . S
C1210 C1211 1.423 . S
C1210 C1234 1.431 . S
C1211 N1207 1.343 1_655 S
C1211 C1210 1.423 . S
C1211 C1214 1.428 1_655 S
C1212 H1195 0.930 . S
C1212 N1207 1.307 . S
C1212 C1209 1.402 1_455 S
N1213 Gd1176 2.601 . S
N1213 C1214 1.359 . S
N1213 C1217 1.334 . S
C1214 C1211 1.428 1_455 S
C1214 N1213 1.359 . S
C1214 C1218 1.413 1_455 S
C1215 H1206 0.930 . S
C1215 C1216 1.359 1_455 S
C1215 C1217 1.394 . S
C1216 C1215 1.359 1_655 S
C1216 C1218 1.391 . S
C1216 H1219 0.929 . S
C1217 H1199 0.930 . S
C1217 N1213 1.334 . S
C1217 C1215 1.394 . S
C1218 C1214 1.413 1_655 S
C1218 C1216 1.391 . S
C1218 C1233 1.437 . S
H1219 C1216 0.929 . S
O1220 Gd1176 2.545 . S
O1220 C1235 1.258 . S
O1221 Gd1176 2.606 . S
O1221 Gd1177 2.362 . S
O1221 C1232 1.284 . S
O1222 Gd1177 2.324 . S
O1222 C1242 1.254 . S
O1223 Gd1176 2.429 . S
O1223 C1242 1.268 . S
O1224 Gd1176 2.545 . S
O1224 C1232 1.250 . S
O1225 Gd1176 2.412 . S
O1225 C1235 1.252 . S
O1226 Gd1177 2.545 . S
O1226 C1244 1.258 . S
O1227 Gd1176 2.362 . S
O1227 Gd1177 2.606 . S
O1227 C1243 1.284 . S
O1228 Gd1176 2.324 . S
O1228 C1251 1.254 . S
O1229 Gd1177 2.429 . S
O1229 C1251 1.268 . S
O1230 Gd1177 2.545 . S
O1230 C1243 1.250 . S
O1231 Gd1177 2.412 . S
O1231 C1244 1.252 . S
C1232 O1221 1.284 . S
C1232 O1224 1.250 . S
C1233 H1202 0.929 . S
C1233 C1218 1.437 . S
C1233 C1234 1.317 . S
C1234 H1205 0.930 . S
C1234 C1210 1.431 . S
C1234 C1233 1.317 . S
C1235 Gd1176 2.828 . S
C1235 O1220 1.258 . S
C1235 O1225 1.252 . S
C1235 C1236 1.497 . S
C1236 C1235 1.497 . S
C1236 C1237 1.395 . S
C1236 C1238 1.380 . S
C1237 C1236 1.395 . S
C1237 C1240 1.398 . S
C1237 H1252 0.930 . S
C1238 C1236 1.380 . S
C1238 C1239 1.391 . S
C1238 H1253 0.930 . S
C1239 C1238 1.391 . S
C1239 C1241 1.387 . S
C1240 C1237 1.398 . S
C1240 C1241 1.380 . S
C1240 H1254 0.930 . S
C1241 C1239 1.387 . S
C1241 C1240 1.380 . S
C1241 H1255 0.930 . S
C1242 O1222 1.254 . S
C1242 O1223 1.268 . S
C1243 O1227 1.284 . S
C1243 O1230 1.250 . S
C1244 Gd1177 2.828 . S
C1244 O1226 1.258 . S
C1244 O1231 1.252 . S
C1244 C1245 1.497 . S
C1245 C1244 1.497 . S
C1245 C1246 1.395 . S
C1245 C1247 1.380 . S
C1246 C1245 1.395 . S
C1246 C1249 1.398 . S
C1246 H1256 0.930 . S
C1247 C1245 1.380 . S
C1247 C1248 1.391 . S
C1247 H1257 0.930 . S
C1248 C1247 1.391 . S
C1248 C1250 1.387 . S
C1249 C1246 1.398 . S
C1249 C1250 1.380 . S
C1249 H1258 0.930 . S
C1250 C1248 1.387 . S
C1250 C1249 1.380 . S
C1250 H1259 0.932 1_455 S
C1251 O1228 1.254 . S
C1251 O1229 1.268 . S
H1252 C1237 0.930 . S
H1253 C1238 0.930 . S
H1254 C1240 0.930 . S
H1255 C1241 0.930 . S
H1256 C1246 0.930 . S
H1257 C1247 0.930 . S
H1258 C1249 0.930 . S
H1259 C1250 0.932 1_655 S
Gd1260 N1291 2.661 . S
Gd1260 N1297 2.601 . S
Gd1260 O1304 2.545 . S
Gd1260 O1305 2.606 . S
Gd1260 O1307 2.429 . S
Gd1260 O1308 2.545 . S
Gd1260 O1309 2.412 . S
Gd1260 O1311 2.362 . S
Gd1260 O1312 2.324 . S
Gd1260 C1319 2.828 . S
Gd1261 N1270 2.661 . S
Gd1261 N1274 2.601 . S
Gd1261 O1305 2.362 . S
Gd1261 O1306 2.324 . S
Gd1261 O1310 2.545 . S
Gd1261 O1311 2.606 . S
Gd1261 O1313 2.429 . S
Gd1261 O1314 2.545 . S
Gd1261 O1315 2.412 . S
Gd1261 C1328 2.828 . S
C1262 C1265 1.417 . S
C1262 C1267 1.431 . S
C1262 C1268 1.412 . S
C1263 C1266 1.437 . S
C1263 C1267 1.317 . S
C1263 H1282 0.929 . S
C1264 C1265 1.426 . S
C1264 C1266 1.413 . S
C1264 N1274 1.359 . S
C1265 C1262 1.417 . S
C1265 C1264 1.426 . S
C1265 N1270 1.350 . S
C1266 C1263 1.437 . S
C1266 C1264 1.413 . S
C1266 C1276 1.391 . S
C1267 C1262 1.431 . S
C1267 C1263 1.317 . S
C1267 H1278 0.930 . S
C1268 C1262 1.412 . S
C1268 C1269 1.355 . S
C1268 H1280 0.930 . S
C1269 C1268 1.355 . S
C1269 C1271 1.402 . S
C1269 H1281 0.930 . S
N1270 Gd1261 2.661 . S
N1270 C1265 1.350 . S
N1270 C1271 1.307 . S
C1271 C1269 1.402 . S
C1271 N1270 1.307 . S
C1271 H1272 0.930 . S
H1272 C1271 0.930 . S
C1273 N1274 1.334 . S
C1273 C1275 1.394 . S
C1273 H1277 0.930 . S
N1274 Gd1261 2.601 . S
N1274 C1264 1.359 . S
N1274 C1273 1.334 . S
C1275 C1273 1.394 . S
C1275 C1276 1.359 . S
C1275 H1287 0.930 . S
C1276 C1266 1.391 . S
C1276 C1275 1.359 . S
C1276 H1288 0.929 . S
H1277 C1273 0.930 . S
H1278 C1267 0.930 . S
H1279 C1296 0.930 . S
H1280 C1268 0.930 . S
H1281 C1269 0.930 . S
H1282 C1263 0.929 . S
H1283 C1301 0.930 . S
H1284 C1292 0.930 . S
H1285 C1293 0.930 . S
H1286 C1317 0.929 . S
H1287 C1275 0.930 . S
H1288 C1276 0.929 . S
H1289 C1318 0.930 . S
H1290 C1299 0.930 . S
N1291 Gd1260 2.661 . S
N1291 C1295 1.350 . S
N1291 C1296 1.307 . S
C1292 H1284 0.930 . S
C1292 C1293 1.355 . S
C1292 C1294 1.412 . S
C1293 H1285 0.930 . S
C1293 C1292 1.355 . S
C1293 C1296 1.402 . S
C1294 C1292 1.412 . S
C1294 C1295 1.417 . S
C1294 C1318 1.431 . S
C1295 N1291 1.350 . S
C1295 C1294 1.417 . S
C1295 C1298 1.426 . S
C1296 H1279 0.930 . S
C1296 N1291 1.307 . S
C1296 C1293 1.402 . S
N1297 Gd1260 2.601 . S
N1297 C1298 1.359 . S
N1297 C1301 1.334 . S
C1298 C1295 1.426 . S
C1298 N1297 1.359 . S
C1298 C1302 1.413 . S
C1299 H1290 0.930 . S
C1299 C1300 1.359 . S
C1299 C1301 1.394 . S
C1300 C1299 1.359 . S
C1300 C1302 1.391 . S
C1300 H1303 0.929 . S
C1301 H1283 0.930 . S
C1301 N1297 1.334 . S
C1301 C1299 1.394 . S
C1302 C1298 1.413 . S
C1302 C1300 1.391 . S
C1302 C1317 1.437 . S
H1303 C1300 0.929 . S
O1304 Gd1260 2.545 . S
O1304 C1319 1.258 . S
O1305 Gd1260 2.606 . S
O1305 Gd1261 2.362 . S
O1305 C1316 1.284 . S
O1306 Gd1261 2.324 . S
O1306 C1326 1.254 . S
O1307 Gd1260 2.429 . S
O1307 C1326 1.268 . S
O1308 Gd1260 2.545 . S
O1308 C1316 1.250 . S
O1309 Gd1260 2.412 . S
O1309 C1319 1.252 . S
O1310 Gd1261 2.545 . S
O1310 C1328 1.258 . S
O1311 Gd1260 2.362 . S
O1311 Gd1261 2.606 . S
O1311 C1327 1.284 . S
O1312 Gd1260 2.324 . S
O1312 C1335 1.254 . S
O1313 Gd1261 2.429 . S
O1313 C1335 1.268 . S
O1314 Gd1261 2.545 . S
O1314 C1327 1.250 . S
O1315 Gd1261 2.412 . S
O1315 C1328 1.252 . S
C1316 O1305 1.284 . S
C1316 O1308 1.250 . S
C1317 H1286 0.929 . S
C1317 C1302 1.437 . S
C1317 C1318 1.317 . S
C1318 H1289 0.930 . S
C1318 C1294 1.431 . S
C1318 C1317 1.317 . S
C1319 Gd1260 2.828 . S
C1319 O1304 1.258 . S
C1319 O1309 1.252 . S
C1319 C1320 1.497 . S
C1320 C1319 1.497 . S
C1320 C1321 1.395 . S
C1320 C1322 1.380 . S
C1321 C1320 1.395 . S
C1321 C1324 1.398 . S
C1321 H1336 0.930 . S
C1322 C1320 1.380 . S
C1322 C1323 1.391 . S
C1322 H1337 0.930 . S
C1323 C1322 1.391 . S
C1323 C1325 1.387 . S
C1324 C1321 1.398 . S
C1324 C1325 1.380 . S
C1324 H1338 0.930 . S
C1325 C1323 1.387 . S
C1325 C1324 1.380 . S
C1325 H1339 0.930 . S
C1326 O1306 1.254 . S
C1326 O1307 1.268 . S
C1327 O1311 1.284 . S
C1327 O1314 1.250 . S
C1328 Gd1261 2.828 . S
C1328 O1310 1.258 . S
C1328 O1315 1.252 . S
C1328 C1329 1.497 . S
C1329 C1328 1.497 . S
C1329 C1330 1.395 . S
C1329 C1331 1.380 . S
C1330 C1329 1.395 . S
C1330 C1333 1.398 . S
C1330 H1340 0.930 . S
C1331 C1329 1.380 . S
C1331 C1332 1.391 . S
C1331 H1341 0.930 . S
C1332 C1331 1.391 . S
C1332 C1334 1.387 . S
C1333 C1330 1.398 . S
C1333 C1334 1.380 . S
C1333 H1342 0.930 . S
C1334 C1332 1.387 . S
C1334 C1333 1.380 . S
C1334 H1343 0.930 . S
C1335 O1312 1.254 . S
C1335 O1313 1.268 . S
H1336 C1321 0.930 . S
H1337 C1322 0.930 . S
H1338 C1324 0.930 . S
H1339 C1325 0.930 . S
H1340 C1330 0.930 . S
H1341 C1331 0.930 . S
H1342 C1333 0.930 . S
H1343 C1334 0.930 . S
Gd1344 N1375 2.661 . S
Gd1344 N1381 2.601 . S
Gd1344 O1388 2.545 . S
Gd1344 O1389 2.606 . S
Gd1344 O1391 2.429 . S
Gd1344 O1392 2.545 . S
Gd1344 O1393 2.412 . S
Gd1344 O1395 2.362 . S
Gd1344 O1396 2.324 . S
Gd1344 C1403 2.828 . S
Gd1345 N1354 2.661 . S
Gd1345 N1358 2.601 . S
Gd1345 O1389 2.362 . S
Gd1345 O1390 2.324 . S
Gd1345 O1394 2.545 . S
Gd1345 O1395 2.606 . S
Gd1345 O1397 2.429 . S
Gd1345 O1398 2.545 . S
Gd1345 O1399 2.412 . S
Gd1345 C1412 2.828 . S
C1346 C1349 1.417 . S
C1346 C1351 1.431 . S
C1346 C1352 1.412 . S
C1347 C1350 1.437 . S
C1347 C1351 1.317 . S
C1347 H1366 0.929 . S
C1348 C1349 1.426 . S
C1348 C1350 1.413 . S
C1348 N1358 1.359 . S
C1349 C1346 1.417 . S
C1349 C1348 1.426 . S
C1349 N1354 1.350 . S
C1350 C1347 1.437 . S
C1350 C1348 1.413 . S
C1350 C1360 1.391 . S
C1351 C1346 1.431 . S
C1351 C1347 1.317 . S
C1351 H1362 0.930 . S
C1352 C1346 1.412 . S
C1352 C1353 1.355 . S
C1352 H1364 0.930 . S
C1353 C1352 1.355 . S
C1353 C1355 1.402 . S
C1353 H1365 0.930 . S
N1354 Gd1345 2.661 . S
N1354 C1349 1.350 . S
N1354 C1355 1.307 . S
C1355 C1353 1.402 . S
C1355 N1354 1.307 . S
C1355 H1356 0.930 . S
H1356 C1355 0.930 . S
C1357 N1358 1.334 . S
C1357 C1359 1.394 . S
C1357 H1361 0.930 . S
N1358 Gd1345 2.601 . S
N1358 C1348 1.359 . S
N1358 C1357 1.334 . S
C1359 C1357 1.394 . S
C1359 C1360 1.359 . S
C1359 H1371 0.930 . S
C1360 C1350 1.391 . S
C1360 C1359 1.359 . S
C1360 H1372 0.929 . S
H1361 C1357 0.930 . S
H1362 C1351 0.930 . S
H1363 C1380 0.930 . S
H1364 C1352 0.930 . S
H1365 C1353 0.930 . S
H1366 C1347 0.929 . S
H1367 C1385 0.930 . S
H1368 C1376 0.930 . S
H1369 C1377 0.930 . S
H1370 C1401 0.929 . S
H1371 C1359 0.930 . S
H1372 C1360 0.929 . S
H1373 C1402 0.930 . S
H1374 C1383 0.930 . S
N1375 Gd1344 2.661 . S
N1375 C1379 1.350 . S
N1375 C1380 1.307 . S
C1376 H1368 0.930 . S
C1376 C1377 1.355 . S
C1376 C1378 1.412 . S
C1377 H1369 0.930 . S
C1377 C1376 1.355 . S
C1377 C1380 1.402 . S
C1378 C1376 1.412 . S
C1378 C1379 1.417 . S
C1378 C1402 1.431 . S
C1379 N1375 1.350 . S
C1379 C1378 1.417 . S
C1379 C1382 1.426 . S
C1380 H1363 0.930 . S
C1380 N1375 1.307 . S
C1380 C1377 1.402 . S
N1381 Gd1344 2.601 . S
N1381 C1382 1.359 . S
N1381 C1385 1.334 . S
C1382 C1379 1.426 . S
C1382 N1381 1.359 . S
C1382 C1386 1.413 . S
C1383 H1374 0.930 . S
C1383 C1384 1.359 . S
C1383 C1385 1.394 . S
C1384 C1383 1.359 . S
C1384 C1386 1.391 . S
C1384 H1387 0.929 . S
C1385 H1367 0.930 . S
C1385 N1381 1.334 . S
C1385 C1383 1.394 . S
C1386 C1382 1.413 . S
C1386 C1384 1.391 . S
C1386 C1401 1.437 . S
H1387 C1384 0.929 . S
O1388 Gd1344 2.545 . S
O1388 C1403 1.258 . S
O1389 Gd1344 2.606 . S
O1389 Gd1345 2.362 . S
O1389 C1400 1.284 . S
O1390 Gd1345 2.324 . S
O1390 C1410 1.254 . S
O1391 Gd1344 2.429 . S
O1391 C1410 1.268 . S
O1392 Gd1344 2.545 . S
O1392 C1400 1.250 . S
O1393 Gd1344 2.412 . S
O1393 C1403 1.252 . S
O1394 Gd1345 2.545 . S
O1394 C1412 1.258 . S
O1395 Gd1344 2.362 . S
O1395 Gd1345 2.606 . S
O1395 C1411 1.284 . S
O1396 Gd1344 2.324 . S
O1396 C1419 1.254 . S
O1397 Gd1345 2.429 . S
O1397 C1419 1.268 . S
O1398 Gd1345 2.545 . S
O1398 C1411 1.250 . S
O1399 Gd1345 2.412 . S
O1399 C1412 1.252 . S
C1400 O1389 1.284 . S
C1400 O1392 1.250 . S
C1401 H1370 0.929 . S
C1401 C1386 1.437 . S
C1401 C1402 1.317 . S
C1402 H1373 0.930 . S
C1402 C1378 1.431 . S
C1402 C1401 1.317 . S
C1403 Gd1344 2.828 . S
C1403 O1388 1.258 . S
C1403 O1393 1.252 . S
C1403 C1404 1.497 . S
C1404 C1403 1.497 . S
C1404 C1405 1.395 . S
C1404 C1406 1.380 . S
C1405 C1404 1.395 . S
C1405 C1408 1.398 . S
C1405 H1420 0.930 . S
C1406 C1404 1.380 . S
C1406 C1407 1.391 . S
C1406 H1421 0.930 . S
C1407 C1406 1.391 . S
C1407 C1409 1.387 . S
C1408 C1405 1.398 . S
C1408 C1409 1.380 . S
C1408 H1422 0.930 . S
C1409 C1407 1.387 . S
C1409 C1408 1.380 . S
C1409 H1423 0.930 . S
C1410 O1390 1.254 . S
C1410 O1391 1.268 . S
C1411 O1395 1.284 . S
C1411 O1398 1.250 . S
C1412 Gd1345 2.828 . S
C1412 O1394 1.258 . S
C1412 O1399 1.252 . S
C1412 C1413 1.497 . S
C1413 C1412 1.497 . S
C1413 C1414 1.395 . S
C1413 C1415 1.380 . S
C1414 C1413 1.395 . S
C1414 C1417 1.398 . S
C1414 H1424 0.930 . S
C1415 C1413 1.380 . S
C1415 C1416 1.391 . S
C1415 H1425 0.930 . S
C1416 C1415 1.391 . S
C1416 C1418 1.387 . S
C1417 C1414 1.398 . S
C1417 C1418 1.380 . S
C1417 H1426 0.930 . S
C1418 C1416 1.387 . S
C1418 C1417 1.380 . S
C1418 H1427 0.930 . S
C1419 O1396 1.254 . S
C1419 O1397 1.268 . S
H1420 C1405 0.930 . S
H1421 C1406 0.930 . S
H1422 C1408 0.930 . S
H1423 C1409 0.930 . S
H1424 C1414 0.930 . S
H1425 C1415 0.930 . S
H1426 C1417 0.930 . S
H1427 C1418 0.930 . S
Gd1428 N1459 2.661 . S
Gd1428 N1465 2.601 . S
Gd1428 O1472 2.545 . S
Gd1428 O1473 2.606 . S
Gd1428 O1475 2.429 . S
Gd1428 O1476 2.545 . S
Gd1428 O1477 2.412 . S
Gd1428 O1479 2.362 . S
Gd1428 O1480 2.324 . S
Gd1428 C1487 2.828 . S
Gd1429 N1438 2.661 . S
Gd1429 N1442 2.601 . S
Gd1429 O1473 2.362 . S
Gd1429 O1474 2.324 . S
Gd1429 O1478 2.545 . S
Gd1429 O1479 2.606 . S
Gd1429 O1481 2.429 . S
Gd1429 O1482 2.545 . S
Gd1429 O1483 2.412 . S
Gd1429 C1496 2.828 . S
C1430 C1433 1.417 . S
C1430 C1435 1.431 . S
C1430 C1436 1.412 . S
C1431 C1434 1.437 . S
C1431 C1435 1.317 . S
C1431 H1450 0.929 . S
C1432 C1433 1.426 . S
C1432 C1434 1.413 . S
C1432 N1442 1.359 . S
C1433 C1430 1.417 . S
C1433 C1432 1.426 . S
C1433 N1438 1.350 . S
C1434 C1431 1.437 . S
C1434 C1432 1.413 . S
C1434 C1444 1.391 . S
C1435 C1430 1.431 . S
C1435 C1431 1.317 . S
C1435 H1446 0.930 . S
C1436 C1430 1.412 . S
C1436 C1437 1.355 . S
C1436 H1448 0.930 . S
C1437 C1436 1.355 . S
C1437 C1439 1.402 . S
C1437 H1449 0.930 . S
N1438 Gd1429 2.661 . S
N1438 C1433 1.350 . S
N1438 C1439 1.307 . S
C1439 C1437 1.402 . S
C1439 N1438 1.307 . S
C1439 H1440 0.930 . S
H1440 C1439 0.930 . S
C1441 N1442 1.334 . S
C1441 C1443 1.394 . S
C1441 H1445 0.930 . S
N1442 Gd1429 2.601 . S
N1442 C1432 1.359 . S
N1442 C1441 1.334 . S
C1443 C1441 1.394 . S
C1443 C1444 1.359 . S
C1443 H1455 0.930 . S
C1444 C1434 1.391 . S
C1444 C1443 1.359 . S
C1444 H1456 0.929 . S
H1445 C1441 0.930 . S
H1446 C1435 0.930 . S
H1447 C1464 0.930 . S
H1448 C1436 0.930 . S
H1449 C1437 0.930 . S
H1450 C1431 0.929 . S
H1451 C1469 0.930 . S
H1452 C1460 0.930 . S
H1453 C1461 0.930 . S
H1454 C1485 0.929 . S
H1455 C1443 0.930 . S
H1456 C1444 0.929 . S
H1457 C1486 0.930 . S
H1458 C1467 0.930 . S
N1459 Gd1428 2.661 . S
N1459 C1463 1.350 . S
N1459 C1464 1.307 . S
C1460 H1452 0.930 . S
C1460 C1461 1.355 . S
C1460 C1462 1.412 . S
C1461 H1453 0.930 . S
C1461 C1460 1.355 . S
C1461 C1464 1.402 . S
C1462 C1460 1.412 . S
C1462 C1463 1.417 . S
C1462 C1486 1.431 . S
C1463 N1459 1.350 . S
C1463 C1462 1.417 . S
C1463 C1466 1.426 . S
C1464 H1447 0.930 . S
C1464 N1459 1.307 . S
C1464 C1461 1.402 . S
N1465 Gd1428 2.601 . S
N1465 C1466 1.359 . S
N1465 C1469 1.334 . S
C1466 C1463 1.426 . S
C1466 N1465 1.359 . S
C1466 C1470 1.413 . S
C1467 H1458 0.930 . S
C1467 C1468 1.359 . S
C1467 C1469 1.394 . S
C1468 C1467 1.359 . S
C1468 C1470 1.391 . S
C1468 H1471 0.929 . S
C1469 H1451 0.930 . S
C1469 N1465 1.334 . S
C1469 C1467 1.394 . S
C1470 C1466 1.413 . S
C1470 C1468 1.391 . S
C1470 C1485 1.437 . S
H1471 C1468 0.929 . S
O1472 Gd1428 2.545 . S
O1472 C1487 1.258 . S
O1473 Gd1428 2.606 . S
O1473 Gd1429 2.362 . S
O1473 C1484 1.284 . S
O1474 Gd1429 2.324 . S
O1474 C1494 1.254 . S
O1475 Gd1428 2.429 . S
O1475 C1494 1.268 . S
O1476 Gd1428 2.545 . S
O1476 C1484 1.250 . S
O1477 Gd1428 2.412 . S
O1477 C1487 1.252 . S
O1478 Gd1429 2.545 . S
O1478 C1496 1.258 . S
O1479 Gd1428 2.362 . S
O1479 Gd1429 2.606 . S
O1479 C1495 1.284 . S
O1480 Gd1428 2.324 . S
O1480 C1503 1.254 . S
O1481 Gd1429 2.429 . S
O1481 C1503 1.268 . S
O1482 Gd1429 2.545 . S
O1482 C1495 1.250 . S
O1483 Gd1429 2.412 . S
O1483 C1496 1.252 . S
C1484 O1473 1.284 . S
C1484 O1476 1.250 . S
C1485 H1454 0.929 . S
C1485 C1470 1.437 . S
C1485 C1486 1.317 . S
C1486 H1457 0.930 . S
C1486 C1462 1.431 . S
C1486 C1485 1.317 . S
C1487 Gd1428 2.828 . S
C1487 O1472 1.258 . S
C1487 O1477 1.252 . S
C1487 C1488 1.497 . S
C1488 C1487 1.497 . S
C1488 C1489 1.395 . S
C1488 C1490 1.380 . S
C1489 C1488 1.395 . S
C1489 C1492 1.398 . S
C1489 H1504 0.930 . S
C1490 C1488 1.380 . S
C1490 C1491 1.391 . S
C1490 H1505 0.930 . S
C1491 C1490 1.391 . S
C1491 C1493 1.387 . S
C1492 C1489 1.398 . S
C1492 C1493 1.380 . S
C1492 H1506 0.930 . S
C1493 C1491 1.387 . S
C1493 C1492 1.380 . S
C1493 H1507 0.930 . S
C1494 O1474 1.254 . S
C1494 O1475 1.268 . S
C1495 O1479 1.284 . S
C1495 O1482 1.250 . S
C1496 Gd1429 2.828 . S
C1496 O1478 1.258 . S
C1496 O1483 1.252 . S
C1496 C1497 1.497 . S
C1497 C1496 1.497 . S
C1497 C1498 1.395 . S
C1497 C1499 1.380 . S
C1498 C1497 1.395 . S
C1498 C1501 1.398 . S
C1498 H1508 0.930 . S
C1499 C1497 1.380 . S
C1499 C1500 1.391 . S
C1499 H1509 0.930 . S
C1500 C1499 1.391 . S
C1500 C1502 1.387 . S
C1501 C1498 1.398 . S
C1501 C1502 1.380 . S
C1501 H1510 0.930 . S
C1502 C1500 1.387 . S
C1502 C1501 1.380 . S
C1502 H1511 0.930 . S
C1503 O1480 1.254 . S
C1503 O1481 1.268 . S
H1504 C1489 0.930 . S
H1505 C1490 0.930 . S
H1506 C1492 0.930 . S
H1507 C1493 0.930 . S
H1508 C1498 0.930 . S
H1509 C1499 0.930 . S
H1510 C1501 0.930 . S
H1511 C1502 0.930 . S
Gd1512 N1543 2.661 . S
Gd1512 N1549 2.601 . S
Gd1512 O1556 2.545 . S
Gd1512 O1557 2.606 . S
Gd1512 O1559 2.429 . S
Gd1512 O1560 2.545 . S
Gd1512 O1561 2.412 . S
Gd1512 O1563 2.362 . S
Gd1512 O1564 2.324 . S
Gd1512 C1571 2.828 . S
Gd1513 N1522 2.661 . S
Gd1513 N1526 2.601 . S
Gd1513 O1557 2.362 . S
Gd1513 O1558 2.324 . S
Gd1513 O1562 2.545 . S
Gd1513 O1563 2.606 . S
Gd1513 O1565 2.429 . S
Gd1513 O1566 2.545 . S
Gd1513 O1567 2.412 . S
Gd1513 C1580 2.828 . S
C1514 C1517 1.417 . S
C1514 C1519 1.431 . S
C1514 C1520 1.412 . S
C1515 C1518 1.437 . S
C1515 C1519 1.317 . S
C1515 H1534 0.929 . S
C1516 C1517 1.426 . S
C1516 C1518 1.413 . S
C1516 N1526 1.359 . S
C1517 C1514 1.417 . S
C1517 C1516 1.426 . S
C1517 N1522 1.350 . S
C1518 C1515 1.437 . S
C1518 C1516 1.413 . S
C1518 C1528 1.391 . S
C1519 C1514 1.431 . S
C1519 C1515 1.317 . S
C1519 H1530 0.930 . S
C1520 C1514 1.412 . S
C1520 C1521 1.355 . S
C1520 H1532 0.930 . S
C1521 C1520 1.355 . S
C1521 C1523 1.402 . S
C1521 H1533 0.930 . S
N1522 Gd1513 2.661 . S
N1522 C1517 1.350 . S
N1522 C1523 1.307 . S
C1523 C1521 1.402 . S
C1523 N1522 1.307 . S
C1523 H1524 0.930 . S
H1524 C1523 0.930 . S
C1525 N1526 1.334 . S
C1525 C1527 1.394 . S
C1525 H1529 0.930 . S
N1526 Gd1513 2.601 . S
N1526 C1516 1.359 . S
N1526 C1525 1.334 . S
C1527 C1525 1.394 . S
C1527 C1528 1.359 . S
C1527 H1539 0.930 . S
C1528 C1518 1.391 . S
C1528 C1527 1.359 . S
C1528 H1540 0.929 . S
H1529 C1525 0.930 . S
H1530 C1519 0.930 . S
H1531 C1548 0.930 . S
H1532 C1520 0.930 . S
H1533 C1521 0.930 . S
H1534 C1515 0.929 . S
H1535 C1553 0.930 . S
H1536 C1544 0.930 . S
H1537 C1545 0.930 . S
H1538 C1569 0.929 . S
H1539 C1527 0.930 . S
H1540 C1528 0.929 . S
H1541 C1570 0.930 . S
H1542 C1551 0.930 . S
N1543 Gd1512 2.661 . S
N1543 C1547 1.350 . S
N1543 C1548 1.307 . S
C1544 H1536 0.930 . S
C1544 C1545 1.355 . S
C1544 C1546 1.412 . S
C1545 H1537 0.930 . S
C1545 C1544 1.355 . S
C1545 C1548 1.402 . S
C1546 C1544 1.412 . S
C1546 C1547 1.417 . S
C1546 C1570 1.431 . S
C1547 N1543 1.350 . S
C1547 C1546 1.417 . S
C1547 C1550 1.426 . S
C1548 H1531 0.930 . S
C1548 N1543 1.307 . S
C1548 C1545 1.402 . S
N1549 Gd1512 2.601 . S
N1549 C1550 1.359 . S
N1549 C1553 1.334 . S
C1550 C1547 1.426 . S
C1550 N1549 1.359 . S
C1550 C1554 1.413 . S
C1551 H1542 0.930 . S
C1551 C1552 1.359 . S
C1551 C1553 1.394 . S
C1552 C1551 1.359 . S
C1552 C1554 1.391 . S
C1552 H1555 0.929 . S
C1553 H1535 0.930 . S
C1553 N1549 1.334 . S
C1553 C1551 1.394 . S
C1554 C1550 1.413 . S
C1554 C1552 1.391 . S
C1554 C1569 1.437 . S
H1555 C1552 0.929 . S
O1556 Gd1512 2.545 . S
O1556 C1571 1.258 . S
O1557 Gd1512 2.606 . S
O1557 Gd1513 2.362 . S
O1557 C1568 1.284 . S
O1558 Gd1513 2.324 . S
O1558 C1578 1.254 . S
O1559 Gd1512 2.429 . S
O1559 C1578 1.268 . S
O1560 Gd1512 2.545 . S
O1560 C1568 1.250 . S
O1561 Gd1512 2.412 . S
O1561 C1571 1.252 . S
O1562 Gd1513 2.545 . S
O1562 C1580 1.258 . S
O1563 Gd1512 2.362 . S
O1563 Gd1513 2.606 . S
O1563 C1579 1.284 . S
O1564 Gd1512 2.324 . S
O1564 C1587 1.254 . S
O1565 Gd1513 2.429 . S
O1565 C1587 1.268 . S
O1566 Gd1513 2.545 . S
O1566 C1579 1.250 . S
O1567 Gd1513 2.412 . S
O1567 C1580 1.252 . S
C1568 O1557 1.284 . S
C1568 O1560 1.250 . S
C1569 H1538 0.929 . S
C1569 C1554 1.437 . S
C1569 C1570 1.317 . S
C1570 H1541 0.930 . S
C1570 C1546 1.431 . S
C1570 C1569 1.317 . S
C1571 Gd1512 2.828 . S
C1571 O1556 1.258 . S
C1571 O1561 1.252 . S
C1571 C1572 1.497 . S
C1572 C1571 1.497 . S
C1572 C1573 1.395 . S
C1572 C1574 1.380 . S
C1573 C1572 1.395 . S
C1573 C1576 1.398 . S
C1573 H1588 0.930 . S
C1574 C1572 1.380 . S
C1574 C1575 1.391 . S
C1574 H1589 0.930 . S
C1575 C1574 1.391 . S
C1575 C1577 1.387 . S
C1576 C1573 1.398 . S
C1576 C1577 1.380 . S
C1576 H1590 0.930 . S
C1577 C1575 1.387 . S
C1577 C1576 1.380 . S
C1577 H1591 0.930 . S
C1578 O1558 1.254 . S
C1578 O1559 1.268 . S
C1579 O1563 1.284 . S
C1579 O1566 1.250 . S
C1580 Gd1513 2.828 . S
C1580 O1562 1.258 . S
C1580 O1567 1.252 . S
C1580 C1581 1.497 . S
C1581 C1580 1.497 . S
C1581 C1582 1.395 . S
C1581 C1583 1.380 . S
C1582 C1581 1.395 . S
C1582 C1585 1.398 . S
C1582 H1592 0.930 . S
C1583 C1581 1.380 . S
C1583 C1584 1.391 . S
C1583 H1593 0.930 . S
C1584 C1583 1.391 . S
C1584 C1586 1.387 . S
C1585 C1582 1.398 . S
C1585 C1586 1.380 . S
C1585 H1594 0.930 . S
C1586 C1584 1.387 . S
C1586 C1585 1.380 . S
C1586 H1595 0.930 . S
C1587 O1564 1.254 . S
C1587 O1565 1.268 . S
H1588 C1573 0.930 . S
H1589 C1574 0.930 . S
H1590 C1576 0.930 . S
H1591 C1577 0.930 . S
H1592 C1582 0.930 . S
H1593 C1583 0.930 . S
H1594 C1585 0.930 . S
H1595 C1586 0.930 . S
Gd1596 N1627 2.661 1_455 S
Gd1596 N1633 2.601 . S
Gd1596 O1640 2.545 . S
Gd1596 O1641 2.606 . S
Gd1596 O1643 2.429 . S
Gd1596 O1644 2.545 . S
Gd1596 O1645 2.412 1_455 S
Gd1596 O1647 2.362 . S
Gd1596 O1648 2.324 1_554 S
Gd1596 C1655 2.828 1_455 S
Gd1597 N1606 2.661 . S
Gd1597 N1610 2.601 1_554 S
Gd1597 O1641 2.362 . S
Gd1597 O1642 2.324 . S
Gd1597 O1646 2.545 1_554 S
Gd1597 O1647 2.606 . S
Gd1597 O1649 2.429 1_554 S
Gd1597 O1650 2.545 1_554 S
Gd1597 O1651 2.412 . S
Gd1597 C1664 2.828 1_554 S
C1598 C1601 1.417 . S
C1598 C1603 1.406 1_554 S
C1598 C1604 1.412 . S
C1599 C1602 1.437 . S
C1599 C1603 1.345 . S
C1599 H1618 0.929 . S
C1600 C1601 1.426 1_556 S
C1600 C1602 1.413 . S
C1600 N1610 1.359 . S
C1601 C1598 1.417 . S
C1601 C1600 1.426 1_554 S
C1601 N1606 1.350 . S
C1602 C1599 1.437 . S
C1602 C1600 1.413 . S
C1602 C1612 1.391 . S
C1603 C1598 1.406 1_556 S
C1603 C1599 1.345 . S
C1603 H1614 0.927 1_556 S
C1604 C1598 1.412 . S
C1604 C1605 1.355 . S
C1604 H1616 0.930 . S
C1605 C1604 1.355 . S
C1605 C1607 1.402 . S
C1605 H1617 0.930 . S
N1606 Gd1597 2.661 . S
N1606 C1601 1.350 . S
N1606 C1607 1.307 . S
C1607 C1605 1.402 . S
C1607 N1606 1.307 . S
C1607 H1608 0.930 . S
H1608 C1607 0.930 . S
C1609 N1610 1.334 . S
C1609 C1611 1.394 . S
C1609 H1613 0.930 . S
N1610 Gd1597 2.601 1_556 S
N1610 C1600 1.359 . S
N1610 C1609 1.334 . S
C1611 C1609 1.394 . S
C1611 C1612 1.359 . S
C1611 H1623 0.930 . S
C1612 C1602 1.391 . S
C1612 C1611 1.359 . S
C1612 H1624 0.929 . S
H1613 C1609 0.930 . S
H1614 C1603 0.927 1_554 S
H1615 C1632 0.931 1_455 S
H1616 C1604 0.930 . S
H1617 C1605 0.930 . S
H1618 C1599 0.929 . S
H1619 C1637 0.930 . S
H1620 C1628 0.930 . S
H1621 C1629 0.930 . S
H1622 C1653 0.929 . S
H1623 C1611 0.930 . S
H1624 C1612 0.929 . S
H1625 C1654 0.930 . S
H1626 C1635 0.930 . S
N1627 Gd1596 2.661 1_655 S
N1627 C1631 1.350 . S
N1627 C1632 1.307 1_554 S
C1628 H1620 0.930 . S
C1628 C1629 1.355 . S
C1628 C1630 1.412 1_556 S
C1629 H1621 0.930 . S
C1629 C1628 1.355 . S
C1629 C1632 1.402 . S
C1630 C1628 1.412 1_554 S
C1630 C1631 1.417 . S
C1630 C1654 1.431 . S
C1631 N1627 1.350 . S
C1631 C1630 1.417 . S
C1631 C1634 1.426 . S
C1632 H1615 0.931 1_655 S
C1632 N1627 1.307 1_556 S
C1632 C1629 1.402 . S
N1633 Gd1596 2.601 . S
N1633 C1634 1.359 1_455 S
N1633 C1637 1.334 . S
C1634 C1631 1.426 . S
C1634 N1633 1.359 1_655 S
C1634 C1638 1.413 . S
C1635 H1626 0.930 . S
C1635 C1636 1.359 1_455 S
C1635 C1637 1.394 . S
C1636 C1635 1.359 1_655 S
C1636 C1638 1.391 . S
C1636 H1639 0.929 . S
C1637 H1619 0.930 . S
C1637 N1633 1.334 . S
C1637 C1635 1.394 . S
C1638 C1634 1.413 . S
C1638 C1636 1.391 . S
C1638 C1653 1.437 . S
H1639 C1636 0.929 . S
O1640 Gd1596 2.545 . S
O1640 C1655 1.258 1_455 S
O1641 Gd1596 2.606 . S
O1641 Gd1597 2.362 . S
O1641 C1652 1.284 . S
O1642 Gd1597 2.324 . S
O1642 C1662 1.254 . S
O1643 Gd1596 2.429 . S
O1643 C1662 1.268 . S
O1644 Gd1596 2.545 . S
O1644 C1652 1.250 . S
O1645 Gd1596 2.412 1_655 S
O1645 C1655 1.252 . S
O1646 Gd1597 2.545 1_556 S
O1646 C1664 1.258 . S
O1647 Gd1596 2.362 . S
O1647 Gd1597 2.606 . S
O1647 C1663 1.284 . S
O1648 Gd1596 2.324 1_556 S
O1648 C1671 1.254 . S
O1649 Gd1597 2.429 1_556 S
O1649 C1671 1.268 . S
O1650 Gd1597 2.545 1_556 S
O1650 C1663 1.250 1_556 S
O1651 Gd1597 2.412 . S
O1651 C1664 1.252 1_554 S
C1652 O1641 1.284 . S
C1652 O1644 1.250 . S
C1653 H1622 0.929 . S
C1653 C1638 1.437 . S
C1653 C1654 1.317 . S
C1654 H1625 0.930 . S
C1654 C1630 1.431 . S
C1654 C1653 1.317 . S
C1655 Gd1596 2.828 1_655 S
C1655 O1640 1.258 1_655 S
C1655 O1645 1.252 . S
C1655 C1656 1.497 . S
C1656 C1655 1.497 . S
C1656 C1657 1.395 . S
C1656 C1658 1.380 . S
C1657 C1656 1.395 . S
C1657 C1660 1.398 . S
C1657 H1672 0.930 . S
C1658 C1656 1.380 . S
C1658 C1659 1.391 . S
C1658 H1673 0.930 . S
C1659 C1658 1.391 . S
C1659 C1661 1.387 . S
C1660 C1657 1.398 . S
C1660 C1661 1.380 . S
C1660 H1674 0.930 . S
C1661 C1659 1.387 . S
C1661 C1660 1.380 . S
C1661 H1675 0.930 . S
C1662 O1642 1.254 . S
C1662 O1643 1.268 . S
C1663 O1647 1.284 . S
C1663 O1650 1.250 1_554 S
C1664 Gd1597 2.828 1_556 S
C1664 O1646 1.258 . S
C1664 O1651 1.252 1_556 S
C1664 C1665 1.497 . S
C1665 C1664 1.497 . S
C1665 C1666 1.395 . S
C1665 C1667 1.371 1_556 S
C1666 C1665 1.395 . S
C1666 C1669 1.398 . S
C1666 H1676 0.930 . S
C1667 C1665 1.371 1_554 S
C1667 C1668 1.389 1_554 S
C1667 H1677 0.942 . S
C1668 C1667 1.389 1_556 S
C1668 C1670 1.387 . S
C1669 C1666 1.398 . S
C1669 C1670 1.380 . S
C1669 H1678 0.930 . S
C1670 C1668 1.387 . S
C1670 C1669 1.380 . S
C1670 H1679 0.930 . S
C1671 O1648 1.254 . S
C1671 O1649 1.268 . S
H1672 C1657 0.930 . S
H1673 C1658 0.930 . S
H1674 C1660 0.930 . S
H1675 C1661 0.930 . S
H1676 C1666 0.930 . S
H1677 C1667 0.942 . S
H1678 C1669 0.930 . S
H1679 C1670 0.930 . S
H1680 C1686 0.930 . S
H1681 C1689 0.930 1_655 S
H1682 C1690 0.930 1_655 S
H1683 C1691 0.929 . S
H1684 C1694 0.930 . S
H1685 C1695 0.930 . S
C1686 H1680 0.930 . S
C1686 C1687 1.355 . S
C1686 C1688 1.415 . S
C1687 C1686 1.355 . S
C1687 C1689 1.419 . S
C1688 C1686 1.415 . S
C1688 C1693 1.425 . S
C1688 C1695 1.409 1_556 S
C1689 H1681 0.930 1_455 S
C1689 C1687 1.419 . S
C1689 C1690 1.362 . S
C1690 H1682 0.930 1_455 S
C1690 C1689 1.362 . S
C1690 C1693 1.409 . S
C1691 H1683 0.929 . S
C1691 C1692 1.355 1_556 S
C1691 C1693 1.415 . S
C1692 C1691 1.355 1_554 S
C1692 C1694 1.419 . S
C1693 C1688 1.425 . S
C1693 C1690 1.409 . S
C1693 C1691 1.415 . S
C1694 H1684 0.930 . S
C1694 C1692 1.419 . S
C1694 C1695 1.362 . S
C1695 H1685 0.930 . S
C1695 C1688 1.409 1_554 S
C1695 C1694 1.362 . S
H1696 C1702 0.930 . S
H1697 C1705 0.930 . S
H1698 C1706 0.930 . S
H1699 C1707 0.930 . S
H1700 C1710 0.930 . S
H1701 C1711 0.930 . S
C1702 H1696 0.930 . S
C1702 C1703 1.355 . S
C1702 C1704 1.415 . S
C1703 C1702 1.355 . S
C1703 C1705 1.419 . S
C1704 C1702 1.415 . S
C1704 C1709 1.425 . S
C1704 C1711 1.409 . S
C1705 H1697 0.930 . S
C1705 C1703 1.419 . S
C1705 C1706 1.362 . S
C1706 H1698 0.930 . S
C1706 C1705 1.362 . S
C1706 C1709 1.409 . S
C1707 H1699 0.930 . S
C1707 C1708 1.355 . S
C1707 C1709 1.415 . S
C1708 C1707 1.355 . S
C1708 C1710 1.419 . S
C1709 C1704 1.425 . S
C1709 C1706 1.409 . S
C1709 C1707 1.415 . S
C1710 H1700 0.930 . S
C1710 C1708 1.419 . S
C1710 C1711 1.362 . S
C1711 H1701 0.930 . S
C1711 C1704 1.409 . S
C1711 C1710 1.362 . S
H1712 C1718 0.930 . S
H1713 C1721 0.930 . S
H1714 C1722 0.930 . S
H1715 C1723 0.930 . S
H1716 C1726 0.930 . S
H1717 C1727 0.930 . S
C1718 H1712 0.930 . S
C1718 C1719 1.355 . S
C1718 C1720 1.415 . S
C1719 C1718 1.355 . S
C1719 C1721 1.419 . S
C1720 C1718 1.415 . S
C1720 C1725 1.425 . S
C1720 C1727 1.409 . S
C1721 H1713 0.930 . S
C1721 C1719 1.419 . S
C1721 C1722 1.362 . S
C1722 H1714 0.930 . S
C1722 C1721 1.362 . S
C1722 C1725 1.409 . S
C1723 H1715 0.930 . S
C1723 C1724 1.355 . S
C1723 C1725 1.415 . S
C1724 C1723 1.355 . S
C1724 C1726 1.419 . S
C1725 C1720 1.425 . S
C1725 C1722 1.409 . S
C1725 C1723 1.415 . S
C1726 H1716 0.930 . S
C1726 C1724 1.419 . S
C1726 C1727 1.362 . S
C1727 H1717 0.930 . S
C1727 C1720 1.409 . S
C1727 C1726 1.362 . S
H1728 C1734 0.930 . S
H1729 C1737 0.930 . S
H1730 C1738 0.930 . S
H1731 C1739 0.930 . S
H1732 C1742 0.930 . S
H1733 C1743 0.930 . S
C1734 H1728 0.930 . S
C1734 C1735 1.355 . S
C1734 C1736 1.415 . S
C1735 C1734 1.355 . S
C1735 C1737 1.419 . S
C1736 C1734 1.415 . S
C1736 C1741 1.425 . S
C1736 C1743 1.409 . S
C1737 H1729 0.930 . S
C1737 C1735 1.419 . S
C1737 C1738 1.362 . S
C1738 H1730 0.930 . S
C1738 C1737 1.362 . S
C1738 C1741 1.409 . S
C1739 H1731 0.930 . S
C1739 C1740 1.355 . S
C1739 C1741 1.415 . S
C1740 C1739 1.355 . S
C1740 C1742 1.419 . S
C1741 C1736 1.425 . S
C1741 C1738 1.409 . S
C1741 C1739 1.415 . S
C1742 H1732 0.930 . S
C1742 C1740 1.419 . S
C1742 C1743 1.362 . S
C1743 H1733 0.930 . S
C1743 C1736 1.409 . S
C1743 C1742 1.362 . S
H1744 C1750 0.920 1_655 S
H1745 C1753 0.930 . S
H1746 C1754 0.930 . S
H1747 C1755 0.930 . S
H1748 C1758 0.930 . S
H1749 C1759 0.930 . S
C1750 H1744 0.920 1_455 S
C1750 C1751 1.355 . S
C1750 C1752 1.415 . S
C1751 C1750 1.355 . S
C1751 C1753 1.419 . S
C1752 C1750 1.415 . S
C1752 C1757 1.425 . S
C1752 C1759 1.409 . S
C1753 H1745 0.930 . S
C1753 C1751 1.419 . S
C1753 C1754 1.362 . S
C1754 H1746 0.930 . S
C1754 C1753 1.362 . S
C1754 C1757 1.409 . S
C1755 H1747 0.930 . S
C1755 C1756 1.355 . S
C1755 C1757 1.415 . S
C1756 C1755 1.355 . S
C1756 C1758 1.419 . S
C1757 C1752 1.425 . S
C1757 C1754 1.409 . S
C1757 C1755 1.415 . S
C1758 H1748 0.930 . S
C1758 C1756 1.419 . S
C1758 C1759 1.362 . S
C1759 H1749 0.930 . S
C1759 C1752 1.409 . S
C1759 C1758 1.362 . S
H1760 C1766 0.930 . S
H1761 C1769 0.930 . S
H1762 C1770 0.930 . S
H1763 C1771 0.930 . S
H1764 C1774 0.930 . S
H1765 C1775 0.930 . S
C1766 H1760 0.930 . S
C1766 C1767 1.355 . S
C1766 C1768 1.415 . S
C1767 C1766 1.355 . S
C1767 C1769 1.419 . S
C1768 C1766 1.415 . S
C1768 C1773 1.425 . S
C1768 C1775 1.409 . S
C1769 H1761 0.930 . S
C1769 C1767 1.419 . S
C1769 C1770 1.362 . S
C1770 H1762 0.930 . S
C1770 C1769 1.362 . S
C1770 C1773 1.409 . S
C1771 H1763 0.930 . S
C1771 C1772 1.355 . S
C1771 C1773 1.415 . S
C1772 C1771 1.355 . S
C1772 C1774 1.419 . S
C1773 C1768 1.425 . S
C1773 C1770 1.409 . S
C1773 C1771 1.415 . S
C1774 H1764 0.930 . S
C1774 C1772 1.419 . S
C1774 C1775 1.362 . S
C1775 H1765 0.930 . S
C1775 C1768 1.409 . S
C1775 C1774 1.362 . S
H1776 C1782 0.930 . S
H1777 C1785 0.930 . S
H1778 C1786 0.930 . S
H1779 C1787 0.930 . S
H1780 C1790 0.930 . S
H1781 C1791 0.930 . S
C1782 H1776 0.930 . S
C1782 C1783 1.355 . S
C1782 C1784 1.415 . S
C1783 C1782 1.355 . S
C1783 C1785 1.419 . S
C1784 C1782 1.415 . S
C1784 C1789 1.425 . S
C1784 C1791 1.409 . S
C1785 H1777 0.930 . S
C1785 C1783 1.419 . S
C1785 C1786 1.362 . S
C1786 H1778 0.930 . S
C1786 C1785 1.362 . S
C1786 C1789 1.409 . S
C1787 H1779 0.930 . S
C1787 C1788 1.355 . S
C1787 C1789 1.415 . S
C1788 C1787 1.355 . S
C1788 C1790 1.419 . S
C1789 C1784 1.425 . S
C1789 C1786 1.409 . S
C1789 C1787 1.415 . S
C1790 H1780 0.930 . S
C1790 C1788 1.419 . S
C1790 C1791 1.362 . S
C1791 H1781 0.930 . S
C1791 C1784 1.409 . S
C1791 C1790 1.362 . S
H1792 C1798 0.930 . S
H1793 C1801 0.930 . S
H1794 C1802 0.930 . S
H1795 C1803 0.930 . S
H1796 C1806 0.930 . S
H1797 C1807 0.930 . S
C1798 H1792 0.930 . S
C1798 C1799 1.355 . S
C1798 C1800 1.415 . S
C1799 C1798 1.355 . S
C1799 C1801 1.419 . S
C1800 C1798 1.415 . S
C1800 C1805 1.425 . S
C1800 C1807 1.409 . S
C1801 H1793 0.930 . S
C1801 C1799 1.419 . S
C1801 C1802 1.362 . S
C1802 H1794 0.930 . S
C1802 C1801 1.362 . S
C1802 C1805 1.409 . S
C1803 H1795 0.930 . S
C1803 C1804 1.355 . S
C1803 C1805 1.415 . S
C1804 C1803 1.355 . S
C1804 C1806 1.419 . S
C1805 C1800 1.425 . S
C1805 C1802 1.409 . S
C1805 C1803 1.415 . S
C1806 H1796 0.930 . S
C1806 C1804 1.419 . S
C1806 C1807 1.362 . S
C1807 H1797 0.930 . S
C1807 C1800 1.409 . S
C1807 C1806 1.362 . S
H1808 C1814 0.930 . S
H1809 C1817 0.930 . S
H1810 C1818 0.930 . S
H1811 C1819 0.930 1_655 S
H1812 C1822 0.930 . S
H1813 C1823 0.930 . S
C1814 H1808 0.930 . S
C1814 C1815 1.355 1_455 S
C1814 C1816 1.415 . S
C1815 C1814 1.355 1_655 S
C1815 C1817 1.419 . S
C1816 C1814 1.415 . S
C1816 C1821 1.425 1_455 S
C1816 C1823 1.409 . S
C1817 H1809 0.930 . S
C1817 C1815 1.419 . S
C1817 C1818 1.362 . S
C1818 H1810 0.930 . S
C1818 C1817 1.362 . S
C1818 C1821 1.409 . S
C1819 H1811 0.930 1_455 S
C1819 C1820 1.355 . S
C1819 C1821 1.415 1_455 S
C1820 C1819 1.355 . S
C1820 C1822 1.419 . S
C1821 C1816 1.425 1_655 S
C1821 C1818 1.409 . S
C1821 C1819 1.415 1_655 S
C1822 H1812 0.930 . S
C1822 C1820 1.419 . S
C1822 C1823 1.362 . S
C1823 H1813 0.930 . S
C1823 C1816 1.409 . S
C1823 C1822 1.362 . S
H1824 C1830 0.930 . S
H1825 C1833 0.930 . S
H1826 C1834 0.930 . S
H1827 C1835 0.930 . S
H1828 C1838 0.930 . S
H1829 C1839 0.930 . S
C1830 H1824 0.930 . S
C1830 C1831 1.355 . S
C1830 C1832 1.415 . S
C1831 C1830 1.355 . S
C1831 C1833 1.419 . S
C1832 C1830 1.415 . S
C1832 C1837 1.425 . S
C1832 C1839 1.409 . S
C1833 H1825 0.930 . S
C1833 C1831 1.419 . S
C1833 C1834 1.362 . S
C1834 H1826 0.930 . S
C1834 C1833 1.362 . S
C1834 C1837 1.409 . S
C1835 H1827 0.930 . S
C1835 C1836 1.355 . S
C1835 C1837 1.415 . S
C1836 C1835 1.355 . S
C1836 C1838 1.419 . S
C1837 C1832 1.425 . S
C1837 C1834 1.409 . S
C1837 C1835 1.415 . S
C1838 H1828 0.930 . S
C1838 C1836 1.419 . S
C1838 C1839 1.362 . S
C1839 H1829 0.930 . S
C1839 C1832 1.409 . S
C1839 C1838 1.362 . S
H1840 C1846 0.930 . S
H1841 C1849 0.930 . S
H1842 C1850 0.930 . S
H1843 C1851 0.930 . S
H1844 C1854 0.930 . S
H1845 C1855 0.930 . S
C1846 H1840 0.930 . S
C1846 C1847 1.355 . S
C1846 C1848 1.415 . S
C1847 C1846 1.355 . S
C1847 C1849 1.419 . S
C1848 C1846 1.415 . S
C1848 C1853 1.425 . S
C1848 C1855 1.409 . S
C1849 H1841 0.930 . S
C1849 C1847 1.419 . S
C1849 C1850 1.362 . S
C1850 H1842 0.930 . S
C1850 C1849 1.362 . S
C1850 C1853 1.409 . S
C1851 H1843 0.930 . S
C1851 C1852 1.355 . S
C1851 C1853 1.415 . S
C1852 C1851 1.355 . S
C1852 C1854 1.419 . S
C1853 C1848 1.425 . S
C1853 C1850 1.409 . S
C1853 C1851 1.415 . S
C1854 H1844 0.930 . S
C1854 C1852 1.419 . S
C1854 C1855 1.362 . S
C1855 H1845 0.930 . S
C1855 C1848 1.409 . S
C1855 C1854 1.362 . S
H1856 C1862 0.930 . S
H1857 C1865 0.930 . S
H1858 C1866 0.930 . S
H1859 C1867 0.930 . S
H1860 C1870 0.930 . S
H1861 C1871 0.930 . S
C1862 H1856 0.930 . S
C1862 C1863 1.355 . S
C1862 C1864 1.415 . S
C1863 C1862 1.355 . S
C1863 C1865 1.419 . S
C1864 C1862 1.415 . S
C1864 C1869 1.425 . S
C1864 C1871 1.409 . S
C1865 H1857 0.930 . S
C1865 C1863 1.419 . S
C1865 C1866 1.362 . S
C1866 H1858 0.930 . S
C1866 C1865 1.362 . S
C1866 C1869 1.409 . S
C1867 H1859 0.930 . S
C1867 C1868 1.355 . S
C1867 C1869 1.415 . S
C1868 C1867 1.355 . S
C1868 C1870 1.419 . S
C1869 C1864 1.425 . S
C1869 C1866 1.409 . S
C1869 C1867 1.415 . S
C1870 H1860 0.930 . S
C1870 C1868 1.419 . S
C1870 C1871 1.362 . S
C1871 H1861 0.930 . S
C1871 C1864 1.409 . S
C1871 C1870 1.362 . S
H1872 C1878 0.930 . S
H1873 C1881 0.930 . S
H1874 C1882 0.930 . S
H1875 C1883 0.930 . S
H1876 C1886 0.930 . S
H1877 C1887 0.930 . S
C1878 H1872 0.930 . S
C1878 C1879 1.355 . S
C1878 C1880 1.415 1_655 S
C1879 C1878 1.355 . S
C1879 C1881 1.419 1_655 S
C1880 C1878 1.415 1_455 S
C1880 C1885 1.425 . S
C1880 C1887 1.409 1_455 S
C1881 H1873 0.930 . S
C1881 C1879 1.419 1_455 S
C1881 C1882 1.362 . S
C1882 H1874 0.930 . S
C1882 C1881 1.362 . S
C1882 C1885 1.409 . S
C1883 H1875 0.930 . S
C1883 C1884 1.355 . S
C1883 C1885 1.415 . S
C1884 C1883 1.355 . S
C1884 C1886 1.419 . S
C1885 C1880 1.425 . S
C1885 C1882 1.409 . S
C1885 C1883 1.415 . S
C1886 H1876 0.930 . S
C1886 C1884 1.419 . S
C1886 C1887 1.362 1_455 S
C1887 H1877 0.930 . S
C1887 C1880 1.409 1_655 S
C1887 C1886 1.362 1_655 S
H1888 C1894 0.930 . S
H1889 C1897 0.930 . S
H1890 C1898 0.930 . S
H1891 C1899 0.930 . S
H1892 C1902 0.930 . S
H1893 C1903 0.930 . S
C1894 H1888 0.930 . S
C1894 C1895 1.355 . S
C1894 C1896 1.415 . S
C1895 C1894 1.355 . S
C1895 C1897 1.419 . S
C1896 C1894 1.415 . S
C1896 C1901 1.425 . S
C1896 C1903 1.409 . S
C1897 H1889 0.930 . S
C1897 C1895 1.419 . S
C1897 C1898 1.362 . S
C1898 H1890 0.930 . S
C1898 C1897 1.362 . S
C1898 C1901 1.409 . S
C1899 H1891 0.930 . S
C1899 C1900 1.355 . S
C1899 C1901 1.415 . S
C1900 C1899 1.355 . S
C1900 C1902 1.419 . S
C1901 C1896 1.425 . S
C1901 C1898 1.409 . S
C1901 C1899 1.415 . S
C1902 H1892 0.930 . S
C1902 C1900 1.419 . S
C1902 C1903 1.362 . S
C1903 H1893 0.930 . S
C1903 C1896 1.409 . S
C1903 C1902 1.362 . S
H1904 C1910 0.930 . S
H1905 C1913 0.930 . S
H1906 C1914 0.930 . S
H1907 C1915 0.930 . S
H1908 C1918 0.930 . S
H1909 C1919 0.930 . S
C1910 H1904 0.930 . S
C1910 C1911 1.355 . S
C1910 C1912 1.415 . S
C1911 C1910 1.355 . S
C1911 C1913 1.419 . S
C1912 C1910 1.415 . S
C1912 C1917 1.425 . S
C1912 C1919 1.409 . S
C1913 H1905 0.930 . S
C1913 C1911 1.419 . S
C1913 C1914 1.362 . S
C1914 H1906 0.930 . S
C1914 C1913 1.362 . S
C1914 C1917 1.409 . S
C1915 H1907 0.930 . S
C1915 C1916 1.355 . S
C1915 C1917 1.415 . S
C1916 C1915 1.355 . S
C1916 C1918 1.419 . S
C1917 C1912 1.425 . S
C1917 C1914 1.409 . S
C1917 C1915 1.415 . S
C1918 H1908 0.930 . S
C1918 C1916 1.419 . S
C1918 C1919 1.362 . S
C1919 H1909 0.930 . S
C1919 C1912 1.409 . S
C1919 C1918 1.362 . S
H1920 C1926 0.930 . S
H1921 C1929 0.930 . S
H1922 C1930 0.930 . S
H1923 C1931 0.930 . S
H1924 C1934 0.930 . S
H1925 C1935 0.930 . S
C1926 H1920 0.930 . S
C1926 C1927 1.355 . S
C1926 C1928 1.415 . S
C1927 C1926 1.355 . S
C1927 C1929 1.419 . S
C1928 C1926 1.415 . S
C1928 C1933 1.425 . S
C1928 C1935 1.409 . S
C1929 H1921 0.930 . S
C1929 C1927 1.419 . S
C1929 C1930 1.362 . S
C1930 H1922 0.930 . S
C1930 C1929 1.362 . S
C1930 C1933 1.409 . S
C1931 H1923 0.930 . S
C1931 C1932 1.355 . S
C1931 C1933 1.415 . S
C1932 C1931 1.355 . S
C1932 C1934 1.419 . S
C1933 C1928 1.425 . S
C1933 C1930 1.409 . S
C1933 C1931 1.415 . S
C1934 H1924 0.930 . S
C1934 C1932 1.419 . S
C1934 C1935 1.362 . S
C1935 H1925 0.930 . S
C1935 C1928 1.409 . S
C1935 C1934 1.362 . S
H1936 C1942 0.930 1_556 S
H1937 C1945 0.930 1_545 S
H1938 C1946 0.930 . S
H1939 C1947 0.930 . S
H1940 C1950 0.930 . S
H1941 C1951 0.941 . S
C1942 H1936 0.930 1_554 S
C1942 C1943 1.355 . S
C1942 C1944 1.415 . S
C1943 C1942 1.355 . S
C1943 C1945 1.419 . S
C1944 C1942 1.415 . S
C1944 C1949 1.402 1_565 S
C1944 C1951 1.409 . S
C1945 H1937 0.930 1_565 S
C1945 C1943 1.419 . S
C1945 C1946 1.362 1_565 S
C1946 H1938 0.930 . S
C1946 C1945 1.362 1_545 S
C1946 C1949 1.414 . S
C1947 H1939 0.930 . S
C1947 C1948 1.355 . S
C1947 C1949 1.433 . S
C1948 C1947 1.355 . S
C1948 C1950 1.419 1_545 S
C1949 C1944 1.402 1_545 S
C1949 C1946 1.414 . S
C1949 C1947 1.433 . S
C1950 H1940 0.930 . S
C1950 C1948 1.419 1_565 S
C1950 C1951 1.362 . S
C1951 H1941 0.941 . S
C1951 C1944 1.409 . S
C1951 C1950 1.362 . S
H1952 C1958 0.930 . S
H1953 C1961 0.930 . S
H1954 C1962 0.930 . S
H1955 C1963 0.930 . S
H1956 C1966 0.930 . S
H1957 C1967 0.930 . S
C1958 H1952 0.930 . S
C1958 C1959 1.355 . S
C1958 C1960 1.415 . S
C1959 C1958 1.355 . S
C1959 C1961 1.419 1_556 S
C1960 C1958 1.415 . S
C1960 C1965 1.426 . S
C1960 C1967 1.409 . S
C1961 H1953 0.930 . S
C1961 C1959 1.419 1_554 S
C1961 C1962 1.362 . S
C1962 H1954 0.930 . S
C1962 C1961 1.362 . S
C1962 C1965 1.409 1_554 S
C1963 H1955 0.930 . S
C1963 C1964 1.355 1_554 S
C1963 C1965 1.414 1_554 S
C1964 C1963 1.355 1_556 S
C1964 C1966 1.419 . S
C1965 C1960 1.426 . S
C1965 C1962 1.409 1_556 S
C1965 C1963 1.414 1_556 S
C1966 H1956 0.930 . S
C1966 C1964 1.419 . S
C1966 C1967 1.362 . S
C1967 H1957 0.930 . S
C1967 C1960 1.409 . S
C1967 C1966 1.362 . S
H1968 C1974 0.930 . S
H1969 C1977 0.930 . S
H1970 C1978 0.930 . S
H1971 C1979 0.930 . S
H1972 C1982 0.930 . S
H1973 C1983 0.930 . S
C1974 H1968 0.930 . S
C1974 C1975 1.355 . S
C1974 C1976 1.415 . S
C1975 C1974 1.355 . S
C1975 C1977 1.419 . S
C1976 C1974 1.415 . S
C1976 C1981 1.425 . S
C1976 C1983 1.409 . S
C1977 H1969 0.930 . S
C1977 C1975 1.419 . S
C1977 C1978 1.362 . S
C1978 H1970 0.930 . S
C1978 C1977 1.362 . S
C1978 C1981 1.409 . S
C1979 H1971 0.930 . S
C1979 C1980 1.355 . S
C1979 C1981 1.415 . S
C1980 C1979 1.355 . S
C1980 C1982 1.419 . S
C1981 C1976 1.425 . S
C1981 C1978 1.409 . S
C1981 C1979 1.415 . S
C1982 H1972 0.930 . S
C1982 C1980 1.419 . S
C1982 C1983 1.362 . S
C1983 H1973 0.930 . S
C1983 C1976 1.409 . S
C1983 C1982 1.362 . S
H1984 C1990 0.930 . S
H1985 C1993 0.930 . S
H1986 C1994 0.930 . S
H1987 C1995 0.963 . S
H1988 C1998 0.929 1_455 S
H1989 C1999 0.930 . S
C1990 H1984 0.930 . S
C1990 C1991 1.355 . S
C1990 C1992 1.415 . S
C1991 C1990 1.355 . S
C1991 C1993 1.419 . S
C1992 C1990 1.415 . S
C1992 C1997 1.425 . S
C1992 C1999 1.409 . S
C1993 H1985 0.930 . S
C1993 C1991 1.419 . S
C1993 C1994 1.362 . S
C1994 H1986 0.930 . S
C1994 C1993 1.362 . S
C1994 C1997 1.409 . S
C1995 H1987 0.963 . S
C1995 C1996 1.355 1_655 S
C1995 C1997 1.415 . S
C1996 C1995 1.355 1_455 S
C1996 C1998 1.419 1_455 S
C1997 C1992 1.425 . S
C1997 C1994 1.409 . S
C1997 C1995 1.415 . S
C1998 H1988 0.929 1_655 S
C1998 C1996 1.419 1_655 S
C1998 C1999 1.362 . S
C1999 H1989 0.930 . S
C1999 C1992 1.409 . S
C1999 C1998 1.362 . S
H2000 C2006 0.930 . S
H2001 C2009 0.930 . S
H2002 C2010 0.930 . S
H2003 C2011 0.930 . S
H2004 C2014 0.930 . S
H2005 C2015 0.930 . S
C2006 H2000 0.930 . S
C2006 C2007 1.355 . S
C2006 C2008 1.415 . S
C2007 C2006 1.355 . S
C2007 C2009 1.419 . S
C2008 C2006 1.415 . S
C2008 C2013 1.425 . S
C2008 C2015 1.409 . S
C2009 H2001 0.930 . S
C2009 C2007 1.419 . S
C2009 C2010 1.362 . S
C2010 H2002 0.930 . S
C2010 C2009 1.362 . S
C2010 C2013 1.409 . S
C2011 H2003 0.930 . S
C2011 C2012 1.355 . S
C2011 C2013 1.415 . S
C2012 C2011 1.355 . S
C2012 C2014 1.419 . S
C2013 C2008 1.425 . S
C2013 C2010 1.409 . S
C2013 C2011 1.415 . S
C2014 H2004 0.930 . S
C2014 C2012 1.419 . S
C2014 C2015 1.362 . S
C2015 H2005 0.930 . S
C2015 C2008 1.409 . S
C2015 C2014 1.362 . S
H2016 C2022 0.930 . S
H2017 C2025 0.930 . S
H2018 C2026 0.930 . S
H2019 C2027 0.930 . S
H2020 C2030 0.930 . S
H2021 C2031 0.930 . S
C2022 H2016 0.930 . S
C2022 C2023 1.355 . S
C2022 C2024 1.415 . S
C2023 C2022 1.355 . S
C2023 C2025 1.419 . S
C2024 C2022 1.415 . S
C2024 C2029 1.425 . S
C2024 C2031 1.409 . S
C2025 H2017 0.930 . S
C2025 C2023 1.419 . S
C2025 C2026 1.362 . S
C2026 H2018 0.930 . S
C2026 C2025 1.362 . S
C2026 C2029 1.409 . S
C2027 H2019 0.930 . S
C2027 C2028 1.355 . S
C2027 C2029 1.415 . S
C2028 C2027 1.355 . S
C2028 C2030 1.419 . S
C2029 C2024 1.425 . S
C2029 C2026 1.409 . S
C2029 C2027 1.415 . S
C2030 H2020 0.930 . S
C2030 C2028 1.419 . S
C2030 C2031 1.362 . S
C2031 H2021 0.930 . S
C2031 C2024 1.409 . S
C2031 C2030 1.362 . S
H2032 C2038 0.930 . S
H2033 C2041 0.930 . S
H2034 C2042 0.930 . S
H2035 C2043 0.930 . S
H2036 C2046 0.930 . S
H2037 C2047 0.930 . S
C2038 H2032 0.930 . S
C2038 C2039 1.355 . S
C2038 C2040 1.415 . S
C2039 C2038 1.355 . S
C2039 C2041 1.419 . S
C2040 C2038 1.415 . S
C2040 C2045 1.425 . S
C2040 C2047 1.409 . S
C2041 H2033 0.930 . S
C2041 C2039 1.419 . S
C2041 C2042 1.362 . S
C2042 H2034 0.930 . S
C2042 C2041 1.362 . S
C2042 C2045 1.409 . S
C2043 H2035 0.930 . S
C2043 C2044 1.355 . S
C2043 C2045 1.415 . S
C2044 C2043 1.355 . S
C2044 C2046 1.419 . S
C2045 C2040 1.425 . S
C2045 C2042 1.409 . S
C2045 C2043 1.415 . S
C2046 H2036 0.930 . S
C2046 C2044 1.419 . S
C2046 C2047 1.362 . S
C2047 H2037 0.930 . S
C2047 C2040 1.409 . S
C2047 C2046 1.362 . S
H2048 C2054 0.930 . S
H2049 C2057 0.930 . S
H2050 C2058 0.930 . S
H2051 C2059 0.930 . S
H2052 C2062 0.930 . S
H2053 C2063 0.930 . S
C2054 H2048 0.930 . S
C2054 C2055 1.355 . S
C2054 C2056 1.415 . S
C2055 C2054 1.355 . S
C2055 C2057 1.419 . S
C2056 C2054 1.415 . S
C2056 C2061 1.425 . S
C2056 C2063 1.409 . S
C2057 H2049 0.930 . S
C2057 C2055 1.419 . S
C2057 C2058 1.362 . S
C2058 H2050 0.930 . S
C2058 C2057 1.362 . S
C2058 C2061 1.409 . S
C2059 H2051 0.930 . S
C2059 C2060 1.355 . S
C2059 C2061 1.415 . S
C2060 C2059 1.355 . S
C2060 C2062 1.419 . S
C2061 C2056 1.425 . S
C2061 C2058 1.409 . S
C2061 C2059 1.415 . S
C2062 H2052 0.930 . S
C2062 C2060 1.419 . S
C2062 C2063 1.362 . S
C2063 H2053 0.930 . S
C2063 C2056 1.409 . S
C2063 C2062 1.362 . S
H2064 C2070 0.930 . S
H2065 C2073 0.930 . S
H2066 C2074 0.930 . S
H2067 C2075 0.930 . S
H2068 C2078 0.930 . S
H2069 C2079 0.930 . S
C2070 H2064 0.930 . S
C2070 C2071 1.355 . S
C2070 C2072 1.415 . S
C2071 C2070 1.355 . S
C2071 C2073 1.419 . S
C2072 C2070 1.415 . S
C2072 C2077 1.425 . S
C2072 C2079 1.409 . S
C2073 H2065 0.930 . S
C2073 C2071 1.419 . S
C2073 C2074 1.362 . S
C2074 H2066 0.930 . S
C2074 C2073 1.362 . S
C2074 C2077 1.409 . S
C2075 H2067 0.930 . S
C2075 C2076 1.355 . S
C2075 C2077 1.415 . S
C2076 C2075 1.355 . S
C2076 C2078 1.419 . S
C2077 C2072 1.425 . S
C2077 C2074 1.409 . S
C2077 C2075 1.415 . S
C2078 H2068 0.930 . S
C2078 C2076 1.419 . S
C2078 C2079 1.362 . S
C2079 H2069 0.930 . S
C2079 C2072 1.409 . S
C2079 C2078 1.362 . S
H2080 C2086 0.930 . S
H2081 C2089 0.930 . S
H2082 C2090 0.930 . S
H2083 C2091 0.930 . S
H2084 C2094 0.930 . S
H2085 C2095 0.930 . S
C2086 H2080 0.930 . S
C2086 C2087 1.355 . S
C2086 C2088 1.415 . S
C2087 C2086 1.355 . S
C2087 C2089 1.419 . S
C2088 C2086 1.415 . S
C2088 C2093 1.425 . S
C2088 C2095 1.409 . S
C2089 H2081 0.930 . S
C2089 C2087 1.419 . S
C2089 C2090 1.362 . S
C2090 H2082 0.930 . S
C2090 C2089 1.362 . S
C2090 C2093 1.409 . S
C2091 H2083 0.930 . S
C2091 C2092 1.355 . S
C2091 C2093 1.415 . S
C2092 C2091 1.355 . S
C2092 C2094 1.419 . S
C2093 C2088 1.425 . S
C2093 C2090 1.409 . S
C2093 C2091 1.415 . S
C2094 H2084 0.930 . S
C2094 C2092 1.419 . S
C2094 C2095 1.362 . S
C2095 H2085 0.930 . S
C2095 C2088 1.409 . S
C2095 C2094 1.362 . S
H2096 C2102 0.930 . S
H2097 C2105 0.930 . S
H2098 C2106 0.930 . S
H2099 C2107 0.930 . S
H2100 C2110 0.930 . S
H2101 C2111 0.930 . S
C2102 H2096 0.930 . S
C2102 C2103 1.355 . S
C2102 C2104 1.415 . S
C2103 C2102 1.355 . S
C2103 C2105 1.419 . S
C2104 C2102 1.415 . S
C2104 C2109 1.425 . S
C2104 C2111 1.409 . S
C2105 H2097 0.930 . S
C2105 C2103 1.419 . S
C2105 C2106 1.362 . S
C2106 H2098 0.930 . S
C2106 C2105 1.362 . S
C2106 C2109 1.409 . S
C2107 H2099 0.930 . S
C2107 C2108 1.355 . S
C2107 C2109 1.415 . S
C2108 C2107 1.355 . S
C2108 C2110 1.419 . S
C2109 C2104 1.425 . S
C2109 C2106 1.409 . S
C2109 C2107 1.415 . S
C2110 H2100 0.930 . S
C2110 C2108 1.419 . S
C2110 C2111 1.362 . S
C2111 H2101 0.930 . S
C2111 C2104 1.409 . S
C2111 C2110 1.362 . S
H2112 C2118 0.930 . S
H2113 C2121 0.930 . S
H2114 C2122 0.930 . S
H2115 C2123 0.930 . S
H2116 C2126 0.930 . S
H2117 C2127 0.930 . S
C2118 H2112 0.930 . S
C2118 C2119 1.355 . S
C2118 C2120 1.415 . S
C2119 C2118 1.355 . S
C2119 C2121 1.419 . S
C2120 C2118 1.415 . S
C2120 C2125 1.425 . S
C2120 C2127 1.409 . S
C2121 H2113 0.930 . S
C2121 C2119 1.419 . S
C2121 C2122 1.362 . S
C2122 H2114 0.930 . S
C2122 C2121 1.362 . S
C2122 C2125 1.409 . S
C2123 H2115 0.930 . S
C2123 C2124 1.355 . S
C2123 C2125 1.415 . S
C2124 C2123 1.355 . S
C2124 C2126 1.419 . S
C2125 C2120 1.425 . S
C2125 C2122 1.409 . S
C2125 C2123 1.415 . S
C2126 H2116 0.930 . S
C2126 C2124 1.419 . S
C2126 C2127 1.362 . S
C2127 H2117 0.930 . S
C2127 C2120 1.409 . S
C2127 C2126 1.362 . S
H2128 C2134 0.930 . S
H2129 C2137 0.930 . S
H2130 C2138 0.930 . S
H2131 C2139 0.930 . S
H2132 C2142 0.930 . S
H2133 C2143 0.930 . S
C2134 H2128 0.930 . S
C2134 C2135 1.355 . S
C2134 C2136 1.415 . S
C2135 C2134 1.355 . S
C2135 C2137 1.419 . S
C2136 C2134 1.415 . S
C2136 C2141 1.425 . S
C2136 C2143 1.409 . S
C2137 H2129 0.930 . S
C2137 C2135 1.419 . S
C2137 C2138 1.362 . S
C2138 H2130 0.930 . S
C2138 C2137 1.362 . S
C2138 C2141 1.409 . S
C2139 H2131 0.930 . S
C2139 C2140 1.355 . S
C2139 C2141 1.415 . S
C2140 C2139 1.355 . S
C2140 C2142 1.419 . S
C2141 C2136 1.425 . S
C2141 C2138 1.409 . S
C2141 C2139 1.415 . S
C2142 H2132 0.930 . S
C2142 C2140 1.419 . S
C2142 C2143 1.362 . S
C2143 H2133 0.930 . S
C2143 C2136 1.409 . S
C2143 C2142 1.362 . S
H2144 C2150 0.930 . S
H2145 C2153 0.930 . S
H2146 C2154 0.930 . S
H2147 C2155 0.930 . S
H2148 C2158 0.930 . S
H2149 C2159 0.930 . S
C2150 H2144 0.930 . S
C2150 C2151 1.355 . S
C2150 C2152 1.415 . S
C2151 C2150 1.355 . S
C2151 C2153 1.419 . S
C2152 C2150 1.415 . S
C2152 C2157 1.425 . S
C2152 C2159 1.409 . S
C2153 H2145 0.930 . S
C2153 C2151 1.419 . S
C2153 C2154 1.362 . S
C2154 H2146 0.930 . S
C2154 C2153 1.362 . S
C2154 C2157 1.409 . S
C2155 H2147 0.930 . S
C2155 C2156 1.355 . S
C2155 C2157 1.415 . S
C2156 C2155 1.355 . S
C2156 C2158 1.419 . S
C2157 C2152 1.425 . S
C2157 C2154 1.409 . S
C2157 C2155 1.415 . S
C2158 H2148 0.930 . S
C2158 C2156 1.419 . S
C2158 C2159 1.362 . S
C2159 H2149 0.930 . S
C2159 C2152 1.409 . S
C2159 C2158 1.362 . S
H2160 C2166 0.930 . S
H2161 C2169 0.930 . S
H2162 C2170 0.930 . S
H2163 C2171 0.930 . S
H2164 C2174 0.930 . S
H2165 C2175 0.930 . S
C2166 H2160 0.930 . S
C2166 C2167 1.355 . S
C2166 C2168 1.415 . S
C2167 C2166 1.355 . S
C2167 C2169 1.419 . S
C2168 C2166 1.415 . S
C2168 C2173 1.425 . S
C2168 C2175 1.409 . S
C2169 H2161 0.930 . S
C2169 C2167 1.419 . S
C2169 C2170 1.362 . S
C2170 H2162 0.930 . S
C2170 C2169 1.362 . S
C2170 C2173 1.409 . S
C2171 H2163 0.930 . S
C2171 C2172 1.355 . S
C2171 C2173 1.415 . S
C2172 C2171 1.355 . S
C2172 C2174 1.419 . S
C2173 C2168 1.425 . S
C2173 C2170 1.409 . S
C2173 C2171 1.415 . S
C2174 H2164 0.930 . S
C2174 C2172 1.419 . S
C2174 C2175 1.362 . S
C2175 H2165 0.930 . S
C2175 C2168 1.409 . S
C2175 C2174 1.362 . S
H2176 C2182 0.930 . S
H2177 C2185 0.930 . S
H2178 C2186 0.930 . S
H2179 C2187 0.930 . S
H2180 C2190 0.930 . S
H2181 C2191 0.930 . S
C2182 H2176 0.930 . S
C2182 C2183 1.355 . S
C2182 C2184 1.415 . S
C2183 C2182 1.355 . S
C2183 C2185 1.419 . S
C2184 C2182 1.415 . S
C2184 C2189 1.425 . S
C2184 C2191 1.409 . S
C2185 H2177 0.930 . S
C2185 C2183 1.419 . S
C2185 C2186 1.362 . S
C2186 H2178 0.930 . S
C2186 C2185 1.362 . S
C2186 C2189 1.409 . S
C2187 H2179 0.930 . S
C2187 C2188 1.355 . S
C2187 C2189 1.415 . S
C2188 C2187 1.355 . S
C2188 C2190 1.419 . S
C2189 C2184 1.425 . S
C2189 C2186 1.409 . S
C2189 C2187 1.415 . S
C2190 H2180 0.930 . S
C2190 C2188 1.419 . S
C2190 C2191 1.362 . S
C2191 H2181 0.930 . S
C2191 C2184 1.409 . S
C2191 C2190 1.362 . S
H2192 C2198 0.923 1_565 S
H2193 C2201 0.930 . S
H2194 C2202 0.930 . S
H2195 C2203 0.930 . S
H2196 C2206 0.917 1_565 S
H2197 C2207 0.931 . S
C2198 H2192 0.923 1_545 S
C2198 C2199 1.360 . S
C2198 C2200 1.416 . S
C2199 C2198 1.360 . S
C2199 C2201 1.419 . S
C2200 C2198 1.416 . S
C2200 C2205 1.425 . S
C2200 C2207 1.409 1_545 S
C2201 H2193 0.930 . S
C2201 C2199 1.419 . S
C2201 C2202 1.362 . S
C2202 H2194 0.930 . S
C2202 C2201 1.362 . S
C2202 C2205 1.409 . S
C2203 H2195 0.930 . S
C2203 C2204 1.355 . S
C2203 C2205 1.415 . S
C2204 C2203 1.355 . S
C2204 C2206 1.419 . S
C2205 C2200 1.425 . S
C2205 C2202 1.409 . S
C2205 C2203 1.415 . S
C2206 H2196 0.917 1_545 S
C2206 C2204 1.419 . S
C2206 C2207 1.362 1_545 S
C2207 H2197 0.931 . S
C2207 C2200 1.409 1_565 S
C2207 C2206 1.362 1_565 S
H2208 C2214 0.930 . S
H2209 C2217 0.930 . S
H2210 C2218 0.930 . S
H2211 C2219 0.930 . S
H2212 C2222 0.930 . S
H2213 C2223 0.930 . S
C2214 H2208 0.930 . S
C2214 C2215 1.355 . S
C2214 C2216 1.415 . S
C2215 C2214 1.355 . S
C2215 C2217 1.419 . S
C2216 C2214 1.415 . S
C2216 C2221 1.425 . S
C2216 C2223 1.409 . S
C2217 H2209 0.930 . S
C2217 C2215 1.419 . S
C2217 C2218 1.362 . S
C2218 H2210 0.930 . S
C2218 C2217 1.362 . S
C2218 C2221 1.409 . S
C2219 H2211 0.930 . S
C2219 C2220 1.355 . S
C2219 C2221 1.415 . S
C2220 C2219 1.355 . S
C2220 C2222 1.419 . S
C2221 C2216 1.425 . S
C2221 C2218 1.409 . S
C2221 C2219 1.415 . S
C2222 H2212 0.930 . S
C2222 C2220 1.419 . S
C2222 C2223 1.362 . S
C2223 H2213 0.930 . S
C2223 C2216 1.409 . S
C2223 C2222 1.362 . S
H2224 C2230 0.919 1_565 S
H2225 C2233 0.930 . S
H2226 C2234 0.930 . S
H2227 C2235 0.930 . S
H2228 C2238 0.930 . S
H2229 C2239 0.930 1_565 S
C2230 H2224 0.919 1_545 S
C2230 C2231 1.355 . S
C2230 C2232 1.415 . S
C2231 C2230 1.355 . S
C2231 C2233 1.419 . S
C2232 C2230 1.415 . S
C2232 C2237 1.425 . S
C2232 C2239 1.409 . S
C2233 H2225 0.930 . S
C2233 C2231 1.419 . S
C2233 C2234 1.362 . S
C2234 H2226 0.930 . S
C2234 C2233 1.362 . S
C2234 C2237 1.409 . S
C2235 H2227 0.930 . S
C2235 C2236 1.355 . S
C2235 C2237 1.415 . S
C2236 C2235 1.355 . S
C2236 C2238 1.419 . S
C2237 C2232 1.425 . S
C2237 C2234 1.409 . S
C2237 C2235 1.415 . S
C2238 H2228 0.930 . S
C2238 C2236 1.419 . S
C2238 C2239 1.362 . S
C2239 H2229 0.930 1_545 S
C2239 C2232 1.409 . S
C2239 C2238 1.362 . S
H2240 C2246 0.930 . S
H2241 C2249 0.930 . S
H2242 C2250 0.930 . S
H2243 C2251 0.930 . S
H2244 C2254 0.930 . S
H2245 C2255 0.930 . S
C2246 H2240 0.930 . S
C2246 C2247 1.355 . S
C2246 C2248 1.415 . S
C2247 C2246 1.355 . S
C2247 C2249 1.419 . S
C2248 C2246 1.415 . S
C2248 C2253 1.425 . S
C2248 C2255 1.409 . S
C2249 H2241 0.930 . S
C2249 C2247 1.419 . S
C2249 C2250 1.362 . S
C2250 H2242 0.930 . S
C2250 C2249 1.362 . S
C2250 C2253 1.409 . S
C2251 H2243 0.930 . S
C2251 C2252 1.355 . S
C2251 C2253 1.415 . S
C2252 C2251 1.355 . S
C2252 C2254 1.419 . S
C2253 C2248 1.425 . S
C2253 C2250 1.409 . S
C2253 C2251 1.415 . S
C2254 H2244 0.930 . S
C2254 C2252 1.419 . S
C2254 C2255 1.362 . S
C2255 H2245 0.930 . S
C2255 C2248 1.409 . S
C2255 C2254 1.362 . S
H2256 C2262 0.930 . S
H2257 C2265 0.930 . S
H2258 C2266 0.930 . S
H2259 C2267 0.930 . S
H2260 C2270 0.930 . S
H2261 C2271 0.930 . S
C2262 H2256 0.930 . S
C2262 C2263 1.355 . S
C2262 C2264 1.415 . S
C2263 C2262 1.355 . S
C2263 C2265 1.419 1_565 S
C2264 C2262 1.415 . S
C2264 C2269 1.425 1_565 S
C2264 C2271 1.409 . S
C2265 H2257 0.930 . S
C2265 C2263 1.419 1_545 S
C2265 C2266 1.362 . S
C2266 H2258 0.930 . S
C2266 C2265 1.362 . S
C2266 C2269 1.409 . S
C2267 H2259 0.930 . S
C2267 C2268 1.355 . S
C2267 C2269 1.415 . S
C2268 C2267 1.355 . S
C2268 C2270 1.419 1_545 S
C2269 C2264 1.425 1_545 S
C2269 C2266 1.409 . S
C2269 C2267 1.415 . S
C2270 H2260 0.930 . S
C2270 C2268 1.419 1_565 S
C2270 C2271 1.362 . S
C2271 H2261 0.930 . S
C2271 C2264 1.409 . S
C2271 C2270 1.362 . S
H2272 C2278 0.930 . S
H2273 C2281 0.930 . S
H2274 C2282 0.930 . S
H2275 C2283 0.930 . S
H2276 C2286 0.930 . S
H2277 C2287 0.930 . S
C2278 H2272 0.930 . S
C2278 C2279 1.355 . S
C2278 C2280 1.415 . S
C2279 C2278 1.355 . S
C2279 C2281 1.419 . S
C2280 C2278 1.415 . S
C2280 C2285 1.425 . S
C2280 C2287 1.409 . S
C2281 H2273 0.930 . S
C2281 C2279 1.419 . S
C2281 C2282 1.362 . S
C2282 H2274 0.930 . S
C2282 C2281 1.362 . S
C2282 C2285 1.409 . S
C2283 H2275 0.930 . S
C2283 C2284 1.355 . S
C2283 C2285 1.415 . S
C2284 C2283 1.355 . S
C2284 C2286 1.419 . S
C2285 C2280 1.425 . S
C2285 C2282 1.409 . S
C2285 C2283 1.415 . S
C2286 H2276 0.930 . S
C2286 C2284 1.419 . S
C2286 C2287 1.362 . S
C2287 H2277 0.930 . S
C2287 C2280 1.409 . S
C2287 C2286 1.362 . S
H2288 C2294 0.930 . S
H2289 C2297 0.930 . S
H2290 C2298 0.930 . S
H2291 C2299 0.930 1_565 S
H2292 C2302 0.930 . S
H2293 C2303 0.930 . S
C2294 H2288 0.930 . S
C2294 C2295 1.355 . S
C2294 C2296 1.415 . S
C2295 C2294 1.355 . S
C2295 C2297 1.419 1_545 S
C2296 C2294 1.415 . S
C2296 C2301 1.425 . S
C2296 C2303 1.409 . S
C2297 H2289 0.930 . S
C2297 C2295 1.419 1_565 S
C2297 C2298 1.362 . S
C2298 H2290 0.930 . S
C2298 C2297 1.362 . S
C2298 C2301 1.409 1_565 S
C2299 H2291 0.930 1_545 S
C2299 C2300 1.355 . S
C2299 C2301 1.415 . S
C2300 C2299 1.355 . S
C2300 C2302 1.419 . S
C2301 C2296 1.425 . S
C2301 C2298 1.409 1_545 S
C2301 C2299 1.415 . S
C2302 H2292 0.930 . S
C2302 C2300 1.419 . S
C2302 C2303 1.362 . S
C2303 H2293 0.930 . S
C2303 C2296 1.409 . S
C2303 C2302 1.362 . S
H2304 C2310 0.930 . S
H2305 C2313 0.930 . S
H2306 C2314 0.930 . S
H2307 C2315 0.930 . S
H2308 C2318 0.930 . S
H2309 C2319 0.930 . S
C2310 H2304 0.930 . S
C2310 C2311 1.355 . S
C2310 C2312 1.415 . S
C2311 C2310 1.355 . S
C2311 C2313 1.419 . S
C2312 C2310 1.415 . S
C2312 C2317 1.425 . S
C2312 C2319 1.409 . S
C2313 H2305 0.930 . S
C2313 C2311 1.419 . S
C2313 C2314 1.362 . S
C2314 H2306 0.930 . S
C2314 C2313 1.362 . S
C2314 C2317 1.409 . S
C2315 H2307 0.930 . S
C2315 C2316 1.355 . S
C2315 C2317 1.415 . S
C2316 C2315 1.355 . S
C2316 C2318 1.419 . S
C2317 C2312 1.425 . S
C2317 C2314 1.409 . S
C2317 C2315 1.415 . S
C2318 H2308 0.930 . S
C2318 C2316 1.419 . S
C2318 C2319 1.362 . S
C2319 H2309 0.930 . S
C2319 C2312 1.409 . S
C2319 C2318 1.362 . S
H2320 C2326 0.930 . S
H2321 C2329 0.930 . S
H2322 C2330 0.930 . S
H2323 C2331 0.930 . S
H2324 C2334 0.930 . S
H2325 C2335 0.930 1_556 S
C2326 H2320 0.930 . S
C2326 C2327 1.355 . S
C2326 C2328 1.415 . S
C2327 C2326 1.355 . S
C2327 C2329 1.419 . S
C2328 C2326 1.415 . S
C2328 C2333 1.425 . S
C2328 C2335 1.409 . S
C2329 H2321 0.930 . S
C2329 C2327 1.419 . S
C2329 C2330 1.362 . S
C2330 H2322 0.930 . S
C2330 C2329 1.362 . S
C2330 C2333 1.409 . S
C2331 H2323 0.930 . S
C2331 C2332 1.355 . S
C2331 C2333 1.415 . S
C2332 C2331 1.355 . S
C2332 C2334 1.419 1_554 S
C2333 C2328 1.425 . S
C2333 C2330 1.409 . S
C2333 C2331 1.415 . S
C2334 H2324 0.930 . S
C2334 C2332 1.419 1_556 S
C2334 C2335 1.362 1_556 S
C2335 H2325 0.930 1_554 S
C2335 C2328 1.409 . S
C2335 C2334 1.362 1_554 S
H2336 C2342 0.930 . S
H2337 C2345 0.930 . S
H2338 C2346 0.930 . S
H2339 C2347 0.930 . S
H2340 C2350 0.930 . S
H2341 C2351 0.930 . S
C2342 H2336 0.930 . S
C2342 C2343 1.355 . S
C2342 C2344 1.415 . S
C2343 C2342 1.355 . S
C2343 C2345 1.419 . S
C2344 C2342 1.415 . S
C2344 C2349 1.425 . S
C2344 C2351 1.409 . S
C2345 H2337 0.930 . S
C2345 C2343 1.419 . S
C2345 C2346 1.362 . S
C2346 H2338 0.930 . S
C2346 C2345 1.362 . S
C2346 C2349 1.409 . S
C2347 H2339 0.930 . S
C2347 C2348 1.355 . S
C2347 C2349 1.415 . S
C2348 C2347 1.355 . S
C2348 C2350 1.419 . S
C2349 C2344 1.425 . S
C2349 C2346 1.409 . S
C2349 C2347 1.415 . S
C2350 H2340 0.930 . S
C2350 C2348 1.419 . S
C2350 C2351 1.362 . S
C2351 H2341 0.930 . S
C2351 C2344 1.409 . S
C2351 C2350 1.362 . S
H2352 C2358 0.930 . S
H2353 C2361 0.930 . S
H2354 C2362 0.930 . S
H2355 C2363 0.930 . S
H2356 C2366 0.930 . S
H2357 C2367 0.930 . S
C2358 H2352 0.930 . S
C2358 C2359 1.355 . S
C2358 C2360 1.415 . S
C2359 C2358 1.355 . S
C2359 C2361 1.419 . S
C2360 C2358 1.415 . S
C2360 C2365 1.425 . S
C2360 C2367 1.409 . S
C2361 H2353 0.930 . S
C2361 C2359 1.419 . S
C2361 C2362 1.362 . S
C2362 H2354 0.930 . S
C2362 C2361 1.362 . S
C2362 C2365 1.409 . S
C2363 H2355 0.930 . S
C2363 C2364 1.355 . S
C2363 C2365 1.415 . S
C2364 C2363 1.355 . S
C2364 C2366 1.419 . S
C2365 C2360 1.425 . S
C2365 C2362 1.409 . S
C2365 C2363 1.415 . S
C2366 H2356 0.930 . S
C2366 C2364 1.419 . S
C2366 C2367 1.362 . S
C2367 H2357 0.930 . S
C2367 C2360 1.409 . S
C2367 C2366 1.362 . S
H2368 C2374 0.930 . S
H2369 C2377 0.930 . S
H2370 C2378 0.930 . S
H2371 C2379 0.930 . S
H2372 C2382 0.930 . S
H2373 C2383 0.930 . S
C2374 H2368 0.930 . S
C2374 C2375 1.355 . S
C2374 C2376 1.415 . S
C2375 C2374 1.355 . S
C2375 C2377 1.419 . S
C2376 C2374 1.415 . S
C2376 C2381 1.425 . S
C2376 C2383 1.409 . S
C2377 H2369 0.930 . S
C2377 C2375 1.419 . S
C2377 C2378 1.362 . S
C2378 H2370 0.930 . S
C2378 C2377 1.362 . S
C2378 C2381 1.409 . S
C2379 H2371 0.930 . S
C2379 C2380 1.355 . S
C2379 C2381 1.415 . S
C2380 C2379 1.355 . S
C2380 C2382 1.419 . S
C2381 C2376 1.425 . S
C2381 C2378 1.409 . S
C2381 C2379 1.415 . S
C2382 H2372 0.930 . S
C2382 C2380 1.419 . S
C2382 C2383 1.362 . S
C2383 H2373 0.930 . S
C2383 C2376 1.409 . S
C2383 C2382 1.362 . S
H2384 C2390 0.930 . S
H2385 C2393 0.930 . S
H2386 C2394 0.930 . S
H2387 C2395 0.930 . S
H2388 C2398 0.930 . S
H2389 C2399 0.930 . S
C2390 H2384 0.930 . S
C2390 C2391 1.355 . S
C2390 C2392 1.415 . S
C2391 C2390 1.355 . S
C2391 C2393 1.419 1_565 S
C2392 C2390 1.415 . S
C2392 C2397 1.425 . S
C2392 C2399 1.409 . S
C2393 H2385 0.930 . S
C2393 C2391 1.419 1_545 S
C2393 C2394 1.362 . S
C2394 H2386 0.930 . S
C2394 C2393 1.362 . S
C2394 C2397 1.409 1_545 S
C2395 H2387 0.930 . S
C2395 C2396 1.355 . S
C2395 C2397 1.415 . S
C2396 C2395 1.355 . S
C2396 C2398 1.419 . S
C2397 C2392 1.425 . S
C2397 C2394 1.409 1_565 S
C2397 C2395 1.415 . S
C2398 H2388 0.930 . S
C2398 C2396 1.419 . S
C2398 C2399 1.362 . S
C2399 H2389 0.930 . S
C2399 C2392 1.409 . S
C2399 C2398 1.362 . S
H2400 C2406 0.930 . S
H2401 C2409 0.930 . S
H2402 C2410 0.930 . S
H2403 C2411 0.930 . S
H2404 C2414 0.930 . S
H2405 C2415 0.930 . S
C2406 H2400 0.930 . S
C2406 C2407 1.355 . S
C2406 C2408 1.415 . S
C2407 C2406 1.355 . S
C2407 C2409 1.419 . S
C2408 C2406 1.415 . S
C2408 C2413 1.425 . S
C2408 C2415 1.409 . S
C2409 H2401 0.930 . S
C2409 C2407 1.419 . S
C2409 C2410 1.362 . S
C2410 H2402 0.930 . S
C2410 C2409 1.362 . S
C2410 C2413 1.409 . S
C2411 H2403 0.930 . S
C2411 C2412 1.355 . S
C2411 C2413 1.415 . S
C2412 C2411 1.355 . S
C2412 C2414 1.419 . S
C2413 C2408 1.425 . S
C2413 C2410 1.409 . S
C2413 C2411 1.415 . S
C2414 H2404 0.930 . S
C2414 C2412 1.419 . S
C2414 C2415 1.362 . S
C2415 H2405 0.930 . S
C2415 C2408 1.409 . S
C2415 C2414 1.362 . S
H2416 C2422 0.930 . S
H2417 C2425 0.930 . S
H2418 C2426 0.930 . S
H2419 C2427 0.930 . S
H2420 C2430 0.930 . S
H2421 C2431 0.930 . S
C2422 H2416 0.930 . S
C2422 C2423 1.355 . S
C2422 C2424 1.415 . S
C2423 C2422 1.355 . S
C2423 C2425 1.419 . S
C2424 C2422 1.415 . S
C2424 C2429 1.425 . S
C2424 C2431 1.409 . S
C2425 H2417 0.930 . S
C2425 C2423 1.419 . S
C2425 C2426 1.362 . S
C2426 H2418 0.930 . S
C2426 C2425 1.362 . S
C2426 C2429 1.409 . S
C2427 H2419 0.930 . S
C2427 C2428 1.355 . S
C2427 C2429 1.415 . S
C2428 C2427 1.355 . S
C2428 C2430 1.419 . S
C2429 C2424 1.425 . S
C2429 C2426 1.409 . S
C2429 C2427 1.415 . S
C2430 H2420 0.930 . S
C2430 C2428 1.419 . S
C2430 C2431 1.362 . S
C2431 H2421 0.930 . S
C2431 C2424 1.409 . S
C2431 C2430 1.362 . S
H2432 C2438 0.930 . S
H2433 C2441 0.930 . S
H2434 C2442 0.930 . S
H2435 C2443 0.930 . S
H2436 C2446 0.930 . S
H2437 C2447 0.930 . S
C2438 H2432 0.930 . S
C2438 C2439 1.355 . S
C2438 C2440 1.415 . S
C2439 C2438 1.355 . S
C2439 C2441 1.419 . S
C2440 C2438 1.415 . S
C2440 C2445 1.425 . S
C2440 C2447 1.409 . S
C2441 H2433 0.930 . S
C2441 C2439 1.419 . S
C2441 C2442 1.362 . S
C2442 H2434 0.930 . S
C2442 C2441 1.362 . S
C2442 C2445 1.409 . S
C2443 H2435 0.930 . S
C2443 C2444 1.355 . S
C2443 C2445 1.415 . S
C2444 C2443 1.355 . S
C2444 C2446 1.419 . S
C2445 C2440 1.425 . S
C2445 C2442 1.409 . S
C2445 C2443 1.415 . S
C2446 H2436 0.930 . S
C2446 C2444 1.419 . S
C2446 C2447 1.362 . S
C2447 H2437 0.930 . S
C2447 C2440 1.409 . S
C2447 C2446 1.362 . S
H2448 C2454 0.930 . S
H2449 C2457 0.930 . S
H2450 C2458 0.930 . S
H2451 C2459 0.930 . S
H2452 C2462 0.930 . S
H2453 C2463 0.930 . S
C2454 H2448 0.930 . S
C2454 C2455 1.355 . S
C2454 C2456 1.415 . S
C2455 C2454 1.355 . S
C2455 C2457 1.419 . S
C2456 C2454 1.415 . S
C2456 C2461 1.425 . S
C2456 C2463 1.409 . S
C2457 H2449 0.930 . S
C2457 C2455 1.419 . S
C2457 C2458 1.362 . S
C2458 H2450 0.930 . S
C2458 C2457 1.362 . S
C2458 C2461 1.409 . S
C2459 H2451 0.930 . S
C2459 C2460 1.355 . S
C2459 C2461 1.415 . S
C2460 C2459 1.355 . S
C2460 C2462 1.419 . S
C2461 C2456 1.425 . S
C2461 C2458 1.409 . S
C2461 C2459 1.415 . S
C2462 H2452 0.930 . S
C2462 C2460 1.419 . S
C2462 C2463 1.362 . S
C2463 H2453 0.930 . S
C2463 C2456 1.409 . S
C2463 C2462 1.362 . S
H2464 C2470 0.930 . S
H2465 C2473 0.930 . S
H2466 C2474 0.930 . S
H2467 C2475 0.930 . S
H2468 C2478 0.930 . S
H2469 C2479 0.930 . S
C2470 H2464 0.930 . S
C2470 C2471 1.355 . S
C2470 C2472 1.415 . S
C2471 C2470 1.355 . S
C2471 C2473 1.419 . S
C2472 C2470 1.415 . S
C2472 C2477 1.425 . S
C2472 C2479 1.409 . S
C2473 H2465 0.930 . S
C2473 C2471 1.419 . S
C2473 C2474 1.362 . S
C2474 H2466 0.930 . S
C2474 C2473 1.362 . S
C2474 C2477 1.409 . S
C2475 H2467 0.930 . S
C2475 C2476 1.355 . S
C2475 C2477 1.415 . S
C2476 C2475 1.355 . S
C2476 C2478 1.419 . S
C2477 C2472 1.425 . S
C2477 C2474 1.409 . S
C2477 C2475 1.415 . S
C2478 H2468 0.930 . S
C2478 C2476 1.419 . S
C2478 C2479 1.362 . S
C2479 H2469 0.930 . S
C2479 C2472 1.409 . S
C2479 C2478 1.362 . S
H2480 C2486 0.930 . S
H2481 C2489 0.930 . S
H2482 C2490 0.930 . S
H2483 C2491 0.931 1_556 S
H2484 C2494 0.930 . S
H2485 C2495 0.901 1_655 S
C2486 H2480 0.930 . S
C2486 C2487 1.355 . S
C2486 C2488 1.415 . S
C2487 C2486 1.355 . S
C2487 C2489 1.419 . S
C2488 C2486 1.415 . S
C2488 C2493 1.425 . S
C2488 C2495 1.409 1_556 S
C2489 H2481 0.930 . S
C2489 C2487 1.419 . S
C2489 C2490 1.362 . S
C2490 H2482 0.930 . S
C2490 C2489 1.362 . S
C2490 C2493 1.409 . S
C2491 H2483 0.931 1_554 S
C2491 C2492 1.355 . S
C2491 C2493 1.415 1_554 S
C2492 C2491 1.355 . S
C2492 C2494 1.419 . S
C2493 C2488 1.425 . S
C2493 C2490 1.409 . S
C2493 C2491 1.415 1_556 S
C2494 H2484 0.930 . S
C2494 C2492 1.419 . S
C2494 C2495 1.362 . S
C2495 H2485 0.901 1_455 S
C2495 C2488 1.409 1_554 S
C2495 C2494 1.362 . S
H2496 C2502 0.930 . S
H2497 C2505 0.930 . S
H2498 C2506 0.930 . S
H2499 C2507 0.930 . S
H2500 C2510 0.930 . S
H2501 C2511 0.930 . S
C2502 H2496 0.930 . S
C2502 C2503 1.355 . S
C2502 C2504 1.415 . S
C2503 C2502 1.355 . S
C2503 C2505 1.419 . S
C2504 C2502 1.415 . S
C2504 C2509 1.425 1_455 S
C2504 C2511 1.409 . S
C2505 H2497 0.930 . S
C2505 C2503 1.419 . S
C2505 C2506 1.362 1_455 S
C2506 H2498 0.930 . S
C2506 C2505 1.362 1_655 S
C2506 C2509 1.409 . S
C2507 H2499 0.930 . S
C2507 C2508 1.355 . S
C2507 C2509 1.415 . S
C2508 C2507 1.355 . S
C2508 C2510 1.419 . S
C2509 C2504 1.425 1_655 S
C2509 C2506 1.409 . S
C2509 C2507 1.415 . S
C2510 H2500 0.930 . S
C2510 C2508 1.419 . S
C2510 C2511 1.362 1_655 S
C2511 H2501 0.930 . S
C2511 C2504 1.409 . S
C2511 C2510 1.362 1_455 S
H2512 C2518 0.930 . S
H2513 C2521 0.930 . S
H2514 C2522 0.930 . S
H2515 C2523 0.930 . S
H2516 C2526 0.930 . S
H2517 C2527 0.930 . S
C2518 H2512 0.930 . S
C2518 C2519 1.355 . S
C2518 C2520 1.415 . S
C2519 C2518 1.355 . S
C2519 C2521 1.419 . S
C2520 C2518 1.415 . S
C2520 C2525 1.425 . S
C2520 C2527 1.409 . S
C2521 H2513 0.930 . S
C2521 C2519 1.419 . S
C2521 C2522 1.362 . S
C2522 H2514 0.930 . S
C2522 C2521 1.362 . S
C2522 C2525 1.409 . S
C2523 H2515 0.930 . S
C2523 C2524 1.355 . S
C2523 C2525 1.415 . S
C2524 C2523 1.355 . S
C2524 C2526 1.419 . S
C2525 C2520 1.425 . S
C2525 C2522 1.409 . S
C2525 C2523 1.415 . S
C2526 H2516 0.930 . S
C2526 C2524 1.419 . S
C2526 C2527 1.362 . S
C2527 H2517 0.930 . S
C2527 C2520 1.409 . S
C2527 C2526 1.362 . S
H2528 C2534 0.930 . S
H2529 C2537 0.930 . S
H2530 C2538 0.930 . S
H2531 C2539 0.930 . S
H2532 C2542 0.930 . S
H2533 C2543 0.939 . S
C2534 H2528 0.930 . S
C2534 C2535 1.355 . S
C2534 C2536 1.415 . S
C2535 C2534 1.355 . S
C2535 C2537 1.419 . S
C2536 C2534 1.415 . S
C2536 C2541 1.425 . S
C2536 C2543 1.409 1_455 S
C2537 H2529 0.930 . S
C2537 C2535 1.419 . S
C2537 C2538 1.362 . S
C2538 H2530 0.930 . S
C2538 C2537 1.362 . S
C2538 C2541 1.409 . S
C2539 H2531 0.930 . S
C2539 C2540 1.355 . S
C2539 C2541 1.415 1_655 S
C2540 C2539 1.355 . S
C2540 C2542 1.419 . S
C2541 C2536 1.425 . S
C2541 C2538 1.409 . S
C2541 C2539 1.415 1_455 S
C2542 H2532 0.930 . S
C2542 C2540 1.419 . S
C2542 C2543 1.362 . S
C2543 H2533 0.939 . S
C2543 C2536 1.409 1_655 S
C2543 C2542 1.362 . S
H2544 C2550 0.930 . S
H2545 C2553 0.930 . S
H2546 C2554 0.930 . S
H2547 C2555 0.930 . S
H2548 C2558 0.930 . S
H2549 C2559 0.930 . S
C2550 H2544 0.930 . S
C2550 C2551 1.355 . S
C2550 C2552 1.415 1_655 S
C2551 C2550 1.355 . S
C2551 C2553 1.419 1_655 S
C2552 C2550 1.415 1_455 S
C2552 C2557 1.425 . S
C2552 C2559 1.409 1_455 S
C2553 H2545 0.930 . S
C2553 C2551 1.419 1_455 S
C2553 C2554 1.362 . S
C2554 H2546 0.930 . S
C2554 C2553 1.362 . S
C2554 C2557 1.409 . S
C2555 H2547 0.930 . S
C2555 C2556 1.355 . S
C2555 C2557 1.415 . S
C2556 C2555 1.355 . S
C2556 C2558 1.419 . S
C2557 C2552 1.425 . S
C2557 C2554 1.409 . S
C2557 C2555 1.415 . S
C2558 H2548 0.930 . S
C2558 C2556 1.419 . S
C2558 C2559 1.362 1_455 S
C2559 H2549 0.930 . S
C2559 C2552 1.409 1_655 S
C2559 C2558 1.362 1_655 S
H2560 C2566 0.930 . S
H2561 C2569 0.930 . S
H2562 C2570 0.930 . S
H2563 C2571 0.930 . S
H2564 C2574 0.930 . S
H2565 C2575 0.930 . S
C2566 H2560 0.930 . S
C2566 C2567 1.355 . S
C2566 C2568 1.415 . S
C2567 C2566 1.355 . S
C2567 C2569 1.419 . S
C2568 C2566 1.415 . S
C2568 C2573 1.425 . S
C2568 C2575 1.409 . S
C2569 H2561 0.930 . S
C2569 C2567 1.419 . S
C2569 C2570 1.362 . S
C2570 H2562 0.930 . S
C2570 C2569 1.362 . S
C2570 C2573 1.409 . S
C2571 H2563 0.930 . S
C2571 C2572 1.355 . S
C2571 C2573 1.415 . S
C2572 C2571 1.355 . S
C2572 C2574 1.419 . S
C2573 C2568 1.425 . S
C2573 C2570 1.409 . S
C2573 C2571 1.415 . S
C2574 H2564 0.930 . S
C2574 C2572 1.419 . S
C2574 C2575 1.362 . S
C2575 H2565 0.930 . S
C2575 C2568 1.409 . S
C2575 C2574 1.362 . S
H2576 C2582 0.930 . S
H2577 C2585 0.930 . S
H2578 C2586 0.930 . S
H2579 C2587 0.930 . S
H2580 C2590 0.930 . S
H2581 C2591 0.930 . S
C2582 H2576 0.930 . S
C2582 C2583 1.355 . S
C2582 C2584 1.415 . S
C2583 C2582 1.355 . S
C2583 C2585 1.419 . S
C2584 C2582 1.415 . S
C2584 C2589 1.425 . S
C2584 C2591 1.409 . S
C2585 H2577 0.930 . S
C2585 C2583 1.419 . S
C2585 C2586 1.362 . S
C2586 H2578 0.930 . S
C2586 C2585 1.362 . S
C2586 C2589 1.409 . S
C2587 H2579 0.930 . S
C2587 C2588 1.355 . S
C2587 C2589 1.415 . S
C2588 C2587 1.355 . S
C2588 C2590 1.419 . S
C2589 C2584 1.425 . S
C2589 C2586 1.409 . S
C2589 C2587 1.415 . S
C2590 H2580 0.930 . S
C2590 C2588 1.419 . S
C2590 C2591 1.362 . S
C2591 H2581 0.930 . S
C2591 C2584 1.409 . S
C2591 C2590 1.362 . S
H2592 C2598 0.930 . S
H2593 C2601 0.930 . S
H2594 C2602 0.930 . S
H2595 C2603 0.930 . S
H2596 C2606 0.930 . S
H2597 C2607 0.930 . S
C2598 H2592 0.930 . S
C2598 C2599 1.355 . S
C2598 C2600 1.415 . S
C2599 C2598 1.355 . S
C2599 C2601 1.419 . S
C2600 C2598 1.415 . S
C2600 C2605 1.425 . S
C2600 C2607 1.409 . S
C2601 H2593 0.930 . S
C2601 C2599 1.419 . S
C2601 C2602 1.362 . S
C2602 H2594 0.930 . S
C2602 C2601 1.362 . S
C2602 C2605 1.409 . S
C2603 H2595 0.930 . S
C2603 C2604 1.355 . S
C2603 C2605 1.415 . S
C2604 C2603 1.355 . S
C2604 C2606 1.419 . S
C2605 C2600 1.425 . S
C2605 C2602 1.409 . S
C2605 C2603 1.415 . S
C2606 H2596 0.930 . S
C2606 C2604 1.419 . S
C2606 C2607 1.362 . S
C2607 H2597 0.930 . S
C2607 C2600 1.409 . S
C2607 C2606 1.362 . S
H2608 C2614 0.930 . S
H2609 C2617 0.930 . S
H2610 C2618 0.930 . S
H2611 C2619 0.930 . S
H2612 C2622 0.930 . S
H2613 C2623 0.930 . S
C2614 H2608 0.930 . S
C2614 C2615 1.355 . S
C2614 C2616 1.415 . S
C2615 C2614 1.355 . S
C2615 C2617 1.419 . S
C2616 C2614 1.415 . S
C2616 C2621 1.425 . S
C2616 C2623 1.409 . S
C2617 H2609 0.930 . S
C2617 C2615 1.419 . S
C2617 C2618 1.362 . S
C2618 H2610 0.930 . S
C2618 C2617 1.362 . S
C2618 C2621 1.409 . S
C2619 H2611 0.930 . S
C2619 C2620 1.355 . S
C2619 C2621 1.415 . S
C2620 C2619 1.355 . S
C2620 C2622 1.419 . S
C2621 C2616 1.425 . S
C2621 C2618 1.409 . S
C2621 C2619 1.415 . S
C2622 H2612 0.930 . S
C2622 C2620 1.419 . S
C2622 C2623 1.362 . S
C2623 H2613 0.930 . S
C2623 C2616 1.409 . S
C2623 C2622 1.362 . S
H2624 C2630 0.930 . S
H2625 C2633 0.930 . S
H2626 C2634 0.930 . S
H2627 C2635 0.930 . S
H2628 C2638 0.930 . S
H2629 C2639 0.930 . S
C2630 H2624 0.930 . S
C2630 C2631 1.355 . S
C2630 C2632 1.415 . S
C2631 C2630 1.355 . S
C2631 C2633 1.419 . S
C2632 C2630 1.415 . S
C2632 C2637 1.425 . S
C2632 C2639 1.409 . S
C2633 H2625 0.930 . S
C2633 C2631 1.419 . S
C2633 C2634 1.362 . S
C2634 H2626 0.930 . S
C2634 C2633 1.362 . S
C2634 C2637 1.409 . S
C2635 H2627 0.930 . S
C2635 C2636 1.355 . S
C2635 C2637 1.415 . S
C2636 C2635 1.355 . S
C2636 C2638 1.419 . S
C2637 C2632 1.425 . S
C2637 C2634 1.409 . S
C2637 C2635 1.415 . S
C2638 H2628 0.930 . S
C2638 C2636 1.419 . S
C2638 C2639 1.362 . S
C2639 H2629 0.930 . S
C2639 C2632 1.409 . S
C2639 C2638 1.362 . S
H2640 C2646 0.930 . S
H2641 C2649 0.930 . S
H2642 C2650 0.930 . S
H2643 C2651 0.930 . S
H2644 C2654 0.930 . S
H2645 C2655 0.930 . S
C2646 H2640 0.930 . S
C2646 C2647 1.355 . S
C2646 C2648 1.415 . S
C2647 C2646 1.355 . S
C2647 C2649 1.419 . S
C2648 C2646 1.415 . S
C2648 C2653 1.425 . S
C2648 C2655 1.409 . S
C2649 H2641 0.930 . S
C2649 C2647 1.419 . S
C2649 C2650 1.362 . S
C2650 H2642 0.930 . S
C2650 C2649 1.362 . S
C2650 C2653 1.409 . S
C2651 H2643 0.930 . S
C2651 C2652 1.355 . S
C2651 C2653 1.415 . S
C2652 C2651 1.355 . S
C2652 C2654 1.419 . S
C2653 C2648 1.425 . S
C2653 C2650 1.409 . S
C2653 C2651 1.415 . S
C2654 H2644 0.930 . S
C2654 C2652 1.419 . S
C2654 C2655 1.362 . S
C2655 H2645 0.930 . S
C2655 C2648 1.409 . S
C2655 C2654 1.362 . S
H2656 C2662 0.930 . S
H2657 C2665 0.930 . S
H2658 C2666 0.930 . S
H2659 C2667 0.930 . S
H2660 C2670 0.930 . S
H2661 C2671 0.930 . S
C2662 H2656 0.930 . S
C2662 C2663 1.355 . S
C2662 C2664 1.415 . S
C2663 C2662 1.355 . S
C2663 C2665 1.419 . S
C2664 C2662 1.415 . S
C2664 C2669 1.425 . S
C2664 C2671 1.409 . S
C2665 H2657 0.930 . S
C2665 C2663 1.419 . S
C2665 C2666 1.362 . S
C2666 H2658 0.930 . S
C2666 C2665 1.362 . S
C2666 C2669 1.409 . S
C2667 H2659 0.930 . S
C2667 C2668 1.355 . S
C2667 C2669 1.415 . S
C2668 C2667 1.355 . S
C2668 C2670 1.419 . S
C2669 C2664 1.425 . S
C2669 C2666 1.409 . S
C2669 C2667 1.415 . S
C2670 H2660 0.930 . S
C2670 C2668 1.419 . S
C2670 C2671 1.362 . S
C2671 H2661 0.930 . S
C2671 C2664 1.409 . S
C2671 C2670 1.362 . S
H2672 C2678 0.930 . S
H2673 C2681 0.930 . S
H2674 C2682 0.930 . S
H2675 C2683 0.930 . S
H2676 C2686 0.930 . S
H2677 C2687 0.930 . S
C2678 H2672 0.930 . S
C2678 C2679 1.355 . S
C2678 C2680 1.415 . S
C2679 C2678 1.355 . S
C2679 C2681 1.419 . S
C2680 C2678 1.415 . S
C2680 C2685 1.425 . S
C2680 C2687 1.409 . S
C2681 H2673 0.930 . S
C2681 C2679 1.419 . S
C2681 C2682 1.362 . S
C2682 H2674 0.930 . S
C2682 C2681 1.362 . S
C2682 C2685 1.409 . S
C2683 H2675 0.930 . S
C2683 C2684 1.355 . S
C2683 C2685 1.415 . S
C2684 C2683 1.355 . S
C2684 C2686 1.419 . S
C2685 C2680 1.425 . S
C2685 C2682 1.409 . S
C2685 C2683 1.415 . S
C2686 H2676 0.930 . S
C2686 C2684 1.419 . S
C2686 C2687 1.362 . S
C2687 H2677 0.930 . S
C2687 C2680 1.409 . S
C2687 C2686 1.362 . S
H2688 C2694 0.930 . S
H2689 C2697 0.930 . S
H2690 C2698 0.930 . S
H2691 C2699 0.930 . S
H2692 C2702 0.930 . S
H2693 C2703 0.930 . S
C2694 H2688 0.930 . S
C2694 C2695 1.355 . S
C2694 C2696 1.415 . S
C2695 C2694 1.355 . S
C2695 C2697 1.419 . S
C2696 C2694 1.415 . S
C2696 C2701 1.425 . S
C2696 C2703 1.409 . S
C2697 H2689 0.930 . S
C2697 C2695 1.419 . S
C2697 C2698 1.362 . S
C2698 H2690 0.930 . S
C2698 C2697 1.362 . S
C2698 C2701 1.409 . S
C2699 H2691 0.930 . S
C2699 C2700 1.355 . S
C2699 C2701 1.415 . S
C2700 C2699 1.355 . S
C2700 C2702 1.419 . S
C2701 C2696 1.425 . S
C2701 C2698 1.409 . S
C2701 C2699 1.415 . S
C2702 H2692 0.930 . S
C2702 C2700 1.419 . S
C2702 C2703 1.362 . S
C2703 H2693 0.930 . S
C2703 C2696 1.409 . S
C2703 C2702 1.362 . S
H2704 C2710 0.930 . S
H2705 C2713 0.930 . S
H2706 C2714 0.930 . S
H2707 C2715 0.930 . S
H2708 C2718 0.930 . S
H2709 C2719 0.930 . S
C2710 H2704 0.930 . S
C2710 C2711 1.355 . S
C2710 C2712 1.415 . S
C2711 C2710 1.355 . S
C2711 C2713 1.419 . S
C2712 C2710 1.415 . S
C2712 C2717 1.425 . S
C2712 C2719 1.409 . S
C2713 H2705 0.930 . S
C2713 C2711 1.419 . S
C2713 C2714 1.362 . S
C2714 H2706 0.930 . S
C2714 C2713 1.362 . S
C2714 C2717 1.409 . S
C2715 H2707 0.930 . S
C2715 C2716 1.355 . S
C2715 C2717 1.415 . S
C2716 C2715 1.355 . S
C2716 C2718 1.419 . S
C2717 C2712 1.425 . S
C2717 C2714 1.409 . S
C2717 C2715 1.415 . S
C2718 H2708 0.930 . S
C2718 C2716 1.419 . S
C2718 C2719 1.362 . S
C2719 H2709 0.930 . S
C2719 C2712 1.409 . S
C2719 C2718 1.362 . S
H2720 C2726 0.930 . S
H2721 C2729 0.930 . S
H2722 C2730 0.930 . S
H2723 C2731 0.930 . S
H2724 C2734 0.930 . S
H2725 C2735 0.930 . S
C2726 H2720 0.930 . S
C2726 C2727 1.355 . S
C2726 C2728 1.415 . S
C2727 C2726 1.355 . S
C2727 C2729 1.419 . S
C2728 C2726 1.415 . S
C2728 C2733 1.425 . S
C2728 C2735 1.409 . S
C2729 H2721 0.930 . S
C2729 C2727 1.419 . S
C2729 C2730 1.362 . S
C2730 H2722 0.930 . S
C2730 C2729 1.362 . S
C2730 C2733 1.409 . S
C2731 H2723 0.930 . S
C2731 C2732 1.355 . S
C2731 C2733 1.415 . S
C2732 C2731 1.355 . S
C2732 C2734 1.419 . S
C2733 C2728 1.425 . S
C2733 C2730 1.409 . S
C2733 C2731 1.415 . S
C2734 H2724 0.930 . S
C2734 C2732 1.419 . S
C2734 C2735 1.362 . S
C2735 H2725 0.930 . S
C2735 C2728 1.409 . S
C2735 C2734 1.362 . S
H2736 C2742 0.930 . S
H2737 C2745 0.930 . S
H2738 C2746 0.930 . S
H2739 C2747 0.930 . S
H2740 C2750 0.930 . S
H2741 C2751 0.930 . S
C2742 H2736 0.930 . S
C2742 C2743 1.355 . S
C2742 C2744 1.415 . S
C2743 C2742 1.355 . S
C2743 C2745 1.419 . S
C2744 C2742 1.415 . S
C2744 C2749 1.425 . S
C2744 C2751 1.409 . S
C2745 H2737 0.930 . S
C2745 C2743 1.419 . S
C2745 C2746 1.362 . S
C2746 H2738 0.930 . S
C2746 C2745 1.362 . S
C2746 C2749 1.409 . S
C2747 H2739 0.930 . S
C2747 C2748 1.355 . S
C2747 C2749 1.415 . S
C2748 C2747 1.355 . S
C2748 C2750 1.419 . S
C2749 C2744 1.425 . S
C2749 C2746 1.409 . S
C2749 C2747 1.415 . S
C2750 H2740 0.930 . S
C2750 C2748 1.419 . S
C2750 C2751 1.362 . S
C2751 H2741 0.930 . S
C2751 C2744 1.409 . S
C2751 C2750 1.362 . S
H2752 C2758 0.930 1_545 S
H2753 C2761 0.930 . S
H2754 C2762 0.930 . S
H2755 C2763 0.930 . S
H2756 C2766 0.930 . S
H2757 C2767 0.930 . S
C2758 H2752 0.930 1_565 S
C2758 C2759 1.355 . S
C2758 C2760 1.415 1_565 S
C2759 C2758 1.355 . S
C2759 C2761 1.419 . S
C2760 C2758 1.415 1_545 S
C2760 C2765 1.425 1_545 S
C2760 C2767 1.409 . S
C2761 H2753 0.930 . S
C2761 C2759 1.419 . S
C2761 C2762 1.362 . S
C2762 H2754 0.930 . S
C2762 C2761 1.362 . S
C2762 C2765 1.409 . S
C2763 H2755 0.930 . S
C2763 C2764 1.355 1_565 S
C2763 C2765 1.415 . S
C2764 C2763 1.355 1_545 S
C2764 C2766 1.419 . S
C2765 C2760 1.425 1_565 S
C2765 C2762 1.409 . S
C2765 C2763 1.415 . S
C2766 H2756 0.930 . S
C2766 C2764 1.419 . S
C2766 C2767 1.362 . S
C2767 H2757 0.930 . S
C2767 C2760 1.409 . S
C2767 C2766 1.362 . S
H2768 C2774 0.930 . S
H2769 C2777 0.930 . S
H2770 C2778 0.930 . S
H2771 C2779 0.930 . S
H2772 C2782 0.930 . S
H2773 C2783 0.930 . S
C2774 H2768 0.930 . S
C2774 C2775 1.355 . S
C2774 C2776 1.415 . S
C2775 C2774 1.355 . S
C2775 C2777 1.419 . S
C2776 C2774 1.415 . S
C2776 C2781 1.425 . S
C2776 C2783 1.409 . S
C2777 H2769 0.930 . S
C2777 C2775 1.419 . S
C2777 C2778 1.362 . S
C2778 H2770 0.930 . S
C2778 C2777 1.362 . S
C2778 C2781 1.409 . S
C2779 H2771 0.930 . S
C2779 C2780 1.355 . S
C2779 C2781 1.415 . S
C2780 C2779 1.355 . S
C2780 C2782 1.419 . S
C2781 C2776 1.425 . S
C2781 C2778 1.409 . S
C2781 C2779 1.415 . S
C2782 H2772 0.930 . S
C2782 C2780 1.419 . S
C2782 C2783 1.362 . S
C2783 H2773 0.930 . S
C2783 C2776 1.409 . S
C2783 C2782 1.362 . S
H2784 C2790 0.933 . S
H2785 C2793 0.930 . S
H2786 C2794 0.930 . S
H2787 C2795 0.930 . S
H2788 C2798 0.930 . S
H2789 C2799 0.930 . S
C2790 H2784 0.933 . S
C2790 C2791 1.355 . S
C2790 C2792 1.415 . S
C2791 C2790 1.355 . S
C2791 C2793 1.419 . S
C2792 C2790 1.415 . S
C2792 C2797 1.425 . S
C2792 C2799 1.409 . S
C2793 H2785 0.930 . S
C2793 C2791 1.419 . S
C2793 C2794 1.362 . S
C2794 H2786 0.930 . S
C2794 C2793 1.362 . S
C2794 C2797 1.409 . S
C2795 H2787 0.930 . S
C2795 C2796 1.355 . S
C2795 C2797 1.415 . S
C2796 C2795 1.355 . S
C2796 C2798 1.419 . S
C2797 C2792 1.425 . S
C2797 C2794 1.409 . S
C2797 C2795 1.415 . S
C2798 H2788 0.930 . S
C2798 C2796 1.419 . S
C2798 C2799 1.362 . S
C2799 H2789 0.930 . S
C2799 C2792 1.409 . S
C2799 C2798 1.362 . S
H2800 C2806 0.930 . S
H2801 C2809 0.930 . S
H2802 C2810 0.930 . S
H2803 C2811 0.930 . S
H2804 C2814 0.930 . S
H2805 C2815 0.930 . S
C2806 H2800 0.930 . S
C2806 C2807 1.355 . S
C2806 C2808 1.415 . S
C2807 C2806 1.355 . S
C2807 C2809 1.419 . S
C2808 C2806 1.415 . S
C2808 C2813 1.425 . S
C2808 C2815 1.409 . S
C2809 H2801 0.930 . S
C2809 C2807 1.419 . S
C2809 C2810 1.362 . S
C2810 H2802 0.930 . S
C2810 C2809 1.362 . S
C2810 C2813 1.409 . S
C2811 H2803 0.930 . S
C2811 C2812 1.355 . S
C2811 C2813 1.415 . S
C2812 C2811 1.355 . S
C2812 C2814 1.419 . S
C2813 C2808 1.425 . S
C2813 C2810 1.409 . S
C2813 C2811 1.415 . S
C2814 H2804 0.930 . S
C2814 C2812 1.419 . S
C2814 C2815 1.362 . S
C2815 H2805 0.930 . S
C2815 C2808 1.409 . S
C2815 C2814 1.362 . S
H2816 C2822 0.930 . S
H2817 C2825 0.930 . S
H2818 C2826 0.930 . S
H2819 C2827 0.930 . S
H2820 C2830 0.930 . S
H2821 C2831 0.930 . S
C2822 H2816 0.930 . S
C2822 C2823 1.355 . S
C2822 C2824 1.415 . S
C2823 C2822 1.355 . S
C2823 C2825 1.419 . S
C2824 C2822 1.415 . S
C2824 C2829 1.425 . S
C2824 C2831 1.409 . S
C2825 H2817 0.930 . S
C2825 C2823 1.419 . S
C2825 C2826 1.362 . S
C2826 H2818 0.930 . S
C2826 C2825 1.362 . S
C2826 C2829 1.409 . S
C2827 H2819 0.930 . S
C2827 C2828 1.355 . S
C2827 C2829 1.415 . S
C2828 C2827 1.355 . S
C2828 C2830 1.419 . S
C2829 C2824 1.425 . S
C2829 C2826 1.409 . S
C2829 C2827 1.415 . S
C2830 H2820 0.930 . S
C2830 C2828 1.419 . S
C2830 C2831 1.362 . S
C2831 H2821 0.930 . S
C2831 C2824 1.409 . S
C2831 C2830 1.362 . S
H2832 C2838 0.930 . S
H2833 C2841 0.930 . S
H2834 C2842 0.930 . S
H2835 C2843 0.930 . S
H2836 C2846 0.930 . S
H2837 C2847 0.930 . S
C2838 H2832 0.930 . S
C2838 C2839 1.355 . S
C2838 C2840 1.415 . S
C2839 C2838 1.355 . S
C2839 C2841 1.419 . S
C2840 C2838 1.415 . S
C2840 C2845 1.425 . S
C2840 C2847 1.409 . S
C2841 H2833 0.930 . S
C2841 C2839 1.419 . S
C2841 C2842 1.362 . S
C2842 H2834 0.930 . S
C2842 C2841 1.362 . S
C2842 C2845 1.409 . S
C2843 H2835 0.930 . S
C2843 C2844 1.355 . S
C2843 C2845 1.415 . S
C2844 C2843 1.355 . S
C2844 C2846 1.419 . S
C2845 C2840 1.425 . S
C2845 C2842 1.409 . S
C2845 C2843 1.415 . S
C2846 H2836 0.930 . S
C2846 C2844 1.419 . S
C2846 C2847 1.362 . S
C2847 H2837 0.930 . S
C2847 C2840 1.409 . S
C2847 C2846 1.362 . S
H2848 C2854 0.930 . S
H2849 C2857 0.930 . S
H2850 C2858 0.930 . S
H2851 C2859 0.930 . S
H2852 C2862 0.930 . S
H2853 C2863 0.930 . S
C2854 H2848 0.930 . S
C2854 C2855 1.355 . S
C2854 C2856 1.415 . S
C2855 C2854 1.355 . S
C2855 C2857 1.419 . S
C2856 C2854 1.415 . S
C2856 C2861 1.425 . S
C2856 C2863 1.409 . S
C2857 H2849 0.930 . S
C2857 C2855 1.419 . S
C2857 C2858 1.362 . S
C2858 H2850 0.930 . S
C2858 C2857 1.362 . S
C2858 C2861 1.409 . S
C2859 H2851 0.930 . S
C2859 C2860 1.355 . S
C2859 C2861 1.415 . S
C2860 C2859 1.355 . S
C2860 C2862 1.419 . S
C2861 C2856 1.425 . S
C2861 C2858 1.409 . S
C2861 C2859 1.415 . S
C2862 H2852 0.930 . S
C2862 C2860 1.419 . S
C2862 C2863 1.362 . S
C2863 H2853 0.930 . S
C2863 C2856 1.409 . S
C2863 C2862 1.362 . S
H2864 C2870 0.930 . S
H2865 C2873 0.930 . S
H2866 C2874 0.930 . S
H2867 C2875 0.930 . S
H2868 C2878 0.930 . S
H2869 C2879 0.930 . S
C2870 H2864 0.930 . S
C2870 C2871 1.355 . S
C2870 C2872 1.415 . S
C2871 C2870 1.355 . S
C2871 C2873 1.419 . S
C2872 C2870 1.415 . S
C2872 C2877 1.425 . S
C2872 C2879 1.409 . S
C2873 H2865 0.930 . S
C2873 C2871 1.419 . S
C2873 C2874 1.362 . S
C2874 H2866 0.930 . S
C2874 C2873 1.362 . S
C2874 C2877 1.409 . S
C2875 H2867 0.930 . S
C2875 C2876 1.355 . S
C2875 C2877 1.415 . S
C2876 C2875 1.355 . S
C2876 C2878 1.419 . S
C2877 C2872 1.425 . S
C2877 C2874 1.409 . S
C2877 C2875 1.415 . S
C2878 H2868 0.930 . S
C2878 C2876 1.419 . S
C2878 C2879 1.362 . S
C2879 H2869 0.930 . S
C2879 C2872 1.409 . S
C2879 C2878 1.362 . S
H2880 C2886 0.930 . S
H2881 C2889 0.930 . S
H2882 C2890 0.930 . S
H2883 C2891 0.930 . S
H2884 C2894 0.930 . S
H2885 C2895 0.930 . S
C2886 H2880 0.930 . S
C2886 C2887 1.355 . S
C2886 C2888 1.415 . S
C2887 C2886 1.355 . S
C2887 C2889 1.419 . S
C2888 C2886 1.415 . S
C2888 C2893 1.425 . S
C2888 C2895 1.409 . S
C2889 H2881 0.930 . S
C2889 C2887 1.419 . S
C2889 C2890 1.362 . S
C2890 H2882 0.930 . S
C2890 C2889 1.362 . S
C2890 C2893 1.409 . S
C2891 H2883 0.930 . S
C2891 C2892 1.355 . S
C2891 C2893 1.415 . S
C2892 C2891 1.355 . S
C2892 C2894 1.419 . S
C2893 C2888 1.425 . S
C2893 C2890 1.409 . S
C2893 C2891 1.415 . S
C2894 H2884 0.930 . S
C2894 C2892 1.419 . S
C2894 C2895 1.362 . S
C2895 H2885 0.930 . S
C2895 C2888 1.409 . S
C2895 C2894 1.362 . S
H2896 C2902 0.930 . S
H2897 C2905 0.930 . S
H2898 C2906 0.930 . S
H2899 C2907 0.930 . S
H2900 C2910 0.930 . S
H2901 C2911 0.930 . S
C2902 H2896 0.930 . S
C2902 C2903 1.355 . S
C2902 C2904 1.415 . S
C2903 C2902 1.355 . S
C2903 C2905 1.419 . S
C2904 C2902 1.415 . S
C2904 C2909 1.425 . S
C2904 C2911 1.409 . S
C2905 H2897 0.930 . S
C2905 C2903 1.419 . S
C2905 C2906 1.362 . S
C2906 H2898 0.930 . S
C2906 C2905 1.362 . S
C2906 C2909 1.409 . S
C2907 H2899 0.930 . S
C2907 C2908 1.355 . S
C2907 C2909 1.415 . S
C2908 C2907 1.355 . S
C2908 C2910 1.419 . S
C2909 C2904 1.425 . S
C2909 C2906 1.409 . S
C2909 C2907 1.415 . S
C2910 H2900 0.930 . S
C2910 C2908 1.419 . S
C2910 C2911 1.362 . S
C2911 H2901 0.930 . S
C2911 C2904 1.409 . S
C2911 C2910 1.362 . S
H2912 C2918 0.930 . S
H2913 C2921 0.930 . S
H2914 C2922 0.930 . S
H2915 C2923 0.930 . S
H2916 C2926 0.930 . S
H2917 C2927 0.930 . S
C2918 H2912 0.930 . S
C2918 C2919 1.355 . S
C2918 C2920 1.415 . S
C2919 C2918 1.355 . S
C2919 C2921 1.419 . S
C2920 C2918 1.415 . S
C2920 C2925 1.425 . S
C2920 C2927 1.409 . S
C2921 H2913 0.930 . S
C2921 C2919 1.419 . S
C2921 C2922 1.362 . S
C2922 H2914 0.930 . S
C2922 C2921 1.362 . S
C2922 C2925 1.409 . S
C2923 H2915 0.930 . S
C2923 C2924 1.355 . S
C2923 C2925 1.415 . S
C2924 C2923 1.355 . S
C2924 C2926 1.419 . S
C2925 C2920 1.425 . S
C2925 C2922 1.409 . S
C2925 C2923 1.415 . S
C2926 H2916 0.930 . S
C2926 C2924 1.419 . S
C2926 C2927 1.362 . S
C2927 H2917 0.930 . S
C2927 C2920 1.409 . S
C2927 C2926 1.362 . S
H2928 C2934 0.930 . S
H2929 C2937 0.930 . S
H2930 C2938 0.930 . S
H2931 C2939 0.930 . S
H2932 C2942 0.930 . S
H2933 C2943 0.930 . S
C2934 H2928 0.930 . S
C2934 C2935 1.355 . S
C2934 C2936 1.415 . S
C2935 C2934 1.355 . S
C2935 C2937 1.419 . S
C2936 C2934 1.415 . S
C2936 C2941 1.425 . S
C2936 C2943 1.409 . S
C2937 H2929 0.930 . S
C2937 C2935 1.419 . S
C2937 C2938 1.362 . S
C2938 H2930 0.930 . S
C2938 C2937 1.362 . S
C2938 C2941 1.409 . S
C2939 H2931 0.930 . S
C2939 C2940 1.355 . S
C2939 C2941 1.415 . S
C2940 C2939 1.355 . S
C2940 C2942 1.419 . S
C2941 C2936 1.425 . S
C2941 C2938 1.409 . S
C2941 C2939 1.415 . S
C2942 H2932 0.930 . S
C2942 C2940 1.419 . S
C2942 C2943 1.362 . S
C2943 H2933 0.930 . S
C2943 C2936 1.409 . S
C2943 C2942 1.362 . S
H2944 C2950 0.930 . S
H2945 C2953 0.930 . S
H2946 C2954 0.930 . S
H2947 C2955 0.930 . S
H2948 C2958 0.930 . S
H2949 C2959 0.930 . S
C2950 H2944 0.930 . S
C2950 C2951 1.355 . S
C2950 C2952 1.415 . S
C2951 C2950 1.355 . S
C2951 C2953 1.419 . S
C2952 C2950 1.415 . S
C2952 C2957 1.425 . S
C2952 C2959 1.409 . S
C2953 H2945 0.930 . S
C2953 C2951 1.419 . S
C2953 C2954 1.362 . S
C2954 H2946 0.930 . S
C2954 C2953 1.362 . S
C2954 C2957 1.409 . S
C2955 H2947 0.930 . S
C2955 C2956 1.355 . S
C2955 C2957 1.415 . S
C2956 C2955 1.355 . S
C2956 C2958 1.419 . S
C2957 C2952 1.425 . S
C2957 C2954 1.409 . S
C2957 C2955 1.415 . S
C2958 H2948 0.930 . S
C2958 C2956 1.419 . S
C2958 C2959 1.362 . S
C2959 H2949 0.930 . S
C2959 C2952 1.409 . S
C2959 C2958 1.362 . S
H2960 C2966 0.930 . S
H2961 C2969 0.930 . S
H2962 C2970 0.930 . S
H2963 C2971 0.930 . S
H2964 C2974 0.930 . S
H2965 C2975 0.930 . S
C2966 H2960 0.930 . S
C2966 C2967 1.355 . S
C2966 C2968 1.415 . S
C2967 C2966 1.355 . S
C2967 C2969 1.419 . S
C2968 C2966 1.415 . S
C2968 C2973 1.425 . S
C2968 C2975 1.409 . S
C2969 H2961 0.930 . S
C2969 C2967 1.419 . S
C2969 C2970 1.362 . S
C2970 H2962 0.930 . S
C2970 C2969 1.362 . S
C2970 C2973 1.409 . S
C2971 H2963 0.930 . S
C2971 C2972 1.355 . S
C2971 C2973 1.415 . S
C2972 C2971 1.355 . S
C2972 C2974 1.419 . S
C2973 C2968 1.425 . S
C2973 C2970 1.409 . S
C2973 C2971 1.415 . S
C2974 H2964 0.930 . S
C2974 C2972 1.419 . S
C2974 C2975 1.362 . S
C2975 H2965 0.930 . S
C2975 C2968 1.409 . S
C2975 C2974 1.362 . S
H2976 C2982 0.930 . S
H2977 C2985 0.930 . S
H2978 C2986 0.930 . S
H2979 C2987 0.930 . S
H2980 C2990 0.930 . S
H2981 C2991 0.930 . S
C2982 H2976 0.930 . S
C2982 C2983 1.355 . S
C2982 C2984 1.415 . S
C2983 C2982 1.355 . S
C2983 C2985 1.419 . S
C2984 C2982 1.415 . S
C2984 C2989 1.425 . S
C2984 C2991 1.409 . S
C2985 H2977 0.930 . S
C2985 C2983 1.419 . S
C2985 C2986 1.362 . S
C2986 H2978 0.930 . S
C2986 C2985 1.362 . S
C2986 C2989 1.409 . S
C2987 H2979 0.930 . S
C2987 C2988 1.355 . S
C2987 C2989 1.415 . S
C2988 C2987 1.355 . S
C2988 C2990 1.419 . S
C2989 C2984 1.425 . S
C2989 C2986 1.409 . S
C2989 C2987 1.415 . S
C2990 H2980 0.930 . S
C2990 C2988 1.419 . S
C2990 C2991 1.362 . S
C2991 H2981 0.930 . S
C2991 C2984 1.409 . S
C2991 C2990 1.362 . S
H2992 C2998 0.930 . S
H2993 C3001 0.930 . S
H2994 C3002 0.930 . S
H2995 C3003 0.930 . S
H2996 C3006 0.930 . S
H2997 C3007 0.930 . S
C2998 H2992 0.930 . S
C2998 C2999 1.355 . S
C2998 C3000 1.415 . S
C2999 C2998 1.355 . S
C2999 C3001 1.419 . S
C3000 C2998 1.415 . S
C3000 C3005 1.425 1_655 S
C3000 C3007 1.409 . S
C3001 H2993 0.930 . S
C3001 C2999 1.419 . S
C3001 C3002 1.362 1_655 S
C3002 H2994 0.930 . S
C3002 C3001 1.362 1_455 S
C3002 C3005 1.409 . S
C3003 H2995 0.930 . S
C3003 C3004 1.355 . S
C3003 C3005 1.415 . S
C3004 C3003 1.355 . S
C3004 C3006 1.419 1_455 S
C3005 C3000 1.425 1_455 S
C3005 C3002 1.409 . S
C3005 C3003 1.415 . S
C3006 H2996 0.930 . S
C3006 C3004 1.419 1_655 S
C3006 C3007 1.362 . S
C3007 H2997 0.930 . S
C3007 C3000 1.409 . S
C3007 C3006 1.362 . S
H3008 C3014 0.930 . S
H3009 C3017 0.930 . S
H3010 C3018 0.930 . S
H3011 C3019 0.930 . S
H3012 C3022 0.930 . S
H3013 C3023 0.930 . S
C3014 H3008 0.930 . S
C3014 C3015 1.355 . S
C3014 C3016 1.415 . S
C3015 C3014 1.355 . S
C3015 C3017 1.419 . S
C3016 C3014 1.415 . S
C3016 C3021 1.425 . S
C3016 C3023 1.409 . S
C3017 H3009 0.930 . S
C3017 C3015 1.419 . S
C3017 C3018 1.362 . S
C3018 H3010 0.930 . S
C3018 C3017 1.362 . S
C3018 C3021 1.409 . S
C3019 H3011 0.930 . S
C3019 C3020 1.355 . S
C3019 C3021 1.415 . S
C3020 C3019 1.355 . S
C3020 C3022 1.419 . S
C3021 C3016 1.425 . S
C3021 C3018 1.409 . S
C3021 C3019 1.415 . S
C3022 H3012 0.930 . S
C3022 C3020 1.419 . S
C3022 C3023 1.362 . S
C3023 H3013 0.930 . S
C3023 C3016 1.409 . S
C3023 C3022 1.362 . S
H3024 C3030 0.930 . S
H3025 C3033 0.930 . S
H3026 C3034 0.930 . S
H3027 C3035 0.930 . S
H3028 C3038 0.930 . S
H3029 C3039 0.930 . S
C3030 H3024 0.930 . S
C3030 C3031 1.355 . S
C3030 C3032 1.415 . S
C3031 C3030 1.355 . S
C3031 C3033 1.419 . S
C3032 C3030 1.415 . S
C3032 C3037 1.425 . S
C3032 C3039 1.409 . S
C3033 H3025 0.930 . S
C3033 C3031 1.419 . S
C3033 C3034 1.362 . S
C3034 H3026 0.930 . S
C3034 C3033 1.362 . S
C3034 C3037 1.409 . S
C3035 H3027 0.930 . S
C3035 C3036 1.355 . S
C3035 C3037 1.415 . S
C3036 C3035 1.355 . S
C3036 C3038 1.419 . S
C3037 C3032 1.425 . S
C3037 C3034 1.409 . S
C3037 C3035 1.415 . S
C3038 H3028 0.930 . S
C3038 C3036 1.419 . S
C3038 C3039 1.362 . S
C3039 H3029 0.930 . S
C3039 C3032 1.409 . S
C3039 C3038 1.362 . S
H3040 C3046 0.930 . S
H3041 C3049 0.930 . S
H3042 C3050 0.930 . S
H3043 C3051 0.930 . S
H3044 C3054 0.930 . S
H3045 C3055 0.930 . S
C3046 H3040 0.930 . S
C3046 C3047 1.355 . S
C3046 C3048 1.415 . S
C3047 C3046 1.355 . S
C3047 C3049 1.419 . S
C3048 C3046 1.415 . S
C3048 C3053 1.425 . S
C3048 C3055 1.409 . S
C3049 H3041 0.930 . S
C3049 C3047 1.419 . S
C3049 C3050 1.362 . S
C3050 H3042 0.930 . S
C3050 C3049 1.362 . S
C3050 C3053 1.409 . S
C3051 H3043 0.930 . S
C3051 C3052 1.355 . S
C3051 C3053 1.415 . S
C3052 C3051 1.355 . S
C3052 C3054 1.419 . S
C3053 C3048 1.425 . S
C3053 C3050 1.409 . S
C3053 C3051 1.415 . S
C3054 H3044 0.930 . S
C3054 C3052 1.419 . S
C3054 C3055 1.362 . S
C3055 H3045 0.930 . S
C3055 C3048 1.409 . S
C3055 C3054 1.362 . S
H3056 C3062 0.930 . S
H3057 C3065 0.930 . S
H3058 C3066 0.930 . S
H3059 C3067 0.930 . S
H3060 C3070 0.930 . S
H3061 C3071 0.930 1_455 S
C3062 H3056 0.930 . S
C3062 C3063 1.355 . S
C3062 C3064 1.415 . S
C3063 C3062 1.355 . S
C3063 C3065 1.419 . S
C3064 C3062 1.415 . S
C3064 C3069 1.425 . S
C3064 C3071 1.409 . S
C3065 H3057 0.930 . S
C3065 C3063 1.419 . S
C3065 C3066 1.362 . S
C3066 H3058 0.930 . S
C3066 C3065 1.362 . S
C3066 C3069 1.409 . S
C3067 H3059 0.930 . S
C3067 C3068 1.355 . S
C3067 C3069 1.415 . S
C3068 C3067 1.355 . S
C3068 C3070 1.419 1_655 S
C3069 C3064 1.425 . S
C3069 C3066 1.409 . S
C3069 C3067 1.415 . S
C3070 H3060 0.930 . S
C3070 C3068 1.419 1_455 S
C3070 C3071 1.362 1_455 S
C3071 H3061 0.930 1_655 S
C3071 C3064 1.409 . S
C3071 C3070 1.362 1_655 S
H3072 C3078 0.930 . S
H3073 C3081 0.930 . S
H3074 C3082 0.930 . S
H3075 C3083 0.930 . S
H3076 C3086 0.930 . S
H3077 C3087 0.930 . S
C3078 H3072 0.930 . S
C3078 C3079 1.355 . S
C3078 C3080 1.415 . S
C3079 C3078 1.355 . S
C3079 C3081 1.419 . S
C3080 C3078 1.415 . S
C3080 C3085 1.425 . S
C3080 C3087 1.409 . S
C3081 H3073 0.930 . S
C3081 C3079 1.419 . S
C3081 C3082 1.362 . S
C3082 H3074 0.930 . S
C3082 C3081 1.362 . S
C3082 C3085 1.409 . S
C3083 H3075 0.930 . S
C3083 C3084 1.355 . S
C3083 C3085 1.415 . S
C3084 C3083 1.355 . S
C3084 C3086 1.419 . S
C3085 C3080 1.425 . S
C3085 C3082 1.409 . S
C3085 C3083 1.415 . S
C3086 H3076 0.930 . S
C3086 C3084 1.419 . S
C3086 C3087 1.362 . S
C3087 H3077 0.930 . S
C3087 C3080 1.409 . S
C3087 C3086 1.362 . S
H3088 C3094 0.930 . S
H3089 C3097 0.930 . S
H3090 C3098 0.930 . S
H3091 C3099 0.930 . S
H3092 C3102 0.930 . S
H3093 C3103 0.930 . S
C3094 H3088 0.930 . S
C3094 C3095 1.355 . S
C3094 C3096 1.415 . S
C3095 C3094 1.355 . S
C3095 C3097 1.419 . S
C3096 C3094 1.415 . S
C3096 C3101 1.425 . S
C3096 C3103 1.409 . S
C3097 H3089 0.930 . S
C3097 C3095 1.419 . S
C3097 C3098 1.362 . S
C3098 H3090 0.930 . S
C3098 C3097 1.362 . S
C3098 C3101 1.409 . S
C3099 H3091 0.930 . S
C3099 C3100 1.355 . S
C3099 C3101 1.415 . S
C3100 C3099 1.355 . S
C3100 C3102 1.419 . S
C3101 C3096 1.425 . S
C3101 C3098 1.409 . S
C3101 C3099 1.415 . S
C3102 H3092 0.930 . S
C3102 C3100 1.419 . S
C3102 C3103 1.362 . S
C3103 H3093 0.930 . S
C3103 C3096 1.409 . S
C3103 C3102 1.362 . S
H3104 C3110 0.930 . S
H3105 C3113 0.930 . S
H3106 C3114 0.930 . S
H3107 C3115 0.930 1_545 S
H3108 C3118 0.932 . S
H3109 C3119 0.930 . S
C3110 H3104 0.930 . S
C3110 C3111 1.355 . S
C3110 C3112 1.415 . S
C3111 C3110 1.355 . S
C3111 C3113 1.419 . S
C3112 C3110 1.415 . S
C3112 C3117 1.425 . S
C3112 C3119 1.409 . S
C3113 H3105 0.930 . S
C3113 C3111 1.419 . S
C3113 C3114 1.362 . S
C3114 H3106 0.930 . S
C3114 C3113 1.362 . S
C3114 C3117 1.409 . S
C3115 H3107 0.930 1_565 S
C3115 C3116 1.355 . S
C3115 C3117 1.415 . S
C3116 C3115 1.355 . S
C3116 C3118 1.419 . S
C3117 C3112 1.425 . S
C3117 C3114 1.409 . S
C3117 C3115 1.415 . S
C3118 H3108 0.932 . S
C3118 C3116 1.419 . S
C3118 C3119 1.362 . S
C3119 H3109 0.930 . S
C3119 C3112 1.409 . S
C3119 C3118 1.362 . S
H3120 C3126 0.930 . S
H3121 C3129 0.930 . S
H3122 C3130 0.930 . S
H3123 C3131 0.930 . S
H3124 C3134 0.930 . S
H3125 C3135 0.930 . S
C3126 H3120 0.930 . S
C3126 C3127 1.355 . S
C3126 C3128 1.415 . S
C3127 C3126 1.355 . S
C3127 C3129 1.419 . S
C3128 C3126 1.415 . S
C3128 C3133 1.425 . S
C3128 C3135 1.409 . S
C3129 H3121 0.930 . S
C3129 C3127 1.419 . S
C3129 C3130 1.362 . S
C3130 H3122 0.930 . S
C3130 C3129 1.362 . S
C3130 C3133 1.409 . S
C3131 H3123 0.930 . S
C3131 C3132 1.355 . S
C3131 C3133 1.415 . S
C3132 C3131 1.355 . S
C3132 C3134 1.419 . S
C3133 C3128 1.425 . S
C3133 C3130 1.409 . S
C3133 C3131 1.415 . S
C3134 H3124 0.930 . S
C3134 C3132 1.419 . S
C3134 C3135 1.362 . S
C3135 H3125 0.930 . S
C3135 C3128 1.409 . S
C3135 C3134 1.362 . S
H3136 C3142 0.930 . S
H3137 C3145 0.930 . S
H3138 C3146 0.930 . S
H3139 C3147 0.930 1_556 S
H3140 C3150 0.930 . S
H3141 C3151 0.930 . S
C3142 H3136 0.930 . S
C3142 C3143 1.355 . S
C3142 C3144 1.415 . S
C3143 C3142 1.355 . S
C3143 C3145 1.419 1_554 S
C3144 C3142 1.415 . S
C3144 C3149 1.425 . S
C3144 C3151 1.409 . S
C3145 H3137 0.930 . S
C3145 C3143 1.419 1_556 S
C3145 C3146 1.362 . S
C3146 H3138 0.930 . S
C3146 C3145 1.362 . S
C3146 C3149 1.409 1_556 S
C3147 H3139 0.930 1_554 S
C3147 C3148 1.355 . S
C3147 C3149 1.415 . S
C3148 C3147 1.355 . S
C3148 C3150 1.419 . S
C3149 C3144 1.425 . S
C3149 C3146 1.409 1_554 S
C3149 C3147 1.415 . S
C3150 H3140 0.930 . S
C3150 C3148 1.419 . S
C3150 C3151 1.362 . S
C3151 H3141 0.930 . S
C3151 C3144 1.409 . S
C3151 C3150 1.362 . S
H3152 C3158 0.930 . S
H3153 C3161 0.930 . S
H3154 C3162 0.930 . S
H3155 C3163 0.930 . S
H3156 C3166 0.930 . S
H3157 C3167 0.930 . S
C3158 H3152 0.930 . S
C3158 C3159 1.355 . S
C3158 C3160 1.415 . S
C3159 C3158 1.355 . S
C3159 C3161 1.419 . S
C3160 C3158 1.415 . S
C3160 C3165 1.425 . S
C3160 C3167 1.409 . S
C3161 H3153 0.930 . S
C3161 C3159 1.419 . S
C3161 C3162 1.362 . S
C3162 H3154 0.930 . S
C3162 C3161 1.362 . S
C3162 C3165 1.409 . S
C3163 H3155 0.930 . S
C3163 C3164 1.355 . S
C3163 C3165 1.415 . S
C3164 C3163 1.355 . S
C3164 C3166 1.419 . S
C3165 C3160 1.425 . S
C3165 C3162 1.409 . S
C3165 C3163 1.415 . S
C3166 H3156 0.930 . S
C3166 C3164 1.419 . S
C3166 C3167 1.362 . S
C3167 H3157 0.930 . S
C3167 C3160 1.409 . S
C3167 C3166 1.362 . S
H3168 C3174 0.930 . S
H3169 C3177 0.930 . S
H3170 C3178 0.930 . S
H3171 C3179 0.930 . S
H3172 C3182 0.946 . S
H3173 C3183 0.930 . S
C3174 H3168 0.930 . S
C3174 C3175 1.355 . S
C3174 C3176 1.415 . S
C3175 C3174 1.355 . S
C3175 C3177 1.419 . S
C3176 C3174 1.415 . S
C3176 C3181 1.425 . S
C3176 C3183 1.409 . S
C3177 H3169 0.930 . S
C3177 C3175 1.419 . S
C3177 C3178 1.362 . S
C3178 H3170 0.930 . S
C3178 C3177 1.362 . S
C3178 C3181 1.409 . S
C3179 H3171 0.930 . S
C3179 C3180 1.355 . S
C3179 C3181 1.415 . S
C3180 C3179 1.355 . S
C3180 C3182 1.419 . S
C3181 C3176 1.425 . S
C3181 C3178 1.409 . S
C3181 C3179 1.415 . S
C3182 H3172 0.946 . S
C3182 C3180 1.419 . S
C3182 C3183 1.362 . S
C3183 H3173 0.930 . S
C3183 C3176 1.409 . S
C3183 C3182 1.362 . S
H3184 C3190 0.930 . S
H3185 C3193 0.930 . S
H3186 C3194 0.930 . S
H3187 C3195 0.930 . S
H3188 C3198 0.930 . S
H3189 C3199 0.930 . S
C3190 H3184 0.930 . S
C3190 C3191 1.355 . S
C3190 C3192 1.415 . S
C3191 C3190 1.355 . S
C3191 C3193 1.419 . S
C3192 C3190 1.415 . S
C3192 C3197 1.425 . S
C3192 C3199 1.409 . S
C3193 H3185 0.930 . S
C3193 C3191 1.419 . S
C3193 C3194 1.362 . S
C3194 H3186 0.930 . S
C3194 C3193 1.362 . S
C3194 C3197 1.409 . S
C3195 H3187 0.930 . S
C3195 C3196 1.355 . S
C3195 C3197 1.415 . S
C3196 C3195 1.355 . S
C3196 C3198 1.419 . S
C3197 C3192 1.425 . S
C3197 C3194 1.409 . S
C3197 C3195 1.415 . S
C3198 H3188 0.930 . S
C3198 C3196 1.419 . S
C3198 C3199 1.362 . S
C3199 H3189 0.930 . S
C3199 C3192 1.409 . S
C3199 C3198 1.362 . S
H3200 C3206 0.930 . S
H3201 C3209 0.930 . S
H3202 C3210 0.930 . S
H3203 C3211 0.930 . S
H3204 C3214 0.930 . S
H3205 C3215 0.930 . S
C3206 H3200 0.930 . S
C3206 C3207 1.355 . S
C3206 C3208 1.415 . S
C3207 C3206 1.355 . S
C3207 C3209 1.419 . S
C3208 C3206 1.415 . S
C3208 C3213 1.425 . S
C3208 C3215 1.409 . S
C3209 H3201 0.930 . S
C3209 C3207 1.419 . S
C3209 C3210 1.362 . S
C3210 H3202 0.930 . S
C3210 C3209 1.362 . S
C3210 C3213 1.409 . S
C3211 H3203 0.930 . S
C3211 C3212 1.355 . S
C3211 C3213 1.415 . S
C3212 C3211 1.355 . S
C3212 C3214 1.419 . S
C3213 C3208 1.425 . S
C3213 C3210 1.409 . S
C3213 C3211 1.415 . S
C3214 H3204 0.930 . S
C3214 C3212 1.419 . S
C3214 C3215 1.362 . S
C3215 H3205 0.930 . S
C3215 C3208 1.409 . S
C3215 C3214 1.362 . S
C1687 C105 1.958 . S
C1692 C403 1.830 . S
C1703 C65 2.261 . S
C1708 C486 2.172 . S
C1719 C73 1.642 . S
C1724 C571 1.587 . S
C1740 C651 1.383 . S
C1735 C92 1.541 . S
C1751 C17 1.593 . S
C1756 C735 1.576 . S
C1772 C828 1.051 . S
C1767 C37 1.054 . S
C1788 C906 1.054 . S
C1783 C49 1.053 . S
C1799 C8 1.603 . S
C1804 C991 1.366 . S
C1820 C402 2.045 . S
C1815 C231 2.132 . S
C1831 C241 0.783 . S
C1836 C483 0.813 . S
C1852 C570 1.219 . S
C1847 C273 1.273 . S
C1868 C655 1.564 . S
C1863 C171 1.675 . S
C1879 C227 2.169 . S
C1884 C739 1.951 . S
C1900 C831 1.220 . S
C1895 C245 1.265 . S
C1916 C903 0.892 . S
C1911 C269 0.839 . S
C1932 C990 1.611 . S
C1927 C175 1.739 . S
C1948 C399 1.425 . S
C1943 C162 1.460 . S
C1959 C289 1.960 . S
C1964 C1074 1.904 1_556 S
C1980 C1148 2.272 . S
C1975 C330 2.441 . S
C1996 C1243 0.632 . S
C1991 C317 0.558 . S
C2007 C120 1.075 . S
C2012 C987 1.171 . S
C2023 C134 1.510 . S
C2028 C567 1.492 . S
C2039 C331 2.178 . S
C2044 C1326 2.127 . S
C2060 C1411 0.738 . S
C2055 C303 0.742 . S
C2076 C392 1.768 . S
C2071 C59 1.926 . S
C2092 C1419 2.200 . S
C2087 C107 2.273 . S
C2103 C91 1.716 . S
C2108 C560 1.642 . S
C2119 C78 1.531 . S
C2124 C1332 1.481 . S
C2140 C744 1.554 . S
C2135 C7 1.543 . S
C2151 C51 1.032 . S
C2156 C1155 0.927 . S
C2172 C915 1.116 . S
C2167 C31 1.148 . S
C2188 C1484 1.467 . S
C2183 C22 1.609 . S
C2204 C411 2.094 . S
C2199 C143 2.192 . S
C2220 C1416 0.884 . S
C2215 C315 0.750 . S
C2231 C115 1.287 . S
C2236 C579 1.193 . S
C2247 C287 1.691 . S
C2252 C1316 1.633 . S
C2263 C147 2.076 . S
C2268 C728 2.023 . S
C2284 C1158 1.140 . S
C2279 C311 1.303 . S
C2295 C119 0.902 . S
C2300 C912 0.787 . S
C2311 C283 1.737 . S
C2316 C1503 1.573 . S
C2327 C190 1.480 . S
C2332 C408 1.363 1_554 S
C2343 C177 1.976 . S
C2348 C1083 1.915 . S
C2359 C260 2.464 . S
C2364 C823 2.297 . S
C2375 C247 0.610 . S
C2380 C1232 0.716 . S
C2396 C1500 1.131 . S
C2391 C274 0.990 1_565 S
C2407 C218 1.520 . S
C2412 C576 1.453 . S
C2428 C663 2.128 . S
C2423 C261 2.203 . S
C2444 C476 0.826 . S
C2439 C205 0.753 . S
C2455 C77 1.940 . S
C2460 C1579 1.772 . S
C2476 C1410 2.192 . S
C2471 C93 2.247 . S
C2487 C101 1.628 . S
C2492 C1663 1.607 . S
C2503 C64 1.542 . S
C2508 C1323 1.395 . S
C2519 C45 1.608 . S
C2524 C1071 1.553 . S
C2540 C1164 0.979 . S
C2535 C9 1.011 . S
C2556 C1242 1.096 . S
C2551 C21 0.940 . S
C2572 C1495 1.472 . S
C2567 C36 1.649 . S
C2588 C1578 2.087 . S
C2583 C259 2.098 . S
C2599 C185 0.821 . S
C2604 C1407 0.733 . S
C2620 C1662 1.226 . S
C2615 C203 1.272 . S
C2636 C1327 1.559 . S
C2631 C213 1.657 . S
C2652 C1075 1.940 . S
C2647 C255 2.161 . S
C2663 C189 1.280 . S
C2668 C1167 1.234 . S
C2684 C1239 0.795 . S
C2679 C199 0.854 . S
C2695 C217 1.715 . S
C2700 C1494 1.605 . S
C2716 C1575 1.379 . S
C2711 C316 1.471 . S
C2727 C135 1.954 . S
C2732 C738 1.901 . S
C2748 C812 2.238 . S
C2743 C148 2.421 . S
C2764 C907 0.679 . S
C2759 C163 0.552 . S
C2780 C1491 1.183 . S
C2775 C302 1.058 . S
C2791 C288 1.514 1_554 S
C2796 C1659 1.485 . S
C2812 C654 2.081 . S
C2807 C149 2.185 . S
C2828 C487 0.843 . S
C2823 C121 0.741 . S
C2839 C87 1.946 . S
C2844 C1568 1.782 . S
C2860 C495 2.238 . S
C2855 C79 2.254 . S
C2871 C63 1.716 . S
C2876 C1652 1.646 . S
C2887 C106 1.562 . S
C2892 C660 1.440 . S
C2903 C35 1.502 . S
C2908 C1080 1.581 . S
C2924 C819 0.923 . S
C2919 C23 1.025 . S
C2935 C3 1.144 . S
C2940 C1251 1.112 . S
C2951 C50 1.570 . S
C2956 C980 1.383 . S
C2972 C1587 2.070 . S
C2967 C325 2.190 . S
C2983 C161 0.748 . S
C2988 C492 0.871 . S
C3004 C1671 1.206 . S
C2999 C297 1.281 . S
C3015 C133 1.707 . S
C3020 C644 1.631 . S
C3031 C329 2.106 . S
C3036 C1064 2.054 . S
C3052 C822 1.173 . S
C3047 C157 1.285 . S
C3063 C301 0.888 . S
C3068 C1248 0.821 1_655 S
C3084 C999 1.586 . S
C3079 C129 1.739 . S
C3100 C1584 1.445 . S
C3095 C246 1.447 . S
C3116 C747 1.891 1_665 S
C3111 C219 1.994 . S
C3127 C232 2.464 . S
C3132 C1159 2.297 . S
C3148 C896 0.691 . S
C3143 C191 0.695 . S
C3159 C204 1.113 . S
C3164 C996 1.085 . S
C3175 C176 1.520 . S
C3180 C1668 1.451 1_554 S
C3196 C1335 2.117 . S
C3191 C233 2.207 1_565 S
C3212 C1400 0.666 . S
C3207 C275 0.790 . S
