# Generated by pormake.
# Topology ocu, (6,8)-cn, num edge types: 1
# Building blocks:
#     Node 0, Type 0, BuildingBlock: MIFKUJ_clean_sbu_0, # of connection points: 6
#     Node 1, Type 0, BuildingBlock: MIFKUJ_clean_sbu_0, # of connection points: 6
#     Node 2, Type 0, BuildingBlock: MIFKUJ_clean_sbu_0, # of connection points: 6
#     Node 3, Type 0, BuildingBlock: MIFKUJ_clean_sbu_0, # of connection points: 6
#     Node 4, Type 0, BuildingBlock: MIFKUJ_clean_sbu_0, # of connection points: 6
#     Node 5, Type 0, BuildingBlock: MIFKUJ_clean_sbu_0, # of connection points: 6
#     Node 6, Type 0, BuildingBlock: MIFKUJ_clean_sbu_0, # of connection points: 6
#     Node 7, Type 0, BuildingBlock: MIFKUJ_clean_sbu_0, # of connection points: 6
#     Node 8, Type 1, BuildingBlock: VETTIZ_charged_sbu_0, # of connection points: 8
#     Node 9, Type 1, BuildingBlock: VETTIZ_charged_sbu_0, # of connection points: 8
#     Node 10, Type 1, BuildingBlock: VETTIZ_charged_sbu_0, # of connection points: 8
#     Node 11, Type 1, BuildingBlock: VETTIZ_charged_sbu_0, # of connection points: 8
#     Node 12, Type 1, BuildingBlock: VETTIZ_charged_sbu_0, # of connection points: 8
#     Node 13, Type 1, BuildingBlock: VETTIZ_charged_sbu_0, # of connection points: 8
#     Edge 14, Type (0, 1), BuildingBlock: XUDNAN_clean_linker_2, # of connection points: 2
#     Edge 15, Type (0, 1), BuildingBlock: XUDNAN_clean_linker_2, # of connection points: 2
#     Edge 16, Type (0, 1), BuildingBlock: XUDNAN_clean_linker_2, # of connection points: 2
#     Edge 17, Type (0, 1), BuildingBlock: XUDNAN_clean_linker_2, # of connection points: 2
#     Edge 18, Type (0, 1), BuildingBlock: XUDNAN_clean_linker_2, # of connection points: 2
#     Edge 19, Type (0, 1), BuildingBlock: XUDNAN_clean_linker_2, # of connection points: 2
#     Edge 20, Type (0, 1), BuildingBlock: XUDNAN_clean_linker_2, # of connection points: 2
#     Edge 21, Type (0, 1), BuildingBlock: XUDNAN_clean_linker_2, # of connection points: 2
#     Edge 22, Type (0, 1), BuildingBlock: XUDNAN_clean_linker_2, # of connection points: 2
#     Edge 23, Type (0, 1), BuildingBlock: XUDNAN_clean_linker_2, # of connection points: 2
#     Edge 24, Type (0, 1), BuildingBlock: XUDNAN_clean_linker_2, # of connection points: 2
#     Edge 25, Type (0, 1), BuildingBlock: XUDNAN_clean_linker_2, # of connection points: 2
#     Edge 26, Type (0, 1), BuildingBlock: XUDNAN_clean_linker_2, # of connection points: 2
#     Edge 27, Type (0, 1), BuildingBlock: XUDNAN_clean_linker_2, # of connection points: 2
#     Edge 28, Type (0, 1), BuildingBlock: XUDNAN_clean_linker_2, # of connection points: 2
#     Edge 29, Type (0, 1), BuildingBlock: XUDNAN_clean_linker_2, # of connection points: 2
#     Edge 30, Type (0, 1), BuildingBlock: XUDNAN_clean_linker_2, # of connection points: 2
#     Edge 31, Type (0, 1), BuildingBlock: XUDNAN_clean_linker_2, # of connection points: 2
#     Edge 32, Type (0, 1), BuildingBlock: XUDNAN_clean_linker_2, # of connection points: 2
#     Edge 33, Type (0, 1), BuildingBlock: XUDNAN_clean_linker_2, # of connection points: 2
#     Edge 34, Type (0, 1), BuildingBlock: XUDNAN_clean_linker_2, # of connection points: 2
#     Edge 35, Type (0, 1), BuildingBlock: XUDNAN_clean_linker_2, # of connection points: 2
#     Edge 36, Type (0, 1), BuildingBlock: XUDNAN_clean_linker_2, # of connection points: 2
#     Edge 37, Type (0, 1), BuildingBlock: XUDNAN_clean_linker_2, # of connection points: 2
#     Edge 38, Type (0, 1), BuildingBlock: XUDNAN_clean_linker_2, # of connection points: 2
#     Edge 39, Type (0, 1), BuildingBlock: XUDNAN_clean_linker_2, # of connection points: 2
#     Edge 40, Type (0, 1), BuildingBlock: XUDNAN_clean_linker_2, # of connection points: 2
#     Edge 41, Type (0, 1), BuildingBlock: XUDNAN_clean_linker_2, # of connection points: 2
#     Edge 42, Type (0, 1), BuildingBlock: XUDNAN_clean_linker_2, # of connection points: 2
#     Edge 43, Type (0, 1), BuildingBlock: XUDNAN_clean_linker_2, # of connection points: 2
#     Edge 44, Type (0, 1), BuildingBlock: XUDNAN_clean_linker_2, # of connection points: 2
#     Edge 45, Type (0, 1), BuildingBlock: XUDNAN_clean_linker_2, # of connection points: 2
#     Edge 46, Type (0, 1), BuildingBlock: XUDNAN_clean_linker_2, # of connection points: 2
#     Edge 47, Type (0, 1), BuildingBlock: XUDNAN_clean_linker_2, # of connection points: 2
#     Edge 48, Type (0, 1), BuildingBlock: XUDNAN_clean_linker_2, # of connection points: 2
#     Edge 49, Type (0, 1), BuildingBlock: XUDNAN_clean_linker_2, # of connection points: 2
#     Edge 50, Type (0, 1), BuildingBlock: XUDNAN_clean_linker_2, # of connection points: 2
#     Edge 51, Type (0, 1), BuildingBlock: XUDNAN_clean_linker_2, # of connection points: 2
#     Edge 52, Type (0, 1), BuildingBlock: XUDNAN_clean_linker_2, # of connection points: 2
#     Edge 53, Type (0, 1), BuildingBlock: XUDNAN_clean_linker_2, # of connection points: 2
#     Edge 54, Type (0, 1), BuildingBlock: XUDNAN_clean_linker_2, # of connection points: 2
#     Edge 55, Type (0, 1), BuildingBlock: XUDNAN_clean_linker_2, # of connection points: 2
#     Edge 56, Type (0, 1), BuildingBlock: XUDNAN_clean_linker_2, # of connection points: 2
#     Edge 57, Type (0, 1), BuildingBlock: XUDNAN_clean_linker_2, # of connection points: 2
#     Edge 58, Type (0, 1), BuildingBlock: XUDNAN_clean_linker_2, # of connection points: 2
#     Edge 59, Type (0, 1), BuildingBlock: XUDNAN_clean_linker_2, # of connection points: 2
#     Edge 60, Type (0, 1), BuildingBlock: XUDNAN_clean_linker_2, # of connection points: 2
#     Edge 61, Type (0, 1), BuildingBlock: XUDNAN_clean_linker_2, # of connection points: 2
# Relax obj value: 0.053
# Max RMSD: 0.188
# Mean RMSD: 0.107
data_MOF--net-ocu--node1-MIFKUJ_clean_sbu_0--node2-VETTIZ_charged_sbu_0--edge1-XUDNAN_clean_linker_2
_symmetry_space_group_name_H-M    P1
_symmetry_Int_Tables_number       1
_symmetry_cell_setting            triclinic
loop_
_symmetry_equiv_pos_as_xyz
'x, y, z'
_cell_length_a     38.273456
_cell_length_b     40.01508
_cell_length_c     37.967116
_cell_angle_alpha  91.770353
_cell_angle_beta   93.046584
_cell_angle_gamma 97.835394
loop_
_atom_site_label
_atom_site_type_symbol
_atom_site_fract_x
_atom_site_fract_y
_atom_site_fract_z
_atom_type_partial_charge
Zn0 Zn 0.21932 0.29009 0.2367 0.0
Zn1 Zn 0.29121 0.23025 0.26184 0.0
C2 C 0.20657 0.34315 0.28746 0.0
O3 O 0.22662 0.32871 0.30985 0.0
C4 C 0.31698 0.20039 0.19798 0.0
O5 O 0.31806 0.23065 0.18529 0.0
O6 O 0.18741 0.28144 0.19263 0.0
O7 O 0.27046 0.30652 0.22391 0.0
O8 O 0.31131 0.27567 0.24211 0.0
C9 C 0.19514 0.29936 0.16639 0.0
O10 O 0.22687 0.31657 0.16625 0.0
O11 O 0.20136 0.33134 0.25595 0.0
C12 C 0.3146 0.19236 0.31385 0.0
O13 O 0.28934 0.17226 0.29596 0.0
O14 O 0.32234 0.22245 0.30407 0.0
O15 O 0.24235 0.21791 0.2824 0.0
O16 O 0.20376 0.25314 0.27145 0.0
O17 O 0.30308 0.19434 0.22727 0.0
C18 C 0.30264 0.30153 0.22694 0.0
C19 C 0.21223 0.22711 0.28647 0.0
Zn20 Zn 0.7471 0.28007 0.21549 0.0
Zn21 Zn 0.75108 0.22223 0.29512 0.0
C22 C 0.68709 0.30528 0.18756 0.0
O23 O 0.69156 0.28197 0.1637 0.0
C24 C 0.79007 0.16856 0.31304 0.0
O25 O 0.75769 0.15267 0.31325 0.0
O26 O 0.77562 0.30336 0.17868 0.0
O27 O 0.78382 0.28932 0.25619 0.0
O28 O 0.7638 0.27194 0.30677 0.0
C29 C 0.78364 0.33435 0.18833 0.0
O30 O 0.76979 0.34587 0.21639 0.0
O31 O 0.70612 0.30751 0.21637 0.0
C32 C 0.68981 0.21937 0.33418 0.0
O33 O 0.68339 0.24387 0.31356 0.0
O34 O 0.71785 0.20621 0.33112 0.0
O35 O 0.72705 0.2038 0.24842 0.0
O36 O 0.72863 0.23258 0.19939 0.0
O37 O 0.79461 0.19937 0.30477 0.0
C38 C 0.78166 0.2938 0.28914 0.0
C39 C 0.71953 0.20577 0.21558 0.0
Zn40 Zn 0.79419 0.73887 0.23465 0.0
Zn41 Zn 0.72196 0.79312 0.26121 0.0
C42 C 0.8286 0.70583 0.28824 0.0
O43 O 0.84956 0.73467 0.28807 0.0
C44 C 0.71055 0.82588 0.18776 0.0
O45 O 0.74168 0.82364 0.17562 0.0
O46 O 0.82437 0.72581 0.1952 0.0
O47 O 0.74316 0.73576 0.21583 0.0
O48 O 0.70766 0.74285 0.25822 0.0
C49 C 0.81675 0.69591 0.18181 0.0
O50 O 0.78871 0.67676 0.1919 0.0
O51 O 0.80018 0.70174 0.2687 0.0
C52 C 0.69952 0.82418 0.32821 0.0
O53 O 0.72664 0.8154 0.34655 0.0
O54 O 0.6936 0.81466 0.29596 0.0
O55 O 0.77217 0.81075 0.27582 0.0
O56 O 0.81587 0.78386 0.25866 0.0
O57 O 0.70316 0.81462 0.21783 0.0
C58 C 0.71759 0.72421 0.23408 0.0
C59 C 0.80485 0.80843 0.27485 0.0
Zn60 Zn 0.22793 0.763 0.27513 0.0
Zn61 Zn 0.2825 0.71981 0.24072 0.0
C62 C 0.18928 0.70261 0.29806 0.0
O63 O 0.16463 0.71207 0.2767 0.0
C64 C 0.32786 0.77467 0.21202 0.0
O65 O 0.3451 0.77579 0.24295 0.0
O66 O 0.19248 0.79081 0.29482 0.0
O67 O 0.27607 0.78456 0.29025 0.0
O68 O 0.29765 0.7361 0.29092 0.0
C69 C 0.18948 0.79289 0.32805 0.0
O70 O 0.21097 0.77853 0.34899 0.0
O71 O 0.21978 0.71975 0.30034 0.0
C72 C 0.30513 0.66712 0.19824 0.0
O73 O 0.2765 0.6711 0.17906 0.0
O74 O 0.31174 0.68339 0.22769 0.0
O75 O 0.23114 0.70383 0.2274 0.0
O76 O 0.21686 0.75509 0.22335 0.0
O77 O 0.29925 0.75468 0.20634 0.0
C78 C 0.29729 0.7659 0.30343 0.0
C79 C 0.21202 0.72416 0.21359 0.0
Zn80 Zn 0.23261 0.77625 0.73718 0.0
Zn81 Zn 0.27906 0.72122 0.76264 0.0
C82 C 0.19014 0.80988 0.69125 0.0
O83 O 0.20645 0.79238 0.66908 0.0
C84 C 0.3217 0.6911 0.81228 0.0
O85 O 0.30774 0.71173 0.83326 0.0
O86 O 0.27177 0.79137 0.70631 0.0
O87 O 0.25332 0.78789 0.78754 0.0
O88 O 0.30206 0.76847 0.77367 0.0
C89 C 0.2847 0.82234 0.70842 0.0
O90 O 0.27297 0.84268 0.73146 0.0
O91 O 0.19569 0.80654 0.72425 0.0
C92 C 0.2227 0.67777 0.78392 0.0
O93 O 0.23627 0.6595 0.76027 0.0
O94 O 0.23698 0.70794 0.79123 0.0
O95 O 0.26327 0.70938 0.71199 0.0
O96 O 0.21274 0.72885 0.71936 0.0
O97 O 0.31401 0.69086 0.77922 0.0
C98 C 0.28683 0.78972 0.79042 0.0
C99 C 0.23069 0.70919 0.70329 0.0
Zn100 Zn 0.2904 0.21916 0.74475 0.0
Zn101 Zn 0.21629 0.27815 0.76681 0.0
C102 C 0.3368 0.18859 0.79315 0.0
O103 O 0.36044 0.19909 0.77064 0.0
C104 C 0.19758 0.30791 0.70098 0.0
O105 O 0.18498 0.27668 0.69101 0.0
O106 O 0.31091 0.19822 0.70326 0.0
O107 O 0.23794 0.21339 0.73795 0.0
O108 O 0.18856 0.2336 0.74569 0.0
C109 C 0.31012 0.16633 0.70213 0.0
O110 O 0.29462 0.14862 0.7269 0.0
O111 O 0.30529 0.19512 0.78807 0.0
C112 C 0.20361 0.32961 0.81176 0.0
O113 O 0.23451 0.33981 0.79931 0.0
O114 O 0.18935 0.29938 0.80438 0.0
O115 O 0.26717 0.27577 0.78656 0.0
O116 O 0.3089 0.2684 0.75079 0.0
O117 O 0.21564 0.31353 0.73009 0.0
C118 C 0.20455 0.21014 0.73388 0.0
C119 C 0.29479 0.28775 0.77124 0.0
Zn120 Zn 0.72904 0.28047 0.76796 0.0
Zn121 Zn 0.78844 0.24347 0.7312 0.0
C122 C 0.67835 0.22743 0.79356 0.0
O123 O 0.6599 0.23124 0.76416 0.0
C124 C 0.83151 0.30165 0.71412 0.0
O125 O 0.85411 0.28489 0.73082 0.0
O126 O 0.7034 0.31887 0.78277 0.0
O127 O 0.77969 0.29377 0.78492 0.0
O128 O 0.79691 0.24349 0.78312 0.0
C129 C 0.70087 0.32315 0.81585 0.0
O130 O 0.71668 0.30429 0.83756 0.0
O131 O 0.70926 0.24348 0.79882 0.0
C132 C 0.82989 0.22093 0.67705 0.0
O133 O 0.80942 0.23756 0.65735 0.0
O134 O 0.82474 0.21843 0.70975 0.0
O135 O 0.74149 0.22236 0.71181 0.0
O136 O 0.7147 0.26769 0.71676 0.0
O137 O 0.79886 0.29023 0.7131 0.0
C138 C 0.79647 0.27175 0.79876 0.0
C139 C 0.71746 0.23943 0.70168 0.0
Zn140 Zn 0.74124 0.77739 0.76419 0.0
Zn141 Zn 0.7704 0.7215 0.72625 0.0
C142 C 0.6885 0.79617 0.80434 0.0
O143 O 0.67475 0.76768 0.78788 0.0
C144 C 0.8197 0.68518 0.69544 0.0
O145 O 0.84053 0.71128 0.71012 0.0
O146 O 0.70908 0.77947 0.72026 0.0
O147 O 0.79096 0.79814 0.74819 0.0
O148 O 0.78552 0.76539 0.70009 0.0
C149 C 0.7113 0.81014 0.71153 0.0
O150 O 0.73321 0.83288 0.73031 0.0
O151 O 0.72018 0.80848 0.79866 0.0
C152 C 0.80148 0.69062 0.78148 0.0
O153 O 0.77836 0.66658 0.76612 0.0
O154 O 0.80225 0.72052 0.77078 0.0
O155 O 0.71938 0.7034 0.73917 0.0
O156 O 0.73148 0.73185 0.78913 0.0
O157 O 0.78641 0.68448 0.69629 0.0
C158 C 0.79929 0.79275 0.71642 0.0
C159 C 0.71422 0.70659 0.77193 0.0
Fe160 Fe 0.014 0.04802 0.49861 0.0
O161 O 0.98202 0.01249 0.52245 0.0
Fe162 Fe 0.08801 0.00793 0.4854 0.0
Fe163 Fe 0.93007 0.00886 0.51885 0.0
O164 O 0.03663 0.00868 0.48211 0.0
O165 O 0.0363 0.00516 0.48338 0.0
O166 O 0.98183 0.00891 0.52399 0.0
Fe167 Fe 1.00477 0.96967 0.50772 0.0
C168 C 0.96152 0.08076 0.5436 0.0
O169 O 0.98128 0.04393 0.45329 0.0
O170 O 0.92891 0.04015 0.47699 0.0
O171 O 0.03299 0.93341 0.48428 0.0
O172 O 0.07548 0.96523 0.45301 0.0
O173 O 0.08775 0.04487 0.44761 0.0
O174 O 0.05099 0.08018 0.47023 0.0
O175 O 0.91994 0.96751 0.48293 0.0
O176 O 0.97268 0.96371 0.46294 0.0
C177 C 0.07531 0.07355 0.449 0.0
O178 O 0.03847 0.97407 0.55227 0.0
O179 O 0.08893 0.97444 0.52559 0.0
O180 O 0.98579 0.08423 0.52062 0.0
O181 O 0.94137 0.05289 0.54983 0.0
C182 C 0.94862 0.04717 0.45155 0.0
C183 C 0.93933 0.95813 0.45924 0.0
C184 C 0.9435 0.94574 0.55879 0.0
O185 O 0.93101 0.97433 0.55822 0.0
O186 O 0.96737 0.93748 0.53753 0.0
C187 C 0.05616 0.93712 0.45999 0.0
O188 O 0.09863 0.0472 0.52275 0.0
O189 O 0.04685 0.0551 0.54382 0.0
C190 C 0.07014 0.96772 0.55185 0.0
C191 C 0.08042 0.05813 0.54663 0.0
Fe192 Fe 0.50102 0.96176 0.99692 0.0
O193 O 0.52737 1.00312 0.97772 0.0
Fe194 Fe 0.42478 0.99012 0.02538 0.0
Fe195 Fe 0.57918 0.01061 0.97721 0.0
O196 O 0.47608 0.99452 0.02306 0.0
O197 O 0.47613 0.99766 0.02344 0.0
O198 O 0.52725 0.00662 0.97789 0.0
Fe199 Fe 0.50316 0.03931 0.0057 0.0
C200 C 0.56967 0.96113 0.03766 0.0
O201 O 0.53141 0.93277 0.96645 0.0
O202 O 0.5697 0.97202 0.93919 0.0
O203 O 0.46634 0.04148 0.96417 0.0
O204 O 0.41682 0.02824 0.99211 0.0
O205 O 0.41464 0.95565 0.98303 0.0
O206 O 0.46462 0.95882 0.9548 0.0
O207 O 0.57048 0.0507 0.94675 0.0
O208 O 0.53535 0.07855 0.98227 0.0
C209 C 0.43134 0.95066 0.95559 0.0
O210 O 0.47433 0.06797 0.03863 0.0
O211 O 0.43579 0.02743 0.06437 0.0
O212 O 0.53691 0.96301 0.03914 0.0
O213 O 0.58724 0.97297 0.01216 0.0
C214 C 0.5547 0.94135 0.94322 0.0
C215 C 0.55621 0.07699 0.95631 0.0
C216 C 0.57245 0.04928 0.04647 0.0
O217 O 0.58864 0.04612 0.01844 0.0
O218 O 0.53955 0.03952 0.04771 0.0
C219 C 0.43341 0.04223 0.96706 0.0
O220 O 0.43365 0.9501 0.05531 0.0
O221 O 0.47006 0.92238 0.0215 0.0
C222 C 0.4524 0.05781 0.0626 0.0
C223 C 0.44876 0.92408 0.04702 0.0
Fe224 Fe 1.00513 0.5486 0.98914 0.0
O225 O 0.97481 0.50825 0.96672 0.0
Fe226 Fe 0.08342 0.51822 0.01366 0.0
Fe227 Fe 0.92306 0.50296 0.96661 0.0
O228 O 0.03167 0.51491 0.01258 0.0
O229 O 0.03202 0.51197 0.01187 0.0
O230 O 0.97486 0.50501 0.96652 0.0
Fe231 Fe 1.00091 0.47157 0.99114 0.0
C232 C 0.94189 0.55419 0.02928 0.0
O233 O 0.97334 0.5788 0.96024 0.0
O234 O 0.93056 0.54014 0.93052 0.0
O235 O 0.03178 0.46765 0.94861 0.0
O236 O 0.08614 0.48254 0.97418 0.0
O237 O 0.08895 0.55508 0.97664 0.0
O238 O 0.03653 0.54944 0.94713 0.0
O239 O 0.92498 0.46075 0.93438 0.0
O240 O 0.96432 0.43331 0.96701 0.0
C241 C 0.06968 0.55843 0.94895 0.0
O242 O 0.03148 0.44132 0.01959 0.0
O243 O 0.0773 0.47806 0.0472 0.0
O244 O 0.97404 0.54949 0.03137 0.0
O245 O 0.92119 0.5424 0.00313 0.0
C246 C 0.94827 0.57022 0.93556 0.0
C247 C 0.93893 0.4341 0.94311 0.0
C248 C 0.9376 0.46575 0.03336 0.0
O249 O 0.91754 0.46934 0.00639 0.0
O250 O 0.97087 0.47339 0.03404 0.0
C251 C 0.06525 0.46867 0.94907 0.0
O252 O 0.07839 0.55681 0.04889 0.0
O253 O 0.04019 0.58652 0.01731 0.0
C254 C 0.05837 0.44858 0.04211 0.0
C255 C 0.06271 0.58325 0.04364 0.0
Fe256 Fe 0.50979 0.50469 0.96182 0.0
O257 O 0.53912 0.52823 0.00275 0.0
Fe258 Fe 0.43026 0.47708 1.00017 0.0
Fe259 Fe 0.59095 0.53289 0.00572 0.0
O260 O 0.48213 0.48121 0.99976 0.0
O261 O 0.48212 0.4809 0.00353 0.0
O262 O 0.53906 0.52807 0.0067 0.0
Fe263 Fe 0.51212 0.50346 0.04451 0.0
C264 C 0.57335 0.47094 0.955 0.0
O265 O 0.54385 0.53396 0.92733 0.0
O266 O 0.58569 0.56592 0.96493 0.0
O267 O 0.48148 0.54173 0.04838 0.0
O268 O 0.42748 0.51313 0.03936 0.0
O269 O 0.42598 0.51261 0.96231 0.0
O270 O 0.47916 0.5429 0.96124 0.0
O271 O 0.58708 0.56449 0.04864 0.0
O272 O 0.54783 0.53178 0.08227 0.0
C273 C 0.44604 0.53897 0.95431 0.0
O274 O 0.47877 0.47345 0.07866 0.0
O275 O 0.43457 0.4445 0.04112 0.0
O276 O 0.54059 0.46653 0.96021 0.0
O277 O 0.59361 0.49753 0.96575 0.0
C278 C 0.56999 0.55873 0.9338 0.0
C279 C 0.57315 0.55662 0.07835 0.0
C280 C 0.57655 0.47052 0.05173 0.0
O281 O 0.59597 0.4971 0.04313 0.0
O282 O 0.54351 0.46539 0.04373 0.0
C283 C 0.44841 0.53846 0.0523 0.0
O284 O 0.43411 0.44443 0.95836 0.0
O285 O 0.4741 0.47526 0.92408 0.0
C286 C 0.45138 0.45014 0.07186 0.0
C287 C 0.4487 0.45052 0.92866 0.0
Fe288 Fe 0.01584 0.42621 0.48757 0.0
O289 O 0.02289 0.47549 0.49595 0.0
Fe290 Fe 1.00326 0.50515 0.45701 0.0
Fe291 Fe 0.00591 0.49811 0.53807 0.0
O292 O 0.02214 0.47548 0.49256 0.0
O293 O 0.98487 0.52705 0.49889 0.0
O294 O 0.98539 0.52692 0.50253 0.0
Fe295 Fe 0.99179 0.57635 0.50755 0.0
C296 C 0.95631 0.43411 0.53685 0.0
O297 O 0.05265 0.42959 0.52906 0.0
O298 O 0.03109 0.46462 0.56974 0.0
O299 O 0.0299 0.58565 0.47125 0.0
O300 O 0.05006 0.53658 0.46296 0.0
O301 O 0.02672 0.47856 0.4177 0.0
O302 O 0.04991 0.43682 0.4483 0.0
O303 O 0.05283 0.53047 0.54354 0.0
O304 O 0.03097 0.57903 0.54709 0.0
C305 C 0.04821 0.45606 0.42154 0.0
O306 O 0.95606 0.57353 0.46495 0.0
O307 O 0.97987 0.53941 0.42503 0.0
O308 O 0.97909 0.417 0.52496 0.0
O309 O 0.9592 0.46592 0.53461 0.0
C310 C 0.05141 0.44235 0.56075 0.0
C311 C 0.05609 0.5617 0.55238 0.0
C312 C 0.96117 0.54716 0.5739 0.0
O313 O 0.98334 0.52525 0.5775 0.0
O314 O 0.95743 0.5655 0.54668 0.0
C315 C 0.05376 0.56845 0.4622 0.0
O316 O 0.9565 0.47373 0.44922 0.0
O317 O 0.97554 0.42345 0.44885 0.0
C318 C 0.95914 0.56148 0.43328 0.0
C319 C 0.95236 0.4424 0.44111 0.0
Fe320 Fe 0.50831 0.95824 0.51028 0.0
O321 O 0.53033 0.99884 0.5395 0.0
Fe322 Fe 0.4758 0.99315 0.4339 0.0
Fe323 Fe 0.53249 1.00113 0.59157 0.0
O324 O 0.48137 0.99052 0.48506 0.0
O325 O 0.48097 0.99325 0.48526 0.0
O326 O 0.52992 1.00185 0.53972 0.0
Fe327 Fe 0.50247 0.03356 0.51438 0.0
C328 C 0.46933 0.94579 0.57584 0.0
O329 O 0.53901 0.92943 0.5414 0.0
O330 O 0.56798 0.96712 0.58422 0.0
O331 O 0.54212 0.04386 0.48044 0.0
O332 O 0.50883 0.03775 0.4302 0.0
O333 O 0.51746 0.96692 0.425 0.0
O334 O 0.54854 0.96501 0.47646 0.0
O335 O 0.56504 0.04595 0.58551 0.0
O336 O 0.52885 0.07234 0.54793 0.0
C337 C 0.54561 0.96264 0.44287 0.0
O338 O 0.47047 0.06203 0.48503 0.0
O339 O 0.43823 0.02424 0.44455 0.0
O340 O 0.46787 0.94942 0.54281 0.0
O341 O 0.49525 0.95925 0.59624 0.0
C342 C 0.56316 0.93816 0.56677 0.0
C343 C 0.55578 0.07242 0.57034 0.0
C344 C 0.46535 0.03378 0.57949 0.0
O345 O 0.49346 0.03177 0.59824 0.0
O346 O 0.46227 0.02452 0.54726 0.0
C347 C 0.53569 0.05184 0.44888 0.0
O348 O 0.44602 0.94683 0.43909 0.0
O349 O 0.48131 0.91959 0.47682 0.0
C350 C 0.44442 0.05334 0.4617 0.0
C351 C 0.45473 0.92013 0.45409 0.0
H352 H 0.21546 0.16469 0.31698 0.0
H353 H 0.15108 0.24584 0.31088 0.0
H354 H 0.10986 0.21605 0.35104 0.0
H355 H 0.14187 0.09668 0.31825 0.0
H356 H 0.16459 0.07206 0.34857 0.0
H357 H 0.18936 0.09976 0.31949 0.0
H358 H 0.22651 0.12976 0.37312 0.0
H359 H 0.20187 0.10218 0.40239 0.0
H360 H 0.20449 0.1473 0.4087 0.0
H361 H 0.07546 0.17759 0.39369 0.0
H362 H 0.05041 0.13326 0.43276 0.0
H363 H 0.13552 0.07575 0.41039 0.0
C364 C 0.19269 0.17624 0.324 0.0
C365 C 0.18685 0.20794 0.31039 0.0
C366 C 0.15643 0.22174 0.3205 0.0
C367 C 0.13274 0.20495 0.34351 0.0
C368 C 0.13928 0.17394 0.3564 0.0
C369 C 0.16842 0.15958 0.34681 0.0
C370 C 0.169 0.1257 0.36407 0.0
C371 C 0.16602 0.09684 0.33591 0.0
C372 C 0.20245 0.12629 0.38852 0.0
C373 C 0.13589 0.12343 0.38509 0.0
C374 C 0.11918 0.15158 0.38035 0.0
C375 C 0.08837 0.15541 0.39741 0.0
C376 C 0.07428 0.12999 0.41974 0.0
C377 C 0.09062 0.10061 0.42498 0.0
C378 C 0.12195 0.09758 0.40709 0.0
H379 H 0.78737 0.1091 0.34676 0.0
H380 H 0.86109 0.19003 0.3083 0.0
H381 H 0.91105 0.16303 0.33293 0.0
H382 H 0.83237 0.10432 0.42768 0.0
H383 H 0.82199 0.05918 0.43024 0.0
H384 H 0.7928 0.08228 0.4052 0.0
H385 H 0.79805 0.04402 0.34988 0.0
H386 H 0.82753 0.02088 0.37479 0.0
H387 H 0.84109 0.04002 0.33446 0.0
H388 H 0.95293 0.12897 0.36615 0.0
H389 H 0.98189 0.09438 0.40891 0.0
H390 H 0.87997 0.03749 0.42661 0.0
C391 C 0.81401 0.12081 0.34276 0.0
C392 C 0.82032 0.15151 0.32526 0.0
C393 C 0.85562 0.16639 0.32141 0.0
C394 C 0.88416 0.15114 0.33517 0.0
C395 C 0.87695 0.12104 0.35271 0.0
C396 C 0.84265 0.10616 0.35659 0.0
C397 C 0.84162 0.07581 0.37951 0.0
C398 C 0.82099 0.08072 0.41261 0.0
C399 C 0.82616 0.04326 0.35839 0.0
C400 C 0.88062 0.07642 0.38879 0.0
C401 C 0.90075 0.10219 0.37254 0.0
C402 C 0.93741 0.10851 0.37869 0.0
C403 C 0.95369 0.08863 0.40285 0.0
C404 C 0.93316 0.06325 0.42097 0.0
C405 C 0.89635 0.05664 0.41302 0.0
H406 H 0.79083 0.84982 0.32966 0.0
H407 H 0.87639 0.82307 0.26862 0.0
H408 H 0.91894 0.86214 0.30681 0.0
H409 H 0.82657 0.93889 0.34954 0.0
H410 H 0.81164 0.93812 0.39377 0.0
H411 H 0.78741 0.91109 0.35933 0.0
H412 H 0.79327 0.85898 0.39676 0.0
H413 H 0.81761 0.88569 0.43127 0.0
H414 H 0.83652 0.85085 0.41239 0.0
H415 H 0.95209 0.90176 0.35248 0.0
H416 H 0.97508 0.93689 0.40477 0.0
H417 H 0.86857 0.93573 0.4394 0.0
C418 C 0.81843 0.85262 0.32385 0.0
C419 C 0.83027 0.83362 0.29584 0.0
C420 C 0.86671 0.83748 0.28973 0.0
C421 C 0.89102 0.85968 0.31123 0.0
C422 C 0.87848 0.87759 0.33888 0.0
C423 C 0.84308 0.87423 0.3454 0.0
C424 C 0.8369 0.89435 0.37856 0.0
C425 C 0.81429 0.92227 0.36976 0.0
C426 C 0.82009 0.87107 0.40638 0.0
C427 C 0.87454 0.90912 0.39008 0.0
C428 C 0.8979 0.89949 0.36637 0.0
C429 C 0.93407 0.90941 0.37121 0.0
C430 C 0.94687 0.92931 0.40124 0.0
C431 C 0.92379 0.93884 0.42668 0.0
C432 C 0.88698 0.92887 0.42065 0.0
H433 H 0.18174 0.8095 0.39771 0.0
H434 H 0.13408 0.81599 0.29224 0.0
H435 H 0.08818 0.846 0.31694 0.0
H436 H 0.09822 0.7998 0.44455 0.0
H437 H 0.11791 0.82572 0.48202 0.0
H438 H 0.14452 0.80093 0.4569 0.0
H439 H 0.18812 0.8547 0.44647 0.0
H440 H 0.16193 0.87944 0.4719 0.0
H441 H 0.17149 0.89056 0.42743 0.0
H442 H 0.05181 0.88057 0.35163 0.0
H443 H 0.03001 0.92029 0.39346 0.0
H444 H 0.09983 0.8911 0.47688 0.0
C445 C 0.16132 0.81676 0.37985 0.0
C446 C 0.16148 0.81031 0.34299 0.0
C447 C 0.13458 0.82068 0.32052 0.0
C448 C 0.1082 0.8375 0.33435 0.0
C449 C 0.10894 0.84366 0.37074 0.0
C450 C 0.13484 0.8337 0.39323 0.0
C451 C 0.13149 0.84612 0.43091 0.0
C452 C 0.12249 0.81636 0.45501 0.0
C453 C 0.16525 0.86908 0.44498 0.0
C454 C 0.10055 0.86582 0.42584 0.0
C455 C 0.08748 0.86344 0.39102 0.0
C456 C 0.06111 0.88188 0.37912 0.0
C457 C 0.0486 0.90414 0.4031 0.0
C458 C 0.06219 0.90753 0.43854 0.0
C459 C 0.08797 0.88769 0.45024 0.0
H460 H 0.1903 0.83595 0.62587 0.0
H461 H 0.14046 0.8404 0.72558 0.0
H462 H 0.10403 0.88211 0.70148 0.0
H463 H 0.19571 0.92426 0.6098 0.0
H464 H 0.1875 0.9176 0.56274 0.0
H465 H 0.20861 0.88768 0.58777 0.0
H466 H 0.16037 0.83946 0.56338 0.0
H467 H 0.1392 0.86927 0.53831 0.0
H468 H 0.1145 0.84309 0.56874 0.0
H469 H 0.07133 0.92231 0.66447 0.0
H470 H 0.04831 0.95891 0.61961 0.0
H471 H 0.12313 0.9293 0.54669 0.0
C472 C 0.17158 0.84548 0.64267 0.0
C473 C 0.16795 0.8347 0.67752 0.0
C474 C 0.14357 0.84827 0.69876 0.0
C475 C 0.12278 0.87192 0.68527 0.0
C476 C 0.12708 0.88201 0.65071 0.0
C477 C 0.15115 0.86933 0.62987 0.0
C478 C 0.15166 0.88468 0.59398 0.0
C479 C 0.18803 0.90475 0.58826 0.0
C480 C 0.14077 0.8575 0.56438 0.0
C481 C 0.12389 0.90781 0.59765 0.0
C482 C 0.1097 0.90589 0.63036 0.0
C483 C 0.08256 0.92422 0.63893 0.0
C484 C 0.06963 0.94493 0.61334 0.0
C485 C 0.08424 0.94738 0.57985 0.0
C486 C 0.11181 0.92861 0.57225 0.0
H487 H 0.14066 0.20485 0.69473 0.0
H488 H 0.22622 0.14887 0.72478 0.0
H489 H 0.20095 0.10232 0.68324 0.0
H490 H 0.07052 0.1297 0.68079 0.0
H491 H 0.04991 0.14728 0.64319 0.0
H492 H 0.07231 0.17481 0.67824 0.0
H493 H 0.1113 0.2066 0.63285 0.0
H494 H 0.08922 0.17903 0.59779 0.0
H495 H 0.13661 0.18326 0.60467 0.0
H496 H 0.17149 0.06532 0.63389 0.0
H497 H 0.13674 0.03778 0.58172 0.0
H498 H 0.06773 0.11518 0.58395 0.0
C499 C 0.15342 0.18235 0.69328 0.0
C500 C 0.18554 0.18051 0.71303 0.0
C501 C 0.20186 0.15096 0.70976 0.0
C502 C 0.18758 0.12429 0.68632 0.0
C503 C 0.15664 0.12728 0.6664 0.0
C504 C 0.13937 0.15528 0.66985 0.0
C505 C 0.10763 0.15271 0.6435 0.0
C506 C 0.07304 0.15102 0.66258 0.0
C507 C 0.11144 0.18215 0.61821 0.0
C508 C 0.1104 0.11933 0.6243 0.0
C509 C 0.13891 0.10519 0.63807 0.0
C510 C 0.14871 0.07579 0.62327 0.0
C511 C 0.12896 0.06044 0.59354 0.0
C512 C 0.09949 0.07421 0.57906 0.0
C513 C 0.08979 0.10381 0.59495 0.0
H514 H 0.84026 0.21001 0.60707 0.0
H515 H 0.8858 0.19864 0.71241 0.0
H516 H 0.93312 0.17121 0.68699 0.0
H517 H 0.84957 0.1321 0.57447 0.0
H518 H 0.86047 0.14425 0.53061 0.0
H519 H 0.83493 0.1693 0.55635 0.0
H520 H 0.88078 0.2222 0.54872 0.0
H521 H 0.90663 0.19711 0.523 0.0
H522 H 0.92663 0.22123 0.56152 0.0
H523 H 0.96959 0.13784 0.65177 0.0
H524 H 0.98935 0.09696 0.60959 0.0
H525 H 0.92002 0.12848 0.52704 0.0
C526 C 0.86069 0.20246 0.62471 0.0
C527 C 0.85938 0.2064 0.66169 0.0
C528 C 0.88622 0.19573 0.68398 0.0
C529 C 0.91343 0.18047 0.66977 0.0
C530 C 0.91356 0.17623 0.63322 0.0
C531 C 0.88788 0.18691 0.61094 0.0
C532 C 0.89133 0.1754 0.57304 0.0
C533 C 0.85706 0.15398 0.55776 0.0
C534 C 0.90198 0.2058 0.55022 0.0
C535 C 0.92124 0.15446 0.57791 0.0
C536 C 0.93457 0.15635 0.61264 0.0
C537 C 0.95998 0.13673 0.62438 0.0
C538 C 0.97106 0.11365 0.60036 0.0
C539 C 0.95654 0.11037 0.56527 0.0
C540 C 0.93214 0.13155 0.55359 0.0
H541 H 0.82553 0.7892 0.64875 0.0
H542 H 0.82987 0.85561 0.74192 0.0
H543 H 0.86996 0.89851 0.71302 0.0
H544 H 0.91827 0.81316 0.6275 0.0
H545 H 0.90868 0.81113 0.58043 0.0
H546 H 0.88107 0.78465 0.60843 0.0
H547 H 0.82603 0.80868 0.58306 0.0
H548 H 0.85341 0.83504 0.55486 0.0
H549 H 0.8256 0.8537 0.58451 0.0
H550 H 0.90883 0.93527 0.67411 0.0
H551 H 0.94066 0.96481 0.62701 0.0
H552 H 0.91271 0.87671 0.55661 0.0
C553 C 0.83501 0.81271 0.6632 0.0
C554 C 0.82426 0.81859 0.69812 0.0
C555 C 0.83748 0.84998 0.71556 0.0
C556 C 0.86046 0.87466 0.69924 0.0
C557 C 0.87057 0.86802 0.66514 0.0
C558 C 0.85824 0.83787 0.64716 0.0
C559 C 0.87286 0.83778 0.6103 0.0
C560 C 0.89662 0.81002 0.60643 0.0
C561 C 0.84267 0.83356 0.58147 0.0
C562 C 0.89463 0.87288 0.61008 0.0
C563 C 0.89312 0.88952 0.64235 0.0
C564 C 0.91026 0.92231 0.64889 0.0
C565 C 0.92855 0.93891 0.62183 0.0
C566 C 0.93005 0.92326 0.58795 0.0
C567 C 0.9131 0.88932 0.58229 0.0
H568 H 0.34195 0.19855 0.13117 0.0
H569 H 0.34162 0.14783 0.2307 0.0
H570 H 0.38311 0.11137 0.20855 0.0
H571 H 0.34282 0.12324 0.0768 0.0
H572 H 0.37069 0.14415 0.04503 0.0
H573 H 0.34232 0.16748 0.06944 0.0
H574 H 0.39668 0.21055 0.09087 0.0
H575 H 0.4253 0.18684 0.06711 0.0
H576 H 0.43383 0.19592 0.11382 0.0
H577 H 0.42381 0.08025 0.17652 0.0
H578 H 0.45392 0.04953 0.13265 0.0
H579 H 0.42766 0.11836 0.05259 0.0
C580 C 0.35054 0.17967 0.14821 0.0
C581 C 0.33856 0.17613 0.18272 0.0
C582 C 0.35019 0.15094 0.20411 0.0
C583 C 0.37412 0.13034 0.19193 0.0
C584 C 0.38599 0.13495 0.15815 0.0
C585 C 0.37411 0.15845 0.13624 0.0
C586 C 0.38921 0.15636 0.10015 0.0
C587 C 0.35949 0.14725 0.07115 0.0
C588 C 0.41265 0.18939 0.09255 0.0
C589 C 0.41108 0.12774 0.10517 0.0
C590 C 0.40929 0.11632 0.13914 0.0
C591 C 0.42565 0.08907 0.14993 0.0
C592 C 0.44287 0.07193 0.12494 0.0
C593 C 0.44357 0.08201 0.08957 0.0
C594 C 0.42844 0.1109 0.07977 0.0
H595 H 0.80264 0.32976 0.12017 0.0
H596 H 0.82551 0.38932 0.21822 0.0
H597 H 0.8723 0.42625 0.19072 0.0
H598 H 0.89233 0.33754 0.08978 0.0
H599 H 0.87791 0.34239 0.04447 0.0
H600 H 0.84916 0.31793 0.07308 0.0
H601 H 0.80022 0.35531 0.05905 0.0
H602 H 0.82886 0.3797 0.03041 0.0
H603 H 0.81004 0.40044 0.06619 0.0
H604 H 0.91574 0.45757 0.15234 0.0
H605 H 0.94745 0.48501 0.10313 0.0
H606 H 0.89262 0.4078 0.02994 0.0
C607 C 0.81788 0.35029 0.13588 0.0
C608 C 0.81102 0.35639 0.17136 0.0
C609 C 0.8307 0.38401 0.19102 0.0
C610 C 0.85744 0.40505 0.17574 0.0
C611 C 0.86362 0.39843 0.14065 0.0
C612 C 0.84405 0.37208 0.12078 0.0
C613 C 0.85341 0.37263 0.08267 0.0
C614 C 0.86915 0.34072 0.07189 0.0
C615 C 0.82122 0.37731 0.05815 0.0
C616 C 0.88098 0.40353 0.08428 0.0
C617 C 0.8871 0.4177 0.11803 0.0
C618 C 0.91124 0.44675 0.12575 0.0
C619 C 0.92909 0.46207 0.09787 0.0
C620 C 0.92185 0.44851 0.06308 0.0
C621 C 0.89803 0.41875 0.05635 0.0
H622 H 0.71506 0.85541 0.12252 0.0
H623 H 0.64734 0.83927 0.21053 0.0
H624 H 0.60532 0.87267 0.18219 0.0
H625 H 0.7012 0.94075 0.10782 0.0
H626 H 0.70011 0.93654 0.06035 0.0
H627 H 0.72517 0.91059 0.08686 0.0
H628 H 0.69064 0.85673 0.05542 0.0
H629 H 0.66568 0.88256 0.02862 0.0
H630 H 0.64305 0.85028 0.05451 0.0
H631 H 0.57075 0.90834 0.1456 0.0
H632 H 0.54449 0.9426 0.10124 0.0
H633 H 0.63362 0.93648 0.03621 0.0
C634 C 0.69131 0.85875 0.13571 0.0
C635 C 0.6847 0.84461 0.16886 0.0
C636 C 0.65319 0.84966 0.18516 0.0
C637 C 0.62906 0.86872 0.16931 0.0
C638 C 0.63651 0.88258 0.13697 0.0
C639 C 0.66666 0.8777 0.12012 0.0
C640 C 0.6679 0.8954 0.08528 0.0
C641 C 0.70054 0.92243 0.08509 0.0
C642 C 0.66674 0.86971 0.05412 0.0
C643 C 0.63404 0.91128 0.0856 0.0
C644 C 0.61637 0.90341 0.11566 0.0
C645 C 0.58431 0.91468 0.1219 0.0
C646 C 0.56961 0.93418 0.09651 0.0
C647 C 0.58697 0.94241 0.06523 0.0
C648 C 0.61983 0.93096 0.05997 0.0
H649 H 0.17694 0.66057 0.20914 0.0
H650 H 0.17956 0.7586 0.16307 0.0
H651 H 0.1319 0.73482 0.119 0.0
H652 H 0.16902 0.61344 0.13329 0.0
H653 H 0.13953 0.57855 0.14857 0.0
H654 H 0.16884 0.60484 0.17963 0.0
H655 H 0.1155 0.6172 0.21497 0.0
H656 H 0.0859 0.59082 0.18381 0.0
H657 H 0.0792 0.63391 0.19281 0.0
H658 H 0.09159 0.69787 0.07434 0.0
H659 H 0.06335 0.65124 0.03348 0.0
H660 H 0.08577 0.57893 0.11145 0.0
C661 C 0.16705 0.67715 0.19014 0.0
C662 C 0.18192 0.71121 0.18912 0.0
C663 C 0.16831 0.73233 0.16413 0.0
C664 C 0.14117 0.71912 0.13921 0.0
C665 C 0.12752 0.68507 0.14041 0.0
C666 C 0.13976 0.66455 0.16563 0.0
C667 C 0.1234 0.62827 0.15958 0.0
C668 C 0.15189 0.60494 0.15496 0.0
C669 C 0.09958 0.61689 0.18957 0.0
C670 C 0.1019 0.63108 0.1256 0.0
C671 C 0.10382 0.66406 0.11521 0.0
C672 C 0.08918 0.67205 0.08257 0.0
C673 C 0.07323 0.64549 0.05955 0.0
C674 C 0.07274 0.61163 0.06932 0.0
C675 C 0.08591 0.60464 0.10327 0.0
H676 H 0.27942 0.81947 0.85547 0.0
H677 H 0.34487 0.82521 0.76548 0.0
H678 H 0.38586 0.87124 0.79588 0.0
H679 H 0.29433 0.91029 0.88272 0.0
H680 H 0.29686 0.90181 0.92907 0.0
H681 H 0.26988 0.87249 0.89848 0.0
H682 H 0.30346 0.82426 0.92014 0.0
H683 H 0.33059 0.85341 0.95066 0.0
H684 H 0.3509 0.82899 0.91889 0.0
H685 H 0.42265 0.91242 0.83755 0.0
H686 H 0.45334 0.94612 0.88836 0.0
H687 H 0.36542 0.91318 0.95258 0.0
C688 C 0.30192 0.83111 0.84199 0.0
C689 C 0.30884 0.81923 0.80803 0.0
C690 C 0.33909 0.83418 0.79147 0.0
C691 C 0.36246 0.86037 0.80846 0.0
C692 C 0.35549 0.87107 0.84228 0.0
C693 C 0.32605 0.85694 0.85898 0.0
C694 C 0.32672 0.87094 0.89663 0.0
C695 C 0.29506 0.89003 0.90203 0.0
C696 C 0.328 0.84272 0.92313 0.0
C697 C 0.36117 0.89486 0.89842 0.0
C698 C 0.3772 0.89466 0.8667 0.0
C699 C 0.4102 0.91313 0.86244 0.0
C700 C 0.42748 0.93211 0.89149 0.0
C701 C 0.41175 0.93249 0.92442 0.0
C702 C 0.37793 0.91388 0.92764 0.0
H703 H 0.14383 0.319 0.85085 0.0
H704 H 0.21923 0.39763 0.81038 0.0
H705 H 0.18705 0.44089 0.83528 0.0
H706 H 0.06542 0.36163 0.83835 0.0
H707 H 0.04727 0.34817 0.87925 0.0
H708 H 0.07453 0.32233 0.85631 0.0
H709 H 0.11651 0.32326 0.91233 0.0
H710 H 0.08907 0.34863 0.93549 0.0
H711 H 0.13551 0.36325 0.93303 0.0
H712 H 0.14962 0.47605 0.86611 0.0
H713 H 0.1112 0.50141 0.9065 0.0
H714 H 0.05905 0.40178 0.92832 0.0
C715 C 0.15338 0.34532 0.84714 0.0
C716 C 0.18409 0.35482 0.82856 0.0
C717 C 0.19595 0.38957 0.82461 0.0
C718 C 0.17766 0.41445 0.8384 0.0
C719 C 0.14752 0.40438 0.85635 0.0
C720 C 0.13555 0.37075 0.86123 0.0
C721 C 0.10376 0.36731 0.88388 0.0
C722 C 0.07079 0.34876 0.8632 0.0
C723 C 0.1117 0.34957 0.91821 0.0
C724 C 0.10016 0.40423 0.89114 0.0
C725 C 0.12553 0.42506 0.87455 0.0
C726 C 0.12929 0.46009 0.87885 0.0
C727 C 0.10731 0.47429 0.90163 0.0
C728 C 0.08176 0.45354 0.91959 0.0
C729 C 0.0776 0.41811 0.9138 0.0
H730 H 0.6266 0.17271 0.78978 0.0
H731 H 0.69135 0.24304 0.86375 0.0
H732 H 0.66003 0.21684 0.91323 0.0
H733 H 0.54484 0.16489 0.83648 0.0
H734 H 0.53455 0.12013 0.82696 0.0
H735 H 0.55916 0.14659 0.79665 0.0
H736 H 0.60979 0.10955 0.80072 0.0
H737 H 0.58497 0.0827 0.83037 0.0
H738 H 0.62931 0.10189 0.84346 0.0
H739 H 0.62235 0.18267 0.95482 0.0
H740 H 0.58899 0.1363 0.98616 0.0
H741 H 0.55245 0.08561 0.88583 0.0
C742 C 0.63393 0.18265 0.8164 0.0
C743 C 0.66111 0.21002 0.82299 0.0
C744 C 0.67058 0.22205 0.85816 0.0
C745 C 0.65269 0.20759 0.8864 0.0
C746 C 0.62575 0.18083 0.87906 0.0
C747 C 0.61691 0.16797 0.84501 0.0
C748 C 0.58973 0.13671 0.84471 0.0
C749 C 0.55502 0.14244 0.82502 0.0
C750 C 0.60433 0.1059 0.8289 0.0
C751 C 0.58516 0.13372 0.88389 0.0
C752 C 0.60536 0.15998 0.9032 0.0
C753 C 0.60623 0.16209 0.94 0.0
C754 C 0.58702 0.13591 0.95757 0.0
C755 C 0.56803 0.10791 0.93819 0.0
C756 C 0.56644 0.10718 0.90101 0.0
H757 H 0.82245 0.62912 0.78642 0.0
H758 H 0.84345 0.73102 0.8321 0.0
H759 H 0.88895 0.71303 0.87394 0.0
H760 H 0.82873 0.58595 0.86399 0.0
H761 H 0.84965 0.55269 0.84459 0.0
H762 H 0.82114 0.57483 0.81757 0.0
H763 H 0.87171 0.59015 0.77546 0.0
H764 H 0.90049 0.56814 0.80254 0.0
H765 H 0.91368 0.61176 0.79307 0.0
H766 H 0.92889 0.68116 0.91408 0.0
H767 H 0.95774 0.63941 0.94804 0.0
H768 H 0.9108 0.5603 0.87244 0.0
C769 C 0.83658 0.6478 0.80517 0.0
C770 C 0.82919 0.68135 0.80641 0.0
C771 C 0.84871 0.7051 0.83091 0.0
C772 C 0.87461 0.69512 0.85461 0.0
C773 C 0.88101 0.66155 0.85279 0.0
C774 C 0.86261 0.63845 0.82836 0.0
C775 C 0.87318 0.60371 0.83196 0.0
C776 C 0.84129 0.5778 0.84003 0.0
C777 C 0.89082 0.59281 0.7988 0.0
C778 C 0.8995 0.61033 0.86324 0.0
C779 C 0.90415 0.64382 0.87483 0.0
C780 C 0.92575 0.655 0.90487 0.0
C781 C 0.94214 0.63115 0.92394 0.0
C782 C 0.9365 0.59657 0.91296 0.0
C783 C 0.9157 0.58651 0.88164 0.0
H784 H 0.20258 0.33829 0.10905 0.0
H785 H 0.12339 0.28433 0.1718 0.0
H786 H 0.07756 0.31308 0.14209 0.0
H787 H 0.17578 0.41389 0.11624 0.0
H788 H 0.18357 0.42717 0.07206 0.0
H789 H 0.20859 0.39684 0.09138 0.0
H790 H 0.18842 0.35412 0.03914 0.0
H791 H 0.16395 0.38469 0.01901 0.0
H792 H 0.14197 0.34315 0.02719 0.0
H793 H 0.04202 0.35398 0.11153 0.0
H794 H 0.02019 0.40208 0.08145 0.0
H795 H 0.12397 0.43109 0.04269 0.0
C796 C 0.17539 0.33152 0.11561 0.0
C797 C 0.16659 0.30903 0.14266 0.0
C798 C 0.13075 0.30121 0.15086 0.0
C799 C 0.10451 0.31751 0.13419 0.0
C800 C 0.11451 0.34113 0.10909 0.0
C801 C 0.14904 0.34763 0.09938 0.0
C802 C 0.15385 0.3765 0.07454 0.0
C803 C 0.1821 0.40528 0.08948 0.0
C804 C 0.16256 0.36386 0.03779 0.0
C805 C 0.11732 0.38681 0.07375 0.0
C806 C 0.0946 0.36552 0.09286 0.0
C807 C 0.05952 0.37058 0.09623 0.0
C808 C 0.04742 0.39796 0.07936 0.0
C809 C 0.07072 0.42031 0.0605 0.0
C810 C 0.10594 0.41456 0.05759 0.0
H811 H 0.21353 0.68146 0.85445 0.0
H812 H 0.16512 0.63772 0.75478 0.0
H813 H 0.11739 0.60539 0.78625 0.0
H814 H 0.20073 0.60666 0.89929 0.0
H815 H 0.19238 0.62568 0.94112 0.0
H816 H 0.21932 0.64971 0.91081 0.0
H817 H 0.17818 0.69611 0.91176 0.0
H818 H 0.15132 0.67234 0.94245 0.0
H819 H 0.13144 0.68467 0.90162 0.0
H820 H 0.07732 0.57537 0.82859 0.0
H821 H 0.04912 0.54754 0.87922 0.0
H822 H 0.12677 0.60736 0.95121 0.0
C823 C 0.19219 0.66588 0.83935 0.0
C824 C 0.19229 0.66237 0.80235 0.0
C825 C 0.16497 0.64083 0.78323 0.0
C826 C 0.13783 0.62249 0.80082 0.0
C827 C 0.13888 0.62572 0.8375 0.0
C828 C 0.16541 0.64676 0.85659 0.0
C829 C 0.16255 0.64286 0.89588 0.0
C830 C 0.19571 0.63048 0.91274 0.0
C831 C 0.15544 0.67596 0.91399 0.0
C832 C 0.13068 0.616 0.89583 0.0
C833 C 0.11699 0.60691 0.86195 0.0
C834 C 0.08766 0.58238 0.85527 0.0
C835 C 0.07186 0.56674 0.88408 0.0
C836 C 0.08597 0.57529 0.91889 0.0
C837 C 0.1157 0.6002 0.92476 0.0
H838 H 0.39996 0.16434 0.80786 0.0
H839 H 0.29427 0.16393 0.84455 0.0
H840 H 0.30795 0.12607 0.89173 0.0
H841 H 0.40628 0.07703 0.82364 0.0
H842 H 0.45237 0.08434 0.83824 0.0
H843 H 0.43492 0.11199 0.80733 0.0
H844 H 0.45795 0.1635 0.84919 0.0
H845 H 0.47561 0.13595 0.88005 0.0
H846 H 0.44528 0.16369 0.89426 0.0
H847 H 0.33156 0.08775 0.93348 0.0
H848 H 0.36481 0.05263 0.97047 0.0
H849 H 0.45658 0.07736 0.9085 0.0
C850 C 0.37978 0.15648 0.82598 0.0
C851 C 0.34597 0.16718 0.82248 0.0
C852 C 0.32029 0.15614 0.84663 0.0
C853 C 0.3278 0.13457 0.87351 0.0
C854 C 0.36112 0.12424 0.87597 0.0
C855 C 0.38685 0.13488 0.85309 0.0
C856 C 0.42047 0.11966 0.86178 0.0
C857 C 0.42899 0.0969 0.83091 0.0
C858 C 0.45166 0.14736 0.87194 0.0
C859 C 0.40953 0.09904 0.89329 0.0
C860 C 0.37508 0.10199 0.90066 0.0
C861 C 0.3586 0.08528 0.92809 0.0
C862 C 0.37785 0.06525 0.94894 0.0
C863 C 0.4135 0.06208 0.94257 0.0
C864 C 0.42944 0.07916 0.91411 0.0
H865 H 0.86679 0.29162 0.80286 0.0
H866 H 0.77473 0.27562 0.86471 0.0
H867 H 0.80856 0.3065 0.91556 0.0
H868 H 0.93754 0.2954 0.88237 0.0
H869 H 0.96517 0.32824 0.86149 0.0
H870 H 0.93851 0.29509 0.83495 0.0
H871 H 0.91051 0.34024 0.80003 0.0
H872 H 0.93617 0.37342 0.82679 0.0
H873 H 0.88868 0.37061 0.82346 0.0
H874 H 0.84346 0.35159 0.95041 0.0
H875 H 0.88014 0.40483 0.97033 0.0
H876 H 0.95218 0.39247 0.88842 0.0
C877 C 0.8547 0.29309 0.82789 0.0
C878 C 0.81873 0.28106 0.83065 0.0
C879 C 0.8026 0.28441 0.8628 0.0
C880 C 0.82167 0.30172 0.89172 0.0
C881 C 0.8567 0.31531 0.88776 0.0
C882 C 0.87346 0.31064 0.85688 0.0
C883 C 0.90882 0.33296 0.85711 0.0
C884 C 0.93932 0.31165 0.85911 0.0
C885 C 0.91112 0.35564 0.82497 0.0
C886 C 0.90759 0.35329 0.89116 0.0
C887 C 0.87776 0.34193 0.90887 0.0
C888 C 0.86771 0.35976 0.93782 0.0
C889 C 0.88853 0.38996 0.9489 0.0
C890 C 0.91912 0.40172 0.93137 0.0
C891 C 0.92924 0.38309 0.90258 0.0
H892 H 0.69056 0.86419 0.82098 0.0
H893 H 0.63604 0.76503 0.84171 0.0
H894 H 0.59498 0.79113 0.87826 0.0
H895 H 0.68217 0.9033 0.90742 0.0
H896 H 0.67461 0.94321 0.88987 0.0
H897 H 0.70073 0.91655 0.86661 0.0
H898 H 0.6593 0.91761 0.81048 0.0
H899 H 0.63281 0.94391 0.83375 0.0
H900 H 0.61254 0.90447 0.8128 0.0
H901 H 0.55903 0.82786 0.9119 0.0
H902 H 0.53219 0.87287 0.94194 0.0
H903 H 0.60868 0.94821 0.8978 0.0
C904 C 0.67031 0.84806 0.83369 0.0
C905 C 0.66656 0.81262 0.82866 0.0
C906 C 0.63932 0.79229 0.84516 0.0
C907 C 0.61584 0.80685 0.86597 0.0
C908 C 0.61965 0.84186 0.86982 0.0
C909 C 0.64622 0.86225 0.85426 0.0
C910 C 0.64379 0.89922 0.86195 0.0
C911 C 0.67732 0.91658 0.88271 0.0
C912 C 0.63669 0.91736 0.82771 0.0
C913 C 0.61202 0.89632 0.88449 0.0
C914 C 0.59844 0.86304 0.88866 0.0
C915 C 0.5694 0.85408 0.90879 0.0
C916 C 0.55423 0.87985 0.92568 0.0
C917 C 0.56809 0.91423 0.92229 0.0
C918 C 0.59711 0.92231 0.90091 0.0
H919 H 0.80069 0.64244 0.13424 0.0
H920 H 0.88797 0.71489 0.17823 0.0
H921 H 0.92958 0.68554 0.14514 0.0
H922 H 0.84442 0.56979 0.13544 0.0
H923 H 0.82448 0.55187 0.0938 0.0
H924 H 0.80137 0.57883 0.12027 0.0
H925 H 0.79581 0.61804 0.06788 0.0
H926 H 0.81849 0.59098 0.04105 0.0
H927 H 0.83497 0.63532 0.04669 0.0
H928 H 0.96202 0.64566 0.11072 0.0
H929 H 0.98235 0.60316 0.07109 0.0
H930 H 0.87356 0.55863 0.04641 0.0
C931 C 0.82853 0.65233 0.13661 0.0
C932 C 0.84114 0.68096 0.15883 0.0
C933 C 0.87771 0.6932 0.16114 0.0
C934 C 0.90155 0.67654 0.14266 0.0
C935 C 0.88833 0.64799 0.12153 0.0
C936 C 0.85259 0.63638 0.11784 0.0
C937 C 0.84513 0.60562 0.09281 0.0
C938 C 0.82783 0.5747 0.11172 0.0
C939 C 0.82225 0.61294 0.06017 0.0
C940 C 0.88232 0.60146 0.08331 0.0
C941 C 0.90687 0.62591 0.10051 0.0
C942 C 0.943 0.62663 0.09683 0.0
C943 C 0.9543 0.60219 0.07442 0.0
C944 C 0.92956 0.57759 0.05551 0.0
C945 C 0.8931 0.57721 0.06031 0.0
H946 H 0.36505 0.83778 0.21275 0.0
H947 H 0.32926 0.74929 0.1449 0.0
H948 H 0.36264 0.77549 0.09635 0.0
H949 H 0.35593 0.89684 0.14388 0.0
H950 H 0.39326 0.92616 0.16125 0.0
H951 H 0.36794 0.89927 0.19054 0.0
H952 H 0.42533 0.87704 0.21315 0.0
H953 H 0.45065 0.9033 0.18325 0.0
H954 H 0.45182 0.85839 0.1821 0.0
H955 H 0.40082 0.81156 0.05542 0.0
H956 H 0.43198 0.85831 0.02262 0.0
H957 H 0.44002 0.92333 0.11698 0.0
C958 C 0.36431 0.82403 0.18763 0.0
C959 C 0.34489 0.79162 0.18239 0.0
C960 C 0.34392 0.77436 0.14915 0.0
C961 C 0.36306 0.78884 0.12163 0.0
C962 C 0.38249 0.82075 0.12775 0.0
C963 C 0.38252 0.83843 0.15967 0.0
C964 C 0.40298 0.87338 0.15862 0.0
C965 C 0.37858 0.9005 0.16386 0.0
C966 C 0.43457 0.87829 0.1859 0.0
C967 C 0.41495 0.87243 0.12135 0.0
C968 C 0.4033 0.84177 0.10398 0.0
C969 C 0.4102 0.83564 0.06877 0.0
C970 C 0.42819 0.86211 0.05046 0.0
C971 C 0.43844 0.89413 0.06746 0.0
C972 C 0.43265 0.8989 0.10353 0.0
H973 H 0.71031 0.194 0.14386 0.0
H974 H 0.67867 0.15262 0.24351 0.0
H975 H 0.63799 0.10731 0.21125 0.0
H976 H 0.62628 0.17867 0.09819 0.0
H977 H 0.64287 0.16729 0.05657 0.0
H978 H 0.67028 0.19586 0.08746 0.0
H979 H 0.71912 0.15691 0.08675 0.0
H980 H 0.69193 0.12833 0.05568 0.0
H981 H 0.70842 0.11305 0.09663 0.0
H982 H 0.59689 0.06927 0.16785 0.0
H983 H 0.5634 0.03811 0.11643 0.0
H984 H 0.62496 0.10235 0.04577 0.0
C985 C 0.69511 0.17523 0.15893 0.0
C986 C 0.69769 0.17688 0.19622 0.0
C987 C 0.67733 0.15176 0.21492 0.0
C988 C 0.65401 0.12601 0.19684 0.0
C989 C 0.65171 0.12544 0.16008 0.0
C990 C 0.67212 0.1491 0.14133 0.0
C991 C 0.66481 0.14284 0.10194 0.0
C992 C 0.65019 0.17295 0.08506 0.0
C993 C 0.69805 0.13479 0.08422 0.0
C994 C 0.63686 0.11217 0.10145 0.0
C995 C 0.62933 0.10268 0.13521 0.0
C996 C 0.60294 0.07615 0.14129 0.0
C997 C 0.58398 0.05872 0.11204 0.0
C998 C 0.592 0.06761 0.07731 0.0
C999 C 0.61881 0.09462 0.07209 0.0
H1000 H 0.70145 0.70317 0.84339 0.0
H1001 H 0.66941 0.65193 0.74215 0.0
H1002 H 0.62776 0.61044 0.77154 0.0
H1003 H 0.69895 0.62808 0.89391 0.0
H1004 H 0.68245 0.64685 0.93232 0.0
H1005 H 0.70886 0.67295 0.90313 0.0
H1006 H 0.65915 0.7104 0.89519 0.0
H1007 H 0.63252 0.68432 0.92428 0.0
H1008 H 0.61526 0.69122 0.8804 0.0
H1009 H 0.58844 0.57375 0.81296 0.0
H1010 H 0.55883 0.54427 0.86193 0.0
H1011 H 0.61743 0.61824 0.93663 0.0
C1012 C 0.68566 0.68328 0.82728 0.0
C1013 C 0.68895 0.68119 0.79011 0.0
C1014 C 0.66765 0.65443 0.77046 0.0
C1015 C 0.64373 0.63065 0.78702 0.0
C1016 C 0.64113 0.63351 0.82357 0.0
C1017 C 0.66174 0.65911 0.84348 0.0
C1018 C 0.65454 0.65611 0.88246 0.0
C1019 C 0.6882 0.65067 0.90423 0.0
C1020 C 0.63948 0.68737 0.8964 0.0
C1021 C 0.62688 0.62474 0.8815 0.0
C1022 C 0.61921 0.61223 0.84723 0.0
C1023 C 0.59439 0.58346 0.83984 0.0
C1024 C 0.57745 0.56686 0.86797 0.0
C1025 C 0.58537 0.5786 0.90355 0.0
C1026 C 0.61042 0.60828 0.90997 0.0
H1027 H 0.34201 0.68478 0.88198 0.0
H1028 H 0.35218 0.6431 0.77661 0.0
H1029 H 0.38757 0.60157 0.80184 0.0
H1030 H 0.43066 0.67408 0.91703 0.0
H1031 H 0.41598 0.66309 0.96003 0.0
H1032 H 0.39311 0.6909 0.93366 0.0
H1033 H 0.33426 0.65124 0.93853 0.0
H1034 H 0.35694 0.62334 0.96486 0.0
H1035 H 0.33153 0.6073 0.9251 0.0
H1036 H 0.41944 0.56314 0.83823 0.0
H1037 H 0.44559 0.52976 0.88396 0.0
H1038 H 0.41463 0.5957 0.96585 0.0
C1039 C 0.35196 0.66715 0.86414 0.0
C1040 C 0.3444 0.66728 0.82724 0.0
C1041 C 0.35774 0.64361 0.8049 0.0
C1042 C 0.37788 0.61993 0.81899 0.0
C1043 C 0.38459 0.62033 0.85544 0.0
C1044 C 0.37214 0.64334 0.87776 0.0
C1045 C 0.38225 0.63765 0.91608 0.0
C1046 C 0.40697 0.66825 0.93267 0.0
C1047 C 0.34928 0.62938 0.93738 0.0
C1048 C 0.40161 0.60731 0.91183 0.0
C1049 C 0.40295 0.598 0.87657 0.0
C1050 C 0.41881 0.57034 0.86588 0.0
C1051 C 0.43357 0.5516 0.8919 0.0
C1052 C 0.43218 0.56055 0.92804 0.0
C1053 C 0.41616 0.58874 0.93824 0.0
H1054 H 0.30709 0.30401 0.84136 0.0
H1055 H 0.33731 0.33605 0.73805 0.0
H1056 H 0.38162 0.38156 0.7661 0.0
H1057 H 0.31796 0.3855 0.88668 0.0
H1058 H 0.33617 0.36987 0.9267 0.0
H1059 H 0.30556 0.34218 0.89779 0.0
H1060 H 0.35147 0.30026 0.89425 0.0
H1061 H 0.38243 0.32811 0.92268 0.0
H1062 H 0.39491 0.31478 0.87991 0.0
H1063 H 0.42342 0.42413 0.80738 0.0
H1064 H 0.45733 0.45829 0.85687 0.0
H1065 H 0.40173 0.39313 0.93118 0.0
C1066 C 0.32248 0.32107 0.82464 0.0
C1067 C 0.31837 0.31708 0.78759 0.0
C1068 C 0.33986 0.33911 0.76655 0.0
C1069 C 0.36513 0.36488 0.78226 0.0
C1070 C 0.36906 0.36774 0.81903 0.0
C1071 C 0.34833 0.3462 0.83982 0.0
C1072 C 0.35877 0.35293 0.87853 0.0
C1073 C 0.32778 0.36325 0.89859 0.0
C1074 C 0.37272 0.32219 0.89478 0.0
C1075 C 0.38805 0.3821 0.87649 0.0
C1076 C 0.39382 0.39054 0.84212 0.0
C1077 C 0.41919 0.41753 0.8344 0.0
C1078 C 0.43851 0.4367 0.86265 0.0
C1079 C 0.43238 0.4286 0.89807 0.0
C1080 C 0.40727 0.40039 0.90459 0.0
H1081 H 0.67634 0.32619 0.88204 0.0
H1082 H 0.67608 0.37515 0.78156 0.0
H1083 H 0.63988 0.41617 0.80567 0.0
H1084 H 0.58571 0.33647 0.90089 0.0
H1085 H 0.59603 0.34361 0.94762 0.0
H1086 H 0.62087 0.31737 0.92215 0.0
H1087 H 0.67909 0.35493 0.94385 0.0
H1088 H 0.6544 0.38108 0.96946 0.0
H1089 H 0.68365 0.39976 0.93755 0.0
H1090 H 0.60681 0.45341 0.84137 0.0
H1091 H 0.57871 0.48476 0.88667 0.0
H1092 H 0.59896 0.41089 0.96351 0.0
C1093 C 0.66867 0.34554 0.86507 0.0
C1094 C 0.67912 0.34765 0.82995 0.0
C1095 C 0.66829 0.3731 0.80851 0.0
C1096 C 0.64772 0.39643 0.82195 0.0
C1097 C 0.63786 0.39362 0.85668 0.0
C1098 C 0.64782 0.36875 0.87793 0.0
C1099 C 0.6341 0.37157 0.91449 0.0
C1100 C 0.6076 0.3404 0.9217 0.0
C1101 C 0.66464 0.37719 0.94301 0.0
C1102 C 0.61583 0.40264 0.91084 0.0
C1103 C 0.61805 0.41472 0.87713 0.0
C1104 C 0.60446 0.44394 0.86766 0.0
C1105 C 0.58855 0.46149 0.89341 0.0
C1106 C 0.58635 0.44968 0.92803 0.0
C1107 C 0.59983 0.41982 0.93688 0.0
H1108 H 0.63832 0.3044 0.13191 0.0
H1109 H 0.69079 0.36853 0.21867 0.0
H1110 H 0.66489 0.41701 0.19484 0.0
H1111 H 0.65162 0.36235 0.06618 0.0
H1112 H 0.60934 0.3508 0.04263 0.0
H1113 H 0.62849 0.32015 0.06836 0.0
H1114 H 0.57237 0.31015 0.10403 0.0
H1115 H 0.55278 0.34046 0.07805 0.0
H1116 H 0.55663 0.34557 0.1255 0.0
H1117 H 0.64064 0.45977 0.15724 0.0
H1118 H 0.61384 0.49306 0.11206 0.0
H1119 H 0.5738 0.40115 0.05107 0.0
C1120 C 0.64361 0.32844 0.14643 0.0
C1121 C 0.66646 0.33261 0.17731 0.0
C1122 C 0.67304 0.36458 0.19527 0.0
C1123 C 0.6586 0.39232 0.1818 0.0
C1124 C 0.63715 0.38757 0.15067 0.0
C1125 C 0.62907 0.35629 0.13356 0.0
C1126 C 0.60644 0.35829 0.09979 0.0
C1127 C 0.6251 0.34724 0.06734 0.0
C1128 C 0.56988 0.33738 0.10199 0.0
C1129 C 0.60386 0.39577 0.10004 0.0
C1130 C 0.62193 0.41215 0.1296 0.0
C1131 C 0.62582 0.44712 0.13442 0.0
C1132 C 0.61072 0.46581 0.10852 0.0
C1133 C 0.59158 0.44956 0.07835 0.0
C1134 C 0.58779 0.41405 0.07423 0.0
H1135 H 0.72408 0.68511 0.17545 0.0
H1136 H 0.65532 0.69575 0.26113 0.0
H1137 H 0.61204 0.64937 0.23375 0.0
H1138 H 0.66076 0.6733 0.10862 0.0
H1139 H 0.68053 0.64263 0.08344 0.0
H1140 H 0.70788 0.67296 0.11239 0.0
H1141 H 0.73297 0.62486 0.14532 0.0
H1142 H 0.70608 0.59423 0.11604 0.0
H1143 H 0.70307 0.59172 0.16313 0.0
H1144 H 0.57335 0.60549 0.19245 0.0
H1145 H 0.54432 0.56902 0.14206 0.0
H1146 H 0.64037 0.58827 0.08583 0.0
C1147 C 0.70054 0.6771 0.1892 0.0
C1148 C 0.6933 0.69399 0.22054 0.0
C1149 C 0.66154 0.68314 0.23707 0.0
C1150 C 0.63684 0.65674 0.22179 0.0
C1151 C 0.64455 0.64119 0.1903 0.0
C1152 C 0.67594 0.65081 0.17454 0.0
C1153 C 0.67727 0.63215 0.13964 0.0
C1154 C 0.68185 0.65673 0.10925 0.0
C1155 C 0.70658 0.60938 0.14114 0.0
C1156 C 0.64108 0.61157 0.13732 0.0
C1157 C 0.62261 0.6165 0.16689 0.0
C1158 C 0.58779 0.60115 0.16938 0.0
C1159 C 0.57149 0.58056 0.1407 0.0
C1160 C 0.58994 0.57615 0.10993 0.0
C1161 C 0.62532 0.59143 0.10878 0.0
H1162 H 0.29516 0.61848 0.14494 0.0
H1163 H 0.37608 0.67485 0.2162 0.0
H1164 H 0.42199 0.64936 0.1856 0.0
H1165 H 0.33763 0.54177 0.14002 0.0
H1166 H 0.32329 0.53283 0.09431 0.0
H1167 H 0.29707 0.55484 0.12272 0.0
H1168 H 0.29962 0.60363 0.07913 0.0
H1169 H 0.32633 0.58202 0.0509 0.0
H1170 H 0.34196 0.62445 0.06735 0.0
H1171 H 0.45945 0.62039 0.14437 0.0
H1172 H 0.48476 0.5849 0.1006 0.0
H1173 H 0.37895 0.54632 0.05787 0.0
C1174 C 0.32251 0.62515 0.15437 0.0
C1175 C 0.33205 0.64864 0.18293 0.0
C1176 C 0.36812 0.65668 0.19456 0.0
C1177 C 0.39442 0.64252 0.17718 0.0
C1178 C 0.38417 0.62002 0.14857 0.0
C1179 C 0.34901 0.61087 0.13769 0.0
C1180 C 0.34493 0.58571 0.10663 0.0
C1181 C 0.32453 0.55178 0.11652 0.0
C1182 C 0.32716 0.59981 0.07409 0.0
C1183 C 0.3833 0.58272 0.10122 0.0
C1184 C 0.40558 0.60278 0.12553 0.0
C1185 C 0.44222 0.60441 0.12535 0.0
C1186 C 0.45637 0.58436 0.1002 0.0
C1187 C 0.43388 0.5628 0.07575 0.0
C1188 C 0.39691 0.56245 0.07618 0.0
H1189 H 0.29497 0.34303 0.17065 0.0
H1190 H 0.37425 0.31225 0.24387 0.0
H1191 H 0.42087 0.34836 0.21441 0.0
H1192 H 0.34633 0.34105 0.09489 0.0
H1193 H 0.33004 0.37674 0.07514 0.0
H1194 H 0.30287 0.35064 0.10371 0.0
H1195 H 0.29656 0.40317 0.14306 0.0
H1196 H 0.32372 0.4295 0.11463 0.0
H1197 H 0.33568 0.42965 0.1612 0.0
H1198 H 0.45967 0.38943 0.17601 0.0
H1199 H 0.48602 0.42649 0.13015 0.0
H1200 H 0.38169 0.42648 0.0798 0.0
C1201 C 0.32203 0.3442 0.1809 0.0
C1202 C 0.33062 0.32497 0.21014 0.0
C1203 C 0.36671 0.32681 0.22184 0.0
C1204 C 0.39348 0.34736 0.20522 0.0
C1205 C 0.38411 0.36578 0.17635 0.0
C1206 C 0.34918 0.36406 0.16412 0.0
C1207 C 0.34614 0.38462 0.13136 0.0
C1208 C 0.33042 0.3619 0.09939 0.0
C1209 C 0.32423 0.41345 0.13797 0.0
C1210 C 0.38471 0.39823 0.12702 0.0
C1211 C 0.40629 0.38756 0.15347 0.0
C1212 C 0.44289 0.3977 0.15513 0.0
C1213 C 0.45771 0.4189 0.12902 0.0
C1214 C 0.43615 0.4293 0.10107 0.0
C1215 C 0.39912 0.41874 0.10047 0.0
H1216 H 0.88949 0.67737 0.69597 0.0
H1217 H 0.78467 0.62672 0.66337 0.0
H1218 H 0.811 0.5784 0.63935 0.0
H1219 H 0.93053 0.65735 0.62218 0.0
H1220 H 0.97176 0.65125 0.64464 0.0
H1221 H 0.94415 0.67864 0.66423 0.0
H1222 H 0.94346 0.64382 0.72081 0.0
H1223 H 0.97075 0.61593 0.70097 0.0
H1224 H 0.92895 0.599 0.71751 0.0
H1225 H 0.84859 0.53985 0.61178 0.0
H1226 H 0.89423 0.51716 0.57818 0.0
H1227 H 0.97451 0.59222 0.62906 0.0
C1228 C 0.87198 0.65592 0.68424 0.0
C1229 C 0.83502 0.65585 0.68144 0.0
C1230 C 0.81307 0.62735 0.66576 0.0
C1231 C 0.82778 0.59964 0.65238 0.0
C1232 C 0.86439 0.60064 0.65535 0.0
C1233 C 0.8862 0.62809 0.67091 0.0
C1234 C 0.92478 0.62465 0.66749 0.0
C1235 C 0.94389 0.65473 0.64848 0.0
C1236 C 0.94306 0.6206 0.70386 0.0
C1237 C 0.92132 0.59217 0.64528 0.0
C1238 C 0.88627 0.57807 0.63963 0.0
C1239 C 0.87614 0.55003 0.61684 0.0
C1240 C 0.90221 0.5371 0.59808 0.0
C1241 C 0.93779 0.55229 0.60221 0.0
C1242 C 0.94763 0.57937 0.62687 0.0
H1243 H 0.33109 0.88072 0.71661 0.0
H1244 H 0.29813 0.79375 0.64545 0.0
H1245 H 0.34137 0.81674 0.60344 0.0
H1246 H 0.34607 0.94268 0.64994 0.0
H1247 H 0.38459 0.96566 0.67332 0.0
H1248 H 0.35028 0.94296 0.69747 0.0
H1249 H 0.39628 0.90983 0.72822 0.0
H1250 H 0.43065 0.93255 0.70416 0.0
H1251 H 0.42353 0.88705 0.70165 0.0
H1252 H 0.38578 0.84979 0.56838 0.0
H1253 H 0.43349 0.88872 0.54428 0.0
H1254 H 0.44057 0.9525 0.63967 0.0
C1255 C 0.33295 0.86661 0.69213 0.0
C1256 C 0.31128 0.8356 0.68407 0.0
C1257 C 0.31465 0.81754 0.65207 0.0
C1258 C 0.33895 0.83045 0.62801 0.0
C1259 C 0.35982 0.86117 0.63663 0.0
C1260 C 0.35741 0.87889 0.66802 0.0
C1261 C 0.38385 0.91078 0.67127 0.0
C1262 C 0.36506 0.94238 0.6731 0.0
C1263 C 0.41014 0.90998 0.70322 0.0
C1264 C 0.40156 0.90806 0.63681 0.0
C1265 C 0.38686 0.87951 0.61704 0.0
C1266 C 0.39778 0.87207 0.58368 0.0
C1267 C 0.42473 0.89432 0.57022 0.0
C1268 C 0.44072 0.92324 0.5904 0.0
C1269 C 0.42903 0.9302 0.62408 0.0
H1270 H 0.16582 0.30662 0.63497 0.0
H1271 H 0.1958 0.37217 0.7279 0.0
H1272 H 0.16233 0.41517 0.7023 0.0
H1273 H 0.16909 0.37421 0.57089 0.0
H1274 H 0.1318 0.35232 0.54469 0.0
H1275 H 0.16099 0.32872 0.56931 0.0
H1276 H 0.10737 0.29825 0.60018 0.0
H1277 H 0.07815 0.32214 0.57614 0.0
H1278 H 0.07945 0.32296 0.62368 0.0
H1279 H 0.11974 0.44879 0.66804 0.0
H1280 H 0.07779 0.47146 0.62576 0.0
H1281 H 0.07738 0.38274 0.55689 0.0
C1282 C 0.16606 0.33033 0.6496 0.0
C1283 C 0.18352 0.33607 0.68328 0.0
C1284 C 0.18296 0.36736 0.70176 0.0
C1285 C 0.1638 0.39187 0.68757 0.0
C1286 C 0.14577 0.38484 0.65473 0.0
C1287 C 0.14737 0.35502 0.63578 0.0
C1288 C 0.12502 0.35283 0.60164 0.0
C1289 C 0.14811 0.35199 0.56976 0.0
C1290 C 0.09577 0.32224 0.60037 0.0
C1291 C 0.10989 0.38566 0.60463 0.0
C1292 C 0.122 0.40398 0.63529 0.0
C1293 C 0.11043 0.43478 0.64375 0.0
C1294 C 0.08642 0.44734 0.6198 0.0
C1295 C 0.07451 0.42907 0.5879 0.0
C1296 C 0.08629 0.39771 0.58074 0.0
H1297 H 0.72231 0.1862 0.65714 0.0
H1298 H 0.6529 0.25904 0.68421 0.0
H1299 H 0.60575 0.22838 0.64374 0.0
H1300 H 0.68542 0.1674 0.56248 0.0
H1301 H 0.69094 0.1236 0.56594 0.0
H1302 H 0.7215 0.1558 0.5898 0.0
H1303 H 0.70864 0.12553 0.64809 0.0
H1304 H 0.67786 0.09363 0.62467 0.0
H1305 H 0.66374 0.11736 0.66115 0.0
H1306 H 0.5637 0.18487 0.60843 0.0
H1307 H 0.53005 0.13154 0.58308 0.0
H1308 H 0.62673 0.08646 0.58215 0.0
C1309 C 0.69752 0.19628 0.65382 0.0
C1310 C 0.69115 0.22487 0.67378 0.0
C1311 C 0.65836 0.23725 0.66892 0.0
C1312 C 0.63151 0.22008 0.6459 0.0
C1313 C 0.63821 0.19104 0.62767 0.0
C1314 C 0.67062 0.17948 0.63112 0.0
C1315 C 0.66993 0.14545 0.61256 0.0
C1316 C 0.69333 0.14824 0.58081 0.0
C1317 C 0.68064 0.11896 0.63816 0.0
C1318 C 0.63136 0.13835 0.60059 0.0
C1319 C 0.61373 0.16543 0.60827 0.0
C1320 C 0.57734 0.16379 0.60166 0.0
C1321 C 0.55848 0.13348 0.58739 0.0
C1322 C 0.57605 0.1052 0.58095 0.0
C1323 C 0.6129 0.10789 0.58696 0.0
H1324 H 0.79572 0.30577 0.361 0.0
H1325 H 0.82268 0.34505 0.25925 0.0
H1326 H 0.86185 0.39244 0.28859 0.0
H1327 H 0.80409 0.38806 0.41165 0.0
H1328 H 0.82496 0.37167 0.44984 0.0
H1329 H 0.79342 0.34419 0.42149 0.0
H1330 H 0.8398 0.30356 0.41294 0.0
H1331 H 0.87135 0.33082 0.44125 0.0
H1332 H 0.88221 0.31969 0.39716 0.0
H1333 H 0.90021 0.434 0.32798 0.0
H1334 H 0.94285 0.46191 0.37457 0.0
H1335 H 0.89799 0.3921 0.45051 0.0
C1336 C 0.80924 0.32477 0.34494 0.0
C1337 C 0.80486 0.32238 0.30767 0.0
C1338 C 0.8242 0.34708 0.2877 0.0
C1339 C 0.84673 0.37411 0.30418 0.0
C1340 C 0.85037 0.37581 0.34083 0.0
C1341 C 0.83274 0.35152 0.36104 0.0
C1342 C 0.84519 0.35688 0.39966 0.0
C1343 C 0.81512 0.36573 0.42197 0.0
C1344 C 0.86057 0.3259 0.41355 0.0
C1345 C 0.87355 0.38705 0.3976 0.0
C1346 C 0.87504 0.3983 0.36358 0.0
C1347 C 0.89924 0.42558 0.35477 0.0
C1348 C 0.92321 0.4413 0.38129 0.0
C1349 C 0.9233 0.42904 0.41578 0.0
C1350 C 0.89802 0.40188 0.42422 0.0
H1351 H 0.68299 0.83746 0.39693 0.0
H1352 H 0.6721 0.87104 0.28971 0.0
H1353 H 0.63889 0.91553 0.31004 0.0
H1354 H 0.59629 0.84652 0.41795 0.0
H1355 H 0.60724 0.86096 0.46314 0.0
H1356 H 0.63455 0.83448 0.44142 0.0
H1357 H 0.68925 0.87947 0.45605 0.0
H1358 H 0.66188 0.90618 0.47761 0.0
H1359 H 0.68847 0.92213 0.4424 0.0
H1360 H 0.60303 0.95266 0.33939 0.0
H1361 H 0.56181 0.9781 0.37615 0.0
H1362 H 0.59339 0.92113 0.46506 0.0
C1363 C 0.67401 0.85457 0.37799 0.0
C1364 C 0.68008 0.85081 0.34178 0.0
C1365 C 0.6675 0.87326 0.31754 0.0
C1366 C 0.64892 0.89889 0.32886 0.0
C1367 C 0.64292 0.90176 0.36452 0.0
C1368 C 0.65474 0.88017 0.38882 0.0
C1369 C 0.64129 0.8869 0.42492 0.0
C1370 C 0.61848 0.85534 0.43758 0.0
C1371 C 0.67207 0.89942 0.45184 0.0
C1372 C 0.61924 0.91478 0.41663 0.0
C1373 C 0.62127 0.92332 0.38175 0.0
C1374 C 0.60148 0.94657 0.36688 0.0
C1375 C 0.57809 0.9608 0.38792 0.0
C1376 C 0.57457 0.95165 0.42338 0.0
C1377 C 0.59613 0.92905 0.43821 0.0
H1378 H 0.13125 0.65466 0.29461 0.0
H1379 H 0.22537 0.69305 0.36015 0.0
H1380 H 0.20364 0.65719 0.40823 0.0
H1381 H 0.07227 0.6559 0.35716 0.0
H1382 H 0.04435 0.61721 0.3435 0.0
H1383 H 0.07001 0.64053 0.31182 0.0
H1384 H 0.09942 0.58788 0.2958 0.0
H1385 H 0.07336 0.56407 0.3271 0.0
H1386 H 0.12079 0.56656 0.33022 0.0
H1387 H 0.16701 0.62539 0.45238 0.0
H1388 H 0.11983 0.59588 0.48731 0.0
H1389 H 0.05082 0.57763 0.39259 0.0
C1390 C 0.14775 0.65471 0.31869 0.0
C1391 C 0.17988 0.67656 0.32374 0.0
C1392 C 0.20075 0.67622 0.35566 0.0
C1393 C 0.18862 0.65597 0.38314 0.0
C1394 C 0.15603 0.63576 0.37791 0.0
C1395 C 0.13623 0.63439 0.34618 0.0
C1396 C 0.10088 0.61271 0.34818 0.0
C1397 C 0.07009 0.63281 0.33968 0.0
C1398 C 0.09849 0.58092 0.32389 0.0
C1399 C 0.10296 0.60397 0.38657 0.0
C1400 C 0.13517 0.61698 0.40323 0.0
C1401 C 0.14202 0.61436 0.43947 0.0
C1402 C 0.11522 0.59788 0.45909 0.0
C1403 C 0.08229 0.58469 0.44221 0.0
C1404 C 0.07617 0.58743 0.40567 0.0
H1405 H 0.30773 0.12753 0.33427 0.0
H1406 H 0.366 0.22689 0.35996 0.0
H1407 H 0.40046 0.20262 0.40745 0.0
H1408 H 0.30655 0.09614 0.42467 0.0
H1409 H 0.31244 0.05426 0.40946 0.0
H1410 H 0.2892 0.08044 0.38133 0.0
H1411 H 0.33235 0.07311 0.3321 0.0
H1412 H 0.35561 0.04698 0.35997 0.0
H1413 H 0.37922 0.08401 0.34185 0.0
H1414 H 0.43164 0.16645 0.44832 0.0
H1415 H 0.46036 0.12147 0.47569 0.0
H1416 H 0.38224 0.04584 0.42118 0.0
C1417 C 0.32725 0.14442 0.35026 0.0
C1418 C 0.3341 0.17913 0.34362 0.0
C1419 C 0.36028 0.20022 0.36477 0.0
C1420 C 0.37978 0.1867 0.39189 0.0
C1421 C 0.37259 0.15218 0.39739 0.0
C1422 C 0.34699 0.13137 0.37705 0.0
C1423 C 0.34664 0.09471 0.38562 0.0
C1424 C 0.31163 0.08056 0.4012 0.0
C1425 C 0.35391 0.07348 0.35295 0.0
C1426 C 0.37697 0.09788 0.41314 0.0
C1427 C 0.39107 0.13126 0.42021 0.0
C1428 C 0.42055 0.14027 0.44331 0.0
C1429 C 0.43663 0.11446 0.45878 0.0
C1430 C 0.42356 0.08003 0.45051 0.0
C1431 C 0.39278 0.07184 0.42814 0.0
H1432 H 0.70902 0.87459 0.69264 0.0
H1433 H 0.66174 0.77151 0.6659 0.0
H1434 H 0.62187 0.79266 0.62057 0.0
H1435 H 0.63066 0.90951 0.68827 0.0
H1436 H 0.64994 0.94876 0.67085 0.0
H1437 H 0.6768 0.92489 0.69776 0.0
H1438 H 0.72044 0.92367 0.64787 0.0
H1439 H 0.69362 0.94757 0.62073 0.0
H1440 H 0.70413 0.90759 0.60434 0.0
H1441 H 0.58449 0.82665 0.58072 0.0
H1442 H 0.55165 0.86929 0.55334 0.0
H1443 H 0.62425 0.94905 0.6085 0.0
C1444 C 0.69073 0.85623 0.67696 0.0
C1445 C 0.68863 0.82134 0.68267 0.0
C1446 C 0.66392 0.79835 0.66181 0.0
C1447 C 0.64127 0.81016 0.63598 0.0
C1448 C 0.64384 0.84492 0.63144 0.0
C1449 C 0.66802 0.86751 0.6515 0.0
C1450 C 0.66412 0.90366 0.64386 0.0
C1451 C 0.65481 0.92281 0.67715 0.0
C1452 C 0.69757 0.92167 0.62826 0.0
C1453 C 0.63348 0.89813 0.61669 0.0
C1454 C 0.62229 0.86417 0.60939 0.0
C1455 C 0.59328 0.85328 0.58608 0.0
C1456 C 0.57485 0.87771 0.57056 0.0
C1457 C 0.58529 0.91258 0.5788 0.0
C1458 C 0.61549 0.92267 0.60158 0.0
H1459 H 0.69776 0.17243 0.38348 0.0
H1460 H 0.62131 0.23131 0.33668 0.0
H1461 H 0.57435 0.19894 0.36867 0.0
H1462 H 0.64738 0.09657 0.37442 0.0
H1463 H 0.66125 0.0798 0.41559 0.0
H1464 H 0.69027 0.11176 0.39529 0.0
H1465 H 0.69469 0.1499 0.45222 0.0
H1466 H 0.66597 0.1178 0.47301 0.0
H1467 H 0.65491 0.16007 0.47086 0.0
H1468 H 0.53489 0.154 0.39508 0.0
H1469 H 0.50529 0.10159 0.41879 0.0
H1470 H 0.60699 0.07258 0.45093 0.0
C1471 C 0.67133 0.17921 0.3808 0.0
C1472 C 0.66307 0.20429 0.35759 0.0
C1473 C 0.6282 0.21228 0.35447 0.0
C1474 C 0.60139 0.19409 0.37259 0.0
C1475 C 0.61015 0.16855 0.39413 0.0
C1476 C 0.64438 0.16149 0.3989 0.0
C1477 C 0.64617 0.13062 0.42069 0.0
C1478 C 0.6622 0.10308 0.40026 0.0
C1479 C 0.66664 0.14018 0.45631 0.0
C1480 C 0.60731 0.12019 0.42553 0.0
C1481 C 0.5871 0.14272 0.41037 0.0
C1482 C 0.55039 0.13666 0.40785 0.0
C1483 C 0.53388 0.10672 0.421 0.0
C1484 C 0.5541 0.08339 0.43658 0.0
C1485 C 0.59118 0.09046 0.43958 0.0
H1486 H 0.8719 0.71026 0.34753 0.0
H1487 H 0.81432 0.63795 0.27076 0.0
H1488 H 0.84283 0.59213 0.298 0.0
H1489 H 0.95216 0.67672 0.35102 0.0
H1490 H 0.961 0.68463 0.39786 0.0
H1491 H 0.93503 0.71105 0.37308 0.0
H1492 H 0.88362 0.6979 0.4146 0.0
H1493 H 0.90972 0.67195 0.43991 0.0
H1494 H 0.86637 0.65457 0.42169 0.0
H1495 H 0.88237 0.55496 0.33209 0.0
H1496 H 0.92192 0.5294 0.37457 0.0
H1497 H 0.95033 0.6269 0.429 0.0
C1498 C 0.8649 0.6847 0.33674 0.0
C1499 C 0.84094 0.67755 0.30715 0.0
C1500 C 0.83237 0.64382 0.29374 0.0
C1501 C 0.84867 0.61774 0.30884 0.0
C1502 C 0.87302 0.62587 0.33755 0.0
C1503 C 0.88044 0.6585 0.35172 0.0
C1504 C 0.907 0.66095 0.38285 0.0
C1505 C 0.94079 0.68474 0.37575 0.0
C1506 C 0.89069 0.67198 0.41676 0.0
C1507 C 0.9138 0.62471 0.38388 0.0
C1508 C 0.8944 0.60472 0.35743 0.0
C1509 C 0.89738 0.57039 0.35308 0.0
C1510 C 0.92005 0.55613 0.37705 0.0
C1511 C 0.93884 0.5762 0.40506 0.0
C1512 C 0.93594 0.61091 0.40799 0.0
H1513 H 0.29313 0.8209 0.3457 0.0
H1514 H 0.35744 0.74145 0.32747 0.0
H1515 H 0.40139 0.76777 0.37379 0.0
H1516 H 0.35951 0.88577 0.35229 0.0
H1517 H 0.34165 0.90975 0.38629 0.0
H1518 H 0.31251 0.88108 0.35725 0.0
H1519 H 0.28672 0.85011 0.41112 0.0
H1520 H 0.31594 0.87884 0.44047 0.0
H1521 H 0.316 0.83395 0.4431 0.0
H1522 H 0.44212 0.80752 0.41515 0.0
H1523 H 0.47664 0.85812 0.44551 0.0
H1524 H 0.38491 0.91059 0.43598 0.0
C1525 C 0.31611 0.80863 0.35193 0.0
C1526 C 0.32204 0.77929 0.33305 0.0
C1527 C 0.35239 0.76394 0.34185 0.0
C1528 C 0.37736 0.77858 0.36821 0.0
C1529 C 0.3711 0.8081 0.3858 0.0
C1530 C 0.341 0.82274 0.37814 0.0
C1531 C 0.3421 0.85632 0.39762 0.0
C1532 C 0.33878 0.88489 0.37182 0.0
C1533 C 0.31349 0.85469 0.42469 0.0
C1534 C 0.37852 0.8594 0.41566 0.0
C1535 C 0.39456 0.831 0.40945 0.0
C1536 C 0.42958 0.82957 0.42085 0.0
C1537 C 0.44895 0.85832 0.43807 0.0
C1538 C 0.43325 0.88802 0.44286 0.0
C1539 C 0.39738 0.88806 0.43263 0.0
H1540 H 0.20528 0.36958 0.35463 0.0
H1541 H 0.161 0.37621 0.24788 0.0
H1542 H 0.1208 0.41443 0.26964 0.0
H1543 H 0.12773 0.36247 0.39462 0.0
H1544 H 0.14397 0.38711 0.43411 0.0
H1545 H 0.17369 0.36592 0.40938 0.0
H1546 H 0.21428 0.4227 0.40371 0.0
H1547 H 0.18459 0.44413 0.42861 0.0
H1548 H 0.19607 0.45812 0.38553 0.0
H1549 H 0.07904 0.44481 0.3045 0.0
H1550 H 0.04002 0.46318 0.34944 0.0
H1551 H 0.11268 0.43686 0.43225 0.0
C1552 C 0.18791 0.37986 0.33565 0.0
C1553 C 0.18637 0.36993 0.29959 0.0
C1554 C 0.16277 0.38353 0.27569 0.0
C1555 C 0.13988 0.4054 0.28776 0.0
C1556 C 0.14121 0.4138 0.32373 0.0
C1557 C 0.16495 0.40168 0.34725 0.0
C1558 C 0.15871 0.41134 0.38493 0.0
C1559 C 0.15052 0.37984 0.40702 0.0
C1560 C 0.19029 0.43552 0.40167 0.0
C1561 C 0.12667 0.42921 0.37907 0.0
C1562 C 0.11725 0.43111 0.34366 0.0
C1563 C 0.08658 0.44406 0.33231 0.0
C1564 C 0.06458 0.45447 0.35791 0.0
C1565 C 0.07328 0.45123 0.3942 0.0
C1566 C 0.10529 0.43953 0.40464 0.0
H1567 H 0.32562 0.10158 0.70169 0.0
H1568 H 0.34057 0.19419 0.6443 0.0
H1569 H 0.37879 0.16825 0.60416 0.0
H1570 H 0.41194 0.08444 0.70092 0.0
H1571 H 0.40111 0.03927 0.69483 0.0
H1572 H 0.37123 0.06324 0.71622 0.0
H1573 H 0.32078 0.03873 0.67065 0.0
H1574 H 0.35049 0.01461 0.64901 0.0
H1575 H 0.32695 0.043 0.62419 0.0
H1576 H 0.41788 0.13396 0.57275 0.0
H1577 H 0.45707 0.09379 0.55288 0.0
H1578 H 0.41951 0.02456 0.63258 0.0
C1579 C 0.33633 0.1162 0.68025 0.0
C1580 C 0.33 0.14986 0.67597 0.0
C1581 C 0.34497 0.16832 0.64795 0.0
C1582 C 0.36663 0.15379 0.62499 0.0
C1583 C 0.37297 0.12081 0.63044 0.0
C1584 C 0.35821 0.10217 0.65729 0.0
C1585 C 0.37114 0.06805 0.65884 0.0
C1586 C 0.38999 0.06352 0.69484 0.0
C1587 C 0.34052 0.03941 0.65016 0.0
C1588 C 0.3967 0.07105 0.62967 0.0
C1589 C 0.39663 0.10137 0.61309 0.0
C1590 C 0.41804 0.1101 0.58538 0.0
C1591 C 0.44017 0.08725 0.57435 0.0
C1592 C 0.44112 0.05645 0.59144 0.0
C1593 C 0.41919 0.04815 0.61939 0.0
H1594 H 0.88754 0.29983 0.67436 0.0
H1595 H 0.80334 0.35857 0.69564 0.0
H1596 H 0.82401 0.39828 0.64959 0.0
H1597 H 0.95455 0.36704 0.65719 0.0
H1598 H 0.97156 0.34398 0.62192 0.0
H1599 H 0.9503 0.32159 0.65707 0.0
H1600 H 0.90672 0.28617 0.61103 0.0
H1601 H 0.92759 0.30883 0.57577 0.0
H1602 H 0.88077 0.30741 0.58019 0.0
H1603 H 0.85641 0.4326 0.60276 0.0
H1604 H 0.89662 0.45784 0.55878 0.0
H1605 H 0.95568 0.37287 0.56622 0.0
C1606 C 0.87379 0.32137 0.66972 0.0
C1607 C 0.84442 0.32681 0.68887 0.0
C1608 C 0.82623 0.35446 0.68134 0.0
C1609 C 0.83767 0.37692 0.65524 0.0
C1610 C 0.86665 0.37061 0.6365 0.0
C1611 C 0.8842 0.3433 0.64329 0.0
C1612 C 0.91387 0.34128 0.61899 0.0
C1613 C 0.94968 0.34364 0.64006 0.0
C1614 C 0.9068 0.30902 0.59509 0.0
C1615 C 0.91113 0.37241 0.59813 0.0
C1616 C 0.88376 0.38905 0.60846 0.0
C1617 C 0.87763 0.41956 0.59418 0.0
C1618 C 0.90059 0.43372 0.56929 0.0
C1619 C 0.92913 0.41725 0.55894 0.0
C1620 C 0.93378 0.38585 0.57306 0.0
H1621 H 0.1719 0.71373 0.66115 0.0
H1622 H 0.24823 0.6464 0.68755 0.0
H1623 H 0.21396 0.60145 0.64857 0.0
H1624 H 0.09595 0.65572 0.65948 0.0
H1625 H 0.07416 0.67233 0.62196 0.0
H1626 H 0.10624 0.69965 0.64964 0.0
H1627 H 0.14215 0.71608 0.59524 0.0
H1628 H 0.11001 0.6889 0.56727 0.0
H1629 H 0.15598 0.68341 0.56765 0.0
H1630 H 0.16732 0.5621 0.61094 0.0
H1631 H 0.11465 0.53338 0.57589 0.0
H1632 H 0.07163 0.62828 0.57254 0.0
C1633 C 0.18162 0.68965 0.65838 0.0
C1634 C 0.2125 0.6834 0.67746 0.0
C1635 C 0.22461 0.65169 0.67302 0.0
C1636 C 0.20532 0.62603 0.65098 0.0
C1637 C 0.17453 0.63283 0.63296 0.0
C1638 C 0.16317 0.66412 0.63597 0.0
C1639 C 0.12905 0.66504 0.61437 0.0
C1640 C 0.09963 0.67367 0.63777 0.0
C1641 C 0.13464 0.68983 0.58435 0.0
C1642 C 0.12198 0.62893 0.60011 0.0
C1643 C 0.14856 0.6107 0.61072 0.0
C1644 C 0.14661 0.57629 0.60204 0.0
C1645 C 0.11659 0.56018 0.58217 0.0
C1646 C 0.08895 0.57851 0.5714 0.0
C1647 C 0.0922 0.61342 0.58021 0.0
loop_
_geom_bond_atom_site_label_1
_geom_bond_atom_site_label_2
_geom_bond_distance
_geom_bond_site_symmetry_2
_ccdc_geom_bond_type
Zn0 O6 1.969 . S
Zn0 O7 1.965 . S
Zn0 O11 2.024 . S
Zn0 O16 1.969 . S
Zn1 O8 1.969 . S
Zn1 O14 1.969 . S
Zn1 O15 1.965 . S
Zn1 O17 2.024 . S
C2 O3 1.229 . S
C2 O11 1.058 . S
O3 C2 1.229 . S
C4 O5 1.229 . S
C4 O17 1.058 . S
O5 C4 1.229 . S
O6 Zn0 1.969 . S
O6 C9 1.267 . S
O7 Zn0 1.965 . S
O7 C18 1.260 . S
O8 Zn1 1.969 . S
O8 C18 1.258 . S
C9 O6 1.267 . S
C9 O10 1.228 . S
O10 C9 1.228 . S
O11 Zn0 2.024 . S
O11 C2 1.058 . S
C12 O13 1.228 . S
C12 O14 1.267 . S
O13 C12 1.228 . S
O14 Zn1 1.969 . S
O14 C12 1.267 . S
O15 Zn1 1.965 . S
O15 C19 1.260 . S
O16 Zn0 1.969 . S
O16 C19 1.258 . S
O17 Zn1 2.024 . S
O17 C4 1.058 . S
C18 O7 1.260 . S
C18 O8 1.258 . S
C19 O15 1.260 . S
C19 O16 1.258 . S
Zn20 O26 1.969 . S
Zn20 O27 1.965 . S
Zn20 O31 2.024 . S
Zn20 O36 1.969 . S
Zn21 O28 1.969 . S
Zn21 O34 1.969 . S
Zn21 O35 1.965 . S
Zn21 O37 2.024 . S
C22 O23 1.229 . S
C22 O31 1.058 . S
O23 C22 1.229 . S
C24 O25 1.229 . S
C24 O37 1.058 . S
O25 C24 1.229 . S
O26 Zn20 1.969 . S
O26 C29 1.267 . S
O27 Zn20 1.965 . S
O27 C38 1.260 . S
O28 Zn21 1.969 . S
O28 C38 1.258 . S
C29 O26 1.267 . S
C29 O30 1.228 . S
O30 C29 1.228 . S
O31 Zn20 2.024 . S
O31 C22 1.058 . S
C32 O33 1.228 . S
C32 O34 1.267 . S
O33 C32 1.228 . S
O34 Zn21 1.969 . S
O34 C32 1.267 . S
O35 Zn21 1.965 . S
O35 C39 1.260 . S
O36 Zn20 1.969 . S
O36 C39 1.258 . S
O37 Zn21 2.024 . S
O37 C24 1.058 . S
C38 O27 1.260 . S
C38 O28 1.258 . S
C39 O35 1.260 . S
C39 O36 1.258 . S
Zn40 O46 1.969 . S
Zn40 O47 1.965 . S
Zn40 O51 2.024 . S
Zn40 O56 1.969 . S
Zn41 O48 1.969 . S
Zn41 O54 1.969 . S
Zn41 O55 1.965 . S
Zn41 O57 2.024 . S
C42 O43 1.229 . S
C42 O51 1.058 . S
O43 C42 1.229 . S
C44 O45 1.229 . S
C44 O57 1.058 . S
O45 C44 1.229 . S
O46 Zn40 1.969 . S
O46 C49 1.267 . S
O47 Zn40 1.965 . S
O47 C58 1.260 . S
O48 Zn41 1.969 . S
O48 C58 1.258 . S
C49 O46 1.267 . S
C49 O50 1.228 . S
O50 C49 1.228 . S
O51 Zn40 2.024 . S
O51 C42 1.058 . S
C52 O53 1.228 . S
C52 O54 1.267 . S
O53 C52 1.228 . S
O54 Zn41 1.969 . S
O54 C52 1.267 . S
O55 Zn41 1.965 . S
O55 C59 1.260 . S
O56 Zn40 1.969 . S
O56 C59 1.258 . S
O57 Zn41 2.024 . S
O57 C44 1.058 . S
C58 O47 1.260 . S
C58 O48 1.258 . S
C59 O55 1.260 . S
C59 O56 1.258 . S
Zn60 O66 1.969 . S
Zn60 O67 1.965 . S
Zn60 O71 2.024 . S
Zn60 O76 1.969 . S
Zn61 O68 1.969 . S
Zn61 O74 1.969 . S
Zn61 O75 1.965 . S
Zn61 O77 2.024 . S
C62 O63 1.229 . S
C62 O71 1.058 . S
O63 C62 1.229 . S
C64 O65 1.229 . S
C64 O77 1.058 . S
O65 C64 1.229 . S
O66 Zn60 1.969 . S
O66 C69 1.267 . S
O67 Zn60 1.965 . S
O67 C78 1.260 . S
O68 Zn61 1.969 . S
O68 C78 1.258 . S
C69 O66 1.267 . S
C69 O70 1.228 . S
O70 C69 1.228 . S
O71 Zn60 2.024 . S
O71 C62 1.058 . S
C72 O73 1.228 . S
C72 O74 1.267 . S
O73 C72 1.228 . S
O74 Zn61 1.969 . S
O74 C72 1.267 . S
O75 Zn61 1.965 . S
O75 C79 1.260 . S
O76 Zn60 1.969 . S
O76 C79 1.258 . S
O77 Zn61 2.024 . S
O77 C64 1.058 . S
C78 O67 1.260 . S
C78 O68 1.258 . S
C79 O75 1.260 . S
C79 O76 1.258 . S
Zn80 O86 1.969 . S
Zn80 O87 1.965 . S
Zn80 O91 2.024 . S
Zn80 O96 1.969 . S
Zn81 O88 1.969 . S
Zn81 O94 1.969 . S
Zn81 O95 1.965 . S
Zn81 O97 2.024 . S
C82 O83 1.229 . S
C82 O91 1.058 . S
O83 C82 1.229 . S
C84 O85 1.229 . S
C84 O97 1.058 . S
O85 C84 1.229 . S
O86 Zn80 1.969 . S
O86 C89 1.267 . S
O87 Zn80 1.965 . S
O87 C98 1.260 . S
O88 Zn81 1.969 . S
O88 C98 1.258 . S
C89 O86 1.267 . S
C89 O90 1.228 . S
O90 C89 1.228 . S
O91 Zn80 2.024 . S
O91 C82 1.058 . S
C92 O93 1.228 . S
C92 O94 1.267 . S
O93 C92 1.228 . S
O94 Zn81 1.969 . S
O94 C92 1.267 . S
O95 Zn81 1.965 . S
O95 C99 1.260 . S
O96 Zn80 1.969 . S
O96 C99 1.258 . S
O97 Zn81 2.024 . S
O97 C84 1.058 . S
C98 O87 1.260 . S
C98 O88 1.258 . S
C99 O95 1.260 . S
C99 O96 1.258 . S
Zn100 O106 1.969 . S
Zn100 O107 1.965 . S
Zn100 O111 2.024 . S
Zn100 O116 1.969 . S
Zn101 O108 1.969 . S
Zn101 O114 1.969 . S
Zn101 O115 1.965 . S
Zn101 O117 2.024 . S
C102 O103 1.229 . S
C102 O111 1.058 . S
O103 C102 1.229 . S
C104 O105 1.229 . S
C104 O117 1.058 . S
O105 C104 1.229 . S
O106 Zn100 1.969 . S
O106 C109 1.267 . S
O107 Zn100 1.965 . S
O107 C118 1.260 . S
O108 Zn101 1.969 . S
O108 C118 1.258 . S
C109 O106 1.267 . S
C109 O110 1.228 . S
O110 C109 1.228 . S
O111 Zn100 2.024 . S
O111 C102 1.058 . S
C112 O113 1.228 . S
C112 O114 1.267 . S
O113 C112 1.228 . S
O114 Zn101 1.969 . S
O114 C112 1.267 . S
O115 Zn101 1.965 . S
O115 C119 1.260 . S
O116 Zn100 1.969 . S
O116 C119 1.258 . S
O117 Zn101 2.024 . S
O117 C104 1.058 . S
C118 O107 1.260 . S
C118 O108 1.258 . S
C119 O115 1.260 . S
C119 O116 1.258 . S
Zn120 O126 1.969 . S
Zn120 O127 1.965 . S
Zn120 O131 2.024 . S
Zn120 O136 1.969 . S
Zn121 O128 1.969 . S
Zn121 O134 1.969 . S
Zn121 O135 1.965 . S
Zn121 O137 2.024 . S
C122 O123 1.229 . S
C122 O131 1.058 . S
O123 C122 1.229 . S
C124 O125 1.229 . S
C124 O137 1.058 . S
O125 C124 1.229 . S
O126 Zn120 1.969 . S
O126 C129 1.267 . S
O127 Zn120 1.965 . S
O127 C138 1.260 . S
O128 Zn121 1.969 . S
O128 C138 1.258 . S
C129 O126 1.267 . S
C129 O130 1.228 . S
O130 C129 1.228 . S
O131 Zn120 2.024 . S
O131 C122 1.058 . S
C132 O133 1.228 . S
C132 O134 1.267 . S
O133 C132 1.228 . S
O134 Zn121 1.969 . S
O134 C132 1.267 . S
O135 Zn121 1.965 . S
O135 C139 1.260 . S
O136 Zn120 1.969 . S
O136 C139 1.258 . S
O137 Zn121 2.024 . S
O137 C124 1.058 . S
C138 O127 1.260 . S
C138 O128 1.258 . S
C139 O135 1.260 . S
C139 O136 1.258 . S
Zn140 O146 1.969 . S
Zn140 O147 1.965 . S
Zn140 O151 2.024 . S
Zn140 O156 1.969 . S
Zn141 O148 1.969 . S
Zn141 O154 1.969 . S
Zn141 O155 1.965 . S
Zn141 O157 2.024 . S
C142 O143 1.229 . S
C142 O151 1.058 . S
O143 C142 1.229 . S
C144 O145 1.229 . S
C144 O157 1.058 . S
O145 C144 1.229 . S
O146 Zn140 1.969 . S
O146 C149 1.267 . S
O147 Zn140 1.965 . S
O147 C158 1.260 . S
O148 Zn141 1.969 . S
O148 C158 1.258 . S
C149 O146 1.267 . S
C149 O150 1.228 . S
O150 C149 1.228 . S
O151 Zn140 2.024 . S
O151 C142 1.058 . S
C152 O153 1.228 . S
C152 O154 1.267 . S
O153 C152 1.228 . S
O154 Zn141 1.969 . S
O154 C152 1.267 . S
O155 Zn141 1.965 . S
O155 C159 1.260 . S
O156 Zn140 1.969 . S
O156 C159 1.258 . S
O157 Zn141 2.024 . S
O157 C144 1.058 . S
C158 O147 1.260 . S
C158 O148 1.258 . S
C159 O155 1.260 . S
C159 O156 1.258 . S
Fe160 O161 1.886 1_455 S
Fe160 O164 1.715 . S
Fe160 O169 2.077 1_455 S
Fe160 O174 1.935 . S
Fe160 O180 2.077 1_455 S
Fe160 O189 1.935 . S
O161 Fe160 1.886 1_655 S
O161 Fe163 1.715 1_545 S
Fe162 O164 1.886 . S
Fe162 O165 1.715 1_545 S
Fe162 O172 1.935 1_545 S
Fe162 O173 2.077 . S
Fe162 O179 1.935 1_545 S
Fe162 O188 2.077 . S
Fe163 O161 1.715 1_565 S
Fe163 O166 1.886 . S
Fe163 O170 1.935 1_565 S
Fe163 O175 2.077 . S
Fe163 O181 1.935 1_565 S
Fe163 O185 2.077 . S
O164 Fe160 1.715 . S
O164 Fe162 1.886 . S
O165 Fe162 1.715 1_565 S
O165 Fe167 1.886 1_455 S
O166 Fe163 1.886 . S
O166 Fe167 1.715 . S
Fe167 O165 1.886 1_655 S
Fe167 O166 1.715 . S
Fe167 O171 2.077 1_655 S
Fe167 O176 1.935 . S
Fe167 O178 2.077 1_655 S
Fe167 O186 1.935 . S
C168 O180 1.381 . S
C168 O181 1.421 . S
O169 Fe160 2.077 1_655 S
O169 C182 1.381 . S
O170 Fe163 1.935 1_545 S
O170 C182 1.421 . S
O171 Fe167 2.077 1_455 S
O171 C187 1.381 . S
O172 Fe162 1.935 1_565 S
O172 C187 1.421 . S
O173 Fe162 2.077 . S
O173 C177 1.381 . S
O174 Fe160 1.935 . S
O174 C177 1.421 . S
O175 Fe163 2.077 . S
O175 C183 1.381 . S
O176 Fe167 1.935 . S
O176 C183 1.421 . S
C177 O173 1.381 . S
C177 O174 1.421 . S
O178 Fe167 2.077 1_455 S
O178 C190 1.381 . S
O179 Fe162 1.935 1_565 S
O179 C190 1.421 . S
O180 Fe160 2.077 1_655 S
O180 C168 1.381 . S
O181 Fe163 1.935 1_545 S
O181 C168 1.421 . S
C182 O169 1.381 . S
C182 O170 1.421 . S
C183 O175 1.381 . S
C183 O176 1.421 . S
C184 O185 1.381 . S
C184 O186 1.421 . S
O185 Fe163 2.077 . S
O185 C184 1.381 . S
O186 Fe167 1.935 . S
O186 C184 1.421 . S
C187 O171 1.381 . S
C187 O172 1.421 . S
O188 Fe162 2.077 . S
O188 C191 1.381 . S
O189 Fe160 1.935 . S
O189 C191 1.421 . S
C190 O178 1.381 . S
C190 O179 1.421 . S
C191 O188 1.381 . S
C191 O189 1.421 . S
Fe192 O193 1.887 1_556 S
Fe192 O196 1.715 . S
Fe192 O201 2.077 . S
Fe192 O206 1.935 . S
Fe192 O212 2.077 1_556 S
Fe192 O221 1.935 1_556 S
O193 Fe192 1.887 1_554 S
O193 Fe195 1.714 1_565 S
Fe194 O196 1.886 . S
Fe194 O197 1.715 1_565 S
Fe194 O204 1.935 1_565 S
Fe194 O205 2.077 . S
Fe194 O211 1.935 1_566 S
Fe194 O220 2.077 1_556 S
Fe195 O193 1.714 1_545 S
Fe195 O198 1.886 . S
Fe195 O202 1.935 1_544 S
Fe195 O207 2.077 1_554 S
Fe195 O213 1.935 1_545 S
Fe195 O217 2.077 . S
O196 Fe192 1.715 . S
O196 Fe194 1.886 . S
O197 Fe194 1.715 1_545 S
O197 Fe199 1.886 1_556 S
O198 Fe195 1.886 . S
O198 Fe199 1.715 . S
Fe199 O197 1.886 1_554 S
Fe199 O198 1.715 . S
Fe199 O203 2.077 1_554 S
Fe199 O208 1.935 1_554 S
Fe199 O210 2.077 . S
Fe199 O218 1.935 . S
C200 O212 1.381 . S
C200 O213 1.421 . S
O201 Fe192 2.077 . S
O201 C214 1.381 . S
O202 Fe195 1.935 1_566 S
O202 C214 1.421 . S
O203 Fe199 2.077 1_556 S
O203 C219 1.381 . S
O204 Fe194 1.935 1_545 S
O204 C219 1.421 . S
O205 Fe194 2.077 . S
O205 C209 1.381 . S
O206 Fe192 1.935 . S
O206 C209 1.421 . S
O207 Fe195 2.077 1_556 S
O207 C215 1.381 . S
O208 Fe199 1.935 1_556 S
O208 C215 1.421 . S
C209 O205 1.381 . S
C209 O206 1.421 . S
O210 Fe199 2.077 . S
O210 C222 1.381 . S
O211 Fe194 1.935 1_544 S
O211 C222 1.421 . S
O212 Fe192 2.077 1_554 S
O212 C200 1.381 . S
O213 Fe195 1.935 1_565 S
O213 C200 1.421 . S
C214 O201 1.381 . S
C214 O202 1.421 . S
C215 O207 1.381 . S
C215 O208 1.421 . S
C216 O217 1.381 . S
C216 O218 1.421 . S
O217 Fe195 2.077 . S
O217 C216 1.381 . S
O218 Fe199 1.935 . S
O218 C216 1.421 . S
C219 O203 1.381 . S
C219 O204 1.421 . S
O220 Fe194 2.077 1_554 S
O220 C223 1.381 . S
O221 Fe192 1.935 1_554 S
O221 C223 1.421 . S
C222 O210 1.381 . S
C222 O211 1.421 . S
C223 O220 1.381 . S
C223 O221 1.421 . S
Fe224 O225 1.886 1_454 S
Fe224 O228 1.715 . S
Fe224 O233 2.077 1_454 S
Fe224 O238 1.935 1_554 S
Fe224 O244 2.077 1_455 S
Fe224 O253 1.935 . S
O225 Fe224 1.886 1_656 S
O225 Fe227 1.715 . S
Fe226 O228 1.886 . S
Fe226 O229 1.714 . S
Fe226 O236 1.935 1_554 S
Fe226 O237 2.077 1_554 S
Fe226 O243 1.935 . S
Fe226 O252 2.077 . S
Fe227 O225 1.715 . S
Fe227 O230 1.886 . S
Fe227 O234 1.935 . S
Fe227 O239 2.077 . S
Fe227 O245 1.935 1_556 S
Fe227 O249 2.077 1_556 S
O228 Fe224 1.715 . S
O228 Fe226 1.886 . S
O229 Fe226 1.714 . S
O229 Fe231 1.887 1_454 S
O230 Fe227 1.886 . S
O230 Fe231 1.715 . S
Fe231 O229 1.887 1_656 S
Fe231 O230 1.715 . S
Fe231 O235 2.077 1_655 S
Fe231 O240 1.935 . S
Fe231 O242 2.077 1_656 S
Fe231 O250 1.935 1_556 S
C232 O244 1.381 . S
C232 O245 1.421 . S
O233 Fe224 2.077 1_656 S
O233 C246 1.381 . S
O234 Fe227 1.935 . S
O234 C246 1.421 . S
O235 Fe231 2.077 1_455 S
O235 C251 1.381 . S
O236 Fe226 1.935 1_556 S
O236 C251 1.421 . S
O237 Fe226 2.077 1_556 S
O237 C241 1.381 . S
O238 Fe224 1.935 1_556 S
O238 C241 1.421 . S
O239 Fe227 2.077 . S
O239 C247 1.381 . S
O240 Fe231 1.935 . S
O240 C247 1.421 . S
C241 O237 1.381 . S
C241 O238 1.421 . S
O242 Fe231 2.077 1_454 S
O242 C254 1.381 . S
O243 Fe226 1.935 . S
O243 C254 1.421 . S
O244 Fe224 2.077 1_655 S
O244 C232 1.381 . S
O245 Fe227 1.935 1_554 S
O245 C232 1.421 . S
C246 O233 1.381 . S
C246 O234 1.421 . S
C247 O239 1.381 . S
C247 O240 1.421 . S
C248 O249 1.381 . S
C248 O250 1.421 . S
O249 Fe227 2.077 1_554 S
O249 C248 1.381 . S
O250 Fe231 1.935 1_554 S
O250 C248 1.421 . S
C251 O235 1.381 . S
C251 O236 1.421 . S
O252 Fe226 2.077 . S
O252 C255 1.381 . S
O253 Fe224 1.935 . S
O253 C255 1.421 . S
C254 O242 1.381 . S
C254 O243 1.421 . S
C255 O252 1.381 . S
C255 O253 1.421 . S
Fe256 O257 1.886 . S
Fe256 O260 1.715 . S
Fe256 O265 2.077 . S
Fe256 O270 1.935 . S
Fe256 O276 2.077 . S
Fe256 O285 1.935 . S
O257 Fe256 1.886 . S
O257 Fe259 1.715 1_556 S
Fe258 O260 1.886 . S
Fe258 O261 1.715 1_556 S
Fe258 O268 1.935 1_556 S
Fe258 O269 2.077 . S
Fe258 O275 1.935 1_556 S
Fe258 O284 2.077 . S
Fe259 O257 1.715 1_554 S
Fe259 O262 1.886 . S
Fe259 O266 1.935 1_554 S
Fe259 O271 2.077 . S
Fe259 O277 1.935 1_554 S
Fe259 O281 2.077 . S
O260 Fe256 1.715 . S
O260 Fe258 1.886 . S
O261 Fe258 1.715 1_554 S
O261 Fe263 1.886 . S
O262 Fe259 1.886 . S
O262 Fe263 1.715 . S
Fe263 O261 1.886 . S
Fe263 O262 1.715 . S
Fe263 O267 2.077 . S
Fe263 O272 1.935 . S
Fe263 O274 2.077 . S
Fe263 O282 1.935 . S
C264 O276 1.381 . S
C264 O277 1.421 . S
O265 Fe256 2.077 . S
O265 C278 1.381 . S
O266 Fe259 1.935 1_556 S
O266 C278 1.421 . S
O267 Fe263 2.077 . S
O267 C283 1.381 . S
O268 Fe258 1.935 1_554 S
O268 C283 1.421 . S
O269 Fe258 2.077 . S
O269 C273 1.381 . S
O270 Fe256 1.935 . S
O270 C273 1.421 . S
O271 Fe259 2.077 . S
O271 C279 1.381 . S
O272 Fe263 1.935 . S
O272 C279 1.421 . S
C273 O269 1.381 . S
C273 O270 1.421 . S
O274 Fe263 2.077 . S
O274 C286 1.381 . S
O275 Fe258 1.935 1_554 S
O275 C286 1.421 . S
O276 Fe256 2.077 . S
O276 C264 1.381 . S
O277 Fe259 1.935 1_556 S
O277 C264 1.421 . S
C278 O265 1.381 . S
C278 O266 1.421 . S
C279 O271 1.381 . S
C279 O272 1.421 . S
C280 O281 1.381 . S
C280 O282 1.421 . S
O281 Fe259 2.077 . S
O281 C280 1.381 . S
O282 Fe263 1.935 . S
O282 C280 1.421 . S
C283 O267 1.381 . S
C283 O268 1.421 . S
O284 Fe258 2.077 . S
O284 C287 1.381 . S
O285 Fe256 1.935 . S
O285 C287 1.421 . S
C286 O274 1.381 . S
C286 O275 1.421 . S
C287 O284 1.381 . S
C287 O285 1.421 . S
Fe288 O289 1.885 . S
Fe288 O292 1.715 . S
Fe288 O297 2.077 1_655 S
Fe288 O302 1.935 1_655 S
Fe288 O308 2.077 . S
Fe288 O317 1.935 . S
O289 Fe288 1.885 . S
O289 Fe291 1.716 1_655 S
Fe290 O292 1.886 . S
Fe290 O293 1.717 1_655 S
Fe290 O300 1.935 1_655 S
Fe290 O301 2.077 1_655 S
Fe290 O307 1.935 . S
Fe290 O316 2.077 . S
Fe291 O289 1.716 1_455 S
Fe291 O294 1.886 . S
Fe291 O298 1.935 . S
Fe291 O303 2.077 . S
Fe291 O309 1.935 1_455 S
Fe291 O313 2.077 1_455 S
O292 Fe288 1.715 . S
O292 Fe290 1.886 . S
O293 Fe290 1.717 1_455 S
O293 Fe295 1.884 . S
O294 Fe291 1.886 . S
O294 Fe295 1.715 . S
Fe295 O293 1.884 . S
Fe295 O294 1.715 . S
Fe295 O299 2.077 . S
Fe295 O304 1.935 . S
Fe295 O306 2.077 1_455 S
Fe295 O314 1.935 1_455 S
C296 O308 1.381 . S
C296 O309 1.421 . S
O297 Fe288 2.077 1_455 S
O297 C310 1.381 . S
O298 Fe291 1.935 . S
O298 C310 1.421 . S
O299 Fe295 2.077 . S
O299 C315 1.381 . S
O300 Fe290 1.935 1_455 S
O300 C315 1.421 . S
O301 Fe290 2.077 1_455 S
O301 C305 1.381 . S
O302 Fe288 1.935 1_455 S
O302 C305 1.421 . S
O303 Fe291 2.077 . S
O303 C311 1.381 . S
O304 Fe295 1.935 . S
O304 C311 1.421 . S
C305 O301 1.381 . S
C305 O302 1.421 . S
O306 Fe295 2.077 1_655 S
O306 C318 1.381 . S
O307 Fe290 1.935 . S
O307 C318 1.421 . S
O308 Fe288 2.077 . S
O308 C296 1.381 . S
O309 Fe291 1.935 1_655 S
O309 C296 1.421 . S
C310 O297 1.381 . S
C310 O298 1.421 . S
C311 O303 1.381 . S
C311 O304 1.421 . S
C312 O313 1.381 . S
C312 O314 1.421 . S
O313 Fe291 2.077 1_655 S
O313 C312 1.381 . S
O314 Fe295 1.935 1_655 S
O314 C312 1.421 . S
C315 O299 1.381 . S
C315 O300 1.421 . S
O316 Fe290 2.077 . S
O316 C319 1.381 . S
O317 Fe288 1.935 . S
O317 C319 1.421 . S
C318 O306 1.381 . S
C318 O307 1.421 . S
C319 O316 1.381 . S
C319 O317 1.421 . S
Fe320 O321 1.886 . S
Fe320 O324 1.715 . S
Fe320 O329 2.077 . S
Fe320 O334 1.935 . S
Fe320 O340 2.077 . S
Fe320 O349 1.935 . S
O321 Fe320 1.886 . S
O321 Fe323 1.715 1_565 S
Fe322 O324 1.886 . S
Fe322 O325 1.715 1_565 S
Fe322 O332 1.935 1_565 S
Fe322 O333 2.077 . S
Fe322 O339 1.935 1_565 S
Fe322 O348 2.077 . S
Fe323 O321 1.715 1_545 S
Fe323 O326 1.886 . S
Fe323 O330 1.935 1_545 S
Fe323 O335 2.077 . S
Fe323 O341 1.935 1_545 S
Fe323 O345 2.077 . S
O324 Fe320 1.715 . S
O324 Fe322 1.886 . S
O325 Fe322 1.715 1_545 S
O325 Fe327 1.886 . S
O326 Fe323 1.886 . S
O326 Fe327 1.715 . S
Fe327 O325 1.886 . S
Fe327 O326 1.715 . S
Fe327 O331 2.077 . S
Fe327 O336 1.935 . S
Fe327 O338 2.077 . S
Fe327 O346 1.935 . S
C328 O340 1.381 . S
C328 O341 1.421 . S
O329 Fe320 2.077 . S
O329 C342 1.381 . S
O330 Fe323 1.935 1_565 S
O330 C342 1.421 . S
O331 Fe327 2.077 . S
O331 C347 1.381 . S
O332 Fe322 1.935 1_545 S
O332 C347 1.421 . S
O333 Fe322 2.077 . S
O333 C337 1.381 . S
O334 Fe320 1.935 . S
O334 C337 1.421 . S
O335 Fe323 2.077 . S
O335 C343 1.381 . S
O336 Fe327 1.935 . S
O336 C343 1.421 . S
C337 O333 1.381 . S
C337 O334 1.421 . S
O338 Fe327 2.077 . S
O338 C350 1.381 . S
O339 Fe322 1.935 1_545 S
O339 C350 1.421 . S
O340 Fe320 2.077 . S
O340 C328 1.381 . S
O341 Fe323 1.935 1_565 S
O341 C328 1.421 . S
C342 O329 1.381 . S
C342 O330 1.421 . S
C343 O335 1.381 . S
C343 O336 1.421 . S
C344 O345 1.381 . S
C344 O346 1.421 . S
O345 Fe323 2.077 . S
O345 C344 1.381 . S
O346 Fe327 1.935 . S
O346 C344 1.421 . S
C347 O331 1.381 . S
C347 O332 1.421 . S
O348 Fe322 2.077 . S
O348 C351 1.381 . S
O349 Fe320 1.935 . S
O349 C351 1.421 . S
C350 O338 1.381 . S
C350 O339 1.421 . S
C351 O348 1.381 . S
C351 O349 1.421 . S
H352 C364 0.930 . S
H353 C366 0.930 . S
H354 C367 0.930 . S
H355 C371 0.959 . S
H356 C371 0.959 . S
H357 C371 0.961 . S
H358 C372 0.960 . S
H359 C372 0.961 . S
H360 C372 0.959 . S
H361 C375 0.929 . S
H362 C376 0.931 . S
H363 C378 0.930 . S
C364 H352 0.930 . S
C364 C365 1.399 . S
C364 C369 1.399 . S
C365 C364 1.399 . S
C365 C366 1.376 . S
C366 H353 0.930 . S
C366 C365 1.376 . S
C366 C367 1.388 . S
C367 H354 0.930 . S
C367 C366 1.388 . S
C367 C368 1.390 . S
C368 C367 1.390 . S
C368 C369 1.394 . S
C368 C374 1.465 . S
C369 C364 1.399 . S
C369 C368 1.394 . S
C369 C370 1.516 . S
C370 C369 1.516 . S
C370 C371 1.502 . S
C370 C372 1.561 . S
C370 C373 1.526 . S
C371 H355 0.959 . S
C371 H356 0.959 . S
C371 H357 0.961 . S
C371 C370 1.502 . S
C372 H358 0.960 . S
C372 H359 0.961 . S
C372 H360 0.959 . S
C372 C370 1.561 . S
C373 C370 1.526 . S
C373 C374 1.396 . S
C373 C378 1.390 . S
C374 C368 1.465 . S
C374 C373 1.396 . S
C374 C375 1.399 . S
C375 H361 0.929 . S
C375 C374 1.399 . S
C375 C376 1.385 . S
C376 H362 0.931 . S
C376 C375 1.385 . S
C376 C377 1.389 . S
C377 C376 1.389 . S
C377 C378 1.387 . S
C378 H363 0.930 . S
C378 C373 1.390 . S
C378 C377 1.387 . S
H379 C391 0.930 . S
H380 C393 0.930 . S
H381 C394 0.930 . S
H382 C398 0.959 . S
H383 C398 0.959 . S
H384 C398 0.961 . S
H385 C399 0.960 . S
H386 C399 0.961 . S
H387 C399 0.959 . S
H388 C402 0.929 . S
H389 C403 0.931 . S
H390 C405 0.930 . S
C391 H379 0.930 . S
C391 C392 1.399 . S
C391 C396 1.399 . S
C392 C391 1.399 . S
C392 C393 1.376 . S
C393 H380 0.930 . S
C393 C392 1.376 . S
C393 C394 1.388 . S
C394 H381 0.930 . S
C394 C393 1.388 . S
C394 C395 1.390 . S
C395 C394 1.390 . S
C395 C396 1.394 . S
C395 C401 1.465 . S
C396 C391 1.399 . S
C396 C395 1.394 . S
C396 C397 1.516 . S
C397 C396 1.516 . S
C397 C398 1.502 . S
C397 C399 1.561 . S
C397 C400 1.526 . S
C398 H382 0.959 . S
C398 H383 0.959 . S
C398 H384 0.961 . S
C398 C397 1.502 . S
C399 H385 0.960 . S
C399 H386 0.961 . S
C399 H387 0.959 . S
C399 C397 1.561 . S
C400 C397 1.526 . S
C400 C401 1.396 . S
C400 C405 1.390 . S
C401 C395 1.465 . S
C401 C400 1.396 . S
C401 C402 1.399 . S
C402 H388 0.929 . S
C402 C401 1.399 . S
C402 C403 1.385 . S
C403 H389 0.931 . S
C403 C402 1.385 . S
C403 C404 1.389 . S
C404 C403 1.389 . S
C404 C405 1.387 . S
C405 H390 0.930 . S
C405 C400 1.390 . S
C405 C404 1.387 . S
H406 C418 0.930 . S
H407 C420 0.930 . S
H408 C421 0.930 . S
H409 C425 0.959 . S
H410 C425 0.959 . S
H411 C425 0.961 . S
H412 C426 0.960 . S
H413 C426 0.961 . S
H414 C426 0.959 . S
H415 C429 0.929 . S
H416 C430 0.931 . S
H417 C432 0.930 . S
C418 H406 0.930 . S
C418 C419 1.399 . S
C418 C423 1.399 . S
C419 C418 1.399 . S
C419 C420 1.376 . S
C420 H407 0.930 . S
C420 C419 1.376 . S
C420 C421 1.388 . S
C421 H408 0.930 . S
C421 C420 1.388 . S
C421 C422 1.390 . S
C422 C421 1.390 . S
C422 C423 1.394 . S
C422 C428 1.465 . S
C423 C418 1.399 . S
C423 C422 1.394 . S
C423 C424 1.516 . S
C424 C423 1.516 . S
C424 C425 1.502 . S
C424 C426 1.561 . S
C424 C427 1.526 . S
C425 H409 0.959 . S
C425 H410 0.959 . S
C425 H411 0.961 . S
C425 C424 1.502 . S
C426 H412 0.960 . S
C426 H413 0.961 . S
C426 H414 0.959 . S
C426 C424 1.561 . S
C427 C424 1.526 . S
C427 C428 1.396 . S
C427 C432 1.390 . S
C428 C422 1.465 . S
C428 C427 1.396 . S
C428 C429 1.399 . S
C429 H415 0.929 . S
C429 C428 1.399 . S
C429 C430 1.385 . S
C430 H416 0.931 . S
C430 C429 1.385 . S
C430 C431 1.389 . S
C431 C430 1.389 . S
C431 C432 1.387 . S
C432 H417 0.930 . S
C432 C427 1.390 . S
C432 C431 1.387 . S
H433 C445 0.930 . S
H434 C447 0.930 . S
H435 C448 0.930 . S
H436 C452 0.959 . S
H437 C452 0.959 . S
H438 C452 0.961 . S
H439 C453 0.960 . S
H440 C453 0.961 . S
H441 C453 0.959 . S
H442 C456 0.929 . S
H443 C457 0.931 . S
H444 C459 0.930 . S
C445 H433 0.930 . S
C445 C446 1.399 . S
C445 C450 1.399 . S
C446 C445 1.399 . S
C446 C447 1.376 . S
C447 H434 0.930 . S
C447 C446 1.376 . S
C447 C448 1.388 . S
C448 H435 0.930 . S
C448 C447 1.388 . S
C448 C449 1.390 . S
C449 C448 1.390 . S
C449 C450 1.394 . S
C449 C455 1.465 . S
C450 C445 1.399 . S
C450 C449 1.394 . S
C450 C451 1.516 . S
C451 C450 1.516 . S
C451 C452 1.502 . S
C451 C453 1.561 . S
C451 C454 1.526 . S
C452 H436 0.959 . S
C452 H437 0.959 . S
C452 H438 0.961 . S
C452 C451 1.502 . S
C453 H439 0.960 . S
C453 H440 0.961 . S
C453 H441 0.959 . S
C453 C451 1.561 . S
C454 C451 1.526 . S
C454 C455 1.396 . S
C454 C459 1.390 . S
C455 C449 1.465 . S
C455 C454 1.396 . S
C455 C456 1.399 . S
C456 H442 0.929 . S
C456 C455 1.399 . S
C456 C457 1.385 . S
C457 H443 0.931 . S
C457 C456 1.385 . S
C457 C458 1.389 . S
C458 C457 1.389 . S
C458 C459 1.387 . S
C459 H444 0.930 . S
C459 C454 1.390 . S
C459 C458 1.387 . S
H460 C472 0.930 . S
H461 C474 0.930 . S
H462 C475 0.930 . S
H463 C479 0.959 . S
H464 C479 0.959 . S
H465 C479 0.961 . S
H466 C480 0.960 . S
H467 C480 0.961 . S
H468 C480 0.959 . S
H469 C483 0.929 . S
H470 C484 0.931 . S
H471 C486 0.930 . S
C472 H460 0.930 . S
C472 C473 1.399 . S
C472 C477 1.399 . S
C473 C472 1.399 . S
C473 C474 1.376 . S
C474 H461 0.930 . S
C474 C473 1.376 . S
C474 C475 1.388 . S
C475 H462 0.930 . S
C475 C474 1.388 . S
C475 C476 1.390 . S
C476 C475 1.390 . S
C476 C477 1.394 . S
C476 C482 1.465 . S
C477 C472 1.399 . S
C477 C476 1.394 . S
C477 C478 1.516 . S
C478 C477 1.516 . S
C478 C479 1.502 . S
C478 C480 1.561 . S
C478 C481 1.526 . S
C479 H463 0.959 . S
C479 H464 0.959 . S
C479 H465 0.961 . S
C479 C478 1.502 . S
C480 H466 0.960 . S
C480 H467 0.961 . S
C480 H468 0.959 . S
C480 C478 1.561 . S
C481 C478 1.526 . S
C481 C482 1.396 . S
C481 C486 1.390 . S
C482 C476 1.465 . S
C482 C481 1.396 . S
C482 C483 1.399 . S
C483 H469 0.929 . S
C483 C482 1.399 . S
C483 C484 1.385 . S
C484 H470 0.931 . S
C484 C483 1.385 . S
C484 C485 1.389 . S
C485 C484 1.389 . S
C485 C486 1.387 . S
C486 H471 0.930 . S
C486 C481 1.390 . S
C486 C485 1.387 . S
H487 C499 0.930 . S
H488 C501 0.930 . S
H489 C502 0.930 . S
H490 C506 0.959 . S
H491 C506 0.959 . S
H492 C506 0.961 . S
H493 C507 0.960 . S
H494 C507 0.961 . S
H495 C507 0.959 . S
H496 C510 0.929 . S
H497 C511 0.931 . S
H498 C513 0.930 . S
C499 H487 0.930 . S
C499 C500 1.399 . S
C499 C504 1.399 . S
C500 C499 1.399 . S
C500 C501 1.376 . S
C501 H488 0.930 . S
C501 C500 1.376 . S
C501 C502 1.388 . S
C502 H489 0.930 . S
C502 C501 1.388 . S
C502 C503 1.390 . S
C503 C502 1.390 . S
C503 C504 1.394 . S
C503 C509 1.465 . S
C504 C499 1.399 . S
C504 C503 1.394 . S
C504 C505 1.516 . S
C505 C504 1.516 . S
C505 C506 1.502 . S
C505 C507 1.561 . S
C505 C508 1.526 . S
C506 H490 0.959 . S
C506 H491 0.959 . S
C506 H492 0.961 . S
C506 C505 1.502 . S
C507 H493 0.960 . S
C507 H494 0.961 . S
C507 H495 0.959 . S
C507 C505 1.561 . S
C508 C505 1.526 . S
C508 C509 1.396 . S
C508 C513 1.390 . S
C509 C503 1.465 . S
C509 C508 1.396 . S
C509 C510 1.399 . S
C510 H496 0.929 . S
C510 C509 1.399 . S
C510 C511 1.385 . S
C511 H497 0.931 . S
C511 C510 1.385 . S
C511 C512 1.389 . S
C512 C511 1.389 . S
C512 C513 1.387 . S
C513 H498 0.930 . S
C513 C508 1.390 . S
C513 C512 1.387 . S
H514 C526 0.930 . S
H515 C528 0.930 . S
H516 C529 0.930 . S
H517 C533 0.959 . S
H518 C533 0.959 . S
H519 C533 0.961 . S
H520 C534 0.960 . S
H521 C534 0.961 . S
H522 C534 0.959 . S
H523 C537 0.929 . S
H524 C538 0.931 . S
H525 C540 0.930 . S
C526 H514 0.930 . S
C526 C527 1.399 . S
C526 C531 1.399 . S
C527 C526 1.399 . S
C527 C528 1.376 . S
C528 H515 0.930 . S
C528 C527 1.376 . S
C528 C529 1.388 . S
C529 H516 0.930 . S
C529 C528 1.388 . S
C529 C530 1.390 . S
C530 C529 1.390 . S
C530 C531 1.394 . S
C530 C536 1.465 . S
C531 C526 1.399 . S
C531 C530 1.394 . S
C531 C532 1.516 . S
C532 C531 1.516 . S
C532 C533 1.502 . S
C532 C534 1.561 . S
C532 C535 1.526 . S
C533 H517 0.959 . S
C533 H518 0.959 . S
C533 H519 0.961 . S
C533 C532 1.502 . S
C534 H520 0.960 . S
C534 H521 0.961 . S
C534 H522 0.959 . S
C534 C532 1.561 . S
C535 C532 1.526 . S
C535 C536 1.396 . S
C535 C540 1.390 . S
C536 C530 1.465 . S
C536 C535 1.396 . S
C536 C537 1.399 . S
C537 H523 0.929 . S
C537 C536 1.399 . S
C537 C538 1.385 . S
C538 H524 0.931 . S
C538 C537 1.385 . S
C538 C539 1.389 . S
C539 C538 1.389 . S
C539 C540 1.387 . S
C540 H525 0.930 . S
C540 C535 1.390 . S
C540 C539 1.387 . S
H541 C553 0.930 . S
H542 C555 0.930 . S
H543 C556 0.930 . S
H544 C560 0.959 . S
H545 C560 0.959 . S
H546 C560 0.961 . S
H547 C561 0.960 . S
H548 C561 0.961 . S
H549 C561 0.959 . S
H550 C564 0.929 . S
H551 C565 0.931 . S
H552 C567 0.930 . S
C553 H541 0.930 . S
C553 C554 1.399 . S
C553 C558 1.399 . S
C554 C553 1.399 . S
C554 C555 1.376 . S
C555 H542 0.930 . S
C555 C554 1.376 . S
C555 C556 1.388 . S
C556 H543 0.930 . S
C556 C555 1.388 . S
C556 C557 1.390 . S
C557 C556 1.390 . S
C557 C558 1.394 . S
C557 C563 1.465 . S
C558 C553 1.399 . S
C558 C557 1.394 . S
C558 C559 1.516 . S
C559 C558 1.516 . S
C559 C560 1.502 . S
C559 C561 1.561 . S
C559 C562 1.526 . S
C560 H544 0.959 . S
C560 H545 0.959 . S
C560 H546 0.961 . S
C560 C559 1.502 . S
C561 H547 0.960 . S
C561 H548 0.961 . S
C561 H549 0.959 . S
C561 C559 1.561 . S
C562 C559 1.526 . S
C562 C563 1.396 . S
C562 C567 1.390 . S
C563 C557 1.465 . S
C563 C562 1.396 . S
C563 C564 1.399 . S
C564 H550 0.929 . S
C564 C563 1.399 . S
C564 C565 1.385 . S
C565 H551 0.931 . S
C565 C564 1.385 . S
C565 C566 1.389 . S
C566 C565 1.389 . S
C566 C567 1.387 . S
C567 H552 0.930 . S
C567 C562 1.390 . S
C567 C566 1.387 . S
H568 C580 0.930 . S
H569 C582 0.930 . S
H570 C583 0.930 . S
H571 C587 0.959 . S
H572 C587 0.959 . S
H573 C587 0.961 . S
H574 C588 0.960 . S
H575 C588 0.961 . S
H576 C588 0.959 . S
H577 C591 0.929 . S
H578 C592 0.931 . S
H579 C594 0.930 . S
C580 H568 0.930 . S
C580 C581 1.399 . S
C580 C585 1.399 . S
C581 C580 1.399 . S
C581 C582 1.376 . S
C582 H569 0.930 . S
C582 C581 1.376 . S
C582 C583 1.388 . S
C583 H570 0.930 . S
C583 C582 1.388 . S
C583 C584 1.390 . S
C584 C583 1.390 . S
C584 C585 1.394 . S
C584 C590 1.465 . S
C585 C580 1.399 . S
C585 C584 1.394 . S
C585 C586 1.516 . S
C586 C585 1.516 . S
C586 C587 1.502 . S
C586 C588 1.561 . S
C586 C589 1.526 . S
C587 H571 0.959 . S
C587 H572 0.959 . S
C587 H573 0.961 . S
C587 C586 1.502 . S
C588 H574 0.960 . S
C588 H575 0.961 . S
C588 H576 0.959 . S
C588 C586 1.561 . S
C589 C586 1.526 . S
C589 C590 1.396 . S
C589 C594 1.390 . S
C590 C584 1.465 . S
C590 C589 1.396 . S
C590 C591 1.399 . S
C591 H577 0.929 . S
C591 C590 1.399 . S
C591 C592 1.385 . S
C592 H578 0.931 . S
C592 C591 1.385 . S
C592 C593 1.389 . S
C593 C592 1.389 . S
C593 C594 1.387 . S
C594 H579 0.930 . S
C594 C589 1.390 . S
C594 C593 1.387 . S
H595 C607 0.930 . S
H596 C609 0.930 . S
H597 C610 0.930 . S
H598 C614 0.959 . S
H599 C614 0.959 . S
H600 C614 0.961 . S
H601 C615 0.960 . S
H602 C615 0.961 . S
H603 C615 0.959 . S
H604 C618 0.929 . S
H605 C619 0.931 . S
H606 C621 0.930 . S
C607 H595 0.930 . S
C607 C608 1.399 . S
C607 C612 1.399 . S
C608 C607 1.399 . S
C608 C609 1.376 . S
C609 H596 0.930 . S
C609 C608 1.376 . S
C609 C610 1.388 . S
C610 H597 0.930 . S
C610 C609 1.388 . S
C610 C611 1.390 . S
C611 C610 1.390 . S
C611 C612 1.394 . S
C611 C617 1.465 . S
C612 C607 1.399 . S
C612 C611 1.394 . S
C612 C613 1.516 . S
C613 C612 1.516 . S
C613 C614 1.502 . S
C613 C615 1.561 . S
C613 C616 1.526 . S
C614 H598 0.959 . S
C614 H599 0.959 . S
C614 H600 0.961 . S
C614 C613 1.502 . S
C615 H601 0.960 . S
C615 H602 0.961 . S
C615 H603 0.959 . S
C615 C613 1.561 . S
C616 C613 1.526 . S
C616 C617 1.396 . S
C616 C621 1.390 . S
C617 C611 1.465 . S
C617 C616 1.396 . S
C617 C618 1.399 . S
C618 H604 0.929 . S
C618 C617 1.399 . S
C618 C619 1.385 . S
C619 H605 0.931 . S
C619 C618 1.385 . S
C619 C620 1.389 . S
C620 C619 1.389 . S
C620 C621 1.387 . S
C621 H606 0.930 . S
C621 C616 1.390 . S
C621 C620 1.387 . S
H622 C634 0.930 . S
H623 C636 0.930 . S
H624 C637 0.930 . S
H625 C641 0.959 . S
H626 C641 0.959 . S
H627 C641 0.961 . S
H628 C642 0.960 . S
H629 C642 0.961 . S
H630 C642 0.959 . S
H631 C645 0.929 . S
H632 C646 0.931 . S
H633 C648 0.930 . S
C634 H622 0.930 . S
C634 C635 1.399 . S
C634 C639 1.399 . S
C635 C634 1.399 . S
C635 C636 1.376 . S
C636 H623 0.930 . S
C636 C635 1.376 . S
C636 C637 1.388 . S
C637 H624 0.930 . S
C637 C636 1.388 . S
C637 C638 1.390 . S
C638 C637 1.390 . S
C638 C639 1.394 . S
C638 C644 1.465 . S
C639 C634 1.399 . S
C639 C638 1.394 . S
C639 C640 1.516 . S
C640 C639 1.516 . S
C640 C641 1.502 . S
C640 C642 1.561 . S
C640 C643 1.526 . S
C641 H625 0.959 . S
C641 H626 0.959 . S
C641 H627 0.961 . S
C641 C640 1.502 . S
C642 H628 0.960 . S
C642 H629 0.961 . S
C642 H630 0.959 . S
C642 C640 1.561 . S
C643 C640 1.526 . S
C643 C644 1.396 . S
C643 C648 1.390 . S
C644 C638 1.465 . S
C644 C643 1.396 . S
C644 C645 1.399 . S
C645 H631 0.929 . S
C645 C644 1.399 . S
C645 C646 1.385 . S
C646 H632 0.931 . S
C646 C645 1.385 . S
C646 C647 1.389 . S
C647 C646 1.389 . S
C647 C648 1.387 . S
C648 H633 0.930 . S
C648 C643 1.390 . S
C648 C647 1.387 . S
H649 C661 0.930 . S
H650 C663 0.930 . S
H651 C664 0.930 . S
H652 C668 0.959 . S
H653 C668 0.959 . S
H654 C668 0.961 . S
H655 C669 0.960 . S
H656 C669 0.961 . S
H657 C669 0.959 . S
H658 C672 0.929 . S
H659 C673 0.931 . S
H660 C675 0.930 . S
C661 H649 0.930 . S
C661 C662 1.399 . S
C661 C666 1.399 . S
C662 C661 1.399 . S
C662 C663 1.376 . S
C663 H650 0.930 . S
C663 C662 1.376 . S
C663 C664 1.388 . S
C664 H651 0.930 . S
C664 C663 1.388 . S
C664 C665 1.390 . S
C665 C664 1.390 . S
C665 C666 1.394 . S
C665 C671 1.465 . S
C666 C661 1.399 . S
C666 C665 1.394 . S
C666 C667 1.516 . S
C667 C666 1.516 . S
C667 C668 1.502 . S
C667 C669 1.561 . S
C667 C670 1.526 . S
C668 H652 0.959 . S
C668 H653 0.959 . S
C668 H654 0.961 . S
C668 C667 1.502 . S
C669 H655 0.960 . S
C669 H656 0.961 . S
C669 H657 0.959 . S
C669 C667 1.561 . S
C670 C667 1.526 . S
C670 C671 1.396 . S
C670 C675 1.390 . S
C671 C665 1.465 . S
C671 C670 1.396 . S
C671 C672 1.399 . S
C672 H658 0.929 . S
C672 C671 1.399 . S
C672 C673 1.385 . S
C673 H659 0.931 . S
C673 C672 1.385 . S
C673 C674 1.389 . S
C674 C673 1.389 . S
C674 C675 1.387 . S
C675 H660 0.930 . S
C675 C670 1.390 . S
C675 C674 1.387 . S
H676 C688 0.930 . S
H677 C690 0.930 . S
H678 C691 0.930 . S
H679 C695 0.959 . S
H680 C695 0.959 . S
H681 C695 0.961 . S
H682 C696 0.960 . S
H683 C696 0.961 . S
H684 C696 0.959 . S
H685 C699 0.929 . S
H686 C700 0.931 . S
H687 C702 0.930 . S
C688 H676 0.930 . S
C688 C689 1.399 . S
C688 C693 1.399 . S
C689 C688 1.399 . S
C689 C690 1.376 . S
C690 H677 0.930 . S
C690 C689 1.376 . S
C690 C691 1.388 . S
C691 H678 0.930 . S
C691 C690 1.388 . S
C691 C692 1.390 . S
C692 C691 1.390 . S
C692 C693 1.394 . S
C692 C698 1.465 . S
C693 C688 1.399 . S
C693 C692 1.394 . S
C693 C694 1.516 . S
C694 C693 1.516 . S
C694 C695 1.502 . S
C694 C696 1.561 . S
C694 C697 1.526 . S
C695 H679 0.959 . S
C695 H680 0.959 . S
C695 H681 0.961 . S
C695 C694 1.502 . S
C696 H682 0.960 . S
C696 H683 0.961 . S
C696 H684 0.959 . S
C696 C694 1.561 . S
C697 C694 1.526 . S
C697 C698 1.396 . S
C697 C702 1.390 . S
C698 C692 1.465 . S
C698 C697 1.396 . S
C698 C699 1.399 . S
C699 H685 0.929 . S
C699 C698 1.399 . S
C699 C700 1.385 . S
C700 H686 0.931 . S
C700 C699 1.385 . S
C700 C701 1.389 . S
C701 C700 1.389 . S
C701 C702 1.387 . S
C702 H687 0.930 . S
C702 C697 1.390 . S
C702 C701 1.387 . S
H703 C715 0.930 . S
H704 C717 0.930 . S
H705 C718 0.930 . S
H706 C722 0.959 . S
H707 C722 0.959 . S
H708 C722 0.961 . S
H709 C723 0.960 . S
H710 C723 0.961 . S
H711 C723 0.959 . S
H712 C726 0.929 . S
H713 C727 0.931 . S
H714 C729 0.930 . S
C715 H703 0.930 . S
C715 C716 1.399 . S
C715 C720 1.399 . S
C716 C715 1.399 . S
C716 C717 1.376 . S
C717 H704 0.930 . S
C717 C716 1.376 . S
C717 C718 1.388 . S
C718 H705 0.930 . S
C718 C717 1.388 . S
C718 C719 1.390 . S
C719 C718 1.390 . S
C719 C720 1.394 . S
C719 C725 1.465 . S
C720 C715 1.399 . S
C720 C719 1.394 . S
C720 C721 1.516 . S
C721 C720 1.516 . S
C721 C722 1.502 . S
C721 C723 1.561 . S
C721 C724 1.526 . S
C722 H706 0.959 . S
C722 H707 0.959 . S
C722 H708 0.961 . S
C722 C721 1.502 . S
C723 H709 0.960 . S
C723 H710 0.961 . S
C723 H711 0.959 . S
C723 C721 1.561 . S
C724 C721 1.526 . S
C724 C725 1.396 . S
C724 C729 1.390 . S
C725 C719 1.465 . S
C725 C724 1.396 . S
C725 C726 1.399 . S
C726 H712 0.929 . S
C726 C725 1.399 . S
C726 C727 1.385 . S
C727 H713 0.931 . S
C727 C726 1.385 . S
C727 C728 1.389 . S
C728 C727 1.389 . S
C728 C729 1.387 . S
C729 H714 0.930 . S
C729 C724 1.390 . S
C729 C728 1.387 . S
H730 C742 0.930 . S
H731 C744 0.930 . S
H732 C745 0.930 . S
H733 C749 0.959 . S
H734 C749 0.959 . S
H735 C749 0.961 . S
H736 C750 0.960 . S
H737 C750 0.961 . S
H738 C750 0.959 . S
H739 C753 0.929 . S
H740 C754 0.931 . S
H741 C756 0.930 . S
C742 H730 0.930 . S
C742 C743 1.399 . S
C742 C747 1.399 . S
C743 C742 1.399 . S
C743 C744 1.376 . S
C744 H731 0.930 . S
C744 C743 1.376 . S
C744 C745 1.388 . S
C745 H732 0.930 . S
C745 C744 1.388 . S
C745 C746 1.390 . S
C746 C745 1.390 . S
C746 C747 1.394 . S
C746 C752 1.465 . S
C747 C742 1.399 . S
C747 C746 1.394 . S
C747 C748 1.516 . S
C748 C747 1.516 . S
C748 C749 1.502 . S
C748 C750 1.561 . S
C748 C751 1.526 . S
C749 H733 0.959 . S
C749 H734 0.959 . S
C749 H735 0.961 . S
C749 C748 1.502 . S
C750 H736 0.960 . S
C750 H737 0.961 . S
C750 H738 0.959 . S
C750 C748 1.561 . S
C751 C748 1.526 . S
C751 C752 1.396 . S
C751 C756 1.390 . S
C752 C746 1.465 . S
C752 C751 1.396 . S
C752 C753 1.399 . S
C753 H739 0.929 . S
C753 C752 1.399 . S
C753 C754 1.385 . S
C754 H740 0.931 . S
C754 C753 1.385 . S
C754 C755 1.389 . S
C755 C754 1.389 . S
C755 C756 1.387 . S
C756 H741 0.930 . S
C756 C751 1.390 . S
C756 C755 1.387 . S
H757 C769 0.930 . S
H758 C771 0.930 . S
H759 C772 0.930 . S
H760 C776 0.959 . S
H761 C776 0.959 . S
H762 C776 0.961 . S
H763 C777 0.960 . S
H764 C777 0.961 . S
H765 C777 0.959 . S
H766 C780 0.929 . S
H767 C781 0.931 . S
H768 C783 0.930 . S
C769 H757 0.930 . S
C769 C770 1.399 . S
C769 C774 1.399 . S
C770 C769 1.399 . S
C770 C771 1.376 . S
C771 H758 0.930 . S
C771 C770 1.376 . S
C771 C772 1.388 . S
C772 H759 0.930 . S
C772 C771 1.388 . S
C772 C773 1.390 . S
C773 C772 1.390 . S
C773 C774 1.394 . S
C773 C779 1.465 . S
C774 C769 1.399 . S
C774 C773 1.394 . S
C774 C775 1.516 . S
C775 C774 1.516 . S
C775 C776 1.502 . S
C775 C777 1.561 . S
C775 C778 1.526 . S
C776 H760 0.959 . S
C776 H761 0.959 . S
C776 H762 0.961 . S
C776 C775 1.502 . S
C777 H763 0.960 . S
C777 H764 0.961 . S
C777 H765 0.959 . S
C777 C775 1.561 . S
C778 C775 1.526 . S
C778 C779 1.396 . S
C778 C783 1.390 . S
C779 C773 1.465 . S
C779 C778 1.396 . S
C779 C780 1.399 . S
C780 H766 0.929 . S
C780 C779 1.399 . S
C780 C781 1.385 . S
C781 H767 0.931 . S
C781 C780 1.385 . S
C781 C782 1.389 . S
C782 C781 1.389 . S
C782 C783 1.387 . S
C783 H768 0.930 . S
C783 C778 1.390 . S
C783 C782 1.387 . S
H784 C796 0.930 . S
H785 C798 0.930 . S
H786 C799 0.930 . S
H787 C803 0.959 . S
H788 C803 0.959 . S
H789 C803 0.961 . S
H790 C804 0.960 . S
H791 C804 0.961 . S
H792 C804 0.959 . S
H793 C807 0.929 . S
H794 C808 0.931 . S
H795 C810 0.930 . S
C796 H784 0.930 . S
C796 C797 1.399 . S
C796 C801 1.399 . S
C797 C796 1.399 . S
C797 C798 1.376 . S
C798 H785 0.930 . S
C798 C797 1.376 . S
C798 C799 1.388 . S
C799 H786 0.930 . S
C799 C798 1.388 . S
C799 C800 1.390 . S
C800 C799 1.390 . S
C800 C801 1.394 . S
C800 C806 1.465 . S
C801 C796 1.399 . S
C801 C800 1.394 . S
C801 C802 1.516 . S
C802 C801 1.516 . S
C802 C803 1.502 . S
C802 C804 1.561 . S
C802 C805 1.526 . S
C803 H787 0.959 . S
C803 H788 0.959 . S
C803 H789 0.961 . S
C803 C802 1.502 . S
C804 H790 0.960 . S
C804 H791 0.961 . S
C804 H792 0.959 . S
C804 C802 1.561 . S
C805 C802 1.526 . S
C805 C806 1.396 . S
C805 C810 1.390 . S
C806 C800 1.465 . S
C806 C805 1.396 . S
C806 C807 1.399 . S
C807 H793 0.929 . S
C807 C806 1.399 . S
C807 C808 1.385 . S
C808 H794 0.931 . S
C808 C807 1.385 . S
C808 C809 1.389 . S
C809 C808 1.389 . S
C809 C810 1.387 . S
C810 H795 0.930 . S
C810 C805 1.390 . S
C810 C809 1.387 . S
H811 C823 0.930 . S
H812 C825 0.930 . S
H813 C826 0.930 . S
H814 C830 0.959 . S
H815 C830 0.959 . S
H816 C830 0.961 . S
H817 C831 0.960 . S
H818 C831 0.961 . S
H819 C831 0.959 . S
H820 C834 0.929 . S
H821 C835 0.931 . S
H822 C837 0.930 . S
C823 H811 0.930 . S
C823 C824 1.399 . S
C823 C828 1.399 . S
C824 C823 1.399 . S
C824 C825 1.376 . S
C825 H812 0.930 . S
C825 C824 1.376 . S
C825 C826 1.388 . S
C826 H813 0.930 . S
C826 C825 1.388 . S
C826 C827 1.390 . S
C827 C826 1.390 . S
C827 C828 1.394 . S
C827 C833 1.465 . S
C828 C823 1.399 . S
C828 C827 1.394 . S
C828 C829 1.516 . S
C829 C828 1.516 . S
C829 C830 1.502 . S
C829 C831 1.561 . S
C829 C832 1.526 . S
C830 H814 0.959 . S
C830 H815 0.959 . S
C830 H816 0.961 . S
C830 C829 1.502 . S
C831 H817 0.960 . S
C831 H818 0.961 . S
C831 H819 0.959 . S
C831 C829 1.561 . S
C832 C829 1.526 . S
C832 C833 1.396 . S
C832 C837 1.390 . S
C833 C827 1.465 . S
C833 C832 1.396 . S
C833 C834 1.399 . S
C834 H820 0.929 . S
C834 C833 1.399 . S
C834 C835 1.385 . S
C835 H821 0.931 . S
C835 C834 1.385 . S
C835 C836 1.389 . S
C836 C835 1.389 . S
C836 C837 1.387 . S
C837 H822 0.930 . S
C837 C832 1.390 . S
C837 C836 1.387 . S
H838 C850 0.930 . S
H839 C852 0.930 . S
H840 C853 0.930 . S
H841 C857 0.959 . S
H842 C857 0.959 . S
H843 C857 0.961 . S
H844 C858 0.960 . S
H845 C858 0.961 . S
H846 C858 0.959 . S
H847 C861 0.929 . S
H848 C862 0.931 . S
H849 C864 0.930 . S
C850 H838 0.930 . S
C850 C851 1.399 . S
C850 C855 1.399 . S
C851 C850 1.399 . S
C851 C852 1.376 . S
C852 H839 0.930 . S
C852 C851 1.376 . S
C852 C853 1.388 . S
C853 H840 0.930 . S
C853 C852 1.388 . S
C853 C854 1.390 . S
C854 C853 1.390 . S
C854 C855 1.394 . S
C854 C860 1.465 . S
C855 C850 1.399 . S
C855 C854 1.394 . S
C855 C856 1.516 . S
C856 C855 1.516 . S
C856 C857 1.502 . S
C856 C858 1.561 . S
C856 C859 1.526 . S
C857 H841 0.959 . S
C857 H842 0.959 . S
C857 H843 0.961 . S
C857 C856 1.502 . S
C858 H844 0.960 . S
C858 H845 0.961 . S
C858 H846 0.959 . S
C858 C856 1.561 . S
C859 C856 1.526 . S
C859 C860 1.396 . S
C859 C864 1.390 . S
C860 C854 1.465 . S
C860 C859 1.396 . S
C860 C861 1.399 . S
C861 H847 0.929 . S
C861 C860 1.399 . S
C861 C862 1.385 . S
C862 H848 0.931 . S
C862 C861 1.385 . S
C862 C863 1.389 . S
C863 C862 1.389 . S
C863 C864 1.387 . S
C864 H849 0.930 . S
C864 C859 1.390 . S
C864 C863 1.387 . S
H865 C877 0.930 . S
H866 C879 0.930 . S
H867 C880 0.930 . S
H868 C884 0.959 . S
H869 C884 0.959 . S
H870 C884 0.961 . S
H871 C885 0.960 . S
H872 C885 0.961 . S
H873 C885 0.959 . S
H874 C888 0.929 . S
H875 C889 0.931 . S
H876 C891 0.930 . S
C877 H865 0.930 . S
C877 C878 1.399 . S
C877 C882 1.399 . S
C878 C877 1.399 . S
C878 C879 1.376 . S
C879 H866 0.930 . S
C879 C878 1.376 . S
C879 C880 1.388 . S
C880 H867 0.930 . S
C880 C879 1.388 . S
C880 C881 1.390 . S
C881 C880 1.390 . S
C881 C882 1.394 . S
C881 C887 1.465 . S
C882 C877 1.399 . S
C882 C881 1.394 . S
C882 C883 1.516 . S
C883 C882 1.516 . S
C883 C884 1.502 . S
C883 C885 1.561 . S
C883 C886 1.526 . S
C884 H868 0.959 . S
C884 H869 0.959 . S
C884 H870 0.961 . S
C884 C883 1.502 . S
C885 H871 0.960 . S
C885 H872 0.961 . S
C885 H873 0.959 . S
C885 C883 1.561 . S
C886 C883 1.526 . S
C886 C887 1.396 . S
C886 C891 1.390 . S
C887 C881 1.465 . S
C887 C886 1.396 . S
C887 C888 1.399 . S
C888 H874 0.929 . S
C888 C887 1.399 . S
C888 C889 1.385 . S
C889 H875 0.931 . S
C889 C888 1.385 . S
C889 C890 1.389 . S
C890 C889 1.389 . S
C890 C891 1.387 . S
C891 H876 0.930 . S
C891 C886 1.390 . S
C891 C890 1.387 . S
H892 C904 0.930 . S
H893 C906 0.930 . S
H894 C907 0.930 . S
H895 C911 0.959 . S
H896 C911 0.959 . S
H897 C911 0.961 . S
H898 C912 0.960 . S
H899 C912 0.961 . S
H900 C912 0.959 . S
H901 C915 0.929 . S
H902 C916 0.931 . S
H903 C918 0.930 . S
C904 H892 0.930 . S
C904 C905 1.399 . S
C904 C909 1.399 . S
C905 C904 1.399 . S
C905 C906 1.376 . S
C906 H893 0.930 . S
C906 C905 1.376 . S
C906 C907 1.388 . S
C907 H894 0.930 . S
C907 C906 1.388 . S
C907 C908 1.390 . S
C908 C907 1.390 . S
C908 C909 1.394 . S
C908 C914 1.465 . S
C909 C904 1.399 . S
C909 C908 1.394 . S
C909 C910 1.516 . S
C910 C909 1.516 . S
C910 C911 1.502 . S
C910 C912 1.561 . S
C910 C913 1.526 . S
C911 H895 0.959 . S
C911 H896 0.959 . S
C911 H897 0.961 . S
C911 C910 1.502 . S
C912 H898 0.960 . S
C912 H899 0.961 . S
C912 H900 0.959 . S
C912 C910 1.561 . S
C913 C910 1.526 . S
C913 C914 1.396 . S
C913 C918 1.390 . S
C914 C908 1.465 . S
C914 C913 1.396 . S
C914 C915 1.399 . S
C915 H901 0.929 . S
C915 C914 1.399 . S
C915 C916 1.385 . S
C916 H902 0.931 . S
C916 C915 1.385 . S
C916 C917 1.389 . S
C917 C916 1.389 . S
C917 C918 1.387 . S
C918 H903 0.930 . S
C918 C913 1.390 . S
C918 C917 1.387 . S
H919 C931 0.930 . S
H920 C933 0.930 . S
H921 C934 0.930 . S
H922 C938 0.959 . S
H923 C938 0.959 . S
H924 C938 0.961 . S
H925 C939 0.960 . S
H926 C939 0.961 . S
H927 C939 0.959 . S
H928 C942 0.929 . S
H929 C943 0.931 . S
H930 C945 0.930 . S
C931 H919 0.930 . S
C931 C932 1.399 . S
C931 C936 1.399 . S
C932 C931 1.399 . S
C932 C933 1.376 . S
C933 H920 0.930 . S
C933 C932 1.376 . S
C933 C934 1.388 . S
C934 H921 0.930 . S
C934 C933 1.388 . S
C934 C935 1.390 . S
C935 C934 1.390 . S
C935 C936 1.394 . S
C935 C941 1.465 . S
C936 C931 1.399 . S
C936 C935 1.394 . S
C936 C937 1.516 . S
C937 C936 1.516 . S
C937 C938 1.502 . S
C937 C939 1.561 . S
C937 C940 1.526 . S
C938 H922 0.959 . S
C938 H923 0.959 . S
C938 H924 0.961 . S
C938 C937 1.502 . S
C939 H925 0.960 . S
C939 H926 0.961 . S
C939 H927 0.959 . S
C939 C937 1.561 . S
C940 C937 1.526 . S
C940 C941 1.396 . S
C940 C945 1.390 . S
C941 C935 1.465 . S
C941 C940 1.396 . S
C941 C942 1.399 . S
C942 H928 0.929 . S
C942 C941 1.399 . S
C942 C943 1.385 . S
C943 H929 0.931 . S
C943 C942 1.385 . S
C943 C944 1.389 . S
C944 C943 1.389 . S
C944 C945 1.387 . S
C945 H930 0.930 . S
C945 C940 1.390 . S
C945 C944 1.387 . S
H946 C958 0.930 . S
H947 C960 0.930 . S
H948 C961 0.930 . S
H949 C965 0.959 . S
H950 C965 0.959 . S
H951 C965 0.961 . S
H952 C966 0.960 . S
H953 C966 0.961 . S
H954 C966 0.959 . S
H955 C969 0.929 . S
H956 C970 0.931 . S
H957 C972 0.930 . S
C958 H946 0.930 . S
C958 C959 1.399 . S
C958 C963 1.399 . S
C959 C958 1.399 . S
C959 C960 1.376 . S
C960 H947 0.930 . S
C960 C959 1.376 . S
C960 C961 1.388 . S
C961 H948 0.930 . S
C961 C960 1.388 . S
C961 C962 1.390 . S
C962 C961 1.390 . S
C962 C963 1.394 . S
C962 C968 1.465 . S
C963 C958 1.399 . S
C963 C962 1.394 . S
C963 C964 1.516 . S
C964 C963 1.516 . S
C964 C965 1.502 . S
C964 C966 1.561 . S
C964 C967 1.526 . S
C965 H949 0.959 . S
C965 H950 0.959 . S
C965 H951 0.961 . S
C965 C964 1.502 . S
C966 H952 0.960 . S
C966 H953 0.961 . S
C966 H954 0.959 . S
C966 C964 1.561 . S
C967 C964 1.526 . S
C967 C968 1.396 . S
C967 C972 1.390 . S
C968 C962 1.465 . S
C968 C967 1.396 . S
C968 C969 1.399 . S
C969 H955 0.929 . S
C969 C968 1.399 . S
C969 C970 1.385 . S
C970 H956 0.931 . S
C970 C969 1.385 . S
C970 C971 1.389 . S
C971 C970 1.389 . S
C971 C972 1.387 . S
C972 H957 0.930 . S
C972 C967 1.390 . S
C972 C971 1.387 . S
H973 C985 0.930 . S
H974 C987 0.930 . S
H975 C988 0.930 . S
H976 C992 0.959 . S
H977 C992 0.959 . S
H978 C992 0.961 . S
H979 C993 0.960 . S
H980 C993 0.961 . S
H981 C993 0.959 . S
H982 C996 0.929 . S
H983 C997 0.931 . S
H984 C999 0.930 . S
C985 H973 0.930 . S
C985 C986 1.399 . S
C985 C990 1.399 . S
C986 C985 1.399 . S
C986 C987 1.376 . S
C987 H974 0.930 . S
C987 C986 1.376 . S
C987 C988 1.388 . S
C988 H975 0.930 . S
C988 C987 1.388 . S
C988 C989 1.390 . S
C989 C988 1.390 . S
C989 C990 1.394 . S
C989 C995 1.465 . S
C990 C985 1.399 . S
C990 C989 1.394 . S
C990 C991 1.516 . S
C991 C990 1.516 . S
C991 C992 1.502 . S
C991 C993 1.561 . S
C991 C994 1.526 . S
C992 H976 0.959 . S
C992 H977 0.959 . S
C992 H978 0.961 . S
C992 C991 1.502 . S
C993 H979 0.960 . S
C993 H980 0.961 . S
C993 H981 0.959 . S
C993 C991 1.561 . S
C994 C991 1.526 . S
C994 C995 1.396 . S
C994 C999 1.390 . S
C995 C989 1.465 . S
C995 C994 1.396 . S
C995 C996 1.399 . S
C996 H982 0.929 . S
C996 C995 1.399 . S
C996 C997 1.385 . S
C997 H983 0.931 . S
C997 C996 1.385 . S
C997 C998 1.389 . S
C998 C997 1.389 . S
C998 C999 1.387 . S
C999 H984 0.930 . S
C999 C994 1.390 . S
C999 C998 1.387 . S
H1000 C1012 0.930 . S
H1001 C1014 0.930 . S
H1002 C1015 0.930 . S
H1003 C1019 0.959 . S
H1004 C1019 0.959 . S
H1005 C1019 0.961 . S
H1006 C1020 0.960 . S
H1007 C1020 0.961 . S
H1008 C1020 0.959 . S
H1009 C1023 0.929 . S
H1010 C1024 0.931 . S
H1011 C1026 0.930 . S
C1012 H1000 0.930 . S
C1012 C1013 1.399 . S
C1012 C1017 1.399 . S
C1013 C1012 1.399 . S
C1013 C1014 1.376 . S
C1014 H1001 0.930 . S
C1014 C1013 1.376 . S
C1014 C1015 1.388 . S
C1015 H1002 0.930 . S
C1015 C1014 1.388 . S
C1015 C1016 1.390 . S
C1016 C1015 1.390 . S
C1016 C1017 1.394 . S
C1016 C1022 1.465 . S
C1017 C1012 1.399 . S
C1017 C1016 1.394 . S
C1017 C1018 1.516 . S
C1018 C1017 1.516 . S
C1018 C1019 1.502 . S
C1018 C1020 1.561 . S
C1018 C1021 1.526 . S
C1019 H1003 0.959 . S
C1019 H1004 0.959 . S
C1019 H1005 0.961 . S
C1019 C1018 1.502 . S
C1020 H1006 0.960 . S
C1020 H1007 0.961 . S
C1020 H1008 0.959 . S
C1020 C1018 1.561 . S
C1021 C1018 1.526 . S
C1021 C1022 1.396 . S
C1021 C1026 1.390 . S
C1022 C1016 1.465 . S
C1022 C1021 1.396 . S
C1022 C1023 1.399 . S
C1023 H1009 0.929 . S
C1023 C1022 1.399 . S
C1023 C1024 1.385 . S
C1024 H1010 0.931 . S
C1024 C1023 1.385 . S
C1024 C1025 1.389 . S
C1025 C1024 1.389 . S
C1025 C1026 1.387 . S
C1026 H1011 0.930 . S
C1026 C1021 1.390 . S
C1026 C1025 1.387 . S
H1027 C1039 0.930 . S
H1028 C1041 0.930 . S
H1029 C1042 0.930 . S
H1030 C1046 0.959 . S
H1031 C1046 0.959 . S
H1032 C1046 0.961 . S
H1033 C1047 0.960 . S
H1034 C1047 0.961 . S
H1035 C1047 0.959 . S
H1036 C1050 0.929 . S
H1037 C1051 0.931 . S
H1038 C1053 0.930 . S
C1039 H1027 0.930 . S
C1039 C1040 1.399 . S
C1039 C1044 1.399 . S
C1040 C1039 1.399 . S
C1040 C1041 1.376 . S
C1041 H1028 0.930 . S
C1041 C1040 1.376 . S
C1041 C1042 1.388 . S
C1042 H1029 0.930 . S
C1042 C1041 1.388 . S
C1042 C1043 1.390 . S
C1043 C1042 1.390 . S
C1043 C1044 1.394 . S
C1043 C1049 1.465 . S
C1044 C1039 1.399 . S
C1044 C1043 1.394 . S
C1044 C1045 1.516 . S
C1045 C1044 1.516 . S
C1045 C1046 1.502 . S
C1045 C1047 1.561 . S
C1045 C1048 1.526 . S
C1046 H1030 0.959 . S
C1046 H1031 0.959 . S
C1046 H1032 0.961 . S
C1046 C1045 1.502 . S
C1047 H1033 0.960 . S
C1047 H1034 0.961 . S
C1047 H1035 0.959 . S
C1047 C1045 1.561 . S
C1048 C1045 1.526 . S
C1048 C1049 1.396 . S
C1048 C1053 1.390 . S
C1049 C1043 1.465 . S
C1049 C1048 1.396 . S
C1049 C1050 1.399 . S
C1050 H1036 0.929 . S
C1050 C1049 1.399 . S
C1050 C1051 1.385 . S
C1051 H1037 0.931 . S
C1051 C1050 1.385 . S
C1051 C1052 1.389 . S
C1052 C1051 1.389 . S
C1052 C1053 1.387 . S
C1053 H1038 0.930 . S
C1053 C1048 1.390 . S
C1053 C1052 1.387 . S
H1054 C1066 0.930 . S
H1055 C1068 0.930 . S
H1056 C1069 0.930 . S
H1057 C1073 0.959 . S
H1058 C1073 0.959 . S
H1059 C1073 0.961 . S
H1060 C1074 0.960 . S
H1061 C1074 0.961 . S
H1062 C1074 0.959 . S
H1063 C1077 0.929 . S
H1064 C1078 0.931 . S
H1065 C1080 0.930 . S
C1066 H1054 0.930 . S
C1066 C1067 1.399 . S
C1066 C1071 1.399 . S
C1067 C1066 1.399 . S
C1067 C1068 1.376 . S
C1068 H1055 0.930 . S
C1068 C1067 1.376 . S
C1068 C1069 1.388 . S
C1069 H1056 0.930 . S
C1069 C1068 1.388 . S
C1069 C1070 1.390 . S
C1070 C1069 1.390 . S
C1070 C1071 1.394 . S
C1070 C1076 1.465 . S
C1071 C1066 1.399 . S
C1071 C1070 1.394 . S
C1071 C1072 1.516 . S
C1072 C1071 1.516 . S
C1072 C1073 1.502 . S
C1072 C1074 1.561 . S
C1072 C1075 1.526 . S
C1073 H1057 0.959 . S
C1073 H1058 0.959 . S
C1073 H1059 0.961 . S
C1073 C1072 1.502 . S
C1074 H1060 0.960 . S
C1074 H1061 0.961 . S
C1074 H1062 0.959 . S
C1074 C1072 1.561 . S
C1075 C1072 1.526 . S
C1075 C1076 1.396 . S
C1075 C1080 1.390 . S
C1076 C1070 1.465 . S
C1076 C1075 1.396 . S
C1076 C1077 1.399 . S
C1077 H1063 0.929 . S
C1077 C1076 1.399 . S
C1077 C1078 1.385 . S
C1078 H1064 0.931 . S
C1078 C1077 1.385 . S
C1078 C1079 1.389 . S
C1079 C1078 1.389 . S
C1079 C1080 1.387 . S
C1080 H1065 0.930 . S
C1080 C1075 1.390 . S
C1080 C1079 1.387 . S
H1081 C1093 0.930 . S
H1082 C1095 0.930 . S
H1083 C1096 0.930 . S
H1084 C1100 0.959 . S
H1085 C1100 0.959 . S
H1086 C1100 0.961 . S
H1087 C1101 0.960 . S
H1088 C1101 0.961 . S
H1089 C1101 0.959 . S
H1090 C1104 0.929 . S
H1091 C1105 0.931 . S
H1092 C1107 0.930 . S
C1093 H1081 0.930 . S
C1093 C1094 1.399 . S
C1093 C1098 1.399 . S
C1094 C1093 1.399 . S
C1094 C1095 1.376 . S
C1095 H1082 0.930 . S
C1095 C1094 1.376 . S
C1095 C1096 1.388 . S
C1096 H1083 0.930 . S
C1096 C1095 1.388 . S
C1096 C1097 1.390 . S
C1097 C1096 1.390 . S
C1097 C1098 1.394 . S
C1097 C1103 1.465 . S
C1098 C1093 1.399 . S
C1098 C1097 1.394 . S
C1098 C1099 1.516 . S
C1099 C1098 1.516 . S
C1099 C1100 1.502 . S
C1099 C1101 1.561 . S
C1099 C1102 1.526 . S
C1100 H1084 0.959 . S
C1100 H1085 0.959 . S
C1100 H1086 0.961 . S
C1100 C1099 1.502 . S
C1101 H1087 0.960 . S
C1101 H1088 0.961 . S
C1101 H1089 0.959 . S
C1101 C1099 1.561 . S
C1102 C1099 1.526 . S
C1102 C1103 1.396 . S
C1102 C1107 1.390 . S
C1103 C1097 1.465 . S
C1103 C1102 1.396 . S
C1103 C1104 1.399 . S
C1104 H1090 0.929 . S
C1104 C1103 1.399 . S
C1104 C1105 1.385 . S
C1105 H1091 0.931 . S
C1105 C1104 1.385 . S
C1105 C1106 1.389 . S
C1106 C1105 1.389 . S
C1106 C1107 1.387 . S
C1107 H1092 0.930 . S
C1107 C1102 1.390 . S
C1107 C1106 1.387 . S
H1108 C1120 0.930 . S
H1109 C1122 0.930 . S
H1110 C1123 0.930 . S
H1111 C1127 0.959 . S
H1112 C1127 0.959 . S
H1113 C1127 0.961 . S
H1114 C1128 0.960 . S
H1115 C1128 0.961 . S
H1116 C1128 0.959 . S
H1117 C1131 0.929 . S
H1118 C1132 0.931 . S
H1119 C1134 0.930 . S
C1120 H1108 0.930 . S
C1120 C1121 1.399 . S
C1120 C1125 1.399 . S
C1121 C1120 1.399 . S
C1121 C1122 1.376 . S
C1122 H1109 0.930 . S
C1122 C1121 1.376 . S
C1122 C1123 1.388 . S
C1123 H1110 0.930 . S
C1123 C1122 1.388 . S
C1123 C1124 1.390 . S
C1124 C1123 1.390 . S
C1124 C1125 1.394 . S
C1124 C1130 1.465 . S
C1125 C1120 1.399 . S
C1125 C1124 1.394 . S
C1125 C1126 1.516 . S
C1126 C1125 1.516 . S
C1126 C1127 1.502 . S
C1126 C1128 1.561 . S
C1126 C1129 1.526 . S
C1127 H1111 0.959 . S
C1127 H1112 0.959 . S
C1127 H1113 0.961 . S
C1127 C1126 1.502 . S
C1128 H1114 0.960 . S
C1128 H1115 0.961 . S
C1128 H1116 0.959 . S
C1128 C1126 1.561 . S
C1129 C1126 1.526 . S
C1129 C1130 1.396 . S
C1129 C1134 1.390 . S
C1130 C1124 1.465 . S
C1130 C1129 1.396 . S
C1130 C1131 1.399 . S
C1131 H1117 0.929 . S
C1131 C1130 1.399 . S
C1131 C1132 1.385 . S
C1132 H1118 0.931 . S
C1132 C1131 1.385 . S
C1132 C1133 1.389 . S
C1133 C1132 1.389 . S
C1133 C1134 1.387 . S
C1134 H1119 0.930 . S
C1134 C1129 1.390 . S
C1134 C1133 1.387 . S
H1135 C1147 0.930 . S
H1136 C1149 0.930 . S
H1137 C1150 0.930 . S
H1138 C1154 0.959 . S
H1139 C1154 0.959 . S
H1140 C1154 0.961 . S
H1141 C1155 0.960 . S
H1142 C1155 0.961 . S
H1143 C1155 0.959 . S
H1144 C1158 0.929 . S
H1145 C1159 0.931 . S
H1146 C1161 0.930 . S
C1147 H1135 0.930 . S
C1147 C1148 1.399 . S
C1147 C1152 1.399 . S
C1148 C1147 1.399 . S
C1148 C1149 1.376 . S
C1149 H1136 0.930 . S
C1149 C1148 1.376 . S
C1149 C1150 1.388 . S
C1150 H1137 0.930 . S
C1150 C1149 1.388 . S
C1150 C1151 1.390 . S
C1151 C1150 1.390 . S
C1151 C1152 1.394 . S
C1151 C1157 1.465 . S
C1152 C1147 1.399 . S
C1152 C1151 1.394 . S
C1152 C1153 1.516 . S
C1153 C1152 1.516 . S
C1153 C1154 1.502 . S
C1153 C1155 1.561 . S
C1153 C1156 1.526 . S
C1154 H1138 0.959 . S
C1154 H1139 0.959 . S
C1154 H1140 0.961 . S
C1154 C1153 1.502 . S
C1155 H1141 0.960 . S
C1155 H1142 0.961 . S
C1155 H1143 0.959 . S
C1155 C1153 1.561 . S
C1156 C1153 1.526 . S
C1156 C1157 1.396 . S
C1156 C1161 1.390 . S
C1157 C1151 1.465 . S
C1157 C1156 1.396 . S
C1157 C1158 1.399 . S
C1158 H1144 0.929 . S
C1158 C1157 1.399 . S
C1158 C1159 1.385 . S
C1159 H1145 0.931 . S
C1159 C1158 1.385 . S
C1159 C1160 1.389 . S
C1160 C1159 1.389 . S
C1160 C1161 1.387 . S
C1161 H1146 0.930 . S
C1161 C1156 1.390 . S
C1161 C1160 1.387 . S
H1162 C1174 0.930 . S
H1163 C1176 0.930 . S
H1164 C1177 0.930 . S
H1165 C1181 0.959 . S
H1166 C1181 0.959 . S
H1167 C1181 0.961 . S
H1168 C1182 0.960 . S
H1169 C1182 0.961 . S
H1170 C1182 0.959 . S
H1171 C1185 0.929 . S
H1172 C1186 0.931 . S
H1173 C1188 0.930 . S
C1174 H1162 0.930 . S
C1174 C1175 1.399 . S
C1174 C1179 1.399 . S
C1175 C1174 1.399 . S
C1175 C1176 1.376 . S
C1176 H1163 0.930 . S
C1176 C1175 1.376 . S
C1176 C1177 1.388 . S
C1177 H1164 0.930 . S
C1177 C1176 1.388 . S
C1177 C1178 1.390 . S
C1178 C1177 1.390 . S
C1178 C1179 1.394 . S
C1178 C1184 1.465 . S
C1179 C1174 1.399 . S
C1179 C1178 1.394 . S
C1179 C1180 1.516 . S
C1180 C1179 1.516 . S
C1180 C1181 1.502 . S
C1180 C1182 1.561 . S
C1180 C1183 1.526 . S
C1181 H1165 0.959 . S
C1181 H1166 0.959 . S
C1181 H1167 0.961 . S
C1181 C1180 1.502 . S
C1182 H1168 0.960 . S
C1182 H1169 0.961 . S
C1182 H1170 0.959 . S
C1182 C1180 1.561 . S
C1183 C1180 1.526 . S
C1183 C1184 1.396 . S
C1183 C1188 1.390 . S
C1184 C1178 1.465 . S
C1184 C1183 1.396 . S
C1184 C1185 1.399 . S
C1185 H1171 0.929 . S
C1185 C1184 1.399 . S
C1185 C1186 1.385 . S
C1186 H1172 0.931 . S
C1186 C1185 1.385 . S
C1186 C1187 1.389 . S
C1187 C1186 1.389 . S
C1187 C1188 1.387 . S
C1188 H1173 0.930 . S
C1188 C1183 1.390 . S
C1188 C1187 1.387 . S
H1189 C1201 0.930 . S
H1190 C1203 0.930 . S
H1191 C1204 0.930 . S
H1192 C1208 0.959 . S
H1193 C1208 0.959 . S
H1194 C1208 0.961 . S
H1195 C1209 0.960 . S
H1196 C1209 0.961 . S
H1197 C1209 0.959 . S
H1198 C1212 0.929 . S
H1199 C1213 0.931 . S
H1200 C1215 0.930 . S
C1201 H1189 0.930 . S
C1201 C1202 1.399 . S
C1201 C1206 1.399 . S
C1202 C1201 1.399 . S
C1202 C1203 1.376 . S
C1203 H1190 0.930 . S
C1203 C1202 1.376 . S
C1203 C1204 1.388 . S
C1204 H1191 0.930 . S
C1204 C1203 1.388 . S
C1204 C1205 1.390 . S
C1205 C1204 1.390 . S
C1205 C1206 1.394 . S
C1205 C1211 1.465 . S
C1206 C1201 1.399 . S
C1206 C1205 1.394 . S
C1206 C1207 1.516 . S
C1207 C1206 1.516 . S
C1207 C1208 1.502 . S
C1207 C1209 1.561 . S
C1207 C1210 1.526 . S
C1208 H1192 0.959 . S
C1208 H1193 0.959 . S
C1208 H1194 0.961 . S
C1208 C1207 1.502 . S
C1209 H1195 0.960 . S
C1209 H1196 0.961 . S
C1209 H1197 0.959 . S
C1209 C1207 1.561 . S
C1210 C1207 1.526 . S
C1210 C1211 1.396 . S
C1210 C1215 1.390 . S
C1211 C1205 1.465 . S
C1211 C1210 1.396 . S
C1211 C1212 1.399 . S
C1212 H1198 0.929 . S
C1212 C1211 1.399 . S
C1212 C1213 1.385 . S
C1213 H1199 0.931 . S
C1213 C1212 1.385 . S
C1213 C1214 1.389 . S
C1214 C1213 1.389 . S
C1214 C1215 1.387 . S
C1215 H1200 0.930 . S
C1215 C1210 1.390 . S
C1215 C1214 1.387 . S
H1216 C1228 0.930 . S
H1217 C1230 0.930 . S
H1218 C1231 0.930 . S
H1219 C1235 0.959 . S
H1220 C1235 0.959 . S
H1221 C1235 0.961 . S
H1222 C1236 0.960 . S
H1223 C1236 0.961 . S
H1224 C1236 0.959 . S
H1225 C1239 0.929 . S
H1226 C1240 0.931 . S
H1227 C1242 0.930 . S
C1228 H1216 0.930 . S
C1228 C1229 1.399 . S
C1228 C1233 1.399 . S
C1229 C1228 1.399 . S
C1229 C1230 1.376 . S
C1230 H1217 0.930 . S
C1230 C1229 1.376 . S
C1230 C1231 1.388 . S
C1231 H1218 0.930 . S
C1231 C1230 1.388 . S
C1231 C1232 1.390 . S
C1232 C1231 1.390 . S
C1232 C1233 1.394 . S
C1232 C1238 1.465 . S
C1233 C1228 1.399 . S
C1233 C1232 1.394 . S
C1233 C1234 1.516 . S
C1234 C1233 1.516 . S
C1234 C1235 1.502 . S
C1234 C1236 1.561 . S
C1234 C1237 1.526 . S
C1235 H1219 0.959 . S
C1235 H1220 0.959 . S
C1235 H1221 0.961 . S
C1235 C1234 1.502 . S
C1236 H1222 0.960 . S
C1236 H1223 0.961 . S
C1236 H1224 0.959 . S
C1236 C1234 1.561 . S
C1237 C1234 1.526 . S
C1237 C1238 1.396 . S
C1237 C1242 1.390 . S
C1238 C1232 1.465 . S
C1238 C1237 1.396 . S
C1238 C1239 1.399 . S
C1239 H1225 0.929 . S
C1239 C1238 1.399 . S
C1239 C1240 1.385 . S
C1240 H1226 0.931 . S
C1240 C1239 1.385 . S
C1240 C1241 1.389 . S
C1241 C1240 1.389 . S
C1241 C1242 1.387 . S
C1242 H1227 0.930 . S
C1242 C1237 1.390 . S
C1242 C1241 1.387 . S
H1243 C1255 0.930 . S
H1244 C1257 0.930 . S
H1245 C1258 0.930 . S
H1246 C1262 0.959 . S
H1247 C1262 0.959 . S
H1248 C1262 0.961 . S
H1249 C1263 0.960 . S
H1250 C1263 0.961 . S
H1251 C1263 0.959 . S
H1252 C1266 0.929 . S
H1253 C1267 0.931 . S
H1254 C1269 0.930 . S
C1255 H1243 0.930 . S
C1255 C1256 1.399 . S
C1255 C1260 1.399 . S
C1256 C1255 1.399 . S
C1256 C1257 1.376 . S
C1257 H1244 0.930 . S
C1257 C1256 1.376 . S
C1257 C1258 1.388 . S
C1258 H1245 0.930 . S
C1258 C1257 1.388 . S
C1258 C1259 1.390 . S
C1259 C1258 1.390 . S
C1259 C1260 1.394 . S
C1259 C1265 1.465 . S
C1260 C1255 1.399 . S
C1260 C1259 1.394 . S
C1260 C1261 1.516 . S
C1261 C1260 1.516 . S
C1261 C1262 1.502 . S
C1261 C1263 1.561 . S
C1261 C1264 1.526 . S
C1262 H1246 0.959 . S
C1262 H1247 0.959 . S
C1262 H1248 0.961 . S
C1262 C1261 1.502 . S
C1263 H1249 0.960 . S
C1263 H1250 0.961 . S
C1263 H1251 0.959 . S
C1263 C1261 1.561 . S
C1264 C1261 1.526 . S
C1264 C1265 1.396 . S
C1264 C1269 1.390 . S
C1265 C1259 1.465 . S
C1265 C1264 1.396 . S
C1265 C1266 1.399 . S
C1266 H1252 0.929 . S
C1266 C1265 1.399 . S
C1266 C1267 1.385 . S
C1267 H1253 0.931 . S
C1267 C1266 1.385 . S
C1267 C1268 1.389 . S
C1268 C1267 1.389 . S
C1268 C1269 1.387 . S
C1269 H1254 0.930 . S
C1269 C1264 1.390 . S
C1269 C1268 1.387 . S
H1270 C1282 0.930 . S
H1271 C1284 0.930 . S
H1272 C1285 0.930 . S
H1273 C1289 0.959 . S
H1274 C1289 0.959 . S
H1275 C1289 0.961 . S
H1276 C1290 0.960 . S
H1277 C1290 0.961 . S
H1278 C1290 0.959 . S
H1279 C1293 0.929 . S
H1280 C1294 0.931 . S
H1281 C1296 0.930 . S
C1282 H1270 0.930 . S
C1282 C1283 1.399 . S
C1282 C1287 1.399 . S
C1283 C1282 1.399 . S
C1283 C1284 1.376 . S
C1284 H1271 0.930 . S
C1284 C1283 1.376 . S
C1284 C1285 1.388 . S
C1285 H1272 0.930 . S
C1285 C1284 1.388 . S
C1285 C1286 1.390 . S
C1286 C1285 1.390 . S
C1286 C1287 1.394 . S
C1286 C1292 1.465 . S
C1287 C1282 1.399 . S
C1287 C1286 1.394 . S
C1287 C1288 1.516 . S
C1288 C1287 1.516 . S
C1288 C1289 1.502 . S
C1288 C1290 1.561 . S
C1288 C1291 1.526 . S
C1289 H1273 0.959 . S
C1289 H1274 0.959 . S
C1289 H1275 0.961 . S
C1289 C1288 1.502 . S
C1290 H1276 0.960 . S
C1290 H1277 0.961 . S
C1290 H1278 0.959 . S
C1290 C1288 1.561 . S
C1291 C1288 1.526 . S
C1291 C1292 1.396 . S
C1291 C1296 1.390 . S
C1292 C1286 1.465 . S
C1292 C1291 1.396 . S
C1292 C1293 1.399 . S
C1293 H1279 0.929 . S
C1293 C1292 1.399 . S
C1293 C1294 1.385 . S
C1294 H1280 0.931 . S
C1294 C1293 1.385 . S
C1294 C1295 1.389 . S
C1295 C1294 1.389 . S
C1295 C1296 1.387 . S
C1296 H1281 0.930 . S
C1296 C1291 1.390 . S
C1296 C1295 1.387 . S
H1297 C1309 0.930 . S
H1298 C1311 0.930 . S
H1299 C1312 0.930 . S
H1300 C1316 0.959 . S
H1301 C1316 0.959 . S
H1302 C1316 0.961 . S
H1303 C1317 0.960 . S
H1304 C1317 0.961 . S
H1305 C1317 0.959 . S
H1306 C1320 0.929 . S
H1307 C1321 0.931 . S
H1308 C1323 0.930 . S
C1309 H1297 0.930 . S
C1309 C1310 1.399 . S
C1309 C1314 1.399 . S
C1310 C1309 1.399 . S
C1310 C1311 1.376 . S
C1311 H1298 0.930 . S
C1311 C1310 1.376 . S
C1311 C1312 1.388 . S
C1312 H1299 0.930 . S
C1312 C1311 1.388 . S
C1312 C1313 1.390 . S
C1313 C1312 1.390 . S
C1313 C1314 1.394 . S
C1313 C1319 1.465 . S
C1314 C1309 1.399 . S
C1314 C1313 1.394 . S
C1314 C1315 1.516 . S
C1315 C1314 1.516 . S
C1315 C1316 1.502 . S
C1315 C1317 1.561 . S
C1315 C1318 1.526 . S
C1316 H1300 0.959 . S
C1316 H1301 0.959 . S
C1316 H1302 0.961 . S
C1316 C1315 1.502 . S
C1317 H1303 0.960 . S
C1317 H1304 0.961 . S
C1317 H1305 0.959 . S
C1317 C1315 1.561 . S
C1318 C1315 1.526 . S
C1318 C1319 1.396 . S
C1318 C1323 1.390 . S
C1319 C1313 1.465 . S
C1319 C1318 1.396 . S
C1319 C1320 1.399 . S
C1320 H1306 0.929 . S
C1320 C1319 1.399 . S
C1320 C1321 1.385 . S
C1321 H1307 0.931 . S
C1321 C1320 1.385 . S
C1321 C1322 1.389 . S
C1322 C1321 1.389 . S
C1322 C1323 1.387 . S
C1323 H1308 0.930 . S
C1323 C1318 1.390 . S
C1323 C1322 1.387 . S
H1324 C1336 0.930 . S
H1325 C1338 0.930 . S
H1326 C1339 0.930 . S
H1327 C1343 0.959 . S
H1328 C1343 0.959 . S
H1329 C1343 0.961 . S
H1330 C1344 0.960 . S
H1331 C1344 0.961 . S
H1332 C1344 0.959 . S
H1333 C1347 0.929 . S
H1334 C1348 0.931 . S
H1335 C1350 0.930 . S
C1336 H1324 0.930 . S
C1336 C1337 1.399 . S
C1336 C1341 1.399 . S
C1337 C1336 1.399 . S
C1337 C1338 1.376 . S
C1338 H1325 0.930 . S
C1338 C1337 1.376 . S
C1338 C1339 1.388 . S
C1339 H1326 0.930 . S
C1339 C1338 1.388 . S
C1339 C1340 1.390 . S
C1340 C1339 1.390 . S
C1340 C1341 1.394 . S
C1340 C1346 1.465 . S
C1341 C1336 1.399 . S
C1341 C1340 1.394 . S
C1341 C1342 1.516 . S
C1342 C1341 1.516 . S
C1342 C1343 1.502 . S
C1342 C1344 1.561 . S
C1342 C1345 1.526 . S
C1343 H1327 0.959 . S
C1343 H1328 0.959 . S
C1343 H1329 0.961 . S
C1343 C1342 1.502 . S
C1344 H1330 0.960 . S
C1344 H1331 0.961 . S
C1344 H1332 0.959 . S
C1344 C1342 1.561 . S
C1345 C1342 1.526 . S
C1345 C1346 1.396 . S
C1345 C1350 1.390 . S
C1346 C1340 1.465 . S
C1346 C1345 1.396 . S
C1346 C1347 1.399 . S
C1347 H1333 0.929 . S
C1347 C1346 1.399 . S
C1347 C1348 1.385 . S
C1348 H1334 0.931 . S
C1348 C1347 1.385 . S
C1348 C1349 1.389 . S
C1349 C1348 1.389 . S
C1349 C1350 1.387 . S
C1350 H1335 0.930 . S
C1350 C1345 1.390 . S
C1350 C1349 1.387 . S
H1351 C1363 0.930 . S
H1352 C1365 0.930 . S
H1353 C1366 0.930 . S
H1354 C1370 0.959 . S
H1355 C1370 0.959 . S
H1356 C1370 0.961 . S
H1357 C1371 0.960 . S
H1358 C1371 0.961 . S
H1359 C1371 0.959 . S
H1360 C1374 0.929 . S
H1361 C1375 0.931 . S
H1362 C1377 0.930 . S
C1363 H1351 0.930 . S
C1363 C1364 1.399 . S
C1363 C1368 1.399 . S
C1364 C1363 1.399 . S
C1364 C1365 1.376 . S
C1365 H1352 0.930 . S
C1365 C1364 1.376 . S
C1365 C1366 1.388 . S
C1366 H1353 0.930 . S
C1366 C1365 1.388 . S
C1366 C1367 1.390 . S
C1367 C1366 1.390 . S
C1367 C1368 1.394 . S
C1367 C1373 1.465 . S
C1368 C1363 1.399 . S
C1368 C1367 1.394 . S
C1368 C1369 1.516 . S
C1369 C1368 1.516 . S
C1369 C1370 1.502 . S
C1369 C1371 1.561 . S
C1369 C1372 1.526 . S
C1370 H1354 0.959 . S
C1370 H1355 0.959 . S
C1370 H1356 0.961 . S
C1370 C1369 1.502 . S
C1371 H1357 0.960 . S
C1371 H1358 0.961 . S
C1371 H1359 0.959 . S
C1371 C1369 1.561 . S
C1372 C1369 1.526 . S
C1372 C1373 1.396 . S
C1372 C1377 1.390 . S
C1373 C1367 1.465 . S
C1373 C1372 1.396 . S
C1373 C1374 1.399 . S
C1374 H1360 0.929 . S
C1374 C1373 1.399 . S
C1374 C1375 1.385 . S
C1375 H1361 0.931 . S
C1375 C1374 1.385 . S
C1375 C1376 1.389 . S
C1376 C1375 1.389 . S
C1376 C1377 1.387 . S
C1377 H1362 0.930 . S
C1377 C1372 1.390 . S
C1377 C1376 1.387 . S
H1378 C1390 0.930 . S
H1379 C1392 0.930 . S
H1380 C1393 0.930 . S
H1381 C1397 0.959 . S
H1382 C1397 0.959 . S
H1383 C1397 0.961 . S
H1384 C1398 0.960 . S
H1385 C1398 0.961 . S
H1386 C1398 0.959 . S
H1387 C1401 0.929 . S
H1388 C1402 0.931 . S
H1389 C1404 0.930 . S
C1390 H1378 0.930 . S
C1390 C1391 1.399 . S
C1390 C1395 1.399 . S
C1391 C1390 1.399 . S
C1391 C1392 1.376 . S
C1392 H1379 0.930 . S
C1392 C1391 1.376 . S
C1392 C1393 1.388 . S
C1393 H1380 0.930 . S
C1393 C1392 1.388 . S
C1393 C1394 1.390 . S
C1394 C1393 1.390 . S
C1394 C1395 1.394 . S
C1394 C1400 1.465 . S
C1395 C1390 1.399 . S
C1395 C1394 1.394 . S
C1395 C1396 1.516 . S
C1396 C1395 1.516 . S
C1396 C1397 1.502 . S
C1396 C1398 1.561 . S
C1396 C1399 1.526 . S
C1397 H1381 0.959 . S
C1397 H1382 0.959 . S
C1397 H1383 0.961 . S
C1397 C1396 1.502 . S
C1398 H1384 0.960 . S
C1398 H1385 0.961 . S
C1398 H1386 0.959 . S
C1398 C1396 1.561 . S
C1399 C1396 1.526 . S
C1399 C1400 1.396 . S
C1399 C1404 1.390 . S
C1400 C1394 1.465 . S
C1400 C1399 1.396 . S
C1400 C1401 1.399 . S
C1401 H1387 0.929 . S
C1401 C1400 1.399 . S
C1401 C1402 1.385 . S
C1402 H1388 0.931 . S
C1402 C1401 1.385 . S
C1402 C1403 1.389 . S
C1403 C1402 1.389 . S
C1403 C1404 1.387 . S
C1404 H1389 0.930 . S
C1404 C1399 1.390 . S
C1404 C1403 1.387 . S
H1405 C1417 0.930 . S
H1406 C1419 0.930 . S
H1407 C1420 0.930 . S
H1408 C1424 0.959 . S
H1409 C1424 0.959 . S
H1410 C1424 0.961 . S
H1411 C1425 0.960 . S
H1412 C1425 0.961 . S
H1413 C1425 0.959 . S
H1414 C1428 0.929 . S
H1415 C1429 0.931 . S
H1416 C1431 0.930 . S
C1417 H1405 0.930 . S
C1417 C1418 1.399 . S
C1417 C1422 1.399 . S
C1418 C1417 1.399 . S
C1418 C1419 1.376 . S
C1419 H1406 0.930 . S
C1419 C1418 1.376 . S
C1419 C1420 1.388 . S
C1420 H1407 0.930 . S
C1420 C1419 1.388 . S
C1420 C1421 1.390 . S
C1421 C1420 1.390 . S
C1421 C1422 1.394 . S
C1421 C1427 1.465 . S
C1422 C1417 1.399 . S
C1422 C1421 1.394 . S
C1422 C1423 1.516 . S
C1423 C1422 1.516 . S
C1423 C1424 1.502 . S
C1423 C1425 1.561 . S
C1423 C1426 1.526 . S
C1424 H1408 0.959 . S
C1424 H1409 0.959 . S
C1424 H1410 0.961 . S
C1424 C1423 1.502 . S
C1425 H1411 0.960 . S
C1425 H1412 0.961 . S
C1425 H1413 0.959 . S
C1425 C1423 1.561 . S
C1426 C1423 1.526 . S
C1426 C1427 1.396 . S
C1426 C1431 1.390 . S
C1427 C1421 1.465 . S
C1427 C1426 1.396 . S
C1427 C1428 1.399 . S
C1428 H1414 0.929 . S
C1428 C1427 1.399 . S
C1428 C1429 1.385 . S
C1429 H1415 0.931 . S
C1429 C1428 1.385 . S
C1429 C1430 1.389 . S
C1430 C1429 1.389 . S
C1430 C1431 1.387 . S
C1431 H1416 0.930 . S
C1431 C1426 1.390 . S
C1431 C1430 1.387 . S
H1432 C1444 0.930 . S
H1433 C1446 0.930 . S
H1434 C1447 0.930 . S
H1435 C1451 0.959 . S
H1436 C1451 0.959 . S
H1437 C1451 0.961 . S
H1438 C1452 0.960 . S
H1439 C1452 0.961 . S
H1440 C1452 0.959 . S
H1441 C1455 0.929 . S
H1442 C1456 0.931 . S
H1443 C1458 0.930 . S
C1444 H1432 0.930 . S
C1444 C1445 1.399 . S
C1444 C1449 1.399 . S
C1445 C1444 1.399 . S
C1445 C1446 1.376 . S
C1446 H1433 0.930 . S
C1446 C1445 1.376 . S
C1446 C1447 1.388 . S
C1447 H1434 0.930 . S
C1447 C1446 1.388 . S
C1447 C1448 1.390 . S
C1448 C1447 1.390 . S
C1448 C1449 1.394 . S
C1448 C1454 1.465 . S
C1449 C1444 1.399 . S
C1449 C1448 1.394 . S
C1449 C1450 1.516 . S
C1450 C1449 1.516 . S
C1450 C1451 1.502 . S
C1450 C1452 1.561 . S
C1450 C1453 1.526 . S
C1451 H1435 0.959 . S
C1451 H1436 0.959 . S
C1451 H1437 0.961 . S
C1451 C1450 1.502 . S
C1452 H1438 0.960 . S
C1452 H1439 0.961 . S
C1452 H1440 0.959 . S
C1452 C1450 1.561 . S
C1453 C1450 1.526 . S
C1453 C1454 1.396 . S
C1453 C1458 1.390 . S
C1454 C1448 1.465 . S
C1454 C1453 1.396 . S
C1454 C1455 1.399 . S
C1455 H1441 0.929 . S
C1455 C1454 1.399 . S
C1455 C1456 1.385 . S
C1456 H1442 0.931 . S
C1456 C1455 1.385 . S
C1456 C1457 1.389 . S
C1457 C1456 1.389 . S
C1457 C1458 1.387 . S
C1458 H1443 0.930 . S
C1458 C1453 1.390 . S
C1458 C1457 1.387 . S
H1459 C1471 0.930 . S
H1460 C1473 0.930 . S
H1461 C1474 0.930 . S
H1462 C1478 0.959 . S
H1463 C1478 0.959 . S
H1464 C1478 0.961 . S
H1465 C1479 0.960 . S
H1466 C1479 0.961 . S
H1467 C1479 0.959 . S
H1468 C1482 0.929 . S
H1469 C1483 0.931 . S
H1470 C1485 0.930 . S
C1471 H1459 0.930 . S
C1471 C1472 1.399 . S
C1471 C1476 1.399 . S
C1472 C1471 1.399 . S
C1472 C1473 1.376 . S
C1473 H1460 0.930 . S
C1473 C1472 1.376 . S
C1473 C1474 1.388 . S
C1474 H1461 0.930 . S
C1474 C1473 1.388 . S
C1474 C1475 1.390 . S
C1475 C1474 1.390 . S
C1475 C1476 1.394 . S
C1475 C1481 1.465 . S
C1476 C1471 1.399 . S
C1476 C1475 1.394 . S
C1476 C1477 1.516 . S
C1477 C1476 1.516 . S
C1477 C1478 1.502 . S
C1477 C1479 1.561 . S
C1477 C1480 1.526 . S
C1478 H1462 0.959 . S
C1478 H1463 0.959 . S
C1478 H1464 0.961 . S
C1478 C1477 1.502 . S
C1479 H1465 0.960 . S
C1479 H1466 0.961 . S
C1479 H1467 0.959 . S
C1479 C1477 1.561 . S
C1480 C1477 1.526 . S
C1480 C1481 1.396 . S
C1480 C1485 1.390 . S
C1481 C1475 1.465 . S
C1481 C1480 1.396 . S
C1481 C1482 1.399 . S
C1482 H1468 0.929 . S
C1482 C1481 1.399 . S
C1482 C1483 1.385 . S
C1483 H1469 0.931 . S
C1483 C1482 1.385 . S
C1483 C1484 1.389 . S
C1484 C1483 1.389 . S
C1484 C1485 1.387 . S
C1485 H1470 0.930 . S
C1485 C1480 1.390 . S
C1485 C1484 1.387 . S
H1486 C1498 0.930 . S
H1487 C1500 0.930 . S
H1488 C1501 0.930 . S
H1489 C1505 0.959 . S
H1490 C1505 0.959 . S
H1491 C1505 0.961 . S
H1492 C1506 0.960 . S
H1493 C1506 0.961 . S
H1494 C1506 0.959 . S
H1495 C1509 0.929 . S
H1496 C1510 0.931 . S
H1497 C1512 0.930 . S
C1498 H1486 0.930 . S
C1498 C1499 1.399 . S
C1498 C1503 1.399 . S
C1499 C1498 1.399 . S
C1499 C1500 1.376 . S
C1500 H1487 0.930 . S
C1500 C1499 1.376 . S
C1500 C1501 1.388 . S
C1501 H1488 0.930 . S
C1501 C1500 1.388 . S
C1501 C1502 1.390 . S
C1502 C1501 1.390 . S
C1502 C1503 1.394 . S
C1502 C1508 1.465 . S
C1503 C1498 1.399 . S
C1503 C1502 1.394 . S
C1503 C1504 1.516 . S
C1504 C1503 1.516 . S
C1504 C1505 1.502 . S
C1504 C1506 1.561 . S
C1504 C1507 1.526 . S
C1505 H1489 0.959 . S
C1505 H1490 0.959 . S
C1505 H1491 0.961 . S
C1505 C1504 1.502 . S
C1506 H1492 0.960 . S
C1506 H1493 0.961 . S
C1506 H1494 0.959 . S
C1506 C1504 1.561 . S
C1507 C1504 1.526 . S
C1507 C1508 1.396 . S
C1507 C1512 1.390 . S
C1508 C1502 1.465 . S
C1508 C1507 1.396 . S
C1508 C1509 1.399 . S
C1509 H1495 0.929 . S
C1509 C1508 1.399 . S
C1509 C1510 1.385 . S
C1510 H1496 0.931 . S
C1510 C1509 1.385 . S
C1510 C1511 1.389 . S
C1511 C1510 1.389 . S
C1511 C1512 1.387 . S
C1512 H1497 0.930 . S
C1512 C1507 1.390 . S
C1512 C1511 1.387 . S
H1513 C1525 0.930 . S
H1514 C1527 0.930 . S
H1515 C1528 0.930 . S
H1516 C1532 0.959 . S
H1517 C1532 0.959 . S
H1518 C1532 0.961 . S
H1519 C1533 0.960 . S
H1520 C1533 0.961 . S
H1521 C1533 0.959 . S
H1522 C1536 0.929 . S
H1523 C1537 0.931 . S
H1524 C1539 0.930 . S
C1525 H1513 0.930 . S
C1525 C1526 1.399 . S
C1525 C1530 1.399 . S
C1526 C1525 1.399 . S
C1526 C1527 1.376 . S
C1527 H1514 0.930 . S
C1527 C1526 1.376 . S
C1527 C1528 1.388 . S
C1528 H1515 0.930 . S
C1528 C1527 1.388 . S
C1528 C1529 1.390 . S
C1529 C1528 1.390 . S
C1529 C1530 1.394 . S
C1529 C1535 1.465 . S
C1530 C1525 1.399 . S
C1530 C1529 1.394 . S
C1530 C1531 1.516 . S
C1531 C1530 1.516 . S
C1531 C1532 1.502 . S
C1531 C1533 1.561 . S
C1531 C1534 1.526 . S
C1532 H1516 0.959 . S
C1532 H1517 0.959 . S
C1532 H1518 0.961 . S
C1532 C1531 1.502 . S
C1533 H1519 0.960 . S
C1533 H1520 0.961 . S
C1533 H1521 0.959 . S
C1533 C1531 1.561 . S
C1534 C1531 1.526 . S
C1534 C1535 1.396 . S
C1534 C1539 1.390 . S
C1535 C1529 1.465 . S
C1535 C1534 1.396 . S
C1535 C1536 1.399 . S
C1536 H1522 0.929 . S
C1536 C1535 1.399 . S
C1536 C1537 1.385 . S
C1537 H1523 0.931 . S
C1537 C1536 1.385 . S
C1537 C1538 1.389 . S
C1538 C1537 1.389 . S
C1538 C1539 1.387 . S
C1539 H1524 0.930 . S
C1539 C1534 1.390 . S
C1539 C1538 1.387 . S
H1540 C1552 0.930 . S
H1541 C1554 0.930 . S
H1542 C1555 0.930 . S
H1543 C1559 0.959 . S
H1544 C1559 0.959 . S
H1545 C1559 0.961 . S
H1546 C1560 0.960 . S
H1547 C1560 0.961 . S
H1548 C1560 0.959 . S
H1549 C1563 0.929 . S
H1550 C1564 0.931 . S
H1551 C1566 0.930 . S
C1552 H1540 0.930 . S
C1552 C1553 1.399 . S
C1552 C1557 1.399 . S
C1553 C1552 1.399 . S
C1553 C1554 1.376 . S
C1554 H1541 0.930 . S
C1554 C1553 1.376 . S
C1554 C1555 1.388 . S
C1555 H1542 0.930 . S
C1555 C1554 1.388 . S
C1555 C1556 1.390 . S
C1556 C1555 1.390 . S
C1556 C1557 1.394 . S
C1556 C1562 1.465 . S
C1557 C1552 1.399 . S
C1557 C1556 1.394 . S
C1557 C1558 1.516 . S
C1558 C1557 1.516 . S
C1558 C1559 1.502 . S
C1558 C1560 1.561 . S
C1558 C1561 1.526 . S
C1559 H1543 0.959 . S
C1559 H1544 0.959 . S
C1559 H1545 0.961 . S
C1559 C1558 1.502 . S
C1560 H1546 0.960 . S
C1560 H1547 0.961 . S
C1560 H1548 0.959 . S
C1560 C1558 1.561 . S
C1561 C1558 1.526 . S
C1561 C1562 1.396 . S
C1561 C1566 1.390 . S
C1562 C1556 1.465 . S
C1562 C1561 1.396 . S
C1562 C1563 1.399 . S
C1563 H1549 0.929 . S
C1563 C1562 1.399 . S
C1563 C1564 1.385 . S
C1564 H1550 0.931 . S
C1564 C1563 1.385 . S
C1564 C1565 1.389 . S
C1565 C1564 1.389 . S
C1565 C1566 1.387 . S
C1566 H1551 0.930 . S
C1566 C1561 1.390 . S
C1566 C1565 1.387 . S
H1567 C1579 0.930 . S
H1568 C1581 0.930 . S
H1569 C1582 0.930 . S
H1570 C1586 0.959 . S
H1571 C1586 0.959 . S
H1572 C1586 0.961 . S
H1573 C1587 0.960 . S
H1574 C1587 0.961 . S
H1575 C1587 0.959 . S
H1576 C1590 0.929 . S
H1577 C1591 0.931 . S
H1578 C1593 0.930 . S
C1579 H1567 0.930 . S
C1579 C1580 1.399 . S
C1579 C1584 1.399 . S
C1580 C1579 1.399 . S
C1580 C1581 1.376 . S
C1581 H1568 0.930 . S
C1581 C1580 1.376 . S
C1581 C1582 1.388 . S
C1582 H1569 0.930 . S
C1582 C1581 1.388 . S
C1582 C1583 1.390 . S
C1583 C1582 1.390 . S
C1583 C1584 1.394 . S
C1583 C1589 1.465 . S
C1584 C1579 1.399 . S
C1584 C1583 1.394 . S
C1584 C1585 1.516 . S
C1585 C1584 1.516 . S
C1585 C1586 1.502 . S
C1585 C1587 1.561 . S
C1585 C1588 1.526 . S
C1586 H1570 0.959 . S
C1586 H1571 0.959 . S
C1586 H1572 0.961 . S
C1586 C1585 1.502 . S
C1587 H1573 0.960 . S
C1587 H1574 0.961 . S
C1587 H1575 0.959 . S
C1587 C1585 1.561 . S
C1588 C1585 1.526 . S
C1588 C1589 1.396 . S
C1588 C1593 1.390 . S
C1589 C1583 1.465 . S
C1589 C1588 1.396 . S
C1589 C1590 1.399 . S
C1590 H1576 0.929 . S
C1590 C1589 1.399 . S
C1590 C1591 1.385 . S
C1591 H1577 0.931 . S
C1591 C1590 1.385 . S
C1591 C1592 1.389 . S
C1592 C1591 1.389 . S
C1592 C1593 1.387 . S
C1593 H1578 0.930 . S
C1593 C1588 1.390 . S
C1593 C1592 1.387 . S
H1594 C1606 0.930 . S
H1595 C1608 0.930 . S
H1596 C1609 0.930 . S
H1597 C1613 0.959 . S
H1598 C1613 0.959 . S
H1599 C1613 0.961 . S
H1600 C1614 0.960 . S
H1601 C1614 0.961 . S
H1602 C1614 0.959 . S
H1603 C1617 0.929 . S
H1604 C1618 0.931 . S
H1605 C1620 0.930 . S
C1606 H1594 0.930 . S
C1606 C1607 1.399 . S
C1606 C1611 1.399 . S
C1607 C1606 1.399 . S
C1607 C1608 1.376 . S
C1608 H1595 0.930 . S
C1608 C1607 1.376 . S
C1608 C1609 1.388 . S
C1609 H1596 0.930 . S
C1609 C1608 1.388 . S
C1609 C1610 1.390 . S
C1610 C1609 1.390 . S
C1610 C1611 1.394 . S
C1610 C1616 1.465 . S
C1611 C1606 1.399 . S
C1611 C1610 1.394 . S
C1611 C1612 1.516 . S
C1612 C1611 1.516 . S
C1612 C1613 1.502 . S
C1612 C1614 1.561 . S
C1612 C1615 1.526 . S
C1613 H1597 0.959 . S
C1613 H1598 0.959 . S
C1613 H1599 0.961 . S
C1613 C1612 1.502 . S
C1614 H1600 0.960 . S
C1614 H1601 0.961 . S
C1614 H1602 0.959 . S
C1614 C1612 1.561 . S
C1615 C1612 1.526 . S
C1615 C1616 1.396 . S
C1615 C1620 1.390 . S
C1616 C1610 1.465 . S
C1616 C1615 1.396 . S
C1616 C1617 1.399 . S
C1617 H1603 0.929 . S
C1617 C1616 1.399 . S
C1617 C1618 1.385 . S
C1618 H1604 0.931 . S
C1618 C1617 1.385 . S
C1618 C1619 1.389 . S
C1619 C1618 1.389 . S
C1619 C1620 1.387 . S
C1620 H1605 0.930 . S
C1620 C1615 1.390 . S
C1620 C1619 1.387 . S
H1621 C1633 0.930 . S
H1622 C1635 0.930 . S
H1623 C1636 0.930 . S
H1624 C1640 0.959 . S
H1625 C1640 0.959 . S
H1626 C1640 0.961 . S
H1627 C1641 0.960 . S
H1628 C1641 0.961 . S
H1629 C1641 0.959 . S
H1630 C1644 0.929 . S
H1631 C1645 0.931 . S
H1632 C1647 0.930 . S
C1633 H1621 0.930 . S
C1633 C1634 1.399 . S
C1633 C1638 1.399 . S
C1634 C1633 1.399 . S
C1634 C1635 1.376 . S
C1635 H1622 0.930 . S
C1635 C1634 1.376 . S
C1635 C1636 1.388 . S
C1636 H1623 0.930 . S
C1636 C1635 1.388 . S
C1636 C1637 1.390 . S
C1637 C1636 1.390 . S
C1637 C1638 1.394 . S
C1637 C1643 1.465 . S
C1638 C1633 1.399 . S
C1638 C1637 1.394 . S
C1638 C1639 1.516 . S
C1639 C1638 1.516 . S
C1639 C1640 1.502 . S
C1639 C1641 1.561 . S
C1639 C1642 1.526 . S
C1640 H1624 0.959 . S
C1640 H1625 0.959 . S
C1640 H1626 0.961 . S
C1640 C1639 1.502 . S
C1641 H1627 0.960 . S
C1641 H1628 0.961 . S
C1641 H1629 0.959 . S
C1641 C1639 1.561 . S
C1642 C1639 1.526 . S
C1642 C1643 1.396 . S
C1642 C1647 1.390 . S
C1643 C1637 1.465 . S
C1643 C1642 1.396 . S
C1643 C1644 1.399 . S
C1644 H1630 0.929 . S
C1644 C1643 1.399 . S
C1644 C1645 1.385 . S
C1645 H1631 0.931 . S
C1645 C1644 1.385 . S
C1645 C1646 1.389 . S
C1646 C1645 1.389 . S
C1646 C1647 1.387 . S
C1647 H1632 0.930 . S
C1647 C1642 1.390 . S
C1647 C1646 1.387 . S
C377 C177 2.100 . S
C365 C19 2.057 . S
C404 C182 1.486 . S
C392 C24 1.461 . S
C431 C183 1.366 . S
C419 C59 1.339 . S
C446 C69 1.335 . S
C458 C187 1.342 . S
C473 C82 1.478 . S
C485 C190 1.518 . S
C512 C191 1.371 . S
C500 C118 1.366 . S
C527 C132 1.366 . S
C539 C168 1.359 . S
C554 C158 2.087 . S
C566 C184 2.124 . S
C593 C222 1.614 . S
C581 C4 1.519 . S
C608 C29 0.866 . S
C620 C248 0.972 . S
C647 C200 1.504 . S
C635 C44 1.355 . S
C674 C255 1.276 . S
C662 C79 1.334 . S
C689 C98 1.305 . S
C701 C209 1.356 . S
C728 C251 1.314 . S
C716 C112 1.251 . S
C743 C122 1.190 . S
C755 C215 1.151 . S
C770 C152 1.264 . S
C782 C246 1.194 . S
C797 C9 1.172 . S
C809 C254 1.272 . S
C824 C92 0.869 . S
C836 C241 0.970 . S
C863 C219 1.426 . S
C851 C102 1.453 . S
C890 C247 1.308 . S
C878 C138 1.307 . S
C905 C142 1.504 . S
C917 C214 1.600 . S
C932 C49 1.308 . S
C944 C232 1.335 . S
C971 C223 1.193 . S
C959 C64 1.107 . S
C986 C39 1.361 . S
C998 C216 1.351 . S
C1013 C159 2.077 . S
C1025 C278 2.051 . S
C1040 C84 1.429 . S
C1052 C273 1.435 . S
C1079 C287 1.273 . S
C1067 C119 1.351 . S
C1106 C264 1.284 . S
C1094 C129 1.321 . S
C1121 C22 1.458 . S
C1133 C280 1.432 . S
C1160 C279 1.285 . S
C1148 C58 1.351 . S
C1175 C72 1.272 . S
C1187 C283 1.350 . S
C1202 C18 2.059 . S
C1214 C286 2.079 . S
C1229 C144 1.589 . S
C1241 C312 1.672 . S
C1268 C328 0.903 . S
C1256 C89 0.988 . S
C1283 C104 1.363 . S
C1295 C310 1.462 . S
C1310 C139 1.296 . S
C1322 C343 1.331 . S
C1349 C319 1.289 . S
C1337 C38 1.293 . S
C1364 C52 1.267 . S
C1376 C337 1.339 . S
C1403 C315 1.235 . S
C1391 C62 1.207 . S
C1430 C350 1.201 . S
C1418 C12 1.209 . S
C1457 C342 1.234 . S
C1445 C149 1.277 . S
C1472 C32 0.973 . S
C1484 C347 0.876 . S
C1499 C42 1.448 . S
C1511 C318 1.509 . S
C1538 C351 1.304 . S
C1526 C78 1.318 . S
C1553 C2 1.487 . S
C1565 C305 1.630 . S
C1580 C109 1.355 . S
C1592 C344 1.283 . S
C1619 C296 1.218 . S
C1607 C124 1.212 . S
C1646 C311 1.319 . S
C1634 C99 1.347 . S
