# Generated by pormake.
# Topology nia, (6,6)-cn, num edge types: 1
# Building blocks:
#     Node 0, Type 0, BuildingBlock: MIFKUJ_clean_sbu_0, # of connection points: 6
#     Node 1, Type 0, BuildingBlock: MIFKUJ_clean_sbu_0, # of connection points: 6
#     Node 2, Type 1, BuildingBlock: MIDCAF_clean_sbu_0, # of connection points: 6
#     Node 3, Type 1, BuildingBlock: MIDCAF_clean_sbu_0, # of connection points: 6
#     Edge 4, Type (0, 1), BuildingBlock: XUDNAN_clean_linker_2, # of connection points: 2
#     Edge 5, Type (0, 1), BuildingBlock: XUDNAN_clean_linker_2, # of connection points: 2
#     Edge 6, Type (0, 1), BuildingBlock: XUDNAN_clean_linker_2, # of connection points: 2
#     Edge 7, Type (0, 1), BuildingBlock: XUDNAN_clean_linker_2, # of connection points: 2
#     Edge 8, Type (0, 1), BuildingBlock: XUDNAN_clean_linker_2, # of connection points: 2
#     Edge 9, Type (0, 1), BuildingBlock: XUDNAN_clean_linker_2, # of connection points: 2
#     Edge 10, Type (0, 1), BuildingBlock: XUDNAN_clean_linker_2, # of connection points: 2
#     Edge 11, Type (0, 1), BuildingBlock: XUDNAN_clean_linker_2, # of connection points: 2
#     Edge 12, Type (0, 1), BuildingBlock: XUDNAN_clean_linker_2, # of connection points: 2
#     Edge 13, Type (0, 1), BuildingBlock: XUDNAN_clean_linker_2, # of connection points: 2
#     Edge 14, Type (0, 1), BuildingBlock: XUDNAN_clean_linker_2, # of connection points: 2
#     Edge 15, Type (0, 1), BuildingBlock: XUDNAN_clean_linker_2, # of connection points: 2
# Relax obj value: 0.172
# Max RMSD: 0.250
# Mean RMSD: 0.184
data_MOF--net-nia--node1-MIFKUJ_clean_sbu_0--node2-MIDCAF_clean_sbu_0--edge1-XUDNAN_clean_linker_2
_symmetry_space_group_name_H-M    P1
_symmetry_Int_Tables_number       1
_symmetry_cell_setting            triclinic
loop_
_symmetry_equiv_pos_as_xyz
'x, y, z'
_cell_length_a     24.880337
_cell_length_b     24.91489
_cell_length_c     31.89721
_cell_angle_alpha  88.729422
_cell_angle_beta   88.319714
_cell_angle_gamma 127.41677
loop_
_atom_site_label
_atom_site_type_symbol
_atom_site_fract_x
_atom_site_fract_y
_atom_site_fract_z
_atom_type_partial_charge
Zn0 Zn 0.05811 0.96461 0.03001 0.0
Zn1 Zn 0.03667 0.06605 0.98658 0.0
C2 C 0.95345 0.84765 0.98706 0.0
O3 O 0.93016 0.82438 0.02594 0.0
C4 C 0.07184 0.15167 0.05854 0.0
O5 O 0.0082 0.12851 0.05997 0.0
O6 O 0.08183 0.91222 0.06309 0.0
O7 O 0.14501 0.05121 0.01029 0.0
O8 O 0.10535 0.06144 0.95238 0.0
C9 C 0.08813 0.87149 0.04469 0.0
O10 O 0.08218 0.86622 1.00394 0.0
O11 O 0.00588 0.9088 0.98057 0.0
C12 C 0.96157 0.07358 0.92201 0.0
O13 O 0.93967 0.01113 0.91718 0.0
O14 O 0.00516 0.10816 0.94916 0.0
O15 O 0.95074 0.98597 0.01874 0.0
O16 O 0.0017 0.97404 0.06916 0.0
O17 O 0.09306 0.13251 0.0303 0.0
C18 C 0.155 0.074 0.97263 0.0
C19 C 0.95158 0.9701 0.05684 0.0
Zn20 Zn 0.07958 -0.0025 0.48369 0.0
Zn21 Zn 0.00862 0.0485 0.53455 0.0
C22 C 0.16752 0.02059 0.5473 0.0
O23 O 0.1509 0.96312 0.53374 0.0
C24 C 0.88045 0.95423 0.49262 0.0
O25 O 0.86402 0.91088 0.52395 0.0
O26 O 0.12348 0.97218 0.44312 0.0
O27 O 0.99594 0.91394 0.51093 0.0
O28 O -0.00091 0.97003 0.56463 0.0
C29 C 0.09072 0.91674 0.42469 0.0
O30 O 0.02543 0.87135 0.43366 0.0
O31 O 0.14363 0.04789 0.52996 0.0
C32 C 0.93709 0.06202 0.60169 0.0
O33 O 0.88919 -0.00197 0.59518 0.0
O34 O 0.9923 0.09402 0.57936 0.0
O35 O 0.09471 0.12338 0.50196 0.0
O36 O 0.06997 0.05828 0.44912 0.0
O37 O 0.93667 0.01312 0.49202 0.0
C38 C 0.98267 0.91535 0.54946 0.0
C39 C 0.09595 0.1163 0.46267 0.0
Zn40 Zn 0.39701 0.68784 0.17862 0.0
Zn41 Zn 0.35113 0.68129 0.33072 0.0
Zn42 Zn 0.377 0.68476 0.25271 0.0
C43 C 0.49215 0.75687 0.31877 0.0
C44 C 0.29012 0.54926 0.3148 0.0
O45 O 0.31851 0.71359 0.22148 0.0
O46 O 0.31721 0.67756 0.15879 0.0
C47 C 0.52002 0.78662 0.2002 0.0
O48 O 0.47783 0.74901 0.27983 0.0
O49 O 0.4454 0.73021 0.34725 0.0
O50 O 0.29131 0.58378 0.34357 0.0
O51 O 0.32065 0.57825 0.27876 0.0
O52 O 0.48655 0.77557 0.16829 0.0
O53 O 0.48843 0.75373 0.23531 0.0
O54 O 0.3328 0.58063 0.23411 0.0
O55 O 0.39277 0.6063 0.1745 0.0
C56 C 0.35083 0.56262 0.2024 0.0
O57 O 0.32319 0.73042 0.2629 0.0
O58 O 0.3103 0.72806 0.33207 0.0
C59 C 0.29523 0.69852 0.18454 0.0
C60 C 0.30321 0.74396 0.29603 0.0
Zn61 Zn 0.71344 0.36067 0.88811 0.0
Zn62 Zn 0.70766 0.3309 0.67949 0.0
Zn63 Zn 0.70042 0.34547 0.75848 0.0
C64 C 0.77069 0.46835 0.6876 0.0
C65 C 0.569 0.25338 0.70511 0.0
O66 O 0.74449 0.30585 0.80133 0.0
O67 O 0.75562 0.31402 0.87235 0.0
C68 C 0.75911 0.45911 0.80889 0.0
O69 O 0.75579 0.44723 0.72653 0.0
O70 O 0.7558 0.42731 0.65932 0.0
O71 O 0.60793 0.26502 0.674 0.0
O72 O 0.59368 0.28047 0.74022 0.0
O73 O 0.72927 0.40436 0.83069 0.0
O74 O 0.75612 0.45283 0.76936 0.0
O75 O 0.59627 0.29391 0.78252 0.0
O76 O 0.65728 0.33207 0.83615 0.0
C77 C 0.59873 0.30036 0.82207 0.0
O78 O 0.75204 0.29953 0.75404 0.0
O79 O 0.75901 0.29442 0.6851 0.0
C80 C 0.76269 0.29521 0.83675 0.0
C81 C 0.77115 0.28457 0.72142 0.0
H82 H 0.15906 0.90124 0.11585 0.0
H83 H 0.04397 0.74538 0.02673 0.0
H84 H 0.06841 0.67478 0.06323 0.0
H85 H 0.29084 0.89185 0.11806 0.0
H86 H 0.30556 0.90563 0.17316 0.0
H87 H 0.26788 0.93807 0.14584 0.0
H88 H 0.16573 0.87376 0.20033 0.0
H89 H 0.20297 0.84037 0.22736 0.0
H90 H 0.11846 0.78362 0.20952 0.0
H91 H 0.11615 0.62834 0.10167 0.0
H92 H 0.19233 0.61183 0.13644 0.0
H93 H 0.28162 0.79821 0.20027 0.0
C94 C 0.13762 0.85142 0.10489 0.0
C95 C 0.09928 0.82827 0.06876 0.0
C96 C 0.07347 0.76383 0.05438 0.0
C97 C 0.08649 0.72314 0.07516 0.0
C98 C 0.12561 0.74777 0.11018 0.0
C99 C 0.15118 0.81049 0.12495 0.0
C100 C 0.19915 0.82834 0.15971 0.0
C101 C 0.27004 0.89488 0.14848 0.0
C102 C 0.16976 0.83172 0.20172 0.0
C103 C 0.19981 0.76784 0.16019 0.0
C104 C 0.15512 0.7211 0.13228 0.0
C105 C 0.15042 0.66383 0.12416 0.0
C106 C 0.19409 0.65508 0.1439 0.0
C107 C 0.24223 0.70352 0.17123 0.0
C108 C 0.24382 0.75957 0.18051 0.0
H109 H 0.26057 0.00299 0.56994 0.0
H110 H 0.18355 0.1145 0.60005 0.0
H111 H 0.26764 0.17307 0.65454 0.0
H112 H 0.30777 0.98936 0.67685 0.0
H113 H 0.3837 0.00272 0.65665 0.0
H114 H 0.31013 0.96144 0.62563 0.0
H115 H 0.38199 0.05023 0.56415 0.0
H116 H 0.45555 0.09109 0.59477 0.0
H117 H 0.42917 0.13895 0.57358 0.0
H118 H 0.3671 0.22622 0.70176 0.0
H119 H 0.48092 0.27981 0.72895 0.0
H120 H 0.49479 0.13735 0.66426 0.0
C121 C 0.2603 0.03856 0.58869 0.0
C122 C 0.2152 0.05375 0.58119 0.0
C123 C 0.21766 0.10202 0.60548 0.0
C124 C 0.26479 0.13503 0.63672 0.0
C125 C 0.30921 0.11936 0.64304 0.0
C126 C 0.30763 0.07264 0.61931 0.0
C127 C 0.36604 0.07103 0.62799 0.0
C128 C 0.34035 0.00203 0.64798 0.0
C129 C 0.41082 0.08894 0.58775 0.0
C130 C 0.40231 0.12586 0.65917 0.0
C131 C 0.36782 0.1518 0.6686 0.0
C132 C 0.39406 0.2057 0.69495 0.0
C133 C 0.45841 0.23555 0.7105 0.0
C134 C 0.49586 0.21209 0.69886 0.0
C135 C 0.46651 0.15545 0.67399 0.0
H136 H 0.05045 0.21944 0.11517 0.0
H137 H 0.2023 0.19877 0.06815 0.0
H138 H 0.28621 0.29033 0.11209 0.0
H139 H 0.1526 0.39154 0.11146 0.0
H140 H 0.11823 0.40095 0.15879 0.0
H141 H 0.06656 0.32542 0.13028 0.0
H142 H 0.04478 0.2527 0.19742 0.0
H143 H 0.09684 0.32846 0.22612 0.0
H144 H 0.1157 0.2692 0.22448 0.0
H145 H 0.35785 0.39518 0.14999 0.0
H146 H 0.4124 0.50749 0.17897 0.0
H147 H 0.21553 0.46009 0.20453 0.0
C148 C 0.10084 0.23294 0.11504 0.0
C149 C 0.11973 0.20186 0.08825 0.0
C150 C 0.18655 0.2218 0.08838 0.0
C151 C 0.23453 0.27346 0.11351 0.0
C152 C 0.21486 0.30428 0.13877 0.0
C153 C 0.14949 0.28454 0.14005 0.0
C154 C 0.14368 0.3311 0.16619 0.0
C155 C 0.11885 0.36421 0.14011 0.0
C156 C 0.09749 0.29307 0.20591 0.0
C157 C 0.2168 0.38236 0.17718 0.0
C158 C 0.25668 0.36501 0.16179 0.0
C159 C 0.32702 0.40838 0.16332 0.0
C160 C 0.35759 0.47198 0.17975 0.0
C161 C 0.31782 0.49123 0.19471 0.0
C162 C 0.24656 0.44517 0.19464 0.0
H163 H 0.81535 0.0243 0.63403 0.0
H164 H 0.03185 0.18132 0.6379 0.0
H165 H 0.01076 0.24552 0.6844 0.0
H166 H 0.77419 0.12967 0.62064 0.0
H167 H 0.69525 0.07967 0.65173 0.0
H168 H 0.72756 0.03934 0.62784 0.0
H169 H 0.7226 0.988 0.70081 0.0
H170 H 0.69104 0.02923 0.72515 0.0
H171 H 0.76629 0.04301 0.74325 0.0
H172 H 0.96606 0.29989 0.72208 0.0
H173 H 0.90263 0.34488 0.73873 0.0
H174 H 0.71657 0.15555 0.70649 0.0
C175 C 0.85835 0.07115 0.64577 0.0
C176 C 0.9252 0.09752 0.63274 0.0
C177 C 0.98016 0.16003 0.64769 0.0
C178 C 0.96866 0.19653 0.67444 0.0
C179 C 0.90192 0.16986 0.68597 0.0
C180 C 0.84766 0.10859 0.67189 0.0
C181 C 0.78115 0.09587 0.68304 0.0
C182 C 0.74234 0.08561 0.64347 0.0
C183 C 0.73771 0.03543 0.71496 0.0
C184 C 0.80663 0.16143 0.70301 0.0
C185 C 0.87615 0.20235 0.70616 0.0
C186 C 0.91151 0.26774 0.72054 0.0
C187 C 0.87527 0.29288 0.73008 0.0
C188 C 0.80497 0.25292 0.72448 0.0
C189 C 0.77015 0.18604 0.71197 0.0
H190 H 0.84604 0.97682 0.04794 0.0
H191 H 0.92923 0.91214 0.13538 0.0
H192 H 0.83537 0.87356 0.18697 0.0
H193 H 0.78239 0.03372 0.12833 0.0
H194 H 0.7075 0.00369 0.10054 0.0
H195 H 0.7849 0.03244 0.07184 0.0
H196 H 0.72221 0.91756 0.03639 0.0
H197 H 0.64473 0.889 0.0645 0.0
H198 H 0.67602 0.84023 0.06879 0.0
H199 H 0.72585 0.8296 0.22564 0.0
H200 H 0.60736 0.78034 0.24648 0.0
H201 H 0.5989 0.88044 0.13677 0.0
C202 C 0.84478 0.95506 0.07806 0.0
C203 C 0.89494 0.94745 0.08752 0.0
C204 C 0.89148 0.9187 0.12736 0.0
C205 C 0.83854 0.89693 0.15705 0.0
C206 C 0.78986 0.90509 0.14677 0.0
C207 C 0.7926 0.93366 0.1083 0.0
C208 C 0.73161 0.93267 0.10408 0.0
C209 C 0.7529 0.00494 0.10102 0.0
C210 C 0.69127 0.89244 0.06622 0.0
C211 C 0.69279 0.89638 0.14536 0.0
C212 C 0.72764 0.88175 0.16987 0.0
C213 C 0.69878 0.84237 0.20734 0.0
C214 C 0.63164 0.81522 0.21927 0.0
C215 C 0.5945 0.82811 0.19398 0.0
C216 C 0.62654 0.87102 0.15732 0.0
H217 H 0.96348 0.79734 0.53303 0.0
H218 H 0.92546 0.89361 0.62864 0.0
H219 H 0.86944 0.79063 0.67519 0.0
H220 H 0.80727 0.63102 0.55028 0.0
H221 H 0.84489 0.58883 0.54172 0.0
H222 H 0.88245 0.67038 0.51613 0.0
H223 H 0.99704 0.71738 0.54824 0.0
H224 H 0.95983 0.63601 0.57403 0.0
H225 H 0.00028 0.71035 0.60433 0.0
H226 H 0.81389 0.67567 0.71029 0.0
H227 H 0.76458 0.55767 0.73171 0.0
H228 H 0.84361 0.53861 0.61462 0.0
C229 C 0.94323 0.79676 0.56371 0.0
C230 C 0.94868 0.85345 0.57716 0.0
C231 C 0.92199 0.85081 0.61769 0.0
C232 C 0.89006 0.79256 0.64436 0.0
C233 C 0.88569 0.73763 0.63015 0.0
C234 C 0.91173 0.7393 0.59085 0.0
C235 C 0.90053 0.6735 0.58319 0.0
C236 C 0.85613 0.6389 0.54561 0.0
C237 C 0.96847 0.68503 0.5771 0.0
C238 C 0.86341 0.63427 0.62415 0.0
C239 C 0.85541 0.67216 0.65084 0.0
C240 C 0.82081 0.64589 0.68994 0.0
C241 C 0.79361 0.57906 0.70205 0.0
C242 C 0.80204 0.53967 0.67544 0.0
C243 C 0.8372 0.56781 0.63592 0.0
H244 H 0.05004 0.79427 0.39797 0.0
H245 H 0.21227 0.0098 0.38195 0.0
H246 H 0.27485 0.98763 0.3331 0.0
H247 H 0.15274 0.7471 0.40577 0.0
H248 H 0.10011 0.66981 0.3786 0.0
H249 H 0.06264 0.70354 0.40499 0.0
H250 H 0.01118 0.70389 0.33552 0.0
H251 H 0.04967 0.67108 0.30866 0.0
H252 H 0.066 0.74844 0.28914 0.0
H253 H 0.32611 0.94194 0.29342 0.0
H254 H 0.36687 0.87615 0.27376 0.0
H255 H 0.17387 0.69111 0.31781 0.0
C256 C 0.09789 0.83684 0.38327 0.0
C257 C 0.1261 0.90371 0.39345 0.0
C258 C 0.18969 0.9581 0.37452 0.0
C259 C 0.22528 0.94605 0.34639 0.0
C260 C 0.19661 0.87936 0.33751 0.0
C261 C 0.13443 0.82561 0.35558 0.0
C262 C 0.11907 0.75859 0.34565 0.0
C263 C 0.10807 0.71741 0.38615 0.0
C264 C 0.05784 0.71812 0.3181 0.0
C265 C 0.18385 0.78304 0.32117 0.0
C266 C 0.22706 0.85281 0.31556 0.0
C267 C 0.29225 0.88727 0.29692 0.0
C268 C 0.31485 0.84965 0.28551 0.0
C269 C 0.27267 0.77885 0.29351 0.0
C270 C 0.20589 0.74507 0.31022 0.0
H271 H 0.20254 0.09282 0.8894 0.0
H272 H 0.26724 0.15429 0.01585 0.0
H273 H 0.38622 0.22057 0.99012 0.0
H274 H 0.32727 0.07133 0.86053 0.0
H275 H 0.34222 0.10443 0.8071 0.0
H276 H 0.26097 0.06548 0.83404 0.0
H277 H 0.27127 0.17403 0.81892 0.0
H278 H 0.35246 0.21303 0.79177 0.0
H279 H 0.34484 0.25421 0.83473 0.0
H280 H 0.49671 0.27439 0.95333 0.0
H281 H 0.5958 0.31708 0.90579 0.0
H282 H 0.46422 0.22156 0.80197 0.0
C283 C 0.24195 0.12135 0.91135 0.0
C284 C 0.22561 0.11839 0.95465 0.0
C285 C 0.27848 0.15545 0.98262 0.0
C286 C 0.34634 0.19347 0.96832 0.0
C287 C 0.36094 0.1941 0.92587 0.0
C288 C 0.31069 0.15952 0.89755 0.0
C289 C 0.34148 0.16708 0.85385 0.0
C290 C 0.31649 0.09796 0.83796 0.0
C291 C 0.32663 0.20432 0.82299 0.0
C292 C 0.41637 0.21025 0.86251 0.0
C293 C 0.42603 0.22536 0.90428 0.0
C294 C 0.49002 0.26331 0.92045 0.0
C295 C 0.54605 0.28707 0.89317 0.0
C296 C 0.53794 0.2727 0.85013 0.0
C297 C 0.47206 0.23364 0.83465 0.0
H298 H 0.0982 0.2263 0.47115 0.0
H299 H 0.15871 0.13613 0.38616 0.0
H300 H 0.20836 0.23381 0.33535 0.0
H301 H 0.05133 0.29346 0.38909 0.0
H302 H 0.08114 0.3686 0.41661 0.0
H303 H 0.04946 0.29097 0.44568 0.0
H304 H 0.16223 0.35192 0.48341 0.0
H305 H 0.19395 0.42969 0.45472 0.0
H306 H 0.2412 0.39651 0.45251 0.0
H307 H 0.26262 0.34785 0.29796 0.0
H308 H 0.3107 0.46521 0.27578 0.0
H309 H 0.20052 0.47228 0.38039 0.0
C310 C 0.12197 0.22727 0.44184 0.0
C311 C 0.12544 0.17441 0.43258 0.0
C312 C 0.15584 0.17654 0.39371 0.0
C313 C 0.18399 0.2316 0.3647 0.0
C314 C 0.17973 0.28308 0.37474 0.0
C315 C 0.14868 0.28086 0.41214 0.0
C316 C 0.15074 0.34245 0.41546 0.0
C317 C 0.07889 0.32266 0.41677 0.0
C318 C 0.18935 0.3825 0.45378 0.0
C319 C 0.18964 0.38068 0.37471 0.0
C320 C 0.20612 0.34587 0.3516 0.0
C321 C 0.2479 0.37455 0.31497 0.0
C322 C 0.27404 0.44086 0.30199 0.0
C323 C 0.25685 0.47687 0.3249 0.0
C324 C 0.21333 0.44561 0.36142 0.0
H325 H 0.98728 0.19708 0.92916 0.0
H326 H 0.86687 0.01167 0.86241 0.0
H327 H 0.80979 0.05286 0.82787 0.0
H328 H 0.85874 0.21128 0.95102 0.0
H329 H 0.91135 0.30213 0.94375 0.0
H330 H 0.94811 0.2616 0.95948 0.0
H331 H 0.03464 0.32017 0.89548 0.0
H332 H -0.00178 0.36118 0.87966 0.0
H333 H 0.00448 0.3105 0.84341 0.0
H334 H 0.75655 0.10883 0.80677 0.0
H335 H 0.71449 0.17666 0.79987 0.0
H336 H 0.87166 0.32649 0.87839 0.0
C337 C 0.94979 0.16559 0.90672 0.0
C338 C 0.93172 0.1011 0.89853 0.0
C339 C 0.88178 0.06129 0.86924 0.0
C340 C 0.84909 0.08431 0.84935 0.0
C341 C 0.86713 0.14752 0.8588 0.0
C342 C 0.91674 0.18783 0.88655 0.0
C343 C 0.92409 0.252 0.89315 0.0
C344 C 0.90968 0.25699 0.9396 0.0
C345 C 0.99455 0.31467 0.87695 0.0
C346 C 0.86935 0.24046 0.86595 0.0
C347 C 0.83748 0.18027 0.84598 0.0
C348 C 0.78225 0.15681 0.82146 0.0
C349 C 0.75895 0.19578 0.81745 0.0
C350 C 0.79136 0.25778 0.83733 0.0
C351 C 0.84713 0.2801 0.86191 0.0
H352 H 0.75599 0.83316 0.48494 0.0
H353 H 0.89975 0.03137 0.42242 0.0
H354 H 0.82033 -0.00091 0.36612 0.0
H355 H 0.69181 0.73762 0.38983 0.0
H356 H 0.60641 0.68104 0.41248 0.0
H357 H 0.67711 0.71823 0.44569 0.0
H358 H 0.62871 0.76656 0.49103 0.0
H359 H 0.55786 0.72929 0.45814 0.0
H360 H 0.61014 0.81882 0.46603 0.0
H361 H 0.71999 0.94647 0.31883 0.0
H362 H 0.60719 0.87996 0.28776 0.0
H363 H 0.53277 0.71783 0.38163 0.0
C364 C 0.77124 0.86966 0.45923 0.0
C365 C 0.83408 0.93475 0.45814 0.0
C366 C 0.85177 0.9811 0.42397 0.0
C367 C 0.80713 0.96315 0.39172 0.0
C368 C 0.74524 0.89856 0.39395 0.0
C369 C 0.7275 0.85263 0.4269 0.0
C370 C 0.65678 0.78788 0.42353 0.0
C371 C 0.65815 0.72764 0.41751 0.0
C372 C 0.61068 0.77494 0.46195 0.0
C373 C 0.63665 0.80505 0.38419 0.0
C374 C 0.68837 0.86867 0.36705 0.0
C375 C 0.67951 0.89622 0.33168 0.0
C376 C 0.61565 0.85815 0.31407 0.0
C377 C 0.56207 0.79367 0.33203 0.0
C378 C 0.57332 0.76679 0.36704 0.0
H379 H 0.85183 0.71068 0.99225 0.0
H380 H 0.99681 0.87682 0.90377 0.0
H381 H 0.96192 0.7957 0.84813 0.0
H382 H 0.87854 0.59527 0.95696 0.0
H383 H 0.79109 0.52183 0.96416 0.0
H384 H 0.82364 0.59306 0.99632 0.0
H385 H 0.7301 0.60178 0.9732 0.0
H386 H 0.69669 0.52999 0.94135 0.0
H387 H 0.72014 0.60858 0.91803 0.0
H388 H 0.91701 0.6951 0.80343 0.0
H389 H 0.86025 0.58377 0.77233 0.0
H390 H 0.74296 0.48416 0.8895 0.0
C391 C 0.87552 0.73029 0.96102 0.0
C392 C 0.92699 0.8003 0.95242 0.0
C393 C 0.95708 0.82353 0.91115 0.0
C394 C 0.93773 0.77779 0.87934 0.0
C395 C 0.88804 0.70898 0.8892 0.0
C396 C 0.85686 0.6854 0.92895 0.0
C397 C 0.8062 0.60888 0.93176 0.0
C398 C 0.82609 0.57797 0.96422 0.0
C399 C 0.734 0.58598 0.94166 0.0
C400 C 0.81416 0.59298 0.8875 0.0
C401 C 0.86161 0.65136 0.86341 0.0
C402 C 0.87892 0.6492 0.82183 0.0
C403 C 0.84606 0.58581 0.80429 0.0
C404 C 0.79605 0.52555 0.82811 0.0
C405 C 0.78069 0.52941 0.87041 0.0
loop_
_geom_bond_atom_site_label_1
_geom_bond_atom_site_label_2
_geom_bond_distance
_geom_bond_site_symmetry_2
_ccdc_geom_bond_type
Zn0 O6 1.969 . S
Zn0 O7 1.965 1_565 S
Zn0 O11 2.025 1_554 S
Zn0 O16 1.969 1_455 S
Zn1 O8 1.969 . S
Zn1 O14 1.969 . S
Zn1 O15 1.965 1_446 S
Zn1 O17 2.024 1_556 S
C2 O3 1.229 . S
C2 O11 1.058 1_655 S
O3 C2 1.229 . S
C4 O5 1.229 . S
C4 O17 1.058 . S
O5 C4 1.229 . S
O6 Zn0 1.969 . S
O6 C9 1.267 . S
O7 Zn0 1.965 1_545 S
O7 C18 1.260 1_554 S
O8 Zn1 1.969 . S
O8 C18 1.258 . S
C9 O6 1.267 . S
C9 O10 1.228 . S
O10 C9 1.228 . S
O11 Zn0 2.025 1_556 S
O11 C2 1.058 1_455 S
C12 O13 1.228 . S
C12 O14 1.267 1_655 S
O13 C12 1.228 . S
O14 Zn1 1.969 . S
O14 C12 1.267 1_455 S
O15 Zn1 1.965 1_664 S
O15 C19 1.260 . S
O16 Zn0 1.969 1_655 S
O16 C19 1.258 . S
O17 Zn1 2.024 1_554 S
O17 C4 1.058 . S
C18 O7 1.260 1_556 S
C18 O8 1.258 . S
C19 O15 1.260 . S
C19 O16 1.258 . S
Zn20 O26 1.969 1_545 S
Zn20 O27 1.965 1_545 S
Zn20 O31 2.024 . S
Zn20 O36 1.969 . S
Zn21 O28 1.969 1_545 S
Zn21 O34 1.969 . S
Zn21 O35 1.965 1_655 S
Zn21 O37 2.024 1_545 S
C22 O23 1.229 . S
C22 O31 1.058 . S
O23 C22 1.229 . S
C24 O25 1.229 . S
C24 O37 1.058 . S
O25 C24 1.229 . S
O26 Zn20 1.969 1_565 S
O26 C29 1.267 . S
O27 Zn20 1.965 1_565 S
O27 C38 1.260 1_455 S
O28 Zn21 1.969 1_565 S
O28 C38 1.258 . S
C29 O26 1.267 . S
C29 O30 1.228 . S
O30 C29 1.228 . S
O31 Zn20 2.024 . S
O31 C22 1.058 . S
C32 O33 1.228 . S
C32 O34 1.267 . S
O33 C32 1.228 . S
O34 Zn21 1.969 . S
O34 C32 1.267 . S
O35 Zn21 1.965 1_455 S
O35 C39 1.260 . S
O36 Zn20 1.969 . S
O36 C39 1.258 . S
O37 Zn21 2.024 1_565 S
O37 C24 1.058 . S
C38 O27 1.260 1_655 S
C38 O28 1.258 . S
C39 O35 1.260 . S
C39 O36 1.258 . S
Zn40 O46 1.920 . S
Zn40 O52 1.898 . S
Zn40 O55 1.905 . S
Zn41 O49 1.905 . S
Zn41 O50 1.898 . S
Zn41 O58 1.920 . S
Zn42 O45 2.080 . S
Zn42 O48 2.114 . S
Zn42 O51 2.120 . S
Zn42 O53 2.120 . S
Zn42 O54 2.114 . S
Zn42 O57 2.080 . S
C43 O48 1.166 . S
C43 O49 1.182 . S
C44 O50 1.167 . S
C44 O51 1.299 . S
O45 Zn42 2.080 . S
O45 C59 1.305 . S
O46 Zn40 1.920 . S
O46 C59 1.234 . S
C47 O52 1.167 . S
C47 O53 1.299 . S
O48 Zn42 2.114 . S
O48 C43 1.166 . S
O49 Zn41 1.905 . S
O49 C43 1.182 . S
O50 Zn41 1.898 . S
O50 C44 1.167 . S
O51 Zn42 2.120 . S
O51 C44 1.299 . S
O52 Zn40 1.898 . S
O52 C47 1.167 . S
O53 Zn42 2.120 . S
O53 C47 1.299 . S
O54 Zn42 2.114 . S
O54 C56 1.166 . S
O55 Zn40 1.905 . S
O55 C56 1.182 . S
C56 O54 1.166 . S
C56 O55 1.182 . S
O57 Zn42 2.080 . S
O57 C60 1.305 . S
O58 Zn41 1.920 . S
O58 C60 1.234 . S
C59 O45 1.305 . S
C59 O46 1.234 . S
C60 O57 1.305 . S
C60 O58 1.234 . S
Zn61 O67 1.920 . S
Zn61 O73 1.898 . S
Zn61 O76 1.905 . S
Zn62 O70 1.905 . S
Zn62 O71 1.898 . S
Zn62 O79 1.920 . S
Zn63 O66 2.080 . S
Zn63 O69 2.114 . S
Zn63 O72 2.120 . S
Zn63 O74 2.120 . S
Zn63 O75 2.114 . S
Zn63 O78 2.080 . S
C64 O69 1.166 . S
C64 O70 1.182 . S
C65 O71 1.167 . S
C65 O72 1.299 . S
O66 Zn63 2.080 . S
O66 C80 1.305 . S
O67 Zn61 1.920 . S
O67 C80 1.234 . S
C68 O73 1.167 . S
C68 O74 1.299 . S
O69 Zn63 2.114 . S
O69 C64 1.166 . S
O70 Zn62 1.905 . S
O70 C64 1.182 . S
O71 Zn62 1.898 . S
O71 C65 1.167 . S
O72 Zn63 2.120 . S
O72 C65 1.299 . S
O73 Zn61 1.898 . S
O73 C68 1.167 . S
O74 Zn63 2.120 . S
O74 C68 1.299 . S
O75 Zn63 2.114 . S
O75 C77 1.166 . S
O76 Zn61 1.905 . S
O76 C77 1.182 . S
C77 O75 1.166 . S
C77 O76 1.182 . S
O78 Zn63 2.080 . S
O78 C81 1.305 . S
O79 Zn62 1.920 . S
O79 C81 1.234 . S
C80 O66 1.305 . S
C80 O67 1.234 . S
C81 O78 1.305 . S
C81 O79 1.234 . S
H82 C94 0.930 . S
H83 C96 0.930 . S
H84 C97 0.930 . S
H85 C101 0.959 . S
H86 C101 0.959 . S
H87 C101 0.961 . S
H88 C102 0.960 . S
H89 C102 0.961 . S
H90 C102 0.959 . S
H91 C105 0.929 . S
H92 C106 0.931 . S
H93 C108 0.930 . S
C94 H82 0.930 . S
C94 C95 1.399 . S
C94 C99 1.399 . S
C95 C94 1.399 . S
C95 C96 1.376 . S
C96 H83 0.930 . S
C96 C95 1.376 . S
C96 C97 1.388 . S
C97 H84 0.930 . S
C97 C96 1.388 . S
C97 C98 1.390 . S
C98 C97 1.390 . S
C98 C99 1.394 . S
C98 C104 1.465 . S
C99 C94 1.399 . S
C99 C98 1.394 . S
C99 C100 1.516 . S
C100 C99 1.516 . S
C100 C101 1.502 . S
C100 C102 1.561 . S
C100 C103 1.526 . S
C101 H85 0.959 . S
C101 H86 0.959 . S
C101 H87 0.961 . S
C101 C100 1.502 . S
C102 H88 0.960 . S
C102 H89 0.961 . S
C102 H90 0.959 . S
C102 C100 1.561 . S
C103 C100 1.526 . S
C103 C104 1.396 . S
C103 C108 1.390 . S
C104 C98 1.465 . S
C104 C103 1.396 . S
C104 C105 1.399 . S
C105 H91 0.929 . S
C105 C104 1.399 . S
C105 C106 1.385 . S
C106 H92 0.931 . S
C106 C105 1.385 . S
C106 C107 1.389 . S
C107 C106 1.389 . S
C107 C108 1.387 . S
C108 H93 0.930 . S
C108 C103 1.390 . S
C108 C107 1.387 . S
H109 C121 0.930 . S
H110 C123 0.930 . S
H111 C124 0.930 . S
H112 C128 0.959 . S
H113 C128 0.959 . S
H114 C128 0.961 . S
H115 C129 0.960 . S
H116 C129 0.961 . S
H117 C129 0.959 . S
H118 C132 0.929 . S
H119 C133 0.931 . S
H120 C135 0.930 . S
C121 H109 0.930 . S
C121 C122 1.399 . S
C121 C126 1.399 . S
C122 C121 1.399 . S
C122 C123 1.376 . S
C123 H110 0.930 . S
C123 C122 1.376 . S
C123 C124 1.388 . S
C124 H111 0.930 . S
C124 C123 1.388 . S
C124 C125 1.390 . S
C125 C124 1.390 . S
C125 C126 1.394 . S
C125 C131 1.465 . S
C126 C121 1.399 . S
C126 C125 1.394 . S
C126 C127 1.516 . S
C127 C126 1.516 . S
C127 C128 1.502 . S
C127 C129 1.561 . S
C127 C130 1.526 . S
C128 H112 0.959 . S
C128 H113 0.959 . S
C128 H114 0.961 . S
C128 C127 1.502 . S
C129 H115 0.960 . S
C129 H116 0.961 . S
C129 H117 0.959 . S
C129 C127 1.561 . S
C130 C127 1.526 . S
C130 C131 1.396 . S
C130 C135 1.390 . S
C131 C125 1.465 . S
C131 C130 1.396 . S
C131 C132 1.399 . S
C132 H118 0.929 . S
C132 C131 1.399 . S
C132 C133 1.385 . S
C133 H119 0.931 . S
C133 C132 1.385 . S
C133 C134 1.389 . S
C134 C133 1.389 . S
C134 C135 1.387 . S
C135 H120 0.930 . S
C135 C130 1.390 . S
C135 C134 1.387 . S
H136 C148 0.930 . S
H137 C150 0.930 . S
H138 C151 0.930 . S
H139 C155 0.959 . S
H140 C155 0.959 . S
H141 C155 0.961 . S
H142 C156 0.960 . S
H143 C156 0.961 . S
H144 C156 0.959 . S
H145 C159 0.929 . S
H146 C160 0.931 . S
H147 C162 0.930 . S
C148 H136 0.930 . S
C148 C149 1.399 . S
C148 C153 1.399 . S
C149 C148 1.399 . S
C149 C150 1.376 . S
C150 H137 0.930 . S
C150 C149 1.376 . S
C150 C151 1.388 . S
C151 H138 0.930 . S
C151 C150 1.388 . S
C151 C152 1.390 . S
C152 C151 1.390 . S
C152 C153 1.394 . S
C152 C158 1.465 . S
C153 C148 1.399 . S
C153 C152 1.394 . S
C153 C154 1.516 . S
C154 C153 1.516 . S
C154 C155 1.502 . S
C154 C156 1.561 . S
C154 C157 1.526 . S
C155 H139 0.959 . S
C155 H140 0.959 . S
C155 H141 0.961 . S
C155 C154 1.502 . S
C156 H142 0.960 . S
C156 H143 0.961 . S
C156 H144 0.959 . S
C156 C154 1.561 . S
C157 C154 1.526 . S
C157 C158 1.396 . S
C157 C162 1.390 . S
C158 C152 1.465 . S
C158 C157 1.396 . S
C158 C159 1.399 . S
C159 H145 0.929 . S
C159 C158 1.399 . S
C159 C160 1.385 . S
C160 H146 0.931 . S
C160 C159 1.385 . S
C160 C161 1.389 . S
C161 C160 1.389 . S
C161 C162 1.387 . S
C162 H147 0.930 . S
C162 C157 1.390 . S
C162 C161 1.387 . S
H163 C175 0.930 . S
H164 C177 0.930 . S
H165 C178 0.930 . S
H166 C182 0.959 . S
H167 C182 0.959 . S
H168 C182 0.961 . S
H169 C183 0.960 . S
H170 C183 0.961 . S
H171 C183 0.959 . S
H172 C186 0.929 . S
H173 C187 0.931 . S
H174 C189 0.930 . S
C175 H163 0.930 . S
C175 C176 1.399 . S
C175 C180 1.399 . S
C176 C175 1.399 . S
C176 C177 1.376 . S
C177 H164 0.930 . S
C177 C176 1.376 . S
C177 C178 1.388 . S
C178 H165 0.930 . S
C178 C177 1.388 . S
C178 C179 1.390 . S
C179 C178 1.390 . S
C179 C180 1.394 . S
C179 C185 1.465 . S
C180 C175 1.399 . S
C180 C179 1.394 . S
C180 C181 1.516 . S
C181 C180 1.516 . S
C181 C182 1.502 . S
C181 C183 1.561 . S
C181 C184 1.526 . S
C182 H166 0.959 . S
C182 H167 0.959 . S
C182 H168 0.961 . S
C182 C181 1.502 . S
C183 H169 0.960 . S
C183 H170 0.961 . S
C183 H171 0.959 . S
C183 C181 1.561 . S
C184 C181 1.526 . S
C184 C185 1.396 . S
C184 C189 1.390 . S
C185 C179 1.465 . S
C185 C184 1.396 . S
C185 C186 1.399 . S
C186 H172 0.929 . S
C186 C185 1.399 . S
C186 C187 1.385 . S
C187 H173 0.931 . S
C187 C186 1.385 . S
C187 C188 1.389 . S
C188 C187 1.389 . S
C188 C189 1.387 . S
C189 H174 0.930 . S
C189 C184 1.390 . S
C189 C188 1.387 . S
H190 C202 0.923 1_545 S
H191 C204 0.930 . S
H192 C205 0.930 . S
H193 C209 0.959 1_565 S
H194 C209 0.959 . S
H195 C209 0.961 . S
H196 C210 0.959 1_545 S
H197 C210 0.961 . S
H198 C210 0.959 . S
H199 C213 0.929 . S
H200 C214 0.931 . S
H201 C216 0.930 . S
C202 H190 0.923 1_565 S
C202 C203 1.399 . S
C202 C207 1.399 . S
C203 C202 1.399 . S
C203 C204 1.376 . S
C204 H191 0.930 . S
C204 C203 1.376 . S
C204 C205 1.388 . S
C205 H192 0.930 . S
C205 C204 1.388 . S
C205 C206 1.390 . S
C206 C205 1.390 . S
C206 C207 1.394 . S
C206 C212 1.465 . S
C207 C202 1.399 . S
C207 C206 1.394 . S
C207 C208 1.516 . S
C208 C207 1.516 . S
C208 C209 1.502 1_565 S
C208 C210 1.561 . S
C208 C211 1.526 . S
C209 H193 0.959 1_545 S
C209 H194 0.959 . S
C209 H195 0.961 . S
C209 C208 1.502 1_545 S
C210 H196 0.959 1_565 S
C210 H197 0.961 . S
C210 H198 0.959 . S
C210 C208 1.561 . S
C211 C208 1.526 . S
C211 C212 1.396 . S
C211 C216 1.390 . S
C212 C206 1.465 . S
C212 C211 1.396 . S
C212 C213 1.399 . S
C213 H199 0.929 . S
C213 C212 1.399 . S
C213 C214 1.385 . S
C214 H200 0.931 . S
C214 C213 1.385 . S
C214 C215 1.389 . S
C215 C214 1.389 . S
C215 C216 1.387 . S
C216 H201 0.930 . S
C216 C211 1.390 . S
C216 C215 1.387 . S
H217 C229 0.930 . S
H218 C231 0.930 . S
H219 C232 0.930 . S
H220 C236 0.959 . S
H221 C236 0.959 . S
H222 C236 0.961 . S
H223 C237 0.960 . S
H224 C237 0.961 . S
H225 C237 0.959 . S
H226 C240 0.929 . S
H227 C241 0.931 . S
H228 C243 0.930 . S
C229 H217 0.930 . S
C229 C230 1.399 . S
C229 C234 1.399 . S
C230 C229 1.399 . S
C230 C231 1.376 . S
C231 H218 0.930 . S
C231 C230 1.376 . S
C231 C232 1.388 . S
C232 H219 0.930 . S
C232 C231 1.388 . S
C232 C233 1.390 . S
C233 C232 1.390 . S
C233 C234 1.394 . S
C233 C239 1.465 . S
C234 C229 1.399 . S
C234 C233 1.394 . S
C234 C235 1.516 . S
C235 C234 1.516 . S
C235 C236 1.502 . S
C235 C237 1.561 . S
C235 C238 1.526 . S
C236 H220 0.959 . S
C236 H221 0.959 . S
C236 H222 0.961 . S
C236 C235 1.502 . S
C237 H223 0.960 . S
C237 H224 0.961 . S
C237 H225 0.959 . S
C237 C235 1.561 . S
C238 C235 1.526 . S
C238 C239 1.396 . S
C238 C243 1.390 . S
C239 C233 1.465 . S
C239 C238 1.396 . S
C239 C240 1.399 . S
C240 H226 0.929 . S
C240 C239 1.399 . S
C240 C241 1.385 . S
C241 H227 0.931 . S
C241 C240 1.385 . S
C241 C242 1.389 . S
C242 C241 1.389 . S
C242 C243 1.387 . S
C243 H228 0.930 . S
C243 C238 1.390 . S
C243 C242 1.387 . S
H244 C256 0.930 . S
H245 C258 0.930 1_545 S
H246 C259 0.930 . S
H247 C263 0.959 . S
H248 C263 0.959 . S
H249 C263 0.961 . S
H250 C264 0.960 . S
H251 C264 0.961 . S
H252 C264 0.959 . S
H253 C267 0.929 . S
H254 C268 0.931 . S
H255 C270 0.930 . S
C256 H244 0.930 . S
C256 C257 1.399 . S
C256 C261 1.399 . S
C257 C256 1.399 . S
C257 C258 1.376 . S
C258 H245 0.930 1_565 S
C258 C257 1.376 . S
C258 C259 1.388 . S
C259 H246 0.930 . S
C259 C258 1.388 . S
C259 C260 1.390 . S
C260 C259 1.390 . S
C260 C261 1.394 . S
C260 C266 1.465 . S
C261 C256 1.399 . S
C261 C260 1.394 . S
C261 C262 1.516 . S
C262 C261 1.516 . S
C262 C263 1.502 . S
C262 C264 1.561 . S
C262 C265 1.526 . S
C263 H247 0.959 . S
C263 H248 0.959 . S
C263 H249 0.961 . S
C263 C262 1.502 . S
C264 H250 0.960 . S
C264 H251 0.961 . S
C264 H252 0.959 . S
C264 C262 1.561 . S
C265 C262 1.526 . S
C265 C266 1.396 . S
C265 C270 1.390 . S
C266 C260 1.465 . S
C266 C265 1.396 . S
C266 C267 1.399 . S
C267 H253 0.929 . S
C267 C266 1.399 . S
C267 C268 1.385 . S
C268 H254 0.931 . S
C268 C267 1.385 . S
C268 C269 1.389 . S
C269 C268 1.389 . S
C269 C270 1.387 . S
C270 H255 0.930 . S
C270 C265 1.390 . S
C270 C269 1.387 . S
H271 C283 0.930 . S
H272 C285 0.930 1_554 S
H273 C286 0.930 . S
H274 C290 0.959 . S
H275 C290 0.959 . S
H276 C290 0.961 . S
H277 C291 0.960 . S
H278 C291 0.961 . S
H279 C291 0.959 . S
H280 C294 0.929 . S
H281 C295 0.931 . S
H282 C297 0.930 . S
C283 H271 0.930 . S
C283 C284 1.399 . S
C283 C288 1.399 . S
C284 C283 1.399 . S
C284 C285 1.376 . S
C285 H272 0.930 1_556 S
C285 C284 1.376 . S
C285 C286 1.388 . S
C286 H273 0.930 . S
C286 C285 1.388 . S
C286 C287 1.390 . S
C287 C286 1.390 . S
C287 C288 1.394 . S
C287 C293 1.465 . S
C288 C283 1.399 . S
C288 C287 1.394 . S
C288 C289 1.516 . S
C289 C288 1.516 . S
C289 C290 1.502 . S
C289 C291 1.561 . S
C289 C292 1.526 . S
C290 H274 0.959 . S
C290 H275 0.959 . S
C290 H276 0.961 . S
C290 C289 1.502 . S
C291 H277 0.960 . S
C291 H278 0.961 . S
C291 H279 0.959 . S
C291 C289 1.561 . S
C292 C289 1.526 . S
C292 C293 1.396 . S
C292 C297 1.390 . S
C293 C287 1.465 . S
C293 C292 1.396 . S
C293 C294 1.399 . S
C294 H280 0.929 . S
C294 C293 1.399 . S
C294 C295 1.385 . S
C295 H281 0.931 . S
C295 C294 1.385 . S
C295 C296 1.389 . S
C296 C295 1.389 . S
C296 C297 1.387 . S
C297 H282 0.930 . S
C297 C292 1.390 . S
C297 C296 1.387 . S
H298 C310 0.930 . S
H299 C312 0.930 . S
H300 C313 0.930 . S
H301 C317 0.959 . S
H302 C317 0.959 . S
H303 C317 0.961 . S
H304 C318 0.960 . S
H305 C318 0.961 . S
H306 C318 0.959 . S
H307 C321 0.929 . S
H308 C322 0.931 . S
H309 C324 0.930 . S
C310 H298 0.930 . S
C310 C311 1.399 . S
C310 C315 1.399 . S
C311 C310 1.399 . S
C311 C312 1.376 . S
C312 H299 0.930 . S
C312 C311 1.376 . S
C312 C313 1.388 . S
C313 H300 0.930 . S
C313 C312 1.388 . S
C313 C314 1.390 . S
C314 C313 1.390 . S
C314 C315 1.394 . S
C314 C320 1.465 . S
C315 C310 1.399 . S
C315 C314 1.394 . S
C315 C316 1.516 . S
C316 C315 1.516 . S
C316 C317 1.502 . S
C316 C318 1.561 . S
C316 C319 1.526 . S
C317 H301 0.959 . S
C317 H302 0.959 . S
C317 H303 0.961 . S
C317 C316 1.502 . S
C318 H304 0.960 . S
C318 H305 0.961 . S
C318 H306 0.959 . S
C318 C316 1.561 . S
C319 C316 1.526 . S
C319 C320 1.396 . S
C319 C324 1.390 . S
C320 C314 1.465 . S
C320 C319 1.396 . S
C320 C321 1.399 . S
C321 H307 0.929 . S
C321 C320 1.399 . S
C321 C322 1.385 . S
C322 H308 0.931 . S
C322 C321 1.385 . S
C322 C323 1.389 . S
C323 C322 1.389 . S
C323 C324 1.387 . S
C324 H309 0.930 . S
C324 C319 1.390 . S
C324 C323 1.387 . S
H325 C337 0.930 . S
H326 C339 0.930 . S
H327 C340 0.930 . S
H328 C344 0.959 . S
H329 C344 0.959 . S
H330 C344 0.961 . S
H331 C345 0.960 . S
H332 C345 0.961 . S
H333 C345 0.959 . S
H334 C348 0.929 . S
H335 C349 0.931 . S
H336 C351 0.930 . S
C337 H325 0.930 . S
C337 C338 1.399 . S
C337 C342 1.399 . S
C338 C337 1.399 . S
C338 C339 1.376 . S
C339 H326 0.930 . S
C339 C338 1.376 . S
C339 C340 1.388 . S
C340 H327 0.930 . S
C340 C339 1.388 . S
C340 C341 1.390 . S
C341 C340 1.390 . S
C341 C342 1.394 . S
C341 C347 1.465 . S
C342 C337 1.399 . S
C342 C341 1.394 . S
C342 C343 1.516 . S
C343 C342 1.516 . S
C343 C344 1.502 . S
C343 C345 1.561 . S
C343 C346 1.526 . S
C344 H328 0.959 . S
C344 H329 0.959 . S
C344 H330 0.961 . S
C344 C343 1.502 . S
C345 H331 0.960 . S
C345 H332 0.961 . S
C345 H333 0.959 . S
C345 C343 1.561 . S
C346 C343 1.526 . S
C346 C347 1.396 . S
C346 C351 1.390 . S
C347 C341 1.465 . S
C347 C346 1.396 . S
C347 C348 1.399 . S
C348 H334 0.929 . S
C348 C347 1.399 . S
C348 C349 1.385 . S
C349 H335 0.931 . S
C349 C348 1.385 . S
C349 C350 1.389 . S
C350 C349 1.389 . S
C350 C351 1.387 . S
C351 H336 0.930 . S
C351 C346 1.390 . S
C351 C350 1.387 . S
H352 C364 0.930 . S
H353 C366 0.930 1_545 S
H354 C367 0.930 . S
H355 C371 0.959 . S
H356 C371 0.959 . S
H357 C371 0.961 . S
H358 C372 0.960 . S
H359 C372 0.961 . S
H360 C372 0.959 . S
H361 C375 0.929 . S
H362 C376 0.931 . S
H363 C378 0.930 . S
C364 H352 0.930 . S
C364 C365 1.399 . S
C364 C369 1.399 . S
C365 C364 1.399 . S
C365 C366 1.376 . S
C366 H353 0.930 1_565 S
C366 C365 1.376 . S
C366 C367 1.388 . S
C367 H354 0.930 . S
C367 C366 1.388 . S
C367 C368 1.390 . S
C368 C367 1.390 . S
C368 C369 1.394 . S
C368 C374 1.465 . S
C369 C364 1.399 . S
C369 C368 1.394 . S
C369 C370 1.516 . S
C370 C369 1.516 . S
C370 C371 1.502 . S
C370 C372 1.561 . S
C370 C373 1.526 . S
C371 H355 0.959 . S
C371 H356 0.959 . S
C371 H357 0.961 . S
C371 C370 1.502 . S
C372 H358 0.960 . S
C372 H359 0.961 . S
C372 H360 0.959 . S
C372 C370 1.561 . S
C373 C370 1.526 . S
C373 C374 1.396 . S
C373 C378 1.390 . S
C374 C368 1.465 . S
C374 C373 1.396 . S
C374 C375 1.399 . S
C375 H361 0.929 . S
C375 C374 1.399 . S
C375 C376 1.385 . S
C376 H362 0.931 . S
C376 C375 1.385 . S
C376 C377 1.389 . S
C377 C376 1.389 . S
C377 C378 1.387 . S
C378 H363 0.930 . S
C378 C373 1.390 . S
C378 C377 1.387 . S
H379 C391 0.930 . S
H380 C393 0.930 . S
H381 C394 0.930 . S
H382 C398 0.959 . S
H383 C398 0.959 . S
H384 C398 0.961 . S
H385 C399 0.960 . S
H386 C399 0.961 . S
H387 C399 0.959 . S
H388 C402 0.929 . S
H389 C403 0.931 . S
H390 C405 0.930 . S
C391 H379 0.930 . S
C391 C392 1.399 . S
C391 C396 1.399 . S
C392 C391 1.399 . S
C392 C393 1.376 . S
C393 H380 0.930 . S
C393 C392 1.376 . S
C393 C394 1.388 . S
C394 H381 0.930 . S
C394 C393 1.388 . S
C394 C395 1.390 . S
C395 C394 1.390 . S
C395 C396 1.394 . S
C395 C401 1.465 . S
C396 C391 1.399 . S
C396 C395 1.394 . S
C396 C397 1.516 . S
C397 C396 1.516 . S
C397 C398 1.502 . S
C397 C399 1.561 . S
C397 C400 1.526 . S
C398 H382 0.959 . S
C398 H383 0.959 . S
C398 H384 0.961 . S
C398 C397 1.502 . S
C399 H385 0.960 . S
C399 H386 0.961 . S
C399 H387 0.959 . S
C399 C397 1.561 . S
C400 C397 1.526 . S
C400 C401 1.396 . S
C400 C405 1.390 . S
C401 C395 1.465 . S
C401 C400 1.396 . S
C401 C402 1.399 . S
C402 H388 0.929 . S
C402 C401 1.399 . S
C402 C403 1.385 . S
C403 H389 0.931 . S
C403 C402 1.385 . S
C403 C404 1.389 . S
C404 C403 1.389 . S
C404 C405 1.387 . S
C405 H390 0.930 . S
C405 C400 1.390 . S
C405 C404 1.387 . S
C95 C9 1.396 . S
C107 C59 1.287 . S
C122 C22 1.251 . S
C134 C65 1.153 . S
C149 C4 1.307 . S
C161 C56 1.218 . S
C176 C32 1.542 . S
C188 C81 1.456 . S
C203 C19 1.805 . S
C215 C47 1.633 . S
C242 C64 1.689 . S
C230 C38 1.764 . S
C257 C29 1.415 . S
C269 C60 1.338 . S
C296 C77 1.599 . S
C284 C18 1.730 . S
C323 C44 1.695 . S
C311 C39 1.822 . S
C350 C80 1.371 . S
C338 C12 1.506 . S
C377 C43 1.203 . S
C365 C24 1.279 . S
C404 C68 1.179 . S
C392 C2 1.257 . S
