# Generated by pormake.
# Topology nia, (6,6)-cn, num edge types: 1
# Building blocks:
#     Node 0, Type 0, BuildingBlock: KUMBUR_clean_sbu_0, # of connection points: 6
#     Node 1, Type 0, BuildingBlock: KUMBUR_clean_sbu_0, # of connection points: 6
#     Node 2, Type 1, BuildingBlock: MIDCAF_clean_sbu_0, # of connection points: 6
#     Node 3, Type 1, BuildingBlock: MIDCAF_clean_sbu_0, # of connection points: 6
#     Edge 4, Type (0, 1), BuildingBlock: KIFKEQ_clean_linker_1, # of connection points: 2
#     Edge 5, Type (0, 1), BuildingBlock: KIFKEQ_clean_linker_1, # of connection points: 2
#     Edge 6, Type (0, 1), BuildingBlock: KIFKEQ_clean_linker_1, # of connection points: 2
#     Edge 7, Type (0, 1), BuildingBlock: KIFKEQ_clean_linker_1, # of connection points: 2
#     Edge 8, Type (0, 1), BuildingBlock: KIFKEQ_clean_linker_1, # of connection points: 2
#     Edge 9, Type (0, 1), BuildingBlock: KIFKEQ_clean_linker_1, # of connection points: 2
#     Edge 10, Type (0, 1), BuildingBlock: KIFKEQ_clean_linker_1, # of connection points: 2
#     Edge 11, Type (0, 1), BuildingBlock: KIFKEQ_clean_linker_1, # of connection points: 2
#     Edge 12, Type (0, 1), BuildingBlock: KIFKEQ_clean_linker_1, # of connection points: 2
#     Edge 13, Type (0, 1), BuildingBlock: KIFKEQ_clean_linker_1, # of connection points: 2
#     Edge 14, Type (0, 1), BuildingBlock: KIFKEQ_clean_linker_1, # of connection points: 2
#     Edge 15, Type (0, 1), BuildingBlock: KIFKEQ_clean_linker_1, # of connection points: 2
# Relax obj value: 0.169
# Max RMSD: 0.285
# Mean RMSD: 0.204
data_MOF--net-nia--node1-KUMBUR_clean_sbu_0--node2-MIDCAF_clean_sbu_0--edge1-KIFKEQ_clean_linker_1
_symmetry_space_group_name_H-M    P1
_symmetry_Int_Tables_number       1
_symmetry_cell_setting            triclinic
loop_
_symmetry_equiv_pos_as_xyz
'x, y, z'
_cell_length_a     28.312089
_cell_length_b     28.549618
_cell_length_c     33.30458
_cell_angle_alpha  90.040701
_cell_angle_beta   90.044459
_cell_angle_gamma 138.87421
loop_
_atom_site_label
_atom_site_type_symbol
_atom_site_fract_x
_atom_site_fract_y
_atom_site_fract_z
_atom_type_partial_charge
Tb0 Tb 0.02272 0.97701 0.05263 0.0
C1 C 0.0199 0.02675 0.87277 0.0
C2 C 0.1449 0.12787 0.85459 0.0
C3 C 0.05663 0.04207 0.80362 0.0
C4 C 0.09016 0.08704 0.88386 0.0
C5 C 1.002 0.00404 0.83242 0.0
C6 C 0.1281 0.10383 0.81464 0.0
C7 C 0.87692 0.91413 0.85092 0.0
N8 N 0.96842 0.99356 0.90114 0.0
C9 C 0.8973 0.93972 0.89036 0.0
C10 C 0.92952 0.94595 0.82185 0.0
Tb11 Tb 0.00646 0.04116 0.96473 0.0
N12 N 0.10352 0.11012 0.92238 0.0
C13 C 0.16977 0.17674 0.93262 0.0
C14 C 0.21375 0.19388 0.86574 0.0
C15 C 0.2259 0.21894 0.90475 0.0
H16 H 0.856 0.91505 0.91242 0.0
H17 H 0.2785 0.27085 0.9134 0.0
H18 H 0.1694 0.13424 0.79177 0.0
H19 H 0.82063 0.8703 0.84289 0.0
H20 H 0.18018 0.19744 0.9625 0.0
H21 H 0.74349 0.71982 0.07269 0.0
H22 H 0.25711 0.22702 0.84411 0.0
H23 H 0.14663 0.09715 0.12003 0.0
H24 H 0.85684 0.80992 0.03624 0.0
H25 H 0.15095 0.12507 0.19128 0.0
H26 H 0.04351 0.02582 0.7725 0.0
H27 H 0.73346 0.74414 0.14147 0.0
H28 H 0.79351 0.82646 0.20084 0.0
H29 H 0.91364 0.9268 0.79115 0.0
H30 H 0.90414 0.93696 0.23297 0.0
N31 N 0.91305 0.88728 0.08346 0.0
C32 C 0.85478 0.82233 0.06622 0.0
C33 C 0.78408 0.78439 0.12562 0.0
C34 C 0.84446 0.8494 0.14383 0.0
C35 C 0.78961 0.77043 0.08686 0.0
C36 C 0.90902 0.90016 0.12181 0.0
H37 H 0.03836 0.04861 0.23001 0.0
N38 N 0.0325 0.00794 0.11818 0.0
C39 C 0.09985 0.07965 0.17704 0.0
C40 C 0.97082 0.96306 0.13968 0.0
C41 C 0.09723 0.06362 0.13683 0.0
C42 C 0.03613 0.03654 0.19876 0.0
C43 C 0.97066 0.97643 0.1804 0.0
O44 O 0.10414 0.99306 0.07473 0.0
O45 O 0.0617 0.02552 0.99427 0.0
O46 O 0.9753 0.94877 0.94349 0.0
O47 O 0.96605 0.89796 1.003 0.0
O48 O 0.13707 0.06393 0.03594 0.0
O49 O 1.00079 0.8884 0.05862 0.0
O50 O 0.93665 0.04471 0.94957 0.0
O51 O 0.966 0.99152 0.02344 0.0
O52 O 0.05037 0.06972 0.0711 0.0
O53 O 0.08118 0.12663 0.00968 0.0
O54 O 0.89304 0.95852 0.98191 0.0
O55 O 0.04888 0.14095 0.95966 0.0
C56 C 0.1279 0.06819 0.99886 0.0
C57 C 0.06528 0.89604 0.10981 0.0
C58 C 0.09944 0.84805 0.14388 0.0
C59 C 0.10037 0.87803 0.1094 0.0
C60 C 0.06497 0.8388 0.17871 0.0
C61 C 0.03066 0.88472 0.14499 0.0
C62 C 0.03109 0.857 0.17919 0.0
C63 C 0.95619 0.89669 0.96371 0.0
C64 C 0.06381 0.92564 0.07367 0.0
C65 C 0.90582 0.92765 0.20187 0.0
C66 C 0.84276 0.86439 0.18358 0.0
C67 C 0.89976 0.94922 0.01817 0.0
C68 C 0.99361 0.14116 0.90616 0.0
C69 C 0.94313 0.13793 0.8952 0.0
C70 C 0.94361 0.15789 0.85604 0.0
C71 C 0.99229 0.1759 0.82772 0.0
C72 C 0.04683 0.16835 0.8784 0.0
C73 C 0.04452 0.18287 0.83916 0.0
C74 C 0.08099 0.12629 0.04955 0.0
C75 C 0.98921 0.11366 0.94555 0.0
H76 H 0.12666 0.88572 0.08226 0.0
H77 H 0.06428 0.81739 0.20586 0.0
H78 H 1.00283 0.8969 0.14609 0.0
H79 H 0.00453 0.84911 0.20621 0.0
H80 H 0.90529 0.12162 0.91757 0.0
H81 H 0.99169 0.18654 0.79673 0.0
H82 H 0.09046 0.17851 0.88671 0.0
H83 H 0.08394 0.20037 0.81759 0.0
Tb84 Tb 0.01249 0.04127 0.557 0.0
C85 C 0.99679 0.00286 0.37577 0.0
C86 C 0.87108 0.89829 0.3602 0.0
C87 C 0.94901 -0.00341 0.31285 0.0
C88 C 0.92948 0.93755 0.38692 0.0
C89 C 0.00796 0.03261 0.33825 0.0
C90 C 0.88071 0.92904 0.32356 0.0
C91 C 0.13514 0.12844 0.35285 0.0
N92 N 0.05197 0.0363 0.40152 0.0
C93 C 0.12122 0.09671 0.38985 0.0
C94 C 0.07813 0.0969 0.3272 0.0
Tb95 Tb 0.02288 0.98324 0.46276 0.0
N96 N 0.92239 0.91056 0.42294 0.0
C97 C 0.85934 0.8417 0.43259 0.0
C98 C 0.80542 0.82899 0.37082 0.0
C99 C 0.79994 0.80017 0.40686 0.0
H100 H 0.1654 0.12201 0.40984 0.0
H101 H 0.74971 0.74622 0.41509 0.0
H102 H 0.83612 0.90056 0.30303 0.0
H103 H 0.18974 0.17742 0.34427 0.0
H104 H 0.85391 0.81889 0.46053 0.0
H105 H 0.28444 0.29366 0.59681 0.0
H106 H 0.75917 0.79696 0.35115 0.0
H107 H 0.88142 0.90812 0.61711 0.0
H108 H 0.17696 0.21169 0.55452 0.0
H109 H 0.86985 0.86018 0.68302 0.0
H110 H 0.9561 0.01988 0.28454 0.0
H111 H 0.28808 0.25151 0.66011 0.0
H112 H 0.22613 0.1502 0.70801 0.0
H113 H 0.08901 0.12168 0.29863 0.0
H114 H 0.11355 0.02934 0.73032 0.0
N115 N 0.11841 0.12176 0.59275 0.0
C116 C 0.1769 0.19145 0.58172 0.0
C117 C 0.24064 0.21451 0.64132 0.0
C118 C 0.18053 0.14366 0.6529 0.0
C119 C 0.2385 0.23867 0.6058 0.0
C120 C 0.11902 0.0987 0.62815 0.0
H121 H 0.97865 0.92226 0.72253 0.0
N122 N 0.99567 0.99547 0.6191 0.0
C123 C 0.92239 0.90859 0.67164 0.0
C124 C 0.05526 0.03264 0.64168 0.0
C125 C 0.92907 0.93607 0.63449 0.0
C126 C 0.98399 0.9436 0.69377 0.0
C127 C 0.05143 0.00754 0.67935 0.0
O128 O 0.93521 0.02815 0.58295 0.0
O129 O 0.96688 0.99278 0.49863 0.0
O130 O 0.03989 0.06994 0.44934 0.0
O131 O 0.07777 0.12733 0.51146 0.0
O132 O 0.89643 0.95389 0.54351 0.0
O133 O 0.03879 0.13194 0.56546 0.0
O134 O 0.09896 0.9916 0.44104 0.0
O135 O 0.06708 0.03144 0.5208 0.0
O136 O 0.99614 0.95521 0.56956 0.0
O137 O 0.95472 0.89579 0.50795 0.0
O138 O 0.13857 0.06691 0.47833 0.0
O139 O 0.9897 0.88899 0.45218 0.0
C140 C 0.90098 0.94833 0.50581 0.0
C141 C 0.98491 0.12551 0.6228 0.0
C142 C 0.95515 0.16962 0.66604 0.0
C143 C 0.94792 0.14012 0.62926 0.0
C144 C 0.99869 0.18307 0.69639 0.0
C145 C 0.02803 0.13953 0.65364 0.0
C146 C 0.03459 0.16773 0.69023 0.0
C147 C 0.07224 0.12612 0.47173 0.0
C148 C 0.97875 0.09635 0.58391 0.0
C149 C 0.11451 0.04866 0.702 0.0
C150 C 0.17878 0.11728 0.68916 0.0
C151 C 0.13285 0.07376 0.51553 0.0
C152 C 0.05124 0.89702 0.39877 0.0
C153 C 0.09398 0.88865 0.39354 0.0
C154 C 0.09326 0.86308 0.35679 0.0
C155 C 0.04971 0.84732 0.3253 0.0
C156 C 0.00832 0.88046 0.3668 0.0
C157 C 0.00798 0.85628 0.33031 0.0
C158 C 0.96205 0.89811 0.54768 0.0
C159 C 0.05183 0.92292 0.43755 0.0
H160 H 0.91499 0.13009 0.60546 0.0
H161 H 0.0048 0.20534 0.72494 0.0
H162 H 0.05711 0.1293 0.64955 0.0
H163 H 0.06801 0.17819 0.71377 0.0
H164 H 0.12768 0.90214 0.41813 0.0
H165 H 0.0462 0.82618 0.29698 0.0
H166 H 0.97447 0.88546 0.37 0.0
H167 H 0.97435 0.84341 0.30593 0.0
Zn168 Zn 0.37696 0.68949 0.12598 0.0
Zn169 Zn 0.3788 0.67891 0.38302 0.0
Zn170 Zn 0.39058 0.68045 0.26331 0.0
C171 C 0.49989 0.74882 0.31842 0.0
C172 C 0.32396 0.56905 0.3154 0.0
O173 O 0.34349 0.71157 0.24816 0.0
O174 O 0.36207 0.7015 0.1868 0.0
C175 C 0.49303 0.75431 0.19767 0.0
O176 O 0.50293 0.75171 0.28018 0.0
O177 O 0.4385 0.71134 0.33299 0.0
O178 O 0.35725 0.62716 0.3322 0.0
O179 O 0.32683 0.57106 0.27721 0.0
O180 O 0.43221 0.72001 0.18211 0.0
O181 O 0.49528 0.75246 0.236 0.0
O182 O 0.32686 0.57838 0.23517 0.0
O183 O 0.35075 0.63448 0.18022 0.0
C184 C 0.32169 0.57706 0.19687 0.0
O185 O 0.34538 0.71174 0.2949 0.0
O186 O 0.33605 0.70866 0.36324 0.0
C187 C 0.33734 0.71471 0.21043 0.0
C188 C 0.3277 0.72005 0.32806 0.0
Zn189 Zn 0.63711 0.31526 0.83293 0.0
Zn190 Zn 0.64348 0.32418 0.68505 0.0
Zn191 Zn 0.64243 0.33213 0.75756 0.0
C192 C 0.70638 0.45736 0.70225 0.0
C193 C 0.50328 0.22503 0.70087 0.0
O194 O 0.68012 0.28933 0.77805 0.0
O195 O 0.65397 0.26088 0.84244 0.0
C196 C 0.73927 0.46343 0.81681 0.0
O197 O 0.71056 0.44209 0.73748 0.0
O198 O 0.67167 0.41091 0.67484 0.0
O199 O 0.54141 0.23226 0.67549 0.0
O200 O 0.53228 0.2623 0.73347 0.0
O201 O 0.71707 0.41909 0.84361 0.0
O202 O 0.71526 0.44189 0.78062 0.0
O203 O 0.53039 0.26503 0.77647 0.0
O204 O 0.53996 0.26564 0.84246 0.0
C205 C 0.50304 0.24778 0.81186 0.0
O206 O 0.68762 0.29722 0.73654 0.0
O207 O 0.71488 0.32866 0.67273 0.0
C208 C 0.67865 0.26291 0.81023 0.0
C209 C 0.71655 0.30441 0.70355 0.0
H210 H 0.23535 0.92118 0.12027 0.0
H211 H 0.03782 0.72137 0.17053 0.0
H212 H 0.29242 0.88744 0.1326 0.0
H213 H 0.09353 0.68724 0.18219 0.0
H214 H 0.23242 0.6858 0.24778 0.0
H215 H 0.17777 0.71867 0.22801 0.0
H216 H 0.30032 0.80881 0.11802 0.0
H217 H 0.35798 0.77834 0.13927 0.0
C218 C 0.20369 0.86951 0.13314 0.0
C219 C 0.13218 0.82442 0.14482 0.0
C220 C 0.23639 0.85008 0.14031 0.0
C221 C 0.19828 0.785 0.15922 0.0
C222 C 0.12561 0.73861 0.1687 0.0
C223 C 0.09331 0.75802 0.16173 0.0
C224 C 0.24859 0.71353 0.21963 0.0
C225 C 0.30075 0.73069 0.19561 0.0
C226 C 0.21622 0.73144 0.20783 0.0
C227 C 0.234 0.76635 0.17115 0.0
C228 C 0.28557 0.78264 0.14663 0.0
C229 C 0.3182 0.76459 0.1586 0.0
H230 H 0.2744 0.19986 0.52643 0.0
H231 H 0.10455 0.98462 0.57061 0.0
H232 H 0.35489 0.22922 0.57877 0.0
H233 H 0.18373 0.01367 0.62299 0.0
H234 H 0.40045 0.09597 0.66421 0.0
H235 H 0.30404 0.05451 0.62154 0.0
H236 H 0.35623 0.23392 0.6595 0.0
H237 H 0.44999 0.27325 0.70364 0.0
C238 C 0.25418 0.15915 0.54758 0.0
C239 C 0.18214 0.09121 0.54609 0.0
C240 C 0.29985 0.1759 0.57755 0.0
C241 C 0.27474 0.12411 0.60556 0.0
C242 C 0.20394 0.05493 0.60236 0.0
C243 C 0.15824 0.03863 0.57279 0.0
C244 C 0.38871 0.12437 0.66489 0.0
C245 C 0.43186 0.18722 0.6875 0.0
C246 C 0.33417 0.10114 0.64021 0.0
C247 C 0.32341 0.14162 0.63687 0.0
C248 C 0.36345 0.20185 0.66149 0.0
C249 C 0.41646 0.22381 0.68716 0.0
H250 H 0.06807 0.14292 0.12865 0.0
H251 H 0.17283 0.26054 0.01817 0.0
H252 H 0.12492 0.25122 0.16274 0.0
H253 H 0.23032 0.3691 0.05233 0.0
H254 H 0.27127 0.53966 0.1187 0.0
H255 H 0.21195 0.43095 0.08273 0.0
H256 H 0.23849 0.36206 0.18673 0.0
H257 H 0.29672 0.46947 0.22211 0.0
C258 C 0.10402 0.192 0.11171 0.0
C259 C 0.11644 0.19276 0.07071 0.0
C260 C 0.1367 0.25442 0.13128 0.0
C261 C 0.18283 0.31962 0.11049 0.0
C262 C 0.19464 0.3201 0.06936 0.0
C263 C 0.16189 0.25765 0.04978 0.0
C264 C 0.26425 0.50112 0.13376 0.0
C265 C 0.28739 0.51266 0.17367 0.0
C266 C 0.23045 0.43881 0.11313 0.0
C267 C 0.21932 0.38672 0.13187 0.0
C268 C 0.24398 0.39947 0.17151 0.0
C269 C 0.27745 0.46134 0.19197 0.0
H270 H 0.01423 0.29334 0.69659 0.0
H271 H 0.81497 0.08792 0.65107 0.0
H272 H 0.95567 0.32474 0.70854 0.0
H273 H 0.7562 0.11959 0.66294 0.0
H274 H 0.66404 0.18103 0.72835 0.0
H275 H 0.72144 0.14691 0.72129 0.0
H276 H 0.90392 0.34877 0.66443 0.0
H277 H 0.84678 0.38266 0.67192 0.0
C278 C 0.95779 0.25483 0.68928 0.0
C279 C 0.91912 0.18828 0.67278 0.0
C280 C 0.92444 0.27296 0.69591 0.0
C281 C 0.85146 0.2246 0.68667 0.0
C282 C 0.8124 0.15761 0.67066 0.0
C283 C 0.84611 0.1398 0.66348 0.0
C284 C 0.71683 0.21819 0.71488 0.0
C285 C 0.75179 0.28478 0.70124 0.0
C286 C 0.74924 0.19849 0.71044 0.0
C287 C 0.81715 0.2453 0.69237 0.0
C288 C 0.85199 0.31204 0.67893 0.0
C289 C 0.8193 0.33132 0.68302 0.0
H290 H 0.75774 0.82904 0.01164 0.0
H291 H 0.91639 0.00777 0.09063 0.0
H292 H 0.66217 0.78497 0.05567 0.0
H293 H 0.82041 0.96419 0.13506 0.0
H294 H 0.62487 0.82107 0.22268 0.0
H295 H 0.72512 0.86895 0.18148 0.0
H296 H 0.60549 0.81472 0.07444 0.0
H297 H 0.50502 0.76566 0.11557 0.0
C298 C 0.77206 0.85847 0.03882 0.0
C299 C 0.8445 0.9205 0.04836 0.0
C300 C 0.71725 0.83367 0.06389 0.0
C301 C 0.73315 0.87111 0.09893 0.0
C302 C 0.80599 0.93347 0.10859 0.0
C303 C 0.8611 0.95835 0.0833 0.0
C304 C 0.62012 0.81982 0.19035 0.0
C305 C 0.55645 0.78909 0.17253 0.0
C306 C 0.67787 0.84759 0.16669 0.0
C307 C 0.67351 0.8453 0.12452 0.0
C308 C 0.61048 0.81623 0.10679 0.0
C309 C 0.55283 0.78848 0.13042 0.0
H310 H 0.00534 0.89614 0.61982 0.0
H311 H 0.84718 0.75695 0.52657 0.0
H312 H 0.94373 0.79455 0.66254 0.0
H313 H 0.7872 0.65389 0.56864 0.0
H314 H 0.64942 0.48874 0.66383 0.0
H315 H 0.71435 0.59742 0.62706 0.0
H316 H 0.91473 0.69334 0.674 0.0
H317 H 0.84845 0.58467 0.71219 0.0
C318 C 0.9576 0.84355 0.60823 0.0
C319 C 0.93019 0.83468 0.57008 0.0
C320 C 0.9226 0.78508 0.63272 0.0
C321 C 0.85969 0.71583 0.61949 0.0
C322 C 0.83444 0.70664 0.58033 0.0
C323 C 0.86931 0.76551 0.55588 0.0
C324 C 0.70721 0.53411 0.6673 0.0
C325 C 0.74407 0.5288 0.69097 0.0
C326 C 0.74461 0.59588 0.64559 0.0
C327 C 0.82001 0.65355 0.64649 0.0
C328 C 0.85665 0.65001 0.6725 0.0
C329 C 0.81886 0.58812 0.69471 0.0
H330 H 0.1606 0.87997 0.28868 0.0
H331 H 0.11969 0.81434 0.41281 0.0
H332 H 0.21575 0.84468 0.27852 0.0
H333 H 0.17914 0.784 0.40332 0.0
H334 H 0.20746 0.65556 0.36705 0.0
H335 H 0.15376 0.69278 0.37213 0.0
H336 H 0.31667 0.86968 0.29287 0.0
H337 H 0.36918 0.8302 0.28694 0.0
C338 C 0.16368 0.85851 0.31395 0.0
C339 C 0.1346 0.84936 0.35155 0.0
C340 C 0.19629 0.83911 0.30817 0.0
C341 C 0.20125 0.81053 0.33991 0.0
C342 C 0.17488 0.80421 0.37785 0.0
C343 C 0.14174 0.8229 0.38353 0.0
C344 C 0.23136 0.70203 0.35039 0.0
C345 C 0.29234 0.73998 0.32659 0.0
C346 C 0.20106 0.7239 0.35361 0.0
C347 C 0.23162 0.78526 0.33365 0.0
C348 C 0.29158 0.82216 0.30868 0.0
C349 C 0.32174 0.79971 0.30522 0.0
H350 H 0.09393 0.99277 0.93113 0.0
H351 H 0.27284 0.18477 0.99662 0.0
H352 H 0.17401 0.03015 0.87646 0.0
H353 H 0.35353 0.22231 0.9419 0.0
H354 H 0.46602 0.3097 0.82468 0.0
H355 H 0.3676 0.26021 0.8685 0.0
H356 H 0.28221 0.05593 0.8649 0.0
H357 H 0.38172 0.10624 0.8215 0.0
C358 C 0.1503 0.04306 0.93378 0.0
C359 C 0.17686 0.08739 0.96733 0.0
C360 C 0.1962 0.06419 0.90257 0.0
C361 C 0.26953 0.12999 0.90444 0.0
C362 C 0.29677 0.17221 0.93919 0.0
C363 C 0.25093 0.1506 0.9706 0.0
C364 C 0.42395 0.25327 0.83144 0.0
C365 C 0.43051 0.21135 0.81928 0.0
C366 C 0.36848 0.2253 0.85716 0.0
C367 C 0.31834 0.15472 0.87078 0.0
C368 C 0.32027 0.11055 0.85492 0.0
C369 C 0.37649 0.13894 0.82961 0.0
H370 H 0.18314 0.26508 0.49674 0.0
H371 H 0.03365 0.13307 0.39904 0.0
H372 H 0.24144 0.37122 0.45934 0.0
H373 H 0.09012 0.23864 0.36209 0.0
H374 H 0.25728 0.44036 0.28754 0.0
H375 H 0.19515 0.3342 0.32609 0.0
H376 H 0.23201 0.44137 0.43468 0.0
H377 H 0.29715 0.54861 0.39606 0.0
C378 C 0.16207 0.25866 0.46753 0.0
C379 C 0.1043 0.19067 0.45073 0.0
C380 C 0.19533 0.3196 0.44605 0.0
C381 C 0.171 0.31389 0.40742 0.0
C382 C 0.11161 0.2455 0.39127 0.0
C383 C 0.07892 0.18478 0.41258 0.0
C384 C 0.25217 0.44128 0.31957 0.0
C385 C 0.2826 0.50313 0.33865 0.0
C386 C 0.21591 0.38007 0.34179 0.0
C387 C 0.20833 0.37882 0.38368 0.0
C388 C 0.23776 0.44051 0.40264 0.0
C389 C 0.27472 0.50197 0.38042 0.0
H390 H 0.81153 0.08625 0.88733 0.0
H391 H 0.97061 0.2462 0.79933 0.0
H392 H 0.74569 0.1085 0.87372 0.0
H393 H 0.90003 0.26046 0.78218 0.0
H394 H 0.81724 0.34598 0.79579 0.0
H395 H 0.87705 0.31587 0.80484 0.0
H396 H 0.67276 0.09893 0.83366 0.0
H397 H 0.61478 0.13213 0.82768 0.0
C398 C 0.83241 0.12542 0.8648 0.0
C399 C 0.89748 0.1645 0.84492 0.0
C400 C 0.79348 0.13716 0.8563 0.0
C401 C 0.81751 0.18698 0.82695 0.0
C402 C 0.88036 0.22307 0.80569 0.0
C403 C 0.92036 0.21324 0.81505 0.0
C404 C 0.78546 0.29185 0.80379 0.0
C405 C 0.7118 0.24116 0.81088 0.0
C406 C 0.81941 0.27406 0.8087 0.0
C407 C 0.78002 0.20451 0.81995 0.0
C408 C 0.7054 0.15328 0.82581 0.0
C409 C 0.67186 0.17184 0.82196 0.0
H410 H 0.75854 0.82406 0.50976 0.0
H411 H 0.91576 0.01539 0.43924 0.0
H412 H 0.66388 0.77941 0.46398 0.0
H413 H 0.82141 0.97135 0.39337 0.0
H414 H 0.63808 0.82745 0.29708 0.0
H415 H 0.7367 0.87838 0.34193 0.0
H416 H 0.60086 0.80259 0.44454 0.0
H417 H 0.50306 0.75147 0.40015 0.0
C418 C 0.77276 0.85642 0.48433 0.0
C419 C 0.84477 0.9219 0.47722 0.0
C420 C 0.71858 0.83119 0.45821 0.0
C421 C 0.73491 0.87153 0.4247 0.0
C422 C 0.80695 0.93823 0.41835 0.0
C423 C 0.86117 0.96339 0.44455 0.0
C424 C 0.6296 0.82223 0.32921 0.0
C425 C 0.56242 0.7851 0.34489 0.0
C426 C 0.68617 0.85154 0.35496 0.0
C427 C 0.67663 0.84402 0.39695 0.0
C428 C 0.60991 0.80831 0.41244 0.0
C429 C 0.55377 0.77934 0.38685 0.0
H430 H 0.84399 0.81143 0.9113 0.0
H431 H 0.0114 0.85027 0.96147 0.0
H432 H 0.80415 0.71654 0.86932 0.0
H433 H 0.97458 0.75796 0.91831 0.0
H434 H 0.82667 0.52761 0.88148 0.0
H435 H 0.88429 0.63617 0.91368 0.0
H436 H 0.82312 0.67977 0.81444 0.0
H437 H 0.76107 0.56704 0.78291 0.0
C438 C 0.87271 0.8 0.91288 0.0
C439 C 0.93004 0.83724 0.93982 0.0
C440 C 0.85044 0.74607 0.88855 0.0
C441 C 0.88588 0.72901 0.8902 0.0
C442 C 0.94467 0.76808 0.91668 0.0
C443 C 0.96588 0.82094 0.94154 0.0
C444 C 0.82627 0.56073 0.86607 0.0
C445 C 0.78834 0.53807 0.82985 0.0
C446 C 0.86011 0.6238 0.88451 0.0
C447 C 0.85804 0.66704 0.86711 0.0
C448 C 0.82454 0.6471 0.82925 0.0
C449 C 0.7899 0.58307 0.81078 0.0
loop_
_geom_bond_atom_site_label_1
_geom_bond_atom_site_label_2
_geom_bond_distance
_geom_bond_site_symmetry_2
_ccdc_geom_bond_type
Tb0 N31 2.660 1_455 S
Tb0 N38 2.600 . S
Tb0 O44 2.546 1_565 S
Tb0 O45 2.610 1_564 S
Tb0 O47 2.320 1_454 S
Tb0 O48 2.552 1_565 S
Tb0 O49 2.413 . S
Tb0 O51 2.362 1_455 S
Tb0 O52 2.421 1_565 S
Tb0 C64 2.833 . S
C1 C4 1.432 . S
C1 C5 1.414 . S
C1 N8 1.359 1_455 S
C2 C4 1.417 . S
C2 C6 1.432 . S
C2 C14 1.410 . S
C3 C5 1.444 . S
C3 C6 1.317 . S
C3 H26 0.929 . S
C4 C1 1.432 . S
C4 C2 1.417 . S
C4 N12 1.360 . S
C5 C1 1.414 . S
C5 C3 1.444 . S
C5 C10 1.385 1_455 S
C6 C2 1.432 . S
C6 C3 1.317 . S
C6 H18 0.930 . S
C7 C9 1.392 . S
C7 C10 1.370 1_565 S
C7 H19 0.931 . S
N8 C1 1.359 1_655 S
N8 C9 1.327 1_545 S
N8 Tb11 2.600 . S
C9 C7 1.392 . S
C9 N8 1.327 1_565 S
C9 H16 0.930 . S
C10 C5 1.385 1_655 S
C10 C7 1.370 1_545 S
C10 H29 0.930 . S
Tb11 N8 2.600 . S
Tb11 N12 2.660 1_655 S
Tb11 O45 2.362 1_655 S
Tb11 O46 2.421 1_545 S
Tb11 O50 2.546 1_545 S
Tb11 O51 2.610 1_546 S
Tb11 O53 2.320 1_656 S
Tb11 O54 2.552 1_545 S
Tb11 O55 2.413 . S
Tb11 C75 2.833 . S
N12 C4 1.360 . S
N12 Tb11 2.660 1_455 S
N12 C13 1.305 . S
C13 N12 1.305 . S
C13 C15 1.407 . S
C13 H20 0.930 . S
C14 C2 1.410 . S
C14 C15 1.345 . S
C14 H22 0.930 . S
C15 C13 1.407 . S
C15 C14 1.345 . S
C15 H17 0.930 . S
H16 C9 0.930 . S
H17 C15 0.930 . S
H18 C6 0.930 . S
H19 C7 0.931 . S
H20 C13 0.930 . S
H21 C35 0.930 . S
H22 C14 0.930 . S
H23 C41 0.930 . S
H24 C32 0.930 . S
H25 C39 0.931 . S
H26 C3 0.929 . S
H27 C33 0.930 . S
H28 C66 0.930 . S
H29 C10 0.930 . S
H30 C65 0.929 . S
N31 Tb0 2.660 1_655 S
N31 C32 1.305 . S
N31 C36 1.360 . S
C32 H24 0.930 . S
C32 N31 1.305 . S
C32 C35 1.407 . S
C33 H27 0.930 . S
C33 C34 1.410 . S
C33 C35 1.345 . S
C34 C33 1.410 . S
C34 C36 1.417 . S
C34 C66 1.432 . S
C35 H21 0.930 . S
C35 C32 1.407 . S
C35 C33 1.345 . S
C36 N31 1.360 . S
C36 C34 1.417 . S
C36 C40 1.432 . S
H37 C42 0.930 1_545 S
N38 Tb0 2.600 . S
N38 C40 1.359 1_455 S
N38 C41 1.327 1_565 S
C39 H25 0.931 . S
C39 C41 1.392 . S
C39 C42 1.370 1_545 S
C40 C36 1.432 . S
C40 N38 1.359 1_655 S
C40 C43 1.414 . S
C41 H23 0.930 . S
C41 N38 1.327 1_545 S
C41 C39 1.392 . S
C42 H37 0.930 1_565 S
C42 C39 1.370 1_565 S
C42 C43 1.385 1_455 S
C43 C40 1.414 . S
C43 C42 1.385 1_655 S
C43 C65 1.444 . S
O44 Tb0 2.546 1_545 S
O44 C64 1.251 1_545 S
O45 Tb0 2.610 1_546 S
O45 Tb11 2.362 1_455 S
O45 C56 1.283 . S
O46 Tb11 2.421 1_565 S
O46 C63 1.262 . S
O47 Tb0 2.320 1_656 S
O47 C63 1.260 . S
O48 Tb0 2.552 1_545 S
O48 C56 1.243 1_554 S
O49 Tb0 2.413 . S
O49 C64 1.256 . S
O50 Tb11 2.546 1_565 S
O50 C75 1.251 1_565 S
O51 Tb0 2.362 1_655 S
O51 Tb11 2.610 1_564 S
O51 C67 1.283 . S
O52 Tb0 2.421 1_545 S
O52 C74 1.262 . S
O53 Tb11 2.320 1_454 S
O53 C74 1.260 . S
O54 Tb11 2.552 1_565 S
O54 C67 1.243 1_556 S
O55 Tb11 2.413 . S
O55 C75 1.256 . S
C56 O45 1.283 . S
C56 O48 1.243 1_556 S
C57 C59 1.382 . S
C57 C61 1.393 . S
C57 C64 1.500 . S
C58 C59 1.400 . S
C58 C60 1.384 . S
C59 C57 1.382 . S
C59 C58 1.400 . S
C59 H76 0.930 . S
C60 C58 1.384 . S
C60 C62 1.392 . S
C60 H77 0.931 . S
C61 C57 1.393 . S
C61 C62 1.401 . S
C61 H78 0.930 . S
C62 C60 1.392 . S
C62 C61 1.401 . S
C62 H79 0.930 . S
C63 O46 1.262 . S
C63 O47 1.260 . S
C64 Tb0 2.833 . S
C64 O44 1.251 1_565 S
C64 O49 1.256 . S
C64 C57 1.500 . S
C65 H30 0.929 . S
C65 C43 1.444 . S
C65 C66 1.317 . S
C66 H28 0.930 . S
C66 C34 1.432 . S
C66 C65 1.317 . S
C67 O51 1.283 . S
C67 O54 1.243 1_554 S
C68 C69 1.382 . S
C68 C72 1.393 . S
C68 C75 1.500 . S
C69 C68 1.382 . S
C69 C70 1.400 . S
C69 H80 0.930 . S
C70 C69 1.400 . S
C70 C71 1.384 . S
C71 C70 1.384 . S
C71 C73 1.392 . S
C71 H81 0.931 . S
C72 C68 1.393 . S
C72 C73 1.401 . S
C72 H82 0.930 . S
C73 C71 1.392 . S
C73 C72 1.401 . S
C73 H83 0.930 . S
C74 O52 1.262 . S
C74 O53 1.260 . S
C75 Tb11 2.833 . S
C75 O50 1.251 1_545 S
C75 O55 1.256 . S
C75 C68 1.500 . S
H76 C59 0.930 . S
H77 C60 0.931 . S
H78 C61 0.930 . S
H79 C62 0.930 . S
H80 C69 0.930 . S
H81 C71 0.931 . S
H82 C72 0.930 . S
H83 C73 0.930 . S
Tb84 N115 2.660 1_655 S
Tb84 N122 2.600 1_655 S
Tb84 O128 2.546 . S
Tb84 O129 2.610 1_545 S
Tb84 O131 2.320 1_655 S
Tb84 O132 2.552 1_545 S
Tb84 O133 2.413 . S
Tb84 O135 2.362 1_655 S
Tb84 O136 2.421 1_545 S
Tb84 C148 2.833 . S
C85 C88 1.432 . S
C85 C89 1.414 . S
C85 N92 1.359 1_665 S
C86 C88 1.417 . S
C86 C90 1.432 . S
C86 C98 1.410 . S
C87 C89 1.444 . S
C87 C90 1.317 . S
C87 H110 0.929 . S
C88 C85 1.432 . S
C88 C86 1.417 . S
C88 N96 1.360 . S
C89 C85 1.414 . S
C89 C87 1.444 . S
C89 C94 1.385 1_665 S
C90 C86 1.432 . S
C90 C87 1.317 . S
C90 H102 0.930 . S
C91 C93 1.392 . S
C91 C94 1.370 . S
C91 H103 0.931 . S
N92 C85 1.359 1_445 S
N92 C93 1.327 . S
N92 Tb95 2.600 1_545 S
C93 C91 1.392 . S
C93 N92 1.327 . S
C93 H100 0.930 . S
C94 C89 1.385 1_445 S
C94 C91 1.370 . S
C94 H113 0.930 . S
Tb95 N92 2.600 1_565 S
Tb95 N96 2.660 1_455 S
Tb95 O129 2.362 1_455 S
Tb95 O130 2.421 1_565 S
Tb95 O134 2.546 1_565 S
Tb95 O135 2.610 1_565 S
Tb95 O137 2.320 1_455 S
Tb95 O138 2.552 1_565 S
Tb95 O139 2.413 . S
Tb95 C159 2.833 . S
N96 C88 1.360 . S
N96 Tb95 2.660 1_655 S
N96 C97 1.305 . S
C97 N96 1.305 . S
C97 C99 1.407 . S
C97 H104 0.930 . S
C98 C86 1.410 . S
C98 C99 1.345 . S
C98 H106 0.930 . S
C99 C97 1.407 . S
C99 C98 1.345 . S
C99 H101 0.930 . S
H100 C93 0.930 . S
H101 C99 0.930 . S
H102 C90 0.930 . S
H103 C91 0.931 . S
H104 C97 0.930 . S
H105 C119 0.930 . S
H106 C98 0.930 . S
H107 C125 0.930 . S
H108 C116 0.930 . S
H109 C123 0.931 . S
H110 C87 0.929 . S
H111 C117 0.930 . S
H112 C150 0.930 . S
H113 C94 0.930 . S
H114 C149 0.929 . S
N115 Tb84 2.660 1_455 S
N115 C116 1.305 . S
N115 C120 1.360 . S
C116 H108 0.930 . S
C116 N115 1.305 . S
C116 C119 1.407 . S
C117 H111 0.930 . S
C117 C118 1.410 . S
C117 C119 1.345 . S
C118 C117 1.410 . S
C118 C120 1.417 . S
C118 C150 1.432 . S
C119 H105 0.930 . S
C119 C116 1.407 . S
C119 C117 1.345 . S
C120 N115 1.360 . S
C120 C118 1.417 . S
C120 C124 1.432 . S
H121 C126 0.930 . S
N122 Tb84 2.600 1_455 S
N122 C124 1.359 . S
N122 C125 1.327 1_445 S
C123 H109 0.931 . S
C123 C125 1.392 . S
C123 C126 1.370 1_665 S
C124 C120 1.432 . S
C124 N122 1.359 . S
C124 C127 1.414 . S
C125 H107 0.930 . S
C125 N122 1.327 1_665 S
C125 C123 1.392 . S
C126 H121 0.930 . S
C126 C123 1.370 1_445 S
C126 C127 1.385 . S
C127 C124 1.414 . S
C127 C126 1.385 . S
C127 C149 1.444 . S
O128 Tb84 2.546 . S
O128 C148 1.251 . S
O129 Tb84 2.610 1_565 S
O129 Tb95 2.362 1_655 S
O129 C140 1.283 . S
O130 Tb95 2.421 1_545 S
O130 C147 1.262 . S
O131 Tb84 2.320 1_455 S
O131 C147 1.260 . S
O132 Tb84 2.552 1_565 S
O132 C140 1.243 . S
O133 Tb84 2.413 . S
O133 C148 1.256 . S
O134 Tb95 2.546 1_545 S
O134 C159 1.251 1_545 S
O135 Tb84 2.362 1_455 S
O135 Tb95 2.610 1_545 S
O135 C151 1.283 . S
O136 Tb84 2.421 1_565 S
O136 C158 1.262 . S
O137 Tb95 2.320 1_655 S
O137 C158 1.260 . S
O138 Tb95 2.552 1_545 S
O138 C151 1.243 . S
O139 Tb95 2.413 . S
O139 C159 1.256 . S
C140 O129 1.283 . S
C140 O132 1.243 . S
C141 C143 1.382 . S
C141 C145 1.393 . S
C141 C148 1.500 . S
C142 C143 1.400 . S
C142 C144 1.384 . S
C143 C141 1.382 . S
C143 C142 1.400 . S
C143 H160 0.930 . S
C144 C142 1.384 . S
C144 C146 1.392 . S
C144 H161 0.931 . S
C145 C141 1.393 . S
C145 C146 1.401 . S
C145 H162 0.930 . S
C146 C144 1.392 . S
C146 C145 1.401 . S
C146 H163 0.930 . S
C147 O130 1.262 . S
C147 O131 1.260 . S
C148 Tb84 2.833 . S
C148 O128 1.251 . S
C148 O133 1.256 . S
C148 C141 1.500 . S
C149 H114 0.929 . S
C149 C127 1.444 . S
C149 C150 1.317 . S
C150 H112 0.930 . S
C150 C118 1.432 . S
C150 C149 1.317 . S
C151 O135 1.283 . S
C151 O138 1.243 . S
C152 C153 1.382 . S
C152 C156 1.393 . S
C152 C159 1.500 . S
C153 C152 1.382 . S
C153 C154 1.400 . S
C153 H164 0.930 . S
C154 C153 1.400 . S
C154 C155 1.384 . S
C155 C154 1.384 . S
C155 C157 1.392 . S
C155 H165 0.931 . S
C156 C152 1.393 . S
C156 C157 1.401 . S
C156 H166 0.930 1_565 S
C157 C155 1.392 . S
C157 C156 1.401 . S
C157 H167 0.930 . S
C158 O136 1.262 . S
C158 O137 1.260 . S
C159 Tb95 2.833 . S
C159 O134 1.251 1_565 S
C159 O139 1.256 . S
C159 C152 1.500 . S
H160 C143 0.930 . S
H161 C144 0.931 . S
H162 C145 0.930 . S
H163 C146 0.930 . S
H164 C153 0.930 . S
H165 C155 0.931 . S
H166 C156 0.930 1_545 S
H167 C157 0.930 . S
Zn168 O174 1.920 . S
Zn168 O180 1.898 . S
Zn168 O183 1.905 . S
Zn169 O177 1.905 . S
Zn169 O178 1.898 . S
Zn169 O186 1.920 . S
Zn170 O173 2.080 . S
Zn170 O176 2.114 . S
Zn170 O179 2.120 . S
Zn170 O181 2.120 . S
Zn170 O182 2.114 . S
Zn170 O185 2.080 . S
C171 O176 1.166 . S
C171 O177 1.182 . S
C172 O178 1.167 . S
C172 O179 1.299 . S
O173 Zn170 2.080 . S
O173 C187 1.305 . S
O174 Zn168 1.920 . S
O174 C187 1.234 . S
C175 O180 1.167 . S
C175 O181 1.299 . S
O176 Zn170 2.114 . S
O176 C171 1.166 . S
O177 Zn169 1.905 . S
O177 C171 1.182 . S
O178 Zn169 1.898 . S
O178 C172 1.167 . S
O179 Zn170 2.120 . S
O179 C172 1.299 . S
O180 Zn168 1.898 . S
O180 C175 1.167 . S
O181 Zn170 2.120 . S
O181 C175 1.299 . S
O182 Zn170 2.114 . S
O182 C184 1.166 . S
O183 Zn168 1.905 . S
O183 C184 1.182 . S
C184 O182 1.166 . S
C184 O183 1.182 . S
O185 Zn170 2.080 . S
O185 C188 1.305 . S
O186 Zn169 1.920 . S
O186 C188 1.234 . S
C187 O173 1.305 . S
C187 O174 1.234 . S
C188 O185 1.305 . S
C188 O186 1.234 . S
Zn189 O195 1.920 . S
Zn189 O201 1.898 . S
Zn189 O204 1.905 . S
Zn190 O198 1.905 . S
Zn190 O199 1.898 . S
Zn190 O207 1.920 . S
Zn191 O194 2.080 . S
Zn191 O197 2.114 . S
Zn191 O200 2.120 . S
Zn191 O202 2.120 . S
Zn191 O203 2.114 . S
Zn191 O206 2.080 . S
C192 O197 1.166 . S
C192 O198 1.182 . S
C193 O199 1.167 . S
C193 O200 1.299 . S
O194 Zn191 2.080 . S
O194 C208 1.305 . S
O195 Zn189 1.920 . S
O195 C208 1.234 . S
C196 O201 1.167 . S
C196 O202 1.299 . S
O197 Zn191 2.114 . S
O197 C192 1.166 . S
O198 Zn190 1.905 . S
O198 C192 1.182 . S
O199 Zn190 1.898 . S
O199 C193 1.167 . S
O200 Zn191 2.120 . S
O200 C193 1.299 . S
O201 Zn189 1.898 . S
O201 C196 1.167 . S
O202 Zn191 2.120 . S
O202 C196 1.299 . S
O203 Zn191 2.114 . S
O203 C205 1.166 . S
O204 Zn189 1.905 . S
O204 C205 1.182 . S
C205 O203 1.166 . S
C205 O204 1.182 . S
O206 Zn191 2.080 . S
O206 C209 1.305 . S
O207 Zn190 1.920 . S
O207 C209 1.234 . S
C208 O194 1.305 . S
C208 O195 1.234 . S
C209 O206 1.305 . S
C209 O207 1.234 . S
H210 C218 0.950 . S
H211 C223 0.950 . S
H212 C220 0.950 . S
H213 C222 0.950 . S
H214 C224 0.950 . S
H215 C226 0.950 . S
H216 C228 0.950 . S
H217 C229 0.950 . S
C218 H210 0.950 . S
C218 C219 1.386 . S
C218 C220 1.391 . S
C219 C218 1.386 . S
C219 C223 1.393 . S
C220 H212 0.950 . S
C220 C218 1.391 . S
C220 C221 1.400 . S
C221 C220 1.400 . S
C221 C222 1.398 . S
C221 C227 1.491 . S
C222 H213 0.950 . S
C222 C221 1.398 . S
C222 C223 1.391 . S
C223 H211 0.950 . S
C223 C219 1.393 . S
C223 C222 1.391 . S
C224 H214 0.950 . S
C224 C225 1.386 . S
C224 C226 1.391 . S
C225 C224 1.386 . S
C225 C229 1.393 . S
C226 H215 0.950 . S
C226 C224 1.391 . S
C226 C227 1.400 . S
C227 C221 1.491 . S
C227 C226 1.400 . S
C227 C228 1.398 . S
C228 H216 0.950 . S
C228 C227 1.398 . S
C228 C229 1.391 . S
C229 H217 0.950 . S
C229 C225 1.393 . S
C229 C228 1.391 . S
H230 C238 0.950 . S
H231 C243 0.950 1_565 S
H232 C240 0.950 . S
H233 C242 0.950 . S
H234 C244 0.950 . S
H235 C246 0.950 . S
H236 C248 0.950 . S
H237 C249 0.950 . S
C238 H230 0.950 . S
C238 C239 1.386 . S
C238 C240 1.391 . S
C239 C238 1.386 . S
C239 C243 1.393 . S
C240 H232 0.950 . S
C240 C238 1.391 . S
C240 C241 1.400 . S
C241 C240 1.400 . S
C241 C242 1.398 . S
C241 C247 1.491 . S
C242 H233 0.950 . S
C242 C241 1.398 . S
C242 C243 1.391 . S
C243 H231 0.950 1_545 S
C243 C239 1.393 . S
C243 C242 1.391 . S
C244 H234 0.950 . S
C244 C245 1.386 . S
C244 C246 1.391 . S
C245 C244 1.386 . S
C245 C249 1.393 . S
C246 H235 0.950 . S
C246 C244 1.391 . S
C246 C247 1.400 . S
C247 C241 1.491 . S
C247 C246 1.400 . S
C247 C248 1.398 . S
C248 H236 0.950 . S
C248 C247 1.398 . S
C248 C249 1.391 . S
C249 H237 0.950 . S
C249 C245 1.393 . S
C249 C248 1.391 . S
H250 C258 0.950 . S
H251 C263 0.950 . S
H252 C260 0.950 . S
H253 C262 0.950 . S
H254 C264 0.950 . S
H255 C266 0.950 . S
H256 C268 0.950 . S
H257 C269 0.950 . S
C258 H250 0.950 . S
C258 C259 1.386 . S
C258 C260 1.391 . S
C259 C258 1.386 . S
C259 C263 1.393 . S
C260 H252 0.950 . S
C260 C258 1.391 . S
C260 C261 1.400 . S
C261 C260 1.400 . S
C261 C262 1.398 . S
C261 C267 1.491 . S
C262 H253 0.950 . S
C262 C261 1.398 . S
C262 C263 1.391 . S
C263 H251 0.950 . S
C263 C259 1.393 . S
C263 C262 1.391 . S
C264 H254 0.950 . S
C264 C265 1.386 . S
C264 C266 1.391 . S
C265 C264 1.386 . S
C265 C269 1.393 . S
C266 H255 0.950 . S
C266 C264 1.391 . S
C266 C267 1.400 . S
C267 C261 1.491 . S
C267 C266 1.400 . S
C267 C268 1.398 . S
C268 H256 0.950 . S
C268 C267 1.398 . S
C268 C269 1.391 . S
C269 H257 0.950 . S
C269 C265 1.393 . S
C269 C268 1.391 . S
H270 C278 0.950 . S
H271 C283 0.950 . S
H272 C280 0.950 . S
H273 C282 0.950 . S
H274 C284 0.950 . S
H275 C286 0.950 . S
H276 C288 0.950 . S
H277 C289 0.950 . S
C278 H270 0.950 . S
C278 C279 1.386 . S
C278 C280 1.391 . S
C279 C278 1.386 . S
C279 C283 1.393 . S
C280 H272 0.950 . S
C280 C278 1.391 . S
C280 C281 1.400 . S
C281 C280 1.400 . S
C281 C282 1.398 . S
C281 C287 1.491 . S
C282 H273 0.950 . S
C282 C281 1.398 . S
C282 C283 1.391 . S
C283 H271 0.950 . S
C283 C279 1.393 . S
C283 C282 1.391 . S
C284 H274 0.950 . S
C284 C285 1.386 . S
C284 C286 1.391 . S
C285 C284 1.386 . S
C285 C289 1.393 . S
C286 H275 0.950 . S
C286 C284 1.391 . S
C286 C287 1.400 . S
C287 C281 1.491 . S
C287 C286 1.400 . S
C287 C288 1.398 . S
C288 H276 0.950 . S
C288 C287 1.398 . S
C288 C289 1.391 . S
C289 H277 0.950 . S
C289 C285 1.393 . S
C289 C288 1.391 . S
H290 C298 0.950 . S
H291 C303 0.950 . S
H292 C300 0.950 . S
H293 C302 0.950 . S
H294 C304 0.950 . S
H295 C306 0.950 . S
H296 C308 0.950 . S
H297 C309 0.950 . S
C298 H290 0.950 . S
C298 C299 1.386 . S
C298 C300 1.391 . S
C299 C298 1.386 . S
C299 C303 1.393 . S
C300 H292 0.950 . S
C300 C298 1.391 . S
C300 C301 1.400 . S
C301 C300 1.400 . S
C301 C302 1.398 . S
C301 C307 1.491 . S
C302 H293 0.950 . S
C302 C301 1.398 . S
C302 C303 1.391 . S
C303 H291 0.950 . S
C303 C299 1.393 . S
C303 C302 1.391 . S
C304 H294 0.950 . S
C304 C305 1.386 . S
C304 C306 1.391 . S
C305 C304 1.386 . S
C305 C309 1.393 . S
C306 H295 0.950 . S
C306 C304 1.391 . S
C306 C307 1.400 . S
C307 C301 1.491 . S
C307 C306 1.400 . S
C307 C308 1.398 . S
C308 H296 0.950 . S
C308 C307 1.398 . S
C308 C309 1.391 . S
C309 H297 0.950 . S
C309 C305 1.393 . S
C309 C308 1.391 . S
H310 C318 0.950 1_455 S
H311 C323 0.950 . S
H312 C320 0.950 . S
H313 C322 0.950 . S
H314 C324 0.950 . S
H315 C326 0.950 . S
H316 C328 0.950 . S
H317 C329 0.950 . S
C318 H310 0.950 1_655 S
C318 C319 1.386 . S
C318 C320 1.391 . S
C319 C318 1.386 . S
C319 C323 1.393 . S
C320 H312 0.950 . S
C320 C318 1.391 . S
C320 C321 1.400 . S
C321 C320 1.400 . S
C321 C322 1.398 . S
C321 C327 1.491 . S
C322 H313 0.950 . S
C322 C321 1.398 . S
C322 C323 1.391 . S
C323 H311 0.950 . S
C323 C319 1.393 . S
C323 C322 1.391 . S
C324 H314 0.950 . S
C324 C325 1.386 . S
C324 C326 1.391 . S
C325 C324 1.386 . S
C325 C329 1.393 . S
C326 H315 0.950 . S
C326 C324 1.391 . S
C326 C327 1.400 . S
C327 C321 1.491 . S
C327 C326 1.400 . S
C327 C328 1.398 . S
C328 H316 0.950 . S
C328 C327 1.398 . S
C328 C329 1.391 . S
C329 H317 0.950 . S
C329 C325 1.393 . S
C329 C328 1.391 . S
H330 C338 0.950 . S
H331 C343 0.950 . S
H332 C340 0.950 . S
H333 C342 0.950 . S
H334 C344 0.950 . S
H335 C346 0.950 . S
H336 C348 0.950 . S
H337 C349 0.950 . S
C338 H330 0.950 . S
C338 C339 1.386 . S
C338 C340 1.391 . S
C339 C338 1.386 . S
C339 C343 1.393 . S
C340 H332 0.950 . S
C340 C338 1.391 . S
C340 C341 1.400 . S
C341 C340 1.400 . S
C341 C342 1.398 . S
C341 C347 1.491 . S
C342 H333 0.950 . S
C342 C341 1.398 . S
C342 C343 1.391 . S
C343 H331 0.950 . S
C343 C339 1.393 . S
C343 C342 1.391 . S
C344 H334 0.950 . S
C344 C345 1.386 . S
C344 C346 1.391 . S
C345 C344 1.386 . S
C345 C349 1.393 . S
C346 H335 0.950 . S
C346 C344 1.391 . S
C346 C347 1.400 . S
C347 C341 1.491 . S
C347 C346 1.400 . S
C347 C348 1.398 . S
C348 H336 0.950 . S
C348 C347 1.398 . S
C348 C349 1.391 . S
C349 H337 0.950 . S
C349 C345 1.393 . S
C349 C348 1.391 . S
H350 C358 0.950 1_565 S
H351 C363 0.950 . S
H352 C360 0.950 . S
H353 C362 0.950 . S
H354 C364 0.950 . S
H355 C366 0.950 . S
H356 C368 0.950 . S
H357 C369 0.950 . S
C358 H350 0.950 1_545 S
C358 C359 1.386 . S
C358 C360 1.391 . S
C359 C358 1.386 . S
C359 C363 1.393 . S
C360 H352 0.950 . S
C360 C358 1.391 . S
C360 C361 1.400 . S
C361 C360 1.400 . S
C361 C362 1.398 . S
C361 C367 1.491 . S
C362 H353 0.950 . S
C362 C361 1.398 . S
C362 C363 1.391 . S
C363 H351 0.950 . S
C363 C359 1.393 . S
C363 C362 1.391 . S
C364 H354 0.950 . S
C364 C365 1.386 . S
C364 C366 1.391 . S
C365 C364 1.386 . S
C365 C369 1.393 . S
C366 H355 0.950 . S
C366 C364 1.391 . S
C366 C367 1.400 . S
C367 C361 1.491 . S
C367 C366 1.400 . S
C367 C368 1.398 . S
C368 H356 0.950 . S
C368 C367 1.398 . S
C368 C369 1.391 . S
C369 H357 0.950 . S
C369 C365 1.393 . S
C369 C368 1.391 . S
H370 C378 0.950 . S
H371 C383 0.950 . S
H372 C380 0.950 . S
H373 C382 0.950 . S
H374 C384 0.950 . S
H375 C386 0.950 . S
H376 C388 0.950 . S
H377 C389 0.950 . S
C378 H370 0.950 . S
C378 C379 1.386 . S
C378 C380 1.391 . S
C379 C378 1.386 . S
C379 C383 1.393 . S
C380 H372 0.950 . S
C380 C378 1.391 . S
C380 C381 1.400 . S
C381 C380 1.400 . S
C381 C382 1.398 . S
C381 C387 1.491 . S
C382 H373 0.950 . S
C382 C381 1.398 . S
C382 C383 1.391 . S
C383 H371 0.950 . S
C383 C379 1.393 . S
C383 C382 1.391 . S
C384 H374 0.950 . S
C384 C385 1.386 . S
C384 C386 1.391 . S
C385 C384 1.386 . S
C385 C389 1.393 . S
C386 H375 0.950 . S
C386 C384 1.391 . S
C386 C387 1.400 . S
C387 C381 1.491 . S
C387 C386 1.400 . S
C387 C388 1.398 . S
C388 H376 0.950 . S
C388 C387 1.398 . S
C388 C389 1.391 . S
C389 H377 0.950 . S
C389 C385 1.393 . S
C389 C388 1.391 . S
H390 C398 0.950 . S
H391 C403 0.950 . S
H392 C400 0.950 . S
H393 C402 0.950 . S
H394 C404 0.950 . S
H395 C406 0.950 . S
H396 C408 0.950 . S
H397 C409 0.950 . S
C398 H390 0.950 . S
C398 C399 1.386 . S
C398 C400 1.391 . S
C399 C398 1.386 . S
C399 C403 1.393 . S
C400 H392 0.950 . S
C400 C398 1.391 . S
C400 C401 1.400 . S
C401 C400 1.400 . S
C401 C402 1.398 . S
C401 C407 1.491 . S
C402 H393 0.950 . S
C402 C401 1.398 . S
C402 C403 1.391 . S
C403 H391 0.950 . S
C403 C399 1.393 . S
C403 C402 1.391 . S
C404 H394 0.950 . S
C404 C405 1.386 . S
C404 C406 1.391 . S
C405 C404 1.386 . S
C405 C409 1.393 . S
C406 H395 0.950 . S
C406 C404 1.391 . S
C406 C407 1.400 . S
C407 C401 1.491 . S
C407 C406 1.400 . S
C407 C408 1.398 . S
C408 H396 0.950 . S
C408 C407 1.398 . S
C408 C409 1.391 . S
C409 H397 0.950 . S
C409 C405 1.393 . S
C409 C408 1.391 . S
H410 C418 0.950 . S
H411 C423 0.950 . S
H412 C420 0.950 . S
H413 C422 0.950 . S
H414 C424 0.950 . S
H415 C426 0.950 . S
H416 C428 0.950 . S
H417 C429 0.950 . S
C418 H410 0.950 . S
C418 C419 1.386 . S
C418 C420 1.391 . S
C419 C418 1.386 . S
C419 C423 1.393 . S
C420 H412 0.950 . S
C420 C418 1.391 . S
C420 C421 1.400 . S
C421 C420 1.400 . S
C421 C422 1.398 . S
C421 C427 1.491 . S
C422 H413 0.950 . S
C422 C421 1.398 . S
C422 C423 1.391 . S
C423 H411 0.950 . S
C423 C419 1.393 . S
C423 C422 1.391 . S
C424 H414 0.950 . S
C424 C425 1.386 . S
C424 C426 1.391 . S
C425 C424 1.386 . S
C425 C429 1.393 . S
C426 H415 0.950 . S
C426 C424 1.391 . S
C426 C427 1.400 . S
C427 C421 1.491 . S
C427 C426 1.400 . S
C427 C428 1.398 . S
C428 H416 0.950 . S
C428 C427 1.398 . S
C428 C429 1.391 . S
C429 H417 0.950 . S
C429 C425 1.393 . S
C429 C428 1.391 . S
H430 C438 0.950 . S
H431 C443 0.950 . S
H432 C440 0.950 . S
H433 C442 0.950 . S
H434 C444 0.950 . S
H435 C446 0.950 . S
H436 C448 0.950 . S
H437 C449 0.950 . S
C438 H430 0.950 . S
C438 C439 1.386 . S
C438 C440 1.391 . S
C439 C438 1.386 . S
C439 C443 1.393 . S
C440 H432 0.950 . S
C440 C438 1.391 . S
C440 C441 1.400 . S
C441 C440 1.400 . S
C441 C442 1.398 . S
C441 C447 1.491 . S
C442 H433 0.950 . S
C442 C441 1.398 . S
C442 C443 1.391 . S
C443 H431 0.950 . S
C443 C439 1.393 . S
C443 C442 1.391 . S
C444 H434 0.950 . S
C444 C445 1.386 . S
C444 C446 1.391 . S
C445 C444 1.386 . S
C445 C449 1.393 . S
C446 H435 0.950 . S
C446 C444 1.391 . S
C446 C447 1.400 . S
C447 C441 1.491 . S
C447 C446 1.400 . S
C447 C448 1.398 . S
C448 H436 0.950 . S
C448 C447 1.398 . S
C448 C449 1.391 . S
C449 H437 0.950 . S
C449 C445 1.393 . S
C449 C448 1.391 . S
C219 C58 1.129 . S
C225 C187 1.259 . S
C239 C151 1.587 . S
C245 C193 1.435 . S
C259 C74 1.541 . S
C265 C184 1.477 . S
C279 C142 1.181 . S
C285 C209 1.281 . S
C299 C67 1.584 . S
C305 C175 1.451 . S
C325 C192 1.457 . S
C319 C158 1.544 . S
C339 C154 1.169 . S
C345 C188 1.293 . S
C365 C205 1.471 . S
C359 C56 1.595 . S
C385 C172 1.416 . S
C379 C147 1.558 . S
C405 C208 1.288 . S
C399 C70 1.164 . S
C425 C171 1.482 . S
C419 C140 1.590 . S
C445 C196 1.394 . S
C439 C63 1.571 . S
