# Generated by pormake.
# Topology ocu, (6,8)-cn, num edge types: 1
# Building blocks:
#     Node 0, Type 0, BuildingBlock: PAMTOO_clean_sbu_0, # of connection points: 6
#     Node 1, Type 0, BuildingBlock: PAMTOO_clean_sbu_0, # of connection points: 6
#     Node 2, Type 0, BuildingBlock: PAMTOO_clean_sbu_0, # of connection points: 6
#     Node 3, Type 0, BuildingBlock: PAMTOO_clean_sbu_0, # of connection points: 6
#     Node 4, Type 0, BuildingBlock: PAMTOO_clean_sbu_0, # of connection points: 6
#     Node 5, Type 0, BuildingBlock: PAMTOO_clean_sbu_0, # of connection points: 6
#     Node 6, Type 0, BuildingBlock: PAMTOO_clean_sbu_0, # of connection points: 6
#     Node 7, Type 0, BuildingBlock: PAMTOO_clean_sbu_0, # of connection points: 6
#     Node 8, Type 1, BuildingBlock: GIZVER_clean_sbu_0, # of connection points: 8
#     Node 9, Type 1, BuildingBlock: GIZVER_clean_sbu_0, # of connection points: 8
#     Node 10, Type 1, BuildingBlock: GIZVER_clean_sbu_0, # of connection points: 8
#     Node 11, Type 1, BuildingBlock: GIZVER_clean_sbu_0, # of connection points: 8
#     Node 12, Type 1, BuildingBlock: GIZVER_clean_sbu_0, # of connection points: 8
#     Node 13, Type 1, BuildingBlock: GIZVER_clean_sbu_0, # of connection points: 8
#     Edge 14, Type (0, 1), BuildingBlock: EZIPEK_clean_linker_0, # of connection points: 2
#     Edge 15, Type (0, 1), BuildingBlock: EZIPEK_clean_linker_0, # of connection points: 2
#     Edge 16, Type (0, 1), BuildingBlock: EZIPEK_clean_linker_0, # of connection points: 2
#     Edge 17, Type (0, 1), BuildingBlock: EZIPEK_clean_linker_0, # of connection points: 2
#     Edge 18, Type (0, 1), BuildingBlock: EZIPEK_clean_linker_0, # of connection points: 2
#     Edge 19, Type (0, 1), BuildingBlock: EZIPEK_clean_linker_0, # of connection points: 2
#     Edge 20, Type (0, 1), BuildingBlock: EZIPEK_clean_linker_0, # of connection points: 2
#     Edge 21, Type (0, 1), BuildingBlock: EZIPEK_clean_linker_0, # of connection points: 2
#     Edge 22, Type (0, 1), BuildingBlock: EZIPEK_clean_linker_0, # of connection points: 2
#     Edge 23, Type (0, 1), BuildingBlock: EZIPEK_clean_linker_0, # of connection points: 2
#     Edge 24, Type (0, 1), BuildingBlock: EZIPEK_clean_linker_0, # of connection points: 2
#     Edge 25, Type (0, 1), BuildingBlock: EZIPEK_clean_linker_0, # of connection points: 2
#     Edge 26, Type (0, 1), BuildingBlock: EZIPEK_clean_linker_0, # of connection points: 2
#     Edge 27, Type (0, 1), BuildingBlock: EZIPEK_clean_linker_0, # of connection points: 2
#     Edge 28, Type (0, 1), BuildingBlock: EZIPEK_clean_linker_0, # of connection points: 2
#     Edge 29, Type (0, 1), BuildingBlock: EZIPEK_clean_linker_0, # of connection points: 2
#     Edge 30, Type (0, 1), BuildingBlock: EZIPEK_clean_linker_0, # of connection points: 2
#     Edge 31, Type (0, 1), BuildingBlock: EZIPEK_clean_linker_0, # of connection points: 2
#     Edge 32, Type (0, 1), BuildingBlock: EZIPEK_clean_linker_0, # of connection points: 2
#     Edge 33, Type (0, 1), BuildingBlock: EZIPEK_clean_linker_0, # of connection points: 2
#     Edge 34, Type (0, 1), BuildingBlock: EZIPEK_clean_linker_0, # of connection points: 2
#     Edge 35, Type (0, 1), BuildingBlock: EZIPEK_clean_linker_0, # of connection points: 2
#     Edge 36, Type (0, 1), BuildingBlock: EZIPEK_clean_linker_0, # of connection points: 2
#     Edge 37, Type (0, 1), BuildingBlock: EZIPEK_clean_linker_0, # of connection points: 2
#     Edge 38, Type (0, 1), BuildingBlock: EZIPEK_clean_linker_0, # of connection points: 2
#     Edge 39, Type (0, 1), BuildingBlock: EZIPEK_clean_linker_0, # of connection points: 2
#     Edge 40, Type (0, 1), BuildingBlock: EZIPEK_clean_linker_0, # of connection points: 2
#     Edge 41, Type (0, 1), BuildingBlock: EZIPEK_clean_linker_0, # of connection points: 2
#     Edge 42, Type (0, 1), BuildingBlock: EZIPEK_clean_linker_0, # of connection points: 2
#     Edge 43, Type (0, 1), BuildingBlock: EZIPEK_clean_linker_0, # of connection points: 2
#     Edge 44, Type (0, 1), BuildingBlock: EZIPEK_clean_linker_0, # of connection points: 2
#     Edge 45, Type (0, 1), BuildingBlock: EZIPEK_clean_linker_0, # of connection points: 2
#     Edge 46, Type (0, 1), BuildingBlock: EZIPEK_clean_linker_0, # of connection points: 2
#     Edge 47, Type (0, 1), BuildingBlock: EZIPEK_clean_linker_0, # of connection points: 2
#     Edge 48, Type (0, 1), BuildingBlock: EZIPEK_clean_linker_0, # of connection points: 2
#     Edge 49, Type (0, 1), BuildingBlock: EZIPEK_clean_linker_0, # of connection points: 2
#     Edge 50, Type (0, 1), BuildingBlock: EZIPEK_clean_linker_0, # of connection points: 2
#     Edge 51, Type (0, 1), BuildingBlock: EZIPEK_clean_linker_0, # of connection points: 2
#     Edge 52, Type (0, 1), BuildingBlock: EZIPEK_clean_linker_0, # of connection points: 2
#     Edge 53, Type (0, 1), BuildingBlock: EZIPEK_clean_linker_0, # of connection points: 2
#     Edge 54, Type (0, 1), BuildingBlock: EZIPEK_clean_linker_0, # of connection points: 2
#     Edge 55, Type (0, 1), BuildingBlock: EZIPEK_clean_linker_0, # of connection points: 2
#     Edge 56, Type (0, 1), BuildingBlock: EZIPEK_clean_linker_0, # of connection points: 2
#     Edge 57, Type (0, 1), BuildingBlock: EZIPEK_clean_linker_0, # of connection points: 2
#     Edge 58, Type (0, 1), BuildingBlock: EZIPEK_clean_linker_0, # of connection points: 2
#     Edge 59, Type (0, 1), BuildingBlock: EZIPEK_clean_linker_0, # of connection points: 2
#     Edge 60, Type (0, 1), BuildingBlock: EZIPEK_clean_linker_0, # of connection points: 2
#     Edge 61, Type (0, 1), BuildingBlock: EZIPEK_clean_linker_0, # of connection points: 2
# Relax obj value: 0.362
# Max RMSD: 0.329
# Mean RMSD: 0.196
data_MOF--net-ocu--node1-PAMTOO_clean_sbu_0--node2-GIZVER_clean_sbu_0--edge1-EZIPEK_clean_linker_0
_symmetry_space_group_name_H-M    P1
_symmetry_Int_Tables_number       1
_symmetry_cell_setting            triclinic
loop_
_symmetry_equiv_pos_as_xyz
'x, y, z'
_cell_length_a     32.551945
_cell_length_b     35.453288
_cell_length_c     26.162202
_cell_angle_alpha  92.046437
_cell_angle_beta   95.292311
_cell_angle_gamma 110.066
loop_
_atom_site_label
_atom_site_type_symbol
_atom_site_fract_x
_atom_site_fract_y
_atom_site_fract_z
_atom_type_partial_charge
Dy0 Dy 0.36494 0.32769 0.33717 0.0
Dy1 Dy 0.29354 0.31086 0.24747 0.0
C2 C 0.36747 0.26561 0.23726 0.0
O3 O 0.40137 0.37709 0.28505 0.0
O4 O 0.34701 0.36653 0.21929 0.0
O5 O 0.38302 0.32133 0.41705 0.0
O6 O 0.43333 0.35069 0.36924 0.0
O7 O 0.27371 0.35466 0.30215 0.0
O8 O 0.33124 0.37204 0.36502 0.0
O9 O 0.25976 0.25693 0.29497 0.0
O10 O 0.30738 0.27725 0.36764 0.0
O11 O 0.22613 0.29969 0.2175 0.0
O12 O 0.27371 0.29867 0.16589 0.0
C13 C 0.38833 0.38642 0.23912 0.0
O14 O 0.38328 0.28166 0.28506 0.0
O15 O 0.33204 0.27219 0.21653 0.0
C16 C 0.44518 0.30255 0.42333 0.0
C17 C 0.46741 0.23359 0.43751 0.0
C18 C 0.47726 0.25435 0.39314 0.0
C19 C 0.46598 0.28849 0.3859 0.0
C20 C 0.43725 0.28265 0.46877 0.0
C21 C 0.44801 0.24823 0.47565 0.0
C22 C 0.42468 0.33277 0.41154 0.0
C23 C 0.29295 0.37521 0.34709 0.0
C24 C 0.26926 0.25238 0.34423 0.0
C25 C 0.22213 0.32737 0.13912 0.0
C26 C 0.19173 0.38283 0.09091 0.0
C27 C 0.2282 0.39631 0.12826 0.0
C28 C 0.24343 0.36865 0.15226 0.0
C29 C 0.1875 0.31392 0.09944 0.0
C30 C 0.17226 0.34173 0.07519 0.0
C31 C 0.23435 0.29885 0.16984 0.0
H32 H 0.49274 0.24359 0.36373 0.0
H33 H 0.47207 0.30286 0.35014 0.0
H34 H 0.42087 0.29265 0.49786 0.0
H35 H 0.44064 0.23261 0.51035 0.0
H36 H 0.24306 0.42796 0.141 0.0
H37 H 0.2703 0.37927 0.18295 0.0
H38 H 0.17097 0.28204 0.08913 0.0
H39 H 0.14343 0.33105 0.0471 0.0
Dy40 Dy 0.85102 0.32213 0.24719 0.0
Dy41 Dy 0.78782 0.30208 0.32948 0.0
C42 C 0.87625 0.37399 0.35338 0.0
O43 O 0.88086 0.28179 0.29924 0.0
O44 O 0.82971 0.26153 0.35601 0.0
O45 O 0.91814 0.33638 0.23 0.0
O46 O 0.86822 0.33769 0.17065 0.0
O47 O 0.74751 0.25544 0.26797 0.0
O48 O 0.79646 0.26756 0.20756 0.0
O49 O 0.75818 0.34071 0.27505 0.0
O50 O 0.80868 0.36061 0.21928 0.0
O51 O 0.73898 0.26907 0.37664 0.0
O52 O 0.76232 0.33468 0.38145 0.0
C53 C 0.86741 0.26036 0.33987 0.0
O54 O 0.87073 0.37636 0.30391 0.0
O55 O 0.85253 0.34099 0.37187 0.0
C56 C 0.93277 0.39416 0.18594 0.0
C57 C 0.98608 0.47461 0.21311 0.0
C58 C 0.9461 0.45807 0.23336 0.0
C59 C 0.91828 0.41947 0.21631 0.0
C60 C 0.9724 0.4104 0.16478 0.0
C61 C 0.99779 0.45105 0.17645 0.0
C62 C 0.91015 0.35061 0.18645 0.0
C63 C 0.75741 0.24812 0.22211 0.0
C64 C 0.77152 0.36215 0.23479 0.0
C65 C 0.74269 0.30197 0.45635 0.0
C66 C 0.7408 0.2509 0.53285 0.0
C67 C 0.78132 0.27996 0.52538 0.0
C68 C 0.78261 0.30362 0.48352 0.0
C69 C 0.7039 0.28619 0.47902 0.0
C70 C 0.70323 0.26157 0.51921 0.0
C71 C 0.73851 0.30198 0.40065 0.0
H72 H 0.93634 0.47471 0.26253 0.0
H73 H 0.88631 0.40872 0.22933 0.0
H74 H 0.98413 0.3917 0.1406 0.0
H75 H 1.02759 0.46372 0.1588 0.0
H76 H 0.81172 0.27969 0.54542 0.0
H77 H 0.81373 0.31853 0.46881 0.0
H78 H 0.67298 0.28676 0.46034 0.0
H79 H 0.67104 0.2444 0.52959 0.0
Dy80 Dy 0.80688 0.79982 0.34647 0.0
Dy81 Dy 0.84796 0.84538 0.24878 0.0
C82 C 0.90408 0.86527 0.35873 0.0
O83 O 0.79543 0.85836 0.35266 0.0
O84 O 0.79536 0.87095 0.26755 0.0
O85 O 0.80361 0.7958 0.42836 0.0
O86 O 0.75644 0.75047 0.37468 0.0
O87 O 0.79786 0.78609 0.21827 0.0
O88 O 0.75282 0.77898 0.28115 0.0
O89 O 0.8877 0.80605 0.26568 0.0
O90 O 0.83888 0.75978 0.31026 0.0
O91 O 0.85289 0.84205 0.16728 0.0
O92 O 0.88905 0.89718 0.21341 0.0
C93 C 0.78584 0.87775 0.31427 0.0
O94 O 0.87935 0.82986 0.37188 0.0
O95 O 0.89294 0.88034 0.3169 0.0
C96 C 0.78838 0.72848 0.44398 0.0
C97 C 0.81622 0.6665 0.47705 0.0
C98 C 0.84002 0.69344 0.44365 0.0
C99 C 0.82658 0.72446 0.4279 0.0
C100 C 0.76343 0.70093 0.47625 0.0
C101 C 0.7777 0.67 0.49338 0.0
C102 C 0.77414 0.75966 0.42214 0.0
C103 C 0.75993 0.76833 0.23532 0.0
C104 C 0.87318 0.77035 0.28386 0.0
C105 C 0.85081 0.90082 0.1343 0.0
C106 C 0.78434 0.9185 0.07631 0.0
C107 C 0.81052 0.9011 0.05154 0.0
C108 C 0.84347 0.8918 0.08076 0.0
C109 C 0.82676 0.92127 0.15778 0.0
C110 C 0.79362 0.92974 0.1291 0.0
C111 C 0.87407 0.88047 0.16705 0.0
H112 H 0.87021 0.69141 0.43149 0.0
H113 H 0.84634 0.7456 0.40331 0.0
H114 H 0.73353 0.70356 0.48833 0.0
H115 H 0.7596 0.64963 0.51999 0.0
H116 H 0.80406 0.89308 0.01049 0.0
H117 H 0.86118 0.87551 0.06209 0.0
H118 H 0.83129 0.92819 0.19896 0.0
H119 H 0.774 0.94382 0.14854 0.0
Dy120 Dy 0.29346 0.83274 0.30077 0.0
Dy121 Dy 0.34394 0.77947 0.27178 0.0
C122 C 0.38879 0.8539 0.35714 0.0
O123 O 0.34213 0.87272 0.24441 0.0
O124 O 0.37832 0.83156 0.22171 0.0
O125 O 0.26315 0.87573 0.27761 0.0
O126 O 0.26662 0.86014 0.35711 0.0
O127 O 0.28496 0.75938 0.21025 0.0
O128 O 0.2414 0.78909 0.24561 0.0
O129 O 0.30039 0.74035 0.33106 0.0
O130 O 0.25304 0.77407 0.33861 0.0
O131 O 0.35831 0.73883 0.21931 0.0
O132 O 0.39043 0.75121 0.2979 0.0
C133 C 0.37311 0.86696 0.21761 0.0
O134 O 0.3483 0.84858 0.36537 0.0
O135 O 0.39524 0.83379 0.31749 0.0
C136 C 0.27891 0.92797 0.34336 0.0
C137 C 0.3075 1.00942 0.37923 0.0
C138 C 0.30931 0.99883 0.32745 0.0
C139 C 0.29487 0.95831 0.30951 0.0
C140 C 0.28141 0.93859 0.39582 0.0
C141 C 0.29598 0.97871 0.41367 0.0
C142 C 0.25948 0.88524 0.32521 0.0
C143 C 0.24655 0.76413 0.21104 0.0
C144 C 0.26367 0.74169 0.34875 0.0
C145 C 0.43331 0.75244 0.23008 0.0
C146 C 0.50435 0.78569 0.17345 0.0
C147 C 0.47703 0.74506 0.16371 0.0
C148 C 0.44181 0.72857 0.19186 0.0
C149 C 0.46103 0.79294 0.24065 0.0
C150 C 0.49667 0.80947 0.21257 0.0
C151 C 0.39112 0.73764 0.251 0.0
H152 H 0.31919 1.02164 0.30024 0.0
H153 H 0.29459 0.95088 0.26894 0.0
H154 H 0.27013 0.91586 0.42297 0.0
H155 H 0.2941 0.98518 0.45395 0.0
H156 H 0.48293 0.72608 0.13397 0.0
H157 H 0.42023 0.69767 0.18248 0.0
H158 H 0.45436 0.81213 0.2694 0.0
H159 H 0.51776 0.84062 0.22087 0.0
Dy160 Dy 0.35988 0.81402 0.70969 0.0
Dy161 Dy 0.30743 0.80477 0.80635 0.0
C162 C 0.39584 0.87643 0.80463 0.0
O163 O 0.39455 0.78035 0.76695 0.0
O164 O 0.35208 0.76864 0.83336 0.0
O165 O 0.38599 0.78446 0.65406 0.0
O166 O 0.40073 0.8488 0.65542 0.0
O167 O 0.27274 0.74693 0.76002 0.0
O168 O 0.29852 0.76434 0.68251 0.0
O169 O 0.27595 0.84282 0.75302 0.0
O170 O 0.3107 0.84616 0.68056 0.0
O171 O 0.27978 0.83506 0.85941 0.0
O172 O 0.27449 0.77318 0.86786 0.0
C173 C 0.38517 0.76321 0.81153 0.0
O174 O 0.38893 0.87265 0.75473 0.0
O175 O 0.37394 0.84817 0.83231 0.0
C176 C 0.45737 0.82545 0.63886 0.0
C177 C 0.54987 0.85416 0.65261 0.0
C178 C 0.52609 0.82541 0.68444 0.0
C179 C 0.48 0.81139 0.67791 0.0
C180 C 0.48105 0.85153 0.60469 0.0
C181 C 0.52675 0.86596 0.61172 0.0
C182 C 0.41019 0.81833 0.63774 0.0
C183 C 0.27378 0.73878 0.7112 0.0
C184 C 0.28145 0.85613 0.70577 0.0
C185 C 0.21529 0.7907 0.88743 0.0
C186 C 0.12594 0.74966 0.89247 0.0
C187 C 0.14029 0.76463 0.84593 0.0
C188 C 0.18509 0.78482 0.8433 0.0
C189 C 0.20035 0.7786 0.93465 0.0
C190 C 0.15581 0.75814 0.93717 0.0
C191 C 0.26221 0.8026 0.88296 0.0
H192 H 0.54288 0.8153 0.71573 0.0
H193 H 0.46223 0.79123 0.70491 0.0
H194 H 0.46423 0.86297 0.57469 0.0
H195 H 0.54401 0.88883 0.58742 0.0
H196 H 0.11739 0.75836 0.81129 0.0
H197 H 0.19644 0.79366 0.80643 0.0
H198 H 0.2234 0.78268 0.96881 0.0
H199 H 0.14494 0.74688 0.97342 0.0
Dy200 Dy 0.35886 0.30581 0.74355 0.0
Dy201 Dy 0.29751 0.30988 0.83305 0.0
C202 C 0.25865 0.25097 0.73109 0.0
O203 O 0.32069 0.346 0.71105 0.0
O204 O 0.28936 0.35835 0.78208 0.0
O205 O 0.36064 0.28232 0.66649 0.0
O206 O 0.4212 0.31486 0.7134 0.0
O207 O 0.3619 0.35619 0.86356 0.0
O208 O 0.40341 0.35918 0.79607 0.0
O209 O 0.33459 0.26895 0.86581 0.0
O210 O 0.38249 0.27216 0.80575 0.0
O211 O 0.27934 0.33952 0.89584 0.0
O212 O 0.23953 0.27795 0.86955 0.0
C213 C 0.29602 0.36378 0.73325 0.0
O214 O 0.29854 0.24999 0.73114 0.0
O215 O 0.25205 0.27691 0.76316 0.0
C216 C 0.4174 0.25522 0.66707 0.0
C217 C 0.44747 0.18932 0.66056 0.0
C218 C 0.41837 0.19088 0.69629 0.0
C219 C 0.40322 0.22331 0.69919 0.0
C220 C 0.44608 0.25353 0.63086 0.0
C221 C 0.4609 0.22077 0.62753 0.0
C222 C 0.40296 0.29033 0.67292 0.0
C223 C 0.399 0.37105 0.84311 0.0
C224 C 0.36888 0.26086 0.85063 0.0
C225 C 0.20341 0.32204 0.89713 0.0
C226 C 0.13899 0.35881 0.89376 0.0
C227 C 0.16497 0.35933 0.93973 0.0
C228 C 0.19723 0.34173 0.94141 0.0
C229 C 0.17518 0.31851 0.85165 0.0
C230 C 0.1432 0.33701 0.84985 0.0
C231 C 0.24249 0.30994 0.89819 0.0
H232 H 0.40781 0.16721 0.72235 0.0
H233 H 0.38076 0.22368 0.72706 0.0
H234 H 0.45739 0.2777 0.60565 0.0
H235 H 0.48356 0.2203 0.59988 0.0
H236 H 0.16031 0.37385 0.97435 0.0
H237 H 0.21818 0.34442 0.97704 0.0
H238 H 0.17847 0.3022 0.81749 0.0
H239 H 0.12237 0.33489 0.81433 0.0
Dy240 Dy 0.78619 0.32109 0.7603 0.0
Dy241 Dy 0.8578 0.2894 0.81399 0.0
C242 C 0.85199 0.37226 0.86204 0.0
O243 O 0.84642 0.35365 0.71854 0.0
O244 O 0.9006 0.34297 0.7712 0.0
O245 O 0.76245 0.34752 0.69545 0.0
O246 O 0.72379 0.32949 0.75874 0.0
O247 O 0.83298 0.24746 0.74171 0.0
O248 O 0.76949 0.2595 0.71849 0.0
O249 O 0.79257 0.2466 0.83948 0.0
O250 O 0.74819 0.28297 0.82154 0.0
O251 O 0.87837 0.25982 0.87738 0.0
O252 O 0.9197 0.2797 0.81643 0.0
C253 C 0.88901 0.36226 0.7328 0.0
O254 O 0.82486 0.37211 0.82106 0.0
O255 O 0.86401 0.34103 0.87022 0.0
C256 C 0.72662 0.39004 0.72703 0.0
C257 C 0.72899 0.44973 0.80027 0.0
C258 C 0.76721 0.45256 0.77777 0.0
C259 C 0.7658 0.42284 0.74056 0.0
C260 C 0.68712 0.39206 0.74187 0.0
C261 C 0.68833 0.42191 0.7787 0.0
C262 C 0.72932 0.34995 0.71806 0.0
C263 C 0.79433 0.23728 0.7143 0.0
C264 C 0.75433 0.2517 0.84278 0.0
C265 C 0.9077 0.21494 0.83934 0.0
C266 C 0.9034 0.1588 0.76006 0.0
C267 C 0.86441 0.15989 0.77736 0.0
C268 C 0.86656 0.18769 0.81745 0.0
C269 C 0.9462 0.20866 0.82811 0.0
C270 C 0.94403 0.18051 0.7884 0.0
C271 C 0.9106 0.25607 0.85402 0.0
H272 H 0.79877 0.47413 0.79374 0.0
H273 H 0.7963 0.42229 0.72832 0.0
H274 H 0.65645 0.36723 0.73155 0.0
H275 H 0.65846 0.41974 0.79551 0.0
H276 H 0.83288 0.1433 0.75572 0.0
H277 H 0.83631 0.1919 0.82552 0.0
H278 H 0.97814 0.22941 0.84438 0.0
H279 H 0.97437 0.17972 0.77532 0.0
Dy280 Dy 0.86581 0.81829 0.83216 0.0
Dy281 Dy 0.80156 0.79355 0.73693 0.0
C282 C 0.88085 0.75046 0.74374 0.0
O283 O 0.90335 0.8692 0.78201 0.0
O284 O 0.86024 0.84301 0.70762 0.0
O285 O 0.89878 0.85898 0.89906 0.0
O286 O 0.91243 0.80429 0.88506 0.0
O287 O 0.77486 0.83995 0.78079 0.0
O288 O 0.81755 0.85173 0.85633 0.0
O289 O 0.7621 0.7444 0.78623 0.0
O290 O 0.80941 0.76489 0.85902 0.0
O291 O 0.73796 0.78849 0.69768 0.0
O292 O 0.78636 0.77779 0.65471 0.0
C293 C 0.8957 0.87091 0.73161 0.0
O294 O 0.8967 0.77698 0.78528 0.0
O295 O 0.84113 0.74913 0.72197 0.0
C296 C 0.90371 0.82113 0.96981 0.0
C297 C 0.88413 0.79326 0.06772 0.0
C298 C 0.91522 0.83188 0.06287 0.0
C299 C 0.92489 0.84565 0.01433 0.0
C300 C 0.87067 0.78409 0.97429 0.0
C301 C 0.86061 0.77052 0.02227 0.0
C302 C 0.91556 0.83351 0.91854 0.0
C303 C 0.78371 0.85764 0.82891 0.0
C304 C 0.77117 0.74022 0.83565 0.0
C305 C 0.75835 0.82656 0.62764 0.0
C306 C 0.78509 0.90023 0.58175 0.0
C307 C 0.80216 0.89746 0.63182 0.0
C308 C 0.78656 0.86192 0.65535 0.0
C309 C 0.74184 0.82832 0.57673 0.0
C310 C 0.75401 0.86555 0.55438 0.0
C311 C 0.75218 0.78898 0.65277 0.0
H312 H 0.93356 0.85096 0.09636 0.0
H313 H 0.94988 0.8748 0.01164 0.0
H314 H 0.85388 0.76441 0.94067 0.0
H315 H 0.83672 0.74056 0.02288 0.0
H316 H 0.82605 0.92352 0.65382 0.0
H317 H 0.79758 0.86205 0.69542 0.0
H318 H 0.71992 0.80138 0.55464 0.0
H319 H 0.74007 0.86717 0.51565 0.0
Co320 Co 0.14822 1.01146 0.52146 0.0
Co321 Co 0.12549 0.99787 0.60541 0.0
Co322 Co 0.0779 0.06409 0.5363 0.0
O323 O 0.12792 0.04303 0.56629 0.0
H324 H 0.1517 0.06479 0.58483 0.0
O325 O 1.02724 0.08534 0.50679 0.0
Co326 Co 1.01691 0.12806 0.54605 0.0
Co327 Co 1.03005 0.12568 0.45697 0.0
H328 H 1.00019 0.06283 0.49803 0.0
O329 O 0.16964 0.98861 0.65619 0.0
O330 O 0.15863 0.9676 0.57329 0.0
O331 O 0.06365 0.97576 0.61781 0.0
O332 O 1.03416 1.0218 0.58607 0.0
O333 O 0.09924 0.1083 0.59355 0.0
O334 O 1.00258 0.15979 0.58796 0.0
O335 O 0.95884 0.10239 0.54261 0.0
O336 O 0.08074 0.1581 0.55971 0.0
O337 O 0.12261 0.10556 0.48715 0.0
O338 O 0.09246 0.1462 0.44267 0.0
O339 O 1.00572 0.16536 0.48438 0.0
O340 O 0.98076 0.13088 0.4089 0.0
C341 C 0.20554 1.02502 0.49235 0.0
C342 C 1.05615 0.98419 0.47806 0.0
C343 C 1.03138 0.98886 0.61174 0.0
C344 C 0.17727 0.96607 0.62065 0.0
C345 C 0.96499 0.1304 0.5789 0.0
C346 C 0.10693 0.14601 0.58944 0.0
C347 C 0.12558 0.13531 0.45573 0.0
C348 C 0.97952 0.15989 0.43983 0.0
O349 O 0.17342 0.99185 0.47499 0.0
O350 O 0.2031 0.04426 0.53426 0.0
O351 O 1.05643 1.02039 0.47875 0.0
O352 O 0.08844 0.97542 0.49972 0.0
Co353 Co 0.62032 0.99413 0.95591 0.0
Co354 Co 0.5865 0.98703 0.04683 0.0
Co355 Co 0.55778 0.06613 0.0203 0.0
O356 O 0.60707 1.03676 0.01403 0.0
H357 H 0.63479 0.05402 0.03203 0.0
O358 O 0.50924 0.09581 0.02389 0.0
Co359 Co 0.5079 0.14596 0.07106 0.0
Co360 Co 0.51573 0.13631 0.97556 0.0
H361 H 0.47993 0.07601 0.01755 0.0
O362 O 0.62799 0.97645 0.08948 0.0
O363 O 0.60458 0.95397 1.00604 0.0
O364 O 0.52876 0.96504 0.0706 0.0
O365 O 0.51534 1.02275 0.0712 0.0
O366 O 0.59362 0.10551 0.08047 0.0
O367 O 0.50478 0.18959 0.11593 0.0
O368 O 0.44607 0.13963 0.08266 0.0
O369 O 0.57277 0.16134 0.07607 0.0
O370 O 0.59879 0.10764 0.97181 0.0
O371 O 0.57272 0.15565 0.94661 0.0
O372 O 0.50057 0.17857 1.00625 0.0
O373 O 0.46587 0.13773 0.93524 0.0
C374 C 0.67105 0.95934 0.92032 0.0
C375 C 0.52593 0.99887 0.93341 0.0
C376 C 0.50497 0.9846 0.08406 0.0
C377 C 0.63111 0.95697 0.04786 0.0
C378 C 0.46218 0.17335 0.1128 0.0
C379 C 0.60067 0.14371 0.09008 0.0
C380 C 0.60314 0.14057 0.94792 0.0
C381 C 0.47085 0.16962 0.96471 0.0
O382 O 0.63004 0.95263 0.90427 0.0
O383 O 0.68326 0.98874 0.95683 0.0
O384 O 0.52328 1.02958 0.95903 0.0
O385 O 0.55995 0.98801 0.93518 0.0
Co386 Co 1.02893 0.50306 0.993 0.0
Co387 Co 0.08785 0.54358 0.06305 0.0
Co388 Co 1.01417 0.58225 0.05947 0.0
O389 O 1.05211 0.56078 0.01752 0.0
H390 H 0.06781 0.57899 0.99353 0.0
O391 O 0.97611 0.60267 0.10031 0.0
Co392 Co 0.99353 0.65437 0.14224 0.0
Co393 Co 0.9392 0.62198 0.05539 0.0
H394 H 0.95775 0.58091 0.11819 0.0
O395 O 0.13681 0.53709 0.04438 0.0
O396 O 0.06814 0.49066 0.04827 0.0
O397 O 0.08697 0.55103 0.13464 0.0
O398 O 0.0622 0.601 0.12196 0.0
O399 O 0.0694 0.62976 0.09272 0.0
O400 O 1.00189 0.6979 0.18472 0.0
O401 O 0.94672 0.63891 0.17956 0.0
O402 O 1.04683 0.68049 0.10926 0.0
O403 O 1.02213 0.62567 0.00924 0.0
O404 O 0.9557 0.62932 0.98686 0.0
O405 O 0.96056 0.67305 0.09006 0.0
O406 O 0.89043 0.63737 0.07119 0.0
C407 C 1.04611 0.46415 0.94577 0.0
C408 C 0.95333 0.50623 0.01316 0.0
C409 C 0.0774 0.57984 0.15275 0.0
C410 C 0.11084 0.50021 0.0478 0.0
C411 C 0.96572 0.67523 0.20156 0.0
C412 C 0.07779 0.66854 0.098 0.0
C413 C 0.99572 0.63738 0.97995 0.0
C414 C 0.92034 0.67065 0.09061 0.0
O415 O 1.0102 0.45191 0.96783 0.0
O416 O 0.06911 0.5028 0.94901 0.0
O417 O 0.96012 0.54417 0.01455 0.0
O418 O 0.9836 0.49567 0.0352 0.0
Co419 Co 0.63187 0.49657 0.02291 0.0
Co420 Co 0.62607 0.50678 0.11537 0.0
Co421 Co 0.58071 0.56791 0.03814 0.0
O422 O 0.62792 0.54185 0.06103 0.0
H423 H 0.6565 0.5629 0.06534 0.0
O424 O 0.53589 0.5995 0.01515 0.0
Co425 Co 0.56298 0.66115 0.00838 0.0
Co426 Co 0.5303 0.61886 0.94491 0.0
H427 H 0.50942 0.59169 0.03218 0.0
O428 O 0.67425 0.50027 0.16033 0.0
O429 O 0.64223 0.46196 0.08803 0.0
O430 O 0.56736 0.49209 0.13687 0.0
O431 O 0.53476 0.5289 0.08922 0.0
O432 O 0.61251 0.6099 0.09612 0.0
O433 O 0.58692 0.7159 0.01081 0.0
O434 O 0.53841 0.67831 0.06001 0.0
O435 O 0.60964 0.66218 0.05703 0.0
O436 O 0.62535 0.60384 0.98627 0.0
O437 O 0.59216 0.63325 0.92703 0.0
O438 O 0.51485 0.6681 0.95543 0.0
O439 O 0.48071 0.62223 0.89297 0.0
C440 C 0.67927 0.48734 0.98688 0.0
C441 C 0.54411 0.48611 0.9821 0.0
C442 C 0.5331 0.50082 0.1231 0.0
C443 C 0.67 0.46826 0.13149 0.0
C444 C 0.5629 0.71356 0.04807 0.0
C445 C 0.62952 0.6473 0.08964 0.0
C446 C 0.62671 0.62674 0.94673 0.0
C447 C 0.48597 0.65744 0.9141 0.0
O448 O 0.63986 0.46042 0.98153 0.0
O449 O 0.69003 0.51704 0.02198 0.0
O450 O 0.55099 0.52413 0.98126 0.0
O451 O 0.56791 0.47221 0.01295 0.0
Co452 Co 0.17609 0.50365 0.57539 0.0
Co453 Co 0.15665 0.51228 0.4824 0.0
Co454 Co 0.08557 0.54667 0.55139 0.0
O455 O 0.11766 0.50343 0.53728 0.0
H456 H 0.09633 0.47641 0.53311 0.0
O457 O 1.05216 0.58926 0.56887 0.0
Co458 Co 0.98484 0.57155 0.56641 0.0
Co459 Co 1.03236 0.5976 0.63841 0.0
H460 H 0.06241 0.61345 0.55079 0.0
O461 O 0.1586 0.46958 0.43551 0.0
O462 O 0.20632 0.49587 0.5058 0.0
O463 O 0.17338 0.56834 0.45879 0.0
O464 O 0.12526 0.58935 0.49823 0.0
O465 O 1.0398 0.51788 0.49285 0.0
O466 O 0.92599 0.55807 0.55659 0.0
O467 O 0.97642 0.60214 0.51534 0.0
O468 O 0.98076 0.52925 0.51612 0.0
O469 O 1.04404 0.50642 0.6023 0.0
O470 O 1.0132 0.53912 0.65626 0.0
O471 O 0.98037 0.61587 0.62111 0.0
O472 O 1.02717 0.64424 0.68717 0.0
C473 C 0.20566 0.46227 0.61233 0.0
C474 C 0.17471 0.58457 0.60373 0.0
C475 C 0.15742 0.59603 0.46751 0.0
C476 C 0.19521 0.47172 0.462 0.0
C477 C 0.93611 0.5867 0.52564 0.0
C478 C 0.99825 0.50997 0.48848 0.0
C479 C 1.01763 0.50626 0.63849 0.0
C480 C 0.99036 0.64233 0.66163 0.0
O481 O 0.22611 0.50096 0.61391 0.0
O482 O 0.16629 0.44846 0.58597 0.0
O483 O 0.13327 0.57226 0.60838 0.0
O484 O 0.19338 0.56331 0.57921 0.0
Co485 Co 0.7266 0.04459 0.47822 0.0
Co486 Co 0.66468 1.02595 0.41038 0.0
Co487 Co 0.62652 0.04054 0.518 0.0
O488 O 0.66458 1.01824 0.48129 0.0
H489 H 0.65619 0.98961 0.48448 0.0
O490 O 0.58964 0.06436 0.55486 0.0
Co491 Co 0.5311 0.06365 0.53586 0.0
Co492 Co 0.56681 1.03752 0.61112 0.0
H493 H 0.60659 0.09183 0.56715 0.0
O494 O 0.6561 0.98015 0.36641 0.0
O495 O 0.72083 1.0227 0.40502 0.0
O496 O 0.66674 0.08141 0.39802 0.0
O497 O 0.62203 0.07273 0.45777 0.0
O498 O 0.57262 0.99389 0.48338 0.0
O499 O 0.47934 0.06827 0.5154 0.0
O500 O 0.54253 0.08766 0.47857 0.0
O501 O 0.51446 1.01155 0.49904 0.0
O502 O 0.63511 1.00629 0.57623 0.0
O503 O 0.57808 0.98933 0.62256 0.0
O504 O 0.51279 0.04046 0.59937 0.0
O505 O 0.56216 0.0674 0.66859 0.0
C506 C 0.77985 1.02697 0.49523 0.0
C507 C 0.71739 0.09195 0.56914 0.0
C508 C 0.65466 0.09588 0.43684 0.0
C509 C 0.69817 0.98899 0.37814 0.0
C510 C 0.50414 0.09013 0.48348 0.0
C511 C 0.53069 0.98695 0.4792 0.0
C512 C 0.6135 0.98568 0.61044 0.0
C513 C 0.52596 0.06498 0.64091 0.0
O514 O 0.78689 0.06239 0.47869 0.0
O515 O 0.74016 1.00368 0.49949 0.0
O516 O 0.67763 0.08731 0.5534 0.0
O517 O 0.73583 0.06915 0.54968 0.0
C518 C 0.2203 0.2323 0.42106 0.0
C519 C 0.23521 0.2204 0.37521 0.0
C520 C 0.18145 0.15019 0.38499 0.0
C521 C 0.16903 0.16163 0.43284 0.0
N522 N 0.18404 0.21458 0.49913 0.0
N523 N 0.23326 0.16422 0.31967 0.0
C524 C 0.19106 0.20296 0.45143 0.0
C525 C 0.21655 0.17819 0.35916 0.0
N526 N 0.23145 0.27247 0.43404 0.0
N527 N 0.15825 0.11264 0.36258 0.0
H528 H 0.25836 0.18308 0.30057 0.0
H529 H 0.22508 0.13378 0.30888 0.0
H530 H 0.13397 0.0916 0.38049 0.0
H531 H 0.16109 0.10329 0.3253 0.0
H532 H 0.21824 0.28402 0.46297 0.0
H533 H 0.25029 0.29449 0.4121 0.0
H534 H 0.2021 0.24239 0.51841 0.0
H535 H 0.16288 0.19468 0.52144 0.0
C536 C 0.94231 0.25297 0.38751 0.0
C537 C 0.89602 0.235 0.36828 0.0
C538 C 0.90343 0.17041 0.40441 0.0
C539 C 0.95044 0.18751 0.41975 0.0
N540 N 1.01381 0.24695 0.41778 0.0
N541 N 0.83568 0.17216 0.35533 0.0
C542 C 0.96916 0.2294 0.40912 0.0
C543 C 0.87781 0.19256 0.37656 0.0
N544 N 0.96097 0.2938 0.3873 0.0
N545 N 0.88217 0.13244 0.41822 0.0
H546 H 0.81638 0.18636 0.33572 0.0
H547 H 0.82106 0.14096 0.35326 0.0
H548 H 0.89868 0.1159 0.43808 0.0
H549 H 0.8481 0.11871 0.41443 0.0
H550 H 0.99215 0.31035 0.40549 0.0
H551 H 0.94358 0.31165 0.37285 0.0
H552 H 1.03131 0.27498 0.40551 0.0
H553 H 1.03372 0.23192 0.43408 0.0
C554 C 0.94117 0.90619 0.4409 0.0
C555 C 0.9449 0.89013 0.39207 0.0
C556 C 1.02401 0.93157 0.40259 0.0
C557 C 1.01802 0.95194 0.44762 0.0
N558 N 0.9651 0.96591 0.49769 0.0
N559 N 0.98976 0.89009 0.32358 0.0
C560 C 0.97503 0.94135 0.46342 0.0
C561 C 0.98641 0.90346 0.37211 0.0
N562 N 0.90517 0.88867 0.46599 0.0
N563 N 0.06526 0.93974 0.38807 0.0
H564 H 0.96371 0.86838 0.30107 0.0
H565 H 1.01755 0.9021 0.30446 0.0
H566 H 0.09292 0.9624 0.4066 0.0
H567 H 0.07242 0.92266 0.3593 0.0
H568 H 0.90411 0.89685 0.50442 0.0
H569 H 0.87847 0.86371 0.4507 0.0
H570 H 0.93326 0.96073 0.50708 0.0
H571 H 0.98696 0.9941 0.51089 0.0
C572 C 0.31912 0.06253 0.44689 0.0
C573 C 0.30456 0.04903 0.39492 0.0
C574 C 0.23075 0.04502 0.40666 0.0
C575 C 0.24157 0.0435 0.46037 0.0
N576 N 0.29888 0.07188 0.53194 0.0
N577 N 0.25999 0.06178 0.32471 0.0
C578 C 0.28677 0.05996 0.48105 0.0
C579 C 0.26494 0.05287 0.37455 0.0
N580 N 0.36202 0.06943 0.46402 0.0
N581 N 0.1885 1.03879 0.38677 0.0
H582 H 0.2863 0.06849 0.30248 0.0
H583 H 0.23191 0.0661 0.30765 0.0
H584 H 0.16361 1.03721 0.40992 0.0
H585 H 0.17832 1.03507 0.3474 0.0
H586 H 0.37493 0.07467 0.50259 0.0
H587 H 0.38401 0.06796 0.4381 0.0
H588 H 0.33101 0.08919 0.5459 0.0
H589 H 0.27696 0.06821 0.55935 0.0
C590 C 0.20791 0.8751 0.68611 0.0
C591 C 0.25394 0.88323 0.6808 0.0
C592 C 0.24719 0.94102 0.62735 0.0
C593 C 0.20273 0.93536 0.63744 0.0
N594 N 0.14385 0.89698 0.68409 0.0
N595 N 0.31769 0.9315 0.65081 0.0
C596 C 0.18449 0.90247 0.66923 0.0
C597 C 0.2732 0.91808 0.65205 0.0
N598 N 0.18495 0.83939 0.7048 0.0
N599 N 0.26528 0.96887 0.59357 0.0
H600 H 0.33789 0.91767 0.66923 0.0
H601 H 0.33521 0.9586 0.63628 0.0
H602 H 0.24849 0.98639 0.57663 0.0
H603 H 0.29493 0.97214 0.57902 0.0
H604 H 0.15091 0.82874 0.70486 0.0
H605 H 0.19923 0.81815 0.7149 0.0
H606 H 0.13048 0.878 0.71239 0.0
H607 H 0.12461 0.91348 0.67039 0.0
C608 C 0.21806 0.18579 0.67394 0.0
C609 C 0.22111 0.2249 0.69231 0.0
C610 C 0.14798 0.21276 0.64479 0.0
C611 C 0.14722 0.17551 0.62186 0.0
N612 N 0.19457 0.13945 0.59888 0.0
N613 N 0.19636 0.2801 0.67217 0.0
C614 C 0.186 0.16555 0.63196 0.0
C615 C 0.18811 0.23979 0.67133 0.0
N616 N 0.24465 0.16712 0.69645 0.0
N617 N 0.11095 0.22261 0.64298 0.0
H618 H 0.22776 0.30073 0.68327 0.0
H619 H 0.17438 0.29231 0.65406 0.0
H620 H 0.08016 0.20311 0.62733 0.0
H621 H 0.11034 0.24854 0.66259 0.0
H622 H 0.24103 0.13747 0.68545 0.0
H623 H 0.26632 0.17916 0.72957 0.0
H624 H 0.2239 0.13349 0.60284 0.0
H625 H 0.17541 0.12892 0.56383 0.0
C626 C 0.91106 0.17465 0.66879 0.0
C627 C 0.90337 0.14547 0.70602 0.0
C628 C 0.9181 0.09808 0.64694 0.0
C629 C 0.93068 0.12907 0.61236 0.0
N630 N 0.92564 0.19013 0.58104 0.0
N631 N 0.88676 0.07681 0.72671 0.0
C632 C 0.92194 0.16498 0.62012 0.0
C633 C 0.9022 0.10603 0.6935 0.0
N634 N 0.91094 0.2124 0.68136 0.0
N635 N 0.92387 0.06224 0.63682 0.0
H636 H 0.87542 0.08256 0.76115 0.0
H637 H 0.88178 0.04651 0.7187 0.0
H638 H 0.9333 0.05448 0.60221 0.0
H639 H 0.9195 0.03995 0.66265 0.0
H640 H 0.92214 0.23658 0.65866 0.0
H641 H 0.90122 0.22022 0.71584 0.0
H642 H 0.9178 0.2162 0.58267 0.0
H643 H 0.93288 0.1826 0.54481 0.0
C644 C 0.94764 0.88974 0.65815 0.0
C645 C 0.92855 0.90269 0.69953 0.0
C646 C 0.97245 0.97418 0.67972 0.0
C647 C 0.98971 0.9611 0.63658 0.0
N648 N 0.98551 0.90398 0.58097 0.0
N649 N 0.91823 0.95935 0.74237 0.0
C650 C 0.97449 0.91816 0.62496 0.0
C651 C 0.93983 0.94558 0.70803 0.0
N652 N 0.94252 0.84987 0.6521 0.0
N653 N 0.9888 1.0141 0.6956 0.0
H654 H 0.89508 0.94001 0.76338 0.0
H655 H 0.9205 0.98932 0.74687 0.0
H656 H 1.01089 1.03538 0.67552 0.0
H657 H 0.98242 1.02572 0.72989 0.0
H658 H 0.95966 0.83854 0.62763 0.0
H659 H 0.92445 0.82839 0.67533 0.0
H660 H 0.97132 0.87425 0.56577 0.0
H661 H 1.00592 0.92274 0.5569 0.0
C662 C 0.39936 0.20604 0.22308 0.0
C663 C 0.39056 0.24064 0.20482 0.0
C664 C 0.42216 0.22685 0.12318 0.0
C665 C 0.43414 0.19435 0.14318 0.0
N666 N 0.43773 0.15746 0.21765 0.0
N667 N 0.40038 0.28589 0.13683 0.0
C668 C 0.42353 0.18539 0.19465 0.0
C669 C 0.40359 0.25108 0.15443 0.0
N670 N 0.38251 0.19113 0.26698 0.0
N671 N 0.42787 0.23442 0.07304 0.0
H672 H 0.38744 0.30414 0.15724 0.0
H673 H 0.41395 0.29867 0.10432 0.0
H674 H 0.44207 0.21868 0.05021 0.0
H675 H 0.41548 0.25368 0.05287 0.0
H676 H 0.38167 0.16325 0.27909 0.0
H677 H 0.3654 0.20481 0.28856 0.0
H678 H 0.43665 0.15255 0.25659 0.0
H679 H 0.45352 0.14109 0.19829 0.0
C680 C 1.00456 0.55069 0.22467 0.0
C681 C 1.01684 0.5158 0.23036 0.0
C682 C 0.09387 0.55938 0.23675 0.0
C683 C 0.07884 0.58628 0.20939 0.0
N684 N 1.03398 0.62413 0.23003 0.0
N685 N 0.07591 0.49238 0.26348 0.0
C686 C 1.03907 0.58801 0.22299 0.0
C687 C 0.06224 0.5219 0.24491 0.0
N688 N 0.96188 0.5485 0.2156 0.0
N689 N 0.13774 0.56691 0.24674 0.0
H690 H 1.05425 0.46408 0.27053 0.0
H691 H 1.05425 0.46408 0.27053 0.0
H692 H 0.16056 0.59403 0.23757 0.0
H693 H 0.15017 0.54657 0.26449 0.0
H694 H 0.95337 0.57385 0.20994 0.0
H695 H 0.93515 0.52175 0.21012 0.0
H696 H 1.0066 0.62674 0.24544 0.0
H697 H 1.0596 0.65086 0.22532 0.0
C698 C 0.75046 0.9668 0.04881 0.0
C699 C 0.74685 0.92619 0.04904 0.0
C700 C 0.66663 0.90526 0.0348 0.0
C701 C 0.67058 0.94593 0.04582 0.0
N702 N 0.7169 1.01621 0.06448 0.0
N703 N 0.70262 0.85568 0.04079 0.0
C704 C 0.71276 0.97694 0.05373 0.0
C705 C 0.70523 0.89495 0.04029 0.0
N706 N 0.79044 0.99548 0.04451 0.0
N707 N 0.62621 0.87655 0.02066 0.0
H708 H 0.73037 0.84722 0.04302 0.0
H709 H 0.67324 0.83162 0.04107 0.0
H710 H 0.59694 0.88249 0.01973 0.0
H711 H 0.62184 0.84737 1.00681 0.0
H712 H 0.79486 1.02559 0.03959 0.0
H713 H 0.81836 0.98795 0.04035 0.0
H714 H 0.74688 1.03869 0.07715 0.0
H715 H 0.69045 1.02644 0.06226 0.0
C716 C 0.17998 0.76147 0.14925 0.0
C717 C 0.20735 0.74129 0.17248 0.0
C718 C 0.15915 0.6793 0.12265 0.0
C719 C 0.12563 0.69621 0.11211 0.0
N720 N 0.10914 0.75723 0.10511 0.0
N721 N 0.21785 0.67767 0.18486 0.0
C722 C 0.13756 0.73857 0.12244 0.0
C723 C 0.19576 0.69934 0.15986 0.0
N724 N 0.19558 0.80257 0.15035 0.0
N725 N 0.15781 0.64545 0.09501 0.0
H726 H 0.24312 0.69004 0.2146 0.0
H727 H 0.2076 0.64637 0.1796 0.0
H728 H 0.13558 0.63353 0.06223 0.0
H729 H 0.18291 0.63344 0.09963 0.0
H730 H 0.17917 0.81923 0.13082 0.0
H731 H 0.22732 0.82001 0.16632 0.0
H732 H 0.11228 0.78636 0.11784 0.0
H733 H 0.08243 0.74341 0.0774 0.0
C734 C 0.47051 0.92996 0.81798 0.0
C735 C 0.42683 0.91397 0.83075 0.0
C736 C 0.44516 0.96049 0.9071 0.0
C737 C 0.48915 0.97608 0.89467 0.0
N738 N 0.5373 0.98807 0.8275 0.0
N739 N 0.36913 0.92471 0.87423 0.0
C740 C 0.49963 0.96501 0.84627 0.0
C741 C 0.41296 0.93281 0.87104 0.0
N742 N 0.4853 0.91058 0.78169 0.0
N743 N 0.4342 0.96984 0.95387 0.0
H744 H 0.34481 0.90589 0.8467 0.0
H745 H 0.35732 0.94025 0.90036 0.0
H746 H 0.45627 0.98961 0.98228 0.0
H747 H 0.40354 0.9552 0.96623 0.0
H748 H 0.51828 0.91954 0.77515 0.0
H749 H 0.46585 0.88353 0.76152 0.0
H750 H 0.54436 0.98299 0.79036 0.0
H751 H 0.55851 1.01498 0.84678 0.0
C752 C 0.1137 0.41699 0.87023 0.0
C753 C 0.10687 0.3804 0.89441 0.0
C754 C 1.05921 0.39758 0.9505 0.0
C755 C 0.06383 0.4336 0.92488 0.0
N756 N 0.08484 0.46996 0.84964 0.0
N757 N 1.06069 0.32986 0.94317 0.0
C758 C 0.08765 0.44088 0.88118 0.0
C759 C 0.07484 0.36857 0.92908 0.0
N760 N 0.1464 0.43012 0.83904 0.0
N761 N 1.04424 0.39223 0.99783 0.0
H762 H 0.07186 0.308 0.9279 0.0
H763 H 1.03461 0.31876 0.96529 0.0
H764 H 1.0371 0.41382 0.01949 0.0
H765 H 1.04483 0.36812 0.01921 0.0
H766 H 0.1559 0.45869 0.82513 0.0
H767 H 0.16607 0.41357 0.82997 0.0
H768 H 0.09867 0.47421 0.81498 0.0
H769 H 0.06452 0.48663 0.85521 0.0
C770 C 0.72333 0.20906 0.92042 0.0
C771 C 0.71643 0.22038 0.86897 0.0
C772 C 0.63756 0.17351 0.867 0.0
C773 C 0.64404 0.16351 0.9191 0.0
N774 N 0.69715 0.16596 0.9905 0.0
N775 N 0.66446 0.21271 0.79415 0.0
C776 C 0.68821 0.17952 0.94406 0.0
C777 C 0.67276 0.20225 0.84278 0.0
N778 N 0.7629 0.22897 0.94867 0.0
N779 N 0.59795 0.153 0.83901 0.0
H780 H 0.68906 0.2295 0.77288 0.0
H781 H 0.63312 0.20616 0.77504 0.0
H782 H 0.57276 0.13075 0.85408 0.0
H783 H 0.59098 0.15474 0.79976 0.0
H784 H 0.76925 0.22662 0.98791 0.0
H785 H 0.78858 0.25089 0.93397 0.0
H786 H 0.72878 0.17204 0.00866 0.0
H787 H 0.67296 0.14585 0.00938 0.0
C788 C 0.92593 0.77606 0.13891 0.0
C789 C 0.8841 0.77288 0.11707 0.0
C790 C 0.86404 0.70019 0.11852 0.0
C791 C 0.909 0.70545 0.11179 0.0
N792 N 0.98509 0.75555 0.11887 0.0
N793 N 0.8086 0.73291 0.11669 0.0
C794 C 0.94133 0.74518 0.12441 0.0
C795 C 0.85131 0.73499 0.1193 0.0
N796 N 0.95128 0.80918 0.16949 0.0
N797 N 0.83448 0.66304 0.1247 0.0
H798 H 0.80086 0.75918 0.11571 0.0
H799 H 0.78172 0.70623 0.11442 0.0
H800 H 0.84419 0.63857 0.13273 0.0
H801 H 0.80138 0.65747 0.1282 0.0
H802 H 0.98201 0.81165 0.18797 0.0
H803 H 0.93892 0.83165 0.17962 0.0
H804 H 1.00029 0.7372 0.10348 0.0
H805 H 1.00654 0.78531 0.1254 0.0
C806 C 0.13558 0.41336 0.10507 0.0
C807 C 0.16943 0.41103 0.07627 0.0
C808 C 0.16189 0.46458 0.02449 0.0
C809 C 0.13099 0.46939 0.05666 0.0
N810 N 0.10264 0.45844 0.139 0.0
N811 N 0.22214 0.44018 0.01676 0.0
C812 C 0.12131 0.44635 0.09993 0.0
C813 C 0.18507 0.43858 0.03858 0.0
N814 N 0.11809 0.3851 0.13878 0.0
N815 N 0.16827 0.48378 0.97999 0.0
H816 H 0.23903 0.42048 0.02494 0.0
H817 H 0.23748 0.46258 0.99303 0.0
H818 H 0.15147 0.50272 0.9679 0.0
H819 H 0.1871 0.47788 0.95274 0.0
H820 H 0.09006 0.3836 0.15617 0.0
H821 H 0.12931 0.36146 0.14656 0.0
H822 H 0.0987 0.44471 0.17368 0.0
H823 H 0.09698 0.48555 0.13969 0.0
C824 C 1.05278 0.73518 0.92288 0.0
C825 C 0.08086 0.72164 0.89513 0.0
C826 C 1.03441 0.65197 0.90209 0.0
C827 C 1.01441 0.66547 0.94094 0.0
N828 N 0.99923 0.7198 0.98435 0.0
N829 N 0.09735 0.66725 0.85391 0.0
C830 C 1.021 0.70706 0.94917 0.0
C831 C 0.07066 0.68001 0.88208 0.0
N832 N 1.05763 0.77505 0.92484 0.0
N833 N 1.0185 0.61232 0.88492 0.0
H834 H 0.12369 0.68697 0.83752 0.0
H835 H 0.09459 0.63719 0.8487 0.0
H836 H 0.99041 0.59233 0.89808 0.0
H837 H 1.02961 0.60058 0.85416 0.0
H838 H 1.03622 0.78677 0.94123 0.0
H839 H 0.08109 0.79579 0.90554 0.0
H840 H 1.00712 0.7498 0.99733 0.0
H841 H 0.97352 0.70012 1.00152 0.0
C842 C 0.44196 0.25615 0.89589 0.0
C843 C 0.39482 0.23947 0.88536 0.0
C844 C 0.39833 0.18299 0.93912 0.0
C845 C 0.44545 0.19727 0.9445 0.0
N846 N 0.51155 0.24629 0.92136 0.0
N847 N 0.32936 0.18282 0.89324 0.0
C848 C 0.46692 0.23373 0.92134 0.0
C849 C 0.37345 0.20197 0.90661 0.0
N850 N 0.46336 0.29444 0.88315 0.0
N851 N 0.37697 0.15121 0.96618 0.0
H852 H 0.31035 0.19481 0.86923 0.0
H853 H 0.31233 0.15354 0.90199 0.0
H854 H 0.39374 0.13688 0.9898 0.0
H855 H 0.34333 0.14161 0.96923 0.0
H856 H 0.49647 0.31037 0.89491 0.0
H857 H 0.44723 0.31196 0.86504 0.0
H858 H 0.52907 0.26917 0.89955 0.0
H859 H 0.53086 0.23188 0.94051 0.0
C860 C 0.91116 0.44158 0.88555 0.0
C861 C 0.87341 0.40997 0.89838 0.0
C862 C 0.88473 0.44466 0.9855 0.0
C863 C 0.92157 0.47677 0.97177 0.0
N864 N 0.96596 0.50827 0.90595 0.0
N865 N 0.82132 0.38382 0.95899 0.0
C866 C 0.93298 0.47616 0.92067 0.0
C867 C 0.85927 0.41244 0.94791 0.0
N868 N 0.92857 0.4371 0.84125 0.0
N869 N 0.87504 0.44433 0.03526 0.0
H870 H 0.80295 0.35953 0.93307 0.0
H871 H 0.80625 0.38546 0.99197 0.0
H872 H 0.89145 0.46814 0.06269 0.0
H873 H 0.85231 0.42001 0.05016 0.0
H874 H 0.95896 0.45595 0.83214 0.0
H875 H 0.91425 0.41218 0.81542 0.0
H876 H 0.97234 0.51242 0.86789 0.0
H877 H 0.98538 0.53228 0.93148 0.0
C878 C 0.7746 0.92307 0.88209 0.0
C879 C 0.75507 0.8842 0.8527 0.0
C880 C 0.68178 0.89243 0.87391 0.0
C881 C 0.70092 0.9333 0.89804 0.0
N882 N 0.77049 0.98747 0.91577 0.0
N883 N 0.68472 0.83642 0.81764 0.0
C884 C 0.74871 0.948 0.89969 0.0
C885 C 0.70725 0.87091 0.84764 0.0
N886 N 0.81919 0.93725 0.89368 0.0
N887 N 0.63868 0.87173 0.87926 0.0
H888 H 0.70001 0.81789 0.80226 0.0
H889 H 0.65124 0.82772 0.80516 0.0
H890 H 0.61979 0.88351 0.9004 0.0
H891 H 0.62323 0.84113 0.86875 0.0
H892 H 0.83578 0.96111 0.92083 0.0
H893 H 0.83943 0.92344 0.87863 0.0
H894 H 0.8037 1.00242 0.91259 0.0
H895 H 0.75448 1.00653 0.92766 0.0
C896 C 0.94326 0.75464 0.28622 0.0
C897 C 0.89684 0.74164 0.27432 0.0
C898 C 0.89776 0.67592 0.24241 0.0
C899 C 0.94374 0.69316 0.23946 0.0
N900 N 1.01196 0.74458 0.27408 0.0
N901 N 0.8292 0.6886 0.24043 0.0
C902 C 0.96708 0.73131 0.26626 0.0
C903 C 0.87373 0.70163 0.25303 0.0
N904 N 0.96407 0.78806 0.31901 0.0
N905 N 0.87739 0.63513 0.23755 0.0
H906 H 0.81078 0.70728 0.24324 0.0
H907 H 0.81102 0.66028 0.22261 0.0
H908 H 0.89499 0.61552 0.23686 0.0
H909 H 0.84439 0.6209 0.24261 0.0
H910 H 0.99741 0.79814 0.33231 0.0
H911 H 0.94686 0.80357 0.33727 0.0
H912 H 1.0315 0.77419 0.28576 0.0
H913 H 1.02961 0.72528 0.26953 0.0
C914 C 0.41208 0.88825 0.13133 0.0
C915 C 0.40287 0.89992 0.1813 0.0
C916 C 0.45719 0.97028 0.16601 0.0
C917 C 0.46511 0.95863 0.11556 0.0
N918 N 0.43959 0.90546 0.04798 0.0
N919 N 0.41322 0.9578 0.23914 0.0
C920 C 0.43959 0.91722 0.0983 0.0
C921 C 0.42431 0.94268 0.19602 0.0
N922 N 0.39397 0.84862 0.11403 0.0
N923 N 0.48291 1.0076 0.18716 0.0
H924 H 0.3911 0.93983 0.26203 0.0
H925 H 0.42277 0.98844 0.24968 0.0
H926 H 0.50557 1.02814 0.16687 0.0
H927 H 0.48415 1.01709 0.22557 0.0
H928 H 0.40508 0.83598 0.08407 0.0
H929 H 0.36862 0.82785 0.13063 0.0
H930 H 0.41837 0.87826 0.02979 0.0
H931 H 0.45764 0.92468 0.02248 0.0
C932 C 0.70548 0.23366 0.1392 0.0
C933 C 0.72123 0.21954 0.18456 0.0
C934 C 0.65693 0.15652 0.16961 0.0
C935 C 0.64314 0.16916 0.12186 0.0
N936 N 0.66023 0.21746 0.05706 0.0
N937 N 0.7165 0.16414 0.23694 0.0
C938 C 0.66925 0.20703 0.10547 0.0
C939 C 0.69834 0.17985 0.19774 0.0
N940 N 0.72327 0.27332 0.12961 0.0
N941 N 0.62924 0.12376 0.19023 0.0
H942 H 0.74679 0.18021 0.25788 0.0
H943 H 0.70381 0.13405 0.24518 0.0
H944 H 0.59773 0.1071 0.17294 0.0
H945 H 0.63556 0.11567 0.22723 0.0
H946 H 0.70959 0.28655 0.10101 0.0
H947 H 0.74944 0.29402 0.15302 0.0
H948 H 0.68108 0.24228 0.04083 0.0
H949 H 0.63437 0.19918 0.03097 0.0
C950 C 0.70558 0.67121 0.83983 0.0
C951 C 0.73742 0.70734 0.86569 0.0
C952 C 0.70752 0.67846 0.94719 0.0
C953 C 0.66949 0.64856 0.92034 0.0
N954 N 0.63424 0.6173 0.83691 0.0
N955 N 0.75913 0.74666 0.94798 0.0
C956 C 0.66917 0.64558 0.8654 0.0
C957 C 0.73602 0.71103 0.92058 0.0
N958 N 0.71141 0.65927 0.79168 0.0
N959 N 0.71763 0.67568 0.99823 0.0
H960 H 0.77584 0.77279 0.93094 0.0
H961 H 0.7566 0.75153 0.98694 0.0
H962 H 0.6987 0.6522 0.01827 0.0
H963 H 0.74697 0.69444 0.0188 0.0
H964 H 0.69188 0.63177 0.77259 0.0
H965 H 0.73929 0.67389 0.7738 0.0
H966 H 0.62874 0.6168 0.79697 0.0
H967 H 0.6099 0.59532 0.85356 0.0
C968 C 0.45895 0.75053 0.84992 0.0
C969 C 0.41171 0.73634 0.83791 0.0
C970 C 0.41302 0.67271 0.88078 0.0
C971 C 0.46034 0.68566 0.88949 0.0
N972 N 0.52738 0.73705 0.87292 0.0
N973 N 0.34566 0.67853 0.83683 0.0
C974 C 0.48269 0.72477 0.87156 0.0
C975 C 0.38962 0.69601 0.85243 0.0
N976 N 0.48172 0.78981 0.8426 0.0
N977 N 0.38956 0.63818 0.90166 0.0
H978 H 0.32754 0.69351 0.81667 0.0
H979 H 0.32796 0.64816 0.83947 0.0
H980 H 0.40463 0.62074 0.92195 0.0
H981 H 0.35572 0.6288 0.90316 0.0
H982 H 0.51486 0.80431 0.85563 0.0
H983 H 0.46643 0.80904 0.82733 0.0
H984 H 0.54608 0.76222 0.85544 0.0
H985 H 0.54556 0.72011 0.88818 0.0
C986 C 0.44434 0.39383 0.9301 0.0
C987 C 0.43778 0.40046 0.87698 0.0
C988 C 0.50492 0.46126 0.89138 0.0
C989 C 0.5072 0.45724 0.94548 0.0
N990 N 0.46873 0.42597 0.01555 0.0
N991 N 0.45806 0.4466 0.81012 0.0
C992 C 0.47402 0.42523 0.96457 0.0
C993 C 0.46714 0.43585 0.8583 0.0
N994 N 0.42364 0.35712 0.94799 0.0
N995 N 0.53921 0.48852 0.87116 0.0
H996 H 0.42985 0.4303 0.78575 0.0
H997 H 0.47607 0.47402 0.79658 0.0
H998 H 0.56761 0.507 0.89369 0.0
H999 H 0.5412 0.48998 0.83171 0.0
H1000 H 0.43068 0.35034 0.98554 0.0
H1001 H 0.40385 0.33209 0.92426 0.0
H1002 H 0.44261 0.40503 0.03096 0.0
H1003 H 0.48688 0.45072 0.04057 0.0
C1004 C 0.72973 0.43884 0.89322 0.0
C1005 C 0.73237 0.46581 0.8539 0.0
C1006 C 0.72368 0.51529 0.91512 0.0
C1007 C 0.70993 0.48451 0.94993 0.0
N1008 N 0.70164 0.41741 0.97379 0.0
N1009 N 0.73475 0.53034 0.82641 0.0
C1010 C 0.71455 0.44668 0.94 0.0
C1011 C 0.73118 0.50465 0.86482 0.0
N1012 N 0.74036 0.40518 0.88494 0.0
N1013 N 0.72846 0.55416 0.92936 0.0
H1014 H 0.7419 0.52361 0.78983 0.0
H1015 H 0.72857 0.55719 0.82985 0.0
H1016 H 0.72405 0.56353 0.9659 0.0
H1017 H 0.74138 0.57812 0.90679 0.0
H1018 H 0.74161 0.38555 0.91314 0.0
H1019 H 0.75165 0.3986 0.8509 0.0
H1020 H 0.69891 0.3876 0.96598 0.0
H1021 H 0.69101 0.4224 0.00892 0.0
C1022 C 0.74872 0.401 0.15437 0.0
C1023 C 0.74435 0.38845 0.20659 0.0
C1024 C 0.68499 0.42125 0.20353 0.0
C1025 C 0.69322 0.43759 0.15426 0.0
N1026 N 0.74542 0.45047 0.09233 0.0
N1027 N 0.71309 0.40037 0.28336 0.0
C1028 C 0.72859 0.42936 0.13265 0.0
C1029 C 0.7135 0.40227 0.23141 0.0
N1030 N 0.77073 0.38485 0.12328 0.0
N1031 N 0.6489 0.42332 0.22448 0.0
H1032 H 0.73527 0.39133 0.30643 0.0
H1033 H 0.69502 0.41317 0.30458 0.0
H1034 H 0.62765 0.43627 0.20623 0.0
H1035 H 0.6376 0.40847 0.25685 0.0
H1036 H 0.7713 0.38954 0.0842 0.0
H1037 H 0.78367 0.36301 0.1343 0.0
H1038 H 0.77401 0.44979 0.07796 0.0
H1039 H 0.73302 0.47156 0.07672 0.0
C1040 C 0.71165 0.69561 0.21069 0.0
C1041 C 0.72502 0.73693 0.20042 0.0
C1042 C 0.68584 0.71823 0.11359 0.0
C1043 C 0.66826 0.67668 0.12488 0.0
N1044 N 0.68223 0.62605 0.17627 0.0
N1045 N 0.71698 0.78799 0.14675 0.0
C1046 C 0.68579 0.66527 0.1715 0.0
C1047 C 0.70997 0.74822 0.15317 0.0
N1048 N 0.72333 0.68526 0.25821 0.0
N1049 N 0.68252 0.72934 0.06428 0.0
H1050 H 0.73419 0.81096 0.17496 0.0
H1051 H 0.70143 0.79775 0.11608 0.0
H1052 H 0.66907 0.70922 0.0323 0.0
H1053 H 0.69879 0.75831 0.05374 0.0
H1054 H 0.7101 0.65649 0.27083 0.0
H1055 H 0.74393 0.70621 0.28673 0.0
H1056 H 0.69707 0.61623 0.20743 0.0
H1057 H 0.67077 0.60418 0.1458 0.0
C1058 C 0.53247 0.80185 0.0911 0.0
C1059 C 0.54262 0.80073 0.14438 0.0
C1060 C 0.58262 0.75637 0.13119 0.0
C1061 C 0.56499 0.7501 0.07845 0.0
N1062 N 0.53627 0.77641 1.00475 0.0
N1063 N 0.59782 0.79956 0.20997 0.0
C1064 C 0.54515 0.77683 0.05682 0.0
C1065 C 0.57663 0.78722 0.16173 0.0
N1066 N 0.50618 0.82285 0.07498 0.0
N1067 N 0.60074 0.73069 0.15327 0.0
H1068 H 0.59054 0.82063 0.23296 0.0
H1069 H 0.62459 0.79183 0.2244 0.0
H1070 H 0.6019 0.7055 0.133 0.0
H1071 H 0.61082 0.73238 0.19252 0.0
H1072 H 0.49349 0.82256 0.03693 0.0
H1073 H 0.49686 0.8404 0.10138 0.0
H1074 H 0.52353 0.79637 0.98678 0.0
H1075 H 0.54437 0.75756 0.97921 0.0
C1076 C 0.4219 0.45532 0.19331 0.0
C1077 C 0.4229 0.41648 0.20667 0.0
C1078 C 0.48689 0.43043 0.15385 0.0
C1079 C 0.49052 0.47172 0.1464 0.0
N1080 N 0.4602 0.52289 0.16533 0.0
N1081 N 0.46373 0.37143 0.20372 0.0
C1082 C 0.45724 0.48372 0.16758 0.0
C1083 C 0.45772 0.40576 0.18825 0.0
N1084 N 0.38699 0.46544 0.20541 0.0
N1085 N 0.50974 0.41304 0.12538 0.0
H1086 H 0.44255 0.35119 0.22573 0.0
H1087 H 0.49176 0.36463 0.19805 0.0
H1088 H 0.52936 0.42761 0.09774 0.0
H1089 H 0.50471 0.38235 0.12406 0.0
H1090 H 0.38089 0.49073 0.19277 0.0
H1091 H 0.36233 0.44674 0.22524 0.0
H1092 H 0.44073 0.53544 0.18437 0.0
H1093 H 0.48443 0.54358 0.14705 0.0
C1094 C 0.95622 0.73667 0.72043 0.0
C1095 C 0.90856 0.72231 0.72119 0.0
C1096 C 0.91388 0.65512 0.68251 0.0
C1097 C 0.96112 0.67016 0.67994 0.0
N1098 N 1.02372 0.7313 0.6898 0.0
N1099 N 0.84358 0.66449 0.69479 0.0
C1100 C 0.98081 0.71247 0.69781 0.0
C1101 C 0.88838 0.68068 0.69952 0.0
N1102 N 0.97935 0.77477 0.74119 0.0
N1103 N 0.89265 0.61482 0.6711 0.0
H1104 H 0.82416 0.67854 0.71113 0.0
H1105 H 0.82543 0.63813 0.67243 0.0
H1106 H 0.9087 0.59587 0.65871 0.0
H1107 H 0.86033 0.59945 0.67779 0.0
H1108 H 1.01327 0.78547 0.75118 0.0
H1109 H 0.96449 0.79538 0.75063 0.0
H1110 H 1.03991 0.76231 0.69473 0.0
H1111 H 1.04207 0.71636 0.67273 0.0
C1112 C 0.60566 0.90977 0.70461 0.0
C1113 C 0.59721 0.87832 0.66613 0.0
C1114 C 0.63967 0.92626 0.61026 0.0
C1115 C 0.62941 0.95636 0.63802 0.0
N1116 N 0.62152 0.98171 0.7215 0.0
N1117 N 0.6259 0.85515 0.59518 0.0
C1118 C 0.61966 0.94989 0.68937 0.0
C1119 C 0.62269 0.88627 0.62445 0.0
N1120 N 0.5977 0.90072 0.7537 0.0
N1121 N 0.6641 0.93453 0.57012 0.0
H1122 H 0.61182 0.82547 0.60497 0.0
H1123 H 0.6428 0.85955 0.56261 0.0
H1124 H 0.68014 0.96377 0.56042 0.0
H1125 H 0.68014 0.96377 0.56042 0.0
H1126 H 0.60386 0.92225 0.78427 0.0
H1127 H 0.58822 0.87105 0.76408 0.0
H1128 H 0.61209 0.97906 0.75846 0.0
H1129 H 0.63321 1.01118 0.71018 0.0
C1130 C 0.29461 0.41689 0.66619 0.0
C1131 C 0.27269 0.38917 0.70184 0.0
C1132 C 0.2075 0.41128 0.68087 0.0
C1133 C 0.2277 0.43533 0.64135 0.0
N1134 N 0.28991 0.45613 0.59249 0.0
N1135 N 0.2031 0.35642 0.73527 0.0
C1136 C 0.27109 0.43663 0.63311 0.0
C1137 C 0.22782 0.38568 0.70705 0.0
N1138 N 0.33898 0.42666 0.66592 0.0
N1139 N 0.16938 0.41409 0.69558 0.0
H1140 H 0.21493 0.33619 0.7537 0.0
H1141 H 0.16923 0.34887 0.73526 0.0
H1142 H 0.1534 0.43194 0.67791 0.0
H1143 H 0.15577 0.40181 0.72834 0.0
H1144 H 0.358 0.44962 0.64531 0.0
H1145 H 0.35776 0.41503 0.6908 0.0
H1146 H 0.31866 0.45422 0.58006 0.0
H1147 H 0.27456 0.47106 0.56799 0.0
C1148 C 0.74047 0.16546 0.69091 0.0
C1149 C 0.77729 0.19845 0.67932 0.0
C1150 C 0.78264 0.15669 0.60345 0.0
C1151 C 0.74185 0.126 0.61072 0.0
N1152 N 0.68261 0.10152 0.6637 0.0
N1153 N 0.83173 0.22648 0.62214 0.0
C1154 C 0.7211 0.13068 0.65517 0.0
C1155 C 0.79819 0.19403 0.63524 0.0
N1156 N 0.72534 0.16637 0.73777 0.0
N1157 N 0.80653 0.1507 0.56576 0.0
H1158 H 0.8435 0.25405 0.64384 0.0
H1159 H 0.84627 0.22732 0.5883 0.0
H1160 H 0.79625 0.12535 0.54027 0.0
H1161 H 0.83806 0.16983 0.56124 0.0
H1162 H 0.70175 0.14203 0.75155 0.0
H1163 H 0.73953 0.19043 0.76525 0.0
H1164 H 0.66192 0.10561 0.68976 0.0
H1165 H 0.67057 0.07334 0.64355 0.0
C1166 C 0.89667 0.42001 0.43572 0.0
C1167 C 0.90811 0.40866 0.38791 0.0
C1168 C 0.97755 0.46682 0.40294 0.0
C1169 C 0.96827 0.4747 0.45347 0.0
N1170 N 0.9246 0.44777 0.52251 0.0
N1171 N 0.96673 0.41536 0.33468 0.0
C1172 C 0.92945 0.44807 0.47124 0.0
C1173 C 0.95064 0.43042 0.37383 0.0
N1174 N 0.85418 0.40567 0.44679 0.0
N1175 N 1.01082 0.49438 0.38164 0.0
H1176 H 0.94959 0.38761 0.31473 0.0
H1177 H 0.99913 0.42816 0.32652 0.0
H1178 H 1.03002 0.52211 0.40044 0.0
H1179 H 1.01595 0.49136 0.3432 0.0
H1180 H 0.84396 0.41574 0.47962 0.0
H1181 H 0.82851 0.38803 0.42018 0.0
H1182 H 0.8983 0.42665 0.53742 0.0
H1183 H 0.94966 0.46471 0.55045 0.0
C1184 C 0.72238 0.89199 0.34935 0.0
C1185 C 0.76163 0.90621 0.32503 0.0
C1186 C 0.75646 0.97431 0.32943 0.0
C1187 C 0.72037 0.96085 0.35931 0.0
N1188 N 0.67538 0.90785 0.40675 0.0
N1189 N 0.8201 0.96291 0.29962 0.0
C1190 C 0.70502 0.91991 0.37158 0.0
C1191 C 0.77961 0.94791 0.31674 0.0
N1192 N 0.70067 0.8515 0.3499 0.0
N1193 N 0.76798 1.01196 0.31189 0.0
H1194 H 0.83846 0.94493 0.2913 0.0
H1195 H 0.8372 0.99358 0.29826 0.0
H1196 H 0.75166 1.03183 0.31976 0.0
H1197 H 0.79094 1.02206 0.28569 0.0
H1198 H 0.66963 0.83928 0.36236 0.0
H1199 H 0.71144 0.83009 0.33271 0.0
H1200 H 0.66683 0.87961 0.42152 0.0
H1201 H 0.66276 0.92731 0.42531 0.0
C1202 C 0.24983 0.69852 0.43177 0.0
C1203 C 0.23421 0.70612 0.38123 0.0
C1204 C 0.16384 0.6468 0.39218 0.0
C1205 C 0.18079 0.63757 0.44124 0.0
N1206 N 0.24459 0.6547 0.50339 0.0
N1207 N 0.1752 0.68276 0.31266 0.0
C1208 C 0.22505 0.66375 0.45941 0.0
C1209 C 0.19062 0.67898 0.36184 0.0
N1210 N 0.28846 0.72577 0.45486 0.0
N1211 N 0.12135 0.62447 0.37418 0.0
H1212 H 0.19282 0.7053 0.29037 0.0
H1213 H 0.14673 0.66238 0.29253 0.0
H1214 H 0.10196 0.60123 0.3943 0.0
H1215 H 0.10423 0.63044 0.34176 0.0
H1216 H 0.30006 0.72602 0.49333 0.0
H1217 H 0.30729 0.75046 0.43651 0.0
H1218 H 0.27793 0.66796 0.51621 0.0
H1219 H 0.22769 0.63191 0.52575 0.0
C1220 C 0.51143 0.19874 0.48583 0.0
C1221 C 0.47883 0.19718 0.44545 0.0
C1222 C 0.46832 0.12649 0.42319 0.0
C1223 C 0.49612 0.12678 0.46808 0.0
N1224 N 0.53807 0.16158 0.54759 0.0
N1225 N 0.42086 0.15807 0.38024 0.0
C1226 C 0.51597 0.16246 0.50095 0.0
C1227 C 0.4559 0.16069 0.41497 0.0
N1228 N 0.5389 0.23499 0.50888 0.0
N1229 N 0.45411 0.09384 0.38846 0.0
H1230 H 0.41018 0.18227 0.37406 0.0
H1231 H 0.40011 0.13103 0.36108 0.0
H1232 H 0.46204 0.06818 0.39456 0.0
H1233 H 0.4372 0.09342 0.35251 0.0
H1234 H 0.56628 0.23796 0.53485 0.0
H1235 H 0.53709 0.26248 0.49815 0.0
H1236 H 0.5486 0.18576 0.57527 0.0
H1237 H 0.54396 0.13605 0.5597 0.0
C1238 C 0.81592 0.94593 0.5118 0.0
C1239 C 0.79876 0.94033 0.56031 0.0
C1240 C 0.81344 1.01247 0.5711 0.0
C1241 C 0.815 1.0143 0.51803 0.0
N1242 N 0.83055 0.98885 0.43972 0.0
N1243 N 0.77389 0.96908 0.63211 0.0
C1244 C 0.82192 0.98318 0.48941 0.0
C1245 C 0.79657 0.97406 0.58991 0.0
N1246 N 0.82572 0.91593 0.48743 0.0
N1247 N 0.81951 0.04681 0.60051 0.0
H1248 H 0.7554 0.94092 0.64333 0.0
H1249 H 0.76876 0.99276 0.65203 0.0
H1250 H 0.82865 0.07473 0.58455 0.0
H1251 H 0.81898 0.04755 0.64029 0.0
H1252 H 0.83882 0.91856 0.45241 0.0
H1253 H 0.82352 0.88913 0.5041 0.0
H1254 H 0.83299 0.96675 0.41422 0.0
H1255 H 0.83459 1.01657 0.42437 0.0
C1256 C 0.75408 0.1901 0.48979 0.0
C1257 C 0.7337 0.20643 0.52712 0.0
C1258 C 0.66514 0.15393 0.49961 0.0
C1259 C 0.68386 0.13486 0.46508 0.0
N1260 N 0.7529 0.13025 0.44171 0.0
N1261 N 0.67693 0.18823 0.5836 0.0
C1262 C 0.7304 0.15139 0.46406 0.0
C1263 C 0.6926 0.18109 0.53921 0.0
N1264 N 0.79563 0.21041 0.47849 0.0
N1265 N 0.62268 0.15149 0.48991 0.0
H1266 H 0.69665 0.21015 0.61187 0.0
H1267 H 0.64582 0.17046 0.59226 0.0
H1268 H 0.60473 0.13913 0.45447 0.0
H1269 H 0.60972 0.16855 0.51233 0.0
H1270 H 0.80729 0.20375 0.44475 0.0
H1271 H 0.81927 0.23163 0.50385 0.0
H1272 H 0.78715 0.14025 0.44468 0.0
H1273 H 0.73873 0.10084 0.42601 0.0
C1274 C 0.87516 0.65867 0.53462 0.0
C1275 C 0.83735 0.6396 0.49982 0.0
C1276 C 0.86252 0.58325 0.48361 0.0
C1277 C 0.90381 0.60608 0.51133 0.0
N1278 N 0.95225 0.67044 0.55324 0.0
N1279 N 0.79408 0.58461 0.4394 0.0
C1280 C 0.91106 0.64519 0.53416 0.0
C1281 C 0.83036 0.60173 0.47424 0.0
N1282 N 0.87725 0.69096 0.56625 0.0
N1283 N 0.85451 0.54447 0.46552 0.0
H1284 H 0.76929 0.59698 0.4338 0.0
H1285 H 0.78946 0.55935 0.41489 0.0
H1286 H 0.87856 0.53109 0.46828 0.0
H1287 H 0.82357 0.52506 0.44982 0.0
H1288 H 0.90311 0.70479 0.5949 0.0
H1289 H 0.85083 0.70122 0.56705 0.0
H1290 H 0.95913 0.70043 0.56571 0.0
H1291 H 0.98066 0.6636 0.55151 0.0
C1292 C 0.46138 0.87894 0.4177 0.0
C1293 C 0.42682 0.88718 0.38781 0.0
C1294 C 0.46796 0.95972 0.40789 0.0
C1295 C 0.49852 0.95177 0.44445 0.0
N1296 N 0.52318 0.90242 0.48541 0.0
N1297 N 0.39503 0.93712 0.36221 0.0
C1298 C 0.49521 0.91092 0.44932 0.0
C1299 C 0.4294 0.92798 0.38554 0.0
N1300 N 0.46162 0.84047 0.41641 0.0
N1301 N 0.47728 0.99755 0.39138 0.0
H1302 H 0.36703 0.91587 0.34236 0.0
H1303 H 0.3933 0.96593 0.36545 0.0
H1304 H 0.50648 1.02113 0.40399 0.0
H1305 H 0.45896 1.00391 0.36021 0.0
H1306 H 0.48796 0.83285 0.43236 0.0
H1307 H 0.43638 0.8163 0.39647 0.0
H1308 H 0.52026 0.87333 0.49442 0.0
H1309 H 0.54793 0.9247 0.50881 0.0
C1310 C 0.25555 0.43195 0.35487 0.0
C1311 C 0.27077 0.40219 0.37834 0.0
C1312 C 0.23726 0.41812 0.45772 0.0
C1313 C 0.22533 0.45008 0.43586 0.0
N1314 N 0.23172 0.4904 0.36313 0.0
N1315 N 0.28177 0.37478 0.45966 0.0
C1316 C 0.23684 0.45738 0.38417 0.0
C1317 C 0.26353 0.3981 0.432 0.0
N1318 N 0.25915 0.43657 0.30372 0.0
N1319 N 0.22072 0.40432 0.50214 0.0
H1320 H 0.29927 0.35859 0.44363 0.0
H1321 H 0.28267 0.37421 0.49953 0.0
H1322 H 0.20093 0.4168 0.52061 0.0
H1323 H 0.22298 0.37837 0.51772 0.0
H1324 H 0.24355 0.45271 0.28177 0.0
H1325 H 0.27588 0.4224 0.28235 0.0
H1326 H 0.24337 0.50094 0.32873 0.0
H1327 H 0.21975 0.50986 0.38279 0.0
C1328 C 0.43968 0.11591 0.64398 0.0
C1329 C 0.4664 0.15631 0.66012 0.0
C1330 C 0.53205 0.13713 0.66463 0.0
C1331 C 0.50527 0.09603 0.6508 0.0
N1332 N 0.43269 0.04539 0.64151 0.0
N1333 N 0.53571 0.20194 0.70157 0.0
C1334 C 0.45872 0.08513 0.64472 0.0
C1335 C 0.51179 0.1657 0.67575 0.0
N1336 N 0.39633 0.107 0.6267 0.0
N1337 N 0.57657 0.15018 0.66263 0.0
H1338 H 0.52197 0.22357 0.71083 0.0
H1339 H 0.56787 0.20869 0.71855 0.0
H1340 H 0.59308 0.13238 0.64831 0.0
H1341 H 0.59651 0.18043 0.66794 0.0
H1342 H 0.37613 0.07863 0.61087 0.0
H1343 H 0.38129 0.12865 0.62481 0.0
H1344 H 0.39871 1.03551 0.64211 0.0
H1345 H 0.44546 1.02219 0.64407 0.0
C1346 C 0.96523 0.39726 0.69372 0.0
C1347 C 0.92385 0.39803 0.7082 0.0
C1348 C 0.94164 0.4639 0.6673 0.0
C1349 C 0.98546 0.46637 0.65879 0.0
N1350 N 1.03974 0.43463 0.67259 0.0
N1351 N 0.88308 0.4421 0.72201 0.0
C1352 C 0.99732 0.43262 0.67432 0.0
C1353 C 0.9152 0.43417 0.6985 0.0
N1354 N 0.97369 0.36226 0.69672 0.0
N1355 N 0.92359 0.48912 0.64361 0.0
H1356 H 0.86585 0.42374 0.74877 0.0
H1357 H 0.87808 0.46958 0.72051 0.0
H1358 H 0.93942 0.50896 0.6174 0.0
H1359 H 0.89072 0.48633 0.64456 0.0
H1360 H 1.00063 0.35793 0.68228 0.0
H1361 H 0.95151 0.33631 0.70936 0.0
H1362 H 1.05217 0.41363 0.6883 0.0
H1363 H 0.06344 0.45923 0.6593 0.0
C1364 C 0.20513 0.69153 0.6644 0.0
C1365 C 0.24792 0.69863 0.68761 0.0
C1366 C 0.24163 0.62968 0.66191 0.0
C1367 C 0.20147 0.62447 0.63113 0.0
N1368 N 0.1505 0.65595 0.59579 0.0
N1369 N 0.31051 0.67717 0.70312 0.0
C1370 C 0.18456 0.65684 0.63065 0.0
C1371 C 0.26742 0.6686 0.68455 0.0
N1372 N 0.18414 0.71803 0.6742 0.0
N1373 N 0.2537 0.59734 0.67295 0.0
H1374 H 0.33012 0.70504 0.72131 0.0
H1375 H 0.32751 0.65759 0.69694 0.0
H1376 H 0.2337 0.56783 0.6616 0.0
H1377 H 0.28078 0.59937 0.6989 0.0
H1378 H 0.15084 0.7119 0.66261 0.0
H1379 H 0.19881 0.74436 0.69815 0.0
H1380 H 0.14027 0.68047 0.59026 0.0
H1381 H 0.136 0.63258 0.56824 0.0
loop_
_geom_bond_atom_site_label_1
_geom_bond_atom_site_label_2
_geom_bond_distance
_geom_bond_site_symmetry_2
_ccdc_geom_bond_type
Dy0 O3 2.307 . S
Dy0 O5 2.395 . S
Dy0 O6 2.379 . S
Dy0 O8 2.339 . S
Dy0 O10 2.298 . S
Dy0 O14 2.275 . S
Dy0 C22 2.738 . S
Dy1 O4 2.298 . S
Dy1 O7 2.275 . S
Dy1 O9 2.307 . S
Dy1 O11 2.395 . S
Dy1 O12 2.379 . S
Dy1 O15 2.339 . S
Dy1 C31 2.738 . S
C2 O14 1.254 . S
C2 O15 1.257 . S
O3 Dy0 2.307 . S
O3 C13 1.266 . S
O4 Dy1 2.298 . S
O4 C13 1.236 . S
O5 Dy0 2.395 . S
O5 C22 1.255 . S
O6 Dy0 2.379 . S
O6 C22 1.249 . S
O7 Dy1 2.275 . S
O7 C23 1.254 . S
O8 Dy0 2.339 . S
O8 C23 1.257 . S
O9 Dy1 2.307 . S
O9 C24 1.266 . S
O10 Dy0 2.298 . S
O10 C24 1.236 . S
O11 Dy1 2.395 . S
O11 C31 1.255 . S
O12 Dy1 2.379 . S
O12 C31 1.249 . S
C13 O3 1.266 . S
C13 O4 1.236 . S
O14 Dy0 2.275 . S
O14 C2 1.254 . S
O15 Dy1 2.339 . S
O15 C2 1.257 . S
C16 C19 1.344 . S
C16 C20 1.328 . S
C16 C22 1.516 . S
C17 C18 1.304 . S
C17 C21 1.323 . S
C18 C17 1.304 . S
C18 C19 1.371 . S
C18 H32 0.930 . S
C19 C16 1.344 . S
C19 C18 1.371 . S
C19 H33 0.931 . S
C20 C16 1.328 . S
C20 C21 1.433 . S
C20 H34 0.931 . S
C21 C17 1.323 . S
C21 C20 1.433 . S
C21 H35 0.933 . S
C22 Dy0 2.738 . S
C22 O5 1.255 . S
C22 O6 1.249 . S
C22 C16 1.516 . S
C23 O7 1.254 . S
C23 O8 1.257 . S
C24 O9 1.266 . S
C24 O10 1.236 . S
C25 C28 1.344 . S
C25 C29 1.328 . S
C25 C31 1.516 . S
C26 C27 1.304 . S
C26 C30 1.323 . S
C27 C26 1.304 . S
C27 C28 1.371 . S
C27 H36 0.930 . S
C28 C25 1.344 . S
C28 C27 1.371 . S
C28 H37 0.931 . S
C29 C25 1.328 . S
C29 C30 1.433 . S
C29 H38 0.931 . S
C30 C26 1.323 . S
C30 C29 1.433 . S
C30 H39 0.933 . S
C31 Dy1 2.738 . S
C31 O11 1.255 . S
C31 O12 1.249 . S
C31 C25 1.516 . S
H32 C18 0.930 . S
H33 C19 0.931 . S
H34 C20 0.931 . S
H35 C21 0.933 . S
H36 C27 0.930 . S
H37 C28 0.931 . S
H38 C29 0.931 . S
H39 C30 0.933 . S
Dy40 O43 2.307 . S
Dy40 O45 2.395 . S
Dy40 O46 2.379 . S
Dy40 O48 2.339 . S
Dy40 O50 2.298 . S
Dy40 O54 2.275 . S
Dy40 C62 2.738 . S
Dy41 O44 2.298 . S
Dy41 O47 2.275 . S
Dy41 O49 2.307 . S
Dy41 O51 2.395 . S
Dy41 O52 2.379 . S
Dy41 O55 2.339 . S
Dy41 C71 2.738 . S
C42 O54 1.254 . S
C42 O55 1.257 . S
O43 Dy40 2.307 . S
O43 C53 1.266 . S
O44 Dy41 2.298 . S
O44 C53 1.236 . S
O45 Dy40 2.395 . S
O45 C62 1.255 . S
O46 Dy40 2.379 . S
O46 C62 1.249 . S
O47 Dy41 2.275 . S
O47 C63 1.254 . S
O48 Dy40 2.339 . S
O48 C63 1.257 . S
O49 Dy41 2.307 . S
O49 C64 1.266 . S
O50 Dy40 2.298 . S
O50 C64 1.236 . S
O51 Dy41 2.395 . S
O51 C71 1.255 . S
O52 Dy41 2.379 . S
O52 C71 1.249 . S
C53 O43 1.266 . S
C53 O44 1.236 . S
O54 Dy40 2.275 . S
O54 C42 1.254 . S
O55 Dy41 2.339 . S
O55 C42 1.257 . S
C56 C59 1.344 . S
C56 C60 1.328 . S
C56 C62 1.516 . S
C57 C58 1.304 . S
C57 C61 1.323 . S
C58 C57 1.304 . S
C58 C59 1.371 . S
C58 H72 0.930 . S
C59 C56 1.344 . S
C59 C58 1.371 . S
C59 H73 0.931 . S
C60 C56 1.328 . S
C60 C61 1.433 . S
C60 H74 0.931 . S
C61 C57 1.323 . S
C61 C60 1.433 . S
C61 H75 0.933 . S
C62 Dy40 2.738 . S
C62 O45 1.255 . S
C62 O46 1.249 . S
C62 C56 1.516 . S
C63 O47 1.254 . S
C63 O48 1.257 . S
C64 O49 1.266 . S
C64 O50 1.236 . S
C65 C68 1.344 . S
C65 C69 1.328 . S
C65 C71 1.516 . S
C66 C67 1.304 . S
C66 C70 1.323 . S
C67 C66 1.304 . S
C67 C68 1.371 . S
C67 H76 0.930 . S
C68 C65 1.344 . S
C68 C67 1.371 . S
C68 H77 0.931 . S
C69 C65 1.328 . S
C69 C70 1.433 . S
C69 H78 0.931 . S
C70 C66 1.323 . S
C70 C69 1.433 . S
C70 H79 0.933 . S
C71 Dy41 2.738 . S
C71 O51 1.255 . S
C71 O52 1.249 . S
C71 C65 1.516 . S
H72 C58 0.930 . S
H73 C59 0.931 . S
H74 C60 0.931 . S
H75 C61 0.933 . S
H76 C67 0.930 . S
H77 C68 0.931 . S
H78 C69 0.931 . S
H79 C70 0.933 . S
Dy80 O83 2.307 . S
Dy80 O85 2.395 . S
Dy80 O86 2.379 . S
Dy80 O88 2.339 . S
Dy80 O90 2.298 . S
Dy80 O94 2.275 . S
Dy80 C102 2.738 . S
Dy81 O84 2.298 . S
Dy81 O87 2.275 . S
Dy81 O89 2.307 . S
Dy81 O91 2.395 . S
Dy81 O92 2.379 . S
Dy81 O95 2.339 . S
Dy81 C111 2.738 . S
C82 O94 1.254 . S
C82 O95 1.257 . S
O83 Dy80 2.307 . S
O83 C93 1.266 . S
O84 Dy81 2.298 . S
O84 C93 1.236 . S
O85 Dy80 2.395 . S
O85 C102 1.255 . S
O86 Dy80 2.379 . S
O86 C102 1.249 . S
O87 Dy81 2.275 . S
O87 C103 1.254 . S
O88 Dy80 2.339 . S
O88 C103 1.257 . S
O89 Dy81 2.307 . S
O89 C104 1.266 . S
O90 Dy80 2.298 . S
O90 C104 1.236 . S
O91 Dy81 2.395 . S
O91 C111 1.255 . S
O92 Dy81 2.379 . S
O92 C111 1.249 . S
C93 O83 1.266 . S
C93 O84 1.236 . S
O94 Dy80 2.275 . S
O94 C82 1.254 . S
O95 Dy81 2.339 . S
O95 C82 1.257 . S
C96 C99 1.344 . S
C96 C100 1.328 . S
C96 C102 1.516 . S
C97 C98 1.304 . S
C97 C101 1.323 . S
C98 C97 1.304 . S
C98 C99 1.371 . S
C98 H112 0.930 . S
C99 C96 1.344 . S
C99 C98 1.371 . S
C99 H113 0.931 . S
C100 C96 1.328 . S
C100 C101 1.433 . S
C100 H114 0.931 . S
C101 C97 1.323 . S
C101 C100 1.433 . S
C101 H115 0.933 . S
C102 Dy80 2.738 . S
C102 O85 1.255 . S
C102 O86 1.249 . S
C102 C96 1.516 . S
C103 O87 1.254 . S
C103 O88 1.257 . S
C104 O89 1.266 . S
C104 O90 1.236 . S
C105 C108 1.344 . S
C105 C109 1.328 . S
C105 C111 1.516 . S
C106 C107 1.304 . S
C106 C110 1.323 . S
C107 C106 1.304 . S
C107 C108 1.371 . S
C107 H116 0.930 . S
C108 C105 1.344 . S
C108 C107 1.371 . S
C108 H117 0.931 . S
C109 C105 1.328 . S
C109 C110 1.433 . S
C109 H118 0.931 . S
C110 C106 1.323 . S
C110 C109 1.433 . S
C110 H119 0.933 . S
C111 Dy81 2.738 . S
C111 O91 1.255 . S
C111 O92 1.249 . S
C111 C105 1.516 . S
H112 C98 0.930 . S
H113 C99 0.931 . S
H114 C100 0.931 . S
H115 C101 0.933 . S
H116 C107 0.930 . S
H117 C108 0.931 . S
H118 C109 0.931 . S
H119 C110 0.933 . S
Dy120 O123 2.307 . S
Dy120 O125 2.395 . S
Dy120 O126 2.379 . S
Dy120 O128 2.339 . S
Dy120 O130 2.298 . S
Dy120 O134 2.275 . S
Dy120 C142 2.738 . S
Dy121 O124 2.298 . S
Dy121 O127 2.275 . S
Dy121 O129 2.307 . S
Dy121 O131 2.395 . S
Dy121 O132 2.379 . S
Dy121 O135 2.339 . S
Dy121 C151 2.738 . S
C122 O134 1.254 . S
C122 O135 1.257 . S
O123 Dy120 2.307 . S
O123 C133 1.266 . S
O124 Dy121 2.298 . S
O124 C133 1.236 . S
O125 Dy120 2.395 . S
O125 C142 1.255 . S
O126 Dy120 2.379 . S
O126 C142 1.249 . S
O127 Dy121 2.275 . S
O127 C143 1.254 . S
O128 Dy120 2.339 . S
O128 C143 1.257 . S
O129 Dy121 2.307 . S
O129 C144 1.266 . S
O130 Dy120 2.298 . S
O130 C144 1.236 . S
O131 Dy121 2.395 . S
O131 C151 1.255 . S
O132 Dy121 2.379 . S
O132 C151 1.249 . S
C133 O123 1.266 . S
C133 O124 1.236 . S
O134 Dy120 2.275 . S
O134 C122 1.254 . S
O135 Dy121 2.339 . S
O135 C122 1.257 . S
C136 C139 1.344 . S
C136 C140 1.328 . S
C136 C142 1.516 . S
C137 C138 1.304 . S
C137 C141 1.323 . S
C138 C137 1.304 . S
C138 C139 1.371 . S
C138 H152 0.930 . S
C139 C136 1.344 . S
C139 C138 1.371 . S
C139 H153 0.931 . S
C140 C136 1.328 . S
C140 C141 1.433 . S
C140 H154 0.931 . S
C141 C137 1.323 . S
C141 C140 1.433 . S
C141 H155 0.933 . S
C142 Dy120 2.738 . S
C142 O125 1.255 . S
C142 O126 1.249 . S
C142 C136 1.516 . S
C143 O127 1.254 . S
C143 O128 1.257 . S
C144 O129 1.266 . S
C144 O130 1.236 . S
C145 C148 1.344 . S
C145 C149 1.328 . S
C145 C151 1.516 . S
C146 C147 1.304 . S
C146 C150 1.323 . S
C147 C146 1.304 . S
C147 C148 1.371 . S
C147 H156 0.930 . S
C148 C145 1.344 . S
C148 C147 1.371 . S
C148 H157 0.931 . S
C149 C145 1.328 . S
C149 C150 1.433 . S
C149 H158 0.931 . S
C150 C146 1.323 . S
C150 C149 1.433 . S
C150 H159 0.933 . S
C151 Dy121 2.738 . S
C151 O131 1.255 . S
C151 O132 1.249 . S
C151 C145 1.516 . S
H152 C138 0.930 . S
H153 C139 0.931 . S
H154 C140 0.931 . S
H155 C141 0.933 . S
H156 C147 0.930 . S
H157 C148 0.931 . S
H158 C149 0.931 . S
H159 C150 0.933 . S
Dy160 O163 2.307 . S
Dy160 O165 2.395 . S
Dy160 O166 2.379 . S
Dy160 O168 2.339 . S
Dy160 O170 2.298 . S
Dy160 O174 2.275 . S
Dy160 C182 2.738 . S
Dy161 O164 2.298 . S
Dy161 O167 2.275 . S
Dy161 O169 2.307 . S
Dy161 O171 2.395 . S
Dy161 O172 2.379 . S
Dy161 O175 2.339 . S
Dy161 C191 2.738 . S
C162 O174 1.254 . S
C162 O175 1.257 . S
O163 Dy160 2.307 . S
O163 C173 1.266 . S
O164 Dy161 2.298 . S
O164 C173 1.236 . S
O165 Dy160 2.395 . S
O165 C182 1.255 . S
O166 Dy160 2.379 . S
O166 C182 1.249 . S
O167 Dy161 2.275 . S
O167 C183 1.254 . S
O168 Dy160 2.339 . S
O168 C183 1.257 . S
O169 Dy161 2.307 . S
O169 C184 1.266 . S
O170 Dy160 2.298 . S
O170 C184 1.236 . S
O171 Dy161 2.395 . S
O171 C191 1.255 . S
O172 Dy161 2.379 . S
O172 C191 1.249 . S
C173 O163 1.266 . S
C173 O164 1.236 . S
O174 Dy160 2.275 . S
O174 C162 1.254 . S
O175 Dy161 2.339 . S
O175 C162 1.257 . S
C176 C179 1.344 . S
C176 C180 1.328 . S
C176 C182 1.516 . S
C177 C178 1.304 . S
C177 C181 1.323 . S
C178 C177 1.304 . S
C178 C179 1.371 . S
C178 H192 0.930 . S
C179 C176 1.344 . S
C179 C178 1.371 . S
C179 H193 0.931 . S
C180 C176 1.328 . S
C180 C181 1.433 . S
C180 H194 0.931 . S
C181 C177 1.323 . S
C181 C180 1.433 . S
C181 H195 0.933 . S
C182 Dy160 2.738 . S
C182 O165 1.255 . S
C182 O166 1.249 . S
C182 C176 1.516 . S
C183 O167 1.254 . S
C183 O168 1.257 . S
C184 O169 1.266 . S
C184 O170 1.236 . S
C185 C188 1.344 . S
C185 C189 1.328 . S
C185 C191 1.516 . S
C186 C187 1.304 . S
C186 C190 1.323 1_556 S
C187 C186 1.304 . S
C187 C188 1.371 . S
C187 H196 0.930 . S
C188 C185 1.344 . S
C188 C187 1.371 . S
C188 H197 0.931 . S
C189 C185 1.328 . S
C189 C190 1.431 1_556 S
C189 H198 0.931 . S
C190 C186 1.323 1_554 S
C190 C189 1.431 1_554 S
C190 H199 0.935 . S
C191 Dy161 2.738 . S
C191 O171 1.255 . S
C191 O172 1.249 . S
C191 C185 1.516 . S
H192 C178 0.930 . S
H193 C179 0.931 . S
H194 C180 0.931 . S
H195 C181 0.933 . S
H196 C187 0.930 . S
H197 C188 0.931 . S
H198 C189 0.931 . S
H199 C190 0.935 . S
Dy200 O203 2.307 . S
Dy200 O205 2.395 . S
Dy200 O206 2.379 . S
Dy200 O208 2.339 . S
Dy200 O210 2.298 . S
Dy200 O214 2.275 . S
Dy200 C222 2.738 . S
Dy201 O204 2.298 . S
Dy201 O207 2.275 . S
Dy201 O209 2.307 . S
Dy201 O211 2.395 . S
Dy201 O212 2.379 . S
Dy201 O215 2.339 . S
Dy201 C231 2.738 . S
C202 O214 1.254 . S
C202 O215 1.257 . S
O203 Dy200 2.307 . S
O203 C213 1.266 . S
O204 Dy201 2.298 . S
O204 C213 1.236 . S
O205 Dy200 2.395 . S
O205 C222 1.255 . S
O206 Dy200 2.379 . S
O206 C222 1.249 . S
O207 Dy201 2.275 . S
O207 C223 1.254 . S
O208 Dy200 2.339 . S
O208 C223 1.257 . S
O209 Dy201 2.307 . S
O209 C224 1.266 . S
O210 Dy200 2.298 . S
O210 C224 1.236 . S
O211 Dy201 2.395 . S
O211 C231 1.255 . S
O212 Dy201 2.379 . S
O212 C231 1.249 . S
C213 O203 1.266 . S
C213 O204 1.236 . S
O214 Dy200 2.275 . S
O214 C202 1.254 . S
O215 Dy201 2.339 . S
O215 C202 1.257 . S
C216 C219 1.344 . S
C216 C220 1.328 . S
C216 C222 1.516 . S
C217 C218 1.304 . S
C217 C221 1.323 . S
C218 C217 1.304 . S
C218 C219 1.371 . S
C218 H232 0.930 . S
C219 C216 1.344 . S
C219 C218 1.371 . S
C219 H233 0.931 . S
C220 C216 1.328 . S
C220 C221 1.433 . S
C220 H234 0.931 . S
C221 C217 1.323 . S
C221 C220 1.433 . S
C221 H235 0.933 . S
C222 Dy200 2.738 . S
C222 O205 1.255 . S
C222 O206 1.249 . S
C222 C216 1.516 . S
C223 O207 1.254 . S
C223 O208 1.257 . S
C224 O209 1.266 . S
C224 O210 1.236 . S
C225 C228 1.344 . S
C225 C229 1.328 . S
C225 C231 1.516 . S
C226 C227 1.304 . S
C226 C230 1.323 . S
C227 C226 1.304 . S
C227 C228 1.371 . S
C227 H236 0.930 . S
C228 C225 1.344 . S
C228 C227 1.371 . S
C228 H237 0.931 . S
C229 C225 1.328 . S
C229 C230 1.433 . S
C229 H238 0.931 . S
C230 C226 1.323 . S
C230 C229 1.433 . S
C230 H239 0.933 . S
C231 Dy201 2.738 . S
C231 O211 1.255 . S
C231 O212 1.249 . S
C231 C225 1.516 . S
H232 C218 0.930 . S
H233 C219 0.931 . S
H234 C220 0.931 . S
H235 C221 0.933 . S
H236 C227 0.930 . S
H237 C228 0.931 . S
H238 C229 0.931 . S
H239 C230 0.933 . S
Dy240 O243 2.307 . S
Dy240 O245 2.395 . S
Dy240 O246 2.379 . S
Dy240 O248 2.339 . S
Dy240 O250 2.298 . S
Dy240 O254 2.275 . S
Dy240 C262 2.738 . S
Dy241 O244 2.298 . S
Dy241 O247 2.275 . S
Dy241 O249 2.307 . S
Dy241 O251 2.395 . S
Dy241 O252 2.379 . S
Dy241 O255 2.339 . S
Dy241 C271 2.738 . S
C242 O254 1.254 . S
C242 O255 1.257 . S
O243 Dy240 2.307 . S
O243 C253 1.266 . S
O244 Dy241 2.298 . S
O244 C253 1.236 . S
O245 Dy240 2.395 . S
O245 C262 1.255 . S
O246 Dy240 2.379 . S
O246 C262 1.249 . S
O247 Dy241 2.275 . S
O247 C263 1.254 . S
O248 Dy240 2.339 . S
O248 C263 1.257 . S
O249 Dy241 2.307 . S
O249 C264 1.266 . S
O250 Dy240 2.298 . S
O250 C264 1.236 . S
O251 Dy241 2.395 . S
O251 C271 1.255 . S
O252 Dy241 2.379 . S
O252 C271 1.249 . S
C253 O243 1.266 . S
C253 O244 1.236 . S
O254 Dy240 2.275 . S
O254 C242 1.254 . S
O255 Dy241 2.339 . S
O255 C242 1.257 . S
C256 C259 1.344 . S
C256 C260 1.328 . S
C256 C262 1.516 . S
C257 C258 1.304 . S
C257 C261 1.323 . S
C258 C257 1.304 . S
C258 C259 1.371 . S
C258 H272 0.930 . S
C259 C256 1.344 . S
C259 C258 1.371 . S
C259 H273 0.931 . S
C260 C256 1.328 . S
C260 C261 1.433 . S
C260 H274 0.931 . S
C261 C257 1.323 . S
C261 C260 1.433 . S
C261 H275 0.933 . S
C262 Dy240 2.738 . S
C262 O245 1.255 . S
C262 O246 1.249 . S
C262 C256 1.516 . S
C263 O247 1.254 . S
C263 O248 1.257 . S
C264 O249 1.266 . S
C264 O250 1.236 . S
C265 C268 1.344 . S
C265 C269 1.328 . S
C265 C271 1.516 . S
C266 C267 1.304 . S
C266 C270 1.323 . S
C267 C266 1.304 . S
C267 C268 1.371 . S
C267 H276 0.930 . S
C268 C265 1.344 . S
C268 C267 1.371 . S
C268 H277 0.931 . S
C269 C265 1.328 . S
C269 C270 1.433 . S
C269 H278 0.931 . S
C270 C266 1.323 . S
C270 C269 1.433 . S
C270 H279 0.933 . S
C271 Dy241 2.738 . S
C271 O251 1.255 . S
C271 O252 1.249 . S
C271 C265 1.516 . S
H272 C258 0.930 . S
H273 C259 0.931 . S
H274 C260 0.931 . S
H275 C261 0.933 . S
H276 C267 0.930 . S
H277 C268 0.931 . S
H278 C269 0.931 . S
H279 C270 0.933 . S
Dy280 O283 2.307 . S
Dy280 O285 2.395 . S
Dy280 O286 2.379 . S
Dy280 O288 2.339 . S
Dy280 O290 2.298 . S
Dy280 O294 2.275 . S
Dy280 C302 2.738 . S
Dy281 O284 2.298 . S
Dy281 O287 2.275 . S
Dy281 O289 2.307 . S
Dy281 O291 2.395 . S
Dy281 O292 2.379 . S
Dy281 O295 2.339 . S
Dy281 C311 2.738 . S
C282 O294 1.254 . S
C282 O295 1.257 . S
O283 Dy280 2.307 . S
O283 C293 1.266 . S
O284 Dy281 2.298 . S
O284 C293 1.236 . S
O285 Dy280 2.395 . S
O285 C302 1.255 . S
O286 Dy280 2.379 . S
O286 C302 1.249 . S
O287 Dy281 2.275 . S
O287 C303 1.254 . S
O288 Dy280 2.339 . S
O288 C303 1.257 . S
O289 Dy281 2.307 . S
O289 C304 1.266 . S
O290 Dy280 2.298 . S
O290 C304 1.236 . S
O291 Dy281 2.395 . S
O291 C311 1.255 . S
O292 Dy281 2.379 . S
O292 C311 1.249 . S
C293 O283 1.266 . S
C293 O284 1.236 . S
O294 Dy280 2.275 . S
O294 C282 1.254 . S
O295 Dy281 2.339 . S
O295 C282 1.257 . S
C296 C299 1.344 . S
C296 C300 1.328 1_556 S
C296 C302 1.516 . S
C297 C298 1.304 1_554 S
C297 C301 1.323 . S
C298 C297 1.304 1_556 S
C298 C299 1.371 . S
C298 H312 0.930 . S
C299 C296 1.344 . S
C299 C298 1.371 . S
C299 H313 0.931 . S
C300 C296 1.328 1_554 S
C300 C301 1.433 . S
C300 H314 0.931 . S
C301 C297 1.323 . S
C301 C300 1.433 . S
C301 H315 0.933 . S
C302 Dy280 2.738 . S
C302 O285 1.255 . S
C302 O286 1.249 . S
C302 C296 1.516 . S
C303 O287 1.254 . S
C303 O288 1.257 . S
C304 O289 1.266 . S
C304 O290 1.236 . S
C305 C308 1.344 . S
C305 C309 1.328 . S
C305 C311 1.516 . S
C306 C307 1.304 . S
C306 C310 1.323 . S
C307 C306 1.304 . S
C307 C308 1.371 . S
C307 H316 0.930 . S
C308 C305 1.344 . S
C308 C307 1.371 . S
C308 H317 0.931 . S
C309 C305 1.328 . S
C309 C310 1.433 . S
C309 H318 0.931 . S
C310 C306 1.323 . S
C310 C309 1.433 . S
C310 H319 0.933 . S
C311 Dy281 2.738 . S
C311 O291 1.255 . S
C311 O292 1.249 . S
C311 C305 1.516 . S
H312 C298 0.930 . S
H313 C299 0.931 . S
H314 C300 0.931 . S
H315 C301 0.933 . S
H316 C307 0.930 . S
H317 C308 0.931 . S
H318 C309 0.931 . S
H319 C310 0.933 . S
Co320 O323 2.042 . S
Co320 O330 2.264 . S
Co320 O349 2.286 . S
Co320 O350 2.069 . S
Co320 O352 2.015 1_455 S
Co321 O323 2.122 . S
Co321 O329 2.073 . S
Co321 O330 2.327 . S
Co321 O331 1.976 1_455 S
Co322 O323 2.087 1_545 S
Co322 O325 2.087 1_455 S
Co322 O332 2.111 1_445 S
Co322 O333 2.143 . S
Co322 O337 2.111 . S
Co322 O351 2.143 1_445 S
O323 Co320 2.042 . S
O323 Co321 2.122 . S
O323 Co322 2.087 1_565 S
O323 H324 0.980 1_565 S
H324 O323 0.980 1_545 S
O325 Co322 2.087 1_655 S
O325 Co326 2.042 . S
O325 Co327 2.122 . S
O325 H328 0.980 . S
Co326 O325 2.042 . S
Co326 O334 2.286 . S
Co326 O335 2.069 . S
Co326 O336 2.015 1_655 S
Co326 O339 2.264 . S
Co327 O325 2.122 . S
Co327 O338 1.976 1_655 S
Co327 O339 2.327 . S
Co327 O340 2.073 . S
H328 O325 0.980 . S
O329 Co321 2.073 . S
O329 C344 1.245 . S
O330 Co320 2.264 . S
O330 Co321 2.327 . S
O330 C344 1.257 . S
O331 Co321 1.976 1_655 S
O331 C343 1.251 . S
O332 Co322 2.111 1_665 S
O332 C343 1.274 . S
O333 Co322 2.143 . S
O333 C346 1.246 . S
O334 Co326 2.286 . S
O334 C345 1.259 . S
O335 Co326 2.069 . S
O335 C345 1.289 . S
O336 Co326 2.015 1_455 S
O336 C346 1.257 . S
O337 Co322 2.111 . S
O337 C347 1.274 . S
O338 Co327 1.976 1_455 S
O338 C347 1.251 . S
O339 Co326 2.264 . S
O339 Co327 2.327 . S
O339 C348 1.257 . S
O340 Co327 2.073 . S
O340 C348 1.245 . S
C341 O349 1.259 . S
C341 O350 1.289 . S
C342 O351 1.246 . S
C342 O352 1.257 . S
C343 O331 1.251 . S
C343 O332 1.274 . S
C344 O329 1.245 . S
C344 O330 1.257 . S
C345 O334 1.259 . S
C345 O335 1.289 . S
C346 O333 1.246 . S
C346 O336 1.257 . S
C347 O337 1.274 . S
C347 O338 1.251 . S
C348 O339 1.257 . S
C348 O340 1.245 . S
O349 Co320 2.286 . S
O349 C341 1.259 . S
O350 Co320 2.069 . S
O350 C341 1.289 . S
O351 Co322 2.143 1_665 S
O351 C342 1.246 . S
O352 Co320 2.015 1_655 S
O352 C342 1.257 . S
Co353 O356 2.042 1_566 S
Co353 O363 2.264 1_556 S
Co353 O382 2.286 . S
Co353 O383 2.069 . S
Co353 O385 2.015 . S
Co354 O356 2.122 1_565 S
Co354 O362 2.073 . S
Co354 O363 2.327 . S
Co354 O364 1.976 . S
Co355 O356 2.087 . S
Co355 O358 2.087 1_554 S
Co355 O365 2.111 . S
Co355 O366 2.143 . S
Co355 O370 2.111 1_554 S
Co355 O384 2.143 1_544 S
O356 Co353 2.042 1_544 S
O356 Co354 2.122 1_545 S
O356 Co355 2.087 . S
O356 H357 0.980 . S
H357 O356 0.980 . S
O358 Co355 2.087 1_556 S
O358 Co359 2.042 1_556 S
O358 Co360 2.122 . S
O358 H361 0.980 . S
Co359 O358 2.042 1_554 S
Co359 O367 2.286 . S
Co359 O368 2.069 . S
Co359 O369 2.015 . S
Co359 O372 2.264 1_554 S
Co360 O358 2.122 . S
Co360 O371 1.976 . S
Co360 O372 2.327 . S
Co360 O373 2.073 . S
H361 O358 0.980 . S
O362 Co354 2.073 . S
O362 C377 1.245 . S
O363 Co353 2.264 1_554 S
O363 Co354 2.327 . S
O363 C377 1.257 . S
O364 Co354 1.976 . S
O364 C376 1.251 . S
O365 Co355 2.111 . S
O365 C376 1.274 1_545 S
O366 Co355 2.143 . S
O366 C379 1.246 . S
O367 Co359 2.286 . S
O367 C378 1.259 . S
O368 Co359 2.069 . S
O368 C378 1.289 . S
O369 Co359 2.015 . S
O369 C379 1.257 . S
O370 Co355 2.111 1_556 S
O370 C380 1.274 . S
O371 Co360 1.976 . S
O371 C380 1.251 . S
O372 Co359 2.264 1_556 S
O372 Co360 2.327 . S
O372 C381 1.257 . S
O373 Co360 2.073 . S
O373 C381 1.245 . S
C374 O382 1.259 . S
C374 O383 1.289 . S
C375 O384 1.246 . S
C375 O385 1.257 . S
C376 O364 1.251 . S
C376 O365 1.274 1_565 S
C377 O362 1.245 . S
C377 O363 1.257 . S
C378 O367 1.259 . S
C378 O368 1.289 . S
C379 O366 1.246 . S
C379 O369 1.257 . S
C380 O370 1.274 . S
C380 O371 1.251 . S
C381 O372 1.257 . S
C381 O373 1.245 . S
O382 Co353 2.286 . S
O382 C374 1.259 . S
O383 Co353 2.069 . S
O383 C374 1.289 . S
O384 Co355 2.143 1_566 S
O384 C375 1.246 . S
O385 Co353 2.015 . S
O385 C375 1.257 . S
Co386 O389 2.042 . S
Co386 O396 2.264 . S
Co386 O415 2.286 1_554 S
Co386 O416 2.069 . S
Co386 O418 2.015 1_455 S
Co387 O389 2.122 . S
Co387 O395 2.073 . S
Co387 O396 2.327 . S
Co387 O397 1.976 1_455 S
Co388 O389 2.087 . S
Co388 O391 2.087 1_455 S
Co388 O398 2.111 1_455 S
Co388 O399 2.143 . S
Co388 O403 2.111 . S
Co388 O417 2.143 1_455 S
O389 Co386 2.042 . S
O389 Co387 2.122 . S
O389 Co388 2.087 . S
O389 H390 0.980 . S
H390 O389 0.980 . S
O391 Co388 2.087 1_655 S
O391 Co392 2.042 . S
O391 Co393 2.122 1_554 S
O391 H394 0.980 . S
Co392 O391 2.042 . S
Co392 O400 2.286 . S
Co392 O401 2.069 . S
Co392 O402 2.015 1_655 S
Co392 O405 2.264 . S
Co393 O391 2.122 1_556 S
Co393 O404 1.976 1_656 S
Co393 O405 2.327 1_556 S
Co393 O406 2.073 . S
H394 O391 0.980 . S
O395 Co387 2.073 . S
O395 C410 1.245 . S
O396 Co386 2.264 . S
O396 Co387 2.327 . S
O396 C410 1.257 . S
O397 Co387 1.976 1_655 S
O397 C409 1.251 . S
O398 Co388 2.111 1_655 S
O398 C409 1.274 . S
O399 Co388 2.143 . S
O399 C412 1.246 . S
O400 Co392 2.286 . S
O400 C411 1.259 . S
O401 Co392 2.069 . S
O401 C411 1.289 . S
O402 Co392 2.015 1_455 S
O402 C412 1.257 . S
O403 Co388 2.111 . S
O403 C413 1.274 . S
O404 Co393 1.976 1_454 S
O404 C413 1.251 . S
O405 Co392 2.264 . S
O405 Co393 2.327 1_554 S
O405 C414 1.257 . S
O406 Co393 2.073 . S
O406 C414 1.245 1_556 S
C407 O415 1.259 1_554 S
C407 O416 1.289 . S
C408 O417 1.246 . S
C408 O418 1.257 . S
C409 O397 1.251 . S
C409 O398 1.274 . S
C410 O395 1.245 . S
C410 O396 1.257 . S
C411 O400 1.259 . S
C411 O401 1.289 . S
C412 O399 1.246 . S
C412 O402 1.257 . S
C413 O403 1.274 . S
C413 O404 1.251 . S
C414 O405 1.257 . S
C414 O406 1.245 1_554 S
O415 Co386 2.286 1_556 S
O415 C407 1.259 1_556 S
O416 Co386 2.069 . S
O416 C407 1.289 . S
O417 Co388 2.143 1_655 S
O417 C408 1.246 . S
O418 Co386 2.015 1_655 S
O418 C408 1.257 . S
Co419 O422 2.042 1_556 S
Co419 O429 2.264 1_556 S
Co419 O448 2.286 . S
Co419 O449 2.069 . S
Co419 O451 2.015 . S
Co420 O422 2.122 . S
Co420 O428 2.073 . S
Co420 O429 2.327 . S
Co420 O430 1.976 . S
Co421 O422 2.087 . S
Co421 O424 2.087 . S
Co421 O431 2.111 . S
Co421 O432 2.143 . S
Co421 O436 2.111 1_554 S
Co421 O450 2.143 1_554 S
O422 Co419 2.042 1_554 S
O422 Co420 2.122 . S
O422 Co421 2.087 . S
O422 H423 0.980 . S
H423 O422 0.980 . S
O424 Co421 2.087 . S
O424 Co425 2.042 . S
O424 Co426 2.122 1_554 S
O424 H427 0.980 . S
Co425 O424 2.042 . S
Co425 O433 2.286 . S
Co425 O434 2.069 . S
Co425 O435 2.015 . S
Co425 O438 2.264 1_554 S
Co426 O424 2.122 1_556 S
Co426 O437 1.976 . S
Co426 O438 2.327 . S
Co426 O439 2.073 . S
H427 O424 0.980 . S
O428 Co420 2.073 . S
O428 C443 1.245 . S
O429 Co419 2.264 1_554 S
O429 Co420 2.327 . S
O429 C443 1.257 . S
O430 Co420 1.976 . S
O430 C442 1.251 . S
O431 Co421 2.111 . S
O431 C442 1.274 . S
O432 Co421 2.143 . S
O432 C445 1.246 . S
O433 Co425 2.286 . S
O433 C444 1.259 . S
O434 Co425 2.069 . S
O434 C444 1.289 . S
O435 Co425 2.015 . S
O435 C445 1.257 . S
O436 Co421 2.111 1_556 S
O436 C446 1.274 . S
O437 Co426 1.976 . S
O437 C446 1.251 . S
O438 Co425 2.264 1_556 S
O438 Co426 2.327 . S
O438 C447 1.257 . S
O439 Co426 2.073 . S
O439 C447 1.245 . S
C440 O448 1.259 . S
C440 O449 1.289 . S
C441 O450 1.246 . S
C441 O451 1.257 . S
C442 O430 1.251 . S
C442 O431 1.274 . S
C443 O428 1.245 . S
C443 O429 1.257 . S
C444 O433 1.259 . S
C444 O434 1.289 . S
C445 O432 1.246 . S
C445 O435 1.257 . S
C446 O436 1.274 . S
C446 O437 1.251 . S
C447 O438 1.257 . S
C447 O439 1.245 . S
O448 Co419 2.286 . S
O448 C440 1.259 . S
O449 Co419 2.069 . S
O449 C440 1.289 . S
O450 Co421 2.143 1_556 S
O450 C441 1.246 . S
O451 Co419 2.015 . S
O451 C441 1.257 . S
Co452 O455 2.042 . S
Co452 O462 2.264 . S
Co452 O481 2.286 . S
Co452 O482 2.069 . S
Co452 O484 2.015 . S
Co453 O455 2.122 . S
Co453 O461 2.073 . S
Co453 O462 2.327 . S
Co453 O463 1.976 . S
Co454 O455 2.087 . S
Co454 O457 2.087 . S
Co454 O464 2.111 . S
Co454 O465 2.143 1_455 S
Co454 O469 2.111 . S
Co454 O483 2.143 . S
O455 Co452 2.042 . S
O455 Co453 2.122 . S
O455 Co454 2.087 . S
O455 H456 0.980 . S
H456 O455 0.980 . S
O457 Co454 2.087 . S
O457 Co458 2.042 1_455 S
O457 Co459 2.122 1_455 S
O457 H460 0.980 . S
Co458 O457 2.042 1_655 S
Co458 O466 2.286 . S
Co458 O467 2.069 . S
Co458 O468 2.015 . S
Co458 O471 2.264 . S
Co459 O457 2.122 1_655 S
Co459 O470 1.976 . S
Co459 O471 2.327 . S
Co459 O472 2.073 . S
H460 O457 0.980 . S
O461 Co453 2.073 . S
O461 C476 1.245 . S
O462 Co452 2.264 . S
O462 Co453 2.327 . S
O462 C476 1.257 . S
O463 Co453 1.976 . S
O463 C475 1.251 . S
O464 Co454 2.111 . S
O464 C475 1.274 . S
O465 Co454 2.143 1_655 S
O465 C478 1.246 . S
O466 Co458 2.286 . S
O466 C477 1.259 . S
O467 Co458 2.069 . S
O467 C477 1.289 . S
O468 Co458 2.015 . S
O468 C478 1.257 . S
O469 Co454 2.111 . S
O469 C479 1.274 1_455 S
O470 Co459 1.976 . S
O470 C479 1.251 . S
O471 Co458 2.264 . S
O471 Co459 2.327 . S
O471 C480 1.257 . S
O472 Co459 2.073 . S
O472 C480 1.245 . S
C473 O481 1.259 . S
C473 O482 1.289 . S
C474 O483 1.246 . S
C474 O484 1.257 . S
C475 O463 1.251 . S
C475 O464 1.274 . S
C476 O461 1.245 . S
C476 O462 1.257 . S
C477 O466 1.259 . S
C477 O467 1.289 . S
C478 O465 1.246 . S
C478 O468 1.257 . S
C479 O469 1.274 1_655 S
C479 O470 1.251 . S
C480 O471 1.257 . S
C480 O472 1.245 . S
O481 Co452 2.286 . S
O481 C473 1.259 . S
O482 Co452 2.069 . S
O482 C473 1.289 . S
O483 Co454 2.143 . S
O483 C474 1.246 . S
O484 Co452 2.015 . S
O484 C474 1.257 . S
Co485 O488 2.042 . S
Co485 O495 2.264 . S
Co485 O514 2.286 . S
Co485 O515 2.069 . S
Co485 O517 2.015 1_565 S
Co486 O488 2.122 . S
Co486 O494 2.073 . S
Co486 O495 2.327 . S
Co486 O496 1.976 1_565 S
Co487 O488 2.087 1_545 S
Co487 O490 2.087 . S
Co487 O497 2.111 . S
Co487 O498 2.143 1_545 S
Co487 O502 2.111 1_545 S
Co487 O516 2.143 . S
O488 Co485 2.042 . S
O488 Co486 2.122 . S
O488 Co487 2.087 1_565 S
O488 H489 0.980 . S
H489 O488 0.980 . S
O490 Co487 2.087 . S
O490 Co491 2.042 . S
O490 Co492 2.122 . S
O490 H493 0.980 . S
Co491 O490 2.042 . S
Co491 O499 2.286 . S
Co491 O500 2.069 . S
Co491 O501 2.015 1_545 S
Co491 O504 2.264 . S
Co492 O490 2.122 . S
Co492 O503 1.976 1_545 S
Co492 O504 2.327 . S
Co492 O505 2.073 . S
H493 O490 0.980 . S
O494 Co486 2.073 . S
O494 C509 1.245 . S
O495 Co485 2.264 . S
O495 Co486 2.327 . S
O495 C509 1.257 . S
O496 Co486 1.976 1_545 S
O496 C508 1.251 . S
O497 Co487 2.111 . S
O497 C508 1.274 . S
O498 Co487 2.143 1_565 S
O498 C511 1.246 . S
O499 Co491 2.286 . S
O499 C510 1.259 . S
O500 Co491 2.069 . S
O500 C510 1.289 . S
O501 Co491 2.015 1_565 S
O501 C511 1.257 . S
O502 Co487 2.111 1_565 S
O502 C512 1.274 . S
O503 Co492 1.976 1_565 S
O503 C512 1.251 . S
O504 Co491 2.264 . S
O504 Co492 2.327 . S
O504 C513 1.257 . S
O505 Co492 2.073 . S
O505 C513 1.245 . S
C506 O514 1.259 . S
C506 O515 1.289 . S
C507 O516 1.246 . S
C507 O517 1.257 . S
C508 O496 1.251 . S
C508 O497 1.274 . S
C509 O494 1.245 . S
C509 O495 1.257 . S
C510 O499 1.259 . S
C510 O500 1.289 . S
C511 O498 1.246 . S
C511 O501 1.257 . S
C512 O502 1.274 . S
C512 O503 1.251 . S
C513 O504 1.257 . S
C513 O505 1.245 . S
O514 Co485 2.286 . S
O514 C506 1.259 . S
O515 Co485 2.069 . S
O515 C506 1.289 . S
O516 Co487 2.143 . S
O516 C507 1.246 . S
O517 Co485 2.015 1_545 S
O517 C507 1.257 . S
C518 C519 1.363 . S
C518 C524 1.379 . S
C518 N526 1.356 . S
C519 C518 1.363 . S
C519 C525 1.363 . S
C520 C521 1.363 . S
C520 C525 1.379 . S
C520 N527 1.356 . S
C521 C520 1.363 . S
C521 C524 1.363 . S
N522 C524 1.356 . S
N522 H534 0.984 . S
N522 H535 0.985 . S
N523 C525 1.356 . S
N523 H528 0.984 . S
N523 H529 0.985 . S
C524 C518 1.379 . S
C524 C521 1.363 . S
C524 N522 1.356 . S
C525 C519 1.363 . S
C525 C520 1.379 . S
C525 N523 1.356 . S
N526 C518 1.356 . S
N526 H532 0.984 . S
N526 H533 0.984 . S
N527 C520 1.356 . S
N527 H530 0.984 . S
N527 H531 0.985 . S
H528 N523 0.984 . S
H529 N523 0.985 . S
H530 N527 0.984 . S
H531 N527 0.985 . S
H532 N526 0.984 . S
H533 N526 0.984 . S
H534 N522 0.984 . S
H535 N522 0.985 . S
C536 C537 1.363 . S
C536 C542 1.379 . S
C536 N544 1.356 . S
C537 C536 1.363 . S
C537 C543 1.363 . S
C538 C539 1.363 . S
C538 C543 1.379 . S
C538 N545 1.356 . S
C539 C538 1.363 . S
C539 C542 1.363 . S
N540 C542 1.356 . S
N540 H552 0.984 . S
N540 H553 0.985 . S
N541 C543 1.356 . S
N541 H546 0.984 . S
N541 H547 0.985 . S
C542 C536 1.379 . S
C542 C539 1.363 . S
C542 N540 1.356 . S
C543 C537 1.363 . S
C543 C538 1.379 . S
C543 N541 1.356 . S
N544 C536 1.356 . S
N544 H550 0.984 . S
N544 H551 0.984 . S
N545 C538 1.356 . S
N545 H548 0.984 . S
N545 H549 0.985 . S
H546 N541 0.984 . S
H547 N541 0.985 . S
H548 N545 0.984 . S
H549 N545 0.985 . S
H550 N544 0.984 . S
H551 N544 0.984 . S
H552 N540 0.984 . S
H553 N540 0.985 . S
C554 C555 1.363 . S
C554 C560 1.379 . S
C554 N562 1.356 . S
C555 C554 1.363 . S
C555 C561 1.363 . S
C556 C557 1.363 . S
C556 C561 1.379 . S
C556 N563 1.356 . S
C557 C556 1.363 . S
C557 C560 1.363 . S
N558 C560 1.356 . S
N558 H570 0.984 . S
N558 H571 0.985 . S
N559 C561 1.356 . S
N559 H564 0.984 . S
N559 H565 0.985 . S
C560 C554 1.379 . S
C560 C557 1.363 . S
C560 N558 1.356 . S
C561 C555 1.363 . S
C561 C556 1.379 . S
C561 N559 1.356 . S
N562 C554 1.356 . S
N562 H568 0.984 . S
N562 H569 0.984 . S
N563 C556 1.356 . S
N563 H566 0.984 . S
N563 H567 0.985 . S
H564 N559 0.984 . S
H565 N559 0.985 . S
H566 N563 0.984 . S
H567 N563 0.985 . S
H568 N562 0.984 . S
H569 N562 0.984 . S
H570 N558 0.984 . S
H571 N558 0.985 . S
C572 C573 1.363 . S
C572 C578 1.379 . S
C572 N580 1.356 . S
C573 C572 1.363 . S
C573 C579 1.363 . S
C574 C575 1.363 . S
C574 C579 1.379 . S
C574 N581 1.356 . S
C575 C574 1.363 . S
C575 C578 1.363 . S
N576 C578 1.356 . S
N576 H588 0.984 . S
N576 H589 0.985 . S
N577 C579 1.356 . S
N577 H582 0.984 . S
N577 H583 0.985 . S
C578 C572 1.379 . S
C578 C575 1.363 . S
C578 N576 1.356 . S
C579 C573 1.363 . S
C579 C574 1.379 . S
C579 N577 1.356 . S
N580 C572 1.356 . S
N580 H586 0.984 . S
N580 H587 0.984 . S
N581 C574 1.356 . S
N581 H584 0.984 . S
N581 H585 0.985 . S
H582 N577 0.984 . S
H583 N577 0.985 . S
H584 N581 0.984 . S
H585 N581 0.985 . S
H586 N580 0.984 . S
H587 N580 0.984 . S
H588 N576 0.984 . S
H589 N576 0.985 . S
C590 C591 1.363 . S
C590 C596 1.379 . S
C590 N598 1.356 . S
C591 C590 1.363 . S
C591 C597 1.363 . S
C592 C593 1.363 . S
C592 C597 1.379 . S
C592 N599 1.356 . S
C593 C592 1.363 . S
C593 C596 1.363 . S
N594 C596 1.356 . S
N594 H606 0.984 . S
N594 H607 0.985 . S
N595 C597 1.356 . S
N595 H600 0.984 . S
N595 H601 0.985 . S
C596 C590 1.379 . S
C596 C593 1.363 . S
C596 N594 1.356 . S
C597 C591 1.363 . S
C597 C592 1.379 . S
C597 N595 1.356 . S
N598 C590 1.356 . S
N598 H604 0.984 . S
N598 H605 0.984 . S
N599 C592 1.356 . S
N599 H602 0.984 . S
N599 H603 0.985 . S
H600 N595 0.984 . S
H601 N595 0.985 . S
H602 N599 0.984 . S
H603 N599 0.985 . S
H604 N598 0.984 . S
H605 N598 0.984 . S
H606 N594 0.984 . S
H607 N594 0.985 . S
C608 C609 1.363 . S
C608 C614 1.379 . S
C608 N616 1.356 . S
C609 C608 1.363 . S
C609 C615 1.363 . S
C610 C611 1.363 . S
C610 C615 1.379 . S
C610 N617 1.356 . S
C611 C610 1.363 . S
C611 C614 1.363 . S
N612 C614 1.356 . S
N612 H624 0.984 . S
N612 H625 0.985 . S
N613 C615 1.356 . S
N613 H618 0.984 . S
N613 H619 0.985 . S
C614 C608 1.379 . S
C614 C611 1.363 . S
C614 N612 1.356 . S
C615 C609 1.363 . S
C615 C610 1.379 . S
C615 N613 1.356 . S
N616 C608 1.356 . S
N616 H622 0.984 . S
N616 H623 0.984 . S
N617 C610 1.356 . S
N617 H620 0.984 . S
N617 H621 0.985 . S
H618 N613 0.984 . S
H619 N613 0.985 . S
H620 N617 0.984 . S
H621 N617 0.985 . S
H622 N616 0.984 . S
H623 N616 0.984 . S
H624 N612 0.984 . S
H625 N612 0.985 . S
C626 C627 1.363 . S
C626 C632 1.379 . S
C626 N634 1.356 . S
C627 C626 1.363 . S
C627 C633 1.363 . S
C628 C629 1.363 . S
C628 C633 1.379 . S
C628 N635 1.356 . S
C629 C628 1.363 . S
C629 C632 1.363 . S
N630 C632 1.356 . S
N630 H642 0.984 . S
N630 H643 0.985 . S
N631 C633 1.356 1_455 S
N631 H636 0.984 . S
N631 H637 0.985 . S
C632 C626 1.379 . S
C632 C629 1.363 . S
C632 N630 1.356 . S
C633 C627 1.363 . S
C633 C628 1.379 . S
C633 N631 1.356 1_655 S
N634 C626 1.356 . S
N634 H640 0.984 . S
N634 H641 0.984 . S
N635 C628 1.356 . S
N635 H638 0.984 . S
N635 H639 0.985 . S
H636 N631 0.984 . S
H637 N631 0.985 . S
H638 N635 0.984 . S
H639 N635 0.985 . S
H640 N634 0.984 . S
H641 N634 0.984 . S
H642 N630 0.984 . S
H643 N630 0.985 . S
C644 C645 1.363 . S
C644 C650 1.379 . S
C644 N652 1.356 . S
C645 C644 1.363 . S
C645 C651 1.363 . S
C646 C647 1.363 . S
C646 C651 1.379 . S
C646 N653 1.356 . S
C647 C646 1.363 . S
C647 C650 1.363 . S
N648 C650 1.356 . S
N648 H660 0.984 . S
N648 H661 0.985 . S
N649 C651 1.356 . S
N649 H654 0.984 . S
N649 H655 0.985 . S
C650 C644 1.379 . S
C650 C647 1.363 . S
C650 N648 1.356 . S
C651 C645 1.363 . S
C651 C646 1.379 . S
C651 N649 1.356 . S
N652 C644 1.356 . S
N652 H658 0.984 . S
N652 H659 0.984 . S
N653 C646 1.356 . S
N653 H656 0.984 . S
N653 H657 0.985 . S
H654 N649 0.984 . S
H655 N649 0.985 . S
H656 N653 0.984 . S
H657 N653 0.985 . S
H658 N652 0.984 . S
H659 N652 0.984 . S
H660 N648 0.984 . S
H661 N648 0.985 . S
C662 C663 1.363 . S
C662 C668 1.379 . S
C662 N670 1.356 . S
C663 C662 1.363 . S
C663 C669 1.363 . S
C664 C665 1.363 . S
C664 C669 1.379 . S
C664 N671 1.356 . S
C665 C664 1.363 . S
C665 C668 1.363 . S
N666 C668 1.356 . S
N666 H678 0.984 . S
N666 H679 0.985 . S
N667 C669 1.356 . S
N667 H672 0.984 . S
N667 H673 0.985 . S
C668 C662 1.379 . S
C668 C665 1.363 . S
C668 N666 1.356 . S
C669 C663 1.363 . S
C669 C664 1.379 . S
C669 N667 1.356 . S
N670 C662 1.356 . S
N670 H676 0.984 . S
N670 H677 0.984 . S
N671 C664 1.356 . S
N671 H674 0.984 . S
N671 H675 0.985 . S
H672 N667 0.984 . S
H673 N667 0.985 . S
H674 N671 0.984 . S
H675 N671 0.985 . S
H676 N670 0.984 . S
H677 N670 0.984 . S
H678 N666 0.984 . S
H679 N666 0.985 . S
C680 C681 1.363 . S
C680 C686 1.379 . S
C680 N688 1.356 . S
C681 C680 1.363 . S
C681 C687 1.363 . S
C682 C683 1.363 . S
C682 C687 1.379 . S
C682 N689 1.341 1_655 S
C683 C682 1.363 . S
C683 C686 1.363 . S
N684 C686 1.356 . S
N684 H696 0.984 . S
N684 H697 0.985 . S
N685 C687 1.356 . S
N685 H690 0.984 . S
N685 H691 0.985 . S
C686 C680 1.379 . S
C686 C683 1.363 . S
C686 N684 1.356 . S
C687 C681 1.363 . S
C687 C682 1.379 . S
C687 N685 1.356 . S
N688 C680 1.356 . S
N688 H694 0.984 . S
N688 H695 0.984 . S
N689 C682 1.341 1_455 S
N689 H692 0.985 . S
N689 H693 0.999 . S
H690 N685 0.984 . S
H691 N685 0.985 . S
H692 N689 0.985 . S
H693 N689 0.999 . S
H694 N688 0.984 . S
H695 N688 0.984 . S
H696 N684 0.984 . S
H697 N684 0.985 . S
C698 C699 1.363 . S
C698 C704 1.379 . S
C698 N706 1.356 . S
C699 C698 1.363 . S
C699 C705 1.363 . S
C700 C701 1.363 . S
C700 C705 1.379 . S
C700 N707 1.356 . S
C701 C700 1.363 . S
C701 C704 1.363 . S
N702 C704 1.356 . S
N702 H714 0.972 1_554 S
N702 H715 0.985 . S
N703 C705 1.356 . S
N703 H708 0.984 . S
N703 H709 0.985 . S
C704 C698 1.379 . S
C704 C701 1.363 . S
C704 N702 1.356 . S
C705 C699 1.363 . S
C705 C700 1.379 . S
C705 N703 1.356 . S
N706 C698 1.356 . S
N706 H712 0.984 . S
N706 H713 0.984 . S
N707 C700 1.356 . S
N707 H710 0.984 . S
N707 H711 0.985 . S
H708 N703 0.984 . S
H709 N703 0.985 . S
H710 N707 0.984 . S
H711 N707 0.985 . S
H712 N706 0.984 . S
H713 N706 0.984 . S
H714 N702 0.972 1_556 S
H715 N702 0.985 . S
C716 C717 1.363 . S
C716 C722 1.379 . S
C716 N724 1.356 . S
C717 C716 1.363 . S
C717 C723 1.363 . S
C718 C719 1.363 . S
C718 C723 1.379 . S
C718 N725 1.356 . S
C719 C718 1.363 . S
C719 C722 1.363 . S
N720 C722 1.356 . S
N720 H732 0.984 . S
N720 H733 0.985 . S
N721 C723 1.356 . S
N721 H726 0.984 . S
N721 H727 0.985 . S
C722 C716 1.379 . S
C722 C719 1.363 . S
C722 N720 1.356 . S
C723 C717 1.363 . S
C723 C718 1.379 . S
C723 N721 1.356 . S
N724 C716 1.356 . S
N724 H730 0.984 . S
N724 H731 0.984 . S
N725 C718 1.356 . S
N725 H728 0.984 . S
N725 H729 0.985 . S
H726 N721 0.984 . S
H727 N721 0.985 . S
H728 N725 0.984 . S
H729 N725 0.985 . S
H730 N724 0.984 . S
H731 N724 0.984 . S
H732 N720 0.984 . S
H733 N720 0.985 . S
C734 C735 1.363 . S
C734 C740 1.379 . S
C734 N742 1.356 . S
C735 C734 1.363 . S
C735 C741 1.363 . S
C736 C737 1.363 . S
C736 C741 1.379 . S
C736 N743 1.356 . S
C737 C736 1.363 . S
C737 C740 1.363 . S
N738 C740 1.356 . S
N738 H750 0.984 . S
N738 H751 0.985 . S
N739 C741 1.356 . S
N739 H744 0.984 . S
N739 H745 0.985 . S
C740 C734 1.379 . S
C740 C737 1.363 . S
C740 N738 1.356 . S
C741 C735 1.363 . S
C741 C736 1.379 . S
C741 N739 1.356 . S
N742 C734 1.356 . S
N742 H748 0.984 . S
N742 H749 0.984 . S
N743 C736 1.356 . S
N743 H746 0.984 . S
N743 H747 0.985 . S
H744 N739 0.984 . S
H745 N739 0.985 . S
H746 N743 0.984 . S
H747 N743 0.985 . S
H748 N742 0.984 . S
H749 N742 0.984 . S
H750 N738 0.984 . S
H751 N738 0.985 . S
C752 C753 1.363 . S
C752 C758 1.379 . S
C752 N760 1.356 . S
C753 C752 1.363 . S
C753 C759 1.363 . S
C754 C755 1.363 1_554 S
C754 C759 1.379 1_554 S
C754 N761 1.356 . S
C755 C754 1.363 1_556 S
C755 C758 1.363 . S
N756 C758 1.356 . S
N756 H768 0.984 . S
N756 H769 0.985 . S
N757 C759 1.356 1_554 S
N757 H762 0.984 1_554 S
N757 H763 0.985 . S
C758 C752 1.379 . S
C758 C755 1.363 . S
C758 N756 1.356 . S
C759 C753 1.363 . S
C759 C754 1.379 1_556 S
C759 N757 1.356 1_556 S
N760 C752 1.356 . S
N760 H766 0.984 . S
N760 H767 0.984 . S
N761 C754 1.356 . S
N761 H764 0.984 . S
N761 H765 0.985 . S
H762 N757 0.984 1_556 S
H763 N757 0.985 . S
H764 N761 0.984 . S
H765 N761 0.985 . S
H766 N760 0.984 . S
H767 N760 0.984 . S
H768 N756 0.984 . S
H769 N756 0.985 . S
C770 C771 1.363 . S
C770 C776 1.379 . S
C770 N778 1.356 . S
C771 C770 1.363 . S
C771 C777 1.363 . S
C772 C773 1.363 . S
C772 C777 1.379 . S
C772 N779 1.356 . S
C773 C772 1.363 . S
C773 C776 1.363 . S
N774 C776 1.356 1_554 S
N774 H786 0.984 . S
N774 H787 0.985 . S
N775 C777 1.356 . S
N775 H780 0.984 . S
N775 H781 0.985 . S
C776 C770 1.379 . S
C776 C773 1.363 . S
C776 N774 1.356 1_556 S
C777 C771 1.363 . S
C777 C772 1.379 . S
C777 N775 1.356 . S
N778 C770 1.356 . S
N778 H784 0.984 1_556 S
N778 H785 0.984 . S
N779 C772 1.356 . S
N779 H782 0.984 . S
N779 H783 0.985 . S
H780 N775 0.984 . S
H781 N775 0.985 . S
H782 N779 0.984 . S
H783 N779 0.985 . S
H784 N778 0.984 1_554 S
H785 N778 0.984 . S
H786 N774 0.984 . S
H787 N774 0.985 . S
C788 C789 1.363 . S
C788 C794 1.379 . S
C788 N796 1.356 . S
C789 C788 1.363 . S
C789 C795 1.363 . S
C790 C791 1.363 1_556 S
C790 C795 1.379 1_556 S
C790 N797 1.356 . S
C791 C790 1.363 1_554 S
C791 C794 1.363 . S
N792 C794 1.356 . S
N792 H804 0.984 . S
N792 H805 0.985 . S
N793 C795 1.356 . S
N793 H798 0.984 . S
N793 H799 0.985 1_554 S
C794 C788 1.379 . S
C794 C791 1.363 . S
C794 N792 1.356 . S
C795 C789 1.363 . S
C795 C790 1.379 1_554 S
C795 N793 1.356 . S
N796 C788 1.356 . S
N796 H802 0.984 . S
N796 H803 0.984 . S
N797 C790 1.356 . S
N797 H800 0.984 . S
N797 H801 0.985 . S
H798 N793 0.984 . S
H799 N793 0.985 1_556 S
H800 N797 0.984 . S
H801 N797 0.985 . S
H802 N796 0.984 . S
H803 N796 0.984 . S
H804 N792 0.984 . S
H805 N792 0.985 . S
C806 C807 1.363 . S
C806 C812 1.379 . S
C806 N814 1.356 . S
C807 C806 1.363 . S
C807 C813 1.363 . S
C808 C809 1.363 . S
C808 C813 1.379 . S
C808 N815 1.356 . S
C809 C808 1.363 . S
C809 C812 1.363 . S
N810 C812 1.356 . S
N810 H822 0.984 . S
N810 H823 0.985 . S
N811 C813 1.356 . S
N811 H816 0.984 . S
N811 H817 0.985 . S
C812 C806 1.379 . S
C812 C809 1.363 . S
C812 N810 1.356 . S
C813 C807 1.363 . S
C813 C808 1.379 . S
C813 N811 1.356 . S
N814 C806 1.356 . S
N814 H820 0.984 . S
N814 H821 0.984 . S
N815 C808 1.356 . S
N815 H818 0.984 . S
N815 H819 0.985 . S
H816 N811 0.984 . S
H817 N811 0.985 . S
H818 N815 0.984 . S
H819 N815 0.985 . S
H820 N814 0.984 . S
H821 N814 0.984 . S
H822 N810 0.984 . S
H823 N810 0.985 . S
C824 C825 1.363 . S
C824 C830 1.379 . S
C824 N832 1.356 . S
C825 C824 1.363 . S
C825 C831 1.363 1_554 S
C826 C827 1.363 1_556 S
C826 C831 1.379 . S
C826 N833 1.356 . S
C827 C826 1.363 1_554 S
C827 C830 1.363 . S
N828 C830 1.356 . S
N828 H840 0.984 . S
N828 H841 0.985 . S
N829 C831 1.356 . S
N829 H834 0.984 . S
N829 H835 0.985 . S
C830 C824 1.379 . S
C830 C827 1.363 . S
C830 N828 1.356 . S
C831 C825 1.363 1_556 S
C831 C826 1.379 . S
C831 N829 1.356 . S
N832 C824 1.356 . S
N832 H838 0.984 . S
N832 H839 0.984 . S
N833 C826 1.356 . S
N833 H836 0.984 . S
N833 H837 0.985 . S
H834 N829 0.984 . S
H835 N829 0.985 . S
H836 N833 0.984 . S
H837 N833 0.985 . S
H838 N832 0.984 . S
H839 N832 0.984 . S
H840 N828 0.984 . S
H841 N828 0.985 . S
C842 C843 1.363 . S
C842 C848 1.379 . S
C842 N850 1.356 . S
C843 C842 1.363 . S
C843 C849 1.363 . S
C844 C845 1.363 . S
C844 C849 1.379 . S
C844 N851 1.356 . S
C845 C844 1.363 . S
C845 C848 1.363 . S
N846 C848 1.356 . S
N846 H858 0.984 . S
N846 H859 0.985 . S
N847 C849 1.356 . S
N847 H852 0.984 . S
N847 H853 0.985 . S
C848 C842 1.379 . S
C848 C845 1.363 . S
C848 N846 1.356 . S
C849 C843 1.363 . S
C849 C844 1.379 . S
C849 N847 1.356 . S
N850 C842 1.356 . S
N850 H856 0.984 . S
N850 H857 0.984 . S
N851 C844 1.356 . S
N851 H854 0.984 . S
N851 H855 0.985 . S
H852 N847 0.984 . S
H853 N847 0.985 . S
H854 N851 0.984 . S
H855 N851 0.985 . S
H856 N850 0.984 . S
H857 N850 0.984 . S
H858 N846 0.984 . S
H859 N846 0.985 . S
C860 C861 1.363 . S
C860 C866 1.379 . S
C860 N868 1.356 . S
C861 C860 1.363 . S
C861 C867 1.363 . S
C862 C863 1.363 . S
C862 C867 1.379 . S
C862 N869 1.356 1_556 S
C863 C862 1.363 . S
C863 C866 1.363 . S
N864 C866 1.356 . S
N864 H876 0.984 . S
N864 H877 0.985 . S
N865 C867 1.356 . S
N865 H870 0.984 . S
N865 H871 0.985 . S
C866 C860 1.379 . S
C866 C863 1.363 . S
C866 N864 1.356 . S
C867 C861 1.363 . S
C867 C862 1.379 . S
C867 N865 1.356 . S
N868 C860 1.356 . S
N868 H874 0.984 . S
N868 H875 0.984 . S
N869 C862 1.356 1_554 S
N869 H872 0.984 . S
N869 H873 0.985 . S
H870 N865 0.984 . S
H871 N865 0.985 . S
H872 N869 0.984 . S
H873 N869 0.985 . S
H874 N868 0.984 . S
H875 N868 0.984 . S
H876 N864 0.984 . S
H877 N864 0.985 . S
C878 C879 1.363 . S
C878 C884 1.379 . S
C878 N886 1.356 . S
C879 C878 1.363 . S
C879 C885 1.363 . S
C880 C881 1.363 . S
C880 C885 1.379 . S
C880 N887 1.356 . S
C881 C880 1.363 . S
C881 C884 1.363 . S
N882 C884 1.356 . S
N882 H894 0.984 . S
N882 H895 0.985 . S
N883 C885 1.356 . S
N883 H888 0.984 . S
N883 H889 0.985 . S
C884 C878 1.379 . S
C884 C881 1.363 . S
C884 N882 1.356 . S
C885 C879 1.363 . S
C885 C880 1.379 . S
C885 N883 1.356 . S
N886 C878 1.356 . S
N886 H892 0.984 . S
N886 H893 0.984 . S
N887 C880 1.356 . S
N887 H890 0.984 . S
N887 H891 0.985 . S
H888 N883 0.984 . S
H889 N883 0.985 . S
H890 N887 0.984 . S
H891 N887 0.985 . S
H892 N886 0.984 . S
H893 N886 0.984 . S
H894 N882 0.984 . S
H895 N882 0.985 . S
C896 C897 1.363 . S
C896 C902 1.379 . S
C896 N904 1.356 . S
C897 C896 1.363 . S
C897 C903 1.363 . S
C898 C899 1.363 . S
C898 C903 1.379 . S
C898 N905 1.356 . S
C899 C898 1.363 . S
C899 C902 1.363 . S
N900 C902 1.356 . S
N900 H912 0.984 . S
N900 H913 0.985 . S
N901 C903 1.356 . S
N901 H906 0.984 . S
N901 H907 0.985 . S
C902 C896 1.379 . S
C902 C899 1.363 . S
C902 N900 1.356 . S
C903 C897 1.363 . S
C903 C898 1.379 . S
C903 N901 1.356 . S
N904 C896 1.356 . S
N904 H910 0.984 . S
N904 H911 0.984 . S
N905 C898 1.356 . S
N905 H908 0.984 . S
N905 H909 0.985 . S
H906 N901 0.984 . S
H907 N901 0.985 . S
H908 N905 0.984 . S
H909 N905 0.985 . S
H910 N904 0.984 . S
H911 N904 0.984 . S
H912 N900 0.984 . S
H913 N900 0.985 . S
C914 C915 1.363 . S
C914 C920 1.379 . S
C914 N922 1.356 . S
C915 C914 1.363 . S
C915 C921 1.363 . S
C916 C917 1.363 . S
C916 C921 1.379 . S
C916 N923 1.356 . S
C917 C916 1.363 . S
C917 C920 1.363 . S
N918 C920 1.356 . S
N918 H930 0.984 . S
N918 H931 0.985 . S
N919 C921 1.356 . S
N919 H924 0.984 . S
N919 H925 0.985 . S
C920 C914 1.379 . S
C920 C917 1.363 . S
C920 N918 1.356 . S
C921 C915 1.363 . S
C921 C916 1.379 . S
C921 N919 1.356 . S
N922 C914 1.356 . S
N922 H928 0.984 . S
N922 H929 0.984 . S
N923 C916 1.356 . S
N923 H926 0.984 . S
N923 H927 0.985 . S
H924 N919 0.984 . S
H925 N919 0.985 . S
H926 N923 0.984 . S
H927 N923 0.985 . S
H928 N922 0.984 . S
H929 N922 0.984 . S
H930 N918 0.984 . S
H931 N918 0.985 . S
C932 C933 1.363 . S
C932 C938 1.379 . S
C932 N940 1.356 . S
C933 C932 1.363 . S
C933 C939 1.363 . S
C934 C935 1.363 . S
C934 C939 1.379 . S
C934 N941 1.356 . S
C935 C934 1.363 . S
C935 C938 1.363 . S
N936 C938 1.356 . S
N936 H948 0.984 . S
N936 H949 0.985 . S
N937 C939 1.356 . S
N937 H942 0.984 . S
N937 H943 0.985 . S
C938 C932 1.379 . S
C938 C935 1.363 . S
C938 N936 1.356 . S
C939 C933 1.363 . S
C939 C934 1.379 . S
C939 N937 1.356 . S
N940 C932 1.356 . S
N940 H946 0.984 . S
N940 H947 0.984 . S
N941 C934 1.356 . S
N941 H944 0.984 . S
N941 H945 0.985 . S
H942 N937 0.984 . S
H943 N937 0.985 . S
H944 N941 0.984 . S
H945 N941 0.985 . S
H946 N940 0.984 . S
H947 N940 0.984 . S
H948 N936 0.984 . S
H949 N936 0.985 . S
C950 C951 1.363 . S
C950 C956 1.379 . S
C950 N958 1.356 . S
C951 C950 1.363 . S
C951 C957 1.363 . S
C952 C953 1.363 . S
C952 C957 1.379 . S
C952 N959 1.356 1_556 S
C953 C952 1.363 . S
C953 C956 1.363 . S
N954 C956 1.356 . S
N954 H966 0.984 . S
N954 H967 0.985 . S
N955 C957 1.356 . S
N955 H960 0.984 . S
N955 H961 0.985 . S
C956 C950 1.379 . S
C956 C953 1.363 . S
C956 N954 1.356 . S
C957 C951 1.363 . S
C957 C952 1.379 . S
C957 N955 1.356 . S
N958 C950 1.356 . S
N958 H964 0.984 . S
N958 H965 0.984 . S
N959 C952 1.356 1_554 S
N959 H962 0.984 . S
N959 H963 0.985 . S
H960 N955 0.984 . S
H961 N955 0.985 . S
H962 N959 0.984 . S
H963 N959 0.985 . S
H964 N958 0.984 . S
H965 N958 0.984 . S
H966 N954 0.984 . S
H967 N954 0.985 . S
C968 C969 1.363 . S
C968 C974 1.379 . S
C968 N976 1.356 . S
C969 C968 1.363 . S
C969 C975 1.363 . S
C970 C971 1.363 . S
C970 C975 1.379 . S
C970 N977 1.356 . S
C971 C970 1.363 . S
C971 C974 1.363 . S
N972 C974 1.356 . S
N972 H984 0.984 1_556 S
N972 H985 0.985 . S
N973 C975 1.356 . S
N973 H978 0.984 . S
N973 H979 0.985 . S
C974 C968 1.379 . S
C974 C971 1.363 . S
C974 N972 1.356 . S
C975 C969 1.363 . S
C975 C970 1.379 . S
C975 N973 1.356 . S
N976 C968 1.356 . S
N976 H982 0.984 . S
N976 H983 0.984 . S
N977 C970 1.356 . S
N977 H980 0.984 . S
N977 H981 0.985 . S
H978 N973 0.984 . S
H979 N973 0.985 . S
H980 N977 0.984 . S
H981 N977 0.985 . S
H982 N976 0.984 . S
H983 N976 0.984 . S
H984 N972 0.984 1_554 S
H985 N972 0.985 . S
C986 C987 1.363 . S
C986 C992 1.379 . S
C986 N994 1.356 . S
C987 C986 1.363 . S
C987 C993 1.363 . S
C988 C989 1.363 . S
C988 C993 1.379 . S
C988 N995 1.356 . S
C989 C988 1.363 . S
C989 C992 1.363 . S
N990 C992 1.356 . S
N990 H1002 0.984 1_556 S
N990 H1003 0.985 1_556 S
N991 C993 1.356 . S
N991 H996 0.984 . S
N991 H997 0.985 . S
C992 C986 1.379 . S
C992 C989 1.363 . S
C992 N990 1.356 . S
C993 C987 1.363 . S
C993 C988 1.379 . S
C993 N991 1.356 . S
N994 C986 1.356 . S
N994 H1000 0.984 . S
N994 H1001 0.984 . S
N995 C988 1.356 . S
N995 H998 0.984 . S
N995 H999 0.985 . S
H996 N991 0.984 . S
H997 N991 0.985 . S
H998 N995 0.984 . S
H999 N995 0.985 . S
H1000 N994 0.984 . S
H1001 N994 0.984 . S
H1002 N990 0.984 1_554 S
H1003 N990 0.985 1_554 S
C1004 C1005 1.363 . S
C1004 C1010 1.379 . S
C1004 N1012 1.356 . S
C1005 C1004 1.363 . S
C1005 C1011 1.363 . S
C1006 C1007 1.363 . S
C1006 C1011 1.379 . S
C1006 N1013 1.356 . S
C1007 C1006 1.363 . S
C1007 C1010 1.363 . S
N1008 C1010 1.356 1_554 S
N1008 H1020 0.984 . S
N1008 H1021 0.985 . S
N1009 C1011 1.356 . S
N1009 H1014 0.984 . S
N1009 H1015 0.985 . S
C1010 C1004 1.379 . S
C1010 C1007 1.363 . S
C1010 N1008 1.356 1_556 S
C1011 C1005 1.363 . S
C1011 C1006 1.379 . S
C1011 N1009 1.356 . S
N1012 C1004 1.356 . S
N1012 H1018 0.984 . S
N1012 H1019 0.984 . S
N1013 C1006 1.356 . S
N1013 H1016 0.984 . S
N1013 H1017 0.985 . S
H1014 N1009 0.984 . S
H1015 N1009 0.985 . S
H1016 N1013 0.984 . S
H1017 N1013 0.985 . S
H1018 N1012 0.984 . S
H1019 N1012 0.984 . S
H1020 N1008 0.984 . S
H1021 N1008 0.985 . S
C1022 C1023 1.363 . S
C1022 C1028 1.379 . S
C1022 N1030 1.356 . S
C1023 C1022 1.363 . S
C1023 C1029 1.363 . S
C1024 C1025 1.363 . S
C1024 C1029 1.379 . S
C1024 N1031 1.356 . S
C1025 C1024 1.363 . S
C1025 C1028 1.363 . S
N1026 C1028 1.356 . S
N1026 H1038 0.984 . S
N1026 H1039 0.985 . S
N1027 C1029 1.356 . S
N1027 H1032 0.984 . S
N1027 H1033 0.985 . S
C1028 C1022 1.379 . S
C1028 C1025 1.363 . S
C1028 N1026 1.356 . S
C1029 C1023 1.363 . S
C1029 C1024 1.379 . S
C1029 N1027 1.356 . S
N1030 C1022 1.356 . S
N1030 H1036 0.984 . S
N1030 H1037 0.984 . S
N1031 C1024 1.356 . S
N1031 H1034 0.984 . S
N1031 H1035 0.985 . S
H1032 N1027 0.984 . S
H1033 N1027 0.985 . S
H1034 N1031 0.984 . S
H1035 N1031 0.985 . S
H1036 N1030 0.984 . S
H1037 N1030 0.984 . S
H1038 N1026 0.984 . S
H1039 N1026 0.985 . S
C1040 C1041 1.363 . S
C1040 C1046 1.379 . S
C1040 N1048 1.356 . S
C1041 C1040 1.363 . S
C1041 C1047 1.363 . S
C1042 C1043 1.363 . S
C1042 C1047 1.379 . S
C1042 N1049 1.356 . S
C1043 C1042 1.363 . S
C1043 C1046 1.363 . S
N1044 C1046 1.356 . S
N1044 H1056 0.984 . S
N1044 H1057 0.985 . S
N1045 C1047 1.356 . S
N1045 H1050 0.984 . S
N1045 H1051 0.985 . S
C1046 C1040 1.379 . S
C1046 C1043 1.363 . S
C1046 N1044 1.356 . S
C1047 C1041 1.363 . S
C1047 C1042 1.379 . S
C1047 N1045 1.356 . S
N1048 C1040 1.356 . S
N1048 H1054 0.984 . S
N1048 H1055 0.984 . S
N1049 C1042 1.356 . S
N1049 H1052 0.984 . S
N1049 H1053 0.985 . S
H1050 N1045 0.984 . S
H1051 N1045 0.985 . S
H1052 N1049 0.984 . S
H1053 N1049 0.985 . S
H1054 N1048 0.984 . S
H1055 N1048 0.984 . S
H1056 N1044 0.984 . S
H1057 N1044 0.985 . S
C1058 C1059 1.363 . S
C1058 C1064 1.379 . S
C1058 N1066 1.356 . S
C1059 C1058 1.363 . S
C1059 C1065 1.363 . S
C1060 C1061 1.363 . S
C1060 C1065 1.379 . S
C1060 N1067 1.356 . S
C1061 C1060 1.363 . S
C1061 C1064 1.363 . S
N1062 C1064 1.356 . S
N1062 H1074 0.984 . S
N1062 H1075 0.985 . S
N1063 C1065 1.356 . S
N1063 H1068 0.984 . S
N1063 H1069 0.985 . S
C1064 C1058 1.379 . S
C1064 C1061 1.363 . S
C1064 N1062 1.356 . S
C1065 C1059 1.363 . S
C1065 C1060 1.379 . S
C1065 N1063 1.356 . S
N1066 C1058 1.356 . S
N1066 H1072 0.984 1_554 S
N1066 H1073 0.984 . S
N1067 C1060 1.356 . S
N1067 H1070 0.984 . S
N1067 H1071 0.985 . S
H1068 N1063 0.984 . S
H1069 N1063 0.985 . S
H1070 N1067 0.984 . S
H1071 N1067 0.985 . S
H1072 N1066 0.984 1_556 S
H1073 N1066 0.984 . S
H1074 N1062 0.984 . S
H1075 N1062 0.985 . S
C1076 C1077 1.363 . S
C1076 C1082 1.379 . S
C1076 N1084 1.356 . S
C1077 C1076 1.363 . S
C1077 C1083 1.363 . S
C1078 C1079 1.363 . S
C1078 C1083 1.379 . S
C1078 N1085 1.356 . S
C1079 C1078 1.363 . S
C1079 C1082 1.363 . S
N1080 C1082 1.356 . S
N1080 H1092 0.984 . S
N1080 H1093 0.985 . S
N1081 C1083 1.356 . S
N1081 H1086 0.984 . S
N1081 H1087 0.985 . S
C1082 C1076 1.379 . S
C1082 C1079 1.363 . S
C1082 N1080 1.356 . S
C1083 C1077 1.363 . S
C1083 C1078 1.379 . S
C1083 N1081 1.356 . S
N1084 C1076 1.356 . S
N1084 H1090 0.984 . S
N1084 H1091 0.984 . S
N1085 C1078 1.356 . S
N1085 H1088 0.984 . S
N1085 H1089 0.985 . S
H1086 N1081 0.984 . S
H1087 N1081 0.985 . S
H1088 N1085 0.984 . S
H1089 N1085 0.985 . S
H1090 N1084 0.984 . S
H1091 N1084 0.984 . S
H1092 N1080 0.984 . S
H1093 N1080 0.985 . S
C1094 C1095 1.363 . S
C1094 C1100 1.379 . S
C1094 N1102 1.356 . S
C1095 C1094 1.363 . S
C1095 C1101 1.363 . S
C1096 C1097 1.363 . S
C1096 C1101 1.379 . S
C1096 N1103 1.356 . S
C1097 C1096 1.363 . S
C1097 C1100 1.363 . S
N1098 C1100 1.356 . S
N1098 H1110 0.984 . S
N1098 H1111 0.985 . S
N1099 C1101 1.356 . S
N1099 H1104 0.984 . S
N1099 H1105 0.985 . S
C1100 C1094 1.379 . S
C1100 C1097 1.363 . S
C1100 N1098 1.356 . S
C1101 C1095 1.363 . S
C1101 C1096 1.379 . S
C1101 N1099 1.356 . S
N1102 C1094 1.356 . S
N1102 H1108 0.984 . S
N1102 H1109 0.984 . S
N1103 C1096 1.356 . S
N1103 H1106 0.984 . S
N1103 H1107 0.985 . S
H1104 N1099 0.984 . S
H1105 N1099 0.985 . S
H1106 N1103 0.984 . S
H1107 N1103 0.985 . S
H1108 N1102 0.984 . S
H1109 N1102 0.984 . S
H1110 N1098 0.984 . S
H1111 N1098 0.985 . S
C1112 C1113 1.363 . S
C1112 C1118 1.379 . S
C1112 N1120 1.356 . S
C1113 C1112 1.363 . S
C1113 C1119 1.363 . S
C1114 C1115 1.363 . S
C1114 C1119 1.379 . S
C1114 N1121 1.356 . S
C1115 C1114 1.363 . S
C1115 C1118 1.363 . S
N1116 C1118 1.356 . S
N1116 H1128 0.984 . S
N1116 H1129 0.985 . S
N1117 C1119 1.356 . S
N1117 H1122 0.984 . S
N1117 H1123 0.985 . S
C1118 C1112 1.379 . S
C1118 C1115 1.363 . S
C1118 N1116 1.356 . S
C1119 C1113 1.363 . S
C1119 C1114 1.379 . S
C1119 N1117 1.356 . S
N1120 C1112 1.356 . S
N1120 H1126 0.984 . S
N1120 H1127 0.984 . S
N1121 C1114 1.356 . S
N1121 H1124 0.984 . S
N1121 H1125 0.985 . S
H1122 N1117 0.984 . S
H1123 N1117 0.985 . S
H1124 N1121 0.984 . S
H1125 N1121 0.985 . S
H1126 N1120 0.984 . S
H1127 N1120 0.984 . S
H1128 N1116 0.984 . S
H1129 N1116 0.985 . S
C1130 C1131 1.363 . S
C1130 C1136 1.379 . S
C1130 N1138 1.356 . S
C1131 C1130 1.363 . S
C1131 C1137 1.363 . S
C1132 C1133 1.363 . S
C1132 C1137 1.379 . S
C1132 N1139 1.356 . S
C1133 C1132 1.363 . S
C1133 C1136 1.363 . S
N1134 C1136 1.356 . S
N1134 H1146 0.984 . S
N1134 H1147 0.985 . S
N1135 C1137 1.356 . S
N1135 H1140 0.984 . S
N1135 H1141 0.985 . S
C1136 C1130 1.379 . S
C1136 C1133 1.363 . S
C1136 N1134 1.356 . S
C1137 C1131 1.363 . S
C1137 C1132 1.379 . S
C1137 N1135 1.356 . S
N1138 C1130 1.356 . S
N1138 H1144 0.984 . S
N1138 H1145 0.984 . S
N1139 C1132 1.356 . S
N1139 H1142 0.984 . S
N1139 H1143 0.985 . S
H1140 N1135 0.984 . S
H1141 N1135 0.985 . S
H1142 N1139 0.984 . S
H1143 N1139 0.985 . S
H1144 N1138 0.984 . S
H1145 N1138 0.984 . S
H1146 N1134 0.984 . S
H1147 N1134 0.985 . S
C1148 C1149 1.363 . S
C1148 C1154 1.379 . S
C1148 N1156 1.356 . S
C1149 C1148 1.363 . S
C1149 C1155 1.363 . S
C1150 C1151 1.363 . S
C1150 C1155 1.379 . S
C1150 N1157 1.356 . S
C1151 C1150 1.363 . S
C1151 C1154 1.363 . S
N1152 C1154 1.356 . S
N1152 H1164 0.984 . S
N1152 H1165 0.985 . S
N1153 C1155 1.356 . S
N1153 H1158 0.984 . S
N1153 H1159 0.985 . S
C1154 C1148 1.379 . S
C1154 C1151 1.363 . S
C1154 N1152 1.356 . S
C1155 C1149 1.363 . S
C1155 C1150 1.379 . S
C1155 N1153 1.356 . S
N1156 C1148 1.356 . S
N1156 H1162 0.984 . S
N1156 H1163 0.984 . S
N1157 C1150 1.356 . S
N1157 H1160 0.984 . S
N1157 H1161 0.985 . S
H1158 N1153 0.984 . S
H1159 N1153 0.985 . S
H1160 N1157 0.984 . S
H1161 N1157 0.985 . S
H1162 N1156 0.984 . S
H1163 N1156 0.984 . S
H1164 N1152 0.984 . S
H1165 N1152 0.985 . S
C1166 C1167 1.363 . S
C1166 C1172 1.379 . S
C1166 N1174 1.356 . S
C1167 C1166 1.363 . S
C1167 C1173 1.363 . S
C1168 C1169 1.363 . S
C1168 C1173 1.379 . S
C1168 N1175 1.356 . S
C1169 C1168 1.363 . S
C1169 C1172 1.363 . S
N1170 C1172 1.356 . S
N1170 H1182 0.984 . S
N1170 H1183 0.985 . S
N1171 C1173 1.356 . S
N1171 H1176 0.984 . S
N1171 H1177 0.985 . S
C1172 C1166 1.379 . S
C1172 C1169 1.363 . S
C1172 N1170 1.356 . S
C1173 C1167 1.363 . S
C1173 C1168 1.379 . S
C1173 N1171 1.356 . S
N1174 C1166 1.356 . S
N1174 H1180 0.984 . S
N1174 H1181 0.984 . S
N1175 C1168 1.356 . S
N1175 H1178 0.984 . S
N1175 H1179 0.985 . S
H1176 N1171 0.984 . S
H1177 N1171 0.985 . S
H1178 N1175 0.984 . S
H1179 N1175 0.985 . S
H1180 N1174 0.984 . S
H1181 N1174 0.984 . S
H1182 N1170 0.984 . S
H1183 N1170 0.985 . S
C1184 C1185 1.363 . S
C1184 C1190 1.379 . S
C1184 N1192 1.356 . S
C1185 C1184 1.363 . S
C1185 C1191 1.363 . S
C1186 C1187 1.363 . S
C1186 C1191 1.379 . S
C1186 N1193 1.356 . S
C1187 C1186 1.363 . S
C1187 C1190 1.363 . S
N1188 C1190 1.356 . S
N1188 H1200 0.984 . S
N1188 H1201 0.985 . S
N1189 C1191 1.356 . S
N1189 H1194 0.984 . S
N1189 H1195 0.985 . S
C1190 C1184 1.379 . S
C1190 C1187 1.363 . S
C1190 N1188 1.356 . S
C1191 C1185 1.363 . S
C1191 C1186 1.379 . S
C1191 N1189 1.356 . S
N1192 C1184 1.356 . S
N1192 H1198 0.984 . S
N1192 H1199 0.984 . S
N1193 C1186 1.356 . S
N1193 H1196 0.984 . S
N1193 H1197 0.985 . S
H1194 N1189 0.984 . S
H1195 N1189 0.985 . S
H1196 N1193 0.984 . S
H1197 N1193 0.985 . S
H1198 N1192 0.984 . S
H1199 N1192 0.984 . S
H1200 N1188 0.984 . S
H1201 N1188 0.985 . S
C1202 C1203 1.363 . S
C1202 C1208 1.379 . S
C1202 N1210 1.356 . S
C1203 C1202 1.363 . S
C1203 C1209 1.363 . S
C1204 C1205 1.363 . S
C1204 C1209 1.379 . S
C1204 N1211 1.356 . S
C1205 C1204 1.363 . S
C1205 C1208 1.363 . S
N1206 C1208 1.356 . S
N1206 H1218 0.984 . S
N1206 H1219 0.985 . S
N1207 C1209 1.356 . S
N1207 H1212 0.984 . S
N1207 H1213 0.985 . S
C1208 C1202 1.379 . S
C1208 C1205 1.363 . S
C1208 N1206 1.356 . S
C1209 C1203 1.363 . S
C1209 C1204 1.379 . S
C1209 N1207 1.356 . S
N1210 C1202 1.356 . S
N1210 H1216 0.984 . S
N1210 H1217 0.984 . S
N1211 C1204 1.356 . S
N1211 H1214 0.984 . S
N1211 H1215 0.985 . S
H1212 N1207 0.984 . S
H1213 N1207 0.985 . S
H1214 N1211 0.984 . S
H1215 N1211 0.985 . S
H1216 N1210 0.984 . S
H1217 N1210 0.984 . S
H1218 N1206 0.984 . S
H1219 N1206 0.985 . S
C1220 C1221 1.363 . S
C1220 C1226 1.379 . S
C1220 N1228 1.356 . S
C1221 C1220 1.363 . S
C1221 C1227 1.363 . S
C1222 C1223 1.363 . S
C1222 C1227 1.379 . S
C1222 N1229 1.356 . S
C1223 C1222 1.363 . S
C1223 C1226 1.363 . S
N1224 C1226 1.356 . S
N1224 H1236 0.984 . S
N1224 H1237 0.985 . S
N1225 C1227 1.356 . S
N1225 H1230 0.984 . S
N1225 H1231 0.985 . S
C1226 C1220 1.379 . S
C1226 C1223 1.363 . S
C1226 N1224 1.356 . S
C1227 C1221 1.363 . S
C1227 C1222 1.379 . S
C1227 N1225 1.356 . S
N1228 C1220 1.356 . S
N1228 H1234 0.984 . S
N1228 H1235 0.984 . S
N1229 C1222 1.356 . S
N1229 H1232 0.984 . S
N1229 H1233 0.985 . S
H1230 N1225 0.984 . S
H1231 N1225 0.985 . S
H1232 N1229 0.984 . S
H1233 N1229 0.985 . S
H1234 N1228 0.984 . S
H1235 N1228 0.984 . S
H1236 N1224 0.984 . S
H1237 N1224 0.985 . S
C1238 C1239 1.363 . S
C1238 C1244 1.379 . S
C1238 N1246 1.356 . S
C1239 C1238 1.363 . S
C1239 C1245 1.363 . S
C1240 C1241 1.363 . S
C1240 C1245 1.379 . S
C1240 N1247 1.356 . S
C1241 C1240 1.363 . S
C1241 C1244 1.363 . S
N1242 C1244 1.356 . S
N1242 H1254 0.984 . S
N1242 H1255 0.985 . S
N1243 C1245 1.356 . S
N1243 H1248 0.984 . S
N1243 H1249 0.985 . S
C1244 C1238 1.379 . S
C1244 C1241 1.363 . S
C1244 N1242 1.356 . S
C1245 C1239 1.363 . S
C1245 C1240 1.379 . S
C1245 N1243 1.356 . S
N1246 C1238 1.356 . S
N1246 H1252 0.984 . S
N1246 H1253 0.984 . S
N1247 C1240 1.356 . S
N1247 H1250 0.984 . S
N1247 H1251 0.985 . S
H1248 N1243 0.984 . S
H1249 N1243 0.985 . S
H1250 N1247 0.984 . S
H1251 N1247 0.985 . S
H1252 N1246 0.984 . S
H1253 N1246 0.984 . S
H1254 N1242 0.984 . S
H1255 N1242 0.985 . S
C1256 C1257 1.363 . S
C1256 C1262 1.379 . S
C1256 N1264 1.356 . S
C1257 C1256 1.363 . S
C1257 C1263 1.363 . S
C1258 C1259 1.363 . S
C1258 C1263 1.379 . S
C1258 N1265 1.356 . S
C1259 C1258 1.363 . S
C1259 C1262 1.363 . S
N1260 C1262 1.356 . S
N1260 H1272 0.984 . S
N1260 H1273 0.985 . S
N1261 C1263 1.356 . S
N1261 H1266 0.984 . S
N1261 H1267 0.985 . S
C1262 C1256 1.379 . S
C1262 C1259 1.363 . S
C1262 N1260 1.356 . S
C1263 C1257 1.363 . S
C1263 C1258 1.379 . S
C1263 N1261 1.356 . S
N1264 C1256 1.356 . S
N1264 H1270 0.984 . S
N1264 H1271 0.984 . S
N1265 C1258 1.356 . S
N1265 H1268 0.984 . S
N1265 H1269 0.985 . S
H1266 N1261 0.984 . S
H1267 N1261 0.985 . S
H1268 N1265 0.984 . S
H1269 N1265 0.985 . S
H1270 N1264 0.984 . S
H1271 N1264 0.984 . S
H1272 N1260 0.984 . S
H1273 N1260 0.985 . S
C1274 C1275 1.363 . S
C1274 C1280 1.379 . S
C1274 N1282 1.356 . S
C1275 C1274 1.363 . S
C1275 C1281 1.363 . S
C1276 C1277 1.363 . S
C1276 C1281 1.379 . S
C1276 N1283 1.356 . S
C1277 C1276 1.363 . S
C1277 C1280 1.363 . S
N1278 C1280 1.356 . S
N1278 H1290 0.984 . S
N1278 H1291 0.985 . S
N1279 C1281 1.356 . S
N1279 H1284 0.984 . S
N1279 H1285 0.985 . S
C1280 C1274 1.379 . S
C1280 C1277 1.363 . S
C1280 N1278 1.356 . S
C1281 C1275 1.363 . S
C1281 C1276 1.379 . S
C1281 N1279 1.356 . S
N1282 C1274 1.356 . S
N1282 H1288 0.984 . S
N1282 H1289 0.984 . S
N1283 C1276 1.356 . S
N1283 H1286 0.984 . S
N1283 H1287 0.985 . S
H1284 N1279 0.984 . S
H1285 N1279 0.985 . S
H1286 N1283 0.984 . S
H1287 N1283 0.985 . S
H1288 N1282 0.984 . S
H1289 N1282 0.984 . S
H1290 N1278 0.984 . S
H1291 N1278 0.985 . S
C1292 C1293 1.363 . S
C1292 C1298 1.379 . S
C1292 N1300 1.356 . S
C1293 C1292 1.363 . S
C1293 C1299 1.363 . S
C1294 C1295 1.363 . S
C1294 C1299 1.379 . S
C1294 N1301 1.356 . S
C1295 C1294 1.363 . S
C1295 C1298 1.363 . S
N1296 C1298 1.356 . S
N1296 H1308 0.984 . S
N1296 H1309 0.985 . S
N1297 C1299 1.356 . S
N1297 H1302 0.984 . S
N1297 H1303 0.985 . S
C1298 C1292 1.379 . S
C1298 C1295 1.363 . S
C1298 N1296 1.356 . S
C1299 C1293 1.363 . S
C1299 C1294 1.379 . S
C1299 N1297 1.356 . S
N1300 C1292 1.356 . S
N1300 H1306 0.984 . S
N1300 H1307 0.984 . S
N1301 C1294 1.356 . S
N1301 H1304 0.984 . S
N1301 H1305 0.985 . S
H1302 N1297 0.984 . S
H1303 N1297 0.985 . S
H1304 N1301 0.984 . S
H1305 N1301 0.985 . S
H1306 N1300 0.984 . S
H1307 N1300 0.984 . S
H1308 N1296 0.984 . S
H1309 N1296 0.985 . S
C1310 C1311 1.363 . S
C1310 C1316 1.379 . S
C1310 N1318 1.356 . S
C1311 C1310 1.363 . S
C1311 C1317 1.363 . S
C1312 C1313 1.363 . S
C1312 C1317 1.379 . S
C1312 N1319 1.356 . S
C1313 C1312 1.363 . S
C1313 C1316 1.363 . S
N1314 C1316 1.356 . S
N1314 H1326 0.984 . S
N1314 H1327 0.985 . S
N1315 C1317 1.356 . S
N1315 H1320 0.984 . S
N1315 H1321 0.985 . S
C1316 C1310 1.379 . S
C1316 C1313 1.363 . S
C1316 N1314 1.356 . S
C1317 C1311 1.363 . S
C1317 C1312 1.379 . S
C1317 N1315 1.356 . S
N1318 C1310 1.356 . S
N1318 H1324 0.984 . S
N1318 H1325 0.984 . S
N1319 C1312 1.356 . S
N1319 H1322 0.984 . S
N1319 H1323 0.985 . S
H1320 N1315 0.984 . S
H1321 N1315 0.985 . S
H1322 N1319 0.984 . S
H1323 N1319 0.985 . S
H1324 N1318 0.984 . S
H1325 N1318 0.984 . S
H1326 N1314 0.984 . S
H1327 N1314 0.985 . S
C1328 C1329 1.363 . S
C1328 C1334 1.379 . S
C1328 N1336 1.356 . S
C1329 C1328 1.363 . S
C1329 C1335 1.363 . S
C1330 C1331 1.363 . S
C1330 C1335 1.379 . S
C1330 N1337 1.356 . S
C1331 C1330 1.363 . S
C1331 C1334 1.363 . S
N1332 C1334 1.356 . S
N1332 H1344 0.984 . S
N1332 H1345 0.985 . S
N1333 C1335 1.356 . S
N1333 H1338 0.984 . S
N1333 H1339 0.985 . S
C1334 C1328 1.379 . S
C1334 C1331 1.363 . S
C1334 N1332 1.356 . S
C1335 C1329 1.363 . S
C1335 C1330 1.379 . S
C1335 N1333 1.356 . S
N1336 C1328 1.356 . S
N1336 H1342 0.984 . S
N1336 H1343 0.984 . S
N1337 C1330 1.356 . S
N1337 H1340 0.984 . S
N1337 H1341 0.985 . S
H1338 N1333 0.984 . S
H1339 N1333 0.985 . S
H1340 N1337 0.984 . S
H1341 N1337 0.985 . S
H1342 N1336 0.984 . S
H1343 N1336 0.984 . S
H1344 N1332 0.984 . S
H1345 N1332 0.985 . S
C1346 C1347 1.363 . S
C1346 C1352 1.379 . S
C1346 N1354 1.356 . S
C1347 C1346 1.363 . S
C1347 C1353 1.363 . S
C1348 C1349 1.363 . S
C1348 C1353 1.379 . S
C1348 N1355 1.356 . S
C1349 C1348 1.363 . S
C1349 C1352 1.363 . S
N1350 C1352 1.356 . S
N1350 H1362 0.984 . S
N1350 H1363 0.985 . S
N1351 C1353 1.356 . S
N1351 H1356 0.984 . S
N1351 H1357 0.985 . S
C1352 C1346 1.379 . S
C1352 C1349 1.363 . S
C1352 N1350 1.356 . S
C1353 C1347 1.363 . S
C1353 C1348 1.379 . S
C1353 N1351 1.356 . S
N1354 C1346 1.356 . S
N1354 H1360 0.984 . S
N1354 H1361 0.984 . S
N1355 C1348 1.356 . S
N1355 H1358 0.984 . S
N1355 H1359 0.985 . S
H1356 N1351 0.984 . S
H1357 N1351 0.985 . S
H1358 N1355 0.984 . S
H1359 N1355 0.985 . S
H1360 N1354 0.984 . S
H1361 N1354 0.984 . S
H1362 N1350 0.984 . S
H1363 N1350 0.985 . S
C1364 C1365 1.363 . S
C1364 C1370 1.379 . S
C1364 N1372 1.356 . S
C1365 C1364 1.363 . S
C1365 C1371 1.363 . S
C1366 C1367 1.363 . S
C1366 C1371 1.379 . S
C1366 N1373 1.356 . S
C1367 C1366 1.363 . S
C1367 C1370 1.363 . S
N1368 C1370 1.356 . S
N1368 H1380 0.984 . S
N1368 H1381 0.985 . S
N1369 C1371 1.356 . S
N1369 H1374 0.984 . S
N1369 H1375 0.985 . S
C1370 C1364 1.379 . S
C1370 C1367 1.363 . S
C1370 N1368 1.356 . S
C1371 C1365 1.363 . S
C1371 C1366 1.379 . S
C1371 N1369 1.356 . S
N1372 C1364 1.356 . S
N1372 H1378 0.984 . S
N1372 H1379 0.984 . S
N1373 C1366 1.356 . S
N1373 H1376 0.984 . S
N1373 H1377 0.985 . S
H1374 N1369 0.984 . S
H1375 N1369 0.985 . S
H1376 N1373 0.984 . S
H1377 N1373 0.985 . S
H1378 N1372 0.984 . S
H1379 N1372 0.984 . S
H1380 N1368 0.984 . S
H1381 N1368 0.985 . S
C521 C347 2.426 . S
C519 C24 2.557 . S
C539 C348 3.280 . S
C537 C53 3.376 . S
C557 C342 1.504 . S
C555 C82 1.541 . S
C573 C137 0.744 . S
C575 C341 0.756 . S
C591 C184 3.224 . S
C593 C344 3.111 . S
C611 C346 1.335 . S
C609 C202 1.351 . S
C627 C266 0.752 . S
C629 C345 0.726 . S
C645 C293 2.551 . S
C647 C343 2.421 . S
C665 C378 2.886 . S
C663 C2 2.856 . S
C681 C57 1.012 . S
C683 C409 0.591 . S
C701 C377 0.758 . S
C699 C106 0.757 . S
C719 C412 1.094 . S
C717 C143 1.028 . S
C735 C162 1.345 . S
C737 C375 1.300 . S
C755 C407 0.925 1_556 S
C753 C226 0.922 . S
C771 C264 2.370 . S
C773 C380 2.385 . S
C789 C297 0.746 . S
C791 C414 0.605 . S
C807 C26 1.175 . S
C809 C410 1.437 . S
C825 C186 0.603 1_554 S
C827 C413 0.420 . S
C845 C381 2.359 . S
C843 C224 2.426 . S
C863 C408 1.724 1_556 S
C861 C242 1.834 . S
C879 C303 3.501 . S
C881 C374 3.530 . S
C897 C104 2.197 . S
C899 C411 2.209 . S
C917 C376 2.621 . S
C915 C133 2.726 . S
C933 C63 1.847 . S
C935 C379 1.870 . S
C951 C304 2.649 . S
C953 C446 2.549 . S
C969 C173 3.007 . S
C971 C447 2.904 . S
C989 C441 1.480 . S
C987 C223 1.510 . S
C1007 C440 0.553 . S
C1005 C257 0.560 . S
C1023 C64 3.205 . S
C1025 C443 3.125 . S
C1043 C445 1.353 . S
C1041 C103 1.382 . S
C1059 C146 0.484 . S
C1061 C444 0.433 . S
C1077 C13 2.624 . S
C1079 C442 2.512 . S
C1095 C282 3.623 . S
C1097 C480 3.561 . S
C1115 C512 0.607 . S
C1113 C177 0.674 . S
C1131 C213 2.405 . S
C1133 C473 2.398 . S
C1149 C263 2.150 . S
C1151 C507 2.146 . S
C1169 C478 1.599 . S
C1167 C42 1.652 . S
C1185 C93 2.350 . S
C1187 C509 2.337 . S
C1205 C475 2.944 . S
C1203 C144 2.975 . S
C1223 C510 1.438 . S
C1221 C17 1.214 . S
C1241 C506 0.715 . S
C1239 C306 0.748 . S
C1257 C66 0.915 . S
C1259 C508 0.590 . S
C1275 C97 0.703 . S
C1277 C477 0.699 . S
C1295 C511 1.309 . S
C1293 C122 1.280 . S
C1311 C23 3.015 . S
C1313 C476 2.894 . S
C1329 C217 1.100 . S
C1331 C513 1.099 . S
C1349 C479 2.527 . S
C1347 C253 2.555 . S
C1367 C474 1.230 . S
C1365 C183 1.216 . S
