# Generated by pormake.
# Topology ssa, (4,4)-cn, num edge types: 1
# Building blocks:
#     Node 0, Type 0, BuildingBlock: ESEHIV_clean_sbu_0, # of connection points: 4
#     Node 1, Type 0, BuildingBlock: ESEHIV_clean_sbu_0, # of connection points: 4
#     Node 2, Type 0, BuildingBlock: ESEHIV_clean_sbu_0, # of connection points: 4
#     Node 3, Type 0, BuildingBlock: ESEHIV_clean_sbu_0, # of connection points: 4
#     Node 4, Type 0, BuildingBlock: ESEHIV_clean_sbu_0, # of connection points: 4
#     Node 5, Type 0, BuildingBlock: ESEHIV_clean_sbu_0, # of connection points: 4
#     Node 6, Type 1, BuildingBlock: KOZSID_clean_sbu_0, # of connection points: 4
#     Node 7, Type 1, BuildingBlock: KOZSID_clean_sbu_0, # of connection points: 4
#     Node 8, Type 1, BuildingBlock: KOZSID_clean_sbu_0, # of connection points: 4
#     Node 9, Type 1, BuildingBlock: KOZSID_clean_sbu_0, # of connection points: 4
#     Node 10, Type 1, BuildingBlock: KOZSID_clean_sbu_0, # of connection points: 4
#     Node 11, Type 1, BuildingBlock: KOZSID_clean_sbu_0, # of connection points: 4
#     Edge 12, Type (0, 1), BuildingBlock: XUDNAN_clean_linker_2, # of connection points: 2
#     Edge 13, Type (0, 1), BuildingBlock: XUDNAN_clean_linker_2, # of connection points: 2
#     Edge 14, Type (0, 1), BuildingBlock: XUDNAN_clean_linker_2, # of connection points: 2
#     Edge 15, Type (0, 1), BuildingBlock: XUDNAN_clean_linker_2, # of connection points: 2
#     Edge 16, Type (0, 1), BuildingBlock: XUDNAN_clean_linker_2, # of connection points: 2
#     Edge 17, Type (0, 1), BuildingBlock: XUDNAN_clean_linker_2, # of connection points: 2
#     Edge 18, Type (0, 1), BuildingBlock: XUDNAN_clean_linker_2, # of connection points: 2
#     Edge 19, Type (0, 1), BuildingBlock: XUDNAN_clean_linker_2, # of connection points: 2
#     Edge 20, Type (0, 1), BuildingBlock: XUDNAN_clean_linker_2, # of connection points: 2
#     Edge 21, Type (0, 1), BuildingBlock: XUDNAN_clean_linker_2, # of connection points: 2
#     Edge 22, Type (0, 1), BuildingBlock: XUDNAN_clean_linker_2, # of connection points: 2
#     Edge 23, Type (0, 1), BuildingBlock: XUDNAN_clean_linker_2, # of connection points: 2
#     Edge 24, Type (0, 1), BuildingBlock: XUDNAN_clean_linker_2, # of connection points: 2
#     Edge 25, Type (0, 1), BuildingBlock: XUDNAN_clean_linker_2, # of connection points: 2
#     Edge 26, Type (0, 1), BuildingBlock: XUDNAN_clean_linker_2, # of connection points: 2
#     Edge 27, Type (0, 1), BuildingBlock: XUDNAN_clean_linker_2, # of connection points: 2
#     Edge 28, Type (0, 1), BuildingBlock: XUDNAN_clean_linker_2, # of connection points: 2
#     Edge 29, Type (0, 1), BuildingBlock: XUDNAN_clean_linker_2, # of connection points: 2
#     Edge 30, Type (0, 1), BuildingBlock: XUDNAN_clean_linker_2, # of connection points: 2
#     Edge 31, Type (0, 1), BuildingBlock: XUDNAN_clean_linker_2, # of connection points: 2
#     Edge 32, Type (0, 1), BuildingBlock: XUDNAN_clean_linker_2, # of connection points: 2
#     Edge 33, Type (0, 1), BuildingBlock: XUDNAN_clean_linker_2, # of connection points: 2
#     Edge 34, Type (0, 1), BuildingBlock: XUDNAN_clean_linker_2, # of connection points: 2
#     Edge 35, Type (0, 1), BuildingBlock: XUDNAN_clean_linker_2, # of connection points: 2
# Relax obj value: 0.016
# Max RMSD: 0.106
# Mean RMSD: 0.057
data_MOF--net-ssa--node1-ESEHIV_clean_sbu_0--node2-KOZSID_clean_sbu_0--edge1-XUDNAN_clean_linker_2
_symmetry_space_group_name_H-M    P1
_symmetry_Int_Tables_number       1
_symmetry_cell_setting            triclinic
loop_
_symmetry_equiv_pos_as_xyz
'x, y, z'
_cell_length_a     53.881053
_cell_length_b     57.138259
_cell_length_c     39.24509
_cell_angle_alpha  91.762612
_cell_angle_beta   93.972209
_cell_angle_gamma 122.17888
loop_
_atom_site_label
_atom_site_type_symbol
_atom_site_fract_x
_atom_site_fract_y
_atom_site_fract_z
_atom_type_partial_charge
Cu0 Cu 0.99509 0.50728 0.01092 0.0
N1 N 0.96346 0.47344 0.02192 0.0
N2 N 0.92483 0.42994 0.01153 0.0
C3 C 0.94713 0.45206 0.99833 0.0
C4 C 0.92749 0.43767 0.04512 0.0
C5 C 0.95139 0.46464 0.05147 0.0
O6 O 0.98067 0.51507 0.96716 0.0
C7 C 0.03698 0.4988 0.04325 0.0
O8 O 0.01948 0.49454 0.06722 0.0
H9 H 0.95182 0.45288 0.97188 0.0
H10 H 0.95926 0.47686 0.07582 0.0
N11 N 1.00548 0.53606 0.04371 0.0
N12 N 0.03721 0.57431 0.07742 0.0
C13 C 0.0332 0.55812 0.0493 0.0
C14 C 0.99109 0.5384 0.069 0.0
C15 C 0.01076 0.56204 0.09005 0.0
C16 C 0.9569 0.51515 0.96784 0.0
O17 O 0.94527 0.5113 0.99708 0.0
H18 H 0.05063 0.56113 0.03422 0.0
H19 H 0.96836 0.52347 0.07274 0.0
O20 O 0.03032 0.50423 0.01372 0.0
H21 H 0.91296 0.42503 0.06362 0.0
H22 H 1.00619 0.56919 0.11325 0.0
Cu23 Cu 0.50945 0.00632 0.52111 0.0
N24 N 0.52322 1.00009 0.48046 0.0
N25 N 0.5297 0.97686 0.43793 0.0
C26 C 0.52083 0.97606 0.46965 0.0
C27 C 0.53856 1.00263 0.42891 0.0
C28 C 0.53461 0.01679 0.45496 0.0
O29 O 0.47284 0.9708 0.52325 0.0
C30 C 0.56477 0.03555 0.55498 0.0
O31 O 0.56987 0.04533 0.52467 0.0
H32 H 0.5112 0.95783 0.48397 0.0
H33 H 0.53928 0.03767 0.45495 0.0
N34 N 0.50338 0.03635 0.52166 0.0
N35 N 0.49819 0.07127 0.54047 0.0
C36 C 0.50272 0.05089 0.54938 0.0
C37 C 0.49937 0.0481 0.49445 0.0
C38 C 0.49626 0.0694 0.5058 0.0
C39 C 0.4503 0.96564 0.5038 0.0
O40 O 0.44889 0.98668 0.49396 0.0
H41 H 0.50516 0.04635 0.57552 0.0
H42 H 0.49852 0.04153 0.46805 0.0
O43 O 0.53878 0.01597 0.55943 0.0
H44 H 0.54704 0.0107 0.4049 0.0
H45 H 0.49307 0.08264 0.4894 0.0
Cu46 Cu 0.5327 0.5175 0.02472 0.0
N47 N 0.52727 0.48177 0.02623 0.0
N48 N 0.52411 0.44198 0.00927 0.0
C49 C 0.52697 0.46585 0.99952 0.0
C50 C 0.52225 0.44305 0.04346 0.0
C51 C 0.5243 0.4674 0.05374 0.0
O52 O 0.55787 0.5341 0.98846 0.0
C53 C 0.47913 0.50418 0.04045 0.0
O54 O 0.48838 0.49584 0.0664 0.0
H55 H 0.52965 0.4721 0.97361 0.0
H56 H 0.52398 0.47429 0.07959 0.0
N57 N 0.54962 0.541 0.06623 0.0
N58 N 0.55796 0.57182 0.11007 0.0
C59 C 0.54322 0.55945 0.07883 0.0
C60 C 0.56928 0.54198 0.09016 0.0
C61 C 0.57447 0.56081 0.11692 0.0
C62 C 0.58083 0.5329 0.99076 0.0
O63 O 0.58733 0.5244 0.01876 0.0
H64 H 0.52735 0.56309 0.06578 0.0
H65 H 0.5789 0.52956 0.08853 0.0
O66 O 0.49476 0.51325 0.01553 0.0
H67 H 0.51953 0.42735 0.06024 0.0
H68 H 0.58942 0.56591 0.13975 0.0
Cu69 Cu 1.00785 0.48959 0.4894 0.0
N70 N 1.00361 0.46549 0.45319 0.0
N71 N 0.019 0.44844 0.41369 0.0
C72 C 0.02673 0.46575 0.44202 0.0
C73 C 0.9896 0.4365 0.40698 0.0
C74 C 0.98016 0.44714 0.43137 0.0
O75 O 0.04816 0.52298 0.48626 0.0
C76 C 0.97488 0.44523 0.53097 0.0
O77 O 0.95999 0.43359 0.50102 0.0
H78 H 0.04891 0.47881 0.45442 0.0
H79 H 0.9579 0.44218 0.43264 0.0
N80 N 0.98003 0.49928 0.48326 0.0
N81 N 0.95022 0.51233 0.49986 0.0
C82 C 0.97367 0.51058 0.50899 0.0
C83 C 0.96005 0.49387 0.45664 0.0
C84 C 0.94134 0.50174 0.467 0.0
C85 C 0.0525 0.54424 0.47093 0.0
O86 O 0.0299 0.54646 0.46231 0.0
H87 H 0.98504 0.51597 0.53456 0.0
H88 H 0.95856 0.48419 0.43186 0.0
O89 O 0.99826 0.4697 0.53229 0.0
H90 H 0.97602 0.42189 0.38538 0.0
H91 H 0.92245 0.4994 0.4519 0.0
Cu92 Cu 0.52616 0.01708 0.03417 0.0
N93 N 0.5207 0.04578 0.04559 0.0
N94 N 0.51018 0.07756 0.03306 0.0
C95 C 0.50501 0.05226 0.02433 0.0
C96 C 0.52973 0.08739 0.06127 0.0
C97 C 0.53605 0.06755 0.06916 0.0
O98 O 0.5433 0.02609 0.98911 0.0
C99 C 0.48258 0.95872 0.04537 0.0
O100 O 0.50367 0.95393 0.04272 0.0
H101 H 0.49244 0.03985 1.00084 0.0
H102 H 0.55258 0.06988 0.08867 0.0
N103 N 0.55407 0.01757 0.06594 0.0
N104 N 0.56955 0.9959 0.09948 0.0
C105 C 0.54754 0.99996 0.09073 0.0
C106 C 0.58198 0.02637 0.06036 0.0
C107 C 0.59148 0.01296 0.08085 0.0
C108 C 0.56376 0.05158 0.98673 0.0
O109 O 0.57211 0.06915 0.01375 0.0
H110 H 0.52551 0.98694 0.0982 0.0
H111 H 0.59307 0.03834 0.03943 0.0
O112 O 0.48712 0.98236 0.03821 0.0
H113 H 0.53999 0.10799 0.07397 0.0
H114 H 0.61106 0.01245 0.07822 0.0
Cu115 Cu 0.49149 0.49839 0.50579 0.0
N116 N 0.4932 0.53028 0.52167 0.0
N117 N 0.50488 0.57403 0.52153 0.0
C118 C 0.51265 0.55593 0.51307 0.0
C119 C 0.47967 0.55923 0.53649 0.0
C120 C 0.47255 0.53217 0.53663 0.0
O121 O 0.46623 0.48603 0.4612 0.0
C122 C 0.54849 0.51888 0.53784 0.0
O123 O 0.53887 0.52998 0.55881 0.0
H124 H 0.53052 0.56052 0.49785 0.0
H125 H 0.45265 0.51474 0.54468 0.0
N126 N 0.47156 0.47039 0.53516 0.0
N127 N 0.46596 0.44015 0.57344 0.0
C128 C 0.48456 0.46476 0.56135 0.0
C129 C 0.4435 0.44859 0.53067 0.0
C130 C 0.43998 0.4298 0.55425 0.0
C131 C 0.46563 0.50222 0.43965 0.0
O132 O 0.48702 0.52849 0.44259 0.0
H133 H 0.50782 0.47725 0.56968 0.0
H134 H 0.4273 0.44573 0.51031 0.0
O135 O 0.53218 0.50554 0.50994 0.0
H136 H 0.46643 0.56699 0.5448 0.0
H137 H 0.4203 0.40964 0.55611 0.0
C138 C 0.22875 0.52088 0.18062 0.0
C139 C 0.2331 0.54696 0.1781 0.0
C140 C 0.25697 0.56483 0.20061 0.0
C141 C 0.26591 0.54878 0.2155 0.0
N142 N 0.24916 0.5217 0.20401 0.0
Co143 Co 0.25564 0.49172 0.21846 0.0
N144 N 0.28926 0.51759 0.25372 0.0
C145 C 0.29843 0.54429 0.26225 0.0
C146 C 0.32027 0.55663 0.28889 0.0
C147 C 0.32541 0.53662 0.29807 0.0
C148 C 0.30668 0.51316 0.27603 0.0
N149 N 0.26346 0.46224 0.23122 0.0
C150 C 0.28495 0.46346 0.25322 0.0
C151 C 0.284 0.43868 0.25077 0.0
C152 C 0.26085 0.42109 0.22732 0.0
C153 C 0.24923 0.43611 0.21622 0.0
N154 N 0.2207 0.46537 0.18503 0.0
C155 C 0.2092 0.43786 0.17935 0.0
C156 C 0.18429 0.42453 0.15665 0.0
C157 C 0.17932 0.44468 0.14751 0.0
C158 C 0.20165 0.46928 0.16513 0.0
N159 N 0.28292 0.50127 0.18247 0.0
C160 C 0.32296 0.51325 0.13345 0.0
C161 C 0.29626 0.48776 0.13131 0.0
C162 C 0.2768 0.48219 0.15595 0.0
C163 C 0.3289 0.53308 0.15976 0.0
C164 C 0.30855 0.52683 0.18362 0.0
N165 N 0.22801 0.48198 0.25399 0.0
C166 C 0.18715 0.44672 0.28172 0.0
C167 C 0.18074 0.46601 0.29378 0.0
C168 C 0.2 0.49386 0.28794 0.0
C169 C 0.22359 0.50138 0.26861 0.0
C170 C 0.21067 0.45506 0.26203 0.0
H171 H 0.23729 0.52288 0.26481 0.0
H172 H 0.21377 0.43915 0.25272 0.0
H173 H 0.25727 0.46203 0.15327 0.0
H174 H 0.31428 0.54285 0.20305 0.0
C175 C 0.2876 0.55773 0.24303 0.0
C176 C 0.20418 0.49588 0.1613 0.0
C177 C 0.30646 0.48732 0.27717 0.0
C178 C 0.22384 0.42577 0.19351 0.0
H179 H 0.21997 0.55239 0.1622 0.0
H180 H 0.26612 0.58676 0.20625 0.0
H181 H 0.33139 0.57778 0.30008 0.0
H182 H 0.3413 0.53922 0.31865 0.0
H183 H 0.29847 0.43368 0.26453 0.0
H184 H 0.25325 0.3998 0.21948 0.0
H185 H 0.17154 0.40283 0.14737 0.0
H186 H 0.16148 0.44167 0.12959 0.0
H187 H 0.29095 0.47164 0.11159 0.0
H188 H 0.34936 0.5532 0.16219 0.0
H189 H 0.17367 0.42508 0.2867 0.0
H190 H 0.19631 0.50977 0.29686 0.0
C191 C 0.72312 0.21147 0.70293 0.0
C192 C 0.70219 0.21358 0.68313 0.0
C193 C 0.70717 0.2393 0.69235 0.0
C194 C 0.73081 0.25131 0.71712 0.0
N195 N 0.7409 0.23473 0.72368 0.0
Co196 Co 0.77295 0.24211 0.75847 0.0
N197 N 0.76931 0.27013 0.78441 0.0
C198 C 0.75604 0.28301 0.77217 0.0
C199 C 0.75661 0.30119 0.79635 0.0
C200 C 0.77143 0.29986 0.82533 0.0
C201 C 0.77941 0.28105 0.81713 0.0
N202 N 0.80491 0.24908 0.7933 0.0
C203 C 0.81231 0.2619 0.82524 0.0
C204 C 0.83702 0.26312 0.84073 0.0
C205 C 0.84532 0.25082 0.81741 0.0
C206 C 0.82539 0.24282 0.78903 0.0
N207 N 0.7766 0.21436 0.73198 0.0
C208 C 0.80009 0.21191 0.73335 0.0
C209 C 0.79499 0.18954 0.71276 0.0
C210 C 0.76651 0.17728 0.69781 0.0
C211 C 0.75595 0.19298 0.71018 0.0
N212 N 0.80238 0.2718 0.73188 0.0
C213 C 0.84474 0.31519 0.6947 0.0
C214 C 0.821 0.29013 0.67793 0.0
C215 C 0.80042 0.26879 0.69684 0.0
C216 C 0.84655 0.31739 0.73078 0.0
C217 C 0.82523 0.29597 0.74856 0.0
N218 N 0.74365 0.21264 0.78511 0.0
C219 C 0.72681 0.17084 0.81452 0.0
C220 C 0.70116 0.16984 0.82201 0.0
C221 C 0.69744 0.19095 0.81061 0.0
C222 C 0.71866 0.21187 0.79205 0.0
C223 C 0.7478 0.19242 0.79649 0.0
H224 H 0.71469 0.22736 0.78311 0.0
H225 H 0.76739 0.19267 0.79162 0.0
H226 H 0.78272 0.24987 0.68301 0.0
H227 H 0.8274 0.29913 0.77608 0.0
C228 C 0.73925 0.27417 0.7401 0.0
C229 C 0.72655 0.18777 0.70117 0.0
C230 C 0.79895 0.27621 0.83974 0.0
C231 C 0.82279 0.2263 0.76005 0.0
H232 H 0.68497 0.19806 0.6645 0.0
H233 H 0.6939 0.24741 0.68366 0.0
H234 H 0.74655 0.31323 0.79366 0.0
H235 H 0.77614 0.3117 0.84958 0.0
H236 H 0.84831 0.2725 0.86591 0.0
H237 H 0.86338 0.24763 0.82103 0.0
H238 H 0.80942 0.18188 0.71069 0.0
H239 H 0.75475 0.1587 0.68048 0.0
H240 H 0.81785 0.28694 0.65028 0.0
H241 H 0.8645 0.33547 0.74575 0.0
H242 H 0.73093 0.15524 0.823 0.0
H243 H 0.67793 0.19103 0.81541 0.0
C244 C 0.51642 0.71695 0.23237 0.0
C245 C 0.49025 0.69374 0.21773 0.0
C246 C 0.46795 0.69626 0.22771 0.0
C247 C 0.48161 0.72077 0.24782 0.0
N248 N 0.51136 0.73425 0.25111 0.0
Co249 Co 0.53941 0.77041 0.27914 0.0
N250 N 0.50643 0.77284 0.29606 0.0
C251 C 0.47732 0.75343 0.28987 0.0
C252 C 0.45973 0.76092 0.30407 0.0
C253 C 0.4787 0.78679 0.32 0.0
C254 C 0.5069 0.79371 0.31449 0.0
N255 N 0.56747 0.80714 0.30601 0.0
C256 C 0.5623 0.82508 0.32294 0.0
C257 C 0.58837 0.84917 0.33587 0.0
C258 C 0.61081 0.84663 0.32645 0.0
C259 C 0.59725 0.82127 0.30825 0.0
N260 N 0.57239 0.76752 0.26309 0.0
C261 C 0.60154 0.78581 0.27174 0.0
C262 C 0.61911 0.77797 0.25836 0.0
C263 C 0.60009 0.75291 0.24058 0.0
C264 C 0.57183 0.74677 0.24417 0.0
N265 N 0.53964 0.79102 0.23941 0.0
C266 C 0.54021 0.82826 0.19427 0.0
C267 C 0.56649 0.83166 0.20826 0.0
C268 C 0.5657 0.81255 0.2301 0.0
C269 C 0.51363 0.80482 0.20078 0.0
C270 C 0.51384 0.78648 0.22336 0.0
N271 N 0.53928 0.75004 0.31938 0.0
C272 C 0.56517 0.7456 0.3691 0.0
C273 C 0.54059 0.71969 0.3742 0.0
C274 C 0.51498 0.70971 0.35192 0.0
C275 C 0.51469 0.72524 0.32525 0.0
C276 C 0.56415 0.76008 0.34165 0.0
H277 H 0.49441 0.71648 0.30949 0.0
H278 H 0.58398 0.77922 0.33895 0.0
H279 H 0.58643 0.81621 0.24013 0.0
H280 H 0.4929 0.76941 0.22846 0.0
C281 C 0.46719 0.73017 0.267 0.0
C282 C 0.5453 0.72063 0.22962 0.0
C283 C 0.53327 0.82079 0.3262 0.0
C284 C 0.61171 0.81023 0.2924 0.0
H285 H 0.48746 0.67632 0.20232 0.0
H286 H 0.44451 0.68143 0.22211 0.0
H287 H 0.43589 0.74944 0.30183 0.0
H288 H 0.47251 0.79949 0.33339 0.0
H289 H 0.59089 0.86696 0.35011 0.0
H290 H 0.63422 0.86172 0.33164 0.0
H291 H 0.64294 0.78905 0.26145 0.0
H292 H 0.60628 0.74039 0.2268 0.0
H293 H 0.58753 0.8493 0.2029 0.0
H294 H 0.49283 0.80133 0.18972 0.0
H295 H 0.58537 0.7548 0.38605 0.0
H296 H 0.4953 0.68966 0.35432 0.0
C297 C 0.73588 0.54785 0.69226 0.0
C298 C 0.74026 0.57309 0.68369 0.0
C299 C 0.76504 0.5933 0.70322 0.0
C300 C 0.7745 0.57941 0.72253 0.0
N301 N 0.75739 0.55149 0.71635 0.0
Co302 Co 0.7631 0.52368 0.74006 0.0
N303 N 0.80064 0.55351 0.76736 0.0
C304 C 0.81354 0.58121 0.76583 0.0
C305 C 0.84003 0.59665 0.78561 0.0
C306 C 0.84465 0.57772 0.80024 0.0
C307 C 0.82062 0.55169 0.78855 0.0
N308 N 0.7683 0.49592 0.7646 0.0
C309 C 0.79064 0.49944 0.78717 0.0
C310 C 0.78523 0.47426 0.79751 0.0
C311 C 0.75881 0.45414 0.78073 0.0
C312 C 0.74955 0.46807 0.76116 0.0
N313 N 0.72632 0.49381 0.71178 0.0
C314 C 0.7138 0.46616 0.71302 0.0
C315 C 0.68874 0.45051 0.69098 0.0
C316 C 0.68499 0.46924 0.67448 0.0
C317 C 0.70816 0.49543 0.68736 0.0
N318 N 0.78698 0.52357 0.70404 0.0
C319 C 0.82588 0.52564 0.65839 0.0
C320 C 0.80454 0.50037 0.66989 0.0
C321 C 0.78532 0.4998 0.69262 0.0
C322 C 0.82627 0.54941 0.66851 0.0
C323 C 0.80678 0.54791 0.69101 0.0
N324 N 0.73908 0.52413 0.77609 0.0
C325 C 0.69437 0.50124 0.80459 0.0
C326 C 0.7002 0.52679 0.81804 0.0
C327 C 0.72666 0.55066 0.81226 0.0
C328 C 0.74578 0.54883 0.79187 0.0
C329 C 0.71402 0.50039 0.78376 0.0
H330 H 0.76551 0.56786 0.78874 0.0
H331 H 0.70814 0.48039 0.77355 0.0
H332 H 0.76974 0.4801 0.70123 0.0
H333 H 0.80865 0.56693 0.698 0.0
C334 C 0.80032 0.59199 0.74514 0.0
C335 C 0.71123 0.52108 0.67629 0.0
C336 C 0.81802 0.52592 0.79819 0.0
C337 C 0.72517 0.45554 0.73659 0.0
H338 H 0.72706 0.5766 0.66503 0.0
H339 H 0.7752 0.61551 0.70298 0.0
H340 H 0.85448 0.61901 0.78864 0.0
H341 H 0.86368 0.58249 0.81733 0.0
H342 H 0.79931 0.47072 0.81468 0.0
H343 H 0.74817 0.43193 0.78165 0.0
H344 H 0.67454 0.42812 0.68776 0.0
H345 H 0.66692 0.46413 0.65552 0.0
H346 H 0.80336 0.48137 0.6624 0.0
H347 H 0.84191 0.56931 0.65948 0.0
H348 H 0.6743 0.48213 0.80909 0.0
H349 H 0.73253 0.57081 0.82327 0.0
C350 C 0.30027 0.80447 0.33517 0.0
C351 C 0.29729 0.82559 0.34853 0.0
C352 C 0.27698 0.82645 0.32668 0.0
C353 C 0.26861 0.8059 0.30131 0.0
N354 N 0.28198 0.79174 0.30597 0.0
Co355 Co 0.27653 0.76109 0.27436 0.0
N356 N 0.24058 0.75656 0.24964 0.0
C357 C 0.23244 0.77511 0.25043 0.0
C358 C 0.20653 0.76628 0.23066 0.0
C359 C 0.19782 0.74055 0.21641 0.0
C360 C 0.21902 0.73516 0.22843 0.0
N361 N 0.27092 0.73045 0.24276 0.0
C362 C 0.24677 0.71126 0.22205 0.0
C363 C 0.2521 0.69313 0.20456 0.0
C364 C 0.28072 0.70152 0.21447 0.0
C365 C 0.29117 0.72414 0.23747 0.0
N366 N 0.31276 0.76587 0.2989 0.0
C367 C 0.3283 0.75541 0.2877 0.0
C368 C 0.35243 0.76214 0.30979 0.0
C369 C 0.35248 0.77828 0.3363 0.0
C370 C 0.32839 0.78067 0.32875 0.0
N371 N 0.25174 0.73338 0.30628 0.0
C372 C 0.21324 0.68967 0.3463 0.0
C373 C 0.23955 0.69282 0.33658 0.0
C374 C 0.25785 0.71411 0.31633 0.0
C375 C 0.20767 0.71012 0.33622 0.0
C376 C 0.22724 0.73181 0.31693 0.0
N377 N 0.30115 0.78836 0.24186 0.0
C378 C 0.34587 0.8307 0.22974 0.0
C379 C 0.33643 0.82609 0.19456 0.0
C380 C 0.30891 0.80208 0.18375 0.0
C381 C 0.29192 0.78349 0.2075 0.0
C382 C 0.32785 0.8119 0.25286 0.0
H383 H 0.27123 0.76507 0.19785 0.0
H384 H 0.33563 0.81655 0.27968 0.0
H385 H 0.27681 0.71456 0.3084 0.0
H386 H 0.22204 0.74693 0.30996 0.0
C387 C 0.24661 0.79793 0.27448 0.0
C388 C 0.32376 0.80024 0.34806 0.0
C389 C 0.21919 0.71062 0.217 0.0
C390 C 0.3177 0.73684 0.25854 0.0
H391 H 0.30927 0.83969 0.37104 0.0
H392 H 0.2692 0.84035 0.32908 0.0
H393 H 0.19475 0.77676 0.22802 0.0
H394 H 0.17819 0.72737 0.19902 0.0
H395 H 0.2369 0.67565 0.18658 0.0
H396 H 0.2921 0.6916 0.20688 0.0
H397 H 0.36792 0.75578 0.30718 0.0
H398 H 0.36891 0.78796 0.35819 0.0
H399 H 0.24644 0.67899 0.34423 0.0
H400 H 0.18805 0.70938 0.34238 0.0
H401 H 0.36676 0.84908 0.23949 0.0
H402 H 0.30061 0.79746 0.15688 0.0
C403 C 0.48309 0.28203 0.82112 0.0
C404 C 0.45717 0.28011 0.82792 0.0
C405 C 0.43479 0.2576 0.80818 0.0
C406 C 0.4482 0.24704 0.79042 0.0
N407 N 0.4778 0.26129 0.79777 0.0
Co408 Co 0.5056 0.25337 0.77589 0.0
N409 N 0.47256 0.21956 0.74782 0.0
C410 C 0.44344 0.20864 0.74953 0.0
C411 C 0.42566 0.18443 0.72929 0.0
C412 C 0.4445 0.17946 0.71378 0.0
C413 C 0.4729 0.20118 0.72509 0.0
N414 N 0.53348 0.24629 0.75271 0.0
C415 C 0.5284 0.22635 0.72816 0.0
C416 C 0.55462 0.23046 0.71832 0.0
C417 C 0.57692 0.25334 0.73751 0.0
C418 C 0.56323 0.26215 0.75768 0.0
N419 N 0.53859 0.28633 0.80519 0.0
C420 C 0.56757 0.29576 0.80589 0.0
C421 C 0.58528 0.31845 0.82857 0.0
C422 C 0.5665 0.32382 0.84348 0.0
C423 C 0.53825 0.304 0.82902 0.0
N424 N 0.50305 0.2292 0.8126 0.0
C425 C 0.49776 0.1931 0.86311 0.0
C426 C 0.52445 0.20962 0.84905 0.0
C427 C 0.52664 0.22751 0.82411 0.0
C428 C 0.4742 0.1957 0.85215 0.0
C429 C 0.47723 0.21349 0.82708 0.0
N430 N 0.50781 0.27766 0.73956 0.0
C431 C 0.53478 0.32169 0.71469 0.0
C432 C 0.50856 0.31807 0.69946 0.0
C433 C 0.48236 0.29274 0.70213 0.0
C434 C 0.48256 0.2729 0.72174 0.0
C435 C 0.53394 0.30125 0.73428 0.0
H436 H 0.46173 0.25437 0.72322 0.0
H437 H 0.55455 0.30539 0.74581 0.0
H438 H 0.54752 0.23957 0.81429 0.0
H439 H 0.45816 0.21397 0.81981 0.0
C440 C 0.43353 0.22256 0.76878 0.0
C441 C 0.51201 0.30336 0.8384 0.0
C442 C 0.49932 0.20334 0.71318 0.0
C443 C 0.57759 0.28418 0.78299 0.0
H444 H 0.45463 0.2934 0.84565 0.0
H445 H 0.41146 0.24957 0.80736 0.0
H446 H 0.40181 0.17198 0.72598 0.0
H447 H 0.43802 0.16182 0.69603 0.0
H448 H 0.55749 0.21822 0.69929 0.0
H449 H 0.60036 0.26234 0.73704 0.0
H450 H 0.60908 0.33009 0.83317 0.0
H451 H 0.57293 0.3407 0.8625 0.0
H452 H 0.5434 0.20836 0.85662 0.0
H453 H 0.45328 0.184 0.86284 0.0
H454 H 0.55583 0.34049 0.71228 0.0
H455 H 0.46141 0.28863 0.6907 0.0
H456 H 0.05152 0.48294 0.1026 0.0
H457 H 0.08509 0.51486 0.00606 0.0
H458 H 0.13137 0.51711 0.02507 0.0
H459 H 0.11883 0.52491 0.15569 0.0
H460 H 0.11198 0.49816 0.18381 0.0
H461 H 0.08153 0.49823 0.16191 0.0
H462 H 0.05993 0.44811 0.13577 0.0
H463 H 0.09026 0.44785 0.15773 0.0
H464 H 0.08252 0.44046 0.1119 0.0
H465 H 0.17546 0.51736 0.05695 0.0
H466 H 0.21128 0.51418 0.09682 0.0
H467 H 0.14795 0.4817 0.17175 0.0
C468 C 0.06843 0.49027 0.08515 0.0
C469 C 0.06443 0.4987 0.05261 0.0
C470 C 0.08738 0.50813 0.03092 0.0
C471 C 0.11382 0.50955 0.04164 0.0
C472 C 0.11704 0.50135 0.0741 0.0
C473 C 0.09475 0.49173 0.09538 0.0
C474 C 0.10344 0.48441 0.12918 0.0
C475 C 0.10398 0.50251 0.15942 0.0
C476 C 0.08281 0.45336 0.13391 0.0
C477 C 0.13425 0.49148 0.12392 0.0
C478 C 0.14182 0.50128 0.09202 0.0
C479 C 0.16953 0.50957 0.08181 0.0
C480 C 0.18977 0.50773 0.10459 0.0
C481 C 0.18233 0.49763 0.13724 0.0
C482 C 0.15415 0.48939 0.14688 0.0
H483 H 0.62276 0.07405 0.55142 0.0
H484 H 0.55828 0.03244 0.62398 0.0
H485 H 0.59511 0.06445 0.67117 0.0
H486 H 0.6892 0.09119 0.60927 0.0
H487 H 0.71132 0.12423 0.59184 0.0
H488 H 0.68153 0.09521 0.56513 0.0
H489 H 0.65909 0.1246 0.55087 0.0
H490 H 0.68851 0.15353 0.57778 0.0
H491 H 0.65076 0.14013 0.58533 0.0
H492 H 0.63665 0.10544 0.70876 0.0
H493 H 0.68032 0.15029 0.73378 0.0
H494 H 0.71689 0.16455 0.63625 0.0
C495 C 0.61658 0.07112 0.57735 0.0
C496 C 0.5877 0.0507 0.58407 0.0
C497 C 0.58039 0.04775 0.61831 0.0
C498 C 0.60115 0.06589 0.64524 0.0
C499 C 0.62911 0.08655 0.63746 0.0
C500 C 0.63694 0.08895 0.60435 0.0
C501 C 0.66739 0.1142 0.60206 0.0
C502 C 0.68861 0.10569 0.59146 0.0
C503 C 0.66635 0.13429 0.57757 0.0
C504 C 0.67516 0.12628 0.63881 0.0
C505 C 0.65298 0.10994 0.659 0.0
C506 C 0.65439 0.11804 0.69335 0.0
C507 C 0.67908 0.14346 0.7073 0.0
C508 C 0.70182 0.16026 0.68688 0.0
C509 C 0.69992 0.15156 0.65237 0.0
H510 H 0.54065 0.60817 0.09292 0.0
H511 H 0.57017 0.58032 0.17939 0.0
H512 H 0.56949 0.61449 0.21808 0.0
H513 H 0.58244 0.68057 0.1215 0.0
H514 H 0.55421 0.687 0.10734 0.0
H515 H 0.55581 0.65963 0.08571 0.0
H516 H 0.50164 0.6237 0.09678 0.0
H517 H 0.5001 0.6515 0.11735 0.0
H518 H 0.4914 0.62147 0.13991 0.0
H519 H 0.56709 0.65253 0.24826 0.0
H520 H 0.5622 0.69144 0.26742 0.0
H521 H 0.53394 0.69588 0.16306 0.0
C522 C 0.54672 0.60906 0.12001 0.0
C523 C 0.55588 0.59143 0.13267 0.0
C524 C 0.56371 0.59368 0.16849 0.0
C525 C 0.56319 0.61302 0.19094 0.0
C526 C 0.55464 0.63029 0.17765 0.0
C527 C 0.54636 0.62848 0.14306 0.0
C528 C 0.53851 0.65001 0.13573 0.0
C529 C 0.55896 0.67051 0.11111 0.0
C530 C 0.50598 0.63581 0.12157 0.0
C531 C 0.544 0.66428 0.17146 0.0
C532 C 0.55317 0.65238 0.19522 0.0
C533 C 0.55982 0.66191 0.22985 0.0
C534 C 0.55703 0.68407 0.24055 0.0
C535 C 0.54764 0.6967 0.21691 0.0
C536 C 0.54104 0.68657 0.1818 0.0
H537 H 0.89159 0.48691 0.50508 0.0
H538 H 0.97746 0.55601 0.54671 0.0
H539 H 0.95443 0.56759 0.59105 0.0
H540 H 0.84961 0.51958 0.52179 0.0
H541 H 0.81829 0.48778 0.53342 0.0
H542 H 0.84123 0.48667 0.50293 0.0
H543 H 0.84943 0.45433 0.54037 0.0
H544 H 0.82689 0.45566 0.57121 0.0
H545 H 0.86408 0.46542 0.58462 0.0
H546 H 0.92312 0.56987 0.63246 0.0
H547 H 0.88471 0.56389 0.66839 0.0
H548 H 0.81855 0.4926 0.60108 0.0
C549 C 0.9053 0.50489 0.52302 0.0
C550 C 0.9362 0.52083 0.5225 0.0
C551 C 0.95374 0.54372 0.54686 0.0
C552 C 0.94087 0.5504 0.57201 0.0
C553 C 0.91044 0.53385 0.57248 0.0
C554 C 0.89279 0.51164 0.54861 0.0
C555 C 0.86085 0.49633 0.55622 0.0
C556 C 0.84134 0.49768 0.52684 0.0
C557 C 0.84967 0.46615 0.56354 0.0
C558 C 0.86343 0.51329 0.58824 0.0
C559 C 0.89224 0.53489 0.59697 0.0
C560 C 0.90041 0.55324 0.62573 0.0
C561 C 0.87845 0.54969 0.64591 0.0
C562 C 0.84868 0.52794 0.63729 0.0
C563 C 0.84115 0.50934 0.60826 0.0
H564 H 0.47925 0.92434 0.095 0.0
H565 H 0.42655 0.94903 0.03704 0.0
H566 H 0.38366 0.91748 0.06802 0.0
H567 H 0.42248 0.85244 0.10143 0.0
H568 H 0.43488 0.85178 0.14503 0.0
H569 H 0.46084 0.87508 0.11715 0.0
H570 H 0.47671 0.91691 0.16043 0.0
H571 H 0.45121 0.89354 0.18869 0.0
H572 H 0.44911 0.92237 0.17521 0.0
H573 H 0.34588 0.88197 0.10483 0.0
H574 H 0.3176 0.84867 0.14687 0.0
H575 H 0.39571 0.84971 0.1848 0.0
C576 C 0.45854 0.92281 0.08844 0.0
C577 C 0.45617 0.93886 0.06293 0.0
C578 C 0.4289 0.93682 0.05606 0.0
C579 C 0.40441 0.91891 0.0736 0.0
C580 C 0.40753 0.90348 0.09863 0.0
C581 C 0.43406 0.90554 0.10634 0.0
C582 C 0.43211 0.88794 0.1357 0.0
C583 C 0.43792 0.86548 0.12412 0.0
C584 C 0.45355 0.90628 0.16686 0.0
C585 C 0.40016 0.87526 0.14303 0.0
C586 C 0.38634 0.88434 0.1211 0.0
C587 C 0.35662 0.87493 0.1222 0.0
C588 C 0.34066 0.8559 0.14617 0.0
C589 C 0.35429 0.84653 0.16938 0.0
C590 C 0.38462 0.85662 0.16774 0.0
H591 H 0.44473 0.38492 0.57253 0.0
H592 H 0.50704 0.46448 0.62806 0.0
H593 H 0.52575 0.4421 0.66557 0.0
H594 H 0.42826 0.34325 0.64601 0.0
H595 H 0.42594 0.31461 0.62203 0.0
H596 H 0.41671 0.33685 0.60067 0.0
H597 H 0.45492 0.34649 0.55767 0.0
H598 H 0.46452 0.32457 0.57916 0.0
H599 H 0.49269 0.35999 0.5736 0.0
H600 H 0.5382 0.4112 0.69633 0.0
H601 H 0.54215 0.37368 0.71986 0.0
H602 H 0.47303 0.31446 0.64267 0.0
C603 C 0.46185 0.3975 0.59305 0.0
C604 C 0.47435 0.42643 0.59751 0.0
C605 C 0.49725 0.44231 0.62416 0.0
C606 C 0.50799 0.42979 0.64557 0.0
C607 C 0.49564 0.40134 0.63999 0.0
C608 C 0.47298 0.38535 0.61453 0.0
C609 C 0.46408 0.3553 0.61344 0.0
C610 C 0.43184 0.33639 0.621 0.0
C611 C 0.46938 0.34606 0.57892 0.0
C612 C 0.48521 0.3569 0.64233 0.0
C613 C 0.50324 0.38363 0.65729 0.0
C614 C 0.52428 0.39018 0.68474 0.0
C615 C 0.52657 0.36873 0.69769 0.0
C616 C 0.50801 0.34101 0.68312 0.0
C617 C 0.48738 0.33529 0.65471 0.0
H618 H 0.53434 0.93338 0.45804 0.0
H619 H 0.52037 0.96923 0.36856 0.0
H620 H 0.5189 0.93305 0.33109 0.0
H621 H 0.58185 0.91508 0.42165 0.0
H622 H 0.56725 0.88285 0.44152 0.0
H623 H 0.56617 0.91096 0.46183 0.0
H624 H 0.50973 0.87875 0.46303 0.0
H625 H 0.51064 0.85052 0.44276 0.0
H626 H 0.48679 0.86077 0.42371 0.0
H627 H 0.51982 0.89339 0.30249 0.0
H628 H 0.5234 0.85324 0.28543 0.0
H629 H 0.5373 0.84234 0.39228 0.0
C630 C 0.53072 0.93345 0.43059 0.0
C631 C 0.52773 0.95454 0.41643 0.0
C632 C 0.52325 0.95381 0.38024 0.0
C633 C 0.52218 0.93314 0.35863 0.0
C634 C 0.52564 0.91301 0.37327 0.0
C635 C 0.52981 0.91292 0.40843 0.0
C636 C 0.53359 0.88912 0.4173 0.0
C637 C 0.56403 0.90017 0.43673 0.0
C638 C 0.50871 0.86857 0.43793 0.0
C639 C 0.53111 0.87607 0.38174 0.0
C640 C 0.52635 0.89015 0.35672 0.0
C641 C 0.52346 0.8822 0.32192 0.0
C642 C 0.52551 0.85937 0.3124 0.0
C643 C 0.53057 0.8447 0.33744 0.0
C644 C 0.53337 0.85319 0.3726 0.0
H645 H 0.6071 0.50504 0.97576 0.0
H646 H 0.58908 0.56539 0.9372 0.0
H647 H 0.61567 0.56864 0.88658 0.0
H648 H 0.67872 0.53397 0.95101 0.0
H649 H 0.67401 0.50107 0.93875 0.0
H650 H 0.65313 0.50334 0.97109 0.0
H651 H 0.60447 0.46517 0.93611 0.0
H652 H 0.62527 0.4628 0.90364 0.0
H653 H 0.59698 0.46978 0.8922 0.0
H654 H 0.64721 0.56737 0.84265 0.0
H655 H 0.67944 0.56048 0.80735 0.0
H656 H 0.67397 0.49878 0.8734 0.0
C657 C 0.60889 0.51908 0.95676 0.0
C658 C 0.59656 0.53537 0.96051 0.0
C659 C 0.59863 0.55294 0.93477 0.0
C660 C 0.61359 0.55483 0.90601 0.0
C661 C 0.62564 0.53852 0.9032 0.0
C662 C 0.6231 0.52074 0.92772 0.0
C663 C 0.63767 0.50521 0.91868 0.0
C664 C 0.66235 0.51128 0.94654 0.0
C665 C 0.61474 0.47389 0.91228 0.0
C666 C 0.64992 0.51782 0.88582 0.0
C667 C 0.64262 0.53689 0.87723 0.0
C668 C 0.65276 0.55227 0.84892 0.0
C669 C 0.6711 0.5483 0.82914 0.0
C670 C 0.67898 0.52902 0.83767 0.0
C671 C 0.66786 0.51331 0.86606 0.0
H672 H 0.07409 0.5982 0.45546 0.0
H673 H 0.09555 0.53504 0.4538 0.0
H674 H 0.13893 0.56527 0.42288 0.0
H675 H 0.0935 0.62072 0.37324 0.0
H676 H 0.10943 0.65704 0.38515 0.0
H677 H 0.08104 0.63123 0.40866 0.0
H678 H 0.11521 0.65313 0.46526 0.0
H679 H 0.1436 0.67924 0.44197 0.0
H680 H 0.15131 0.65814 0.46837 0.0
H681 H 0.17656 0.60046 0.38564 0.0
H682 H 0.20898 0.63902 0.35292 0.0
H683 H 0.167 0.68251 0.38412 0.0
C684 C 0.08824 0.59091 0.4492 0.0
C685 C 0.08135 0.56414 0.45743 0.0
C686 C 0.10043 0.55548 0.4484 0.0
C687 C 0.12504 0.57248 0.43049 0.0
C688 C 0.13077 0.59845 0.42216 0.0
C689 C 0.11326 0.60788 0.43191 0.0
C690 C 0.12432 0.63669 0.41993 0.0
C691 C 0.10066 0.63638 0.39529 0.0
C692 C 0.1342 0.65807 0.45072 0.0
C693 C 0.15048 0.64184 0.40133 0.0
C694 C 0.15358 0.61939 0.40264 0.0
C695 C 0.17483 0.61848 0.38543 0.0
C696 C 0.19363 0.64108 0.36696 0.0
C697 C 0.19205 0.66521 0.36604 0.0
C698 C 0.16968 0.66508 0.38371 0.0
H699 H 0.54406 0.13129 0.0181 0.0
H700 H 0.45696 0.05674 0.99831 0.0
H701 H 0.44361 0.0793 0.95435 0.0
H702 H 0.52159 0.18185 1.00382 0.0
H703 H 0.55407 0.20459 0.98313 0.0
H704 H 0.55557 0.18374 0.01576 0.0
H705 H 0.57484 0.16278 0.97326 0.0
H706 H 0.57314 0.18342 0.94053 0.0
H707 H 0.55368 0.14626 0.93254 0.0
H708 H 0.44148 0.10757 0.90897 0.0
H709 H 0.44923 0.14112 0.8667 0.0
H710 H 0.53761 0.19846 0.91612 0.0
C711 C 0.52189 0.12014 0.00528 0.0
C712 C 0.50133 0.0924 0.01174 0.0
C713 C 0.47286 0.07804 0.9937 0.0
C714 C 0.46514 0.09067 0.96876 0.0
C715 C 0.48618 0.11772 0.96219 0.0
C716 C 0.51388 0.13245 0.98009 0.0
C717 C 0.5329 0.16061 0.96635 0.0
C718 C 0.54154 0.18409 0.99391 0.0
C719 C 0.56026 0.16342 0.95236 0.0
C720 C 0.51167 0.15918 0.93767 0.0
C721 C 0.48486 0.13425 0.93585 0.0
C722 C 0.46216 0.12742 0.91055 0.0
C723 C 0.46677 0.14672 0.88671 0.0
C724 C 0.49386 0.17272 0.88832 0.0
C725 C 0.51664 0.17885 0.91413 0.0
H726 H 0.46011 0.52805 0.38363 0.0
H727 H 0.4097 0.45626 0.44099 0.0
H728 H 0.36407 0.44466 0.40588 0.0
H729 H 0.40758 0.54738 0.37401 0.0
H730 H 0.41426 0.55734 0.33085 0.0
H731 H 0.44321 0.55958 0.35945 0.0
H732 H 0.44905 0.52832 0.31585 0.0
H733 H 0.42035 0.52624 0.28692 0.0
H734 H 0.41732 0.49494 0.30008 0.0
H735 H 0.32288 0.44354 0.36786 0.0
H736 H 0.29073 0.44951 0.32566 0.0
H737 H 0.36784 0.51934 0.28899 0.0
C738 C 0.43955 0.5096 0.38849 0.0
C739 C 0.43873 0.49302 0.41522 0.0
C740 C 0.41118 0.46918 0.42062 0.0
C741 C 0.38502 0.46252 0.40088 0.0
C742 C 0.38657 0.47961 0.37528 0.0
C743 C 0.41324 0.50237 0.36859 0.0
C744 C 0.40886 0.51724 0.33941 0.0
C745 C 0.41909 0.54716 0.35167 0.0
C746 C 0.42484 0.51664 0.30874 0.0
C747 C 0.37555 0.4995 0.33096 0.0
C748 C 0.36308 0.4781 0.35227 0.0
C749 C 0.33255 0.45992 0.35066 0.0
C750 C 0.31441 0.46344 0.32653 0.0
C751 C 0.32658 0.48463 0.30355 0.0
C752 C 0.35772 0.50285 0.30599 0.0
H753 H 0.90779 0.42139 0.94327 0.0
H754 H 0.89173 0.37941 0.0371 0.0
H755 H 0.85583 0.33481 1.00383 0.0
H756 H 0.83421 0.38085 0.90148 0.0
H757 H 0.84641 0.38118 0.85978 0.0
H758 H 0.86917 0.40968 0.89152 0.0
H759 H 0.91262 0.40287 0.88548 0.0
H760 H 0.89002 0.37438 0.85372 0.0
H761 H 0.90732 0.36938 0.89133 0.0
H762 H 0.82261 0.29423 0.9587 0.0
H763 H 0.79571 0.26224 0.90633 0.0
H764 H 0.83696 0.33178 0.84362 0.0
C765 C 0.89702 0.40292 0.95703 0.0
C766 C 0.90284 0.40398 0.99287 0.0
C767 C 0.88751 0.37921 0.00971 0.0
C768 C 0.86718 0.35376 0.99099 0.0
C769 C 0.86248 0.35352 0.95553 0.0
C770 C 0.87705 0.37755 0.93885 0.0
C771 C 0.86912 0.37198 0.90056 0.0
C772 C 0.85382 0.38681 0.88759 0.0
C773 C 0.89639 0.38013 0.88168 0.0
C774 C 0.84793 0.34097 0.8981 0.0
C775 C 0.84407 0.33055 0.92997 0.0
C776 C 0.8254 0.30224 0.93368 0.0
C777 C 0.81026 0.28426 0.904 0.0
C778 C 0.81409 0.29483 0.87138 0.0
C779 C 0.83339 0.32341 0.86848 0.0
H780 H 0.90519 0.51394 0.96443 0.0
H781 H 0.97236 0.52359 0.90096 0.0
H782 H 0.94492 0.52828 0.85081 0.0
H783 H 0.84319 0.47311 0.90215 0.0
H784 H 0.82367 0.48889 0.91546 0.0
H785 H 0.849 0.48698 0.9459 0.0
H786 H 0.87765 0.5402 0.9597 0.0
H787 H 0.85242 0.5423 0.92929 0.0
H788 H 0.89145 0.56276 0.9254 0.0
H789 H 0.90875 0.53182 0.80695 0.0
H790 H 0.86795 0.53269 0.7746 0.0
H791 H 0.82464 0.52002 0.86721 0.0
C792 C 0.91437 0.51713 0.94007 0.0
C793 C 0.94123 0.51848 0.93692 0.0
C794 C 0.95202 0.52256 0.90429 0.0
C795 C 0.9365 0.52524 0.87561 0.0
C796 C 0.91009 0.52378 0.87979 0.0
C797 C 0.89918 0.51976 0.91134 0.0
C798 C 0.87022 0.51854 0.90938 0.0
C799 C 0.84504 0.49019 0.91877 0.0
C800 C 0.87312 0.54237 0.9323 0.0
C801 C 0.86625 0.52239 0.87172 0.0
C802 C 0.88952 0.52552 0.855 0.0
C803 C 0.89055 0.52939 0.81999 0.0
C804 C 0.86732 0.52991 0.80177 0.0
C805 C 0.8432 0.52647 0.81838 0.0
C806 C 0.84283 0.52275 0.85387 0.0
H807 H 0.40233 0.91259 0.50952 0.0
H808 H 0.46662 0.96439 0.44135 0.0
H809 H 0.4455 0.92499 0.39781 0.0
H810 H 0.3944 0.84579 0.48229 0.0
H811 H 0.35501 0.82594 0.4836 0.0
H812 H 0.37788 0.85678 0.51211 0.0
H813 H 0.3474 0.87706 0.48943 0.0
H814 H 0.32441 0.84624 0.46106 0.0
H815 H 0.343 0.87977 0.44403 0.0
H816 H 0.41577 0.88234 0.35996 0.0
H817 H 0.37602 0.83942 0.32736 0.0
H818 H 0.32795 0.81438 0.41711 0.0
C819 C 0.41217 0.91525 0.48566 0.0
C820 C 0.43684 0.9411 0.47913 0.0
C821 C 0.44852 0.94438 0.44722 0.0
C822 C 0.43657 0.92216 0.42229 0.0
C823 C 0.41234 0.89687 0.4293 0.0
C824 C 0.39989 0.89326 0.45992 0.0
C825 C 0.37179 0.86473 0.45893 0.0
C826 C 0.37497 0.84728 0.48584 0.0
C827 C 0.34508 0.86711 0.46364 0.0
C828 C 0.3702 0.85329 0.42282 0.0
C829 C 0.39419 0.87209 0.40655 0.0
C830 C 0.39706 0.86724 0.3725 0.0
C831 C 0.37446 0.8428 0.35422 0.0
C832 C 0.34929 0.82353 0.36996 0.0
C833 C 0.34736 0.82858 0.40487 0.0
H834 H 0.51338 0.43043 0.93873 0.0
H835 H 0.53578 0.4039 0.03216 0.0
H836 H 0.53448 0.36625 0.99878 0.0
H837 H 0.4637 0.36233 0.89643 0.0
H838 H 0.47542 0.37186 0.85441 0.0
H839 H 0.47828 0.39741 0.88527 0.0
H840 H 0.53418 0.42931 0.87907 0.0
H841 H 0.53114 0.40392 0.84776 0.0
H842 H 0.55745 0.41565 0.8851 0.0
H843 H 0.53033 0.33056 0.9559 0.0
H844 H 0.52454 0.3001 0.90573 0.0
H845 H 0.50554 0.34867 0.83875 0.0
C846 C 0.51819 0.41686 0.95223 0.0
C847 C 0.52427 0.42033 0.98859 0.0
C848 C 0.53037 0.40176 0.00475 0.0
C849 C 0.52991 0.38021 0.98586 0.0
C850 C 0.52347 0.37717 0.95043 0.0
C851 C 0.51787 0.39504 0.93361 0.0
C852 C 0.51162 0.38693 0.89511 0.0
C853 C 0.4804 0.37917 0.88204 0.0
C854 C 0.53499 0.41035 0.87561 0.0
C855 C 0.51427 0.36163 0.89311 0.0
C856 C 0.52122 0.35651 0.92544 0.0
C857 C 0.52491 0.33441 0.93048 0.0
C858 C 0.52155 0.31717 0.90186 0.0
C859 C 0.51452 0.32189 0.86841 0.0
C860 C 0.51078 0.34447 0.86406 0.0
H861 H 0.07794 0.4851 0.41249 0.0
H862 H 1.00485 0.4045 0.36932 0.0
H863 H 0.03869 0.39944 0.33495 0.0
H864 H 0.11456 0.50685 0.33759 0.0
H865 H 0.15095 0.52407 0.36017 0.0
H866 H 0.12082 0.52093 0.3813 0.0
H867 H 0.13159 0.49706 0.43013 0.0
H868 H 0.16163 0.49996 0.40901 0.0
H869 H 0.13241 0.46652 0.41986 0.0
H870 H 0.08041 0.40413 0.30397 0.0
H871 H 0.12646 0.41793 0.27878 0.0
H872 H 0.17254 0.49398 0.34594 0.0
C873 C 0.06894 0.46611 0.39636 0.0
C874 C 0.03862 0.44511 0.39384 0.0
C875 C 0.02788 0.42098 0.37152 0.0
C876 C 0.04698 0.41785 0.35206 0.0
C877 C 0.07673 0.43895 0.35537 0.0
C878 C 0.08763 0.46256 0.37705 0.0
C879 C 0.12038 0.4824 0.37571 0.0
C880 C 0.12706 0.5102 0.36292 0.0
C881 C 0.13751 0.48672 0.41076 0.0
C882 C 0.12625 0.46633 0.34966 0.0
C883 C 0.1008 0.44135 0.33819 0.0
C884 C 0.10055 0.42346 0.3131 0.0
C885 C 0.12696 0.43142 0.29916 0.0
C886 C 0.15338 0.45699 0.31051 0.0
C887 C 0.15285 0.47442 0.33641 0.0
H888 H 0.59279 0.10513 0.96976 0.0
H889 H 0.57134 0.02345 0.9332 0.0
H890 H 0.60307 0.04433 0.88588 0.0
H891 H 0.59433 0.13148 0.88596 0.0
H892 H 0.62444 0.16605 0.90062 0.0
H893 H 0.59915 0.1442 0.93005 0.0
H894 H 0.64256 0.15075 0.97061 0.0
H895 H 0.66813 0.17247 0.94138 0.0
H896 H 0.66758 0.14225 0.9545 0.0
H897 H 0.64147 0.07607 0.84497 0.0
H898 H 0.67831 0.11372 0.81268 0.0
H899 H 0.6728 0.17408 0.87576 0.0
C900 C 0.59442 0.09145 0.95163 0.0
C901 C 0.57946 0.06251 0.95536 0.0
C902 C 0.58227 0.04555 0.93085 0.0
C903 C 0.60044 0.05734 0.90399 0.0
C904 C 0.6154 0.0861 0.90166 0.0
C905 C 0.61213 0.10279 0.92469 0.0
C906 C 0.63064 0.1331 0.91725 0.0
C907 C 0.61096 0.14437 0.90787 0.0
C908 C 0.65358 0.15066 0.94775 0.0
C909 C 0.64531 0.13115 0.8866 0.0
C910 C 0.63643 0.10392 0.878 0.0
C911 C 0.6482 0.09733 0.85144 0.0
C912 C 0.66931 0.11893 0.83331 0.0
C913 C 0.67849 0.14698 0.84142 0.0
C914 C 0.66603 0.15291 0.86844 0.0
H915 H 0.47498 0.59751 0.49879 0.0
H916 H 0.56216 0.6108 0.51408 0.0
H917 H 0.58203 0.65293 0.48247 0.0
H918 H 0.47832 0.61421 0.41572 0.0
H919 H 0.45865 0.6316 0.41791 0.0
H920 H 0.45194 0.60532 0.44655 0.0
H921 H 0.46475 0.63991 0.49899 0.0
H922 H 0.471 0.66627 0.47047 0.0
H923 H 0.49944 0.67281 0.50346 0.0
H924 H 0.59057 0.68844 0.44185 0.0
H925 H 0.58834 0.71731 0.39822 0.0
H926 H 0.49602 0.68298 0.4118 0.0
C927 C 0.49844 0.60992 0.4967 0.0
C928 C 0.51713 0.60106 0.50904 0.0
C929 C 0.54755 0.61731 0.50475 0.0
C930 C 0.55901 0.64126 0.48695 0.0
C931 C 0.53977 0.6488 0.47388 0.0
C932 C 0.51021 0.63388 0.47895 0.0
C933 C 0.49381 0.64504 0.45968 0.0
C934 C 0.46925 0.62271 0.43342 0.0
C935 C 0.48153 0.65671 0.48465 0.0
C936 C 0.51859 0.66795 0.44212 0.0
C937 C 0.54491 0.66985 0.45082 0.0
C938 C 0.5703 0.68776 0.4356 0.0
C939 C 0.5688 0.70424 0.41089 0.0
C940 C 0.54211 0.70292 0.40169 0.0
C941 C 0.5168 0.68462 0.41797 0.0
H942 H 0.51764 0.08866 0.60937 0.0
H943 H 0.47084 0.09816 0.52165 0.0
H944 H 0.46695 0.13241 0.55588 0.0
H945 H 0.47432 0.09453 0.67317 0.0
H946 H 0.50524 0.11379 0.70533 0.0
H947 H 0.50488 0.0898 0.67408 0.0
H948 H 0.55489 0.12903 0.65635 0.0
H949 H 0.55534 0.15316 0.68745 0.0
H950 H 0.55855 0.16057 0.64309 0.0
H951 H 0.46878 0.16692 0.59855 0.0
H952 H 0.47456 0.19781 0.6481 0.0
H953 H 0.51788 0.16594 0.71057 0.0
C954 C 0.5064 0.09777 0.59739 0.0
C955 C 0.495 0.09063 0.56218 0.0
C956 C 0.48052 0.10338 0.54796 0.0
C957 C 0.47795 0.12291 0.5674 0.0
C958 C 0.48972 0.12974 0.60155 0.0
C959 C 0.50349 0.11748 0.61666 0.0
C960 C 0.51397 0.12872 0.65415 0.0
C961 C 0.49869 0.10531 0.6781 0.0
C962 C 0.54769 0.14376 0.66063 0.0
C963 C 0.50395 0.14911 0.65753 0.0
C964 C 0.49012 0.14936 0.62669 0.0
C965 C 0.4794 0.16673 0.62288 0.0
C966 C 0.48273 0.18422 0.65121 0.0
C967 C 0.49648 0.18431 0.68334 0.0
C968 C 0.50723 0.16639 0.68639 0.0
H969 H 0.46984 0.5232 0.09855 0.0
H970 H 0.43528 0.49631 0.99207 0.0
H971 H 0.39333 0.50147 1.00241 0.0
H972 H 0.40449 0.48873 0.13451 0.0
H973 H 0.41427 0.51587 0.16728 0.0
H974 H 0.44261 0.51297 0.15001 0.0
H975 H 0.46841 0.5639 0.13366 0.0
H976 H 0.44005 0.56693 0.15108 0.0
H977 H 0.44779 0.57443 0.10741 0.0
H978 H 0.3519 0.50311 0.02736 0.0
H979 H 0.31595 0.50302 0.06354 0.0
H980 H 0.38013 0.5315 0.15249 0.0
C981 C 0.45357 0.51866 0.07731 0.0
C982 C 0.45531 0.50902 0.04466 0.0
C983 C 0.43406 0.50367 0.01728 0.0
C984 C 0.41033 0.50663 0.02295 0.0
C985 C 0.40892 0.51568 0.05584 0.0
C986 C 0.43032 0.52205 0.08237 0.0
C987 C 0.42336 0.53012 0.1157 0.0
C988 C 0.42103 0.51076 0.14348 0.0
C989 C 0.44626 0.56066 0.12766 0.0
C990 C 0.39379 0.52586 0.10437 0.0
C991 C 0.38589 0.51782 0.0697 0.0
C992 C 0.35817 0.51003 0.0543 0.0
C993 C 0.33789 0.50995 0.075 0.0
C994 C 0.34554 0.51768 0.11061 0.0
C995 C 0.37407 0.52635 0.12516 0.0
H996 H 0.93736 0.38924 0.53505 0.0
H997 H 0.98156 0.46751 0.59713 0.0
H998 H 0.95373 0.44298 0.64569 0.0
H999 H 0.86721 0.36015 0.56462 0.0
H1000 H 0.85932 0.32528 0.56454 0.0
H1001 H 0.88374 0.34864 0.5355 0.0
H1002 H 0.92475 0.34103 0.5592 0.0
H1003 H 0.90033 0.31734 0.58803 0.0
H1004 H 0.93587 0.34677 0.60462 0.0
H1005 H 0.91659 0.40982 0.68553 0.0
H1006 H 0.87892 0.37167 0.71522 0.0
H1007 H 0.86181 0.31379 0.6288 0.0
C1008 C 0.94161 0.40124 0.55905 0.0
C1009 C 0.9619 0.43046 0.56218 0.0
C1010 C 0.96656 0.4452 0.59408 0.0
C1011 C 0.95061 0.43139 0.62175 0.0
C1012 C 0.93031 0.40267 0.61744 0.0
C1013 C 0.92625 0.38771 0.58702 0.0
C1014 C 0.90316 0.35704 0.58884 0.0
C1015 C 0.8768 0.34721 0.56177 0.0
C1016 C 0.91685 0.33951 0.58495 0.0
C1017 C 0.89439 0.35699 0.62487 0.0
C1018 C 0.91014 0.38355 0.64082 0.0
C1019 C 0.90475 0.38889 0.67347 0.0
C1020 C 0.88322 0.3667 0.6904 0.0
C1021 C 0.86722 0.33888 0.6753 0.0
C1022 C 0.87314 0.33437 0.64171 0.0
H1023 H 0.57307 0.97931 0.16284 0.0
H1024 H 0.55328 0.95303 0.05457 0.0
H1025 H 0.54036 0.90592 0.06732 0.0
H1026 H 0.60815 0.94204 0.18284 0.0
H1027 H 0.59434 0.93308 0.2241 0.0
H1028 H 0.59993 0.96416 0.20673 0.0
H1029 H 0.54523 0.94743 0.21275 0.0
H1030 H 0.53996 0.91657 0.23054 0.0
H1031 H 0.51643 0.91369 0.19362 0.0
H1032 H 0.52935 0.86196 0.09148 0.0
H1033 H 0.52568 0.82464 0.12572 0.0
H1034 H 0.55598 0.87996 0.21807 0.0
C1035 C 0.566 0.96349 0.14207 0.0
C1036 C 0.56387 0.96936 0.1078 0.0
C1037 C 0.55477 0.9485 0.08095 0.0
C1038 C 0.54733 0.92181 0.08796 0.0
C1039 C 0.54949 0.91646 0.122 0.0
C1040 C 0.55894 0.93672 0.14866 0.0
C1041 C 0.56095 0.92576 0.18274 0.0
C1042 C 0.59273 0.94224 0.20011 0.0
C1043 C 0.53935 0.92588 0.2063 0.0
C1044 C 0.5515 0.89641 0.17092 0.0
C1045 C 0.54447 0.89134 0.13585 0.0
C1046 C 0.53488 0.86565 0.11896 0.0
C1047 C 0.53281 0.84463 0.13845 0.0
C1048 C 0.54073 0.84975 0.17417 0.0
C1049 C 0.54999 0.87582 0.19064 0.0
H1050 H 0.5777 0.53524 0.60228 0.0
H1051 H 0.57912 0.50027 0.50328 0.0
H1052 H 0.62165 0.4979 0.52719 0.0
H1053 H 0.65588 0.57681 0.62637 0.0
H1054 H 0.65238 0.56973 0.67081 0.0
H1055 H 0.62315 0.56952 0.64528 0.0
H1056 H 0.586 0.51958 0.6608 0.0
H1057 H 0.61508 0.51959 0.68635 0.0
H1058 H 0.59326 0.49269 0.65243 0.0
H1059 H 0.66475 0.49935 0.56366 0.0
H1060 H 0.70205 0.50315 0.60823 0.0
H1061 H 0.67045 0.53566 0.68317 0.0
C1062 C 0.58701 0.52732 0.58526 0.0
C1063 C 0.57505 0.51824 0.55054 0.0
C1064 C 0.58788 0.50758 0.52976 0.0
C1065 C 0.61206 0.50615 0.54322 0.0
C1066 C 0.62311 0.5152 0.57766 0.0
C1067 C 0.61077 0.52547 0.59833 0.0
C1068 C 0.62568 0.53299 0.63476 0.0
C1069 C 0.64013 0.56411 0.64489 0.0
C1070 C 0.6037 0.51515 0.66007 0.0
C1071 C 0.6487 0.52568 0.63157 0.0
C1072 C 0.64698 0.51547 0.59845 0.0
C1073 C 0.66611 0.50731 0.58956 0.0
C1074 C 0.68727 0.50955 0.61501 0.0
C1075 C 0.68922 0.51976 0.64912 0.0
C1076 C 0.66961 0.52793 0.6573 0.0
H1077 H 0.05533 0.59028 0.14536 0.0
H1078 H 0.08256 0.61055 0.04333 0.0
H1079 H 0.13256 0.64684 0.06828 0.0
H1080 H 0.09905 0.66169 0.18487 0.0
H1081 H 0.1077 0.65153 0.22476 0.0
H1082 H 0.07365 0.62791 0.19878 0.0
H1083 H 0.08729 0.59071 0.19818 0.0
H1084 H 0.12159 0.61439 0.22367 0.0
H1085 H 0.12165 0.59884 0.18303 0.0
H1086 H 0.1798 0.67946 0.10367 0.0
H1087 H 0.22101 0.70917 0.14818 0.0
H1088 H 0.16367 0.66845 0.22748 0.0
C1089 C 0.07166 0.60275 0.12834 0.0
C1090 C 0.06511 0.59754 0.09238 0.0
C1091 C 0.08723 0.614 0.07092 0.0
C1092 C 0.11565 0.63467 0.08484 0.0
C1093 C 0.12163 0.63874 0.12032 0.0
C1094 C 0.10025 0.62353 0.14186 0.0
C1095 C 0.11274 0.63197 0.17913 0.0
C1096 C 0.09737 0.644 0.19799 0.0
C1097 C 0.11069 0.60752 0.19704 0.0
C1098 C 0.14446 0.65417 0.17507 0.0
C1099 C 0.14908 0.65764 0.14088 0.0
C1100 C 0.17651 0.67693 0.13052 0.0
C1101 C 0.19977 0.6935 0.15583 0.0
C1102 C 0.19539 0.6905 0.19091 0.0
C1103 C 0.16748 0.6706 0.20069 0.0
loop_
_geom_bond_atom_site_label_1
_geom_bond_atom_site_label_2
_geom_bond_distance
_geom_bond_site_symmetry_2
_ccdc_geom_bond_type
Cu0 N1 1.999 1_454 S
Cu0 O6 1.974 1_454 S
Cu0 N11 1.985 . S
Cu0 O20 1.959 . S
N1 Cu0 1.999 1_656 S
N1 C3 1.263 . S
N1 C5 1.389 1_556 S
N2 C3 1.358 . S
N2 C4 1.400 . S
C3 N1 1.263 . S
C3 N2 1.358 . S
C3 H9 0.930 . S
C4 N2 1.400 . S
C4 C5 1.351 1_556 S
C4 H21 0.930 . S
C5 N1 1.389 1_554 S
C5 C4 1.351 1_554 S
C5 H10 0.930 . S
O6 Cu0 1.974 1_656 S
O6 C16 1.282 . S
C7 O8 1.259 . S
C7 O20 1.251 . S
O8 C7 1.259 . S
H9 C3 0.930 . S
H10 C5 0.930 . S
N11 Cu0 1.985 . S
N11 C13 1.335 . S
N11 C14 1.390 . S
N12 C13 1.345 . S
N12 C15 1.336 . S
C13 N11 1.335 . S
C13 N12 1.345 . S
C13 H18 0.930 . S
C14 N11 1.390 . S
C14 C15 1.346 . S
C14 H19 0.930 1_554 S
C15 N12 1.336 . S
C15 C14 1.346 . S
C15 H22 0.929 . S
C16 O6 1.282 . S
C16 O17 1.216 1_655 S
O17 C16 1.216 1_455 S
H18 C13 0.930 . S
H19 C14 0.930 1_556 S
O20 Cu0 1.959 . S
O20 C7 1.251 . S
H21 C4 0.930 . S
H22 C15 0.929 . S
Cu23 N24 1.999 . S
Cu23 O29 1.974 . S
Cu23 N34 1.985 1_565 S
Cu23 O43 1.959 1_565 S
N24 Cu23 1.999 . S
N24 C26 1.263 . S
N24 C28 1.389 . S
N25 C26 1.358 . S
N25 C27 1.400 . S
C26 N24 1.263 . S
C26 N25 1.358 . S
C26 H32 0.930 . S
C27 N25 1.400 . S
C27 C28 1.351 . S
C27 H44 0.930 . S
C28 N24 1.389 . S
C28 C27 1.351 . S
C28 H33 0.930 . S
O29 Cu23 1.974 . S
O29 C39 1.282 . S
C30 O31 1.261 . S
C30 O43 1.251 . S
O31 C30 1.261 . S
H32 C26 0.930 . S
H33 C28 0.930 . S
N34 Cu23 1.985 1_545 S
N34 C36 1.335 . S
N34 C37 1.390 . S
N35 C36 1.345 . S
N35 C38 1.336 . S
C36 N34 1.335 . S
C36 N35 1.345 . S
C36 H41 0.930 . S
C37 N34 1.390 . S
C37 C38 1.346 . S
C37 H42 0.930 . S
C38 N35 1.336 . S
C38 C37 1.346 . S
C38 H45 0.929 . S
C39 O29 1.282 . S
C39 O40 1.216 . S
O40 C39 1.216 . S
H41 C36 0.930 . S
H42 C37 0.930 . S
O43 Cu23 1.959 1_545 S
O43 C30 1.251 . S
H44 C27 0.930 . S
H45 C38 0.929 . S
Cu46 N47 1.999 1_554 S
Cu46 O52 1.974 1_554 S
Cu46 N57 1.985 . S
Cu46 O66 1.959 . S
N47 Cu46 1.999 1_556 S
N47 C49 1.263 . S
N47 C51 1.389 . S
N48 C49 1.358 . S
N48 C50 1.400 . S
C49 N47 1.263 . S
C49 N48 1.358 . S
C49 H55 0.930 . S
C50 N48 1.400 . S
C50 C51 1.351 . S
C50 H67 0.930 . S
C51 N47 1.389 . S
C51 C50 1.351 . S
C51 H56 0.930 . S
O52 Cu46 1.974 1_556 S
O52 C62 1.282 . S
C53 O54 1.261 . S
C53 O66 1.251 . S
O54 C53 1.261 . S
H55 C49 0.930 . S
H56 C51 0.930 . S
N57 Cu46 1.985 . S
N57 C59 1.335 . S
N57 C60 1.390 . S
N58 C59 1.345 . S
N58 C61 1.336 . S
C59 N57 1.335 . S
C59 N58 1.345 . S
C59 H64 0.930 . S
C60 N57 1.390 . S
C60 C61 1.346 . S
C60 H65 0.930 . S
C61 N58 1.336 . S
C61 C60 1.346 . S
C61 H68 0.929 . S
C62 O52 1.282 . S
C62 O63 1.216 1_556 S
O63 C62 1.216 1_554 S
H64 C59 0.930 . S
H65 C60 0.930 . S
O66 Cu46 1.959 . S
O66 C53 1.251 . S
H67 C50 0.930 . S
H68 C61 0.929 . S
Cu69 N70 1.999 1_655 S
Cu69 O75 1.974 1_655 S
Cu69 N80 1.985 . S
Cu69 O89 1.959 . S
N70 Cu69 1.999 1_455 S
N70 C72 1.263 . S
N70 C74 1.389 1_455 S
N71 C72 1.358 . S
N71 C73 1.400 . S
C72 N70 1.263 . S
C72 N71 1.358 . S
C72 H78 0.930 . S
C73 N71 1.400 . S
C73 C74 1.351 1_455 S
C73 H90 0.930 . S
C74 N70 1.389 1_655 S
C74 C73 1.351 1_655 S
C74 H79 0.930 . S
O75 Cu69 1.974 1_455 S
O75 C85 1.282 . S
C76 O77 1.261 1_655 S
C76 O89 1.251 . S
O77 C76 1.261 1_455 S
H78 C72 0.930 . S
H79 C74 0.930 . S
N80 Cu69 1.985 . S
N80 C82 1.335 . S
N80 C83 1.390 . S
N81 C82 1.345 . S
N81 C84 1.336 . S
C82 N80 1.335 . S
C82 N81 1.345 . S
C82 H87 0.930 . S
C83 N80 1.390 . S
C83 C84 1.346 . S
C83 H88 0.930 1_655 S
C84 N81 1.336 . S
C84 C83 1.346 . S
C84 H91 0.929 . S
C85 O75 1.282 . S
C85 O86 1.216 . S
O86 C85 1.216 . S
H87 C82 0.930 . S
H88 C83 0.930 1_455 S
O89 Cu69 1.959 . S
O89 C76 1.251 . S
H90 C73 0.930 . S
H91 C84 0.929 . S
Cu92 N93 1.999 . S
Cu92 O98 1.974 1_554 S
Cu92 N103 1.985 1_545 S
Cu92 O112 1.959 1_545 S
N93 Cu92 1.999 . S
N93 C95 1.263 1_554 S
N93 C97 1.389 . S
N94 C95 1.358 . S
N94 C96 1.400 1_556 S
C95 N93 1.263 1_556 S
C95 N94 1.358 . S
C95 H101 0.930 . S
C96 N94 1.400 1_554 S
C96 C97 1.351 . S
C96 H113 0.930 . S
C97 N93 1.389 . S
C97 C96 1.351 . S
C97 H102 0.930 . S
O98 Cu92 1.974 1_556 S
O98 C108 1.282 . S
C99 O100 1.261 . S
C99 O112 1.251 . S
O100 C99 1.261 . S
H101 C95 0.930 . S
H102 C97 0.930 . S
N103 Cu92 1.985 1_565 S
N103 C105 1.335 . S
N103 C106 1.390 . S
N104 C105 1.345 . S
N104 C107 1.336 . S
C105 N103 1.335 . S
C105 N104 1.345 . S
C105 H110 0.930 . S
C106 N103 1.390 . S
C106 C107 1.346 . S
C106 H111 0.930 . S
C107 N104 1.336 . S
C107 C106 1.346 . S
C107 H114 0.929 . S
C108 O98 1.282 . S
C108 O109 1.216 . S
O109 C108 1.216 . S
H110 C105 0.930 . S
H111 C106 0.930 . S
O112 Cu92 1.959 1_565 S
O112 C99 1.251 . S
H113 C96 0.930 . S
H114 C107 0.929 . S
Cu115 N116 1.999 . S
Cu115 O121 1.974 . S
Cu115 N126 1.985 . S
Cu115 O135 1.959 . S
N116 Cu115 1.999 . S
N116 C118 1.263 . S
N116 C120 1.389 . S
N117 C118 1.358 . S
N117 C119 1.400 . S
C118 N116 1.263 . S
C118 N117 1.358 . S
C118 H124 0.930 . S
C119 N117 1.400 . S
C119 C120 1.351 . S
C119 H136 0.930 . S
C120 N116 1.389 . S
C120 C119 1.351 . S
C120 H125 0.930 . S
O121 Cu115 1.974 . S
O121 C131 1.282 . S
C122 O123 1.261 . S
C122 O135 1.251 . S
O123 C122 1.261 . S
H124 C118 0.930 . S
H125 C120 0.930 . S
N126 Cu115 1.985 . S
N126 C128 1.335 . S
N126 C129 1.390 . S
N127 C128 1.345 . S
N127 C130 1.336 . S
C128 N126 1.335 . S
C128 N127 1.345 . S
C128 H133 0.930 . S
C129 N126 1.390 . S
C129 C130 1.346 . S
C129 H134 0.930 . S
C130 N127 1.336 . S
C130 C129 1.346 . S
C130 H137 0.929 . S
C131 O121 1.282 . S
C131 O132 1.216 . S
O132 C131 1.216 . S
H133 C128 0.930 . S
H134 C129 0.930 . S
O135 Cu115 1.959 . S
O135 C122 1.251 . S
H136 C119 0.930 . S
H137 C130 0.929 . S
C138 C139 1.443 . S
C138 N142 1.376 . S
C138 C176 1.389 . S
C139 C138 1.443 . S
C139 C140 1.340 . S
C139 H179 0.951 . S
C140 C139 1.340 . S
C140 C141 1.439 . S
C140 H180 0.950 . S
C141 C140 1.439 . S
C141 N142 1.374 . S
C141 C175 1.395 . S
N142 C138 1.376 . S
N142 C141 1.374 . S
N142 Co143 2.008 . S
Co143 N142 2.008 . S
Co143 N144 1.995 . S
Co143 N149 2.008 . S
Co143 N154 1.995 . S
Co143 N159 2.282 . S
Co143 N165 2.282 . S
N144 Co143 1.995 . S
N144 C145 1.376 . S
N144 C148 1.383 . S
C145 N144 1.376 . S
C145 C146 1.446 . S
C145 C175 1.391 . S
C146 C145 1.446 . S
C146 C147 1.339 . S
C146 H181 0.949 . S
C147 C146 1.339 . S
C147 C148 1.439 . S
C147 H182 0.950 . S
C148 N144 1.383 . S
C148 C147 1.439 . S
C148 C177 1.392 . S
N149 Co143 2.008 . S
N149 C150 1.376 . S
N149 C153 1.374 . S
C150 N149 1.376 . S
C150 C151 1.443 . S
C150 C177 1.389 . S
C151 C150 1.443 . S
C151 C152 1.340 . S
C151 H183 0.951 . S
C152 C151 1.340 . S
C152 C153 1.439 . S
C152 H184 0.950 . S
C153 N149 1.374 . S
C153 C152 1.439 . S
C153 C178 1.395 . S
N154 Co143 1.995 . S
N154 C155 1.376 . S
N154 C158 1.383 . S
C155 N154 1.376 . S
C155 C156 1.446 . S
C155 C178 1.391 . S
C156 C155 1.446 . S
C156 C157 1.339 . S
C156 H185 0.949 . S
C157 C156 1.339 . S
C157 C158 1.439 . S
C157 H186 0.950 . S
C158 N154 1.383 . S
C158 C157 1.439 . S
C158 C176 1.392 . S
N159 Co143 2.282 . S
N159 C162 1.332 . S
N159 C164 1.332 . S
C160 C161 1.386 . S
C160 C163 1.388 . S
C161 C160 1.386 . S
C161 C162 1.382 . S
C161 H187 0.950 . S
C162 N159 1.332 . S
C162 C161 1.382 . S
C162 H173 0.952 . S
C163 C160 1.388 . S
C163 C164 1.382 . S
C163 H188 0.950 . S
C164 N159 1.332 . S
C164 C163 1.382 . S
C164 H174 0.948 . S
N165 Co143 2.282 . S
N165 C169 1.332 . S
N165 C170 1.332 . S
C166 C167 1.388 . S
C166 C170 1.382 . S
C166 H189 0.950 . S
C167 C166 1.388 . S
C167 C168 1.386 . S
C168 C167 1.386 . S
C168 C169 1.382 . S
C168 H190 0.950 . S
C169 N165 1.332 . S
C169 C168 1.382 . S
C169 H171 0.952 . S
C170 N165 1.332 . S
C170 C166 1.382 . S
C170 H172 0.948 . S
H171 C169 0.952 . S
H172 C170 0.948 . S
H173 C162 0.952 . S
H174 C164 0.948 . S
C175 C141 1.395 . S
C175 C145 1.391 . S
C176 C138 1.389 . S
C176 C158 1.392 . S
C177 C148 1.392 . S
C177 C150 1.389 . S
C178 C153 1.395 . S
C178 C155 1.391 . S
H179 C139 0.951 . S
H180 C140 0.950 . S
H181 C146 0.949 . S
H182 C147 0.950 . S
H183 C151 0.951 . S
H184 C152 0.950 . S
H185 C156 0.949 . S
H186 C157 0.950 . S
H187 C161 0.950 . S
H188 C163 0.950 . S
H189 C166 0.950 . S
H190 C168 0.950 . S
C191 C192 1.443 . S
C191 N195 1.376 . S
C191 C229 1.389 . S
C192 C191 1.443 . S
C192 C193 1.340 . S
C192 H232 0.951 . S
C193 C192 1.340 . S
C193 C194 1.439 . S
C193 H233 0.950 . S
C194 C193 1.439 . S
C194 N195 1.374 . S
C194 C228 1.395 . S
N195 C191 1.376 . S
N195 C194 1.374 . S
N195 Co196 2.008 . S
Co196 N195 2.008 . S
Co196 N197 1.995 . S
Co196 N202 2.008 . S
Co196 N207 1.995 . S
Co196 N212 2.282 . S
Co196 N218 2.282 . S
N197 Co196 1.995 . S
N197 C198 1.376 . S
N197 C201 1.383 . S
C198 N197 1.376 . S
C198 C199 1.446 . S
C198 C228 1.391 . S
C199 C198 1.446 . S
C199 C200 1.339 . S
C199 H234 0.949 . S
C200 C199 1.339 . S
C200 C201 1.439 . S
C200 H235 0.950 . S
C201 N197 1.383 . S
C201 C200 1.439 . S
C201 C230 1.392 . S
N202 Co196 2.008 . S
N202 C203 1.376 . S
N202 C206 1.374 . S
C203 N202 1.376 . S
C203 C204 1.443 . S
C203 C230 1.389 . S
C204 C203 1.443 . S
C204 C205 1.340 . S
C204 H236 0.951 . S
C205 C204 1.340 . S
C205 C206 1.439 . S
C205 H237 0.950 . S
C206 N202 1.374 . S
C206 C205 1.439 . S
C206 C231 1.395 . S
N207 Co196 1.995 . S
N207 C208 1.376 . S
N207 C211 1.383 . S
C208 N207 1.376 . S
C208 C209 1.446 . S
C208 C231 1.391 . S
C209 C208 1.446 . S
C209 C210 1.339 . S
C209 H238 0.949 . S
C210 C209 1.339 . S
C210 C211 1.439 . S
C210 H239 0.950 . S
C211 N207 1.383 . S
C211 C210 1.439 . S
C211 C229 1.392 . S
N212 Co196 2.282 . S
N212 C215 1.332 . S
N212 C217 1.332 . S
C213 C214 1.386 . S
C213 C216 1.388 . S
C214 C213 1.386 . S
C214 C215 1.382 . S
C214 H240 0.950 . S
C215 N212 1.332 . S
C215 C214 1.382 . S
C215 H226 0.952 . S
C216 C213 1.388 . S
C216 C217 1.382 . S
C216 H241 0.950 . S
C217 N212 1.332 . S
C217 C216 1.382 . S
C217 H227 0.948 . S
N218 Co196 2.282 . S
N218 C222 1.332 . S
N218 C223 1.332 . S
C219 C220 1.388 . S
C219 C223 1.382 . S
C219 H242 0.950 . S
C220 C219 1.388 . S
C220 C221 1.386 . S
C221 C220 1.386 . S
C221 C222 1.382 . S
C221 H243 0.950 . S
C222 N218 1.332 . S
C222 C221 1.382 . S
C222 H224 0.952 . S
C223 N218 1.332 . S
C223 C219 1.382 . S
C223 H225 0.948 . S
H224 C222 0.952 . S
H225 C223 0.948 . S
H226 C215 0.952 . S
H227 C217 0.948 . S
C228 C194 1.395 . S
C228 C198 1.391 . S
C229 C191 1.389 . S
C229 C211 1.392 . S
C230 C201 1.392 . S
C230 C203 1.389 . S
C231 C206 1.395 . S
C231 C208 1.391 . S
H232 C192 0.951 . S
H233 C193 0.950 . S
H234 C199 0.949 . S
H235 C200 0.950 . S
H236 C204 0.951 . S
H237 C205 0.950 . S
H238 C209 0.949 . S
H239 C210 0.950 . S
H240 C214 0.950 . S
H241 C216 0.950 . S
H242 C219 0.950 . S
H243 C221 0.950 . S
C244 C245 1.443 . S
C244 N248 1.376 . S
C244 C282 1.389 . S
C245 C244 1.443 . S
C245 C246 1.340 . S
C245 H285 0.951 . S
C246 C245 1.340 . S
C246 C247 1.439 . S
C246 H286 0.950 . S
C247 C246 1.439 . S
C247 N248 1.374 . S
C247 C281 1.395 . S
N248 C244 1.376 . S
N248 C247 1.374 . S
N248 Co249 2.008 . S
Co249 N248 2.008 . S
Co249 N250 1.995 . S
Co249 N255 2.008 . S
Co249 N260 1.995 . S
Co249 N265 2.282 . S
Co249 N271 2.282 . S
N250 Co249 1.995 . S
N250 C251 1.376 . S
N250 C254 1.383 . S
C251 N250 1.376 . S
C251 C252 1.446 . S
C251 C281 1.391 . S
C252 C251 1.446 . S
C252 C253 1.339 . S
C252 H287 0.949 . S
C253 C252 1.339 . S
C253 C254 1.439 . S
C253 H288 0.950 . S
C254 N250 1.383 . S
C254 C253 1.439 . S
C254 C283 1.392 . S
N255 Co249 2.008 . S
N255 C256 1.376 . S
N255 C259 1.374 . S
C256 N255 1.376 . S
C256 C257 1.443 . S
C256 C283 1.389 . S
C257 C256 1.443 . S
C257 C258 1.340 . S
C257 H289 0.951 . S
C258 C257 1.340 . S
C258 C259 1.439 . S
C258 H290 0.950 . S
C259 N255 1.374 . S
C259 C258 1.439 . S
C259 C284 1.395 . S
N260 Co249 1.995 . S
N260 C261 1.376 . S
N260 C264 1.383 . S
C261 N260 1.376 . S
C261 C262 1.446 . S
C261 C284 1.391 . S
C262 C261 1.446 . S
C262 C263 1.339 . S
C262 H291 0.949 . S
C263 C262 1.339 . S
C263 C264 1.439 . S
C263 H292 0.950 . S
C264 N260 1.383 . S
C264 C263 1.439 . S
C264 C282 1.392 . S
N265 Co249 2.282 . S
N265 C268 1.332 . S
N265 C270 1.332 . S
C266 C267 1.386 . S
C266 C269 1.388 . S
C267 C266 1.386 . S
C267 C268 1.382 . S
C267 H293 0.950 . S
C268 N265 1.332 . S
C268 C267 1.382 . S
C268 H279 0.952 . S
C269 C266 1.388 . S
C269 C270 1.382 . S
C269 H294 0.950 . S
C270 N265 1.332 . S
C270 C269 1.382 . S
C270 H280 0.948 . S
N271 Co249 2.282 . S
N271 C275 1.332 . S
N271 C276 1.332 . S
C272 C273 1.388 . S
C272 C276 1.382 . S
C272 H295 0.950 . S
C273 C272 1.388 . S
C273 C274 1.386 . S
C274 C273 1.386 . S
C274 C275 1.382 . S
C274 H296 0.950 . S
C275 N271 1.332 . S
C275 C274 1.382 . S
C275 H277 0.952 . S
C276 N271 1.332 . S
C276 C272 1.382 . S
C276 H278 0.948 . S
H277 C275 0.952 . S
H278 C276 0.948 . S
H279 C268 0.952 . S
H280 C270 0.948 . S
C281 C247 1.395 . S
C281 C251 1.391 . S
C282 C244 1.389 . S
C282 C264 1.392 . S
C283 C254 1.392 . S
C283 C256 1.389 . S
C284 C259 1.395 . S
C284 C261 1.391 . S
H285 C245 0.951 . S
H286 C246 0.950 . S
H287 C252 0.949 . S
H288 C253 0.950 . S
H289 C257 0.951 . S
H290 C258 0.950 . S
H291 C262 0.949 . S
H292 C263 0.950 . S
H293 C267 0.950 . S
H294 C269 0.950 . S
H295 C272 0.950 . S
H296 C274 0.950 . S
C297 C298 1.443 . S
C297 N301 1.376 . S
C297 C335 1.389 . S
C298 C297 1.443 . S
C298 C299 1.340 . S
C298 H338 0.951 . S
C299 C298 1.340 . S
C299 C300 1.439 . S
C299 H339 0.950 . S
C300 C299 1.439 . S
C300 N301 1.374 . S
C300 C334 1.395 . S
N301 C297 1.376 . S
N301 C300 1.374 . S
N301 Co302 2.008 . S
Co302 N301 2.008 . S
Co302 N303 1.995 . S
Co302 N308 2.008 . S
Co302 N313 1.995 . S
Co302 N318 2.282 . S
Co302 N324 2.282 . S
N303 Co302 1.995 . S
N303 C304 1.376 . S
N303 C307 1.383 . S
C304 N303 1.376 . S
C304 C305 1.446 . S
C304 C334 1.391 . S
C305 C304 1.446 . S
C305 C306 1.339 . S
C305 H340 0.949 . S
C306 C305 1.339 . S
C306 C307 1.439 . S
C306 H341 0.950 . S
C307 N303 1.383 . S
C307 C306 1.439 . S
C307 C336 1.392 . S
N308 Co302 2.008 . S
N308 C309 1.376 . S
N308 C312 1.374 . S
C309 N308 1.376 . S
C309 C310 1.443 . S
C309 C336 1.389 . S
C310 C309 1.443 . S
C310 C311 1.340 . S
C310 H342 0.951 . S
C311 C310 1.340 . S
C311 C312 1.439 . S
C311 H343 0.950 . S
C312 N308 1.374 . S
C312 C311 1.439 . S
C312 C337 1.395 . S
N313 Co302 1.995 . S
N313 C314 1.376 . S
N313 C317 1.383 . S
C314 N313 1.376 . S
C314 C315 1.446 . S
C314 C337 1.391 . S
C315 C314 1.446 . S
C315 C316 1.339 . S
C315 H344 0.949 . S
C316 C315 1.339 . S
C316 C317 1.439 . S
C316 H345 0.950 . S
C317 N313 1.383 . S
C317 C316 1.439 . S
C317 C335 1.392 . S
N318 Co302 2.282 . S
N318 C321 1.332 . S
N318 C323 1.332 . S
C319 C320 1.386 . S
C319 C322 1.388 . S
C320 C319 1.386 . S
C320 C321 1.382 . S
C320 H346 0.950 . S
C321 N318 1.332 . S
C321 C320 1.382 . S
C321 H332 0.952 . S
C322 C319 1.388 . S
C322 C323 1.382 . S
C322 H347 0.950 . S
C323 N318 1.332 . S
C323 C322 1.382 . S
C323 H333 0.948 . S
N324 Co302 2.282 . S
N324 C328 1.332 . S
N324 C329 1.332 . S
C325 C326 1.388 . S
C325 C329 1.382 . S
C325 H348 0.950 . S
C326 C325 1.388 . S
C326 C327 1.386 . S
C327 C326 1.386 . S
C327 C328 1.382 . S
C327 H349 0.950 . S
C328 N324 1.332 . S
C328 C327 1.382 . S
C328 H330 0.952 . S
C329 N324 1.332 . S
C329 C325 1.382 . S
C329 H331 0.948 . S
H330 C328 0.952 . S
H331 C329 0.948 . S
H332 C321 0.952 . S
H333 C323 0.948 . S
C334 C300 1.395 . S
C334 C304 1.391 . S
C335 C297 1.389 . S
C335 C317 1.392 . S
C336 C307 1.392 . S
C336 C309 1.389 . S
C337 C312 1.395 . S
C337 C314 1.391 . S
H338 C298 0.951 . S
H339 C299 0.950 . S
H340 C305 0.949 . S
H341 C306 0.950 . S
H342 C310 0.951 . S
H343 C311 0.950 . S
H344 C315 0.949 . S
H345 C316 0.950 . S
H346 C320 0.950 . S
H347 C322 0.950 . S
H348 C325 0.950 . S
H349 C327 0.950 . S
C350 C351 1.443 . S
C350 N354 1.376 . S
C350 C388 1.389 . S
C351 C350 1.443 . S
C351 C352 1.340 . S
C351 H391 0.951 . S
C352 C351 1.340 . S
C352 C353 1.439 . S
C352 H392 0.950 . S
C353 C352 1.439 . S
C353 N354 1.374 . S
C353 C387 1.395 . S
N354 C350 1.376 . S
N354 C353 1.374 . S
N354 Co355 2.008 . S
Co355 N354 2.008 . S
Co355 N356 1.995 . S
Co355 N361 2.008 . S
Co355 N366 1.995 . S
Co355 N371 2.282 . S
Co355 N377 2.282 . S
N356 Co355 1.995 . S
N356 C357 1.376 . S
N356 C360 1.383 . S
C357 N356 1.376 . S
C357 C358 1.446 . S
C357 C387 1.391 . S
C358 C357 1.446 . S
C358 C359 1.339 . S
C358 H393 0.949 . S
C359 C358 1.339 . S
C359 C360 1.439 . S
C359 H394 0.950 . S
C360 N356 1.383 . S
C360 C359 1.439 . S
C360 C389 1.392 . S
N361 Co355 2.008 . S
N361 C362 1.376 . S
N361 C365 1.374 . S
C362 N361 1.376 . S
C362 C363 1.443 . S
C362 C389 1.389 . S
C363 C362 1.443 . S
C363 C364 1.340 . S
C363 H395 0.951 . S
C364 C363 1.340 . S
C364 C365 1.439 . S
C364 H396 0.950 . S
C365 N361 1.374 . S
C365 C364 1.439 . S
C365 C390 1.395 . S
N366 Co355 1.995 . S
N366 C367 1.376 . S
N366 C370 1.383 . S
C367 N366 1.376 . S
C367 C368 1.446 . S
C367 C390 1.391 . S
C368 C367 1.446 . S
C368 C369 1.339 . S
C368 H397 0.949 . S
C369 C368 1.339 . S
C369 C370 1.439 . S
C369 H398 0.950 . S
C370 N366 1.383 . S
C370 C369 1.439 . S
C370 C388 1.392 . S
N371 Co355 2.282 . S
N371 C374 1.332 . S
N371 C376 1.332 . S
C372 C373 1.386 . S
C372 C375 1.388 . S
C373 C372 1.386 . S
C373 C374 1.382 . S
C373 H399 0.950 . S
C374 N371 1.332 . S
C374 C373 1.382 . S
C374 H385 0.952 . S
C375 C372 1.388 . S
C375 C376 1.382 . S
C375 H400 0.950 . S
C376 N371 1.332 . S
C376 C375 1.382 . S
C376 H386 0.948 . S
N377 Co355 2.282 . S
N377 C381 1.332 . S
N377 C382 1.332 . S
C378 C379 1.388 . S
C378 C382 1.382 . S
C378 H401 0.950 . S
C379 C378 1.388 . S
C379 C380 1.386 . S
C380 C379 1.386 . S
C380 C381 1.382 . S
C380 H402 0.950 . S
C381 N377 1.332 . S
C381 C380 1.382 . S
C381 H383 0.952 . S
C382 N377 1.332 . S
C382 C378 1.382 . S
C382 H384 0.948 . S
H383 C381 0.952 . S
H384 C382 0.948 . S
H385 C374 0.952 . S
H386 C376 0.948 . S
C387 C353 1.395 . S
C387 C357 1.391 . S
C388 C350 1.389 . S
C388 C370 1.392 . S
C389 C360 1.392 . S
C389 C362 1.389 . S
C390 C365 1.395 . S
C390 C367 1.391 . S
H391 C351 0.951 . S
H392 C352 0.950 . S
H393 C358 0.949 . S
H394 C359 0.950 . S
H395 C363 0.951 . S
H396 C364 0.950 . S
H397 C368 0.949 . S
H398 C369 0.950 . S
H399 C373 0.950 . S
H400 C375 0.950 . S
H401 C378 0.950 . S
H402 C380 0.950 . S
C403 C404 1.443 . S
C403 N407 1.376 . S
C403 C441 1.389 . S
C404 C403 1.443 . S
C404 C405 1.340 . S
C404 H444 0.951 . S
C405 C404 1.340 . S
C405 C406 1.439 . S
C405 H445 0.950 . S
C406 C405 1.439 . S
C406 N407 1.374 . S
C406 C440 1.395 . S
N407 C403 1.376 . S
N407 C406 1.374 . S
N407 Co408 2.008 . S
Co408 N407 2.008 . S
Co408 N409 1.995 . S
Co408 N414 2.008 . S
Co408 N419 1.995 . S
Co408 N424 2.282 . S
Co408 N430 2.282 . S
N409 Co408 1.995 . S
N409 C410 1.376 . S
N409 C413 1.383 . S
C410 N409 1.376 . S
C410 C411 1.446 . S
C410 C440 1.391 . S
C411 C410 1.446 . S
C411 C412 1.339 . S
C411 H446 0.949 . S
C412 C411 1.339 . S
C412 C413 1.439 . S
C412 H447 0.950 . S
C413 N409 1.383 . S
C413 C412 1.439 . S
C413 C442 1.392 . S
N414 Co408 2.008 . S
N414 C415 1.376 . S
N414 C418 1.374 . S
C415 N414 1.376 . S
C415 C416 1.443 . S
C415 C442 1.389 . S
C416 C415 1.443 . S
C416 C417 1.340 . S
C416 H448 0.951 . S
C417 C416 1.340 . S
C417 C418 1.439 . S
C417 H449 0.950 . S
C418 N414 1.374 . S
C418 C417 1.439 . S
C418 C443 1.395 . S
N419 Co408 1.995 . S
N419 C420 1.376 . S
N419 C423 1.383 . S
C420 N419 1.376 . S
C420 C421 1.446 . S
C420 C443 1.391 . S
C421 C420 1.446 . S
C421 C422 1.339 . S
C421 H450 0.949 . S
C422 C421 1.339 . S
C422 C423 1.439 . S
C422 H451 0.950 . S
C423 N419 1.383 . S
C423 C422 1.439 . S
C423 C441 1.392 . S
N424 Co408 2.282 . S
N424 C427 1.332 . S
N424 C429 1.332 . S
C425 C426 1.386 . S
C425 C428 1.388 . S
C426 C425 1.386 . S
C426 C427 1.382 . S
C426 H452 0.950 . S
C427 N424 1.332 . S
C427 C426 1.382 . S
C427 H438 0.952 . S
C428 C425 1.388 . S
C428 C429 1.382 . S
C428 H453 0.950 . S
C429 N424 1.332 . S
C429 C428 1.382 . S
C429 H439 0.948 . S
N430 Co408 2.282 . S
N430 C434 1.332 . S
N430 C435 1.332 . S
C431 C432 1.388 . S
C431 C435 1.382 . S
C431 H454 0.950 . S
C432 C431 1.388 . S
C432 C433 1.386 . S
C433 C432 1.386 . S
C433 C434 1.382 . S
C433 H455 0.950 . S
C434 N430 1.332 . S
C434 C433 1.382 . S
C434 H436 0.952 . S
C435 N430 1.332 . S
C435 C431 1.382 . S
C435 H437 0.948 . S
H436 C434 0.952 . S
H437 C435 0.948 . S
H438 C427 0.952 . S
H439 C429 0.948 . S
C440 C406 1.395 . S
C440 C410 1.391 . S
C441 C403 1.389 . S
C441 C423 1.392 . S
C442 C413 1.392 . S
C442 C415 1.389 . S
C443 C418 1.395 . S
C443 C420 1.391 . S
H444 C404 0.951 . S
H445 C405 0.950 . S
H446 C411 0.949 . S
H447 C412 0.950 . S
H448 C416 0.951 . S
H449 C417 0.950 . S
H450 C421 0.949 . S
H451 C422 0.950 . S
H452 C426 0.950 . S
H453 C428 0.950 . S
H454 C431 0.950 . S
H455 C433 0.950 . S
H456 C468 0.930 . S
H457 C470 0.930 . S
H458 C471 0.930 . S
H459 C475 0.959 . S
H460 C475 0.959 . S
H461 C475 0.961 . S
H462 C476 0.960 . S
H463 C476 0.961 . S
H464 C476 0.959 . S
H465 C479 0.929 . S
H466 C480 0.931 . S
H467 C482 0.930 . S
C468 H456 0.930 . S
C468 C469 1.399 . S
C468 C473 1.399 . S
C469 C468 1.399 . S
C469 C470 1.376 . S
C470 H457 0.930 . S
C470 C469 1.376 . S
C470 C471 1.388 . S
C471 H458 0.930 . S
C471 C470 1.388 . S
C471 C472 1.390 . S
C472 C471 1.390 . S
C472 C473 1.394 . S
C472 C478 1.465 . S
C473 C468 1.399 . S
C473 C472 1.394 . S
C473 C474 1.516 . S
C474 C473 1.516 . S
C474 C475 1.502 . S
C474 C476 1.561 . S
C474 C477 1.526 . S
C475 H459 0.959 . S
C475 H460 0.959 . S
C475 H461 0.961 . S
C475 C474 1.502 . S
C476 H462 0.960 . S
C476 H463 0.961 . S
C476 H464 0.959 . S
C476 C474 1.561 . S
C477 C474 1.526 . S
C477 C478 1.396 . S
C477 C482 1.390 . S
C478 C472 1.465 . S
C478 C477 1.396 . S
C478 C479 1.399 . S
C479 H465 0.929 . S
C479 C478 1.399 . S
C479 C480 1.385 . S
C480 H466 0.931 . S
C480 C479 1.385 . S
C480 C481 1.389 . S
C481 C480 1.389 . S
C481 C482 1.387 . S
C482 H467 0.930 . S
C482 C477 1.390 . S
C482 C481 1.387 . S
H483 C495 0.930 . S
H484 C497 0.930 . S
H485 C498 0.930 . S
H486 C502 0.959 . S
H487 C502 0.959 . S
H488 C502 0.961 . S
H489 C503 0.960 . S
H490 C503 0.961 . S
H491 C503 0.959 . S
H492 C506 0.929 . S
H493 C507 0.931 . S
H494 C509 0.930 . S
C495 H483 0.930 . S
C495 C496 1.399 . S
C495 C500 1.399 . S
C496 C495 1.399 . S
C496 C497 1.376 . S
C497 H484 0.930 . S
C497 C496 1.376 . S
C497 C498 1.388 . S
C498 H485 0.930 . S
C498 C497 1.388 . S
C498 C499 1.390 . S
C499 C498 1.390 . S
C499 C500 1.394 . S
C499 C505 1.465 . S
C500 C495 1.399 . S
C500 C499 1.394 . S
C500 C501 1.516 . S
C501 C500 1.516 . S
C501 C502 1.502 . S
C501 C503 1.561 . S
C501 C504 1.526 . S
C502 H486 0.959 . S
C502 H487 0.959 . S
C502 H488 0.961 . S
C502 C501 1.502 . S
C503 H489 0.960 . S
C503 H490 0.961 . S
C503 H491 0.959 . S
C503 C501 1.561 . S
C504 C501 1.526 . S
C504 C505 1.396 . S
C504 C509 1.390 . S
C505 C499 1.465 . S
C505 C504 1.396 . S
C505 C506 1.399 . S
C506 H492 0.929 . S
C506 C505 1.399 . S
C506 C507 1.385 . S
C507 H493 0.931 . S
C507 C506 1.385 . S
C507 C508 1.389 . S
C508 C507 1.389 . S
C508 C509 1.387 . S
C509 H494 0.930 . S
C509 C504 1.390 . S
C509 C508 1.387 . S
H510 C522 0.930 . S
H511 C524 0.930 . S
H512 C525 0.930 . S
H513 C529 0.959 . S
H514 C529 0.959 . S
H515 C529 0.961 . S
H516 C530 0.960 . S
H517 C530 0.961 . S
H518 C530 0.959 . S
H519 C533 0.929 . S
H520 C534 0.931 . S
H521 C536 0.930 . S
C522 H510 0.930 . S
C522 C523 1.399 . S
C522 C527 1.399 . S
C523 C522 1.399 . S
C523 C524 1.376 . S
C524 H511 0.930 . S
C524 C523 1.376 . S
C524 C525 1.388 . S
C525 H512 0.930 . S
C525 C524 1.388 . S
C525 C526 1.390 . S
C526 C525 1.390 . S
C526 C527 1.394 . S
C526 C532 1.465 . S
C527 C522 1.399 . S
C527 C526 1.394 . S
C527 C528 1.516 . S
C528 C527 1.516 . S
C528 C529 1.502 . S
C528 C530 1.561 . S
C528 C531 1.526 . S
C529 H513 0.959 . S
C529 H514 0.959 . S
C529 H515 0.961 . S
C529 C528 1.502 . S
C530 H516 0.960 . S
C530 H517 0.961 . S
C530 H518 0.959 . S
C530 C528 1.561 . S
C531 C528 1.526 . S
C531 C532 1.396 . S
C531 C536 1.390 . S
C532 C526 1.465 . S
C532 C531 1.396 . S
C532 C533 1.399 . S
C533 H519 0.929 . S
C533 C532 1.399 . S
C533 C534 1.385 . S
C534 H520 0.931 . S
C534 C533 1.385 . S
C534 C535 1.389 . S
C535 C534 1.389 . S
C535 C536 1.387 . S
C536 H521 0.930 . S
C536 C531 1.390 . S
C536 C535 1.387 . S
H537 C549 0.930 . S
H538 C551 0.930 . S
H539 C552 0.930 . S
H540 C556 0.959 . S
H541 C556 0.959 . S
H542 C556 0.961 . S
H543 C557 0.960 . S
H544 C557 0.961 . S
H545 C557 0.959 . S
H546 C560 0.929 . S
H547 C561 0.931 . S
H548 C563 0.930 . S
C549 H537 0.930 . S
C549 C550 1.399 . S
C549 C554 1.399 . S
C550 C549 1.399 . S
C550 C551 1.376 . S
C551 H538 0.930 . S
C551 C550 1.376 . S
C551 C552 1.388 . S
C552 H539 0.930 . S
C552 C551 1.388 . S
C552 C553 1.390 . S
C553 C552 1.390 . S
C553 C554 1.394 . S
C553 C559 1.465 . S
C554 C549 1.399 . S
C554 C553 1.394 . S
C554 C555 1.516 . S
C555 C554 1.516 . S
C555 C556 1.502 . S
C555 C557 1.561 . S
C555 C558 1.526 . S
C556 H540 0.959 . S
C556 H541 0.959 . S
C556 H542 0.961 . S
C556 C555 1.502 . S
C557 H543 0.960 . S
C557 H544 0.961 . S
C557 H545 0.959 . S
C557 C555 1.561 . S
C558 C555 1.526 . S
C558 C559 1.396 . S
C558 C563 1.390 . S
C559 C553 1.465 . S
C559 C558 1.396 . S
C559 C560 1.399 . S
C560 H546 0.929 . S
C560 C559 1.399 . S
C560 C561 1.385 . S
C561 H547 0.931 . S
C561 C560 1.385 . S
C561 C562 1.389 . S
C562 C561 1.389 . S
C562 C563 1.387 . S
C563 H548 0.930 . S
C563 C558 1.390 . S
C563 C562 1.387 . S
H564 C576 0.930 . S
H565 C578 0.930 . S
H566 C579 0.930 . S
H567 C583 0.959 . S
H568 C583 0.959 . S
H569 C583 0.961 . S
H570 C584 0.960 . S
H571 C584 0.961 . S
H572 C584 0.959 . S
H573 C587 0.929 . S
H574 C588 0.931 . S
H575 C590 0.930 . S
C576 H564 0.930 . S
C576 C577 1.399 . S
C576 C581 1.399 . S
C577 C576 1.399 . S
C577 C578 1.376 . S
C578 H565 0.930 . S
C578 C577 1.376 . S
C578 C579 1.388 . S
C579 H566 0.930 . S
C579 C578 1.388 . S
C579 C580 1.390 . S
C580 C579 1.390 . S
C580 C581 1.394 . S
C580 C586 1.465 . S
C581 C576 1.399 . S
C581 C580 1.394 . S
C581 C582 1.516 . S
C582 C581 1.516 . S
C582 C583 1.502 . S
C582 C584 1.561 . S
C582 C585 1.526 . S
C583 H567 0.959 . S
C583 H568 0.959 . S
C583 H569 0.961 . S
C583 C582 1.502 . S
C584 H570 0.960 . S
C584 H571 0.961 . S
C584 H572 0.959 . S
C584 C582 1.561 . S
C585 C582 1.526 . S
C585 C586 1.396 . S
C585 C590 1.390 . S
C586 C580 1.465 . S
C586 C585 1.396 . S
C586 C587 1.399 . S
C587 H573 0.929 . S
C587 C586 1.399 . S
C587 C588 1.385 . S
C588 H574 0.931 . S
C588 C587 1.385 . S
C588 C589 1.389 . S
C589 C588 1.389 . S
C589 C590 1.387 . S
C590 H575 0.930 . S
C590 C585 1.390 . S
C590 C589 1.387 . S
H591 C603 0.930 . S
H592 C605 0.930 . S
H593 C606 0.930 . S
H594 C610 0.959 . S
H595 C610 0.959 . S
H596 C610 0.961 . S
H597 C611 0.960 . S
H598 C611 0.961 . S
H599 C611 0.959 . S
H600 C614 0.929 . S
H601 C615 0.931 . S
H602 C617 0.930 . S
C603 H591 0.930 . S
C603 C604 1.399 . S
C603 C608 1.399 . S
C604 C603 1.399 . S
C604 C605 1.376 . S
C605 H592 0.930 . S
C605 C604 1.376 . S
C605 C606 1.388 . S
C606 H593 0.930 . S
C606 C605 1.388 . S
C606 C607 1.390 . S
C607 C606 1.390 . S
C607 C608 1.394 . S
C607 C613 1.465 . S
C608 C603 1.399 . S
C608 C607 1.394 . S
C608 C609 1.516 . S
C609 C608 1.516 . S
C609 C610 1.502 . S
C609 C611 1.561 . S
C609 C612 1.526 . S
C610 H594 0.959 . S
C610 H595 0.959 . S
C610 H596 0.961 . S
C610 C609 1.502 . S
C611 H597 0.960 . S
C611 H598 0.961 . S
C611 H599 0.959 . S
C611 C609 1.561 . S
C612 C609 1.526 . S
C612 C613 1.396 . S
C612 C617 1.390 . S
C613 C607 1.465 . S
C613 C612 1.396 . S
C613 C614 1.399 . S
C614 H600 0.929 . S
C614 C613 1.399 . S
C614 C615 1.385 . S
C615 H601 0.931 . S
C615 C614 1.385 . S
C615 C616 1.389 . S
C616 C615 1.389 . S
C616 C617 1.387 . S
C617 H602 0.930 . S
C617 C612 1.390 . S
C617 C616 1.387 . S
H618 C630 0.930 . S
H619 C632 0.930 . S
H620 C633 0.930 . S
H621 C637 0.959 . S
H622 C637 0.959 . S
H623 C637 0.961 . S
H624 C638 0.960 . S
H625 C638 0.961 . S
H626 C638 0.959 . S
H627 C641 0.929 . S
H628 C642 0.931 . S
H629 C644 0.930 . S
C630 H618 0.930 . S
C630 C631 1.399 . S
C630 C635 1.399 . S
C631 C630 1.399 . S
C631 C632 1.376 . S
C632 H619 0.930 . S
C632 C631 1.376 . S
C632 C633 1.388 . S
C633 H620 0.930 . S
C633 C632 1.388 . S
C633 C634 1.390 . S
C634 C633 1.390 . S
C634 C635 1.394 . S
C634 C640 1.465 . S
C635 C630 1.399 . S
C635 C634 1.394 . S
C635 C636 1.516 . S
C636 C635 1.516 . S
C636 C637 1.502 . S
C636 C638 1.561 . S
C636 C639 1.526 . S
C637 H621 0.959 . S
C637 H622 0.959 . S
C637 H623 0.961 . S
C637 C636 1.502 . S
C638 H624 0.960 . S
C638 H625 0.961 . S
C638 H626 0.959 . S
C638 C636 1.561 . S
C639 C636 1.526 . S
C639 C640 1.396 . S
C639 C644 1.390 . S
C640 C634 1.465 . S
C640 C639 1.396 . S
C640 C641 1.399 . S
C641 H627 0.929 . S
C641 C640 1.399 . S
C641 C642 1.385 . S
C642 H628 0.931 . S
C642 C641 1.385 . S
C642 C643 1.389 . S
C643 C642 1.389 . S
C643 C644 1.387 . S
C644 H629 0.930 . S
C644 C639 1.390 . S
C644 C643 1.387 . S
H645 C657 0.930 . S
H646 C659 0.930 . S
H647 C660 0.930 . S
H648 C664 0.959 . S
H649 C664 0.959 . S
H650 C664 0.961 . S
H651 C665 0.960 . S
H652 C665 0.961 . S
H653 C665 0.959 . S
H654 C668 0.929 . S
H655 C669 0.931 . S
H656 C671 0.930 . S
C657 H645 0.930 . S
C657 C658 1.399 . S
C657 C662 1.399 . S
C658 C657 1.399 . S
C658 C659 1.376 . S
C659 H646 0.930 . S
C659 C658 1.376 . S
C659 C660 1.388 . S
C660 H647 0.930 . S
C660 C659 1.388 . S
C660 C661 1.390 . S
C661 C660 1.390 . S
C661 C662 1.394 . S
C661 C667 1.465 . S
C662 C657 1.399 . S
C662 C661 1.394 . S
C662 C663 1.516 . S
C663 C662 1.516 . S
C663 C664 1.502 . S
C663 C665 1.561 . S
C663 C666 1.526 . S
C664 H648 0.959 . S
C664 H649 0.959 . S
C664 H650 0.961 . S
C664 C663 1.502 . S
C665 H651 0.960 . S
C665 H652 0.961 . S
C665 H653 0.959 . S
C665 C663 1.561 . S
C666 C663 1.526 . S
C666 C667 1.396 . S
C666 C671 1.390 . S
C667 C661 1.465 . S
C667 C666 1.396 . S
C667 C668 1.399 . S
C668 H654 0.929 . S
C668 C667 1.399 . S
C668 C669 1.385 . S
C669 H655 0.931 . S
C669 C668 1.385 . S
C669 C670 1.389 . S
C670 C669 1.389 . S
C670 C671 1.387 . S
C671 H656 0.930 . S
C671 C666 1.390 . S
C671 C670 1.387 . S
H672 C684 0.930 . S
H673 C686 0.930 . S
H674 C687 0.930 . S
H675 C691 0.959 . S
H676 C691 0.959 . S
H677 C691 0.961 . S
H678 C692 0.960 . S
H679 C692 0.961 . S
H680 C692 0.959 . S
H681 C695 0.929 . S
H682 C696 0.931 . S
H683 C698 0.930 . S
C684 H672 0.930 . S
C684 C685 1.399 . S
C684 C689 1.399 . S
C685 C684 1.399 . S
C685 C686 1.376 . S
C686 H673 0.930 . S
C686 C685 1.376 . S
C686 C687 1.388 . S
C687 H674 0.930 . S
C687 C686 1.388 . S
C687 C688 1.390 . S
C688 C687 1.390 . S
C688 C689 1.394 . S
C688 C694 1.465 . S
C689 C684 1.399 . S
C689 C688 1.394 . S
C689 C690 1.516 . S
C690 C689 1.516 . S
C690 C691 1.502 . S
C690 C692 1.561 . S
C690 C693 1.526 . S
C691 H675 0.959 . S
C691 H676 0.959 . S
C691 H677 0.961 . S
C691 C690 1.502 . S
C692 H678 0.960 . S
C692 H679 0.961 . S
C692 H680 0.959 . S
C692 C690 1.561 . S
C693 C690 1.526 . S
C693 C694 1.396 . S
C693 C698 1.390 . S
C694 C688 1.465 . S
C694 C693 1.396 . S
C694 C695 1.399 . S
C695 H681 0.929 . S
C695 C694 1.399 . S
C695 C696 1.385 . S
C696 H682 0.931 . S
C696 C695 1.385 . S
C696 C697 1.389 . S
C697 C696 1.389 . S
C697 C698 1.387 . S
C698 H683 0.930 . S
C698 C693 1.390 . S
C698 C697 1.387 . S
H699 C711 0.930 . S
H700 C713 0.930 . S
H701 C714 0.930 . S
H702 C718 0.959 . S
H703 C718 0.959 . S
H704 C718 0.961 . S
H705 C719 0.960 . S
H706 C719 0.961 . S
H707 C719 0.959 . S
H708 C722 0.929 . S
H709 C723 0.931 . S
H710 C725 0.930 . S
C711 H699 0.930 . S
C711 C712 1.399 . S
C711 C716 1.399 . S
C712 C711 1.399 . S
C712 C713 1.376 . S
C713 H700 0.930 . S
C713 C712 1.376 . S
C713 C714 1.388 . S
C714 H701 0.930 . S
C714 C713 1.388 . S
C714 C715 1.390 . S
C715 C714 1.390 . S
C715 C716 1.394 . S
C715 C721 1.465 . S
C716 C711 1.399 . S
C716 C715 1.394 . S
C716 C717 1.516 . S
C717 C716 1.516 . S
C717 C718 1.502 . S
C717 C719 1.561 . S
C717 C720 1.526 . S
C718 H702 0.959 . S
C718 H703 0.959 . S
C718 H704 0.961 . S
C718 C717 1.502 . S
C719 H705 0.960 . S
C719 H706 0.961 . S
C719 H707 0.959 . S
C719 C717 1.561 . S
C720 C717 1.526 . S
C720 C721 1.396 . S
C720 C725 1.390 . S
C721 C715 1.465 . S
C721 C720 1.396 . S
C721 C722 1.399 . S
C722 H708 0.929 . S
C722 C721 1.399 . S
C722 C723 1.385 . S
C723 H709 0.931 . S
C723 C722 1.385 . S
C723 C724 1.389 . S
C724 C723 1.389 . S
C724 C725 1.387 . S
C725 H710 0.930 . S
C725 C720 1.390 . S
C725 C724 1.387 . S
H726 C738 0.930 . S
H727 C740 0.930 . S
H728 C741 0.930 . S
H729 C745 0.959 . S
H730 C745 0.959 . S
H731 C745 0.961 . S
H732 C746 0.960 . S
H733 C746 0.961 . S
H734 C746 0.959 . S
H735 C749 0.929 . S
H736 C750 0.931 . S
H737 C752 0.930 . S
C738 H726 0.930 . S
C738 C739 1.399 . S
C738 C743 1.399 . S
C739 C738 1.399 . S
C739 C740 1.376 . S
C740 H727 0.930 . S
C740 C739 1.376 . S
C740 C741 1.388 . S
C741 H728 0.930 . S
C741 C740 1.388 . S
C741 C742 1.390 . S
C742 C741 1.390 . S
C742 C743 1.394 . S
C742 C748 1.465 . S
C743 C738 1.399 . S
C743 C742 1.394 . S
C743 C744 1.516 . S
C744 C743 1.516 . S
C744 C745 1.502 . S
C744 C746 1.561 . S
C744 C747 1.526 . S
C745 H729 0.959 . S
C745 H730 0.959 . S
C745 H731 0.961 . S
C745 C744 1.502 . S
C746 H732 0.960 . S
C746 H733 0.961 . S
C746 H734 0.959 . S
C746 C744 1.561 . S
C747 C744 1.526 . S
C747 C748 1.396 . S
C747 C752 1.390 . S
C748 C742 1.465 . S
C748 C747 1.396 . S
C748 C749 1.399 . S
C749 H735 0.929 . S
C749 C748 1.399 . S
C749 C750 1.385 . S
C750 H736 0.931 . S
C750 C749 1.385 . S
C750 C751 1.389 . S
C751 C750 1.389 . S
C751 C752 1.387 . S
C752 H737 0.930 . S
C752 C747 1.390 . S
C752 C751 1.387 . S
H753 C765 0.930 . S
H754 C767 0.930 . S
H755 C768 0.930 . S
H756 C772 0.959 . S
H757 C772 0.959 . S
H758 C772 0.961 . S
H759 C773 0.960 . S
H760 C773 0.961 . S
H761 C773 0.959 . S
H762 C776 0.929 . S
H763 C777 0.931 . S
H764 C779 0.930 . S
C765 H753 0.930 . S
C765 C766 1.399 . S
C765 C770 1.399 . S
C766 C765 1.399 . S
C766 C767 1.376 . S
C767 H754 0.930 . S
C767 C766 1.376 . S
C767 C768 1.388 . S
C768 H755 0.930 . S
C768 C767 1.388 . S
C768 C769 1.390 . S
C769 C768 1.390 . S
C769 C770 1.394 . S
C769 C775 1.465 . S
C770 C765 1.399 . S
C770 C769 1.394 . S
C770 C771 1.516 . S
C771 C770 1.516 . S
C771 C772 1.502 . S
C771 C773 1.561 . S
C771 C774 1.526 . S
C772 H756 0.959 . S
C772 H757 0.959 . S
C772 H758 0.961 . S
C772 C771 1.502 . S
C773 H759 0.960 . S
C773 H760 0.961 . S
C773 H761 0.959 . S
C773 C771 1.561 . S
C774 C771 1.526 . S
C774 C775 1.396 . S
C774 C779 1.390 . S
C775 C769 1.465 . S
C775 C774 1.396 . S
C775 C776 1.399 . S
C776 H762 0.929 . S
C776 C775 1.399 . S
C776 C777 1.385 . S
C777 H763 0.931 . S
C777 C776 1.385 . S
C777 C778 1.389 . S
C778 C777 1.389 . S
C778 C779 1.387 . S
C779 H764 0.930 . S
C779 C774 1.390 . S
C779 C778 1.387 . S
H780 C792 0.930 . S
H781 C794 0.930 . S
H782 C795 0.930 . S
H783 C799 0.959 . S
H784 C799 0.959 . S
H785 C799 0.961 . S
H786 C800 0.960 . S
H787 C800 0.961 . S
H788 C800 0.959 . S
H789 C803 0.929 . S
H790 C804 0.931 . S
H791 C806 0.930 . S
C792 H780 0.930 . S
C792 C793 1.399 . S
C792 C797 1.399 . S
C793 C792 1.399 . S
C793 C794 1.376 . S
C794 H781 0.930 . S
C794 C793 1.376 . S
C794 C795 1.388 . S
C795 H782 0.930 . S
C795 C794 1.388 . S
C795 C796 1.390 . S
C796 C795 1.390 . S
C796 C797 1.394 . S
C796 C802 1.465 . S
C797 C792 1.399 . S
C797 C796 1.394 . S
C797 C798 1.516 . S
C798 C797 1.516 . S
C798 C799 1.502 . S
C798 C800 1.561 . S
C798 C801 1.526 . S
C799 H783 0.959 . S
C799 H784 0.959 . S
C799 H785 0.961 . S
C799 C798 1.502 . S
C800 H786 0.960 . S
C800 H787 0.961 . S
C800 H788 0.959 . S
C800 C798 1.561 . S
C801 C798 1.526 . S
C801 C802 1.396 . S
C801 C806 1.390 . S
C802 C796 1.465 . S
C802 C801 1.396 . S
C802 C803 1.399 . S
C803 H789 0.929 . S
C803 C802 1.399 . S
C803 C804 1.385 . S
C804 H790 0.931 . S
C804 C803 1.385 . S
C804 C805 1.389 . S
C805 C804 1.389 . S
C805 C806 1.387 . S
C806 H791 0.930 . S
C806 C801 1.390 . S
C806 C805 1.387 . S
H807 C819 0.930 . S
H808 C821 0.930 . S
H809 C822 0.930 . S
H810 C826 0.959 . S
H811 C826 0.959 . S
H812 C826 0.961 . S
H813 C827 0.960 . S
H814 C827 0.961 . S
H815 C827 0.959 . S
H816 C830 0.929 . S
H817 C831 0.931 . S
H818 C833 0.930 . S
C819 H807 0.930 . S
C819 C820 1.399 . S
C819 C824 1.399 . S
C820 C819 1.399 . S
C820 C821 1.376 . S
C821 H808 0.930 . S
C821 C820 1.376 . S
C821 C822 1.388 . S
C822 H809 0.930 . S
C822 C821 1.388 . S
C822 C823 1.390 . S
C823 C822 1.390 . S
C823 C824 1.394 . S
C823 C829 1.465 . S
C824 C819 1.399 . S
C824 C823 1.394 . S
C824 C825 1.516 . S
C825 C824 1.516 . S
C825 C826 1.502 . S
C825 C827 1.561 . S
C825 C828 1.526 . S
C826 H810 0.959 . S
C826 H811 0.959 . S
C826 H812 0.961 . S
C826 C825 1.502 . S
C827 H813 0.960 . S
C827 H814 0.961 . S
C827 H815 0.959 . S
C827 C825 1.561 . S
C828 C825 1.526 . S
C828 C829 1.396 . S
C828 C833 1.390 . S
C829 C823 1.465 . S
C829 C828 1.396 . S
C829 C830 1.399 . S
C830 H816 0.929 . S
C830 C829 1.399 . S
C830 C831 1.385 . S
C831 H817 0.931 . S
C831 C830 1.385 . S
C831 C832 1.389 . S
C832 C831 1.389 . S
C832 C833 1.387 . S
C833 H818 0.930 . S
C833 C828 1.390 . S
C833 C832 1.387 . S
H834 C846 0.930 . S
H835 C848 0.930 . S
H836 C849 0.930 . S
H837 C853 0.959 . S
H838 C853 0.959 . S
H839 C853 0.961 . S
H840 C854 0.960 . S
H841 C854 0.961 . S
H842 C854 0.959 . S
H843 C857 0.929 . S
H844 C858 0.931 . S
H845 C860 0.930 . S
C846 H834 0.930 . S
C846 C847 1.399 . S
C846 C851 1.399 . S
C847 C846 1.399 . S
C847 C848 1.376 . S
C848 H835 0.930 . S
C848 C847 1.376 . S
C848 C849 1.388 . S
C849 H836 0.930 . S
C849 C848 1.388 . S
C849 C850 1.390 . S
C850 C849 1.390 . S
C850 C851 1.394 . S
C850 C856 1.465 . S
C851 C846 1.399 . S
C851 C850 1.394 . S
C851 C852 1.516 . S
C852 C851 1.516 . S
C852 C853 1.502 . S
C852 C854 1.561 . S
C852 C855 1.526 . S
C853 H837 0.959 . S
C853 H838 0.959 . S
C853 H839 0.961 . S
C853 C852 1.502 . S
C854 H840 0.960 . S
C854 H841 0.961 . S
C854 H842 0.959 . S
C854 C852 1.561 . S
C855 C852 1.526 . S
C855 C856 1.396 . S
C855 C860 1.390 . S
C856 C850 1.465 . S
C856 C855 1.396 . S
C856 C857 1.399 . S
C857 H843 0.929 . S
C857 C856 1.399 . S
C857 C858 1.385 . S
C858 H844 0.931 . S
C858 C857 1.385 . S
C858 C859 1.389 . S
C859 C858 1.389 . S
C859 C860 1.387 . S
C860 H845 0.930 . S
C860 C855 1.390 . S
C860 C859 1.387 . S
H861 C873 0.930 . S
H862 C875 0.930 . S
H863 C876 0.930 . S
H864 C880 0.959 . S
H865 C880 0.959 . S
H866 C880 0.961 . S
H867 C881 0.960 . S
H868 C881 0.961 . S
H869 C881 0.959 . S
H870 C884 0.929 . S
H871 C885 0.931 . S
H872 C887 0.930 . S
C873 H861 0.930 . S
C873 C874 1.399 . S
C873 C878 1.399 . S
C874 C873 1.399 . S
C874 C875 1.376 . S
C875 H862 0.930 . S
C875 C874 1.376 . S
C875 C876 1.388 . S
C876 H863 0.930 . S
C876 C875 1.388 . S
C876 C877 1.390 . S
C877 C876 1.390 . S
C877 C878 1.394 . S
C877 C883 1.465 . S
C878 C873 1.399 . S
C878 C877 1.394 . S
C878 C879 1.516 . S
C879 C878 1.516 . S
C879 C880 1.502 . S
C879 C881 1.561 . S
C879 C882 1.526 . S
C880 H864 0.959 . S
C880 H865 0.959 . S
C880 H866 0.961 . S
C880 C879 1.502 . S
C881 H867 0.960 . S
C881 H868 0.961 . S
C881 H869 0.959 . S
C881 C879 1.561 . S
C882 C879 1.526 . S
C882 C883 1.396 . S
C882 C887 1.390 . S
C883 C877 1.465 . S
C883 C882 1.396 . S
C883 C884 1.399 . S
C884 H870 0.929 . S
C884 C883 1.399 . S
C884 C885 1.385 . S
C885 H871 0.931 . S
C885 C884 1.385 . S
C885 C886 1.389 . S
C886 C885 1.389 . S
C886 C887 1.387 . S
C887 H872 0.930 . S
C887 C882 1.390 . S
C887 C886 1.387 . S
H888 C900 0.930 . S
H889 C902 0.930 . S
H890 C903 0.930 . S
H891 C907 0.959 . S
H892 C907 0.959 . S
H893 C907 0.961 . S
H894 C908 0.960 . S
H895 C908 0.961 . S
H896 C908 0.959 . S
H897 C911 0.929 . S
H898 C912 0.931 . S
H899 C914 0.930 . S
C900 H888 0.930 . S
C900 C901 1.399 . S
C900 C905 1.399 . S
C901 C900 1.399 . S
C901 C902 1.376 . S
C902 H889 0.930 . S
C902 C901 1.376 . S
C902 C903 1.388 . S
C903 H890 0.930 . S
C903 C902 1.388 . S
C903 C904 1.390 . S
C904 C903 1.390 . S
C904 C905 1.394 . S
C904 C910 1.465 . S
C905 C900 1.399 . S
C905 C904 1.394 . S
C905 C906 1.516 . S
C906 C905 1.516 . S
C906 C907 1.502 . S
C906 C908 1.561 . S
C906 C909 1.526 . S
C907 H891 0.959 . S
C907 H892 0.959 . S
C907 H893 0.961 . S
C907 C906 1.502 . S
C908 H894 0.960 . S
C908 H895 0.961 . S
C908 H896 0.959 . S
C908 C906 1.561 . S
C909 C906 1.526 . S
C909 C910 1.396 . S
C909 C914 1.390 . S
C910 C904 1.465 . S
C910 C909 1.396 . S
C910 C911 1.399 . S
C911 H897 0.929 . S
C911 C910 1.399 . S
C911 C912 1.385 . S
C912 H898 0.931 . S
C912 C911 1.385 . S
C912 C913 1.389 . S
C913 C912 1.389 . S
C913 C914 1.387 . S
C914 H899 0.930 . S
C914 C909 1.390 . S
C914 C913 1.387 . S
H915 C927 0.930 . S
H916 C929 0.930 . S
H917 C930 0.930 . S
H918 C934 0.959 . S
H919 C934 0.959 . S
H920 C934 0.961 . S
H921 C935 0.960 . S
H922 C935 0.961 . S
H923 C935 0.959 . S
H924 C938 0.929 . S
H925 C939 0.931 . S
H926 C941 0.930 . S
C927 H915 0.930 . S
C927 C928 1.399 . S
C927 C932 1.399 . S
C928 C927 1.399 . S
C928 C929 1.376 . S
C929 H916 0.930 . S
C929 C928 1.376 . S
C929 C930 1.388 . S
C930 H917 0.930 . S
C930 C929 1.388 . S
C930 C931 1.390 . S
C931 C930 1.390 . S
C931 C932 1.394 . S
C931 C937 1.465 . S
C932 C927 1.399 . S
C932 C931 1.394 . S
C932 C933 1.516 . S
C933 C932 1.516 . S
C933 C934 1.502 . S
C933 C935 1.561 . S
C933 C936 1.526 . S
C934 H918 0.959 . S
C934 H919 0.959 . S
C934 H920 0.961 . S
C934 C933 1.502 . S
C935 H921 0.960 . S
C935 H922 0.961 . S
C935 H923 0.959 . S
C935 C933 1.561 . S
C936 C933 1.526 . S
C936 C937 1.396 . S
C936 C941 1.390 . S
C937 C931 1.465 . S
C937 C936 1.396 . S
C937 C938 1.399 . S
C938 H924 0.929 . S
C938 C937 1.399 . S
C938 C939 1.385 . S
C939 H925 0.931 . S
C939 C938 1.385 . S
C939 C940 1.389 . S
C940 C939 1.389 . S
C940 C941 1.387 . S
C941 H926 0.930 . S
C941 C936 1.390 . S
C941 C940 1.387 . S
H942 C954 0.930 . S
H943 C956 0.930 . S
H944 C957 0.930 . S
H945 C961 0.959 . S
H946 C961 0.959 . S
H947 C961 0.961 . S
H948 C962 0.960 . S
H949 C962 0.961 . S
H950 C962 0.959 . S
H951 C965 0.929 . S
H952 C966 0.931 . S
H953 C968 0.930 . S
C954 H942 0.930 . S
C954 C955 1.399 . S
C954 C959 1.399 . S
C955 C954 1.399 . S
C955 C956 1.376 . S
C956 H943 0.930 . S
C956 C955 1.376 . S
C956 C957 1.388 . S
C957 H944 0.930 . S
C957 C956 1.388 . S
C957 C958 1.390 . S
C958 C957 1.390 . S
C958 C959 1.394 . S
C958 C964 1.465 . S
C959 C954 1.399 . S
C959 C958 1.394 . S
C959 C960 1.516 . S
C960 C959 1.516 . S
C960 C961 1.502 . S
C960 C962 1.561 . S
C960 C963 1.526 . S
C961 H945 0.959 . S
C961 H946 0.959 . S
C961 H947 0.961 . S
C961 C960 1.502 . S
C962 H948 0.960 . S
C962 H949 0.961 . S
C962 H950 0.959 . S
C962 C960 1.561 . S
C963 C960 1.526 . S
C963 C964 1.396 . S
C963 C968 1.390 . S
C964 C958 1.465 . S
C964 C963 1.396 . S
C964 C965 1.399 . S
C965 H951 0.929 . S
C965 C964 1.399 . S
C965 C966 1.385 . S
C966 H952 0.931 . S
C966 C965 1.385 . S
C966 C967 1.389 . S
C967 C966 1.389 . S
C967 C968 1.387 . S
C968 H953 0.930 . S
C968 C963 1.390 . S
C968 C967 1.387 . S
H969 C981 0.930 . S
H970 C983 0.930 . S
H971 C984 0.930 . S
H972 C988 0.959 . S
H973 C988 0.959 . S
H974 C988 0.961 . S
H975 C989 0.960 . S
H976 C989 0.961 . S
H977 C989 0.959 . S
H978 C992 0.929 . S
H979 C993 0.931 . S
H980 C995 0.930 . S
C981 H969 0.930 . S
C981 C982 1.399 . S
C981 C986 1.399 . S
C982 C981 1.399 . S
C982 C983 1.376 . S
C983 H970 0.930 . S
C983 C982 1.376 . S
C983 C984 1.388 . S
C984 H971 0.930 . S
C984 C983 1.388 . S
C984 C985 1.390 . S
C985 C984 1.390 . S
C985 C986 1.394 . S
C985 C991 1.465 . S
C986 C981 1.399 . S
C986 C985 1.394 . S
C986 C987 1.516 . S
C987 C986 1.516 . S
C987 C988 1.502 . S
C987 C989 1.561 . S
C987 C990 1.526 . S
C988 H972 0.959 . S
C988 H973 0.959 . S
C988 H974 0.961 . S
C988 C987 1.502 . S
C989 H975 0.960 . S
C989 H976 0.961 . S
C989 H977 0.959 . S
C989 C987 1.561 . S
C990 C987 1.526 . S
C990 C991 1.396 . S
C990 C995 1.390 . S
C991 C985 1.465 . S
C991 C990 1.396 . S
C991 C992 1.399 . S
C992 H978 0.929 . S
C992 C991 1.399 . S
C992 C993 1.385 . S
C993 H979 0.931 . S
C993 C992 1.385 . S
C993 C994 1.389 . S
C994 C993 1.389 . S
C994 C995 1.387 . S
C995 H980 0.930 . S
C995 C990 1.390 . S
C995 C994 1.387 . S
H996 C1008 0.930 . S
H997 C1010 0.930 . S
H998 C1011 0.930 . S
H999 C1015 0.959 . S
H1000 C1015 0.959 . S
H1001 C1015 0.961 . S
H1002 C1016 0.960 . S
H1003 C1016 0.961 . S
H1004 C1016 0.959 . S
H1005 C1019 0.929 . S
H1006 C1020 0.931 . S
H1007 C1022 0.930 . S
C1008 H996 0.930 . S
C1008 C1009 1.399 . S
C1008 C1013 1.399 . S
C1009 C1008 1.399 . S
C1009 C1010 1.376 . S
C1010 H997 0.930 . S
C1010 C1009 1.376 . S
C1010 C1011 1.388 . S
C1011 H998 0.930 . S
C1011 C1010 1.388 . S
C1011 C1012 1.390 . S
C1012 C1011 1.390 . S
C1012 C1013 1.394 . S
C1012 C1018 1.465 . S
C1013 C1008 1.399 . S
C1013 C1012 1.394 . S
C1013 C1014 1.516 . S
C1014 C1013 1.516 . S
C1014 C1015 1.502 . S
C1014 C1016 1.561 . S
C1014 C1017 1.526 . S
C1015 H999 0.959 . S
C1015 H1000 0.959 . S
C1015 H1001 0.961 . S
C1015 C1014 1.502 . S
C1016 H1002 0.960 . S
C1016 H1003 0.961 . S
C1016 H1004 0.959 . S
C1016 C1014 1.561 . S
C1017 C1014 1.526 . S
C1017 C1018 1.396 . S
C1017 C1022 1.390 . S
C1018 C1012 1.465 . S
C1018 C1017 1.396 . S
C1018 C1019 1.399 . S
C1019 H1005 0.929 . S
C1019 C1018 1.399 . S
C1019 C1020 1.385 . S
C1020 H1006 0.931 . S
C1020 C1019 1.385 . S
C1020 C1021 1.389 . S
C1021 C1020 1.389 . S
C1021 C1022 1.387 . S
C1022 H1007 0.930 . S
C1022 C1017 1.390 . S
C1022 C1021 1.387 . S
H1023 C1035 0.930 . S
H1024 C1037 0.930 . S
H1025 C1038 0.930 . S
H1026 C1042 0.959 . S
H1027 C1042 0.959 . S
H1028 C1042 0.961 . S
H1029 C1043 0.960 . S
H1030 C1043 0.961 . S
H1031 C1043 0.959 . S
H1032 C1046 0.929 . S
H1033 C1047 0.931 . S
H1034 C1049 0.930 . S
C1035 H1023 0.930 . S
C1035 C1036 1.399 . S
C1035 C1040 1.399 . S
C1036 C1035 1.399 . S
C1036 C1037 1.376 . S
C1037 H1024 0.930 . S
C1037 C1036 1.376 . S
C1037 C1038 1.388 . S
C1038 H1025 0.930 . S
C1038 C1037 1.388 . S
C1038 C1039 1.390 . S
C1039 C1038 1.390 . S
C1039 C1040 1.394 . S
C1039 C1045 1.465 . S
C1040 C1035 1.399 . S
C1040 C1039 1.394 . S
C1040 C1041 1.516 . S
C1041 C1040 1.516 . S
C1041 C1042 1.502 . S
C1041 C1043 1.561 . S
C1041 C1044 1.526 . S
C1042 H1026 0.959 . S
C1042 H1027 0.959 . S
C1042 H1028 0.961 . S
C1042 C1041 1.502 . S
C1043 H1029 0.960 . S
C1043 H1030 0.961 . S
C1043 H1031 0.959 . S
C1043 C1041 1.561 . S
C1044 C1041 1.526 . S
C1044 C1045 1.396 . S
C1044 C1049 1.390 . S
C1045 C1039 1.465 . S
C1045 C1044 1.396 . S
C1045 C1046 1.399 . S
C1046 H1032 0.929 . S
C1046 C1045 1.399 . S
C1046 C1047 1.385 . S
C1047 H1033 0.931 . S
C1047 C1046 1.385 . S
C1047 C1048 1.389 . S
C1048 C1047 1.389 . S
C1048 C1049 1.387 . S
C1049 H1034 0.930 . S
C1049 C1044 1.390 . S
C1049 C1048 1.387 . S
H1050 C1062 0.930 . S
H1051 C1064 0.930 . S
H1052 C1065 0.930 . S
H1053 C1069 0.959 . S
H1054 C1069 0.959 . S
H1055 C1069 0.961 . S
H1056 C1070 0.960 . S
H1057 C1070 0.961 . S
H1058 C1070 0.959 . S
H1059 C1073 0.929 . S
H1060 C1074 0.931 . S
H1061 C1076 0.930 . S
C1062 H1050 0.930 . S
C1062 C1063 1.399 . S
C1062 C1067 1.399 . S
C1063 C1062 1.399 . S
C1063 C1064 1.376 . S
C1064 H1051 0.930 . S
C1064 C1063 1.376 . S
C1064 C1065 1.388 . S
C1065 H1052 0.930 . S
C1065 C1064 1.388 . S
C1065 C1066 1.390 . S
C1066 C1065 1.390 . S
C1066 C1067 1.394 . S
C1066 C1072 1.465 . S
C1067 C1062 1.399 . S
C1067 C1066 1.394 . S
C1067 C1068 1.516 . S
C1068 C1067 1.516 . S
C1068 C1069 1.502 . S
C1068 C1070 1.561 . S
C1068 C1071 1.526 . S
C1069 H1053 0.959 . S
C1069 H1054 0.959 . S
C1069 H1055 0.961 . S
C1069 C1068 1.502 . S
C1070 H1056 0.960 . S
C1070 H1057 0.961 . S
C1070 H1058 0.959 . S
C1070 C1068 1.561 . S
C1071 C1068 1.526 . S
C1071 C1072 1.396 . S
C1071 C1076 1.390 . S
C1072 C1066 1.465 . S
C1072 C1071 1.396 . S
C1072 C1073 1.399 . S
C1073 H1059 0.929 . S
C1073 C1072 1.399 . S
C1073 C1074 1.385 . S
C1074 H1060 0.931 . S
C1074 C1073 1.385 . S
C1074 C1075 1.389 . S
C1075 C1074 1.389 . S
C1075 C1076 1.387 . S
C1076 H1061 0.930 . S
C1076 C1071 1.390 . S
C1076 C1075 1.387 . S
H1077 C1089 0.930 . S
H1078 C1091 0.930 . S
H1079 C1092 0.930 . S
H1080 C1096 0.959 . S
H1081 C1096 0.959 . S
H1082 C1096 0.961 . S
H1083 C1097 0.960 . S
H1084 C1097 0.961 . S
H1085 C1097 0.959 . S
H1086 C1100 0.929 . S
H1087 C1101 0.931 . S
H1088 C1103 0.930 . S
C1089 H1077 0.930 . S
C1089 C1090 1.399 . S
C1089 C1094 1.399 . S
C1090 C1089 1.399 . S
C1090 C1091 1.376 . S
C1091 H1078 0.930 . S
C1091 C1090 1.376 . S
C1091 C1092 1.388 . S
C1092 H1079 0.930 . S
C1092 C1091 1.388 . S
C1092 C1093 1.390 . S
C1093 C1092 1.390 . S
C1093 C1094 1.394 . S
C1093 C1099 1.465 . S
C1094 C1089 1.399 . S
C1094 C1093 1.394 . S
C1094 C1095 1.516 . S
C1095 C1094 1.516 . S
C1095 C1096 1.502 . S
C1095 C1097 1.561 . S
C1095 C1098 1.526 . S
C1096 H1080 0.959 . S
C1096 H1081 0.959 . S
C1096 H1082 0.961 . S
C1096 C1095 1.502 . S
C1097 H1083 0.960 . S
C1097 H1084 0.961 . S
C1097 H1085 0.959 . S
C1097 C1095 1.561 . S
C1098 C1095 1.526 . S
C1098 C1099 1.396 . S
C1098 C1103 1.390 . S
C1099 C1093 1.465 . S
C1099 C1098 1.396 . S
C1099 C1100 1.399 . S
C1100 H1086 0.929 . S
C1100 C1099 1.399 . S
C1100 C1101 1.385 . S
C1101 H1087 0.931 . S
C1101 C1100 1.385 . S
C1101 C1102 1.389 . S
C1102 C1101 1.389 . S
C1102 C1103 1.387 . S
C1103 H1088 0.930 . S
C1103 C1098 1.390 . S
C1103 C1102 1.387 . S
C469 C7 2.068 . S
C481 C176 2.016 . S
C496 C30 1.538 . S
C508 C229 1.483 . S
C535 C282 1.797 . S
C523 N58 1.811 . S
C562 C319 1.299 . S
C550 N81 1.217 . S
C589 C379 1.785 . S
C577 C99 1.807 . S
C616 C432 1.343 . S
C604 N127 1.388 . S
C631 N25 1.896 . S
C643 C283 1.905 . S
C658 C62 1.479 . S
C670 C326 1.483 . S
C697 C372 1.812 . S
C685 C85 1.846 . S
C724 C425 1.319 . S
C712 N94 1.327 . S
C739 C131 1.904 . S
C751 C177 1.903 . S
C778 C230 1.411 . S
C766 N2 1.339 . S
C805 C336 1.984 . S
C793 C16 2.018 . S
C820 C39 1.497 . S
C832 C388 1.468 . S
C859 C441 1.811 . S
C847 N48 1.805 . S
C874 N71 1.239 . S
C886 C167 1.243 . S
C901 C108 1.788 . S
C913 C220 1.815 . S
C928 N117 1.308 . S
C940 C273 1.371 . S
C955 N35 1.869 . S
C967 C442 1.875 . S
C994 C160 1.464 . S
C982 C53 1.477 . S
C1009 C76 1.874 . S
C1021 C213 1.849 . S
C1036 N104 1.278 . S
C1048 C266 1.266 . S
C1063 C122 1.870 . S
C1075 C335 1.875 . S
C1090 N12 1.343 . S
C1102 C389 1.354 . S
