# Generated by pormake.
# Topology gar, (4,6)-cn, num edge types: 1
# Building blocks:
#     Node 0, Type 0, BuildingBlock: NAHDIM_clean_sbu_0, # of connection points: 4
#     Node 1, Type 0, BuildingBlock: NAHDIM_clean_sbu_0, # of connection points: 4
#     Node 2, Type 0, BuildingBlock: NAHDIM_clean_sbu_0, # of connection points: 4
#     Node 3, Type 0, BuildingBlock: NAHDIM_clean_sbu_0, # of connection points: 4
#     Node 4, Type 0, BuildingBlock: NAHDIM_clean_sbu_0, # of connection points: 4
#     Node 5, Type 0, BuildingBlock: NAHDIM_clean_sbu_0, # of connection points: 4
#     Node 6, Type 0, BuildingBlock: NAHDIM_clean_sbu_0, # of connection points: 4
#     Node 7, Type 0, BuildingBlock: NAHDIM_clean_sbu_0, # of connection points: 4
#     Node 8, Type 0, BuildingBlock: NAHDIM_clean_sbu_0, # of connection points: 4
#     Node 9, Type 0, BuildingBlock: NAHDIM_clean_sbu_0, # of connection points: 4
#     Node 10, Type 0, BuildingBlock: NAHDIM_clean_sbu_0, # of connection points: 4
#     Node 11, Type 0, BuildingBlock: NAHDIM_clean_sbu_0, # of connection points: 4
#     Node 12, Type 0, BuildingBlock: NAHDIM_clean_sbu_0, # of connection points: 4
#     Node 13, Type 0, BuildingBlock: NAHDIM_clean_sbu_0, # of connection points: 4
#     Node 14, Type 0, BuildingBlock: NAHDIM_clean_sbu_0, # of connection points: 4
#     Node 15, Type 0, BuildingBlock: NAHDIM_clean_sbu_0, # of connection points: 4
#     Node 16, Type 0, BuildingBlock: NAHDIM_clean_sbu_0, # of connection points: 4
#     Node 17, Type 0, BuildingBlock: NAHDIM_clean_sbu_0, # of connection points: 4
#     Node 18, Type 0, BuildingBlock: NAHDIM_clean_sbu_0, # of connection points: 4
#     Node 19, Type 0, BuildingBlock: NAHDIM_clean_sbu_0, # of connection points: 4
#     Node 20, Type 0, BuildingBlock: NAHDIM_clean_sbu_0, # of connection points: 4
#     Node 21, Type 0, BuildingBlock: NAHDIM_clean_sbu_0, # of connection points: 4
#     Node 22, Type 0, BuildingBlock: NAHDIM_clean_sbu_0, # of connection points: 4
#     Node 23, Type 0, BuildingBlock: NAHDIM_clean_sbu_0, # of connection points: 4
#     Node 24, Type 1, BuildingBlock: BETGAK_clean_sbu_0, # of connection points: 6
#     Node 25, Type 1, BuildingBlock: BETGAK_clean_sbu_0, # of connection points: 6
#     Node 26, Type 1, BuildingBlock: BETGAK_clean_sbu_0, # of connection points: 6
#     Node 27, Type 1, BuildingBlock: BETGAK_clean_sbu_0, # of connection points: 6
#     Node 28, Type 1, BuildingBlock: BETGAK_clean_sbu_0, # of connection points: 6
#     Node 29, Type 1, BuildingBlock: BETGAK_clean_sbu_0, # of connection points: 6
#     Node 30, Type 1, BuildingBlock: BETGAK_clean_sbu_0, # of connection points: 6
#     Node 31, Type 1, BuildingBlock: BETGAK_clean_sbu_0, # of connection points: 6
#     Node 32, Type 1, BuildingBlock: BETGAK_clean_sbu_0, # of connection points: 6
#     Node 33, Type 1, BuildingBlock: BETGAK_clean_sbu_0, # of connection points: 6
#     Node 34, Type 1, BuildingBlock: BETGAK_clean_sbu_0, # of connection points: 6
#     Node 35, Type 1, BuildingBlock: BETGAK_clean_sbu_0, # of connection points: 6
#     Node 36, Type 1, BuildingBlock: BETGAK_clean_sbu_0, # of connection points: 6
#     Node 37, Type 1, BuildingBlock: BETGAK_clean_sbu_0, # of connection points: 6
#     Node 38, Type 1, BuildingBlock: BETGAK_clean_sbu_0, # of connection points: 6
#     Node 39, Type 1, BuildingBlock: BETGAK_clean_sbu_0, # of connection points: 6
#     Edge 40, Type (0, 1), BuildingBlock: XUDNAN_clean_linker_2, # of connection points: 2
#     Edge 41, Type (0, 1), BuildingBlock: XUDNAN_clean_linker_2, # of connection points: 2
#     Edge 42, Type (0, 1), BuildingBlock: XUDNAN_clean_linker_2, # of connection points: 2
#     Edge 43, Type (0, 1), BuildingBlock: XUDNAN_clean_linker_2, # of connection points: 2
#     Edge 44, Type (0, 1), BuildingBlock: XUDNAN_clean_linker_2, # of connection points: 2
#     Edge 45, Type (0, 1), BuildingBlock: XUDNAN_clean_linker_2, # of connection points: 2
#     Edge 46, Type (0, 1), BuildingBlock: XUDNAN_clean_linker_2, # of connection points: 2
#     Edge 47, Type (0, 1), BuildingBlock: XUDNAN_clean_linker_2, # of connection points: 2
#     Edge 48, Type (0, 1), BuildingBlock: XUDNAN_clean_linker_2, # of connection points: 2
#     Edge 49, Type (0, 1), BuildingBlock: XUDNAN_clean_linker_2, # of connection points: 2
#     Edge 50, Type (0, 1), BuildingBlock: XUDNAN_clean_linker_2, # of connection points: 2
#     Edge 51, Type (0, 1), BuildingBlock: XUDNAN_clean_linker_2, # of connection points: 2
#     Edge 52, Type (0, 1), BuildingBlock: XUDNAN_clean_linker_2, # of connection points: 2
#     Edge 53, Type (0, 1), BuildingBlock: XUDNAN_clean_linker_2, # of connection points: 2
#     Edge 54, Type (0, 1), BuildingBlock: XUDNAN_clean_linker_2, # of connection points: 2
#     Edge 55, Type (0, 1), BuildingBlock: XUDNAN_clean_linker_2, # of connection points: 2
#     Edge 56, Type (0, 1), BuildingBlock: XUDNAN_clean_linker_2, # of connection points: 2
#     Edge 57, Type (0, 1), BuildingBlock: XUDNAN_clean_linker_2, # of connection points: 2
#     Edge 58, Type (0, 1), BuildingBlock: XUDNAN_clean_linker_2, # of connection points: 2
#     Edge 59, Type (0, 1), BuildingBlock: XUDNAN_clean_linker_2, # of connection points: 2
#     Edge 60, Type (0, 1), BuildingBlock: XUDNAN_clean_linker_2, # of connection points: 2
#     Edge 61, Type (0, 1), BuildingBlock: XUDNAN_clean_linker_2, # of connection points: 2
#     Edge 62, Type (0, 1), BuildingBlock: XUDNAN_clean_linker_2, # of connection points: 2
#     Edge 63, Type (0, 1), BuildingBlock: XUDNAN_clean_linker_2, # of connection points: 2
#     Edge 64, Type (0, 1), BuildingBlock: XUDNAN_clean_linker_2, # of connection points: 2
#     Edge 65, Type (0, 1), BuildingBlock: XUDNAN_clean_linker_2, # of connection points: 2
#     Edge 66, Type (0, 1), BuildingBlock: XUDNAN_clean_linker_2, # of connection points: 2
#     Edge 67, Type (0, 1), BuildingBlock: XUDNAN_clean_linker_2, # of connection points: 2
#     Edge 68, Type (0, 1), BuildingBlock: XUDNAN_clean_linker_2, # of connection points: 2
#     Edge 69, Type (0, 1), BuildingBlock: XUDNAN_clean_linker_2, # of connection points: 2
#     Edge 70, Type (0, 1), BuildingBlock: XUDNAN_clean_linker_2, # of connection points: 2
#     Edge 71, Type (0, 1), BuildingBlock: XUDNAN_clean_linker_2, # of connection points: 2
#     Edge 72, Type (0, 1), BuildingBlock: XUDNAN_clean_linker_2, # of connection points: 2
#     Edge 73, Type (0, 1), BuildingBlock: XUDNAN_clean_linker_2, # of connection points: 2
#     Edge 74, Type (0, 1), BuildingBlock: XUDNAN_clean_linker_2, # of connection points: 2
#     Edge 75, Type (0, 1), BuildingBlock: XUDNAN_clean_linker_2, # of connection points: 2
#     Edge 76, Type (0, 1), BuildingBlock: XUDNAN_clean_linker_2, # of connection points: 2
#     Edge 77, Type (0, 1), BuildingBlock: XUDNAN_clean_linker_2, # of connection points: 2
#     Edge 78, Type (0, 1), BuildingBlock: XUDNAN_clean_linker_2, # of connection points: 2
#     Edge 79, Type (0, 1), BuildingBlock: XUDNAN_clean_linker_2, # of connection points: 2
#     Edge 80, Type (0, 1), BuildingBlock: XUDNAN_clean_linker_2, # of connection points: 2
#     Edge 81, Type (0, 1), BuildingBlock: XUDNAN_clean_linker_2, # of connection points: 2
#     Edge 82, Type (0, 1), BuildingBlock: XUDNAN_clean_linker_2, # of connection points: 2
#     Edge 83, Type (0, 1), BuildingBlock: XUDNAN_clean_linker_2, # of connection points: 2
#     Edge 84, Type (0, 1), BuildingBlock: XUDNAN_clean_linker_2, # of connection points: 2
#     Edge 85, Type (0, 1), BuildingBlock: XUDNAN_clean_linker_2, # of connection points: 2
#     Edge 86, Type (0, 1), BuildingBlock: XUDNAN_clean_linker_2, # of connection points: 2
#     Edge 87, Type (0, 1), BuildingBlock: XUDNAN_clean_linker_2, # of connection points: 2
#     Edge 88, Type (0, 1), BuildingBlock: XUDNAN_clean_linker_2, # of connection points: 2
#     Edge 89, Type (0, 1), BuildingBlock: XUDNAN_clean_linker_2, # of connection points: 2
#     Edge 90, Type (0, 1), BuildingBlock: XUDNAN_clean_linker_2, # of connection points: 2
#     Edge 91, Type (0, 1), BuildingBlock: XUDNAN_clean_linker_2, # of connection points: 2
#     Edge 92, Type (0, 1), BuildingBlock: XUDNAN_clean_linker_2, # of connection points: 2
#     Edge 93, Type (0, 1), BuildingBlock: XUDNAN_clean_linker_2, # of connection points: 2
#     Edge 94, Type (0, 1), BuildingBlock: XUDNAN_clean_linker_2, # of connection points: 2
#     Edge 95, Type (0, 1), BuildingBlock: XUDNAN_clean_linker_2, # of connection points: 2
#     Edge 96, Type (0, 1), BuildingBlock: XUDNAN_clean_linker_2, # of connection points: 2
#     Edge 97, Type (0, 1), BuildingBlock: XUDNAN_clean_linker_2, # of connection points: 2
#     Edge 98, Type (0, 1), BuildingBlock: XUDNAN_clean_linker_2, # of connection points: 2
#     Edge 99, Type (0, 1), BuildingBlock: XUDNAN_clean_linker_2, # of connection points: 2
#     Edge 100, Type (0, 1), BuildingBlock: XUDNAN_clean_linker_2, # of connection points: 2
#     Edge 101, Type (0, 1), BuildingBlock: XUDNAN_clean_linker_2, # of connection points: 2
#     Edge 102, Type (0, 1), BuildingBlock: XUDNAN_clean_linker_2, # of connection points: 2
#     Edge 103, Type (0, 1), BuildingBlock: XUDNAN_clean_linker_2, # of connection points: 2
#     Edge 104, Type (0, 1), BuildingBlock: XUDNAN_clean_linker_2, # of connection points: 2
#     Edge 105, Type (0, 1), BuildingBlock: XUDNAN_clean_linker_2, # of connection points: 2
#     Edge 106, Type (0, 1), BuildingBlock: XUDNAN_clean_linker_2, # of connection points: 2
#     Edge 107, Type (0, 1), BuildingBlock: XUDNAN_clean_linker_2, # of connection points: 2
#     Edge 108, Type (0, 1), BuildingBlock: XUDNAN_clean_linker_2, # of connection points: 2
#     Edge 109, Type (0, 1), BuildingBlock: XUDNAN_clean_linker_2, # of connection points: 2
#     Edge 110, Type (0, 1), BuildingBlock: XUDNAN_clean_linker_2, # of connection points: 2
#     Edge 111, Type (0, 1), BuildingBlock: XUDNAN_clean_linker_2, # of connection points: 2
#     Edge 112, Type (0, 1), BuildingBlock: XUDNAN_clean_linker_2, # of connection points: 2
#     Edge 113, Type (0, 1), BuildingBlock: XUDNAN_clean_linker_2, # of connection points: 2
#     Edge 114, Type (0, 1), BuildingBlock: XUDNAN_clean_linker_2, # of connection points: 2
#     Edge 115, Type (0, 1), BuildingBlock: XUDNAN_clean_linker_2, # of connection points: 2
#     Edge 116, Type (0, 1), BuildingBlock: XUDNAN_clean_linker_2, # of connection points: 2
#     Edge 117, Type (0, 1), BuildingBlock: XUDNAN_clean_linker_2, # of connection points: 2
#     Edge 118, Type (0, 1), BuildingBlock: XUDNAN_clean_linker_2, # of connection points: 2
#     Edge 119, Type (0, 1), BuildingBlock: XUDNAN_clean_linker_2, # of connection points: 2
#     Edge 120, Type (0, 1), BuildingBlock: XUDNAN_clean_linker_2, # of connection points: 2
#     Edge 121, Type (0, 1), BuildingBlock: XUDNAN_clean_linker_2, # of connection points: 2
#     Edge 122, Type (0, 1), BuildingBlock: XUDNAN_clean_linker_2, # of connection points: 2
#     Edge 123, Type (0, 1), BuildingBlock: XUDNAN_clean_linker_2, # of connection points: 2
#     Edge 124, Type (0, 1), BuildingBlock: XUDNAN_clean_linker_2, # of connection points: 2
#     Edge 125, Type (0, 1), BuildingBlock: XUDNAN_clean_linker_2, # of connection points: 2
#     Edge 126, Type (0, 1), BuildingBlock: XUDNAN_clean_linker_2, # of connection points: 2
#     Edge 127, Type (0, 1), BuildingBlock: XUDNAN_clean_linker_2, # of connection points: 2
#     Edge 128, Type (0, 1), BuildingBlock: XUDNAN_clean_linker_2, # of connection points: 2
#     Edge 129, Type (0, 1), BuildingBlock: XUDNAN_clean_linker_2, # of connection points: 2
#     Edge 130, Type (0, 1), BuildingBlock: XUDNAN_clean_linker_2, # of connection points: 2
#     Edge 131, Type (0, 1), BuildingBlock: XUDNAN_clean_linker_2, # of connection points: 2
#     Edge 132, Type (0, 1), BuildingBlock: XUDNAN_clean_linker_2, # of connection points: 2
#     Edge 133, Type (0, 1), BuildingBlock: XUDNAN_clean_linker_2, # of connection points: 2
#     Edge 134, Type (0, 1), BuildingBlock: XUDNAN_clean_linker_2, # of connection points: 2
#     Edge 135, Type (0, 1), BuildingBlock: XUDNAN_clean_linker_2, # of connection points: 2
# Relax obj value: 0.211
# Max RMSD: 0.304
# Mean RMSD: 0.183
data_MOF--net-gar--node1-NAHDIM_clean_sbu_0--node2-BETGAK_clean_sbu_0--edge1-XUDNAN_clean_linker_2
_symmetry_space_group_name_H-M    P1
_symmetry_Int_Tables_number       1
_symmetry_cell_setting            triclinic
loop_
_symmetry_equiv_pos_as_xyz
'x, y, z'
_cell_length_a     63.544564
_cell_length_b     57.277254
_cell_length_c     56.459904
_cell_angle_alpha  99.379097
_cell_angle_beta   95.595193
_cell_angle_gamma 103.32977
loop_
_atom_site_label
_atom_site_type_symbol
_atom_site_fract_x
_atom_site_fract_y
_atom_site_fract_z
_atom_type_partial_charge
C0 C 0.15069 0.32823 0.35836 0.0
O1 O 0.15229 0.31908 0.37814 0.0
O2 O 0.11022 0.30475 0.391 0.0
Zn3 Zn 0.11135 0.33318 0.37396 0.0
O4 O 0.11755 0.36491 0.3965 0.0
C5 C 0.06697 0.30921 0.35486 0.0
O6 O 0.07044 0.29431 0.36929 0.0
O7 O 0.13396 0.33552 0.35243 0.0
C8 C 0.10232 0.36926 0.40799 0.0
O9 O 0.08385 0.35242 0.40535 0.0
C10 C 0.10791 0.30466 0.41307 0.0
O11 O 0.11001 0.32541 0.42805 0.0
O12 O 0.08221 0.32761 0.35377 0.0
C13 C 0.96839 0.74577 0.68577 0.0
O14 O 0.97658 0.72675 0.68627 0.0
O15 O 0.99824 0.72086 0.6427 0.0
Zn16 Zn 1.00201 0.75601 0.65754 0.0
O17 O 1.00975 0.77701 0.63329 0.0
C18 C 0.04425 0.75699 0.67309 0.0
O19 O 0.04191 0.74939 0.64952 0.0
O20 O 0.97639 0.76146 0.67346 0.0
C21 C 0.01666 0.79992 0.64066 0.0
O22 O 0.01642 0.80928 0.66345 0.0
C23 C 0.99494 0.71135 0.6203 0.0
O24 O 0.99023 0.72418 0.60418 0.0
O25 O 0.02848 0.76301 0.68253 0.0
C26 C 0.65187 0.8435 0.86113 0.0
O27 O 0.64324 0.85968 0.85249 0.0
O28 O 0.60264 0.80348 0.90051 0.0
Zn29 Zn 0.61371 0.8325 0.88535 0.0
O30 O 0.61717 0.8625 0.91009 0.0
C31 C 0.57352 0.81709 0.85251 0.0
O32 O 0.57079 0.79738 0.86209 0.0
O33 O 0.64188 0.83062 0.87475 0.0
C34 C 0.61386 0.88263 0.90623 0.0
O35 O 0.61038 0.88605 0.88388 0.0
C36 C 0.60042 0.80685 0.92281 0.0
O37 O 0.60689 0.82889 0.93606 0.0
O38 O 0.59132 0.83355 0.85849 0.0
C39 C 0.4615 0.24164 0.16916 0.0
O40 O 0.45943 0.22225 0.15225 0.0
O41 O 0.49878 0.2212 0.13501 0.0
Zn42 Zn 0.5036 0.25471 0.15505 0.0
O43 O 0.50597 0.27795 0.13252 0.0
C44 C 0.53899 0.24879 0.18761 0.0
O45 O 0.52797 0.22578 0.18383 0.0
O46 O 0.47932 0.25799 0.17374 0.0
C47 C 0.52438 0.29061 0.12948 0.0
O48 O 0.54235 0.28854 0.14161 0.0
C49 C 0.51509 0.2153 0.12681 0.0
O50 O 0.53436 0.2309 0.13192 0.0
O51 O 0.53118 0.26388 0.1778 0.0
C52 C 0.05173 0.80981 0.13199 0.0
O53 O 0.05205 0.8124 0.10933 0.0
O54 O 0.09561 0.78695 0.10393 0.0
Zn55 Zn 0.09783 0.8196 0.12769 0.0
O56 O 0.09682 0.85072 0.11116 0.0
C57 C 0.14176 0.81262 0.1442 0.0
O58 O 0.13922 0.80291 0.12106 0.0
O59 O 0.07002 0.8127 0.14515 0.0
C60 C 0.0939 0.84971 0.08819 0.0
O61 O 0.0931 0.82879 0.07407 0.0
C62 C 0.08309 0.77275 0.08558 0.0
O63 O 0.06612 0.77908 0.07587 0.0
O64 O 0.12702 0.82275 0.15197 0.0
C65 C 0.56339 0.77716 0.39919 0.0
O66 O 0.56534 0.76252 0.41447 0.0
O67 O 0.5213 0.74362 0.43044 0.0
Zn68 Zn 0.52004 0.77591 0.41604 0.0
O69 O 0.5254 0.80876 0.44006 0.0
C70 C 0.47861 0.78648 0.39169 0.0
O71 O 0.48571 0.80834 0.40538 0.0
O72 O 0.54565 0.78386 0.3962 0.0
C73 C 0.51642 0.81508 0.45843 0.0
O74 O 0.50189 0.79841 0.46568 0.0
C75 C 0.5316 0.73994 0.44973 0.0
O76 O 0.54361 0.75892 0.46548 0.0
O77 O 0.48997 0.77075 0.3933 0.0
C78 C 0.55264 0.29667 0.63373 0.0
O79 O 0.55344 0.28242 0.61332 0.0
O80 O 0.59719 0.28602 0.60395 0.0
Zn81 Zn 0.5986 0.31853 0.62692 0.0
O82 O 0.60117 0.34941 0.60938 0.0
C83 C 0.64644 0.32223 0.65022 0.0
O84 O 0.65288 0.32919 0.6305 0.0
O85 O 0.56965 0.31371 0.64329 0.0
C86 C 0.58481 0.35501 0.59839 0.0
O87 O 0.56527 0.34048 0.59708 0.0
C88 C 0.58824 0.27321 0.58321 0.0
O89 O 0.57526 0.28157 0.56907 0.0
O90 O 0.62609 0.3191 0.65273 0.0
C91 C 0.06273 0.29094 0.90288 0.0
O92 O 0.06656 0.30791 0.92257 0.0
O93 O 0.01708 0.23844 0.93078 0.0
Zn94 Zn 0.0177 0.27107 0.91705 0.0
O95 O 0.02256 0.30224 0.94352 0.0
C96 C 0.97325 0.27721 0.90254 0.0
O97 O 0.97532 0.28386 0.92622 0.0
O98 O 0.04416 0.27528 0.89771 0.0
C99 C 0.02404 0.3222 0.93572 0.0
O100 O 0.02265 0.32131 0.9122 0.0
C101 C 0.02773 0.2355 0.95019 0.0
O102 O 0.03971 0.25493 0.9654 0.0
O103 O 0.9887 0.26944 0.8936 0.0
C104 C 0.41742 0.07568 0.29172 0.0
O105 O 0.43638 0.08454 0.28496 0.0
O106 O 0.4456 0.04368 0.25802 0.0
Zn107 Zn 0.43564 0.03727 0.28873 0.0
O108 O 0.45949 0.0464 0.31606 0.0
C109 C 0.43441 0.98649 0.27859 0.0
O110 O 0.45579 0.99385 0.28144 0.0
O111 O 0.41292 0.05423 0.29595 0.0
C112 C 0.45922 0.03344 0.33225 0.0
O113 O 0.44289 0.01421 0.33087 0.0
C114 C 0.46329 0.03826 0.25406 0.0
O115 O 0.47772 0.03892 0.27265 0.0
O116 O 0.42292 1.00183 0.28186 0.0
C117 C 0.32779 0.17375 0.51836 0.0
O118 O 0.3313 0.19156 0.53728 0.0
O119 O 0.29273 0.21341 0.53648 0.0
Zn120 Zn 0.28857 0.19207 0.50185 0.0
O121 O 0.29597 0.21064 0.47247 0.0
C122 C 0.24498 0.16258 0.5118 0.0
O123 O 0.25474 0.16761 0.53429 0.0
O124 O 0.31092 0.17035 0.50254 0.0
C125 C 0.28931 0.22703 0.46294 0.0
O126 O 0.27456 0.23667 0.47267 0.0
C127 C 0.29509 0.23639 0.54273 0.0
O128 O 0.29588 0.24971 0.52583 0.0
O129 O 0.25588 0.1704 0.49541 0.0
C130 C 0.19635 0.96898 0.77553 0.0
O131 O 0.17576 0.96069 0.77796 0.0
O132 O 0.15838 0.01921 0.74446 0.0
Zn133 Zn 0.1821 0.02386 0.77928 0.0
O134 O 0.16552 0.02557 0.81503 0.0
C135 C 0.21271 0.07548 0.7674 0.0
O136 O 0.21322 0.0633 0.74572 0.0
O137 O 0.20249 0.99265 0.77556 0.0
C138 C 0.14628 0.01772 0.82171 0.0
O139 O 0.13058 1.00437 0.80469 0.0
C140 C 0.15338 0.03609 0.73362 0.0
O141 O 0.16149 0.05894 0.74453 0.0
O142 O 0.20257 0.06328 0.78236 0.0
C143 C 0.28368 0.96221 0.02162 0.0
O144 O 0.28264 0.94341 0.03244 0.0
O145 O 0.32691 0.93244 0.03034 0.0
Zn146 Zn 0.32222 0.9515 1.00475 0.0
O147 O 0.31747 0.93037 0.97232 0.0
C148 C 0.36526 0.98082 0.02212 0.0
O149 O 0.36137 0.97416 0.04279 0.0
O150 O 0.29888 0.9681 0.00915 0.0
C151 C 0.33276 0.92009 0.96811 0.0
O152 O 0.34939 0.92308 0.985 0.0
C153 C 0.3207 0.90931 0.02635 0.0
O154 O 0.30855 0.89757 1.00581 0.0
O155 O 0.34983 0.97564 1.00466 0.0
C156 C 0.28596 0.40777 0.02635 0.0
O157 O 0.28435 0.3843 0.01944 0.0
O158 O 0.32867 0.38641 0.07132 0.0
Zn159 Zn 0.3303 0.40412 0.04027 0.0
O160 O 0.3274 0.38209 1.00582 0.0
C161 C 0.37425 0.43128 0.02961 0.0
O162 O 0.36851 0.41667 0.00832 0.0
O163 O 0.30451 0.42132 0.0369 0.0
C164 C 0.33117 0.36117 0.99953 0.0
O165 O 0.33759 0.35011 0.01649 0.0
C166 C 0.31606 0.36557 0.07187 0.0
O167 O 0.30326 0.35362 0.05178 0.0
O168 O 0.36088 0.4296 0.04526 0.0
C169 C 0.83591 0.13422 0.01564 0.0
O170 O 0.83628 0.155 0.00856 0.0
O171 O 0.80817 0.16604 0.07159 0.0
Zn172 Zn 0.80113 0.14684 0.03759 0.0
O173 O 0.79896 0.16866 0.0139 0.0
C174 C 0.75829 0.14297 0.03933 0.0
O175 O 0.76762 0.16643 0.04276 0.0
O176 O 0.82217 0.12647 0.02927 0.0
C177 C 0.7891 0.15832 0.99286 0.0
O178 O 0.78439 0.13438 0.98675 0.0
C179 C 0.80883 0.18869 0.07634 0.0
O180 O 0.8093 0.20105 0.05866 0.0
O181 O 0.76993 0.12772 0.03559 0.0
C182 C 0.19798 0.51622 0.2479 0.0
O183 O 0.17734 0.50482 0.24656 0.0
O184 O 0.1579 0.53977 0.21193 0.0
Zn185 Zn 0.17789 0.55257 0.24242 0.0
O186 O 0.16428 0.55019 0.27217 0.0
C187 C 0.18228 0.6049 0.25467 0.0
O188 O 0.1681 0.60081 0.26985 0.0
O189 O 0.20298 0.53793 0.24443 0.0
C190 C 0.17901 0.55809 0.29046 0.0
O191 O 0.1995 0.56525 0.2872 0.0
C192 C 0.14417 0.55259 0.21111 0.0
O193 O 0.14174 0.56634 0.23113 0.0
O194 O 0.18873 0.58769 0.24285 0.0
C195 C 0.78823 0.90883 0.52456 0.0
O196 O 0.78668 0.88542 0.5174 0.0
O197 O 0.82955 0.888 0.57104 0.0
Zn198 Zn 0.83204 0.90505 0.53968 0.0
O199 O 0.8285 0.88236 0.50551 0.0
C200 C 0.8793 0.92097 0.54171 0.0
O201 O 0.87605 0.89729 0.54056 0.0
O202 O 0.80652 0.92229 0.53591 0.0
C203 C 0.83344 0.86208 0.49922 0.0
O204 O 0.8416 0.85209 0.51613 0.0
C205 C 0.81701 0.86681 0.57025 0.0
O206 O 0.80647 0.85478 0.54898 0.0
O207 O 0.86269 0.92996 0.54257 0.0
C208 C 0.9062 0.11287 0.27618 0.0
O209 O 0.90247 0.10562 0.29661 0.0
O210 O 0.95262 0.06742 0.22625 0.0
Zn211 Zn 0.93415 0.06698 0.26052 0.0
O212 O 0.95501 0.06607 0.29594 0.0
C213 C 0.91021 0.01269 0.26845 0.0
O214 O 0.92464 0.01841 0.2881 0.0
O215 O 0.91712 0.10065 0.26214 0.0
C216 C 0.96696 0.08 0.31555 0.0
O217 O 0.97008 0.10375 0.31757 0.0
C218 C 0.9631 0.0535 0.21375 0.0
O219 O 0.96531 0.03379 0.22173 0.0
O220 O 0.91045 0.02926 0.25498 0.0
C221 C 0.33819 0.63633 0.51982 0.0
O222 O 0.33825 0.65824 0.51565 0.0
O223 O 0.30363 0.66144 0.57131 0.0
Zn224 Zn 0.29947 0.64205 0.53751 0.0
O225 O 0.29658 0.66348 0.51378 0.0
C226 C 0.25572 0.63169 0.53594 0.0
O227 O 0.26208 0.65549 0.53791 0.0
O228 O 0.32323 0.62542 0.53047 0.0
C229 C 0.28969 0.65378 0.49176 0.0
O230 O 0.28715 0.63018 0.4846 0.0
C231 C 0.30213 0.68346 0.57502 0.0
O232 O 0.30162 0.69499 0.55677 0.0
O233 O 0.26975 0.6191 0.53417 0.0
C234 C 0.40619 0.61287 0.77198 0.0
O235 O 0.40223 0.60504 0.79209 0.0
O236 O 0.45479 0.56357 0.72483 0.0
Zn237 Zn 0.43562 0.56826 0.75861 0.0
O238 O 0.45685 0.57305 0.79532 0.0
C239 C 0.40786 0.51649 0.77092 0.0
O240 O 0.41487 0.5262 0.79386 0.0
O241 O 0.41776 0.60134 0.75811 0.0
C242 C 0.46432 0.55723 0.80576 0.0
O243 O 0.46071 0.53493 0.79322 0.0
C244 C 0.46506 0.57718 0.71075 0.0
O245 O 0.46643 0.60072 0.71599 0.0
O246 O 0.41302 0.53022 0.75499 0.0
C247 C 0.68192 1.00788 0.74991 0.0
O248 O 0.67377 1.00424 0.72694 0.0
O249 O 0.66871 0.04647 0.71383 0.0
Zn250 Zn 0.66822 0.0517 0.75001 0.0
O251 O 0.63687 0.05171 0.75324 0.0
C252 C 0.68586 0.10441 0.76176 0.0
O253 O 0.66607 0.10651 0.75557 0.0
O254 O 0.68032 0.02667 0.76429 0.0
C255 C 0.6294 0.06404 0.76962 0.0
O256 O 0.6086 0.06382 0.7667 0.0
C257 C 0.65918 0.06002 0.7034 0.0
O258 O 0.65026 0.07511 0.7165 0.0
O259 O 0.68919 0.08368 0.76304 0.0
C260 C 0.82504 0.67062 0.01248 0.0
O261 O 0.82055 0.67719 0.03443 0.0
O262 O 0.78887 0.71056 0.02872 0.0
Zn263 Zn 0.78735 0.69113 0.99346 0.0
O264 O 0.79118 0.71042 0.9636 0.0
C265 C 0.74151 0.66689 1.00069 0.0
O266 O 0.74425 0.68692 0.01697 0.0
O267 O 0.81323 0.67414 0.9943 0.0
C268 C 0.7865 0.73067 0.96164 0.0
O269 O 0.77796 0.74117 0.97945 0.0
C270 C 0.79766 0.73125 0.0426 0.0
O271 O 0.81036 0.74848 0.03401 0.0
O272 O 0.757 0.6647 0.98809 0.0
C273 C 0.92197 0.58011 0.80077 0.0
O274 O 0.94243 0.58579 0.81098 0.0
O275 O 0.95465 0.54811 0.77684 0.0
Zn276 Zn 0.93249 0.53771 0.79729 0.0
O277 O 0.94681 0.54075 0.83058 0.0
C278 C 0.91864 0.48977 0.76363 0.0
O279 O 0.92424 0.49947 0.74494 0.0
O280 O 0.91175 0.55781 0.79477 0.0
C281 C 0.94204 0.52291 0.84145 0.0
O282 O 0.92564 0.50408 0.83184 0.0
C283 C 0.96795 0.53497 0.77322 0.0
O284 O 0.96958 0.51922 0.7874 0.0
O285 O 0.91949 0.50293 0.78424 0.0
C286 C 0.78728 0.46122 0.52823 0.0
O287 O 0.80004 0.45535 0.54477 0.0
O288 O 0.82809 0.43174 0.5247 0.0
Zn289 Zn 0.82025 0.45151 0.5007 0.0
O290 O 0.81866 0.43064 0.46806 0.0
C291 C 0.86066 0.48536 0.52099 0.0
O292 O 0.85659 0.47668 0.54067 0.0
O293 O 0.79256 0.46109 0.50705 0.0
C294 C 0.83573 0.42279 0.46626 0.0
O295 O 0.85191 0.42988 0.48429 0.0
C296 C 0.82152 0.40862 0.52042 0.0
O297 O 0.80804 0.39738 0.50059 0.0
O298 O 0.84567 0.47998 0.50295 0.0
C299 C 0.70716 0.47516 0.28571 0.0
O300 O 0.70756 0.48106 0.30925 0.0
O301 O 0.6583 0.51787 0.24351 0.0
Zn302 Zn 0.68176 0.52225 0.2781 0.0
O303 O 0.66316 0.52129 0.31236 0.0
C304 C 0.70889 0.58229 0.28911 0.0
O305 O 0.70025 0.58607 0.30913 0.0
O306 O 0.69852 0.48836 0.27223 0.0
C307 C 0.65751 0.53686 0.32886 0.0
O308 O 0.66298 0.56001 0.32721 0.0
C309 C 0.65749 0.53387 0.22963 0.0
O310 O 0.67109 0.55555 0.23663 0.0
O311 O 0.70436 0.55985 0.27687 0.0
La312 La 0.03698 0.02567 1.00215 0.0
La313 La 0.07451 0.05574 0.03599 0.0
C314 C 0.99756 1.0066 0.98518 0.0
C315 C 0.97865 0.01701 0.98667 0.0
C316 C 0.96062 1.00859 0.96843 0.0
C317 C 0.94388 0.02069 0.968 0.0
C318 C 0.94504 0.04137 0.98582 0.0
C319 C 0.96308 0.04958 1.00421 0.0
C320 C 0.97979 0.03754 1.00458 0.0
C321 C 0.07044 0.02846 0.97506 0.0
C322 C 0.04803 0.0836 1.00544 0.0
C323 C 0.11342 0.07503 0.05484 0.0
C324 C 0.13262 0.06529 0.05368 0.0
C325 C 0.15113 0.07528 0.07113 0.0
C326 C 0.16911 0.06517 0.07045 0.0
C327 C 0.16844 0.04486 0.05254 0.0
C328 C 0.14966 0.03441 0.03559 0.0
C329 C 0.1318 0.04457 0.03616 0.0
C330 C 0.04089 0.05364 0.0626 0.0
C331 C 0.06418 0.9971 0.0303 0.0
O332 O 0.01189 0.01747 0.97289 0.0
O333 O 1.00678 1.00291 1.00555 0.0
O334 O 0.05055 0.01557 0.96868 0.0
O335 O 0.0716 0.03841 0.99771 0.0
O336 O 0.03386 0.06216 0.9981 0.0
O337 O 0.06596 0.08591 0.02056 0.0
O338 O 0.09873 0.06305 0.06596 0.0
O339 O 0.10482 0.07938 0.03448 0.0
O340 O 0.06066 0.0666 0.06915 0.0
O341 O 0.03998 0.0435 0.04013 0.0
O342 O 0.07792 0.01864 0.03927 0.0
O343 O 0.04647 0.99526 0.01517 0.0
H344 H 0.95974 0.99306 0.95423 0.0
H345 H 0.93009 0.01394 0.95371 0.0
H346 H 0.96456 0.0657 0.01792 0.0
H347 H 0.9939 0.04468 0.01846 0.0
H348 H 0.15173 0.09097 0.08503 0.0
H349 H 0.18372 0.07356 0.08339 0.0
H350 H 0.14916 0.01897 0.02141 0.0
H351 H 0.11744 0.03641 0.0228 0.0
La352 La 0.32272 0.79122 0.24525 0.0
La353 La 0.29787 0.79263 0.28258 0.0
C354 C 0.34539 0.79739 0.21148 0.0
C355 C 0.35407 0.81583 0.19753 0.0
C356 C 0.37241 0.81374 0.18631 0.0
C357 C 0.37862 0.82778 0.16905 0.0
C358 C 0.36649 0.84405 0.16292 0.0
C359 C 0.34962 0.84808 0.17616 0.0
C360 C 0.34337 0.83395 0.19344 0.0
C361 C 0.34208 0.7779 0.28316 0.0
C362 C 0.32506 0.8411 0.27755 0.0
C363 C 0.27553 0.78674 0.31674 0.0
C364 C 0.26831 0.76837 0.33127 0.0
C365 C 0.24944 0.76853 0.34212 0.0
C366 C 0.2434 0.75293 0.35816 0.0
C367 C 0.25626 0.73708 0.36357 0.0
C368 C 0.27443 0.73593 0.35146 0.0
C369 C 0.28037 0.75143 0.33529 0.0
C370 C 0.27763 0.80337 0.24322 0.0
C371 C 0.29563 0.74253 0.25023 0.0
O372 O 0.35353 0.80192 0.23429 0.0
O373 O 0.32425 0.78826 0.20798 0.0
O374 O 0.3396 0.76718 0.26081 0.0
O375 O 0.3328 0.79545 0.28427 0.0
O376 O 0.32372 0.82978 0.25507 0.0
O377 O 0.31819 0.82888 0.29407 0.0
O378 O 0.26736 0.7809 0.29392 0.0
O379 O 0.2964 0.79726 0.31995 0.0
O380 O 0.27997 0.81535 0.26513 0.0
O381 O 0.28788 0.78686 0.24375 0.0
O382 O 0.29659 0.75391 0.27269 0.0
O383 O 0.3025 0.75482 0.23368 0.0
H384 H 0.38102 0.80006 0.18966 0.0
H385 H 0.39168 0.82447 0.15903 0.0
H386 H 0.33997 0.86045 0.17157 0.0
H387 H 0.32937 0.83602 0.20233 0.0
H388 H 0.23983 0.78135 0.33886 0.0
H389 H 0.22926 0.75401 0.36715 0.0
H390 H 0.28477 0.72405 0.3555 0.0
H391 H 0.29483 0.75089 0.32672 0.0
La392 La 0.58654 0.04633 0.51416 0.0
La393 La 0.53848 0.04622 0.52075 0.0
C394 C 0.62498 0.04047 0.51791 0.0
C395 C 0.6384 0.02226 0.51462 0.0
C396 C 0.64087 0.01054 0.49147 0.0
C397 C 0.65566 0.99573 0.48885 0.0
C398 C 0.66859 0.99259 0.50925 0.0
C399 C 0.66588 1.00405 0.53234 0.0
C400 C 0.65095 0.01861 0.53498 0.0
C401 C 0.56241 0.05332 0.47742 0.0
C402 C 0.54922 0.99532 0.50626 0.0
C403 C 0.5002 0.05268 0.51947 0.0
C404 C 0.48637 0.07065 0.51998 0.0
C405 C 0.47375 0.07357 0.53895 0.0
C406 C 0.45761 0.08672 0.53776 0.0
C407 C 0.45346 0.0971 0.5174 0.0
C408 C 0.46698 0.09537 0.49911 0.0
C409 C 0.48316 0.08233 0.50035 0.0
C410 C 0.56382 0.03998 0.55721 0.0
C411 C 0.57549 0.09683 0.52969 0.0
O412 O 0.61515 0.04551 0.49857 0.0
O413 O 0.61306 0.04017 0.53561 0.0
O414 O 0.58325 0.06312 0.48257 0.0
O415 O 0.55614 0.03892 0.49135 0.0
O416 O 0.57033 1.00682 0.50891 0.0
O417 O 0.53351 1.00706 0.50794 0.0
O418 O 0.51269 0.05299 0.53946 0.0
O419 O 0.50943 0.04752 0.50009 0.0
O420 O 0.54304 0.02974 0.55298 0.0
O421 O 0.56891 0.054 0.54286 0.0
O422 O 0.55446 0.08543 0.52315 0.0
O423 O 0.59086 0.08462 0.53087 0.0
H424 H 0.63173 0.01317 0.47533 0.0
H425 H 0.65739 0.98722 0.4708 0.0
H426 H 0.67531 1.00173 0.54844 0.0
H427 H 0.6496 0.02753 0.55303 0.0
H428 H 0.47562 0.06463 0.55424 0.0
H429 H 0.44751 0.0875 0.55211 0.0
H430 H 0.46451 0.10342 0.48331 0.0
H431 H 0.4925 0.08056 0.48539 0.0
La432 La 0.28616 0.30561 0.77205 0.0
La433 La 0.33124 0.29008 0.76901 0.0
C434 C 0.24672 0.30534 0.77635 0.0
C435 C 0.23053 0.30404 0.79381 0.0
C436 C 0.21904 0.32235 0.79722 0.0
C437 C 0.2017 0.32023 0.81104 0.0
C438 C 0.19526 0.29957 0.82156 0.0
C439 C 0.20747 0.28185 0.81915 0.0
C440 C 0.22493 0.28406 0.80551 0.0
C441 C 0.31954 0.34449 0.76916 0.0
C442 C 0.31722 0.30769 0.82081 0.0
C443 C 0.37123 0.29556 0.7636 0.0
C444 C 0.38654 0.29076 0.74584 0.0
C445 C 0.39555 0.27043 0.745 0.0
C446 C 0.41207 0.26772 0.73068 0.0
C447 C 0.42031 0.28537 0.71689 0.0
C448 C 0.41105 0.30551 0.71747 0.0
C449 C 0.39447 0.30817 0.73171 0.0
C450 C 0.29801 0.25037 0.7702 0.0
C451 C 0.29967 0.28679 0.72021 0.0
O452 O 0.26268 0.32513 0.78023 0.0
O453 O 0.25325 0.28571 0.76839 0.0
O454 O 0.29914 0.34456 0.76892 0.0
O455 O 0.31957 0.3224 0.77047 0.0
O456 O 0.29766 0.30791 0.81035 0.0
O457 O 0.33298 0.30255 0.80847 0.0
O458 O 0.35998 0.27737 0.77222 0.0
O459 O 0.35981 0.31128 0.75989 0.0
O460 O 0.31817 0.25016 0.7678 0.0
O461 O 0.29771 0.27289 0.77119 0.0
O462 O 0.31828 0.28385 0.73062 0.0
O463 O 0.28491 0.29465 0.73251 0.0
H464 H 0.22293 0.33791 0.78835 0.0
H465 H 0.19253 0.33406 0.8123 0.0
H466 H 0.20299 0.26579 0.82718 0.0
H467 H 0.23349 0.26971 0.80342 0.0
H468 H 0.39026 0.2569 0.75595 0.0
H469 H 0.41888 0.25209 0.73107 0.0
H470 H 0.41665 0.31934 0.70693 0.0
H471 H 0.38824 0.32428 0.73208 0.0
La472 La 0.05537 0.07296 0.53159 0.0
La473 La 0.0638 0.02387 0.51107 0.0
C474 C 0.06053 0.11847 0.54065 0.0
C475 C 0.05985 0.13536 0.52378 0.0
C476 C 0.05021 0.1549 0.52919 0.0
C477 C 0.04871 0.17033 0.51261 0.0
C478 C 0.05684 0.16637 0.49037 0.0
C479 C 0.06606 0.1464 0.48489 0.0
C480 C 0.06747 0.13101 0.50137 0.0
C481 C 0.02038 0.03689 0.53279 0.0
C482 C 0.03928 0.04958 0.47422 0.0
C483 C 0.06519 0.97977 0.50253 0.0
C484 C 0.06476 0.96034 0.51692 0.0
C485 C 0.08329 0.95123 0.52075 0.0
C486 C 0.08308 0.93292 0.53445 0.0
C487 C 0.06442 0.92374 0.54479 0.0
C488 C 0.04592 0.93277 0.5409 0.0
C489 C 0.04597 0.9506 0.52682 0.0
C490 C 0.09282 0.06266 0.50393 0.0
C491 C 0.07567 0.04518 0.56993 0.0
O492 O 0.04194 0.10294 0.5407 0.0
O493 O 0.07678 0.10796 0.54034 0.0
O494 O 0.02183 0.05984 0.5406 0.0
O495 O 0.0383 0.03587 0.52546 0.0
O496 O 0.04546 0.06976 0.49148 0.0
O497 O 0.04289 0.0286 0.47898 0.0
O498 O 0.08263 0.9981 0.50751 0.0
O499 O 0.0472 0.98706 0.49918 0.0
O500 O 0.08593 0.04211 0.48861 0.0
O501 O 0.08382 0.06052 0.52282 0.0
O502 O 0.07476 0.02727 0.55104 0.0
O503 O 0.06862 0.06489 0.56662 0.0
H504 H 0.04382 0.1582 0.54618 0.0
H505 H 0.04129 0.18538 0.51723 0.0
H506 H 0.07283 0.143 0.46816 0.0
H507 H 0.07467 0.11578 0.4966 0.0
H508 H 0.09789 0.9582 0.51305 0.0
H509 H 0.09747 0.92602 0.53706 0.0
H510 H 0.03114 0.92551 0.54819 0.0
H511 H 0.03114 0.95639 0.52345 0.0
La512 La 0.326 0.81314 0.76668 0.0
La513 La 0.28732 0.77735 0.77708 0.0
C514 C 0.36445 0.83924 0.77466 0.0
C515 C 0.3864 0.83474 0.77749 0.0
C516 C 0.40192 0.84485 0.76359 0.0
C517 C 0.42345 0.84306 0.7679 0.0
C518 C 0.42989 0.83133 0.78638 0.0
C519 C 0.41407 0.82016 0.79951 0.0
C520 C 0.39251 0.82178 0.79507 0.0
C521 C 0.30112 0.7852 0.72838 0.0
C522 C 0.33043 0.75664 0.773 0.0
C523 C 0.24907 0.75126 0.77278 0.0
C524 C 0.22723 0.75597 0.77048 0.0
C525 C 0.21155 0.74471 0.78361 0.0
C526 C 0.18991 0.74605 0.77907 0.0
C527 C 0.18376 0.75886 0.76149 0.0
C528 C 0.19975 0.77173 0.7497 0.0
C529 C 0.22136 0.77024 0.75411 0.0
C530 C 0.31185 0.80686 0.81498 0.0
C531 C 0.28259 0.83312 0.76836 0.0
O532 O 0.35303 0.83252 0.75292 0.0
O533 O 0.35262 0.83395 0.79171 0.0
O534 O 0.31191 0.80763 0.72876 0.0
O535 O 0.30601 0.7792 0.74828 0.0
O536 O 0.33954 0.77952 0.76979 0.0
O537 O 0.30926 0.7512 0.77595 0.0
O538 O 0.2614 0.76009 0.79376 0.0
O539 O 0.25991 0.75433 0.75448 0.0
O540 O 0.30173 0.78448 0.81543 0.0
O541 O 0.30667 0.81151 0.79465 0.0
O542 O 0.27325 0.80964 0.76966 0.0
O543 O 0.30425 0.83945 0.7682 0.0
H544 H 0.39755 0.85473 0.74985 0.0
H545 H 0.43521 0.85141 0.75716 0.0
H546 H 0.41852 0.81112 0.81396 0.0
H547 H 0.38084 0.81359 0.80599 0.0
H548 H 0.21579 0.73381 0.79644 0.0
H549 H 0.17771 0.73584 0.78817 0.0
H550 H 0.19523 0.78135 0.73577 0.0
H551 H 0.23318 0.77916 0.74376 0.0
La552 La 0.5635 0.04043 0.04932 0.0
La553 La 0.55889 0.04589 0.998 0.0
C554 C 0.5563 0.03571 0.09129 0.0
C555 C 0.53881 0.01846 0.09953 0.0
C556 C 0.54167 0.99583 0.10398 0.0
C557 C 0.52498 0.97955 0.1117 0.0
C558 C 0.5052 0.98568 0.11512 0.0
C559 C 0.50219 1.00797 0.10991 0.0
C560 C 0.51878 0.02417 0.10225 0.0
C561 C 0.5812 0.01196 0.02074 0.0
C562 C 0.5202 0.0114 0.01245 0.0
C563 C 0.56543 0.05256 0.95634 0.0
C564 C 0.58486 0.06465 0.94685 0.0
C565 C 0.58301 0.08169 0.93211 0.0
C566 C 0.60105 0.09295 0.92226 0.0
C567 C 0.62119 0.08714 0.92687 0.0
C568 C 0.62336 0.07121 0.94289 0.0
C569 C 0.60534 0.06015 0.95297 0.0
C570 C 0.53977 0.07272 0.02642 0.0
C571 C 0.60231 0.07289 0.03382 0.0
O572 O 0.57031 0.0261 0.08024 0.0
O573 O 0.55025 0.05207 0.08034 0.0
O574 O 0.58879 0.021 0.04327 0.0
O575 O 0.56338 0.01716 0.01564 0.0
O576 O 0.52964 0.02047 0.03511 0.0
O577 O 0.53034 0.01609 0.99382 0.0
O578 O 0.55769 0.0672 0.97136 0.0
O579 O 0.56577 0.03206 0.96367 0.0
O580 O 0.53176 0.06213 1.00433 0.0
O581 O 0.55835 0.06907 0.03165 0.0
O582 O 0.59354 0.06165 0.01156 0.0
O583 O 0.59145 0.07079 0.05237 0.0
H584 H 0.55695 0.99088 0.10195 0.0
H585 H 0.52784 0.96269 0.116 0.0
H586 H 0.48748 0.01373 0.11327 0.0
H587 H 0.51603 0.04143 0.09901 0.0
H588 H 0.56742 0.08574 0.92762 0.0
H589 H 0.59879 0.10482 0.90964 0.0
H590 H 0.63868 0.06635 0.94652 0.0
H591 H 0.60732 0.04758 0.96491 0.0
La592 La 0.32595 0.32632 0.28383 0.0
La593 La 0.30262 0.27508 0.26358 0.0
C594 C 0.33772 0.37204 0.29825 0.0
C595 C 0.32486 0.39018 0.29801 0.0
C596 C 0.33047 0.41197 0.31526 0.0
C597 C 0.31718 0.42838 0.31556 0.0
C598 C 0.29788 0.42276 0.29895 0.0
C599 C 0.29195 0.40027 0.2826 0.0
C600 C 0.30562 0.38461 0.28162 0.0
C601 C 0.32321 0.29596 0.31519 0.0
C602 C 0.27385 0.3098 0.27553 0.0
C603 C 0.29056 0.22968 0.26053 0.0
C604 C 0.29986 0.20953 0.25097 0.0
C605 C 0.28618 0.186 0.24311 0.0
C606 C 0.2952 0.16587 0.23988 0.0
C607 C 0.31791 0.16929 0.24424 0.0
C608 C 0.33162 0.19295 0.24914 0.0
C609 C 0.32263 0.21297 0.25275 0.0
C610 C 0.30778 0.29694 0.22507 0.0
C611 C 0.3524 0.29222 0.26228 0.0
O612 O 0.33185 0.35655 0.31237 0.0
O613 O 0.34042 0.36101 0.27701 0.0
O614 O 0.34095 0.31168 0.31327 0.0
O615 O 0.3083 0.29696 0.29917 0.0
O616 O 0.2916 0.32781 0.27771 0.0
O617 O 0.27448 0.28682 0.27217 0.0
O618 O 0.28282 0.24106 0.24478 0.0
O619 O 0.30227 0.24474 0.27968 0.0
O620 O 0.29836 0.27439 0.22485 0.0
O621 O 0.31426 0.30719 0.24725 0.0
O622 O 0.33684 0.2755 0.26787 0.0
O623 O 0.35165 0.31525 0.26569 0.0
H624 H 0.34516 0.41635 0.3283 0.0
H625 H 0.32225 0.44559 0.32834 0.0
H626 H 0.27686 0.39485 0.27011 0.0
H627 H 0.30108 0.36816 0.26788 0.0
H628 H 0.2686 0.18305 0.24147 0.0
H629 H 0.28447 0.14762 0.23627 0.0
H630 H 0.34919 0.1959 0.25299 0.0
H631 H 0.33356 0.23084 0.25908 0.0
La632 La 0.5586 0.5695 0.03116 0.0
La633 La 0.56053 0.52388 0.00754 0.0
C634 C 0.56064 0.61436 0.04195 0.0
C635 C 0.55885 0.63258 0.0267 0.0
C636 C 0.53883 0.63848 0.02169 0.0
C637 C 0.53692 0.65519 0.0067 0.0
C638 C 0.55506 0.66646 0.99665 0.0
C639 C 0.57501 0.66033 1.00142 0.0
C640 C 0.5769 0.64358 0.01631 0.0
C641 C 0.52526 0.53462 0.03798 0.0
C642 C 0.54017 0.55306 0.97302 0.0
C643 C 0.5598 0.47933 0.99705 0.0
C644 C 0.55766 0.46072 0.01222 0.0
C645 C 0.5688 0.44228 0.00834 0.0
C646 C 0.56598 0.42395 0.02217 0.0
C647 C 0.55194 0.424 0.03985 0.0
C648 C 0.54175 0.44316 0.04459 0.0
C649 C 0.54472 0.46154 0.03099 0.0
C650 C 0.59402 0.55892 1.00106 0.0
C651 C 0.57769 0.53984 0.0657 0.0
O652 O 0.54289 0.59728 0.04135 0.0
O653 O 0.57781 0.60552 0.04098 0.0
O654 O 0.53635 0.553 0.05438 0.0
O655 O 0.53291 0.53621 0.01823 0.0
O656 O 0.54797 0.57114 0.9922 0.0
O657 O 0.54175 0.53082 0.97523 0.0
O658 O 0.5778 0.49668 1.00262 0.0
O659 O 0.54265 0.4879 0.99326 0.0
O660 O 0.58297 0.54059 0.98464 0.0
O661 O 0.5862 0.55708 0.02067 0.0
O662 O 0.5687 0.52172 0.04689 0.0
O663 O 0.57771 0.56237 0.06302 0.0
H664 H 0.52462 0.63021 0.02937 0.0
H665 H 0.52132 0.65951 1.0032 0.0
H666 H 0.58941 0.66908 0.99434 0.0
H667 H 0.59258 0.63943 0.0198 0.0
H668 H 0.57916 0.44171 0.99423 0.0
H669 H 0.5738 0.40911 0.01824 0.0
H670 H 0.53083 0.44336 0.05818 0.0
H671 H 0.53637 0.47596 0.03467 0.0
La672 La 0.82665 0.31344 0.26967 0.0
La673 La 0.7887 0.27649 0.27812 0.0
C674 C 0.86436 0.34124 0.27685 0.0
C675 C 0.88586 0.33638 0.28227 0.0
C676 C 0.90149 0.34071 0.26651 0.0
C677 C 0.92103 0.33372 0.27027 0.0
C678 C 0.92502 0.3222 0.28976 0.0
C679 C 0.90974 0.31869 0.30597 0.0
C680 C 0.89034 0.32566 0.30227 0.0
C681 C 0.80204 0.28655 0.23027 0.0
C682 C 0.83218 0.25719 0.27492 0.0
C683 C 0.75089 0.24955 0.27366 0.0
C684 C 0.72978 0.25473 0.2674 0.0
C685 C 0.71217 0.24574 0.27924 0.0
C686 C 0.69216 0.25112 0.2737 0.0
C687 C 0.68964 0.26568 0.25637 0.0
C688 C 0.70745 0.27519 0.24499 0.0
C689 C 0.72737 0.26968 0.2504 0.0
C690 C 0.81399 0.3021 0.31727 0.0
C691 C 0.78306 0.33204 0.27078 0.0
O692 O 0.85379 0.33124 0.25513 0.0
O693 O 0.85169 0.33884 0.29372 0.0
O694 O 0.81202 0.30945 0.23185 0.0
O695 O 0.80727 0.27994 0.24963 0.0
O696 O 0.84128 0.28061 0.27327 0.0
O697 O 0.81078 0.25086 0.27635 0.0
O698 O 0.7618 0.26163 0.29462 0.0
O699 O 0.76321 0.24939 0.2564 0.0
O700 O 0.80449 0.27904 0.31486 0.0
O701 O 0.80821 0.30977 0.29867 0.0
O702 O 0.77387 0.30826 0.27074 0.0
O703 O 0.80468 0.33897 0.27168 0.0
H704 H 0.89832 0.3489 0.25097 0.0
H705 H 0.93271 0.33664 0.25762 0.0
H706 H 0.91272 0.31031 0.32143 0.0
H707 H 0.87868 0.32208 0.31483 0.0
H708 H 0.71388 0.23451 0.29265 0.0
H709 H 0.67859 0.24374 0.28278 0.0
H710 H 0.70578 0.28621 0.23137 0.0
H711 H 0.7408 0.27694 0.24108 0.0
La712 La 0.06191 0.53122 0.54433 0.0
La713 La 0.05421 0.54992 0.50009 0.0
C714 C 0.06156 0.51418 0.58268 0.0
C715 C 0.04467 0.50128 0.59491 0.0
C716 C 0.04927 0.50133 0.6196 0.0
C717 C 0.03232 0.49337 0.63252 0.0
C718 C 1.01062 0.48579 0.62085 0.0
C719 C 1.00633 0.48357 0.59567 0.0
C720 C 0.0234 0.49101 0.58269 0.0
C721 C 0.08009 0.51312 0.50822 0.0
C722 C 0.0161 0.51203 0.51034 0.0
C723 C 0.05666 0.56642 0.46177 0.0
C724 C 0.07568 0.57509 0.45011 0.0
C725 C 0.07881 0.59753 0.44239 0.0
C726 C 0.09772 0.60657 0.43269 0.0
C727 C 0.11367 0.59325 0.43078 0.0
C728 C 0.11065 0.57109 0.43914 0.0
C729 C 0.09185 0.56213 0.44875 0.0
C730 C 0.03744 0.56991 0.5367 0.0
C731 C 0.09967 0.56957 0.53347 0.0
O732 O 0.06394 0.50217 0.56183 0.0
O733 O 0.06145 0.53689 0.58192 0.0
O734 O 0.08873 0.51826 0.53064 0.0
O735 O 0.06125 0.51677 0.50667 0.0
O736 O 0.02653 0.51712 0.53274 0.0
O737 O 0.02588 0.51974 0.49261 0.0
O738 O 0.05649 0.57986 0.48273 0.0
O739 O 0.05144 0.543 0.4622 0.0
O740 O 0.02824 0.56425 0.51441 0.0
O741 O 0.05573 0.56486 0.53786 0.0
O742 O 0.08955 0.56352 0.51096 0.0
O743 O 0.09 0.56213 0.55147 0.0
H744 H 0.06568 0.509 0.62918 0.0
H745 H 0.03596 0.49558 0.65204 0.0
H746 H 0.9897 0.47791 0.58644 0.0
H747 H 0.01981 0.49011 0.56344 0.0
H748 H 0.06663 0.60799 0.44385 0.0
H749 H 0.09968 0.62363 0.42619 0.0
H750 H 0.12234 0.56004 0.43728 0.0
H751 H 0.08991 0.54494 0.45493 0.0
La752 La 0.78577 0.8012 0.27072 0.0
La753 La 0.83234 0.78939 0.26886 0.0
C754 C 0.74606 0.79528 0.27667 0.0
C755 C 0.73108 0.80312 0.29333 0.0
C756 C 0.71589 0.81563 0.28552 0.0
C757 C 0.69909 0.81919 0.29905 0.0
C758 C 0.69691 0.81013 0.32069 0.0
C759 C 0.71278 0.7987 0.32907 0.0
C760 C 0.72959 0.79521 0.3156 0.0
C761 C 0.81726 0.84218 0.26823 0.0
C762 C 0.8178 0.80827 0.3202 0.0
C763 C 0.87277 0.79546 0.26559 0.0
C764 C 0.88805 0.79198 0.24761 0.0
C765 C 0.90538 0.78145 0.25324 0.0
C766 C 0.92129 0.78018 0.23774 0.0
C767 C 0.92031 0.78945 0.21613 0.0
C768 C 0.90268 0.79965 0.21039 0.0
C769 C 0.88679 0.80088 0.22587 0.0
C770 C 0.80026 0.748 0.26936 0.0
C771 C 0.80012 0.78119 0.21988 0.0
O772 O 0.75571 0.81055 0.26372 0.0
O773 O 0.75887 0.78236 0.28444 0.0
O774 O 0.79641 0.84046 0.26761 0.0
O775 O 0.81881 0.82057 0.26993 0.0
O776 O 0.79879 0.80986 0.3094 0.0
O777 O 0.83296 0.80104 0.30818 0.0
O778 O 0.86071 0.77599 0.27142 0.0
O779 O 0.86191 0.81208 0.26371 0.0
O780 O 0.82067 0.74904 0.26732 0.0
O781 O 0.79926 0.77019 0.27013 0.0
O782 O 0.82059 0.78492 0.23023 0.0
O783 O 0.78378 0.78384 0.23237 0.0
H784 H 0.7164 0.82171 0.26834 0.0
H785 H 0.68717 0.82795 0.29187 0.0
H786 H 0.71195 0.79189 0.34585 0.0
H787 H 0.74091 0.78545 0.32226 0.0
H788 H 0.90685 0.77454 0.26992 0.0
H789 H 0.93436 0.77189 0.24269 0.0
H790 H 0.9014 0.80732 0.19416 0.0
H791 H 0.87378 0.80928 0.221 0.0
La792 La 0.82311 0.29074 0.74735 0.0
La793 La 0.80137 0.29387 0.79024 0.0
C794 C 0.8444 0.29711 0.71268 0.0
C795 C 0.8489 0.31267 0.69485 0.0
C796 C 0.86831 0.31388 0.68476 0.0
C797 C 0.87218 0.32629 0.66576 0.0
C798 C 0.85675 0.33783 0.65695 0.0
C799 C 0.83796 0.33799 0.66809 0.0
C800 C 0.83402 0.32543 0.68707 0.0
C801 C 0.84643 0.28563 0.78733 0.0
C802 C 0.82007 0.34119 0.77349 0.0
C803 C 0.79446 0.29115 0.83272 0.0
C804 C 0.77973 0.27331 0.84359 0.0
C805 C 0.76154 0.27895 0.85319 0.0
C806 C 0.74934 0.26326 0.86621 0.0
C807 C 0.75537 0.24189 0.87009 0.0
C808 C 0.77264 0.23556 0.85896 0.0
C809 C 0.7846 0.251 0.84582 0.0
C810 C 0.77003 0.29145 0.75413 0.0
C811 C 0.79824 0.24257 0.75742 0.0
O812 O 0.85177 0.30761 0.73519 0.0
O813 O 0.82482 0.28244 0.71012 0.0
O814 O 0.8442 0.27198 0.76628 0.0
O815 O 0.83508 0.30092 0.78557 0.0
O816 O 0.81739 0.32699 0.75208 0.0
O817 O 0.81687 0.33176 0.7929 0.0
O818 O 0.7856 0.3044 0.81986 0.0
O819 O 0.80983 0.28325 0.82261 0.0
O820 O 0.76788 0.2924 0.7767 0.0
O821 O 0.78977 0.29118 0.75157 0.0
O822 O 0.79831 0.25501 0.77924 0.0
O823 O 0.80458 0.25342 0.73966 0.0
H824 H 0.88005 0.30432 0.6909 0.0
H825 H 0.88666 0.32591 0.65718 0.0
H826 H 0.82579 0.34662 0.66121 0.0
H827 H 0.81909 0.32487 0.69497 0.0
H828 H 0.75733 0.29594 0.85151 0.0
H829 H 0.736 0.26853 0.87441 0.0
H830 H 0.77811 0.21954 0.86181 0.0
H831 H 0.79838 0.24588 0.83848 0.0
La832 La 0.82115 0.82669 0.77559 0.0
La833 La 0.79993 0.7737 0.75699 0.0
C834 C 0.83055 0.87178 0.77516 0.0
C835 C 0.82043 0.89142 0.78435 0.0
C836 C 0.80572 0.88786 0.80123 0.0
C837 C 0.79096 0.90245 0.80428 0.0
C838 C 0.79086 0.92084 0.79063 0.0
C839 C 0.80684 0.92579 0.7754 0.0
C840 C 0.82151 0.91108 0.77221 0.0
C841 C 0.81766 0.80472 0.81445 0.0
C842 C 0.77163 0.80508 0.78021 0.0
C843 C 0.78948 0.72795 0.74397 0.0
C844 C 0.80143 0.70959 0.74773 0.0
C845 C 0.80266 0.69189 0.7279 0.0
C846 C 0.81784 0.67788 0.7298 0.0
C847 C 0.83193 0.68166 0.75154 0.0
C848 C 0.82961 0.69815 0.77182 0.0
C849 C 0.81455 0.71212 0.76992 0.0
C850 C 0.79821 0.80294 0.72468 0.0
C851 C 0.85134 0.79222 0.76555 0.0
O852 O 0.84038 0.86211 0.79112 0.0
O853 O 0.81781 0.85513 0.75779 0.0
O854 O 0.82633 0.82766 0.81488 0.0
O855 O 0.81189 0.79494 0.79219 0.0
O856 O 0.78639 0.82437 0.77713 0.0
O857 O 0.77431 0.78283 0.7755 0.0
O858 O 0.79823 0.74294 0.73044 0.0
O859 O 0.78362 0.73944 0.76325 0.0
O860 O 0.78222 0.78574 0.72804 0.0
O861 O 0.81437 0.80377 0.74011 0.0
O862 O 0.8342 0.77409 0.7656 0.0
O863 O 0.84985 0.81493 0.76648 0.0
H864 H 0.80435 0.8725 0.81043 0.0
H865 H 0.77844 0.89803 0.81571 0.0
H866 H 0.80662 0.93945 0.76423 0.0
H867 H 0.83241 0.91374 0.75872 0.0
H868 H 0.79279 0.68993 0.71058 0.0
H869 H 0.81942 0.66519 0.71401 0.0
H870 H 0.84011 0.70098 0.78889 0.0
H871 H 0.81406 0.72579 0.78542 0.0
La872 La 0.53805 0.52718 0.50209 0.0
La873 La 0.57802 0.56051 0.53272 0.0
C874 C 0.49824 0.50755 0.48745 0.0
C875 C 0.47899 0.51764 0.48803 0.0
C876 C 0.46411 0.5134 0.46679 0.0
C877 C 0.44753 0.5257 0.46588 0.0
C878 C 0.44549 0.54217 0.48631 0.0
C879 C 0.46011 0.54602 0.50772 0.0
C880 C 0.47685 0.53402 0.50852 0.0
C881 C 0.57044 0.52877 0.47332 0.0
C882 C 0.54843 0.58554 0.50283 0.0
C883 C 0.61791 0.57951 0.54698 0.0
C884 C 0.63639 0.56829 0.54502 0.0
C885 C 0.65415 0.57535 0.56363 0.0
C886 C 0.66989 0.5619 0.56422 0.0
C887 C 0.66807 0.54115 0.54622 0.0
C888 C 0.65059 0.53457 0.52718 0.0
C889 C 0.63481 0.54796 0.52665 0.0
C890 C 0.5453 0.55783 0.56139 0.0
C891 C 0.56829 0.50216 0.53102 0.0
O892 O 0.51198 0.5168 0.47369 0.0
O893 O 0.50819 0.50573 0.50827 0.0
O894 O 0.55084 0.51473 0.46859 0.0
O895 O 0.57185 0.53996 0.49551 0.0
O896 O 0.53439 0.56367 0.49701 0.0
O897 O 0.56733 0.58892 0.51663 0.0
O898 O 0.60429 0.57016 0.56085 0.0
O899 O 0.60778 0.5823 0.52667 0.0
O900 O 0.5649 0.57186 0.56682 0.0
O901 O 0.54446 0.54737 0.53912 0.0
O902 O 0.58251 0.52389 0.53586 0.0
O903 O 0.5487 0.49905 0.5188 0.0
H904 H 0.46575 0.50116 0.45068 0.0
H905 H 0.4364 0.52248 0.4492 0.0
H906 H 0.459 0.55893 0.52358 0.0
H907 H 0.48847 0.53811 0.52493 0.0
H908 H 0.65542 0.59073 0.57815 0.0
H909 H 0.68335 0.56755 0.57894 0.0
H910 H 0.64865 0.51853 0.51321 0.0
H911 H 0.62093 0.54184 0.51241 0.0
La912 La 0.08561 0.54737 0.01198 0.0
La913 La 0.03709 0.54704 0.01862 0.0
C914 C 0.12417 0.54192 0.01769 0.0
C915 C 0.13767 0.52376 0.01366 0.0
C916 C 0.15431 0.52742 0.99886 0.0
C917 C 0.16892 0.5123 0.99706 0.0
C918 C 0.16714 0.49299 0.00986 0.0
C919 C 0.15023 0.48901 0.02425 0.0
C920 C 0.13582 0.50429 0.0263 0.0
C921 C 0.05861 0.54468 0.97295 0.0
C922 C 0.04972 0.4963 0.00983 0.0
C923 C 0.99845 0.55228 0.01343 0.0
C924 C 0.98496 0.57049 0.01663 0.0
C925 C 0.96676 0.56586 0.02913 0.0
C926 C 0.95169 0.58042 0.02922 0.0
C927 C 0.95431 0.59994 0.01661 0.0
C928 C 0.97329 0.60545 1.00536 0.0
C929 C 0.98837 0.59093 1.00533 0.0
C930 C 0.06365 0.54779 0.05698 0.0
C931 C 0.07345 0.59832 0.02373 0.0
O932 O 0.11578 0.54896 0.99874 0.0
O933 O 0.11082 0.53971 0.03399 0.0
O934 O 0.07944 0.55455 0.97513 0.0
O935 O 0.05449 0.53518 0.99087 0.0
O936 O 0.0706 0.50838 0.01171 0.0
O937 O 0.03348 0.50741 0.00932 0.0
O938 O 1.00764 0.54698 0.03299 0.0
O939 O 1.01105 0.55291 0.99628 0.0
O940 O 0.04273 0.53867 0.05486 0.0
O941 O 0.06808 0.55838 0.03983 0.0
O942 O 0.05237 0.58637 0.0196 0.0
O943 O 0.08925 0.58657 0.02418 0.0
H944 H 0.15634 0.54236 0.98906 0.0
H945 H 0.18159 0.51568 0.98562 0.0
H946 H 0.14848 0.47434 0.03441 0.0
H947 H 0.12347 0.50105 0.03816 0.0
H948 H 0.96364 0.55022 0.03797 0.0
H949 H 0.93733 0.57548 0.03799 0.0
H950 H 0.97614 0.6206 0.99585 0.0
H951 H 1.00226 0.59521 0.99568 0.0
H952 H 0.04456 0.22238 0.99224 0.0
H953 H 0.01244 0.19135 0.91869 0.0
H954 H 0.01486 0.15037 0.92514 0.0
H955 H 0.08207 0.18422 0.99501 0.0
H956 H 0.07979 0.18075 0.02589 0.0
H957 H 0.07533 0.20779 0.01598 0.0
H958 H 0.0372 0.19984 0.02998 0.0
H959 H 0.04159 0.17284 0.04007 0.0
H960 H 0.01786 0.17074 0.0188 0.0
H961 H 0.02049 0.11251 0.93926 0.0
H962 H 0.0286 0.08026 0.95982 0.0
H963 H 0.05805 0.13441 0.02471 0.0
C964 C 0.03793 0.20695 0.97748 0.0
C965 C 0.02819 0.21036 0.95483 0.0
C966 C 0.01978 0.18949 0.93619 0.0
C967 C 0.02117 0.16604 0.93969 0.0
C968 C 0.0309 0.16338 0.96207 0.0
C969 C 0.03905 0.18323 0.98075 0.0
C970 C 0.04844 0.17506 1.00312 0.0
C971 C 0.07286 0.18771 0.01042 0.0
C972 C 0.03551 0.17992 0.02425 0.0
C973 C 0.04481 0.14762 0.99389 0.0
C974 C 0.03441 0.1414 0.97021 0.0
C975 C 0.0286 0.11725 0.95778 0.0
C976 C 0.03326 0.09895 0.96974 0.0
C977 C 0.04397 0.10451 0.994 0.0
C978 C 0.05002 0.12941 1.00615 0.0
H979 H 0.17494 0.84436 0.17972 0.0
H980 H 0.14963 0.76843 0.14453 0.0
H981 H 0.18103 0.75794 0.16559 0.0
H982 H 0.23117 0.84571 0.17569 0.0
H983 H 0.24192 0.86547 0.20468 0.0
H984 H 0.21665 0.86722 0.18841 0.0
H985 H 0.19687 0.85953 0.22542 0.0
H986 H 0.22214 0.85808 0.24191 0.0
H987 H 0.19822 0.83303 0.23832 0.0
H988 H 0.21692 0.75576 0.18794 0.0
H989 H 0.25264 0.76167 0.21291 0.0
H990 H 0.25551 0.83858 0.2352 0.0
C991 C 0.17575 0.82546 0.17698 0.0
C992 C 0.15946 0.80715 0.16057 0.0
C993 C 0.16167 0.78277 0.15704 0.0
C994 C 0.17957 0.77661 0.1689 0.0
C995 C 0.19561 0.79502 0.18437 0.0
C996 C 0.19383 0.81894 0.18868 0.0
C997 C 0.21394 0.83521 0.20561 0.0
C998 C 0.22667 0.85455 0.19283 0.0
C999 C 0.2074 0.84717 0.22922 0.0
C1000 C 0.22705 0.81672 0.21024 0.0
C1001 C 0.21625 0.79368 0.19752 0.0
C1002 C 0.22541 0.77375 0.19808 0.0
C1003 C 0.24589 0.77731 0.21221 0.0
C1004 C 0.25713 0.80059 0.22603 0.0
C1005 C 0.24744 0.82053 0.22487 0.0
H1006 H 0.53952 0.85592 0.44304 0.0
H1007 H 0.50311 0.83417 0.50042 0.0
H1008 H 0.50812 0.87756 0.51881 0.0
H1009 H 0.5791 0.90887 0.47995 0.0
H1010 H 0.57937 0.92714 0.45677 0.0
H1011 H 0.57354 0.89434 0.44838 0.0
H1012 H 0.53713 0.89371 0.42302 0.0
H1013 H 0.54278 0.9265 0.43147 0.0
H1014 H 0.51767 0.9076 0.43729 0.0
H1015 H 0.51479 0.92329 0.52964 0.0
H1016 H 0.52518 0.96831 0.53383 0.0
H1017 H 0.55894 0.96134 0.47097 0.0
C1018 C 0.53281 0.86026 0.45964 0.0
C1019 C 0.52089 0.84142 0.47026 0.0
C1020 C 0.51224 0.84807 0.49185 0.0
C1021 C 0.515 0.87275 0.50246 0.0
C1022 C 0.52648 0.89078 0.49135 0.0
C1023 C 0.53541 0.8849 0.47051 0.0
C1024 C 0.54665 0.90795 0.46202 0.0
C1025 C 0.57112 0.90967 0.46178 0.0
C1026 C 0.53539 0.90899 0.43696 0.0
C1027 C 0.54292 0.92766 0.48155 0.0
C1028 C 0.53094 0.91728 0.49805 0.0
C1029 C 0.52437 0.9316 0.51697 0.0
C1030 C 0.53026 0.95713 0.51916 0.0
C1031 C 0.54295 0.96824 0.50287 0.0
C1032 C 0.54946 0.95329 0.48387 0.0
H1033 H 0.53395 0.32844 0.66329 0.0
H1034 H 0.52482 0.25227 0.63017 0.0
H1035 H 0.49037 0.24151 0.64702 0.0
H1036 H 0.51152 0.31874 0.71844 0.0
H1037 H 0.49753 0.34284 0.71936 0.0
H1038 H 0.52187 0.34487 0.70509 0.0
H1039 H 0.50073 0.35009 0.6655 0.0
H1040 H 0.47629 0.34795 0.67965 0.0
H1041 H 0.476 0.32745 0.65171 0.0
H1042 H 0.45691 0.23837 0.66766 0.0
H1043 H 0.42651 0.24336 0.69036 0.0
H1044 H 0.4557 0.32151 0.70994 0.0
C1045 C 0.52479 0.30949 0.65985 0.0
C1046 C 0.53236 0.29118 0.64551 0.0
C1047 C 0.51954 0.26667 0.64105 0.0
C1048 C 0.49986 0.26032 0.65057 0.0
C1049 C 0.49275 0.27868 0.66438 0.0
C1050 C 0.50469 0.30281 0.66893 0.0
C1051 C 0.49275 0.31891 0.68381 0.0
C1052 C 0.50676 0.33212 0.70812 0.0
C1053 C 0.48605 0.33718 0.66931 0.0
C1054 C 0.47273 0.29997 0.6875 0.0
C1055 C 0.47306 0.2769 0.67597 0.0
C1056 C 0.45653 0.25637 0.67681 0.0
C1057 C 0.43932 0.25939 0.68994 0.0
C1058 C 0.43855 0.28279 0.70224 0.0
C1059 C 0.45554 0.30335 0.70068 0.0
H1060 H 0.0228 0.84933 0.64504 0.0
H1061 H 0.03332 0.7854 0.5996 0.0
H1062 H 0.05107 0.81145 0.57273 0.0
H1063 H 1.00803 0.87709 0.59701 0.0
H1064 H 0.02092 0.9079 0.61266 0.0
H1065 H 1.01129 0.88458 0.62966 0.0
H1066 H 0.04998 0.89411 0.65412 0.0
H1067 H 0.05979 0.91734 0.63699 0.0
H1068 H 0.0731 0.89289 0.63825 0.0
H1069 H 0.06629 0.844 0.54999 0.0
H1070 H 0.07382 0.88001 0.53024 0.0
H1071 H 0.05196 0.92225 0.5895 0.0
C1072 C 0.02905 0.84088 0.62957 0.0
C1073 C 0.0268 0.81544 0.6244 0.0
C1074 C 0.03484 0.80491 0.6038 0.0
C1075 C 0.04512 0.81956 0.58859 0.0
C1076 C 0.04711 0.84463 0.59418 0.0
C1077 C 0.03908 0.85518 0.61401 0.0
C1078 C 0.04151 0.8822 0.61475 0.0
C1079 C 0.01911 0.88829 0.61343 0.0
C1080 C 0.05702 0.89754 0.63737 0.0
C1081 C 0.05162 0.88504 0.59189 0.0
C1082 C 0.05522 0.8633 0.5806 0.0
C1083 C 0.06371 0.86119 0.55873 0.0
C1084 C 0.06803 0.8817 0.54771 0.0
C1085 C 0.06346 0.90374 0.55844 0.0
C1086 C 0.05563 0.90555 0.58103 0.0
H1087 H 0.53261 0.7866 0.83716 0.0
H1088 H 0.57199 0.85951 0.83711 0.0
H1089 H 0.53967 0.87009 0.8185 0.0
H1090 H 0.49751 0.7802 0.7792 0.0
H1091 H 0.47357 0.76391 0.7898 0.0
H1092 H 0.50022 0.76135 0.80139 0.0
H1093 H 0.49301 0.77524 0.84517 0.0
H1094 H 0.46645 0.77809 0.83376 0.0
H1095 H 0.48572 0.80385 0.8531 0.0
H1096 H 0.50317 0.87408 0.80324 0.0
H1097 H 0.46434 0.8708 0.79027 0.0
H1098 H 0.44824 0.79505 0.79908 0.0
C1099 C 0.53452 0.80463 0.83279 0.0
C1100 C 0.55485 0.82218 0.83847 0.0
C1101 C 0.55664 0.84567 0.83273 0.0
C1102 C 0.53836 0.8519 0.82222 0.0
C1103 C 0.5185 0.83437 0.81734 0.0
C1104 C 0.51645 0.81114 0.82217 0.0
C1105 C 0.49299 0.79607 0.81584 0.0
C1106 C 0.49096 0.77408 0.79533 0.0
C1107 C 0.48402 0.78784 0.83831 0.0
C1108 C 0.48214 0.81474 0.80728 0.0
C1109 C 0.49723 0.83662 0.80818 0.0
C1110 C 0.49121 0.85692 0.80199 0.0
C1111 C 0.46912 0.85482 0.79451 0.0
C1112 C 0.45329 0.83257 0.79326 0.0
C1113 C 0.45996 0.81227 0.79976 0.0
H1114 H 0.54284 0.18601 0.12886 0.0
H1115 H 0.48187 0.19086 0.0908 0.0
H1116 H 0.47958 0.15187 0.06293 0.0
H1117 H 0.56582 0.16404 0.08063 0.0
H1118 H 0.57729 0.14282 0.09472 0.0
H1119 H 0.57269 0.16937 0.11314 0.0
H1120 H 0.54895 0.14183 0.13778 0.0
H1121 H 0.55357 0.11509 0.11945 0.0
H1122 H 0.52609 0.1175 0.12213 0.0
H1123 H 0.48638 0.11539 0.0368 0.0
H1124 H 0.50108 0.0833 0.01462 0.0
H1125 H 0.55707 0.10152 0.07081 0.0
C1126 C 0.52888 0.17858 0.11485 0.0
C1127 C 0.51256 0.19121 0.11173 0.0
C1128 C 0.49441 0.18116 0.09342 0.0
C1129 C 0.49299 0.1591 0.07761 0.0
C1130 C 0.50954 0.14716 0.08096 0.0
C1131 C 0.52693 0.15632 0.0994 0.0
C1132 C 0.54291 0.1404 0.09864 0.0
C1133 C 0.56603 0.15504 0.09664 0.0
C1134 C 0.54288 0.12797 0.12082 0.0
C1135 C 0.53277 0.12197 0.07573 0.0
C1136 C 0.51324 0.12582 0.06614 0.0
C1137 C 0.50144 0.11193 0.04434 0.0
C1138 C 0.50996 0.09385 0.03185 0.0
C1139 C 0.53017 0.09006 0.0411 0.0
C1140 C 0.54149 0.10397 0.06351 0.0
H1141 H 0.17727 0.29764 0.35275 0.0
H1142 H 0.16187 0.36054 0.32836 0.0
H1143 H 0.1907 0.36168 0.30172 0.0
H1144 H 0.23465 0.31534 0.35402 0.0
H1145 H 0.23661 0.28468 0.34294 0.0
H1146 H 0.21497 0.2895 0.35992 0.0
H1147 H 0.18677 0.26147 0.32431 0.0
H1148 H 0.20853 0.25714 0.30722 0.0
H1149 H 0.18677 0.26862 0.29437 0.0
H1150 H 0.22386 0.35807 0.28108 0.0
H1151 H 0.25665 0.34773 0.26581 0.0
H1152 H 0.24648 0.28491 0.30094 0.0
C1153 C 0.18001 0.31166 0.34183 0.0
C1154 C 0.16766 0.32911 0.34261 0.0
C1155 C 0.17134 0.34702 0.32788 0.0
C1156 C 0.18759 0.3478 0.31274 0.0
C1157 C 0.19951 0.33022 0.31232 0.0
C1158 C 0.19569 0.31232 0.32627 0.0
C1159 C 0.21049 0.29539 0.32249 0.0
C1160 C 0.22504 0.29632 0.34627 0.0
C1161 C 0.19735 0.2691 0.31143 0.0
C1162 C 0.22359 0.30686 0.30464 0.0
C1163 C 0.21727 0.32707 0.29907 0.0
C1164 C 0.22867 0.34196 0.28484 0.0
C1165 C 0.24721 0.33608 0.27634 0.0
C1166 C 0.2536 0.31532 0.28186 0.0
C1167 C 0.24144 0.30043 0.2958 0.0
H1168 H 0.98795 0.02711 0.18619 0.0
H1169 H 0.96071 0.0897 0.1853 0.0
H1170 H 0.97508 0.09488 0.1465 0.0
H1171 H 0.03789 0.05139 0.16163 0.0
H1172 H 0.03837 0.0222 0.14431 0.0
H1173 H 0.02584 0.02361 0.17162 0.0
H1174 H 0.99006 0.9949 0.14752 0.0
H1175 H 1.00245 0.99364 0.12009 0.0
H1176 H 0.97737 1.00314 0.12122 0.0
H1177 H 0.99321 0.09239 0.10478 0.0
H1178 H 0.01388 0.08496 0.0704 0.0
H1179 H 0.03071 0.0248 0.09847 0.0
C1180 C 0.98489 0.04206 0.17804 0.0
C1181 C 0.97269 0.05793 0.18974 0.0
C1182 C 0.96966 0.07709 0.17757 0.0
C1183 C 0.97787 0.08012 0.15513 0.0
C1184 C 0.9895 0.06399 0.14419 0.0
C1185 C 0.99314 0.04542 0.1556 0.0
C1186 C 1.00646 0.03068 0.14054 0.0
C1187 C 0.02844 0.03205 0.15541 0.0
C1188 C 0.9933 1.004 0.13184 0.0
C1189 C 1.0099 0.04366 0.11883 0.0
C1190 C 0.99978 0.06274 0.12111 0.0
C1191 C 1.00085 0.07727 0.10316 0.0
C1192 C 0.01254 0.07266 0.08317 0.0
C1193 C 0.02345 0.05346 0.08023 0.0
C1194 C 0.02197 0.03897 0.09891 0.0
H1195 H 0.28056 0.64254 0.44229 0.0
H1196 H 0.28047 0.6978 0.50487 0.0
H1197 H 0.26517 0.72149 0.47817 0.0
H1198 H 0.29876 0.68353 0.40485 0.0
H1199 H 0.28253 0.66484 0.3774 0.0
H1200 H 0.29069 0.65075 0.40177 0.0
H1201 H 0.25003 0.62937 0.40216 0.0
H1202 H 0.24173 0.64389 0.37807 0.0
H1203 H 0.23049 0.64754 0.40615 0.0
H1204 H 0.25263 0.7405 0.44541 0.0
H1205 H 0.2491 0.75704 0.40811 0.0
H1206 H 0.25762 0.6901 0.36621 0.0
C1207 C 0.27704 0.65948 0.45034 0.0
C1208 C 0.28151 0.66828 0.47556 0.0
C1209 C 0.27715 0.69074 0.48552 0.0
C1210 C 0.2682 0.70417 0.47056 0.0
C1211 C 0.26375 0.69489 0.44577 0.0
C1212 C 0.2683 0.67327 0.43564 0.0
C1213 C 0.26431 0.66885 0.40825 0.0
C1214 C 0.28532 0.6669 0.39745 0.0
C1215 C 0.24552 0.64606 0.39806 0.0
C1216 C 0.2578 0.69195 0.40462 0.0
C1217 C 0.2569 0.70629 0.42652 0.0
C1218 C 0.25291 0.72933 0.42809 0.0
C1219 C 0.25079 0.73849 0.40677 0.0
C1220 C 0.25299 0.72474 0.38434 0.0
C1221 C 0.25572 0.70084 0.38316 0.0
H1222 H 0.64497 0.0904 0.67761 0.0
H1223 H 0.66055 0.01997 0.66996 0.0
H1224 H 0.64061 1.00849 0.62826 0.0
H1225 H 0.59328 0.06883 0.65528 0.0
H1226 H 0.58972 0.09287 0.63948 0.0
H1227 H 0.61066 0.09932 0.66509 0.0
H1228 H 0.64049 0.11548 0.63948 0.0
H1229 H 0.61952 0.11021 0.61391 0.0
H1230 H 0.64247 0.09692 0.61114 0.0
H1231 H 0.61134 1.00087 0.59258 0.0
H1232 H 0.57997 1.00071 0.56247 0.0
H1233 H 0.58349 0.07574 0.5945 0.0
C1234 C 0.64501 0.07297 0.66678 0.0
C1235 C 0.654 0.05591 0.67692 0.0
C1236 C 0.65373 0.03326 0.66239 0.0
C1237 C 0.64239 0.02659 0.63874 0.0
C1238 C 0.63183 0.04297 0.63008 0.0
C1239 C 0.63361 0.06604 0.64343 0.0
C1240 C 0.61827 0.07891 0.6319 0.0
C1241 C 0.60204 0.08534 0.64896 0.0
C1242 C 0.63096 0.10172 0.6236 0.0
C1243 C 0.60685 0.05908 0.61063 0.0
C1244 C 0.61489 0.03852 0.60968 0.0
C1245 C 0.60522 0.01704 0.59286 0.0
C1246 C 0.58724 0.01689 0.57624 0.0
C1247 C 0.57938 0.03807 0.57687 0.0
C1248 C 0.58928 0.05932 0.59408 0.0
H1249 H 0.32984 0.38208 0.95814 0.0
H1250 H 0.32653 0.31284 0.98126 0.0
H1251 H 0.32316 0.29226 0.93867 0.0
H1252 H 0.29161 0.35888 0.90268 0.0
H1253 H 0.30702 0.3788 0.88537 0.0
H1254 H 0.30883 0.38826 0.91769 0.0
H1255 H 0.35084 0.39528 0.9219 0.0
H1256 H 0.34912 0.38567 0.88958 0.0
H1257 H 0.36241 0.37065 0.90998 0.0
H1258 H 0.32106 0.27887 0.89346 0.0
H1259 H 0.31874 0.27364 0.84875 0.0
H1260 H 0.32274 0.35084 0.85371 0.0
C1261 C 0.32825 0.36256 0.95422 0.0
C1262 C 0.32845 0.34914 0.97331 0.0
C1263 C 0.32655 0.32365 0.9672 0.0
C1264 C 0.32461 0.31173 0.94296 0.0
C1265 C 0.32475 0.32544 0.92468 0.0
C1266 C 0.3265 0.35031 0.92994 0.0
C1267 C 0.32665 0.36071 0.90672 0.0
C1268 C 0.30737 0.37234 0.90289 0.0
C1269 C 0.34856 0.37918 0.90707 0.0
C1270 C 0.32415 0.33774 0.88764 0.0
C1271 C 0.32341 0.31766 0.8985 0.0
C1272 C 0.32166 0.29448 0.88481 0.0
C1273 C 0.32048 0.29167 0.85943 0.0
C1274 C 0.32081 0.3118 0.84781 0.0
C1275 C 0.32262 0.33514 0.86216 0.0
H1276 H 0.99345 0.10613 0.35935 0.0
H1277 H 0.96371 0.0317 0.32189 0.0
H1278 H 0.97882 0.01657 0.35694 0.0
H1279 H 0.04342 0.09352 0.38736 0.0
H1280 H 0.04573 0.11468 0.41539 0.0
H1281 H 0.03302 0.1203 0.38762 0.0
H1282 H 0.99813 0.12263 0.4065 0.0
H1283 H 1.01071 0.1176 0.4346 0.0
H1284 H 0.98476 0.09779 0.42003 0.0
H1285 H 0.99779 1.0092 0.39785 0.0
H1286 H 0.01708 0.01039 0.43832 0.0
H1287 H 0.03463 0.0896 0.45104 0.0
C1288 C 0.99005 0.08656 0.35831 0.0
C1289 C 0.97697 0.07026 0.33707 0.0
C1290 C 0.97339 0.04486 0.33729 0.0
C1291 C 0.98204 0.03604 0.35741 0.0
C1292 C 0.99461 0.05257 0.37788 0.0
C1293 C 0.99866 0.0774 0.37839 0.0
C1294 C 0.01275 0.09136 0.40259 0.0
C1295 C 0.03504 0.10584 0.39796 0.0
C1296 C 1.00087 0.10836 0.41677 0.0
C1297 C 0.01552 0.07069 0.41601 0.0
C1298 C 1.00515 0.04841 0.40121 0.0
C1299 C 1.0058 0.02668 0.40934 0.0
C1300 C 0.01699 0.02756 0.4327 0.0
C1301 C 0.02767 0.04999 0.44877 0.0
C1302 C 0.02672 0.07193 0.43984 0.0
H1303 H 0.3048 0.73172 0.59192 0.0
H1304 H 0.28823 0.66002 0.61123 0.0
H1305 H 0.27954 0.67838 0.65051 0.0
H1306 H 0.33243 0.76261 0.64786 0.0
H1307 H 0.32342 0.79019 0.64748 0.0
H1308 H 0.32482 0.77102 0.61943 0.0
H1309 H 0.28398 0.76776 0.60526 0.0
H1310 H 0.28248 0.78688 0.63344 0.0
H1311 H 0.26376 0.75714 0.62396 0.0
H1312 H 0.27723 0.7044 0.68894 0.0
H1313 H 0.28401 0.73663 0.72526 0.0
H1314 H 0.30158 0.79191 0.68153 0.0
C1315 C 0.29907 0.71987 0.60431 0.0
C1316 C 0.29734 0.69451 0.59866 0.0
C1317 C 0.28995 0.67957 0.61535 0.0
C1318 C 0.28468 0.68977 0.63754 0.0
C1319 C 0.28678 0.71488 0.64268 0.0
C1320 C 0.29385 0.72978 0.6266 0.0
C1321 C 0.29709 0.75649 0.63766 0.0
C1322 C 0.32085 0.77091 0.63815 0.0
C1323 C 0.28085 0.76772 0.62428 0.0
C1324 C 0.29183 0.75434 0.6629 0.0
C1325 C 0.28535 0.73012 0.66516 0.0
C1326 C 0.28173 0.72341 0.68729 0.0
C1327 C 0.28555 0.7419 0.70783 0.0
C1328 C 0.29294 0.76676 0.70608 0.0
C1329 C 0.29545 0.77307 0.68323 0.0
H1330 H 0.64415 0.04096 0.80238 0.0
H1331 H 0.64092 0.11249 0.78993 0.0
H1332 H 0.65342 0.1298 0.83328 0.0
H1333 H 0.61457 0.04545 0.84574 0.0
H1334 H 0.62568 0.02703 0.86415 0.0
H1335 H 0.62744 0.02253 0.83242 0.0
H1336 H 0.66957 0.03019 0.84149 0.0
H1337 H 0.66783 0.03466 0.87354 0.0
H1338 H 0.68539 0.0579 0.86137 0.0
H1339 H 0.65367 0.13664 0.8769 0.0
H1340 H 0.63838 0.13152 0.91479 0.0
H1341 H 0.63858 0.05506 0.90064 0.0
C1342 C 0.64757 0.06052 0.80876 0.0
C1343 C 0.64267 0.07568 0.79299 0.0
C1344 C 0.64555 0.10088 0.80178 0.0
C1345 C 0.65263 0.11081 0.8264 0.0
C1346 C 0.65582 0.09504 0.84208 0.0
C1347 C 0.65322 0.07027 0.83353 0.0
C1348 C 0.65048 0.05592 0.85374 0.0
C1349 C 0.62825 0.03665 0.84872 0.0
C1350 C 0.66947 0.04398 0.85778 0.0
C1351 C 0.65111 0.07622 0.87479 0.0
C1352 C 0.65483 0.09879 0.86792 0.0
C1353 C 0.65153 0.11928 0.88277 0.0
C1354 C 0.64286 0.11627 0.90428 0.0
C1355 C 0.63764 0.09296 0.91062 0.0
C1356 C 0.64325 0.07324 0.89658 0.0
H1357 H 0.32638 0.38559 0.12284 0.0
H1358 H 0.30553 0.31703 0.07086 0.0
H1359 H 0.30292 0.29445 0.10412 0.0
H1360 H 0.35827 0.36284 0.16873 0.0
H1361 H 0.34988 0.37944 0.19456 0.0
H1362 H 0.35135 0.39137 0.16694 0.0
H1363 H 0.31106 0.39336 0.1656 0.0
H1364 H 0.30948 0.38143 0.1932 0.0
H1365 H 0.29033 0.36618 0.16643 0.0
H1366 H 0.3018 0.27829 0.14123 0.0
H1367 H 0.30078 0.26841 0.18138 0.0
H1368 H 0.32108 0.34576 0.214 0.0
C1369 C 0.32154 0.36582 0.11853 0.0
C1370 C 0.31628 0.35325 0.09375 0.0
C1371 C 0.30965 0.32734 0.08927 0.0
C1372 C 0.30814 0.3142 0.1082 0.0
C1373 C 0.31313 0.3269 0.1321 0.0
C1374 C 0.31963 0.35209 0.13761 0.0
C1375 C 0.32319 0.36052 0.16541 0.0
C1376 C 0.34709 0.37437 0.17445 0.0
C1377 C 0.30758 0.37632 0.17312 0.0
C1378 C 0.31758 0.3361 0.17435 0.0
C1379 C 0.31201 0.3172 0.15443 0.0
C1380 C 0.3061 0.29295 0.15695 0.0
C1381 C 0.30556 0.28755 0.18019 0.0
C1382 C 0.31074 0.30606 0.20146 0.0
C1383 C 0.31709 0.33097 0.19841 0.0
H1384 H 0.25019 0.95805 0.04949 0.0
H1385 H 0.28197 1.00079 1.0 0.0
H1386 H 0.2572 0.02763 1.00523 0.0
H1387 H 0.19584 0.96058 0.02922 0.0
H1388 H 0.18756 0.96348 0.05899 0.0
H1389 H 0.20846 0.94786 0.05232 0.0
H1390 H 0.23482 0.97687 0.0886 0.0
H1391 H 0.21405 0.99273 0.0953 0.0
H1392 H 0.24043 1.00946 0.09028 0.0
H1393 H 0.22987 0.04957 0.0148 0.0
H1394 H 0.1981 0.06436 0.02635 0.0
H1395 H 0.18256 1.00774 0.06893 0.0
C1396 C 0.25189 0.97307 0.0398 0.0
C1397 C 0.26808 0.97742 0.02448 0.0
C1398 C 0.26979 0.99717 0.01198 0.0
C1399 C 0.25585 0.01261 0.01486 0.0
C1400 C 0.2403 1.00806 0.03027 0.0
C1401 C 0.23801 0.98875 0.04242 0.0
C1402 C 0.21929 0.98776 0.05724 0.0
C1403 C 0.20175 0.96348 0.04893 0.0
C1404 C 0.22765 0.99196 0.08447 0.0
C1405 C 0.2112 1.0092 0.0509 0.0
C1406 C 0.22392 0.0208 0.03565 0.0
C1407 C 0.2198 0.04084 0.02685 0.0
C1408 C 0.20188 0.04913 0.03351 0.0
C1409 C 0.18838 0.03725 0.04859 0.0
C1410 C 0.19303 0.01717 0.0576 0.0
H1411 H 0.70534 0.6674 0.02441 0.0
H1412 H 0.73009 0.62144 0.97069 0.0
H1413 H 0.69579 0.5891 0.9662 0.0
H1414 H 0.67724 0.61898 0.05294 0.0
H1415 H 0.65443 0.63211 0.05767 0.0
H1416 H 0.68095 0.65163 0.057 0.0
H1417 H 0.66437 0.67005 0.02294 0.0
H1418 H 0.63782 0.65059 0.02356 0.0
H1419 H 0.64928 0.65 0.99557 0.0
H1420 H 0.65819 0.56226 0.96622 0.0
H1421 H 0.62065 0.54234 0.97129 0.0
H1422 H 0.61974 0.6045 0.02617 0.0
C1423 C 0.70362 0.65053 0.01168 0.0
C1424 C 0.72064 0.64716 0.99778 0.0
C1425 C 0.71748 0.62469 0.98144 0.0
C1426 C 0.69799 0.60614 0.97881 0.0
C1427 C 0.68161 0.61015 0.99266 0.0
C1428 C 0.68422 0.63177 0.00884 0.0
C1429 C 0.66391 0.63144 0.02135 0.0
C1430 C 0.66947 0.63367 0.04888 0.0
C1431 C 0.65322 0.65173 0.01551 0.0
C1432 C 0.64944 0.60623 0.00968 0.0
C1433 C 0.66003 0.5944 0.99308 0.0
C1434 C 0.64986 0.57136 0.97926 0.0
C1435 C 0.6284 0.56018 0.98225 0.0
C1436 C 0.61708 0.57168 0.99919 0.0
C1437 C 0.62794 0.59504 0.01326 0.0
H1438 H 0.74213 0.45981 0.30804 0.0
H1439 H 0.69418 0.43721 0.24351 0.0
H1440 H 0.70693 0.39925 0.23324 0.0
H1441 H 0.78559 0.43688 0.27995 0.0
H1442 H 0.79599 0.4283 0.30724 0.0
H1443 H 0.7827 0.45303 0.30916 0.0
H1444 H 0.75569 0.43133 0.33483 0.0
H1445 H 0.76886 0.4065 0.33278 0.0
H1446 H 0.73992 0.40041 0.32307 0.0
H1447 H 0.72451 0.35913 0.23247 0.0
H1448 H 0.7464 0.32906 0.23757 0.0
H1449 H 0.78633 0.37947 0.29983 0.0
C1450 C 0.73435 0.44715 0.29145 0.0
C1451 C 0.71685 0.45266 0.27667 0.0
C1452 C 0.7076 0.43465 0.25532 0.0
C1453 C 0.71479 0.41252 0.24942 0.0
C1454 C 0.73186 0.40781 0.26455 0.0
C1455 C 0.7418 0.4252 0.28494 0.0
C1456 C 0.7604 0.41659 0.29796 0.0
C1457 C 0.78249 0.43479 0.29862 0.0
C1458 C 0.75596 0.41354 0.32369 0.0
C1459 C 0.75957 0.39161 0.28212 0.0
C1460 C 0.74262 0.38653 0.26313 0.0
C1461 C 0.73793 0.3637 0.24715 0.0
C1462 C 0.75062 0.34633 0.25026 0.0
C1463 C 0.76881 0.35115 0.26888 0.0
C1464 C 0.77303 0.37461 0.28499 0.0
H1465 H 0.89805 0.48755 0.55099 0.0
H1466 H 0.87473 0.50084 0.48067 0.0
H1467 H 0.91168 0.50526 0.46935 0.0
H1468 H 0.95175 0.53051 0.55915 0.0
H1469 H 0.96515 0.51083 0.57343 0.0
H1470 H 0.93701 0.50985 0.57629 0.0
H1471 H 0.92689 0.46325 0.55934 0.0
H1472 H 0.95488 0.46423 0.55556 0.0
H1473 H 0.93363 0.45209 0.53004 0.0
H1474 H 0.94971 0.50446 0.46409 0.0
H1475 H 0.98922 0.50824 0.46841 0.0
H1476 H 0.98852 0.49736 0.54278 0.0
C1477 C 0.9008 0.49199 0.53344 0.0
C1478 C 0.88345 0.49371 0.51666 0.0
C1479 C 0.88774 0.49938 0.49381 0.0
C1480 C 0.90861 0.5017 0.48711 0.0
C1481 C 0.92501 0.49851 0.50353 0.0
C1482 C 0.92157 0.49447 0.52647 0.0
C1483 C 0.9422 0.49208 0.54069 0.0
C1484 C 0.94946 0.51202 0.56375 0.0
C1485 C 0.93921 0.46638 0.54676 0.0
C1486 C 0.95782 0.49592 0.52227 0.0
C1487 C 0.94736 0.49892 0.50077 0.0
C1488 C 0.95819 0.50245 0.48092 0.0
C1489 C 0.98065 0.50439 0.48355 0.0
C1490 C 0.99208 0.50334 0.50606 0.0
C1491 C 0.98032 0.49818 0.52535 0.0
H1492 H 0.40665 0.09362 0.25248 0.0
H1493 H 0.38838 0.08309 0.3227 0.0
H1494 H 0.35762 0.10219 0.31555 0.0
H1495 H 0.39695 0.15009 0.25163 0.0
H1496 H 0.38509 0.14367 0.22018 0.0
H1497 H 0.40424 0.12738 0.23014 0.0
H1498 H 0.37601 0.08609 0.21291 0.0
H1499 H 0.35672 0.10226 0.2027 0.0
H1500 H 0.34927 0.08067 0.22224 0.0
H1501 H 0.33121 0.12451 0.30204 0.0
H1502 H 0.31098 0.15066 0.28392 0.0
H1503 H 0.34636 0.14642 0.22214 0.0
C1504 C 0.39617 0.09551 0.26633 0.0
C1505 C 0.39982 0.08757 0.28829 0.0
C1506 C 0.38568 0.08947 0.30589 0.0
C1507 C 0.3682 0.10002 0.30188 0.0
C1508 C 0.36495 0.10769 0.27991 0.0
C1509 C 0.37841 0.10538 0.26235 0.0
C1510 C 0.37168 0.11557 0.24057 0.0
C1511 C 0.39061 0.13537 0.23536 0.0
C1512 C 0.3629 0.09492 0.21829 0.0
C1513 C 0.35348 0.12597 0.24954 0.0
C1514 C 0.34938 0.12038 0.27188 0.0
C1515 C 0.33387 0.12856 0.28434 0.0
C1516 C 0.32241 0.14321 0.27388 0.0
C1517 C 0.32684 0.14978 0.25147 0.0
C1518 C 0.3424 0.14096 0.23899 0.0
H1519 H 0.36373 0.17313 0.5504 0.0
H1520 H 0.32987 0.14142 0.47762 0.0
H1521 H 0.35827 0.11922 0.47003 0.0
H1522 H 0.41848 0.18112 0.53577 0.0
H1523 H 0.42942 0.17281 0.56296 0.0
H1524 H 0.40639 0.18619 0.56313 0.0
H1525 H 0.38405 0.14921 0.57835 0.0
H1526 H 0.40706 0.13579 0.57834 0.0
H1527 H 0.38095 0.11874 0.56154 0.0
H1528 H 0.39089 0.10183 0.46929 0.0
H1529 H 0.42425 0.08758 0.47632 0.0
H1530 H 0.43735 0.12868 0.55017 0.0
C1531 C 0.3622 0.1614 0.53289 0.0
C1532 C 0.34439 0.15913 0.51456 0.0
C1533 C 0.34315 0.1435 0.49199 0.0
C1534 C 0.3593 0.13085 0.48747 0.0
C1535 C 0.37666 0.13369 0.50574 0.0
C1536 C 0.37815 0.14835 0.52813 0.0
C1537 C 0.39851 0.14787 0.54463 0.0
C1538 C 0.41412 0.17352 0.55205 0.0
C1539 C 0.39226 0.13726 0.56704 0.0
C1540 C 0.40825 0.13074 0.52792 0.0
C1541 C 0.39538 0.12303 0.50553 0.0
C1542 C 0.40104 0.10769 0.48677 0.0
C1543 C 0.42019 0.09982 0.4909 0.0
C1544 C 0.43367 0.10703 0.51371 0.0
C1545 C 0.42745 0.12271 0.53253 0.0
H1546 H 0.7263 0.63029 0.31562 0.0
H1547 H 0.72277 0.58754 0.24394 0.0
H1548 H 0.74274 0.6249 0.23086 0.0
H1549 H 0.71972 0.6865 0.29713 0.0
H1550 H 0.73887 0.70646 0.3219 0.0
H1551 H 0.72416 0.67663 0.32552 0.0
H1552 H 0.76055 0.66605 0.33783 0.0
H1553 H 0.77535 0.69592 0.33448 0.0
H1554 H 0.78123 0.66898 0.31804 0.0
H1555 H 0.76426 0.66902 0.22553 0.0
H1556 H 0.78589 0.71167 0.22929 0.0
H1557 H 0.77656 0.72693 0.30459 0.0
C1558 C 0.72974 0.62856 0.29711 0.0
C1559 C 0.72264 0.60509 0.28098 0.0
C1560 C 0.72784 0.60456 0.25699 0.0
C1561 C 0.73922 0.62604 0.24932 0.0
C1562 C 0.74579 0.64866 0.26565 0.0
C1563 C 0.74133 0.64991 0.28921 0.0
C1564 C 0.75066 0.67628 0.3035 0.0
C1565 C 0.73225 0.6871 0.31255 0.0
C1566 C 0.76798 0.67684 0.32472 0.0
C1567 C 0.7611 0.68988 0.28448 0.0
C1568 C 0.75795 0.67355 0.26268 0.0
C1569 C 0.76648 0.68166 0.24259 0.0
C1570 C 0.77872 0.70632 0.24483 0.0
C1571 C 0.78261 0.7237 0.26689 0.0
C1572 C 0.77342 0.71492 0.28704 0.0
H1573 H 0.88869 0.45565 0.7296 0.0
H1574 H 0.93342 0.46567 0.79564 0.0
H1575 H 0.91224 0.42742 0.80469 0.0
H1576 H 0.84313 0.43738 0.74937 0.0
H1577 H 0.82832 0.41271 0.72521 0.0
H1578 H 0.84961 0.43661 0.71888 0.0
H1579 H 0.87079 0.40561 0.70118 0.0
H1580 H 0.84843 0.38167 0.70559 0.0
H1581 H 0.87593 0.38298 0.71823 0.0
H1582 H 0.88115 0.39838 0.8134 0.0
H1583 H 0.84839 0.36593 0.81339 0.0
H1584 H 0.82471 0.37071 0.73989 0.0
C1585 C 0.89472 0.44882 0.74501 0.0
C1586 C 0.91224 0.46346 0.76221 0.0
C1587 C 0.91975 0.45455 0.78251 0.0
C1588 C 0.90783 0.43297 0.78785 0.0
C1589 C 0.88907 0.42026 0.77211 0.0
C1590 C 0.8832 0.4268 0.75031 0.0
C1591 C 0.86141 0.41043 0.73764 0.0
C1592 C 0.84465 0.42519 0.7325 0.0
C1593 C 0.86435 0.39421 0.71428 0.0
C1594 C 0.85529 0.39548 0.75679 0.0
C1595 C 0.87144 0.4017 0.77655 0.0
C1596 C 0.86876 0.39241 0.79761 0.0
C1597 C 0.84984 0.37442 0.79763 0.0
C1598 C 0.83428 0.36566 0.77647 0.0
C1599 C 0.83653 0.37705 0.7562 0.0
H1600 H 0.08826 0.89615 0.10917 0.0
H1601 H 0.09169 0.85169 0.04024 0.0
H1602 H 0.08475 0.88389 0.01913 0.0
H1603 H 0.04467 0.92192 0.08552 0.0
H1604 H 0.05546 0.95187 0.10413 0.0
H1605 H 0.06069 0.92538 0.11462 0.0
H1606 H 0.10226 0.94498 0.1203 0.0
H1607 H 0.09713 0.97153 0.10987 0.0
H1608 H 0.1147 0.95499 0.09511 0.0
H1609 H 0.07579 0.91982 1.0043 0.0
H1610 H 0.0678 0.95862 0.99742 0.0
H1611 H 0.07185 0.98277 0.07495 0.0
C1612 C 0.08772 0.89328 0.08967 0.0
C1613 C 0.09064 0.87097 0.07658 0.0
C1614 C 0.08955 0.86824 0.05098 0.0
C1615 C 0.08557 0.88656 0.03865 0.0
C1616 C 0.08263 0.90803 0.05188 0.0
C1617 C 0.08374 0.91167 0.07684 0.0
C1618 C 0.07983 0.93673 0.08634 0.0
C1619 C 0.05892 0.9338 0.09837 0.0
C1620 C 0.09967 0.95302 0.10396 0.0
C1621 C 0.07692 0.94665 0.06293 0.0
C1622 C 0.07821 0.92944 0.04328 0.0
C1623 C 0.075 0.93352 0.01961 0.0
C1624 C 0.07045 0.95567 0.01584 0.0
C1625 C 0.06953 0.97401 0.03553 0.0
C1626 C 0.07289 0.96937 0.05949 0.0
H1627 H 0.95379 0.2557 0.85414 0.0
H1628 H 0.94867 0.30847 0.91651 0.0
H1629 H 0.91676 0.31634 0.89414 0.0
H1630 H 0.93667 0.28808 0.80775 0.0
H1631 H 0.9208 0.26079 0.78734 0.0
H1632 H 0.94398 0.25948 0.8077 0.0
H1633 H 0.91939 0.22548 0.82491 0.0
H1634 H 0.89613 0.22672 0.80462 0.0
H1635 H 0.89523 0.2308 0.8368 0.0
H1636 H 0.88502 0.31918 0.86538 0.0
H1637 H 0.85522 0.31551 0.83222 0.0
H1638 H 0.8786 0.26005 0.78816 0.0
C1639 C 0.94602 0.269 0.863 0.0
C1640 C 0.95404 0.28142 0.88733 0.0
C1641 C 0.94305 0.29851 0.89811 0.0
C1642 C 0.9248 0.30324 0.88547 0.0
C1643 C 0.91719 0.29066 0.86181 0.0
C1644 C 0.92733 0.27378 0.8506 0.0
C1645 C 0.91513 0.2624 0.82514 0.0
C1646 C 0.93004 0.26803 0.80584 0.0
C1647 C 0.90593 0.2347 0.82273 0.0
C1648 C 0.89675 0.27553 0.82395 0.0
C1649 C 0.89839 0.29187 0.84531 0.0
C1650 C 0.88354 0.30635 0.84859 0.0
C1651 C 0.86658 0.30413 0.82964 0.0
C1652 C 0.86431 0.28742 0.80756 0.0
C1653 C 0.8797 0.27292 0.80483 0.0
H1654 H 0.56589 0.23614 0.54473 0.0
H1655 H 0.61633 0.25242 0.60704 0.0
H1656 H 0.6195 0.20996 0.59859 0.0
H1657 H 0.53904 0.17713 0.55227 0.0
H1658 H 0.53344 0.16345 0.52048 0.0
H1659 H 0.53616 0.19571 0.52985 0.0
H1660 H 0.56646 0.20512 0.50277 0.0
H1661 H 0.56378 0.17283 0.49325 0.0
H1662 H 0.59001 0.19285 0.5065 0.0
H1663 H 0.61691 0.16573 0.58452 0.0
H1664 H 0.6074 0.12175 0.56659 0.0
H1665 H 0.5574 0.1324 0.51432 0.0
C1666 C 0.57782 0.23086 0.55639 0.0
C1667 C 0.59093 0.24784 0.57655 0.0
C1668 C 0.60613 0.23996 0.59147 0.0
C1669 C 0.6081 0.21581 0.5868 0.0
C1670 C 0.59481 0.19953 0.56707 0.0
C1671 C 0.57996 0.20662 0.55203 0.0
C1672 C 0.56714 0.18501 0.53258 0.0
C1673 C 0.54249 0.18004 0.5339 0.0
C1674 C 0.57214 0.18921 0.50727 0.0
C1675 C 0.57648 0.16456 0.53973 0.0
C1676 C 0.59281 0.17357 0.55932 0.0
C1677 C 0.6042 0.15848 0.56912 0.0
C1678 C 0.59873 0.13351 0.55875 0.0
C1679 C 0.5817 0.12364 0.53905 0.0
C1680 C 0.57044 0.13943 0.52943 0.0
H1681 H 0.59606 0.7554 0.38716 0.0
H1682 H 0.57378 0.82097 0.38366 0.0
H1683 H 0.6064 0.8378 0.36512 0.0
H1684 H 0.65371 0.78312 0.40052 0.0
H1685 H 0.66106 0.75875 0.38129 0.0
H1686 H 0.63645 0.75245 0.39504 0.0
H1687 H 0.61372 0.73394 0.35266 0.0
H1688 H 0.63829 0.74002 0.33884 0.0
H1689 H 0.61565 0.75189 0.32917 0.0
H1690 H 0.64224 0.84737 0.34682 0.0
H1691 H 0.67592 0.84745 0.32814 0.0
H1692 H 0.67328 0.77457 0.34196 0.0
C1693 C 0.59804 0.77332 0.38251 0.0
C1694 C 0.58233 0.78686 0.38686 0.0
C1695 C 0.58547 0.81015 0.3803 0.0
C1696 C 0.60404 0.81993 0.36991 0.0
C1697 C 0.61923 0.80606 0.36586 0.0
C1698 C 0.61623 0.78311 0.37172 0.0
C1699 C 0.63426 0.7713 0.36443 0.0
C1700 C 0.64713 0.76611 0.38665 0.0
C1701 C 0.62492 0.7479 0.34513 0.0
C1702 C 0.6481 0.79124 0.35385 0.0
C1703 C 0.63927 0.81123 0.35489 0.0
C1704 C 0.64917 0.83171 0.34584 0.0
C1705 C 0.66829 0.83156 0.33515 0.0
C1706 C 0.67741 0.81103 0.33349 0.0
C1707 C 0.6671 0.79077 0.34323 0.0
H1708 H 0.09868 0.29693 0.4581 0.0
H1709 H 0.09517 0.25933 0.38394 0.0
H1710 H 0.07626 0.22073 0.3947 0.0
H1711 H 0.11101 0.25053 0.48616 0.0
H1712 H 0.09496 0.25511 0.51035 0.0
H1713 H 0.10612 0.28014 0.49605 0.0
H1714 H 0.06723 0.2863 0.48638 0.0
H1715 H 0.05592 0.26086 0.50025 0.0
H1716 H 0.04574 0.26113 0.46939 0.0
H1717 H 0.05899 0.18597 0.41354 0.0
H1718 H 0.04974 0.15648 0.44055 0.0
H1719 H 0.06626 0.21629 0.50269 0.0
C1720 C 0.09391 0.2806 0.44411 0.0
C1721 C 0.09839 0.28121 0.42019 0.0
C1722 C 0.09197 0.25937 0.40244 0.0
C1723 C 0.08098 0.23737 0.40828 0.0
C1724 C 0.07653 0.23748 0.43193 0.0
C1725 C 0.08303 0.25843 0.44965 0.0
C1726 C 0.07788 0.25314 0.47413 0.0
C1727 C 0.09873 0.26013 0.49275 0.0
C1728 C 0.06067 0.26613 0.48306 0.0
C1729 C 0.06854 0.22574 0.4676 0.0
C1730 C 0.06722 0.2172 0.44303 0.0
C1731 C 0.05997 0.19242 0.43282 0.0
C1732 C 0.05489 0.17581 0.44833 0.0
C1733 C 0.05759 0.18404 0.47377 0.0
C1734 C 0.06374 0.2094 0.48333 0.0
H1735 H 0.56418 0.22002 0.20319 0.0
H1736 H 0.56472 0.29545 0.20013 0.0
H1737 H 0.60335 0.30851 0.21868 0.0
H1738 H 0.59909 0.23182 0.26037 0.0
H1739 H 0.61291 0.2085 0.25069 0.0
H1740 H 0.58503 0.20517 0.23793 0.0
H1741 H 0.59597 0.20023 0.19463 0.0
H1742 H 0.62385 0.20346 0.20724 0.0
H1743 H 0.61755 0.22347 0.18757 0.0
H1744 H 0.64246 0.31303 0.23568 0.0
H1745 H 0.67891 0.30843 0.25105 0.0
H1746 H 0.65203 0.23032 0.24315 0.0
C1747 C 0.57229 0.23933 0.20677 0.0
C1748 C 0.56144 0.25673 0.20045 0.0
C1749 C 0.57274 0.2818 0.205 0.0
C1750 C 0.59467 0.28942 0.21548 0.0
C1751 C 0.60496 0.27173 0.22128 0.0
C1752 C 0.59415 0.24723 0.21713 0.0
C1753 C 0.6091 0.2318 0.22427 0.0
C1754 C 0.60105 0.21855 0.24453 0.0
C1755 C 0.61177 0.21368 0.20211 0.0
C1756 C 0.62991 0.25146 0.23334 0.0
C1757 C 0.62732 0.27438 0.23132 0.0
C1758 C 0.64465 0.29522 0.23762 0.0
C1759 C 0.66521 0.29246 0.24625 0.0
C1760 C 0.66799 0.26909 0.2486 0.0
C1761 C 0.65013 0.24845 0.2421 0.0
H1762 H 0.61429 0.9312 0.90881 0.0
H1763 H 0.60388 0.87252 0.94974 0.0
H1764 H 0.59476 0.8995 0.98328 0.0
H1765 H 0.63918 0.9796 0.96151 0.0
H1766 H 0.62682 1.00183 0.95048 0.0
H1767 H 0.63305 0.97803 0.92935 0.0
H1768 H 0.59268 0.96477 0.90898 0.0
H1769 H 0.58638 0.98848 0.93011 0.0
H1770 H 0.57124 0.95714 0.92721 0.0
H1771 H 0.58639 0.93185 0.01222 0.0
H1772 H 0.57922 0.96911 0.03538 0.0
H1773 H 0.59474 1.00716 0.97652 0.0
C1774 C 0.61025 0.92417 0.92492 0.0
C1775 C 0.60997 0.89981 0.9267 0.0
C1776 C 0.60455 0.89118 0.94803 0.0
C1777 C 0.59922 0.90633 0.96721 0.0
C1778 C 0.59962 0.93017 0.96493 0.0
C1779 C 0.60512 0.93921 0.94449 0.0
C1780 C 0.60438 0.96574 0.94702 0.0
C1781 C 0.62721 0.98227 0.9471 0.0
C1782 C 0.58766 0.96922 0.92715 0.0
C1783 C 0.59706 0.96979 0.97175 0.0
C1784 C 0.59464 0.94906 0.98181 0.0
C1785 C 0.58831 0.94828 1.00466 0.0
C1786 C 0.58438 0.96941 0.01767 0.0
C1787 C 0.58658 0.99065 0.00753 0.0
C1788 C 0.59292 0.99092 0.98438 0.0
H1789 H 0.94769 0.78305 0.6887 0.0
H1790 H 0.9509 0.71776 0.71725 0.0
H1791 H 0.9244 0.72588 0.74462 0.0
H1792 H 0.94219 0.82039 0.74524 0.0
H1793 H 0.92304 0.83449 0.73103 0.0
H1794 H 0.94317 0.82449 0.71434 0.0
H1795 H 0.91269 0.79768 0.68043 0.0
H1796 H 0.89257 0.80803 0.69675 0.0
H1797 H 0.8905 0.77576 0.68832 0.0
H1798 H 0.89787 0.74075 0.76852 0.0
H1799 H 0.86696 0.7565 0.78191 0.0
H1800 H 0.88129 0.81275 0.73865 0.0
C1801 C 0.94291 0.77053 0.7008 0.0
C1802 C 0.95157 0.74993 0.70107 0.0
C1803 C 0.94463 0.73377 0.71688 0.0
C1804 C 0.92972 0.73832 0.73263 0.0
C1805 C 0.92194 0.7591 0.73234 0.0
C1806 C 0.92799 0.77475 0.7166 0.0
C1807 C 0.91603 0.79485 0.71883 0.0
C1808 C 0.93207 0.82005 0.7279 0.0
C1809 C 0.90212 0.79401 0.69465 0.0
C1810 C 0.9019 0.78766 0.73786 0.0
C1811 C 0.90592 0.76727 0.74571 0.0
C1812 C 0.89419 0.75641 0.7623 0.0
C1813 C 0.87692 0.76564 0.76998 0.0
C1814 C 0.87197 0.7859 0.76142 0.0
C1815 C 0.88509 0.79756 0.74584 0.0
H1816 H 0.1066 1.00043 0.83924 0.0
H1817 H 0.17129 0.04732 0.86555 0.0
H1818 H 0.16035 0.05549 0.90671 0.0
H1819 H 0.07647 0.03621 0.87507 0.0
H1820 H 0.0568 1.00988 0.88 0.0
H1821 H 0.07001 1.008 0.85318 0.0
H1822 H 0.08322 0.97114 0.86389 0.0
H1823 H 0.07006 0.97291 0.89075 0.0
H1824 H 0.09877 0.97399 0.89314 0.0
H1825 H 0.13999 0.05854 0.94819 0.0
H1826 H 0.11511 0.05555 0.97979 0.0
H1827 H 0.06411 1.00647 0.92603 0.0
C1828 C 0.11872 0.01247 0.85351 0.0
C1829 C 0.14022 0.02306 0.84813 0.0
C1830 C 0.15489 0.03866 0.86823 0.0
C1831 C 0.14864 0.04346 0.89205 0.0
C1832 C 0.12738 0.03269 0.89652 0.0
C1833 C 0.11272 0.0174 0.87745 0.0
C1834 C 0.09081 1.0078 0.88644 0.0
C1835 C 0.07244 0.01596 0.87286 0.0
C1836 C 0.0854 0.9798 0.88336 0.0
C1837 C 0.0951 0.0199 0.91347 0.0
C1838 C 0.11629 0.03429 0.9192 0.0
C1839 C 0.12348 0.04715 0.94336 0.0
C1840 C 0.10908 0.04535 0.96156 0.0
C1841 C 0.08715 0.03069 0.95628 0.0
C1842 C 0.08055 0.0179 0.93147 0.0
H1843 H 0.84206 0.42567 0.56683 0.0
H1844 H 0.82035 0.36006 0.51107 0.0
H1845 H 0.83421 0.33643 0.53907 0.0
H1846 H 0.89135 0.40912 0.59618 0.0
H1847 H 0.88708 0.42222 0.62602 0.0
H1848 H 0.8797 0.4351 0.60028 0.0
H1849 H 0.84024 0.42969 0.61076 0.0
H1850 H 0.84755 0.41695 0.63647 0.0
H1851 H 0.8249 0.39988 0.61378 0.0
H1852 H 0.84638 0.31921 0.57345 0.0
H1853 H 0.85173 0.30825 0.61371 0.0
H1854 H 0.86338 0.38429 0.64808 0.0
C1855 C 0.84065 0.40643 0.56038 0.0
C1856 C 0.83022 0.39462 0.53684 0.0
C1857 C 0.82826 0.36938 0.5291 0.0
C1858 C 0.83634 0.3559 0.54474 0.0
C1859 C 0.84634 0.36801 0.56795 0.0
C1860 C 0.84842 0.39268 0.57585 0.0
C1861 C 0.85714 0.40057 0.60261 0.0
C1862 C 0.88019 0.41777 0.60649 0.0
C1863 C 0.84151 0.41245 0.61672 0.0
C1864 C 0.85786 0.37607 0.6089 0.0
C1865 C 0.8526 0.35778 0.58839 0.0
C1866 C 0.85089 0.33336 0.58959 0.0
C1867 C 0.85393 0.32732 0.61243 0.0
C1868 C 0.85808 0.34555 0.6336 0.0
C1869 C 0.86053 0.37025 0.63192 0.0
H1870 H 0.46815 1.00606 0.36553 0.0
H1871 H 0.49012 0.07659 0.34485 0.0
H1872 H 0.51917 0.08922 0.37992 0.0
H1873 H 0.47602 0.02682 0.42878 0.0
H1874 H 0.48622 1.00167 0.43629 0.0
H1875 H 0.46767 0.99733 0.40882 0.0
H1876 H 0.49544 0.98199 0.38357 0.0
H1877 H 0.514 0.98603 0.41101 0.0
H1878 H 0.52291 1.00077 0.38659 0.0
H1879 H 0.54526 0.09458 0.41702 0.0
H1880 H 0.56742 0.09198 0.45465 0.0
H1881 H 0.52767 0.01875 0.45183 0.0
C1882 C 0.4791 0.02413 0.36839 0.0
C1883 C 0.47689 0.04044 0.35267 0.0
C1884 C 0.49161 0.06384 0.35675 0.0
C1885 C 0.50813 0.07119 0.37658 0.0
C1886 C 0.50973 0.05483 0.39191 0.0
C1887 C 0.49577 0.03173 0.38802 0.0
C1888 C 0.50107 0.01778 0.40737 0.0
C1889 C 0.48158 0.01049 0.42113 0.0
C1890 C 0.50882 0.99532 0.39648 0.0
C1891 C 0.51961 0.03707 0.42319 0.0
C1892 C 0.52459 0.05813 0.41372 0.0
C1893 C 0.54157 0.07823 0.42471 0.0
C1894 C 0.55399 0.07663 0.44594 0.0
C1895 C 0.54896 0.05529 0.45588 0.0
C1896 C 0.53151 0.03538 0.44457 0.0
H1897 H 0.81392 0.773 0.0785 0.0
H1898 H 0.77382 0.69855 0.06648 0.0
H1899 H 0.76872 0.70415 0.10959 0.0
H1900 H 0.84168 0.77424 0.13663 0.0
H1901 H 0.84149 0.80522 0.14913 0.0
H1902 H 0.84099 0.79601 0.11699 0.0
H1903 H 0.80573 0.81052 0.10888 0.0
H1904 H 0.80611 0.81972 0.14104 0.0
H1905 H 0.78228 0.79867 0.12292 0.0
H1906 H 0.76778 0.71768 0.15442 0.0
H1907 H 0.77352 0.73716 0.19786 0.0
H1908 H 0.81591 0.80198 0.18211 0.0
C1909 C 0.80395 0.7579 0.08487 0.0
C1910 C 0.79421 0.73529 0.06878 0.0
C1911 C 0.78138 0.71607 0.07814 0.0
C1912 C 0.77835 0.71909 0.10271 0.0
C1913 C 0.78816 0.7415 0.11801 0.0
C1914 C 0.80076 0.76059 0.10949 0.0
C1915 C 0.8099 0.78261 0.13 0.0
C1916 C 0.835 0.78993 0.13338 0.0
C1917 C 0.80045 0.80416 0.12543 0.0
C1918 C 0.8013 0.77254 0.15152 0.0
C1919 C 0.78827 0.74901 0.14404 0.0
C1920 C 0.77797 0.73608 0.16043 0.0
C1921 C 0.78123 0.74731 0.18507 0.0
C1922 C 0.79509 0.77103 0.19335 0.0
C1923 C 0.80522 0.7838 0.17627 0.0
H1924 H 0.15795 0.02411 0.68348 0.0
H1925 H 0.11172 0.0418 0.7305 0.0
H1926 H 0.08736 0.0452 0.69498 0.0
H1927 H 0.15082 0.06493 0.64345 0.0
H1928 H 0.15289 0.04511 0.61596 0.0
H1929 H 0.16615 0.0422 0.64465 0.0
H1930 H 0.14559 0.99655 0.63721 0.0
H1931 H 0.13246 0.99927 0.60835 0.0
H1932 H 0.1162 0.98798 0.63046 0.0
H1933 H 0.06905 0.05132 0.65362 0.0
H1934 H 0.05734 0.05481 0.6115 0.0
H1935 H 0.11311 0.03043 0.58868 0.0
C1936 C 0.1423 0.02772 0.68625 0.0
C1937 C 0.13672 0.03167 0.71043 0.0
C1938 C 0.11641 0.03775 0.71264 0.0
C1939 C 0.10242 0.04002 0.69233 0.0
C1940 C 0.10849 0.03634 0.66903 0.0
C1941 C 0.12784 0.02987 0.66581 0.0
C1942 C 0.13063 0.02748 0.63874 0.0
C1943 C 0.15136 0.04603 0.63551 0.0
C1944 C 0.13126 1.00126 0.62806 0.0
C1945 C 0.11001 0.03361 0.62726 0.0
C1946 C 0.09763 0.03902 0.64526 0.0
C1947 C 0.07861 0.0467 0.63955 0.0
C1948 C 0.07202 0.04873 0.61529 0.0
C1949 C 0.08382 0.04269 0.596 0.0
C1950 C 0.10321 0.03486 0.60247 0.0
H1951 H 0.81939 0.41753 0.41856 0.0
H1952 H 0.8532 0.38424 0.46895 0.0
H1953 H 0.85297 0.3502 0.43573 0.0
H1954 H 0.78495 0.36335 0.3826 0.0
H1955 H 0.78716 0.37361 0.3542 0.0
H1956 H 0.79033 0.39552 0.38186 0.0
H1957 H 0.82827 0.41819 0.37325 0.0
H1958 H 0.8251 0.39631 0.34551 0.0
H1959 H 0.84874 0.40149 0.36795 0.0
H1960 H 0.84593 0.31806 0.3979 0.0
H1961 H 0.83524 0.29173 0.357 0.0
H1962 H 0.8095 0.34811 0.33082 0.0
C1963 C 0.82682 0.4031 0.42246 0.0
C1964 C 0.83627 0.40331 0.44613 0.0
C1965 C 0.84602 0.38435 0.45076 0.0
C1966 C 0.84592 0.36497 0.43208 0.0
C1967 C 0.83646 0.36521 0.40887 0.0
C1968 C 0.82739 0.38396 0.4039 0.0
C1969 C 0.81849 0.37996 0.37733 0.0
C1970 C 0.79377 0.37798 0.3738 0.0
C1971 C 0.8309 0.40019 0.36531 0.0
C1972 C 0.82344 0.35574 0.36832 0.0
C1973 C 0.83368 0.34743 0.38678 0.0
C1974 C 0.83833 0.32457 0.38316 0.0
C1975 C 0.83222 0.30977 0.36 0.0
C1976 C 0.82198 0.31819 0.34092 0.0
C1977 C 0.81783 0.34155 0.34506 0.0
H1978 H 0.49306 0.01252 0.2421 0.0
H1979 H 0.433 0.02818 0.21355 0.0
H1980 H 0.43101 0.99889 0.17595 0.0
H1981 H 0.51745 0.01453 0.19393 0.0
H1982 H 0.53026 0.98978 0.1962 0.0
H1983 H 0.52291 1.00574 0.22273 0.0
H1984 H 0.50032 0.9643 0.2301 0.0
H1985 H 0.50704 0.94843 0.20267 0.0
H1986 H 0.47887 0.94534 0.20701 0.0
H1987 H 0.43864 0.97559 0.1398 0.0
H1988 H 0.46048 0.97287 0.10661 0.0
H1989 H 0.51577 0.97116 0.15669 0.0
C1990 C 0.47934 1.00948 0.22802 0.0
C1991 C 0.46322 0.02255 0.23073 0.0
C1992 C 0.44558 0.01832 0.21189 0.0
C1993 C 0.44404 1.00127 0.19066 0.0
C1994 C 0.46011 0.98841 0.18859 0.0
C1995 C 0.47762 0.99259 0.20669 0.0
C1996 C 0.49497 0.98047 0.19818 0.0
C1997 C 0.51769 0.99874 0.203 0.0
C1998 C 0.49531 0.95831 0.2102 0.0
C1999 C 0.48611 0.97229 0.17145 0.0
C2000 C 0.46507 0.97506 0.16676 0.0
C2001 C 0.45489 0.9729 0.14322 0.0
C2002 C 0.4674 0.97121 0.12432 0.0
C2003 C 0.48989 0.97246 0.12937 0.0
C2004 C 0.49854 0.97001 0.15251 0.0
H2005 H 0.79281 0.71304 0.91289 0.0
H2006 H 0.79242 0.77911 0.96295 0.0
H2007 H 0.79975 0.80294 0.93111 0.0
H2008 H 0.83611 0.74224 0.88002 0.0
H2009 H 0.82357 0.72475 0.85047 0.0
H2010 H 0.81885 0.71186 0.87715 0.0
H2011 H 0.77723 0.70411 0.86501 0.0
H2012 H 0.78184 0.71707 0.83835 0.0
H2013 H 0.76589 0.7292 0.85966 0.0
H2014 H 0.80699 0.82066 0.89524 0.0
H2015 H 0.81388 0.8319 0.85626 0.0
H2016 H 0.80902 0.756 0.82512 0.0
C2017 C 0.79441 0.73255 0.91714 0.0
C2018 C 0.79191 0.74399 0.94091 0.0
C2019 C 0.79402 0.76958 0.94526 0.0
C2020 C 0.79827 0.78345 0.92715 0.0
C2021 C 0.80032 0.77181 0.90414 0.0
C2022 C 0.79848 0.74697 0.89881 0.0
C2023 C 0.80112 0.73962 0.87196 0.0
C2024 C 0.8211 0.72898 0.86977 0.0
C2025 C 0.78028 0.72141 0.85791 0.0
C2026 C 0.8047 0.76421 0.86333 0.0
C2027 C 0.80422 0.78233 0.88255 0.0
C2028 C 0.80737 0.80661 0.88006 0.0
C2029 C 0.81133 0.81283 0.8576 0.0
C2030 C 0.81205 0.79508 0.83718 0.0
C2031 C 0.80844 0.77015 0.84012 0.0
H2032 H 0.86037 0.11078 0.04117 0.0
H2033 H 0.84434 0.12538 0.96952 0.0
H2034 H 0.8697 0.10184 0.95355 0.0
H2035 H 0.91749 0.119 0.03722 0.0
H2036 H 0.92081 0.09579 0.05429 0.0
H2037 H 0.90012 0.11205 0.05986 0.0
H2038 H 0.87041 0.07108 0.05161 0.0
H2039 H 0.89102 0.05466 0.04626 0.0
H2040 H 0.8677 0.04984 0.02348 0.0
H2041 H 0.89687 0.07721 0.94556 0.0
H2042 H 0.92565 0.05463 0.94643 0.0
H2043 H 0.92541 0.05805 0.02376 0.0
C2044 C 0.86206 0.10866 0.02208 0.0
C2045 C 0.8504 0.1195 0.00639 0.0
C2046 C 0.85324 0.11704 0.98167 0.0
C2047 C 0.86751 0.10371 0.97248 0.0
C2048 C 0.87904 0.09343 0.98842 0.0
C2049 C 0.87667 0.09594 0.01274 0.0
C2050 C 0.89213 0.08453 0.02627 0.0
C2051 C 0.90861 0.104 0.04555 0.0
C2052 C 0.87955 0.06379 0.03756 0.0
C2053 C 0.90318 0.07479 1.00567 0.0
C2054 C 0.89537 0.08005 0.98398 0.0
C2055 C 0.90312 0.07292 0.96241 0.0
C2056 C 0.91934 0.06002 0.96305 0.0
C2057 C 0.92765 0.05458 0.98514 0.0
C2058 C 0.91944 0.06212 0.00666 0.0
H2059 H 0.40613 0.43947 0.99957 0.0
H2060 H 0.39306 0.46301 0.07252 0.0
H2061 H 0.42999 0.49108 0.08218 0.0
H2062 H 0.46287 0.44079 0.01567 0.0
H2063 H 0.47158 0.45208 0.98931 0.0
H2064 H 0.44411 0.43387 0.98791 0.0
H2065 H 0.42877 0.4682 0.97378 0.0
H2066 H 0.45618 0.4865 0.97506 0.0
H2067 H 0.4371 0.49866 0.99181 0.0
H2068 H 0.46874 0.51606 0.08434 0.0
H2069 H 0.50563 0.53752 0.07858 0.0
H2070 H 0.49428 0.49893 1.00389 0.0
C2071 C 0.41097 0.45055 0.0176 0.0
C2072 C 0.39646 0.44887 0.03531 0.0
C2073 C 0.40366 0.46382 0.05861 0.0
C2074 C 0.4247 0.47984 0.06428 0.0
C2075 C 0.43855 0.48089 0.04649 0.0
C2076 C 0.43196 0.46674 0.02357 0.0
C2077 C 0.45006 0.47152 0.00775 0.0
C2078 C 0.45759 0.44817 0.99968 0.0
C2079 C 0.44258 0.48183 0.9858 0.0
C2080 C 0.46789 0.49062 0.02534 0.0
C2081 C 0.46085 0.4956 0.04762 0.0
C2082 C 0.47432 0.51234 0.06694 0.0
C2083 C 0.49536 0.52446 0.06346 0.0
C2084 C 0.50302 0.52012 0.04076 0.0
C2085 C 0.48901 0.50277 0.02145 0.0
H2086 H 0.37828 0.63659 0.79808 0.0
H2087 H 0.41187 0.64204 0.7353 0.0
H2088 H 0.39736 0.67786 0.72946 0.0
H2089 H 0.32913 0.65263 0.77467 0.0
H2090 H 0.32611 0.66997 0.80323 0.0
H2091 H 0.33958 0.64547 0.80273 0.0
H2092 H 0.37353 0.67515 0.82933 0.0
H2093 H 0.36017 0.69977 0.82993 0.0
H2094 H 0.38644 0.70276 0.81961 0.0
H2095 H 0.37902 0.7169 0.7319 0.0
H2096 H 0.3585 0.7486 0.73959 0.0
H2097 H 0.3337 0.717 0.79905 0.0
C2098 C 0.3827 0.64509 0.7829 0.0
C2099 C 0.39674 0.63536 0.76716 0.0
C2100 C 0.40149 0.64808 0.74782 0.0
C2101 C 0.39316 0.66888 0.74441 0.0
C2102 C 0.37956 0.67775 0.76025 0.0
C2103 C 0.37429 0.6659 0.77911 0.0
C2104 C 0.35918 0.67872 0.7936 0.0
C2105 C 0.33719 0.66062 0.79356 0.0
C2106 C 0.37049 0.68974 0.81967 0.0
C2107 C 0.3561 0.69929 0.77983 0.0
C2108 C 0.3685 0.69876 0.76094 0.0
C2109 C 0.36925 0.71681 0.74656 0.0
C2110 C 0.35735 0.73519 0.75119 0.0
C2111 C 0.34372 0.73619 0.76984 0.0
C2112 C 0.34336 0.71738 0.7843 0.0
H2113 H 0.22327 0.59443 0.50782 0.0
H2114 H 0.23907 0.64736 0.5753 0.0
H2115 H 0.20089 0.63554 0.58288 0.0
H2116 H 0.17311 0.60542 0.48942 0.0
H2117 H 0.15893 0.57408 0.47682 0.0
H2118 H 0.18808 0.58387 0.47788 0.0
H2119 H 0.19279 0.54984 0.50151 0.0
H2120 H 0.16357 0.54003 0.50024 0.0
H2121 H 0.18091 0.54794 0.52907 0.0
H2122 H 0.16145 0.62058 0.58226 0.0
H2123 H 0.12156 0.60281 0.57307 0.0
H2124 H 0.13022 0.56157 0.50471 0.0
C2125 C 0.21867 0.60284 0.52448 0.0
C2126 C 0.23389 0.62143 0.54127 0.0
C2127 C 0.22746 0.63284 0.5625 0.0
C2128 C 0.2059 0.62627 0.56694 0.0
C2129 C 0.19103 0.60836 0.54985 0.0
C2130 C 0.197 0.59666 0.52907 0.0
C2131 C 0.17723 0.57939 0.51293 0.0
C2132 C 0.17419 0.58614 0.48778 0.0
C2133 C 0.17872 0.55272 0.51082 0.0
C2134 C 0.15931 0.58419 0.52742 0.0
C2135 C 0.16775 0.60051 0.54891 0.0
C2136 C 0.15455 0.60772 0.56552 0.0
C2137 C 0.13201 0.59772 0.56014 0.0
C2138 C 0.12304 0.58127 0.53812 0.0
C2139 C 0.13679 0.57452 0.52148 0.0
H2140 H 0.71952 0.01841 0.78259 0.0
H2141 H 0.6714 0.95904 0.73471 0.0
H2142 H 0.69251 0.93001 0.7446 0.0
H2143 H 0.76496 0.99952 0.76515 0.0
H2144 H 0.78129 1.00796 0.79462 0.0
H2145 H 0.76087 0.02384 0.78745 0.0
H2146 H 0.74293 0.0134 0.82487 0.0
H2147 H 0.76332 0.99741 0.83217 0.0
H2148 H 0.73473 0.98197 0.82831 0.0
H2149 H 0.71945 0.90825 0.7556 0.0
H2150 H 0.75264 0.89457 0.76579 0.0
H2151 H 0.78518 0.96729 0.80575 0.0
C2152 C 0.71319 0.99915 0.77487 0.0
C2153 C 0.69362 0.99071 0.75827 0.0
C2154 C 0.68619 0.96567 0.74767 0.0
C2155 C 0.69802 0.94907 0.75326 0.0
C2156 C 0.71739 0.95786 0.7693 0.0
C2157 C 0.72511 0.98229 0.77993 0.0
C2158 C 0.74769 0.98706 0.79438 0.0
C2159 C 0.7647 1.00569 0.78481 0.0
C2160 C 0.74713 0.99545 0.82155 0.0
C2161 C 0.75168 0.96167 0.78928 0.0
C2162 C 0.73366 0.94512 0.77526 0.0
C2163 C 0.73351 0.92085 0.76696 0.0
C2164 C 0.75233 0.91322 0.77291 0.0
C2165 C 0.77102 0.92971 0.78705 0.0
C2166 C 0.7708 0.95428 0.79538 0.0
H2167 H 0.78185 0.95552 0.53967 0.0
H2168 H 0.75032 0.88428 0.4953 0.0
H2169 H 0.7177 0.89863 0.4848 0.0
H2170 H 0.7347 0.96645 0.56405 0.0
H2171 H 0.74088 0.9986 0.56313 0.0
H2172 H 0.76267 0.98353 0.56599 0.0
H2173 H 0.77645 0.99813 0.52786 0.0
H2174 H 0.75462 0.01319 0.52488 0.0
H2175 H 0.75794 0.99098 0.4999 0.0
H2176 H 0.68771 0.92012 0.4794 0.0
H2177 H 0.66202 0.94668 0.48194 0.0
H2178 H 0.71161 1.00372 0.53067 0.0
C2179 C 0.76815 0.94301 0.52763 0.0
C2180 C 0.76887 0.91867 0.51839 0.0
C2181 C 0.7504 0.90296 0.50276 0.0
C2182 C 0.73169 0.91097 0.49654 0.0
C2183 C 0.73142 0.93488 0.50601 0.0
C2184 C 0.74911 0.95072 0.52126 0.0
C2185 C 0.74407 0.97524 0.52958 0.0
C2186 C 0.74567 0.9813 0.55734 0.0
C2187 C 0.75917 0.99559 0.51999 0.0
C2188 C 0.7206 0.9703 0.51743 0.0
C2189 C 0.71382 0.94708 0.50344 0.0
C2190 C 0.69287 0.93835 0.49032 0.0
C2191 C 0.67838 0.9536 0.49181 0.0
C2192 C 0.68468 0.97723 0.50662 0.0
C2193 C 0.7062 0.98566 0.5194 0.0
H2194 H 0.39671 0.48379 0.80232 0.0
H2195 H 0.38921 0.48614 0.7257 0.0
H2196 H 0.36888 0.44232 0.71681 0.0
H2197 H 0.40395 0.42142 0.79572 0.0
H2198 H 0.38922 0.41431 0.8204 0.0
H2199 H 0.40356 0.44542 0.82055 0.0
H2200 H 0.36797 0.45925 0.825 0.0
H2201 H 0.3536 0.42825 0.82507 0.0
H2202 H 0.34388 0.44456 0.80336 0.0
H2203 H 0.34779 0.3962 0.71664 0.0
H2204 H 0.32768 0.35659 0.72522 0.0
H2205 H 0.34822 0.38394 0.802 0.0
C2206 C 0.39084 0.47528 0.78355 0.0
C2207 C 0.39486 0.48928 0.76475 0.0
C2208 C 0.38664 0.47657 0.74062 0.0
C2209 C 0.375 0.45137 0.73539 0.0
C2210 C 0.37144 0.43831 0.75434 0.0
C2211 C 0.37918 0.45005 0.77802 0.0
C2212 C 0.37301 0.43221 0.7953 0.0
C2213 C 0.39367 0.42811 0.8088 0.0
C2214 C 0.35877 0.44163 0.81324 0.0
C2215 C 0.36008 0.40868 0.77792 0.0
C2216 C 0.35964 0.41243 0.75427 0.0
C2217 C 0.34842 0.39336 0.73515 0.0
C2218 C 0.33714 0.37054 0.7402 0.0
C2219 C 0.33685 0.36611 0.76424 0.0
C2220 C 0.34867 0.38586 0.78329 0.0
H2221 H 0.21495 0.63485 0.28666 0.0
H2222 H 0.17565 0.62738 0.21744 0.0
H2223 H 0.20412 0.6595 0.20637 0.0
H2224 H 0.24078 0.70188 0.29648 0.0
H2225 H 0.26607 0.69702 0.3096 0.0
H2226 H 0.24053 0.67701 0.31247 0.0
H2227 H 0.25605 0.64089 0.29394 0.0
H2228 H 0.28065 0.66143 0.28909 0.0
H2229 H 0.26376 0.63946 0.26395 0.0
H2230 H 0.23815 0.68795 0.20098 0.0
H2231 H 0.27147 0.72141 0.20654 0.0
H2232 H 0.28916 0.70869 0.27867 0.0
C2233 C 0.21193 0.64107 0.26981 0.0
C2234 C 0.19324 0.62941 0.25299 0.0
C2235 C 0.18986 0.63685 0.2306 0.0
C2236 C 0.20605 0.6546 0.22403 0.0
C2237 C 0.22529 0.66425 0.24012 0.0
C2238 C 0.22803 0.65847 0.26289 0.0
C2239 C 0.25055 0.67082 0.27636 0.0
C2240 C 0.24937 0.6877 0.30011 0.0
C2241 C 0.2635 0.65202 0.2811 0.0
C2242 C 0.25976 0.68503 0.25785 0.0
C2243 C 0.24518 0.68035 0.23679 0.0
C2244 C 0.2497 0.69196 0.2174 0.0
C2245 C 0.26878 0.71065 0.22058 0.0
C2246 C 0.28245 0.71757 0.24316 0.0
C2247 C 0.2788 0.70354 0.26128 0.0
H2248 H 0.55087 0.72565 0.48979 0.0
H2249 H 0.51133 0.69577 0.41956 0.0
H2250 H 0.51104 0.65401 0.42596 0.0
H2251 H 0.58424 0.68281 0.48757 0.0
H2252 H 0.58488 0.68062 0.51911 0.0
H2253 H 0.58149 0.70818 0.50953 0.0
H2254 H 0.54595 0.70486 0.52889 0.0
H2255 H 0.54923 0.67727 0.53856 0.0
H2256 H 0.52433 0.67719 0.52027 0.0
H2257 H 0.51452 0.61486 0.44026 0.0
H2258 H 0.52287 0.58205 0.46002 0.0
H2259 H 0.56171 0.63635 0.5206 0.0
C2260 C 0.54206 0.71036 0.47573 0.0
C2261 C 0.531 0.71436 0.45407 0.0
C2262 C 0.5198 0.69355 0.43631 0.0
C2263 C 0.51957 0.66962 0.43982 0.0
C2264 C 0.53059 0.66639 0.46127 0.0
C2265 C 0.54166 0.68621 0.47895 0.0
C2266 C 0.55229 0.67759 0.5003 0.0
C2267 C 0.57721 0.68791 0.50435 0.0
C2268 C 0.54236 0.68466 0.52338 0.0
C2269 C 0.54602 0.64988 0.49159 0.0
C2270 C 0.53313 0.64386 0.4692 0.0
C2271 C 0.52466 0.61948 0.45774 0.0
C2272 C 0.52946 0.60085 0.46923 0.0
C2273 C 0.54303 0.60629 0.49195 0.0
C2274 C 0.55143 0.63136 0.50319 0.0
H2275 H 0.69208 0.33716 0.65792 0.0
H2276 H 0.63748 0.29037 0.68167 0.0
H2277 H 0.66335 0.27533 0.7072 0.0
H2278 H 0.72833 0.29676 0.65629 0.0
H2279 H 0.75278 0.32052 0.66842 0.0
H2280 H 0.73023 0.32748 0.65146 0.0
H2281 H 0.72894 0.36122 0.68742 0.0
H2282 H 0.75168 0.35459 0.70435 0.0
H2283 H 0.7266 0.3537 0.717 0.0
H2284 H 0.69513 0.26453 0.72976 0.0
H2285 H 0.72985 0.26265 0.7519 0.0
H2286 H 0.76537 0.31756 0.71601 0.0
C2287 C 0.68554 0.32384 0.66861 0.0
C2288 C 0.66245 0.31503 0.66762 0.0
C2289 C 0.65485 0.29766 0.68208 0.0
C2290 C 0.66953 0.28883 0.69655 0.0
C2291 C 0.69204 0.29764 0.69686 0.0
C2292 C 0.70007 0.31512 0.68362 0.0
C2293 C 0.72511 0.32237 0.68827 0.0
C2294 C 0.73467 0.31643 0.6647 0.0
C2295 C 0.73358 0.34959 0.69995 0.0
C2296 C 0.72995 0.30612 0.70603 0.0
C2297 C 0.7105 0.29184 0.71042 0.0
C2298 C 0.71037 0.27565 0.72638 0.0
C2299 C 0.73033 0.27458 0.7388 0.0
C2300 C 0.75062 0.2895 0.73554 0.0
C2301 C 0.75036 0.30529 0.71848 0.0
H2302 H 0.03864 0.36741 0.92507 0.0
H2303 H 0.01694 0.33175 0.98364 0.0
H2304 H 0.02088 0.37243 0.00957 0.0
H2305 H 0.07942 0.41779 0.96227 0.0
H2306 H 0.07435 0.43931 0.94379 0.0
H2307 H 0.06956 0.40747 0.93035 0.0
H2308 H 0.02965 0.40653 0.9143 0.0
H2309 H 0.03428 0.43833 0.92784 0.0
H2310 H 0.01222 0.41597 0.93531 0.0
H2311 H 0.02538 0.41835 0.02814 0.0
H2312 H 0.03319 0.46377 0.03826 0.0
H2313 H 0.05446 0.46807 0.96823 0.0
C2314 C 0.03472 0.36805 0.94337 0.0
C2315 C 0.02735 0.3463 0.95225 0.0
C2316 C 0.02264 0.34812 0.97642 0.0
C2317 C 0.02476 0.37117 0.99123 0.0
C2318 C 0.03187 0.39226 0.98173 0.0
C2319 C 0.03704 0.39077 0.9584 0.0
C2320 C 0.04474 0.4159 0.95236 0.0
C2321 C 0.06843 0.42037 0.94688 0.0
C2322 C 0.0293 0.41938 0.9312 0.0
C2323 C 0.04314 0.43194 0.97586 0.0
C2324 C 0.03539 0.41811 0.99257 0.0
C2325 C 0.03165 0.42922 0.0152 0.0
C2326 C 0.03605 0.45498 0.0208 0.0
C2327 C 0.04444 0.46927 1.00402 0.0
C2328 C 0.0481 0.45753 0.9814 0.0
H2329 H 0.04238 0.80869 0.17953 0.0
H2330 H 0.01162 0.79624 0.10487 0.0
H2331 H 0.97546 0.78727 0.1181 0.0
H2332 H 1.00032 0.76069 0.19801 0.0
H2333 H 1.00148 0.7785 0.22774 0.0
H2334 H 0.0254 0.78228 0.21258 0.0
H2335 H 0.02816 0.82867 0.21737 0.0
H2336 H 1.00428 0.825 0.23252 0.0
H2337 H 1.00496 0.83879 0.20599 0.0
H2338 H 0.94235 0.7817 0.13891 0.0
H2339 H 0.91445 0.78027 0.16634 0.0
H2340 H 0.9653 0.79683 0.22825 0.0
C2341 C 0.02804 0.80383 0.16597 0.0
C2342 C 0.03009 0.80334 0.14106 0.0
C2343 C 1.01075 0.79697 0.12402 0.0
C2344 C 0.98999 0.7917 0.13134 0.0
C2345 C 0.98849 0.79271 0.15589 0.0
C2346 C 1.00692 0.7985 0.17302 0.0
C2347 C 1.0004 0.79905 0.19835 0.0
C2348 C 1.00732 0.77893 0.20985 0.0
C2349 C 1.01002 0.82439 0.21451 0.0
C2350 C 0.97559 0.79359 0.19274 0.0
C2351 C 0.96915 0.78964 0.16806 0.0
C2352 C 0.94722 0.78476 0.15829 0.0
C2353 C 0.93144 0.78419 0.17411 0.0
C2354 C 0.93748 0.78867 0.19962 0.0
C2355 C 0.95997 0.7931 0.20891 0.0
H2356 H 0.55923 0.32761 0.12567 0.0
H2357 H 0.49153 0.29247 0.09575 0.0
H2358 H 0.49221 0.32224 0.06882 0.0
H2359 H 0.55487 0.3885 0.12638 0.0
H2360 H 0.58162 0.39935 0.1182 0.0
H2361 H 0.57649 0.37443 0.13435 0.0
H2362 H 0.58983 0.34728 0.10072 0.0
H2363 H 0.59515 0.37216 0.08451 0.0
H2364 H 0.57752 0.34297 0.06965 0.0
H2365 H 0.499 0.3562 0.04712 0.0
H2366 H 0.51224 0.39305 0.03011 0.0
H2367 H 0.57574 0.40656 0.07307 0.0
C2368 C 0.54465 0.32604 0.11324 0.0
C2369 C 0.52532 0.30778 0.11274 0.0
C2370 C 0.50648 0.3064 0.09647 0.0
C2371 C 0.50671 0.32316 0.08106 0.0
C2372 C 0.52588 0.34112 0.08222 0.0
C2373 C 0.54455 0.34273 0.09777 0.0
C2374 C 0.56269 0.36447 0.09588 0.0
C2375 C 0.5693 0.38277 0.12014 0.0
C2376 C 0.58246 0.35621 0.08716 0.0
C2377 C 0.55119 0.37476 0.07679 0.0
C2378 C 0.52995 0.36095 0.06932 0.0
C2379 C 0.51563 0.36709 0.05259 0.0
C2380 C 0.52322 0.38798 0.04313 0.0
C2381 C 0.54489 0.40225 0.05033 0.0
C2382 C 0.55915 0.39562 0.06725 0.0
H2383 H 0.05108 0.34059 0.33049 0.0
H2384 H 0.03376 0.26823 0.3483 0.0
H2385 H 0.99642 0.26168 0.32759 0.0
H2386 H 1.00363 0.35617 0.34254 0.0
H2387 H 1.00139 0.3727 0.31822 0.0
H2388 H 0.02775 0.37034 0.33075 0.0
H2389 H 0.03449 0.3518 0.288 0.0
H2390 H 1.00804 0.35404 0.27529 0.0
H2391 H 0.01503 0.32503 0.27051 0.0
H2392 H 0.96059 0.26447 0.30992 0.0
H2393 H 0.92739 0.2773 0.2975 0.0
H2394 H 0.96722 0.34793 0.29124 0.0
C2395 C 0.03956 0.32314 0.32945 0.0
C2396 C 0.04529 0.30483 0.34079 0.0
C2397 C 0.0297 0.28246 0.33962 0.0
C2398 C 1.0085 0.27848 0.32776 0.0
C2399 C 1.00324 0.29699 0.31706 0.0
C2400 C 0.01826 0.31889 0.31774 0.0
C2401 C 1.00768 0.33671 0.30709 0.0
C2402 C 1.01026 0.36036 0.32577 0.0
C2403 C 0.01686 0.34221 0.28384 0.0
C2404 C 0.98419 0.32178 0.30148 0.0
C2405 C 0.98215 0.29874 0.30689 0.0
C2406 C 0.96195 0.28227 0.30519 0.0
C2407 C 0.94324 0.28974 0.29829 0.0
C2408 C 0.94492 0.31352 0.29342 0.0
C2409 C 0.96564 0.32949 0.29441 0.0
H2410 H 0.9823 0.6786 0.57689 0.0
H2411 H 0.0227 0.69273 0.64674 0.0
H2412 H 0.03757 0.65753 0.63336 0.0
H2413 H 0.96941 0.61158 0.57077 0.0
H2414 H 0.96932 0.60645 0.53841 0.0
H2415 H 0.96167 0.63286 0.55348 0.0
H2416 H 0.99124 0.66104 0.5352 0.0
H2417 H 0.99897 0.63474 0.52014 0.0
H2418 H 0.01921 0.65909 0.54013 0.0
H2419 H 0.05022 0.62291 0.61145 0.0
H2420 H 0.05729 0.58854 0.58327 0.0
H2421 H 1.00621 0.5944 0.52931 0.0
C2422 C 0.99407 0.67405 0.58941 0.0
C2423 C 1.00149 0.68848 0.61279 0.0
C2424 C 0.01683 0.68195 0.62874 0.0
C2425 C 0.0254 0.662 0.62131 0.0
C2426 C 0.01797 0.64829 0.5981 0.0
C2427 C 1.00233 0.65369 0.58253 0.0
C2428 C 0.99683 0.63555 0.55876 0.0
C2429 C 0.97288 0.62073 0.55515 0.0
C2430 C 1.00188 0.64838 0.5373 0.0
C2431 C 0.01229 0.61969 0.56321 0.0
C2432 C 0.0244 0.62739 0.58598 0.0
C2433 C 0.04056 0.61637 0.59373 0.0
C2434 C 0.04444 0.5969 0.57769 0.0
C2435 C 0.03209 0.5887 0.55437 0.0
C2436 C 0.01567 0.60007 0.54721 0.0
H2437 H 0.67293 0.85757 0.82345 0.0
H2438 H 0.67655 0.81786 0.8825 0.0
H2439 H 0.70794 0.80471 0.8681 0.0
H2440 H 0.68516 0.81377 0.77906 0.0
H2441 H 0.70167 0.83539 0.76421 0.0
H2442 H 0.68031 0.84367 0.77986 0.0
H2443 H 0.7082 0.88152 0.80606 0.0
H2444 H 0.72957 0.87325 0.79043 0.0
H2445 H 0.73235 0.87759 0.82298 0.0
H2446 H 0.73554 0.7921 0.84566 0.0
H2447 H 0.76223 0.78466 0.81847 0.0
H2448 H 0.74319 0.83415 0.77483 0.0
C2449 C 0.68063 0.84653 0.83358 0.0
C2450 C 0.67225 0.83857 0.85395 0.0
C2451 C 0.6826 0.82397 0.86669 0.0
C2452 C 0.70044 0.81641 0.8587 0.0
C2453 C 0.70782 0.82379 0.8381 0.0
C2454 C 0.69859 0.83881 0.82587 0.0
C2455 C 0.70952 0.84335 0.8038 0.0
C2456 C 0.69319 0.83345 0.78035 0.0
C2457 C 0.72056 0.87058 0.80601 0.0
C2458 C 0.72623 0.82843 0.8056 0.0
C2459 C 0.72464 0.81709 0.8254 0.0
C2460 C 0.73722 0.80111 0.83028 0.0
C2461 C 0.75215 0.79686 0.81465 0.0
C2462 C 0.75455 0.80886 0.79472 0.0
C2463 C 0.74158 0.82494 0.79011 0.0
H2464 H 0.48865 0.6042 0.67992 0.0
H2465 H 0.46575 0.52905 0.68806 0.0
H2466 H 0.48153 0.51565 0.65102 0.0
H2467 H 0.47866 0.59275 0.61373 0.0
H2468 H 0.5025 0.61576 0.61101 0.0
H2469 H 0.48923 0.61907 0.63772 0.0
H2470 H 0.52555 0.62296 0.66475 0.0
H2471 H 0.53895 0.61989 0.63815 0.0
H2472 H 0.54005 0.59946 0.65912 0.0
H2473 H 0.50015 0.51055 0.60881 0.0
H2474 H 0.5207 0.51511 0.57377 0.0
H2475 H 0.53371 0.59367 0.59469 0.0
C2476 C 0.48683 0.58479 0.67416 0.0
C2477 C 0.4754 0.56789 0.68786 0.0
C2478 C 0.47401 0.54277 0.67871 0.0
C2479 C 0.48306 0.53493 0.65727 0.0
C2480 C 0.49391 0.5521 0.64427 0.0
C2481 C 0.49593 0.57667 0.65281 0.0
C2482 C 0.50854 0.59183 0.63608 0.0
C2483 C 0.49387 0.60569 0.62393 0.0
C2484 C 0.52952 0.60959 0.65038 0.0
C2485 C 0.51386 0.57233 0.61701 0.0
C2486 C 0.50487 0.54936 0.62159 0.0
C2487 C 0.5071 0.52866 0.60557 0.0
C2488 C 0.51876 0.53139 0.58519 0.0
C2489 C 0.5289 0.55473 0.58035 0.0
C2490 C 0.52617 0.57537 0.59704 0.0
H2491 H 0.77429 0.14553 0.94429 0.0
H2492 H 0.78191 0.2032 0.00714 0.0
H2493 H 0.76371 0.22627 0.98228 0.0
H2494 H 0.78837 0.18414 0.90437 0.0
H2495 H 0.76965 0.16523 0.87867 0.0
H2496 H 0.77956 0.15154 0.90245 0.0
H2497 H 0.73948 0.1322 0.90754 0.0
H2498 H 0.72955 0.14658 0.88415 0.0
H2499 H 0.72122 0.15158 0.9138 0.0
H2500 H 0.74949 0.24527 0.95088 0.0
H2501 H 0.74742 0.26266 0.9142 0.0
H2502 H 0.74725 0.19278 0.87059 0.0
C2503 C 0.77176 0.16284 0.95282 0.0
C2504 C 0.77932 0.17254 0.97758 0.0
C2505 C 0.77626 0.19546 0.98813 0.0
C2506 C 0.7656 0.20851 0.97427 0.0
C2507 C 0.7581 0.19837 0.94994 0.0
C2508 C 0.76135 0.17625 0.93916 0.0
C2509 C 0.75482 0.1713 0.91197 0.0
C2510 C 0.77425 0.16788 0.8986 0.0
C2511 C 0.73509 0.1491 0.9039 0.0
C2512 C 0.74865 0.1948 0.90906 0.0
C2513 C 0.74989 0.20971 0.9313 0.0
C2514 C 0.74796 0.23364 0.93333 0.0
C2515 C 0.74657 0.24333 0.91225 0.0
C2516 C 0.74738 0.22912 0.88951 0.0
C2517 C 0.74664 0.20403 0.88777 0.0
H2518 H 0.13166 0.52012 0.1684 0.0
H2519 H 0.13877 0.5958 0.20179 0.0
H2520 H 0.12412 0.60405 0.16289 0.0
H2521 H 0.14084 0.53146 0.1048 0.0
H2522 H 0.12023 0.50398 0.09111 0.0
H2523 H 0.13661 0.50541 0.11951 0.0
H2524 H 0.10121 0.49316 0.13875 0.0
H2525 H 0.08479 0.4922 0.11069 0.0
H2526 H 0.08166 0.51149 0.13805 0.0
H2527 H 0.10458 0.60314 0.12321 0.0
H2528 H 0.079 0.59233 0.08491 0.0
H2529 H 0.08144 0.5166 0.07824 0.0
C2530 C 0.1305 0.53848 0.16722 0.0
C2531 C 0.13598 0.55727 0.18783 0.0
C2532 C 0.13421 0.5811 0.18608 0.0
C2533 C 0.12628 0.58606 0.16404 0.0
C2534 C 0.1202 0.56693 0.14414 0.0
C2535 C 0.12219 0.54359 0.14542 0.0
C2536 C 0.11128 0.52555 0.12249 0.0
C2537 C 0.12826 0.51604 0.10867 0.0
C2538 C 0.09369 0.50437 0.12783 0.0
C2539 C 0.10138 0.54203 0.10908 0.0
C2540 C 0.10756 0.56602 0.12142 0.0
C2541 C 0.09978 0.5845 0.11321 0.0
C2542 C 0.08517 0.57822 0.09176 0.0
C2543 C 0.07824 0.55367 0.07948 0.0
C2544 C 0.08648 0.53539 0.0879 0.0
H2545 H 0.82283 0.87997 0.45751 0.0
H2546 H 0.83818 0.81664 0.48118 0.0
H2547 H 0.83583 0.79668 0.43862 0.0
H2548 H 0.78403 0.84675 0.40413 0.0
H2549 H 0.79297 0.86897 0.38562 0.0
H2550 H 0.79548 0.87842 0.41802 0.0
H2551 H 0.83681 0.89736 0.41956 0.0
H2552 H 0.83446 0.8878 0.38718 0.0
H2553 H 0.85373 0.8786 0.40696 0.0
H2554 H 0.83416 0.78416 0.39355 0.0
H2555 H 0.83002 0.7786 0.34881 0.0
H2556 H 0.81363 0.84838 0.35281 0.0
C2557 C 0.82553 0.86183 0.45374 0.0
C2558 C 0.83079 0.85 0.473 0.0
C2559 C 0.83428 0.82628 0.46703 0.0
C2560 C 0.83297 0.81471 0.44279 0.0
C2561 C 0.82814 0.82694 0.42435 0.0
C2562 C 0.82428 0.8499 0.42944 0.0
C2563 C 0.81958 0.85894 0.40598 0.0
C2564 C 0.79665 0.86353 0.40329 0.0
C2565 C 0.83719 0.88205 0.40486 0.0
C2566 C 0.82107 0.83734 0.38701 0.0
C2567 C 0.82641 0.81929 0.39813 0.0
C2568 C 0.82981 0.7981 0.38467 0.0
C2569 C 0.82756 0.79514 0.35924 0.0
C2570 C 0.82151 0.81297 0.34728 0.0
C2571 C 0.81814 0.83434 0.36144 0.0
H2572 H 0.47436 0.52405 0.8339 0.0
H2573 H 0.48257 0.60194 0.83846 0.0
H2574 H 0.50262 0.6092 0.88017 0.0
H2575 H 0.46562 0.52327 0.89679 0.0
H2576 H 0.4798 0.49984 0.89993 0.0
H2577 H 0.46647 0.50098 0.87061 0.0
H2578 H 0.50274 0.50277 0.85307 0.0
H2579 H 0.51617 0.50166 0.88234 0.0
H2580 H 0.52679 0.52632 0.86719 0.0
H2581 H 0.52269 0.6076 0.92345 0.0
H2582 H 0.53887 0.59781 0.96107 0.0
H2583 H 0.51769 0.52062 0.92923 0.0
C2584 C 0.48034 0.54277 0.84351 0.0
C2585 C 0.47654 0.56243 0.83205 0.0
C2586 C 0.48485 0.58641 0.8461 0.0
C2587 C 0.49643 0.59068 0.87008 0.0
C2588 C 0.49979 0.5709 0.88061 0.0
C2589 C 0.4918 0.54733 0.86762 0.0
C2590 C 0.49715 0.52908 0.88308 0.0
C2591 C 0.47601 0.51229 0.88788 0.0
C2592 C 0.51157 0.51407 0.87067 0.0
C2593 C 0.50968 0.54585 0.90674 0.0
C2594 C 0.51096 0.56997 0.90497 0.0
C2595 C 0.52158 0.5887 0.92465 0.0
C2596 C 0.53086 0.58287 0.94626 0.0
C2597 C 0.52994 0.55834 0.94892 0.0
C2598 C 0.51904 0.53964 0.92839 0.0
H2599 H 0.80901 0.23646 0.0934 0.0
H2600 H 0.79719 0.16473 0.11295 0.0
H2601 H 0.78725 0.18173 0.1519 0.0
H2602 H 0.83487 0.26953 0.14924 0.0
H2603 H 0.82321 0.29534 0.14865 0.0
H2604 H 0.82597 0.27695 0.1207 0.0
H2605 H 0.78448 0.26937 0.10645 0.0
H2606 H 0.78163 0.28769 0.13455 0.0
H2607 H 0.7651 0.25677 0.12518 0.0
H2608 H 0.78274 0.2063 0.18967 0.0
H2609 H 0.78756 0.23769 0.22605 0.0
H2610 H 0.80208 0.29447 0.18339 0.0
C2611 C 0.80416 0.22432 0.10582 0.0
C2612 C 0.80402 0.19931 0.10019 0.0
C2613 C 0.79764 0.184 0.11692 0.0
C2614 C 0.79165 0.19341 0.13896 0.0
C2615 C 0.79198 0.21811 0.14396 0.0
C2616 C 0.79817 0.23344 0.12799 0.0
C2617 C 0.7993 0.25976 0.13899 0.0
C2618 C 0.8222 0.27636 0.13943 0.0
C2619 C 0.78157 0.26894 0.12548 0.0
C2620 C 0.7944 0.25701 0.16426 0.0
C2621 C 0.78941 0.23266 0.1663 0.0
C2622 C 0.78608 0.22537 0.1882 0.0
C2623 C 0.78874 0.24344 0.20881 0.0
C2624 C 0.79478 0.26855 0.20747 0.0
C2625 C 0.79698 0.27542 0.18478 0.0
H2626 H 0.14491 0.57651 0.30211 0.0
H2627 H 0.20081 0.55435 0.33268 0.0
H2628 H 0.19419 0.5702 0.374 0.0
H2629 H 0.15448 0.63332 0.34816 0.0
H2630 H 0.12571 0.63088 0.34829 0.0
H2631 H 0.13552 0.6193 0.32096 0.0
H2632 H 0.10968 0.57627 0.31813 0.0
H2633 H 0.09917 0.58819 0.3446 0.0
H2634 H 0.11007 0.56172 0.34415 0.0
H2635 H 0.18057 0.58597 0.4111 0.0
H2636 H 0.15637 0.59281 0.4416 0.0
H2637 H 0.11023 0.60603 0.38683 0.0
C2638 C 0.15564 0.57492 0.31757 0.0
C2639 C 0.1733 0.56428 0.31458 0.0
C2640 C 0.18722 0.56258 0.33495 0.0
C2641 C 0.18378 0.5718 0.35832 0.0
C2642 C 0.16677 0.5832 0.36072 0.0
C2643 C 0.15278 0.58458 0.34093 0.0
C2644 C 0.13497 0.5964 0.34853 0.0
C2645 C 0.13785 0.62146 0.34104 0.0
C2646 C 0.11214 0.57963 0.33827 0.0
C2647 C 0.13994 0.5993 0.37572 0.0
C2648 C 0.15895 0.59265 0.38238 0.0
C2649 C 0.16582 0.59154 0.40622 0.0
C2650 C 0.15203 0.59546 0.42342 0.0
C2651 C 0.13146 0.59964 0.41638 0.0
C2652 C 0.12607 0.60331 0.39272 0.0
H2653 H 0.83907 0.87971 0.61924 0.0
H2654 H 0.78393 0.8282 0.57216 0.0
H2655 H 0.77419 0.80827 0.60598 0.0
H2656 H 0.85329 0.83534 0.65398 0.0
H2657 H 0.86017 0.85596 0.68292 0.0
H2658 H 0.86339 0.86773 0.6554 0.0
H2659 H 0.83879 0.89666 0.66736 0.0
H2660 H 0.83552 0.88495 0.69491 0.0
H2661 H 0.81182 0.88412 0.67415 0.0
H2662 H 0.76879 0.79366 0.64378 0.0
H2663 H 0.76932 0.78325 0.68411 0.0
H2664 H 0.82865 0.84099 0.70987 0.0
C2665 C 0.82494 0.86428 0.6161 0.0
C2666 C 0.81233 0.85576 0.5925 0.0
C2667 C 0.79406 0.83534 0.58957 0.0
C2668 C 0.78825 0.82376 0.60887 0.0
C2669 C 0.80081 0.83238 0.63155 0.0
C2670 C 0.81888 0.85203 0.6355 0.0
C2671 C 0.82948 0.8567 0.6621 0.0
C2672 C 0.85298 0.85376 0.66369 0.0
C2673 C 0.82887 0.88212 0.67541 0.0
C2674 C 0.81458 0.8365 0.67206 0.0
C2675 C 0.79804 0.82307 0.65391 0.0
C2676 C 0.78174 0.80396 0.65811 0.0
C2677 C 0.78219 0.79819 0.68132 0.0
C2678 C 0.79901 0.81106 0.70053 0.0
C2679 C 0.81557 0.8306 0.6957 0.0
H2680 H 0.75766 0.47555 0.4988 0.0
H2681 H 0.77287 0.46503 0.57239 0.0
H2682 H 0.74194 0.48131 0.5842 0.0
H2683 H 0.74497 0.53136 0.51371 0.0
H2684 H 0.72275 0.52556 0.48937 0.0
H2685 H 0.74447 0.5105 0.48593 0.0
H2686 H 0.71636 0.46832 0.47627 0.0
H2687 H 0.69447 0.48325 0.47956 0.0
H2688 H 0.6975 0.46042 0.49727 0.0
H2689 H 0.71193 0.50243 0.58902 0.0
H2690 H 0.68403 0.52596 0.58617 0.0
H2691 H 0.68826 0.52258 0.50949 0.0
C2692 C 0.75428 0.4763 0.5173 0.0
C2693 C 0.76771 0.4691 0.53469 0.0
C2694 C 0.76282 0.47048 0.55875 0.0
C2695 C 0.74524 0.47963 0.56563 0.0
C2696 C 0.73262 0.48708 0.54818 0.0
C2697 C 0.73676 0.4853 0.52446 0.0
C2698 C 0.72144 0.49579 0.50957 0.0
C2699 C 0.73418 0.51707 0.49904 0.0
C2700 C 0.70656 0.47575 0.48948 0.0
C2701 C 0.70863 0.50462 0.52886 0.0
C2702 C 0.71515 0.49915 0.55094 0.0
C2703 C 0.70651 0.5066 0.57178 0.0
C2704 C 0.69084 0.52012 0.57004 0.0
C2705 C 0.68407 0.52612 0.54763 0.0
C2706 C 0.69293 0.51797 0.52677 0.0
H2707 H 0.21789 0.14224 0.54285 0.0
H2708 H 0.21805 0.15076 0.46789 0.0
H2709 H 0.17908 0.12826 0.45874 0.0
H2710 H 0.18246 0.08096 0.53016 0.0
H2711 H 0.16862 0.08584 0.55622 0.0
H2712 H 0.1964 0.10281 0.55696 0.0
H2713 H 0.18496 0.1433 0.56798 0.0
H2714 H 0.1571 0.12644 0.5671 0.0
H2715 H 0.16333 0.14933 0.54862 0.0
H2716 H 0.14005 0.10372 0.45733 0.0
H2717 H 0.10455 0.07851 0.46348 0.0
H2718 H 0.12855 0.08634 0.53959 0.0
C2719 C 0.20977 0.13945 0.52447 0.0
C2720 C 0.22132 0.14848 0.50608 0.0
C2721 C 0.20984 0.14416 0.48233 0.0
C2722 C 0.18759 0.1314 0.47697 0.0
C2723 C 0.17676 0.1229 0.4955 0.0
C2724 C 0.18749 0.12668 0.5188 0.0
C2725 C 0.17211 0.1152 0.53528 0.0
C2726 C 0.18039 0.09501 0.54524 0.0
C2727 C 0.16921 0.13474 0.55597 0.0
C2728 C 0.15099 0.10449 0.51768 0.0
C2729 C 0.15414 0.10912 0.49481 0.0
C2730 C 0.13743 0.10023 0.47522 0.0
C2731 C 0.11724 0.08596 0.47891 0.0
C2732 C 0.1135 0.08076 0.50205 0.0
C2733 C 0.13063 0.09049 0.5218 0.0
H2734 H 0.24284 0.9661 0.78897 0.0
H2735 H 0.17991 0.92244 0.75086 0.0
H2736 H 0.19429 0.88611 0.74563 0.0
H2737 H 0.2761 0.93213 0.75072 0.0
H2738 H 0.29661 0.93332 0.77561 0.0
H2739 H 0.28209 0.95699 0.77645 0.0
H2740 H 0.27037 0.94877 0.81739 0.0
H2741 H 0.28477 0.92501 0.81657 0.0
H2742 H 0.25616 0.91831 0.81974 0.0
H2743 H 0.21444 0.85138 0.7463 0.0
H2744 H 0.23904 0.82413 0.74953 0.0
H2745 H 0.2917 0.88659 0.78442 0.0
C2746 C 0.23208 0.94911 0.77903 0.0
C2747 C 0.20953 0.94846 0.77031 0.0
C2748 C 0.19687 0.92477 0.75799 0.0
C2749 C 0.20502 0.90343 0.75486 0.0
C2750 C 0.22664 0.90457 0.76387 0.0
C2751 C 0.24025 0.92691 0.77545 0.0
C2752 C 0.263 0.92228 0.78317 0.0
C2753 C 0.2805 0.93707 0.77076 0.0
C2754 C 0.26894 0.92901 0.81087 0.0
C2755 C 0.25996 0.89424 0.7742 0.0
C2756 C 0.23859 0.88455 0.76336 0.0
C2757 C 0.23123 0.85918 0.75456 0.0
C2758 C 0.24559 0.84347 0.75656 0.0
C2759 C 0.26799 0.85216 0.76696 0.0
C2760 C 0.27502 0.8785 0.7759 0.0
H2761 H 0.40319 0.98848 0.05316 0.0
H2762 H 0.37808 0.98649 0.97821 0.0
H2763 H 0.41477 0.98876 0.96693 0.0
H2764 H 0.45431 0.03175 0.05397 0.0
H2765 H 0.46979 0.01749 0.07299 0.0
H2766 H 0.4414 0.01518 0.07545 0.0
H2767 H 0.43409 0.96828 0.06799 0.0
H2768 H 0.4622 0.96953 0.06416 0.0
H2769 H 0.44053 0.95211 0.04059 0.0
H2770 H 0.45341 0.98953 0.96326 0.0
H2771 H 0.49352 0.99783 0.96895 0.0
H2772 H 0.49364 0.99999 0.04629 0.0
C2773 C 0.40546 0.9889 0.03445 0.0
C2774 C 0.38776 0.98713 0.01657 0.0
C2775 C 0.3914 0.9878 0.99227 0.0
C2776 C 0.41212 0.98879 0.98558 0.0
C2777 C 0.42899 0.98934 1.00343 0.0
C2778 C 0.42606 0.99005 0.02745 0.0
C2779 C 0.44722 0.99183 0.04318 0.0
C2780 C 0.45355 0.01546 0.06254 0.0
C2781 C 0.44591 0.96909 0.05468 0.0
C2782 C 0.46251 0.99251 0.02429 0.0
C2783 C 0.45155 0.99044 1.0014 0.0
C2784 C 0.46226 0.99125 0.98109 0.0
C2785 C 0.48502 0.9958 0.9845 0.0
C2786 C 0.49668 0.99979 0.00809 0.0
C2787 C 0.48518 0.997 0.02802 0.0
H2788 H 0.88276 0.57316 0.77246 0.0
H2789 H 0.94035 0.62902 0.80912 0.0
H2790 H 0.92588 0.6602 0.79255 0.0
H2791 H 0.87514 0.60193 0.71787 0.0
H2792 H 0.84581 0.59295 0.71582 0.0
H2793 H 0.86208 0.57408 0.72708 0.0
H2794 H 0.84439 0.57623 0.76654 0.0
H2795 H 0.82789 0.59471 0.75531 0.0
H2796 H 0.84506 0.60568 0.78422 0.0
H2797 H 0.90409 0.6855 0.77722 0.0
H2798 H 0.87408 0.70436 0.76745 0.0
H2799 H 0.83038 0.63291 0.73993 0.0
C2800 C 0.89239 0.59194 0.77681 0.0
C2801 C 0.91266 0.59877 0.79205 0.0
C2802 C 0.92478 0.62345 0.79747 0.0
C2803 C 0.91685 0.64122 0.78788 0.0
C2804 C 0.89693 0.63388 0.77275 0.0
C2805 C 0.88476 0.60989 0.76729 0.0
C2806 C 0.86277 0.60739 0.7528 0.0
C2807 C 0.86138 0.59325 0.72685 0.0
C2808 C 0.84393 0.59532 0.7655 0.0
C2809 C 0.86375 0.63406 0.75294 0.0
C2810 C 0.884 0.64885 0.76367 0.0
C2811 C 0.88833 0.67419 0.76832 0.0
C2812 C 0.87126 0.68475 0.76283 0.0
C2813 C 0.85019 0.67003 0.75299 0.0
C2814 C 0.84654 0.64444 0.74708 0.0
H2815 H 0.85207 0.65683 0.04667 0.0
H2816 H 0.84244 0.66129 0.97048 0.0
H2817 H 0.87495 0.64569 0.96439 0.0
H2818 H 0.91174 0.67459 0.05489 0.0
H2819 H 0.91482 0.65364 0.07481 0.0
H2820 H 0.89112 0.66591 0.0738 0.0
H2821 H 0.86594 0.62211 0.06395 0.0
H2822 H 0.88956 0.60974 0.06505 0.0
H2823 H 0.86937 0.60067 0.03834 0.0
H2824 H 0.90842 0.62995 0.96605 0.0
H2825 H 0.93928 0.61199 0.97452 0.0
H2826 H 0.92783 0.61593 0.04948 0.0
C2827 C 0.85679 0.65453 0.02868 0.0
C2828 C 0.8445 0.6604 0.00901 0.0
C2829 C 0.85136 0.65697 0.98583 0.0
C2830 C 0.86992 0.64818 0.9822 0.0
C2831 C 0.88163 0.64269 1.00187 0.0
C2832 C 0.87531 0.64553 0.02466 0.0
C2833 C 0.89065 0.63754 0.04246 0.0
C2834 C 0.9028 0.65921 0.06269 0.0
C2835 C 0.87813 0.61624 0.05307 0.0
C2836 C 0.90628 0.62937 0.02593 0.0
C2837 C 0.90088 0.63295 1.00272 0.0
C2838 C 0.91281 0.6271 0.98417 0.0
C2839 C 0.93051 0.61704 0.98925 0.0
C2840 C 0.93629 0.61258 0.0127 0.0
C2841 C 0.92391 0.61898 0.03132 0.0
H2842 H 0.24296 0.10298 0.74316 0.0
H2843 H 0.20657 0.1129 0.80338 0.0
H2844 H 0.22181 0.15792 0.80929 0.0
H2845 H 0.2919 0.15026 0.7696 0.0
H2846 H 0.29714 0.15929 0.74118 0.0
H2847 H 0.28266 0.1284 0.74157 0.0
H2848 H 0.25072 0.13269 0.71196 0.0
H2849 H 0.26503 0.1637 0.71168 0.0
H2850 H 0.23784 0.15728 0.71981 0.0
H2851 H 0.2414 0.20505 0.80683 0.0
H2852 H 0.26519 0.24396 0.8003 0.0
H2853 H 0.29112 0.20282 0.74411 0.0
C2854 C 0.23815 0.11446 0.75777 0.0
C2855 C 0.22325 0.1035 0.7728 0.0
C2856 C 0.21785 0.12002 0.79156 0.0
C2857 C 0.22646 0.14596 0.79494 0.0
C2858 C 0.24092 0.15598 0.77967 0.0
C2859 C 0.24691 0.14041 0.76163 0.0
C2860 C 0.26328 0.15529 0.74802 0.0
C2861 C 0.28504 0.14787 0.75023 0.0
C2862 C 0.25365 0.15204 0.72128 0.0
C2863 C 0.26605 0.18167 0.76128 0.0
C2864 C 0.2526 0.18193 0.77913 0.0
C2865 C 0.25197 0.20456 0.79294 0.0
C2866 C 0.26551 0.22691 0.78894 0.0
C2867 C 0.28025 0.22717 0.7715 0.0
C2868 C 0.28015 0.20382 0.75755 0.0
H2869 H 0.40068 0.9576 0.24641 0.0
H2870 H 0.44332 0.96054 0.31218 0.0
H2871 H 0.41707 0.92497 0.32101 0.0
H2872 H 0.35206 0.94412 0.26776 0.0
H2873 H 0.33656 0.92235 0.24166 0.0
H2874 H 0.3596 0.94585 0.238 0.0
H2875 H 0.37826 0.91368 0.21716 0.0
H2876 H 0.3544 0.89044 0.2192 0.0
H2877 H 0.38102 0.88841 0.2315 0.0
H2878 H 0.38413 0.89453 0.32602 0.0
H2879 H 0.35134 0.86029 0.32022 0.0
H2880 H 0.33099 0.87597 0.25012 0.0
C2881 C 0.40484 0.94992 0.26202 0.0
C2882 C 0.4238 0.96131 0.27865 0.0
C2883 C 0.4289 0.95148 0.29917 0.0
C2884 C 0.41398 0.93166 0.30449 0.0
C2885 C 0.39456 0.92191 0.28869 0.0
C2886 C 0.39039 0.92984 0.26726 0.0
C2887 C 0.3683 0.91602 0.2534 0.0
C2888 C 0.35326 0.93312 0.25003 0.0
C2889 C 0.37066 0.90125 0.22888 0.0
C2890 C 0.36057 0.89956 0.27076 0.0
C2891 C 0.37575 0.90366 0.29122 0.0
C2892 C 0.37222 0.8908 0.30994 0.0
C2893 C 0.35342 0.87172 0.30667 0.0
C2894 C 0.33897 0.86568 0.28467 0.0
C2895 C 0.34192 0.88047 0.2671 0.0
H2896 H 0.55234 0.37181 0.57492 0.0
H2897 H 0.62235 0.39078 0.59765 0.0
H2898 H 0.6257 0.429 0.58152 0.0
H2899 H 0.55422 0.39635 0.51884 0.0
H2900 H 0.52999 0.40727 0.52183 0.0
H2901 H 0.53317 0.38102 0.53424 0.0
H2902 H 0.52746 0.4022 0.57634 0.0
H2903 H 0.5243 0.42851 0.56408 0.0
H2904 H 0.54465 0.43206 0.58987 0.0
H2905 H 0.6212 0.4666 0.56428 0.0
H2906 H 0.60959 0.49954 0.54758 0.0
H2907 H 0.54231 0.45656 0.53526 0.0
C2908 C 0.56846 0.38387 0.57642 0.0
C2909 C 0.58714 0.37797 0.58775 0.0
C2910 C 0.60778 0.39458 0.58919 0.0
C2911 C 0.60983 0.41644 0.58001 0.0
C2912 C 0.59111 0.42172 0.56922 0.0
C2913 C 0.5708 0.40581 0.56729 0.0
C2914 C 0.55319 0.41602 0.55527 0.0
C2915 C 0.54198 0.39916 0.53111 0.0
C2916 C 0.53641 0.41993 0.57241 0.0
C2917 C 0.56667 0.44036 0.55107 0.0
C2918 C 0.58853 0.4432 0.55918 0.0
C2919 C 0.60412 0.4644 0.55783 0.0
C2920 C 0.59729 0.48316 0.54828 0.0
C2921 C 0.57497 0.48098 0.53991 0.0
C2922 C 0.55953 0.45897 0.54121 0.0
H2923 H 0.44993 0.81584 0.38509 0.0
H2924 H 0.45929 0.74387 0.35892 0.0
H2925 H 0.42493 0.7341 0.33057 0.0
H2926 H 0.39056 0.79672 0.38162 0.0
H2927 H 0.38598 0.82374 0.37173 0.0
H2928 H 0.41113 0.82526 0.39042 0.0
H2929 H 0.43323 0.84258 0.35829 0.0
H2930 H 0.40818 0.84122 0.33957 0.0
H2931 H 0.42774 0.82597 0.32743 0.0
H2932 H 0.38973 0.73186 0.30488 0.0
H2933 H 0.35708 0.73766 0.28186 0.0
H2934 H 0.36931 0.81142 0.32325 0.0
C2935 C 0.44476 0.79796 0.37345 0.0
C2936 C 0.45755 0.78057 0.37449 0.0
C2937 C 0.44999 0.7575 0.35875 0.0
C2938 C 0.43039 0.75178 0.34253 0.0
C2939 C 0.41823 0.76922 0.3421 0.0
C2940 C 0.42512 0.79191 0.35707 0.0
C2941 C 0.40898 0.80739 0.35257 0.0
C2942 C 0.39855 0.81365 0.37545 0.0
C2943 C 0.4202 0.83067 0.34395 0.0
C2944 C 0.39209 0.78999 0.33246 0.0
C2945 C 0.3978 0.76801 0.327 0.0
C2946 C 0.38514 0.74898 0.30908 0.0
C2947 C 0.36649 0.75248 0.2961 0.0
C2948 C 0.3603 0.77491 0.30066 0.0
C2949 C 0.37325 0.7939 0.31946 0.0
H2950 H 0.05842 0.73571 0.04847 0.0
H2951 H 0.11532 0.7532 0.10355 0.0
H2952 H 0.11989 0.71154 0.09183 0.0
H2953 H 0.03638 0.67566 0.05634 0.0
H2954 H 0.02757 0.66266 0.02463 0.0
H2955 H 0.02963 0.69454 0.0356 0.0
H2956 H 0.05556 0.70633 1.00444 0.0
H2957 H 0.05348 0.67443 0.99328 0.0
H2958 H 0.0799 0.69532 1.00366 0.0
H2959 H 0.11783 0.66773 0.07548 0.0
H2960 H 0.10848 0.6241 0.0566 0.0
H2961 H 0.05194 0.63327 0.0129 0.0
C2962 C 0.07201 0.7309 0.05787 0.0
C2963 C 0.08657 0.748 0.07694 0.0
C2964 C 0.10401 0.74071 0.08881 0.0
C2965 C 0.10677 0.71699 0.08227 0.0
C2966 C 0.09204 0.70058 0.06368 0.0
C2967 C 0.07502 0.70716 0.05155 0.0
C2968 C 0.06111 0.68556 0.03277 0.0
C2969 C 0.03726 0.67923 0.03764 0.0
C2970 C 0.0626 0.69072 0.00701 0.0
C2971 C 0.07237 0.66559 0.03708 0.0
C2972 C 0.09051 0.67491 0.05458 0.0
C2973 C 0.10376 0.66028 0.06164 0.0
C2974 C 0.09835 0.63547 0.05068 0.0
C2975 C 0.07957 0.6252 0.03309 0.0
C2976 C 0.06642 0.64057 0.02623 0.0
H2977 H 0.10276 0.32418 0.90475 0.0
H2978 H 0.06311 0.25325 0.86655 0.0
H2979 H 0.09269 0.24842 0.84255 0.0
H2980 H 0.12694 0.34234 0.85229 0.0
H2981 H 0.15337 0.35761 0.86939 0.0
H2982 H 0.12916 0.3559 0.88387 0.0
H2983 H 0.14566 0.33598 0.9166 0.0
H2984 H 0.16988 0.33755 0.90218 0.0
H2985 H 0.15467 0.30864 0.90753 0.0
H2986 H 0.12658 0.24972 0.82405 0.0
H2987 H 0.16221 0.2586 0.80922 0.0
H2988 H 0.18054 0.32969 0.85699 0.0
C2989 C 0.10027 0.30767 0.89125 0.0
C2990 C 0.08046 0.28902 0.88765 0.0
C2991 C 0.07795 0.26781 0.86971 0.0
C2992 C 0.09474 0.26485 0.85599 0.0
C2993 C 0.11402 0.28334 0.86013 0.0
C2994 C 0.11688 0.30452 0.87708 0.0
C2995 C 0.13929 0.32161 0.87746 0.0
C2996 C 0.13705 0.34579 0.87032 0.0
C2997 C 0.15319 0.32621 0.90243 0.0
C2998 C 0.14852 0.30657 0.85813 0.0
C2999 C 0.13362 0.28448 0.84867 0.0
C3000 C 0.13834 0.26699 0.83121 0.0
C3001 C 0.15872 0.27214 0.82301 0.0
C3002 C 0.17425 0.29472 0.83196 0.0
C3003 C 0.16898 0.31226 0.84974 0.0
H3004 H 0.60129 0.75877 0.91308 0.0
H3005 H 0.57309 0.81034 0.95621 0.0
H3006 H 0.55312 0.77728 0.97466 0.0
H3007 H 0.55434 0.70412 0.90479 0.0
H3008 H 0.57185 0.68393 0.90864 0.0
H3009 H 0.58116 0.71056 0.89563 0.0
H3010 H 0.61538 0.72525 0.92835 0.0
H3011 H 0.60629 0.69861 0.94127 0.0
H3012 H 0.61194 0.72863 0.95995 0.0
H3013 H 0.53918 0.74064 0.99104 0.0
H3014 H 0.53543 0.70346 0.00837 0.0
H3015 H 0.57321 0.67507 0.95572 0.0
C3016 C 0.59052 0.76285 0.92603 0.0
C3017 C 0.58843 0.78685 0.93316 0.0
C3018 C 0.57479 0.79193 0.95061 0.0
C3019 C 0.56323 0.77328 0.96095 0.0
C3020 C 0.56569 0.74976 0.95375 0.0
C3021 C 0.5792 0.74448 0.93694 0.0
C3022 C 0.5812 0.71842 0.93491 0.0
C3023 C 0.57155 0.70337 0.90948 0.0
C3024 C 0.60512 0.71771 0.94153 0.0
C3025 C 0.56729 0.71025 0.9538 0.0
C3026 C 0.55807 0.72843 0.96393 0.0
C3027 C 0.54595 0.72603 0.98302 0.0
C3028 C 0.54382 0.70478 0.99265 0.0
C3029 C 0.55396 0.68638 0.98331 0.0
C3030 C 0.56526 0.68886 0.96316 0.0
H3031 H 0.0737 0.78957 0.70941 0.0
H3032 H 0.05613 0.71479 0.66974 0.0
H3033 H 0.08757 0.70645 0.6927 0.0
H3034 H 0.1295 0.79864 0.70719 0.0
H3035 H 0.13869 0.81729 0.73701 0.0
H3036 H 0.11256 0.81665 0.72108 0.0
H3037 H 0.09361 0.80377 0.75716 0.0
H3038 H 0.11976 0.80453 0.77331 0.0
H3039 H 0.09783 0.77717 0.76823 0.0
H3040 H 0.12116 0.70632 0.71693 0.0
H3041 H 0.15845 0.71543 0.73874 0.0
H3042 H 0.15769 0.7914 0.76056 0.0
C3043 C 0.07633 0.77137 0.70613 0.0
C3044 C 0.06243 0.75261 0.68822 0.0
C3045 C 0.06652 0.7292 0.68364 0.0
C3046 C 0.08425 0.72428 0.69666 0.0
C3047 C 0.09791 0.74312 0.71396 0.0
C3048 C 0.09444 0.7663 0.71863 0.0
C3049 C 0.11332 0.78382 0.73607 0.0
C3050 C 0.12416 0.80536 0.72464 0.0
C3051 C 0.10567 0.79285 0.76012 0.0
C3052 C 0.12824 0.76702 0.73946 0.0
C3053 C 0.11852 0.74347 0.72716 0.0
C3054 C 0.12891 0.72459 0.72691 0.0
C3055 C 0.15 0.7299 0.73935 0.0
C3056 C 0.16061 0.75395 0.75145 0.0
C3057 C 0.14965 0.77281 0.75164 0.0
H3058 H 0.08159 0.38002 0.44645 0.0
H3059 H 0.12838 0.41264 0.40268 0.0
H3060 H 0.12909 0.45381 0.42499 0.0
H3061 H 0.05012 0.42097 0.44877 0.0
H3062 H 0.04593 0.42194 0.48001 0.0
H3063 H 0.05119 0.39509 0.46284 0.0
H3064 H 0.08432 0.39792 0.49484 0.0
H3065 H 0.0789 0.42456 0.51243 0.0
H3066 H 0.10548 0.42598 0.50328 0.0
H3067 H 0.12211 0.4913 0.44974 0.0
H3068 H 0.10922 0.52219 0.47676 0.0
H3069 H 0.06664 0.46445 0.50311 0.0
C3070 C 0.09221 0.39584 0.44184 0.0
C3071 C 0.10479 0.39338 0.42289 0.0
C3072 C 0.11868 0.41432 0.41733 0.0
C3073 C 0.11918 0.4377 0.42984 0.0
C3074 C 0.10604 0.43956 0.44805 0.0
C3075 C 0.09314 0.41916 0.45434 0.0
C3076 C 0.08004 0.42603 0.47403 0.0
C3077 C 0.05537 0.41538 0.4659 0.0
C3078 C 0.08764 0.41816 0.49754 0.0
C3079 C 0.08638 0.45344 0.47663 0.0
C3080 C 0.10178 0.46099 0.46193 0.0
C3081 C 0.11006 0.48561 0.46131 0.0
C3082 C 0.10249 0.50295 0.47634 0.0
C3083 C 0.08653 0.4953 0.49106 0.0
C3084 C 0.07848 0.47041 0.49136 0.0
H3085 H 0.46074 0.27948 0.20561 0.0
H3086 H 0.42023 0.21217 0.16052 0.0
H3087 H 0.38839 0.21933 0.17929 0.0
H3088 H 0.43488 0.27351 0.25956 0.0
H3089 H 0.43689 0.30576 0.26811 0.0
H3090 H 0.45683 0.29548 0.25135 0.0
H3091 H 0.44835 0.31993 0.2184 0.0
H3092 H 0.42824 0.33007 0.23498 0.0
H3093 H 0.42066 0.31443 0.20383 0.0
H3094 H 0.36118 0.23397 0.20027 0.0
H3095 H 0.33915 0.25342 0.22642 0.0
H3096 H 0.3966 0.3109 0.26032 0.0
C3097 C 0.44518 0.2662 0.19977 0.0
C3098 C 0.44288 0.24529 0.18151 0.0
C3099 C 0.42233 0.22829 0.17441 0.0
C3100 C 0.40416 0.23224 0.1849 0.0
C3101 C 0.4069 0.25317 0.20247 0.0
C3102 C 0.42683 0.26978 0.21015 0.0
C3103 C 0.42506 0.29061 0.22967 0.0
C3104 C 0.43926 0.29137 0.25359 0.0
C3105 C 0.43092 0.31521 0.2212 0.0
C3106 C 0.40094 0.28294 0.2317 0.0
C3107 C 0.39095 0.26138 0.21557 0.0
C3108 C 0.36882 0.25056 0.21331 0.0
C3109 C 0.35653 0.26166 0.22843 0.0
C3110 C 0.36643 0.28306 0.24597 0.0
C3111 C 0.38882 0.29432 0.24729 0.0
H3112 H 0.64708 0.56816 0.36785 0.0
H3113 H 0.63805 0.49089 0.34 0.0
H3114 H 0.61746 0.48149 0.37399 0.0
H3115 H 0.65414 0.565 0.43254 0.0
H3116 H 0.63976 0.58798 0.44142 0.0
H3117 H 0.65377 0.5887 0.41516 0.0
H3118 H 0.61807 0.58818 0.38878 0.0
H3119 H 0.60399 0.5876 0.41497 0.0
H3120 H 0.59387 0.56422 0.38817 0.0
H3121 H 0.59635 0.4805 0.41245 0.0
H3122 H 0.57739 0.4874 0.44803 0.0
H3123 H 0.59946 0.56562 0.45292 0.0
C3124 C 0.6409 0.54911 0.36873 0.0
C3125 C 0.64476 0.53032 0.35038 0.0
C3126 C 0.6359 0.50588 0.35314 0.0
C3127 C 0.624 0.50036 0.3727 0.0
C3128 C 0.62069 0.51928 0.39027 0.0
C3129 C 0.62897 0.54327 0.38837 0.0
C3130 C 0.62307 0.56032 0.40958 0.0
C3131 C 0.64392 0.57647 0.42562 0.0
C3132 C 0.60891 0.57602 0.39979 0.0
C3133 C 0.61002 0.5424 0.42378 0.0
C3134 C 0.60897 0.51877 0.41222 0.0
C3135 C 0.59749 0.49904 0.42144 0.0
C3136 C 0.58676 0.50323 0.44217 0.0
C3137 C 0.5871 0.52706 0.45478 0.0
C3138 C 0.59922 0.54702 0.445 0.0
H3139 H 0.3426 0.92787 0.07208 0.0
H3140 H 0.31947 0.86066 0.01846 0.0
H3141 H 0.33611 0.83866 0.04611 0.0
H3142 H 0.39443 0.91416 0.09736 0.0
H3143 H 0.39225 0.92792 0.12779 0.0
H3144 H 0.38198 0.93947 0.10234 0.0
H3145 H 0.34388 0.93303 0.11676 0.0
H3146 H 0.35414 0.9218 0.14226 0.0
H3147 H 0.33041 0.90328 0.12185 0.0
H3148 H 0.35231 0.82342 0.07973 0.0
H3149 H 0.36109 0.8139 0.11986 0.0
H3150 H 0.37184 0.89026 0.15296 0.0
C3151 C 0.34128 0.90857 0.06604 0.0
C3152 C 0.32982 0.89593 0.04314 0.0
C3153 C 0.32815 0.87066 0.03597 0.0
C3154 C 0.33782 0.85811 0.05139 0.0
C3155 C 0.34913 0.87115 0.07378 0.0
C3156 C 0.3507 0.89575 0.08126 0.0
C3157 C 0.3614 0.90474 0.10735 0.0
C3158 C 0.38384 0.92263 0.10879 0.0
C3159 C 0.34655 0.91637 0.12297 0.0
C3160 C 0.36388 0.88086 0.11395 0.0
C3161 C 0.35777 0.86203 0.09391 0.0
C3162 C 0.35747 0.838 0.09549 0.0
C3163 C 0.36258 0.83281 0.11832 0.0
C3164 C 0.36734 0.85146 0.13927 0.0
C3165 C 0.36861 0.87588 0.13704 0.0
H3166 H 0.97403 0.56019 0.86877 0.0
H3167 H 0.94555 0.48204 0.85901 0.0
H3168 H 0.97507 0.47884 0.88918 0.0
H3169 H 0.03008 0.55812 0.87552 0.0
H3170 H 0.03893 0.58554 0.89848 0.0
H3171 H 0.01558 0.58177 0.87606 0.0
H3172 H 0.99164 0.5886 0.91004 0.0
H3173 H 0.01503 0.59287 0.93249 0.0
H3174 H 0.99033 0.57005 0.93303 0.0
H3175 H 1.00699 0.48411 0.92009 0.0
H3176 H 0.03753 0.49824 0.95362 0.0
H3177 H 0.0458 0.57279 0.94272 0.0
C3178 C 0.97391 0.54242 0.87312 0.0
C3179 C 0.95759 0.52137 0.86167 0.0
C3180 C 0.95785 0.49844 0.86781 0.0
C3181 C 0.97465 0.49639 0.88467 0.0
C3182 C 0.99085 0.51744 0.8951 0.0
C3183 C 0.99046 0.54006 0.88987 0.0
C3184 C 1.00936 0.55999 0.90431 0.0
C3185 C 0.02437 0.57206 0.88759 0.0
C3186 C 1.00109 0.57899 0.92096 0.0
C3187 C 0.02042 0.54503 0.91866 0.0
C3188 C 1.00954 0.52049 0.91285 0.0
C3189 C 0.01579 0.50319 0.92463 0.0
C3190 C 0.03314 0.51133 0.94351 0.0
C3191 C 0.04401 0.53643 0.95016 0.0
C3192 C 0.03803 0.55344 0.9373 0.0
H3193 H 0.30002 0.21677 0.58436 0.0
H3194 H 0.29118 0.28243 0.56008 0.0
H3195 H 0.29001 0.30148 0.60219 0.0
H3196 H 0.26519 0.21797 0.63115 0.0
H3197 H 0.28256 0.2078 0.65228 0.0
H3198 H 0.28242 0.19884 0.62014 0.0
H3199 H 0.32425 0.21686 0.62534 0.0
H3200 H 0.32455 0.22563 0.65751 0.0
H3201 H 0.33569 0.24823 0.64026 0.0
H3202 H 0.2876 0.31284 0.64695 0.0
H3203 H 0.28931 0.31761 0.69158 0.0
H3204 H 0.30281 0.24644 0.68797 0.0
C3205 C 0.29785 0.23516 0.58789 0.0
C3206 C 0.29549 0.24795 0.56865 0.0
C3207 C 0.29294 0.27211 0.57428 0.0
C3208 C 0.29217 0.28312 0.59823 0.0
C3209 C 0.29423 0.26995 0.61667 0.0
C3210 C 0.2974 0.24665 0.61188 0.0
C3211 C 0.2999 0.23688 0.63525 0.0
C3212 C 0.28142 0.21402 0.63466 0.0
C3213 C 0.32244 0.2316 0.63986 0.0
C3214 C 0.29774 0.25835 0.65385 0.0
C3215 C 0.29403 0.27704 0.64265 0.0
C3216 C 0.29066 0.29838 0.65589 0.0
C3217 C 0.29148 0.30088 0.68122 0.0
C3218 C 0.29611 0.28242 0.69322 0.0
C3219 C 0.29925 0.26087 0.67926 0.0
H3220 H 0.65329 0.5664 0.19852 0.0
H3221 H 0.62671 0.49105 0.20417 0.0
H3222 H 0.60359 0.48452 0.16428 0.0
H3223 H 0.60322 0.57694 0.17008 0.0
H3224 H 0.61701 0.59598 0.15095 0.0
H3225 H 0.63106 0.59449 0.17976 0.0
H3226 H 0.66198 0.58183 0.15838 0.0
H3227 H 0.64802 0.58327 0.12951 0.0
H3228 H 0.65535 0.55557 0.13403 0.0
H3229 H 0.58367 0.48628 0.12082 0.0
H3230 H 0.56922 0.49611 0.08232 0.0
H3231 H 0.60764 0.57094 0.10528 0.0
C3232 C 0.64259 0.54841 0.1916 0.0
C3233 C 0.64224 0.52922 0.20524 0.0
C3234 C 0.62769 0.50619 0.19474 0.0
C3235 C 0.61438 0.50233 0.17181 0.0
C3236 C 0.61537 0.52161 0.15895 0.0
C3237 C 0.62913 0.54429 0.16874 0.0
C3238 C 0.62738 0.56215 0.15148 0.0
C3239 C 0.61918 0.58367 0.1638 0.0
C3240 C 0.6495 0.57125 0.14285 0.0
C3241 C 0.61048 0.54621 0.13033 0.0
C3242 C 0.60384 0.52277 0.13488 0.0
C3243 C 0.58887 0.50468 0.11751 0.0
C3244 C 0.58067 0.51049 0.09537 0.0
C3245 C 0.5869 0.53442 0.09009 0.0
C3246 C 0.6021 0.55247 0.1083 0.0
H3247 H 0.32554 0.87102 0.9537 0.0
H3248 H 0.33985 0.93983 0.92865 0.0
H3249 H 0.33984 0.9178 0.88712 0.0
H3250 H 0.35667 0.83898 0.91434 0.0
H3251 H 0.33627 0.81029 0.90882 0.0
H3252 H 0.33949 0.83153 0.93703 0.0
H3253 H 0.29854 0.83136 0.92959 0.0
H3254 H 0.29518 0.81008 0.90144 0.0
H3255 H 0.28774 0.83864 0.90176 0.0
H3256 H 0.33618 0.88909 0.84899 0.0
H3257 H 0.3267 0.85488 0.8145 0.0
H3258 H 0.31399 0.80352 0.86328 0.0
C3259 C 0.32893 0.88127 0.93939 0.0
C3260 C 0.33288 0.9069 0.94392 0.0
C3261 C 0.33686 0.92009 0.92512 0.0
C3262 C 0.337 0.90778 0.90167 0.0
C3263 C 0.33297 0.8824 0.8976 0.0
C3264 C 0.32878 0.86921 0.91579 0.0
C3265 C 0.32307 0.84195 0.90596 0.0
C3266 C 0.33989 0.82999 0.91721 0.0
C3267 C 0.29975 0.8298 0.90992 0.0
C3268 C 0.32461 0.84192 0.87937 0.0
C3269 C 0.33057 0.86552 0.87515 0.0
C3270 C 0.33188 0.87051 0.85204 0.0
C3271 C 0.32658 0.85087 0.83257 0.0
C3272 C 0.32011 0.82651 0.83629 0.0
C3273 C 0.31938 0.82194 0.86003 0.0
H3274 H 0.98235 0.49651 0.75132 0.0
H3275 H 0.96605 0.56373 0.73951 0.0
H3276 H 0.9666 0.55172 0.69575 0.0
H3277 H 0.0202 0.49594 0.70963 0.0
H3278 H 0.0123 0.46315 0.70005 0.0
H3279 H 1.00884 0.47673 0.72994 0.0
H3280 H 0.96781 0.45342 0.72073 0.0
H3281 H 0.97109 0.44077 0.69031 0.0
H3282 H 0.95096 0.458 0.69519 0.0
H3283 H 0.96862 0.53302 0.65407 0.0
H3284 H 0.98398 0.51586 0.619 0.0
H3285 H 1.00044 0.46157 0.65758 0.0
C3286 C 0.97923 0.50889 0.7396 0.0
C3287 C 0.97391 0.53089 0.74872 0.0
C3288 C 0.96999 0.54665 0.73281 0.0
C3289 C 0.96986 0.5398 0.70791 0.0
C3290 C 0.97373 0.51723 0.69932 0.0
C3291 C 0.97906 0.50239 0.71469 0.0
C3292 C 0.98478 0.48029 0.701 0.0
C3293 C 1.00791 0.47898 0.71072 0.0
C3294 C 0.96764 0.45672 0.70187 0.0
C3295 C 0.98341 0.48604 0.67576 0.0
C3296 C 0.97577 0.50669 0.67502 0.0
C3297 C 0.97443 0.5167 0.65426 0.0
C3298 C 0.98295 0.50664 0.63431 0.0
C3299 C 0.99325 0.48741 0.6358 0.0
C3300 C 0.99222 0.47596 0.65606 0.0
H3301 H 0.2801 0.26334 0.43923 0.0
H3302 H 0.31693 0.2081 0.4348 0.0
H3303 H 0.32932 0.21954 0.39711 0.0
H3304 H 0.2619 0.25612 0.3756 0.0
H3305 H 0.26525 0.2884 0.37652 0.0
H3306 H 0.25967 0.27584 0.40312 0.0
H3307 H 0.29439 0.30706 0.42725 0.0
H3308 H 0.29996 0.31919 0.40036 0.0
H3309 H 0.32036 0.3082 0.41656 0.0
H3310 H 0.33822 0.23758 0.35935 0.0
H3311 H 0.34195 0.25971 0.32508 0.0
H3312 H 0.29825 0.30217 0.35249 0.0
C3313 C 0.29081 0.25361 0.43041 0.0
C3314 C 0.29744 0.23464 0.44031 0.0
C3315 C 0.31155 0.22265 0.42793 0.0
C3316 C 0.3187 0.22905 0.40637 0.0
C3317 C 0.31176 0.24766 0.3971 0.0
C3318 C 0.29815 0.25983 0.40881 0.0
C3319 C 0.29318 0.27927 0.39512 0.0
C3320 C 0.26852 0.27459 0.38711 0.0
C3321 C 0.30252 0.30495 0.41075 0.0
C3322 C 0.30541 0.27558 0.3734 0.0
C3323 C 0.31639 0.25755 0.37516 0.0
C3324 C 0.32954 0.25157 0.35781 0.0
C3325 C 0.33158 0.26423 0.33834 0.0
C3326 C 0.3202 0.28242 0.33579 0.0
C3327 C 0.30687 0.28805 0.35364 0.0
H3328 H 0.35329 0.6007 0.5374 0.0
H3329 H 0.35913 0.64389 0.48088 0.0
H3330 H 0.38538 0.62217 0.46408 0.0
H3331 H 0.40971 0.6021 0.54767 0.0
H3332 H 0.40513 0.57152 0.55373 0.0
H3333 H 0.38556 0.58913 0.56008 0.0
H3334 H 0.35492 0.55453 0.53286 0.0
H3335 H 0.37441 0.53682 0.5263 0.0
H3336 H 0.35807 0.54395 0.50186 0.0
H3337 H 0.41111 0.59583 0.45368 0.0
H3338 H 0.43736 0.56981 0.45302 0.0
H3339 H 0.41598 0.54574 0.51763 0.0
C3340 C 0.36 0.60542 0.52139 0.0
C3341 C 0.35419 0.62379 0.51031 0.0
C3342 C 0.36351 0.62986 0.48964 0.0
C3343 C 0.37827 0.61753 0.47988 0.0
C3344 C 0.38367 0.59944 0.49122 0.0
C3345 C 0.37504 0.59363 0.5117 0.0
C3346 C 0.38467 0.57473 0.52145 0.0
C3347 C 0.397 0.58499 0.54725 0.0
C3348 C 0.36696 0.55111 0.52055 0.0
C3349 C 0.40016 0.57093 0.50336 0.0
C3350 C 0.39911 0.58503 0.48582 0.0
C3351 C 0.41208 0.58469 0.4673 0.0
C3352 C 0.42683 0.56984 0.467 0.0
C3353 C 0.42859 0.55593 0.48531 0.0
C3354 C 0.41493 0.55632 0.50351 0.0
H3355 H 0.89395 0.97023 0.53706 0.0
H3356 H 0.91665 0.90558 0.54499 0.0
H3357 H 0.9541 0.9277 0.54265 0.0
H3358 H 0.93071 0.98998 0.4943 0.0
H3359 H 0.9357 0.02212 0.50673 0.0
H3360 H 0.91017 1.00148 0.50893 0.0
H3361 H 0.91645 0.01596 0.55548 0.0
H3362 H 0.94194 0.03672 0.5534 0.0
H3363 H 0.94138 0.01455 0.57277 0.0
H3364 H 0.98955 0.95617 0.53922 0.0
H3365 H 0.02074 0.99049 0.53671 0.0
H3366 H 0.97681 0.03743 0.53127 0.0
C3367 C 0.90682 0.9608 0.53845 0.0
C3368 C 0.90204 0.93594 0.54125 0.0
C3369 C 0.91955 0.92444 0.54281 0.0
C3370 C 0.94104 0.93689 0.54146 0.0
C3371 C 0.94519 0.96109 0.53851 0.0
C3372 C 0.92866 0.97307 0.5371 0.0
C3373 C 0.93794 0.99929 0.53397 0.0
C3374 C 0.92804 1.00346 0.50953 0.0
C3375 C 0.93421 0.01772 0.55517 0.0
C3376 C 0.96218 1.00012 0.53431 0.0
C3377 C 0.96587 0.97772 0.53664 0.0
C3378 C 0.9868 0.97375 0.53723 0.0
C3379 C 1.00443 0.99315 0.5355 0.0
C3380 C 1.00124 0.01631 0.53333 0.0
C3381 C 0.97977 0.01983 0.53283 0.0
H3382 H 0.87993 0.13849 0.30279 0.0
H3383 H 0.91119 0.14027 0.23808 0.0
H3384 H 0.8971 0.17617 0.23148 0.0
H3385 H 0.83075 0.15469 0.28042 0.0
H3386 H 0.82893 0.17332 0.30878 0.0
H3387 H 0.84204 0.14857 0.30864 0.0
H3388 H 0.87692 0.17851 0.33325 0.0
H3389 H 0.86392 0.20338 0.33344 0.0
H3390 H 0.88961 0.20523 0.32195 0.0
H3391 H 0.87942 0.21577 0.2333 0.0
H3392 H 0.85937 0.24803 0.2407 0.0
H3393 H 0.83651 0.21936 0.30244 0.0
C3394 C 0.88394 0.14621 0.28705 0.0
C3395 C 0.89716 0.13547 0.27101 0.0
C3396 C 0.90143 0.14716 0.2509 0.0
C3397 C 0.89335 0.16799 0.24703 0.0
C3398 C 0.88053 0.17789 0.2632 0.0
C3399 C 0.87577 0.16702 0.28282 0.0
C3400 C 0.86144 0.18077 0.29754 0.0
C3401 C 0.83948 0.16329 0.29893 0.0
C3402 C 0.87369 0.19267 0.32306 0.0
C3403 C 0.85813 0.20066 0.28301 0.0
C3404 C 0.86981 0.19911 0.26356 0.0
C3405 C 0.87021 0.21648 0.24843 0.0
C3406 C 0.85863 0.23518 0.25289 0.0
C3407 C 0.8457 0.23709 0.2721 0.0
C3408 C 0.84571 0.21901 0.2873 0.0
H3409 H 0.72808 0.10038 0.01684 0.0
H3410 H 0.73625 0.16912 0.06674 0.0
H3411 H 0.69723 0.15832 0.07079 0.0
H3412 H 0.6749 0.09982 0.98592 0.0
H3413 H 0.66481 0.06715 0.98235 0.0
H3414 H 0.69358 0.0804 0.98364 0.0
H3415 H 0.70101 0.05831 0.01914 0.0
H3416 H 0.67212 0.04579 0.01806 0.0
H3417 H 0.68821 0.0636 0.04596 0.0
H3418 H 0.6584 0.13995 0.07136 0.0
H3419 H 0.61989 0.11596 0.0649 0.0
H3420 H 0.63561 0.06068 0.01227 0.0
C3421 C 0.72158 0.11295 0.02874 0.0
C3422 C 0.73508 0.13542 0.04169 0.0
C3423 C 0.7261 0.15176 0.05673 0.0
C3424 C 0.70401 0.14581 0.0592 0.0
C3425 C 0.69108 0.1236 0.04626 0.0
C3426 C 0.69934 0.1075 0.03107 0.0
C3427 C 0.68148 0.0852 0.01871 0.0
C3428 C 0.67853 0.08305 0.99101 0.0
C3429 C 0.68598 0.06185 0.02591 0.0
C3430 C 0.66207 0.09145 0.02942 0.0
C3431 C 0.66809 0.11351 0.04554 0.0
C3432 C 0.65332 0.12275 0.05859 0.0
C3433 C 0.63161 0.10907 0.0549 0.0
C3434 C 0.62503 0.08686 0.03796 0.0
C3435 C 0.64036 0.07792 0.02504 0.0
H3436 H 0.21794 0.48289 0.22746 0.0
H3437 H 0.21472 0.5286 0.29542 0.0
H3438 H 0.24128 0.51087 0.31678 0.0
H3439 H 0.22059 0.43031 0.25102 0.0
H3440 H 0.2394 0.42134 0.23161 0.0
H3441 H 0.22112 0.43866 0.22161 0.0
H3442 H 0.2539 0.47214 0.21451 0.0
H3443 H 0.27226 0.45466 0.22398 0.0
H3444 H 0.27606 0.48597 0.23884 0.0
H3445 H 0.26584 0.485 0.33083 0.0
H3446 H 0.28855 0.45576 0.33564 0.0
H3447 H 0.27732 0.43049 0.25751 0.0
C3448 C 0.22309 0.48925 0.24676 0.0
C3449 C 0.21461 0.50693 0.25996 0.0
C3450 C 0.22139 0.51505 0.28517 0.0
C3451 C 0.23634 0.50506 0.29741 0.0
C3452 C 0.24429 0.48723 0.28395 0.0
C3453 C 0.23811 0.47968 0.25914 0.0
C3454 C 0.2487 0.46011 0.24886 0.0
C3455 C 0.23142 0.4362 0.23762 0.0
C3456 C 0.26362 0.46875 0.23047 0.0
C3457 C 0.2617 0.45771 0.2717 0.0
C3458 C 0.25886 0.47321 0.29187 0.0
C3459 C 0.26849 0.47302 0.3151 0.0
C3460 C 0.28142 0.45648 0.31765 0.0
C3461 C 0.28464 0.44067 0.29699 0.0
C3462 C 0.27486 0.44178 0.27382 0.0
H3463 H 0.2821 0.45631 0.03145 0.0
H3464 H 0.24447 0.38078 0.00964 0.0
H3465 H 0.21122 0.39448 1.00082 0.0
H3466 H 0.24131 0.47935 0.06048 0.0
H3467 H 0.24674 0.50788 0.04986 0.0
H3468 H 0.26818 0.49246 0.05374 0.0
H3469 H 0.27416 0.4926 0.00903 0.0
H3470 H 0.25262 0.50791 1.00502 0.0
H3471 H 0.25144 0.47944 0.98521 0.0
H3472 H 0.1812 0.41559 0.99664 0.0
H3473 H 0.1566 0.44335 0.99692 0.0
H3474 H 0.21244 0.50581 0.01945 0.0
C3475 C 0.26687 0.44269 0.02481 0.0
C3476 C 0.26614 0.41734 0.02143 0.0
C3477 C 0.24575 0.40024 0.01251 0.0
C3478 C 0.22662 0.40784 0.00735 0.0
C3479 C 0.22784 0.43276 0.0109 0.0
C3480 C 0.24741 0.45001 0.01928 0.0
C3481 C 0.24382 0.47569 0.02167 0.0
C3482 C 0.25041 0.48967 0.04801 0.0
C3483 C 0.25625 0.48974 1.00419 0.0
C3484 C 0.21918 0.47004 0.01412 0.0
C3485 C 0.21038 0.44509 0.00785 0.0
C3486 C 0.18793 0.43517 1.00134 0.0
C3487 C 0.17405 0.45107 1.00161 0.0
C3488 C 0.18253 0.47672 0.00813 0.0
C3489 C 0.20549 0.48629 0.0141 0.0
H3490 H 0.90501 0.97676 0.29732 0.0
H3491 H 0.87977 0.9881 0.22713 0.0
H3492 H 0.85604 0.94573 0.21871 0.0
H3493 H 0.90531 0.91277 0.27875 0.0
H3494 H 0.89706 0.9041 0.30639 0.0
H3495 H 0.9122 0.93494 0.3067 0.0
H3496 H 0.88185 0.95165 0.32539 0.0
H3497 H 0.86671 0.92089 0.32534 0.0
H3498 H 0.85406 0.94074 0.31043 0.0
H3499 H 0.83387 0.90037 0.21832 0.0
H3500 H 0.81506 0.86025 0.22657 0.0
H3501 H 0.85394 0.87737 0.29735 0.0
C3502 C 0.89452 0.97052 0.28007 0.0
C3503 C 0.89466 0.98662 0.26292 0.0
C3504 C 0.88033 0.9769 0.24076 0.0
C3505 C 0.86672 0.95253 0.2358 0.0
C3506 C 0.86716 0.93734 0.25305 0.0
C3507 C 0.88071 0.94618 0.27487 0.0
C3508 C 0.87784 0.92643 0.29069 0.0
C3509 C 0.89939 0.91914 0.29595 0.0
C3510 C 0.86963 0.93547 0.31437 0.0
C3511 C 0.86047 0.90501 0.2746 0.0
C3512 C 0.85467 0.91169 0.25284 0.0
C3513 C 0.83864 0.89524 0.23527 0.0
C3514 C 0.82805 0.87209 0.24007 0.0
C3515 C 0.83322 0.86451 0.26224 0.0
C3516 C 0.84993 0.88161 0.27973 0.0
H3517 H 0.71774 0.13659 0.79434 0.0
H3518 H 0.69497 0.11098 0.71758 0.0
H3519 H 0.7282 0.13773 0.70788 0.0
H3520 H 0.73532 0.19715 0.78927 0.0
H3521 H 0.7583 0.20466 0.81286 0.0
H3522 H 0.73502 0.18034 0.81368 0.0
H3523 H 0.76003 0.15063 0.81556 0.0
H3524 H 0.78353 0.17488 0.81455 0.0
H3525 H 0.7773 0.14684 0.79243 0.0
H3526 H 0.76068 0.17025 0.70652 0.0
H3527 H 0.78619 0.21107 0.71354 0.0
H3528 H 0.78868 0.21495 0.79122 0.0
C3529 C 0.72001 0.13663 0.77557 0.0
C3530 C 0.70416 0.12219 0.75663 0.0
C3531 C 0.70714 0.12243 0.7322 0.0
C3532 C 0.72605 0.13711 0.72657 0.0
C3533 C 0.74167 0.1512 0.74565 0.0
C3534 C 0.73867 0.15139 0.76966 0.0
C3535 C 0.75593 0.17108 0.78662 0.0
C3536 C 0.74551 0.18937 0.80146 0.0
C3537 C 0.77004 0.16018 0.80326 0.0
C3538 C 0.7687 0.18241 0.76838 0.0
C3539 C 0.76058 0.17032 0.74485 0.0
C3540 C 0.76753 0.17966 0.72483 0.0
C3541 C 0.78201 0.20283 0.72896 0.0
C3542 C 0.78899 0.21615 0.75289 0.0
C3543 C 0.78351 0.20509 0.77272 0.0
loop_
_geom_bond_atom_site_label_1
_geom_bond_atom_site_label_2
_geom_bond_distance
_geom_bond_site_symmetry_2
_ccdc_geom_bond_type
C0 O1 1.160 . S
C0 O7 1.185 . S
O1 C0 1.160 . S
O2 Zn3 1.899 . S
O2 C10 1.284 . S
Zn3 O2 1.899 . S
Zn3 O4 2.032 . S
Zn3 O7 2.086 . S
Zn3 O12 1.977 . S
O4 Zn3 2.032 . S
O4 C8 1.278 . S
C5 O6 1.203 . S
C5 O12 1.267 . S
O6 C5 1.203 . S
O7 C0 1.185 . S
O7 Zn3 2.086 . S
C8 O4 1.278 . S
C8 O9 1.211 . S
O9 C8 1.211 . S
C10 O2 1.284 . S
C10 O11 1.273 . S
O11 C10 1.273 . S
O12 Zn3 1.977 . S
O12 C5 1.267 . S
C13 O14 1.160 . S
C13 O20 1.185 . S
O14 C13 1.160 . S
O15 Zn16 1.899 . S
O15 C23 1.284 . S
Zn16 O15 1.899 . S
Zn16 O17 2.032 . S
Zn16 O20 2.086 . S
Zn16 O25 1.977 1_655 S
O17 Zn16 2.032 . S
O17 C21 1.278 1_655 S
C18 O19 1.203 . S
C18 O25 1.267 . S
O19 C18 1.203 . S
O20 C13 1.185 . S
O20 Zn16 2.086 . S
C21 O17 1.278 1_455 S
C21 O22 1.211 . S
O22 C21 1.211 . S
C23 O15 1.284 . S
C23 O24 1.273 1_655 S
O24 C23 1.273 1_455 S
O25 Zn16 1.977 1_455 S
O25 C18 1.267 . S
C26 O27 1.160 . S
C26 O33 1.185 . S
O27 C26 1.160 . S
O28 Zn29 1.899 . S
O28 C36 1.284 . S
Zn29 O28 1.899 . S
Zn29 O30 2.032 . S
Zn29 O33 2.086 . S
Zn29 O38 1.977 . S
O30 Zn29 2.032 . S
O30 C34 1.278 . S
C31 O32 1.203 . S
C31 O38 1.267 . S
O32 C31 1.203 . S
O33 C26 1.185 . S
O33 Zn29 2.086 . S
C34 O30 1.278 . S
C34 O35 1.211 . S
O35 C34 1.211 . S
C36 O28 1.284 . S
C36 O37 1.273 . S
O37 C36 1.273 . S
O38 Zn29 1.977 . S
O38 C31 1.267 . S
C39 O40 1.160 . S
C39 O46 1.185 . S
O40 C39 1.160 . S
O41 Zn42 1.899 . S
O41 C49 1.284 . S
Zn42 O41 1.899 . S
Zn42 O43 2.032 . S
Zn42 O46 2.086 . S
Zn42 O51 1.977 . S
O43 Zn42 2.032 . S
O43 C47 1.278 . S
C44 O45 1.203 . S
C44 O51 1.267 . S
O45 C44 1.203 . S
O46 C39 1.185 . S
O46 Zn42 2.086 . S
C47 O43 1.278 . S
C47 O48 1.211 . S
O48 C47 1.211 . S
C49 O41 1.284 . S
C49 O50 1.273 . S
O50 C49 1.273 . S
O51 Zn42 1.977 . S
O51 C44 1.267 . S
C52 O53 1.160 . S
C52 O59 1.185 . S
O53 C52 1.160 . S
O54 Zn55 1.899 . S
O54 C62 1.284 . S
Zn55 O54 1.899 . S
Zn55 O56 2.032 . S
Zn55 O59 2.086 . S
Zn55 O64 1.977 . S
O56 Zn55 2.032 . S
O56 C60 1.278 . S
C57 O58 1.203 . S
C57 O64 1.267 . S
O58 C57 1.203 . S
O59 C52 1.185 . S
O59 Zn55 2.086 . S
C60 O56 1.278 . S
C60 O61 1.211 . S
O61 C60 1.211 . S
C62 O54 1.284 . S
C62 O63 1.273 . S
O63 C62 1.273 . S
O64 Zn55 1.977 . S
O64 C57 1.267 . S
C65 O66 1.160 . S
C65 O72 1.185 . S
O66 C65 1.160 . S
O67 Zn68 1.899 . S
O67 C75 1.284 . S
Zn68 O67 1.899 . S
Zn68 O69 2.032 . S
Zn68 O72 2.086 . S
Zn68 O77 1.977 . S
O69 Zn68 2.032 . S
O69 C73 1.278 . S
C70 O71 1.203 . S
C70 O77 1.267 . S
O71 C70 1.203 . S
O72 C65 1.185 . S
O72 Zn68 2.086 . S
C73 O69 1.278 . S
C73 O74 1.211 . S
O74 C73 1.211 . S
C75 O67 1.284 . S
C75 O76 1.273 . S
O76 C75 1.273 . S
O77 Zn68 1.977 . S
O77 C70 1.267 . S
C78 O79 1.160 . S
C78 O85 1.185 . S
O79 C78 1.160 . S
O80 Zn81 1.899 . S
O80 C88 1.284 . S
Zn81 O80 1.899 . S
Zn81 O82 2.032 . S
Zn81 O85 2.086 . S
Zn81 O90 1.977 . S
O82 Zn81 2.032 . S
O82 C86 1.278 . S
C83 O84 1.203 . S
C83 O90 1.267 . S
O84 C83 1.203 . S
O85 C78 1.185 . S
O85 Zn81 2.086 . S
C86 O82 1.278 . S
C86 O87 1.211 . S
O87 C86 1.211 . S
C88 O80 1.284 . S
C88 O89 1.273 . S
O89 C88 1.273 . S
O90 Zn81 1.977 . S
O90 C83 1.267 . S
C91 O92 1.160 . S
C91 O98 1.185 . S
O92 C91 1.160 . S
O93 Zn94 1.899 . S
O93 C101 1.284 . S
Zn94 O93 1.899 . S
Zn94 O95 2.032 . S
Zn94 O98 2.086 . S
Zn94 O103 1.977 1_455 S
O95 Zn94 2.032 . S
O95 C99 1.278 . S
C96 O97 1.203 . S
C96 O103 1.267 . S
O97 C96 1.203 . S
O98 C91 1.185 . S
O98 Zn94 2.086 . S
C99 O95 1.278 . S
C99 O100 1.211 . S
O100 C99 1.211 . S
C101 O93 1.284 . S
C101 O102 1.273 . S
O102 C101 1.273 . S
O103 Zn94 1.977 1_655 S
O103 C96 1.267 . S
C104 O105 1.160 . S
C104 O111 1.185 . S
O105 C104 1.160 . S
O106 Zn107 1.897 . S
O106 C114 1.273 1_545 S
Zn107 O106 1.897 . S
Zn107 O108 2.032 . S
Zn107 O111 2.086 . S
Zn107 O116 1.977 1_545 S
O108 Zn107 2.032 . S
O108 C112 1.278 . S
C109 O110 1.203 . S
C109 O116 1.267 . S
O110 C109 1.203 . S
O111 C104 1.185 . S
O111 Zn107 2.086 . S
C112 O108 1.278 . S
C112 O113 1.211 1_545 S
O113 C112 1.211 1_565 S
C114 O106 1.273 1_565 S
C114 O115 1.273 . S
O115 C114 1.273 . S
O116 Zn107 1.977 1_565 S
O116 C109 1.267 . S
C117 O118 1.160 . S
C117 O124 1.185 . S
O118 C117 1.160 . S
O119 Zn120 1.899 . S
O119 C127 1.284 . S
Zn120 O119 1.899 . S
Zn120 O121 2.032 . S
Zn120 O124 2.086 . S
Zn120 O129 1.977 . S
O121 Zn120 2.032 . S
O121 C125 1.278 . S
C122 O123 1.203 . S
C122 O129 1.267 . S
O123 C122 1.203 . S
O124 C117 1.185 . S
O124 Zn120 2.086 . S
C125 O121 1.278 . S
C125 O126 1.211 . S
O126 C125 1.211 . S
C127 O119 1.284 . S
C127 O128 1.273 . S
O128 C127 1.273 . S
O129 Zn120 1.977 . S
O129 C122 1.267 . S
C130 O131 1.160 . S
C130 O137 1.185 . S
O131 C130 1.160 . S
O132 Zn133 1.903 1_565 S
O132 C140 1.259 1_565 S
Zn133 O132 1.903 1_545 S
Zn133 O134 2.032 1_545 S
Zn133 O137 2.086 1_545 S
Zn133 O142 1.977 . S
O134 Zn133 2.032 1_565 S
O134 C138 1.278 1_565 S
C135 O136 1.203 . S
C135 O142 1.267 . S
O136 C135 1.203 . S
O137 C130 1.185 . S
O137 Zn133 2.086 1_565 S
C138 O134 1.278 1_545 S
C138 O139 1.211 . S
O139 C138 1.211 . S
C140 O132 1.259 1_545 S
C140 O141 1.289 . S
O141 C140 1.289 . S
O142 Zn133 1.977 . S
O142 C135 1.267 . S
C143 O144 1.160 . S
C143 O150 1.185 . S
O144 C143 1.160 . S
O145 Zn146 1.899 . S
O145 C153 1.284 . S
Zn146 O145 1.899 . S
Zn146 O147 2.032 1_554 S
Zn146 O150 2.086 . S
Zn146 O155 1.977 . S
O147 Zn146 2.032 1_556 S
O147 C151 1.278 . S
C148 O149 1.203 . S
C148 O155 1.267 . S
O149 C148 1.203 . S
O150 C143 1.185 . S
O150 Zn146 2.086 . S
C151 O147 1.278 . S
C151 O152 1.211 . S
O152 C151 1.211 . S
C153 O145 1.284 . S
C153 O154 1.273 . S
O154 C153 1.273 . S
O155 Zn146 1.977 . S
O155 C148 1.267 . S
C156 O157 1.160 . S
C156 O163 1.185 . S
O157 C156 1.160 . S
O158 Zn159 1.899 . S
O158 C166 1.284 . S
Zn159 O158 1.899 . S
Zn159 O160 2.032 1_554 S
Zn159 O163 2.086 . S
Zn159 O168 1.977 . S
O160 Zn159 2.032 1_556 S
O160 C164 1.278 . S
C161 O162 1.203 . S
C161 O168 1.267 . S
O162 C161 1.203 . S
O163 C156 1.185 . S
O163 Zn159 2.086 . S
C164 O160 1.278 . S
C164 O165 1.211 . S
O165 C164 1.211 . S
C166 O158 1.284 . S
C166 O167 1.273 . S
O167 C166 1.273 . S
O168 Zn159 1.977 . S
O168 C161 1.267 . S
C169 O170 1.160 . S
C169 O176 1.185 . S
O170 C169 1.160 . S
O171 Zn172 1.899 . S
O171 C179 1.284 . S
Zn172 O171 1.899 . S
Zn172 O173 2.032 1_554 S
Zn172 O176 2.086 . S
Zn172 O181 1.977 . S
O173 Zn172 2.032 1_556 S
O173 C177 1.278 . S
C174 O175 1.203 . S
C174 O181 1.267 . S
O175 C174 1.203 . S
O176 C169 1.185 . S
O176 Zn172 2.086 . S
C177 O173 1.278 . S
C177 O178 1.211 . S
O178 C177 1.211 . S
C179 O171 1.284 . S
C179 O180 1.273 . S
O180 C179 1.273 . S
O181 Zn172 1.977 . S
O181 C174 1.267 . S
C182 O183 1.160 . S
C182 O189 1.185 . S
O183 C182 1.160 . S
O184 Zn185 1.899 . S
O184 C192 1.284 . S
Zn185 O184 1.899 . S
Zn185 O186 2.032 . S
Zn185 O189 2.086 . S
Zn185 O194 1.977 . S
O186 Zn185 2.032 . S
O186 C190 1.278 . S
C187 O188 1.203 . S
C187 O194 1.267 . S
O188 C187 1.203 . S
O189 C182 1.185 . S
O189 Zn185 2.086 . S
C190 O186 1.278 . S
C190 O191 1.211 . S
O191 C190 1.211 . S
C192 O184 1.284 . S
C192 O193 1.273 . S
O193 C192 1.273 . S
O194 Zn185 1.977 . S
O194 C187 1.267 . S
C195 O196 1.160 . S
C195 O202 1.185 . S
O196 C195 1.160 . S
O197 Zn198 1.899 . S
O197 C205 1.284 . S
Zn198 O197 1.899 . S
Zn198 O199 2.032 . S
Zn198 O202 2.086 . S
Zn198 O207 1.977 . S
O199 Zn198 2.032 . S
O199 C203 1.278 . S
C200 O201 1.203 . S
C200 O207 1.267 . S
O201 C200 1.203 . S
O202 C195 1.185 . S
O202 Zn198 2.086 . S
C203 O199 1.278 . S
C203 O204 1.211 . S
O204 C203 1.211 . S
C205 O197 1.284 . S
C205 O206 1.273 . S
O206 C205 1.273 . S
O207 Zn198 1.977 . S
O207 C200 1.267 . S
C208 O209 1.160 . S
C208 O215 1.185 . S
O209 C208 1.160 . S
O210 Zn211 1.899 . S
O210 C218 1.284 . S
Zn211 O210 1.899 . S
Zn211 O212 2.032 . S
Zn211 O215 2.086 . S
Zn211 O220 1.977 . S
O212 Zn211 2.032 . S
O212 C216 1.278 . S
C213 O214 1.203 . S
C213 O220 1.267 . S
O214 C213 1.203 . S
O215 C208 1.185 . S
O215 Zn211 2.086 . S
C216 O212 1.278 . S
C216 O217 1.211 . S
O217 C216 1.211 . S
C218 O210 1.284 . S
C218 O219 1.273 . S
O219 C218 1.273 . S
O220 Zn211 1.977 . S
O220 C213 1.267 . S
C221 O222 1.160 . S
C221 O228 1.185 . S
O222 C221 1.160 . S
O223 Zn224 1.899 . S
O223 C231 1.284 . S
Zn224 O223 1.899 . S
Zn224 O225 2.032 . S
Zn224 O228 2.086 . S
Zn224 O233 1.977 . S
O225 Zn224 2.032 . S
O225 C229 1.278 . S
C226 O227 1.203 . S
C226 O233 1.267 . S
O227 C226 1.203 . S
O228 C221 1.185 . S
O228 Zn224 2.086 . S
C229 O225 1.278 . S
C229 O230 1.211 . S
O230 C229 1.211 . S
C231 O223 1.284 . S
C231 O232 1.273 . S
O232 C231 1.273 . S
O233 Zn224 1.977 . S
O233 C226 1.267 . S
C234 O235 1.160 . S
C234 O241 1.185 . S
O235 C234 1.160 . S
O236 Zn237 1.899 . S
O236 C244 1.284 . S
Zn237 O236 1.899 . S
Zn237 O238 2.032 . S
Zn237 O241 2.086 . S
Zn237 O246 1.977 . S
O238 Zn237 2.032 . S
O238 C242 1.278 . S
C239 O240 1.203 . S
C239 O246 1.267 . S
O240 C239 1.203 . S
O241 C234 1.185 . S
O241 Zn237 2.086 . S
C242 O238 1.278 . S
C242 O243 1.211 . S
O243 C242 1.211 . S
C244 O236 1.284 . S
C244 O245 1.273 . S
O245 C244 1.273 . S
O246 Zn237 1.977 . S
O246 C239 1.267 . S
C247 O248 1.160 . S
C247 O254 1.185 . S
O248 C247 1.160 . S
O249 Zn250 1.899 . S
O249 C257 1.284 . S
Zn250 O249 1.899 . S
Zn250 O251 2.032 . S
Zn250 O254 2.086 . S
Zn250 O259 1.977 . S
O251 Zn250 2.032 . S
O251 C255 1.278 . S
C252 O253 1.203 . S
C252 O259 1.267 . S
O253 C252 1.203 . S
O254 C247 1.185 . S
O254 Zn250 2.086 . S
C255 O251 1.278 . S
C255 O256 1.211 . S
O256 C255 1.211 . S
C257 O249 1.284 . S
C257 O258 1.273 . S
O258 C257 1.273 . S
O259 Zn250 1.977 . S
O259 C252 1.267 . S
C260 O261 1.160 . S
C260 O267 1.185 . S
O261 C260 1.160 . S
O262 Zn263 1.899 . S
O262 C270 1.284 . S
Zn263 O262 1.899 . S
Zn263 O264 2.032 1_554 S
Zn263 O267 2.086 . S
Zn263 O272 1.977 1_554 S
O264 Zn263 2.032 1_556 S
O264 C268 1.278 . S
C265 O266 1.203 . S
C265 O272 1.267 1_554 S
O266 C265 1.203 . S
O267 C260 1.185 . S
O267 Zn263 2.086 . S
C268 O264 1.278 . S
C268 O269 1.211 . S
O269 C268 1.211 . S
C270 O262 1.284 . S
C270 O271 1.273 . S
O271 C270 1.273 . S
O272 Zn263 1.977 1_556 S
O272 C265 1.267 1_556 S
C273 O274 1.160 . S
C273 O280 1.185 . S
O274 C273 1.160 . S
O275 Zn276 1.899 . S
O275 C283 1.284 . S
Zn276 O275 1.899 . S
Zn276 O277 2.032 . S
Zn276 O280 2.086 . S
Zn276 O285 1.977 . S
O277 Zn276 2.032 . S
O277 C281 1.278 . S
C278 O279 1.203 . S
C278 O285 1.267 . S
O279 C278 1.203 . S
O280 C273 1.185 . S
O280 Zn276 2.086 . S
C281 O277 1.278 . S
C281 O282 1.211 . S
O282 C281 1.211 . S
C283 O275 1.284 . S
C283 O284 1.273 . S
O284 C283 1.273 . S
O285 Zn276 1.977 . S
O285 C278 1.267 . S
C286 O287 1.160 . S
C286 O293 1.185 . S
O287 C286 1.160 . S
O288 Zn289 1.899 . S
O288 C296 1.284 . S
Zn289 O288 1.899 . S
Zn289 O290 2.032 . S
Zn289 O293 2.086 . S
Zn289 O298 1.977 . S
O290 Zn289 2.032 . S
O290 C294 1.278 . S
C291 O292 1.203 . S
C291 O298 1.267 . S
O292 C291 1.203 . S
O293 C286 1.185 . S
O293 Zn289 2.086 . S
C294 O290 1.278 . S
C294 O295 1.211 . S
O295 C294 1.211 . S
C296 O288 1.284 . S
C296 O297 1.273 . S
O297 C296 1.273 . S
O298 Zn289 1.977 . S
O298 C291 1.267 . S
C299 O300 1.160 . S
C299 O306 1.185 . S
O300 C299 1.160 . S
O301 Zn302 1.899 . S
O301 C309 1.284 . S
Zn302 O301 1.899 . S
Zn302 O303 2.032 . S
Zn302 O306 2.086 . S
Zn302 O311 1.977 . S
O303 Zn302 2.032 . S
O303 C307 1.278 . S
C304 O305 1.203 . S
C304 O311 1.267 . S
O305 C304 1.203 . S
O306 C299 1.185 . S
O306 Zn302 2.086 . S
C307 O303 1.278 . S
C307 O308 1.211 . S
O308 C307 1.211 . S
C309 O301 1.284 . S
C309 O310 1.273 . S
O310 C309 1.273 . S
O311 Zn302 1.977 . S
O311 C304 1.267 . S
La312 C314 2.928 1_455 S
La312 O332 2.521 1_455 S
La312 O333 2.628 1_456 S
La312 O334 2.554 . S
La312 O335 2.757 . S
La312 O336 2.470 . S
La312 O341 2.482 1_556 S
La312 O343 2.503 1_546 S
La313 C323 2.928 . S
La313 O335 2.482 1_554 S
La313 O337 2.503 . S
La313 O338 2.521 . S
La313 O339 2.628 . S
La313 O340 2.554 . S
La313 O341 2.757 . S
La313 O342 2.470 . S
C314 La312 2.928 1_655 S
C314 C315 1.503 . S
C314 O332 1.261 . S
C314 O333 1.243 1_556 S
C315 C314 1.503 . S
C315 C316 1.394 . S
C315 C320 1.373 . S
C316 C315 1.394 . S
C316 C317 1.380 . S
C316 H344 0.930 . S
C317 C316 1.380 . S
C317 C318 1.376 . S
C317 H345 0.930 . S
C318 C317 1.376 . S
C318 C319 1.370 . S
C319 C318 1.370 . S
C319 C320 1.396 . S
C319 H346 0.929 1_556 S
C320 C315 1.373 . S
C320 C319 1.396 . S
C320 H347 0.929 1_556 S
C321 O334 1.240 . S
C321 O335 1.289 . S
C322 O336 1.258 1_554 S
C322 O337 1.256 . S
C323 La313 2.928 . S
C323 C324 1.503 . S
C323 O338 1.261 . S
C323 O339 1.243 . S
C324 C323 1.503 . S
C324 C325 1.394 . S
C324 C329 1.373 . S
C325 C324 1.394 . S
C325 C326 1.380 . S
C325 H348 0.930 . S
C326 C325 1.380 . S
C326 C327 1.376 . S
C326 H349 0.930 . S
C327 C326 1.376 . S
C327 C328 1.370 1_545 S
C328 C327 1.370 1_565 S
C328 C329 1.396 1_565 S
C328 H350 0.929 . S
C329 C324 1.373 . S
C329 C328 1.396 1_545 S
C329 H351 0.929 1_545 S
C330 O340 1.240 . S
C330 O341 1.289 . S
C331 O342 1.258 1_565 S
C331 O343 1.256 . S
O332 La312 2.521 1_655 S
O332 C314 1.261 . S
O333 La312 2.628 1_654 S
O333 C314 1.243 1_554 S
O334 La312 2.554 . S
O334 C321 1.240 . S
O335 La312 2.757 . S
O335 La313 2.482 1_556 S
O335 C321 1.289 . S
O336 La312 2.470 . S
O336 C322 1.258 1_556 S
O337 La313 2.503 . S
O337 C322 1.256 . S
O338 La313 2.521 . S
O338 C323 1.261 . S
O339 La313 2.628 . S
O339 C323 1.243 . S
O340 La313 2.554 . S
O340 C330 1.240 . S
O341 La312 2.482 1_554 S
O341 La313 2.757 . S
O341 C330 1.289 . S
O342 La313 2.470 . S
O342 C331 1.258 1_545 S
O343 La312 2.503 1_564 S
O343 C331 1.256 . S
H344 C316 0.930 . S
H345 C317 0.930 . S
H346 C319 0.929 1_554 S
H347 C320 0.929 1_554 S
H348 C325 0.930 . S
H349 C326 0.930 . S
H350 C328 0.929 . S
H351 C329 0.929 1_565 S
La352 C354 2.928 . S
La352 O372 2.521 . S
La352 O373 2.628 . S
La352 O374 2.554 . S
La352 O375 2.757 . S
La352 O376 2.470 . S
La352 O381 2.482 . S
La352 O383 2.503 . S
La353 C363 2.928 . S
La353 O375 2.482 . S
La353 O377 2.503 . S
La353 O378 2.521 . S
La353 O379 2.628 . S
La353 O380 2.554 . S
La353 O381 2.757 . S
La353 O382 2.470 . S
C354 La352 2.928 . S
C354 C355 1.503 . S
C354 O372 1.261 . S
C354 O373 1.243 . S
C355 C354 1.503 . S
C355 C356 1.394 . S
C355 C360 1.373 . S
C356 C355 1.394 . S
C356 C357 1.380 . S
C356 H384 0.930 . S
C357 C356 1.380 . S
C357 C358 1.376 . S
C357 H385 0.930 . S
C358 C357 1.376 . S
C358 C359 1.370 . S
C359 C358 1.370 . S
C359 C360 1.396 . S
C359 H386 0.929 . S
C360 C355 1.373 . S
C360 C359 1.396 . S
C360 H387 0.929 . S
C361 O374 1.240 . S
C361 O375 1.289 . S
C362 O376 1.258 . S
C362 O377 1.256 . S
C363 La353 2.928 . S
C363 C364 1.503 . S
C363 O378 1.261 . S
C363 O379 1.243 . S
C364 C363 1.503 . S
C364 C365 1.394 . S
C364 C369 1.373 . S
C365 C364 1.394 . S
C365 C366 1.380 . S
C365 H388 0.930 . S
C366 C365 1.380 . S
C366 C367 1.376 . S
C366 H389 0.930 . S
C367 C366 1.376 . S
C367 C368 1.370 . S
C368 C367 1.370 . S
C368 C369 1.396 . S
C368 H390 0.929 . S
C369 C364 1.373 . S
C369 C368 1.396 . S
C369 H391 0.929 . S
C370 O380 1.240 . S
C370 O381 1.289 . S
C371 O382 1.258 . S
C371 O383 1.256 . S
O372 La352 2.521 . S
O372 C354 1.261 . S
O373 La352 2.628 . S
O373 C354 1.243 . S
O374 La352 2.554 . S
O374 C361 1.240 . S
O375 La352 2.757 . S
O375 La353 2.482 . S
O375 C361 1.289 . S
O376 La352 2.470 . S
O376 C362 1.258 . S
O377 La353 2.503 . S
O377 C362 1.256 . S
O378 La353 2.521 . S
O378 C363 1.261 . S
O379 La353 2.628 . S
O379 C363 1.243 . S
O380 La353 2.554 . S
O380 C370 1.240 . S
O381 La352 2.482 . S
O381 La353 2.757 . S
O381 C370 1.289 . S
O382 La353 2.470 . S
O382 C371 1.258 . S
O383 La352 2.503 . S
O383 C371 1.256 . S
H384 C356 0.930 . S
H385 C357 0.930 . S
H386 C359 0.929 . S
H387 C360 0.929 . S
H388 C365 0.930 . S
H389 C366 0.930 . S
H390 C368 0.929 . S
H391 C369 0.929 . S
La392 C394 2.928 . S
La392 O412 2.521 . S
La392 O413 2.628 . S
La392 O414 2.554 . S
La392 O415 2.757 . S
La392 O416 2.466 . S
La392 O421 2.482 . S
La392 O423 2.503 . S
La393 C403 2.928 . S
La393 O415 2.482 . S
La393 O417 2.503 1_545 S
La393 O418 2.521 . S
La393 O419 2.628 . S
La393 O420 2.554 . S
La393 O421 2.757 . S
La393 O422 2.470 . S
C394 La392 2.928 . S
C394 C395 1.503 1_545 S
C394 O412 1.261 . S
C394 O413 1.243 . S
C395 C394 1.503 1_565 S
C395 C396 1.394 . S
C395 C400 1.373 . S
C396 C395 1.394 . S
C396 C397 1.380 . S
C396 H424 0.930 1_565 S
C397 C396 1.380 . S
C397 C398 1.376 . S
C397 H425 0.930 . S
C398 C397 1.376 . S
C398 C399 1.370 . S
C399 C398 1.370 . S
C399 C400 1.396 . S
C399 H426 0.929 . S
C400 C395 1.373 . S
C400 C399 1.396 . S
C400 H427 0.929 . S
C401 O414 1.240 . S
C401 O415 1.289 . S
C402 O416 1.261 1_565 S
C402 O417 1.256 . S
C403 La393 2.928 . S
C403 C404 1.503 . S
C403 O418 1.261 . S
C403 O419 1.243 . S
C404 C403 1.503 . S
C404 C405 1.394 . S
C404 C409 1.373 . S
C405 C404 1.394 . S
C405 C406 1.380 . S
C405 H428 0.930 . S
C406 C405 1.380 . S
C406 C407 1.376 . S
C406 H429 0.930 . S
C407 C406 1.376 . S
C407 C408 1.370 . S
C408 C407 1.370 . S
C408 C409 1.396 . S
C408 H430 0.929 . S
C409 C404 1.373 . S
C409 C408 1.396 . S
C409 H431 0.929 . S
C410 O420 1.240 . S
C410 O421 1.289 . S
C411 O422 1.258 . S
C411 O423 1.256 . S
O412 La392 2.521 . S
O412 C394 1.261 . S
O413 La392 2.628 . S
O413 C394 1.243 . S
O414 La392 2.554 . S
O414 C401 1.240 . S
O415 La392 2.757 . S
O415 La393 2.482 . S
O415 C401 1.289 . S
O416 La392 2.466 . S
O416 C402 1.261 1_545 S
O417 La393 2.503 1_565 S
O417 C402 1.256 . S
O418 La393 2.521 . S
O418 C403 1.261 . S
O419 La393 2.628 . S
O419 C403 1.243 . S
O420 La393 2.554 . S
O420 C410 1.240 . S
O421 La392 2.482 . S
O421 La393 2.757 . S
O421 C410 1.289 . S
O422 La393 2.470 . S
O422 C411 1.258 . S
O423 La392 2.503 . S
O423 C411 1.256 . S
H424 C396 0.930 1_545 S
H425 C397 0.930 . S
H426 C399 0.929 . S
H427 C400 0.929 . S
H428 C405 0.930 . S
H429 C406 0.930 . S
H430 C408 0.929 . S
H431 C409 0.929 . S
La432 C434 2.928 . S
La432 O452 2.521 . S
La432 O453 2.628 . S
La432 O454 2.554 . S
La432 O455 2.757 . S
La432 O456 2.470 . S
La432 O461 2.482 . S
La432 O463 2.503 . S
La433 C443 2.928 . S
La433 O455 2.482 . S
La433 O457 2.503 . S
La433 O458 2.521 . S
La433 O459 2.628 . S
La433 O460 2.554 . S
La433 O461 2.757 . S
La433 O462 2.470 . S
C434 La432 2.928 . S
C434 C435 1.503 . S
C434 O452 1.261 . S
C434 O453 1.243 . S
C435 C434 1.503 . S
C435 C436 1.394 . S
C435 C440 1.373 . S
C436 C435 1.394 . S
C436 C437 1.380 . S
C436 H464 0.930 . S
C437 C436 1.380 . S
C437 C438 1.376 . S
C437 H465 0.930 . S
C438 C437 1.376 . S
C438 C439 1.370 . S
C439 C438 1.370 . S
C439 C440 1.396 . S
C439 H466 0.929 . S
C440 C435 1.373 . S
C440 C439 1.396 . S
C440 H467 0.929 . S
C441 O454 1.240 . S
C441 O455 1.289 . S
C442 O456 1.258 . S
C442 O457 1.256 . S
C443 La433 2.928 . S
C443 C444 1.503 . S
C443 O458 1.261 . S
C443 O459 1.243 . S
C444 C443 1.503 . S
C444 C445 1.394 . S
C444 C449 1.373 . S
C445 C444 1.394 . S
C445 C446 1.380 . S
C445 H468 0.930 . S
C446 C445 1.380 . S
C446 C447 1.376 . S
C446 H469 0.930 . S
C447 C446 1.376 . S
C447 C448 1.370 . S
C448 C447 1.370 . S
C448 C449 1.396 . S
C448 H470 0.929 . S
C449 C444 1.373 . S
C449 C448 1.396 . S
C449 H471 0.929 . S
C450 O460 1.240 . S
C450 O461 1.289 . S
C451 O462 1.258 . S
C451 O463 1.256 . S
O452 La432 2.521 . S
O452 C434 1.261 . S
O453 La432 2.628 . S
O453 C434 1.243 . S
O454 La432 2.554 . S
O454 C441 1.240 . S
O455 La432 2.757 . S
O455 La433 2.482 . S
O455 C441 1.289 . S
O456 La432 2.470 . S
O456 C442 1.258 . S
O457 La433 2.503 . S
O457 C442 1.256 . S
O458 La433 2.521 . S
O458 C443 1.261 . S
O459 La433 2.628 . S
O459 C443 1.243 . S
O460 La433 2.554 . S
O460 C450 1.240 . S
O461 La432 2.482 . S
O461 La433 2.757 . S
O461 C450 1.289 . S
O462 La433 2.470 . S
O462 C451 1.258 . S
O463 La432 2.503 . S
O463 C451 1.256 . S
H464 C436 0.930 . S
H465 C437 0.930 . S
H466 C439 0.929 . S
H467 C440 0.929 . S
H468 C445 0.930 . S
H469 C446 0.930 . S
H470 C448 0.929 . S
H471 C449 0.929 . S
La472 C474 2.928 . S
La472 O492 2.521 . S
La472 O493 2.628 . S
La472 O494 2.554 . S
La472 O495 2.757 . S
La472 O496 2.470 . S
La472 O501 2.482 . S
La472 O503 2.503 . S
La473 C483 2.928 1_545 S
La473 O495 2.482 . S
La473 O497 2.503 . S
La473 O498 2.521 1_545 S
La473 O499 2.628 1_545 S
La473 O500 2.554 . S
La473 O501 2.757 . S
La473 O502 2.470 . S
C474 La472 2.928 . S
C474 C475 1.503 . S
C474 O492 1.261 . S
C474 O493 1.243 . S
C475 C474 1.503 . S
C475 C476 1.394 . S
C475 C480 1.373 . S
C476 C475 1.394 . S
C476 C477 1.380 . S
C476 H504 0.930 . S
C477 C476 1.380 . S
C477 C478 1.376 . S
C477 H505 0.930 . S
C478 C477 1.376 . S
C478 C479 1.370 . S
C479 C478 1.370 . S
C479 C480 1.396 . S
C479 H506 0.929 . S
C480 C475 1.373 . S
C480 C479 1.396 . S
C480 H507 0.929 . S
C481 O494 1.240 . S
C481 O495 1.289 . S
C482 O496 1.258 . S
C482 O497 1.256 . S
C483 La473 2.928 1_565 S
C483 C484 1.503 . S
C483 O498 1.261 . S
C483 O499 1.243 . S
C484 C483 1.503 . S
C484 C485 1.394 . S
C484 C489 1.373 . S
C485 C484 1.394 . S
C485 C486 1.380 . S
C485 H508 0.930 . S
C486 C485 1.380 . S
C486 C487 1.376 . S
C486 H509 0.930 . S
C487 C486 1.376 . S
C487 C488 1.370 . S
C488 C487 1.370 . S
C488 C489 1.396 . S
C488 H510 0.929 . S
C489 C484 1.373 . S
C489 C488 1.396 . S
C489 H511 0.929 . S
C490 O500 1.240 . S
C490 O501 1.289 . S
C491 O502 1.258 . S
C491 O503 1.256 . S
O492 La472 2.521 . S
O492 C474 1.261 . S
O493 La472 2.628 . S
O493 C474 1.243 . S
O494 La472 2.554 . S
O494 C481 1.240 . S
O495 La472 2.757 . S
O495 La473 2.482 . S
O495 C481 1.289 . S
O496 La472 2.470 . S
O496 C482 1.258 . S
O497 La473 2.503 . S
O497 C482 1.256 . S
O498 La473 2.521 1_565 S
O498 C483 1.261 . S
O499 La473 2.628 1_565 S
O499 C483 1.243 . S
O500 La473 2.554 . S
O500 C490 1.240 . S
O501 La472 2.482 . S
O501 La473 2.757 . S
O501 C490 1.289 . S
O502 La473 2.470 . S
O502 C491 1.258 . S
O503 La472 2.503 . S
O503 C491 1.256 . S
H504 C476 0.930 . S
H505 C477 0.930 . S
H506 C479 0.929 . S
H507 C480 0.929 . S
H508 C485 0.930 . S
H509 C486 0.930 . S
H510 C488 0.929 . S
H511 C489 0.929 . S
La512 C514 2.928 . S
La512 O532 2.521 . S
La512 O533 2.628 . S
La512 O534 2.554 . S
La512 O535 2.757 . S
La512 O536 2.470 . S
La512 O541 2.482 . S
La512 O543 2.503 . S
La513 C523 2.928 . S
La513 O535 2.482 . S
La513 O537 2.503 . S
La513 O538 2.521 . S
La513 O539 2.628 . S
La513 O540 2.554 . S
La513 O541 2.757 . S
La513 O542 2.470 . S
C514 La512 2.928 . S
C514 C515 1.503 . S
C514 O532 1.261 . S
C514 O533 1.243 . S
C515 C514 1.503 . S
C515 C516 1.394 . S
C515 C520 1.373 . S
C516 C515 1.394 . S
C516 C517 1.380 . S
C516 H544 0.930 . S
C517 C516 1.380 . S
C517 C518 1.376 . S
C517 H545 0.930 . S
C518 C517 1.376 . S
C518 C519 1.370 . S
C519 C518 1.370 . S
C519 C520 1.396 . S
C519 H546 0.929 . S
C520 C515 1.373 . S
C520 C519 1.396 . S
C520 H547 0.929 . S
C521 O534 1.240 . S
C521 O535 1.289 . S
C522 O536 1.258 . S
C522 O537 1.256 . S
C523 La513 2.928 . S
C523 C524 1.503 . S
C523 O538 1.261 . S
C523 O539 1.243 . S
C524 C523 1.503 . S
C524 C525 1.394 . S
C524 C529 1.373 . S
C525 C524 1.394 . S
C525 C526 1.380 . S
C525 H548 0.930 . S
C526 C525 1.380 . S
C526 C527 1.376 . S
C526 H549 0.930 . S
C527 C526 1.376 . S
C527 C528 1.370 . S
C528 C527 1.370 . S
C528 C529 1.396 . S
C528 H550 0.929 . S
C529 C524 1.373 . S
C529 C528 1.396 . S
C529 H551 0.929 . S
C530 O540 1.240 . S
C530 O541 1.289 . S
C531 O542 1.258 . S
C531 O543 1.256 . S
O532 La512 2.521 . S
O532 C514 1.261 . S
O533 La512 2.628 . S
O533 C514 1.243 . S
O534 La512 2.554 . S
O534 C521 1.240 . S
O535 La512 2.757 . S
O535 La513 2.482 . S
O535 C521 1.289 . S
O536 La512 2.470 . S
O536 C522 1.258 . S
O537 La513 2.503 . S
O537 C522 1.256 . S
O538 La513 2.521 . S
O538 C523 1.261 . S
O539 La513 2.628 . S
O539 C523 1.243 . S
O540 La513 2.554 . S
O540 C530 1.240 . S
O541 La512 2.482 . S
O541 La513 2.757 . S
O541 C530 1.289 . S
O542 La513 2.470 . S
O542 C531 1.258 . S
O543 La512 2.503 . S
O543 C531 1.256 . S
H544 C516 0.930 . S
H545 C517 0.930 . S
H546 C519 0.929 . S
H547 C520 0.929 . S
H548 C525 0.930 . S
H549 C526 0.930 . S
H550 C528 0.929 . S
H551 C529 0.929 . S
La552 C554 2.928 . S
La552 O572 2.521 1_545 S
La552 O573 2.628 . S
La552 O574 2.554 1_545 S
La552 O575 2.756 1_554 S
La552 O576 2.470 . S
La552 O581 2.482 . S
La552 O583 2.503 . S
La553 C563 2.928 . S
La553 O575 2.482 . S
La553 O577 2.503 . S
La553 O578 2.521 . S
La553 O579 2.628 . S
La553 O580 2.554 1_556 S
La553 O581 2.757 1_556 S
La553 O582 2.470 1_556 S
C554 La552 2.928 . S
C554 C555 1.499 1_545 S
C554 O572 1.261 1_545 S
C554 O573 1.243 . S
C555 C554 1.499 1_565 S
C555 C556 1.405 . S
C555 C560 1.366 1_565 S
C556 C555 1.405 . S
C556 C557 1.380 . S
C556 H584 0.930 . S
C557 C556 1.380 . S
C557 C558 1.376 . S
C557 H585 0.930 . S
C558 C557 1.376 . S
C558 C559 1.370 1_565 S
C559 C558 1.370 1_545 S
C559 C560 1.396 . S
C559 H586 0.929 . S
C560 C555 1.366 1_545 S
C560 C559 1.396 . S
C560 H587 0.929 . S
C561 O574 1.240 . S
C561 O575 1.289 1_564 S
C562 O576 1.258 . S
C562 O577 1.256 1_554 S
C563 La553 2.928 . S
C563 C564 1.503 . S
C563 O578 1.261 . S
C563 O579 1.243 . S
C564 C563 1.503 . S
C564 C565 1.394 . S
C564 C569 1.373 . S
C565 C564 1.394 . S
C565 C566 1.380 . S
C565 H588 0.930 . S
C566 C565 1.380 . S
C566 C567 1.376 . S
C566 H589 0.930 . S
C567 C566 1.376 . S
C567 C568 1.370 . S
C568 C567 1.370 . S
C568 C569 1.396 . S
C568 H590 0.929 . S
C569 C564 1.373 . S
C569 C568 1.396 . S
C569 H591 0.929 . S
C570 O580 1.240 . S
C570 O581 1.289 . S
C571 O582 1.258 . S
C571 O583 1.256 . S
O572 La552 2.521 1_565 S
O572 C554 1.261 1_565 S
O573 La552 2.628 . S
O573 C554 1.243 . S
O574 La552 2.554 1_565 S
O574 C561 1.240 . S
O575 La552 2.756 1_556 S
O575 La553 2.482 . S
O575 C561 1.289 1_546 S
O576 La552 2.470 . S
O576 C562 1.258 . S
O577 La553 2.503 . S
O577 C562 1.256 1_556 S
O578 La553 2.521 . S
O578 C563 1.261 . S
O579 La553 2.628 . S
O579 C563 1.243 . S
O580 La553 2.554 1_554 S
O580 C570 1.240 . S
O581 La552 2.482 . S
O581 La553 2.757 1_554 S
O581 C570 1.289 . S
O582 La553 2.470 1_554 S
O582 C571 1.258 . S
O583 La552 2.503 . S
O583 C571 1.256 . S
H584 C556 0.930 . S
H585 C557 0.930 . S
H586 C559 0.929 . S
H587 C560 0.929 . S
H588 C565 0.930 . S
H589 C566 0.930 . S
H590 C568 0.929 . S
H591 C569 0.929 . S
La592 C594 2.928 . S
La592 O612 2.521 . S
La592 O613 2.628 . S
La592 O614 2.554 . S
La592 O615 2.757 . S
La592 O616 2.470 . S
La592 O621 2.482 . S
La592 O623 2.503 . S
La593 C603 2.928 . S
La593 O615 2.482 . S
La593 O617 2.503 . S
La593 O618 2.521 . S
La593 O619 2.628 . S
La593 O620 2.554 . S
La593 O621 2.757 . S
La593 O622 2.470 . S
C594 La592 2.928 . S
C594 C595 1.503 . S
C594 O612 1.261 . S
C594 O613 1.243 . S
C595 C594 1.503 . S
C595 C596 1.394 . S
C595 C600 1.373 . S
C596 C595 1.394 . S
C596 C597 1.380 . S
C596 H624 0.930 . S
C597 C596 1.380 . S
C597 C598 1.376 . S
C597 H625 0.930 . S
C598 C597 1.376 . S
C598 C599 1.370 . S
C599 C598 1.370 . S
C599 C600 1.396 . S
C599 H626 0.929 . S
C600 C595 1.373 . S
C600 C599 1.396 . S
C600 H627 0.929 . S
C601 O614 1.240 . S
C601 O615 1.289 . S
C602 O616 1.258 . S
C602 O617 1.256 . S
C603 La593 2.928 . S
C603 C604 1.503 . S
C603 O618 1.261 . S
C603 O619 1.243 . S
C604 C603 1.503 . S
C604 C605 1.394 . S
C604 C609 1.373 . S
C605 C604 1.394 . S
C605 C606 1.380 . S
C605 H628 0.930 . S
C606 C605 1.380 . S
C606 C607 1.376 . S
C606 H629 0.930 . S
C607 C606 1.376 . S
C607 C608 1.370 . S
C608 C607 1.370 . S
C608 C609 1.396 . S
C608 H630 0.929 . S
C609 C604 1.373 . S
C609 C608 1.396 . S
C609 H631 0.929 . S
C610 O620 1.240 . S
C610 O621 1.289 . S
C611 O622 1.258 . S
C611 O623 1.256 . S
O612 La592 2.521 . S
O612 C594 1.261 . S
O613 La592 2.628 . S
O613 C594 1.243 . S
O614 La592 2.554 . S
O614 C601 1.240 . S
O615 La592 2.757 . S
O615 La593 2.482 . S
O615 C601 1.289 . S
O616 La592 2.470 . S
O616 C602 1.258 . S
O617 La593 2.503 . S
O617 C602 1.256 . S
O618 La593 2.521 . S
O618 C603 1.261 . S
O619 La593 2.628 . S
O619 C603 1.243 . S
O620 La593 2.554 . S
O620 C610 1.240 . S
O621 La592 2.482 . S
O621 La593 2.757 . S
O621 C610 1.289 . S
O622 La593 2.470 . S
O622 C611 1.258 . S
O623 La592 2.503 . S
O623 C611 1.256 . S
H624 C596 0.930 . S
H625 C597 0.930 . S
H626 C599 0.929 . S
H627 C600 0.929 . S
H628 C605 0.930 . S
H629 C606 0.930 . S
H630 C608 0.929 . S
H631 C609 0.929 . S
La632 C634 2.928 . S
La632 O652 2.521 . S
La632 O653 2.653 . S
La632 O654 2.554 . S
La632 O655 2.757 . S
La632 O656 2.470 1_554 S
La632 O661 2.482 . S
La632 O663 2.503 . S
La633 C643 2.928 . S
La633 O655 2.482 . S
La633 O657 2.503 1_554 S
La633 O658 2.521 . S
La633 O659 2.628 . S
La633 O660 2.554 . S
La633 O661 2.757 . S
La633 O662 2.470 . S
C634 La632 2.928 . S
C634 C635 1.503 1_554 S
C634 O652 1.261 . S
C634 O653 1.249 . S
C635 C634 1.503 1_556 S
C635 C636 1.394 . S
C635 C640 1.373 . S
C636 C635 1.394 . S
C636 C637 1.380 . S
C636 H664 0.930 1_556 S
C637 C636 1.380 . S
C637 C638 1.376 . S
C637 H665 0.930 . S
C638 C637 1.376 . S
C638 C639 1.370 . S
C639 C638 1.370 . S
C639 C640 1.396 . S
C639 H666 0.929 . S
C640 C635 1.373 . S
C640 C639 1.396 . S
C640 H667 0.929 . S
C641 O654 1.240 . S
C641 O655 1.289 . S
C642 O656 1.258 . S
C642 O657 1.256 . S
C643 La633 2.928 . S
C643 C644 1.503 . S
C643 O658 1.261 . S
C643 O659 1.243 . S
C644 C643 1.503 . S
C644 C645 1.394 . S
C644 C649 1.373 . S
C645 C644 1.394 . S
C645 C646 1.380 . S
C645 H668 0.930 . S
C646 C645 1.380 . S
C646 C647 1.376 . S
C646 H669 0.930 . S
C647 C646 1.376 . S
C647 C648 1.370 . S
C648 C647 1.370 . S
C648 C649 1.396 . S
C648 H670 0.929 . S
C649 C644 1.373 . S
C649 C648 1.396 . S
C649 H671 0.929 . S
C650 O660 1.240 . S
C650 O661 1.289 . S
C651 O662 1.258 . S
C651 O663 1.256 . S
O652 La632 2.521 . S
O652 C634 1.261 . S
O653 La632 2.653 . S
O653 C634 1.249 . S
O654 La632 2.554 . S
O654 C641 1.240 . S
O655 La632 2.757 . S
O655 La633 2.482 . S
O655 C641 1.289 . S
O656 La632 2.470 1_556 S
O656 C642 1.258 . S
O657 La633 2.503 1_556 S
O657 C642 1.256 . S
O658 La633 2.521 . S
O658 C643 1.261 . S
O659 La633 2.628 . S
O659 C643 1.243 . S
O660 La633 2.554 . S
O660 C650 1.240 . S
O661 La632 2.482 . S
O661 La633 2.757 . S
O661 C650 1.289 . S
O662 La633 2.470 . S
O662 C651 1.258 . S
O663 La632 2.503 . S
O663 C651 1.256 . S
H664 C636 0.930 1_554 S
H665 C637 0.930 . S
H666 C639 0.929 . S
H667 C640 0.929 . S
H668 C645 0.930 . S
H669 C646 0.930 . S
H670 C648 0.929 . S
H671 C649 0.929 . S
La672 C674 2.928 . S
La672 O692 2.521 . S
La672 O693 2.628 . S
La672 O694 2.554 . S
La672 O695 2.757 . S
La672 O696 2.470 . S
La672 O701 2.482 . S
La672 O703 2.503 . S
La673 C683 2.928 . S
La673 O695 2.482 . S
La673 O697 2.503 . S
La673 O698 2.521 . S
La673 O699 2.628 . S
La673 O700 2.554 . S
La673 O701 2.757 . S
La673 O702 2.470 . S
C674 La672 2.928 . S
C674 C675 1.503 . S
C674 O692 1.261 . S
C674 O693 1.243 . S
C675 C674 1.503 . S
C675 C676 1.394 . S
C675 C680 1.373 . S
C676 C675 1.394 . S
C676 C677 1.380 . S
C676 H704 0.930 . S
C677 C676 1.380 . S
C677 C678 1.376 . S
C677 H705 0.930 . S
C678 C677 1.376 . S
C678 C679 1.370 . S
C679 C678 1.370 . S
C679 C680 1.396 . S
C679 H706 0.929 . S
C680 C675 1.373 . S
C680 C679 1.396 . S
C680 H707 0.929 . S
C681 O694 1.240 . S
C681 O695 1.289 . S
C682 O696 1.258 . S
C682 O697 1.256 . S
C683 La673 2.928 . S
C683 C684 1.503 . S
C683 O698 1.261 . S
C683 O699 1.243 . S
C684 C683 1.503 . S
C684 C685 1.394 . S
C684 C689 1.373 . S
C685 C684 1.394 . S
C685 C686 1.380 . S
C685 H708 0.930 . S
C686 C685 1.380 . S
C686 C687 1.376 . S
C686 H709 0.930 . S
C687 C686 1.376 . S
C687 C688 1.370 . S
C688 C687 1.370 . S
C688 C689 1.396 . S
C688 H710 0.929 . S
C689 C684 1.373 . S
C689 C688 1.396 . S
C689 H711 0.929 . S
C690 O700 1.240 . S
C690 O701 1.289 . S
C691 O702 1.258 . S
C691 O703 1.256 . S
O692 La672 2.521 . S
O692 C674 1.261 . S
O693 La672 2.628 . S
O693 C674 1.243 . S
O694 La672 2.554 . S
O694 C681 1.240 . S
O695 La672 2.757 . S
O695 La673 2.482 . S
O695 C681 1.289 . S
O696 La672 2.470 . S
O696 C682 1.258 . S
O697 La673 2.503 . S
O697 C682 1.256 . S
O698 La673 2.521 . S
O698 C683 1.261 . S
O699 La673 2.628 . S
O699 C683 1.243 . S
O700 La673 2.554 . S
O700 C690 1.240 . S
O701 La672 2.482 . S
O701 La673 2.757 . S
O701 C690 1.289 . S
O702 La673 2.470 . S
O702 C691 1.258 . S
O703 La672 2.503 . S
O703 C691 1.256 . S
H704 C676 0.930 . S
H705 C677 0.930 . S
H706 C679 0.929 . S
H707 C680 0.929 . S
H708 C685 0.930 . S
H709 C686 0.930 . S
H710 C688 0.929 . S
H711 C689 0.929 . S
La712 C714 2.928 . S
La712 O732 2.521 . S
La712 O733 2.628 . S
La712 O734 2.554 . S
La712 O735 2.757 . S
La712 O736 2.470 . S
La712 O741 2.482 . S
La712 O743 2.503 . S
La713 C723 2.928 . S
La713 O735 2.482 . S
La713 O737 2.503 . S
La713 O738 2.521 . S
La713 O739 2.628 . S
La713 O740 2.554 . S
La713 O741 2.757 . S
La713 O742 2.470 . S
C714 La712 2.928 . S
C714 C715 1.503 . S
C714 O732 1.261 . S
C714 O733 1.243 . S
C715 C714 1.503 . S
C715 C716 1.394 . S
C715 C720 1.373 . S
C716 C715 1.394 . S
C716 C717 1.380 . S
C716 H744 0.930 . S
C717 C716 1.380 . S
C717 C718 1.376 1_455 S
C717 H745 0.930 . S
C718 C717 1.376 1_655 S
C718 C719 1.370 . S
C719 C718 1.370 . S
C719 C720 1.396 1_655 S
C719 H746 0.929 . S
C720 C715 1.373 . S
C720 C719 1.396 1_455 S
C720 H747 0.947 . S
C721 O734 1.240 . S
C721 O735 1.289 . S
C722 O736 1.258 . S
C722 O737 1.256 . S
C723 La713 2.928 . S
C723 C724 1.503 . S
C723 O738 1.261 . S
C723 O739 1.243 . S
C724 C723 1.503 . S
C724 C725 1.394 . S
C724 C729 1.373 . S
C725 C724 1.394 . S
C725 C726 1.380 . S
C725 H748 0.930 . S
C726 C725 1.380 . S
C726 C727 1.376 . S
C726 H749 0.930 . S
C727 C726 1.376 . S
C727 C728 1.370 . S
C728 C727 1.370 . S
C728 C729 1.396 . S
C728 H750 0.929 . S
C729 C724 1.373 . S
C729 C728 1.396 . S
C729 H751 0.929 . S
C730 O740 1.240 . S
C730 O741 1.289 . S
C731 O742 1.258 . S
C731 O743 1.256 . S
O732 La712 2.521 . S
O732 C714 1.261 . S
O733 La712 2.628 . S
O733 C714 1.243 . S
O734 La712 2.554 . S
O734 C721 1.240 . S
O735 La712 2.757 . S
O735 La713 2.482 . S
O735 C721 1.289 . S
O736 La712 2.470 . S
O736 C722 1.258 . S
O737 La713 2.503 . S
O737 C722 1.256 . S
O738 La713 2.521 . S
O738 C723 1.261 . S
O739 La713 2.628 . S
O739 C723 1.243 . S
O740 La713 2.554 . S
O740 C730 1.240 . S
O741 La712 2.482 . S
O741 La713 2.757 . S
O741 C730 1.289 . S
O742 La713 2.470 . S
O742 C731 1.258 . S
O743 La712 2.503 . S
O743 C731 1.256 . S
H744 C716 0.930 . S
H745 C717 0.930 . S
H746 C719 0.929 . S
H747 C720 0.947 . S
H748 C725 0.930 . S
H749 C726 0.930 . S
H750 C728 0.929 . S
H751 C729 0.929 . S
La752 C754 2.928 . S
La752 O772 2.521 . S
La752 O773 2.628 . S
La752 O774 2.554 . S
La752 O775 2.757 . S
La752 O776 2.470 . S
La752 O781 2.482 . S
La752 O783 2.503 . S
La753 C763 2.928 . S
La753 O775 2.482 . S
La753 O777 2.503 . S
La753 O778 2.521 . S
La753 O779 2.628 . S
La753 O780 2.554 . S
La753 O781 2.757 . S
La753 O782 2.470 . S
C754 La752 2.928 . S
C754 C755 1.503 . S
C754 O772 1.261 . S
C754 O773 1.243 . S
C755 C754 1.503 . S
C755 C756 1.394 . S
C755 C760 1.373 . S
C756 C755 1.394 . S
C756 C757 1.380 . S
C756 H784 0.930 . S
C757 C756 1.380 . S
C757 C758 1.376 . S
C757 H785 0.930 . S
C758 C757 1.376 . S
C758 C759 1.370 . S
C759 C758 1.370 . S
C759 C760 1.396 . S
C759 H786 0.929 . S
C760 C755 1.373 . S
C760 C759 1.396 . S
C760 H787 0.929 . S
C761 O774 1.240 . S
C761 O775 1.289 . S
C762 O776 1.258 . S
C762 O777 1.256 . S
C763 La753 2.928 . S
C763 C764 1.503 . S
C763 O778 1.261 . S
C763 O779 1.243 . S
C764 C763 1.503 . S
C764 C765 1.394 . S
C764 C769 1.373 . S
C765 C764 1.394 . S
C765 C766 1.380 . S
C765 H788 0.930 . S
C766 C765 1.380 . S
C766 C767 1.376 . S
C766 H789 0.930 . S
C767 C766 1.376 . S
C767 C768 1.370 . S
C768 C767 1.370 . S
C768 C769 1.396 . S
C768 H790 0.929 . S
C769 C764 1.373 . S
C769 C768 1.396 . S
C769 H791 0.929 . S
C770 O780 1.240 . S
C770 O781 1.289 . S
C771 O782 1.258 . S
C771 O783 1.256 . S
O772 La752 2.521 . S
O772 C754 1.261 . S
O773 La752 2.628 . S
O773 C754 1.243 . S
O774 La752 2.554 . S
O774 C761 1.240 . S
O775 La752 2.757 . S
O775 La753 2.482 . S
O775 C761 1.289 . S
O776 La752 2.470 . S
O776 C762 1.258 . S
O777 La753 2.503 . S
O777 C762 1.256 . S
O778 La753 2.521 . S
O778 C763 1.261 . S
O779 La753 2.628 . S
O779 C763 1.243 . S
O780 La753 2.554 . S
O780 C770 1.240 . S
O781 La752 2.482 . S
O781 La753 2.757 . S
O781 C770 1.289 . S
O782 La753 2.470 . S
O782 C771 1.258 . S
O783 La752 2.503 . S
O783 C771 1.256 . S
H784 C756 0.930 . S
H785 C757 0.930 . S
H786 C759 0.929 . S
H787 C760 0.929 . S
H788 C765 0.930 . S
H789 C766 0.930 . S
H790 C768 0.929 . S
H791 C769 0.929 . S
La792 C794 2.928 . S
La792 O812 2.521 . S
La792 O813 2.628 . S
La792 O814 2.554 . S
La792 O815 2.757 . S
La792 O816 2.470 . S
La792 O821 2.482 . S
La792 O823 2.503 . S
La793 C803 2.928 . S
La793 O815 2.482 . S
La793 O817 2.503 . S
La793 O818 2.521 . S
La793 O819 2.628 . S
La793 O820 2.554 . S
La793 O821 2.757 . S
La793 O822 2.470 . S
C794 La792 2.928 . S
C794 C795 1.503 . S
C794 O812 1.261 . S
C794 O813 1.243 . S
C795 C794 1.503 . S
C795 C796 1.394 . S
C795 C800 1.373 . S
C796 C795 1.394 . S
C796 C797 1.380 . S
C796 H824 0.930 . S
C797 C796 1.380 . S
C797 C798 1.376 . S
C797 H825 0.930 . S
C798 C797 1.376 . S
C798 C799 1.370 . S
C799 C798 1.370 . S
C799 C800 1.396 . S
C799 H826 0.929 . S
C800 C795 1.373 . S
C800 C799 1.396 . S
C800 H827 0.929 . S
C801 O814 1.240 . S
C801 O815 1.289 . S
C802 O816 1.258 . S
C802 O817 1.256 . S
C803 La793 2.928 . S
C803 C804 1.503 . S
C803 O818 1.261 . S
C803 O819 1.243 . S
C804 C803 1.503 . S
C804 C805 1.394 . S
C804 C809 1.373 . S
C805 C804 1.394 . S
C805 C806 1.380 . S
C805 H828 0.930 . S
C806 C805 1.380 . S
C806 C807 1.376 . S
C806 H829 0.930 . S
C807 C806 1.376 . S
C807 C808 1.370 . S
C808 C807 1.370 . S
C808 C809 1.396 . S
C808 H830 0.929 . S
C809 C804 1.373 . S
C809 C808 1.396 . S
C809 H831 0.929 . S
C810 O820 1.240 . S
C810 O821 1.289 . S
C811 O822 1.258 . S
C811 O823 1.256 . S
O812 La792 2.521 . S
O812 C794 1.261 . S
O813 La792 2.628 . S
O813 C794 1.243 . S
O814 La792 2.554 . S
O814 C801 1.240 . S
O815 La792 2.757 . S
O815 La793 2.482 . S
O815 C801 1.289 . S
O816 La792 2.470 . S
O816 C802 1.258 . S
O817 La793 2.503 . S
O817 C802 1.256 . S
O818 La793 2.521 . S
O818 C803 1.261 . S
O819 La793 2.628 . S
O819 C803 1.243 . S
O820 La793 2.554 . S
O820 C810 1.240 . S
O821 La792 2.482 . S
O821 La793 2.757 . S
O821 C810 1.289 . S
O822 La793 2.470 . S
O822 C811 1.258 . S
O823 La792 2.503 . S
O823 C811 1.256 . S
H824 C796 0.930 . S
H825 C797 0.930 . S
H826 C799 0.929 . S
H827 C800 0.929 . S
H828 C805 0.930 . S
H829 C806 0.930 . S
H830 C808 0.929 . S
H831 C809 0.929 . S
La832 C834 2.928 . S
La832 O852 2.521 . S
La832 O853 2.628 . S
La832 O854 2.554 . S
La832 O855 2.757 . S
La832 O856 2.470 . S
La832 O861 2.482 . S
La832 O863 2.503 . S
La833 C843 2.928 . S
La833 O855 2.482 . S
La833 O857 2.503 . S
La833 O858 2.521 . S
La833 O859 2.628 . S
La833 O860 2.554 . S
La833 O861 2.757 . S
La833 O862 2.470 . S
C834 La832 2.928 . S
C834 C835 1.503 . S
C834 O852 1.261 . S
C834 O853 1.243 . S
C835 C834 1.503 . S
C835 C836 1.394 . S
C835 C840 1.373 . S
C836 C835 1.394 . S
C836 C837 1.380 . S
C836 H864 0.930 . S
C837 C836 1.380 . S
C837 C838 1.376 . S
C837 H865 0.930 . S
C838 C837 1.376 . S
C838 C839 1.370 . S
C839 C838 1.370 . S
C839 C840 1.396 . S
C839 H866 0.929 . S
C840 C835 1.373 . S
C840 C839 1.396 . S
C840 H867 0.929 . S
C841 O854 1.240 . S
C841 O855 1.289 . S
C842 O856 1.258 . S
C842 O857 1.256 . S
C843 La833 2.928 . S
C843 C844 1.503 . S
C843 O858 1.261 . S
C843 O859 1.243 . S
C844 C843 1.503 . S
C844 C845 1.394 . S
C844 C849 1.373 . S
C845 C844 1.394 . S
C845 C846 1.380 . S
C845 H868 0.930 . S
C846 C845 1.380 . S
C846 C847 1.376 . S
C846 H869 0.930 . S
C847 C846 1.376 . S
C847 C848 1.370 . S
C848 C847 1.370 . S
C848 C849 1.396 . S
C848 H870 0.929 . S
C849 C844 1.373 . S
C849 C848 1.396 . S
C849 H871 0.929 . S
C850 O860 1.240 . S
C850 O861 1.289 . S
C851 O862 1.258 . S
C851 O863 1.256 . S
O852 La832 2.521 . S
O852 C834 1.261 . S
O853 La832 2.628 . S
O853 C834 1.243 . S
O854 La832 2.554 . S
O854 C841 1.240 . S
O855 La832 2.757 . S
O855 La833 2.482 . S
O855 C841 1.289 . S
O856 La832 2.470 . S
O856 C842 1.258 . S
O857 La833 2.503 . S
O857 C842 1.256 . S
O858 La833 2.521 . S
O858 C843 1.261 . S
O859 La833 2.628 . S
O859 C843 1.243 . S
O860 La833 2.554 . S
O860 C850 1.240 . S
O861 La832 2.482 . S
O861 La833 2.757 . S
O861 C850 1.289 . S
O862 La833 2.470 . S
O862 C851 1.258 . S
O863 La832 2.503 . S
O863 C851 1.256 . S
H864 C836 0.930 . S
H865 C837 0.930 . S
H866 C839 0.929 . S
H867 C840 0.929 . S
H868 C845 0.930 . S
H869 C846 0.930 . S
H870 C848 0.929 . S
H871 C849 0.929 . S
La872 C874 2.928 . S
La872 O892 2.521 . S
La872 O893 2.628 . S
La872 O894 2.554 . S
La872 O895 2.757 . S
La872 O896 2.470 . S
La872 O901 2.482 . S
La872 O903 2.503 . S
La873 C883 2.928 . S
La873 O895 2.482 . S
La873 O897 2.503 . S
La873 O898 2.521 . S
La873 O899 2.628 . S
La873 O900 2.554 . S
La873 O901 2.757 . S
La873 O902 2.470 . S
C874 La872 2.928 . S
C874 C875 1.503 . S
C874 O892 1.261 . S
C874 O893 1.243 . S
C875 C874 1.503 . S
C875 C876 1.394 . S
C875 C880 1.373 . S
C876 C875 1.394 . S
C876 C877 1.380 . S
C876 H904 0.930 . S
C877 C876 1.380 . S
C877 C878 1.376 . S
C877 H905 0.930 . S
C878 C877 1.376 . S
C878 C879 1.370 . S
C879 C878 1.370 . S
C879 C880 1.396 . S
C879 H906 0.929 . S
C880 C875 1.373 . S
C880 C879 1.396 . S
C880 H907 0.929 . S
C881 O894 1.240 . S
C881 O895 1.289 . S
C882 O896 1.258 . S
C882 O897 1.256 . S
C883 La873 2.928 . S
C883 C884 1.503 . S
C883 O898 1.261 . S
C883 O899 1.243 . S
C884 C883 1.503 . S
C884 C885 1.394 . S
C884 C889 1.373 . S
C885 C884 1.394 . S
C885 C886 1.380 . S
C885 H908 0.930 . S
C886 C885 1.380 . S
C886 C887 1.376 . S
C886 H909 0.930 . S
C887 C886 1.376 . S
C887 C888 1.370 . S
C888 C887 1.370 . S
C888 C889 1.396 . S
C888 H910 0.929 . S
C889 C884 1.373 . S
C889 C888 1.396 . S
C889 H911 0.929 . S
C890 O900 1.240 . S
C890 O901 1.289 . S
C891 O902 1.258 . S
C891 O903 1.256 . S
O892 La872 2.521 . S
O892 C874 1.261 . S
O893 La872 2.628 . S
O893 C874 1.243 . S
O894 La872 2.554 . S
O894 C881 1.240 . S
O895 La872 2.757 . S
O895 La873 2.482 . S
O895 C881 1.289 . S
O896 La872 2.470 . S
O896 C882 1.258 . S
O897 La873 2.503 . S
O897 C882 1.256 . S
O898 La873 2.521 . S
O898 C883 1.261 . S
O899 La873 2.628 . S
O899 C883 1.243 . S
O900 La873 2.554 . S
O900 C890 1.240 . S
O901 La872 2.482 . S
O901 La873 2.757 . S
O901 C890 1.289 . S
O902 La873 2.470 . S
O902 C891 1.258 . S
O903 La872 2.503 . S
O903 C891 1.256 . S
H904 C876 0.930 . S
H905 C877 0.930 . S
H906 C879 0.929 . S
H907 C880 0.929 . S
H908 C885 0.930 . S
H909 C886 0.930 . S
H910 C888 0.929 . S
H911 C889 0.929 . S
La912 C914 2.928 . S
La912 O932 2.521 . S
La912 O933 2.628 1_556 S
La912 O934 2.554 . S
La912 O935 2.757 . S
La912 O936 2.470 . S
La912 O941 2.482 1_556 S
La912 O943 2.503 1_556 S
La913 C923 2.928 1_455 S
La913 O935 2.482 1_554 S
La913 O937 2.503 . S
La913 O938 2.521 1_455 S
La913 O939 2.628 1_455 S
La913 O940 2.554 . S
La913 O941 2.757 . S
La913 O942 2.470 . S
C914 La912 2.928 . S
C914 C915 1.503 . S
C914 O932 1.261 . S
C914 O933 1.243 1_556 S
C915 C914 1.503 . S
C915 C916 1.394 . S
C915 C920 1.338 1_556 S
C916 C915 1.394 . S
C916 C917 1.380 . S
C916 H944 0.930 . S
C917 C916 1.380 . S
C917 C918 1.376 . S
C917 H945 0.930 . S
C918 C917 1.376 . S
C918 C919 1.370 . S
C919 C918 1.370 . S
C919 C920 1.388 1_556 S
C919 H946 0.929 1_556 S
C920 C915 1.338 1_554 S
C920 C919 1.388 1_554 S
C920 H947 0.975 . S
C921 O934 1.240 . S
C921 O935 1.289 . S
C922 O936 1.258 . S
C922 O937 1.256 1_556 S
C923 La913 2.928 1_655 S
C923 C924 1.503 . S
C923 O938 1.261 . S
C923 O939 1.243 . S
C924 C923 1.503 . S
C924 C925 1.394 . S
C924 C929 1.373 . S
C925 C924 1.394 . S
C925 C926 1.380 . S
C925 H948 0.930 . S
C926 C925 1.380 . S
C926 C927 1.376 . S
C926 H949 0.930 . S
C927 C926 1.376 . S
C927 C928 1.370 . S
C928 C927 1.370 . S
C928 C929 1.396 . S
C928 H950 0.929 . S
C929 C924 1.373 . S
C929 C928 1.396 . S
C929 H951 0.929 . S
C930 O940 1.240 . S
C930 O941 1.289 . S
C931 O942 1.258 . S
C931 O943 1.256 . S
O932 La912 2.521 . S
O932 C914 1.261 . S
O933 La912 2.628 1_554 S
O933 C914 1.243 1_554 S
O934 La912 2.554 . S
O934 C921 1.240 . S
O935 La912 2.757 . S
O935 La913 2.482 1_556 S
O935 C921 1.289 . S
O936 La912 2.470 . S
O936 C922 1.258 . S
O937 La913 2.503 . S
O937 C922 1.256 1_554 S
O938 La913 2.521 1_655 S
O938 C923 1.261 . S
O939 La913 2.628 1_655 S
O939 C923 1.243 . S
O940 La913 2.554 . S
O940 C930 1.240 . S
O941 La912 2.482 1_554 S
O941 La913 2.757 . S
O941 C930 1.289 . S
O942 La913 2.470 . S
O942 C931 1.258 . S
O943 La912 2.503 1_554 S
O943 C931 1.256 . S
H944 C916 0.930 . S
H945 C917 0.930 . S
H946 C919 0.929 1_554 S
H947 C920 0.975 . S
H948 C925 0.930 . S
H949 C926 0.930 . S
H950 C928 0.929 . S
H951 C929 0.929 . S
H952 C964 0.930 . S
H953 C966 0.930 . S
H954 C967 0.930 . S
H955 C971 0.959 . S
H956 C971 0.959 . S
H957 C971 0.961 . S
H958 C972 0.960 . S
H959 C972 0.961 . S
H960 C972 0.959 . S
H961 C975 0.929 . S
H962 C976 0.931 . S
H963 C978 0.930 . S
C964 H952 0.930 . S
C964 C965 1.399 . S
C964 C969 1.399 . S
C965 C964 1.399 . S
C965 C966 1.376 . S
C966 H953 0.930 . S
C966 C965 1.376 . S
C966 C967 1.388 . S
C967 H954 0.930 . S
C967 C966 1.388 . S
C967 C968 1.390 . S
C968 C967 1.390 . S
C968 C969 1.394 . S
C968 C974 1.465 . S
C969 C964 1.399 . S
C969 C968 1.394 . S
C969 C970 1.516 1_556 S
C970 C969 1.516 1_554 S
C970 C971 1.502 . S
C970 C972 1.561 . S
C970 C973 1.526 1_554 S
C971 H955 0.959 . S
C971 H956 0.959 . S
C971 H957 0.961 . S
C971 C970 1.502 . S
C972 H958 0.960 . S
C972 H959 0.961 . S
C972 H960 0.959 . S
C972 C970 1.561 . S
C973 C970 1.526 1_556 S
C973 C974 1.396 . S
C973 C978 1.390 1_556 S
C974 C968 1.465 . S
C974 C973 1.396 . S
C974 C975 1.399 . S
C975 H961 0.929 . S
C975 C974 1.399 . S
C975 C976 1.385 . S
C976 H962 0.931 . S
C976 C975 1.385 . S
C976 C977 1.389 . S
C977 C976 1.389 . S
C977 C978 1.387 1_556 S
C978 H963 0.930 . S
C978 C973 1.390 1_554 S
C978 C977 1.387 1_554 S
H979 C991 0.930 . S
H980 C993 0.930 . S
H981 C994 0.930 . S
H982 C998 0.959 . S
H983 C998 0.959 . S
H984 C998 0.961 . S
H985 C999 0.960 . S
H986 C999 0.961 . S
H987 C999 0.959 . S
H988 C1002 0.929 . S
H989 C1003 0.931 . S
H990 C1005 0.930 . S
C991 H979 0.930 . S
C991 C992 1.399 . S
C991 C996 1.399 . S
C992 C991 1.399 . S
C992 C993 1.376 . S
C993 H980 0.930 . S
C993 C992 1.376 . S
C993 C994 1.388 . S
C994 H981 0.930 . S
C994 C993 1.388 . S
C994 C995 1.390 . S
C995 C994 1.390 . S
C995 C996 1.394 . S
C995 C1001 1.465 . S
C996 C991 1.399 . S
C996 C995 1.394 . S
C996 C997 1.516 . S
C997 C996 1.516 . S
C997 C998 1.502 . S
C997 C999 1.561 . S
C997 C1000 1.526 . S
C998 H982 0.959 . S
C998 H983 0.959 . S
C998 H984 0.961 . S
C998 C997 1.502 . S
C999 H985 0.960 . S
C999 H986 0.961 . S
C999 H987 0.959 . S
C999 C997 1.561 . S
C1000 C997 1.526 . S
C1000 C1001 1.396 . S
C1000 C1005 1.390 . S
C1001 C995 1.465 . S
C1001 C1000 1.396 . S
C1001 C1002 1.399 . S
C1002 H988 0.929 . S
C1002 C1001 1.399 . S
C1002 C1003 1.385 . S
C1003 H989 0.931 . S
C1003 C1002 1.385 . S
C1003 C1004 1.389 . S
C1004 C1003 1.389 . S
C1004 C1005 1.387 . S
C1005 H990 0.930 . S
C1005 C1000 1.390 . S
C1005 C1004 1.387 . S
H1006 C1018 0.930 . S
H1007 C1020 0.930 . S
H1008 C1021 0.930 . S
H1009 C1025 0.959 . S
H1010 C1025 0.959 . S
H1011 C1025 0.961 . S
H1012 C1026 0.960 . S
H1013 C1026 0.961 . S
H1014 C1026 0.959 . S
H1015 C1029 0.929 . S
H1016 C1030 0.931 . S
H1017 C1032 0.930 . S
C1018 H1006 0.930 . S
C1018 C1019 1.399 . S
C1018 C1023 1.399 . S
C1019 C1018 1.399 . S
C1019 C1020 1.376 . S
C1020 H1007 0.930 . S
C1020 C1019 1.376 . S
C1020 C1021 1.388 . S
C1021 H1008 0.930 . S
C1021 C1020 1.388 . S
C1021 C1022 1.390 . S
C1022 C1021 1.390 . S
C1022 C1023 1.394 . S
C1022 C1028 1.465 . S
C1023 C1018 1.399 . S
C1023 C1022 1.394 . S
C1023 C1024 1.516 . S
C1024 C1023 1.516 . S
C1024 C1025 1.502 . S
C1024 C1026 1.561 . S
C1024 C1027 1.526 . S
C1025 H1009 0.959 . S
C1025 H1010 0.959 . S
C1025 H1011 0.961 . S
C1025 C1024 1.502 . S
C1026 H1012 0.960 . S
C1026 H1013 0.961 . S
C1026 H1014 0.959 . S
C1026 C1024 1.561 . S
C1027 C1024 1.526 . S
C1027 C1028 1.396 . S
C1027 C1032 1.390 . S
C1028 C1022 1.465 . S
C1028 C1027 1.396 . S
C1028 C1029 1.399 . S
C1029 H1015 0.929 . S
C1029 C1028 1.399 . S
C1029 C1030 1.385 . S
C1030 H1016 0.931 . S
C1030 C1029 1.385 . S
C1030 C1031 1.389 . S
C1031 C1030 1.389 . S
C1031 C1032 1.387 . S
C1032 H1017 0.930 . S
C1032 C1027 1.390 . S
C1032 C1031 1.387 . S
H1033 C1045 0.930 . S
H1034 C1047 0.930 . S
H1035 C1048 0.930 . S
H1036 C1052 0.959 . S
H1037 C1052 0.959 . S
H1038 C1052 0.961 . S
H1039 C1053 0.960 . S
H1040 C1053 0.961 . S
H1041 C1053 0.959 . S
H1042 C1056 0.929 . S
H1043 C1057 0.931 . S
H1044 C1059 0.930 . S
C1045 H1033 0.930 . S
C1045 C1046 1.399 . S
C1045 C1050 1.399 . S
C1046 C1045 1.399 . S
C1046 C1047 1.376 . S
C1047 H1034 0.930 . S
C1047 C1046 1.376 . S
C1047 C1048 1.388 . S
C1048 H1035 0.930 . S
C1048 C1047 1.388 . S
C1048 C1049 1.390 . S
C1049 C1048 1.390 . S
C1049 C1050 1.394 . S
C1049 C1055 1.465 . S
C1050 C1045 1.399 . S
C1050 C1049 1.394 . S
C1050 C1051 1.516 . S
C1051 C1050 1.516 . S
C1051 C1052 1.502 . S
C1051 C1053 1.561 . S
C1051 C1054 1.526 . S
C1052 H1036 0.959 . S
C1052 H1037 0.959 . S
C1052 H1038 0.961 . S
C1052 C1051 1.502 . S
C1053 H1039 0.960 . S
C1053 H1040 0.961 . S
C1053 H1041 0.959 . S
C1053 C1051 1.561 . S
C1054 C1051 1.526 . S
C1054 C1055 1.396 . S
C1054 C1059 1.390 . S
C1055 C1049 1.465 . S
C1055 C1054 1.396 . S
C1055 C1056 1.399 . S
C1056 H1042 0.929 . S
C1056 C1055 1.399 . S
C1056 C1057 1.385 . S
C1057 H1043 0.931 . S
C1057 C1056 1.385 . S
C1057 C1058 1.389 . S
C1058 C1057 1.389 . S
C1058 C1059 1.387 . S
C1059 H1044 0.930 . S
C1059 C1054 1.390 . S
C1059 C1058 1.387 . S
H1060 C1072 0.953 . S
H1061 C1074 0.930 . S
H1062 C1075 0.930 . S
H1063 C1079 0.959 1_655 S
H1064 C1079 0.959 . S
H1065 C1079 0.961 1_655 S
H1066 C1080 0.960 . S
H1067 C1080 0.961 . S
H1068 C1080 0.959 . S
H1069 C1083 0.929 . S
H1070 C1084 0.931 . S
H1071 C1086 0.930 . S
C1072 H1060 0.953 . S
C1072 C1073 1.399 . S
C1072 C1077 1.399 . S
C1073 C1072 1.399 . S
C1073 C1074 1.376 . S
C1074 H1061 0.930 . S
C1074 C1073 1.376 . S
C1074 C1075 1.388 . S
C1075 H1062 0.930 . S
C1075 C1074 1.388 . S
C1075 C1076 1.390 . S
C1076 C1075 1.390 . S
C1076 C1077 1.394 . S
C1076 C1082 1.465 . S
C1077 C1072 1.399 . S
C1077 C1076 1.394 . S
C1077 C1078 1.516 . S
C1078 C1077 1.516 . S
C1078 C1079 1.502 . S
C1078 C1080 1.561 . S
C1078 C1081 1.526 . S
C1079 H1063 0.959 1_455 S
C1079 H1064 0.959 . S
C1079 H1065 0.961 1_455 S
C1079 C1078 1.502 . S
C1080 H1066 0.960 . S
C1080 H1067 0.961 . S
C1080 H1068 0.959 . S
C1080 C1078 1.561 . S
C1081 C1078 1.526 . S
C1081 C1082 1.396 . S
C1081 C1086 1.390 . S
C1082 C1076 1.465 . S
C1082 C1081 1.396 . S
C1082 C1083 1.399 . S
C1083 H1069 0.929 . S
C1083 C1082 1.399 . S
C1083 C1084 1.385 . S
C1084 H1070 0.931 . S
C1084 C1083 1.385 . S
C1084 C1085 1.389 . S
C1085 C1084 1.389 . S
C1085 C1086 1.387 . S
C1086 H1071 0.930 . S
C1086 C1081 1.390 . S
C1086 C1085 1.387 . S
H1087 C1099 0.930 . S
H1088 C1101 0.930 . S
H1089 C1102 0.930 . S
H1090 C1106 0.959 . S
H1091 C1106 0.959 . S
H1092 C1106 0.961 . S
H1093 C1107 0.960 . S
H1094 C1107 0.961 . S
H1095 C1107 0.959 . S
H1096 C1110 0.929 . S
H1097 C1111 0.931 . S
H1098 C1113 0.930 . S
C1099 H1087 0.930 . S
C1099 C1100 1.399 . S
C1099 C1104 1.399 . S
C1100 C1099 1.399 . S
C1100 C1101 1.376 . S
C1101 H1088 0.930 . S
C1101 C1100 1.376 . S
C1101 C1102 1.388 . S
C1102 H1089 0.930 . S
C1102 C1101 1.388 . S
C1102 C1103 1.390 . S
C1103 C1102 1.390 . S
C1103 C1104 1.394 . S
C1103 C1109 1.465 . S
C1104 C1099 1.399 . S
C1104 C1103 1.394 . S
C1104 C1105 1.516 . S
C1105 C1104 1.516 . S
C1105 C1106 1.502 . S
C1105 C1107 1.561 . S
C1105 C1108 1.526 . S
C1106 H1090 0.959 . S
C1106 H1091 0.959 . S
C1106 H1092 0.961 . S
C1106 C1105 1.502 . S
C1107 H1093 0.960 . S
C1107 H1094 0.961 . S
C1107 H1095 0.959 . S
C1107 C1105 1.561 . S
C1108 C1105 1.526 . S
C1108 C1109 1.396 . S
C1108 C1113 1.390 . S
C1109 C1103 1.465 . S
C1109 C1108 1.396 . S
C1109 C1110 1.399 . S
C1110 H1096 0.929 . S
C1110 C1109 1.399 . S
C1110 C1111 1.385 . S
C1111 H1097 0.931 . S
C1111 C1110 1.385 . S
C1111 C1112 1.389 . S
C1112 C1111 1.389 . S
C1112 C1113 1.387 . S
C1113 H1098 0.930 . S
C1113 C1108 1.390 . S
C1113 C1112 1.387 . S
H1114 C1126 0.930 . S
H1115 C1128 0.930 . S
H1116 C1129 0.930 . S
H1117 C1133 0.959 . S
H1118 C1133 0.959 . S
H1119 C1133 0.961 . S
H1120 C1134 0.960 . S
H1121 C1134 0.961 . S
H1122 C1134 0.959 . S
H1123 C1137 0.929 . S
H1124 C1138 0.931 . S
H1125 C1140 0.930 . S
C1126 H1114 0.930 . S
C1126 C1127 1.399 . S
C1126 C1131 1.399 . S
C1127 C1126 1.399 . S
C1127 C1128 1.376 . S
C1128 H1115 0.930 . S
C1128 C1127 1.376 . S
C1128 C1129 1.388 . S
C1129 H1116 0.930 . S
C1129 C1128 1.388 . S
C1129 C1130 1.390 . S
C1130 C1129 1.390 . S
C1130 C1131 1.394 . S
C1130 C1136 1.465 . S
C1131 C1126 1.399 . S
C1131 C1130 1.394 . S
C1131 C1132 1.516 . S
C1132 C1131 1.516 . S
C1132 C1133 1.502 . S
C1132 C1134 1.561 . S
C1132 C1135 1.526 . S
C1133 H1117 0.959 . S
C1133 H1118 0.959 . S
C1133 H1119 0.961 . S
C1133 C1132 1.502 . S
C1134 H1120 0.960 . S
C1134 H1121 0.961 . S
C1134 H1122 0.959 . S
C1134 C1132 1.561 . S
C1135 C1132 1.526 . S
C1135 C1136 1.396 . S
C1135 C1140 1.390 . S
C1136 C1130 1.465 . S
C1136 C1135 1.396 . S
C1136 C1137 1.399 . S
C1137 H1123 0.929 . S
C1137 C1136 1.399 . S
C1137 C1138 1.385 . S
C1138 H1124 0.931 . S
C1138 C1137 1.385 . S
C1138 C1139 1.389 . S
C1139 C1138 1.389 . S
C1139 C1140 1.387 . S
C1140 H1125 0.930 . S
C1140 C1135 1.390 . S
C1140 C1139 1.387 . S
H1141 C1153 0.930 . S
H1142 C1155 0.930 . S
H1143 C1156 0.930 . S
H1144 C1160 0.959 . S
H1145 C1160 0.959 . S
H1146 C1160 0.961 . S
H1147 C1161 0.960 . S
H1148 C1161 0.961 . S
H1149 C1161 0.959 . S
H1150 C1164 0.929 . S
H1151 C1165 0.931 . S
H1152 C1167 0.930 . S
C1153 H1141 0.930 . S
C1153 C1154 1.399 . S
C1153 C1158 1.399 . S
C1154 C1153 1.399 . S
C1154 C1155 1.376 . S
C1155 H1142 0.930 . S
C1155 C1154 1.376 . S
C1155 C1156 1.388 . S
C1156 H1143 0.930 . S
C1156 C1155 1.388 . S
C1156 C1157 1.390 . S
C1157 C1156 1.390 . S
C1157 C1158 1.394 . S
C1157 C1163 1.465 . S
C1158 C1153 1.399 . S
C1158 C1157 1.394 . S
C1158 C1159 1.516 . S
C1159 C1158 1.516 . S
C1159 C1160 1.502 . S
C1159 C1161 1.561 . S
C1159 C1162 1.526 . S
C1160 H1144 0.959 . S
C1160 H1145 0.959 . S
C1160 H1146 0.961 . S
C1160 C1159 1.502 . S
C1161 H1147 0.960 . S
C1161 H1148 0.961 . S
C1161 H1149 0.959 . S
C1161 C1159 1.561 . S
C1162 C1159 1.526 . S
C1162 C1163 1.396 . S
C1162 C1167 1.390 . S
C1163 C1157 1.465 . S
C1163 C1162 1.396 . S
C1163 C1164 1.399 . S
C1164 H1150 0.929 . S
C1164 C1163 1.399 . S
C1164 C1165 1.385 . S
C1165 H1151 0.931 . S
C1165 C1164 1.385 . S
C1165 C1166 1.389 . S
C1166 C1165 1.389 . S
C1166 C1167 1.387 . S
C1167 H1152 0.930 . S
C1167 C1162 1.390 . S
C1167 C1166 1.387 . S
H1168 C1180 0.930 . S
H1169 C1182 0.930 . S
H1170 C1183 0.930 . S
H1171 C1187 0.959 . S
H1172 C1187 0.959 . S
H1173 C1187 0.961 . S
H1174 C1188 0.960 1_565 S
H1175 C1188 0.961 1_565 S
H1176 C1188 0.959 . S
H1177 C1191 0.929 . S
H1178 C1192 0.931 . S
H1179 C1194 0.930 . S
C1180 H1168 0.930 . S
C1180 C1181 1.399 . S
C1180 C1185 1.399 . S
C1181 C1180 1.399 . S
C1181 C1182 1.376 . S
C1182 H1169 0.930 . S
C1182 C1181 1.376 . S
C1182 C1183 1.388 . S
C1183 H1170 0.930 . S
C1183 C1182 1.388 . S
C1183 C1184 1.390 . S
C1184 C1183 1.390 . S
C1184 C1185 1.394 . S
C1184 C1190 1.465 1_655 S
C1185 C1180 1.399 . S
C1185 C1184 1.394 . S
C1185 C1186 1.509 1_655 S
C1186 C1185 1.509 1_455 S
C1186 C1187 1.512 . S
C1186 C1188 1.554 1_455 S
C1186 C1189 1.529 . S
C1187 H1171 0.959 . S
C1187 H1172 0.959 . S
C1187 H1173 0.961 . S
C1187 C1186 1.512 . S
C1188 H1174 0.960 1_545 S
C1188 H1175 0.961 1_545 S
C1188 H1176 0.959 . S
C1188 C1186 1.554 1_655 S
C1189 C1186 1.529 . S
C1189 C1190 1.396 . S
C1189 C1194 1.390 . S
C1190 C1184 1.465 1_455 S
C1190 C1189 1.396 . S
C1190 C1191 1.399 . S
C1191 H1177 0.929 . S
C1191 C1190 1.399 . S
C1191 C1192 1.385 . S
C1192 H1178 0.931 . S
C1192 C1191 1.385 . S
C1192 C1193 1.389 . S
C1193 C1192 1.389 . S
C1193 C1194 1.387 . S
C1194 H1179 0.930 . S
C1194 C1189 1.390 . S
C1194 C1193 1.387 . S
H1195 C1207 0.930 . S
H1196 C1209 0.930 . S
H1197 C1210 0.930 . S
H1198 C1214 0.959 . S
H1199 C1214 0.959 . S
H1200 C1214 0.961 . S
H1201 C1215 0.960 . S
H1202 C1215 0.961 . S
H1203 C1215 0.959 . S
H1204 C1218 0.929 . S
H1205 C1219 0.931 . S
H1206 C1221 0.930 . S
C1207 H1195 0.930 . S
C1207 C1208 1.399 . S
C1207 C1212 1.399 . S
C1208 C1207 1.399 . S
C1208 C1209 1.376 . S
C1209 H1196 0.930 . S
C1209 C1208 1.376 . S
C1209 C1210 1.388 . S
C1210 H1197 0.930 . S
C1210 C1209 1.388 . S
C1210 C1211 1.390 . S
C1211 C1210 1.390 . S
C1211 C1212 1.394 . S
C1211 C1217 1.465 . S
C1212 C1207 1.399 . S
C1212 C1211 1.394 . S
C1212 C1213 1.516 . S
C1213 C1212 1.516 . S
C1213 C1214 1.502 . S
C1213 C1215 1.561 . S
C1213 C1216 1.526 . S
C1214 H1198 0.959 . S
C1214 H1199 0.959 . S
C1214 H1200 0.961 . S
C1214 C1213 1.502 . S
C1215 H1201 0.960 . S
C1215 H1202 0.961 . S
C1215 H1203 0.959 . S
C1215 C1213 1.561 . S
C1216 C1213 1.526 . S
C1216 C1217 1.396 . S
C1216 C1221 1.390 . S
C1217 C1211 1.465 . S
C1217 C1216 1.396 . S
C1217 C1218 1.399 . S
C1218 H1204 0.929 . S
C1218 C1217 1.399 . S
C1218 C1219 1.385 . S
C1219 H1205 0.931 . S
C1219 C1218 1.385 . S
C1219 C1220 1.389 . S
C1220 C1219 1.389 . S
C1220 C1221 1.387 . S
C1221 H1206 0.930 . S
C1221 C1216 1.390 . S
C1221 C1220 1.387 . S
H1222 C1234 0.930 . S
H1223 C1236 0.930 . S
H1224 C1237 0.930 . S
H1225 C1241 0.959 . S
H1226 C1241 0.959 . S
H1227 C1241 0.961 . S
H1228 C1242 0.960 . S
H1229 C1242 0.961 . S
H1230 C1242 0.959 . S
H1231 C1245 0.929 . S
H1232 C1246 0.931 . S
H1233 C1248 0.930 . S
C1234 H1222 0.930 . S
C1234 C1235 1.399 . S
C1234 C1239 1.399 . S
C1235 C1234 1.399 . S
C1235 C1236 1.376 . S
C1236 H1223 0.930 . S
C1236 C1235 1.376 . S
C1236 C1237 1.388 . S
C1237 H1224 0.930 . S
C1237 C1236 1.388 . S
C1237 C1238 1.390 . S
C1238 C1237 1.390 . S
C1238 C1239 1.394 . S
C1238 C1244 1.465 . S
C1239 C1234 1.399 . S
C1239 C1238 1.394 . S
C1239 C1240 1.516 . S
C1240 C1239 1.516 . S
C1240 C1241 1.502 . S
C1240 C1242 1.561 . S
C1240 C1243 1.526 . S
C1241 H1225 0.959 . S
C1241 H1226 0.959 . S
C1241 H1227 0.961 . S
C1241 C1240 1.502 . S
C1242 H1228 0.960 . S
C1242 H1229 0.961 . S
C1242 H1230 0.959 . S
C1242 C1240 1.561 . S
C1243 C1240 1.526 . S
C1243 C1244 1.396 . S
C1243 C1248 1.390 . S
C1244 C1238 1.465 . S
C1244 C1243 1.396 . S
C1244 C1245 1.399 . S
C1245 H1231 0.929 . S
C1245 C1244 1.399 . S
C1245 C1246 1.385 . S
C1246 H1232 0.931 . S
C1246 C1245 1.385 . S
C1246 C1247 1.389 . S
C1247 C1246 1.389 . S
C1247 C1248 1.387 . S
C1248 H1233 0.930 . S
C1248 C1243 1.390 . S
C1248 C1247 1.387 . S
H1249 C1261 0.930 . S
H1250 C1263 0.930 . S
H1251 C1264 0.930 . S
H1252 C1268 0.959 . S
H1253 C1268 0.959 . S
H1254 C1268 0.961 . S
H1255 C1269 0.960 . S
H1256 C1269 0.961 . S
H1257 C1269 0.959 . S
H1258 C1272 0.929 . S
H1259 C1273 0.931 . S
H1260 C1275 0.930 . S
C1261 H1249 0.930 . S
C1261 C1262 1.399 . S
C1261 C1266 1.399 . S
C1262 C1261 1.399 . S
C1262 C1263 1.376 . S
C1263 H1250 0.930 . S
C1263 C1262 1.376 . S
C1263 C1264 1.388 . S
C1264 H1251 0.930 . S
C1264 C1263 1.388 . S
C1264 C1265 1.390 . S
C1265 C1264 1.390 . S
C1265 C1266 1.394 . S
C1265 C1271 1.465 . S
C1266 C1261 1.399 . S
C1266 C1265 1.394 . S
C1266 C1267 1.516 . S
C1267 C1266 1.516 . S
C1267 C1268 1.502 . S
C1267 C1269 1.561 . S
C1267 C1270 1.526 . S
C1268 H1252 0.959 . S
C1268 H1253 0.959 . S
C1268 H1254 0.961 . S
C1268 C1267 1.502 . S
C1269 H1255 0.960 . S
C1269 H1256 0.961 . S
C1269 H1257 0.959 . S
C1269 C1267 1.561 . S
C1270 C1267 1.526 . S
C1270 C1271 1.396 . S
C1270 C1275 1.390 . S
C1271 C1265 1.465 . S
C1271 C1270 1.396 . S
C1271 C1272 1.399 . S
C1272 H1258 0.929 . S
C1272 C1271 1.399 . S
C1272 C1273 1.385 . S
C1273 H1259 0.931 . S
C1273 C1272 1.385 . S
C1273 C1274 1.389 . S
C1274 C1273 1.389 . S
C1274 C1275 1.387 . S
C1275 H1260 0.930 . S
C1275 C1270 1.390 . S
C1275 C1274 1.387 . S
H1276 C1288 0.930 . S
H1277 C1290 0.930 . S
H1278 C1291 0.930 . S
H1279 C1295 0.959 . S
H1280 C1295 0.959 . S
H1281 C1295 0.961 . S
H1282 C1296 0.960 . S
H1283 C1296 0.961 1_455 S
H1284 C1296 0.959 . S
H1285 C1299 0.946 . S
H1286 C1300 0.931 . S
H1287 C1302 0.930 . S
C1288 H1276 0.930 . S
C1288 C1289 1.399 . S
C1288 C1293 1.399 . S
C1289 C1288 1.399 . S
C1289 C1290 1.376 . S
C1290 H1277 0.930 . S
C1290 C1289 1.376 . S
C1290 C1291 1.388 . S
C1291 H1278 0.930 . S
C1291 C1290 1.388 . S
C1291 C1292 1.390 . S
C1292 C1291 1.390 . S
C1292 C1293 1.394 . S
C1292 C1298 1.475 . S
C1293 C1288 1.399 . S
C1293 C1292 1.394 . S
C1293 C1294 1.516 1_655 S
C1294 C1293 1.516 1_455 S
C1294 C1295 1.502 . S
C1294 C1296 1.561 1_455 S
C1294 C1297 1.526 . S
C1295 H1279 0.959 . S
C1295 H1280 0.959 . S
C1295 H1281 0.961 . S
C1295 C1294 1.502 . S
C1296 H1282 0.960 . S
C1296 H1283 0.961 1_655 S
C1296 H1284 0.959 . S
C1296 C1294 1.561 1_655 S
C1297 C1294 1.526 . S
C1297 C1298 1.390 1_455 S
C1297 C1302 1.390 . S
C1298 C1292 1.475 . S
C1298 C1297 1.390 1_655 S
C1298 C1299 1.405 . S
C1299 H1285 0.946 . S
C1299 C1298 1.405 . S
C1299 C1300 1.360 1_655 S
C1300 H1286 0.931 . S
C1300 C1299 1.360 1_455 S
C1300 C1301 1.389 . S
C1301 C1300 1.389 . S
C1301 C1302 1.387 . S
C1302 H1287 0.930 . S
C1302 C1297 1.390 . S
C1302 C1301 1.387 . S
H1303 C1315 0.930 . S
H1304 C1317 0.930 . S
H1305 C1318 0.930 . S
H1306 C1322 0.959 . S
H1307 C1322 0.959 . S
H1308 C1322 0.961 . S
H1309 C1323 0.960 . S
H1310 C1323 0.961 . S
H1311 C1323 0.959 . S
H1312 C1326 0.929 . S
H1313 C1327 0.931 . S
H1314 C1329 0.930 . S
C1315 H1303 0.930 . S
C1315 C1316 1.399 . S
C1315 C1320 1.399 . S
C1316 C1315 1.399 . S
C1316 C1317 1.376 . S
C1317 H1304 0.930 . S
C1317 C1316 1.376 . S
C1317 C1318 1.388 . S
C1318 H1305 0.930 . S
C1318 C1317 1.388 . S
C1318 C1319 1.390 . S
C1319 C1318 1.390 . S
C1319 C1320 1.394 . S
C1319 C1325 1.465 . S
C1320 C1315 1.399 . S
C1320 C1319 1.394 . S
C1320 C1321 1.516 . S
C1321 C1320 1.516 . S
C1321 C1322 1.502 . S
C1321 C1323 1.561 . S
C1321 C1324 1.526 . S
C1322 H1306 0.959 . S
C1322 H1307 0.959 . S
C1322 H1308 0.961 . S
C1322 C1321 1.502 . S
C1323 H1309 0.960 . S
C1323 H1310 0.961 . S
C1323 H1311 0.959 . S
C1323 C1321 1.561 . S
C1324 C1321 1.526 . S
C1324 C1325 1.396 . S
C1324 C1329 1.390 . S
C1325 C1319 1.465 . S
C1325 C1324 1.396 . S
C1325 C1326 1.399 . S
C1326 H1312 0.929 . S
C1326 C1325 1.399 . S
C1326 C1327 1.385 . S
C1327 H1313 0.931 . S
C1327 C1326 1.385 . S
C1327 C1328 1.389 . S
C1328 C1327 1.389 . S
C1328 C1329 1.387 . S
C1329 H1314 0.930 . S
C1329 C1324 1.390 . S
C1329 C1328 1.387 . S
H1330 C1342 0.930 . S
H1331 C1344 0.930 . S
H1332 C1345 0.930 . S
H1333 C1349 0.959 . S
H1334 C1349 0.959 . S
H1335 C1349 0.961 . S
H1336 C1350 0.960 . S
H1337 C1350 0.961 . S
H1338 C1350 0.959 . S
H1339 C1353 0.929 . S
H1340 C1354 0.931 . S
H1341 C1356 0.930 . S
C1342 H1330 0.930 . S
C1342 C1343 1.399 . S
C1342 C1347 1.399 . S
C1343 C1342 1.399 . S
C1343 C1344 1.376 . S
C1344 H1331 0.930 . S
C1344 C1343 1.376 . S
C1344 C1345 1.388 . S
C1345 H1332 0.930 . S
C1345 C1344 1.388 . S
C1345 C1346 1.390 . S
C1346 C1345 1.390 . S
C1346 C1347 1.394 . S
C1346 C1352 1.465 . S
C1347 C1342 1.399 . S
C1347 C1346 1.394 . S
C1347 C1348 1.516 . S
C1348 C1347 1.516 . S
C1348 C1349 1.502 . S
C1348 C1350 1.561 . S
C1348 C1351 1.526 . S
C1349 H1333 0.959 . S
C1349 H1334 0.959 . S
C1349 H1335 0.961 . S
C1349 C1348 1.502 . S
C1350 H1336 0.960 . S
C1350 H1337 0.961 . S
C1350 H1338 0.959 . S
C1350 C1348 1.561 . S
C1351 C1348 1.526 . S
C1351 C1352 1.396 . S
C1351 C1356 1.390 . S
C1352 C1346 1.465 . S
C1352 C1351 1.396 . S
C1352 C1353 1.399 . S
C1353 H1339 0.929 . S
C1353 C1352 1.399 . S
C1353 C1354 1.385 . S
C1354 H1340 0.931 . S
C1354 C1353 1.385 . S
C1354 C1355 1.389 . S
C1355 C1354 1.389 . S
C1355 C1356 1.387 . S
C1356 H1341 0.930 . S
C1356 C1351 1.390 . S
C1356 C1355 1.387 . S
H1357 C1369 0.930 . S
H1358 C1371 0.930 . S
H1359 C1372 0.930 . S
H1360 C1376 0.959 . S
H1361 C1376 0.959 . S
H1362 C1376 0.961 . S
H1363 C1377 0.960 . S
H1364 C1377 0.961 . S
H1365 C1377 0.959 . S
H1366 C1380 0.929 . S
H1367 C1381 0.931 . S
H1368 C1383 0.930 . S
C1369 H1357 0.930 . S
C1369 C1370 1.399 . S
C1369 C1374 1.399 . S
C1370 C1369 1.399 . S
C1370 C1371 1.376 . S
C1371 H1358 0.930 . S
C1371 C1370 1.376 . S
C1371 C1372 1.388 . S
C1372 H1359 0.930 . S
C1372 C1371 1.388 . S
C1372 C1373 1.390 . S
C1373 C1372 1.390 . S
C1373 C1374 1.394 . S
C1373 C1379 1.465 . S
C1374 C1369 1.399 . S
C1374 C1373 1.394 . S
C1374 C1375 1.516 . S
C1375 C1374 1.516 . S
C1375 C1376 1.502 . S
C1375 C1377 1.561 . S
C1375 C1378 1.526 . S
C1376 H1360 0.959 . S
C1376 H1361 0.959 . S
C1376 H1362 0.961 . S
C1376 C1375 1.502 . S
C1377 H1363 0.960 . S
C1377 H1364 0.961 . S
C1377 H1365 0.959 . S
C1377 C1375 1.561 . S
C1378 C1375 1.526 . S
C1378 C1379 1.396 . S
C1378 C1383 1.390 . S
C1379 C1373 1.465 . S
C1379 C1378 1.396 . S
C1379 C1380 1.399 . S
C1380 H1366 0.929 . S
C1380 C1379 1.399 . S
C1380 C1381 1.385 . S
C1381 H1367 0.931 . S
C1381 C1380 1.385 . S
C1381 C1382 1.389 . S
C1382 C1381 1.389 . S
C1382 C1383 1.387 . S
C1383 H1368 0.930 . S
C1383 C1378 1.390 . S
C1383 C1382 1.387 . S
H1384 C1396 0.930 . S
H1385 C1398 0.951 . S
H1386 C1399 0.930 1_546 S
H1387 C1403 0.959 . S
H1388 C1403 0.959 . S
H1389 C1403 0.961 . S
H1390 C1404 0.960 . S
H1391 C1404 0.961 . S
H1392 C1404 0.959 . S
H1393 C1407 0.929 . S
H1394 C1408 0.931 . S
H1395 C1410 0.930 . S
C1396 H1384 0.930 . S
C1396 C1397 1.399 . S
C1396 C1401 1.399 . S
C1397 C1396 1.399 . S
C1397 C1398 1.362 1_554 S
C1398 H1385 0.951 . S
C1398 C1397 1.362 1_556 S
C1398 C1399 1.383 1_556 S
C1399 H1386 0.930 1_564 S
C1399 C1398 1.383 1_554 S
C1399 C1400 1.390 . S
C1400 C1399 1.390 . S
C1400 C1401 1.394 . S
C1400 C1406 1.465 . S
C1401 C1396 1.399 . S
C1401 C1400 1.394 . S
C1401 C1402 1.516 . S
C1402 C1401 1.516 . S
C1402 C1403 1.502 . S
C1402 C1404 1.561 . S
C1402 C1405 1.526 . S
C1403 H1387 0.959 . S
C1403 H1388 0.959 . S
C1403 H1389 0.961 . S
C1403 C1402 1.502 . S
C1404 H1390 0.960 . S
C1404 H1391 0.961 . S
C1404 H1392 0.959 . S
C1404 C1402 1.561 . S
C1405 C1402 1.526 . S
C1405 C1406 1.396 . S
C1405 C1410 1.390 . S
C1406 C1400 1.465 . S
C1406 C1405 1.396 . S
C1406 C1407 1.399 1_565 S
C1407 H1393 0.929 . S
C1407 C1406 1.399 1_545 S
C1407 C1408 1.385 . S
C1408 H1394 0.931 . S
C1408 C1407 1.385 . S
C1408 C1409 1.389 1_545 S
C1409 C1408 1.389 1_565 S
C1409 C1410 1.387 . S
C1410 H1395 0.930 . S
C1410 C1405 1.390 . S
C1410 C1409 1.387 . S
H1411 C1423 0.930 . S
H1412 C1425 0.930 . S
H1413 C1426 0.930 . S
H1414 C1430 0.959 . S
H1415 C1430 0.959 . S
H1416 C1430 0.961 . S
H1417 C1431 0.960 . S
H1418 C1431 0.961 . S
H1419 C1431 0.959 1_556 S
H1420 C1434 0.929 . S
H1421 C1435 0.931 . S
H1422 C1437 0.930 . S
C1423 H1411 0.930 . S
C1423 C1424 1.381 1_554 S
C1423 C1428 1.399 . S
C1424 C1423 1.381 1_556 S
C1424 C1425 1.391 . S
C1425 H1412 0.930 . S
C1425 C1424 1.391 . S
C1425 C1426 1.388 . S
C1426 H1413 0.930 . S
C1426 C1425 1.388 . S
C1426 C1427 1.390 . S
C1427 C1426 1.390 . S
C1427 C1428 1.394 1_556 S
C1427 C1433 1.465 . S
C1428 C1423 1.399 . S
C1428 C1427 1.394 1_554 S
C1428 C1429 1.516 . S
C1429 C1428 1.516 . S
C1429 C1430 1.502 . S
C1429 C1431 1.561 . S
C1429 C1432 1.526 . S
C1430 H1414 0.959 . S
C1430 H1415 0.959 . S
C1430 H1416 0.961 . S
C1430 C1429 1.502 . S
C1431 H1417 0.960 . S
C1431 H1418 0.961 . S
C1431 H1419 0.959 1_554 S
C1431 C1429 1.561 . S
C1432 C1429 1.526 . S
C1432 C1433 1.396 1_554 S
C1432 C1437 1.390 . S
C1433 C1427 1.465 . S
C1433 C1432 1.396 1_556 S
C1433 C1434 1.399 . S
C1434 H1420 0.929 . S
C1434 C1433 1.399 . S
C1434 C1435 1.385 . S
C1435 H1421 0.931 . S
C1435 C1434 1.385 . S
C1435 C1436 1.389 1_556 S
C1436 C1435 1.389 1_554 S
C1436 C1437 1.387 . S
C1437 H1422 0.930 . S
C1437 C1432 1.390 . S
C1437 C1436 1.387 . S
H1438 C1450 0.930 . S
H1439 C1452 0.930 . S
H1440 C1453 0.930 . S
H1441 C1457 0.959 . S
H1442 C1457 0.959 . S
H1443 C1457 0.961 . S
H1444 C1458 0.960 . S
H1445 C1458 0.961 . S
H1446 C1458 0.959 . S
H1447 C1461 0.929 . S
H1448 C1462 0.931 . S
H1449 C1464 0.930 . S
C1450 H1438 0.930 . S
C1450 C1451 1.399 . S
C1450 C1455 1.399 . S
C1451 C1450 1.399 . S
C1451 C1452 1.376 . S
C1452 H1439 0.930 . S
C1452 C1451 1.376 . S
C1452 C1453 1.388 . S
C1453 H1440 0.930 . S
C1453 C1452 1.388 . S
C1453 C1454 1.390 . S
C1454 C1453 1.390 . S
C1454 C1455 1.394 . S
C1454 C1460 1.465 . S
C1455 C1450 1.399 . S
C1455 C1454 1.394 . S
C1455 C1456 1.516 . S
C1456 C1455 1.516 . S
C1456 C1457 1.502 . S
C1456 C1458 1.561 . S
C1456 C1459 1.526 . S
C1457 H1441 0.959 . S
C1457 H1442 0.959 . S
C1457 H1443 0.961 . S
C1457 C1456 1.502 . S
C1458 H1444 0.960 . S
C1458 H1445 0.961 . S
C1458 H1446 0.959 . S
C1458 C1456 1.561 . S
C1459 C1456 1.526 . S
C1459 C1460 1.396 . S
C1459 C1464 1.390 . S
C1460 C1454 1.465 . S
C1460 C1459 1.396 . S
C1460 C1461 1.399 . S
C1461 H1447 0.929 . S
C1461 C1460 1.399 . S
C1461 C1462 1.385 . S
C1462 H1448 0.931 . S
C1462 C1461 1.385 . S
C1462 C1463 1.389 . S
C1463 C1462 1.389 . S
C1463 C1464 1.387 . S
C1464 H1449 0.930 . S
C1464 C1459 1.390 . S
C1464 C1463 1.387 . S
H1465 C1477 0.930 . S
H1466 C1479 0.930 . S
H1467 C1480 0.930 . S
H1468 C1484 0.959 . S
H1469 C1484 0.959 . S
H1470 C1484 0.961 . S
H1471 C1485 0.960 . S
H1472 C1485 0.961 . S
H1473 C1485 0.959 . S
H1474 C1488 0.929 . S
H1475 C1489 0.931 . S
H1476 C1491 0.930 . S
C1477 H1465 0.930 . S
C1477 C1478 1.399 . S
C1477 C1482 1.399 . S
C1478 C1477 1.399 . S
C1478 C1479 1.376 . S
C1479 H1466 0.930 . S
C1479 C1478 1.376 . S
C1479 C1480 1.388 . S
C1480 H1467 0.930 . S
C1480 C1479 1.388 . S
C1480 C1481 1.390 . S
C1481 C1480 1.390 . S
C1481 C1482 1.394 . S
C1481 C1487 1.465 . S
C1482 C1477 1.399 . S
C1482 C1481 1.394 . S
C1482 C1483 1.516 . S
C1483 C1482 1.516 . S
C1483 C1484 1.502 . S
C1483 C1485 1.561 . S
C1483 C1486 1.526 . S
C1484 H1468 0.959 . S
C1484 H1469 0.959 . S
C1484 H1470 0.961 . S
C1484 C1483 1.502 . S
C1485 H1471 0.960 . S
C1485 H1472 0.961 . S
C1485 H1473 0.959 . S
C1485 C1483 1.561 . S
C1486 C1483 1.526 . S
C1486 C1487 1.396 . S
C1486 C1491 1.390 . S
C1487 C1481 1.465 . S
C1487 C1486 1.396 . S
C1487 C1488 1.399 . S
C1488 H1474 0.929 . S
C1488 C1487 1.399 . S
C1488 C1489 1.385 . S
C1489 H1475 0.931 . S
C1489 C1488 1.385 . S
C1489 C1490 1.389 . S
C1490 C1489 1.389 . S
C1490 C1491 1.387 . S
C1491 H1476 0.930 . S
C1491 C1486 1.390 . S
C1491 C1490 1.387 . S
H1492 C1504 0.930 . S
H1493 C1506 0.930 . S
H1494 C1507 0.930 . S
H1495 C1511 0.959 . S
H1496 C1511 0.959 . S
H1497 C1511 0.961 . S
H1498 C1512 0.960 . S
H1499 C1512 0.961 . S
H1500 C1512 0.959 . S
H1501 C1515 0.929 . S
H1502 C1516 0.931 . S
H1503 C1518 0.930 . S
C1504 H1492 0.930 . S
C1504 C1505 1.399 . S
C1504 C1509 1.399 . S
C1505 C1504 1.399 . S
C1505 C1506 1.376 . S
C1506 H1493 0.930 . S
C1506 C1505 1.376 . S
C1506 C1507 1.388 . S
C1507 H1494 0.930 . S
C1507 C1506 1.388 . S
C1507 C1508 1.390 . S
C1508 C1507 1.390 . S
C1508 C1509 1.394 . S
C1508 C1514 1.465 . S
C1509 C1504 1.399 . S
C1509 C1508 1.394 . S
C1509 C1510 1.516 . S
C1510 C1509 1.516 . S
C1510 C1511 1.502 . S
C1510 C1512 1.561 . S
C1510 C1513 1.526 . S
C1511 H1495 0.959 . S
C1511 H1496 0.959 . S
C1511 H1497 0.961 . S
C1511 C1510 1.502 . S
C1512 H1498 0.960 . S
C1512 H1499 0.961 . S
C1512 H1500 0.959 . S
C1512 C1510 1.561 . S
C1513 C1510 1.526 . S
C1513 C1514 1.396 . S
C1513 C1518 1.390 . S
C1514 C1508 1.465 . S
C1514 C1513 1.396 . S
C1514 C1515 1.399 . S
C1515 H1501 0.929 . S
C1515 C1514 1.399 . S
C1515 C1516 1.385 . S
C1516 H1502 0.931 . S
C1516 C1515 1.385 . S
C1516 C1517 1.389 . S
C1517 C1516 1.389 . S
C1517 C1518 1.387 . S
C1518 H1503 0.930 . S
C1518 C1513 1.390 . S
C1518 C1517 1.387 . S
H1519 C1531 0.930 . S
H1520 C1533 0.930 . S
H1521 C1534 0.930 . S
H1522 C1538 0.959 . S
H1523 C1538 0.959 . S
H1524 C1538 0.961 . S
H1525 C1539 0.960 . S
H1526 C1539 0.961 . S
H1527 C1539 0.959 . S
H1528 C1542 0.929 . S
H1529 C1543 0.931 . S
H1530 C1545 0.930 . S
C1531 H1519 0.930 . S
C1531 C1532 1.399 . S
C1531 C1536 1.399 . S
C1532 C1531 1.399 . S
C1532 C1533 1.376 . S
C1533 H1520 0.930 . S
C1533 C1532 1.376 . S
C1533 C1534 1.388 . S
C1534 H1521 0.930 . S
C1534 C1533 1.388 . S
C1534 C1535 1.390 . S
C1535 C1534 1.390 . S
C1535 C1536 1.394 . S
C1535 C1541 1.465 . S
C1536 C1531 1.399 . S
C1536 C1535 1.394 . S
C1536 C1537 1.516 . S
C1537 C1536 1.516 . S
C1537 C1538 1.502 . S
C1537 C1539 1.561 . S
C1537 C1540 1.526 . S
C1538 H1522 0.959 . S
C1538 H1523 0.959 . S
C1538 H1524 0.961 . S
C1538 C1537 1.502 . S
C1539 H1525 0.960 . S
C1539 H1526 0.961 . S
C1539 H1527 0.959 . S
C1539 C1537 1.561 . S
C1540 C1537 1.526 . S
C1540 C1541 1.396 . S
C1540 C1545 1.390 . S
C1541 C1535 1.465 . S
C1541 C1540 1.396 . S
C1541 C1542 1.399 . S
C1542 H1528 0.929 . S
C1542 C1541 1.399 . S
C1542 C1543 1.385 . S
C1543 H1529 0.931 . S
C1543 C1542 1.385 . S
C1543 C1544 1.389 . S
C1544 C1543 1.389 . S
C1544 C1545 1.387 . S
C1545 H1530 0.930 . S
C1545 C1540 1.390 . S
C1545 C1544 1.387 . S
H1546 C1558 0.930 . S
H1547 C1560 0.930 . S
H1548 C1561 0.930 . S
H1549 C1565 0.959 . S
H1550 C1565 0.959 . S
H1551 C1565 0.961 . S
H1552 C1566 0.960 . S
H1553 C1566 0.961 . S
H1554 C1566 0.959 . S
H1555 C1569 0.929 . S
H1556 C1570 0.931 . S
H1557 C1572 0.930 . S
C1558 H1546 0.930 . S
C1558 C1559 1.399 . S
C1558 C1563 1.399 . S
C1559 C1558 1.399 . S
C1559 C1560 1.376 . S
C1560 H1547 0.930 . S
C1560 C1559 1.376 . S
C1560 C1561 1.388 . S
C1561 H1548 0.930 . S
C1561 C1560 1.388 . S
C1561 C1562 1.390 . S
C1562 C1561 1.390 . S
C1562 C1563 1.394 . S
C1562 C1568 1.465 . S
C1563 C1558 1.399 . S
C1563 C1562 1.394 . S
C1563 C1564 1.516 . S
C1564 C1563 1.516 . S
C1564 C1565 1.502 . S
C1564 C1566 1.561 . S
C1564 C1567 1.526 . S
C1565 H1549 0.959 . S
C1565 H1550 0.959 . S
C1565 H1551 0.961 . S
C1565 C1564 1.502 . S
C1566 H1552 0.960 . S
C1566 H1553 0.961 . S
C1566 H1554 0.959 . S
C1566 C1564 1.561 . S
C1567 C1564 1.526 . S
C1567 C1568 1.396 . S
C1567 C1572 1.390 . S
C1568 C1562 1.465 . S
C1568 C1567 1.396 . S
C1568 C1569 1.399 . S
C1569 H1555 0.929 . S
C1569 C1568 1.399 . S
C1569 C1570 1.385 . S
C1570 H1556 0.931 . S
C1570 C1569 1.385 . S
C1570 C1571 1.389 . S
C1571 C1570 1.389 . S
C1571 C1572 1.387 . S
C1572 H1557 0.930 . S
C1572 C1567 1.390 . S
C1572 C1571 1.387 . S
H1573 C1585 0.930 . S
H1574 C1587 0.930 . S
H1575 C1588 0.930 . S
H1576 C1592 0.959 . S
H1577 C1592 0.959 . S
H1578 C1592 0.961 . S
H1579 C1593 0.960 . S
H1580 C1593 0.961 . S
H1581 C1593 0.959 . S
H1582 C1596 0.929 . S
H1583 C1597 0.931 . S
H1584 C1599 0.930 . S
C1585 H1573 0.930 . S
C1585 C1586 1.399 . S
C1585 C1590 1.399 . S
C1586 C1585 1.399 . S
C1586 C1587 1.376 . S
C1587 H1574 0.930 . S
C1587 C1586 1.376 . S
C1587 C1588 1.388 . S
C1588 H1575 0.930 . S
C1588 C1587 1.388 . S
C1588 C1589 1.390 . S
C1589 C1588 1.390 . S
C1589 C1590 1.394 . S
C1589 C1595 1.465 . S
C1590 C1585 1.399 . S
C1590 C1589 1.394 . S
C1590 C1591 1.516 . S
C1591 C1590 1.516 . S
C1591 C1592 1.502 . S
C1591 C1593 1.561 . S
C1591 C1594 1.526 . S
C1592 H1576 0.959 . S
C1592 H1577 0.959 . S
C1592 H1578 0.961 . S
C1592 C1591 1.502 . S
C1593 H1579 0.960 . S
C1593 H1580 0.961 . S
C1593 H1581 0.959 . S
C1593 C1591 1.561 . S
C1594 C1591 1.526 . S
C1594 C1595 1.396 . S
C1594 C1599 1.390 . S
C1595 C1589 1.465 . S
C1595 C1594 1.396 . S
C1595 C1596 1.399 . S
C1596 H1582 0.929 . S
C1596 C1595 1.399 . S
C1596 C1597 1.385 . S
C1597 H1583 0.931 . S
C1597 C1596 1.385 . S
C1597 C1598 1.389 . S
C1598 C1597 1.389 . S
C1598 C1599 1.387 . S
C1599 H1584 0.930 . S
C1599 C1594 1.390 . S
C1599 C1598 1.387 . S
H1600 C1612 0.930 . S
H1601 C1614 0.930 . S
H1602 C1615 0.930 . S
H1603 C1619 0.959 . S
H1604 C1619 0.959 . S
H1605 C1619 0.961 . S
H1606 C1620 0.960 . S
H1607 C1620 0.961 . S
H1608 C1620 0.959 . S
H1609 C1623 0.929 1_556 S
H1610 C1624 0.931 1_556 S
H1611 C1626 0.930 . S
C1612 H1600 0.930 . S
C1612 C1613 1.399 . S
C1612 C1617 1.399 . S
C1613 C1612 1.399 . S
C1613 C1614 1.376 . S
C1614 H1601 0.930 . S
C1614 C1613 1.376 . S
C1614 C1615 1.388 . S
C1615 H1602 0.930 . S
C1615 C1614 1.388 . S
C1615 C1616 1.390 . S
C1616 C1615 1.390 . S
C1616 C1617 1.394 . S
C1616 C1622 1.465 . S
C1617 C1612 1.399 . S
C1617 C1616 1.394 . S
C1617 C1618 1.516 . S
C1618 C1617 1.516 . S
C1618 C1619 1.502 . S
C1618 C1620 1.561 . S
C1618 C1621 1.526 . S
C1619 H1603 0.959 . S
C1619 H1604 0.959 . S
C1619 H1605 0.961 . S
C1619 C1618 1.502 . S
C1620 H1606 0.960 . S
C1620 H1607 0.961 . S
C1620 H1608 0.959 . S
C1620 C1618 1.561 . S
C1621 C1618 1.526 . S
C1621 C1622 1.396 . S
C1621 C1626 1.390 . S
C1622 C1616 1.465 . S
C1622 C1621 1.396 . S
C1622 C1623 1.399 . S
C1623 H1609 0.929 1_554 S
C1623 C1622 1.399 . S
C1623 C1624 1.385 . S
C1624 H1610 0.931 1_554 S
C1624 C1623 1.385 . S
C1624 C1625 1.389 . S
C1625 C1624 1.389 . S
C1625 C1626 1.387 . S
C1626 H1611 0.930 . S
C1626 C1621 1.390 . S
C1626 C1625 1.387 . S
H1627 C1639 0.930 . S
H1628 C1641 0.930 . S
H1629 C1642 0.930 . S
H1630 C1646 0.959 . S
H1631 C1646 0.959 . S
H1632 C1646 0.961 . S
H1633 C1647 0.960 . S
H1634 C1647 0.961 . S
H1635 C1647 0.959 . S
H1636 C1650 0.929 . S
H1637 C1651 0.931 . S
H1638 C1653 0.930 . S
C1639 H1627 0.930 . S
C1639 C1640 1.399 . S
C1639 C1644 1.399 . S
C1640 C1639 1.399 . S
C1640 C1641 1.376 . S
C1641 H1628 0.930 . S
C1641 C1640 1.376 . S
C1641 C1642 1.388 . S
C1642 H1629 0.930 . S
C1642 C1641 1.388 . S
C1642 C1643 1.390 . S
C1643 C1642 1.390 . S
C1643 C1644 1.394 . S
C1643 C1649 1.465 . S
C1644 C1639 1.399 . S
C1644 C1643 1.394 . S
C1644 C1645 1.516 . S
C1645 C1644 1.516 . S
C1645 C1646 1.502 . S
C1645 C1647 1.561 . S
C1645 C1648 1.526 . S
C1646 H1630 0.959 . S
C1646 H1631 0.959 . S
C1646 H1632 0.961 . S
C1646 C1645 1.502 . S
C1647 H1633 0.960 . S
C1647 H1634 0.961 . S
C1647 H1635 0.959 . S
C1647 C1645 1.561 . S
C1648 C1645 1.526 . S
C1648 C1649 1.396 . S
C1648 C1653 1.390 . S
C1649 C1643 1.465 . S
C1649 C1648 1.396 . S
C1649 C1650 1.399 . S
C1650 H1636 0.929 . S
C1650 C1649 1.399 . S
C1650 C1651 1.385 . S
C1651 H1637 0.931 . S
C1651 C1650 1.385 . S
C1651 C1652 1.389 . S
C1652 C1651 1.389 . S
C1652 C1653 1.387 . S
C1653 H1638 0.930 . S
C1653 C1648 1.390 . S
C1653 C1652 1.387 . S
H1654 C1666 0.930 . S
H1655 C1668 0.930 . S
H1656 C1669 0.930 . S
H1657 C1673 0.959 . S
H1658 C1673 0.959 . S
H1659 C1673 0.961 . S
H1660 C1674 0.960 . S
H1661 C1674 0.961 . S
H1662 C1674 0.959 . S
H1663 C1677 0.929 . S
H1664 C1678 0.931 . S
H1665 C1680 0.930 . S
C1666 H1654 0.930 . S
C1666 C1667 1.399 . S
C1666 C1671 1.399 . S
C1667 C1666 1.399 . S
C1667 C1668 1.376 . S
C1668 H1655 0.930 . S
C1668 C1667 1.376 . S
C1668 C1669 1.388 . S
C1669 H1656 0.930 . S
C1669 C1668 1.388 . S
C1669 C1670 1.390 . S
C1670 C1669 1.390 . S
C1670 C1671 1.394 . S
C1670 C1676 1.465 . S
C1671 C1666 1.399 . S
C1671 C1670 1.394 . S
C1671 C1672 1.516 . S
C1672 C1671 1.516 . S
C1672 C1673 1.502 . S
C1672 C1674 1.561 . S
C1672 C1675 1.526 . S
C1673 H1657 0.959 . S
C1673 H1658 0.959 . S
C1673 H1659 0.961 . S
C1673 C1672 1.502 . S
C1674 H1660 0.960 . S
C1674 H1661 0.961 . S
C1674 H1662 0.959 . S
C1674 C1672 1.561 . S
C1675 C1672 1.526 . S
C1675 C1676 1.396 . S
C1675 C1680 1.390 . S
C1676 C1670 1.465 . S
C1676 C1675 1.396 . S
C1676 C1677 1.399 . S
C1677 H1663 0.929 . S
C1677 C1676 1.399 . S
C1677 C1678 1.385 . S
C1678 H1664 0.931 . S
C1678 C1677 1.385 . S
C1678 C1679 1.389 . S
C1679 C1678 1.389 . S
C1679 C1680 1.387 . S
C1680 H1665 0.930 . S
C1680 C1675 1.390 . S
C1680 C1679 1.387 . S
H1681 C1693 0.930 . S
H1682 C1695 0.930 . S
H1683 C1696 0.930 . S
H1684 C1700 0.959 . S
H1685 C1700 0.959 . S
H1686 C1700 0.961 . S
H1687 C1701 0.960 . S
H1688 C1701 0.961 . S
H1689 C1701 0.959 . S
H1690 C1704 0.929 . S
H1691 C1705 0.931 . S
H1692 C1707 0.930 . S
C1693 H1681 0.930 . S
C1693 C1694 1.399 . S
C1693 C1698 1.399 . S
C1694 C1693 1.399 . S
C1694 C1695 1.376 . S
C1695 H1682 0.930 . S
C1695 C1694 1.376 . S
C1695 C1696 1.388 . S
C1696 H1683 0.930 . S
C1696 C1695 1.388 . S
C1696 C1697 1.390 . S
C1697 C1696 1.390 . S
C1697 C1698 1.394 . S
C1697 C1703 1.465 . S
C1698 C1693 1.399 . S
C1698 C1697 1.394 . S
C1698 C1699 1.516 . S
C1699 C1698 1.516 . S
C1699 C1700 1.502 . S
C1699 C1701 1.561 . S
C1699 C1702 1.526 . S
C1700 H1684 0.959 . S
C1700 H1685 0.959 . S
C1700 H1686 0.961 . S
C1700 C1699 1.502 . S
C1701 H1687 0.960 . S
C1701 H1688 0.961 . S
C1701 H1689 0.959 . S
C1701 C1699 1.561 . S
C1702 C1699 1.526 . S
C1702 C1703 1.396 . S
C1702 C1707 1.390 . S
C1703 C1697 1.465 . S
C1703 C1702 1.396 . S
C1703 C1704 1.399 . S
C1704 H1690 0.929 . S
C1704 C1703 1.399 . S
C1704 C1705 1.385 . S
C1705 H1691 0.931 . S
C1705 C1704 1.385 . S
C1705 C1706 1.389 . S
C1706 C1705 1.389 . S
C1706 C1707 1.387 . S
C1707 H1692 0.930 . S
C1707 C1702 1.390 . S
C1707 C1706 1.387 . S
H1708 C1720 0.930 . S
H1709 C1722 0.930 . S
H1710 C1723 0.930 . S
H1711 C1727 0.959 . S
H1712 C1727 0.959 . S
H1713 C1727 0.961 . S
H1714 C1728 0.960 . S
H1715 C1728 0.961 . S
H1716 C1728 0.959 . S
H1717 C1731 0.929 . S
H1718 C1732 0.931 . S
H1719 C1734 0.930 . S
C1720 H1708 0.930 . S
C1720 C1721 1.399 . S
C1720 C1725 1.399 . S
C1721 C1720 1.399 . S
C1721 C1722 1.376 . S
C1722 H1709 0.930 . S
C1722 C1721 1.376 . S
C1722 C1723 1.388 . S
C1723 H1710 0.930 . S
C1723 C1722 1.388 . S
C1723 C1724 1.390 . S
C1724 C1723 1.390 . S
C1724 C1725 1.394 . S
C1724 C1730 1.465 . S
C1725 C1720 1.399 . S
C1725 C1724 1.394 . S
C1725 C1726 1.516 . S
C1726 C1725 1.516 . S
C1726 C1727 1.502 . S
C1726 C1728 1.561 . S
C1726 C1729 1.526 . S
C1727 H1711 0.959 . S
C1727 H1712 0.959 . S
C1727 H1713 0.961 . S
C1727 C1726 1.502 . S
C1728 H1714 0.960 . S
C1728 H1715 0.961 . S
C1728 H1716 0.959 . S
C1728 C1726 1.561 . S
C1729 C1726 1.526 . S
C1729 C1730 1.396 . S
C1729 C1734 1.390 . S
C1730 C1724 1.465 . S
C1730 C1729 1.396 . S
C1730 C1731 1.399 . S
C1731 H1717 0.929 . S
C1731 C1730 1.399 . S
C1731 C1732 1.385 . S
C1732 H1718 0.931 . S
C1732 C1731 1.385 . S
C1732 C1733 1.389 . S
C1733 C1732 1.389 . S
C1733 C1734 1.387 . S
C1734 H1719 0.930 . S
C1734 C1729 1.390 . S
C1734 C1733 1.387 . S
H1735 C1747 0.930 . S
H1736 C1749 0.930 . S
H1737 C1750 0.930 . S
H1738 C1754 0.959 . S
H1739 C1754 0.959 . S
H1740 C1754 0.961 . S
H1741 C1755 0.960 . S
H1742 C1755 0.961 . S
H1743 C1755 0.959 . S
H1744 C1758 0.929 . S
H1745 C1759 0.931 . S
H1746 C1761 0.930 . S
C1747 H1735 0.930 . S
C1747 C1748 1.399 . S
C1747 C1752 1.399 . S
C1748 C1747 1.399 . S
C1748 C1749 1.376 . S
C1749 H1736 0.930 . S
C1749 C1748 1.376 . S
C1749 C1750 1.388 . S
C1750 H1737 0.930 . S
C1750 C1749 1.388 . S
C1750 C1751 1.390 . S
C1751 C1750 1.390 . S
C1751 C1752 1.394 . S
C1751 C1757 1.465 . S
C1752 C1747 1.399 . S
C1752 C1751 1.394 . S
C1752 C1753 1.516 . S
C1753 C1752 1.516 . S
C1753 C1754 1.502 . S
C1753 C1755 1.561 . S
C1753 C1756 1.526 . S
C1754 H1738 0.959 . S
C1754 H1739 0.959 . S
C1754 H1740 0.961 . S
C1754 C1753 1.502 . S
C1755 H1741 0.960 . S
C1755 H1742 0.961 . S
C1755 H1743 0.959 . S
C1755 C1753 1.561 . S
C1756 C1753 1.526 . S
C1756 C1757 1.396 . S
C1756 C1761 1.390 . S
C1757 C1751 1.465 . S
C1757 C1756 1.396 . S
C1757 C1758 1.399 . S
C1758 H1744 0.929 . S
C1758 C1757 1.399 . S
C1758 C1759 1.385 . S
C1759 H1745 0.931 . S
C1759 C1758 1.385 . S
C1759 C1760 1.389 . S
C1760 C1759 1.389 . S
C1760 C1761 1.387 . S
C1761 H1746 0.930 . S
C1761 C1756 1.390 . S
C1761 C1760 1.387 . S
H1762 C1774 0.930 . S
H1763 C1776 0.930 . S
H1764 C1777 0.930 . S
H1765 C1781 0.959 . S
H1766 C1781 0.959 . S
H1767 C1781 0.961 . S
H1768 C1782 0.960 . S
H1769 C1782 0.961 . S
H1770 C1782 0.959 . S
H1771 C1785 0.929 . S
H1772 C1786 0.931 1_554 S
H1773 C1788 0.930 . S
C1774 H1762 0.930 . S
C1774 C1775 1.399 . S
C1774 C1779 1.399 . S
C1775 C1774 1.399 . S
C1775 C1776 1.376 . S
C1776 H1763 0.930 . S
C1776 C1775 1.376 . S
C1776 C1777 1.388 . S
C1777 H1764 0.930 . S
C1777 C1776 1.388 . S
C1777 C1778 1.390 . S
C1778 C1777 1.390 . S
C1778 C1779 1.394 . S
C1778 C1784 1.465 . S
C1779 C1774 1.399 . S
C1779 C1778 1.394 . S
C1779 C1780 1.516 . S
C1780 C1779 1.516 . S
C1780 C1781 1.502 . S
C1780 C1782 1.561 . S
C1780 C1783 1.526 . S
C1781 H1765 0.959 . S
C1781 H1766 0.959 . S
C1781 H1767 0.961 . S
C1781 C1780 1.502 . S
C1782 H1768 0.960 . S
C1782 H1769 0.961 . S
C1782 H1770 0.959 . S
C1782 C1780 1.561 . S
C1783 C1780 1.526 . S
C1783 C1784 1.396 . S
C1783 C1788 1.390 . S
C1784 C1778 1.465 . S
C1784 C1783 1.396 . S
C1784 C1785 1.399 . S
C1785 H1771 0.929 . S
C1785 C1784 1.399 . S
C1785 C1786 1.385 . S
C1786 H1772 0.931 1_556 S
C1786 C1785 1.385 . S
C1786 C1787 1.389 . S
C1787 C1786 1.389 . S
C1787 C1788 1.387 . S
C1788 H1773 0.930 . S
C1788 C1783 1.390 . S
C1788 C1787 1.387 . S
H1789 C1801 0.930 . S
H1790 C1803 0.930 . S
H1791 C1804 0.930 . S
H1792 C1808 0.959 . S
H1793 C1808 0.959 . S
H1794 C1808 0.961 . S
H1795 C1809 0.960 . S
H1796 C1809 0.961 . S
H1797 C1809 0.959 . S
H1798 C1812 0.929 . S
H1799 C1813 0.931 . S
H1800 C1815 0.930 . S
C1801 H1789 0.930 . S
C1801 C1802 1.399 . S
C1801 C1806 1.399 . S
C1802 C1801 1.399 . S
C1802 C1803 1.376 . S
C1803 H1790 0.930 . S
C1803 C1802 1.376 . S
C1803 C1804 1.388 . S
C1804 H1791 0.930 . S
C1804 C1803 1.388 . S
C1804 C1805 1.390 . S
C1805 C1804 1.390 . S
C1805 C1806 1.394 . S
C1805 C1811 1.465 . S
C1806 C1801 1.399 . S
C1806 C1805 1.394 . S
C1806 C1807 1.516 . S
C1807 C1806 1.516 . S
C1807 C1808 1.502 . S
C1807 C1809 1.561 . S
C1807 C1810 1.526 . S
C1808 H1792 0.959 . S
C1808 H1793 0.959 . S
C1808 H1794 0.961 . S
C1808 C1807 1.502 . S
C1809 H1795 0.960 . S
C1809 H1796 0.961 . S
C1809 H1797 0.959 . S
C1809 C1807 1.561 . S
C1810 C1807 1.526 . S
C1810 C1811 1.396 . S
C1810 C1815 1.390 . S
C1811 C1805 1.465 . S
C1811 C1810 1.396 . S
C1811 C1812 1.399 . S
C1812 H1798 0.929 . S
C1812 C1811 1.399 . S
C1812 C1813 1.385 . S
C1813 H1799 0.931 . S
C1813 C1812 1.385 . S
C1813 C1814 1.389 . S
C1814 C1813 1.389 . S
C1814 C1815 1.387 . S
C1815 H1800 0.930 . S
C1815 C1810 1.390 . S
C1815 C1814 1.387 . S
H1816 C1828 0.930 . S
H1817 C1830 0.930 . S
H1818 C1831 0.930 . S
H1819 C1835 0.959 1_545 S
H1820 C1835 0.959 . S
H1821 C1835 0.961 . S
H1822 C1836 0.960 . S
H1823 C1836 0.961 . S
H1824 C1836 0.959 . S
H1825 C1839 0.929 . S
H1826 C1840 0.931 . S
H1827 C1842 0.930 1_565 S
C1828 H1816 0.930 . S
C1828 C1829 1.399 1_565 S
C1828 C1833 1.396 1_565 S
C1829 C1828 1.399 1_545 S
C1829 C1830 1.376 . S
C1830 H1817 0.930 . S
C1830 C1829 1.376 . S
C1830 C1831 1.388 . S
C1831 H1818 0.930 . S
C1831 C1830 1.388 . S
C1831 C1832 1.390 . S
C1832 C1831 1.390 . S
C1832 C1833 1.413 . S
C1832 C1838 1.465 . S
C1833 C1828 1.396 1_545 S
C1833 C1832 1.413 . S
C1833 C1834 1.503 1_545 S
C1834 C1833 1.503 1_565 S
C1834 C1835 1.502 . S
C1834 C1836 1.561 . S
C1834 C1837 1.526 1_565 S
C1835 H1819 0.959 1_565 S
C1835 H1820 0.959 . S
C1835 H1821 0.961 . S
C1835 C1834 1.502 . S
C1836 H1822 0.960 . S
C1836 H1823 0.961 . S
C1836 H1824 0.959 . S
C1836 C1834 1.561 . S
C1837 C1834 1.526 1_545 S
C1837 C1838 1.396 . S
C1837 C1842 1.390 . S
C1838 C1832 1.465 . S
C1838 C1837 1.396 . S
C1838 C1839 1.399 . S
C1839 H1825 0.929 . S
C1839 C1838 1.399 . S
C1839 C1840 1.385 . S
C1840 H1826 0.931 . S
C1840 C1839 1.385 . S
C1840 C1841 1.389 . S
C1841 C1840 1.389 . S
C1841 C1842 1.387 . S
C1842 H1827 0.930 1_545 S
C1842 C1837 1.390 . S
C1842 C1841 1.387 . S
H1843 C1855 0.930 . S
H1844 C1857 0.930 . S
H1845 C1858 0.930 . S
H1846 C1862 0.959 . S
H1847 C1862 0.959 . S
H1848 C1862 0.961 . S
H1849 C1863 0.960 . S
H1850 C1863 0.961 . S
H1851 C1863 0.959 . S
H1852 C1866 0.929 . S
H1853 C1867 0.931 . S
H1854 C1869 0.930 . S
C1855 H1843 0.930 . S
C1855 C1856 1.399 . S
C1855 C1860 1.399 . S
C1856 C1855 1.399 . S
C1856 C1857 1.376 . S
C1857 H1844 0.930 . S
C1857 C1856 1.376 . S
C1857 C1858 1.388 . S
C1858 H1845 0.930 . S
C1858 C1857 1.388 . S
C1858 C1859 1.390 . S
C1859 C1858 1.390 . S
C1859 C1860 1.394 . S
C1859 C1865 1.465 . S
C1860 C1855 1.399 . S
C1860 C1859 1.394 . S
C1860 C1861 1.516 . S
C1861 C1860 1.516 . S
C1861 C1862 1.502 . S
C1861 C1863 1.561 . S
C1861 C1864 1.526 . S
C1862 H1846 0.959 . S
C1862 H1847 0.959 . S
C1862 H1848 0.961 . S
C1862 C1861 1.502 . S
C1863 H1849 0.960 . S
C1863 H1850 0.961 . S
C1863 H1851 0.959 . S
C1863 C1861 1.561 . S
C1864 C1861 1.526 . S
C1864 C1865 1.396 . S
C1864 C1869 1.390 . S
C1865 C1859 1.465 . S
C1865 C1864 1.396 . S
C1865 C1866 1.399 . S
C1866 H1852 0.929 . S
C1866 C1865 1.399 . S
C1866 C1867 1.385 . S
C1867 H1853 0.931 . S
C1867 C1866 1.385 . S
C1867 C1868 1.389 . S
C1868 C1867 1.389 . S
C1868 C1869 1.387 . S
C1869 H1854 0.930 . S
C1869 C1864 1.390 . S
C1869 C1868 1.387 . S
H1870 C1882 0.930 . S
H1871 C1884 0.930 . S
H1872 C1885 0.930 . S
H1873 C1889 0.959 . S
H1874 C1889 0.959 . S
H1875 C1889 0.961 . S
H1876 C1890 0.960 . S
H1877 C1890 0.961 . S
H1878 C1890 0.959 . S
H1879 C1893 0.929 . S
H1880 C1894 0.931 . S
H1881 C1896 0.977 . S
C1882 H1870 0.930 . S
C1882 C1883 1.399 1_565 S
C1882 C1887 1.399 1_565 S
C1883 C1882 1.399 1_545 S
C1883 C1884 1.376 . S
C1884 H1871 0.930 . S
C1884 C1883 1.376 . S
C1884 C1885 1.388 . S
C1885 H1872 0.930 . S
C1885 C1884 1.388 . S
C1885 C1886 1.390 . S
C1886 C1885 1.390 . S
C1886 C1887 1.394 . S
C1886 C1892 1.465 . S
C1887 C1882 1.399 1_545 S
C1887 C1886 1.394 . S
C1887 C1888 1.516 1_545 S
C1888 C1887 1.516 1_565 S
C1888 C1889 1.502 . S
C1888 C1890 1.561 . S
C1888 C1891 1.526 1_565 S
C1889 H1873 0.959 . S
C1889 H1874 0.959 . S
C1889 H1875 0.961 . S
C1889 C1888 1.502 . S
C1890 H1876 0.960 . S
C1890 H1877 0.961 . S
C1890 H1878 0.959 . S
C1890 C1888 1.561 . S
C1891 C1888 1.526 1_545 S
C1891 C1892 1.396 . S
C1891 C1896 1.390 . S
C1892 C1886 1.465 . S
C1892 C1891 1.396 . S
C1892 C1893 1.399 . S
C1893 H1879 0.929 . S
C1893 C1892 1.399 . S
C1893 C1894 1.385 . S
C1894 H1880 0.931 . S
C1894 C1893 1.385 . S
C1894 C1895 1.389 . S
C1895 C1894 1.389 . S
C1895 C1896 1.387 . S
C1896 H1881 0.977 . S
C1896 C1891 1.390 . S
C1896 C1895 1.387 . S
H1897 C1909 0.930 . S
H1898 C1911 0.930 . S
H1899 C1912 0.930 . S
H1900 C1916 0.959 . S
H1901 C1916 0.959 . S
H1902 C1916 0.961 . S
H1903 C1917 0.960 . S
H1904 C1917 0.961 . S
H1905 C1917 0.959 . S
H1906 C1920 0.929 . S
H1907 C1921 0.931 . S
H1908 C1923 0.930 . S
C1909 H1897 0.930 . S
C1909 C1910 1.399 . S
C1909 C1914 1.399 . S
C1910 C1909 1.399 . S
C1910 C1911 1.376 . S
C1911 H1898 0.930 . S
C1911 C1910 1.376 . S
C1911 C1912 1.388 . S
C1912 H1899 0.930 . S
C1912 C1911 1.388 . S
C1912 C1913 1.390 . S
C1913 C1912 1.390 . S
C1913 C1914 1.394 . S
C1913 C1919 1.465 . S
C1914 C1909 1.399 . S
C1914 C1913 1.394 . S
C1914 C1915 1.516 . S
C1915 C1914 1.516 . S
C1915 C1916 1.502 . S
C1915 C1917 1.561 . S
C1915 C1918 1.526 . S
C1916 H1900 0.959 . S
C1916 H1901 0.959 . S
C1916 H1902 0.961 . S
C1916 C1915 1.502 . S
C1917 H1903 0.960 . S
C1917 H1904 0.961 . S
C1917 H1905 0.959 . S
C1917 C1915 1.561 . S
C1918 C1915 1.526 . S
C1918 C1919 1.396 . S
C1918 C1923 1.390 . S
C1919 C1913 1.465 . S
C1919 C1918 1.396 . S
C1919 C1920 1.399 . S
C1920 H1906 0.929 . S
C1920 C1919 1.399 . S
C1920 C1921 1.385 . S
C1921 H1907 0.931 . S
C1921 C1920 1.385 . S
C1921 C1922 1.389 . S
C1922 C1921 1.389 . S
C1922 C1923 1.387 . S
C1923 H1908 0.930 . S
C1923 C1918 1.390 . S
C1923 C1922 1.387 . S
H1924 C1936 0.930 . S
H1925 C1938 0.929 1_565 S
H1926 C1939 0.930 . S
H1927 C1943 0.959 . S
H1928 C1943 0.959 . S
H1929 C1943 0.961 . S
H1930 C1944 0.960 . S
H1931 C1944 0.961 . S
H1932 C1944 0.959 . S
H1933 C1947 0.929 . S
H1934 C1948 0.931 . S
H1935 C1950 0.930 . S
C1936 H1924 0.930 . S
C1936 C1937 1.399 . S
C1936 C1941 1.399 . S
C1937 C1936 1.399 . S
C1937 C1938 1.376 . S
C1938 H1925 0.929 1_545 S
C1938 C1937 1.376 . S
C1938 C1939 1.388 . S
C1939 H1926 0.930 . S
C1939 C1938 1.388 . S
C1939 C1940 1.390 . S
C1940 C1939 1.390 . S
C1940 C1941 1.394 . S
C1940 C1946 1.465 . S
C1941 C1936 1.399 . S
C1941 C1940 1.394 . S
C1941 C1942 1.516 . S
C1942 C1941 1.516 . S
C1942 C1943 1.502 . S
C1942 C1944 1.561 1_545 S
C1942 C1945 1.526 . S
C1943 H1927 0.959 . S
C1943 H1928 0.959 . S
C1943 H1929 0.961 . S
C1943 C1942 1.502 . S
C1944 H1930 0.960 . S
C1944 H1931 0.961 . S
C1944 H1932 0.959 . S
C1944 C1942 1.561 1_565 S
C1945 C1942 1.526 . S
C1945 C1946 1.396 . S
C1945 C1950 1.390 . S
C1946 C1940 1.465 . S
C1946 C1945 1.396 . S
C1946 C1947 1.399 . S
C1947 H1933 0.929 . S
C1947 C1946 1.399 . S
C1947 C1948 1.385 . S
C1948 H1934 0.931 . S
C1948 C1947 1.385 . S
C1948 C1949 1.389 . S
C1949 C1948 1.389 . S
C1949 C1950 1.387 . S
C1950 H1935 0.930 . S
C1950 C1945 1.390 . S
C1950 C1949 1.387 . S
H1951 C1963 0.930 . S
H1952 C1965 0.930 . S
H1953 C1966 0.930 . S
H1954 C1970 0.959 . S
H1955 C1970 0.959 . S
H1956 C1970 0.961 . S
H1957 C1971 0.960 . S
H1958 C1971 0.961 . S
H1959 C1971 0.959 . S
H1960 C1974 0.929 . S
H1961 C1975 0.931 . S
H1962 C1977 0.930 . S
C1963 H1951 0.930 . S
C1963 C1964 1.399 . S
C1963 C1968 1.399 . S
C1964 C1963 1.399 . S
C1964 C1965 1.376 . S
C1965 H1952 0.930 . S
C1965 C1964 1.376 . S
C1965 C1966 1.388 . S
C1966 H1953 0.930 . S
C1966 C1965 1.388 . S
C1966 C1967 1.390 . S
C1967 C1966 1.390 . S
C1967 C1968 1.394 . S
C1967 C1973 1.465 . S
C1968 C1963 1.399 . S
C1968 C1967 1.394 . S
C1968 C1969 1.516 . S
C1969 C1968 1.516 . S
C1969 C1970 1.502 . S
C1969 C1971 1.561 . S
C1969 C1972 1.526 . S
C1970 H1954 0.959 . S
C1970 H1955 0.959 . S
C1970 H1956 0.961 . S
C1970 C1969 1.502 . S
C1971 H1957 0.960 . S
C1971 H1958 0.961 . S
C1971 H1959 0.959 . S
C1971 C1969 1.561 . S
C1972 C1969 1.526 . S
C1972 C1973 1.396 . S
C1972 C1977 1.390 . S
C1973 C1967 1.465 . S
C1973 C1972 1.396 . S
C1973 C1974 1.399 . S
C1974 H1960 0.929 . S
C1974 C1973 1.399 . S
C1974 C1975 1.385 . S
C1975 H1961 0.931 . S
C1975 C1974 1.385 . S
C1975 C1976 1.389 . S
C1976 C1975 1.389 . S
C1976 C1977 1.387 . S
C1977 H1962 0.930 . S
C1977 C1972 1.390 . S
C1977 C1976 1.387 . S
H1978 C1990 0.930 . S
H1979 C1992 0.930 . S
H1980 C1993 0.930 . S
H1981 C1997 0.959 1_545 S
H1982 C1997 0.959 . S
H1983 C1997 0.961 . S
H1984 C1998 0.960 . S
H1985 C1998 0.961 . S
H1986 C1998 0.959 . S
H1987 C2001 0.953 . S
H1988 C2002 0.931 . S
H1989 C2004 0.930 . S
C1990 H1978 0.930 . S
C1990 C1991 1.407 . S
C1990 C1995 1.399 . S
C1991 C1990 1.407 . S
C1991 C1992 1.369 1_565 S
C1992 H1979 0.930 . S
C1992 C1991 1.369 1_545 S
C1992 C1993 1.388 . S
C1993 H1980 0.930 . S
C1993 C1992 1.388 . S
C1993 C1994 1.390 1_545 S
C1994 C1993 1.390 1_565 S
C1994 C1995 1.394 . S
C1994 C2000 1.465 . S
C1995 C1990 1.399 . S
C1995 C1994 1.394 . S
C1995 C1996 1.516 . S
C1996 C1995 1.516 . S
C1996 C1997 1.502 . S
C1996 C1998 1.561 . S
C1996 C1999 1.526 . S
C1997 H1981 0.959 1_565 S
C1997 H1982 0.959 . S
C1997 H1983 0.961 . S
C1997 C1996 1.502 . S
C1998 H1984 0.960 . S
C1998 H1985 0.961 . S
C1998 H1986 0.959 . S
C1998 C1996 1.561 . S
C1999 C1996 1.526 . S
C1999 C2000 1.396 . S
C1999 C2004 1.390 . S
C2000 C1994 1.465 . S
C2000 C1999 1.396 . S
C2000 C2001 1.399 . S
C2001 H1987 0.953 . S
C2001 C2000 1.399 . S
C2001 C2002 1.385 . S
C2002 H1988 0.931 . S
C2002 C2001 1.385 . S
C2002 C2003 1.389 . S
C2003 C2002 1.389 . S
C2003 C2004 1.387 . S
C2004 H1989 0.930 . S
C2004 C1999 1.390 . S
C2004 C2003 1.387 . S
H2005 C2017 0.930 . S
H2006 C2019 0.930 . S
H2007 C2020 0.930 . S
H2008 C2024 0.959 . S
H2009 C2024 0.959 . S
H2010 C2024 0.961 . S
H2011 C2025 0.960 . S
H2012 C2025 0.961 . S
H2013 C2025 0.959 . S
H2014 C2028 0.929 . S
H2015 C2029 0.931 . S
H2016 C2031 0.930 . S
C2017 H2005 0.930 . S
C2017 C2018 1.399 . S
C2017 C2022 1.399 . S
C2018 C2017 1.399 . S
C2018 C2019 1.376 . S
C2019 H2006 0.930 . S
C2019 C2018 1.376 . S
C2019 C2020 1.388 . S
C2020 H2007 0.930 . S
C2020 C2019 1.388 . S
C2020 C2021 1.390 . S
C2021 C2020 1.390 . S
C2021 C2022 1.394 . S
C2021 C2027 1.465 . S
C2022 C2017 1.399 . S
C2022 C2021 1.394 . S
C2022 C2023 1.516 . S
C2023 C2022 1.516 . S
C2023 C2024 1.502 . S
C2023 C2025 1.561 . S
C2023 C2026 1.526 . S
C2024 H2008 0.959 . S
C2024 H2009 0.959 . S
C2024 H2010 0.961 . S
C2024 C2023 1.502 . S
C2025 H2011 0.960 . S
C2025 H2012 0.961 . S
C2025 H2013 0.959 . S
C2025 C2023 1.561 . S
C2026 C2023 1.526 . S
C2026 C2027 1.396 . S
C2026 C2031 1.390 . S
C2027 C2021 1.465 . S
C2027 C2026 1.396 . S
C2027 C2028 1.399 . S
C2028 H2014 0.929 . S
C2028 C2027 1.399 . S
C2028 C2029 1.385 . S
C2029 H2015 0.931 . S
C2029 C2028 1.385 . S
C2029 C2030 1.389 . S
C2030 C2029 1.389 . S
C2030 C2031 1.387 . S
C2031 H2016 0.930 . S
C2031 C2026 1.390 . S
C2031 C2030 1.387 . S
H2032 C2044 0.930 . S
H2033 C2046 0.930 . S
H2034 C2047 0.930 . S
H2035 C2051 0.959 . S
H2036 C2051 0.959 . S
H2037 C2051 0.961 . S
H2038 C2052 0.960 . S
H2039 C2052 0.961 . S
H2040 C2052 0.959 . S
H2041 C2055 0.929 . S
H2042 C2056 0.931 . S
H2043 C2058 0.930 1_554 S
C2044 H2032 0.930 . S
C2044 C2045 1.399 . S
C2044 C2049 1.399 . S
C2045 C2044 1.399 . S
C2045 C2046 1.376 1_554 S
C2046 H2033 0.930 . S
C2046 C2045 1.376 1_556 S
C2046 C2047 1.388 . S
C2047 H2034 0.930 . S
C2047 C2046 1.388 . S
C2047 C2048 1.390 . S
C2048 C2047 1.390 . S
C2048 C2049 1.394 1_556 S
C2048 C2054 1.465 . S
C2049 C2044 1.399 . S
C2049 C2048 1.394 1_554 S
C2049 C2050 1.516 . S
C2050 C2049 1.516 . S
C2050 C2051 1.502 . S
C2050 C2052 1.561 . S
C2050 C2053 1.526 1_554 S
C2051 H2035 0.959 . S
C2051 H2036 0.959 . S
C2051 H2037 0.961 . S
C2051 C2050 1.502 . S
C2052 H2038 0.960 . S
C2052 H2039 0.961 . S
C2052 H2040 0.959 . S
C2052 C2050 1.561 . S
C2053 C2050 1.526 1_556 S
C2053 C2054 1.396 . S
C2053 C2058 1.390 . S
C2054 C2048 1.465 . S
C2054 C2053 1.396 . S
C2054 C2055 1.399 . S
C2055 H2041 0.929 . S
C2055 C2054 1.399 . S
C2055 C2056 1.385 . S
C2056 H2042 0.931 . S
C2056 C2055 1.385 . S
C2056 C2057 1.389 . S
C2057 C2056 1.389 . S
C2057 C2058 1.387 . S
C2058 H2043 0.930 1_556 S
C2058 C2053 1.390 . S
C2058 C2057 1.387 . S
H2059 C2071 0.930 1_556 S
H2060 C2073 0.930 . S
H2061 C2074 0.930 . S
H2062 C2078 0.993 . S
H2063 C2078 0.959 . S
H2064 C2078 0.961 . S
H2065 C2079 0.960 . S
H2066 C2079 0.961 . S
H2067 C2079 0.959 . S
H2068 C2082 0.929 . S
H2069 C2083 0.931 . S
H2070 C2085 0.930 1_556 S
C2071 H2059 0.930 1_554 S
C2071 C2072 1.399 . S
C2071 C2076 1.399 . S
C2072 C2071 1.399 . S
C2072 C2073 1.376 . S
C2073 H2060 0.930 . S
C2073 C2072 1.376 . S
C2073 C2074 1.388 . S
C2074 H2061 0.930 . S
C2074 C2073 1.388 . S
C2074 C2075 1.390 . S
C2075 C2074 1.390 . S
C2075 C2076 1.394 . S
C2075 C2081 1.465 . S
C2076 C2071 1.399 . S
C2076 C2075 1.394 . S
C2076 C2077 1.516 1_554 S
C2077 C2076 1.516 1_556 S
C2077 C2078 1.502 . S
C2077 C2079 1.561 . S
C2077 C2080 1.526 1_556 S
C2078 H2062 0.993 . S
C2078 H2063 0.959 . S
C2078 H2064 0.961 . S
C2078 C2077 1.502 . S
C2079 H2065 0.960 . S
C2079 H2066 0.961 . S
C2079 H2067 0.959 . S
C2079 C2077 1.561 . S
C2080 C2077 1.526 1_554 S
C2080 C2081 1.396 . S
C2080 C2085 1.390 . S
C2081 C2075 1.465 . S
C2081 C2080 1.396 . S
C2081 C2082 1.399 . S
C2082 H2068 0.929 . S
C2082 C2081 1.399 . S
C2082 C2083 1.385 . S
C2083 H2069 0.931 . S
C2083 C2082 1.385 . S
C2083 C2084 1.389 . S
C2084 C2083 1.389 . S
C2084 C2085 1.387 . S
C2085 H2070 0.930 1_554 S
C2085 C2080 1.390 . S
C2085 C2084 1.387 . S
H2086 C2098 0.930 . S
H2087 C2100 0.930 . S
H2088 C2101 0.930 . S
H2089 C2105 0.959 . S
H2090 C2105 0.959 . S
H2091 C2105 0.961 . S
H2092 C2106 0.960 . S
H2093 C2106 0.961 . S
H2094 C2106 0.959 . S
H2095 C2109 0.929 . S
H2096 C2110 0.931 . S
H2097 C2112 0.930 . S
C2098 H2086 0.930 . S
C2098 C2099 1.399 . S
C2098 C2103 1.399 . S
C2099 C2098 1.399 . S
C2099 C2100 1.376 . S
C2100 H2087 0.930 . S
C2100 C2099 1.376 . S
C2100 C2101 1.388 . S
C2101 H2088 0.930 . S
C2101 C2100 1.388 . S
C2101 C2102 1.390 . S
C2102 C2101 1.390 . S
C2102 C2103 1.394 . S
C2102 C2108 1.465 . S
C2103 C2098 1.399 . S
C2103 C2102 1.394 . S
C2103 C2104 1.516 . S
C2104 C2103 1.516 . S
C2104 C2105 1.502 . S
C2104 C2106 1.561 . S
C2104 C2107 1.526 . S
C2105 H2089 0.959 . S
C2105 H2090 0.959 . S
C2105 H2091 0.961 . S
C2105 C2104 1.502 . S
C2106 H2092 0.960 . S
C2106 H2093 0.961 . S
C2106 H2094 0.959 . S
C2106 C2104 1.561 . S
C2107 C2104 1.526 . S
C2107 C2108 1.396 . S
C2107 C2112 1.390 . S
C2108 C2102 1.465 . S
C2108 C2107 1.396 . S
C2108 C2109 1.399 . S
C2109 H2095 0.929 . S
C2109 C2108 1.399 . S
C2109 C2110 1.385 . S
C2110 H2096 0.931 . S
C2110 C2109 1.385 . S
C2110 C2111 1.389 . S
C2111 C2110 1.389 . S
C2111 C2112 1.387 . S
C2112 H2097 0.930 . S
C2112 C2107 1.390 . S
C2112 C2111 1.387 . S
H2113 C2125 0.930 . S
H2114 C2127 0.930 . S
H2115 C2128 0.930 . S
H2116 C2132 0.959 . S
H2117 C2132 0.959 . S
H2118 C2132 0.961 . S
H2119 C2133 0.960 . S
H2120 C2133 0.961 . S
H2121 C2133 0.959 . S
H2122 C2136 0.929 . S
H2123 C2137 0.931 . S
H2124 C2139 0.930 . S
C2125 H2113 0.930 . S
C2125 C2126 1.399 . S
C2125 C2130 1.399 . S
C2126 C2125 1.399 . S
C2126 C2127 1.376 . S
C2127 H2114 0.930 . S
C2127 C2126 1.376 . S
C2127 C2128 1.388 . S
C2128 H2115 0.930 . S
C2128 C2127 1.388 . S
C2128 C2129 1.390 . S
C2129 C2128 1.390 . S
C2129 C2130 1.394 . S
C2129 C2135 1.465 . S
C2130 C2125 1.399 . S
C2130 C2129 1.394 . S
C2130 C2131 1.516 . S
C2131 C2130 1.516 . S
C2131 C2132 1.502 . S
C2131 C2133 1.561 . S
C2131 C2134 1.526 . S
C2132 H2116 0.959 . S
C2132 H2117 0.959 . S
C2132 H2118 0.961 . S
C2132 C2131 1.502 . S
C2133 H2119 0.960 . S
C2133 H2120 0.961 . S
C2133 H2121 0.959 . S
C2133 C2131 1.561 . S
C2134 C2131 1.526 . S
C2134 C2135 1.396 . S
C2134 C2139 1.390 . S
C2135 C2129 1.465 . S
C2135 C2134 1.396 . S
C2135 C2136 1.399 . S
C2136 H2122 0.929 . S
C2136 C2135 1.399 . S
C2136 C2137 1.385 . S
C2137 H2123 0.931 . S
C2137 C2136 1.385 . S
C2137 C2138 1.389 . S
C2138 C2137 1.389 . S
C2138 C2139 1.387 . S
C2139 H2124 0.930 . S
C2139 C2134 1.390 . S
C2139 C2138 1.387 . S
H2140 C2152 0.930 . S
H2141 C2154 0.930 . S
H2142 C2155 0.930 . S
H2143 C2159 0.959 . S
H2144 C2159 0.959 . S
H2145 C2159 0.961 . S
H2146 C2160 0.960 . S
H2147 C2160 0.961 . S
H2148 C2160 0.959 1_565 S
H2149 C2163 0.929 . S
H2150 C2164 0.931 . S
H2151 C2166 0.930 . S
C2152 H2140 0.930 . S
C2152 C2153 1.399 . S
C2152 C2157 1.399 1_545 S
C2153 C2152 1.399 . S
C2153 C2154 1.376 1_545 S
C2154 H2141 0.930 . S
C2154 C2153 1.376 1_565 S
C2154 C2155 1.388 . S
C2155 H2142 0.930 . S
C2155 C2154 1.388 . S
C2155 C2156 1.390 . S
C2156 C2155 1.390 . S
C2156 C2157 1.394 . S
C2156 C2162 1.465 . S
C2157 C2152 1.399 1_565 S
C2157 C2156 1.394 . S
C2157 C2158 1.510 . S
C2158 C2157 1.510 . S
C2158 C2159 1.488 1_565 S
C2158 C2160 1.560 1_565 S
C2158 C2161 1.549 . S
C2159 H2143 0.959 . S
C2159 H2144 0.959 . S
C2159 H2145 0.961 . S
C2159 C2158 1.488 1_545 S
C2160 H2146 0.960 . S
C2160 H2147 0.961 . S
C2160 H2148 0.959 1_545 S
C2160 C2158 1.560 1_545 S
C2161 C2158 1.549 . S
C2161 C2162 1.396 . S
C2161 C2166 1.390 . S
C2162 C2156 1.465 . S
C2162 C2161 1.396 . S
C2162 C2163 1.399 . S
C2163 H2149 0.929 . S
C2163 C2162 1.399 . S
C2163 C2164 1.385 . S
C2164 H2150 0.931 . S
C2164 C2163 1.385 . S
C2164 C2165 1.389 . S
C2165 C2164 1.389 . S
C2165 C2166 1.387 . S
C2166 H2151 0.930 . S
C2166 C2161 1.390 . S
C2166 C2165 1.387 . S
H2167 C2179 0.930 . S
H2168 C2181 0.930 . S
H2169 C2182 0.930 . S
H2170 C2186 0.959 . S
H2171 C2186 0.959 . S
H2172 C2186 0.961 . S
H2173 C2187 0.960 . S
H2174 C2187 0.961 . S
H2175 C2187 0.959 . S
H2176 C2190 0.929 . S
H2177 C2191 0.931 . S
H2178 C2193 0.930 . S
C2179 H2167 0.930 . S
C2179 C2180 1.399 . S
C2179 C2184 1.399 . S
C2180 C2179 1.399 . S
C2180 C2181 1.376 . S
C2181 H2168 0.930 . S
C2181 C2180 1.376 . S
C2181 C2182 1.388 . S
C2182 H2169 0.930 . S
C2182 C2181 1.388 . S
C2182 C2183 1.390 . S
C2183 C2182 1.390 . S
C2183 C2184 1.394 . S
C2183 C2189 1.465 . S
C2184 C2179 1.399 . S
C2184 C2183 1.394 . S
C2184 C2185 1.516 . S
C2185 C2184 1.516 . S
C2185 C2186 1.502 . S
C2185 C2187 1.561 . S
C2185 C2188 1.526 . S
C2186 H2170 0.959 . S
C2186 H2171 0.959 . S
C2186 H2172 0.961 . S
C2186 C2185 1.502 . S
C2187 H2173 0.960 . S
C2187 H2174 0.961 . S
C2187 H2175 0.959 . S
C2187 C2185 1.561 . S
C2188 C2185 1.526 . S
C2188 C2189 1.396 . S
C2188 C2193 1.390 . S
C2189 C2183 1.465 . S
C2189 C2188 1.396 . S
C2189 C2190 1.399 . S
C2190 H2176 0.929 . S
C2190 C2189 1.399 . S
C2190 C2191 1.385 . S
C2191 H2177 0.931 . S
C2191 C2190 1.385 . S
C2191 C2192 1.389 . S
C2192 C2191 1.389 . S
C2192 C2193 1.387 . S
C2193 H2178 0.930 . S
C2193 C2188 1.390 . S
C2193 C2192 1.387 . S
H2194 C2206 0.930 . S
H2195 C2208 0.930 . S
H2196 C2209 0.930 . S
H2197 C2213 0.959 . S
H2198 C2213 0.959 . S
H2199 C2213 0.961 . S
H2200 C2214 0.960 . S
H2201 C2214 0.961 . S
H2202 C2214 0.959 . S
H2203 C2217 0.929 . S
H2204 C2218 0.931 . S
H2205 C2220 0.930 . S
C2206 H2194 0.930 . S
C2206 C2207 1.399 . S
C2206 C2211 1.399 . S
C2207 C2206 1.399 . S
C2207 C2208 1.376 . S
C2208 H2195 0.930 . S
C2208 C2207 1.376 . S
C2208 C2209 1.388 . S
C2209 H2196 0.930 . S
C2209 C2208 1.388 . S
C2209 C2210 1.390 . S
C2210 C2209 1.390 . S
C2210 C2211 1.394 . S
C2210 C2216 1.465 . S
C2211 C2206 1.399 . S
C2211 C2210 1.394 . S
C2211 C2212 1.516 . S
C2212 C2211 1.516 . S
C2212 C2213 1.502 . S
C2212 C2214 1.561 . S
C2212 C2215 1.526 . S
C2213 H2197 0.959 . S
C2213 H2198 0.959 . S
C2213 H2199 0.961 . S
C2213 C2212 1.502 . S
C2214 H2200 0.960 . S
C2214 H2201 0.961 . S
C2214 H2202 0.959 . S
C2214 C2212 1.561 . S
C2215 C2212 1.526 . S
C2215 C2216 1.396 . S
C2215 C2220 1.390 . S
C2216 C2210 1.465 . S
C2216 C2215 1.396 . S
C2216 C2217 1.399 . S
C2217 H2203 0.929 . S
C2217 C2216 1.399 . S
C2217 C2218 1.385 . S
C2218 H2204 0.931 . S
C2218 C2217 1.385 . S
C2218 C2219 1.389 . S
C2219 C2218 1.389 . S
C2219 C2220 1.387 . S
C2220 H2205 0.930 . S
C2220 C2215 1.390 . S
C2220 C2219 1.387 . S
H2221 C2233 0.930 . S
H2222 C2235 0.930 . S
H2223 C2236 0.930 . S
H2224 C2240 0.959 . S
H2225 C2240 0.959 . S
H2226 C2240 0.961 . S
H2227 C2241 0.960 . S
H2228 C2241 0.961 . S
H2229 C2241 0.959 . S
H2230 C2244 0.929 . S
H2231 C2245 0.931 . S
H2232 C2247 0.930 . S
C2233 H2221 0.930 . S
C2233 C2234 1.399 . S
C2233 C2238 1.399 . S
C2234 C2233 1.399 . S
C2234 C2235 1.376 . S
C2235 H2222 0.930 . S
C2235 C2234 1.376 . S
C2235 C2236 1.388 . S
C2236 H2223 0.930 . S
C2236 C2235 1.388 . S
C2236 C2237 1.390 . S
C2237 C2236 1.390 . S
C2237 C2238 1.394 . S
C2237 C2243 1.465 . S
C2238 C2233 1.399 . S
C2238 C2237 1.394 . S
C2238 C2239 1.516 . S
C2239 C2238 1.516 . S
C2239 C2240 1.502 . S
C2239 C2241 1.561 . S
C2239 C2242 1.526 . S
C2240 H2224 0.959 . S
C2240 H2225 0.959 . S
C2240 H2226 0.961 . S
C2240 C2239 1.502 . S
C2241 H2227 0.960 . S
C2241 H2228 0.961 . S
C2241 H2229 0.959 . S
C2241 C2239 1.561 . S
C2242 C2239 1.526 . S
C2242 C2243 1.396 . S
C2242 C2247 1.390 . S
C2243 C2237 1.465 . S
C2243 C2242 1.396 . S
C2243 C2244 1.399 . S
C2244 H2230 0.929 . S
C2244 C2243 1.399 . S
C2244 C2245 1.385 . S
C2245 H2231 0.931 . S
C2245 C2244 1.385 . S
C2245 C2246 1.389 . S
C2246 C2245 1.389 . S
C2246 C2247 1.387 . S
C2247 H2232 0.930 . S
C2247 C2242 1.390 . S
C2247 C2246 1.387 . S
H2248 C2260 0.930 . S
H2249 C2262 0.930 . S
H2250 C2263 0.930 . S
H2251 C2267 0.959 . S
H2252 C2267 0.959 . S
H2253 C2267 0.961 . S
H2254 C2268 0.960 . S
H2255 C2268 0.961 . S
H2256 C2268 0.959 . S
H2257 C2271 0.929 . S
H2258 C2272 0.931 . S
H2259 C2274 0.930 . S
C2260 H2248 0.930 . S
C2260 C2261 1.399 . S
C2260 C2265 1.399 . S
C2261 C2260 1.399 . S
C2261 C2262 1.376 . S
C2262 H2249 0.930 . S
C2262 C2261 1.376 . S
C2262 C2263 1.388 . S
C2263 H2250 0.930 . S
C2263 C2262 1.388 . S
C2263 C2264 1.390 . S
C2264 C2263 1.390 . S
C2264 C2265 1.394 . S
C2264 C2270 1.465 . S
C2265 C2260 1.399 . S
C2265 C2264 1.394 . S
C2265 C2266 1.516 . S
C2266 C2265 1.516 . S
C2266 C2267 1.502 . S
C2266 C2268 1.561 . S
C2266 C2269 1.526 . S
C2267 H2251 0.959 . S
C2267 H2252 0.959 . S
C2267 H2253 0.961 . S
C2267 C2266 1.502 . S
C2268 H2254 0.960 . S
C2268 H2255 0.961 . S
C2268 H2256 0.959 . S
C2268 C2266 1.561 . S
C2269 C2266 1.526 . S
C2269 C2270 1.396 . S
C2269 C2274 1.390 . S
C2270 C2264 1.465 . S
C2270 C2269 1.396 . S
C2270 C2271 1.399 . S
C2271 H2257 0.929 . S
C2271 C2270 1.399 . S
C2271 C2272 1.385 . S
C2272 H2258 0.931 . S
C2272 C2271 1.385 . S
C2272 C2273 1.389 . S
C2273 C2272 1.389 . S
C2273 C2274 1.387 . S
C2274 H2259 0.930 . S
C2274 C2269 1.390 . S
C2274 C2273 1.387 . S
H2275 C2287 0.930 . S
H2276 C2289 0.930 . S
H2277 C2290 0.930 . S
H2278 C2294 0.959 . S
H2279 C2294 0.959 . S
H2280 C2294 0.961 . S
H2281 C2295 0.960 . S
H2282 C2295 0.961 . S
H2283 C2295 0.959 . S
H2284 C2298 0.929 . S
H2285 C2299 0.931 . S
H2286 C2301 0.930 . S
C2287 H2275 0.930 . S
C2287 C2288 1.399 . S
C2287 C2292 1.399 . S
C2288 C2287 1.399 . S
C2288 C2289 1.376 . S
C2289 H2276 0.930 . S
C2289 C2288 1.376 . S
C2289 C2290 1.388 . S
C2290 H2277 0.930 . S
C2290 C2289 1.388 . S
C2290 C2291 1.390 . S
C2291 C2290 1.390 . S
C2291 C2292 1.394 . S
C2291 C2297 1.465 . S
C2292 C2287 1.399 . S
C2292 C2291 1.394 . S
C2292 C2293 1.516 . S
C2293 C2292 1.516 . S
C2293 C2294 1.502 . S
C2293 C2295 1.561 . S
C2293 C2296 1.526 . S
C2294 H2278 0.959 . S
C2294 H2279 0.959 . S
C2294 H2280 0.961 . S
C2294 C2293 1.502 . S
C2295 H2281 0.960 . S
C2295 H2282 0.961 . S
C2295 H2283 0.959 . S
C2295 C2293 1.561 . S
C2296 C2293 1.526 . S
C2296 C2297 1.396 . S
C2296 C2301 1.390 . S
C2297 C2291 1.465 . S
C2297 C2296 1.396 . S
C2297 C2298 1.399 . S
C2298 H2284 0.929 . S
C2298 C2297 1.399 . S
C2298 C2299 1.385 . S
C2299 H2285 0.931 . S
C2299 C2298 1.385 . S
C2299 C2300 1.389 . S
C2300 C2299 1.389 . S
C2300 C2301 1.387 . S
C2301 H2286 0.930 . S
C2301 C2296 1.390 . S
C2301 C2300 1.387 . S
H2302 C2314 0.930 . S
H2303 C2316 0.930 . S
H2304 C2317 0.930 1_554 S
H2305 C2321 0.959 . S
H2306 C2321 0.959 . S
H2307 C2321 0.961 . S
H2308 C2322 0.960 . S
H2309 C2322 0.961 . S
H2310 C2322 0.959 . S
H2311 C2325 0.929 . S
H2312 C2326 0.931 . S
H2313 C2328 0.930 . S
C2314 H2302 0.930 . S
C2314 C2315 1.399 . S
C2314 C2319 1.399 . S
C2315 C2314 1.399 . S
C2315 C2316 1.376 . S
C2316 H2303 0.930 . S
C2316 C2315 1.376 . S
C2316 C2317 1.388 . S
C2317 H2304 0.930 1_556 S
C2317 C2316 1.388 . S
C2317 C2318 1.390 . S
C2318 C2317 1.390 . S
C2318 C2319 1.394 . S
C2318 C2324 1.465 . S
C2319 C2314 1.399 . S
C2319 C2318 1.394 . S
C2319 C2320 1.516 . S
C2320 C2319 1.516 . S
C2320 C2321 1.502 . S
C2320 C2322 1.561 . S
C2320 C2323 1.526 . S
C2321 H2305 0.959 . S
C2321 H2306 0.959 . S
C2321 H2307 0.961 . S
C2321 C2320 1.502 . S
C2322 H2308 0.960 . S
C2322 H2309 0.961 . S
C2322 H2310 0.959 . S
C2322 C2320 1.561 . S
C2323 C2320 1.526 . S
C2323 C2324 1.396 . S
C2323 C2328 1.390 . S
C2324 C2318 1.465 . S
C2324 C2323 1.396 . S
C2324 C2325 1.399 1_556 S
C2325 H2311 0.929 . S
C2325 C2324 1.399 1_554 S
C2325 C2326 1.385 . S
C2326 H2312 0.931 . S
C2326 C2325 1.385 . S
C2326 C2327 1.389 1_554 S
C2327 C2326 1.389 1_556 S
C2327 C2328 1.387 . S
C2328 H2313 0.930 . S
C2328 C2323 1.390 . S
C2328 C2327 1.387 . S
H2329 C2341 0.930 . S
H2330 C2343 0.930 . S
H2331 C2344 0.930 . S
H2332 C2348 0.959 . S
H2333 C2348 0.959 . S
H2334 C2348 0.961 1_455 S
H2335 C2349 0.960 1_455 S
H2336 C2349 0.961 . S
H2337 C2349 0.959 . S
H2338 C2352 0.929 . S
H2339 C2353 0.931 . S
H2340 C2355 0.930 . S
C2341 H2329 0.930 . S
C2341 C2342 1.399 . S
C2341 C2346 1.399 1_455 S
C2342 C2341 1.399 . S
C2342 C2343 1.376 . S
C2343 H2330 0.930 . S
C2343 C2342 1.376 . S
C2343 C2344 1.388 1_455 S
C2344 H2331 0.930 . S
C2344 C2343 1.388 1_655 S
C2344 C2345 1.390 . S
C2345 C2344 1.390 . S
C2345 C2346 1.394 . S
C2345 C2351 1.465 . S
C2346 C2341 1.399 1_655 S
C2346 C2345 1.394 . S
C2346 C2347 1.516 . S
C2347 C2346 1.516 . S
C2347 C2348 1.502 . S
C2347 C2349 1.561 . S
C2347 C2350 1.526 . S
C2348 H2332 0.959 . S
C2348 H2333 0.959 . S
C2348 H2334 0.961 1_655 S
C2348 C2347 1.502 . S
C2349 H2335 0.960 1_655 S
C2349 H2336 0.961 . S
C2349 H2337 0.959 . S
C2349 C2347 1.561 . S
C2350 C2347 1.526 . S
C2350 C2351 1.396 . S
C2350 C2355 1.390 . S
C2351 C2345 1.465 . S
C2351 C2350 1.396 . S
C2351 C2352 1.399 . S
C2352 H2338 0.929 . S
C2352 C2351 1.399 . S
C2352 C2353 1.385 . S
C2353 H2339 0.931 . S
C2353 C2352 1.385 . S
C2353 C2354 1.389 . S
C2354 C2353 1.389 . S
C2354 C2355 1.387 . S
C2355 H2340 0.930 . S
C2355 C2350 1.390 . S
C2355 C2354 1.387 . S
H2356 C2368 0.930 . S
H2357 C2370 0.930 . S
H2358 C2371 0.930 . S
H2359 C2375 0.959 . S
H2360 C2375 0.959 . S
H2361 C2375 0.961 . S
H2362 C2376 0.960 . S
H2363 C2376 0.961 . S
H2364 C2376 0.959 . S
H2365 C2379 0.929 . S
H2366 C2380 0.931 . S
H2367 C2382 0.930 . S
C2368 H2356 0.930 . S
C2368 C2369 1.399 . S
C2368 C2373 1.399 . S
C2369 C2368 1.399 . S
C2369 C2370 1.376 . S
C2370 H2357 0.930 . S
C2370 C2369 1.376 . S
C2370 C2371 1.388 . S
C2371 H2358 0.930 . S
C2371 C2370 1.388 . S
C2371 C2372 1.390 . S
C2372 C2371 1.390 . S
C2372 C2373 1.394 . S
C2372 C2378 1.465 . S
C2373 C2368 1.399 . S
C2373 C2372 1.394 . S
C2373 C2374 1.516 . S
C2374 C2373 1.516 . S
C2374 C2375 1.502 . S
C2374 C2376 1.561 . S
C2374 C2377 1.526 . S
C2375 H2359 0.959 . S
C2375 H2360 0.959 . S
C2375 H2361 0.961 . S
C2375 C2374 1.502 . S
C2376 H2362 0.960 . S
C2376 H2363 0.961 . S
C2376 H2364 0.959 . S
C2376 C2374 1.561 . S
C2377 C2374 1.526 . S
C2377 C2378 1.396 . S
C2377 C2382 1.390 . S
C2378 C2372 1.465 . S
C2378 C2377 1.396 . S
C2378 C2379 1.399 . S
C2379 H2365 0.929 . S
C2379 C2378 1.399 . S
C2379 C2380 1.385 . S
C2380 H2366 0.931 . S
C2380 C2379 1.385 . S
C2380 C2381 1.389 . S
C2381 C2380 1.389 . S
C2381 C2382 1.387 . S
C2382 H2367 0.930 . S
C2382 C2377 1.390 . S
C2382 C2381 1.387 . S
H2383 C2395 0.930 . S
H2384 C2397 0.930 . S
H2385 C2398 0.930 . S
H2386 C2402 0.971 . S
H2387 C2402 0.959 1_655 S
H2388 C2402 0.961 . S
H2389 C2403 0.960 . S
H2390 C2403 0.961 . S
H2391 C2403 0.959 . S
H2392 C2406 0.929 . S
H2393 C2407 0.931 . S
H2394 C2409 0.930 . S
C2395 H2383 0.930 . S
C2395 C2396 1.399 . S
C2395 C2400 1.399 . S
C2396 C2395 1.399 . S
C2396 C2397 1.376 . S
C2397 H2384 0.930 . S
C2397 C2396 1.376 . S
C2397 C2398 1.388 . S
C2398 H2385 0.930 . S
C2398 C2397 1.388 . S
C2398 C2399 1.390 . S
C2399 C2398 1.390 . S
C2399 C2400 1.394 . S
C2399 C2405 1.465 1_455 S
C2400 C2395 1.399 . S
C2400 C2399 1.394 . S
C2400 C2401 1.516 . S
C2401 C2400 1.516 . S
C2401 C2402 1.502 . S
C2401 C2403 1.561 . S
C2401 C2404 1.526 1_455 S
C2402 H2386 0.971 . S
C2402 H2387 0.959 1_455 S
C2402 H2388 0.961 . S
C2402 C2401 1.502 . S
C2403 H2389 0.960 . S
C2403 H2390 0.961 . S
C2403 H2391 0.959 . S
C2403 C2401 1.561 . S
C2404 C2401 1.526 1_655 S
C2404 C2405 1.396 . S
C2404 C2409 1.390 . S
C2405 C2399 1.465 1_655 S
C2405 C2404 1.396 . S
C2405 C2406 1.399 . S
C2406 H2392 0.929 . S
C2406 C2405 1.399 . S
C2406 C2407 1.385 . S
C2407 H2393 0.931 . S
C2407 C2406 1.385 . S
C2407 C2408 1.389 . S
C2408 C2407 1.389 . S
C2408 C2409 1.387 . S
C2409 H2394 0.930 . S
C2409 C2404 1.390 . S
C2409 C2408 1.387 . S
H2410 C2422 0.930 . S
H2411 C2424 0.930 . S
H2412 C2425 0.930 . S
H2413 C2429 0.959 . S
H2414 C2429 0.959 . S
H2415 C2429 0.961 . S
H2416 C2430 0.960 . S
H2417 C2430 0.961 . S
H2418 C2430 0.959 1_455 S
H2419 C2433 0.929 . S
H2420 C2434 0.931 . S
H2421 C2436 0.930 . S
C2422 H2410 0.930 . S
C2422 C2423 1.400 . S
C2422 C2427 1.399 1_655 S
C2423 C2422 1.400 . S
C2423 C2424 1.370 1_655 S
C2424 H2411 0.930 . S
C2424 C2423 1.370 1_455 S
C2424 C2425 1.388 . S
C2425 H2412 0.930 . S
C2425 C2424 1.388 . S
C2425 C2426 1.390 . S
C2426 C2425 1.390 . S
C2426 C2427 1.394 . S
C2426 C2432 1.465 . S
C2427 C2422 1.399 1_455 S
C2427 C2426 1.394 . S
C2427 C2428 1.516 1_455 S
C2428 C2427 1.516 1_655 S
C2428 C2429 1.502 . S
C2428 C2430 1.561 . S
C2428 C2431 1.526 1_655 S
C2429 H2413 0.959 . S
C2429 H2414 0.959 . S
C2429 H2415 0.961 . S
C2429 C2428 1.502 . S
C2430 H2416 0.960 . S
C2430 H2417 0.961 . S
C2430 H2418 0.959 1_655 S
C2430 C2428 1.561 . S
C2431 C2428 1.526 1_455 S
C2431 C2432 1.396 . S
C2431 C2436 1.390 . S
C2432 C2426 1.465 . S
C2432 C2431 1.396 . S
C2432 C2433 1.399 . S
C2433 H2419 0.929 . S
C2433 C2432 1.399 . S
C2433 C2434 1.385 . S
C2434 H2420 0.931 . S
C2434 C2433 1.385 . S
C2434 C2435 1.389 . S
C2435 C2434 1.389 . S
C2435 C2436 1.387 . S
C2436 H2421 0.930 . S
C2436 C2431 1.390 . S
C2436 C2435 1.387 . S
H2437 C2449 0.930 . S
H2438 C2451 0.930 . S
H2439 C2452 0.930 . S
H2440 C2456 0.959 . S
H2441 C2456 0.959 . S
H2442 C2456 0.961 . S
H2443 C2457 0.960 . S
H2444 C2457 0.961 . S
H2445 C2457 0.959 . S
H2446 C2460 0.929 . S
H2447 C2461 0.931 . S
H2448 C2463 0.930 . S
C2449 H2437 0.930 . S
C2449 C2450 1.399 . S
C2449 C2454 1.399 . S
C2450 C2449 1.399 . S
C2450 C2451 1.376 . S
C2451 H2438 0.930 . S
C2451 C2450 1.376 . S
C2451 C2452 1.388 . S
C2452 H2439 0.930 . S
C2452 C2451 1.388 . S
C2452 C2453 1.390 . S
C2453 C2452 1.390 . S
C2453 C2454 1.394 . S
C2453 C2459 1.465 . S
C2454 C2449 1.399 . S
C2454 C2453 1.394 . S
C2454 C2455 1.516 . S
C2455 C2454 1.516 . S
C2455 C2456 1.502 . S
C2455 C2457 1.561 . S
C2455 C2458 1.526 . S
C2456 H2440 0.959 . S
C2456 H2441 0.959 . S
C2456 H2442 0.961 . S
C2456 C2455 1.502 . S
C2457 H2443 0.960 . S
C2457 H2444 0.961 . S
C2457 H2445 0.959 . S
C2457 C2455 1.561 . S
C2458 C2455 1.526 . S
C2458 C2459 1.396 . S
C2458 C2463 1.390 . S
C2459 C2453 1.465 . S
C2459 C2458 1.396 . S
C2459 C2460 1.399 . S
C2460 H2446 0.929 . S
C2460 C2459 1.399 . S
C2460 C2461 1.385 . S
C2461 H2447 0.931 . S
C2461 C2460 1.385 . S
C2461 C2462 1.389 . S
C2462 C2461 1.389 . S
C2462 C2463 1.387 . S
C2463 H2448 0.930 . S
C2463 C2458 1.390 . S
C2463 C2462 1.387 . S
H2464 C2476 0.930 . S
H2465 C2478 0.930 . S
H2466 C2479 0.930 . S
H2467 C2483 0.959 . S
H2468 C2483 0.959 . S
H2469 C2483 0.961 . S
H2470 C2484 0.960 . S
H2471 C2484 0.961 . S
H2472 C2484 0.959 . S
H2473 C2487 0.929 . S
H2474 C2488 0.931 . S
H2475 C2490 0.930 . S
C2476 H2464 0.930 . S
C2476 C2477 1.399 . S
C2476 C2481 1.399 . S
C2477 C2476 1.399 . S
C2477 C2478 1.376 . S
C2478 H2465 0.930 . S
C2478 C2477 1.376 . S
C2478 C2479 1.388 . S
C2479 H2466 0.930 . S
C2479 C2478 1.388 . S
C2479 C2480 1.390 . S
C2480 C2479 1.390 . S
C2480 C2481 1.394 . S
C2480 C2486 1.465 . S
C2481 C2476 1.399 . S
C2481 C2480 1.394 . S
C2481 C2482 1.516 . S
C2482 C2481 1.516 . S
C2482 C2483 1.502 . S
C2482 C2484 1.561 . S
C2482 C2485 1.526 . S
C2483 H2467 0.959 . S
C2483 H2468 0.959 . S
C2483 H2469 0.961 . S
C2483 C2482 1.502 . S
C2484 H2470 0.960 . S
C2484 H2471 0.961 . S
C2484 H2472 0.959 . S
C2484 C2482 1.561 . S
C2485 C2482 1.526 . S
C2485 C2486 1.396 . S
C2485 C2490 1.390 . S
C2486 C2480 1.465 . S
C2486 C2485 1.396 . S
C2486 C2487 1.399 . S
C2487 H2473 0.929 . S
C2487 C2486 1.399 . S
C2487 C2488 1.385 . S
C2488 H2474 0.931 . S
C2488 C2487 1.385 . S
C2488 C2489 1.389 . S
C2489 C2488 1.389 . S
C2489 C2490 1.387 . S
C2490 H2475 0.930 . S
C2490 C2485 1.390 . S
C2490 C2489 1.387 . S
H2491 C2503 0.930 . S
H2492 C2505 0.930 1_554 S
H2493 C2506 0.930 . S
H2494 C2510 0.959 . S
H2495 C2510 0.959 . S
H2496 C2510 0.961 . S
H2497 C2511 0.960 . S
H2498 C2511 0.961 . S
H2499 C2511 0.959 . S
H2500 C2514 0.929 . S
H2501 C2515 0.931 . S
H2502 C2517 0.930 . S
C2503 H2491 0.930 . S
C2503 C2504 1.399 . S
C2503 C2508 1.399 . S
C2504 C2503 1.399 . S
C2504 C2505 1.376 . S
C2505 H2492 0.930 1_556 S
C2505 C2504 1.376 . S
C2505 C2506 1.388 . S
C2506 H2493 0.930 . S
C2506 C2505 1.388 . S
C2506 C2507 1.390 . S
C2507 C2506 1.390 . S
C2507 C2508 1.394 . S
C2507 C2513 1.465 . S
C2508 C2503 1.399 . S
C2508 C2507 1.394 . S
C2508 C2509 1.516 . S
C2509 C2508 1.516 . S
C2509 C2510 1.502 . S
C2509 C2511 1.561 . S
C2509 C2512 1.526 . S
C2510 H2494 0.959 . S
C2510 H2495 0.959 . S
C2510 H2496 0.961 . S
C2510 C2509 1.502 . S
C2511 H2497 0.960 . S
C2511 H2498 0.961 . S
C2511 H2499 0.959 . S
C2511 C2509 1.561 . S
C2512 C2509 1.526 . S
C2512 C2513 1.396 . S
C2512 C2517 1.390 . S
C2513 C2507 1.465 . S
C2513 C2512 1.396 . S
C2513 C2514 1.399 . S
C2514 H2500 0.929 . S
C2514 C2513 1.399 . S
C2514 C2515 1.385 . S
C2515 H2501 0.931 . S
C2515 C2514 1.385 . S
C2515 C2516 1.389 . S
C2516 C2515 1.389 . S
C2516 C2517 1.387 . S
C2517 H2502 0.930 . S
C2517 C2512 1.390 . S
C2517 C2516 1.387 . S
H2518 C2530 0.930 . S
H2519 C2532 0.930 . S
H2520 C2533 0.930 . S
H2521 C2537 0.959 . S
H2522 C2537 0.959 . S
H2523 C2537 0.961 . S
H2524 C2538 0.960 . S
H2525 C2538 0.961 . S
H2526 C2538 0.959 . S
H2527 C2541 0.929 . S
H2528 C2542 0.931 . S
H2529 C2544 0.930 . S
C2530 H2518 0.930 . S
C2530 C2531 1.399 . S
C2530 C2535 1.399 . S
C2531 C2530 1.399 . S
C2531 C2532 1.376 . S
C2532 H2519 0.930 . S
C2532 C2531 1.376 . S
C2532 C2533 1.388 . S
C2533 H2520 0.930 . S
C2533 C2532 1.388 . S
C2533 C2534 1.390 . S
C2534 C2533 1.390 . S
C2534 C2535 1.394 . S
C2534 C2540 1.465 . S
C2535 C2530 1.399 . S
C2535 C2534 1.394 . S
C2535 C2536 1.516 . S
C2536 C2535 1.516 . S
C2536 C2537 1.502 . S
C2536 C2538 1.561 . S
C2536 C2539 1.526 . S
C2537 H2521 0.959 . S
C2537 H2522 0.959 . S
C2537 H2523 0.961 . S
C2537 C2536 1.502 . S
C2538 H2524 0.960 . S
C2538 H2525 0.961 . S
C2538 H2526 0.959 . S
C2538 C2536 1.561 . S
C2539 C2536 1.526 . S
C2539 C2540 1.396 . S
C2539 C2544 1.390 . S
C2540 C2534 1.465 . S
C2540 C2539 1.396 . S
C2540 C2541 1.399 . S
C2541 H2527 0.929 . S
C2541 C2540 1.399 . S
C2541 C2542 1.385 . S
C2542 H2528 0.931 . S
C2542 C2541 1.385 . S
C2542 C2543 1.389 . S
C2543 C2542 1.389 . S
C2543 C2544 1.387 . S
C2544 H2529 0.930 . S
C2544 C2539 1.390 . S
C2544 C2543 1.387 . S
H2545 C2557 0.930 . S
H2546 C2559 0.930 . S
H2547 C2560 0.930 . S
H2548 C2564 0.959 . S
H2549 C2564 0.959 . S
H2550 C2564 0.961 . S
H2551 C2565 0.960 . S
H2552 C2565 0.961 . S
H2553 C2565 0.959 . S
H2554 C2568 0.929 . S
H2555 C2569 0.931 . S
H2556 C2571 0.930 . S
C2557 H2545 0.930 . S
C2557 C2558 1.399 . S
C2557 C2562 1.399 . S
C2558 C2557 1.399 . S
C2558 C2559 1.376 . S
C2559 H2546 0.930 . S
C2559 C2558 1.376 . S
C2559 C2560 1.388 . S
C2560 H2547 0.930 . S
C2560 C2559 1.388 . S
C2560 C2561 1.390 . S
C2561 C2560 1.390 . S
C2561 C2562 1.394 . S
C2561 C2567 1.465 . S
C2562 C2557 1.399 . S
C2562 C2561 1.394 . S
C2562 C2563 1.516 . S
C2563 C2562 1.516 . S
C2563 C2564 1.502 . S
C2563 C2565 1.561 . S
C2563 C2566 1.526 . S
C2564 H2548 0.959 . S
C2564 H2549 0.959 . S
C2564 H2550 0.961 . S
C2564 C2563 1.502 . S
C2565 H2551 0.960 . S
C2565 H2552 0.961 . S
C2565 H2553 0.959 . S
C2565 C2563 1.561 . S
C2566 C2563 1.526 . S
C2566 C2567 1.396 . S
C2566 C2571 1.390 . S
C2567 C2561 1.465 . S
C2567 C2566 1.396 . S
C2567 C2568 1.399 . S
C2568 H2554 0.929 . S
C2568 C2567 1.399 . S
C2568 C2569 1.385 . S
C2569 H2555 0.931 . S
C2569 C2568 1.385 . S
C2569 C2570 1.389 . S
C2570 C2569 1.389 . S
C2570 C2571 1.387 . S
C2571 H2556 0.930 . S
C2571 C2566 1.390 . S
C2571 C2570 1.387 . S
H2572 C2584 0.930 . S
H2573 C2586 0.930 . S
H2574 C2587 0.930 . S
H2575 C2591 0.959 . S
H2576 C2591 0.959 . S
H2577 C2591 0.961 . S
H2578 C2592 0.960 . S
H2579 C2592 0.961 . S
H2580 C2592 0.959 . S
H2581 C2595 0.929 . S
H2582 C2596 0.931 . S
H2583 C2598 0.930 . S
C2584 H2572 0.930 . S
C2584 C2585 1.399 . S
C2584 C2589 1.399 . S
C2585 C2584 1.399 . S
C2585 C2586 1.376 . S
C2586 H2573 0.930 . S
C2586 C2585 1.376 . S
C2586 C2587 1.388 . S
C2587 H2574 0.930 . S
C2587 C2586 1.388 . S
C2587 C2588 1.390 . S
C2588 C2587 1.390 . S
C2588 C2589 1.394 . S
C2588 C2594 1.465 . S
C2589 C2584 1.399 . S
C2589 C2588 1.394 . S
C2589 C2590 1.516 . S
C2590 C2589 1.516 . S
C2590 C2591 1.502 . S
C2590 C2592 1.561 . S
C2590 C2593 1.526 . S
C2591 H2575 0.959 . S
C2591 H2576 0.959 . S
C2591 H2577 0.961 . S
C2591 C2590 1.502 . S
C2592 H2578 0.960 . S
C2592 H2579 0.961 . S
C2592 H2580 0.959 . S
C2592 C2590 1.561 . S
C2593 C2590 1.526 . S
C2593 C2594 1.396 . S
C2593 C2598 1.390 . S
C2594 C2588 1.465 . S
C2594 C2593 1.396 . S
C2594 C2595 1.399 . S
C2595 H2581 0.929 . S
C2595 C2594 1.399 . S
C2595 C2596 1.385 . S
C2596 H2582 0.931 . S
C2596 C2595 1.385 . S
C2596 C2597 1.389 . S
C2597 C2596 1.389 . S
C2597 C2598 1.387 . S
C2598 H2583 0.930 . S
C2598 C2593 1.390 . S
C2598 C2597 1.387 . S
H2599 C2611 0.930 . S
H2600 C2613 0.930 . S
H2601 C2614 0.930 . S
H2602 C2618 0.959 . S
H2603 C2618 0.959 . S
H2604 C2618 0.961 . S
H2605 C2619 0.960 . S
H2606 C2619 0.961 . S
H2607 C2619 0.959 . S
H2608 C2622 0.929 . S
H2609 C2623 0.931 . S
H2610 C2625 0.930 . S
C2611 H2599 0.930 . S
C2611 C2612 1.399 . S
C2611 C2616 1.399 . S
C2612 C2611 1.399 . S
C2612 C2613 1.376 . S
C2613 H2600 0.930 . S
C2613 C2612 1.376 . S
C2613 C2614 1.388 . S
C2614 H2601 0.930 . S
C2614 C2613 1.388 . S
C2614 C2615 1.390 . S
C2615 C2614 1.390 . S
C2615 C2616 1.394 . S
C2615 C2621 1.465 . S
C2616 C2611 1.399 . S
C2616 C2615 1.394 . S
C2616 C2617 1.516 . S
C2617 C2616 1.516 . S
C2617 C2618 1.502 . S
C2617 C2619 1.561 . S
C2617 C2620 1.526 . S
C2618 H2602 0.959 . S
C2618 H2603 0.959 . S
C2618 H2604 0.961 . S
C2618 C2617 1.502 . S
C2619 H2605 0.960 . S
C2619 H2606 0.961 . S
C2619 H2607 0.959 . S
C2619 C2617 1.561 . S
C2620 C2617 1.526 . S
C2620 C2621 1.396 . S
C2620 C2625 1.390 . S
C2621 C2615 1.465 . S
C2621 C2620 1.396 . S
C2621 C2622 1.399 . S
C2622 H2608 0.929 . S
C2622 C2621 1.399 . S
C2622 C2623 1.385 . S
C2623 H2609 0.931 . S
C2623 C2622 1.385 . S
C2623 C2624 1.389 . S
C2624 C2623 1.389 . S
C2624 C2625 1.387 . S
C2625 H2610 0.930 . S
C2625 C2620 1.390 . S
C2625 C2624 1.387 . S
H2626 C2638 0.930 . S
H2627 C2640 0.930 . S
H2628 C2641 0.930 . S
H2629 C2645 0.959 . S
H2630 C2645 0.959 . S
H2631 C2645 0.961 . S
H2632 C2646 0.960 . S
H2633 C2646 0.961 . S
H2634 C2646 0.959 . S
H2635 C2649 0.929 . S
H2636 C2650 0.931 . S
H2637 C2652 0.930 . S
C2638 H2626 0.930 . S
C2638 C2639 1.399 . S
C2638 C2643 1.399 . S
C2639 C2638 1.399 . S
C2639 C2640 1.376 . S
C2640 H2627 0.930 . S
C2640 C2639 1.376 . S
C2640 C2641 1.388 . S
C2641 H2628 0.930 . S
C2641 C2640 1.388 . S
C2641 C2642 1.390 . S
C2642 C2641 1.390 . S
C2642 C2643 1.394 . S
C2642 C2648 1.465 . S
C2643 C2638 1.399 . S
C2643 C2642 1.394 . S
C2643 C2644 1.516 . S
C2644 C2643 1.516 . S
C2644 C2645 1.502 . S
C2644 C2646 1.561 . S
C2644 C2647 1.526 . S
C2645 H2629 0.959 . S
C2645 H2630 0.959 . S
C2645 H2631 0.961 . S
C2645 C2644 1.502 . S
C2646 H2632 0.960 . S
C2646 H2633 0.961 . S
C2646 H2634 0.959 . S
C2646 C2644 1.561 . S
C2647 C2644 1.526 . S
C2647 C2648 1.396 . S
C2647 C2652 1.390 . S
C2648 C2642 1.465 . S
C2648 C2647 1.396 . S
C2648 C2649 1.399 . S
C2649 H2635 0.929 . S
C2649 C2648 1.399 . S
C2649 C2650 1.385 . S
C2650 H2636 0.931 . S
C2650 C2649 1.385 . S
C2650 C2651 1.389 . S
C2651 C2650 1.389 . S
C2651 C2652 1.387 . S
C2652 H2637 0.930 . S
C2652 C2647 1.390 . S
C2652 C2651 1.387 . S
H2653 C2665 0.930 . S
H2654 C2667 0.930 . S
H2655 C2668 0.930 . S
H2656 C2672 0.959 . S
H2657 C2672 0.959 . S
H2658 C2672 0.961 . S
H2659 C2673 0.960 . S
H2660 C2673 0.961 . S
H2661 C2673 0.959 . S
H2662 C2676 0.929 . S
H2663 C2677 0.931 . S
H2664 C2679 0.930 . S
C2665 H2653 0.930 . S
C2665 C2666 1.399 . S
C2665 C2670 1.399 . S
C2666 C2665 1.399 . S
C2666 C2667 1.376 . S
C2667 H2654 0.930 . S
C2667 C2666 1.376 . S
C2667 C2668 1.388 . S
C2668 H2655 0.930 . S
C2668 C2667 1.388 . S
C2668 C2669 1.390 . S
C2669 C2668 1.390 . S
C2669 C2670 1.394 . S
C2669 C2675 1.465 . S
C2670 C2665 1.399 . S
C2670 C2669 1.394 . S
C2670 C2671 1.516 . S
C2671 C2670 1.516 . S
C2671 C2672 1.502 . S
C2671 C2673 1.561 . S
C2671 C2674 1.526 . S
C2672 H2656 0.959 . S
C2672 H2657 0.959 . S
C2672 H2658 0.961 . S
C2672 C2671 1.502 . S
C2673 H2659 0.960 . S
C2673 H2660 0.961 . S
C2673 H2661 0.959 . S
C2673 C2671 1.561 . S
C2674 C2671 1.526 . S
C2674 C2675 1.396 . S
C2674 C2679 1.390 . S
C2675 C2669 1.465 . S
C2675 C2674 1.396 . S
C2675 C2676 1.399 . S
C2676 H2662 0.929 . S
C2676 C2675 1.399 . S
C2676 C2677 1.385 . S
C2677 H2663 0.931 . S
C2677 C2676 1.385 . S
C2677 C2678 1.389 . S
C2678 C2677 1.389 . S
C2678 C2679 1.387 . S
C2679 H2664 0.930 . S
C2679 C2674 1.390 . S
C2679 C2678 1.387 . S
H2680 C2692 0.930 . S
H2681 C2694 0.930 . S
H2682 C2695 0.930 . S
H2683 C2699 0.959 . S
H2684 C2699 0.959 . S
H2685 C2699 0.961 . S
H2686 C2700 0.960 . S
H2687 C2700 0.961 . S
H2688 C2700 0.959 . S
H2689 C2703 0.929 . S
H2690 C2704 0.931 . S
H2691 C2706 0.930 . S
C2692 H2680 0.930 . S
C2692 C2693 1.399 . S
C2692 C2697 1.399 . S
C2693 C2692 1.399 . S
C2693 C2694 1.376 . S
C2694 H2681 0.930 . S
C2694 C2693 1.376 . S
C2694 C2695 1.388 . S
C2695 H2682 0.930 . S
C2695 C2694 1.388 . S
C2695 C2696 1.390 . S
C2696 C2695 1.390 . S
C2696 C2697 1.394 . S
C2696 C2702 1.465 . S
C2697 C2692 1.399 . S
C2697 C2696 1.394 . S
C2697 C2698 1.516 . S
C2698 C2697 1.516 . S
C2698 C2699 1.502 . S
C2698 C2700 1.561 . S
C2698 C2701 1.526 . S
C2699 H2683 0.959 . S
C2699 H2684 0.959 . S
C2699 H2685 0.961 . S
C2699 C2698 1.502 . S
C2700 H2686 0.960 . S
C2700 H2687 0.961 . S
C2700 H2688 0.959 . S
C2700 C2698 1.561 . S
C2701 C2698 1.526 . S
C2701 C2702 1.396 . S
C2701 C2706 1.390 . S
C2702 C2696 1.465 . S
C2702 C2701 1.396 . S
C2702 C2703 1.399 . S
C2703 H2689 0.929 . S
C2703 C2702 1.399 . S
C2703 C2704 1.385 . S
C2704 H2690 0.931 . S
C2704 C2703 1.385 . S
C2704 C2705 1.389 . S
C2705 C2704 1.389 . S
C2705 C2706 1.387 . S
C2706 H2691 0.930 . S
C2706 C2701 1.390 . S
C2706 C2705 1.387 . S
H2707 C2719 0.930 . S
H2708 C2721 0.930 . S
H2709 C2722 0.930 . S
H2710 C2726 0.959 . S
H2711 C2726 0.959 . S
H2712 C2726 0.961 . S
H2713 C2727 0.960 . S
H2714 C2727 0.961 . S
H2715 C2727 0.959 . S
H2716 C2730 0.929 . S
H2717 C2731 0.931 . S
H2718 C2733 0.930 . S
C2719 H2707 0.930 . S
C2719 C2720 1.399 . S
C2719 C2724 1.399 . S
C2720 C2719 1.399 . S
C2720 C2721 1.376 . S
C2721 H2708 0.930 . S
C2721 C2720 1.376 . S
C2721 C2722 1.388 . S
C2722 H2709 0.930 . S
C2722 C2721 1.388 . S
C2722 C2723 1.390 . S
C2723 C2722 1.390 . S
C2723 C2724 1.394 . S
C2723 C2729 1.465 . S
C2724 C2719 1.399 . S
C2724 C2723 1.394 . S
C2724 C2725 1.516 . S
C2725 C2724 1.516 . S
C2725 C2726 1.502 . S
C2725 C2727 1.561 . S
C2725 C2728 1.526 . S
C2726 H2710 0.959 . S
C2726 H2711 0.959 . S
C2726 H2712 0.961 . S
C2726 C2725 1.502 . S
C2727 H2713 0.960 . S
C2727 H2714 0.961 . S
C2727 H2715 0.959 . S
C2727 C2725 1.561 . S
C2728 C2725 1.526 . S
C2728 C2729 1.396 . S
C2728 C2733 1.390 . S
C2729 C2723 1.465 . S
C2729 C2728 1.396 . S
C2729 C2730 1.399 . S
C2730 H2716 0.929 . S
C2730 C2729 1.399 . S
C2730 C2731 1.385 . S
C2731 H2717 0.931 . S
C2731 C2730 1.385 . S
C2731 C2732 1.389 . S
C2732 C2731 1.389 . S
C2732 C2733 1.387 . S
C2733 H2718 0.930 . S
C2733 C2728 1.390 . S
C2733 C2732 1.387 . S
H2734 C2746 0.930 . S
H2735 C2748 0.930 . S
H2736 C2749 0.930 . S
H2737 C2753 0.959 . S
H2738 C2753 0.959 . S
H2739 C2753 0.961 . S
H2740 C2754 0.960 . S
H2741 C2754 0.961 . S
H2742 C2754 0.959 . S
H2743 C2757 0.929 . S
H2744 C2758 0.931 . S
H2745 C2760 0.930 . S
C2746 H2734 0.930 . S
C2746 C2747 1.399 . S
C2746 C2751 1.399 . S
C2747 C2746 1.399 . S
C2747 C2748 1.376 . S
C2748 H2735 0.930 . S
C2748 C2747 1.376 . S
C2748 C2749 1.388 . S
C2749 H2736 0.930 . S
C2749 C2748 1.388 . S
C2749 C2750 1.390 . S
C2750 C2749 1.390 . S
C2750 C2751 1.394 . S
C2750 C2756 1.465 . S
C2751 C2746 1.399 . S
C2751 C2750 1.394 . S
C2751 C2752 1.516 . S
C2752 C2751 1.516 . S
C2752 C2753 1.502 . S
C2752 C2754 1.561 . S
C2752 C2755 1.526 . S
C2753 H2737 0.959 . S
C2753 H2738 0.959 . S
C2753 H2739 0.961 . S
C2753 C2752 1.502 . S
C2754 H2740 0.960 . S
C2754 H2741 0.961 . S
C2754 H2742 0.959 . S
C2754 C2752 1.561 . S
C2755 C2752 1.526 . S
C2755 C2756 1.396 . S
C2755 C2760 1.390 . S
C2756 C2750 1.465 . S
C2756 C2755 1.396 . S
C2756 C2757 1.399 . S
C2757 H2743 0.929 . S
C2757 C2756 1.399 . S
C2757 C2758 1.385 . S
C2758 H2744 0.931 . S
C2758 C2757 1.385 . S
C2758 C2759 1.389 . S
C2759 C2758 1.389 . S
C2759 C2760 1.387 . S
C2760 H2745 0.930 . S
C2760 C2755 1.390 . S
C2760 C2759 1.387 . S
H2761 C2773 0.930 . S
H2762 C2775 0.930 . S
H2763 C2776 0.930 . S
H2764 C2780 0.959 . S
H2765 C2780 0.959 . S
H2766 C2780 0.961 . S
H2767 C2781 0.960 . S
H2768 C2781 0.961 . S
H2769 C2781 0.959 . S
H2770 C2784 0.929 . S
H2771 C2785 0.933 . S
H2772 C2787 0.930 . S
C2773 H2761 0.930 . S
C2773 C2774 1.399 . S
C2773 C2778 1.399 . S
C2774 C2773 1.399 . S
C2774 C2775 1.376 1_554 S
C2775 H2762 0.930 . S
C2775 C2774 1.376 1_556 S
C2775 C2776 1.388 . S
C2776 H2763 0.930 . S
C2776 C2775 1.388 . S
C2776 C2777 1.390 1_556 S
C2777 C2776 1.390 1_554 S
C2777 C2778 1.394 . S
C2777 C2783 1.465 . S
C2778 C2773 1.399 . S
C2778 C2777 1.394 . S
C2778 C2779 1.516 . S
C2779 C2778 1.516 . S
C2779 C2780 1.502 1_565 S
C2779 C2781 1.561 . S
C2779 C2782 1.526 . S
C2780 H2764 0.959 . S
C2780 H2765 0.959 . S
C2780 H2766 0.961 . S
C2780 C2779 1.502 1_545 S
C2781 H2767 0.960 . S
C2781 H2768 0.961 . S
C2781 H2769 0.959 . S
C2781 C2779 1.561 . S
C2782 C2779 1.526 . S
C2782 C2783 1.396 . S
C2782 C2787 1.390 1_565 S
C2783 C2777 1.465 . S
C2783 C2782 1.396 . S
C2783 C2784 1.399 1_554 S
C2784 H2770 0.929 . S
C2784 C2783 1.399 1_556 S
C2784 C2785 1.385 . S
C2785 H2771 0.933 . S
C2785 C2784 1.385 . S
C2785 C2786 1.389 1_566 S
C2786 C2785 1.389 1_544 S
C2786 C2787 1.387 . S
C2787 H2772 0.930 . S
C2787 C2782 1.390 1_545 S
C2787 C2786 1.387 . S
H2788 C2800 0.930 . S
H2789 C2802 0.930 . S
H2790 C2803 0.930 . S
H2791 C2807 0.959 . S
H2792 C2807 0.959 . S
H2793 C2807 0.961 . S
H2794 C2808 0.960 . S
H2795 C2808 0.961 . S
H2796 C2808 0.959 . S
H2797 C2811 0.929 . S
H2798 C2812 0.931 . S
H2799 C2814 0.930 . S
C2800 H2788 0.930 . S
C2800 C2801 1.399 . S
C2800 C2805 1.399 . S
C2801 C2800 1.399 . S
C2801 C2802 1.376 . S
C2802 H2789 0.930 . S
C2802 C2801 1.376 . S
C2802 C2803 1.388 . S
C2803 H2790 0.930 . S
C2803 C2802 1.388 . S
C2803 C2804 1.390 . S
C2804 C2803 1.390 . S
C2804 C2805 1.394 . S
C2804 C2810 1.465 . S
C2805 C2800 1.399 . S
C2805 C2804 1.394 . S
C2805 C2806 1.516 . S
C2806 C2805 1.516 . S
C2806 C2807 1.502 . S
C2806 C2808 1.561 . S
C2806 C2809 1.526 . S
C2807 H2791 0.959 . S
C2807 H2792 0.959 . S
C2807 H2793 0.961 . S
C2807 C2806 1.502 . S
C2808 H2794 0.960 . S
C2808 H2795 0.961 . S
C2808 H2796 0.959 . S
C2808 C2806 1.561 . S
C2809 C2806 1.526 . S
C2809 C2810 1.396 . S
C2809 C2814 1.390 . S
C2810 C2804 1.465 . S
C2810 C2809 1.396 . S
C2810 C2811 1.399 . S
C2811 H2797 0.929 . S
C2811 C2810 1.399 . S
C2811 C2812 1.385 . S
C2812 H2798 0.931 . S
C2812 C2811 1.385 . S
C2812 C2813 1.389 . S
C2813 C2812 1.389 . S
C2813 C2814 1.387 . S
C2814 H2799 0.930 . S
C2814 C2809 1.390 . S
C2814 C2813 1.387 . S
H2815 C2827 0.930 . S
H2816 C2829 0.930 . S
H2817 C2830 0.930 . S
H2818 C2834 0.959 . S
H2819 C2834 0.959 . S
H2820 C2834 0.961 . S
H2821 C2835 0.960 . S
H2822 C2835 0.961 . S
H2823 C2835 0.959 . S
H2824 C2838 0.929 1_556 S
H2825 C2839 0.931 . S
H2826 C2841 0.930 . S
C2827 H2815 0.930 . S
C2827 C2828 1.399 . S
C2827 C2832 1.399 . S
C2828 C2827 1.399 . S
C2828 C2829 1.376 1_554 S
C2829 H2816 0.930 . S
C2829 C2828 1.376 1_556 S
C2829 C2830 1.388 . S
C2830 H2817 0.930 . S
C2830 C2829 1.388 . S
C2830 C2831 1.390 1_556 S
C2831 C2830 1.390 1_554 S
C2831 C2832 1.394 . S
C2831 C2837 1.465 . S
C2832 C2827 1.399 . S
C2832 C2831 1.394 . S
C2832 C2833 1.516 . S
C2833 C2832 1.516 . S
C2833 C2834 1.502 . S
C2833 C2835 1.561 . S
C2833 C2836 1.526 . S
C2834 H2818 0.959 . S
C2834 H2819 0.959 . S
C2834 H2820 0.961 . S
C2834 C2833 1.502 . S
C2835 H2821 0.960 . S
C2835 H2822 0.961 . S
C2835 H2823 0.959 . S
C2835 C2833 1.561 . S
C2836 C2833 1.526 . S
C2836 C2837 1.396 . S
C2836 C2841 1.390 . S
C2837 C2831 1.465 . S
C2837 C2836 1.396 . S
C2837 C2838 1.399 . S
C2838 H2824 0.929 1_554 S
C2838 C2837 1.399 . S
C2838 C2839 1.385 . S
C2839 H2825 0.931 . S
C2839 C2838 1.385 . S
C2839 C2840 1.389 . S
C2840 C2839 1.389 . S
C2840 C2841 1.387 . S
C2841 H2826 0.930 . S
C2841 C2836 1.390 . S
C2841 C2840 1.387 . S
H2842 C2854 0.930 . S
H2843 C2856 0.930 . S
H2844 C2857 0.930 . S
H2845 C2861 0.959 . S
H2846 C2861 0.959 . S
H2847 C2861 0.961 . S
H2848 C2862 0.960 . S
H2849 C2862 0.961 . S
H2850 C2862 0.959 . S
H2851 C2865 0.929 . S
H2852 C2866 0.931 . S
H2853 C2868 0.930 . S
C2854 H2842 0.930 . S
C2854 C2855 1.399 . S
C2854 C2859 1.399 . S
C2855 C2854 1.399 . S
C2855 C2856 1.376 . S
C2856 H2843 0.930 . S
C2856 C2855 1.376 . S
C2856 C2857 1.388 . S
C2857 H2844 0.930 . S
C2857 C2856 1.388 . S
C2857 C2858 1.390 . S
C2858 C2857 1.390 . S
C2858 C2859 1.394 . S
C2858 C2864 1.465 . S
C2859 C2854 1.399 . S
C2859 C2858 1.394 . S
C2859 C2860 1.516 . S
C2860 C2859 1.516 . S
C2860 C2861 1.502 . S
C2860 C2862 1.561 . S
C2860 C2863 1.526 . S
C2861 H2845 0.959 . S
C2861 H2846 0.959 . S
C2861 H2847 0.961 . S
C2861 C2860 1.502 . S
C2862 H2848 0.960 . S
C2862 H2849 0.961 . S
C2862 H2850 0.959 . S
C2862 C2860 1.561 . S
C2863 C2860 1.526 . S
C2863 C2864 1.396 . S
C2863 C2868 1.390 . S
C2864 C2858 1.465 . S
C2864 C2863 1.396 . S
C2864 C2865 1.399 . S
C2865 H2851 0.929 . S
C2865 C2864 1.399 . S
C2865 C2866 1.385 . S
C2866 H2852 0.931 . S
C2866 C2865 1.385 . S
C2866 C2867 1.389 . S
C2867 C2866 1.389 . S
C2867 C2868 1.387 . S
C2868 H2853 0.930 . S
C2868 C2863 1.390 . S
C2868 C2867 1.387 . S
H2869 C2881 0.930 . S
H2870 C2883 0.930 . S
H2871 C2884 0.930 . S
H2872 C2888 0.959 . S
H2873 C2888 0.959 . S
H2874 C2888 0.961 . S
H2875 C2889 0.960 . S
H2876 C2889 0.961 . S
H2877 C2889 0.959 . S
H2878 C2892 0.929 . S
H2879 C2893 0.931 . S
H2880 C2895 0.930 . S
C2881 H2869 0.930 . S
C2881 C2882 1.399 . S
C2881 C2886 1.399 . S
C2882 C2881 1.399 . S
C2882 C2883 1.376 . S
C2883 H2870 0.930 . S
C2883 C2882 1.376 . S
C2883 C2884 1.388 . S
C2884 H2871 0.930 . S
C2884 C2883 1.388 . S
C2884 C2885 1.390 . S
C2885 C2884 1.390 . S
C2885 C2886 1.394 . S
C2885 C2891 1.465 . S
C2886 C2881 1.399 . S
C2886 C2885 1.394 . S
C2886 C2887 1.516 . S
C2887 C2886 1.516 . S
C2887 C2888 1.502 . S
C2887 C2889 1.561 . S
C2887 C2890 1.526 . S
C2888 H2872 0.959 . S
C2888 H2873 0.959 . S
C2888 H2874 0.961 . S
C2888 C2887 1.502 . S
C2889 H2875 0.960 . S
C2889 H2876 0.961 . S
C2889 H2877 0.959 . S
C2889 C2887 1.561 . S
C2890 C2887 1.526 . S
C2890 C2891 1.396 . S
C2890 C2895 1.390 . S
C2891 C2885 1.465 . S
C2891 C2890 1.396 . S
C2891 C2892 1.399 . S
C2892 H2878 0.929 . S
C2892 C2891 1.399 . S
C2892 C2893 1.385 . S
C2893 H2879 0.931 . S
C2893 C2892 1.385 . S
C2893 C2894 1.389 . S
C2894 C2893 1.389 . S
C2894 C2895 1.387 . S
C2895 H2880 0.930 . S
C2895 C2890 1.390 . S
C2895 C2894 1.387 . S
H2896 C2908 0.930 . S
H2897 C2910 0.930 . S
H2898 C2911 0.930 . S
H2899 C2915 0.959 . S
H2900 C2915 0.959 . S
H2901 C2915 0.961 . S
H2902 C2916 0.960 . S
H2903 C2916 0.961 . S
H2904 C2916 0.959 . S
H2905 C2919 0.929 . S
H2906 C2920 0.931 . S
H2907 C2922 0.930 . S
C2908 H2896 0.930 . S
C2908 C2909 1.399 . S
C2908 C2913 1.399 . S
C2909 C2908 1.399 . S
C2909 C2910 1.376 . S
C2910 H2897 0.930 . S
C2910 C2909 1.376 . S
C2910 C2911 1.388 . S
C2911 H2898 0.930 . S
C2911 C2910 1.388 . S
C2911 C2912 1.390 . S
C2912 C2911 1.390 . S
C2912 C2913 1.394 . S
C2912 C2918 1.465 . S
C2913 C2908 1.399 . S
C2913 C2912 1.394 . S
C2913 C2914 1.516 . S
C2914 C2913 1.516 . S
C2914 C2915 1.502 . S
C2914 C2916 1.561 . S
C2914 C2917 1.526 . S
C2915 H2899 0.959 . S
C2915 H2900 0.959 . S
C2915 H2901 0.961 . S
C2915 C2914 1.502 . S
C2916 H2902 0.960 . S
C2916 H2903 0.961 . S
C2916 H2904 0.959 . S
C2916 C2914 1.561 . S
C2917 C2914 1.526 . S
C2917 C2918 1.396 . S
C2917 C2922 1.390 . S
C2918 C2912 1.465 . S
C2918 C2917 1.396 . S
C2918 C2919 1.399 . S
C2919 H2905 0.929 . S
C2919 C2918 1.399 . S
C2919 C2920 1.385 . S
C2920 H2906 0.931 . S
C2920 C2919 1.385 . S
C2920 C2921 1.389 . S
C2921 C2920 1.389 . S
C2921 C2922 1.387 . S
C2922 H2907 0.930 . S
C2922 C2917 1.390 . S
C2922 C2921 1.387 . S
H2923 C2935 0.930 . S
H2924 C2937 0.930 . S
H2925 C2938 0.930 . S
H2926 C2942 0.959 . S
H2927 C2942 0.959 . S
H2928 C2942 0.961 . S
H2929 C2943 0.960 . S
H2930 C2943 0.961 . S
H2931 C2943 0.959 . S
H2932 C2946 0.929 . S
H2933 C2947 0.931 . S
H2934 C2949 0.930 . S
C2935 H2923 0.930 . S
C2935 C2936 1.399 . S
C2935 C2940 1.399 . S
C2936 C2935 1.399 . S
C2936 C2937 1.376 . S
C2937 H2924 0.930 . S
C2937 C2936 1.376 . S
C2937 C2938 1.388 . S
C2938 H2925 0.930 . S
C2938 C2937 1.388 . S
C2938 C2939 1.390 . S
C2939 C2938 1.390 . S
C2939 C2940 1.394 . S
C2939 C2945 1.465 . S
C2940 C2935 1.399 . S
C2940 C2939 1.394 . S
C2940 C2941 1.516 . S
C2941 C2940 1.516 . S
C2941 C2942 1.502 . S
C2941 C2943 1.561 . S
C2941 C2944 1.526 . S
C2942 H2926 0.959 . S
C2942 H2927 0.959 . S
C2942 H2928 0.961 . S
C2942 C2941 1.502 . S
C2943 H2929 0.960 . S
C2943 H2930 0.961 . S
C2943 H2931 0.959 . S
C2943 C2941 1.561 . S
C2944 C2941 1.526 . S
C2944 C2945 1.396 . S
C2944 C2949 1.390 . S
C2945 C2939 1.465 . S
C2945 C2944 1.396 . S
C2945 C2946 1.399 . S
C2946 H2932 0.929 . S
C2946 C2945 1.399 . S
C2946 C2947 1.385 . S
C2947 H2933 0.931 . S
C2947 C2946 1.385 . S
C2947 C2948 1.389 . S
C2948 C2947 1.389 . S
C2948 C2949 1.387 . S
C2949 H2934 0.930 . S
C2949 C2944 1.390 . S
C2949 C2948 1.387 . S
H2950 C2962 0.930 . S
H2951 C2964 0.930 . S
H2952 C2965 0.930 . S
H2953 C2969 0.959 . S
H2954 C2969 0.968 . S
H2955 C2969 0.961 . S
H2956 C2970 0.960 . S
H2957 C2970 0.961 . S
H2958 C2970 0.959 . S
H2959 C2973 0.929 . S
H2960 C2974 0.931 . S
H2961 C2976 0.923 1_556 S
C2962 H2950 0.930 . S
C2962 C2963 1.399 . S
C2962 C2967 1.399 . S
C2963 C2962 1.399 . S
C2963 C2964 1.376 . S
C2964 H2951 0.930 . S
C2964 C2963 1.376 . S
C2964 C2965 1.388 . S
C2965 H2952 0.930 . S
C2965 C2964 1.388 . S
C2965 C2966 1.390 . S
C2966 C2965 1.390 . S
C2966 C2967 1.394 . S
C2966 C2972 1.465 . S
C2967 C2962 1.399 . S
C2967 C2966 1.394 . S
C2967 C2968 1.516 . S
C2968 C2967 1.516 . S
C2968 C2969 1.502 . S
C2968 C2970 1.561 1_554 S
C2968 C2971 1.526 . S
C2969 H2953 0.959 . S
C2969 H2954 0.968 . S
C2969 H2955 0.961 . S
C2969 C2968 1.502 . S
C2970 H2956 0.960 . S
C2970 H2957 0.961 . S
C2970 H2958 0.959 . S
C2970 C2968 1.561 1_556 S
C2971 C2968 1.526 . S
C2971 C2972 1.396 . S
C2971 C2976 1.390 . S
C2972 C2966 1.465 . S
C2972 C2971 1.396 . S
C2972 C2973 1.399 . S
C2973 H2959 0.929 . S
C2973 C2972 1.399 . S
C2973 C2974 1.385 . S
C2974 H2960 0.931 . S
C2974 C2973 1.385 . S
C2974 C2975 1.389 . S
C2975 C2974 1.389 . S
C2975 C2976 1.387 . S
C2976 H2961 0.923 1_554 S
C2976 C2971 1.390 . S
C2976 C2975 1.387 . S
H2977 C2989 0.930 . S
H2978 C2991 0.930 . S
H2979 C2992 0.930 . S
H2980 C2996 0.959 . S
H2981 C2996 0.959 . S
H2982 C2996 0.961 . S
H2983 C2997 0.960 . S
H2984 C2997 0.961 . S
H2985 C2997 0.959 . S
H2986 C3000 0.929 . S
H2987 C3001 0.931 . S
H2988 C3003 0.930 . S
C2989 H2977 0.930 . S
C2989 C2990 1.399 . S
C2989 C2994 1.399 . S
C2990 C2989 1.399 . S
C2990 C2991 1.376 . S
C2991 H2978 0.930 . S
C2991 C2990 1.376 . S
C2991 C2992 1.388 . S
C2992 H2979 0.930 . S
C2992 C2991 1.388 . S
C2992 C2993 1.390 . S
C2993 C2992 1.390 . S
C2993 C2994 1.394 . S
C2993 C2999 1.465 . S
C2994 C2989 1.399 . S
C2994 C2993 1.394 . S
C2994 C2995 1.516 . S
C2995 C2994 1.516 . S
C2995 C2996 1.502 . S
C2995 C2997 1.561 . S
C2995 C2998 1.526 . S
C2996 H2980 0.959 . S
C2996 H2981 0.959 . S
C2996 H2982 0.961 . S
C2996 C2995 1.502 . S
C2997 H2983 0.960 . S
C2997 H2984 0.961 . S
C2997 H2985 0.959 . S
C2997 C2995 1.561 . S
C2998 C2995 1.526 . S
C2998 C2999 1.396 . S
C2998 C3003 1.390 . S
C2999 C2993 1.465 . S
C2999 C2998 1.396 . S
C2999 C3000 1.399 . S
C3000 H2986 0.929 . S
C3000 C2999 1.399 . S
C3000 C3001 1.385 . S
C3001 H2987 0.931 . S
C3001 C3000 1.385 . S
C3001 C3002 1.389 . S
C3002 C3001 1.389 . S
C3002 C3003 1.387 . S
C3003 H2988 0.930 . S
C3003 C2998 1.390 . S
C3003 C3002 1.387 . S
H3004 C3016 0.930 . S
H3005 C3018 0.930 . S
H3006 C3019 0.930 . S
H3007 C3023 0.959 . S
H3008 C3023 0.959 . S
H3009 C3023 0.961 . S
H3010 C3024 0.960 . S
H3011 C3024 0.961 . S
H3012 C3024 0.959 . S
H3013 C3027 0.929 . S
H3014 C3028 0.931 . S
H3015 C3030 0.930 . S
C3016 H3004 0.930 . S
C3016 C3017 1.399 . S
C3016 C3021 1.399 . S
C3017 C3016 1.399 . S
C3017 C3018 1.376 . S
C3018 H3005 0.930 . S
C3018 C3017 1.376 . S
C3018 C3019 1.388 . S
C3019 H3006 0.930 . S
C3019 C3018 1.388 . S
C3019 C3020 1.390 . S
C3020 C3019 1.390 . S
C3020 C3021 1.394 . S
C3020 C3026 1.465 . S
C3021 C3016 1.399 . S
C3021 C3020 1.394 . S
C3021 C3022 1.516 . S
C3022 C3021 1.516 . S
C3022 C3023 1.502 . S
C3022 C3024 1.561 . S
C3022 C3025 1.526 . S
C3023 H3007 0.959 . S
C3023 H3008 0.959 . S
C3023 H3009 0.961 . S
C3023 C3022 1.502 . S
C3024 H3010 0.960 . S
C3024 H3011 0.961 . S
C3024 H3012 0.959 . S
C3024 C3022 1.561 . S
C3025 C3022 1.526 . S
C3025 C3026 1.396 . S
C3025 C3030 1.390 . S
C3026 C3020 1.465 . S
C3026 C3025 1.396 . S
C3026 C3027 1.399 . S
C3027 H3013 0.929 . S
C3027 C3026 1.399 . S
C3027 C3028 1.385 . S
C3028 H3014 0.931 . S
C3028 C3027 1.385 . S
C3028 C3029 1.389 . S
C3029 C3028 1.389 . S
C3029 C3030 1.387 . S
C3030 H3015 0.930 . S
C3030 C3025 1.390 . S
C3030 C3029 1.387 . S
H3031 C3043 0.930 . S
H3032 C3045 0.930 . S
H3033 C3046 0.930 . S
H3034 C3050 0.959 . S
H3035 C3050 0.959 . S
H3036 C3050 0.961 . S
H3037 C3051 0.960 . S
H3038 C3051 0.961 . S
H3039 C3051 0.959 . S
H3040 C3054 0.929 . S
H3041 C3055 0.931 . S
H3042 C3057 0.930 . S
C3043 H3031 0.930 . S
C3043 C3044 1.399 . S
C3043 C3048 1.399 . S
C3044 C3043 1.399 . S
C3044 C3045 1.376 . S
C3045 H3032 0.930 . S
C3045 C3044 1.376 . S
C3045 C3046 1.388 . S
C3046 H3033 0.930 . S
C3046 C3045 1.388 . S
C3046 C3047 1.390 . S
C3047 C3046 1.390 . S
C3047 C3048 1.394 . S
C3047 C3053 1.465 . S
C3048 C3043 1.399 . S
C3048 C3047 1.394 . S
C3048 C3049 1.516 . S
C3049 C3048 1.516 . S
C3049 C3050 1.502 . S
C3049 C3051 1.561 . S
C3049 C3052 1.526 . S
C3050 H3034 0.959 . S
C3050 H3035 0.959 . S
C3050 H3036 0.961 . S
C3050 C3049 1.502 . S
C3051 H3037 0.960 . S
C3051 H3038 0.961 . S
C3051 H3039 0.959 . S
C3051 C3049 1.561 . S
C3052 C3049 1.526 . S
C3052 C3053 1.396 . S
C3052 C3057 1.390 . S
C3053 C3047 1.465 . S
C3053 C3052 1.396 . S
C3053 C3054 1.399 . S
C3054 H3040 0.929 . S
C3054 C3053 1.399 . S
C3054 C3055 1.385 . S
C3055 H3041 0.931 . S
C3055 C3054 1.385 . S
C3055 C3056 1.389 . S
C3056 C3055 1.389 . S
C3056 C3057 1.387 . S
C3057 H3042 0.930 . S
C3057 C3052 1.390 . S
C3057 C3056 1.387 . S
H3058 C3070 0.930 . S
H3059 C3072 0.930 . S
H3060 C3073 0.930 . S
H3061 C3077 0.959 . S
H3062 C3077 0.959 . S
H3063 C3077 0.961 . S
H3064 C3078 0.960 . S
H3065 C3078 0.961 . S
H3066 C3078 0.959 . S
H3067 C3081 0.929 . S
H3068 C3082 0.931 . S
H3069 C3084 0.930 . S
C3070 H3058 0.930 . S
C3070 C3071 1.399 . S
C3070 C3075 1.399 . S
C3071 C3070 1.399 . S
C3071 C3072 1.376 . S
C3072 H3059 0.930 . S
C3072 C3071 1.376 . S
C3072 C3073 1.388 . S
C3073 H3060 0.930 . S
C3073 C3072 1.388 . S
C3073 C3074 1.390 . S
C3074 C3073 1.390 . S
C3074 C3075 1.394 . S
C3074 C3080 1.465 . S
C3075 C3070 1.399 . S
C3075 C3074 1.394 . S
C3075 C3076 1.516 . S
C3076 C3075 1.516 . S
C3076 C3077 1.502 . S
C3076 C3078 1.561 . S
C3076 C3079 1.526 . S
C3077 H3061 0.959 . S
C3077 H3062 0.959 . S
C3077 H3063 0.961 . S
C3077 C3076 1.502 . S
C3078 H3064 0.960 . S
C3078 H3065 0.961 . S
C3078 H3066 0.959 . S
C3078 C3076 1.561 . S
C3079 C3076 1.526 . S
C3079 C3080 1.396 . S
C3079 C3084 1.390 . S
C3080 C3074 1.465 . S
C3080 C3079 1.396 . S
C3080 C3081 1.399 . S
C3081 H3067 0.929 . S
C3081 C3080 1.399 . S
C3081 C3082 1.385 . S
C3082 H3068 0.931 . S
C3082 C3081 1.385 . S
C3082 C3083 1.389 . S
C3083 C3082 1.389 . S
C3083 C3084 1.387 . S
C3084 H3069 0.930 . S
C3084 C3079 1.390 . S
C3084 C3083 1.387 . S
H3085 C3097 0.930 . S
H3086 C3099 0.930 . S
H3087 C3100 0.930 . S
H3088 C3104 0.959 . S
H3089 C3104 0.959 . S
H3090 C3104 0.961 . S
H3091 C3105 0.960 . S
H3092 C3105 0.961 . S
H3093 C3105 0.959 . S
H3094 C3108 0.929 . S
H3095 C3109 0.931 . S
H3096 C3111 0.930 . S
C3097 H3085 0.930 . S
C3097 C3098 1.399 . S
C3097 C3102 1.399 . S
C3098 C3097 1.399 . S
C3098 C3099 1.376 . S
C3099 H3086 0.930 . S
C3099 C3098 1.376 . S
C3099 C3100 1.388 . S
C3100 H3087 0.930 . S
C3100 C3099 1.388 . S
C3100 C3101 1.390 . S
C3101 C3100 1.390 . S
C3101 C3102 1.394 . S
C3101 C3107 1.465 . S
C3102 C3097 1.399 . S
C3102 C3101 1.394 . S
C3102 C3103 1.516 . S
C3103 C3102 1.516 . S
C3103 C3104 1.502 . S
C3103 C3105 1.561 . S
C3103 C3106 1.526 . S
C3104 H3088 0.959 . S
C3104 H3089 0.959 . S
C3104 H3090 0.961 . S
C3104 C3103 1.502 . S
C3105 H3091 0.960 . S
C3105 H3092 0.961 . S
C3105 H3093 0.959 . S
C3105 C3103 1.561 . S
C3106 C3103 1.526 . S
C3106 C3107 1.396 . S
C3106 C3111 1.390 . S
C3107 C3101 1.465 . S
C3107 C3106 1.396 . S
C3107 C3108 1.399 . S
C3108 H3094 0.929 . S
C3108 C3107 1.399 . S
C3108 C3109 1.385 . S
C3109 H3095 0.931 . S
C3109 C3108 1.385 . S
C3109 C3110 1.389 . S
C3110 C3109 1.389 . S
C3110 C3111 1.387 . S
C3111 H3096 0.930 . S
C3111 C3106 1.390 . S
C3111 C3110 1.387 . S
H3112 C3124 0.930 . S
H3113 C3126 0.930 . S
H3114 C3127 0.930 . S
H3115 C3131 0.959 . S
H3116 C3131 0.959 . S
H3117 C3131 0.961 . S
H3118 C3132 0.960 . S
H3119 C3132 0.961 . S
H3120 C3132 0.959 . S
H3121 C3135 0.929 . S
H3122 C3136 0.931 . S
H3123 C3138 0.930 . S
C3124 H3112 0.930 . S
C3124 C3125 1.399 . S
C3124 C3129 1.399 . S
C3125 C3124 1.399 . S
C3125 C3126 1.376 . S
C3126 H3113 0.930 . S
C3126 C3125 1.376 . S
C3126 C3127 1.388 . S
C3127 H3114 0.930 . S
C3127 C3126 1.388 . S
C3127 C3128 1.390 . S
C3128 C3127 1.390 . S
C3128 C3129 1.394 . S
C3128 C3134 1.465 . S
C3129 C3124 1.399 . S
C3129 C3128 1.394 . S
C3129 C3130 1.516 . S
C3130 C3129 1.516 . S
C3130 C3131 1.502 . S
C3130 C3132 1.561 . S
C3130 C3133 1.526 . S
C3131 H3115 0.959 . S
C3131 H3116 0.959 . S
C3131 H3117 0.961 . S
C3131 C3130 1.502 . S
C3132 H3118 0.960 . S
C3132 H3119 0.961 . S
C3132 H3120 0.959 . S
C3132 C3130 1.561 . S
C3133 C3130 1.526 . S
C3133 C3134 1.396 . S
C3133 C3138 1.390 . S
C3134 C3128 1.465 . S
C3134 C3133 1.396 . S
C3134 C3135 1.399 . S
C3135 H3121 0.929 . S
C3135 C3134 1.399 . S
C3135 C3136 1.385 . S
C3136 H3122 0.931 . S
C3136 C3135 1.385 . S
C3136 C3137 1.389 . S
C3137 C3136 1.389 . S
C3137 C3138 1.387 . S
C3138 H3123 0.930 . S
C3138 C3133 1.390 . S
C3138 C3137 1.387 . S
H3139 C3151 0.930 . S
H3140 C3153 0.930 . S
H3141 C3154 0.930 . S
H3142 C3158 0.959 . S
H3143 C3158 0.959 . S
H3144 C3158 0.961 . S
H3145 C3159 0.960 . S
H3146 C3159 0.961 . S
H3147 C3159 0.959 . S
H3148 C3162 0.929 . S
H3149 C3163 0.931 . S
H3150 C3165 0.930 . S
C3151 H3139 0.930 . S
C3151 C3152 1.399 . S
C3151 C3156 1.399 . S
C3152 C3151 1.399 . S
C3152 C3153 1.376 . S
C3153 H3140 0.930 . S
C3153 C3152 1.376 . S
C3153 C3154 1.388 . S
C3154 H3141 0.930 . S
C3154 C3153 1.388 . S
C3154 C3155 1.390 . S
C3155 C3154 1.390 . S
C3155 C3156 1.394 . S
C3155 C3161 1.465 . S
C3156 C3151 1.399 . S
C3156 C3155 1.394 . S
C3156 C3157 1.516 . S
C3157 C3156 1.516 . S
C3157 C3158 1.502 . S
C3157 C3159 1.561 . S
C3157 C3160 1.526 . S
C3158 H3142 0.959 . S
C3158 H3143 0.959 . S
C3158 H3144 0.961 . S
C3158 C3157 1.502 . S
C3159 H3145 0.960 . S
C3159 H3146 0.961 . S
C3159 H3147 0.959 . S
C3159 C3157 1.561 . S
C3160 C3157 1.526 . S
C3160 C3161 1.396 . S
C3160 C3165 1.390 . S
C3161 C3155 1.465 . S
C3161 C3160 1.396 . S
C3161 C3162 1.399 . S
C3162 H3148 0.929 . S
C3162 C3161 1.399 . S
C3162 C3163 1.385 . S
C3163 H3149 0.931 . S
C3163 C3162 1.385 . S
C3163 C3164 1.389 . S
C3164 C3163 1.389 . S
C3164 C3165 1.387 . S
C3165 H3150 0.930 . S
C3165 C3160 1.390 . S
C3165 C3164 1.387 . S
H3166 C3178 0.930 . S
H3167 C3180 0.930 . S
H3168 C3181 0.930 . S
H3169 C3185 0.959 . S
H3170 C3185 0.959 . S
H3171 C3185 0.961 . S
H3172 C3186 0.960 . S
H3173 C3186 0.961 . S
H3174 C3186 0.959 . S
H3175 C3189 0.944 . S
H3176 C3190 0.931 . S
H3177 C3192 0.930 . S
C3178 H3166 0.930 . S
C3178 C3179 1.399 . S
C3178 C3183 1.399 . S
C3179 C3178 1.399 . S
C3179 C3180 1.376 . S
C3180 H3167 0.930 . S
C3180 C3179 1.376 . S
C3180 C3181 1.388 . S
C3181 H3168 0.930 . S
C3181 C3180 1.388 . S
C3181 C3182 1.390 . S
C3182 C3181 1.390 . S
C3182 C3183 1.394 . S
C3182 C3188 1.465 . S
C3183 C3178 1.399 . S
C3183 C3182 1.394 . S
C3183 C3184 1.516 . S
C3184 C3183 1.516 . S
C3184 C3185 1.502 1_655 S
C3184 C3186 1.561 . S
C3184 C3187 1.526 1_655 S
C3185 H3169 0.959 . S
C3185 H3170 0.959 . S
C3185 H3171 0.961 . S
C3185 C3184 1.502 1_455 S
C3186 H3172 0.960 . S
C3186 H3173 0.961 . S
C3186 H3174 0.959 . S
C3186 C3184 1.561 . S
C3187 C3184 1.526 1_455 S
C3187 C3188 1.396 1_455 S
C3187 C3192 1.390 . S
C3188 C3182 1.465 . S
C3188 C3187 1.396 1_655 S
C3188 C3189 1.416 . S
C3189 H3175 0.944 . S
C3189 C3188 1.416 . S
C3189 C3190 1.356 1_655 S
C3190 H3176 0.931 . S
C3190 C3189 1.356 1_455 S
C3190 C3191 1.389 . S
C3191 C3190 1.389 . S
C3191 C3192 1.387 . S
C3192 H3177 0.930 . S
C3192 C3187 1.390 . S
C3192 C3191 1.387 . S
H3193 C3205 0.930 . S
H3194 C3207 0.930 . S
H3195 C3208 0.930 . S
H3196 C3212 0.959 . S
H3197 C3212 0.959 . S
H3198 C3212 0.961 . S
H3199 C3213 0.960 . S
H3200 C3213 0.961 . S
H3201 C3213 0.959 . S
H3202 C3216 0.929 . S
H3203 C3217 0.931 . S
H3204 C3219 0.930 . S
C3205 H3193 0.930 . S
C3205 C3206 1.399 . S
C3205 C3210 1.399 . S
C3206 C3205 1.399 . S
C3206 C3207 1.376 . S
C3207 H3194 0.930 . S
C3207 C3206 1.376 . S
C3207 C3208 1.388 . S
C3208 H3195 0.930 . S
C3208 C3207 1.388 . S
C3208 C3209 1.390 . S
C3209 C3208 1.390 . S
C3209 C3210 1.394 . S
C3209 C3215 1.465 . S
C3210 C3205 1.399 . S
C3210 C3209 1.394 . S
C3210 C3211 1.516 . S
C3211 C3210 1.516 . S
C3211 C3212 1.502 . S
C3211 C3213 1.561 . S
C3211 C3214 1.526 . S
C3212 H3196 0.959 . S
C3212 H3197 0.959 . S
C3212 H3198 0.961 . S
C3212 C3211 1.502 . S
C3213 H3199 0.960 . S
C3213 H3200 0.961 . S
C3213 H3201 0.959 . S
C3213 C3211 1.561 . S
C3214 C3211 1.526 . S
C3214 C3215 1.396 . S
C3214 C3219 1.390 . S
C3215 C3209 1.465 . S
C3215 C3214 1.396 . S
C3215 C3216 1.399 . S
C3216 H3202 0.929 . S
C3216 C3215 1.399 . S
C3216 C3217 1.385 . S
C3217 H3203 0.931 . S
C3217 C3216 1.385 . S
C3217 C3218 1.389 . S
C3218 C3217 1.389 . S
C3218 C3219 1.387 . S
C3219 H3204 0.930 . S
C3219 C3214 1.390 . S
C3219 C3218 1.387 . S
H3220 C3232 0.930 . S
H3221 C3234 0.930 . S
H3222 C3235 0.930 . S
H3223 C3239 0.959 . S
H3224 C3239 0.959 . S
H3225 C3239 0.961 . S
H3226 C3240 0.960 . S
H3227 C3240 0.961 . S
H3228 C3240 0.959 . S
H3229 C3243 0.929 . S
H3230 C3244 0.931 . S
H3231 C3246 0.930 . S
C3232 H3220 0.930 . S
C3232 C3233 1.399 . S
C3232 C3237 1.399 . S
C3233 C3232 1.399 . S
C3233 C3234 1.376 . S
C3234 H3221 0.930 . S
C3234 C3233 1.376 . S
C3234 C3235 1.388 . S
C3235 H3222 0.930 . S
C3235 C3234 1.388 . S
C3235 C3236 1.390 . S
C3236 C3235 1.390 . S
C3236 C3237 1.394 . S
C3236 C3242 1.465 . S
C3237 C3232 1.399 . S
C3237 C3236 1.394 . S
C3237 C3238 1.516 . S
C3238 C3237 1.516 . S
C3238 C3239 1.502 . S
C3238 C3240 1.561 . S
C3238 C3241 1.526 . S
C3239 H3223 0.959 . S
C3239 H3224 0.959 . S
C3239 H3225 0.961 . S
C3239 C3238 1.502 . S
C3240 H3226 0.960 . S
C3240 H3227 0.961 . S
C3240 H3228 0.959 . S
C3240 C3238 1.561 . S
C3241 C3238 1.526 . S
C3241 C3242 1.396 . S
C3241 C3246 1.390 . S
C3242 C3236 1.465 . S
C3242 C3241 1.396 . S
C3242 C3243 1.399 . S
C3243 H3229 0.929 . S
C3243 C3242 1.399 . S
C3243 C3244 1.385 . S
C3244 H3230 0.931 . S
C3244 C3243 1.385 . S
C3244 C3245 1.389 . S
C3245 C3244 1.389 . S
C3245 C3246 1.387 . S
C3246 H3231 0.930 . S
C3246 C3241 1.390 . S
C3246 C3245 1.387 . S
H3247 C3259 0.930 . S
H3248 C3261 0.930 . S
H3249 C3262 0.930 . S
H3250 C3266 0.959 . S
H3251 C3266 0.959 . S
H3252 C3266 0.961 . S
H3253 C3267 0.960 . S
H3254 C3267 0.961 . S
H3255 C3267 0.959 . S
H3256 C3270 0.929 . S
H3257 C3271 0.931 . S
H3258 C3273 0.930 . S
C3259 H3247 0.930 . S
C3259 C3260 1.399 . S
C3259 C3264 1.399 . S
C3260 C3259 1.399 . S
C3260 C3261 1.376 . S
C3261 H3248 0.930 . S
C3261 C3260 1.376 . S
C3261 C3262 1.388 . S
C3262 H3249 0.930 . S
C3262 C3261 1.388 . S
C3262 C3263 1.390 . S
C3263 C3262 1.390 . S
C3263 C3264 1.394 . S
C3263 C3269 1.465 . S
C3264 C3259 1.399 . S
C3264 C3263 1.394 . S
C3264 C3265 1.516 . S
C3265 C3264 1.516 . S
C3265 C3266 1.502 . S
C3265 C3267 1.561 . S
C3265 C3268 1.526 . S
C3266 H3250 0.959 . S
C3266 H3251 0.959 . S
C3266 H3252 0.961 . S
C3266 C3265 1.502 . S
C3267 H3253 0.960 . S
C3267 H3254 0.961 . S
C3267 H3255 0.959 . S
C3267 C3265 1.561 . S
C3268 C3265 1.526 . S
C3268 C3269 1.396 . S
C3268 C3273 1.390 . S
C3269 C3263 1.465 . S
C3269 C3268 1.396 . S
C3269 C3270 1.399 . S
C3270 H3256 0.929 . S
C3270 C3269 1.399 . S
C3270 C3271 1.385 . S
C3271 H3257 0.931 . S
C3271 C3270 1.385 . S
C3271 C3272 1.389 . S
C3272 C3271 1.389 . S
C3272 C3273 1.387 . S
C3273 H3258 0.930 . S
C3273 C3268 1.390 . S
C3273 C3272 1.387 . S
H3274 C3286 0.930 . S
H3275 C3288 0.930 . S
H3276 C3289 0.930 . S
H3277 C3293 0.959 . S
H3278 C3293 0.959 . S
H3279 C3293 0.961 . S
H3280 C3294 0.960 . S
H3281 C3294 0.961 . S
H3282 C3294 0.959 . S
H3283 C3297 0.929 . S
H3284 C3298 0.931 . S
H3285 C3300 0.930 . S
C3286 H3274 0.930 . S
C3286 C3287 1.399 . S
C3286 C3291 1.399 . S
C3287 C3286 1.399 . S
C3287 C3288 1.376 . S
C3288 H3275 0.930 . S
C3288 C3287 1.376 . S
C3288 C3289 1.388 . S
C3289 H3276 0.930 . S
C3289 C3288 1.388 . S
C3289 C3290 1.390 . S
C3290 C3289 1.390 . S
C3290 C3291 1.394 . S
C3290 C3296 1.465 . S
C3291 C3286 1.399 . S
C3291 C3290 1.394 . S
C3291 C3292 1.516 . S
C3292 C3291 1.516 . S
C3292 C3293 1.502 . S
C3292 C3294 1.561 . S
C3292 C3295 1.526 . S
C3293 H3277 0.959 . S
C3293 H3278 0.959 . S
C3293 H3279 0.961 . S
C3293 C3292 1.502 . S
C3294 H3280 0.960 . S
C3294 H3281 0.961 . S
C3294 H3282 0.959 . S
C3294 C3292 1.561 . S
C3295 C3292 1.526 . S
C3295 C3296 1.396 . S
C3295 C3300 1.390 . S
C3296 C3290 1.465 . S
C3296 C3295 1.396 . S
C3296 C3297 1.399 . S
C3297 H3283 0.929 . S
C3297 C3296 1.399 . S
C3297 C3298 1.385 . S
C3298 H3284 0.931 . S
C3298 C3297 1.385 . S
C3298 C3299 1.389 . S
C3299 C3298 1.389 . S
C3299 C3300 1.387 . S
C3300 H3285 0.930 . S
C3300 C3295 1.390 . S
C3300 C3299 1.387 . S
H3301 C3313 0.930 . S
H3302 C3315 0.930 . S
H3303 C3316 0.930 . S
H3304 C3320 0.959 . S
H3305 C3320 0.959 . S
H3306 C3320 0.961 . S
H3307 C3321 0.960 . S
H3308 C3321 0.961 . S
H3309 C3321 0.959 . S
H3310 C3324 0.929 . S
H3311 C3325 0.931 . S
H3312 C3327 0.930 . S
C3313 H3301 0.930 . S
C3313 C3314 1.399 . S
C3313 C3318 1.399 . S
C3314 C3313 1.399 . S
C3314 C3315 1.376 . S
C3315 H3302 0.930 . S
C3315 C3314 1.376 . S
C3315 C3316 1.388 . S
C3316 H3303 0.930 . S
C3316 C3315 1.388 . S
C3316 C3317 1.390 . S
C3317 C3316 1.390 . S
C3317 C3318 1.394 . S
C3317 C3323 1.465 . S
C3318 C3313 1.399 . S
C3318 C3317 1.394 . S
C3318 C3319 1.516 . S
C3319 C3318 1.516 . S
C3319 C3320 1.502 . S
C3319 C3321 1.561 . S
C3319 C3322 1.526 . S
C3320 H3304 0.959 . S
C3320 H3305 0.959 . S
C3320 H3306 0.961 . S
C3320 C3319 1.502 . S
C3321 H3307 0.960 . S
C3321 H3308 0.961 . S
C3321 H3309 0.959 . S
C3321 C3319 1.561 . S
C3322 C3319 1.526 . S
C3322 C3323 1.396 . S
C3322 C3327 1.390 . S
C3323 C3317 1.465 . S
C3323 C3322 1.396 . S
C3323 C3324 1.399 . S
C3324 H3310 0.929 . S
C3324 C3323 1.399 . S
C3324 C3325 1.385 . S
C3325 H3311 0.931 . S
C3325 C3324 1.385 . S
C3325 C3326 1.389 . S
C3326 C3325 1.389 . S
C3326 C3327 1.387 . S
C3327 H3312 0.930 . S
C3327 C3322 1.390 . S
C3327 C3326 1.387 . S
H3328 C3340 0.930 . S
H3329 C3342 0.930 . S
H3330 C3343 0.930 . S
H3331 C3347 0.959 . S
H3332 C3347 0.959 . S
H3333 C3347 0.961 . S
H3334 C3348 0.960 . S
H3335 C3348 0.961 . S
H3336 C3348 0.959 . S
H3337 C3351 0.929 . S
H3338 C3352 0.931 . S
H3339 C3354 0.930 . S
C3340 H3328 0.930 . S
C3340 C3341 1.399 . S
C3340 C3345 1.399 . S
C3341 C3340 1.399 . S
C3341 C3342 1.376 . S
C3342 H3329 0.930 . S
C3342 C3341 1.376 . S
C3342 C3343 1.388 . S
C3343 H3330 0.930 . S
C3343 C3342 1.388 . S
C3343 C3344 1.390 . S
C3344 C3343 1.390 . S
C3344 C3345 1.394 . S
C3344 C3350 1.465 . S
C3345 C3340 1.399 . S
C3345 C3344 1.394 . S
C3345 C3346 1.516 . S
C3346 C3345 1.516 . S
C3346 C3347 1.502 . S
C3346 C3348 1.561 . S
C3346 C3349 1.526 . S
C3347 H3331 0.959 . S
C3347 H3332 0.959 . S
C3347 H3333 0.961 . S
C3347 C3346 1.502 . S
C3348 H3334 0.960 . S
C3348 H3335 0.961 . S
C3348 H3336 0.959 . S
C3348 C3346 1.561 . S
C3349 C3346 1.526 . S
C3349 C3350 1.396 . S
C3349 C3354 1.390 . S
C3350 C3344 1.465 . S
C3350 C3349 1.396 . S
C3350 C3351 1.399 . S
C3351 H3337 0.929 . S
C3351 C3350 1.399 . S
C3351 C3352 1.385 . S
C3352 H3338 0.931 . S
C3352 C3351 1.385 . S
C3352 C3353 1.389 . S
C3353 C3352 1.389 . S
C3353 C3354 1.387 . S
C3354 H3339 0.930 . S
C3354 C3349 1.390 . S
C3354 C3353 1.387 . S
H3355 C3367 0.930 . S
H3356 C3369 0.930 . S
H3357 C3370 0.930 . S
H3358 C3374 0.959 . S
H3359 C3374 0.959 1_545 S
H3360 C3374 0.961 . S
H3361 C3375 0.960 . S
H3362 C3375 0.961 . S
H3363 C3375 0.959 . S
H3364 C3378 0.929 . S
H3365 C3379 0.931 . S
H3366 C3381 0.930 . S
C3367 H3355 0.930 . S
C3367 C3368 1.399 . S
C3367 C3372 1.399 . S
C3368 C3367 1.399 . S
C3368 C3369 1.376 . S
C3369 H3356 0.930 . S
C3369 C3368 1.376 . S
C3369 C3370 1.388 . S
C3370 H3357 0.930 . S
C3370 C3369 1.388 . S
C3370 C3371 1.390 . S
C3371 C3370 1.390 . S
C3371 C3372 1.394 . S
C3371 C3377 1.465 . S
C3372 C3367 1.399 . S
C3372 C3371 1.394 . S
C3372 C3373 1.516 . S
C3373 C3372 1.516 . S
C3373 C3374 1.502 . S
C3373 C3375 1.561 1_565 S
C3373 C3376 1.526 . S
C3374 H3358 0.959 . S
C3374 H3359 0.959 1_565 S
C3374 H3360 0.961 . S
C3374 C3373 1.502 . S
C3375 H3361 0.960 . S
C3375 H3362 0.961 . S
C3375 H3363 0.959 . S
C3375 C3373 1.561 1_545 S
C3376 C3373 1.526 . S
C3376 C3377 1.396 . S
C3376 C3381 1.390 1_565 S
C3377 C3371 1.465 . S
C3377 C3376 1.396 . S
C3377 C3378 1.399 . S
C3378 H3364 0.929 . S
C3378 C3377 1.399 . S
C3378 C3379 1.385 . S
C3379 H3365 0.931 . S
C3379 C3378 1.385 . S
C3379 C3380 1.389 1_565 S
C3380 C3379 1.389 1_545 S
C3380 C3381 1.387 . S
C3381 H3366 0.930 . S
C3381 C3376 1.390 1_545 S
C3381 C3380 1.387 . S
H3382 C3394 0.930 . S
H3383 C3396 0.930 . S
H3384 C3397 0.930 . S
H3385 C3401 0.959 . S
H3386 C3401 0.959 . S
H3387 C3401 0.961 . S
H3388 C3402 0.960 . S
H3389 C3402 0.961 . S
H3390 C3402 0.959 . S
H3391 C3405 0.929 . S
H3392 C3406 0.931 . S
H3393 C3408 0.930 . S
C3394 H3382 0.930 . S
C3394 C3395 1.399 . S
C3394 C3399 1.399 . S
C3395 C3394 1.399 . S
C3395 C3396 1.376 . S
C3396 H3383 0.930 . S
C3396 C3395 1.376 . S
C3396 C3397 1.388 . S
C3397 H3384 0.930 . S
C3397 C3396 1.388 . S
C3397 C3398 1.390 . S
C3398 C3397 1.390 . S
C3398 C3399 1.394 . S
C3398 C3404 1.465 . S
C3399 C3394 1.399 . S
C3399 C3398 1.394 . S
C3399 C3400 1.516 . S
C3400 C3399 1.516 . S
C3400 C3401 1.502 . S
C3400 C3402 1.561 . S
C3400 C3403 1.526 . S
C3401 H3385 0.959 . S
C3401 H3386 0.959 . S
C3401 H3387 0.961 . S
C3401 C3400 1.502 . S
C3402 H3388 0.960 . S
C3402 H3389 0.961 . S
C3402 H3390 0.959 . S
C3402 C3400 1.561 . S
C3403 C3400 1.526 . S
C3403 C3404 1.396 . S
C3403 C3408 1.390 . S
C3404 C3398 1.465 . S
C3404 C3403 1.396 . S
C3404 C3405 1.399 . S
C3405 H3391 0.929 . S
C3405 C3404 1.399 . S
C3405 C3406 1.385 . S
C3406 H3392 0.931 . S
C3406 C3405 1.385 . S
C3406 C3407 1.389 . S
C3407 C3406 1.389 . S
C3407 C3408 1.387 . S
C3408 H3393 0.930 . S
C3408 C3403 1.390 . S
C3408 C3407 1.387 . S
H3409 C3421 0.930 1_556 S
H3410 C3423 0.930 . S
H3411 C3424 0.930 . S
H3412 C3428 0.959 . S
H3413 C3428 0.959 . S
H3414 C3428 0.961 . S
H3415 C3429 0.960 . S
H3416 C3429 0.961 . S
H3417 C3429 0.959 . S
H3418 C3432 0.929 . S
H3419 C3433 0.931 . S
H3420 C3435 0.930 1_556 S
C3421 H3409 0.930 1_554 S
C3421 C3422 1.399 . S
C3421 C3426 1.399 . S
C3422 C3421 1.399 . S
C3422 C3423 1.376 . S
C3423 H3410 0.930 . S
C3423 C3422 1.376 . S
C3423 C3424 1.388 . S
C3424 H3411 0.930 . S
C3424 C3423 1.388 . S
C3424 C3425 1.390 . S
C3425 C3424 1.390 . S
C3425 C3426 1.394 . S
C3425 C3431 1.465 . S
C3426 C3421 1.399 . S
C3426 C3425 1.394 . S
C3426 C3427 1.516 1_554 S
C3427 C3426 1.516 1_556 S
C3427 C3428 1.502 . S
C3427 C3429 1.561 1_556 S
C3427 C3430 1.526 1_556 S
C3428 H3412 0.959 . S
C3428 H3413 0.959 . S
C3428 H3414 0.961 . S
C3428 C3427 1.502 . S
C3429 H3415 0.960 . S
C3429 H3416 0.961 . S
C3429 H3417 0.959 . S
C3429 C3427 1.561 1_554 S
C3430 C3427 1.526 1_554 S
C3430 C3431 1.396 . S
C3430 C3435 1.390 . S
C3431 C3425 1.465 . S
C3431 C3430 1.396 . S
C3431 C3432 1.399 . S
C3432 H3418 0.929 . S
C3432 C3431 1.399 . S
C3432 C3433 1.385 . S
C3433 H3419 0.931 . S
C3433 C3432 1.385 . S
C3433 C3434 1.389 . S
C3434 C3433 1.389 . S
C3434 C3435 1.387 . S
C3435 H3420 0.930 1_554 S
C3435 C3430 1.390 . S
C3435 C3434 1.387 . S
H3436 C3448 0.930 . S
H3437 C3450 0.930 . S
H3438 C3451 0.930 . S
H3439 C3455 0.959 . S
H3440 C3455 0.959 . S
H3441 C3455 0.961 . S
H3442 C3456 0.960 . S
H3443 C3456 0.961 . S
H3444 C3456 0.959 . S
H3445 C3459 0.929 . S
H3446 C3460 0.931 . S
H3447 C3462 0.930 . S
C3448 H3436 0.930 . S
C3448 C3449 1.399 . S
C3448 C3453 1.399 . S
C3449 C3448 1.399 . S
C3449 C3450 1.376 . S
C3450 H3437 0.930 . S
C3450 C3449 1.376 . S
C3450 C3451 1.388 . S
C3451 H3438 0.930 . S
C3451 C3450 1.388 . S
C3451 C3452 1.390 . S
C3452 C3451 1.390 . S
C3452 C3453 1.394 . S
C3452 C3458 1.465 . S
C3453 C3448 1.399 . S
C3453 C3452 1.394 . S
C3453 C3454 1.516 . S
C3454 C3453 1.516 . S
C3454 C3455 1.502 . S
C3454 C3456 1.561 . S
C3454 C3457 1.526 . S
C3455 H3439 0.959 . S
C3455 H3440 0.959 . S
C3455 H3441 0.961 . S
C3455 C3454 1.502 . S
C3456 H3442 0.960 . S
C3456 H3443 0.961 . S
C3456 H3444 0.959 . S
C3456 C3454 1.561 . S
C3457 C3454 1.526 . S
C3457 C3458 1.396 . S
C3457 C3462 1.390 . S
C3458 C3452 1.465 . S
C3458 C3457 1.396 . S
C3458 C3459 1.399 . S
C3459 H3445 0.929 . S
C3459 C3458 1.399 . S
C3459 C3460 1.385 . S
C3460 H3446 0.931 . S
C3460 C3459 1.385 . S
C3460 C3461 1.389 . S
C3461 C3460 1.389 . S
C3461 C3462 1.387 . S
C3462 H3447 0.930 . S
C3462 C3457 1.390 . S
C3462 C3461 1.387 . S
H3463 C3475 0.930 . S
H3464 C3477 0.931 1_556 S
H3465 C3478 0.930 . S
H3466 C3482 0.959 . S
H3467 C3482 0.959 . S
H3468 C3482 0.961 . S
H3469 C3483 0.960 . S
H3470 C3483 0.961 . S
H3471 C3483 0.959 . S
H3472 C3486 0.929 . S
H3473 C3487 0.931 . S
H3474 C3489 0.930 . S
C3475 H3463 0.930 . S
C3475 C3476 1.399 . S
C3475 C3480 1.399 . S
C3476 C3475 1.399 . S
C3476 C3477 1.378 . S
C3477 H3464 0.931 1_554 S
C3477 C3476 1.378 . S
C3477 C3478 1.386 1_554 S
C3478 H3465 0.930 . S
C3478 C3477 1.386 1_556 S
C3478 C3479 1.390 . S
C3479 C3478 1.390 . S
C3479 C3480 1.394 1_556 S
C3479 C3485 1.465 . S
C3480 C3475 1.399 . S
C3480 C3479 1.394 1_554 S
C3480 C3481 1.516 . S
C3481 C3480 1.516 . S
C3481 C3482 1.502 . S
C3481 C3483 1.561 1_554 S
C3481 C3484 1.526 1_554 S
C3482 H3466 0.959 . S
C3482 H3467 0.959 . S
C3482 H3468 0.961 . S
C3482 C3481 1.502 . S
C3483 H3469 0.960 . S
C3483 H3470 0.961 . S
C3483 H3471 0.959 . S
C3483 C3481 1.561 1_556 S
C3484 C3481 1.526 1_556 S
C3484 C3485 1.396 . S
C3484 C3489 1.390 . S
C3485 C3479 1.465 . S
C3485 C3484 1.396 . S
C3485 C3486 1.399 . S
C3486 H3472 0.929 . S
C3486 C3485 1.399 . S
C3486 C3487 1.385 . S
C3487 H3473 0.931 . S
C3487 C3486 1.385 . S
C3487 C3488 1.389 . S
C3488 C3487 1.389 . S
C3488 C3489 1.387 . S
C3489 H3474 0.930 . S
C3489 C3484 1.390 . S
C3489 C3488 1.387 . S
H3490 C3502 0.930 . S
H3491 C3504 0.930 . S
H3492 C3505 0.930 . S
H3493 C3509 0.959 . S
H3494 C3509 0.959 . S
H3495 C3509 0.961 . S
H3496 C3510 0.960 . S
H3497 C3510 0.961 . S
H3498 C3510 0.959 . S
H3499 C3513 0.929 . S
H3500 C3514 0.931 . S
H3501 C3516 0.930 . S
C3502 H3490 0.930 . S
C3502 C3503 1.399 . S
C3502 C3507 1.399 . S
C3503 C3502 1.399 . S
C3503 C3504 1.376 . S
C3504 H3491 0.930 . S
C3504 C3503 1.376 . S
C3504 C3505 1.388 . S
C3505 H3492 0.930 . S
C3505 C3504 1.388 . S
C3505 C3506 1.390 . S
C3506 C3505 1.390 . S
C3506 C3507 1.394 . S
C3506 C3512 1.465 . S
C3507 C3502 1.399 . S
C3507 C3506 1.394 . S
C3507 C3508 1.516 . S
C3508 C3507 1.516 . S
C3508 C3509 1.502 . S
C3508 C3510 1.561 . S
C3508 C3511 1.526 . S
C3509 H3493 0.959 . S
C3509 H3494 0.959 . S
C3509 H3495 0.961 . S
C3509 C3508 1.502 . S
C3510 H3496 0.960 . S
C3510 H3497 0.961 . S
C3510 H3498 0.959 . S
C3510 C3508 1.561 . S
C3511 C3508 1.526 . S
C3511 C3512 1.396 . S
C3511 C3516 1.390 . S
C3512 C3506 1.465 . S
C3512 C3511 1.396 . S
C3512 C3513 1.399 . S
C3513 H3499 0.929 . S
C3513 C3512 1.399 . S
C3513 C3514 1.385 . S
C3514 H3500 0.931 . S
C3514 C3513 1.385 . S
C3514 C3515 1.389 . S
C3515 C3514 1.389 . S
C3515 C3516 1.387 . S
C3516 H3501 0.930 . S
C3516 C3511 1.390 . S
C3516 C3515 1.387 . S
H3517 C3529 0.930 . S
H3518 C3531 0.930 . S
H3519 C3532 0.930 . S
H3520 C3536 0.959 . S
H3521 C3536 0.959 . S
H3522 C3536 0.961 . S
H3523 C3537 0.960 . S
H3524 C3537 0.961 . S
H3525 C3537 0.959 . S
H3526 C3540 0.929 . S
H3527 C3541 0.931 . S
H3528 C3543 0.930 . S
C3529 H3517 0.930 . S
C3529 C3530 1.399 . S
C3529 C3534 1.399 . S
C3530 C3529 1.399 . S
C3530 C3531 1.376 . S
C3531 H3518 0.930 . S
C3531 C3530 1.376 . S
C3531 C3532 1.388 . S
C3532 H3519 0.930 . S
C3532 C3531 1.388 . S
C3532 C3533 1.390 . S
C3533 C3532 1.390 . S
C3533 C3534 1.394 . S
C3533 C3539 1.465 . S
C3534 C3529 1.399 . S
C3534 C3533 1.394 . S
C3534 C3535 1.516 . S
C3535 C3534 1.516 . S
C3535 C3536 1.502 . S
C3535 C3537 1.561 . S
C3535 C3538 1.526 . S
C3536 H3520 0.959 . S
C3536 H3521 0.959 . S
C3536 H3522 0.961 . S
C3536 C3535 1.502 . S
C3537 H3523 0.960 . S
C3537 H3524 0.961 . S
C3537 H3525 0.959 . S
C3537 C3535 1.561 . S
C3538 C3535 1.526 . S
C3538 C3539 1.396 . S
C3538 C3543 1.390 . S
C3539 C3533 1.465 . S
C3539 C3538 1.396 . S
C3539 C3540 1.399 . S
C3540 H3526 0.929 . S
C3540 C3539 1.399 . S
C3540 C3541 1.385 . S
C3541 H3527 0.931 . S
C3541 C3540 1.385 . S
C3541 C3542 1.389 . S
C3542 C3541 1.389 . S
C3542 C3543 1.387 . S
C3543 H3528 0.930 . S
C3543 C3538 1.390 . S
C3543 C3542 1.387 . S
C965 C101 2.331 . S
C977 C322 2.281 1_556 S
C992 C57 2.087 . S
C1004 C370 2.130 . S
C1019 C73 1.260 . S
C1031 C402 1.304 . S
C1058 C447 1.369 . S
C1046 C78 1.259 . S
C1073 C21 1.214 . S
C1085 C487 1.343 . S
C1112 C518 0.487 . S
C1100 C31 0.490 . S
C1139 C570 1.333 . S
C1127 C49 1.372 . S
C1154 C0 1.710 . S
C1166 C602 1.731 . S
C1193 C330 2.483 . S
C1181 C218 2.498 . S
C1208 C229 0.490 . S
C1220 C367 0.586 . S
C1247 C410 1.299 . S
C1235 C257 1.302 . S
C1274 C442 1.375 . S
C1262 C164 1.327 . S
C1289 C216 1.734 . S
C1301 C482 1.860 . S
C1328 C521 1.451 . S
C1316 C231 1.465 . S
C1355 C567 0.505 . S
C1343 C255 0.303 . S
C1382 C610 2.049 . S
C1370 C166 2.087 . S
C1409 C327 1.424 1_565 S
C1397 C143 1.440 . S
C1424 C265 1.964 1_556 S
C1436 C650 1.958 . S
C1463 C691 2.546 . S
C1451 C299 2.560 . S
C1490 C722 0.689 1_655 S
C1478 C291 0.721 . S
C1505 C104 1.361 . S
C1517 C607 1.297 . S
C1532 C117 1.506 . S
C1544 C407 1.484 . S
C1559 C304 2.172 . S
C1571 C770 2.193 . S
C1598 C802 0.411 . S
C1586 C278 0.418 . S
C1625 C331 2.284 . S
C1613 C60 2.297 . S
C1652 C801 2.056 . S
C1640 C96 2.038 . S
C1667 C88 1.198 . S
C1679 C411 1.131 . S
C1694 C65 1.308 . S
C1706 C758 1.304 . S
C1733 C478 1.271 . S
C1721 C10 1.309 . S
C1748 C44 0.494 . S
C1760 C687 0.437 . S
C1787 C561 1.249 1_556 S
C1775 C34 1.092 . S
C1814 C851 1.691 . S
C1802 C13 1.773 . S
C1841 C321 2.438 . S
C1829 C138 2.376 . S
C1868 C798 0.484 . S
C1856 C296 0.481 . S
C1883 C112 1.218 . S
C1895 C401 1.196 . S
C1910 C270 1.266 . S
C1922 C771 1.222 . S
C1937 C140 1.822 . S
C1949 C491 1.815 . S
C1976 C690 1.410 . S
C1964 C294 1.378 . S
C1991 C114 0.342 . S
C2003 C558 0.345 . S
C2018 C268 2.015 . S
C2030 C841 1.999 . S
C2045 C169 1.486 . S
C2057 C318 1.468 . S
C2072 C161 1.901 . S
C2084 C641 1.887 . S
C2099 C234 2.525 . S
C2111 C522 2.463 . S
C2126 C226 0.525 . S
C2138 C731 0.511 . S
C2165 C838 1.329 . S
C2153 C247 1.460 . S
C2180 C195 1.536 . S
C2192 C398 1.520 . S
C2219 C441 2.109 . S
C2207 C239 2.123 . S
C2246 C371 0.409 . S
C2234 C187 0.294 . S
C2261 C75 2.333 . S
C2273 C882 2.283 . S
C2300 C810 2.121 . S
C2288 C83 2.102 . S
C2315 C99 1.267 . S
C2327 C922 1.308 . S
C2342 C52 1.304 . S
C2354 C767 1.344 . S
C2369 C47 1.308 . S
C2381 C647 1.271 . S
C2408 C678 0.469 . S
C2396 C5 0.506 . S
C2435 C730 1.399 . S
C2423 C23 1.306 . S
C2462 C842 1.669 . S
C2450 C26 1.658 . S
C2489 C890 2.475 . S
C2477 C244 2.486 . S
C2504 C177 0.509 . S
C2516 C807 0.571 . S
C2543 C930 1.266 . S
C2531 C192 1.283 . S
C2570 C762 1.370 . S
C2558 C203 1.314 . S
C2597 C642 1.882 . S
C2585 C242 1.816 . S
C2612 C179 1.466 . S
C2624 C681 1.445 . S
C2651 C727 0.306 . S
C2639 C190 0.547 . S
C2666 C205 2.085 . S
C2678 C850 2.057 . S
C2705 C887 1.493 . S
C2693 C286 1.335 . S
C2720 C122 1.941 . S
C2732 C490 1.971 . S
C2759 C531 2.538 . S
C2747 C130 2.567 . S
C2786 C562 0.681 . S
C2774 C148 0.683 . S
C2813 C847 1.302 . S
C2801 C273 1.354 . S
C2828 C260 1.512 . S
C2840 C927 1.481 . S
C2867 C450 2.208 . S
C2855 C135 2.161 . S
C2894 C362 0.405 . S
C2882 C109 0.417 . S
C2909 C86 2.278 . S
C2921 C891 2.264 . S
C2948 C361 2.040 . S
C2936 C70 2.058 . S
C2963 C62 1.199 . S
C2975 C931 1.133 . S
C2990 C91 1.266 . S
C3002 C438 1.246 . S
C3017 C36 1.280 . S
C3029 C638 1.314 . S
C3056 C527 0.442 . S
C3044 C18 0.419 . S
C3071 C8 1.213 . S
C3083 C721 1.244 . S
C3098 C39 1.764 . S
C3110 C611 1.656 . S
C3137 C881 2.422 . S
C3125 C307 2.405 . S
C3152 C153 0.485 . S
C3164 C358 0.478 . S
C3191 C921 1.201 . S
C3179 C281 1.154 . S
C3206 C127 1.283 . S
C3218 C451 1.281 . S
C3233 C309 1.827 . S
C3245 C651 1.800 . S
C3272 C530 1.393 . S
C3260 C151 1.402 . S
C3287 C283 0.350 . S
C3299 C718 0.264 . S
C3326 C601 2.032 . S
C3314 C125 2.018 . S
C3353 C878 1.467 . S
C3341 C221 1.475 . S
C3380 C481 1.904 1_655 S
C3368 C200 1.880 . S
C3395 C208 2.525 . S
C3407 C682 2.462 . S
C3434 C571 0.509 . S
C3422 C174 0.507 . S
C3449 C182 1.457 . S
C3461 C598 1.426 . S
C3476 C156 1.533 . S
C3488 C918 1.512 . S
C3515 C761 2.104 . S
C3503 C213 2.127 1_565 S
C3542 C811 0.527 . S
C3530 C252 0.348 . S
