# Generated by pormake.
# Topology gar, (4,6)-cn, num edge types: 1
# Building blocks:
#     Node 0, Type 0, BuildingBlock: UXUYUI_clean_sbu_0, # of connection points: 4
#     Node 1, Type 0, BuildingBlock: UXUYUI_clean_sbu_0, # of connection points: 4
#     Node 2, Type 0, BuildingBlock: UXUYUI_clean_sbu_0, # of connection points: 4
#     Node 3, Type 0, BuildingBlock: UXUYUI_clean_sbu_0, # of connection points: 4
#     Node 4, Type 0, BuildingBlock: UXUYUI_clean_sbu_0, # of connection points: 4
#     Node 5, Type 0, BuildingBlock: UXUYUI_clean_sbu_0, # of connection points: 4
#     Node 6, Type 0, BuildingBlock: UXUYUI_clean_sbu_0, # of connection points: 4
#     Node 7, Type 0, BuildingBlock: UXUYUI_clean_sbu_0, # of connection points: 4
#     Node 8, Type 0, BuildingBlock: UXUYUI_clean_sbu_0, # of connection points: 4
#     Node 9, Type 0, BuildingBlock: UXUYUI_clean_sbu_0, # of connection points: 4
#     Node 10, Type 0, BuildingBlock: UXUYUI_clean_sbu_0, # of connection points: 4
#     Node 11, Type 0, BuildingBlock: UXUYUI_clean_sbu_0, # of connection points: 4
#     Node 12, Type 0, BuildingBlock: UXUYUI_clean_sbu_0, # of connection points: 4
#     Node 13, Type 0, BuildingBlock: UXUYUI_clean_sbu_0, # of connection points: 4
#     Node 14, Type 0, BuildingBlock: UXUYUI_clean_sbu_0, # of connection points: 4
#     Node 15, Type 0, BuildingBlock: UXUYUI_clean_sbu_0, # of connection points: 4
#     Node 16, Type 0, BuildingBlock: UXUYUI_clean_sbu_0, # of connection points: 4
#     Node 17, Type 0, BuildingBlock: UXUYUI_clean_sbu_0, # of connection points: 4
#     Node 18, Type 0, BuildingBlock: UXUYUI_clean_sbu_0, # of connection points: 4
#     Node 19, Type 0, BuildingBlock: UXUYUI_clean_sbu_0, # of connection points: 4
#     Node 20, Type 0, BuildingBlock: UXUYUI_clean_sbu_0, # of connection points: 4
#     Node 21, Type 0, BuildingBlock: UXUYUI_clean_sbu_0, # of connection points: 4
#     Node 22, Type 0, BuildingBlock: UXUYUI_clean_sbu_0, # of connection points: 4
#     Node 23, Type 0, BuildingBlock: UXUYUI_clean_sbu_0, # of connection points: 4
#     Node 24, Type 1, BuildingBlock: BETDEL_clean_sbu_0, # of connection points: 6
#     Node 25, Type 1, BuildingBlock: BETDEL_clean_sbu_0, # of connection points: 6
#     Node 26, Type 1, BuildingBlock: BETDEL_clean_sbu_0, # of connection points: 6
#     Node 27, Type 1, BuildingBlock: BETDEL_clean_sbu_0, # of connection points: 6
#     Node 28, Type 1, BuildingBlock: BETDEL_clean_sbu_0, # of connection points: 6
#     Node 29, Type 1, BuildingBlock: BETDEL_clean_sbu_0, # of connection points: 6
#     Node 30, Type 1, BuildingBlock: BETDEL_clean_sbu_0, # of connection points: 6
#     Node 31, Type 1, BuildingBlock: BETDEL_clean_sbu_0, # of connection points: 6
#     Node 32, Type 1, BuildingBlock: BETDEL_clean_sbu_0, # of connection points: 6
#     Node 33, Type 1, BuildingBlock: BETDEL_clean_sbu_0, # of connection points: 6
#     Node 34, Type 1, BuildingBlock: BETDEL_clean_sbu_0, # of connection points: 6
#     Node 35, Type 1, BuildingBlock: BETDEL_clean_sbu_0, # of connection points: 6
#     Node 36, Type 1, BuildingBlock: BETDEL_clean_sbu_0, # of connection points: 6
#     Node 37, Type 1, BuildingBlock: BETDEL_clean_sbu_0, # of connection points: 6
#     Node 38, Type 1, BuildingBlock: BETDEL_clean_sbu_0, # of connection points: 6
#     Node 39, Type 1, BuildingBlock: BETDEL_clean_sbu_0, # of connection points: 6
#     Edge 40, Type (0, 1), BuildingBlock: OJICUG_clean_linker_0, # of connection points: 2
#     Edge 41, Type (0, 1), BuildingBlock: OJICUG_clean_linker_0, # of connection points: 2
#     Edge 42, Type (0, 1), BuildingBlock: OJICUG_clean_linker_0, # of connection points: 2
#     Edge 43, Type (0, 1), BuildingBlock: OJICUG_clean_linker_0, # of connection points: 2
#     Edge 44, Type (0, 1), BuildingBlock: OJICUG_clean_linker_0, # of connection points: 2
#     Edge 45, Type (0, 1), BuildingBlock: OJICUG_clean_linker_0, # of connection points: 2
#     Edge 46, Type (0, 1), BuildingBlock: OJICUG_clean_linker_0, # of connection points: 2
#     Edge 47, Type (0, 1), BuildingBlock: OJICUG_clean_linker_0, # of connection points: 2
#     Edge 48, Type (0, 1), BuildingBlock: OJICUG_clean_linker_0, # of connection points: 2
#     Edge 49, Type (0, 1), BuildingBlock: OJICUG_clean_linker_0, # of connection points: 2
#     Edge 50, Type (0, 1), BuildingBlock: OJICUG_clean_linker_0, # of connection points: 2
#     Edge 51, Type (0, 1), BuildingBlock: OJICUG_clean_linker_0, # of connection points: 2
#     Edge 52, Type (0, 1), BuildingBlock: OJICUG_clean_linker_0, # of connection points: 2
#     Edge 53, Type (0, 1), BuildingBlock: OJICUG_clean_linker_0, # of connection points: 2
#     Edge 54, Type (0, 1), BuildingBlock: OJICUG_clean_linker_0, # of connection points: 2
#     Edge 55, Type (0, 1), BuildingBlock: OJICUG_clean_linker_0, # of connection points: 2
#     Edge 56, Type (0, 1), BuildingBlock: OJICUG_clean_linker_0, # of connection points: 2
#     Edge 57, Type (0, 1), BuildingBlock: OJICUG_clean_linker_0, # of connection points: 2
#     Edge 58, Type (0, 1), BuildingBlock: OJICUG_clean_linker_0, # of connection points: 2
#     Edge 59, Type (0, 1), BuildingBlock: OJICUG_clean_linker_0, # of connection points: 2
#     Edge 60, Type (0, 1), BuildingBlock: OJICUG_clean_linker_0, # of connection points: 2
#     Edge 61, Type (0, 1), BuildingBlock: OJICUG_clean_linker_0, # of connection points: 2
#     Edge 62, Type (0, 1), BuildingBlock: OJICUG_clean_linker_0, # of connection points: 2
#     Edge 63, Type (0, 1), BuildingBlock: OJICUG_clean_linker_0, # of connection points: 2
#     Edge 64, Type (0, 1), BuildingBlock: OJICUG_clean_linker_0, # of connection points: 2
#     Edge 65, Type (0, 1), BuildingBlock: OJICUG_clean_linker_0, # of connection points: 2
#     Edge 66, Type (0, 1), BuildingBlock: OJICUG_clean_linker_0, # of connection points: 2
#     Edge 67, Type (0, 1), BuildingBlock: OJICUG_clean_linker_0, # of connection points: 2
#     Edge 68, Type (0, 1), BuildingBlock: OJICUG_clean_linker_0, # of connection points: 2
#     Edge 69, Type (0, 1), BuildingBlock: OJICUG_clean_linker_0, # of connection points: 2
#     Edge 70, Type (0, 1), BuildingBlock: OJICUG_clean_linker_0, # of connection points: 2
#     Edge 71, Type (0, 1), BuildingBlock: OJICUG_clean_linker_0, # of connection points: 2
#     Edge 72, Type (0, 1), BuildingBlock: OJICUG_clean_linker_0, # of connection points: 2
#     Edge 73, Type (0, 1), BuildingBlock: OJICUG_clean_linker_0, # of connection points: 2
#     Edge 74, Type (0, 1), BuildingBlock: OJICUG_clean_linker_0, # of connection points: 2
#     Edge 75, Type (0, 1), BuildingBlock: OJICUG_clean_linker_0, # of connection points: 2
#     Edge 76, Type (0, 1), BuildingBlock: OJICUG_clean_linker_0, # of connection points: 2
#     Edge 77, Type (0, 1), BuildingBlock: OJICUG_clean_linker_0, # of connection points: 2
#     Edge 78, Type (0, 1), BuildingBlock: OJICUG_clean_linker_0, # of connection points: 2
#     Edge 79, Type (0, 1), BuildingBlock: OJICUG_clean_linker_0, # of connection points: 2
#     Edge 80, Type (0, 1), BuildingBlock: OJICUG_clean_linker_0, # of connection points: 2
#     Edge 81, Type (0, 1), BuildingBlock: OJICUG_clean_linker_0, # of connection points: 2
#     Edge 82, Type (0, 1), BuildingBlock: OJICUG_clean_linker_0, # of connection points: 2
#     Edge 83, Type (0, 1), BuildingBlock: OJICUG_clean_linker_0, # of connection points: 2
#     Edge 84, Type (0, 1), BuildingBlock: OJICUG_clean_linker_0, # of connection points: 2
#     Edge 85, Type (0, 1), BuildingBlock: OJICUG_clean_linker_0, # of connection points: 2
#     Edge 86, Type (0, 1), BuildingBlock: OJICUG_clean_linker_0, # of connection points: 2
#     Edge 87, Type (0, 1), BuildingBlock: OJICUG_clean_linker_0, # of connection points: 2
#     Edge 88, Type (0, 1), BuildingBlock: OJICUG_clean_linker_0, # of connection points: 2
#     Edge 89, Type (0, 1), BuildingBlock: OJICUG_clean_linker_0, # of connection points: 2
#     Edge 90, Type (0, 1), BuildingBlock: OJICUG_clean_linker_0, # of connection points: 2
#     Edge 91, Type (0, 1), BuildingBlock: OJICUG_clean_linker_0, # of connection points: 2
#     Edge 92, Type (0, 1), BuildingBlock: OJICUG_clean_linker_0, # of connection points: 2
#     Edge 93, Type (0, 1), BuildingBlock: OJICUG_clean_linker_0, # of connection points: 2
#     Edge 94, Type (0, 1), BuildingBlock: OJICUG_clean_linker_0, # of connection points: 2
#     Edge 95, Type (0, 1), BuildingBlock: OJICUG_clean_linker_0, # of connection points: 2
#     Edge 96, Type (0, 1), BuildingBlock: OJICUG_clean_linker_0, # of connection points: 2
#     Edge 97, Type (0, 1), BuildingBlock: OJICUG_clean_linker_0, # of connection points: 2
#     Edge 98, Type (0, 1), BuildingBlock: OJICUG_clean_linker_0, # of connection points: 2
#     Edge 99, Type (0, 1), BuildingBlock: OJICUG_clean_linker_0, # of connection points: 2
#     Edge 100, Type (0, 1), BuildingBlock: OJICUG_clean_linker_0, # of connection points: 2
#     Edge 101, Type (0, 1), BuildingBlock: OJICUG_clean_linker_0, # of connection points: 2
#     Edge 102, Type (0, 1), BuildingBlock: OJICUG_clean_linker_0, # of connection points: 2
#     Edge 103, Type (0, 1), BuildingBlock: OJICUG_clean_linker_0, # of connection points: 2
#     Edge 104, Type (0, 1), BuildingBlock: OJICUG_clean_linker_0, # of connection points: 2
#     Edge 105, Type (0, 1), BuildingBlock: OJICUG_clean_linker_0, # of connection points: 2
#     Edge 106, Type (0, 1), BuildingBlock: OJICUG_clean_linker_0, # of connection points: 2
#     Edge 107, Type (0, 1), BuildingBlock: OJICUG_clean_linker_0, # of connection points: 2
#     Edge 108, Type (0, 1), BuildingBlock: OJICUG_clean_linker_0, # of connection points: 2
#     Edge 109, Type (0, 1), BuildingBlock: OJICUG_clean_linker_0, # of connection points: 2
#     Edge 110, Type (0, 1), BuildingBlock: OJICUG_clean_linker_0, # of connection points: 2
#     Edge 111, Type (0, 1), BuildingBlock: OJICUG_clean_linker_0, # of connection points: 2
#     Edge 112, Type (0, 1), BuildingBlock: OJICUG_clean_linker_0, # of connection points: 2
#     Edge 113, Type (0, 1), BuildingBlock: OJICUG_clean_linker_0, # of connection points: 2
#     Edge 114, Type (0, 1), BuildingBlock: OJICUG_clean_linker_0, # of connection points: 2
#     Edge 115, Type (0, 1), BuildingBlock: OJICUG_clean_linker_0, # of connection points: 2
#     Edge 116, Type (0, 1), BuildingBlock: OJICUG_clean_linker_0, # of connection points: 2
#     Edge 117, Type (0, 1), BuildingBlock: OJICUG_clean_linker_0, # of connection points: 2
#     Edge 118, Type (0, 1), BuildingBlock: OJICUG_clean_linker_0, # of connection points: 2
#     Edge 119, Type (0, 1), BuildingBlock: OJICUG_clean_linker_0, # of connection points: 2
#     Edge 120, Type (0, 1), BuildingBlock: OJICUG_clean_linker_0, # of connection points: 2
#     Edge 121, Type (0, 1), BuildingBlock: OJICUG_clean_linker_0, # of connection points: 2
#     Edge 122, Type (0, 1), BuildingBlock: OJICUG_clean_linker_0, # of connection points: 2
#     Edge 123, Type (0, 1), BuildingBlock: OJICUG_clean_linker_0, # of connection points: 2
#     Edge 124, Type (0, 1), BuildingBlock: OJICUG_clean_linker_0, # of connection points: 2
#     Edge 125, Type (0, 1), BuildingBlock: OJICUG_clean_linker_0, # of connection points: 2
#     Edge 126, Type (0, 1), BuildingBlock: OJICUG_clean_linker_0, # of connection points: 2
#     Edge 127, Type (0, 1), BuildingBlock: OJICUG_clean_linker_0, # of connection points: 2
#     Edge 128, Type (0, 1), BuildingBlock: OJICUG_clean_linker_0, # of connection points: 2
#     Edge 129, Type (0, 1), BuildingBlock: OJICUG_clean_linker_0, # of connection points: 2
#     Edge 130, Type (0, 1), BuildingBlock: OJICUG_clean_linker_0, # of connection points: 2
#     Edge 131, Type (0, 1), BuildingBlock: OJICUG_clean_linker_0, # of connection points: 2
#     Edge 132, Type (0, 1), BuildingBlock: OJICUG_clean_linker_0, # of connection points: 2
#     Edge 133, Type (0, 1), BuildingBlock: OJICUG_clean_linker_0, # of connection points: 2
#     Edge 134, Type (0, 1), BuildingBlock: OJICUG_clean_linker_0, # of connection points: 2
#     Edge 135, Type (0, 1), BuildingBlock: OJICUG_clean_linker_0, # of connection points: 2
# Relax obj value: 0.177
# Max RMSD: 0.265
# Mean RMSD: 0.195
data_MOF--net-gar--node1-UXUYUI_clean_sbu_0--node2-BETDEL_clean_sbu_0--edge1-OJICUG_clean_linker_0
_symmetry_space_group_name_H-M    P1
_symmetry_Int_Tables_number       1
_symmetry_cell_setting            triclinic
loop_
_symmetry_equiv_pos_as_xyz
'x, y, z'
_cell_length_a     54.039054
_cell_length_b     51.570727
_cell_length_c     52.816081
_cell_angle_alpha  95.401147
_cell_angle_beta   92.280843
_cell_angle_gamma 100.43838
loop_
_atom_site_label
_atom_site_type_symbol
_atom_site_fract_x
_atom_site_fract_y
_atom_site_fract_z
_atom_type_partial_charge
Li0 Li 0.00626 0.27283 0.37969 0.0
Li1 Li 0.03769 0.29978 0.41357 0.0
Li2 Li 0.0519 0.27086 0.37669 0.0
Li3 Li 0.02894 0.25152 0.40976 0.0
C4 C 0.03972 0.32175 0.36036 0.0
N5 N 0.04985 0.36191 0.32892 0.0
C6 C 0.03781 0.34771 0.36916 0.0
C7 C 0.04689 0.31629 0.33554 0.0
C8 C 0.04296 0.36771 0.35298 0.0
C9 C 0.05191 0.33684 0.31996 0.0
C10 C 0.99387 0.26788 0.43817 0.0
C11 C 0.99263 0.2689 0.48383 0.0
N12 N 0.97056 0.25111 0.48088 0.0
C13 C 0.97119 0.24964 0.43556 0.0
C14 C 0.0047 0.27765 0.46246 0.0
C15 C 0.95969 0.2414 0.45741 0.0
C16 C 0.95503 0.25547 0.36017 0.0
N17 N 0.9746 0.27633 0.36419 0.0
C18 C 0.94816 0.3061 0.35193 0.0
C19 C 0.97159 0.30127 0.36021 0.0
C20 C 0.92742 0.2851 0.34801 0.0
C21 C 0.93114 0.25943 0.35201 0.0
H22 H 0.95783 0.23591 0.36392 0.0
H23 H 0.98721 0.31763 0.36429 0.0
C24 C 0.06312 0.34931 0.44189 0.0
N25 N 0.04117 0.33269 0.43372 0.0
C26 C 0.06257 0.37409 0.45509 0.0
C27 C 0.01703 0.36361 0.45139 0.0
C28 C 0.01846 0.33937 0.43824 0.0
C29 C 0.03922 0.38159 0.45971 0.0
H30 H 0.08094 0.34358 0.43774 0.0
H31 H 1.00132 0.32593 0.43119 0.0
C32 C 0.01732 0.23065 0.34737 0.0
N33 N 0.00749 0.21027 0.29692 0.0
C34 C 0.01761 0.20392 0.34006 0.0
C35 C 0.01186 0.24691 0.32901 0.0
C36 C 0.01264 0.19401 0.31446 0.0
C37 C 0.007 0.23628 0.30361 0.0
C38 C 0.07768 0.26343 0.42754 0.0
C39 C 0.08469 0.24018 0.41688 0.0
C40 C 0.08615 0.27369 0.45244 0.0
C41 C 0.09988 0.22734 0.43151 0.0
C42 C 0.10133 0.26028 0.46643 0.0
N43 N 0.1078 0.23756 0.45578 0.0
C44 C 0.09743 0.29201 0.3559 0.0
C45 C 0.08218 0.24694 0.34112 0.0
C46 C 0.11878 0.29221 0.34177 0.0
N47 N 0.0796 0.26965 0.35524 0.0
C48 C 0.10318 0.24627 0.32659 0.0
C49 C 0.12196 0.2691 0.32683 0.0
H50 H 0.0952 0.30966 0.36772 0.0
H51 H 0.0682 0.22918 0.3414 0.0
C52 C 0.0153 0.19771 0.41718 0.0
N53 N 0.02532 0.22175 0.42976 0.0
C54 C 0.01254 0.17487 0.42983 0.0
C55 C 0.03001 0.20185 0.46848 0.0
C56 C 0.03253 0.22421 0.455 0.0
C57 C 0.01993 0.17667 0.45588 0.0
H58 H 0.00952 0.19623 0.39722 0.0
H59 H 0.04025 0.2435 0.46475 0.0
O60 O 0.03512 0.30201 0.37618 0.0
O61 O 0.00538 0.27628 0.41705 0.0
O62 O 0.02191 0.24048 0.37247 0.0
O63 O 0.06266 0.27614 0.41364 0.0
H64 H 0.03228 0.35241 0.38823 0.0
H65 H 0.04884 0.29648 0.32838 0.0
H66 H 0.04148 0.38786 0.35955 0.0
H67 H 0.05753 0.33287 0.30076 0.0
H68 H 1.00085 0.27619 0.50274 0.0
H69 H 0.96259 0.24194 0.41686 0.0
H70 H 0.02238 0.2916 0.46478 0.0
H71 H 0.94211 0.22729 0.45571 0.0
H72 H 0.94613 0.32623 0.34945 0.0
H73 H 0.91574 0.24261 0.34896 0.0
H74 H 0.08014 0.38742 0.46103 0.0
H75 H 0.99861 0.36819 0.45494 0.0
H76 H 0.02185 0.191 0.35396 0.0
H77 H 0.01115 0.26747 0.33429 0.0
H78 H 0.01289 0.1734 0.30855 0.0
H79 H 0.00275 0.24869 0.28923 0.0
H80 H 0.07825 0.23203 0.39761 0.0
H81 H 0.08087 0.29172 0.46089 0.0
H82 H 0.10533 0.20923 0.42359 0.0
H83 H 0.10794 0.26789 0.48578 0.0
H84 H 0.13293 0.31014 0.34307 0.0
H85 H 0.10465 0.22803 0.31531 0.0
H86 H 0.00506 0.15594 0.41912 0.0
H87 H 0.03569 0.20432 0.48858 0.0
Li88 Li 0.99941 0.79807 0.60934 0.0
Li89 Li 0.0224 0.77838 0.63977 0.0
Li90 Li 0.99351 0.74951 0.60878 0.0
Li91 Li 0.97783 0.77708 0.64518 0.0
C92 C 0.04351 0.7877 0.5904 0.0
N93 N 0.08293 0.81447 0.56579 0.0
C94 C 0.05955 0.80981 0.60305 0.0
C95 C 0.04757 0.77907 0.5653 0.0
C96 C 0.07936 0.82311 0.59027 0.0
C97 C 0.06759 0.79291 0.55316 0.0
C98 C 0.01615 0.82599 0.66666 0.0
C99 C 0.02031 0.84063 0.71164 0.0
N100 N 0.03859 0.86131 0.70726 0.0
C101 C 0.03473 0.84762 0.66257 0.0
C102 C 0.00864 0.82264 0.69135 0.0
C103 C 0.04595 0.86516 0.68336 0.0
C104 C 0.99795 0.85066 0.60201 0.0
N105 N 1.00061 0.8273 0.58923 0.0
C106 C 0.0074 0.84805 0.5507 0.0
C107 C 0.00495 0.82551 0.56395 0.0
C108 C 0.00563 0.87261 0.56372 0.0
C109 C 1.00049 0.87364 0.58962 0.0
H110 H 0.99424 0.85154 0.622 0.0
H111 H 0.00701 0.80674 0.55414 0.0
C112 C 0.06805 0.76189 0.64251 0.0
N113 N 0.05458 0.77757 0.65618 0.0
C114 C 0.09056 0.75671 0.65279 0.0
C115 C 0.08515 0.78384 0.69128 0.0
C116 C 0.06273 0.78868 0.68014 0.0
C117 C 0.09927 0.76752 0.67758 0.0
H118 H 0.06082 0.75261 0.62383 0.0
H119 H 0.05153 0.8005 0.69099 0.0
C120 C 0.95472 0.7699 0.58399 0.0
N121 N 0.93045 0.76557 0.53633 0.0
C122 C 0.93 0.77427 0.58153 0.0
C123 C 0.96709 0.76331 0.56223 0.0
C124 C 0.91805 0.77198 0.55726 0.0
C125 C 0.95451 0.76124 0.53831 0.0
C126 C 0.00889 0.73549 0.66318 0.0
C127 C 0.01994 0.71392 0.65494 0.0
C128 C 0.01157 0.74538 0.6889 0.0
C129 C 0.03377 0.70281 0.67254 0.0
C130 C 0.02553 0.73372 0.70592 0.0
N131 N 0.03628 0.71287 0.69745 0.0
C132 C 0.0126 0.70998 0.58231 0.0
C133 C 0.96813 0.69891 0.58325 0.0
C134 C 0.01353 0.68522 0.56982 0.0
N135 N 0.99023 0.71623 0.589 0.0
C136 C 0.96816 0.67381 0.5705 0.0
C137 C 0.99119 0.6666 0.56403 0.0
H138 H 0.02988 0.72407 0.58735 0.0
H139 H 0.95061 0.70437 0.58899 0.0
C140 C 0.93783 0.79809 0.66655 0.0
N141 N 0.95151 0.77855 0.66784 0.0
C142 C 0.91797 0.79952 0.6825 0.0
C143 C 0.92709 0.76105 0.7012 0.0
C144 C 0.94656 0.76019 0.6847 0.0
C145 C 0.91224 0.78073 0.70009 0.0
H146 H 0.94215 0.81235 0.65285 0.0
H147 H 0.95759 0.74473 0.68521 0.0
O148 O 0.02385 0.77449 0.60245 0.0
O149 O 0.00461 0.80887 0.64648 0.0
O150 O 0.96659 0.77192 0.60763 0.0
O151 O 0.9959 0.74714 0.64608 0.0
H152 H 0.05681 0.81651 0.62254 0.0
H153 H 0.03529 0.76197 0.55525 0.0
H154 H 0.09191 0.84028 0.59984 0.0
H155 H 0.07092 0.78653 0.5337 0.0
H156 H 0.0148 0.83816 0.73086 0.0
H157 H 0.04028 0.85102 0.64354 0.0
H158 H 0.994 0.80633 0.69487 0.0
H159 H 0.06041 0.88191 0.68047 0.0
H160 H 0.01143 0.84645 0.53075 0.0
H161 H 0.99859 0.89211 0.60028 0.0
H162 H 0.10066 0.7437 0.64173 0.0
H163 H 0.09131 0.79267 0.71044 0.0
H164 H 0.92017 0.77935 0.59822 0.0
H165 H 0.98625 0.75995 0.56377 0.0
H166 H 0.89891 0.7753 0.55506 0.0
H167 H 0.96389 0.7562 0.52131 0.0
H168 H 0.01804 0.70597 0.63514 0.0
H169 H 0.00331 0.76216 0.6956 0.0
H170 H 0.04255 0.68622 0.66639 0.0
H171 H 0.02793 0.74133 0.72583 0.0
H172 H 0.03163 0.68066 0.56482 0.0
H173 H 0.95053 0.65996 0.56644 0.0
H174 H 0.90685 0.81477 0.68054 0.0
H175 H 0.92369 0.74634 0.71461 0.0
Li176 Li 0.51137 0.77421 0.87782 0.0
Li177 Li 0.54039 0.80227 0.91165 0.0
Li178 Li 0.55657 0.77494 0.87662 0.0
Li179 Li 0.53356 0.75338 0.91078 0.0
C180 C 0.54808 0.81742 0.85455 0.0
N181 N 0.56882 0.84274 0.81444 0.0
C182 C 0.56684 0.84011 0.85925 0.0
C183 C 0.53979 0.80767 0.82949 0.0
C184 C 0.5771 0.85262 0.83869 0.0
C185 C 0.55054 0.82073 0.80946 0.0
C186 C 0.49514 0.78324 0.93491 0.0
C187 C 0.49039 0.79019 0.98009 0.0
N188 N 0.46678 0.79495 0.97534 0.0
C189 C 0.47089 0.78829 0.93044 0.0
C190 C 0.50499 0.78415 0.9599 0.0
C191 C 0.45682 0.79411 0.95115 0.0
C192 C 0.45993 0.75606 0.85746 0.0
N193 N 0.4801 0.77633 0.86072 0.0
C194 C 0.45503 0.80649 0.84644 0.0
C195 C 0.47803 0.80116 0.85538 0.0
C196 C 0.43375 0.7861 0.84306 0.0
C197 C 0.43652 0.76048 0.84837 0.0
H198 H 0.4617 0.73672 0.86271 0.0
H199 H 0.49404 0.81719 0.85907 0.0
C200 C 0.54992 0.84074 0.95625 0.0
N201 N 0.54273 0.83582 0.93103 0.0
C202 C 0.54821 0.8651 0.96958 0.0
C203 C 0.53265 0.87902 0.93053 0.0
C204 C 0.53435 0.85441 0.91811 0.0
C205 C 0.5391 0.88453 0.95676 0.0
H206 H 0.55618 0.82552 0.96621 0.0
H207 H 0.52838 0.84989 0.89816 0.0
C208 C 0.51236 0.72446 0.85804 0.0
N209 N 0.47806 0.68692 0.82763 0.0
C210 C 0.49796 0.7033 0.86867 0.0
C211 C 0.50942 0.72644 0.83192 0.0
C212 C 0.4807 0.68453 0.85298 0.0
C213 C 0.49194 0.70729 0.81688 0.0
C214 C 0.58334 0.77053 0.92884 0.0
C215 C 0.60186 0.75829 0.91762 0.0
C216 C 0.58228 0.77305 0.95533 0.0
C217 C 0.61886 0.74854 0.93313 0.0
C218 C 0.59958 0.76298 0.97018 0.0
N219 N 0.61736 0.75104 0.95886 0.0
C220 C 0.60436 0.7938 0.85845 0.0
C221 C 0.58238 0.75391 0.8358 0.0
C222 C 0.62477 0.79365 0.84305 0.0
N223 N 0.58371 0.77415 0.85456 0.0
C224 C 0.60243 0.75289 0.82 0.0
C225 C 0.62406 0.77293 0.82355 0.0
H226 H 0.60508 0.80944 0.87377 0.0
H227 H 0.56585 0.73839 0.83325 0.0
C228 C 0.50862 0.71761 0.94382 0.0
N229 N 0.53023 0.72425 0.9316 0.0
C230 C 0.50533 0.69595 0.95822 0.0
C231 C 0.54659 0.68832 0.94742 0.0
C232 C 0.54889 0.70982 0.93286 0.0
C233 C 0.52451 0.68104 0.96021 0.0
H234 H 0.49364 0.72873 0.94192 0.0
H235 H 0.56539 0.7146 0.92213 0.0
O236 O 0.53788 0.80481 0.8744 0.0
O237 O 0.5088 0.77656 0.91488 0.0
O238 O 0.52949 0.74294 0.87304 0.0
O239 O 0.56659 0.78029 0.91398 0.0
H240 H 0.57351 0.84785 0.87856 0.0
H241 H 0.52517 0.79024 0.82557 0.0
H242 H 0.59168 0.87015 0.84202 0.0
H243 H 0.54432 0.81338 0.78996 0.0
H244 H 0.49777 0.79094 0.99954 0.0
H245 H 0.46291 0.78745 0.91119 0.0
H246 H 0.52361 0.77999 0.96364 0.0
H247 H 0.43794 0.79789 0.94799 0.0
H248 H 0.45377 0.82662 0.84312 0.0
H249 H 0.4207 0.74407 0.84585 0.0
H250 H 0.55313 0.86826 0.98985 0.0
H251 H 0.526 0.89345 0.91967 0.0
H252 H 0.50003 0.70137 0.88881 0.0
H253 H 0.52051 0.74258 0.82334 0.0
H254 H 0.46939 0.66808 0.86096 0.0
H255 H 0.48942 0.70862 0.79665 0.0
H256 H 0.60297 0.7561 0.89717 0.0
H257 H 0.56817 0.78251 0.96436 0.0
H258 H 0.63321 0.73892 0.9247 0.0
H259 H 0.59887 0.76467 0.99069 0.0
H260 H 0.64121 0.80924 0.84685 0.0
H261 H 0.60099 0.73663 0.80516 0.0
H262 H 0.4879 0.69081 0.96759 0.0
H263 H 0.56155 0.67693 0.94793 0.0
Li264 Li 0.50115 0.29924 0.10685 0.0
Li265 Li 0.52128 0.27571 0.13658 0.0
Li266 Li 0.49152 0.25073 0.104 0.0
Li267 Li 0.47663 0.27698 0.14169 0.0
C268 C 0.53703 0.28202 0.07967 0.0
N269 N 0.56403 0.29888 0.03905 0.0
C270 C 0.56179 0.29599 0.08379 0.0
C271 C 0.52608 0.2764 0.0549 0.0
C272 C 0.5751 0.30441 0.063 0.0
C273 C 0.54002 0.28515 0.03461 0.0
C274 C 0.52008 0.32125 0.16526 0.0
C275 C 0.52617 0.33501 0.21035 0.0
N276 N 0.54925 0.34924 0.20655 0.0
C277 C 0.54382 0.33608 0.16178 0.0
C278 C 0.51112 0.32073 0.18971 0.0
C279 C 0.5583 0.35007 0.18292 0.0
C280 C 0.48472 0.33479 0.07414 0.0
N281 N 0.50483 0.32929 0.08755 0.0
C282 C 0.53156 0.36723 0.07438 0.0
C283 C 0.5279 0.34506 0.08796 0.0
C284 C 0.51109 0.37395 0.0608 0.0
C285 C 0.48742 0.35716 0.06063 0.0
H286 H 0.46647 0.32211 0.07433 0.0
H287 H 0.54352 0.34058 0.099 0.0
C288 C 0.56702 0.25871 0.13682 0.0
N289 N 0.55296 0.27173 0.1526 0.0
C290 C 0.58972 0.25269 0.14577 0.0
C291 C 0.58288 0.27265 0.1875 0.0
C292 C 0.56037 0.27861 0.17764 0.0
C293 C 0.59788 0.25958 0.17142 0.0
H294 H 0.56035 0.25243 0.11727 0.0
H295 H 0.54859 0.28805 0.19015 0.0
C296 C 0.44715 0.26296 0.08846 0.0
N297 N 0.40681 0.23624 0.05683 0.0
C298 C 0.42556 0.24983 0.09883 0.0
C299 C 0.44816 0.26269 0.06204 0.0
C300 C 0.40536 0.23641 0.0825 0.0
C301 C 0.4276 0.24899 0.04637 0.0
C302 C 0.50437 0.23213 0.1573 0.0
C303 C 0.51509 0.21065 0.14808 0.0
C304 C 0.5062 0.24021 0.18343 0.0
C305 C 0.52759 0.19765 0.16519 0.0
C306 C 0.5188 0.22666 0.19993 0.0
N307 N 0.52917 0.20586 0.19055 0.0
C308 C 0.5091 0.21206 0.07461 0.0
C309 C 0.46487 0.20056 0.07737 0.0
C310 C 0.50974 0.18757 0.06142 0.0
N311 N 0.48697 0.21811 0.08243 0.0
C312 C 0.46462 0.17572 0.06395 0.0
C313 C 0.4874 0.16885 0.05627 0.0
H314 H 0.52653 0.22589 0.07951 0.0
H315 H 0.44762 0.20536 0.08448 0.0
C316 C 0.43639 0.29888 0.16193 0.0
N317 N 0.44952 0.27892 0.16361 0.0
C318 C 0.41555 0.30021 0.17659 0.0
C319 C 0.42256 0.2608 0.19493 0.0
C320 C 0.44301 0.26004 0.17966 0.0
C321 C 0.4082 0.28088 0.19332 0.0
H322 H 0.4418 0.31348 0.14877 0.0
H323 H 0.45344 0.2441 0.18037 0.0
O324 O 0.52365 0.27374 0.09981 0.0
O325 O 0.50544 0.30775 0.1448 0.0
O326 O 0.46709 0.27622 0.10411 0.0
O327 O 0.49261 0.24551 0.14078 0.0
H328 H 0.5705 0.30064 0.10288 0.0
H329 H 0.50705 0.26536 0.05139 0.0
H330 H 0.5942 0.31541 0.06592 0.0
H331 H 0.53177 0.281 0.01533 0.0
H332 H 0.51951 0.33475 0.22938 0.0
H333 H 0.55108 0.33659 0.14302 0.0
H334 H 0.49275 0.30942 0.19271 0.0
H335 H 0.57675 0.36155 0.18054 0.0
H336 H 0.55029 0.37912 0.0748 0.0
H337 H 0.47095 0.36164 0.05085 0.0
H338 H 0.6005 0.24221 0.13286 0.0
H339 H 0.58854 0.27829 0.20745 0.0
H340 H 0.42446 0.24985 0.11924 0.0
H341 H 0.46463 0.27297 0.05374 0.0
H342 H 0.38856 0.22608 0.09024 0.0
H343 H 0.42815 0.24853 0.02588 0.0
H344 H 0.51392 0.20419 0.12792 0.0
H345 H 0.49842 0.25711 0.19084 0.0
H346 H 0.53607 0.18107 0.15831 0.0
H347 H 0.52051 0.23281 0.22018 0.0
H348 H 0.52768 0.18316 0.05567 0.0
H349 H 0.44703 0.16167 0.06055 0.0
H350 H 0.40493 0.3158 0.17423 0.0
H351 H 0.418 0.24565 0.20773 0.0
Li352 Li 0.0326 0.81198 0.12553 0.0
Li353 Li 0.05804 0.79626 0.15901 0.0
Li354 Li 0.03011 0.76459 0.12728 0.0
Li355 Li 0.01145 0.78956 0.16104 0.0
C356 C 0.07417 0.80073 0.10264 0.0
N357 N 0.10268 0.82028 0.06401 0.0
C358 C 0.09567 0.82032 0.1084 0.0
C359 C 0.06735 0.79082 0.0773 0.0
C360 C 0.1098 0.83003 0.08857 0.0
C361 C 0.08196 0.80103 0.05803 0.0
C362 C 0.04291 0.83895 0.18555 0.0
C363 C 0.0491 0.84271 0.23129 0.0
N364 N 0.0574 0.86926 0.23144 0.0
C365 C 0.05153 0.86624 0.18612 0.0
C366 C 0.04172 0.82702 0.20826 0.0
C367 C 0.05877 0.88123 0.20954 0.0
C368 C 0.00855 0.83824 0.09003 0.0
N369 N 0.03058 0.83948 0.10385 0.0
C370 C 0.04779 0.88056 0.08805 0.0
C371 C 0.05003 0.8602 0.10327 0.0
C372 C 0.02525 0.87969 0.07339 0.0
C373 C 0.00556 0.85799 0.07446 0.0
H374 H 0.99302 0.82215 0.09138 0.0
H375 H 0.06709 0.86123 0.11502 0.0
C376 C 0.09636 0.77563 0.17985 0.0
N377 N 0.08932 0.79943 0.17829 0.0
C378 C 0.11833 0.77389 0.19379 0.0
C379 C 0.12604 0.82143 0.20391 0.0
C380 C 0.10368 0.82223 0.18979 0.0
C381 C 0.13363 0.79695 0.20609 0.0
H382 H 0.08471 0.75786 0.1703 0.0
H383 H 0.09787 0.841 0.18804 0.0
C384 C 0.98425 0.77044 0.10586 0.0
N385 N 0.94886 0.74275 0.06918 0.0
C386 C 0.96041 0.75869 0.11276 0.0
C387 C 0.98998 0.76832 0.08026 0.0
C388 C 0.94282 0.74471 0.09396 0.0
C389 C 0.97186 0.75419 0.06201 0.0
C390 C 0.02221 0.74032 0.17319 0.0
C391 C 0.99801 0.72841 0.1634 0.0
C392 C 0.03432 0.72847 0.19159 0.0
C393 C 0.98637 0.70465 0.17197 0.0
C394 C 0.02204 0.70472 0.19973 0.0
N395 N 0.99853 0.69339 0.18982 0.0
C396 C 0.05281 0.72614 0.10206 0.0
C397 C 0.00832 0.71362 0.10004 0.0
C398 C 0.05501 0.70248 0.08788 0.0
N399 N 0.02973 0.73137 0.10766 0.0
C400 C 0.00963 0.6898 0.08569 0.0
C401 C 0.03321 0.684 0.07935 0.0
H402 H 0.06958 0.74041 0.10865 0.0
H403 H 0.99019 0.71775 0.10517 0.0
C404 C 0.96526 0.80231 0.17438 0.0
N405 N 0.98374 0.78983 0.18249 0.0
C406 C 0.94382 0.80272 0.18823 0.0
C407 C 0.96101 0.77787 0.21893 0.0
C408 C 0.98215 0.77793 0.20444 0.0
C409 C 0.94136 0.79025 0.2108 0.0
H410 H 0.96702 0.81159 0.15684 0.0
H411 H 0.99719 0.76836 0.21069 0.0
O412 O 0.06013 0.79096 0.12177 0.0
O413 O 0.03652 0.82392 0.16274 0.0
O414 O 1.00171 0.78428 0.12403 0.0
O415 O 0.03394 0.76362 0.16509 0.0
H416 H 0.10128 0.82806 0.12796 0.0
H417 H 0.05106 0.77527 0.07258 0.0
H418 H 0.12641 0.84531 0.0927 0.0
H419 H 0.07686 0.79359 0.03832 0.0
H420 H 0.04835 0.83375 0.24903 0.0
H421 H 0.05278 0.87568 0.16863 0.0
H422 H 0.03555 0.80584 0.20806 0.0
H423 H 0.06553 0.90238 0.21028 0.0
H424 H 0.06331 0.89715 0.08837 0.0
H425 H 0.98789 0.85625 0.06346 0.0
H426 H 0.12302 0.75451 0.19518 0.0
H427 H 0.13735 0.83977 0.21277 0.0
H428 H 0.95554 0.76025 0.13245 0.0
H429 H 0.00818 0.77758 0.07454 0.0
H430 H 0.92435 0.73542 0.09905 0.0
H431 H 0.97608 0.75236 0.04214 0.0
H432 H 0.98829 0.73751 0.14944 0.0
H433 H 0.05295 0.73756 0.1996 0.0
H434 H 0.96765 0.69521 0.16449 0.0
H435 H 0.03119 0.69532 0.21396 0.0
H436 H 0.07354 0.69884 0.0834 0.0
H437 H 0.99235 0.67586 0.07998 0.0
H438 H 0.92905 0.81214 0.18094 0.0
H439 H 0.96011 0.76829 0.23634 0.0
Li440 Li 0.49963 0.78536 0.39921 0.0
Li441 Li 0.4741 0.75535 0.36497 0.0
Li442 Li 0.49879 0.7379 0.39919 0.0
Li443 Li 0.5208 0.75944 0.36521 0.0
C444 C 0.45498 0.7644 0.42056 0.0
N445 N 0.42458 0.78048 0.4575 0.0
C446 C 0.43004 0.76613 0.41408 0.0
C447 C 0.46439 0.77068 0.44585 0.0
C448 C 0.41498 0.77433 0.43303 0.0
C449 C 0.44876 0.77883 0.46424 0.0
C450 C 0.49775 0.80278 0.3426 0.0
C451 C 0.50165 0.81123 0.29863 0.0
N452 N 0.49323 0.83435 0.30379 0.0
C453 C 0.48955 0.82686 0.34754 0.0
C454 C 0.5042 0.79508 0.31801 0.0
C455 C 0.48721 0.84244 0.32764 0.0
C456 C 0.52075 0.83183 0.43247 0.0
N457 N 0.49966 0.81835 0.41898 0.0
C458 C 0.47639 0.85171 0.43325 0.0
C459 C 0.47783 0.82794 0.41892 0.0
C460 C 0.49785 0.8663 0.44738 0.0
C461 C 0.52031 0.856 0.44673 0.0
H462 H 0.53797 0.82393 0.43196 0.0
H463 H 0.46143 0.81709 0.40764 0.0
C464 C 0.42974 0.73026 0.33267 0.0
N465 N 0.44325 0.75305 0.3451 0.0
C466 C 0.40708 0.7306 0.31893 0.0
C467 C 0.41274 0.7777 0.33124 0.0
C468 C 0.43498 0.77637 0.34489 0.0
C469 C 0.39827 0.75462 0.31807 0.0
H470 H 0.43639 0.7118 0.33361 0.0
H471 H 0.44552 0.79397 0.3557 0.0
C472 C 0.54459 0.75987 0.42056 0.0
N473 N 0.5756 0.74405 0.45661 0.0
C474 C 0.56349 0.74608 0.41295 0.0
C475 C 0.54173 0.766 0.44649 0.0
C476 C 0.57891 0.73814 0.43147 0.0
C477 C 0.55752 0.75772 0.46442 0.0
C478 C 0.4938 0.71037 0.33958 0.0
C479 C 0.4989 0.68478 0.33998 0.0
C480 C 0.48778 0.7193 0.31636 0.0
C481 C 0.49839 0.66875 0.31705 0.0
C482 C 0.4874 0.70267 0.29384 0.0
N483 N 0.49272 0.67796 0.29464 0.0
C484 C 0.4863 0.70627 0.44051 0.0
C485 C 0.5174 0.69403 0.41386 0.0
C486 C 0.48893 0.68616 0.45586 0.0
N487 N 0.50054 0.70987 0.42004 0.0
C488 C 0.5207 0.67377 0.42869 0.0
C489 C 0.50637 0.6696 0.45005 0.0
H490 H 0.47291 0.71898 0.44498 0.0
H491 H 0.52843 0.69727 0.39742 0.0
C492 C 0.56283 0.78272 0.3386 0.0
N493 N 0.54948 0.75952 0.34498 0.0
C494 C 0.58452 0.78286 0.32493 0.0
C495 C 0.5782 0.73524 0.32455 0.0
C496 C 0.55681 0.73606 0.33834 0.0
C497 C 0.5926 0.75887 0.31782 0.0
H498 H 0.55689 0.80118 0.34452 0.0
H499 H 0.54639 0.71797 0.34426 0.0
O500 O 0.47002 0.75659 0.40218 0.0
O501 O 0.50028 0.78737 0.36194 0.0
O502 O 0.52906 0.76744 0.4027 0.0
O503 O 0.49439 0.72636 0.36189 0.0
H504 H 0.42236 0.76113 0.39465 0.0
H505 H 0.4836 0.76939 0.45119 0.0
H506 H 0.39566 0.77578 0.42828 0.0
H507 H 0.45585 0.78385 0.48386 0.0
H508 H 0.5065 0.80543 0.27951 0.0
H509 H 0.48486 0.83339 0.3665 0.0
H510 H 0.51143 0.77702 0.31394 0.0
H511 H 0.48065 0.861 0.33117 0.0
H512 H 0.45854 0.85842 0.43328 0.0
H513 H 0.53757 0.86668 0.45673 0.0
H514 H 0.39642 0.71219 0.3095 0.0
H515 H 0.4071 0.79677 0.33099 0.0
H516 H 0.56606 0.74129 0.39297 0.0
H517 H 0.52751 0.77707 0.45271 0.0
H518 H 0.59348 0.72726 0.42585 0.0
H519 H 0.55542 0.76221 0.48456 0.0
H520 H 0.50333 0.67741 0.3578 0.0
H521 H 0.48305 0.73869 0.31576 0.0
H522 H 0.50247 0.64898 0.31707 0.0
H523 H 0.48278 0.70936 0.27574 0.0
H524 H 0.47756 0.68375 0.4722 0.0
H525 H 0.53402 0.66121 0.42317 0.0
H526 H 0.59521 0.80164 0.32065 0.0
H527 H 0.58346 0.71624 0.31938 0.0
Li528 Li 0.53365 0.31408 0.62615 0.0
Li529 Li 0.55857 0.29963 0.65932 0.0
Li530 Li 0.53081 0.2671 0.6282 0.0
Li531 Li 0.51176 0.29274 0.66215 0.0
C532 C 0.57186 0.30328 0.60119 0.0
N533 N 0.59314 0.3238 0.55891 0.0
C534 C 0.59247 0.32428 0.60415 0.0
C535 C 0.56217 0.29263 0.57674 0.0
C536 C 0.60295 0.33439 0.58253 0.0
C537 C 0.57315 0.30332 0.5556 0.0
C538 C 0.54933 0.34388 0.68275 0.0
C539 C 0.55345 0.36211 0.72678 0.0
N540 N 0.57582 0.37748 0.72246 0.0
C541 C 0.57229 0.35993 0.6787 0.0
C542 C 0.53976 0.34499 0.70694 0.0
C543 C 0.58543 0.37675 0.69904 0.0
C544 C 0.51047 0.33731 0.58766 0.0
N545 N 0.5313 0.34073 0.6038 0.0
C546 C 0.54705 0.38261 0.5889 0.0
C547 C 0.5494 0.36292 0.6048 0.0
C548 C 0.52571 0.37957 0.57199 0.0
C549 C 0.50733 0.35646 0.57145 0.0
H550 H 0.49601 0.31992 0.58762 0.0
H551 H 0.56552 0.36551 0.61817 0.0
C552 C 0.6105 0.30004 0.66668 0.0
N553 N 0.58964 0.30345 0.67918 0.0
C554 C 0.63292 0.29891 0.68024 0.0
C555 C 0.61213 0.30503 0.71943 0.0
C556 C 0.59007 0.30604 0.70507 0.0
C557 C 0.63383 0.30091 0.707 0.0
H558 H 0.6095 0.29713 0.64612 0.0
H559 H 0.573 0.30776 0.71457 0.0
C560 C 0.48338 0.27002 0.61029 0.0
N561 N 0.44491 0.2367 0.58079 0.0
C562 C 0.46176 0.25812 0.6215 0.0
C563 C 0.48532 0.26508 0.58401 0.0
C564 C 0.44256 0.2413 0.60628 0.0
C565 C 0.4657 0.24816 0.56944 0.0
C566 C 0.52758 0.24463 0.677 0.0
C567 C 0.50416 0.2285 0.67018 0.0
C568 C 0.54348 0.23762 0.69566 0.0
C569 C 0.49702 0.20546 0.68211 0.0
C570 C 0.53561 0.2145 0.70724 0.0
N571 N 0.51275 0.19902 0.70027 0.0
C572 C 0.55231 0.22857 0.60073 0.0
C573 C 0.50852 0.2146 0.60457 0.0
C574 C 0.55373 0.20465 0.58655 0.0
N575 N 0.5299 0.23324 0.6092 0.0
C576 C 0.50904 0.19052 0.59031 0.0
C577 C 0.53184 0.18532 0.58101 0.0
H578 H 0.56915 0.2435 0.60496 0.0
H579 H 0.49102 0.21822 0.61195 0.0
C580 C 0.46794 0.30953 0.67749 0.0
N581 N 0.48426 0.2936 0.68366 0.0
C582 C 0.44632 0.31023 0.69102 0.0
C583 C 0.45904 0.27863 0.71748 0.0
C584 C 0.48056 0.27877 0.70362 0.0
C585 C 0.4414 0.29423 0.71099 0.0
H586 H 0.47144 0.3212 0.66158 0.0
H587 H 0.49407 0.26674 0.7086 0.0
O588 O 0.56118 0.29323 0.62211 0.0
O589 O 0.5363 0.32711 0.66313 0.0
O590 O 0.50232 0.28672 0.62488 0.0
O591 O 0.53479 0.26753 0.66595 0.0
H592 H 0.60007 0.33296 0.62293 0.0
H593 H 0.54634 0.27629 0.5741 0.0
H594 H 0.61882 0.35072 0.58454 0.0
H595 H 0.56579 0.29531 0.53657 0.0
H596 H 0.54632 0.36313 0.74563 0.0
H597 H 0.58007 0.35911 0.66016 0.0
H598 H 0.52201 0.33269 0.7104 0.0
H599 H 0.60331 0.38917 0.69623 0.0
H600 H 0.56146 0.40034 0.59038 0.0
H601 H 0.49062 0.35322 0.55869 0.0
H602 H 0.64921 0.2959 0.66984 0.0
H603 H 0.61181 0.3062 0.73999 0.0
H604 H 0.45984 0.26168 0.64176 0.0
H605 H 0.50183 0.27416 0.57496 0.0
H606 H 0.42579 0.23187 0.61474 0.0
H607 H 0.467 0.24412 0.54912 0.0
H608 H 0.49149 0.23392 0.65613 0.0
H609 H 0.56163 0.25001 0.70124 0.0
H610 H 0.47891 0.1928 0.67704 0.0
H611 H 0.54767 0.20888 0.7218 0.0
H612 H 0.5717 0.20145 0.57975 0.0
H613 H 0.4918 0.17593 0.58697 0.0
H614 H 0.43311 0.32233 0.68523 0.0
H615 H 0.45607 0.26622 0.73293 0.0
Li616 Li 0.99716 0.28315 0.89673 0.0
Li617 Li 0.97029 0.25205 0.86393 0.0
Li618 Li 0.99695 0.23681 0.89722 0.0
Li619 Li 0.01702 0.25812 0.86253 0.0
C620 C 0.95387 0.26584 0.91904 0.0
N621 N 0.92611 0.28938 0.95424 0.0
C622 C 0.92978 0.26995 0.912 0.0
C623 C 0.96371 0.27342 0.94407 0.0
C624 C 0.91607 0.28194 0.93005 0.0
C625 C 0.94943 0.28539 0.96155 0.0
C626 C 0.00201 0.30515 0.8457 0.0
C627 C 1.00036 0.32641 0.80706 0.0
N628 N 0.01716 0.34769 0.8182 0.0
C629 C 0.01914 0.32729 0.85682 0.0
C630 C 0.99241 0.30474 0.82067 0.0
C631 C 0.02662 0.34857 0.84259 0.0
C632 C 0.01833 0.32868 0.93104 0.0
N633 N 0.99789 0.31673 0.91571 0.0
C634 C 0.97681 0.3529 0.92643 0.0
C635 C 0.9775 0.32847 0.91292 0.0
C636 C 0.99769 0.36598 0.9424 0.0
C637 C 0.01873 0.35347 0.94443 0.0
H638 H 0.03451 0.31914 0.93253 0.0
H639 H 0.96166 0.31872 0.90024 0.0
C640 C 0.92548 0.22541 0.83309 0.0
N641 N 0.93957 0.24865 0.84397 0.0
C642 C 0.90305 0.22544 0.81882 0.0
C643 C 0.91028 0.27317 0.82738 0.0
C644 C 0.93244 0.27222 0.84132 0.0
C645 C 0.89511 0.24959 0.81603 0.0
H646 H 0.93153 0.2069 0.83558 0.0
H647 H 0.94398 0.29037 0.85026 0.0
C648 C 0.04273 0.25738 0.91609 0.0
N649 N 0.07342 0.23789 0.94977 0.0
C650 C 0.06091 0.24331 0.90699 0.0
C651 C 0.04036 0.26183 0.94232 0.0
C652 C 0.07621 0.23356 0.92433 0.0
C653 C 0.05599 0.25172 0.95904 0.0
C654 C 0.9872 0.21095 0.83622 0.0
C655 C 0.98109 0.18328 0.83326 0.0
C656 C 0.98806 0.22494 0.81478 0.0
C657 C 0.97594 0.17004 0.80878 0.0
C658 C 0.98281 0.21098 0.79063 0.0
N659 N 0.9769 0.18404 0.78815 0.0
C660 C 0.98792 0.20754 0.94049 0.0
C661 C 0.01414 0.19137 0.91022 0.0
C662 C 0.99092 0.1876 0.95591 0.0
N663 N 0.99957 0.2091 0.91819 0.0
C664 C 0.01782 0.17127 0.92512 0.0
C665 C 0.00613 0.16918 0.94832 0.0
H666 H 0.97636 0.22179 0.94636 0.0
H667 H 0.02306 0.19301 0.89231 0.0
C668 C 0.05919 0.28131 0.83529 0.0
N669 N 0.04463 0.25826 0.84055 0.0
C670 C 0.07997 0.28094 0.82037 0.0
C671 C 0.07053 0.23311 0.81658 0.0
C672 C 0.05004 0.23442 0.83163 0.0
C673 C 0.08602 0.25658 0.81094 0.0
H674 H 0.05521 0.30003 0.84323 0.0
H675 H 0.03877 0.21632 0.83666 0.0
O676 O 0.96762 0.25428 0.90155 0.0
O677 O 0.99413 0.28428 0.85943 0.0
O678 O 0.02719 0.26654 0.89938 0.0
O679 O 0.99191 0.22415 0.8601 0.0
H680 H 0.92172 0.26391 0.89283 0.0
H681 H 0.9823 0.27041 0.94985 0.0
H682 H 0.89744 0.28531 0.92484 0.0
H683 H 0.9569 0.29154 0.98092 0.0
H684 H 0.99313 0.32633 0.78765 0.0
H685 H 0.02692 0.32789 0.87609 0.0
H686 H 0.97889 0.28792 0.81184 0.0
H687 H 0.03999 0.36576 0.85091 0.0
H688 H 0.95997 0.36129 0.92437 0.0
H689 H 0.03561 0.36287 0.95584 0.0
H690 H 0.89182 0.2068 0.81052 0.0
H691 H 0.90516 0.29227 0.8254 0.0
H692 H 0.06302 0.23972 0.88675 0.0
H693 H 0.02651 0.27282 0.94968 0.0
H694 H 0.09025 0.22247 0.91756 0.0
H695 H 0.05424 0.25485 0.97938 0.0
H696 H 0.98029 0.17219 0.84972 0.0
H697 H 0.99281 0.24633 0.81678 0.0
H698 H 0.97116 0.14862 0.80618 0.0
H699 H 0.98342 0.22156 0.77386 0.0
H700 H 0.98162 0.18675 0.97369 0.0
H701 H 0.02934 0.15723 0.91831 0.0
H702 H 0.09168 0.29955 0.8171 0.0
H703 H 0.07435 0.21386 0.80971 0.0
Li704 Li 0.42254 0.05062 0.30628 0.0
Li705 Li 0.38795 0.0203 0.28054 0.0
Li706 Li 0.42193 0.04904 0.25978 0.0
Li707 Li 0.38897 0.06652 0.28109 0.0
C708 C 0.44061 0.00307 0.28269 0.0
N709 N 0.47361 0.96797 0.28386 0.0
C710 C 0.43218 0.97613 0.27493 0.0
C711 C 0.46592 0.01218 0.29072 0.0
C712 C 0.44913 0.95869 0.27574 0.0
C713 C 0.48227 0.99412 0.29128 0.0
C714 C 0.36883 0.0309 0.3253 0.0
C715 C 0.32699 0.00727 0.3313 0.0
N716 N 0.33533 1.00061 0.354 0.0
C717 C 0.37686 0.02416 0.34889 0.0
C718 C 0.34357 0.02271 0.31663 0.0
C719 C 0.35969 0.00873 0.36304 0.0
C720 C 0.4564 0.07634 0.34796 0.0
N721 N 0.44326 0.0532 0.3359 0.0
C722 C 0.45835 0.02836 0.36685 0.0
C723 C 0.44409 0.02952 0.34477 0.0
C724 C 0.47149 0.05188 0.38035 0.0
C725 C 0.47081 0.07614 0.37051 0.0
H726 H 0.45533 0.09487 0.34031 0.0
H727 H 0.43321 0.01152 0.33485 0.0
C728 C 0.3493 0.97894 0.25991 0.0
N729 N 0.36742 0.98651 0.27906 0.0
C730 C 0.33342 0.95435 0.25882 0.0
C731 C 0.35548 0.94565 0.29698 0.0
C732 C 0.37078 0.97056 0.29746 0.0
C733 C 0.33653 0.93725 0.27741 0.0
H734 H 0.34721 0.99195 0.24545 0.0
H735 H 0.3855 0.97716 0.31237 0.0
C736 C 0.44598 0.09866 0.27827 0.0
N737 N 0.48658 0.13381 0.26379 0.0
C738 C 0.44219 0.1215 0.26755 0.0
C739 C 0.47044 0.09392 0.28198 0.0
C740 C 0.46295 0.13898 0.26025 0.0
C741 C 0.49072 0.11186 0.27444 0.0
C742 C 0.36797 0.04755 0.23439 0.0
C743 C 0.37557 0.05834 0.21201 0.0
C744 C 0.34262 0.04456 0.2401 0.0
C745 C 0.35785 0.0665 0.19607 0.0
C746 C 0.32547 0.05299 0.22371 0.0
N747 N 0.33338 0.06374 0.20222 0.0
C748 C 0.45409 0.02887 0.22594 0.0
C749 C 0.44569 0.07075 0.21727 0.0
C750 C 0.46798 0.0274 0.20448 0.0
N751 N 0.44308 0.05015 0.23185 0.0
C752 C 0.45894 0.06981 0.19513 0.0
C753 C 0.4698 0.04756 0.18821 0.0
H754 H 0.45141 0.01243 0.2372 0.0
H755 H 0.43642 0.08728 0.22208 0.0
C756 C 0.34938 0.09003 0.29835 0.0
N757 N 0.36715 0.091 0.2808 0.0
C758 C 0.32989 0.10412 0.29607 0.0
C759 C 0.34827 0.12112 0.25852 0.0
C760 C 0.36735 0.10662 0.26149 0.0
C761 C 0.3289 0.11945 0.27563 0.0
H762 H 0.34983 0.07761 0.31363 0.0
H763 H 0.38163 0.10682 0.24772 0.0
O764 O 0.42422 0.02042 0.28185 0.0
O765 O 0.38549 0.04577 0.31101 0.0
O766 O 0.42586 0.08119 0.2853 0.0
O767 O 0.3852 0.03975 0.2504 0.0
H768 H 0.41285 0.96877 0.26803 0.0
H769 H 0.47288 0.03293 0.29663 0.0
H770 H 0.44283 0.9378 0.26981 0.0
H771 H 0.50186 0.0009 0.29761 0.0
H772 H 0.30748 1.00057 0.32463 0.0
H773 H 0.39606 0.03093 0.35636 0.0
H774 H 0.33688 0.02796 0.29865 0.0
H775 H 0.36573 0.00328 0.38126 0.0
H776 H 0.45877 0.00918 0.37348 0.0
H777 H 0.48065 0.09469 0.38047 0.0
H778 H 0.31888 0.94881 0.24357 0.0
H779 H 0.35885 0.93294 0.31143 0.0
H780 H 0.42343 0.12568 0.26483 0.0
H781 H 0.47373 0.07656 0.29054 0.0
H782 H 0.46027 0.15665 0.25179 0.0
H783 H 0.50974 0.10834 0.27707 0.0
H784 H 0.3949 0.06033 0.20692 0.0
H785 H 0.33627 0.03613 0.25717 0.0
H786 H 0.36355 0.075 0.17878 0.0
H787 H 0.30588 0.05106 0.2281 0.0
H788 H 0.47644 0.01011 0.20025 0.0
H789 H 0.45953 0.08568 0.183 0.0
H790 H 0.31537 0.10239 0.3097 0.0
H791 H 0.34852 0.13325 0.24284 0.0
Li792 Li 0.26662 0.17702 0.51841 0.0
Li793 Li 0.28665 0.14214 0.49582 0.0
Li794 Li 0.26803 0.17598 0.47068 0.0
Li795 Li 0.23976 0.13983 0.4917 0.0
C796 C 0.31692 0.19962 0.50854 0.0
N797 N 0.35733 0.23565 0.53191 0.0
C798 C 0.33387 0.19137 0.52534 0.0
C799 C 0.32061 0.2261 0.50344 0.0
C800 C 0.35417 0.20992 0.537 0.0
C801 C 0.34113 0.24404 0.51552 0.0
C802 C 0.26096 0.12128 0.53964 0.0
C803 C 0.25238 0.07631 0.55058 0.0
N804 N 0.26028 0.08517 0.57516 0.0
C805 C 0.26896 0.12996 0.56502 0.0
C806 C 0.25258 0.09426 0.53233 0.0
C807 C 0.26849 0.11138 0.58268 0.0
C808 C 0.24255 0.19175 0.5622 0.0
N809 N 0.26512 0.19702 0.55137 0.0
C810 C 0.28334 0.22356 0.58962 0.0
C811 C 0.28531 0.21286 0.56454 0.0
C812 C 0.26024 0.21837 0.60145 0.0
C813 C 0.23958 0.20248 0.58701 0.0
H814 H 0.22689 0.17852 0.55175 0.0
H815 H 0.30324 0.2166 0.55608 0.0
C816 C 0.32689 0.11761 0.47674 0.0
N817 N 0.31363 0.1219 0.49762 0.0
C818 C 0.34691 0.1037 0.47795 0.0
C819 C 0.33892 0.09831 0.52191 0.0
C820 C 0.31944 0.11265 0.51997 0.0
C821 C 0.35332 0.09383 0.50085 0.0
H822 H 0.32213 0.1253 0.45918 0.0
H823 H 0.30922 0.11662 0.53655 0.0
C824 C 0.22831 0.19942 0.49975 0.0
N825 N 0.20721 0.24255 0.51594 0.0
C826 C 0.2039 0.19562 0.50826 0.0
C827 C 0.24197 0.22509 0.49933 0.0
C828 C 0.19356 0.2177 0.51642 0.0
C829 C 0.23097 0.24666 0.50763 0.0
C830 C 0.2558 0.11364 0.44792 0.0
C831 C 0.24476 0.11519 0.42387 0.0
C832 C 0.25852 0.08901 0.45543 0.0
C833 C 0.23621 0.09189 0.40782 0.0
C834 C 0.24974 0.06617 0.43883 0.0
N835 N 0.23883 0.06806 0.41558 0.0
C836 C 0.29168 0.19883 0.42748 0.0
C837 C 0.24935 0.2037 0.43202 0.0
C838 C 0.29263 0.21179 0.40517 0.0
N839 N 0.27026 0.19511 0.44048 0.0
C840 C 0.24951 0.21683 0.40995 0.0
C841 C 0.27136 0.22116 0.39609 0.0
H842 H 0.30805 0.19167 0.43439 0.0
H843 H 0.23238 0.20019 0.44235 0.0
C844 C 0.19717 0.11166 0.51298 0.0
N845 N 0.20693 0.11765 0.49043 0.0
C846 C 0.17292 0.09668 0.51356 0.0
C847 C 0.16873 0.09499 0.46774 0.0
C848 C 0.19316 0.10984 0.46804 0.0
C849 C 0.15823 0.08811 0.49073 0.0
H850 H 0.2081 0.11882 0.53064 0.0
H851 H 0.20086 0.11564 0.45042 0.0
O852 O 0.29706 0.18177 0.49679 0.0
O853 O 0.26143 0.1392 0.52209 0.0
O854 O 0.23885 0.17807 0.49199 0.0
O855 O 0.26418 0.13621 0.46391 0.0
H856 H 0.33126 0.17095 0.52948 0.0
H857 H 0.30779 0.23271 0.49028 0.0
H858 H 0.36737 0.20387 0.55014 0.0
H859 H 0.3442 0.26463 0.51183 0.0
H860 H 0.24591 0.05533 0.5452 0.0
H861 H 0.27567 0.15079 0.57097 0.0
H862 H 0.24614 0.08724 0.51282 0.0
H863 H 0.2747 0.1178 0.60237 0.0
H864 H 0.30013 0.23506 0.59979 0.0
H865 H 0.22124 0.19805 0.59476 0.0
H866 H 0.35753 0.10127 0.46123 0.0
H867 H 0.34255 0.09084 0.5399 0.0
H868 H 0.19313 0.17581 0.50868 0.0
H869 H 0.26089 0.22828 0.49275 0.0
H870 H 0.17471 0.21509 0.52315 0.0
H871 H 0.24133 0.26666 0.50748 0.0
H872 H 0.24267 0.13419 0.41777 0.0
H873 H 0.26741 0.08756 0.47383 0.0
H874 H 0.22748 0.09274 0.3892 0.0
H875 H 0.25164 0.04694 0.44441 0.0
H876 H 0.30998 0.2148 0.39537 0.0
H877 H 0.23249 0.22321 0.40362 0.0
H878 H 0.16584 0.09185 0.53176 0.0
H879 H 0.15801 0.08955 0.44967 0.0
Li880 Li 0.16591 0.03805 0.78859 0.0
Li881 Li 0.129 0.01 0.80719 0.0
Li882 Li 0.16162 0.99035 0.78139 0.0
Li883 Li 0.13187 0.01264 0.76085 0.0
C884 C 0.18367 0.02866 0.83195 0.0
N885 N 0.21832 0.06304 0.86486 0.0
C886 C 0.17561 0.04255 0.85311 0.0
C887 C 0.20934 0.03215 0.82756 0.0
C888 C 0.19343 0.05985 0.86952 0.0
C889 C 0.22656 0.04966 0.84441 0.0
C890 C 0.11279 0.05395 0.77817 0.0
C891 C 0.0696 0.0572 0.76833 0.0
N892 N 0.07767 0.07825 0.75512 0.0
C893 C 0.1207 0.07568 0.76463 0.0
C894 C 0.08707 0.04465 0.78015 0.0
C895 C 0.10263 0.08767 0.75306 0.0
C896 C 0.20608 0.07635 0.77529 0.0
N897 N 0.18784 0.07202 0.79219 0.0
C898 C 0.19692 0.11783 0.80868 0.0
C899 C 0.18312 0.09208 0.80885 0.0
C900 C 0.21567 0.12294 0.79111 0.0
C901 C 0.22034 0.10165 0.77452 0.0
H902 H 0.20892 0.06039 0.76166 0.0
H903 H 0.16809 0.08825 0.8217 0.0
C904 C 0.10117 0.98424 0.84612 0.0
N905 N 0.10798 0.00755 0.83586 0.0
C906 C 0.0863 0.98295 0.8673 0.0
C907 C 0.08588 0.02966 0.86705 0.0
C908 C 0.10062 0.03002 0.84586 0.0
C909 C 0.07855 0.00592 0.8782 0.0
H910 H 0.10736 0.96666 0.8379 0.0
H911 H 0.10638 0.04835 0.83746 0.0
C912 C 0.18295 0.00506 0.74003 0.0
N913 N 0.21258 0.98071 0.70744 0.0
C914 C 0.17252 0.99144 0.71679 0.0
C915 C 0.20847 0.00622 0.74668 0.0
C916 C 0.18782 0.97931 0.70057 0.0
C917 C 0.22312 0.99378 0.72996 0.0
C918 C 0.10238 0.96562 0.7663 0.0
C919 C 0.10386 0.95182 0.74248 0.0
C920 C 0.07901 0.96436 0.77704 0.0
C921 C 0.08192 0.93693 0.72982 0.0
C922 C 0.0575 0.94924 0.76377 0.0
N923 N 0.05939 0.93594 0.74065 0.0
C924 C 0.19725 0.9583 0.79666 0.0
C925 C 0.17534 0.94399 0.75671 0.0
C926 C 0.21071 0.93744 0.79379 0.0
N927 N 0.1799 0.96117 0.77822 0.0
C928 C 0.18861 0.92327 0.75284 0.0
C929 C 0.20642 0.9194 0.77163 0.0
H930 H 0.20053 0.97207 0.81371 0.0
H931 H 0.16157 0.9465 0.74228 0.0
C932 C 0.12819 0.03259 0.71411 0.0
N933 N 0.11383 0.01709 0.72951 0.0
C934 C 0.11796 0.03851 0.69117 0.0
C935 C 0.07781 0.01329 0.70048 0.0
C936 C 0.08887 0.00787 0.72337 0.0
C937 C 0.09247 0.02867 0.6839 0.0
H938 H 0.14772 0.04064 0.7198 0.0
H939 H 0.07738 0.99666 0.73628 0.0
O940 O 0.16646 0.0122 0.81527 0.0
O941 O 0.13015 0.04143 0.78891 0.0
O942 O 0.16825 0.01691 0.75631 0.0
O943 O 0.1237 0.97988 0.77928 0.0
H944 H 0.15581 0.04014 0.85672 0.0
H945 H 0.21586 0.02165 0.8112 0.0
H946 H 0.18747 0.07081 0.88593 0.0
H947 H 0.24648 0.05266 0.84118 0.0
H948 H 0.04962 0.05013 0.76955 0.0
H949 H 0.14057 0.08299 0.76283 0.0
H950 H 0.08069 0.02769 0.7904 0.0
H951 H 0.10844 0.10441 0.74236 0.0
H952 H 0.19274 0.13359 0.8219 0.0
H953 H 0.23418 0.10467 0.76029 0.0
H954 H 0.08136 0.96427 0.87535 0.0
H955 H 0.08012 0.0478 0.87448 0.0
H956 H 0.15273 0.98978 0.71149 0.0
H957 H 0.21681 0.01632 0.76471 0.0
H958 H 0.17995 0.96863 0.6826 0.0
H959 H 0.24285 0.99444 0.73494 0.0
H960 H 0.12164 0.9529 0.73366 0.0
H961 H 0.07744 0.97499 0.79537 0.0
H962 H 0.08279 0.92624 0.71135 0.0
H963 H 0.0393 0.9481 0.77185 0.0
H964 H 0.22392 0.93519 0.80902 0.0
H965 H 0.1849 0.91046 0.73514 0.0
H966 H 0.12987 0.05102 0.67941 0.0
H967 H 0.05806 0.0053 0.69575 0.0
Li968 Li 0.22825 0.91268 0.00459 0.0
Li969 Li 0.24516 0.87623 0.0235 0.0
Li970 Li 0.27151 0.90986 0.00478 0.0
Li971 Li 0.2448 0.87641 0.97736 0.0
C972 C 0.26776 0.9335 0.05024 0.0
N973 N 0.30142 0.97164 0.08078 0.0
C974 C 0.28496 0.92603 0.06731 0.0
C975 C 0.26763 0.96043 0.04883 0.0
C976 C 0.30185 0.94559 0.08253 0.0
C977 C 0.28478 0.97939 0.06441 0.0
C978 C 0.19207 0.86162 0.00619 0.0
C979 C 0.15679 0.82508 0.00264 0.0
N980 N 0.14545 0.83825 0.02098 0.0
C981 C 0.18002 0.87482 0.02497 0.0
C982 C 0.18033 0.83658 0.99487 0.0
C983 C 0.15647 0.86266 0.0322 0.0
C984 C 0.19072 0.93964 0.98667 0.0
N985 N 0.20472 0.93563 0.00736 0.0
C986 C 0.18739 0.96719 0.03372 0.0
C987 C 0.20306 0.94862 0.03064 0.0
C988 C 0.17258 0.9719 0.01278 0.0
C989 C 0.17429 0.95765 0.98899 0.0
H990 H 0.19239 0.92889 0.96841 0.0
H991 H 0.21405 0.94464 0.04688 0.0
C992 C 0.26625 0.85086 0.06015 0.0
N993 N 0.24348 0.85378 0.05013 0.0
C994 C 0.26771 0.83571 0.08042 0.0
C995 C 0.22218 0.82575 0.07901 0.0
C996 C 0.22162 0.84124 0.05884 0.0
C997 C 0.24546 0.82327 0.09037 0.0
H998 H 0.28336 0.86069 0.0526 0.0
H999 H 0.20373 0.84332 0.05048 0.0
C1000 C 0.26363 0.93459 0.96322 0.0
N1001 N 0.29208 0.97405 0.93917 0.0
C1002 C 0.28347 0.92905 0.94872 0.0
C1003 C 0.25805 0.96011 0.96526 0.0
C1004 C 0.29771 0.94931 0.93681 0.0
C1005 C 0.2727 0.97981 0.95298 0.0
C1006 C 0.27395 0.84509 0.99811 0.0
C1007 C 0.29726 0.83706 0.99631 0.0
C1008 C 0.25192 0.82587 0.99664 0.0
C1009 C 0.29811 0.81004 0.99321 0.0
C1010 C 0.25356 0.79906 0.99356 0.0
N1011 N 0.27643 0.79175 0.99192 0.0
C1012 C 0.32378 0.91751 0.00827 0.0
C1013 C 0.30892 0.9579 0.00687 0.0
C1014 C 0.34861 0.93072 0.00823 0.0
N1015 N 0.30453 0.93108 0.00716 0.0
C1016 C 0.33355 0.97202 0.00725 0.0
C1017 C 0.35361 0.95824 0.00748 0.0
H1018 H 0.31983 0.89635 0.00886 0.0
H1019 H 0.29338 0.96834 0.00593 0.0
C1020 C 0.22112 0.84224 0.93332 0.0
N1021 N 0.24295 0.85479 0.94616 0.0
C1022 C 0.22187 0.82566 0.9109 0.0
C1023 C 0.2674 0.83505 0.91592 0.0
C1024 C 0.26577 0.85154 0.93791 0.0
C1025 C 0.24531 0.82207 0.90189 0.0
H1026 H 0.20322 0.8452 0.94038 0.0
H1027 H 0.2828 0.86164 0.94862 0.0
O1028 O 0.25112 0.91458 0.03507 0.0
O1029 O 0.21505 0.87321 0.99864 0.0
O1030 O 0.24947 0.91508 0.97509 0.0
O1031 O 0.27287 0.87161 1.00084 0.0
H1032 H 0.28535 0.9054 0.06879 0.0
H1033 H 0.25492 0.96672 0.03536 0.0
H1034 H 0.3153 0.94004 0.09575 0.0
H1035 H 0.28501 1.00027 0.06332 0.0
H1036 H 0.14754 0.80568 0.9941 0.0
H1037 H 0.18898 0.89393 0.03429 0.0
H1038 H 0.18933 0.82606 0.98029 0.0
H1039 H 0.14701 0.87256 0.04683 0.0
H1040 H 0.18708 0.97779 0.05235 0.0
H1041 H 0.16283 0.96002 0.97239 0.0
H1042 H 0.28607 0.83459 0.08876 0.0
H1043 H 0.20457 0.81613 0.08587 0.0
H1044 H 0.28802 0.90942 0.94697 0.0
H1045 H 0.24274 0.96472 0.97639 0.0
H1046 H 0.31327 0.94537 0.92571 0.0
H1047 H 0.2687 0.99968 0.95451 0.0
H1048 H 0.31456 0.85147 0.99713 0.0
H1049 H 0.23372 0.83148 0.99789 0.0
H1050 H 0.31603 0.80361 0.99177 0.0
H1051 H 0.23663 0.78405 0.99245 0.0
H1052 H 0.36377 0.91958 0.0087 0.0
H1053 H 0.33685 0.9933 0.00659 0.0
H1054 H 0.20439 0.81629 0.90047 0.0
H1055 H 0.28585 0.83257 0.90995 0.0
Li1056 Li 0.24528 0.40792 0.02852 0.0
Li1057 Li 0.26326 0.37388 0.05151 0.0
Li1058 Li 0.29143 0.41099 0.03024 0.0
Li1059 Li 0.26502 0.37395 0.00389 0.0
C1060 C 0.25955 0.43006 0.0768 0.0
N1061 N 0.23919 0.46279 0.11129 0.0
C1062 C 0.24198 0.41918 0.09342 0.0
C1063 C 0.26698 0.45756 0.07791 0.0
C1064 C 0.23185 0.43607 0.11068 0.0
C1065 C 0.2564 0.47378 0.09542 0.0
C1066 C 0.2147 0.35083 0.01432 0.0
C1067 C 0.19019 0.30652 0.00748 0.0
N1068 N 0.17385 0.3151 0.99139 0.0
C1069 C 0.19767 0.35924 0.99775 0.0
C1070 C 0.21095 0.32429 0.0193 0.0
C1071 C 0.17713 0.34085 0.98633 0.0
C1072 C 0.21782 0.44608 0.01132 0.0
N1073 N 0.21798 0.42786 0.02832 0.0
C1074 C 0.1791 0.43724 0.04403 0.0
C1075 C 0.199 0.42314 0.04445 0.0
C1076 C 0.17853 0.45629 0.02668 0.0
C1077 C 0.19842 0.46063 0.0103 0.0
H1078 H 0.23259 0.44923 0.99823 0.0
H1079 H 0.19911 0.40816 0.05744 0.0
C1080 C 0.28136 0.35176 0.09481 0.0
N1081 N 0.2602 0.35318 0.08055 0.0
C1082 C 0.27976 0.33787 0.11646 0.0
C1083 C 0.23465 0.32679 0.10834 0.0
C1084 C 0.2371 0.34103 0.08693 0.0
C1085 C 0.25614 0.32514 0.12362 0.0
H1086 H 0.29953 0.3616 0.08944 0.0
H1087 H 0.22047 0.34272 0.07559 0.0
C1088 C 0.27745 0.43342 0.98774 0.0
N1089 N 0.29682 0.47649 0.96247 0.0
C1090 C 0.2806 0.43012 0.96157 0.0
C1091 C 0.28388 0.45869 1.00098 0.0
C1092 C 0.29049 0.45212 0.94915 0.0
C1093 C 0.29371 0.4802 0.98789 0.0
C1094 C 0.30277 0.35115 0.0212 0.0
C1095 C 0.32565 0.35479 0.00939 0.0
C1096 C 0.29022 0.32555 0.02419 0.0
C1097 C 0.33558 0.33263 1.00062 0.0
C1098 C 0.30077 0.3039 0.01516 0.0
N1099 N 0.32304 0.30786 0.00366 0.0
C1100 C 0.33455 0.44905 0.05264 0.0
C1101 C 0.33622 0.43349 0.00923 0.0
C1102 C 0.35852 0.46495 0.05243 0.0
N1103 N 0.32398 0.43368 0.03122 0.0
C1104 C 0.35993 0.44931 0.00806 0.0
C1105 C 0.37168 0.46517 0.02992 0.0
H1106 H 0.32452 0.44872 0.06996 0.0
H1107 H 0.32748 0.42101 0.99248 0.0
C1108 C 0.24729 0.33358 0.96063 0.0
N1109 N 0.26604 0.35346 0.971 0.0
C1110 C 0.24836 0.32191 0.93572 0.0
C1111 C 0.28838 0.35062 0.93267 0.0
C1112 C 0.28662 0.36158 0.95769 0.0
C1113 C 0.26883 0.33079 0.92102 0.0
H1114 H 0.23119 0.32699 0.97131 0.0
H1115 H 0.30135 0.37741 0.96623 0.0
O1116 O 0.2696 0.41383 0.05972 0.0
O1117 O 0.23479 0.36853 0.02583 0.0
O1118 O 0.26816 0.41202 1.00032 0.0
O1119 O 0.29273 0.37256 0.02988 0.0
H1120 H 0.23605 0.39795 0.09284 0.0
H1121 H 0.28087 0.46632 0.0655 0.0
H1122 H 0.21813 0.42793 0.12357 0.0
H1123 H 0.26193 0.49511 0.09643 0.0
H1124 H 0.18709 0.28591 0.01108 0.0
H1125 H 0.20032 0.37972 0.99373 0.0
H1126 H 0.22403 0.31746 0.032 0.0
H1127 H 0.16379 0.34704 0.97345 0.0
H1128 H 0.16403 0.43276 0.05674 0.0
H1129 H 0.19912 0.47522 0.99676 0.0
H1130 H 0.29692 0.33694 0.12736 0.0
H1131 H 0.21602 0.31766 0.11318 0.0
H1132 H 0.27527 0.41084 0.95088 0.0
H1133 H 0.28135 0.46161 0.02116 0.0
H1134 H 0.29308 0.44983 0.92892 0.0
H1135 H 0.29887 0.49984 0.99795 0.0
H1136 H 0.3356 0.37452 0.00701 0.0
H1137 H 0.27249 0.32246 0.03332 0.0
H1138 H 0.35325 0.33512 0.99141 0.0
H1139 H 0.29126 0.28395 0.0173 0.0
H1140 H 0.36682 0.47645 0.0699 0.0
H1141 H 0.3689 0.44906 0.9901 0.0
H1142 H 0.23306 0.30624 0.92801 0.0
H1143 H 0.30448 0.35842 0.92229 0.0
Li1144 Li 0.78035 0.16321 0.04901 0.0
Li1145 Li 0.79527 0.12876 0.02134 0.0
Li1146 Li 0.77984 0.16505 0.00267 0.0
Li1147 Li 0.752 0.12971 0.01969 0.0
C1148 C 0.83194 0.1797 0.01964 0.0
N1149 N 0.87746 0.20433 0.00344 0.0
C1150 C 0.84422 0.16652 1.00105 0.0
C1151 C 0.84279 0.2054 0.02995 0.0
C1152 C 0.86725 0.17931 0.99315 0.0
C1153 C 0.8658 0.21753 0.02148 0.0
C1154 C 0.78335 0.10778 0.0636 0.0
C1155 C 0.79163 0.06433 0.06985 0.0
N1156 N 0.80724 0.07501 0.0905 0.0
C1157 C 0.79936 0.11829 0.08497 0.0
C1158 C 0.7793 0.08055 0.05605 0.0
C1159 C 0.81129 0.10141 0.09829 0.0
C1160 C 0.76103 0.1867 0.09185 0.0
N1161 N 0.78279 0.18404 0.08071 0.0
C1162 C 0.80722 0.21137 0.11514 0.0
C1163 C 0.80564 0.19601 0.09172 0.0
C1164 C 0.78506 0.21433 0.12729 0.0
C1165 C 0.76172 0.2019 0.11526 0.0
H1166 H 0.74314 0.17685 0.08258 0.0
H1167 H 0.82262 0.19339 0.08244 0.0
C1168 C 0.81565 0.08604 0.99941 0.0
N1169 N 0.81922 0.10594 0.01872 0.0
C1170 C 0.83246 0.06854 0.99693 0.0
C1171 C 0.85661 0.09259 0.03409 0.0
C1172 C 0.83929 0.10965 0.03585 0.0
C1173 C 0.85327 0.07167 0.01442 0.0
H1174 H 0.79982 0.08379 0.9858 0.0
H1175 H 0.84186 0.1259 0.05079 0.0
C1176 C 0.7471 0.19301 0.02804 0.0
N1177 N 0.73634 0.24351 0.03249 0.0
C1178 C 0.72216 0.19664 0.02554 0.0
C1179 C 0.76659 0.21501 0.03273 0.0
C1180 C 0.7171 0.22235 0.02786 0.0
C1181 C 0.76076 0.2404 0.03496 0.0
C1182 C 0.75718 0.10969 0.9732 0.0
C1183 C 0.74876 0.118 0.95049 0.0
C1184 C 0.74879 0.08358 0.97849 0.0
C1185 C 0.73166 0.10024 0.93373 0.0
C1186 C 0.73167 0.06643 0.96127 0.0
N1187 N 0.7235 0.07505 0.93943 0.0
C1188 C 0.80256 0.2021 0.96849 0.0
C1189 C 0.75806 0.18953 0.9658 0.0
C1190 C 0.80159 0.21706 0.94794 0.0
N1191 N 0.78099 0.18832 0.97668 0.0
C1192 C 0.7562 0.20418 0.94519 0.0
C1193 C 0.77821 0.21778 0.9357 0.0
H1194 H 0.82058 0.20116 0.97735 0.0
H1195 H 0.74121 0.17825 0.97259 0.0
C1196 C 0.71137 0.09134 0.03179 0.0
N1197 N 0.71882 0.11052 0.01631 0.0
C1198 C 0.68632 0.0783 0.0304 0.0
C1199 C 0.67737 0.10479 0.99687 0.0
C1200 C 0.70254 0.11742 0.99903 0.0
C1201 C 0.66897 0.0852 0.01292 0.0
H1202 H 0.72477 0.08653 0.04551 0.0
H1203 H 0.70908 0.13304 0.98725 0.0
O1204 O 0.8095 0.16756 0.02788 0.0
O1205 O 0.77186 0.12407 0.05004 0.0
O1206 O 0.7523 0.16796 0.02538 0.0
O1207 O 0.77379 0.12689 0.98998 0.0
H1208 H 0.83593 0.14682 0.99253 0.0
H1209 H 0.83347 0.21598 0.04421 0.0
H1210 H 0.87695 0.1694 0.97875 0.0
H1211 H 0.87437 0.23744 0.02925 0.0
H1212 H 0.78882 0.04326 0.06411 0.0
H1213 H 0.80273 0.13929 0.09108 0.0
H1214 H 0.76699 0.07206 0.03957 0.0
H1215 H 0.82383 0.10931 0.11479 0.0
H1216 H 0.8256 0.22083 0.12362 0.0
H1217 H 0.74422 0.20337 0.1241 0.0
H1218 H 0.82912 0.05267 0.98153 0.0
H1219 H 0.8727 0.09609 0.04768 0.0
H1220 H 0.70689 0.17976 0.02175 0.0
H1221 H 0.78601 0.21251 0.03452 0.0
H1222 H 0.69788 0.22548 0.02594 0.0
H1223 H 0.77564 0.25763 0.03859 0.0
H1224 H 0.75547 0.13787 0.94573 0.0
H1225 H 0.75513 0.07674 0.99592 0.0
H1226 H 0.72493 0.10647 0.91614 0.0
H1227 H 0.72483 0.04627 0.96528 0.0
H1228 H 0.81899 0.22756 0.94141 0.0
H1229 H 0.73781 0.20387 0.9361 0.0
H1230 H 0.68053 0.06318 0.04298 0.0
H1231 H 0.66448 0.1109 0.9834 0.0
Li1232 Li 0.13889 0.52983 0.2488 0.0
Li1233 Li 0.10547 0.49884 0.26516 0.0
Li1234 Li 0.14047 0.48303 0.24669 0.0
Li1235 Li 0.10783 0.49831 0.22139 0.0
C1236 C 0.14419 0.52242 0.30074 0.0
N1237 N 0.14901 0.55184 0.34781 0.0
C1238 C 0.1318 0.54391 0.30483 0.0
C1239 C 0.15901 0.51592 0.32064 0.0
C1240 C 0.13448 0.55851 0.32874 0.0
C1241 C 0.16122 0.53104 0.34427 0.0
C1242 C 0.08434 0.53924 0.23284 0.0
C1243 C 0.04273 0.53495 0.21264 0.0
N1244 N 0.04842 0.56053 0.20719 0.0
C1245 C 0.08954 0.56565 0.22752 0.0
C1246 C 0.06053 0.52395 0.22582 0.0
C1247 C 0.07123 0.57599 0.21438 0.0
C1248 C 0.15869 0.57858 0.23199 0.0
N1249 N 0.16068 0.56319 0.25118 0.0
C1250 C 0.1958 0.59437 0.27087 0.0
C1251 C 0.17921 0.57024 0.27004 0.0
C1252 C 0.19334 0.61139 0.25206 0.0
C1253 C 0.17464 0.60308 0.23224 0.0
H1254 H 0.14477 0.57171 0.2164 0.0
H1255 H 0.18155 0.55696 0.28419 0.0
C1256 C 0.08957 0.48258 0.31215 0.0
N1257 N 0.08384 0.49588 0.29236 0.0
C1258 C 0.0757 0.48291 0.33382 0.0
C1259 C 0.05004 0.51014 0.31402 0.0
C1260 C 0.0644 0.50928 0.29279 0.0
C1261 C 0.05597 0.49728 0.33507 0.0
H1262 H 0.10551 0.47258 0.31147 0.0
H1263 H 0.06058 0.52013 0.27707 0.0
C1264 C 0.16896 0.51387 0.21196 0.0
N1265 N 0.21782 0.52867 0.19793 0.0
C1266 C 0.17369 0.51718 0.18654 0.0
C1267 C 0.1891 0.51806 0.23025 0.0
C1268 C 0.19852 0.52467 0.17982 0.0
C1269 C 0.21365 0.52555 0.22278 0.0
C1270 C 0.08928 0.44859 0.25329 0.0
C1271 C 0.10013 0.43159 0.26753 0.0
C1272 C 0.06319 0.44731 0.25269 0.0
C1273 C 0.08472 0.41385 0.28127 0.0
C1274 C 0.04844 0.42934 0.26672 0.0
N1275 N 0.05942 0.41313 0.28062 0.0
C1276 C 0.17329 0.45454 0.26956 0.0
C1277 C 0.17415 0.45391 0.22467 0.0
C1278 C 0.19323 0.44078 0.27022 0.0
N1279 N 0.16428 0.46076 0.24701 0.0
C1280 C 0.19464 0.44104 0.22452 0.0
C1281 C 0.20439 0.43402 0.24748 0.0
H1282 H 0.16502 0.46035 0.28701 0.0
H1283 H 0.16661 0.45924 0.20703 0.0
C1284 C 0.09987 0.51209 0.17328 0.0
N1285 N 0.09037 0.49434 0.18938 0.0
C1286 C 0.08704 0.51293 0.15015 0.0
C1287 C 0.05481 0.47708 0.16055 0.0
C1288 C 0.0687 0.47647 0.1833 0.0
C1289 C 0.06372 0.49591 0.14386 0.0
H1290 H 0.11705 0.52616 0.17884 0.0
H1291 H 0.06162 0.46261 0.1966 0.0
O1292 O 0.14169 0.50755 0.27758 0.0
O1293 O 0.10214 0.52874 0.24563 0.0
O1294 O 0.1447 0.50681 0.21888 0.0
O1295 O 0.10415 0.46645 0.24011 0.0
H1296 H 0.12026 0.54934 0.28975 0.0
H1297 H 0.16873 0.49939 0.31785 0.0
H1298 H 0.125 0.57517 0.33215 0.0
H1299 H 0.17265 0.52623 0.35982 0.0
H1300 H 0.02438 0.52317 0.20679 0.0
H1301 H 0.10733 0.57824 0.23385 0.0
H1302 H 0.05591 0.5037 0.23034 0.0
H1303 H 0.0751 0.59637 0.21004 0.0
H1304 H 0.21049 0.59952 0.28601 0.0
H1305 H 0.17201 0.61549 0.21729 0.0
H1306 H 0.08115 0.47313 0.34986 0.0
H1307 H 0.03489 0.52132 0.31424 0.0
H1308 H 0.15836 0.51393 0.17211 0.0
H1309 H 0.1858 0.51557 0.25003 0.0
H1310 H 0.20245 0.52729 0.1602 0.0
H1311 H 0.22939 0.52888 0.23674 0.0
H1312 H 0.12024 0.43219 0.26813 0.0
H1313 H 0.05443 0.46027 0.2418 0.0
H1314 H 0.09289 0.40069 0.2925 0.0
H1315 H 0.02826 0.42832 0.26661 0.0
H1316 H 0.19949 0.43522 0.28831 0.0
H1317 H 0.20275 0.43682 0.20653 0.0
H1318 H 0.09513 0.52724 0.13761 0.0
H1319 H 0.03689 0.4637 0.15665 0.0
Li1320 Li 0.74344 0.91049 0.53134 0.0
Li1321 Li 0.76196 0.87751 0.55412 0.0
Li1322 Li 0.78909 0.91416 0.53198 0.0
Li1323 Li 0.76272 0.87673 0.50631 0.0
C1324 C 0.75638 0.9337 0.57738 0.0
N1325 N 0.73151 0.96654 0.60712 0.0
C1326 C 0.73756 0.92292 0.5928 0.0
C1327 C 0.76269 0.96118 0.57722 0.0
C1328 C 0.72518 0.93985 0.60768 0.0
C1329 C 0.74985 0.97745 0.59234 0.0
C1330 C 0.71197 0.85599 0.51627 0.0
C1331 C 0.68186 0.81503 0.50887 0.0
N1332 N 0.66928 0.82565 0.49084 0.0
C1333 C 0.6988 0.86652 0.49765 0.0
C1334 C 0.70348 0.83006 0.52196 0.0
C1335 C 0.67722 0.85085 0.48503 0.0
C1336 C 0.71864 0.95335 0.52129 0.0
N1337 N 0.71595 0.93009 0.53198 0.0
C1338 C 0.67406 0.93413 0.54297 0.0
C1339 C 0.69421 0.9204 0.54283 0.0
C1340 C 0.67621 0.95813 0.53179 0.0
C1341 C 0.69905 0.96772 0.52104 0.0
H1342 H 0.73595 0.96081 0.51282 0.0
H1343 H 0.69244 0.90185 0.55122 0.0
C1344 C 0.78168 0.85479 0.59606 0.0
N1345 N 0.75997 0.85718 0.58332 0.0
C1346 C 0.78096 0.84128 0.61793 0.0
C1347 C 0.73553 0.83266 0.61316 0.0
C1348 C 0.73714 0.84632 0.59136 0.0
C1349 C 0.75764 0.83008 0.62698 0.0
H1350 H 0.79963 0.86356 0.58932 0.0
H1351 H 0.7201 0.84866 0.58108 0.0
C1352 C 0.77571 0.93484 0.48878 0.0
N1353 N 0.7981 0.97513 0.46153 0.0
C1354 C 0.77844 0.9299 0.46266 0.0
C1355 C 0.78401 0.9604 0.50092 0.0
C1356 C 0.7899 0.9505 0.44924 0.0
C1357 C 0.79537 0.98047 0.48686 0.0
C1358 C 0.79957 0.85322 0.52466 0.0
C1359 C 0.82306 0.8546 0.51421 0.0
C1360 C 0.78491 0.82856 0.52761 0.0
C1361 C 0.83155 0.83114 0.50688 0.0
C1362 C 0.79407 0.80556 0.52004 0.0
N1363 N 0.817 0.80731 0.50992 0.0
C1364 C 0.83206 0.95383 0.55224 0.0
C1365 C 0.83431 0.93386 0.51036 0.0
C1366 C 0.85604 0.96944 0.55117 0.0
N1367 N 0.82176 0.93643 0.53199 0.0
C1368 C 0.85804 0.94931 0.50831 0.0
C1369 C 0.8695 0.96727 0.52898 0.0
H1370 H 0.82178 0.95539 0.5693 0.0
H1371 H 0.82572 0.91987 0.49453 0.0
C1372 C 0.74472 0.83601 0.46333 0.0
N1373 N 0.76369 0.85556 0.47389 0.0
C1374 C 0.74617 0.82387 0.43867 0.0
C1375 C 0.78702 0.85132 0.43644 0.0
C1376 C 0.78485 0.86279 0.46115 0.0
C1377 C 0.76731 0.83185 0.42453 0.0
H1378 H 0.72822 0.83003 0.47372 0.0
H1379 H 0.79975 0.8783 0.46989 0.0
O1380 O 0.76823 0.91738 0.5622 0.0
O1381 O 0.7331 0.87091 0.5289 0.0
O1382 O 0.76507 0.91471 0.50233 0.0
O1383 O 0.79082 0.87592 0.53173 0.0
H1384 H 0.73235 0.90169 0.59303 0.0
H1385 H 0.77731 0.96988 0.56553 0.0
H1386 H 0.71049 0.93178 0.61961 0.0
H1387 H 0.75447 0.99876 0.59233 0.0
H1388 H 0.67509 0.7949 0.51302 0.0
H1389 H 0.70525 0.8865 0.49292 0.0
H1390 H 0.71359 0.82161 0.53623 0.0
H1391 H 0.66682 0.85871 0.47057 0.0
H1392 H 0.65679 0.92569 0.55123 0.0
H1393 H 0.70189 0.98628 0.51257 0.0
H1394 H 0.79856 0.83952 0.62754 0.0
H1395 H 0.71711 0.82474 0.61943 0.0
H1396 H 0.77161 0.91045 0.45276 0.0
H1397 H 0.782 0.96461 0.52109 0.0
H1398 H 0.79222 0.9469 0.42904 0.0
H1399 H 0.80209 1.00026 0.49611 0.0
H1400 H 0.83457 0.87359 0.51176 0.0
H1401 H 0.7666 0.82721 0.53551 0.0
H1402 H 0.84969 0.83187 0.49875 0.0
H1403 H 0.78293 0.78631 0.52217 0.0
H1404 H 0.86411 0.98261 0.56779 0.0
H1405 H 0.86721 0.94717 0.49059 0.0
H1406 H 0.7307 0.80851 0.43072 0.0
H1407 H 0.80362 0.85846 0.42648 0.0
Li1408 Li 0.89703 0.03824 0.2603 0.0
Li1409 Li 0.86404 0.00985 0.23405 0.0
Li1410 Li 0.89935 0.03995 0.21427 0.0
Li1411 Li 0.86643 0.05857 0.23849 0.0
C1412 C 0.91677 0.99423 0.24113 0.0
N1413 N 0.95033 0.9634 0.25631 0.0
C1414 C 0.91044 0.97685 0.25961 0.0
C1415 C 0.94005 0.99577 0.23019 0.0
C1416 C 0.92771 0.96149 0.26709 0.0
C1417 C 0.95678 0.98005 0.23816 0.0
C1418 C 0.83485 0.0307 0.26902 0.0
C1419 C 0.79133 0.02163 0.25297 0.0
N1420 N 0.78395 0.02496 0.27718 0.0
C1421 C 0.82675 0.03402 0.29375 0.0
C1422 C 0.81692 0.02441 0.24845 0.0
C1423 C 0.80098 0.03103 0.29747 0.0
C1424 C 0.9015 0.04006 0.31329 0.0
N1425 N 0.91525 0.03721 0.29257 0.0
C1426 C 0.94812 0.02558 0.31861 0.0
C1427 C 0.93846 0.03059 0.29493 0.0
C1428 C 0.93373 0.02714 0.34015 0.0
C1429 C 0.91025 0.03494 0.33721 0.0
H1430 H 0.88325 0.04545 0.31109 0.0
H1431 H 0.94925 0.02825 0.27839 0.0
C1432 C 0.83591 0.95896 0.2112 0.0
N1433 N 0.84414 0.97496 0.23298 0.0
C1434 C 0.82337 0.93282 0.21245 0.0
C1435 C 0.82789 0.94042 0.25838 0.0
C1436 C 0.84019 0.96624 0.25625 0.0
C1437 C 0.81952 0.92315 0.23633 0.0
H1438 H 0.83953 0.96629 0.19291 0.0
H1439 H 0.84712 0.97926 0.27329 0.0
C1440 C 0.92574 0.08463 0.25372 0.0
N1441 N 0.96978 0.11235 0.27909 0.0
C1442 C 0.92625 0.10958 0.26687 0.0
C1443 C 0.94774 0.07399 0.25324 0.0
C1444 C 0.94867 0.12323 0.27963 0.0
C1445 C 0.96978 0.08822 0.26624 0.0
C1446 C 0.85572 0.04517 0.18519 0.0
C1447 C 0.86909 0.0702 0.18129 0.0
C1448 C 0.83635 0.03234 0.16761 0.0
C1449 C 0.86281 0.08199 0.15976 0.0
C1450 C 0.83062 0.0448 0.14634 0.0
N1451 N 0.84387 0.06915 0.14289 0.0
C1452 C 0.91089 0.02583 0.16351 0.0
C1453 C 0.94172 0.05991 0.18524 0.0
C1454 C 0.92469 0.02631 0.14162 0.0
N1455 N 0.9196 0.04237 0.18483 0.0
C1456 C 0.95644 0.06063 0.164 0.0
C1457 C 0.94812 0.04361 0.14166 0.0
H1458 H 0.89311 0.01224 0.16348 0.0
H1459 H 0.94816 0.07333 0.20206 0.0
C1460 C 0.85279 0.10549 0.26071 0.0
N1461 N 0.84629 0.0861 0.2411 0.0
C1462 C 0.83941 0.12623 0.26407 0.0
C1463 C 0.81172 0.106 0.22785 0.0
C1464 C 0.82594 0.08582 0.22496 0.0
C1465 C 0.81844 0.12681 0.24754 0.0
H1466 H 0.86833 0.10473 0.27394 0.0
H1467 H 0.82044 0.06977 0.21001 0.0
O1468 O 0.90023 0.00952 0.23355 0.0
O1469 O 0.86014 0.0337 0.26513 0.0
O1470 O 0.90398 0.07083 0.24111 0.0
O1471 O 0.86142 0.03324 0.20615 0.0
H1472 H 0.89261 0.97557 0.26841 0.0
H1473 H 0.94516 0.00902 0.21575 0.0
H1474 H 0.92316 0.94811 0.28153 0.0
H1475 H 0.97491 0.9811 0.22994 0.0
H1476 H 0.77734 0.01679 0.2372 0.0
H1477 H 0.84015 0.03887 0.31 0.0
H1478 H 0.82252 0.0216 0.22917 0.0
H1479 H 0.79452 0.03356 0.31652 0.0
H1480 H 0.96657 0.02025 0.31989 0.0
H1481 H 0.89823 0.03625 0.353 0.0
H1482 H 0.81734 0.92015 0.19495 0.0
H1483 H 0.82496 0.93408 0.27717 0.0
H1484 H 0.90969 0.11854 0.26698 0.0
H1485 H 0.94775 0.05483 0.24299 0.0
H1486 H 0.9493 0.14254 0.28988 0.0
H1487 H 0.98687 0.08008 0.26612 0.0
H1488 H 0.88409 0.08043 0.19477 0.0
H1489 H 0.82581 0.01297 0.17044 0.0
H1490 H 0.87297 0.10135 0.15648 0.0
H1491 H 0.81565 0.03514 0.13258 0.0
H1492 H 0.91691 0.01325 0.12486 0.0
H1493 H 0.97438 0.07414 0.16539 0.0
H1494 H 0.84573 0.14177 0.27939 0.0
H1495 H 0.79543 0.105 0.21495 0.0
Li1496 Li 0.28521 0.66327 0.5462 0.0
Li1497 Li 0.29824 0.62932 0.51728 0.0
Li1498 Li 0.28153 0.66584 0.5014 0.0
Li1499 Li 0.25467 0.63026 0.51981 0.0
C1500 C 0.33001 0.68378 0.51026 0.0
N1501 N 0.36329 0.71592 0.48293 0.0
C1502 C 0.34735 0.67303 0.49555 0.0
C1503 C 0.32966 0.7109 0.51114 0.0
C1504 C 0.36401 0.68961 0.48187 0.0
C1505 C 0.3466 0.7268 0.49715 0.0
C1506 C 0.28848 0.60676 0.55944 0.0
C1507 C 0.29535 0.56219 0.56246 0.0
N1508 N 0.31206 0.57121 0.58268 0.0
C1509 C 0.30572 0.61559 0.58026 0.0
C1510 C 0.28318 0.57984 0.5505 0.0
C1511 C 0.31742 0.59729 0.59176 0.0
C1512 C 0.27652 0.6732 0.59758 0.0
N1513 N 0.28997 0.6833 0.57843 0.0
C1514 C 0.3046 0.72416 0.60417 0.0
C1515 C 0.30421 0.70805 0.58137 0.0
C1516 C 0.29047 0.7145 0.62421 0.0
C1517 C 0.27663 0.68845 0.62081 0.0
H1518 H 0.26517 0.65349 0.59452 0.0
H1519 H 0.31448 0.71565 0.56571 0.0
C1520 C 0.31718 0.58628 0.4934 0.0
N1521 N 0.32157 0.60632 0.51259 0.0
C1522 C 0.33332 0.56805 0.49089 0.0
C1523 C 0.35845 0.5919 0.5276 0.0
C1524 C 0.3419 0.6097 0.52932 0.0
C1525 C 0.35411 0.57061 0.50831 0.0
H1526 H 0.30106 0.5843 0.48017 0.0
H1527 H 0.34506 0.62608 0.54416 0.0
C1528 C 0.24434 0.68358 0.54276 0.0
N1529 N 0.22334 0.71328 0.57948 0.0
C1530 C 0.22526 0.67128 0.55711 0.0
C1531 C 0.2527 0.711 0.54708 0.0
C1532 C 0.21488 0.68665 0.57556 0.0
C1533 C 0.24186 0.72566 0.56574 0.0
C1534 C 0.25592 0.61259 0.47173 0.0
C1535 C 0.24441 0.62411 0.45263 0.0
C1536 C 0.2485 0.58551 0.47395 0.0
C1537 C 0.22555 0.60836 0.43615 0.0
C1538 C 0.22953 0.57045 0.45714 0.0
N1539 N 0.21854 0.58209 0.43875 0.0
C1540 C 0.29641 0.68519 0.45517 0.0
C1541 C 0.267 0.70696 0.47667 0.0
C1542 C 0.29575 0.70074 0.43504 0.0
N1543 N 0.28216 0.68861 0.4754 0.0
C1544 C 0.26577 0.72295 0.457 0.0
C1545 C 0.28008 0.71975 0.43572 0.0
H1546 H 0.30779 0.66994 0.45444 0.0
H1547 H 0.25537 0.70875 0.49264 0.0
C1548 C 0.21551 0.59029 0.53277 0.0
N1549 N 0.22175 0.61052 0.51814 0.0
C1550 C 0.19066 0.57674 0.5321 0.0
C1551 C 0.1794 0.6051 0.50121 0.0
C1552 C 0.20436 0.61823 0.50268 0.0
C1553 C 0.17231 0.58421 0.51619 0.0
H1554 H 0.2297 0.585 0.54525 0.0
H1555 H 0.20989 0.63485 0.49177 0.0
O1556 O 0.31343 0.66784 0.52367 0.0
O1557 O 0.27704 0.62441 0.54772 0.0
O1558 O 0.25525 0.66878 0.52509 0.0
O1559 O 0.27423 0.62775 0.48826 0.0
H1560 H 0.34786 0.6521 0.49455 0.0
H1561 H 0.31608 0.7195 0.52203 0.0
H1562 H 0.37749 0.68155 0.47036 0.0
H1563 H 0.34639 0.74776 0.49748 0.0
H1564 H 0.29155 0.54134 0.55563 0.0
H1565 H 0.31027 0.63637 0.58729 0.0
H1566 H 0.27009 0.5727 0.53425 0.0
H1567 H 0.33086 0.60385 0.60784 0.0
H1568 H 0.31528 0.7442 0.60575 0.0
H1569 H 0.26588 0.67993 0.63585 0.0
H1570 H 0.32939 0.55196 0.47572 0.0
H1571 H 0.37463 0.59495 0.54105 0.0
H1572 H 0.21875 0.65008 0.55433 0.0
H1573 H 0.2678 0.72081 0.53654 0.0
H1574 H 0.20019 0.67737 0.58687 0.0
H1575 H 0.2483 0.74685 0.56942 0.0
H1576 H 0.24979 0.64502 0.45064 0.0
H1577 H 0.25697 0.5763 0.48879 0.0
H1578 H 0.21641 0.61704 0.42136 0.0
H1579 H 0.22348 0.54954 0.45878 0.0
H1580 H 0.30669 0.69723 0.41874 0.0
H1581 H 0.25351 0.73741 0.45829 0.0
H1582 H 0.18582 0.56072 0.54392 0.0
H1583 H 0.16566 0.61172 0.48908 0.0
Li1584 Li 0.36362 0.50854 0.73588 0.0
Li1585 Li 0.39712 0.53754 0.76095 0.0
Li1586 Li 0.36706 0.55808 0.73934 0.0
Li1587 Li 0.39989 0.53788 0.71514 0.0
C1588 C 0.33517 0.5305 0.77071 0.0
N1589 N 0.28434 0.524 0.77942 0.0
C1590 C 0.32696 0.52742 0.79524 0.0
C1591 C 0.31738 0.53014 0.75064 0.0
C1592 C 0.30123 0.52417 0.79924 0.0
C1593 C 0.29183 0.5269 0.75542 0.0
C1594 C 0.41731 0.49418 0.74435 0.0
C1595 C 0.45887 0.48334 0.74442 0.0
N1596 N 0.45253 0.46695 0.7628 0.0
C1597 C 0.41112 0.47707 0.76308 0.0
C1598 C 0.4413 0.49726 0.7348 0.0
C1599 C 0.42924 0.46356 0.77224 0.0
C1600 C 0.33487 0.45714 0.71431 0.0
N1601 N 0.3431 0.47401 0.73559 0.0
C1602 C 0.32541 0.4413 0.7623 0.0
C1603 C 0.3388 0.46644 0.75923 0.0
C1604 C 0.3166 0.42338 0.74083 0.0
C1605 C 0.32156 0.43148 0.71653 0.0
H1606 H 0.33892 0.46345 0.69571 0.0
H1607 H 0.34628 0.47981 0.77586 0.0
C1608 C 0.40215 0.53824 0.81394 0.0
N1609 N 0.41599 0.53756 0.79306 0.0
C1610 C 0.41219 0.53426 0.83771 0.0
C1611 C 0.45137 0.53049 0.81864 0.0
C1612 C 0.4404 0.53422 0.7951 0.0
C1613 C 0.43708 0.52995 0.84037 0.0
H1614 H 0.38296 0.54116 0.81202 0.0
H1615 H 0.45127 0.53377 0.77842 0.0
C1616 C 0.35107 0.53699 0.68557 0.0
N1617 N 0.32908 0.54706 0.64027 0.0
C1618 C 0.36362 0.55642 0.67144 0.0
C1619 C 0.32746 0.5225 0.67653 0.0
C1620 C 0.35215 0.56126 0.64862 0.0
C1621 C 0.31661 0.52796 0.65363 0.0
C1622 C 0.42217 0.58514 0.75805 0.0
C1623 C 0.41512 0.60444 0.77523 0.0
C1624 C 0.4473 0.5819 0.75834 0.0
C1625 C 0.43332 0.6201 0.7925 0.0
C1626 C 0.46494 0.59792 0.77591 0.0
N1627 N 0.45765 0.61653 0.79249 0.0
C1628 C 0.34366 0.59661 0.76567 0.0
C1629 C 0.33992 0.59735 0.72099 0.0
C1630 C 0.33101 0.61793 0.76939 0.0
N1631 N 0.34811 0.58686 0.74177 0.0
C1632 C 0.32707 0.61862 0.72382 0.0
C1633 C 0.32268 0.62943 0.74831 0.0
H1634 H 0.35026 0.58802 0.78198 0.0
H1635 H 0.3436 0.58959 0.70217 0.0
C1636 C 0.41121 0.52256 0.66445 0.0
N1637 N 0.4199 0.53931 0.68563 0.0
C1638 C 0.42483 0.52311 0.64245 0.0
C1639 C 0.45654 0.55765 0.66459 0.0
C1640 C 0.44198 0.55688 0.68594 0.0
C1641 C 0.4481 0.54064 0.64227 0.0
H1642 H 0.39347 0.50892 0.66454 0.0
H1643 H 0.44841 0.57032 0.70276 0.0
O1644 O 0.36039 0.53339 0.76649 0.0
O1645 O 0.3999 0.50759 0.7351 0.0
O1646 O 0.36211 0.53158 0.70776 0.0
O1647 O 0.40457 0.56953 0.74106 0.0
H1648 H 0.34022 0.52728 0.81106 0.0
H1649 H 0.3231 0.53249 0.73157 0.0
H1650 H 0.29469 0.52173 0.81812 0.0
H1651 H 0.27795 0.52669 0.74003 0.0
H1652 H 0.47755 0.48561 0.7373 0.0
H1653 H 0.39265 0.47452 0.77068 0.0
H1654 H 0.44633 0.51037 0.72022 0.0
H1655 H 0.42479 0.4504 0.78688 0.0
H1656 H 0.32244 0.43574 0.78137 0.0
H1657 H 0.31504 0.41822 0.69949 0.0
H1658 H 0.40017 0.53378 0.85363 0.0
H1659 H 0.4708 0.52789 0.81968 0.0
H1660 H 0.38188 0.56788 0.6782 0.0
H1661 H 0.31762 0.5072 0.6871 0.0
H1662 H 0.36158 0.57633 0.63756 0.0
H1663 H 0.2983 0.51697 0.64646 0.0
H1664 H 0.39584 0.60736 0.77523 0.0
H1665 H 0.45305 0.56672 0.74558 0.0
H1666 H 0.42811 0.63509 0.8059 0.0
H1667 H 0.4844 0.59543 0.77647 0.0
H1668 H 0.32782 0.62534 0.78863 0.0
H1669 H 0.32128 0.62699 0.70699 0.0
H1670 H 0.41697 0.51001 0.62573 0.0
H1671 H 0.47442 0.57126 0.66586 0.0
Li1672 Li 0.60835 0.99961 0.76319 0.0
Li1673 Li 0.64311 0.02344 0.74274 0.0
Li1674 Li 0.60965 0.98969 0.71816 0.0
Li1675 Li 0.64093 0.97704 0.74858 0.0
C1676 C 0.59185 0.04217 0.73929 0.0
N1677 N 0.56124 0.07971 0.74393 0.0
C1678 C 0.60046 0.06662 0.75357 0.0
C1679 C 0.56784 0.03707 0.72693 0.0
C1680 C 0.58467 0.08526 0.75581 0.0
C1681 C 0.5526 0.05622 0.72964 0.0
C1682 C 0.6533 0.02555 0.79528 0.0
C1683 C 0.6857 0.04472 0.82796 0.0
N1684 N 0.67163 0.06298 0.83584 0.0
C1685 C 0.63916 0.04446 0.80382 0.0
C1686 C 0.67674 0.02561 0.80757 0.0
C1687 C 0.64874 0.06322 0.8243 0.0
C1688 C 0.59445 0.99226 0.81194 0.0
N1689 N 0.58644 0.00107 0.79018 0.0
C1690 C 0.54905 0.00991 0.80906 0.0
C1691 C 0.56405 0.00942 0.78821 0.0
C1692 C 0.55711 0.0013 0.83187 0.0
C1693 C 0.58002 0.9922 0.83313 0.0
H1694 H 0.61218 0.98535 0.81279 0.0
H1695 H 0.55764 0.01544 0.77051 0.0
C1696 C 0.65718 0.0737 0.72571 0.0
N1697 N 0.66488 0.0564 0.7408 0.0
C1698 C 0.67153 0.09904 0.72538 0.0
C1699 C 0.70225 0.08757 0.7548 0.0
C1700 C 0.68724 0.06262 0.7547 0.0
C1701 C 0.69415 0.10639 0.74052 0.0
H1702 H 0.63948 0.06807 0.71453 0.0
H1703 H 0.69339 0.04843 0.76603 0.0
C1704 C 0.58833 0.9486 0.75855 0.0
N1705 N 0.55676 0.91975 0.78995 0.0
C1706 C 0.59807 0.93344 0.77572 0.0
C1707 C 0.56249 0.9489 0.75723 0.0
C1708 C 0.58181 0.919 0.79144 0.0
C1709 C 0.54687 0.93427 0.77332 0.0
C1710 C 0.67213 0.99632 0.71066 0.0
C1711 C 0.67842 0.99236 0.68534 0.0
C1712 C 0.69119 0.00146 0.7301 0.0
C1713 C 0.70372 0.99392 0.67992 0.0
C1714 C 0.71625 0.00286 0.72393 0.0
N1715 N 0.72196 0.99912 0.69917 0.0
C1716 C 0.60363 0.9909 0.66629 0.0
C1717 C 0.56595 0.97306 0.68499 0.0
C1718 C 0.59041 0.99138 0.64326 0.0
N1719 N 0.59119 0.98247 0.68666 0.0
C1720 C 0.55183 0.97374 0.66243 0.0
C1721 C 0.56401 0.98398 0.64152 0.0
H1722 H 0.62361 0.99871 0.66837 0.0
H1723 H 0.55654 0.96682 0.70163 0.0
C1724 C 0.67241 0.95486 0.77912 0.0
N1725 N 0.66184 0.95304 0.75513 0.0
C1726 C 0.69213 0.94173 0.78406 0.0
C1727 C 0.68827 0.92354 0.73982 0.0
C1728 C 0.66889 0.9374 0.73567 0.0
C1729 C 0.70063 0.92618 0.76416 0.0
H1730 H 0.6661 0.96729 0.79419 0.0
H1731 H 0.66013 0.93656 0.71675 0.0
O1732 O 0.60717 0.02376 0.73645 0.0
O1733 O 0.64432 0.00693 0.77518 0.0
O1734 O 0.60406 0.96327 0.74333 0.0
O1735 O 0.64737 0.9943 0.71634 0.0
H1736 H 0.61924 0.07136 0.76261 0.0
H1737 H 0.56091 0.01842 0.71562 0.0
H1738 H 0.59109 0.1042 0.76688 0.0
H1739 H 0.5339 0.05242 0.72037 0.0
H1740 H 0.70388 0.04508 0.83747 0.0
H1741 H 0.62088 0.04456 0.79494 0.0
H1742 H 0.68818 0.0114 0.80113 0.0
H1743 H 0.63794 0.07793 0.83106 0.0
H1744 H 0.53132 0.01677 0.80735 0.0
H1745 H 0.58701 0.98568 0.8505 0.0
H1746 H 0.66451 0.11299 0.71418 0.0
H1747 H 0.71985 0.09221 0.76627 0.0
H1748 H 0.61797 0.93292 0.77703 0.0
H1749 H 0.55465 0.96082 0.74439 0.0
H1750 H 0.58911 0.90727 0.80487 0.0
H1751 H 0.52689 0.93457 0.77268 0.0
H1752 H 0.66397 0.9879 0.67001 0.0
H1753 H 0.68667 0.00393 0.74981 0.0
H1754 H 0.70884 0.9909 0.66041 0.0
H1755 H 0.73115 0.00679 0.73885 0.0
H1756 H 0.60063 0.99886 0.62743 0.0
H1757 H 0.53151 0.96806 0.66203 0.0
H1758 H 0.70105 0.94443 0.80308 0.0
H1759 H 0.69365 0.91114 0.72407 0.0
Li1760 Li 0.76959 0.6751 0.02209 0.0
Li1761 Li 0.78959 0.6401 0.99754 0.0
Li1762 Li 0.76973 0.67398 0.97475 0.0
Li1763 Li 0.74365 0.63862 0.99456 0.0
C1764 C 0.81886 0.69831 0.01187 0.0
N1765 N 0.85827 0.73529 0.03584 0.0
C1766 C 0.83697 0.69028 0.02745 0.0
C1767 C 0.82102 0.72508 0.00814 0.0
C1768 C 0.85668 0.7093 0.03951 0.0
C1769 C 0.84102 0.74349 0.02052 0.0
C1770 C 0.75643 0.61501 0.03666 0.0
C1771 C 0.74824 0.56766 0.03805 0.0
N1772 N 0.73799 0.57101 0.06097 0.0
C1773 C 0.74578 0.61803 0.06017 0.0
C1774 C 0.75773 0.58967 0.02549 0.0
C1775 C 0.7366 0.59552 0.07219 0.0
C1776 C 0.74941 0.70462 0.06222 0.0
N1777 N 0.77012 0.69471 0.05526 0.0
C1778 C 0.7891 0.70654 0.09754 0.0
C1779 C 0.78971 0.69532 0.07244 0.0
C1780 C 0.76796 0.71695 0.10533 0.0
C1781 C 0.748 0.71601 0.08715 0.0
H1782 H 0.73358 0.70303 0.04863 0.0
H1783 H 0.80542 0.68619 0.06697 0.0
C1784 C 0.8299 0.61708 0.97753 0.0
N1785 N 0.81651 0.6205 0.99846 0.0
C1786 C 0.84984 0.60312 0.97828 0.0
C1787 C 0.84162 0.59623 0.02199 0.0
C1788 C 0.82203 0.61047 0.02045 0.0
C1789 C 0.85606 0.59251 1.00079 0.0
H1790 H 0.82521 0.62539 0.9603 0.0
H1791 H 0.81128 0.61365 0.03692 0.0
C1792 C 0.73314 0.6996 0.99338 0.0
N1793 N 0.7169 0.74599 0.9848 0.0
C1794 C 0.70971 0.69867 0.98075 0.0
C1795 C 0.74827 0.72411 1.00169 0.0
C1796 C 0.70185 0.72234 0.97657 0.0
C1797 C 0.73973 0.74734 0.99718 0.0
C1798 C 0.75421 0.61439 0.94956 0.0
C1799 C 0.73364 0.61794 0.93426 0.0
C1800 C 0.76201 0.58992 0.94762 0.0
C1801 C 0.72105 0.59678 0.91732 0.0
C1802 C 0.74894 0.56926 0.93044 0.0
N1803 N 0.7289 0.57309 0.91578 0.0
C1804 C 0.79579 0.70559 0.93863 0.0
C1805 C 0.75148 0.69537 0.93125 0.0
C1806 C 0.79821 0.71895 0.91666 0.0
N1807 N 0.77267 0.6941 0.9455 0.0
C1808 C 0.75299 0.70872 0.90934 0.0
C1809 C 0.77661 0.7206 0.90149 0.0
H1810 H 0.81245 0.70398 0.94999 0.0
H1811 H 0.73332 0.68572 0.93671 0.0
C1812 C 0.69201 0.62812 1.00162 0.0
N1813 N 0.71092 0.61583 0.99352 0.0
C1814 C 0.66751 0.61387 0.00224 0.0
C1815 C 0.68224 0.57416 0.98677 0.0
C1816 C 0.70652 0.58927 0.98631 0.0
C1817 C 0.66224 0.58644 0.99483 0.0
H1818 H 0.69598 0.6491 0.00778 0.0
H1819 H 0.72183 0.57966 0.98047 0.0
O1820 O 0.79951 0.67995 0.99979 0.0
O1821 O 0.76616 0.63682 0.02496 0.0
O1822 O 0.74129 0.6766 0.99731 0.0
O1823 O 0.76688 0.63487 0.96613 0.0
H1824 H 0.83568 0.66961 0.03039 0.0
H1825 H 0.80749 0.73158 0.99569 0.0
H1826 H 0.87073 0.70339 0.05178 0.0
H1827 H 0.84288 0.76429 0.01787 0.0
H1828 H 0.74907 0.54791 0.02961 0.0
H1829 H 0.74483 0.63757 0.06911 0.0
H1830 H 0.76598 0.58706 0.00729 0.0
H1831 H 0.72841 0.59753 0.09047 0.0
H1832 H 0.8047 0.70614 0.11094 0.0
H1833 H 0.73134 0.72381 0.09213 0.0
H1834 H 0.86058 0.6012 0.96155 0.0
H1835 H 0.84532 0.58817 0.03965 0.0
H1836 H 0.69785 0.67985 0.97398 0.0
H1837 H 0.76633 0.72515 0.01165 0.0
H1838 H 0.68381 0.72192 0.96673 0.0
H1839 H 0.75125 0.76645 0.00353 0.0
H1840 H 0.72736 0.63675 0.9356 0.0
H1841 H 0.77794 0.58689 0.95931 0.0
H1842 H 0.70504 0.59919 0.90542 0.0
H1843 H 0.75471 0.55018 0.92876 0.0
H1844 H 0.81689 0.72733 0.91134 0.0
H1845 H 0.73569 0.70971 0.89873 0.0
H1846 H 0.65281 0.62443 0.00825 0.0
H1847 H 0.67929 0.55302 0.98125 0.0
Li1848 Li 0.89036 0.51625 0.78284 0.0
Li1849 Li 0.92407 0.55105 0.80708 0.0
Li1850 Li 0.88794 0.56208 0.7803 0.0
Li1851 Li 0.92143 0.5452 0.7615 0.0
C1852 C 0.87229 0.53121 0.82927 0.0
N1853 N 0.84308 0.50678 0.86517 0.0
C1854 C 0.88329 0.5277 0.85282 0.0
C1855 C 0.84641 0.52237 0.82405 0.0
C1856 C 0.8682 0.51529 0.8707 0.0
C1857 C 0.83198 0.51004 0.84242 0.0
C1858 C 0.94331 0.5057 0.77208 0.0
C1859 C 0.98526 0.50217 0.76003 0.0
N1860 N 0.97552 0.48029 0.74384 0.0
C1861 C 0.93373 0.48311 0.7554 0.0
C1862 C 0.9693 0.51529 0.77449 0.0
C1863 C 0.95031 0.47056 0.74127 0.0
C1864 C 0.86025 0.46978 0.75959 0.0
N1865 N 0.87112 0.48166 0.78238 0.0
C1866 C 0.85278 0.44444 0.80335 0.0
C1867 C 0.86829 0.46925 0.80393 0.0
C1868 C 0.84088 0.43177 0.78011 0.0
C1869 C 0.84513 0.44469 0.75797 0.0
H1870 H 0.8635 0.47973 0.74258 0.0
H1871 H 0.87786 0.47868 0.82166 0.0
C1872 C 0.94703 0.57956 0.85391 0.0
N1873 N 0.94577 0.55796 0.83669 0.0
C1874 C 0.96268 0.58244 0.87614 0.0
C1875 C 0.9758 0.54133 0.86181 0.0
C1876 C 0.95962 0.53898 0.8403 0.0
C1877 C 0.97729 0.5631 0.88012 0.0
H1878 H 0.93553 0.59418 0.8506 0.0
H1879 H 0.95764 0.52162 0.82676 0.0
C1880 C 0.86529 0.53666 0.73706 0.0
N1881 N 0.82442 0.54353 0.70698 0.0
C1882 C 0.86902 0.54902 0.7147 0.0
C1883 C 0.84077 0.52766 0.74401 0.0
C1884 C 0.84811 0.55233 0.69977 0.0
C1885 C 0.82036 0.53137 0.72859 0.0
C1886 C 0.94163 0.59736 0.77368 0.0
C1887 C 0.93675 0.60529 0.74968 0.0
C1888 C 0.96434 0.60835 0.78743 0.0
C1889 C 0.95479 0.62399 0.73972 0.0
C1890 C 0.98189 0.62702 0.77682 0.0
N1891 N 0.97679 0.63438 0.75339 0.0
C1892 C 0.84626 0.58445 0.79496 0.0
C1893 C 0.86418 0.59917 0.75743 0.0
C1894 C 0.82696 0.59873 0.79202 0.0
N1895 N 0.86417 0.58467 0.77761 0.0
C1896 C 0.84532 0.61384 0.75378 0.0
C1897 C 0.82631 0.61365 0.77117 0.0
H1898 H 0.84685 0.57309 0.81102 0.0
H1899 H 0.87858 0.59906 0.74391 0.0
C1900 C 0.93058 0.52861 0.71217 0.0
N1901 N 0.94161 0.5446 0.73298 0.0
C1902 C 0.94396 0.52546 0.69052 0.0
C1903 C 0.98001 0.55514 0.71213 0.0
C1904 C 0.96601 0.55738 0.73356 0.0
C1905 C 0.96891 0.53894 0.69037 0.0
H1906 H 0.91146 0.51793 0.71256 0.0
H1907 H 0.97481 0.56887 0.75076 0.0
O1908 O 0.88677 0.54359 0.81166 0.0
O1909 O 0.92728 0.51864 0.78559 0.0
O1910 O 0.88553 0.53339 0.75203 0.0
O1911 O 0.92419 0.57927 0.78394 0.0
H1912 H 0.90325 0.53442 0.85728 0.0
H1913 H 0.83755 0.52486 0.80595 0.0
H1914 H 0.87648 0.51243 0.88898 0.0
H1915 H 0.81195 0.50303 0.83857 0.0
H1916 H 0.00538 0.5095 0.76156 0.0
H1917 H 0.91368 0.4755 0.75318 0.0
H1918 H 0.97703 0.53299 0.78701 0.0
H1919 H 0.94314 0.45315 0.72819 0.0
H1920 H 0.85005 0.4355 0.821 0.0
H1921 H 0.83718 0.43546 0.73946 0.0
H1922 H 0.96323 0.59933 0.89012 0.0
H1923 H 0.98629 0.52569 0.8646 0.0
H1924 H 0.88785 0.5563 0.7091 0.0
H1925 H 0.83754 0.51797 0.76117 0.0
H1926 H 0.85071 0.56197 0.68249 0.0
H1927 H 0.8013 0.52458 0.73382 0.0
H1928 H 0.91956 0.59658 0.73854 0.0
H1929 H 0.9684 0.60246 0.80605 0.0
H1930 H 0.95136 0.63011 0.72107 0.0
H1931 H 0.99957 0.63565 0.78721 0.0
H1932 H 0.8127 0.59804 0.8059 0.0
H1933 H 0.84594 0.62557 0.73779 0.0
H1934 H 0.93482 0.51282 0.67398 0.0
H1935 H 0.99938 0.56548 0.7127 0.0
Li1936 Li 0.74837 0.37939 0.52143 0.0
Li1937 Li 0.72955 0.41437 0.50366 0.0
Li1938 Li 0.74572 0.37989 0.47575 0.0
Li1939 Li 0.77355 0.41384 0.50195 0.0
C1940 C 0.6953 0.36891 0.51139 0.0
N1941 N 0.65191 0.35696 0.53729 0.0
C1942 C 0.6939 0.38106 0.53598 0.0
C1943 C 0.67463 0.35068 0.5 0.0
C1944 C 0.6718 0.37476 0.54874 0.0
C1945 C 0.65286 0.34489 0.51341 0.0
C1946 C 0.76801 0.44073 0.54506 0.0
C1947 C 0.78212 0.4881 0.54755 0.0
N1948 N 0.79654 0.48712 0.56901 0.0
C1949 C 0.78288 0.44021 0.5672 0.0
C1950 C 0.76755 0.46488 0.53518 0.0
C1951 C 0.7972 0.46387 0.579 0.0
C1952 C 0.77008 0.36231 0.56335 0.0
N1953 N 0.74867 0.35723 0.54796 0.0
C1954 C 0.73067 0.32217 0.57185 0.0
C1955 C 0.72938 0.33715 0.55134 0.0
C1956 C 0.75218 0.32769 0.58866 0.0
C1957 C 0.77223 0.34777 0.58399 0.0
H1958 H 0.78543 0.37779 0.55959 0.0
H1959 H 0.713 0.33269 0.53821 0.0
C1960 C 0.69067 0.44014 0.48742 0.0
N1961 N 0.70538 0.4365 0.50773 0.0
C1962 C 0.6739 0.45774 0.4902 0.0
C1963 C 0.68789 0.46744 0.53471 0.0
C1964 C 0.70406 0.44941 0.53114 0.0
C1965 C 0.6725 0.47188 0.51409 0.0
H1966 H 0.69212 0.42949 0.46904 0.0
H1967 H 0.71584 0.44598 0.54703 0.0
C1968 C 0.77815 0.35007 0.49486 0.0
N1969 N 0.78461 0.29795 0.48917 0.0
C1970 C 0.80237 0.34416 0.49465 0.0
C1971 C 0.75718 0.32945 0.49218 0.0
C1972 C 0.80525 0.31769 0.49175 0.0
C1973 C 0.76085 0.30324 0.48933 0.0
C1974 C 0.7607 0.43476 0.457 0.0
C1975 C 0.77979 0.42764 0.44228 0.0
C1976 C 0.75281 0.45878 0.45438 0.0
C1977 C 0.79075 0.44475 0.42515 0.0
C1978 C 0.76421 0.47532 0.43702 0.0
N1979 N 0.78279 0.46803 0.42288 0.0
C1980 C 0.71896 0.3485 0.43275 0.0
C1981 C 0.7635 0.35415 0.43305 0.0
C1982 C 0.71664 0.33296 0.40934 0.0
N1983 N 0.74215 0.35882 0.44396 0.0
C1984 C 0.76208 0.33885 0.40966 0.0
C1985 C 0.73843 0.32812 0.39738 0.0
H1986 H 0.70231 0.35238 0.442 0.0
H1987 H 0.78171 0.36241 0.44251 0.0
C1988 C 0.82409 0.42439 0.51644 0.0
N1989 N 0.80625 0.43511 0.50448 0.0
C1990 C 0.84903 0.43768 0.51913 0.0
C1991 C 0.83673 0.47306 0.49747 0.0
C1992 C 0.81193 0.45926 0.49556 0.0
C1993 C 0.85558 0.46211 0.5092 0.0
H1994 H 0.81889 0.40538 0.52377 0.0
H1995 H 0.79732 0.46793 0.48705 0.0
O1996 O 0.71673 0.37463 0.49843 0.0
O1997 O 0.75413 0.41774 0.53294 0.0
O1998 O 0.77519 0.37597 0.49769 0.0
O1999 O 0.7497 0.41838 0.47391 0.0
H2000 H 0.70977 0.39499 0.54524 0.0
H2001 H 0.67543 0.34105 0.48102 0.0
H2002 H 0.67048 0.38396 0.56779 0.0
H2003 H 0.63673 0.3308 0.50484 0.0
H2004 H 0.78206 0.50687 0.54001 0.0
H2005 H 0.78334 0.4218 0.57526 0.0
H2006 H 0.75639 0.46561 0.51788 0.0
H2007 H 0.80884 0.46375 0.59613 0.0
H2008 H 0.71502 0.30648 0.57454 0.0
H2009 H 0.78912 0.3527 0.59654 0.0
H2010 H 0.66201 0.45998 0.47387 0.0
H2011 H 0.68772 0.47799 0.5534 0.0
H2012 H 0.81879 0.3599 0.49667 0.0
H2013 H 0.73828 0.33357 0.49225 0.0
H2014 H 0.8239 0.31284 0.49153 0.0
H2015 H 0.74481 0.2871 0.48724 0.0
H2016 H 0.78639 0.40937 0.44439 0.0
H2017 H 0.73812 0.46462 0.46574 0.0
H2018 H 0.80565 0.43957 0.41372 0.0
H2019 H 0.75833 0.49399 0.43481 0.0
H2020 H 0.698 0.32476 0.40075 0.0
H2021 H 0.77937 0.33595 0.40106 0.0
H2022 H 0.86315 0.42863 0.52824 0.0
H2023 H 0.84114 0.49209 0.48994 0.0
Li2024 Li 0.63103 0.50997 0.30824 0.0
Li2025 Li 0.66479 0.53724 0.28879 0.0
Li2026 Li 0.6316 0.51173 0.26135 0.0
Li2027 Li 0.66393 0.48956 0.28326 0.0
C2028 C 0.60472 0.54491 0.28937 0.0
N2029 N 0.55595 0.55394 0.29175 0.0
C2030 C 0.60027 0.56985 0.29863 0.0
C2031 C 0.58434 0.52457 0.28135 0.0
C2032 C 0.57549 0.57402 0.29969 0.0
C2033 C 0.55984 0.52953 0.28267 0.0
C2034 C 0.68715 0.5277 0.33176 0.0
C2035 C 0.73032 0.53625 0.34853 0.0
N2036 N 0.72576 0.55754 0.36362 0.0
C2037 C 0.68281 0.54954 0.34754 0.0
C2038 C 0.71103 0.52088 0.33229 0.0
C2039 C 0.70262 0.56444 0.36346 0.0
C2040 C 0.59962 0.48317 0.34419 0.0
N2041 N 0.61045 0.5071 0.33706 0.0
C2042 C 0.59216 0.52959 0.37113 0.0
C2043 C 0.60715 0.53006 0.35019 0.0
C2044 C 0.58075 0.50523 0.3792 0.0
C2045 C 0.5847 0.48176 0.36532 0.0
H2046 H 0.6027 0.46516 0.33356 0.0
H2047 H 0.61612 0.54885 0.34433 0.0
C2048 C 0.67316 0.59146 0.28477 0.0
N2049 N 0.68581 0.57215 0.29078 0.0
C2050 C 0.68588 0.6174 0.28385 0.0
C2051 C 0.72479 0.60341 0.29505 0.0
C2052 C 0.71122 0.57765 0.29591 0.0
C2053 C 0.71213 0.62373 0.28875 0.0
H2054 H 0.65312 0.58666 0.28016 0.0
H2055 H 0.72111 0.562 0.30007 0.0
C2056 C 0.61121 0.45746 0.26767 0.0
N2057 N 0.58208 0.4128 0.24118 0.0
C2058 C 0.62154 0.44271 0.24866 0.0
C2059 C 0.58612 0.44933 0.27339 0.0
C2060 C 0.60649 0.42023 0.23543 0.0
C2061 C 0.57169 0.42675 0.25972 0.0
C2062 C 0.68886 0.52691 0.24656 0.0
C2063 C 0.68645 0.54272 0.22687 0.0
C2064 C 0.71277 0.52364 0.2552 0.0
C2065 C 0.70813 0.55505 0.21609 0.0
C2066 C 0.73398 0.53636 0.24397 0.0
N2067 N 0.73124 0.55165 0.22479 0.0
C2068 C 0.61164 0.53994 0.22577 0.0
C2069 C 0.60524 0.49415 0.21159 0.0
C2070 C 0.60094 0.54538 0.20282 0.0
N2071 N 0.61354 0.51467 0.22983 0.0
C2072 C 0.59466 0.49876 0.18816 0.0
C2073 C 0.59255 0.52471 0.18351 0.0
H2074 H 0.61911 0.55608 0.24015 0.0
H2075 H 0.60735 0.47432 0.21484 0.0
C2076 C 0.68565 0.4474 0.3009 0.0
N2077 N 0.68264 0.46104 0.28051 0.0
C2078 C 0.69864 0.42616 0.29888 0.0
C2079 C 0.70547 0.43362 0.25505 0.0
C2080 C 0.69242 0.45468 0.25792 0.0
C2081 C 0.70856 0.41879 0.27561 0.0
H2082 H 0.6777 0.45283 0.31868 0.0
H2083 H 0.68979 0.4658 0.24197 0.0
O2084 O 0.62894 0.54047 0.2886 0.0
O2085 O 0.66805 0.51289 0.31603 0.0
O2086 O 0.62571 0.47936 0.28107 0.0
O2087 O 0.66787 0.51423 0.25699 0.0
H2088 H 0.61579 0.58577 0.30518 0.0
H2089 H 0.58738 0.50523 0.27406 0.0
H2090 H 0.57178 0.5932 0.30689 0.0
H2091 H 0.54391 0.51396 0.27647 0.0
H2092 H 0.74893 0.53128 0.3491 0.0
H2093 H 0.66441 0.55504 0.3473 0.0
H2094 H 0.71463 0.50397 0.32021 0.0
H2095 H 0.6996 0.5815 0.37567 0.0
H2096 H 0.58941 0.54827 0.38069 0.0
H2097 H 0.57668 0.46249 0.37089 0.0
H2098 H 0.67516 0.63232 0.27924 0.0
H2099 H 0.74506 0.60716 0.29858 0.0
H2100 H 0.64082 0.4488 0.24385 0.0
H2101 H 0.57788 0.46031 0.28826 0.0
H2102 H 0.6142 0.40875 0.22054 0.0
H2103 H 0.55223 0.42029 0.26389 0.0
H2104 H 0.66804 0.54532 0.21991 0.0
H2105 H 0.71493 0.51159 0.27054 0.0
H2106 H 0.70657 0.56729 0.20076 0.0
H2107 H 0.75262 0.53409 0.25052 0.0
H2108 H 0.60006 0.56571 0.19989 0.0
H2109 H 0.58835 0.48222 0.17377 0.0
H2110 H 0.70025 0.41518 0.31518 0.0
H2111 H 0.71302 0.42897 0.23684 0.0
Dy2112 Dy 0.98619 0.01551 0.00316 0.0
C2113 C 0.09309 0.03169 0.02036 0.0
C2114 C 0.93622 0.017 0.00531 0.0
Dy2115 Dy 0.04286 0.03269 0.01849 0.0
O2116 O 0.94748 0.01282 0.98438 0.0
O2117 O 0.95209 0.01924 0.02478 0.0
O2118 O 0.99496 0.99197 0.96746 0.0
O2119 O 0.01998 0.0264 0.983 0.0
C2120 C 0.017 0.00698 0.96607 0.0
C2121 C 0.01157 0.04106 0.05516 0.0
O2122 O 0.03758 0.0702 0.00318 0.0
O2123 O 0.99375 0.05991 1.0013 0.0
O2124 O 0.07965 0.03339 0.04011 0.0
O2125 O 0.07925 0.03183 0.99977 0.0
O2126 O 0.03324 0.05664 0.05363 0.0
O2127 O 0.00915 0.02153 0.03848 0.0
O2128 O 0.99195 0.9781 0.01848 0.0
O2129 O 0.03567 0.98812 0.01873 0.0
C2130 C 0.0152 0.07676 0.99937 0.0
C2131 C 0.01437 0.97141 0.02149 0.0
Dy2132 Dy 0.26634 0.77267 0.23513 0.0
C2133 C 0.26852 0.76725 0.34306 0.0
C2134 C 0.25675 0.78221 0.18645 0.0
Dy2135 Dy 0.26199 0.77551 0.29335 0.0
O2136 O 0.27415 0.76949 0.19347 0.0
O2137 O 0.24492 0.7896 0.20591 0.0
O2138 O 0.30037 0.75333 0.23777 0.0
O2139 O 0.29282 0.77981 0.26799 0.0
C2140 C 0.30663 0.76347 0.26118 0.0
C2141 C 0.22219 0.78503 0.2665 0.0
O2142 O 0.28024 0.81748 0.29162 0.0
O2143 O 0.27713 0.81641 0.24738 0.0
O2144 O 0.28623 0.77042 0.3272 0.0
O2145 O 0.2471 0.76897 0.33189 0.0
O2146 O 0.2289 0.79627 0.28949 0.0
O2147 O 0.23563 0.76813 0.26038 0.0
O2148 O 0.2465 0.73145 0.23762 0.0
O2149 O 0.25525 0.7317 0.28109 0.0
C2150 C 0.28264 0.82939 0.27045 0.0
C2151 C 0.2472 0.71903 0.25839 0.0
Dy2152 Dy 0.54441 0.02547 0.51618 0.0
C2153 C 0.43957 0.04124 0.51059 0.0
C2154 C 0.59008 0.01079 0.52486 0.0
Dy2155 Dy 0.4855 0.02598 0.51571 0.0
O2156 O 0.58365 0.02185 0.50509 0.0
O2157 O 0.57183 0.00857 0.54028 0.0
O2158 O 0.54708 0.04728 0.48089 0.0
O2159 O 0.51363 0.02207 0.48824 0.0
C2160 C 0.52339 0.03865 0.47392 0.0
C2161 C 0.50683 0.0119 0.55727 0.0
O2162 O 0.48354 0.98472 0.49726 0.0
O2163 O 0.52556 0.98242 0.50782 0.0
O2164 O 0.45222 0.04101 0.53197 0.0
O2165 O 0.45161 0.03219 0.49188 0.0
O2166 O 0.48347 0.00225 0.54963 0.0
O2167 O 0.5163 0.02938 0.54368 0.0
O2168 O 0.54557 0.06639 0.53492 0.0
O2169 O 0.50507 0.06887 0.51959 0.0
C2170 C 0.50228 0.97127 0.49887 0.0
C2171 C 0.52748 0.0801 0.53073 0.0
Dy2172 Dy 0.23295 0.27186 0.76112 0.0
C2173 C 0.34261 0.28353 0.75118 0.0
C2174 C 0.18216 0.25973 0.76631 0.0
Dy2175 Dy 0.2929 0.2748 0.76138 0.0
O2176 O 0.19306 0.2777 0.75257 0.0
O2177 O 0.19892 0.248 0.7762 0.0
O2178 O 0.23977 0.31628 0.76735 0.0
O2179 O 0.2656 0.29752 0.74756 0.0
C2180 C 0.26137 0.31957 0.75699 0.0
C2181 C 0.26883 0.22785 0.77532 0.0
O2182 O 0.28895 0.29439 0.80073 0.0
O2183 O 0.24541 0.28027 0.80256 0.0
O2184 O 0.32704 0.26111 0.74688 0.0
O2185 O 0.33111 0.30174 0.76148 0.0
O2186 O 0.29309 0.234 0.77427 0.0
O2187 O 0.25982 0.24739 0.76931 0.0
O2188 O 0.23659 0.25242 0.72165 0.0
O2189 O 0.28014 0.2663 0.71986 0.0
C2190 C 0.2679 0.2916 0.81339 0.0
C2191 C 0.25759 0.25527 0.70898 0.0
Dy2192 Dy 0.00429 0.0136 0.4815 0.0
C2193 C 0.0481 0.04453 0.58618 0.0
C2194 C 0.97346 0.00636 0.43833 0.0
Dy2195 Dy 0.02302 0.03695 0.53926 0.0
O2196 O 0.99272 0.99471 0.44146 0.0
O2197 O 0.97038 0.02049 0.45929 0.0
O2198 O 0.04293 0.02076 0.46497 0.0
O2199 O 0.0383 0.03255 0.50255 0.0
C2200 C 0.05446 0.03269 0.48614 0.0
C2201 C 0.97282 0.02346 0.52829 0.0
O2202 O 0.0272 0.07481 0.52115 0.0
O2203 O 1.00076 0.05671 0.48535 0.0
O2204 O 0.02447 0.04561 0.58198 0.0
O2205 O 0.05826 0.04039 0.56462 0.0
O2206 O 0.98303 0.04244 0.54565 0.0
O2207 O 0.98976 0.01214 0.5193 0.0
O2208 O 0.00455 0.97515 0.49837 0.0
O2209 O 0.02572 0.99368 0.53734 0.0
C2210 C 0.01384 0.07734 0.50016 0.0
C2211 C 0.01596 0.97289 0.52072 0.0
Dy2212 Dy 0.29442 0.78973 0.77212 0.0
C2213 C 0.19265 0.75051 0.72388 0.0
C2214 C 0.33637 0.80065 0.80422 0.0
Dy2215 Dy 0.23801 0.76025 0.75091 0.0
O2216 O 0.33295 0.81324 0.78444 0.0
O2217 O 0.31625 0.7833 0.80714 0.0
O2218 O 0.31217 0.78827 0.73385 0.0
O2219 O 0.2746 0.773 0.73717 0.0
C2220 C 0.29154 0.77548 0.7216 0.0
C2221 C 0.24763 0.76879 0.80162 0.0
O2222 O 0.25804 0.72603 0.74609 0.0
O2223 O 0.29289 0.74566 0.7735 0.0
O2224 O 0.19596 0.7463 0.74755 0.0
O2225 O 0.21426 0.75893 0.71474 0.0
O2226 O 0.23055 0.74929 0.79086 0.0
O2227 O 0.2565 0.78299 0.78497 0.0
O2228 O 0.27554 0.82543 0.77231 0.0
O2229 O 0.23761 0.80385 0.75046 0.0
C2230 C 0.27918 0.72482 0.75933 0.0
C2231 C 0.25298 0.82571 0.7611 0.0
Dy2232 Dy 0.51135 0.02534 0.03679 0.0
C2233 C 0.51437 0.01373 0.92841 0.0
C2234 C 0.50478 0.03294 0.08741 0.0
Dy2235 Dy 0.50822 0.0246 0.97879 0.0
O2236 O 0.51188 0.05183 0.07321 0.0
O2237 O 0.50156 0.01004 0.07403 0.0
O2238 O 0.53313 0.99209 0.03351 0.0
O2239 O 0.50544 0.99444 0.00508 0.0
C2240 C 0.52251 0.98215 0.01134 0.0
C2241 C 0.49729 0.0679 0.0044 0.0
O2242 O 0.46952 0.00355 0.98387 0.0
O2243 O 0.46961 0.01874 0.02665 0.0
O2244 O 0.5095 0.03596 0.93878 0.0
O2245 O 0.51574 0.99752 0.94551 0.0
O2246 O 0.48671 0.0582 0.98212 0.0
O2247 O 0.51421 0.0554 0.01049 0.0
O2248 O 0.55097 0.04431 0.03243 0.0
O2249 O 0.55004 0.03461 0.98843 0.0
C2250 C 0.45765 0.00711 0.00497 0.0
C2251 C 0.56239 0.04331 0.01073 0.0
Dy2252 Dy 0.26946 0.30668 0.26593 0.0
C2253 C 0.26389 0.19192 0.26026 0.0
C2254 C 0.26468 0.35555 0.25452 0.0
Dy2255 Dy 0.26066 0.24294 0.25487 0.0
O2256 O 0.27834 0.35129 0.27416 0.0
O2257 O 0.2544 0.33337 0.24158 0.0
O2258 O 0.26764 0.30379 0.30794 0.0
O2259 O 0.27952 0.27354 0.2845 0.0
C2260 C 0.27326 0.28015 0.30677 0.0
C2261 C 0.24958 0.26728 0.2136 0.0
O2262 O 0.22476 0.24795 0.27271 0.0
O2263 O 0.22826 0.2938 0.27195 0.0
O2264 O 0.2662 0.20282 0.23909 0.0
O2265 O 0.25886 0.20874 0.27834 0.0
O2266 O 0.24653 0.24157 0.21296 0.0
O2267 O 0.25612 0.2763 0.23618 0.0
O2268 O 0.30618 0.30193 0.24935 0.0
O2269 O 0.30178 0.25572 0.24854 0.0
C2270 C 0.2156 0.27017 0.27632 0.0
C2271 C 0.31482 0.27943 0.24477 0.0
Dy2272 Dy 0.50779 0.51845 0.98389 0.0
C2273 C 0.55169 0.54335 0.08528 0.0
C2274 C 0.48035 0.51277 0.93838 0.0
Dy2275 Dy 0.52493 0.53815 0.03941 0.0
O2276 O 0.50155 0.50462 0.9418 0.0
O2277 O 0.47381 0.52287 0.95997 0.0
O2278 O 0.54734 0.51459 0.97454 0.0
O2279 O 0.54155 0.54352 0.003 0.0
C2280 C 0.55805 0.53245 0.99261 0.0
C2281 C 0.47459 0.52309 0.03034 0.0
O2282 O 0.52834 0.57776 0.02427 0.0
O2283 O 0.50292 0.56128 0.98781 0.0
O2284 O 0.53079 0.55198 0.08153 0.0
O2285 O 0.55833 0.53305 0.06383 0.0
O2286 O 0.48489 0.5415 0.0481 0.0
O2287 O 0.49157 0.51261 0.02032 0.0
O2288 O 0.50541 0.4787 0.99889 0.0
O2289 O 0.53044 0.49576 0.03542 0.0
C2290 C 0.51486 0.58148 0.0038 0.0
C2291 C 0.51888 0.47531 0.01953 0.0
Dy2292 Dy 0.78662 0.28181 0.27799 0.0
C2293 C 0.69332 0.24502 0.21455 0.0
C2294 C 0.82864 0.29651 0.31029 0.0
Dy2295 Dy 0.73547 0.26026 0.24655 0.0
O2296 O 0.82515 0.30621 0.28885 0.0
O2297 O 0.80842 0.28012 0.31479 0.0
O2298 O 0.80775 0.26938 0.24478 0.0
O2299 O 0.77277 0.28014 0.23821 0.0
C2300 C 0.79014 0.27049 0.22781 0.0
C2301 C 0.73215 0.27184 0.29676 0.0
O2302 O 0.75374 0.2242 0.24354 0.0
O2303 O 0.78307 0.23781 0.27793 0.0
O2304 O 0.69629 0.23706 0.23691 0.0
O2305 O 0.71405 0.26002 0.20909 0.0
O2306 O 0.71461 0.27323 0.27981 0.0
O2307 O 0.74934 0.26196 0.28628 0.0
O2308 O 0.76834 0.31797 0.28067 0.0
O2309 O 0.73911 0.30415 0.24625 0.0
C2310 C 0.77133 0.21952 0.25993 0.0
C2311 C 0.75079 0.3226 0.26415 0.0
Dy2312 Dy 0.0159 0.52234 0.5422 0.0
C2313 C 0.01751 0.51388 0.43363 0.0
C2314 C 0.0104 0.52828 0.59311 0.0
Dy2315 Dy 0.01188 0.52352 0.48429 0.0
O2316 O 0.00854 0.50573 0.57938 0.0
O2317 O 0.01548 0.54771 0.57907 0.0
O2318 O 0.03763 0.48919 0.53736 0.0
O2319 O 0.00962 0.49253 0.50961 0.0
C2320 C 0.02678 0.48003 0.5151 0.0
C2321 C 1.0011 0.56603 0.51131 0.0
O2322 O 0.97241 0.50458 0.48918 0.0
O2323 O 0.97403 0.51503 0.53311 0.0
O2324 O 0.0146 0.49606 0.44952 0.0
O2325 O 0.0171 0.53709 0.44534 0.0
O2326 O 0.99058 0.55709 0.48882 0.0
O2327 O 0.01814 0.55338 0.51687 0.0
O2328 O 0.05528 0.54177 0.53756 0.0
O2329 O 0.05374 0.53216 0.49354 0.0
C2330 C 0.96135 0.50614 0.51103 0.0
C2331 C 0.06638 0.54077 0.5157 0.0
Dy2332 Dy 0.73866 0.77278 0.26237 0.0
C2333 C 0.84587 0.78337 0.25794 0.0
C2334 C 0.68872 0.76242 0.27226 0.0
Dy2335 Dy 0.79562 0.7747 0.26703 0.0
O2336 O 0.69915 0.78118 0.2592 0.0
O2337 O 0.70542 0.74886 0.27915 0.0
O2338 O 0.74415 0.80787 0.23983 0.0
O2339 O 0.77174 0.80451 0.26799 0.0
C2340 C 0.76653 0.81771 0.25017 0.0
C2341 C 0.76713 0.72959 0.27849 0.0
O2342 O 0.7921 0.79337 0.30652 0.0
O2343 O 0.74829 0.78355 0.30457 0.0
O2344 O 0.83317 0.76165 0.26498 0.0
O2345 O 0.83127 0.80068 0.25661 0.0
O2346 O 0.78913 0.73952 0.2897 0.0
O2347 O 0.76253 0.74312 0.26079 0.0
O2348 O 0.74268 0.75277 0.22359 0.0
O2349 O 0.78604 0.76688 0.22459 0.0
C2350 C 0.77029 0.79233 0.31751 0.0
C2351 C 0.76423 0.75619 0.21202 0.0
Dy2352 Dy 0.76537 0.27161 0.73249 0.0
C2353 C 0.76797 0.25844 0.8389 0.0
C2354 C 0.75939 0.28289 0.68362 0.0
Dy2355 Dy 0.76044 0.27043 0.79057 0.0
O2356 O 0.77938 0.27591 0.69328 0.0
O2357 O 0.74276 0.28355 0.70058 0.0
O2358 O 0.79839 0.25042 0.73482 0.0
O2359 O 0.79126 0.2763 0.76561 0.0
C2360 C 0.80469 0.25981 0.75841 0.0
C2361 C 0.7211 0.28246 0.76498 0.0
O2362 O 0.78261 0.31116 0.79047 0.0
O2363 O 0.77421 0.31497 0.74758 0.0
O2364 O 0.75083 0.27139 0.83173 0.0
O2365 O 0.78072 0.25209 0.81976 0.0
O2366 O 0.72741 0.29148 0.78866 0.0
O2367 O 0.73441 0.26589 0.75752 0.0
O2368 O 0.74563 0.22972 0.7319 0.0
O2369 O 0.75022 0.2273 0.77561 0.0
C2370 C 0.78274 0.3255 0.77093 0.0
C2371 C 0.74393 0.21605 0.75199 0.0
Dy2372 Dy 0.77394 0.8046 0.77173 0.0
C2373 C 0.76881 0.69463 0.7611 0.0
C2374 C 0.76969 0.85649 0.77436 0.0
Dy2375 Dy 0.76321 0.74521 0.75629 0.0
O2376 O 0.77122 0.84318 0.79385 0.0
O2377 O 0.77157 0.84164 0.75358 0.0
O2378 O 0.79492 0.79839 0.80774 0.0
O2379 O 0.76398 0.76994 0.79201 0.0
C2380 C 0.78131 0.77509 0.80947 0.0
C2381 C 0.75536 0.77436 0.71831 0.0
O2382 O 0.72542 0.74822 0.77033 0.0
O2383 O 0.73137 0.79391 0.77057 0.0
O2384 O 0.76103 0.70267 0.74003 0.0
O2385 O 0.77295 0.71402 0.77905 0.0
O2386 O 0.74263 0.75049 0.71965 0.0
O2387 O 0.77261 0.77988 0.73586 0.0
O2388 O 0.81198 0.80225 0.75789 0.0
O2389 O 0.80535 0.75622 0.75328 0.0
C2390 C 0.71675 0.7707 0.77293 0.0
C2391 C 0.82019 0.77972 0.7528 0.0
Dy2392 Dy 0.48614 0.51462 0.50228 0.0
C2393 C 0.59272 0.53118 0.52243 0.0
C2394 C 0.43582 0.51472 0.50227 0.0
Dy2395 Dy 0.54242 0.532 0.51869 0.0
O2396 O 0.44818 0.51164 0.48191 0.0
O2397 O 0.45085 0.51672 0.5224 0.0
O2398 O 0.49549 0.49129 0.46682 0.0
O2399 O 0.5203 0.52576 0.4827 0.0
C2400 C 0.51754 0.50634 0.46577 0.0
C2401 C 0.51047 0.53983 0.55488 0.0
O2402 O 0.53719 0.56971 0.50375 0.0
O2403 O 0.49338 0.55907 0.50122 0.0
O2404 O 0.57816 0.53076 0.54143 0.0
O2405 O 0.57996 0.53345 0.5017 0.0
O2406 O 0.53212 0.55554 0.55368 0.0
O2407 O 0.50834 0.52039 0.53811 0.0
O2408 O 0.49181 0.47714 0.51729 0.0
O2409 O 0.53546 0.48736 0.51731 0.0
C2410 C 0.51478 0.57612 0.49974 0.0
C2411 C 0.51425 0.47049 0.51995 0.0
Dy2412 Dy 0.04769 0.52556 0.01095 0.0
C2413 C 0.94308 0.54136 0.0078 0.0
C2414 C 0.09328 0.51024 0.01824 0.0
Dy2415 Dy 0.98925 0.52653 0.01068 0.0
O2416 O 0.08368 0.51509 0.99663 0.0
O2417 O 0.07833 0.51472 0.03622 0.0
O2418 O 0.0525 0.55086 0.97846 0.0
O2419 O 0.0176 0.52605 0.98269 0.0
C2420 C 0.02875 0.5445 0.9709 0.0
C2421 C 0.01007 0.50986 0.05137 0.0
O2422 O 0.98725 0.48645 0.9899 0.0
O2423 O 0.02834 0.4828 0.00231 0.0
O2424 O 0.95829 0.54475 0.02795 0.0
O2425 O 0.95273 0.52899 0.98912 0.0
O2426 O 0.98673 0.50086 0.04337 0.0
O2427 O 0.01964 0.52802 0.03867 0.0
O2428 O 0.04911 0.56613 0.03088 0.0
O2429 O 0.00868 0.56934 0.01583 0.0
C2430 C 0.00545 0.47247 0.99189 0.0
C2431 C 0.03104 0.58008 0.02729 0.0
C2432 C 0.9881 0.13289 0.97452 0.0
C2433 C 0.00909 0.14729 0.96394 0.0
H2434 H 0.97358 0.09952 0.99422 0.0
C2435 C 0.03265 0.13974 0.9673 0.0
H2436 H 0.96966 0.13808 0.97215 0.0
C2437 C 0.03496 0.11763 0.98005 0.0
C2438 C 0.0137 0.10246 0.98955 0.0
H2439 H 0.04926 0.15068 0.95968 0.0
H2440 H 0.05321 0.11186 0.98154 0.0
C2441 C 0.99035 0.1107 0.98711 0.0
C2442 C 0.17188 0.77638 0.21291 0.0
C2443 C 0.15714 0.7951 0.22112 0.0
H2444 H 0.20347 0.75819 0.22099 0.0
C2445 C 0.16455 0.81113 0.24423 0.0
H2446 H 0.16714 0.76402 0.19502 0.0
C2447 C 0.18586 0.80811 0.25891 0.0
C2448 C 0.20012 0.78898 0.25084 0.0
H2449 H 0.15356 0.82555 0.25132 0.0
H2450 H 0.19097 0.82053 0.27672 0.0
C2451 C 0.19293 0.7732 0.22768 0.0
C2452 C 0.48161 0.90937 0.45327 0.0
C2453 C 0.49703 0.89235 0.46207 0.0
H2454 H 0.47078 0.94745 0.45835 0.0
C2455 C 0.51228 0.90088 0.4846 0.0
H2456 H 0.46986 0.90384 0.43584 0.0
C2457 C 0.51316 0.92616 0.49714 0.0
C2458 C 0.49839 0.94334 0.48782 0.0
H2459 H 0.52387 0.8882 0.49247 0.0
H2460 H 0.52576 0.93245 0.51394 0.0
C2461 C 0.48211 0.93447 0.46616 0.0
C2462 C 0.4032 0.26714 0.72696 0.0
C2463 C 0.41709 0.29221 0.72357 0.0
H2464 H 0.36887 0.24496 0.73835 0.0
C2465 C 0.40688 0.31487 0.73089 0.0
H2466 H 0.41034 0.2493 0.7212 0.0
C2467 C 0.38301 0.31238 0.74097 0.0
C2468 C 0.36889 0.28718 0.74348 0.0
H2469 H 0.41724 0.33447 0.72857 0.0
H2470 H 0.37529 0.33003 0.74597 0.0
C2471 C 0.37936 0.26467 0.73667 0.0
C2472 C 0.99823 0.89892 0.52702 0.0
C2473 C 0.01001 0.89739 0.55094 0.0
H2474 H 0.99076 0.92406 0.49851 0.0
C2475 C 0.02553 0.92017 0.56335 0.0
H2476 H 0.98617 0.88162 0.51702 0.0
C2477 C 0.02835 0.94422 0.55278 0.0
C2478 C 0.01557 0.94627 0.52951 0.0
H2479 H 0.03529 0.9195 0.58154 0.0
H2480 H 0.04006 0.96139 0.56335 0.0
C2481 C 1.00089 0.9232 0.51643 0.0
C2482 C 0.38656 0.77929 0.8448 0.0
C2483 C 0.40878 0.79171 0.83461 0.0
H2484 H 0.34624 0.77291 0.84354 0.0
C2485 C 0.4069 0.80941 0.81618 0.0
H2486 H 0.3873 0.76605 0.85944 0.0
C2487 C 0.38334 0.81372 0.80743 0.0
C2488 C 0.36118 0.80035 0.81685 0.0
H2489 H 0.42356 0.81922 0.80778 0.0
H2490 H 0.38245 0.82658 0.79247 0.0
C2491 C 0.36303 0.78353 0.83598 0.0
C2492 C 0.50738 0.12869 0.05197 0.0
C2493 C 0.48845 0.14204 0.04392 0.0
H2494 H 0.52497 0.09489 0.04574 0.0
C2495 C 0.47147 0.13007 0.02351 0.0
H2496 H 0.5205 0.13722 0.0679 0.0
C2497 C 0.47402 0.10567 0.0108 0.0
C2498 C 0.49344 0.0928 0.01848 0.0
H2499 H 0.45675 0.13996 0.0169 0.0
H2500 H 0.46107 0.09709 0.99477 0.0
C2501 C 0.50984 0.10435 0.0394 0.0
C2502 C 0.15653 0.24617 0.3105 0.0
C2503 C 0.14505 0.26866 0.3123 0.0
H2504 H 0.18756 0.22889 0.29766 0.0
C2505 C 0.15629 0.29103 0.30076 0.0
H2506 H 0.14867 0.22869 0.31942 0.0
C2507 C 0.17877 0.29123 0.28848 0.0
C2508 C 0.19055 0.26899 0.28723 0.0
H2509 H 0.14778 0.30852 0.30129 0.0
H2510 H 0.18706 0.30901 0.28022 0.0
C2511 C 0.17894 0.24631 0.29806 0.0
C2512 C 0.98054 0.06645 0.11344 0.0
C2513 C 0.96395 0.04343 0.11891 0.0
H2514 H 0.00872 0.08373 0.08923 0.0
C2515 C 0.96305 0.01994 0.10264 0.0
H2516 H 0.98156 0.08511 0.12501 0.0
C2517 C 0.97815 0.01947 0.08176 0.0
C2518 C 0.99497 0.04229 0.07674 0.0
H2519 H 0.95113 0.00159 0.10626 0.0
H2520 H 0.97704 0.00095 0.06985 0.0
C2521 C 0.99603 0.0658 0.09277 0.0
C2522 C 0.25357 0.73847 0.40475 0.0
C2523 C 0.2775 0.73488 0.4136 0.0
H2524 H 0.23201 0.75188 0.37541 0.0
C2525 C 0.29867 0.7444 0.40025 0.0
H2526 H 0.23686 0.73108 0.41447 0.0
C2527 C 0.29582 0.75613 0.37784 0.0
C2528 C 0.27178 0.7586 0.36846 0.0
H2529 H 0.31737 0.74229 0.40683 0.0
H2530 H 0.31235 0.76249 0.36743 0.0
C2531 C 0.25075 0.75029 0.38237 0.0
C2532 C 0.5267 0.9734 0.60957 0.0
C2533 C 0.54927 0.99013 0.61933 0.0
H2534 H 0.49526 0.96727 0.58204 0.0
C2535 C 0.55721 0.01399 0.60865 0.0
H2536 H 0.5201 0.95488 0.61738 0.0
C2537 C 0.5432 0.02085 0.58858 0.0
C2538 C 0.5208 0.00418 0.57879 0.0
H2539 H 0.57402 0.02779 0.61615 0.0
H2540 H 0.54986 0.03944 0.58087 0.0
C2541 C 0.51249 0.98044 0.58943 0.0
C2542 C 0.24642 0.31375 0.87827 0.0
C2543 C 0.26907 0.32044 0.89349 0.0
H2544 H 0.22835 0.29967 0.84164 0.0
C2545 C 0.2917 0.31778 0.88189 0.0
H2546 H 0.22865 0.31614 0.88607 0.0
C2547 C 0.29158 0.30862 0.85591 0.0
C2548 C 0.26881 0.3017 0.84092 0.0
H2549 H 0.30954 0.32247 0.89292 0.0
H2550 H 0.30928 0.30671 0.84767 0.0
C2551 C 0.24628 0.30443 0.85253 0.0
C2552 C 0.93715 0.03415 0.38815 0.0
C2553 C 0.94293 0.02053 0.36543 0.0
H2554 H 0.94169 0.0398 0.42881 0.0
C2555 C 0.95749 1.0006 0.36718 0.0
H2556 H 0.9264 0.04991 0.38776 0.0
C2557 C 0.96664 0.99508 0.39094 0.0
C2558 C 0.96114 0.0091 0.41345 0.0
H2559 H 0.96194 0.98927 0.35021 0.0
H2560 H 0.9784 0.98021 0.39164 0.0
C2561 C 0.94597 0.02837 0.41181 0.0
C2562 C 0.26812 0.72978 0.66209 0.0
C2563 C 0.29015 0.73145 0.6485 0.0
H2564 H 0.25139 0.74222 0.69607 0.0
C2565 C 0.31202 0.74908 0.65857 0.0
H2566 H 0.25079 0.71679 0.65472 0.0
C2567 C 0.31201 0.76423 0.68187 0.0
C2568 C 0.29025 0.76189 0.69572 0.0
H2569 H 0.32943 0.75064 0.64887 0.0
H2570 H 0.32933 0.77718 0.68941 0.0
C2571 C 0.26826 0.7447 0.68559 0.0
C2572 C 0.53935 0.98209 0.87035 0.0
C2573 C 0.54249 0.00292 0.85476 0.0
H2574 H 0.52755 0.96917 0.90598 0.0
C2575 C 0.53355 0.02621 0.86236 0.0
H2576 H 0.54576 0.96378 0.8647 0.0
C2577 C 0.52306 0.02926 0.88592 0.0
C2578 C 0.52136 0.00903 0.90209 0.0
H2579 H 0.53589 0.04261 0.85073 0.0
H2580 H 0.51738 0.04787 0.89194 0.0
C2581 C 0.52884 0.98512 0.89384 0.0
C2582 C 0.26908 0.32049 0.1693 0.0
C2583 C 0.25397 0.3105 0.14693 0.0
H2584 H 0.27992 0.3145 0.20747 0.0
C2585 C 0.237 0.28627 0.14701 0.0
H2586 H 0.28229 0.33908 0.1701 0.0
C2587 C 0.23538 0.27239 0.16873 0.0
C2588 C 0.25036 0.28258 0.19104 0.0
H2589 H 0.22531 0.27771 0.13009 0.0
H2590 H 0.22242 0.25364 0.16806 0.0
C2591 C 0.26736 0.30667 0.19099 0.0
C2592 C 0.14887 0.00509 0.99594 0.0
C2593 C 0.15472 0.99067 0.01599 0.0
H2594 H 0.12472 0.02981 0.98174 0.0
C2595 C 0.14237 0.99333 0.03883 0.0
H2596 H 0.15841 0.00417 0.97833 0.0
C2597 C 0.12382 0.00888 0.04106 0.0
C2598 C 0.11681 0.02161 0.02035 0.0
H2599 H 0.14596 0.98231 0.05461 0.0
H2600 H 0.11375 0.00933 0.05838 0.0
C2601 C 0.1299 0.02019 0.99801 0.0
C2602 C 0.62003 0.57765 0.01437 0.0
C2603 C 0.63603 0.57102 0.99533 0.0
H2604 H 0.58299 0.57065 0.02843 0.0
C2605 C 0.6264 0.55019 0.97633 0.0
H2606 H 0.62684 0.5931 0.02967 0.0
C2607 C 0.6013 0.53697 0.97596 0.0
C2608 C 0.5852 0.54441 0.99442 0.0
H2609 H 0.63797 0.54464 0.96122 0.0
H2610 H 0.5943 0.52149 0.96072 0.0
C2611 C 0.59492 0.56462 0.01382 0.0
C2612 C 0.7163 0.37784 0.24973 0.0
C2613 C 0.72096 0.3951 0.27235 0.0
H2614 H 0.7222 0.34191 0.22933 0.0
C2615 C 0.73687 0.38903 0.29186 0.0
H2616 H 0.70389 0.38157 0.23443 0.0
C2617 C 0.74746 0.36605 0.28893 0.0
C2618 C 0.74224 0.34853 0.26649 0.0
H2619 H 0.74107 0.40198 0.30945 0.0
H2620 H 0.75912 0.36164 0.30453 0.0
C2621 C 0.72674 0.35493 0.24686 0.0
C2622 C 0.89706 0.47895 0.53305 0.0
C2623 C 0.88218 0.47543 0.51017 0.0
H2624 H 0.93383 0.49182 0.55133 0.0
C2625 C 0.89317 0.48331 0.48783 0.0
H2626 H 0.88888 0.47311 0.55052 0.0
C2627 C 0.91889 0.4937 0.48818 0.0
C2628 C 0.93394 0.49673 0.51096 0.0
H2629 H 0.88205 0.4806 0.46993 0.0
H2630 H 0.92702 0.49909 0.47056 0.0
C2631 C 0.9227 0.48973 0.53349 0.0
C2632 C 0.29784 0.1356 0.24766 0.0
C2633 C 0.30806 0.13401 0.27222 0.0
H2634 H 0.27499 0.15509 0.22465 0.0
C2635 C 0.29944 0.14791 0.29323 0.0
H2636 H 0.30359 0.12448 0.2312 0.0
C2637 C 0.28261 0.16493 0.28951 0.0
C2638 C 0.27441 0.16842 0.26473 0.0
H2639 H 0.30696 0.14704 0.31239 0.0
H2640 H 0.27771 0.17692 0.30585 0.0
C2641 C 0.28121 0.15278 0.24394 0.0
C2642 C 0.38221 0.06399 0.48225 0.0
C2643 C 0.37516 0.07964 0.50316 0.0
H2644 H 0.40805 0.0396 0.46813 0.0
C2645 C 0.38937 0.08179 0.52649 0.0
H2646 H 0.37168 0.06143 0.46405 0.0
C2647 C 0.40971 0.06867 0.52891 0.0
C2648 C 0.41683 0.05338 0.50801 0.0
H2649 H 0.38522 0.09411 0.54293 0.0
H2650 H 0.42028 0.07108 0.54711 0.0
C2651 C 0.40292 0.05119 0.48461 0.0
C2652 C 0.71866 0.66605 0.26753 0.0
C2653 C 0.72609 0.65116 0.28655 0.0
H2654 H 0.72561 0.70245 0.25025 0.0
C2655 C 0.74693 0.66271 0.30329 0.0
H2656 H 0.70302 0.65775 0.25399 0.0
C2657 C 0.76005 0.68834 0.30091 0.0
C2658 C 0.75262 0.70301 0.2818 0.0
H2659 H 0.75301 0.65205 0.31838 0.0
H2660 H 0.7761 0.69663 0.31398 0.0
C2661 C 0.7317 0.69168 0.26526 0.0
C2662 C 0.80411 0.39742 0.76085 0.0
C2663 C 0.82477 0.40498 0.77879 0.0
H2664 H 0.77464 0.3662 0.74417 0.0
C2665 C 0.83036 0.38641 0.795 0.0
H2666 H 0.79878 0.4113 0.74845 0.0
C2667 C 0.81595 0.36094 0.79308 0.0
C2668 C 0.79599 0.35322 0.77453 0.0
H2669 H 0.84637 0.39116 0.80869 0.0
H2670 H 0.82115 0.34694 0.80545 0.0
C2671 C 0.79007 0.37168 0.75852 0.0
C2672 C 0.04212 0.91527 0.04557 0.0
C2673 C 0.02187 0.90176 0.05797 0.0
H2674 H 0.05557 0.94754 0.02398 0.0
C2675 C 0.99848 0.91008 0.0562 0.0
H2676 H 0.06026 0.90914 0.04605 0.0
C2677 C 0.99566 0.9318 0.0431 0.0
C2678 C 0.01621 0.94595 0.03166 0.0
H2679 H 0.98251 0.90049 0.06577 0.0
H2680 H 0.97764 0.9382 0.04298 0.0
C2681 C 0.03935 0.93714 0.03266 0.0
C2682 C 0.85558 0.26799 0.81112 0.0
C2683 C 0.87108 0.25058 0.80173 0.0
H2684 H 0.82277 0.28465 0.80471 0.0
C2685 C 0.8639 0.23515 0.77827 0.0
H2686 H 0.86028 0.27981 0.82931 0.0
C2687 C 0.84207 0.23775 0.7642 0.0
C2688 C 0.82706 0.25572 0.77342 0.0
H2689 H 0.87552 0.22167 0.77046 0.0
H2690 H 0.83716 0.22603 0.74599 0.0
C2691 C 0.83393 0.27061 0.7971 0.0
C2692 C 0.51331 0.14858 0.54748 0.0
C2693 C 0.53263 0.15964 0.56602 0.0
H2694 H 0.49685 0.11517 0.52145 0.0
C2695 C 0.55187 0.14539 0.57091 0.0
H2696 H 0.49852 0.15931 0.54287 0.0
C2697 C 0.55101 0.11997 0.55851 0.0
C2698 C 0.5309 0.10837 0.54096 0.0
H2699 H 0.56699 0.15337 0.58514 0.0
H2700 H 0.56549 0.10901 0.5635 0.0
C2701 C 0.51247 0.1233 0.53509 0.0
C2702 C 0.63244 0.74103 0.31065 0.0
C2703 C 0.61645 0.75857 0.30456 0.0
H2704 H 0.66757 0.7283 0.30494 0.0
C2705 C 0.62387 0.77624 0.28632 0.0
H2706 H 0.62765 0.72742 0.32487 0.0
C2707 C 0.64699 0.77687 0.27506 0.0
C2708 C 0.6631 0.75977 0.28171 0.0
H2709 H 0.61191 0.78974 0.28084 0.0
H2710 H 0.65247 0.79114 0.26157 0.0
C2711 C 0.65543 0.74157 0.29929 0.0
C2712 C 0.99657 0.13154 0.46335 0.0
C2713 C 0.01729 0.15231 0.46948 0.0
H2714 H 0.97916 0.09188 0.46836 0.0
C2715 C 0.03586 0.149 0.48779 0.0
H2716 H 0.98156 0.13355 0.44989 0.0
C2717 C 0.03424 0.12508 0.49881 0.0
C2718 C 0.01412 0.10393 0.4916 0.0
H2719 H 0.05218 0.16447 0.49287 0.0
H2720 H 0.04929 0.12275 0.51209 0.0
C2721 C 0.99509 0.10766 0.47412 0.0
C2722 C 0.64395 0.2591 0.16786 0.0
C2723 C 0.62197 0.25324 0.18124 0.0
H2724 H 0.68391 0.26081 0.16789 0.0
C2725 C 0.62331 0.24181 0.20425 0.0
H2726 H 0.64347 0.26795 0.15009 0.0
C2727 C 0.64636 0.23726 0.21417 0.0
C2728 C 0.66855 0.24444 0.20146 0.0
H2729 H 0.6066 0.23673 0.21475 0.0
H2730 H 0.64698 0.22934 0.23242 0.0
C2731 C 0.66706 0.25491 0.17798 0.0
C2732 C 0.55209 0.9229 0.99086 0.0
C2733 C 0.53526 0.9099 0.97067 0.0
H2734 H 0.56126 0.95605 0.01953 0.0
C2735 C 0.51436 0.92119 0.96396 0.0
H2736 H 0.56854 0.91502 0.99636 0.0
C2737 C 0.51045 0.94481 0.97698 0.0
C2738 C 0.52717 0.9576 0.9972 0.0
H2739 H 0.50067 0.91153 0.94892 0.0
H2740 H 0.49406 0.95281 0.97147 0.0
C2741 C 0.54803 0.94648 0.00405 0.0
C2742 C 0.88304 0.80467 0.72557 0.0
C2743 C 0.89011 0.78078 0.71611 0.0
H2744 H 0.85564 0.8232 0.74485 0.0
C2745 C 0.8751 0.75673 0.72106 0.0
H2746 H 0.89437 0.8236 0.72258 0.0
C2747 C 0.85318 0.75651 0.73422 0.0
C2748 C 0.84547 0.78034 0.74261 0.0
H2749 H 0.87964 0.7379 0.71385 0.0
H2750 H 0.84176 0.73752 0.73686 0.0
C2751 C 0.86095 0.80446 0.73862 0.0
C2752 C 0.0435 0.98403 0.90387 0.0
C2753 C 0.06322 0.00541 0.90119 0.0
H2754 H 0.01336 0.96773 0.92644 0.0
C2755 C 0.06798 0.02668 0.92054 0.0
H2756 H 0.03915 0.96741 0.88928 0.0
C2757 C 0.0532 0.02686 0.94167 0.0
C2758 C 0.03325 0.00576 0.94414 0.0
H2759 H 0.08321 0.04329 0.9194 0.0
H2760 H 0.05718 0.04383 0.95591 0.0
C2761 C 0.02863 0.98425 0.92509 0.0
C2762 C 0.7756 0.30544 0.61948 0.0
C2763 C 0.75329 0.31357 0.61167 0.0
H2764 H 0.79493 0.28896 0.64844 0.0
C2765 C 0.73245 0.30966 0.62688 0.0
H2766 H 0.79185 0.30795 0.60796 0.0
C2767 C 0.73423 0.29881 0.64995 0.0
C2768 C 0.75681 0.29158 0.65813 0.0
H2769 H 0.7151 0.31597 0.62148 0.0
H2770 H 0.71814 0.29677 0.6617 0.0
C2771 C 0.77733 0.29445 0.64252 0.0
C2772 C 0.47311 0.03314 0.42182 0.0
C2773 C 0.48464 0.05063 0.40514 0.0
H2774 H 0.47682 0.01499 0.45588 0.0
C2775 C 0.50886 0.06555 0.41188 0.0
H2776 H 0.45426 0.02177 0.41745 0.0
C2777 C 0.52162 0.06221 0.43462 0.0
C2778 C 0.51024 0.04393 0.45069 0.0
H2779 H 0.51819 0.07911 0.39928 0.0
H2780 H 0.54045 0.07347 0.43938 0.0
C2781 C 0.48589 0.02957 0.4441 0.0
C2782 C 0.74378 0.72338 0.14484 0.0
C2783 C 0.76653 0.72793 0.13239 0.0
H2784 H 0.7251 0.7286 0.17958 0.0
C2785 C 0.78815 0.74253 0.14625 0.0
H2786 H 0.72678 0.71196 0.13493 0.0
C2787 C 0.78722 0.75189 0.17187 0.0
C2788 C 0.76461 0.747 0.18445 0.0
H2789 H 0.8059 0.74685 0.13728 0.0
H2790 H 0.80438 0.7629 0.18182 0.0
C2791 C 0.74283 0.73281 0.17054 0.0
C2792 C 0.09545 0.03407 0.63716 0.0
C2793 C 0.08146 0.03428 0.65909 0.0
H2794 H 0.09597 0.03743 0.59703 0.0
C2795 C 0.05687 0.03961 0.65698 0.0
H2796 H 0.11433 0.02974 0.63796 0.0
C2797 C 0.04636 0.044 0.63344 0.0
C2798 C 0.0602 0.04314 0.61151 0.0
H2799 H 0.04569 0.04035 0.67351 0.0
H2800 H 0.02719 0.04748 0.63232 0.0
C2801 C 0.08494 0.03845 0.61366 0.0
C2802 C 0.71855 0.31631 0.35319 0.0
C2803 C 0.73656 0.31284 0.37186 0.0
H2804 H 0.70315 0.30604 0.31495 0.0
C2805 C 0.75309 0.29526 0.36568 0.0
H2806 H 0.70588 0.33005 0.35708 0.0
C2807 C 0.75168 0.28164 0.3413 0.0
C2808 C 0.73369 0.28531 0.32277 0.0
H2809 H 0.767 0.29189 0.37972 0.0
H2810 H 0.76448 0.26815 0.337 0.0
C2811 C 0.71707 0.30263 0.32898 0.0
C2812 C 0.49412 0.06562 0.15199 0.0
C2813 C 0.48075 0.04397 0.16311 0.0
H2814 H 0.51238 0.07908 0.11901 0.0
C2815 C 0.47668 0.01864 0.14946 0.0
H2816 H 0.4978 0.08532 0.16209 0.0
C2817 C 0.48547 0.01506 0.12526 0.0
C2818 C 0.49811 0.03676 0.11393 0.0
H2819 H 0.4659 0.00158 0.15704 0.0
H2820 H 0.48155 0.99539 0.11507 0.0
C2821 C 0.50263 0.06205 0.12748 0.0
C2822 C 0.79725 0.75676 0.87556 0.0
C2823 C 0.77858 0.73419 0.87753 0.0
H2824 H 0.81292 0.78721 0.85255 0.0
C2825 C 0.7615 0.72485 0.8564 0.0
H2826 H 0.81058 0.76485 0.89142 0.0
C2827 C 0.76261 0.73798 0.83434 0.0
C2828 C 0.78111 0.76058 0.83251 0.0
H2829 H 0.74717 0.70728 0.85678 0.0
H2830 H 0.74873 0.73052 0.81879 0.0
C2831 C 0.79854 0.76973 0.8533 0.0
C2832 C 0.88303 0.04563 0.03321 0.0
C2833 C 0.87199 0.05395 0.0116 0.0
H2834 H 0.91182 0.02674 0.04799 0.0
C2835 C 0.88002 0.04647 0.98741 0.0
H2836 H 0.87688 0.05057 0.05204 0.0
C2837 C 0.89978 0.03243 0.98506 0.0
C2838 C 0.91186 0.02575 0.00686 0.0
H2839 H 0.87201 0.0527 0.97039 0.0
H2840 H 0.90658 0.02827 0.96637 0.0
C2841 C 0.90281 0.03171 0.03086 0.0
C2842 C 0.41559 0.47119 0.01414 0.0
C2843 C 0.39777 0.48098 0.0293 0.0
H2844 H 0.45338 0.47698 0.00225 0.0
C2845 C 0.40532 0.50564 0.04402 0.0
H2846 H 0.41084 0.45213 0.0029 0.0
C2847 C 0.4301 0.51976 0.04394 0.0
C2848 C 0.44783 0.50964 0.02904 0.0
H2849 H 0.39212 0.51409 0.05561 0.0
H2850 H 0.43547 0.53843 0.05578 0.0
C2851 C 0.44017 0.4854 0.01388 0.0
C2852 C 0.31972 0.67371 0.77118 0.0
C2853 C 0.31044 0.65316 0.75188 0.0
H2854 H 0.3172 0.71215 0.78873 0.0
C2855 C 0.28992 0.65589 0.7357 0.0
H2856 H 0.33568 0.67249 0.78378 0.0
C2857 C 0.27922 0.67875 0.73855 0.0
C2858 C 0.28891 0.69953 0.75753 0.0
H2859 H 0.28213 0.64034 0.72078 0.0
H2860 H 0.26374 0.68037 0.72549 0.0
C2861 C 0.30917 0.69659 0.77392 0.0
C2862 C 0.13405 0.5674 0.53903 0.0
C2863 C 0.14563 0.57124 0.51601 0.0
H2864 H 0.09982 0.55483 0.55702 0.0
C2865 C 0.13127 0.56392 0.49289 0.0
H2866 H 0.1447 0.57312 0.55713 0.0
C2867 C 0.1056 0.55346 0.49277 0.0
C2868 C 0.09379 0.55034 0.51581 0.0
H2869 H 0.13986 0.56648 0.47488 0.0
H2870 H 0.09496 0.54835 0.47462 0.0
C2871 C 0.10833 0.55712 0.53894 0.0
C2872 C 0.73867 0.9088 0.74958 0.0
C2873 C 0.72189 0.91235 0.76875 0.0
H2874 H 0.76761 0.8883 0.73658 0.0
C2875 C 0.72473 0.90125 0.79177 0.0
H2876 H 0.73758 0.9178 0.73196 0.0
C2877 C 0.74262 0.88525 0.79475 0.0
C2878 C 0.75757 0.87968 0.77458 0.0
H2879 H 0.71211 0.90343 0.80692 0.0
H2880 H 0.74316 0.87545 0.81198 0.0
C2881 C 0.7562 0.89235 0.75238 0.0
C2882 C 0.64983 0.98547 0.50906 0.0
C2883 C 0.65468 0.97272 0.53068 0.0
H2884 H 0.62589 0.00765 0.49043 0.0
C2885 C 0.63856 0.97374 0.55093 0.0
H2886 H 0.66149 0.9848 0.49289 0.0
C2887 C 0.61795 0.98673 0.54936 0.0
C2888 C 0.61304 0.99908 0.52758 0.0
H2889 H 0.64185 0.96453 0.56804 0.0
H2890 H 0.60568 0.98681 0.56509 0.0
C2891 C 0.62934 0.99854 0.50757 0.0
C2892 C 0.2831 0.39381 0.76152 0.0
C2893 C 0.3023 0.39656 0.74423 0.0
H2894 H 0.25529 0.36737 0.77903 0.0
C2895 C 0.30821 0.37358 0.73121 0.0
H2896 H 0.27801 0.41112 0.77173 0.0
C2897 C 0.29532 0.34838 0.73564 0.0
C2898 C 0.27607 0.34579 0.75288 0.0
H2899 H 0.32309 0.37509 0.71798 0.0
H2900 H 0.30024 0.33098 0.72543 0.0
C2901 C 0.27009 0.36875 0.7657 0.0
C2902 C 0.21747 0.64942 0.23151 0.0
C2903 C 0.20948 0.63806 0.25367 0.0
H2904 H 0.23584 0.684 0.21561 0.0
C2905 C 0.21591 0.65293 0.27747 0.0
H2906 H 0.21334 0.6383 0.21293 0.0
C2907 C 0.22923 0.67887 0.27902 0.0
C2908 C 0.2361 0.69063 0.2568 0.0
H2909 H 0.20979 0.64498 0.29491 0.0
H2910 H 0.23315 0.69002 0.29762 0.0
C2911 C 0.23053 0.67552 0.23306 0.0
C2912 C 0.53271 0.64097 0.47074 0.0
C2913 C 0.50895 0.6474 0.46544 0.0
H2914 H 0.55331 0.61369 0.48608 0.0
C2915 C 0.48746 0.63156 0.4738 0.0
H2916 H 0.54968 0.65302 0.46495 0.0
C2917 C 0.48955 0.60916 0.48608 0.0
C2918 C 0.51318 0.60201 0.49034 0.0
H2919 H 0.46886 0.63579 0.46988 0.0
H2920 H 0.47246 0.59694 0.49143 0.0
C2921 C 0.53481 0.61854 0.48309 0.0
C2922 C 0.66506 0.31218 0.74497 0.0
C2923 C 0.65671 0.29693 0.72168 0.0
H2924 H 0.69215 0.31966 0.7769 0.0
C2925 C 0.66994 0.2771 0.71279 0.0
H2926 H 0.65542 0.32774 0.75227 0.0
C2927 C 0.69088 0.27253 0.72685 0.0
C2928 C 0.69917 0.28774 0.75009 0.0
H2929 H 0.66377 0.2646 0.69521 0.0
H2930 H 0.70035 0.25678 0.71967 0.0
C2931 C 0.68611 0.30763 0.75903 0.0
C2932 C 0.98479 0.41093 0.9458 0.0
C2933 C 0.99785 0.39271 0.95625 0.0
H2934 H 0.97651 0.45022 0.9492 0.0
C2935 C 0.01173 0.40065 0.97971 0.0
H2936 H 0.97422 0.40595 0.92763 0.0
C2937 C 0.01357 0.42635 0.99162 0.0
C2938 C 1.00103 0.44456 0.98079 0.0
H2939 H 0.02144 0.38714 0.98887 0.0
H2940 H 0.02503 0.43207 0.00927 0.0
C2941 C 0.98613 0.43644 0.95811 0.0
C2942 C 0.90718 0.76625 0.23571 0.0
C2943 C 0.91804 0.78942 0.22514 0.0
H2944 H 0.87596 0.74629 0.25455 0.0
C2945 C 0.90575 0.81132 0.22736 0.0
H2946 H 0.91591 0.74889 0.23413 0.0
C2947 C 0.88276 0.80974 0.23896 0.0
C2948 C 0.87158 0.78626 0.24867 0.0
H2949 H 0.91375 0.82963 0.21984 0.0
H2950 H 0.87342 0.82667 0.23974 0.0
C2951 C 0.88422 0.7647 0.24735 0.0
C2952 C 0.53081 0.42179 0.06005 0.0
C2953 C 0.51422 0.3992 0.04851 0.0
H2954 H 0.54576 0.46283 0.05969 0.0
C2955 C 0.50027 0.40146 0.02594 0.0
H2956 H 0.54151 0.42122 0.07769 0.0
C2957 C 0.50239 0.42589 0.01567 0.0
C2958 C 0.51858 0.4485 0.02773 0.0
H2959 H 0.48753 0.38445 0.0163 0.0
H2960 H 0.49087 0.4272 0.99876 0.0
C2961 C 0.53309 0.44592 0.04974 0.0
C2962 C 0.8994 0.30746 0.32156 0.0
C2963 C 0.90206 0.29006 0.34006 0.0
H2964 H 0.87401 0.32351 0.29793 0.0
C2965 C 0.88028 0.27721 0.35067 0.0
H2966 H 0.91576 0.3176 0.31291 0.0
C2967 C 0.85637 0.28077 0.3422 0.0
C2968 C 0.85372 0.29717 0.32287 0.0
H2969 H 0.88168 0.26411 0.36532 0.0
H2970 H 0.83992 0.26981 0.35006 0.0
C2971 C 0.87548 0.31094 0.31303 0.0
C2972 C 0.01108 0.62625 0.5597 0.0
C2973 C 0.9923 0.63981 0.55162 0.0
H2974 H 0.02855 0.59233 0.55329 0.0
C2975 C 0.97549 0.6281 0.53099 0.0
H2976 H 0.02406 0.63457 0.57579 0.0
C2977 C 0.97804 0.60379 0.51814 0.0
C2978 C 0.9973 0.59072 0.52582 0.0
H2979 H 0.96092 0.63812 0.52428 0.0
H2980 H 0.96521 0.59546 0.50193 0.0
C2981 C 0.01354 0.60197 0.54695 0.0
C2982 C 0.66011 0.79507 0.7998 0.0
C2983 C 0.64619 0.77181 0.8078 0.0
H2984 H 0.69295 0.81294 0.78211 0.0
C2985 C 0.65439 0.7477 0.80181 0.0
H2986 H 0.65409 0.81389 0.80367 0.0
C2987 C 0.67662 0.74708 0.78922 0.0
C2988 C 0.69119 0.77056 0.78233 0.0
H2989 H 0.64425 0.72943 0.80784 0.0
H2990 H 0.68289 0.72832 0.78587 0.0
C2991 C 0.68231 0.79446 0.78721 0.0
C2992 C 0.4626 0.51761 0.60261 0.0
C2993 C 0.46357 0.54086 0.61924 0.0
H2994 H 0.47625 0.49922 0.56928 0.0
C2995 C 0.47983 0.56411 0.61381 0.0
H2996 H 0.4509 0.4991 0.60616 0.0
C2997 C 0.49502 0.56389 0.59288 0.0
C2998 C 0.49394 0.5406 0.57654 0.0
H2999 H 0.48084 0.58264 0.62561 0.0
H3000 H 0.50752 0.58198 0.58943 0.0
C3001 C 0.47736 0.51757 0.58145 0.0
C3002 C 0.79402 0.22728 0.89313 0.0
C3003 C 0.77687 0.23067 0.91192 0.0
H3004 H 0.80459 0.23356 0.85531 0.0
C3005 C 0.75755 0.24482 0.90701 0.0
H3006 H 0.80889 0.21617 0.89615 0.0
C3007 C 0.755 0.25466 0.88346 0.0
C3008 C 0.77167 0.25039 0.8645 0.0
H3009 H 0.74421 0.24796 0.92124 0.0
H3010 H 0.73966 0.26499 0.87989 0.0
C3011 C 0.79144 0.23705 0.86965 0.0
C3012 C 0.04919 0.52436 0.11278 0.0
C3013 C 0.04846 0.49897 0.1207 0.0
H3014 H 0.0378 0.54738 0.0845 0.0
C3015 C 0.03326 0.47701 0.10626 0.0
H3016 H 0.0598 0.54189 0.12382 0.0
C3017 C 0.01972 0.48043 0.08401 0.0
C3018 C 0.02169 0.50571 0.07578 0.0
H3019 H 0.03233 0.45716 0.11172 0.0
H3020 H 0.00859 0.46331 0.07279 0.0
C3021 C 0.03632 0.5276 0.09039 0.0
C3022 C 0.74621 0.8147 0.38114 0.0
C3023 C 0.76829 0.82094 0.39727 0.0
H3024 H 0.72952 0.80097 0.34383 0.0
C3025 C 0.79124 0.81745 0.38681 0.0
H3026 H 0.72824 0.8176 0.38812 0.0
C3027 C 0.79204 0.80823 0.361 0.0
C3028 C 0.7699 0.80205 0.345 0.0
H3029 H 0.80864 0.82167 0.39858 0.0
H3030 H 0.81001 0.80583 0.35365 0.0
C3031 C 0.74699 0.80531 0.3555 0.0
C3032 C 0.46526 0.50756 0.86709 0.0
C3033 C 0.44781 0.52474 0.86555 0.0
H3034 H 0.48919 0.49018 0.89134 0.0
C3035 C 0.4405 0.53677 0.8884 0.0
H3036 H 0.47102 0.49748 0.85004 0.0
C3037 C 0.45035 0.5319 0.91198 0.0
C3038 C 0.46812 0.51525 0.91341 0.0
H3039 H 0.42756 0.5505 0.88818 0.0
H3040 H 0.44461 0.5419 0.92911 0.0
C3041 C 0.47545 0.50305 0.89077 0.0
C3042 C 0.76918 0.2462 0.15902 0.0
C3043 C 0.78638 0.2294 0.15282 0.0
H3044 H 0.75721 0.27297 0.18762 0.0
C3045 C 0.80478 0.22667 0.17141 0.0
H3046 H 0.75494 0.24892 0.145 0.0
C3047 C 0.80601 0.24037 0.19558 0.0
C3048 C 0.78881 0.25702 0.20181 0.0
H3049 H 0.81798 0.21352 0.16746 0.0
H3050 H 0.82025 0.23753 0.20955 0.0
C3051 C 0.77043 0.25995 0.18334 0.0
C3052 C 0.03656 0.47941 0.3736 0.0
C3053 C 0.04317 0.50075 0.35901 0.0
H3054 H 0.02284 0.46688 0.40876 0.0
C3055 C 0.03911 0.52601 0.36831 0.0
H3056 H 0.03925 0.4597 0.36674 0.0
C3057 C 0.02963 0.53008 0.39222 0.0
C3058 C 0.02408 0.50897 0.40719 0.0
H3059 H 0.04433 0.5429 0.35762 0.0
H3060 H 0.02756 0.54991 0.39937 0.0
C3061 C 0.02705 0.48349 0.39751 0.0
C3062 C 0.73799 0.7934 0.65282 0.0
C3063 C 0.75646 0.81611 0.65072 0.0
H3064 H 0.72308 0.76252 0.6757 0.0
C3065 C 0.77397 0.82528 0.67155 0.0
H3066 H 0.72434 0.7855 0.63718 0.0
C3067 C 0.7733 0.81197 0.69354 0.0
C3068 C 0.75506 0.78914 0.69544 0.0
H3069 H 0.78821 0.84289 0.67097 0.0
H3070 H 0.78734 0.81942 0.70895 0.0
C3071 C 0.73731 0.7801 0.67488 0.0
C3072 C 0.6419 0.49234 0.54038 0.0
C3073 C 0.65453 0.49044 0.51767 0.0
H3074 H 0.61286 0.50758 0.55998 0.0
C3075 C 0.64894 0.50546 0.49802 0.0
H3076 H 0.64543 0.48088 0.55584 0.0
C3077 C 0.62995 0.52051 0.50033 0.0
C3078 C 0.61648 0.52113 0.52246 0.0
H3079 H 0.65873 0.50504 0.48053 0.0
H3080 H 0.62504 0.53066 0.48433 0.0
C3081 C 0.6232 0.50771 0.54282 0.0
C3082 C 0.12246 0.05289 0.47082 0.0
C3083 C 0.132 0.07259 0.49083 0.0
H3084 H 0.09062 0.02489 0.45387 0.0
C3085 C 0.11601 0.07771 0.51045 0.0
H3086 H 0.13424 0.04787 0.45568 0.0
C3087 C 0.09101 0.06401 0.50964 0.0
C3088 C 0.08144 0.0451 0.4891 0.0
H3089 H 0.1225 0.09292 0.52603 0.0
H3090 H 0.07896 0.06893 0.52455 0.0
C3091 C 0.09749 0.03948 0.4699 0.0
C3092 C 0.24427 0.89713 0.77807 0.0
C3093 C 0.21933 0.89601 0.76838 0.0
H3094 H 0.2747 0.87603 0.7833 0.0
C3095 C 0.20637 0.87194 0.75563 0.0
H3096 H 0.25502 0.91536 0.78778 0.0
C3097 C 0.21778 0.84977 0.7526 0.0
C3098 C 0.24249 0.85061 0.76258 0.0
H3099 H 0.187 0.86983 0.74843 0.0
H3100 H 0.20674 0.8317 0.74286 0.0
C3101 C 0.2557 0.87465 0.77526 0.0
C3102 C 0.3944 0.96368 0.98679 0.0
C3103 C 0.3797 0.97216 0.00606 0.0
H3104 H 0.43057 0.96843 0.97114 0.0
C3105 C 0.3903 0.99321 0.02429 0.0
H3106 H 0.38645 0.94758 0.97245 0.0
C3107 C 0.41567 0.00498 0.02378 0.0
C3108 C 0.43054 0.99615 0.00474 0.0
H3109 H 0.37918 0.99997 0.03931 0.0
H3110 H 0.42367 0.02078 0.03839 0.0
C3111 C 0.41955 0.97572 0.986 0.0
C3112 C 0.80075 0.64535 0.79029 0.0
C3113 C 0.80722 0.63067 0.76861 0.0
H3114 H 0.78277 0.67677 0.80472 0.0
C3115 C 0.79715 0.63434 0.74448 0.0
H3116 H 0.8083 0.64321 0.80912 0.0
C3117 C 0.78257 0.65385 0.74195 0.0
C3118 C 0.77791 0.66983 0.76353 0.0
H3119 H 0.80143 0.62291 0.72748 0.0
H3120 H 0.77639 0.65753 0.72308 0.0
C3121 C 0.78616 0.66467 0.78776 0.0
C3122 C 0.89302 0.58137 0.02529 0.0
C3123 C 0.87787 0.57843 0.00252 0.0
H3124 H 0.92511 0.57178 0.04477 0.0
C3125 C 0.88404 0.56229 0.98153 0.0
H3126 H 0.88932 0.59401 0.04172 0.0
C3127 C 0.90494 0.54973 0.98325 0.0
C3128 C 0.92 0.55291 0.00602 0.0
H3129 H 0.87269 0.55925 0.96377 0.0
H3130 H 0.90943 0.53775 0.96671 0.0
C3131 C 0.9137 0.56871 0.02703 0.0
C3132 C 0.21696 0.17203 0.79048 0.0
C3133 C 0.22954 0.15035 0.78905 0.0
H3134 H 0.21967 0.21357 0.78784 0.0
C3135 C 0.25531 0.15485 0.78428 0.0
H3136 H 0.1971 0.16932 0.79404 0.0
C3137 C 0.26794 0.18015 0.78029 0.0
C3138 C 0.25516 0.2016 0.78086 0.0
H3139 H 0.26573 0.13875 0.78347 0.0
H3140 H 0.2877 0.1828 0.77629 0.0
C3141 C 0.2297 0.19737 0.78647 0.0
C3142 C 0.31489 0.89545 0.25186 0.0
C3143 C 0.32092 0.91032 0.27568 0.0
H3144 H 0.29786 0.85845 0.2315 0.0
C3145 C 0.31279 0.89888 0.29775 0.0
H3146 H 0.32116 0.90349 0.2345 0.0
C3147 C 0.29965 0.87278 0.29607 0.0
C3148 C 0.29428 0.85771 0.27226 0.0
H3149 H 0.31676 0.91 0.31635 0.0
H3150 H 0.2941 0.86432 0.31345 0.0
C3151 C 0.30161 0.8695 0.25016 0.0
C3152 C 0.54272 0.41536 0.54476 0.0
C3153 C 0.52213 0.40094 0.55594 0.0
H3154 H 0.5563 0.4483 0.52416 0.0
C3155 C 0.49831 0.40796 0.55271 0.0
H3156 H 0.56121 0.41016 0.54644 0.0
C3157 C 0.4954 0.42965 0.53964 0.0
C3158 C 0.51627 0.44489 0.52962 0.0
H3159 H 0.48208 0.39745 0.56127 0.0
H3160 H 0.47702 0.4352 0.53849 0.0
C3161 C 0.53983 0.4371 0.53177 0.0
C3162 C 0.36652 0.73996 0.28067 0.0
C3163 C 0.37416 0.75587 0.3038 0.0
H3164 H 0.33907 0.72979 0.24909 0.0
C3165 C 0.35889 0.77373 0.3129 0.0
H3166 H 0.37789 0.72624 0.27284 0.0
C3167 C 0.3371 0.7762 0.29896 0.0
C3168 C 0.32956 0.76039 0.2759 0.0
H3169 H 0.36374 0.78596 0.33083 0.0
H3170 H 0.32635 0.7908 0.30614 0.0
C3171 C 0.34439 0.74215 0.26691 0.0
C3172 C 0.05291 0.64354 0.07089 0.0
C3173 C 0.03486 0.65865 0.06421 0.0
H3174 H 0.06605 0.60676 0.06432 0.0
C3175 C 0.01754 0.64881 0.04351 0.0
H3176 H 0.06647 0.65057 0.08682 0.0
C3177 C 0.01733 0.62387 0.03067 0.0
C3178 C 0.03444 0.6081 0.03819 0.0
H3179 H 0.0038 0.66022 0.03749 0.0
H3180 H 0.00319 0.61664 0.01529 0.0
C3181 C 0.05271 0.61847 0.05798 0.0
C3182 C 0.11744 0.27424 0.77968 0.0
C3183 C 0.10931 0.25567 0.79694 0.0
H3184 H 0.1468 0.28985 0.75599 0.0
C3185 C 0.1244 0.23696 0.80185 0.0
H3186 H 0.10613 0.28871 0.77519 0.0
C3187 C 0.14743 0.23746 0.79066 0.0
C3188 C 0.156 0.2567 0.77431 0.0
H3189 H 0.11901 0.2226 0.81526 0.0
H3190 H 0.159 0.2234 0.79564 0.0
C3191 C 0.14057 0.27474 0.76845 0.0
C3192 C 0.54002 0.65215 0.99085 0.0
C3193 C 0.5209 0.65693 0.974 0.0
H3194 H 0.55281 0.6247 0.01414 0.0
C3195 C 0.49883 0.63768 0.96912 0.0
H3196 H 0.55718 0.66672 0.99503 0.0
C3197 C 0.49644 0.61362 0.97982 0.0
C3198 C 0.51586 0.60846 0.99601 0.0
H3199 H 0.48387 0.64071 0.95608 0.0
H3200 H 0.47964 0.59873 0.97482 0.0
C3201 C 0.53741 0.62823 0.00196 0.0
C3202 C 0.14434 0.76227 0.67482 0.0
C3203 C 0.12282 0.76149 0.68904 0.0
H3204 H 0.18333 0.75914 0.67471 0.0
C3205 C 0.12399 0.75491 0.71424 0.0
H3206 H 0.14404 0.76738 0.6554 0.0
C3207 C 0.14642 0.74991 0.72519 0.0
C3208 C 0.16812 0.75163 0.71121 0.0
H3209 H 0.10758 0.75375 0.72551 0.0
H3210 H 0.14698 0.74558 0.74486 0.0
C3211 C 0.16681 0.7575 0.68584 0.0
C3212 C 0.01854 0.42137 0.46514 0.0
C3213 C 0.03753 0.40792 0.47293 0.0
H3214 H 0.99981 0.45411 0.47281 0.0
C3215 C 0.05382 0.4192 0.49411 0.0
H3216 H 0.00595 0.41357 0.44862 0.0
C3217 C 0.05064 0.44297 0.50761 0.0
C3218 C 0.03112 0.45579 0.5002 0.0
H3219 H 0.0685 0.40928 0.50074 0.0
H3220 H 0.06318 0.45103 0.5241 0.0
C3221 C 0.01521 0.44485 0.47878 0.0
C3222 C 0.37771 0.3047 0.21722 0.0
C3223 C 0.3851 0.28086 0.20803 0.0
H3224 H 0.34994 0.3231 0.23611 0.0
C3225 C 0.3697 0.25678 0.21229 0.0
H3226 H 0.38921 0.32367 0.21469 0.0
C3227 C 0.34748 0.25647 0.22498 0.0
C3228 C 0.33975 0.28024 0.23358 0.0
H3229 H 0.37431 0.23797 0.20513 0.0
H3230 H 0.336 0.23743 0.22734 0.0
C3231 C 0.35526 0.30439 0.22974 0.0
C3232 C 0.57086 0.52447 0.42252 0.0
C3233 C 0.56499 0.50454 0.40192 0.0
H3234 H 0.56022 0.54101 0.45817 0.0
C3235 C 0.54363 0.4845 0.40309 0.0
H3236 H 0.58735 0.53996 0.42277 0.0
C3237 C 0.52846 0.48467 0.42405 0.0
C3238 C 0.53415 0.50499 0.4442 0.0
H3239 H 0.53821 0.46899 0.38755 0.0
H3240 H 0.51201 0.46918 0.42424 0.0
C3241 C 0.55551 0.52484 0.44317 0.0
C3242 C 0.26527 0.79454 0.11787 0.0
C3243 C 0.24661 0.80974 0.11374 0.0
H3244 H 0.28308 0.77362 0.14436 0.0
C3245 C 0.23014 0.81375 0.13304 0.0
H3246 H 0.27801 0.79084 0.1032 0.0
C3247 C 0.23293 0.80376 0.15633 0.0
C3248 C 0.25228 0.78966 0.16082 0.0
H3249 H 0.2158 0.82566 0.13062 0.0
H3250 H 0.22043 0.80788 0.17112 0.0
C3251 C 0.26809 0.78456 0.14129 0.0
C3252 C 0.01727 0.55952 0.90371 0.0
C3253 C 0.99232 0.5638 0.90416 0.0
H3254 H 0.04867 0.55043 0.92505 0.0
C3255 C 0.98067 0.56488 0.92739 0.0
H3256 H 0.0266 0.55866 0.88595 0.0
C3257 C 0.99314 0.55979 0.94951 0.0
C3258 C 0.0174 0.55386 0.9487 0.0
H3259 H 0.96143 0.56807 0.92818 0.0
H3260 H 0.98367 0.55998 0.96712 0.0
C3261 C 0.02985 0.55484 0.92596 0.0
C3262 C 0.24089 0.2148 0.64451 0.0
C3263 C 0.25805 0.22871 0.62876 0.0
H3264 H 0.22689 0.21245 0.68198 0.0
C3265 C 0.27373 0.25231 0.63968 0.0
H3266 H 0.2287 0.19635 0.63726 0.0
C3267 C 0.27313 0.26098 0.66553 0.0
C3268 C 0.25637 0.2468 0.68121 0.0
H3269 H 0.28666 0.26423 0.62836 0.0
H3270 H 0.28589 0.27892 0.67328 0.0
C3271 C 0.23986 0.22391 0.67032 0.0
C3272 C 0.59081 0.51903 0.13574 0.0
C3273 C 0.58258 0.53038 0.15836 0.0
H3274 H 0.58793 0.51482 0.09497 0.0
C3275 C 0.56504 0.54737 0.15674 0.0
H3276 H 0.60458 0.50619 0.13636 0.0
C3277 C 0.55541 0.55227 0.13297 0.0
C3278 C 0.56346 0.54061 0.11041 0.0
H3279 H 0.55832 0.55637 0.17386 0.0
H3280 H 0.54141 0.56483 0.13225 0.0
C3281 C 0.58148 0.52423 0.11204 0.0
C3282 C 0.23005 0.78261 0.8695 0.0
C3283 C 0.24704 0.80641 0.87719 0.0
H3284 H 0.21722 0.7514 0.83943 0.0
C3285 C 0.2655 0.81592 0.86064 0.0
H3286 H 0.21581 0.77463 0.88197 0.0
C3287 C 0.26649 0.80255 0.83671 0.0
C3288 C 0.24896 0.7794 0.82859 0.0
H3289 H 0.27863 0.83438 0.86571 0.0
H3290 H 0.28034 0.81109 0.82411 0.0
C3291 C 0.23105 0.76914 0.84534 0.0
C3292 C 0.99461 0.55887 0.65649 0.0
C3293 C 0.98295 0.53625 0.66728 0.0
H3294 H 0.01259 0.57401 0.62409 0.0
C3295 C 0.98295 0.51102 0.65478 0.0
H3296 H 0.99471 0.57852 0.66583 0.0
C3297 C 0.99329 0.50844 0.63117 0.0
C3298 C 0.00354 0.53108 0.61963 0.0
H3299 H 0.97428 0.49332 0.66296 0.0
H3300 H 0.99222 0.48877 0.62146 0.0
C3301 C 0.00475 0.5563 0.63269 0.0
C3302 C 0.25989 0.25781 0.37212 0.0
C3303 C 0.27196 0.23585 0.37278 0.0
H3304 H 0.2509 0.28866 0.351 0.0
C3305 C 0.28448 0.22833 0.3511 0.0
H3306 H 0.25039 0.26455 0.38846 0.0
C3307 C 0.28481 0.24236 0.32943 0.0
C3308 C 0.27274 0.2643 0.32899 0.0
H3309 H 0.29384 0.21144 0.35075 0.0
H3310 H 0.29478 0.23625 0.31319 0.0
C3311 C 0.26034 0.27181 0.35063 0.0
C3312 C 0.38048 0.54427 0.48218 0.0
C3313 C 0.37183 0.55186 0.50603 0.0
H3314 H 0.40756 0.52588 0.46221 0.0
C3315 C 0.38172 0.54306 0.52797 0.0
H3316 H 0.37322 0.55081 0.46495 0.0
C3317 C 0.40129 0.5288 0.52638 0.0
C3318 C 0.41126 0.52308 0.50281 0.0
H3319 H 0.37502 0.54811 0.54653 0.0
H3320 H 0.40957 0.52364 0.5438 0.0
C3321 C 0.40007 0.52995 0.48059 0.0
C3322 C 0.90307 0.00846 0.54035 0.0
C3323 C 0.89561 0.98276 0.52759 0.0
H3324 H 0.93328 0.04163 0.55045 0.0
C3325 C 0.9136 0.9716 0.51383 0.0
H3326 H 0.88974 0.01799 0.55075 0.0
C3327 C 0.93828 0.98543 0.51319 0.0
C3328 C 0.94588 0.01064 0.52662 0.0
H3329 H 0.90895 0.95176 0.50413 0.0
H3330 H 0.95166 0.97589 0.50283 0.0
C3331 C 0.92796 0.02218 0.53996 0.0
C3332 C 0.80211 0.16205 0.2752 0.0
C3333 C 0.80398 0.14906 0.25084 0.0
H3334 H 0.79036 0.19432 0.29711 0.0
C3335 C 0.79271 0.15824 0.2297 0.0
H3336 H 0.80975 0.15529 0.2921 0.0
C3337 C 0.78076 0.18023 0.23278 0.0
C3338 C 0.78014 0.19386 0.257 0.0
H3339 H 0.79393 0.14915 0.21058 0.0
H3340 H 0.77315 0.18738 0.21604 0.0
C3341 C 0.79066 0.18431 0.27818 0.0
C3342 C 0.62968 0.07051 0.03511 0.0
C3343 C 0.64197 0.07307 0.0123 0.0
H3344 H 0.5949 0.05921 0.05253 0.0
C3345 C 0.62808 0.06504 0.98897 0.0
H3346 H 0.6399 0.07685 0.05336 0.0
C3347 C 0.60228 0.05497 0.98845 0.0
C3348 C 0.58985 0.05292 0.01127 0.0
H3349 H 0.63718 0.0666 0.97112 0.0
H3350 H 0.59206 0.04915 0.97014 0.0
C3351 C 0.60387 0.06059 0.0346 0.0
C3352 C 0.24143 0.41925 0.26879 0.0
C3353 C 0.22454 0.41785 0.24741 0.0
H3354 H 0.26809 0.40039 0.28788 0.0
C3355 C 0.22549 0.39894 0.22666 0.0
H3356 H 0.24185 0.43409 0.2848 0.0
C3357 C 0.24119 0.38056 0.2281 0.0
C3358 C 0.25583 0.38014 0.25051 0.0
H3359 H 0.2128 0.39685 0.20993 0.0
H3360 H 0.24019 0.36521 0.21239 0.0
C3361 C 0.25687 0.40034 0.27042 0.0
C3362 C 0.1451 0.47893 0.04682 0.0
C3363 C 0.15706 0.47094 0.02495 0.0
H3364 H 0.11571 0.49784 0.06195 0.0
C3365 C 0.14818 0.4769 1.00114 0.0
H3366 H 0.15154 0.47502 0.06551 0.0
C3367 C 0.12799 0.49031 0.99921 0.0
C3368 C 0.11592 0.49798 0.02098 0.0
H3369 H 0.15643 0.47067 0.98377 0.0
H3370 H 0.12147 0.49415 0.98051 0.0
C3371 C 0.12472 0.49225 0.04484 0.0
C3372 C 0.78549 0.88336 0.22289 0.0
C3373 C 0.80692 0.89531 0.23858 0.0
H3374 H 0.75594 0.84943 0.2143 0.0
C3375 C 0.81569 0.88082 0.25725 0.0
H3376 H 0.77813 0.89398 0.20846 0.0
C3377 C 0.8029 0.85538 0.26067 0.0
C3378 C 0.78108 0.84383 0.2455 0.0
H3379 H 0.83239 0.88922 0.26937 0.0
H3380 H 0.80985 0.84497 0.27553 0.0
C3381 C 0.77269 0.8579 0.22634 0.0
C3382 C 0.71122 0.14845 0.72153 0.0
C3383 C 0.70837 0.13398 0.74282 0.0
H3384 H 0.72492 0.18574 0.70762 0.0
C3385 C 0.71834 0.1464 0.76681 0.0
H3386 H 0.70397 0.1393 0.70276 0.0
C3387 C 0.73046 0.17281 0.76958 0.0
C3388 C 0.7328 0.18752 0.74845 0.0
H3389 H 0.71613 0.13595 0.78367 0.0
H3390 H 0.73751 0.1818 0.78846 0.0
C3391 C 0.72336 0.17498 0.72431 0.0
loop_
_geom_bond_atom_site_label_1
_geom_bond_atom_site_label_2
_geom_bond_distance
_geom_bond_site_symmetry_2
_ccdc_geom_bond_type
Li0 N17 1.990 . S
Li0 O60 1.956 1_655 S
Li0 O61 1.970 . S
Li0 O62 1.961 1_655 S
Li1 N25 1.990 . S
Li1 O60 1.970 . S
Li1 O61 1.956 1_455 S
Li1 O63 1.961 . S
Li2 N47 1.990 . S
Li2 O60 1.961 . S
Li2 O62 1.956 . S
Li2 O63 1.970 . S
Li3 N53 1.990 . S
Li3 O61 1.961 1_455 S
Li3 O62 1.970 . S
Li3 O63 1.956 . S
C4 C6 1.348 . S
C4 C7 1.356 . S
C4 O60 1.325 . S
N5 C8 1.314 . S
N5 C9 1.279 . S
C6 C4 1.348 . S
C6 C8 1.353 . S
C6 H64 0.929 . S
C7 C4 1.356 . S
C7 C9 1.358 . S
C7 H65 0.930 . S
C8 N5 1.314 . S
C8 C6 1.353 . S
C8 H66 0.930 . S
C9 N5 1.279 . S
C9 C7 1.358 . S
C9 H67 0.930 . S
C10 C13 1.348 . S
C10 C14 1.356 . S
C10 O61 1.325 . S
C11 N12 1.279 . S
C11 C14 1.358 . S
C11 H68 0.930 . S
N12 C11 1.279 . S
N12 C15 1.314 . S
C13 C10 1.348 . S
C13 C15 1.353 . S
C13 H69 0.929 . S
C14 C10 1.356 . S
C14 C11 1.358 . S
C14 H70 0.930 . S
C15 N12 1.314 . S
C15 C13 1.353 . S
C15 H71 0.930 . S
C16 N17 1.314 . S
C16 C21 1.353 . S
C16 H22 0.930 . S
N17 Li0 1.990 . S
N17 C16 1.314 . S
N17 C19 1.279 . S
C18 C19 1.358 . S
C18 C20 1.356 . S
C18 H72 0.930 . S
C19 N17 1.279 . S
C19 C18 1.358 . S
C19 H23 0.930 . S
C20 C18 1.356 . S
C20 C21 1.348 . S
C21 C16 1.353 . S
C21 C20 1.348 . S
C21 H73 0.929 . S
H22 C16 0.930 . S
H23 C19 0.930 . S
C24 N25 1.314 . S
C24 C26 1.353 . S
C24 H30 0.930 . S
N25 Li1 1.990 . S
N25 C24 1.314 . S
N25 C28 1.279 . S
C26 C24 1.353 . S
C26 C29 1.348 . S
C26 H74 0.929 . S
C27 C28 1.358 . S
C27 C29 1.356 . S
C27 H75 0.930 1_455 S
C28 N25 1.279 . S
C28 C27 1.358 . S
C28 H31 0.930 1_455 S
C29 C26 1.348 . S
C29 C27 1.356 . S
H30 C24 0.930 . S
H31 C28 0.930 1_655 S
C32 C34 1.348 . S
C32 C35 1.356 . S
C32 O62 1.325 . S
N33 C36 1.314 . S
N33 C37 1.279 . S
C34 C32 1.348 . S
C34 C36 1.353 . S
C34 H76 0.929 . S
C35 C32 1.356 . S
C35 C37 1.358 . S
C35 H77 0.930 . S
C36 N33 1.314 . S
C36 C34 1.353 . S
C36 H78 0.930 . S
C37 N33 1.279 . S
C37 C35 1.358 . S
C37 H79 0.930 . S
C38 C39 1.348 . S
C38 C40 1.356 . S
C38 O63 1.325 . S
C39 C38 1.348 . S
C39 C41 1.353 . S
C39 H80 0.929 . S
C40 C38 1.356 . S
C40 C42 1.358 . S
C40 H81 0.930 . S
C41 C39 1.353 . S
C41 N43 1.314 . S
C41 H82 0.930 . S
C42 C40 1.358 . S
C42 N43 1.279 . S
C42 H83 0.930 . S
N43 C41 1.314 . S
N43 C42 1.279 . S
C44 C46 1.353 . S
C44 N47 1.314 . S
C44 H50 0.930 . S
C45 N47 1.279 . S
C45 C48 1.358 . S
C45 H51 0.930 . S
C46 C44 1.353 . S
C46 C49 1.348 . S
C46 H84 0.929 . S
N47 Li2 1.990 . S
N47 C44 1.314 . S
N47 C45 1.279 . S
C48 C45 1.358 . S
C48 C49 1.356 . S
C48 H85 0.930 . S
C49 C46 1.348 . S
C49 C48 1.356 . S
H50 C44 0.930 . S
H51 C45 0.930 . S
C52 N53 1.314 1_655 S
C52 C54 1.353 . S
C52 H58 0.930 . S
N53 Li3 1.990 . S
N53 C52 1.314 1_455 S
N53 C56 1.279 . S
C54 C52 1.353 . S
C54 C57 1.348 1_655 S
C54 H86 0.929 . S
C55 C56 1.358 . S
C55 C57 1.356 . S
C55 H87 0.930 . S
C56 N53 1.279 . S
C56 C55 1.358 . S
C56 H59 0.930 . S
C57 C54 1.348 1_455 S
C57 C55 1.356 . S
H58 C52 0.930 . S
H59 C56 0.930 . S
O60 Li0 1.956 1_455 S
O60 Li1 1.970 . S
O60 Li2 1.961 . S
O60 C4 1.325 . S
O61 Li0 1.970 . S
O61 Li1 1.956 1_655 S
O61 Li3 1.961 1_655 S
O61 C10 1.325 . S
O62 Li0 1.961 1_455 S
O62 Li2 1.956 . S
O62 Li3 1.970 . S
O62 C32 1.325 . S
O63 Li1 1.961 . S
O63 Li2 1.970 . S
O63 Li3 1.956 . S
O63 C38 1.325 . S
H64 C6 0.929 . S
H65 C7 0.930 . S
H66 C8 0.930 . S
H67 C9 0.930 . S
H68 C11 0.930 . S
H69 C13 0.929 . S
H70 C14 0.930 . S
H71 C15 0.930 . S
H72 C18 0.930 . S
H73 C21 0.929 . S
H74 C26 0.929 . S
H75 C27 0.930 1_655 S
H76 C34 0.929 . S
H77 C35 0.930 . S
H78 C36 0.930 . S
H79 C37 0.930 . S
H80 C39 0.929 . S
H81 C40 0.930 . S
H82 C41 0.930 . S
H83 C42 0.930 . S
H84 C46 0.929 . S
H85 C48 0.930 . S
H86 C54 0.929 . S
H87 C55 0.930 . S
Li88 N105 1.990 . S
Li88 O148 1.956 . S
Li88 O149 1.970 . S
Li88 O150 1.961 1_455 S
Li89 N113 1.990 . S
Li89 O148 1.970 . S
Li89 O149 1.956 . S
Li89 O151 1.961 . S
Li90 N135 1.990 1_455 S
Li90 O148 1.961 . S
Li90 O150 1.956 1_455 S
Li90 O151 1.970 . S
Li91 N141 1.990 . S
Li91 O149 1.961 1_655 S
Li91 O150 1.970 . S
Li91 O151 1.956 1_655 S
C92 C94 1.348 . S
C92 C95 1.356 . S
C92 O148 1.325 . S
N93 C96 1.314 . S
N93 C97 1.279 . S
C94 C92 1.348 . S
C94 C96 1.353 . S
C94 H152 0.929 . S
C95 C92 1.356 . S
C95 C97 1.358 . S
C95 H153 0.930 . S
C96 N93 1.314 . S
C96 C94 1.353 . S
C96 H154 0.930 . S
C97 N93 1.279 . S
C97 C95 1.358 . S
C97 H155 0.930 . S
C98 C101 1.348 . S
C98 C102 1.356 . S
C98 O149 1.325 . S
C99 N100 1.279 . S
C99 C102 1.358 . S
C99 H156 0.930 . S
N100 C99 1.279 . S
N100 C103 1.314 . S
C101 C98 1.348 . S
C101 C103 1.353 . S
C101 H157 0.929 . S
C102 C98 1.356 . S
C102 C99 1.358 . S
C102 H158 0.930 . S
C103 N100 1.314 . S
C103 C101 1.353 . S
C103 H159 0.930 . S
C104 N105 1.314 1_655 S
C104 C109 1.353 . S
C104 H110 0.930 . S
N105 Li88 1.990 . S
N105 C104 1.314 1_455 S
N105 C107 1.279 . S
C106 C107 1.358 . S
C106 C108 1.356 . S
C106 H160 0.930 . S
C107 N105 1.279 . S
C107 C106 1.358 . S
C107 H111 0.930 . S
C108 C106 1.356 . S
C108 C109 1.348 1_455 S
C109 C104 1.353 . S
C109 C108 1.348 1_655 S
C109 H161 0.929 . S
H110 C104 0.930 . S
H111 C107 0.930 . S
C112 N113 1.314 . S
C112 C114 1.353 . S
C112 H118 0.930 . S
N113 Li89 1.990 . S
N113 C112 1.314 . S
N113 C116 1.279 . S
C114 C112 1.353 . S
C114 C117 1.348 . S
C114 H162 0.929 . S
C115 C116 1.358 . S
C115 C117 1.356 . S
C115 H163 0.930 . S
C116 N113 1.279 . S
C116 C115 1.358 . S
C116 H119 0.930 . S
C117 C114 1.348 . S
C117 C115 1.356 . S
H118 C112 0.930 . S
H119 C116 0.930 . S
C120 C122 1.348 . S
C120 C123 1.356 . S
C120 O150 1.325 . S
N121 C124 1.314 . S
N121 C125 1.279 . S
C122 C120 1.348 . S
C122 C124 1.353 . S
C122 H164 0.929 . S
C123 C120 1.356 . S
C123 C125 1.358 . S
C123 H165 0.930 . S
C124 N121 1.314 . S
C124 C122 1.353 . S
C124 H166 0.930 . S
C125 N121 1.279 . S
C125 C123 1.358 . S
C125 H167 0.930 . S
C126 C127 1.348 1_455 S
C126 C128 1.356 . S
C126 O151 1.325 . S
C127 C126 1.348 1_655 S
C127 C129 1.353 . S
C127 H168 0.929 . S
C128 C126 1.356 . S
C128 C130 1.358 . S
C128 H169 0.930 . S
C129 C127 1.353 . S
C129 N131 1.314 . S
C129 H170 0.930 . S
C130 C128 1.358 . S
C130 N131 1.279 1_455 S
C130 H171 0.930 . S
N131 C129 1.314 . S
N131 C130 1.279 1_655 S
C132 C134 1.353 . S
C132 N135 1.314 1_455 S
C132 H138 0.930 . S
C133 N135 1.279 . S
C133 C136 1.358 . S
C133 H139 0.930 . S
C134 C132 1.353 . S
C134 C137 1.348 1_455 S
C134 H172 0.929 . S
N135 Li90 1.990 1_655 S
N135 C132 1.314 1_655 S
N135 C133 1.279 . S
C136 C133 1.358 . S
C136 C137 1.356 . S
C136 H173 0.930 . S
C137 C134 1.348 1_655 S
C137 C136 1.356 . S
H138 C132 0.930 . S
H139 C133 0.930 . S
C140 N141 1.314 . S
C140 C142 1.353 . S
C140 H146 0.930 . S
N141 Li91 1.990 . S
N141 C140 1.314 . S
N141 C144 1.279 . S
C142 C140 1.353 . S
C142 C145 1.348 . S
C142 H174 0.929 . S
C143 C144 1.358 . S
C143 C145 1.356 . S
C143 H175 0.930 . S
C144 N141 1.279 . S
C144 C143 1.358 . S
C144 H147 0.930 . S
C145 C142 1.348 . S
C145 C143 1.356 . S
H146 C140 0.930 . S
H147 C144 0.930 . S
O148 Li88 1.956 . S
O148 Li89 1.970 . S
O148 Li90 1.961 . S
O148 C92 1.325 . S
O149 Li88 1.970 . S
O149 Li89 1.956 . S
O149 Li91 1.961 1_455 S
O149 C98 1.325 . S
O150 Li88 1.961 1_655 S
O150 Li90 1.956 1_655 S
O150 Li91 1.970 . S
O150 C120 1.325 . S
O151 Li89 1.961 . S
O151 Li90 1.970 . S
O151 Li91 1.956 1_455 S
O151 C126 1.325 . S
H152 C94 0.929 . S
H153 C95 0.930 . S
H154 C96 0.930 . S
H155 C97 0.930 . S
H156 C99 0.930 . S
H157 C101 0.929 . S
H158 C102 0.930 . S
H159 C103 0.930 . S
H160 C106 0.930 . S
H161 C109 0.929 . S
H162 C114 0.929 . S
H163 C115 0.930 . S
H164 C122 0.929 . S
H165 C123 0.930 . S
H166 C124 0.930 . S
H167 C125 0.930 . S
H168 C127 0.929 . S
H169 C128 0.930 . S
H170 C129 0.930 . S
H171 C130 0.930 . S
H172 C134 0.929 . S
H173 C136 0.930 . S
H174 C142 0.929 . S
H175 C143 0.930 . S
Li176 N193 1.990 . S
Li176 O236 1.956 . S
Li176 O237 1.970 . S
Li176 O238 1.961 . S
Li177 N201 1.990 . S
Li177 O236 1.970 . S
Li177 O237 1.956 . S
Li177 O239 1.961 . S
Li178 N223 1.990 . S
Li178 O236 1.961 . S
Li178 O238 1.956 . S
Li178 O239 1.970 . S
Li179 N229 1.990 . S
Li179 O237 1.961 . S
Li179 O238 1.970 . S
Li179 O239 1.956 . S
C180 C182 1.348 . S
C180 C183 1.356 . S
C180 O236 1.325 . S
N181 C184 1.314 . S
N181 C185 1.279 . S
C182 C180 1.348 . S
C182 C184 1.353 . S
C182 H240 0.929 . S
C183 C180 1.356 . S
C183 C185 1.358 . S
C183 H241 0.930 . S
C184 N181 1.314 . S
C184 C182 1.353 . S
C184 H242 0.930 . S
C185 N181 1.279 . S
C185 C183 1.358 . S
C185 H243 0.930 . S
C186 C189 1.348 . S
C186 C190 1.356 . S
C186 O237 1.325 . S
C187 N188 1.279 . S
C187 C190 1.358 . S
C187 H244 0.930 . S
N188 C187 1.279 . S
N188 C191 1.314 . S
C189 C186 1.348 . S
C189 C191 1.353 . S
C189 H245 0.929 . S
C190 C186 1.356 . S
C190 C187 1.358 . S
C190 H246 0.930 . S
C191 N188 1.314 . S
C191 C189 1.353 . S
C191 H247 0.930 . S
C192 N193 1.314 . S
C192 C197 1.353 . S
C192 H198 0.930 . S
N193 Li176 1.990 . S
N193 C192 1.314 . S
N193 C195 1.279 . S
C194 C195 1.358 . S
C194 C196 1.356 . S
C194 H248 0.930 . S
C195 N193 1.279 . S
C195 C194 1.358 . S
C195 H199 0.930 . S
C196 C194 1.356 . S
C196 C197 1.348 . S
C197 C192 1.353 . S
C197 C196 1.348 . S
C197 H249 0.929 . S
H198 C192 0.930 . S
H199 C195 0.930 . S
C200 N201 1.314 . S
C200 C202 1.353 . S
C200 H206 0.930 . S
N201 Li177 1.990 . S
N201 C200 1.314 . S
N201 C204 1.279 . S
C202 C200 1.353 . S
C202 C205 1.348 . S
C202 H250 0.929 . S
C203 C204 1.358 . S
C203 C205 1.356 . S
C203 H251 0.930 . S
C204 N201 1.279 . S
C204 C203 1.358 . S
C204 H207 0.930 . S
C205 C202 1.348 . S
C205 C203 1.356 . S
H206 C200 0.930 . S
H207 C204 0.930 . S
C208 C210 1.348 . S
C208 C211 1.356 . S
C208 O238 1.325 . S
N209 C212 1.314 . S
N209 C213 1.279 . S
C210 C208 1.348 . S
C210 C212 1.353 . S
C210 H252 0.929 . S
C211 C208 1.356 . S
C211 C213 1.358 . S
C211 H253 0.930 . S
C212 N209 1.314 . S
C212 C210 1.353 . S
C212 H254 0.930 . S
C213 N209 1.279 . S
C213 C211 1.358 . S
C213 H255 0.930 . S
C214 C215 1.348 . S
C214 C216 1.356 . S
C214 O239 1.325 . S
C215 C214 1.348 . S
C215 C217 1.353 . S
C215 H256 0.929 . S
C216 C214 1.356 . S
C216 C218 1.358 . S
C216 H257 0.930 . S
C217 C215 1.353 . S
C217 N219 1.314 . S
C217 H258 0.930 . S
C218 C216 1.358 . S
C218 N219 1.279 . S
C218 H259 0.930 . S
N219 C217 1.314 . S
N219 C218 1.279 . S
C220 C222 1.353 . S
C220 N223 1.314 . S
C220 H226 0.930 . S
C221 N223 1.279 . S
C221 C224 1.358 . S
C221 H227 0.930 . S
C222 C220 1.353 . S
C222 C225 1.348 . S
C222 H260 0.929 . S
N223 Li178 1.990 . S
N223 C220 1.314 . S
N223 C221 1.279 . S
C224 C221 1.358 . S
C224 C225 1.356 . S
C224 H261 0.930 . S
C225 C222 1.348 . S
C225 C224 1.356 . S
H226 C220 0.930 . S
H227 C221 0.930 . S
C228 N229 1.314 . S
C228 C230 1.353 . S
C228 H234 0.930 . S
N229 Li179 1.990 . S
N229 C228 1.314 . S
N229 C232 1.279 . S
C230 C228 1.353 . S
C230 C233 1.348 . S
C230 H262 0.929 . S
C231 C232 1.358 . S
C231 C233 1.356 . S
C231 H263 0.930 . S
C232 N229 1.279 . S
C232 C231 1.358 . S
C232 H235 0.930 . S
C233 C230 1.348 . S
C233 C231 1.356 . S
H234 C228 0.930 . S
H235 C232 0.930 . S
O236 Li176 1.956 . S
O236 Li177 1.970 . S
O236 Li178 1.961 . S
O236 C180 1.325 . S
O237 Li176 1.970 . S
O237 Li177 1.956 . S
O237 Li179 1.961 . S
O237 C186 1.325 . S
O238 Li176 1.961 . S
O238 Li178 1.956 . S
O238 Li179 1.970 . S
O238 C208 1.325 . S
O239 Li177 1.961 . S
O239 Li178 1.970 . S
O239 Li179 1.956 . S
O239 C214 1.325 . S
H240 C182 0.929 . S
H241 C183 0.930 . S
H242 C184 0.930 . S
H243 C185 0.930 . S
H244 C187 0.930 . S
H245 C189 0.929 . S
H246 C190 0.930 . S
H247 C191 0.930 . S
H248 C194 0.930 . S
H249 C197 0.929 . S
H250 C202 0.929 . S
H251 C203 0.930 . S
H252 C210 0.929 . S
H253 C211 0.930 . S
H254 C212 0.930 . S
H255 C213 0.930 . S
H256 C215 0.929 . S
H257 C216 0.930 . S
H258 C217 0.930 . S
H259 C218 0.930 . S
H260 C222 0.929 . S
H261 C224 0.930 . S
H262 C230 0.929 . S
H263 C231 0.930 . S
Li264 N281 1.990 . S
Li264 O324 1.956 . S
Li264 O325 1.970 . S
Li264 O326 1.961 . S
Li265 N289 1.990 . S
Li265 O324 1.970 . S
Li265 O325 1.956 . S
Li265 O327 1.961 . S
Li266 N311 1.990 . S
Li266 O324 1.961 . S
Li266 O326 1.956 . S
Li266 O327 1.970 . S
Li267 N317 1.990 . S
Li267 O325 1.961 . S
Li267 O326 1.970 . S
Li267 O327 1.956 . S
C268 C270 1.348 . S
C268 C271 1.356 . S
C268 O324 1.325 . S
N269 C272 1.314 . S
N269 C273 1.279 . S
C270 C268 1.348 . S
C270 C272 1.353 . S
C270 H328 0.929 . S
C271 C268 1.356 . S
C271 C273 1.358 . S
C271 H329 0.930 . S
C272 N269 1.314 . S
C272 C270 1.353 . S
C272 H330 0.930 . S
C273 N269 1.279 . S
C273 C271 1.358 . S
C273 H331 0.930 . S
C274 C277 1.348 . S
C274 C278 1.356 . S
C274 O325 1.325 . S
C275 N276 1.279 . S
C275 C278 1.358 . S
C275 H332 0.930 . S
N276 C275 1.279 . S
N276 C279 1.314 . S
C277 C274 1.348 . S
C277 C279 1.353 . S
C277 H333 0.929 . S
C278 C274 1.356 . S
C278 C275 1.358 . S
C278 H334 0.930 . S
C279 N276 1.314 . S
C279 C277 1.353 . S
C279 H335 0.930 . S
C280 N281 1.314 . S
C280 C285 1.353 . S
C280 H286 0.930 . S
N281 Li264 1.990 . S
N281 C280 1.314 . S
N281 C283 1.279 . S
C282 C283 1.358 . S
C282 C284 1.356 . S
C282 H336 0.930 . S
C283 N281 1.279 . S
C283 C282 1.358 . S
C283 H287 0.930 . S
C284 C282 1.356 . S
C284 C285 1.348 . S
C285 C280 1.353 . S
C285 C284 1.348 . S
C285 H337 0.929 . S
H286 C280 0.930 . S
H287 C283 0.930 . S
C288 N289 1.314 . S
C288 C290 1.353 . S
C288 H294 0.930 . S
N289 Li265 1.990 . S
N289 C288 1.314 . S
N289 C292 1.279 . S
C290 C288 1.353 . S
C290 C293 1.348 . S
C290 H338 0.929 . S
C291 C292 1.358 . S
C291 C293 1.356 . S
C291 H339 0.930 . S
C292 N289 1.279 . S
C292 C291 1.358 . S
C292 H295 0.930 . S
C293 C290 1.348 . S
C293 C291 1.356 . S
H294 C288 0.930 . S
H295 C292 0.930 . S
C296 C298 1.348 . S
C296 C299 1.356 . S
C296 O326 1.325 . S
N297 C300 1.314 . S
N297 C301 1.279 . S
C298 C296 1.348 . S
C298 C300 1.353 . S
C298 H340 0.929 . S
C299 C296 1.356 . S
C299 C301 1.358 . S
C299 H341 0.930 . S
C300 N297 1.314 . S
C300 C298 1.353 . S
C300 H342 0.930 . S
C301 N297 1.279 . S
C301 C299 1.358 . S
C301 H343 0.930 . S
C302 C303 1.348 . S
C302 C304 1.356 . S
C302 O327 1.325 . S
C303 C302 1.348 . S
C303 C305 1.353 . S
C303 H344 0.929 . S
C304 C302 1.356 . S
C304 C306 1.358 . S
C304 H345 0.930 . S
C305 C303 1.353 . S
C305 N307 1.314 . S
C305 H346 0.930 . S
C306 C304 1.358 . S
C306 N307 1.279 . S
C306 H347 0.930 . S
N307 C305 1.314 . S
N307 C306 1.279 . S
C308 C310 1.353 . S
C308 N311 1.314 . S
C308 H314 0.930 . S
C309 N311 1.279 . S
C309 C312 1.358 . S
C309 H315 0.930 . S
C310 C308 1.353 . S
C310 C313 1.348 . S
C310 H348 0.929 . S
N311 Li266 1.990 . S
N311 C308 1.314 . S
N311 C309 1.279 . S
C312 C309 1.358 . S
C312 C313 1.356 . S
C312 H349 0.930 . S
C313 C310 1.348 . S
C313 C312 1.356 . S
H314 C308 0.930 . S
H315 C309 0.930 . S
C316 N317 1.314 . S
C316 C318 1.353 . S
C316 H322 0.930 . S
N317 Li267 1.990 . S
N317 C316 1.314 . S
N317 C320 1.279 . S
C318 C316 1.353 . S
C318 C321 1.348 . S
C318 H350 0.929 . S
C319 C320 1.358 . S
C319 C321 1.356 . S
C319 H351 0.930 . S
C320 N317 1.279 . S
C320 C319 1.358 . S
C320 H323 0.930 . S
C321 C318 1.348 . S
C321 C319 1.356 . S
H322 C316 0.930 . S
H323 C320 0.930 . S
O324 Li264 1.956 . S
O324 Li265 1.970 . S
O324 Li266 1.961 . S
O324 C268 1.325 . S
O325 Li264 1.970 . S
O325 Li265 1.956 . S
O325 Li267 1.961 . S
O325 C274 1.325 . S
O326 Li264 1.961 . S
O326 Li266 1.956 . S
O326 Li267 1.970 . S
O326 C296 1.325 . S
O327 Li265 1.961 . S
O327 Li266 1.970 . S
O327 Li267 1.956 . S
O327 C302 1.325 . S
H328 C270 0.929 . S
H329 C271 0.930 . S
H330 C272 0.930 . S
H331 C273 0.930 . S
H332 C275 0.930 . S
H333 C277 0.929 . S
H334 C278 0.930 . S
H335 C279 0.930 . S
H336 C282 0.930 . S
H337 C285 0.929 . S
H338 C290 0.929 . S
H339 C291 0.930 . S
H340 C298 0.929 . S
H341 C299 0.930 . S
H342 C300 0.930 . S
H343 C301 0.930 . S
H344 C303 0.929 . S
H345 C304 0.930 . S
H346 C305 0.930 . S
H347 C306 0.930 . S
H348 C310 0.929 . S
H349 C312 0.930 . S
H350 C318 0.929 . S
H351 C319 0.930 . S
Li352 N369 1.990 . S
Li352 O412 1.956 . S
Li352 O413 1.970 . S
Li352 O414 1.961 1_455 S
Li353 N377 1.990 . S
Li353 O412 1.970 . S
Li353 O413 1.956 . S
Li353 O415 1.961 . S
Li354 N399 1.990 . S
Li354 O412 1.961 . S
Li354 O414 1.956 1_455 S
Li354 O415 1.970 . S
Li355 N405 1.990 1_455 S
Li355 O413 1.961 . S
Li355 O414 1.970 1_455 S
Li355 O415 1.956 . S
C356 C358 1.348 . S
C356 C359 1.356 . S
C356 O412 1.325 . S
N357 C360 1.314 . S
N357 C361 1.279 . S
C358 C356 1.348 . S
C358 C360 1.353 . S
C358 H416 0.929 . S
C359 C356 1.356 . S
C359 C361 1.358 . S
C359 H417 0.930 . S
C360 N357 1.314 . S
C360 C358 1.353 . S
C360 H418 0.930 . S
C361 N357 1.279 . S
C361 C359 1.358 . S
C361 H419 0.930 . S
C362 C365 1.348 . S
C362 C366 1.356 . S
C362 O413 1.325 . S
C363 N364 1.279 . S
C363 C366 1.358 . S
C363 H420 0.930 . S
N364 C363 1.279 . S
N364 C367 1.314 . S
C365 C362 1.348 . S
C365 C367 1.353 . S
C365 H421 0.929 . S
C366 C362 1.356 . S
C366 C363 1.358 . S
C366 H422 0.930 . S
C367 N364 1.314 . S
C367 C365 1.353 . S
C367 H423 0.930 . S
C368 N369 1.314 . S
C368 C373 1.353 . S
C368 H374 0.930 1_455 S
N369 Li352 1.990 . S
N369 C368 1.314 . S
N369 C371 1.279 . S
C370 C371 1.358 . S
C370 C372 1.356 . S
C370 H424 0.930 . S
C371 N369 1.279 . S
C371 C370 1.358 . S
C371 H375 0.930 . S
C372 C370 1.356 . S
C372 C373 1.348 . S
C373 C368 1.353 . S
C373 C372 1.348 . S
C373 H425 0.929 1_455 S
H374 C368 0.930 1_655 S
H375 C371 0.930 . S
C376 N377 1.314 . S
C376 C378 1.353 . S
C376 H382 0.930 . S
N377 Li353 1.990 . S
N377 C376 1.314 . S
N377 C380 1.279 . S
C378 C376 1.353 . S
C378 C381 1.348 . S
C378 H426 0.929 . S
C379 C380 1.358 . S
C379 C381 1.356 . S
C379 H427 0.930 . S
C380 N377 1.279 . S
C380 C379 1.358 . S
C380 H383 0.930 . S
C381 C378 1.348 . S
C381 C379 1.356 . S
H382 C376 0.930 . S
H383 C380 0.930 . S
C384 C386 1.348 . S
C384 C387 1.356 . S
C384 O414 1.325 . S
N385 C388 1.314 . S
N385 C389 1.279 . S
C386 C384 1.348 . S
C386 C388 1.353 . S
C386 H428 0.929 . S
C387 C384 1.356 . S
C387 C389 1.358 . S
C387 H429 0.930 . S
C388 N385 1.314 . S
C388 C386 1.353 . S
C388 H430 0.930 . S
C389 N385 1.279 . S
C389 C387 1.358 . S
C389 H431 0.930 . S
C390 C391 1.348 . S
C390 C392 1.356 . S
C390 O415 1.325 . S
C391 C390 1.348 . S
C391 C393 1.353 . S
C391 H432 0.929 . S
C392 C390 1.356 . S
C392 C394 1.358 . S
C392 H433 0.930 . S
C393 C391 1.353 . S
C393 N395 1.314 . S
C393 H434 0.930 . S
C394 C392 1.358 . S
C394 N395 1.279 . S
C394 H435 0.930 . S
N395 C393 1.314 . S
N395 C394 1.279 . S
C396 C398 1.353 . S
C396 N399 1.314 . S
C396 H402 0.930 . S
C397 N399 1.279 1_655 S
C397 C400 1.358 . S
C397 H403 0.930 . S
C398 C396 1.353 . S
C398 C401 1.348 . S
C398 H436 0.929 . S
N399 Li354 1.990 . S
N399 C396 1.314 . S
N399 C397 1.279 1_455 S
C400 C397 1.358 . S
C400 C401 1.356 1_655 S
C400 H437 0.930 . S
C401 C398 1.348 . S
C401 C400 1.356 1_455 S
H402 C396 0.930 . S
H403 C397 0.930 . S
C404 N405 1.314 . S
C404 C406 1.353 . S
C404 H410 0.930 . S
N405 Li355 1.990 1_655 S
N405 C404 1.314 . S
N405 C408 1.279 . S
C406 C404 1.353 . S
C406 C409 1.348 . S
C406 H438 0.929 . S
C407 C408 1.358 . S
C407 C409 1.356 . S
C407 H439 0.930 . S
C408 N405 1.279 . S
C408 C407 1.358 . S
C408 H411 0.930 . S
C409 C406 1.348 . S
C409 C407 1.356 . S
H410 C404 0.930 . S
H411 C408 0.930 . S
O412 Li352 1.956 . S
O412 Li353 1.970 . S
O412 Li354 1.961 . S
O412 C356 1.325 . S
O413 Li352 1.970 . S
O413 Li353 1.956 . S
O413 Li355 1.961 . S
O413 C362 1.325 . S
O414 Li352 1.961 1_655 S
O414 Li354 1.956 1_655 S
O414 Li355 1.970 1_655 S
O414 C384 1.325 . S
O415 Li353 1.961 . S
O415 Li354 1.970 . S
O415 Li355 1.956 . S
O415 C390 1.325 . S
H416 C358 0.929 . S
H417 C359 0.930 . S
H418 C360 0.930 . S
H419 C361 0.930 . S
H420 C363 0.930 . S
H421 C365 0.929 . S
H422 C366 0.930 . S
H423 C367 0.930 . S
H424 C370 0.930 . S
H425 C373 0.929 1_655 S
H426 C378 0.929 . S
H427 C379 0.930 . S
H428 C386 0.929 . S
H429 C387 0.930 . S
H430 C388 0.930 . S
H431 C389 0.930 . S
H432 C391 0.929 . S
H433 C392 0.930 . S
H434 C393 0.930 . S
H435 C394 0.930 . S
H436 C398 0.929 . S
H437 C400 0.930 . S
H438 C406 0.929 . S
H439 C407 0.930 . S
Li440 N457 1.990 . S
Li440 O500 1.956 . S
Li440 O501 1.970 . S
Li440 O502 1.961 . S
Li441 N465 1.990 . S
Li441 O500 1.970 . S
Li441 O501 1.956 . S
Li441 O503 1.961 . S
Li442 N487 1.990 . S
Li442 O500 1.961 . S
Li442 O502 1.956 . S
Li442 O503 1.970 . S
Li443 N493 1.990 . S
Li443 O501 1.961 . S
Li443 O502 1.970 . S
Li443 O503 1.956 . S
C444 C446 1.348 . S
C444 C447 1.356 . S
C444 O500 1.325 . S
N445 C448 1.314 . S
N445 C449 1.279 . S
C446 C444 1.348 . S
C446 C448 1.353 . S
C446 H504 0.929 . S
C447 C444 1.356 . S
C447 C449 1.358 . S
C447 H505 0.930 . S
C448 N445 1.314 . S
C448 C446 1.353 . S
C448 H506 0.930 . S
C449 N445 1.279 . S
C449 C447 1.358 . S
C449 H507 0.930 . S
C450 C453 1.348 . S
C450 C454 1.356 . S
C450 O501 1.325 . S
C451 N452 1.279 . S
C451 C454 1.358 . S
C451 H508 0.930 . S
N452 C451 1.279 . S
N452 C455 1.314 . S
C453 C450 1.348 . S
C453 C455 1.353 . S
C453 H509 0.929 . S
C454 C450 1.356 . S
C454 C451 1.358 . S
C454 H510 0.930 . S
C455 N452 1.314 . S
C455 C453 1.353 . S
C455 H511 0.930 . S
C456 N457 1.314 . S
C456 C461 1.353 . S
C456 H462 0.930 . S
N457 Li440 1.990 . S
N457 C456 1.314 . S
N457 C459 1.279 . S
C458 C459 1.358 . S
C458 C460 1.356 . S
C458 H512 0.930 . S
C459 N457 1.279 . S
C459 C458 1.358 . S
C459 H463 0.930 . S
C460 C458 1.356 . S
C460 C461 1.348 . S
C461 C456 1.353 . S
C461 C460 1.348 . S
C461 H513 0.929 . S
H462 C456 0.930 . S
H463 C459 0.930 . S
C464 N465 1.314 . S
C464 C466 1.353 . S
C464 H470 0.930 . S
N465 Li441 1.990 . S
N465 C464 1.314 . S
N465 C468 1.279 . S
C466 C464 1.353 . S
C466 C469 1.348 . S
C466 H514 0.929 . S
C467 C468 1.358 . S
C467 C469 1.356 . S
C467 H515 0.930 . S
C468 N465 1.279 . S
C468 C467 1.358 . S
C468 H471 0.930 . S
C469 C466 1.348 . S
C469 C467 1.356 . S
H470 C464 0.930 . S
H471 C468 0.930 . S
C472 C474 1.348 . S
C472 C475 1.356 . S
C472 O502 1.325 . S
N473 C476 1.314 . S
N473 C477 1.279 . S
C474 C472 1.348 . S
C474 C476 1.353 . S
C474 H516 0.929 . S
C475 C472 1.356 . S
C475 C477 1.358 . S
C475 H517 0.930 . S
C476 N473 1.314 . S
C476 C474 1.353 . S
C476 H518 0.930 . S
C477 N473 1.279 . S
C477 C475 1.358 . S
C477 H519 0.930 . S
C478 C479 1.348 . S
C478 C480 1.356 . S
C478 O503 1.325 . S
C479 C478 1.348 . S
C479 C481 1.353 . S
C479 H520 0.929 . S
C480 C478 1.356 . S
C480 C482 1.358 . S
C480 H521 0.930 . S
C481 C479 1.353 . S
C481 N483 1.314 . S
C481 H522 0.930 . S
C482 C480 1.358 . S
C482 N483 1.279 . S
C482 H523 0.930 . S
N483 C481 1.314 . S
N483 C482 1.279 . S
C484 C486 1.353 . S
C484 N487 1.314 . S
C484 H490 0.930 . S
C485 N487 1.279 . S
C485 C488 1.358 . S
C485 H491 0.930 . S
C486 C484 1.353 . S
C486 C489 1.348 . S
C486 H524 0.929 . S
N487 Li442 1.990 . S
N487 C484 1.314 . S
N487 C485 1.279 . S
C488 C485 1.358 . S
C488 C489 1.356 . S
C488 H525 0.930 . S
C489 C486 1.348 . S
C489 C488 1.356 . S
H490 C484 0.930 . S
H491 C485 0.930 . S
C492 N493 1.314 . S
C492 C494 1.353 . S
C492 H498 0.930 . S
N493 Li443 1.990 . S
N493 C492 1.314 . S
N493 C496 1.279 . S
C494 C492 1.353 . S
C494 C497 1.348 . S
C494 H526 0.929 . S
C495 C496 1.358 . S
C495 C497 1.356 . S
C495 H527 0.930 . S
C496 N493 1.279 . S
C496 C495 1.358 . S
C496 H499 0.930 . S
C497 C494 1.348 . S
C497 C495 1.356 . S
H498 C492 0.930 . S
H499 C496 0.930 . S
O500 Li440 1.956 . S
O500 Li441 1.970 . S
O500 Li442 1.961 . S
O500 C444 1.325 . S
O501 Li440 1.970 . S
O501 Li441 1.956 . S
O501 Li443 1.961 . S
O501 C450 1.325 . S
O502 Li440 1.961 . S
O502 Li442 1.956 . S
O502 Li443 1.970 . S
O502 C472 1.325 . S
O503 Li441 1.961 . S
O503 Li442 1.970 . S
O503 Li443 1.956 . S
O503 C478 1.325 . S
H504 C446 0.929 . S
H505 C447 0.930 . S
H506 C448 0.930 . S
H507 C449 0.930 . S
H508 C451 0.930 . S
H509 C453 0.929 . S
H510 C454 0.930 . S
H511 C455 0.930 . S
H512 C458 0.930 . S
H513 C461 0.929 . S
H514 C466 0.929 . S
H515 C467 0.930 . S
H516 C474 0.929 . S
H517 C475 0.930 . S
H518 C476 0.930 . S
H519 C477 0.930 . S
H520 C479 0.929 . S
H521 C480 0.930 . S
H522 C481 0.930 . S
H523 C482 0.930 . S
H524 C486 0.929 . S
H525 C488 0.930 . S
H526 C494 0.929 . S
H527 C495 0.930 . S
Li528 N545 1.990 . S
Li528 O588 1.956 . S
Li528 O589 1.970 . S
Li528 O590 1.961 . S
Li529 N553 1.990 . S
Li529 O588 1.970 . S
Li529 O589 1.956 . S
Li529 O591 1.961 . S
Li530 N575 1.990 . S
Li530 O588 1.961 . S
Li530 O590 1.956 . S
Li530 O591 1.970 . S
Li531 N581 1.990 . S
Li531 O589 1.961 . S
Li531 O590 1.970 . S
Li531 O591 1.956 . S
C532 C534 1.348 . S
C532 C535 1.356 . S
C532 O588 1.325 . S
N533 C536 1.314 . S
N533 C537 1.279 . S
C534 C532 1.348 . S
C534 C536 1.353 . S
C534 H592 0.929 . S
C535 C532 1.356 . S
C535 C537 1.358 . S
C535 H593 0.930 . S
C536 N533 1.314 . S
C536 C534 1.353 . S
C536 H594 0.930 . S
C537 N533 1.279 . S
C537 C535 1.358 . S
C537 H595 0.930 . S
C538 C541 1.348 . S
C538 C542 1.356 . S
C538 O589 1.325 . S
C539 N540 1.279 . S
C539 C542 1.358 . S
C539 H596 0.930 . S
N540 C539 1.279 . S
N540 C543 1.314 . S
C541 C538 1.348 . S
C541 C543 1.353 . S
C541 H597 0.929 . S
C542 C538 1.356 . S
C542 C539 1.358 . S
C542 H598 0.930 . S
C543 N540 1.314 . S
C543 C541 1.353 . S
C543 H599 0.930 . S
C544 N545 1.314 . S
C544 C549 1.353 . S
C544 H550 0.930 . S
N545 Li528 1.990 . S
N545 C544 1.314 . S
N545 C547 1.279 . S
C546 C547 1.358 . S
C546 C548 1.356 . S
C546 H600 0.930 . S
C547 N545 1.279 . S
C547 C546 1.358 . S
C547 H551 0.930 . S
C548 C546 1.356 . S
C548 C549 1.348 . S
C549 C544 1.353 . S
C549 C548 1.348 . S
C549 H601 0.929 . S
H550 C544 0.930 . S
H551 C547 0.930 . S
C552 N553 1.314 . S
C552 C554 1.353 . S
C552 H558 0.930 . S
N553 Li529 1.990 . S
N553 C552 1.314 . S
N553 C556 1.279 . S
C554 C552 1.353 . S
C554 C557 1.348 . S
C554 H602 0.929 . S
C555 C556 1.358 . S
C555 C557 1.356 . S
C555 H603 0.930 . S
C556 N553 1.279 . S
C556 C555 1.358 . S
C556 H559 0.930 . S
C557 C554 1.348 . S
C557 C555 1.356 . S
H558 C552 0.930 . S
H559 C556 0.930 . S
C560 C562 1.348 . S
C560 C563 1.356 . S
C560 O590 1.325 . S
N561 C564 1.314 . S
N561 C565 1.279 . S
C562 C560 1.348 . S
C562 C564 1.353 . S
C562 H604 0.929 . S
C563 C560 1.356 . S
C563 C565 1.358 . S
C563 H605 0.930 . S
C564 N561 1.314 . S
C564 C562 1.353 . S
C564 H606 0.930 . S
C565 N561 1.279 . S
C565 C563 1.358 . S
C565 H607 0.930 . S
C566 C567 1.348 . S
C566 C568 1.356 . S
C566 O591 1.325 . S
C567 C566 1.348 . S
C567 C569 1.353 . S
C567 H608 0.929 . S
C568 C566 1.356 . S
C568 C570 1.358 . S
C568 H609 0.930 . S
C569 C567 1.353 . S
C569 N571 1.314 . S
C569 H610 0.930 . S
C570 C568 1.358 . S
C570 N571 1.279 . S
C570 H611 0.930 . S
N571 C569 1.314 . S
N571 C570 1.279 . S
C572 C574 1.353 . S
C572 N575 1.314 . S
C572 H578 0.930 . S
C573 N575 1.279 . S
C573 C576 1.358 . S
C573 H579 0.930 . S
C574 C572 1.353 . S
C574 C577 1.348 . S
C574 H612 0.929 . S
N575 Li530 1.990 . S
N575 C572 1.314 . S
N575 C573 1.279 . S
C576 C573 1.358 . S
C576 C577 1.356 . S
C576 H613 0.930 . S
C577 C574 1.348 . S
C577 C576 1.356 . S
H578 C572 0.930 . S
H579 C573 0.930 . S
C580 N581 1.314 . S
C580 C582 1.353 . S
C580 H586 0.930 . S
N581 Li531 1.990 . S
N581 C580 1.314 . S
N581 C584 1.279 . S
C582 C580 1.353 . S
C582 C585 1.348 . S
C582 H614 0.929 . S
C583 C584 1.358 . S
C583 C585 1.356 . S
C583 H615 0.930 . S
C584 N581 1.279 . S
C584 C583 1.358 . S
C584 H587 0.930 . S
C585 C582 1.348 . S
C585 C583 1.356 . S
H586 C580 0.930 . S
H587 C584 0.930 . S
O588 Li528 1.956 . S
O588 Li529 1.970 . S
O588 Li530 1.961 . S
O588 C532 1.325 . S
O589 Li528 1.970 . S
O589 Li529 1.956 . S
O589 Li531 1.961 . S
O589 C538 1.325 . S
O590 Li528 1.961 . S
O590 Li530 1.956 . S
O590 Li531 1.970 . S
O590 C560 1.325 . S
O591 Li529 1.961 . S
O591 Li530 1.970 . S
O591 Li531 1.956 . S
O591 C566 1.325 . S
H592 C534 0.929 . S
H593 C535 0.930 . S
H594 C536 0.930 . S
H595 C537 0.930 . S
H596 C539 0.930 . S
H597 C541 0.929 . S
H598 C542 0.930 . S
H599 C543 0.930 . S
H600 C546 0.930 . S
H601 C549 0.929 . S
H602 C554 0.929 . S
H603 C555 0.930 . S
H604 C562 0.929 . S
H605 C563 0.930 . S
H606 C564 0.930 . S
H607 C565 0.930 . S
H608 C567 0.929 . S
H609 C568 0.930 . S
H610 C569 0.930 . S
H611 C570 0.930 . S
H612 C574 0.929 . S
H613 C576 0.930 . S
H614 C582 0.929 . S
H615 C583 0.930 . S
Li616 N633 1.990 . S
Li616 O676 1.956 1_455 S
Li616 O677 1.970 . S
Li616 O678 1.961 . S
Li617 N641 1.990 . S
Li617 O676 1.970 . S
Li617 O677 1.956 1_655 S
Li617 O679 1.961 . S
Li618 N663 1.989 . S
Li618 O676 1.970 . S
Li618 O678 1.949 1_655 S
Li618 O679 1.971 . S
Li619 N669 1.990 . S
Li619 O677 1.961 . S
Li619 O678 1.970 . S
Li619 O679 1.956 1_455 S
C620 C622 1.348 . S
C620 C623 1.356 . S
C620 O676 1.325 . S
N621 C624 1.314 . S
N621 C625 1.279 . S
C622 C620 1.348 . S
C622 C624 1.353 . S
C622 H680 0.929 . S
C623 C620 1.356 . S
C623 C625 1.358 . S
C623 H681 0.930 . S
C624 N621 1.314 . S
C624 C622 1.353 . S
C624 H682 0.930 . S
C625 N621 1.279 . S
C625 C623 1.358 . S
C625 H683 0.930 . S
C626 C629 1.336 1_455 S
C626 C630 1.356 . S
C626 O677 1.325 . S
C627 N628 1.279 . S
C627 C630 1.358 . S
C627 H684 0.930 . S
N628 C627 1.279 . S
N628 C631 1.321 . S
C629 C626 1.336 1_655 S
C629 C631 1.358 1_655 S
C629 H685 0.940 . S
C630 C626 1.356 . S
C630 C627 1.358 . S
C630 H686 0.930 . S
C631 N628 1.321 . S
C631 C629 1.358 1_455 S
C631 H687 0.921 1_455 S
C632 N633 1.314 . S
C632 C637 1.353 . S
C632 H638 0.930 . S
N633 Li616 1.990 . S
N633 C632 1.314 . S
N633 C635 1.279 1_455 S
C634 C635 1.358 . S
C634 C636 1.356 1_655 S
C634 H688 0.930 . S
C635 N633 1.279 1_655 S
C635 C634 1.358 . S
C635 H639 0.930 . S
C636 C634 1.356 1_455 S
C636 C637 1.348 . S
C637 C632 1.353 . S
C637 C636 1.348 . S
C637 H689 0.929 . S
H638 C632 0.930 . S
H639 C635 0.930 . S
C640 N641 1.314 . S
C640 C642 1.353 . S
C640 H646 0.930 . S
N641 Li617 1.990 . S
N641 C640 1.314 . S
N641 C644 1.279 . S
C642 C640 1.353 . S
C642 C645 1.348 . S
C642 H690 0.929 . S
C643 C644 1.358 . S
C643 C645 1.356 . S
C643 H691 0.930 . S
C644 N641 1.279 . S
C644 C643 1.358 . S
C644 H647 0.930 . S
C645 C642 1.348 . S
C645 C643 1.356 . S
H646 C640 0.930 . S
H647 C644 0.930 . S
C648 C650 1.348 . S
C648 C651 1.356 . S
C648 O678 1.325 . S
N649 C652 1.314 . S
N649 C653 1.279 . S
C650 C648 1.348 . S
C650 C652 1.353 . S
C650 H692 0.929 . S
C651 C648 1.356 . S
C651 C653 1.358 . S
C651 H693 0.930 . S
C652 N649 1.314 . S
C652 C650 1.353 . S
C652 H694 0.930 . S
C653 N649 1.279 . S
C653 C651 1.358 . S
C653 H695 0.930 . S
C654 C655 1.345 1_655 S
C654 C656 1.356 . S
C654 O679 1.325 . S
C655 C654 1.345 1_455 S
C655 C657 1.354 1_455 S
C655 H696 0.931 . S
C656 C654 1.356 . S
C656 C658 1.358 . S
C656 H697 0.930 . S
C657 C655 1.354 1_655 S
C657 N659 1.314 . S
C657 H698 0.919 1_655 S
C658 C656 1.358 . S
C658 N659 1.279 . S
C658 H699 0.930 . S
N659 C657 1.314 . S
N659 C658 1.279 . S
C660 C662 1.353 . S
C660 N663 1.314 . S
C660 H666 0.930 . S
C661 N663 1.279 1_455 S
C661 C664 1.358 . S
C661 H667 0.930 . S
C662 C660 1.353 . S
C662 C665 1.348 . S
C662 H700 0.929 . S
N663 Li618 1.989 . S
N663 C660 1.314 . S
N663 C661 1.279 1_655 S
C664 C661 1.358 . S
C664 C665 1.356 1_455 S
C664 H701 0.930 . S
C665 C662 1.348 . S
C665 C664 1.356 1_655 S
H666 C660 0.930 . S
H667 C661 0.930 . S
C668 N669 1.314 . S
C668 C670 1.353 . S
C668 H674 0.930 . S
N669 Li619 1.990 . S
N669 C668 1.314 . S
N669 C672 1.279 . S
C670 C668 1.353 . S
C670 C673 1.348 . S
C670 H702 0.929 . S
C671 C672 1.358 . S
C671 C673 1.356 . S
C671 H703 0.930 . S
C672 N669 1.279 . S
C672 C671 1.358 . S
C672 H675 0.930 . S
C673 C670 1.348 . S
C673 C671 1.356 . S
H674 C668 0.930 . S
H675 C672 0.930 . S
O676 Li616 1.956 1_655 S
O676 Li617 1.970 . S
O676 Li618 1.970 . S
O676 C620 1.325 . S
O677 Li616 1.970 . S
O677 Li617 1.956 1_455 S
O677 Li619 1.961 . S
O677 C626 1.325 . S
O678 Li616 1.961 . S
O678 Li618 1.949 1_455 S
O678 Li619 1.970 . S
O678 C648 1.325 . S
O679 Li617 1.961 . S
O679 Li618 1.971 . S
O679 Li619 1.956 1_655 S
O679 C654 1.325 . S
H680 C622 0.929 . S
H681 C623 0.930 . S
H682 C624 0.930 . S
H683 C625 0.930 . S
H684 C627 0.930 . S
H685 C629 0.940 . S
H686 C630 0.930 . S
H687 C631 0.921 1_655 S
H688 C634 0.930 . S
H689 C637 0.929 . S
H690 C642 0.929 . S
H691 C643 0.930 . S
H692 C650 0.929 . S
H693 C651 0.930 . S
H694 C652 0.930 . S
H695 C653 0.930 . S
H696 C655 0.931 . S
H697 C656 0.930 . S
H698 C657 0.919 1_455 S
H699 C658 0.930 . S
H700 C662 0.929 . S
H701 C664 0.930 . S
H702 C670 0.929 . S
H703 C671 0.930 . S
Li704 N721 1.990 . S
Li704 O764 1.956 1_545 S
Li704 O765 1.970 . S
Li704 O766 1.961 . S
Li705 N729 1.990 . S
Li705 O764 1.970 . S
Li705 O765 1.956 1_565 S
Li705 O767 1.961 1_565 S
Li706 N751 1.990 . S
Li706 O764 1.961 1_545 S
Li706 O766 1.956 . S
Li706 O767 1.970 . S
Li707 N757 1.990 . S
Li707 O765 1.961 . S
Li707 O766 1.970 . S
Li707 O767 1.956 . S
C708 C710 1.348 . S
C708 C711 1.356 . S
C708 O764 1.325 . S
N709 C712 1.314 . S
N709 C713 1.279 . S
C710 C708 1.348 . S
C710 C712 1.353 . S
C710 H768 0.929 . S
C711 C708 1.356 . S
C711 C713 1.358 . S
C711 H769 0.930 . S
C712 N709 1.314 . S
C712 C710 1.353 . S
C712 H770 0.930 . S
C713 N709 1.279 . S
C713 C711 1.358 . S
C713 H771 0.930 . S
C714 C717 1.348 . S
C714 C718 1.356 . S
C714 O765 1.325 . S
C715 N716 1.279 . S
C715 C718 1.358 . S
C715 H772 0.930 . S
N716 C715 1.279 . S
N716 C719 1.314 . S
C717 C714 1.348 . S
C717 C719 1.353 . S
C717 H773 0.929 . S
C718 C714 1.356 . S
C718 C715 1.358 . S
C718 H774 0.930 . S
C719 N716 1.314 . S
C719 C717 1.353 . S
C719 H775 0.930 . S
C720 N721 1.314 . S
C720 C725 1.353 . S
C720 H726 0.930 . S
N721 Li704 1.990 . S
N721 C720 1.314 . S
N721 C723 1.279 . S
C722 C723 1.358 . S
C722 C724 1.356 . S
C722 H776 0.930 1_545 S
C723 N721 1.279 . S
C723 C722 1.358 . S
C723 H727 0.930 1_545 S
C724 C722 1.356 . S
C724 C725 1.348 . S
C725 C720 1.353 . S
C725 C724 1.348 . S
C725 H777 0.929 . S
H726 C720 0.930 . S
H727 C723 0.930 1_565 S
C728 N729 1.314 . S
C728 C730 1.353 . S
C728 H734 0.930 . S
N729 Li705 1.990 . S
N729 C728 1.314 . S
N729 C732 1.279 . S
C730 C728 1.353 . S
C730 C733 1.348 . S
C730 H778 0.929 . S
C731 C732 1.358 . S
C731 C733 1.356 . S
C731 H779 0.930 . S
C732 N729 1.279 . S
C732 C731 1.358 . S
C732 H735 0.930 . S
C733 C730 1.348 . S
C733 C731 1.356 . S
H734 C728 0.930 . S
H735 C732 0.930 . S
C736 C738 1.348 . S
C736 C739 1.356 . S
C736 O766 1.325 . S
N737 C740 1.314 . S
N737 C741 1.279 . S
C738 C736 1.348 . S
C738 C740 1.353 . S
C738 H780 0.929 . S
C739 C736 1.356 . S
C739 C741 1.358 . S
C739 H781 0.930 . S
C740 N737 1.314 . S
C740 C738 1.353 . S
C740 H782 0.930 . S
C741 N737 1.279 . S
C741 C739 1.358 . S
C741 H783 0.930 . S
C742 C743 1.348 . S
C742 C744 1.356 . S
C742 O767 1.325 . S
C743 C742 1.348 . S
C743 C745 1.353 . S
C743 H784 0.929 . S
C744 C742 1.356 . S
C744 C746 1.358 . S
C744 H785 0.930 . S
C745 C743 1.353 . S
C745 N747 1.314 . S
C745 H786 0.930 . S
C746 C744 1.358 . S
C746 N747 1.279 . S
C746 H787 0.930 1_545 S
N747 C745 1.314 . S
N747 C746 1.279 . S
C748 C750 1.353 . S
C748 N751 1.314 . S
C748 H754 0.930 1_545 S
C749 N751 1.279 . S
C749 C752 1.358 . S
C749 H755 0.930 . S
C750 C748 1.353 . S
C750 C753 1.348 . S
C750 H788 0.929 1_545 S
N751 Li706 1.990 . S
N751 C748 1.314 . S
N751 C749 1.279 . S
C752 C749 1.358 . S
C752 C753 1.356 . S
C752 H789 0.930 . S
C753 C750 1.348 . S
C753 C752 1.356 . S
H754 C748 0.930 1_565 S
H755 C749 0.930 . S
C756 N757 1.314 . S
C756 C758 1.353 . S
C756 H762 0.930 . S
N757 Li707 1.990 . S
N757 C756 1.314 . S
N757 C760 1.279 . S
C758 C756 1.353 . S
C758 C761 1.348 . S
C758 H790 0.929 . S
C759 C760 1.358 . S
C759 C761 1.356 . S
C759 H791 0.930 . S
C760 N757 1.279 . S
C760 C759 1.358 . S
C760 H763 0.930 . S
C761 C758 1.348 . S
C761 C759 1.356 . S
H762 C756 0.930 . S
H763 C760 0.930 . S
O764 Li704 1.956 1_565 S
O764 Li705 1.970 . S
O764 Li706 1.961 1_565 S
O764 C708 1.325 . S
O765 Li704 1.970 . S
O765 Li705 1.956 1_545 S
O765 Li707 1.961 . S
O765 C714 1.325 . S
O766 Li704 1.961 . S
O766 Li706 1.956 . S
O766 Li707 1.970 . S
O766 C736 1.325 . S
O767 Li705 1.961 1_545 S
O767 Li706 1.970 . S
O767 Li707 1.956 . S
O767 C742 1.325 . S
H768 C710 0.929 . S
H769 C711 0.930 . S
H770 C712 0.930 . S
H771 C713 0.930 . S
H772 C715 0.930 . S
H773 C717 0.929 . S
H774 C718 0.930 . S
H775 C719 0.930 . S
H776 C722 0.930 1_565 S
H777 C725 0.929 . S
H778 C730 0.929 . S
H779 C731 0.930 . S
H780 C738 0.929 . S
H781 C739 0.930 . S
H782 C740 0.930 . S
H783 C741 0.930 . S
H784 C743 0.929 . S
H785 C744 0.930 . S
H786 C745 0.930 . S
H787 C746 0.930 1_565 S
H788 C750 0.929 1_565 S
H789 C752 0.930 . S
H790 C758 0.929 . S
H791 C759 0.930 . S
Li792 N809 1.990 . S
Li792 O852 1.956 . S
Li792 O853 1.970 . S
Li792 O854 1.961 . S
Li793 N817 1.990 . S
Li793 O852 1.970 . S
Li793 O853 1.956 . S
Li793 O855 1.961 . S
Li794 N839 1.990 . S
Li794 O852 1.961 . S
Li794 O854 1.956 . S
Li794 O855 1.970 . S
Li795 N845 1.990 . S
Li795 O853 1.961 . S
Li795 O854 1.970 . S
Li795 O855 1.956 . S
C796 C798 1.348 . S
C796 C799 1.356 . S
C796 O852 1.325 . S
N797 C800 1.314 . S
N797 C801 1.279 . S
C798 C796 1.348 . S
C798 C800 1.353 . S
C798 H856 0.929 . S
C799 C796 1.356 . S
C799 C801 1.358 . S
C799 H857 0.930 . S
C800 N797 1.314 . S
C800 C798 1.353 . S
C800 H858 0.930 . S
C801 N797 1.279 . S
C801 C799 1.358 . S
C801 H859 0.930 . S
C802 C805 1.348 . S
C802 C806 1.356 . S
C802 O853 1.325 . S
C803 N804 1.279 . S
C803 C806 1.358 . S
C803 H860 0.930 . S
N804 C803 1.279 . S
N804 C807 1.314 . S
C805 C802 1.348 . S
C805 C807 1.353 . S
C805 H861 0.929 . S
C806 C802 1.356 . S
C806 C803 1.358 . S
C806 H862 0.930 . S
C807 N804 1.314 . S
C807 C805 1.353 . S
C807 H863 0.930 . S
C808 N809 1.314 . S
C808 C813 1.353 . S
C808 H814 0.930 . S
N809 Li792 1.990 . S
N809 C808 1.314 . S
N809 C811 1.279 . S
C810 C811 1.358 . S
C810 C812 1.356 . S
C810 H864 0.930 . S
C811 N809 1.279 . S
C811 C810 1.358 . S
C811 H815 0.930 . S
C812 C810 1.356 . S
C812 C813 1.348 . S
C813 C808 1.353 . S
C813 C812 1.348 . S
C813 H865 0.929 . S
H814 C808 0.930 . S
H815 C811 0.930 . S
C816 N817 1.314 . S
C816 C818 1.353 . S
C816 H822 0.930 . S
N817 Li793 1.990 . S
N817 C816 1.314 . S
N817 C820 1.279 . S
C818 C816 1.353 . S
C818 C821 1.348 . S
C818 H866 0.929 . S
C819 C820 1.358 . S
C819 C821 1.356 . S
C819 H867 0.930 . S
C820 N817 1.279 . S
C820 C819 1.358 . S
C820 H823 0.930 . S
C821 C818 1.348 . S
C821 C819 1.356 . S
H822 C816 0.930 . S
H823 C820 0.930 . S
C824 C826 1.348 . S
C824 C827 1.356 . S
C824 O854 1.325 . S
N825 C828 1.314 . S
N825 C829 1.279 . S
C826 C824 1.348 . S
C826 C828 1.353 . S
C826 H868 0.929 . S
C827 C824 1.356 . S
C827 C829 1.358 . S
C827 H869 0.930 . S
C828 N825 1.314 . S
C828 C826 1.353 . S
C828 H870 0.930 . S
C829 N825 1.279 . S
C829 C827 1.358 . S
C829 H871 0.930 . S
C830 C831 1.348 . S
C830 C832 1.356 . S
C830 O855 1.325 . S
C831 C830 1.348 . S
C831 C833 1.353 . S
C831 H872 0.929 . S
C832 C830 1.356 . S
C832 C834 1.358 . S
C832 H873 0.930 . S
C833 C831 1.353 . S
C833 N835 1.314 . S
C833 H874 0.930 . S
C834 C832 1.358 . S
C834 N835 1.279 . S
C834 H875 0.930 . S
N835 C833 1.314 . S
N835 C834 1.279 . S
C836 C838 1.353 . S
C836 N839 1.314 . S
C836 H842 0.930 . S
C837 N839 1.279 . S
C837 C840 1.358 . S
C837 H843 0.930 . S
C838 C836 1.353 . S
C838 C841 1.348 . S
C838 H876 0.929 . S
N839 Li794 1.990 . S
N839 C836 1.314 . S
N839 C837 1.279 . S
C840 C837 1.358 . S
C840 C841 1.356 . S
C840 H877 0.930 . S
C841 C838 1.348 . S
C841 C840 1.356 . S
H842 C836 0.930 . S
H843 C837 0.930 . S
C844 N845 1.314 . S
C844 C846 1.353 . S
C844 H850 0.930 . S
N845 Li795 1.990 . S
N845 C844 1.314 . S
N845 C848 1.279 . S
C846 C844 1.353 . S
C846 C849 1.348 . S
C846 H878 0.929 . S
C847 C848 1.358 . S
C847 C849 1.356 . S
C847 H879 0.930 . S
C848 N845 1.279 . S
C848 C847 1.358 . S
C848 H851 0.930 . S
C849 C846 1.348 . S
C849 C847 1.356 . S
H850 C844 0.930 . S
H851 C848 0.930 . S
O852 Li792 1.956 . S
O852 Li793 1.970 . S
O852 Li794 1.961 . S
O852 C796 1.325 . S
O853 Li792 1.970 . S
O853 Li793 1.956 . S
O853 Li795 1.961 . S
O853 C802 1.325 . S
O854 Li792 1.961 . S
O854 Li794 1.956 . S
O854 Li795 1.970 . S
O854 C824 1.325 . S
O855 Li793 1.961 . S
O855 Li794 1.970 . S
O855 Li795 1.956 . S
O855 C830 1.325 . S
H856 C798 0.929 . S
H857 C799 0.930 . S
H858 C800 0.930 . S
H859 C801 0.930 . S
H860 C803 0.930 . S
H861 C805 0.929 . S
H862 C806 0.930 . S
H863 C807 0.930 . S
H864 C810 0.930 . S
H865 C813 0.929 . S
H866 C818 0.929 . S
H867 C819 0.930 . S
H868 C826 0.929 . S
H869 C827 0.930 . S
H870 C828 0.930 . S
H871 C829 0.930 . S
H872 C831 0.929 . S
H873 C832 0.930 . S
H874 C833 0.930 . S
H875 C834 0.930 . S
H876 C838 0.929 . S
H877 C840 0.930 . S
H878 C846 0.929 . S
H879 C847 0.930 . S
Li880 N897 1.990 . S
Li880 O940 1.956 . S
Li880 O941 1.970 . S
Li880 O942 1.961 . S
Li881 N905 1.990 . S
Li881 O940 1.971 1_565 S
Li881 O941 1.955 1_565 S
Li881 O943 1.962 . S
Li882 N927 1.990 . S
Li882 O940 1.961 1_565 S
Li882 O942 1.956 1_565 S
Li882 O943 1.970 . S
Li883 N933 1.990 . S
Li883 O941 1.961 1_565 S
Li883 O942 1.970 1_565 S
Li883 O943 1.956 . S
C884 C886 1.348 . S
C884 C887 1.356 . S
C884 O940 1.325 . S
N885 C888 1.314 . S
N885 C889 1.279 . S
C886 C884 1.348 . S
C886 C888 1.353 . S
C886 H944 0.929 . S
C887 C884 1.356 . S
C887 C889 1.358 . S
C887 H945 0.930 . S
C888 N885 1.314 . S
C888 C886 1.353 . S
C888 H946 0.930 . S
C889 N885 1.279 . S
C889 C887 1.358 . S
C889 H947 0.930 . S
C890 C893 1.348 . S
C890 C894 1.356 . S
C890 O941 1.325 . S
C891 N892 1.279 . S
C891 C894 1.358 . S
C891 H948 0.930 . S
N892 C891 1.279 . S
N892 C895 1.314 . S
C893 C890 1.348 . S
C893 C895 1.353 . S
C893 H949 0.929 . S
C894 C890 1.356 . S
C894 C891 1.358 . S
C894 H950 0.930 . S
C895 N892 1.314 . S
C895 C893 1.353 . S
C895 H951 0.930 . S
C896 N897 1.314 . S
C896 C901 1.353 . S
C896 H902 0.930 . S
N897 Li880 1.990 . S
N897 C896 1.314 . S
N897 C899 1.279 . S
C898 C899 1.358 . S
C898 C900 1.356 . S
C898 H952 0.930 . S
C899 N897 1.279 . S
C899 C898 1.358 . S
C899 H903 0.930 . S
C900 C898 1.356 . S
C900 C901 1.348 . S
C901 C896 1.353 . S
C901 C900 1.348 . S
C901 H953 0.929 . S
H902 C896 0.930 . S
H903 C899 0.930 . S
C904 N905 1.314 . S
C904 C906 1.353 . S
C904 H910 0.930 . S
N905 Li881 1.990 . S
N905 C904 1.314 . S
N905 C908 1.279 1_565 S
C906 C904 1.353 . S
C906 C909 1.348 . S
C906 H954 0.929 . S
C907 C908 1.358 . S
C907 C909 1.356 1_545 S
C907 H955 0.930 . S
C908 N905 1.279 1_545 S
C908 C907 1.358 . S
C908 H911 0.930 . S
C909 C906 1.348 . S
C909 C907 1.356 1_565 S
H910 C904 0.930 . S
H911 C908 0.930 . S
C912 C914 1.348 1_545 S
C912 C915 1.356 . S
C912 O942 1.325 . S
N913 C916 1.314 1_545 S
N913 C917 1.279 . S
C914 C912 1.348 1_565 S
C914 C916 1.353 . S
C914 H956 0.929 . S
C915 C912 1.356 . S
C915 C917 1.358 . S
C915 H957 0.930 . S
C916 N913 1.314 1_565 S
C916 C914 1.353 . S
C916 H958 0.930 . S
C917 N913 1.279 . S
C917 C915 1.358 . S
C917 H959 0.930 . S
C918 C919 1.348 . S
C918 C920 1.356 . S
C918 O943 1.325 . S
C919 C918 1.348 . S
C919 C921 1.353 . S
C919 H960 0.929 . S
C920 C918 1.356 . S
C920 C922 1.358 . S
C920 H961 0.930 . S
C921 C919 1.353 . S
C921 N923 1.314 . S
C921 H962 0.930 . S
C922 C920 1.358 . S
C922 N923 1.279 . S
C922 H963 0.930 . S
N923 C921 1.314 . S
N923 C922 1.279 . S
C924 C926 1.353 . S
C924 N927 1.314 . S
C924 H930 0.930 . S
C925 N927 1.279 . S
C925 C928 1.358 . S
C925 H931 0.930 . S
C926 C924 1.353 . S
C926 C929 1.348 . S
C926 H964 0.929 . S
N927 Li882 1.990 . S
N927 C924 1.314 . S
N927 C925 1.279 . S
C928 C925 1.358 . S
C928 C929 1.356 . S
C928 H965 0.930 . S
C929 C926 1.348 . S
C929 C928 1.356 . S
H930 C924 0.930 . S
H931 C925 0.930 . S
C932 N933 1.314 1_545 S
C932 C934 1.353 . S
C932 H938 0.930 . S
N933 Li883 1.990 . S
N933 C932 1.314 1_565 S
N933 C936 1.279 . S
C934 C932 1.353 . S
C934 C937 1.348 1_545 S
C934 H966 0.929 . S
C935 C936 1.358 . S
C935 C937 1.356 . S
C935 H967 0.930 . S
C936 N933 1.279 . S
C936 C935 1.358 . S
C936 H939 0.930 . S
C937 C934 1.348 1_565 S
C937 C935 1.356 . S
H938 C932 0.930 . S
H939 C936 0.930 . S
O940 Li880 1.956 . S
O940 Li881 1.971 1_545 S
O940 Li882 1.961 1_545 S
O940 C884 1.325 . S
O941 Li880 1.970 . S
O941 Li881 1.955 1_545 S
O941 Li883 1.961 1_545 S
O941 C890 1.325 . S
O942 Li880 1.961 . S
O942 Li882 1.956 1_545 S
O942 Li883 1.970 1_545 S
O942 C912 1.325 . S
O943 Li881 1.962 . S
O943 Li882 1.970 . S
O943 Li883 1.956 . S
O943 C918 1.325 . S
H944 C886 0.929 . S
H945 C887 0.930 . S
H946 C888 0.930 . S
H947 C889 0.930 . S
H948 C891 0.930 . S
H949 C893 0.929 . S
H950 C894 0.930 . S
H951 C895 0.930 . S
H952 C898 0.930 . S
H953 C901 0.929 . S
H954 C906 0.929 . S
H955 C907 0.930 . S
H956 C914 0.929 . S
H957 C915 0.930 . S
H958 C916 0.930 . S
H959 C917 0.930 . S
H960 C919 0.929 . S
H961 C920 0.930 . S
H962 C921 0.930 . S
H963 C922 0.930 . S
H964 C926 0.929 . S
H965 C928 0.930 . S
H966 C934 0.929 . S
H967 C935 0.930 . S
Li968 N985 1.990 . S
Li968 O1028 1.956 . S
Li968 O1029 1.970 . S
Li968 O1030 1.961 1_554 S
Li969 N993 1.990 . S
Li969 O1028 1.970 . S
Li969 O1029 1.956 . S
Li969 O1031 1.961 . S
Li970 N1015 1.990 . S
Li970 O1028 1.961 . S
Li970 O1030 1.956 1_554 S
Li970 O1031 1.970 . S
Li971 N1021 1.990 . S
Li971 O1029 1.961 1_556 S
Li971 O1030 1.970 . S
Li971 O1031 1.956 1_556 S
C972 C974 1.348 . S
C972 C975 1.356 . S
C972 O1028 1.325 . S
N973 C976 1.314 . S
N973 C977 1.279 . S
C974 C972 1.348 . S
C974 C976 1.353 . S
C974 H1032 0.929 . S
C975 C972 1.356 . S
C975 C977 1.358 . S
C975 H1033 0.930 . S
C976 N973 1.314 . S
C976 C974 1.353 . S
C976 H1034 0.930 . S
C977 N973 1.279 . S
C977 C975 1.358 . S
C977 H1035 0.888 1_565 S
C978 C981 1.348 . S
C978 C982 1.356 . S
C978 O1029 1.325 . S
C979 N980 1.279 . S
C979 C982 1.358 . S
C979 H1036 0.930 . S
N980 C979 1.279 . S
N980 C983 1.314 . S
C981 C978 1.348 . S
C981 C983 1.353 . S
C981 H1037 0.929 . S
C982 C978 1.356 . S
C982 C979 1.358 . S
C982 H1038 0.930 . S
C983 N980 1.314 . S
C983 C981 1.353 . S
C983 H1039 0.930 . S
C984 N985 1.314 . S
C984 C989 1.356 . S
C984 H990 0.930 1_554 S
N985 Li968 1.990 . S
N985 C984 1.314 . S
N985 C987 1.279 . S
C986 C987 1.358 . S
C986 C988 1.356 . S
C986 H1040 0.930 . S
C987 N985 1.279 . S
C987 C986 1.358 . S
C987 H991 0.930 . S
C988 C986 1.356 . S
C988 C989 1.373 . S
C989 C984 1.356 . S
C989 C988 1.373 . S
C989 H1041 0.902 1_554 S
H990 C984 0.930 1_556 S
H991 C987 0.930 . S
C992 N993 1.314 . S
C992 C994 1.353 . S
C992 H998 0.930 . S
N993 Li969 1.990 . S
N993 C992 1.314 . S
N993 C996 1.279 . S
C994 C992 1.353 . S
C994 C997 1.348 . S
C994 H1042 0.929 . S
C995 C996 1.358 . S
C995 C997 1.356 . S
C995 H1043 0.930 . S
C996 N993 1.279 . S
C996 C995 1.358 . S
C996 H999 0.930 . S
C997 C994 1.348 . S
C997 C995 1.356 . S
H998 C992 0.930 . S
H999 C996 0.930 . S
C1000 C1002 1.348 . S
C1000 C1003 1.356 . S
C1000 O1030 1.325 . S
N1001 C1004 1.314 . S
N1001 C1005 1.279 . S
C1002 C1000 1.348 . S
C1002 C1004 1.353 . S
C1002 H1044 0.929 . S
C1003 C1000 1.356 . S
C1003 C1005 1.358 . S
C1003 H1045 0.930 . S
C1004 N1001 1.314 . S
C1004 C1002 1.353 . S
C1004 H1046 0.930 . S
C1005 N1001 1.279 . S
C1005 C1003 1.358 . S
C1005 H1047 0.930 . S
C1006 C1007 1.348 . S
C1006 C1008 1.356 . S
C1006 O1031 1.325 . S
C1007 C1006 1.348 . S
C1007 C1009 1.353 . S
C1007 H1048 0.929 . S
C1008 C1006 1.356 . S
C1008 C1010 1.358 . S
C1008 H1049 0.930 . S
C1009 C1007 1.353 . S
C1009 N1011 1.314 . S
C1009 H1050 0.930 . S
C1010 C1008 1.358 . S
C1010 N1011 1.279 . S
C1010 H1051 0.930 . S
N1011 C1009 1.314 . S
N1011 C1010 1.279 . S
C1012 C1014 1.353 . S
C1012 N1015 1.314 . S
C1012 H1018 0.930 . S
C1013 N1015 1.279 . S
C1013 C1016 1.358 . S
C1013 H1019 0.930 1_554 S
C1014 C1012 1.353 . S
C1014 C1017 1.348 . S
C1014 H1052 0.929 . S
N1015 Li970 1.990 . S
N1015 C1012 1.314 . S
N1015 C1013 1.279 . S
C1016 C1013 1.358 . S
C1016 C1017 1.356 . S
C1016 H1053 0.930 1_554 S
C1017 C1014 1.348 . S
C1017 C1016 1.356 . S
H1018 C1012 0.930 . S
H1019 C1013 0.930 1_556 S
C1020 N1021 1.314 . S
C1020 C1022 1.353 . S
C1020 H1026 0.930 . S
N1021 Li971 1.990 . S
N1021 C1020 1.314 . S
N1021 C1024 1.279 . S
C1022 C1020 1.353 . S
C1022 C1025 1.348 . S
C1022 H1054 0.929 . S
C1023 C1024 1.358 . S
C1023 C1025 1.356 . S
C1023 H1055 0.930 . S
C1024 N1021 1.279 . S
C1024 C1023 1.358 . S
C1024 H1027 0.930 . S
C1025 C1022 1.348 . S
C1025 C1023 1.356 . S
H1026 C1020 0.930 . S
H1027 C1024 0.930 . S
O1028 Li968 1.956 . S
O1028 Li969 1.970 . S
O1028 Li970 1.961 . S
O1028 C972 1.325 . S
O1029 Li968 1.970 . S
O1029 Li969 1.956 . S
O1029 Li971 1.961 1_554 S
O1029 C978 1.325 . S
O1030 Li968 1.961 1_556 S
O1030 Li970 1.956 1_556 S
O1030 Li971 1.970 . S
O1030 C1000 1.325 . S
O1031 Li969 1.961 . S
O1031 Li970 1.970 . S
O1031 Li971 1.956 1_554 S
O1031 C1006 1.325 . S
H1032 C974 0.929 . S
H1033 C975 0.930 . S
H1034 C976 0.930 . S
H1035 C977 0.888 1_545 S
H1036 C979 0.930 . S
H1037 C981 0.929 . S
H1038 C982 0.930 . S
H1039 C983 0.930 . S
H1040 C986 0.930 . S
H1041 C989 0.902 1_556 S
H1042 C994 0.929 . S
H1043 C995 0.930 . S
H1044 C1002 0.929 . S
H1045 C1003 0.930 . S
H1046 C1004 0.930 . S
H1047 C1005 0.930 . S
H1048 C1007 0.929 . S
H1049 C1008 0.930 . S
H1050 C1009 0.930 . S
H1051 C1010 0.930 . S
H1052 C1014 0.929 . S
H1053 C1016 0.930 1_556 S
H1054 C1022 0.929 . S
H1055 C1023 0.930 . S
Li1056 N1073 1.990 . S
Li1056 O1116 1.956 . S
Li1056 O1117 1.970 . S
Li1056 O1118 1.961 1_554 S
Li1057 N1081 1.990 . S
Li1057 O1116 1.970 . S
Li1057 O1117 1.956 . S
Li1057 O1119 1.961 . S
Li1058 N1103 1.990 . S
Li1058 O1116 1.961 . S
Li1058 O1118 1.956 1_554 S
Li1058 O1119 1.970 . S
Li1059 N1109 1.990 . S
Li1059 O1117 1.961 1_556 S
Li1059 O1118 1.970 . S
Li1059 O1119 1.956 1_556 S
C1060 C1062 1.348 . S
C1060 C1063 1.356 . S
C1060 O1116 1.325 . S
N1061 C1064 1.314 . S
N1061 C1065 1.279 . S
C1062 C1060 1.348 . S
C1062 C1064 1.353 . S
C1062 H1120 0.929 . S
C1063 C1060 1.356 . S
C1063 C1065 1.358 . S
C1063 H1121 0.930 . S
C1064 N1061 1.314 . S
C1064 C1062 1.353 . S
C1064 H1122 0.930 . S
C1065 N1061 1.279 . S
C1065 C1063 1.358 . S
C1065 H1123 0.930 . S
C1066 C1069 1.348 . S
C1066 C1070 1.356 . S
C1066 O1117 1.325 . S
C1067 N1068 1.290 . S
C1067 C1070 1.356 . S
C1067 H1124 0.923 1_554 S
N1068 C1067 1.290 . S
N1068 C1071 1.314 . S
C1069 C1066 1.348 . S
C1069 C1071 1.353 . S
C1069 H1125 0.929 . S
C1070 C1066 1.356 . S
C1070 C1067 1.356 . S
C1070 H1126 0.930 1_554 S
C1071 N1068 1.314 . S
C1071 C1069 1.353 . S
C1071 H1127 0.930 . S
C1072 N1073 1.314 1_556 S
C1072 C1077 1.353 . S
C1072 H1078 0.930 . S
N1073 Li1056 1.990 . S
N1073 C1072 1.314 1_554 S
N1073 C1075 1.279 . S
C1074 C1075 1.358 . S
C1074 C1076 1.356 . S
C1074 H1128 0.930 . S
C1075 N1073 1.279 . S
C1075 C1074 1.358 . S
C1075 H1079 0.930 . S
C1076 C1074 1.356 . S
C1076 C1077 1.348 1_554 S
C1077 C1072 1.353 . S
C1077 C1076 1.348 1_556 S
C1077 H1129 0.929 . S
H1078 C1072 0.930 . S
H1079 C1075 0.930 . S
C1080 N1081 1.314 . S
C1080 C1082 1.353 . S
C1080 H1086 0.930 . S
N1081 Li1057 1.990 . S
N1081 C1080 1.314 . S
N1081 C1084 1.279 . S
C1082 C1080 1.353 . S
C1082 C1085 1.348 . S
C1082 H1130 0.929 . S
C1083 C1084 1.358 . S
C1083 C1085 1.356 . S
C1083 H1131 0.930 . S
C1084 N1081 1.279 . S
C1084 C1083 1.358 . S
C1084 H1087 0.930 . S
C1085 C1082 1.348 . S
C1085 C1083 1.356 . S
H1086 C1080 0.930 . S
H1087 C1084 0.930 . S
C1088 C1090 1.348 . S
C1088 C1091 1.356 . S
C1088 O1118 1.325 . S
N1089 C1092 1.314 . S
N1089 C1093 1.279 . S
C1090 C1088 1.348 . S
C1090 C1092 1.353 . S
C1090 H1132 0.929 . S
C1091 C1088 1.356 . S
C1091 C1093 1.358 . S
C1091 H1133 0.930 . S
C1092 N1089 1.314 . S
C1092 C1090 1.353 . S
C1092 H1134 0.930 . S
C1093 N1089 1.279 . S
C1093 C1091 1.358 . S
C1093 H1135 0.930 . S
C1094 C1095 1.348 . S
C1094 C1096 1.356 . S
C1094 O1119 1.325 . S
C1095 C1094 1.348 . S
C1095 C1097 1.353 . S
C1095 H1136 0.942 . S
C1096 C1094 1.356 . S
C1096 C1098 1.358 . S
C1096 H1137 0.930 . S
C1097 C1095 1.353 . S
C1097 N1099 1.314 . S
C1097 H1138 0.937 . S
C1098 C1096 1.358 . S
C1098 N1099 1.279 . S
C1098 H1139 0.930 . S
N1099 C1097 1.314 . S
N1099 C1098 1.279 . S
C1100 C1102 1.353 . S
C1100 N1103 1.314 . S
C1100 H1106 0.930 . S
C1101 N1103 1.279 1_556 S
C1101 C1104 1.358 . S
C1101 H1107 0.930 . S
C1102 C1100 1.353 . S
C1102 C1105 1.348 . S
C1102 H1140 0.929 . S
N1103 Li1058 1.990 . S
N1103 C1100 1.314 . S
N1103 C1101 1.279 1_554 S
C1104 C1101 1.358 . S
C1104 C1105 1.356 1_556 S
C1104 H1141 0.930 . S
C1105 C1102 1.348 . S
C1105 C1104 1.356 1_554 S
H1106 C1100 0.930 . S
H1107 C1101 0.930 . S
C1108 N1109 1.314 . S
C1108 C1110 1.353 . S
C1108 H1114 0.930 . S
N1109 Li1059 1.990 . S
N1109 C1108 1.314 . S
N1109 C1112 1.279 . S
C1110 C1108 1.353 . S
C1110 C1113 1.348 . S
C1110 H1142 0.929 . S
C1111 C1112 1.358 . S
C1111 C1113 1.356 . S
C1111 H1143 0.930 . S
C1112 N1109 1.279 . S
C1112 C1111 1.358 . S
C1112 H1115 0.930 . S
C1113 C1110 1.348 . S
C1113 C1111 1.356 . S
H1114 C1108 0.930 . S
H1115 C1112 0.930 . S
O1116 Li1056 1.956 . S
O1116 Li1057 1.970 . S
O1116 Li1058 1.961 . S
O1116 C1060 1.325 . S
O1117 Li1056 1.970 . S
O1117 Li1057 1.956 . S
O1117 Li1059 1.961 1_554 S
O1117 C1066 1.325 . S
O1118 Li1056 1.961 1_556 S
O1118 Li1058 1.956 1_556 S
O1118 Li1059 1.970 . S
O1118 C1088 1.325 . S
O1119 Li1057 1.961 . S
O1119 Li1058 1.970 . S
O1119 Li1059 1.956 1_554 S
O1119 C1094 1.325 . S
H1120 C1062 0.929 . S
H1121 C1063 0.930 . S
H1122 C1064 0.930 . S
H1123 C1065 0.930 . S
H1124 C1067 0.923 1_556 S
H1125 C1069 0.929 . S
H1126 C1070 0.930 1_556 S
H1127 C1071 0.930 . S
H1128 C1074 0.930 . S
H1129 C1077 0.929 . S
H1130 C1082 0.929 . S
H1131 C1083 0.930 . S
H1132 C1090 0.929 . S
H1133 C1091 0.930 . S
H1134 C1092 0.930 . S
H1135 C1093 0.930 . S
H1136 C1095 0.942 . S
H1137 C1096 0.930 . S
H1138 C1097 0.937 . S
H1139 C1098 0.930 . S
H1140 C1102 0.929 . S
H1141 C1104 0.930 . S
H1142 C1110 0.929 . S
H1143 C1111 0.930 . S
Li1144 N1161 1.990 . S
Li1144 O1204 1.956 . S
Li1144 O1205 1.970 . S
Li1144 O1206 1.961 . S
Li1145 N1169 1.990 1_554 S
Li1145 O1204 1.970 . S
Li1145 O1205 1.961 . S
Li1145 O1207 1.956 1_554 S
Li1146 N1191 1.990 . S
Li1146 O1204 1.961 1_556 S
Li1146 O1206 1.956 1_556 S
Li1146 O1207 1.970 . S
Li1147 N1197 1.990 . S
Li1147 O1205 1.961 1_556 S
Li1147 O1206 1.970 1_556 S
Li1147 O1207 1.956 . S
C1148 C1150 1.348 . S
C1148 C1151 1.365 . S
C1148 O1204 1.325 . S
N1149 C1152 1.314 . S
N1149 C1153 1.279 . S
C1150 C1148 1.348 . S
C1150 C1152 1.353 . S
C1150 H1208 0.929 . S
C1151 C1148 1.365 . S
C1151 C1153 1.359 . S
C1151 H1209 0.923 1_554 S
C1152 N1149 1.314 . S
C1152 C1150 1.353 . S
C1152 H1210 0.930 . S
C1153 N1149 1.279 . S
C1153 C1151 1.359 . S
C1153 H1211 0.930 . S
C1154 C1157 1.348 . S
C1154 C1158 1.356 . S
C1154 O1205 1.325 . S
C1155 N1156 1.279 . S
C1155 C1158 1.358 . S
C1155 H1212 0.930 . S
N1156 C1155 1.279 . S
N1156 C1159 1.314 . S
C1157 C1154 1.348 . S
C1157 C1159 1.353 . S
C1157 H1213 0.929 . S
C1158 C1154 1.356 . S
C1158 C1155 1.358 . S
C1158 H1214 0.930 . S
C1159 N1156 1.314 . S
C1159 C1157 1.353 . S
C1159 H1215 0.930 . S
C1160 N1161 1.314 . S
C1160 C1165 1.353 . S
C1160 H1166 0.930 . S
N1161 Li1144 1.990 . S
N1161 C1160 1.314 . S
N1161 C1163 1.279 . S
C1162 C1163 1.358 . S
C1162 C1164 1.356 . S
C1162 H1216 0.930 . S
C1163 N1161 1.279 . S
C1163 C1162 1.358 . S
C1163 H1167 0.930 . S
C1164 C1162 1.356 . S
C1164 C1165 1.348 . S
C1165 C1160 1.353 . S
C1165 C1164 1.348 . S
C1165 H1217 0.929 . S
H1166 C1160 0.930 . S
H1167 C1163 0.930 . S
C1168 N1169 1.315 . S
C1168 C1170 1.353 . S
C1168 H1174 0.930 . S
N1169 Li1145 1.990 1_556 S
N1169 C1168 1.315 . S
N1169 C1172 1.279 1_556 S
C1170 C1168 1.353 . S
C1170 C1173 1.348 . S
C1170 H1218 0.929 . S
C1171 C1172 1.358 . S
C1171 C1173 1.356 1_554 S
C1171 H1219 0.930 . S
C1172 N1169 1.279 1_554 S
C1172 C1171 1.358 . S
C1172 H1175 0.930 . S
C1173 C1170 1.348 . S
C1173 C1171 1.356 1_556 S
H1174 C1168 0.930 . S
H1175 C1172 0.930 . S
C1176 C1178 1.348 1_554 S
C1176 C1179 1.356 . S
C1176 O1206 1.325 . S
N1177 C1180 1.313 1_554 S
N1177 C1181 1.281 . S
C1178 C1176 1.348 1_556 S
C1178 C1180 1.353 . S
C1178 H1220 0.929 . S
C1179 C1176 1.356 . S
C1179 C1181 1.358 . S
C1179 H1221 0.930 . S
C1180 N1177 1.313 1_556 S
C1180 C1178 1.353 . S
C1180 H1222 0.930 . S
C1181 N1177 1.281 . S
C1181 C1179 1.358 . S
C1181 H1223 0.930 . S
C1182 C1183 1.348 . S
C1182 C1184 1.356 . S
C1182 O1207 1.325 . S
C1183 C1182 1.348 . S
C1183 C1185 1.353 . S
C1183 H1224 0.929 . S
C1184 C1182 1.356 . S
C1184 C1186 1.358 . S
C1184 H1225 0.930 . S
C1185 C1183 1.353 . S
C1185 N1187 1.314 . S
C1185 H1226 0.930 . S
C1186 C1184 1.358 . S
C1186 N1187 1.279 . S
C1186 H1227 0.930 . S
N1187 C1185 1.314 . S
N1187 C1186 1.279 . S
C1188 C1190 1.353 . S
C1188 N1191 1.314 . S
C1188 H1194 0.930 . S
C1189 N1191 1.279 . S
C1189 C1192 1.358 . S
C1189 H1195 0.930 . S
C1190 C1188 1.353 . S
C1190 C1193 1.348 . S
C1190 H1228 0.929 . S
N1191 Li1146 1.990 . S
N1191 C1188 1.314 . S
N1191 C1189 1.279 . S
C1192 C1189 1.358 . S
C1192 C1193 1.356 . S
C1192 H1229 0.930 . S
C1193 C1190 1.348 . S
C1193 C1192 1.356 . S
H1194 C1188 0.930 . S
H1195 C1189 0.930 . S
C1196 N1197 1.314 1_554 S
C1196 C1198 1.353 . S
C1196 H1202 0.930 . S
N1197 Li1147 1.990 . S
N1197 C1196 1.314 1_556 S
N1197 C1200 1.279 . S
C1198 C1196 1.353 . S
C1198 C1201 1.348 1_554 S
C1198 H1230 0.929 . S
C1199 C1200 1.358 . S
C1199 C1201 1.356 . S
C1199 H1231 0.930 . S
C1200 N1197 1.279 . S
C1200 C1199 1.358 . S
C1200 H1203 0.930 . S
C1201 C1198 1.348 1_556 S
C1201 C1199 1.356 . S
H1202 C1196 0.930 . S
H1203 C1200 0.930 . S
O1204 Li1144 1.956 . S
O1204 Li1145 1.970 . S
O1204 Li1146 1.961 1_554 S
O1204 C1148 1.325 . S
O1205 Li1144 1.970 . S
O1205 Li1145 1.961 . S
O1205 Li1147 1.961 1_554 S
O1205 C1154 1.325 . S
O1206 Li1144 1.961 . S
O1206 Li1146 1.956 1_554 S
O1206 Li1147 1.970 1_554 S
O1206 C1176 1.325 . S
O1207 Li1145 1.956 1_556 S
O1207 Li1146 1.970 . S
O1207 Li1147 1.956 . S
O1207 C1182 1.325 . S
H1208 C1150 0.929 . S
H1209 C1151 0.923 1_556 S
H1210 C1152 0.930 . S
H1211 C1153 0.930 . S
H1212 C1155 0.930 . S
H1213 C1157 0.929 . S
H1214 C1158 0.930 . S
H1215 C1159 0.930 . S
H1216 C1162 0.930 . S
H1217 C1165 0.929 . S
H1218 C1170 0.929 . S
H1219 C1171 0.930 . S
H1220 C1178 0.929 . S
H1221 C1179 0.930 . S
H1222 C1180 0.930 . S
H1223 C1181 0.930 . S
H1224 C1183 0.929 . S
H1225 C1184 0.930 . S
H1226 C1185 0.930 . S
H1227 C1186 0.930 . S
H1228 C1190 0.929 . S
H1229 C1192 0.930 . S
H1230 C1198 0.929 . S
H1231 C1199 0.930 . S
Li1232 N1249 1.990 . S
Li1232 O1292 1.956 . S
Li1232 O1293 1.970 . S
Li1232 O1294 1.961 . S
Li1233 N1257 1.990 . S
Li1233 O1292 1.970 . S
Li1233 O1293 1.956 . S
Li1233 O1295 1.961 . S
Li1234 N1279 1.990 . S
Li1234 O1292 1.961 . S
Li1234 O1294 1.956 . S
Li1234 O1295 1.970 . S
Li1235 N1285 1.990 . S
Li1235 O1293 1.961 . S
Li1235 O1294 1.970 . S
Li1235 O1295 1.956 . S
C1236 C1238 1.348 . S
C1236 C1239 1.356 . S
C1236 O1292 1.325 . S
N1237 C1240 1.314 . S
N1237 C1241 1.279 . S
C1238 C1236 1.348 . S
C1238 C1240 1.353 . S
C1238 H1296 0.929 . S
C1239 C1236 1.356 . S
C1239 C1241 1.358 . S
C1239 H1297 0.930 . S
C1240 N1237 1.314 . S
C1240 C1238 1.353 . S
C1240 H1298 0.930 . S
C1241 N1237 1.279 . S
C1241 C1239 1.358 . S
C1241 H1299 0.930 . S
C1242 C1245 1.348 . S
C1242 C1246 1.356 . S
C1242 O1293 1.325 . S
C1243 N1244 1.279 . S
C1243 C1246 1.358 . S
C1243 H1300 0.930 . S
N1244 C1243 1.279 . S
N1244 C1247 1.314 . S
C1245 C1242 1.348 . S
C1245 C1247 1.353 . S
C1245 H1301 0.929 . S
C1246 C1242 1.356 . S
C1246 C1243 1.358 . S
C1246 H1302 0.930 . S
C1247 N1244 1.314 . S
C1247 C1245 1.353 . S
C1247 H1303 0.930 . S
C1248 N1249 1.314 . S
C1248 C1253 1.353 . S
C1248 H1254 0.930 . S
N1249 Li1232 1.990 . S
N1249 C1248 1.314 . S
N1249 C1251 1.279 . S
C1250 C1251 1.358 . S
C1250 C1252 1.356 . S
C1250 H1304 0.930 . S
C1251 N1249 1.279 . S
C1251 C1250 1.358 . S
C1251 H1255 0.930 . S
C1252 C1250 1.356 . S
C1252 C1253 1.348 . S
C1253 C1248 1.353 . S
C1253 C1252 1.348 . S
C1253 H1305 0.929 . S
H1254 C1248 0.930 . S
H1255 C1251 0.930 . S
C1256 N1257 1.314 . S
C1256 C1258 1.353 . S
C1256 H1262 0.930 . S
N1257 Li1233 1.990 . S
N1257 C1256 1.314 . S
N1257 C1260 1.279 . S
C1258 C1256 1.353 . S
C1258 C1261 1.348 . S
C1258 H1306 0.929 . S
C1259 C1260 1.358 . S
C1259 C1261 1.356 . S
C1259 H1307 0.930 . S
C1260 N1257 1.279 . S
C1260 C1259 1.358 . S
C1260 H1263 0.930 . S
C1261 C1258 1.348 . S
C1261 C1259 1.356 . S
H1262 C1256 0.930 . S
H1263 C1260 0.930 . S
C1264 C1266 1.348 . S
C1264 C1267 1.356 . S
C1264 O1294 1.325 . S
N1265 C1268 1.314 . S
N1265 C1269 1.279 . S
C1266 C1264 1.348 . S
C1266 C1268 1.353 . S
C1266 H1308 0.929 . S
C1267 C1264 1.356 . S
C1267 C1269 1.358 . S
C1267 H1309 0.930 . S
C1268 N1265 1.314 . S
C1268 C1266 1.353 . S
C1268 H1310 0.930 . S
C1269 N1265 1.279 . S
C1269 C1267 1.358 . S
C1269 H1311 0.930 . S
C1270 C1271 1.348 . S
C1270 C1272 1.356 . S
C1270 O1295 1.325 . S
C1271 C1270 1.348 . S
C1271 C1273 1.353 . S
C1271 H1312 0.929 . S
C1272 C1270 1.356 . S
C1272 C1274 1.358 . S
C1272 H1313 0.930 . S
C1273 C1271 1.353 . S
C1273 N1275 1.314 . S
C1273 H1314 0.930 . S
C1274 C1272 1.358 . S
C1274 N1275 1.279 . S
C1274 H1315 0.930 . S
N1275 C1273 1.314 . S
N1275 C1274 1.279 . S
C1276 C1278 1.353 . S
C1276 N1279 1.314 . S
C1276 H1282 0.930 . S
C1277 N1279 1.279 . S
C1277 C1280 1.358 . S
C1277 H1283 0.930 . S
C1278 C1276 1.353 . S
C1278 C1281 1.348 . S
C1278 H1316 0.929 . S
N1279 Li1234 1.990 . S
N1279 C1276 1.314 . S
N1279 C1277 1.279 . S
C1280 C1277 1.358 . S
C1280 C1281 1.356 . S
C1280 H1317 0.930 . S
C1281 C1278 1.348 . S
C1281 C1280 1.356 . S
H1282 C1276 0.930 . S
H1283 C1277 0.930 . S
C1284 N1285 1.314 . S
C1284 C1286 1.353 . S
C1284 H1290 0.930 . S
N1285 Li1235 1.990 . S
N1285 C1284 1.314 . S
N1285 C1288 1.279 . S
C1286 C1284 1.353 . S
C1286 C1289 1.348 . S
C1286 H1318 0.929 . S
C1287 C1288 1.358 . S
C1287 C1289 1.356 . S
C1287 H1319 0.930 . S
C1288 N1285 1.279 . S
C1288 C1287 1.358 . S
C1288 H1291 0.930 . S
C1289 C1286 1.348 . S
C1289 C1287 1.356 . S
H1290 C1284 0.930 . S
H1291 C1288 0.930 . S
O1292 Li1232 1.956 . S
O1292 Li1233 1.970 . S
O1292 Li1234 1.961 . S
O1292 C1236 1.325 . S
O1293 Li1232 1.970 . S
O1293 Li1233 1.956 . S
O1293 Li1235 1.961 . S
O1293 C1242 1.325 . S
O1294 Li1232 1.961 . S
O1294 Li1234 1.956 . S
O1294 Li1235 1.970 . S
O1294 C1264 1.325 . S
O1295 Li1233 1.961 . S
O1295 Li1234 1.970 . S
O1295 Li1235 1.956 . S
O1295 C1270 1.325 . S
H1296 C1238 0.929 . S
H1297 C1239 0.930 . S
H1298 C1240 0.930 . S
H1299 C1241 0.930 . S
H1300 C1243 0.930 . S
H1301 C1245 0.929 . S
H1302 C1246 0.930 . S
H1303 C1247 0.930 . S
H1304 C1250 0.930 . S
H1305 C1253 0.929 . S
H1306 C1258 0.929 . S
H1307 C1259 0.930 . S
H1308 C1266 0.929 . S
H1309 C1267 0.930 . S
H1310 C1268 0.930 . S
H1311 C1269 0.930 . S
H1312 C1271 0.929 . S
H1313 C1272 0.930 . S
H1314 C1273 0.930 . S
H1315 C1274 0.930 . S
H1316 C1278 0.929 . S
H1317 C1280 0.930 . S
H1318 C1286 0.929 . S
H1319 C1287 0.930 . S
Li1320 N1337 1.990 . S
Li1320 O1380 1.956 . S
Li1320 O1381 1.970 . S
Li1320 O1382 1.961 . S
Li1321 N1345 1.990 . S
Li1321 O1380 1.970 . S
Li1321 O1381 1.956 . S
Li1321 O1383 1.961 . S
Li1322 N1367 1.990 . S
Li1322 O1380 1.961 . S
Li1322 O1382 1.956 . S
Li1322 O1383 1.970 . S
Li1323 N1373 1.990 . S
Li1323 O1381 1.961 . S
Li1323 O1382 1.970 . S
Li1323 O1383 1.956 . S
C1324 C1326 1.348 . S
C1324 C1327 1.356 . S
C1324 O1380 1.325 . S
N1325 C1328 1.314 . S
N1325 C1329 1.279 . S
C1326 C1324 1.348 . S
C1326 C1328 1.353 . S
C1326 H1384 0.929 . S
C1327 C1324 1.356 . S
C1327 C1329 1.358 . S
C1327 H1385 0.930 . S
C1328 N1325 1.314 . S
C1328 C1326 1.353 . S
C1328 H1386 0.930 . S
C1329 N1325 1.279 . S
C1329 C1327 1.358 . S
C1329 H1387 0.930 . S
C1330 C1333 1.348 . S
C1330 C1334 1.356 . S
C1330 O1381 1.325 . S
C1331 N1332 1.279 . S
C1331 C1334 1.358 . S
C1331 H1388 0.930 . S
N1332 C1331 1.279 . S
N1332 C1335 1.314 . S
C1333 C1330 1.348 . S
C1333 C1335 1.353 . S
C1333 H1389 0.929 . S
C1334 C1330 1.356 . S
C1334 C1331 1.358 . S
C1334 H1390 0.930 . S
C1335 N1332 1.314 . S
C1335 C1333 1.353 . S
C1335 H1391 0.930 . S
C1336 N1337 1.314 . S
C1336 C1341 1.353 . S
C1336 H1342 0.930 . S
N1337 Li1320 1.990 . S
N1337 C1336 1.314 . S
N1337 C1339 1.279 . S
C1338 C1339 1.358 . S
C1338 C1340 1.356 . S
C1338 H1392 0.930 . S
C1339 N1337 1.279 . S
C1339 C1338 1.358 . S
C1339 H1343 0.930 . S
C1340 C1338 1.356 . S
C1340 C1341 1.348 . S
C1341 C1336 1.353 . S
C1341 C1340 1.348 . S
C1341 H1393 0.929 . S
H1342 C1336 0.930 . S
H1343 C1339 0.930 . S
C1344 N1345 1.314 . S
C1344 C1346 1.353 . S
C1344 H1350 0.930 . S
N1345 Li1321 1.990 . S
N1345 C1344 1.314 . S
N1345 C1348 1.279 . S
C1346 C1344 1.353 . S
C1346 C1349 1.348 . S
C1346 H1394 0.929 . S
C1347 C1348 1.358 . S
C1347 C1349 1.356 . S
C1347 H1395 0.930 . S
C1348 N1345 1.279 . S
C1348 C1347 1.358 . S
C1348 H1351 0.930 . S
C1349 C1346 1.348 . S
C1349 C1347 1.356 . S
H1350 C1344 0.930 . S
H1351 C1348 0.930 . S
C1352 C1354 1.348 . S
C1352 C1355 1.356 . S
C1352 O1382 1.325 . S
N1353 C1356 1.314 . S
N1353 C1357 1.279 . S
C1354 C1352 1.348 . S
C1354 C1356 1.353 . S
C1354 H1396 0.929 . S
C1355 C1352 1.356 . S
C1355 C1357 1.358 . S
C1355 H1397 0.930 . S
C1356 N1353 1.314 . S
C1356 C1354 1.353 . S
C1356 H1398 0.930 . S
C1357 N1353 1.279 . S
C1357 C1355 1.358 . S
C1357 H1399 0.930 . S
C1358 C1359 1.348 . S
C1358 C1360 1.356 . S
C1358 O1383 1.325 . S
C1359 C1358 1.348 . S
C1359 C1361 1.353 . S
C1359 H1400 0.929 . S
C1360 C1358 1.356 . S
C1360 C1362 1.358 . S
C1360 H1401 0.930 . S
C1361 C1359 1.353 . S
C1361 N1363 1.314 . S
C1361 H1402 0.930 . S
C1362 C1360 1.358 . S
C1362 N1363 1.279 . S
C1362 H1403 0.930 . S
N1363 C1361 1.314 . S
N1363 C1362 1.279 . S
C1364 C1366 1.353 . S
C1364 N1367 1.314 . S
C1364 H1370 0.930 . S
C1365 N1367 1.279 . S
C1365 C1368 1.358 . S
C1365 H1371 0.930 . S
C1366 C1364 1.353 . S
C1366 C1369 1.348 . S
C1366 H1404 0.929 . S
N1367 Li1322 1.990 . S
N1367 C1364 1.314 . S
N1367 C1365 1.279 . S
C1368 C1365 1.358 . S
C1368 C1369 1.356 . S
C1368 H1405 0.930 . S
C1369 C1366 1.348 . S
C1369 C1368 1.356 . S
H1370 C1364 0.930 . S
H1371 C1365 0.930 . S
C1372 N1373 1.314 . S
C1372 C1374 1.353 . S
C1372 H1378 0.930 . S
N1373 Li1323 1.990 . S
N1373 C1372 1.314 . S
N1373 C1376 1.279 . S
C1374 C1372 1.353 . S
C1374 C1377 1.348 . S
C1374 H1406 0.929 . S
C1375 C1376 1.358 . S
C1375 C1377 1.356 . S
C1375 H1407 0.930 . S
C1376 N1373 1.279 . S
C1376 C1375 1.358 . S
C1376 H1379 0.930 . S
C1377 C1374 1.348 . S
C1377 C1375 1.356 . S
H1378 C1372 0.930 . S
H1379 C1376 0.930 . S
O1380 Li1320 1.956 . S
O1380 Li1321 1.970 . S
O1380 Li1322 1.961 . S
O1380 C1324 1.325 . S
O1381 Li1320 1.970 . S
O1381 Li1321 1.956 . S
O1381 Li1323 1.961 . S
O1381 C1330 1.325 . S
O1382 Li1320 1.961 . S
O1382 Li1322 1.956 . S
O1382 Li1323 1.970 . S
O1382 C1352 1.325 . S
O1383 Li1321 1.961 . S
O1383 Li1322 1.970 . S
O1383 Li1323 1.956 . S
O1383 C1358 1.325 . S
H1384 C1326 0.929 . S
H1385 C1327 0.930 . S
H1386 C1328 0.930 . S
H1387 C1329 0.930 . S
H1388 C1331 0.930 . S
H1389 C1333 0.929 . S
H1390 C1334 0.930 . S
H1391 C1335 0.930 . S
H1392 C1338 0.930 . S
H1393 C1341 0.929 . S
H1394 C1346 0.929 . S
H1395 C1347 0.930 . S
H1396 C1354 0.929 . S
H1397 C1355 0.930 . S
H1398 C1356 0.930 . S
H1399 C1357 0.930 . S
H1400 C1359 0.929 . S
H1401 C1360 0.930 . S
H1402 C1361 0.930 . S
H1403 C1362 0.930 . S
H1404 C1366 0.929 . S
H1405 C1368 0.930 . S
H1406 C1374 0.929 . S
H1407 C1375 0.930 . S
Li1408 N1425 1.990 . S
Li1408 O1468 1.956 . S
Li1408 O1469 1.970 . S
Li1408 O1470 1.961 . S
Li1409 N1433 1.990 1_545 S
Li1409 O1468 1.970 . S
Li1409 O1469 1.956 . S
Li1409 O1471 1.961 . S
Li1410 N1455 1.990 . S
Li1410 O1468 1.961 . S
Li1410 O1470 1.956 . S
Li1410 O1471 1.970 . S
Li1411 N1461 1.990 . S
Li1411 O1469 1.961 . S
Li1411 O1470 1.970 . S
Li1411 O1471 1.956 . S
C1412 C1414 1.348 1_545 S
C1412 C1415 1.356 . S
C1412 O1468 1.325 . S
N1413 C1416 1.314 . S
N1413 C1417 1.279 . S
C1414 C1412 1.348 1_565 S
C1414 C1416 1.353 . S
C1414 H1472 0.929 . S
C1415 C1412 1.356 . S
C1415 C1417 1.358 1_545 S
C1415 H1473 0.930 . S
C1416 N1413 1.314 . S
C1416 C1414 1.353 . S
C1416 H1474 0.930 . S
C1417 N1413 1.279 . S
C1417 C1415 1.358 1_565 S
C1417 H1475 0.930 . S
C1418 C1421 1.348 . S
C1418 C1422 1.356 . S
C1418 O1469 1.325 . S
C1419 N1420 1.279 . S
C1419 C1422 1.358 . S
C1419 H1476 0.930 . S
N1420 C1419 1.279 . S
N1420 C1423 1.314 . S
C1421 C1418 1.348 . S
C1421 C1423 1.353 . S
C1421 H1477 0.929 . S
C1422 C1418 1.356 . S
C1422 C1419 1.358 . S
C1422 H1478 0.930 . S
C1423 N1420 1.314 . S
C1423 C1421 1.353 . S
C1423 H1479 0.930 . S
C1424 N1425 1.314 . S
C1424 C1429 1.353 . S
C1424 H1430 0.930 . S
N1425 Li1408 1.990 . S
N1425 C1424 1.314 . S
N1425 C1427 1.279 . S
C1426 C1427 1.358 . S
C1426 C1428 1.356 . S
C1426 H1480 0.930 . S
C1427 N1425 1.279 . S
C1427 C1426 1.358 . S
C1427 H1431 0.930 . S
C1428 C1426 1.356 . S
C1428 C1429 1.348 . S
C1429 C1424 1.353 . S
C1429 C1428 1.348 . S
C1429 H1481 0.929 . S
H1430 C1424 0.930 . S
H1431 C1427 0.930 . S
C1432 N1433 1.314 . S
C1432 C1434 1.353 . S
C1432 H1438 0.930 . S
N1433 Li1409 1.990 1_565 S
N1433 C1432 1.314 . S
N1433 C1436 1.279 . S
C1434 C1432 1.353 . S
C1434 C1437 1.348 . S
C1434 H1482 0.929 . S
C1435 C1436 1.358 . S
C1435 C1437 1.356 . S
C1435 H1483 0.930 . S
C1436 N1433 1.279 . S
C1436 C1435 1.358 . S
C1436 H1439 0.930 . S
C1437 C1434 1.348 . S
C1437 C1435 1.356 . S
H1438 C1432 0.930 . S
H1439 C1436 0.930 . S
C1440 C1442 1.348 . S
C1440 C1443 1.356 . S
C1440 O1470 1.325 . S
N1441 C1444 1.314 . S
N1441 C1445 1.279 . S
C1442 C1440 1.348 . S
C1442 C1444 1.353 . S
C1442 H1484 0.929 . S
C1443 C1440 1.356 . S
C1443 C1445 1.358 . S
C1443 H1485 0.930 . S
C1444 N1441 1.314 . S
C1444 C1442 1.353 . S
C1444 H1486 0.930 . S
C1445 N1441 1.279 . S
C1445 C1443 1.358 . S
C1445 H1487 0.930 . S
C1446 C1447 1.348 . S
C1446 C1448 1.356 . S
C1446 O1471 1.325 . S
C1447 C1446 1.348 . S
C1447 C1449 1.353 . S
C1447 H1488 0.929 . S
C1448 C1446 1.356 . S
C1448 C1450 1.358 . S
C1448 H1489 0.930 . S
C1449 C1447 1.353 . S
C1449 N1451 1.314 . S
C1449 H1490 0.930 . S
C1450 C1448 1.358 . S
C1450 N1451 1.279 . S
C1450 H1491 0.930 . S
N1451 C1449 1.314 . S
N1451 C1450 1.279 . S
C1452 C1454 1.353 . S
C1452 N1455 1.314 . S
C1452 H1458 0.930 . S
C1453 N1455 1.279 . S
C1453 C1456 1.358 . S
C1453 H1459 0.930 . S
C1454 C1452 1.353 . S
C1454 C1457 1.348 . S
C1454 H1492 0.929 . S
N1455 Li1410 1.990 . S
N1455 C1452 1.314 . S
N1455 C1453 1.279 . S
C1456 C1453 1.358 . S
C1456 C1457 1.356 . S
C1456 H1493 0.930 . S
C1457 C1454 1.348 . S
C1457 C1456 1.356 . S
H1458 C1452 0.930 . S
H1459 C1453 0.930 . S
C1460 N1461 1.314 . S
C1460 C1462 1.353 . S
C1460 H1466 0.930 . S
N1461 Li1411 1.990 . S
N1461 C1460 1.314 . S
N1461 C1464 1.279 . S
C1462 C1460 1.353 . S
C1462 C1465 1.348 . S
C1462 H1494 0.929 . S
C1463 C1464 1.358 . S
C1463 C1465 1.356 . S
C1463 H1495 0.930 . S
C1464 N1461 1.279 . S
C1464 C1463 1.358 . S
C1464 H1467 0.930 . S
C1465 C1462 1.348 . S
C1465 C1463 1.356 . S
H1466 C1460 0.930 . S
H1467 C1464 0.930 . S
O1468 Li1408 1.956 . S
O1468 Li1409 1.970 . S
O1468 Li1410 1.961 . S
O1468 C1412 1.325 . S
O1469 Li1408 1.970 . S
O1469 Li1409 1.956 . S
O1469 Li1411 1.961 . S
O1469 C1418 1.325 . S
O1470 Li1408 1.961 . S
O1470 Li1410 1.956 . S
O1470 Li1411 1.970 . S
O1470 C1440 1.325 . S
O1471 Li1409 1.961 . S
O1471 Li1410 1.970 . S
O1471 Li1411 1.956 . S
O1471 C1446 1.325 . S
H1472 C1414 0.929 . S
H1473 C1415 0.930 . S
H1474 C1416 0.930 . S
H1475 C1417 0.930 . S
H1476 C1419 0.930 . S
H1477 C1421 0.929 . S
H1478 C1422 0.930 . S
H1479 C1423 0.930 . S
H1480 C1426 0.930 . S
H1481 C1429 0.929 . S
H1482 C1434 0.929 . S
H1483 C1435 0.930 . S
H1484 C1442 0.929 . S
H1485 C1443 0.930 . S
H1486 C1444 0.930 . S
H1487 C1445 0.930 . S
H1488 C1447 0.929 . S
H1489 C1448 0.930 . S
H1490 C1449 0.930 . S
H1491 C1450 0.930 . S
H1492 C1454 0.929 . S
H1493 C1456 0.930 . S
H1494 C1462 0.929 . S
H1495 C1463 0.930 . S
Li1496 N1513 1.990 . S
Li1496 O1556 1.956 . S
Li1496 O1557 1.970 . S
Li1496 O1558 1.961 . S
Li1497 N1521 1.990 . S
Li1497 O1556 1.970 . S
Li1497 O1557 1.956 . S
Li1497 O1559 1.961 . S
Li1498 N1543 1.990 . S
Li1498 O1556 1.961 . S
Li1498 O1558 1.956 . S
Li1498 O1559 1.970 . S
Li1499 N1549 1.990 . S
Li1499 O1557 1.961 . S
Li1499 O1558 1.970 . S
Li1499 O1559 1.956 . S
C1500 C1502 1.348 . S
C1500 C1503 1.356 . S
C1500 O1556 1.325 . S
N1501 C1504 1.314 . S
N1501 C1505 1.279 . S
C1502 C1500 1.348 . S
C1502 C1504 1.353 . S
C1502 H1560 0.929 . S
C1503 C1500 1.356 . S
C1503 C1505 1.358 . S
C1503 H1561 0.930 . S
C1504 N1501 1.314 . S
C1504 C1502 1.353 . S
C1504 H1562 0.930 . S
C1505 N1501 1.279 . S
C1505 C1503 1.358 . S
C1505 H1563 0.930 . S
C1506 C1509 1.348 . S
C1506 C1510 1.356 . S
C1506 O1557 1.325 . S
C1507 N1508 1.279 . S
C1507 C1510 1.358 . S
C1507 H1564 0.930 . S
N1508 C1507 1.279 . S
N1508 C1511 1.314 . S
C1509 C1506 1.348 . S
C1509 C1511 1.353 . S
C1509 H1565 0.929 . S
C1510 C1506 1.356 . S
C1510 C1507 1.358 . S
C1510 H1566 0.930 . S
C1511 N1508 1.314 . S
C1511 C1509 1.353 . S
C1511 H1567 0.930 . S
C1512 N1513 1.314 . S
C1512 C1517 1.353 . S
C1512 H1518 0.930 . S
N1513 Li1496 1.990 . S
N1513 C1512 1.314 . S
N1513 C1515 1.279 . S
C1514 C1515 1.358 . S
C1514 C1516 1.356 . S
C1514 H1568 0.930 . S
C1515 N1513 1.279 . S
C1515 C1514 1.358 . S
C1515 H1519 0.930 . S
C1516 C1514 1.356 . S
C1516 C1517 1.348 . S
C1517 C1512 1.353 . S
C1517 C1516 1.348 . S
C1517 H1569 0.929 . S
H1518 C1512 0.930 . S
H1519 C1515 0.930 . S
C1520 N1521 1.314 . S
C1520 C1522 1.353 . S
C1520 H1526 0.930 . S
N1521 Li1497 1.990 . S
N1521 C1520 1.314 . S
N1521 C1524 1.279 . S
C1522 C1520 1.353 . S
C1522 C1525 1.348 . S
C1522 H1570 0.929 . S
C1523 C1524 1.358 . S
C1523 C1525 1.356 . S
C1523 H1571 0.930 . S
C1524 N1521 1.279 . S
C1524 C1523 1.358 . S
C1524 H1527 0.930 . S
C1525 C1522 1.348 . S
C1525 C1523 1.356 . S
H1526 C1520 0.930 . S
H1527 C1524 0.930 . S
C1528 C1530 1.348 . S
C1528 C1531 1.356 . S
C1528 O1558 1.325 . S
N1529 C1532 1.314 . S
N1529 C1533 1.279 . S
C1530 C1528 1.348 . S
C1530 C1532 1.353 . S
C1530 H1572 0.929 . S
C1531 C1528 1.356 . S
C1531 C1533 1.358 . S
C1531 H1573 0.930 . S
C1532 N1529 1.314 . S
C1532 C1530 1.353 . S
C1532 H1574 0.930 . S
C1533 N1529 1.279 . S
C1533 C1531 1.358 . S
C1533 H1575 0.930 . S
C1534 C1535 1.348 . S
C1534 C1536 1.356 . S
C1534 O1559 1.325 . S
C1535 C1534 1.348 . S
C1535 C1537 1.353 . S
C1535 H1576 0.929 . S
C1536 C1534 1.356 . S
C1536 C1538 1.358 . S
C1536 H1577 0.930 . S
C1537 C1535 1.353 . S
C1537 N1539 1.314 . S
C1537 H1578 0.930 . S
C1538 C1536 1.358 . S
C1538 N1539 1.279 . S
C1538 H1579 0.930 . S
N1539 C1537 1.314 . S
N1539 C1538 1.279 . S
C1540 C1542 1.353 . S
C1540 N1543 1.314 . S
C1540 H1546 0.930 . S
C1541 N1543 1.279 . S
C1541 C1544 1.358 . S
C1541 H1547 0.930 . S
C1542 C1540 1.353 . S
C1542 C1545 1.348 . S
C1542 H1580 0.929 . S
N1543 Li1498 1.990 . S
N1543 C1540 1.314 . S
N1543 C1541 1.279 . S
C1544 C1541 1.358 . S
C1544 C1545 1.356 . S
C1544 H1581 0.930 . S
C1545 C1542 1.348 . S
C1545 C1544 1.356 . S
H1546 C1540 0.930 . S
H1547 C1541 0.930 . S
C1548 N1549 1.314 . S
C1548 C1550 1.353 . S
C1548 H1554 0.930 . S
N1549 Li1499 1.990 . S
N1549 C1548 1.314 . S
N1549 C1552 1.279 . S
C1550 C1548 1.353 . S
C1550 C1553 1.348 . S
C1550 H1582 0.929 . S
C1551 C1552 1.358 . S
C1551 C1553 1.356 . S
C1551 H1583 0.930 . S
C1552 N1549 1.279 . S
C1552 C1551 1.358 . S
C1552 H1555 0.930 . S
C1553 C1550 1.348 . S
C1553 C1551 1.356 . S
H1554 C1548 0.930 . S
H1555 C1552 0.930 . S
O1556 Li1496 1.956 . S
O1556 Li1497 1.970 . S
O1556 Li1498 1.961 . S
O1556 C1500 1.325 . S
O1557 Li1496 1.970 . S
O1557 Li1497 1.956 . S
O1557 Li1499 1.961 . S
O1557 C1506 1.325 . S
O1558 Li1496 1.961 . S
O1558 Li1498 1.956 . S
O1558 Li1499 1.970 . S
O1558 C1528 1.325 . S
O1559 Li1497 1.961 . S
O1559 Li1498 1.970 . S
O1559 Li1499 1.956 . S
O1559 C1534 1.325 . S
H1560 C1502 0.929 . S
H1561 C1503 0.930 . S
H1562 C1504 0.930 . S
H1563 C1505 0.930 . S
H1564 C1507 0.930 . S
H1565 C1509 0.929 . S
H1566 C1510 0.930 . S
H1567 C1511 0.930 . S
H1568 C1514 0.930 . S
H1569 C1517 0.929 . S
H1570 C1522 0.929 . S
H1571 C1523 0.930 . S
H1572 C1530 0.929 . S
H1573 C1531 0.930 . S
H1574 C1532 0.930 . S
H1575 C1533 0.930 . S
H1576 C1535 0.929 . S
H1577 C1536 0.930 . S
H1578 C1537 0.930 . S
H1579 C1538 0.930 . S
H1580 C1542 0.929 . S
H1581 C1544 0.930 . S
H1582 C1550 0.929 . S
H1583 C1551 0.930 . S
Li1584 N1601 1.990 . S
Li1584 O1644 1.956 . S
Li1584 O1645 1.970 . S
Li1584 O1646 1.961 . S
Li1585 N1609 1.990 . S
Li1585 O1644 1.970 . S
Li1585 O1645 1.956 . S
Li1585 O1647 1.961 . S
Li1586 N1631 1.990 . S
Li1586 O1644 1.961 . S
Li1586 O1646 1.956 . S
Li1586 O1647 1.970 . S
Li1587 N1637 1.990 . S
Li1587 O1645 1.961 . S
Li1587 O1646 1.970 . S
Li1587 O1647 1.956 . S
C1588 C1590 1.348 . S
C1588 C1591 1.356 . S
C1588 O1644 1.325 . S
N1589 C1592 1.314 . S
N1589 C1593 1.279 . S
C1590 C1588 1.348 . S
C1590 C1592 1.353 . S
C1590 H1648 0.929 . S
C1591 C1588 1.356 . S
C1591 C1593 1.358 . S
C1591 H1649 0.930 . S
C1592 N1589 1.314 . S
C1592 C1590 1.353 . S
C1592 H1650 0.930 . S
C1593 N1589 1.279 . S
C1593 C1591 1.358 . S
C1593 H1651 0.930 . S
C1594 C1597 1.348 . S
C1594 C1598 1.356 . S
C1594 O1645 1.325 . S
C1595 N1596 1.279 . S
C1595 C1598 1.358 . S
C1595 H1652 0.930 . S
N1596 C1595 1.279 . S
N1596 C1599 1.314 . S
C1597 C1594 1.348 . S
C1597 C1599 1.353 . S
C1597 H1653 0.929 . S
C1598 C1594 1.356 . S
C1598 C1595 1.358 . S
C1598 H1654 0.930 . S
C1599 N1596 1.314 . S
C1599 C1597 1.353 . S
C1599 H1655 0.930 . S
C1600 N1601 1.314 . S
C1600 C1605 1.353 . S
C1600 H1606 0.930 . S
N1601 Li1584 1.990 . S
N1601 C1600 1.314 . S
N1601 C1603 1.279 . S
C1602 C1603 1.358 . S
C1602 C1604 1.356 . S
C1602 H1656 0.930 . S
C1603 N1601 1.279 . S
C1603 C1602 1.358 . S
C1603 H1607 0.930 . S
C1604 C1602 1.356 . S
C1604 C1605 1.348 . S
C1605 C1600 1.353 . S
C1605 C1604 1.348 . S
C1605 H1657 0.929 . S
H1606 C1600 0.930 . S
H1607 C1603 0.930 . S
C1608 N1609 1.314 . S
C1608 C1610 1.353 . S
C1608 H1614 0.930 . S
N1609 Li1585 1.990 . S
N1609 C1608 1.314 . S
N1609 C1612 1.279 . S
C1610 C1608 1.353 . S
C1610 C1613 1.348 . S
C1610 H1658 0.929 . S
C1611 C1612 1.358 . S
C1611 C1613 1.356 . S
C1611 H1659 0.930 . S
C1612 N1609 1.279 . S
C1612 C1611 1.358 . S
C1612 H1615 0.930 . S
C1613 C1610 1.348 . S
C1613 C1611 1.356 . S
H1614 C1608 0.930 . S
H1615 C1612 0.930 . S
C1616 C1618 1.348 . S
C1616 C1619 1.356 . S
C1616 O1646 1.325 . S
N1617 C1620 1.314 . S
N1617 C1621 1.279 . S
C1618 C1616 1.348 . S
C1618 C1620 1.353 . S
C1618 H1660 0.929 . S
C1619 C1616 1.356 . S
C1619 C1621 1.358 . S
C1619 H1661 0.930 . S
C1620 N1617 1.314 . S
C1620 C1618 1.353 . S
C1620 H1662 0.930 . S
C1621 N1617 1.279 . S
C1621 C1619 1.358 . S
C1621 H1663 0.930 . S
C1622 C1623 1.348 . S
C1622 C1624 1.356 . S
C1622 O1647 1.325 . S
C1623 C1622 1.348 . S
C1623 C1625 1.353 . S
C1623 H1664 0.929 . S
C1624 C1622 1.356 . S
C1624 C1626 1.358 . S
C1624 H1665 0.930 . S
C1625 C1623 1.353 . S
C1625 N1627 1.314 . S
C1625 H1666 0.930 . S
C1626 C1624 1.358 . S
C1626 N1627 1.279 . S
C1626 H1667 0.930 . S
N1627 C1625 1.314 . S
N1627 C1626 1.279 . S
C1628 C1630 1.353 . S
C1628 N1631 1.314 . S
C1628 H1634 0.930 . S
C1629 N1631 1.279 . S
C1629 C1632 1.358 . S
C1629 H1635 0.930 . S
C1630 C1628 1.353 . S
C1630 C1633 1.348 . S
C1630 H1668 0.929 . S
N1631 Li1586 1.990 . S
N1631 C1628 1.314 . S
N1631 C1629 1.279 . S
C1632 C1629 1.358 . S
C1632 C1633 1.356 . S
C1632 H1669 0.930 . S
C1633 C1630 1.348 . S
C1633 C1632 1.356 . S
H1634 C1628 0.930 . S
H1635 C1629 0.930 . S
C1636 N1637 1.314 . S
C1636 C1638 1.353 . S
C1636 H1642 0.930 . S
N1637 Li1587 1.990 . S
N1637 C1636 1.314 . S
N1637 C1640 1.279 . S
C1638 C1636 1.353 . S
C1638 C1641 1.348 . S
C1638 H1670 0.929 . S
C1639 C1640 1.358 . S
C1639 C1641 1.356 . S
C1639 H1671 0.930 . S
C1640 N1637 1.279 . S
C1640 C1639 1.358 . S
C1640 H1643 0.930 . S
C1641 C1638 1.348 . S
C1641 C1639 1.356 . S
H1642 C1636 0.930 . S
H1643 C1640 0.930 . S
O1644 Li1584 1.956 . S
O1644 Li1585 1.970 . S
O1644 Li1586 1.961 . S
O1644 C1588 1.325 . S
O1645 Li1584 1.970 . S
O1645 Li1585 1.956 . S
O1645 Li1587 1.961 . S
O1645 C1594 1.325 . S
O1646 Li1584 1.961 . S
O1646 Li1586 1.956 . S
O1646 Li1587 1.970 . S
O1646 C1616 1.325 . S
O1647 Li1585 1.961 . S
O1647 Li1586 1.970 . S
O1647 Li1587 1.956 . S
O1647 C1622 1.325 . S
H1648 C1590 0.929 . S
H1649 C1591 0.930 . S
H1650 C1592 0.930 . S
H1651 C1593 0.930 . S
H1652 C1595 0.930 . S
H1653 C1597 0.929 . S
H1654 C1598 0.930 . S
H1655 C1599 0.930 . S
H1656 C1602 0.930 . S
H1657 C1605 0.929 . S
H1658 C1610 0.929 . S
H1659 C1611 0.930 . S
H1660 C1618 0.929 . S
H1661 C1619 0.930 . S
H1662 C1620 0.930 . S
H1663 C1621 0.930 . S
H1664 C1623 0.929 . S
H1665 C1624 0.930 . S
H1666 C1625 0.930 . S
H1667 C1626 0.930 . S
H1668 C1630 0.929 . S
H1669 C1632 0.930 . S
H1670 C1638 0.929 . S
H1671 C1639 0.930 . S
Li1672 N1689 1.990 . S
Li1672 O1732 1.956 . S
Li1672 O1733 1.970 . S
Li1672 O1734 1.961 1_545 S
Li1673 N1697 1.990 . S
Li1673 O1732 1.970 . S
Li1673 O1733 1.956 . S
Li1673 O1735 1.961 . S
Li1674 N1719 1.990 . S
Li1674 O1732 1.961 . S
Li1674 O1734 1.956 1_545 S
Li1674 O1735 1.970 . S
Li1675 N1725 1.990 1_545 S
Li1675 O1733 1.961 . S
Li1675 O1734 1.970 1_545 S
Li1675 O1735 1.956 . S
C1676 C1678 1.348 . S
C1676 C1679 1.356 . S
C1676 O1732 1.325 . S
N1677 C1680 1.314 . S
N1677 C1681 1.279 . S
C1678 C1676 1.348 . S
C1678 C1680 1.353 . S
C1678 H1736 0.929 . S
C1679 C1676 1.356 . S
C1679 C1681 1.358 . S
C1679 H1737 0.930 . S
C1680 N1677 1.314 . S
C1680 C1678 1.353 . S
C1680 H1738 0.930 . S
C1681 N1677 1.279 . S
C1681 C1679 1.358 . S
C1681 H1739 0.930 . S
C1682 C1685 1.348 . S
C1682 C1686 1.356 . S
C1682 O1733 1.325 . S
C1683 N1684 1.279 . S
C1683 C1686 1.358 . S
C1683 H1740 0.930 . S
N1684 C1683 1.279 . S
N1684 C1687 1.314 . S
C1685 C1682 1.348 . S
C1685 C1687 1.353 . S
C1685 H1741 0.929 . S
C1686 C1682 1.356 . S
C1686 C1683 1.358 . S
C1686 H1742 0.930 . S
C1687 N1684 1.314 . S
C1687 C1685 1.353 . S
C1687 H1743 0.930 . S
C1688 N1689 1.314 . S
C1688 C1693 1.353 . S
C1688 H1694 0.930 1_545 S
N1689 Li1672 1.990 . S
N1689 C1688 1.314 . S
N1689 C1691 1.279 . S
C1690 C1691 1.358 . S
C1690 C1692 1.356 . S
C1690 H1744 0.930 . S
C1691 N1689 1.279 . S
C1691 C1690 1.358 . S
C1691 H1695 0.930 . S
C1692 C1690 1.356 . S
C1692 C1693 1.348 . S
C1693 C1688 1.353 . S
C1693 C1692 1.348 . S
C1693 H1745 0.929 1_545 S
H1694 C1688 0.930 1_565 S
H1695 C1691 0.930 . S
C1696 N1697 1.314 . S
C1696 C1698 1.353 . S
C1696 H1702 0.930 . S
N1697 Li1673 1.990 . S
N1697 C1696 1.314 . S
N1697 C1700 1.279 . S
C1698 C1696 1.353 . S
C1698 C1701 1.348 . S
C1698 H1746 0.929 . S
C1699 C1700 1.358 . S
C1699 C1701 1.356 . S
C1699 H1747 0.930 . S
C1700 N1697 1.279 . S
C1700 C1699 1.358 . S
C1700 H1703 0.930 . S
C1701 C1698 1.348 . S
C1701 C1699 1.356 . S
H1702 C1696 0.930 . S
H1703 C1700 0.930 . S
C1704 C1706 1.348 . S
C1704 C1707 1.356 . S
C1704 O1734 1.325 . S
N1705 C1708 1.314 . S
N1705 C1709 1.279 . S
C1706 C1704 1.348 . S
C1706 C1708 1.353 . S
C1706 H1748 0.929 . S
C1707 C1704 1.356 . S
C1707 C1709 1.358 . S
C1707 H1749 0.930 . S
C1708 N1705 1.314 . S
C1708 C1706 1.353 . S
C1708 H1750 0.930 . S
C1709 N1705 1.279 . S
C1709 C1707 1.358 . S
C1709 H1751 0.930 . S
C1710 C1711 1.348 . S
C1710 C1712 1.356 . S
C1710 O1735 1.325 . S
C1711 C1710 1.348 . S
C1711 C1713 1.353 . S
C1711 H1752 0.929 . S
C1712 C1710 1.356 . S
C1712 C1714 1.358 . S
C1712 H1753 0.930 . S
C1713 C1711 1.353 . S
C1713 N1715 1.314 . S
C1713 H1754 0.930 . S
C1714 C1712 1.358 . S
C1714 N1715 1.279 . S
C1714 H1755 0.930 . S
N1715 C1713 1.314 . S
N1715 C1714 1.279 . S
C1716 C1718 1.353 . S
C1716 N1719 1.314 . S
C1716 H1722 0.930 . S
C1717 N1719 1.279 1_565 S
C1717 C1720 1.358 . S
C1717 H1723 0.930 . S
C1718 C1716 1.353 . S
C1718 C1721 1.348 . S
C1718 H1756 0.929 . S
N1719 Li1674 1.990 . S
N1719 C1716 1.314 . S
N1719 C1717 1.279 1_545 S
C1720 C1717 1.358 . S
C1720 C1721 1.356 1_565 S
C1720 H1757 0.930 . S
C1721 C1718 1.348 . S
C1721 C1720 1.356 1_545 S
H1722 C1716 0.930 . S
H1723 C1717 0.930 . S
C1724 N1725 1.314 . S
C1724 C1726 1.353 . S
C1724 H1730 0.930 . S
N1725 Li1675 1.990 1_565 S
N1725 C1724 1.314 . S
N1725 C1728 1.279 . S
C1726 C1724 1.353 . S
C1726 C1729 1.348 . S
C1726 H1758 0.929 . S
C1727 C1728 1.358 . S
C1727 C1729 1.356 . S
C1727 H1759 0.930 . S
C1728 N1725 1.279 . S
C1728 C1727 1.358 . S
C1728 H1731 0.930 . S
C1729 C1726 1.348 . S
C1729 C1727 1.356 . S
H1730 C1724 0.930 . S
H1731 C1728 0.930 . S
O1732 Li1672 1.956 . S
O1732 Li1673 1.970 . S
O1732 Li1674 1.961 . S
O1732 C1676 1.325 . S
O1733 Li1672 1.970 . S
O1733 Li1673 1.956 . S
O1733 Li1675 1.961 . S
O1733 C1682 1.325 . S
O1734 Li1672 1.961 1_565 S
O1734 Li1674 1.956 1_565 S
O1734 Li1675 1.970 1_565 S
O1734 C1704 1.325 . S
O1735 Li1673 1.961 . S
O1735 Li1674 1.970 . S
O1735 Li1675 1.956 . S
O1735 C1710 1.325 . S
H1736 C1678 0.929 . S
H1737 C1679 0.930 . S
H1738 C1680 0.930 . S
H1739 C1681 0.930 . S
H1740 C1683 0.930 . S
H1741 C1685 0.929 . S
H1742 C1686 0.930 . S
H1743 C1687 0.930 . S
H1744 C1690 0.930 . S
H1745 C1693 0.929 1_565 S
H1746 C1698 0.929 . S
H1747 C1699 0.930 . S
H1748 C1706 0.929 . S
H1749 C1707 0.930 . S
H1750 C1708 0.930 . S
H1751 C1709 0.930 . S
H1752 C1711 0.929 . S
H1753 C1712 0.930 . S
H1754 C1713 0.930 . S
H1755 C1714 0.930 . S
H1756 C1718 0.929 . S
H1757 C1720 0.930 . S
H1758 C1726 0.929 . S
H1759 C1727 0.930 . S
Li1760 N1777 1.990 . S
Li1760 O1820 1.956 . S
Li1760 O1821 1.970 . S
Li1760 O1822 1.961 . S
Li1761 N1785 1.990 . S
Li1761 O1820 1.970 . S
Li1761 O1821 1.956 . S
Li1761 O1823 1.961 1_554 S
Li1762 N1807 1.990 . S
Li1762 O1820 1.961 1_556 S
Li1762 O1822 1.956 1_556 S
Li1762 O1823 1.970 . S
Li1763 N1813 1.990 . S
Li1763 O1821 1.961 . S
Li1763 O1822 1.970 . S
Li1763 O1823 1.956 1_554 S
C1764 C1766 1.348 . S
C1764 C1767 1.356 . S
C1764 O1820 1.325 . S
N1765 C1768 1.314 . S
N1765 C1769 1.279 . S
C1766 C1764 1.348 . S
C1766 C1768 1.353 . S
C1766 H1824 0.929 . S
C1767 C1764 1.356 . S
C1767 C1769 1.358 . S
C1767 H1825 0.930 . S
C1768 N1765 1.314 . S
C1768 C1766 1.353 . S
C1768 H1826 0.930 . S
C1769 N1765 1.279 . S
C1769 C1767 1.358 . S
C1769 H1827 0.930 . S
C1770 C1773 1.348 . S
C1770 C1774 1.356 . S
C1770 O1821 1.325 . S
C1771 N1772 1.279 . S
C1771 C1774 1.358 . S
C1771 H1828 0.930 . S
N1772 C1771 1.279 . S
N1772 C1775 1.314 . S
C1773 C1770 1.348 . S
C1773 C1775 1.353 . S
C1773 H1829 0.929 . S
C1774 C1770 1.356 . S
C1774 C1771 1.358 . S
C1774 H1830 0.930 . S
C1775 N1772 1.314 . S
C1775 C1773 1.353 . S
C1775 H1831 0.930 . S
C1776 N1777 1.314 . S
C1776 C1781 1.353 . S
C1776 H1782 0.930 . S
N1777 Li1760 1.990 . S
N1777 C1776 1.314 . S
N1777 C1779 1.279 . S
C1778 C1779 1.358 . S
C1778 C1780 1.356 . S
C1778 H1832 0.930 . S
C1779 N1777 1.279 . S
C1779 C1778 1.358 . S
C1779 H1783 0.930 . S
C1780 C1778 1.356 . S
C1780 C1781 1.348 . S
C1781 C1776 1.353 . S
C1781 C1780 1.348 . S
C1781 H1833 0.929 . S
H1782 C1776 0.930 . S
H1783 C1779 0.930 . S
C1784 N1785 1.314 1_556 S
C1784 C1786 1.353 . S
C1784 H1790 0.930 . S
N1785 Li1761 1.990 . S
N1785 C1784 1.314 1_554 S
N1785 C1788 1.279 . S
C1786 C1784 1.353 . S
C1786 C1789 1.348 1_556 S
C1786 H1834 0.929 . S
C1787 C1788 1.358 . S
C1787 C1789 1.356 . S
C1787 H1835 0.930 . S
C1788 N1785 1.279 . S
C1788 C1787 1.358 . S
C1788 H1791 0.930 . S
C1789 C1786 1.348 1_554 S
C1789 C1787 1.356 . S
H1790 C1784 0.930 . S
H1791 C1788 0.930 . S
C1792 C1794 1.359 . S
C1792 C1795 1.356 . S
C1792 O1822 1.325 . S
N1793 C1796 1.314 . S
N1793 C1797 1.279 . S
C1794 C1792 1.359 . S
C1794 C1796 1.353 . S
C1794 H1836 0.920 1_554 S
C1795 C1792 1.356 . S
C1795 C1797 1.358 . S
C1795 H1837 0.930 . S
C1796 N1793 1.314 . S
C1796 C1794 1.353 . S
C1796 H1838 0.930 1_554 S
C1797 N1793 1.279 . S
C1797 C1795 1.358 . S
C1797 H1839 0.930 . S
C1798 C1799 1.348 . S
C1798 C1800 1.356 . S
C1798 O1823 1.325 . S
C1799 C1798 1.348 . S
C1799 C1801 1.353 . S
C1799 H1840 0.929 . S
C1800 C1798 1.356 . S
C1800 C1802 1.358 . S
C1800 H1841 0.930 . S
C1801 C1799 1.353 . S
C1801 N1803 1.314 . S
C1801 H1842 0.930 . S
C1802 C1800 1.358 . S
C1802 N1803 1.279 . S
C1802 H1843 0.930 . S
N1803 C1801 1.314 . S
N1803 C1802 1.279 . S
C1804 C1806 1.353 . S
C1804 N1807 1.314 . S
C1804 H1810 0.930 . S
C1805 N1807 1.279 . S
C1805 C1808 1.358 . S
C1805 H1811 0.930 . S
C1806 C1804 1.353 . S
C1806 C1809 1.348 . S
C1806 H1844 0.929 . S
N1807 Li1762 1.990 . S
N1807 C1804 1.314 . S
N1807 C1805 1.279 . S
C1808 C1805 1.358 . S
C1808 C1809 1.356 . S
C1808 H1845 0.930 . S
C1809 C1806 1.348 . S
C1809 C1808 1.356 . S
H1810 C1804 0.930 . S
H1811 C1805 0.930 . S
C1812 N1813 1.314 . S
C1812 C1814 1.353 . S
C1812 H1818 0.930 . S
N1813 Li1763 1.990 . S
N1813 C1812 1.314 . S
N1813 C1816 1.279 1_554 S
C1814 C1812 1.353 . S
C1814 C1817 1.377 . S
C1814 H1846 0.929 . S
C1815 C1816 1.358 . S
C1815 C1817 1.326 1_556 S
C1815 H1847 0.930 . S
C1816 N1813 1.279 1_556 S
C1816 C1815 1.358 . S
C1816 H1819 0.930 . S
C1817 C1814 1.377 . S
C1817 C1815 1.326 1_554 S
H1818 C1812 0.930 . S
H1819 C1816 0.930 . S
O1820 Li1760 1.956 . S
O1820 Li1761 1.970 . S
O1820 Li1762 1.961 1_554 S
O1820 C1764 1.325 . S
O1821 Li1760 1.970 . S
O1821 Li1761 1.956 . S
O1821 Li1763 1.961 . S
O1821 C1770 1.325 . S
O1822 Li1760 1.961 . S
O1822 Li1762 1.956 1_554 S
O1822 Li1763 1.970 . S
O1822 C1792 1.325 . S
O1823 Li1761 1.961 1_556 S
O1823 Li1762 1.970 . S
O1823 Li1763 1.956 1_556 S
O1823 C1798 1.325 . S
H1824 C1766 0.929 . S
H1825 C1767 0.930 . S
H1826 C1768 0.930 . S
H1827 C1769 0.930 . S
H1828 C1771 0.930 . S
H1829 C1773 0.929 . S
H1830 C1774 0.930 . S
H1831 C1775 0.930 . S
H1832 C1778 0.930 . S
H1833 C1781 0.929 . S
H1834 C1786 0.929 . S
H1835 C1787 0.930 . S
H1836 C1794 0.920 1_556 S
H1837 C1795 0.930 . S
H1838 C1796 0.930 1_556 S
H1839 C1797 0.930 . S
H1840 C1799 0.929 . S
H1841 C1800 0.930 . S
H1842 C1801 0.930 . S
H1843 C1802 0.930 . S
H1844 C1806 0.929 . S
H1845 C1808 0.930 . S
H1846 C1814 0.929 . S
H1847 C1815 0.930 . S
Li1848 N1865 1.990 . S
Li1848 O1908 1.956 . S
Li1848 O1909 1.970 . S
Li1848 O1910 1.961 . S
Li1849 N1873 1.990 . S
Li1849 O1908 1.970 . S
Li1849 O1909 1.956 . S
Li1849 O1911 1.961 . S
Li1850 N1895 1.990 . S
Li1850 O1908 1.961 . S
Li1850 O1910 1.956 . S
Li1850 O1911 1.970 . S
Li1851 N1901 1.990 . S
Li1851 O1909 1.961 . S
Li1851 O1910 1.970 . S
Li1851 O1911 1.956 . S
C1852 C1854 1.348 . S
C1852 C1855 1.356 . S
C1852 O1908 1.325 . S
N1853 C1856 1.314 . S
N1853 C1857 1.279 . S
C1854 C1852 1.348 . S
C1854 C1856 1.353 . S
C1854 H1912 0.929 . S
C1855 C1852 1.356 . S
C1855 C1857 1.358 . S
C1855 H1913 0.930 . S
C1856 N1853 1.314 . S
C1856 C1854 1.353 . S
C1856 H1914 0.930 . S
C1857 N1853 1.279 . S
C1857 C1855 1.358 . S
C1857 H1915 0.930 . S
C1858 C1861 1.348 . S
C1858 C1862 1.356 . S
C1858 O1909 1.325 . S
C1859 N1860 1.279 . S
C1859 C1862 1.358 . S
C1859 H1916 0.930 . S
N1860 C1859 1.279 . S
N1860 C1863 1.314 . S
C1861 C1858 1.348 . S
C1861 C1863 1.353 . S
C1861 H1917 0.929 . S
C1862 C1858 1.356 . S
C1862 C1859 1.358 . S
C1862 H1918 0.930 . S
C1863 N1860 1.314 . S
C1863 C1861 1.353 . S
C1863 H1919 0.930 . S
C1864 N1865 1.314 . S
C1864 C1869 1.353 . S
C1864 H1870 0.930 . S
N1865 Li1848 1.990 . S
N1865 C1864 1.314 . S
N1865 C1867 1.279 . S
C1866 C1867 1.358 . S
C1866 C1868 1.356 . S
C1866 H1920 0.930 . S
C1867 N1865 1.279 . S
C1867 C1866 1.358 . S
C1867 H1871 0.930 . S
C1868 C1866 1.356 . S
C1868 C1869 1.348 . S
C1869 C1864 1.353 . S
C1869 C1868 1.348 . S
C1869 H1921 0.929 . S
H1870 C1864 0.930 . S
H1871 C1867 0.930 . S
C1872 N1873 1.314 . S
C1872 C1874 1.353 . S
C1872 H1878 0.930 . S
N1873 Li1849 1.990 . S
N1873 C1872 1.314 . S
N1873 C1876 1.279 . S
C1874 C1872 1.353 . S
C1874 C1877 1.348 . S
C1874 H1922 0.929 . S
C1875 C1876 1.358 . S
C1875 C1877 1.356 . S
C1875 H1923 0.930 . S
C1876 N1873 1.279 . S
C1876 C1875 1.358 . S
C1876 H1879 0.930 . S
C1877 C1874 1.348 . S
C1877 C1875 1.356 . S
H1878 C1872 0.930 . S
H1879 C1876 0.930 . S
C1880 C1882 1.348 . S
C1880 C1883 1.356 . S
C1880 O1910 1.325 . S
N1881 C1884 1.314 . S
N1881 C1885 1.279 . S
C1882 C1880 1.348 . S
C1882 C1884 1.353 . S
C1882 H1924 0.929 . S
C1883 C1880 1.356 . S
C1883 C1885 1.358 . S
C1883 H1925 0.930 . S
C1884 N1881 1.314 . S
C1884 C1882 1.353 . S
C1884 H1926 0.930 . S
C1885 N1881 1.279 . S
C1885 C1883 1.358 . S
C1885 H1927 0.930 . S
C1886 C1887 1.348 . S
C1886 C1888 1.356 . S
C1886 O1911 1.325 . S
C1887 C1886 1.348 . S
C1887 C1889 1.353 . S
C1887 H1928 0.929 . S
C1888 C1886 1.356 . S
C1888 C1890 1.358 . S
C1888 H1929 0.930 . S
C1889 C1887 1.353 . S
C1889 N1891 1.314 . S
C1889 H1930 0.930 . S
C1890 C1888 1.358 . S
C1890 N1891 1.279 . S
C1890 H1931 0.930 . S
N1891 C1889 1.314 . S
N1891 C1890 1.279 . S
C1892 C1894 1.353 . S
C1892 N1895 1.314 . S
C1892 H1898 0.930 . S
C1893 N1895 1.279 . S
C1893 C1896 1.358 . S
C1893 H1899 0.930 . S
C1894 C1892 1.353 . S
C1894 C1897 1.348 . S
C1894 H1932 0.929 . S
N1895 Li1850 1.990 . S
N1895 C1892 1.314 . S
N1895 C1893 1.279 . S
C1896 C1893 1.358 . S
C1896 C1897 1.356 . S
C1896 H1933 0.930 . S
C1897 C1894 1.348 . S
C1897 C1896 1.356 . S
H1898 C1892 0.930 . S
H1899 C1893 0.930 . S
C1900 N1901 1.314 . S
C1900 C1902 1.353 . S
C1900 H1906 0.930 . S
N1901 Li1851 1.990 . S
N1901 C1900 1.314 . S
N1901 C1904 1.279 . S
C1902 C1900 1.353 . S
C1902 C1905 1.348 . S
C1902 H1934 0.929 . S
C1903 C1904 1.358 . S
C1903 C1905 1.356 . S
C1903 H1935 0.930 . S
C1904 N1901 1.279 . S
C1904 C1903 1.358 . S
C1904 H1907 0.930 . S
C1905 C1902 1.348 . S
C1905 C1903 1.356 . S
H1906 C1900 0.930 . S
H1907 C1904 0.930 . S
O1908 Li1848 1.956 . S
O1908 Li1849 1.970 . S
O1908 Li1850 1.961 . S
O1908 C1852 1.325 . S
O1909 Li1848 1.970 . S
O1909 Li1849 1.956 . S
O1909 Li1851 1.961 . S
O1909 C1858 1.325 . S
O1910 Li1848 1.961 . S
O1910 Li1850 1.956 . S
O1910 Li1851 1.970 . S
O1910 C1880 1.325 . S
O1911 Li1849 1.961 . S
O1911 Li1850 1.970 . S
O1911 Li1851 1.956 . S
O1911 C1886 1.325 . S
H1912 C1854 0.929 . S
H1913 C1855 0.930 . S
H1914 C1856 0.930 . S
H1915 C1857 0.930 . S
H1916 C1859 0.930 . S
H1917 C1861 0.929 . S
H1918 C1862 0.930 . S
H1919 C1863 0.930 . S
H1920 C1866 0.930 . S
H1921 C1869 0.929 . S
H1922 C1874 0.929 . S
H1923 C1875 0.930 . S
H1924 C1882 0.929 . S
H1925 C1883 0.930 . S
H1926 C1884 0.930 . S
H1927 C1885 0.930 . S
H1928 C1887 0.929 . S
H1929 C1888 0.930 . S
H1930 C1889 0.930 . S
H1931 C1890 0.930 . S
H1932 C1894 0.929 . S
H1933 C1896 0.930 . S
H1934 C1902 0.929 . S
H1935 C1903 0.930 . S
Li1936 N1953 1.990 . S
Li1936 O1996 1.956 . S
Li1936 O1997 1.970 . S
Li1936 O1998 1.961 . S
Li1937 N1961 1.990 . S
Li1937 O1996 1.970 . S
Li1937 O1997 1.956 . S
Li1937 O1999 1.961 . S
Li1938 N1983 1.990 . S
Li1938 O1996 1.961 . S
Li1938 O1998 1.956 . S
Li1938 O1999 1.970 . S
Li1939 N1989 1.990 . S
Li1939 O1997 1.961 . S
Li1939 O1998 1.970 . S
Li1939 O1999 1.956 . S
C1940 C1942 1.348 . S
C1940 C1943 1.356 . S
C1940 O1996 1.325 . S
N1941 C1944 1.314 . S
N1941 C1945 1.279 . S
C1942 C1940 1.348 . S
C1942 C1944 1.353 . S
C1942 H2000 0.929 . S
C1943 C1940 1.356 . S
C1943 C1945 1.358 . S
C1943 H2001 0.930 . S
C1944 N1941 1.314 . S
C1944 C1942 1.353 . S
C1944 H2002 0.930 . S
C1945 N1941 1.279 . S
C1945 C1943 1.358 . S
C1945 H2003 0.930 . S
C1946 C1949 1.348 . S
C1946 C1950 1.356 . S
C1946 O1997 1.325 . S
C1947 N1948 1.279 . S
C1947 C1950 1.358 . S
C1947 H2004 0.930 . S
N1948 C1947 1.279 . S
N1948 C1951 1.314 . S
C1949 C1946 1.348 . S
C1949 C1951 1.353 . S
C1949 H2005 0.929 . S
C1950 C1946 1.356 . S
C1950 C1947 1.358 . S
C1950 H2006 0.930 . S
C1951 N1948 1.314 . S
C1951 C1949 1.353 . S
C1951 H2007 0.930 . S
C1952 N1953 1.314 . S
C1952 C1957 1.353 . S
C1952 H1958 0.930 . S
N1953 Li1936 1.990 . S
N1953 C1952 1.314 . S
N1953 C1955 1.279 . S
C1954 C1955 1.358 . S
C1954 C1956 1.356 . S
C1954 H2008 0.930 . S
C1955 N1953 1.279 . S
C1955 C1954 1.358 . S
C1955 H1959 0.930 . S
C1956 C1954 1.356 . S
C1956 C1957 1.348 . S
C1957 C1952 1.353 . S
C1957 C1956 1.348 . S
C1957 H2009 0.929 . S
H1958 C1952 0.930 . S
H1959 C1955 0.930 . S
C1960 N1961 1.314 . S
C1960 C1962 1.353 . S
C1960 H1966 0.930 . S
N1961 Li1937 1.990 . S
N1961 C1960 1.314 . S
N1961 C1964 1.279 . S
C1962 C1960 1.353 . S
C1962 C1965 1.348 . S
C1962 H2010 0.929 . S
C1963 C1964 1.358 . S
C1963 C1965 1.356 . S
C1963 H2011 0.930 . S
C1964 N1961 1.279 . S
C1964 C1963 1.358 . S
C1964 H1967 0.930 . S
C1965 C1962 1.348 . S
C1965 C1963 1.356 . S
H1966 C1960 0.930 . S
H1967 C1964 0.930 . S
C1968 C1970 1.348 . S
C1968 C1971 1.356 . S
C1968 O1998 1.325 . S
N1969 C1972 1.314 . S
N1969 C1973 1.279 . S
C1970 C1968 1.348 . S
C1970 C1972 1.353 . S
C1970 H2012 0.929 . S
C1971 C1968 1.356 . S
C1971 C1973 1.358 . S
C1971 H2013 0.930 . S
C1972 N1969 1.314 . S
C1972 C1970 1.353 . S
C1972 H2014 0.930 . S
C1973 N1969 1.279 . S
C1973 C1971 1.358 . S
C1973 H2015 0.930 . S
C1974 C1975 1.348 . S
C1974 C1976 1.356 . S
C1974 O1999 1.325 . S
C1975 C1974 1.348 . S
C1975 C1977 1.353 . S
C1975 H2016 0.929 . S
C1976 C1974 1.356 . S
C1976 C1978 1.358 . S
C1976 H2017 0.930 . S
C1977 C1975 1.353 . S
C1977 N1979 1.314 . S
C1977 H2018 0.930 . S
C1978 C1976 1.358 . S
C1978 N1979 1.279 . S
C1978 H2019 0.930 . S
N1979 C1977 1.314 . S
N1979 C1978 1.279 . S
C1980 C1982 1.353 . S
C1980 N1983 1.314 . S
C1980 H1986 0.930 . S
C1981 N1983 1.279 . S
C1981 C1984 1.358 . S
C1981 H1987 0.930 . S
C1982 C1980 1.353 . S
C1982 C1985 1.348 . S
C1982 H2020 0.929 . S
N1983 Li1938 1.990 . S
N1983 C1980 1.314 . S
N1983 C1981 1.279 . S
C1984 C1981 1.358 . S
C1984 C1985 1.356 . S
C1984 H2021 0.930 . S
C1985 C1982 1.348 . S
C1985 C1984 1.356 . S
H1986 C1980 0.930 . S
H1987 C1981 0.930 . S
C1988 N1989 1.314 . S
C1988 C1990 1.353 . S
C1988 H1994 0.930 . S
N1989 Li1939 1.990 . S
N1989 C1988 1.314 . S
N1989 C1992 1.279 . S
C1990 C1988 1.353 . S
C1990 C1993 1.348 . S
C1990 H2022 0.929 . S
C1991 C1992 1.358 . S
C1991 C1993 1.356 . S
C1991 H2023 0.930 . S
C1992 N1989 1.279 . S
C1992 C1991 1.358 . S
C1992 H1995 0.930 . S
C1993 C1990 1.348 . S
C1993 C1991 1.356 . S
H1994 C1988 0.930 . S
H1995 C1992 0.930 . S
O1996 Li1936 1.956 . S
O1996 Li1937 1.970 . S
O1996 Li1938 1.961 . S
O1996 C1940 1.325 . S
O1997 Li1936 1.970 . S
O1997 Li1937 1.956 . S
O1997 Li1939 1.961 . S
O1997 C1946 1.325 . S
O1998 Li1936 1.961 . S
O1998 Li1938 1.956 . S
O1998 Li1939 1.970 . S
O1998 C1968 1.325 . S
O1999 Li1937 1.961 . S
O1999 Li1938 1.970 . S
O1999 Li1939 1.956 . S
O1999 C1974 1.325 . S
H2000 C1942 0.929 . S
H2001 C1943 0.930 . S
H2002 C1944 0.930 . S
H2003 C1945 0.930 . S
H2004 C1947 0.930 . S
H2005 C1949 0.929 . S
H2006 C1950 0.930 . S
H2007 C1951 0.930 . S
H2008 C1954 0.930 . S
H2009 C1957 0.929 . S
H2010 C1962 0.929 . S
H2011 C1963 0.930 . S
H2012 C1970 0.929 . S
H2013 C1971 0.930 . S
H2014 C1972 0.930 . S
H2015 C1973 0.930 . S
H2016 C1975 0.929 . S
H2017 C1976 0.930 . S
H2018 C1977 0.930 . S
H2019 C1978 0.930 . S
H2020 C1982 0.929 . S
H2021 C1984 0.930 . S
H2022 C1990 0.929 . S
H2023 C1991 0.930 . S
Li2024 N2041 1.990 . S
Li2024 O2084 1.956 . S
Li2024 O2085 1.970 . S
Li2024 O2086 1.961 . S
Li2025 N2049 1.990 . S
Li2025 O2084 1.970 . S
Li2025 O2085 1.956 . S
Li2025 O2087 1.961 . S
Li2026 N2071 1.990 . S
Li2026 O2084 1.961 . S
Li2026 O2086 1.956 . S
Li2026 O2087 1.970 . S
Li2027 N2077 1.990 . S
Li2027 O2085 1.961 . S
Li2027 O2086 1.970 . S
Li2027 O2087 1.956 . S
C2028 C2030 1.348 . S
C2028 C2031 1.356 . S
C2028 O2084 1.325 . S
N2029 C2032 1.314 . S
N2029 C2033 1.279 . S
C2030 C2028 1.348 . S
C2030 C2032 1.353 . S
C2030 H2088 0.929 . S
C2031 C2028 1.356 . S
C2031 C2033 1.358 . S
C2031 H2089 0.930 . S
C2032 N2029 1.314 . S
C2032 C2030 1.353 . S
C2032 H2090 0.930 . S
C2033 N2029 1.279 . S
C2033 C2031 1.358 . S
C2033 H2091 0.930 . S
C2034 C2037 1.348 . S
C2034 C2038 1.356 . S
C2034 O2085 1.325 . S
C2035 N2036 1.279 . S
C2035 C2038 1.358 . S
C2035 H2092 0.930 . S
N2036 C2035 1.279 . S
N2036 C2039 1.314 . S
C2037 C2034 1.348 . S
C2037 C2039 1.353 . S
C2037 H2093 0.929 . S
C2038 C2034 1.356 . S
C2038 C2035 1.358 . S
C2038 H2094 0.930 . S
C2039 N2036 1.314 . S
C2039 C2037 1.353 . S
C2039 H2095 0.930 . S
C2040 N2041 1.314 . S
C2040 C2045 1.353 . S
C2040 H2046 0.930 . S
N2041 Li2024 1.990 . S
N2041 C2040 1.314 . S
N2041 C2043 1.279 . S
C2042 C2043 1.358 . S
C2042 C2044 1.356 . S
C2042 H2096 0.930 . S
C2043 N2041 1.279 . S
C2043 C2042 1.358 . S
C2043 H2047 0.930 . S
C2044 C2042 1.356 . S
C2044 C2045 1.348 . S
C2045 C2040 1.353 . S
C2045 C2044 1.348 . S
C2045 H2097 0.929 . S
H2046 C2040 0.930 . S
H2047 C2043 0.930 . S
C2048 N2049 1.314 . S
C2048 C2050 1.353 . S
C2048 H2054 0.930 . S
N2049 Li2025 1.990 . S
N2049 C2048 1.314 . S
N2049 C2052 1.279 . S
C2050 C2048 1.353 . S
C2050 C2053 1.348 . S
C2050 H2098 0.929 . S
C2051 C2052 1.358 . S
C2051 C2053 1.356 . S
C2051 H2099 0.930 . S
C2052 N2049 1.279 . S
C2052 C2051 1.358 . S
C2052 H2055 0.930 . S
C2053 C2050 1.348 . S
C2053 C2051 1.356 . S
H2054 C2048 0.930 . S
H2055 C2052 0.930 . S
C2056 C2058 1.348 . S
C2056 C2059 1.356 . S
C2056 O2086 1.325 . S
N2057 C2060 1.314 . S
N2057 C2061 1.279 . S
C2058 C2056 1.348 . S
C2058 C2060 1.353 . S
C2058 H2100 0.929 . S
C2059 C2056 1.356 . S
C2059 C2061 1.358 . S
C2059 H2101 0.930 . S
C2060 N2057 1.314 . S
C2060 C2058 1.353 . S
C2060 H2102 0.930 . S
C2061 N2057 1.279 . S
C2061 C2059 1.358 . S
C2061 H2103 0.930 . S
C2062 C2063 1.348 . S
C2062 C2064 1.356 . S
C2062 O2087 1.325 . S
C2063 C2062 1.348 . S
C2063 C2065 1.353 . S
C2063 H2104 0.929 . S
C2064 C2062 1.356 . S
C2064 C2066 1.358 . S
C2064 H2105 0.930 . S
C2065 C2063 1.353 . S
C2065 N2067 1.314 . S
C2065 H2106 0.930 . S
C2066 C2064 1.358 . S
C2066 N2067 1.279 . S
C2066 H2107 0.930 . S
N2067 C2065 1.314 . S
N2067 C2066 1.279 . S
C2068 C2070 1.353 . S
C2068 N2071 1.314 . S
C2068 H2074 0.930 . S
C2069 N2071 1.279 . S
C2069 C2072 1.358 . S
C2069 H2075 0.930 . S
C2070 C2068 1.353 . S
C2070 C2073 1.348 . S
C2070 H2108 0.929 . S
N2071 Li2026 1.990 . S
N2071 C2068 1.314 . S
N2071 C2069 1.279 . S
C2072 C2069 1.358 . S
C2072 C2073 1.356 . S
C2072 H2109 0.930 . S
C2073 C2070 1.348 . S
C2073 C2072 1.356 . S
H2074 C2068 0.930 . S
H2075 C2069 0.930 . S
C2076 N2077 1.314 . S
C2076 C2078 1.353 . S
C2076 H2082 0.930 . S
N2077 Li2027 1.990 . S
N2077 C2076 1.314 . S
N2077 C2080 1.279 . S
C2078 C2076 1.353 . S
C2078 C2081 1.348 . S
C2078 H2110 0.929 . S
C2079 C2080 1.358 . S
C2079 C2081 1.356 . S
C2079 H2111 0.930 . S
C2080 N2077 1.279 . S
C2080 C2079 1.358 . S
C2080 H2083 0.930 . S
C2081 C2078 1.348 . S
C2081 C2079 1.356 . S
H2082 C2076 0.930 . S
H2083 C2080 0.930 . S
O2084 Li2024 1.956 . S
O2084 Li2025 1.970 . S
O2084 Li2026 1.961 . S
O2084 C2028 1.325 . S
O2085 Li2024 1.970 . S
O2085 Li2025 1.956 . S
O2085 Li2027 1.961 . S
O2085 C2034 1.325 . S
O2086 Li2024 1.961 . S
O2086 Li2026 1.956 . S
O2086 Li2027 1.970 . S
O2086 C2056 1.325 . S
O2087 Li2025 1.961 . S
O2087 Li2026 1.970 . S
O2087 Li2027 1.956 . S
O2087 C2062 1.325 . S
H2088 C2030 0.929 . S
H2089 C2031 0.930 . S
H2090 C2032 0.930 . S
H2091 C2033 0.930 . S
H2092 C2035 0.930 . S
H2093 C2037 0.929 . S
H2094 C2038 0.930 . S
H2095 C2039 0.930 . S
H2096 C2042 0.930 . S
H2097 C2045 0.929 . S
H2098 C2050 0.929 . S
H2099 C2051 0.930 . S
H2100 C2058 0.929 . S
H2101 C2059 0.930 . S
H2102 C2060 0.930 . S
H2103 C2061 0.930 . S
H2104 C2063 0.929 . S
H2105 C2064 0.930 . S
H2106 C2065 0.930 . S
H2107 C2066 0.930 . S
H2108 C2070 0.929 . S
H2109 C2072 0.930 . S
H2110 C2078 0.929 . S
H2111 C2079 0.930 . S
Dy2112 O2116 2.398 . S
Dy2112 O2117 2.491 1_556 S
Dy2112 O2118 2.403 . S
Dy2112 O2119 2.664 1_655 S
Dy2112 O2123 2.326 . S
Dy2112 O2127 2.296 1_656 S
Dy2112 O2128 2.351 1_546 S
C2113 O2124 1.185 . S
C2113 O2125 1.355 . S
C2114 O2116 1.185 . S
C2114 O2117 1.355 1_556 S
Dy2115 O2119 2.310 1_554 S
Dy2115 O2122 2.351 . S
Dy2115 O2124 2.398 . S
Dy2115 O2125 2.491 . S
Dy2115 O2126 2.403 . S
Dy2115 O2127 2.696 . S
Dy2115 O2129 2.326 1_545 S
O2116 Dy2112 2.398 . S
O2116 C2114 1.185 . S
O2117 Dy2112 2.491 1_554 S
O2117 C2114 1.355 1_554 S
O2118 Dy2112 2.403 . S
O2118 C2120 1.254 1_655 S
O2119 Dy2112 2.664 1_455 S
O2119 Dy2115 2.310 1_556 S
O2119 C2120 1.268 . S
C2120 O2118 1.254 1_455 S
C2120 O2119 1.268 . S
C2121 O2126 1.254 . S
C2121 O2127 1.276 . S
O2122 Dy2115 2.351 . S
O2122 C2130 1.234 1_554 S
O2123 Dy2112 2.326 . S
O2123 C2130 1.281 1_655 S
O2124 C2113 1.185 . S
O2124 Dy2115 2.398 . S
O2125 C2113 1.355 . S
O2125 Dy2115 2.491 . S
O2126 Dy2115 2.403 . S
O2126 C2121 1.254 . S
O2127 Dy2112 2.296 1_454 S
O2127 Dy2115 2.696 . S
O2127 C2121 1.276 . S
O2128 Dy2112 2.351 1_564 S
O2128 C2131 1.249 1_655 S
O2129 Dy2115 2.326 1_565 S
O2129 C2131 1.267 . S
C2130 O2122 1.234 1_556 S
C2130 O2123 1.281 1_455 S
C2131 O2128 1.249 1_455 S
C2131 O2129 1.267 . S
Dy2132 O2136 2.398 . S
Dy2132 O2137 2.491 . S
Dy2132 O2138 2.403 . S
Dy2132 O2139 2.664 . S
Dy2132 O2143 2.326 . S
Dy2132 O2147 2.310 . S
Dy2132 O2148 2.351 . S
C2133 O2144 1.185 . S
C2133 O2145 1.355 . S
C2134 O2136 1.185 . S
C2134 O2137 1.355 . S
Dy2135 O2139 2.310 . S
Dy2135 O2142 2.351 . S
Dy2135 O2144 2.398 . S
Dy2135 O2145 2.491 . S
Dy2135 O2146 2.403 . S
Dy2135 O2147 2.664 . S
Dy2135 O2149 2.326 . S
O2136 Dy2132 2.398 . S
O2136 C2134 1.185 . S
O2137 Dy2132 2.491 . S
O2137 C2134 1.355 . S
O2138 Dy2132 2.403 . S
O2138 C2140 1.254 . S
O2139 Dy2132 2.664 . S
O2139 Dy2135 2.310 . S
O2139 C2140 1.268 . S
C2140 O2138 1.254 . S
C2140 O2139 1.268 . S
C2141 O2146 1.254 . S
C2141 O2147 1.268 . S
O2142 Dy2135 2.351 . S
O2142 C2150 1.249 . S
O2143 Dy2132 2.326 . S
O2143 C2150 1.267 . S
O2144 C2133 1.185 . S
O2144 Dy2135 2.398 . S
O2145 C2133 1.355 . S
O2145 Dy2135 2.491 . S
O2146 Dy2135 2.403 . S
O2146 C2141 1.254 . S
O2147 Dy2132 2.310 . S
O2147 Dy2135 2.664 . S
O2147 C2141 1.268 . S
O2148 Dy2132 2.351 . S
O2148 C2151 1.249 . S
O2149 Dy2135 2.326 . S
O2149 C2151 1.267 . S
C2150 O2142 1.249 . S
C2150 O2143 1.267 . S
C2151 O2148 1.249 . S
C2151 O2149 1.267 . S
Dy2152 O2156 2.398 . S
Dy2152 O2157 2.491 1_545 S
Dy2152 O2158 2.403 . S
Dy2152 O2159 2.664 . S
Dy2152 O2163 2.326 1_545 S
Dy2152 O2167 2.310 . S
Dy2152 O2168 2.351 . S
C2153 O2164 1.185 . S
C2153 O2165 1.355 . S
C2154 O2156 1.185 1_565 S
C2154 O2157 1.355 . S
Dy2155 O2159 2.310 . S
Dy2155 O2162 2.351 1_545 S
Dy2155 O2164 2.398 . S
Dy2155 O2165 2.491 . S
Dy2155 O2166 2.403 . S
Dy2155 O2167 2.664 . S
Dy2155 O2169 2.326 . S
O2156 Dy2152 2.398 . S
O2156 C2154 1.185 1_545 S
O2157 Dy2152 2.491 1_565 S
O2157 C2154 1.355 . S
O2158 Dy2152 2.403 . S
O2158 C2160 1.254 . S
O2159 Dy2152 2.664 . S
O2159 Dy2155 2.310 . S
O2159 C2160 1.268 . S
C2160 O2158 1.254 . S
C2160 O2159 1.268 . S
C2161 O2166 1.254 . S
C2161 O2167 1.268 . S
O2162 Dy2155 2.351 1_565 S
O2162 C2170 1.249 . S
O2163 Dy2152 2.326 1_565 S
O2163 C2170 1.267 . S
O2164 C2153 1.185 . S
O2164 Dy2155 2.398 . S
O2165 C2153 1.355 . S
O2165 Dy2155 2.491 . S
O2166 Dy2155 2.403 . S
O2166 C2161 1.254 . S
O2167 Dy2152 2.310 . S
O2167 Dy2155 2.664 . S
O2167 C2161 1.268 . S
O2168 Dy2152 2.351 . S
O2168 C2171 1.249 . S
O2169 Dy2155 2.326 . S
O2169 C2171 1.267 . S
C2170 O2162 1.249 . S
C2170 O2163 1.267 . S
C2171 O2168 1.249 . S
C2171 O2169 1.267 . S
Dy2172 O2176 2.398 . S
Dy2172 O2177 2.491 . S
Dy2172 O2178 2.403 . S
Dy2172 O2179 2.664 . S
Dy2172 O2183 2.326 . S
Dy2172 O2187 2.310 . S
Dy2172 O2188 2.351 . S
C2173 O2184 1.185 . S
C2173 O2185 1.355 . S
C2174 O2176 1.185 . S
C2174 O2177 1.355 . S
Dy2175 O2179 2.310 . S
Dy2175 O2182 2.351 . S
Dy2175 O2184 2.398 . S
Dy2175 O2185 2.491 . S
Dy2175 O2186 2.403 . S
Dy2175 O2187 2.664 . S
Dy2175 O2189 2.326 . S
O2176 Dy2172 2.398 . S
O2176 C2174 1.185 . S
O2177 Dy2172 2.491 . S
O2177 C2174 1.355 . S
O2178 Dy2172 2.403 . S
O2178 C2180 1.254 . S
O2179 Dy2172 2.664 . S
O2179 Dy2175 2.310 . S
O2179 C2180 1.268 . S
C2180 O2178 1.254 . S
C2180 O2179 1.268 . S
C2181 O2186 1.254 . S
C2181 O2187 1.268 . S
O2182 Dy2175 2.351 . S
O2182 C2190 1.249 . S
O2183 Dy2172 2.326 . S
O2183 C2190 1.267 . S
O2184 C2173 1.185 . S
O2184 Dy2175 2.398 . S
O2185 C2173 1.355 . S
O2185 Dy2175 2.491 . S
O2186 Dy2175 2.403 . S
O2186 C2181 1.254 . S
O2187 Dy2172 2.310 . S
O2187 Dy2175 2.664 . S
O2187 C2181 1.268 . S
O2188 Dy2172 2.351 . S
O2188 C2191 1.249 . S
O2189 Dy2175 2.326 . S
O2189 C2191 1.267 . S
C2190 O2182 1.249 . S
C2190 O2183 1.267 . S
C2191 O2188 1.249 . S
C2191 O2189 1.267 . S
Dy2192 O2196 2.398 . S
Dy2192 O2197 2.491 1_455 S
Dy2192 O2198 2.403 . S
Dy2192 O2199 2.664 . S
Dy2192 O2203 2.326 . S
Dy2192 O2207 2.310 1_455 S
Dy2192 O2208 2.351 1_545 S
C2193 O2204 1.185 . S
C2193 O2205 1.355 . S
C2194 O2196 1.185 1_655 S
C2194 O2197 1.355 . S
Dy2195 O2199 2.310 . S
Dy2195 O2202 2.351 . S
Dy2195 O2204 2.398 . S
Dy2195 O2205 2.491 . S
Dy2195 O2206 2.403 1_455 S
Dy2195 O2207 2.664 1_455 S
Dy2195 O2209 2.326 1_545 S
O2196 Dy2192 2.398 . S
O2196 C2194 1.185 1_455 S
O2197 Dy2192 2.491 1_655 S
O2197 C2194 1.355 . S
O2198 Dy2192 2.403 . S
O2198 C2200 1.254 . S
O2199 Dy2192 2.664 . S
O2199 Dy2195 2.310 . S
O2199 C2200 1.268 . S
C2200 O2198 1.254 . S
C2200 O2199 1.268 . S
C2201 O2206 1.254 . S
C2201 O2207 1.268 . S
O2202 Dy2195 2.351 . S
O2202 C2210 1.249 . S
O2203 Dy2192 2.326 . S
O2203 C2210 1.267 . S
O2204 C2193 1.185 . S
O2204 Dy2195 2.398 . S
O2205 C2193 1.355 . S
O2205 Dy2195 2.491 . S
O2206 Dy2195 2.403 1_655 S
O2206 C2201 1.254 . S
O2207 Dy2192 2.310 1_655 S
O2207 Dy2195 2.664 1_655 S
O2207 C2201 1.268 . S
O2208 Dy2192 2.351 1_565 S
O2208 C2211 1.249 . S
O2209 Dy2195 2.326 1_565 S
O2209 C2211 1.267 . S
C2210 O2202 1.249 . S
C2210 O2203 1.267 . S
C2211 O2208 1.249 . S
C2211 O2209 1.267 . S
Dy2212 O2216 2.398 . S
Dy2212 O2217 2.491 . S
Dy2212 O2218 2.403 . S
Dy2212 O2219 2.664 . S
Dy2212 O2223 2.326 . S
Dy2212 O2227 2.310 . S
Dy2212 O2228 2.351 . S
C2213 O2224 1.185 . S
C2213 O2225 1.355 . S
C2214 O2216 1.185 . S
C2214 O2217 1.355 . S
Dy2215 O2219 2.310 . S
Dy2215 O2222 2.351 . S
Dy2215 O2224 2.398 . S
Dy2215 O2225 2.491 . S
Dy2215 O2226 2.403 . S
Dy2215 O2227 2.664 . S
Dy2215 O2229 2.326 . S
O2216 Dy2212 2.398 . S
O2216 C2214 1.185 . S
O2217 Dy2212 2.491 . S
O2217 C2214 1.355 . S
O2218 Dy2212 2.403 . S
O2218 C2220 1.254 . S
O2219 Dy2212 2.664 . S
O2219 Dy2215 2.310 . S
O2219 C2220 1.268 . S
C2220 O2218 1.254 . S
C2220 O2219 1.268 . S
C2221 O2226 1.254 . S
C2221 O2227 1.268 . S
O2222 Dy2215 2.351 . S
O2222 C2230 1.249 . S
O2223 Dy2212 2.326 . S
O2223 C2230 1.267 . S
O2224 C2213 1.185 . S
O2224 Dy2215 2.398 . S
O2225 C2213 1.355 . S
O2225 Dy2215 2.491 . S
O2226 Dy2215 2.403 . S
O2226 C2221 1.254 . S
O2227 Dy2212 2.310 . S
O2227 Dy2215 2.664 . S
O2227 C2221 1.268 . S
O2228 Dy2212 2.351 . S
O2228 C2231 1.249 . S
O2229 Dy2215 2.326 . S
O2229 C2231 1.267 . S
C2230 O2222 1.249 . S
C2230 O2223 1.267 . S
C2231 O2228 1.249 . S
C2231 O2229 1.267 . S
Dy2232 O2236 2.398 1_545 S
Dy2232 O2237 2.491 . S
Dy2232 O2238 2.403 1_545 S
Dy2232 O2239 2.664 1_544 S
Dy2232 O2243 2.326 1_545 S
Dy2232 O2247 2.310 . S
Dy2232 O2248 2.351 . S
C2233 O2244 1.185 . S
C2233 O2245 1.355 . S
C2234 O2236 1.185 1_545 S
C2234 O2237 1.355 . S
Dy2235 O2239 2.310 1_545 S
Dy2235 O2242 2.351 . S
Dy2235 O2244 2.398 . S
Dy2235 O2245 2.491 . S
Dy2235 O2246 2.403 . S
Dy2235 O2247 2.664 1_556 S
Dy2235 O2249 2.326 . S
O2236 Dy2232 2.398 1_565 S
O2236 C2234 1.185 1_565 S
O2237 Dy2232 2.491 . S
O2237 C2234 1.355 . S
O2238 Dy2232 2.403 1_565 S
O2238 C2240 1.254 . S
O2239 Dy2232 2.664 1_566 S
O2239 Dy2235 2.310 1_565 S
O2239 C2240 1.268 1_556 S
C2240 O2238 1.254 . S
C2240 O2239 1.268 1_554 S
C2241 O2246 1.254 1_554 S
C2241 O2247 1.268 . S
O2242 Dy2235 2.351 . S
O2242 C2250 1.249 1_556 S
O2243 Dy2232 2.326 1_565 S
O2243 C2250 1.267 1_565 S
O2244 C2233 1.185 . S
O2244 Dy2235 2.398 . S
O2245 C2233 1.355 . S
O2245 Dy2235 2.491 . S
O2246 Dy2235 2.403 . S
O2246 C2241 1.254 1_556 S
O2247 Dy2232 2.310 . S
O2247 Dy2235 2.664 1_554 S
O2247 C2241 1.268 . S
O2248 Dy2232 2.351 . S
O2248 C2251 1.249 . S
O2249 Dy2235 2.326 . S
O2249 C2251 1.267 1_556 S
C2250 O2242 1.249 1_554 S
C2250 O2243 1.267 1_545 S
C2251 O2248 1.249 . S
C2251 O2249 1.267 1_554 S
Dy2252 O2256 2.398 . S
Dy2252 O2257 2.491 . S
Dy2252 O2258 2.403 . S
Dy2252 O2259 2.664 . S
Dy2252 O2263 2.326 . S
Dy2252 O2267 2.310 . S
Dy2252 O2268 2.351 . S
C2253 O2264 1.185 . S
C2253 O2265 1.355 . S
C2254 O2256 1.185 . S
C2254 O2257 1.355 . S
Dy2255 O2259 2.310 . S
Dy2255 O2262 2.351 . S
Dy2255 O2264 2.398 . S
Dy2255 O2265 2.491 . S
Dy2255 O2266 2.403 . S
Dy2255 O2267 2.664 . S
Dy2255 O2269 2.326 . S
O2256 Dy2252 2.398 . S
O2256 C2254 1.185 . S
O2257 Dy2252 2.491 . S
O2257 C2254 1.355 . S
O2258 Dy2252 2.403 . S
O2258 C2260 1.254 . S
O2259 Dy2252 2.664 . S
O2259 Dy2255 2.310 . S
O2259 C2260 1.268 . S
C2260 O2258 1.254 . S
C2260 O2259 1.268 . S
C2261 O2266 1.254 . S
C2261 O2267 1.268 . S
O2262 Dy2255 2.351 . S
O2262 C2270 1.249 . S
O2263 Dy2252 2.326 . S
O2263 C2270 1.267 . S
O2264 C2253 1.185 . S
O2264 Dy2255 2.398 . S
O2265 C2253 1.355 . S
O2265 Dy2255 2.491 . S
O2266 Dy2255 2.403 . S
O2266 C2261 1.254 . S
O2267 Dy2252 2.310 . S
O2267 Dy2255 2.664 . S
O2267 C2261 1.268 . S
O2268 Dy2252 2.351 . S
O2268 C2271 1.249 . S
O2269 Dy2255 2.326 . S
O2269 C2271 1.267 . S
C2270 O2262 1.249 . S
C2270 O2263 1.267 . S
C2271 O2268 1.249 . S
C2271 O2269 1.267 . S
Dy2272 O2276 2.398 . S
Dy2272 O2277 2.491 . S
Dy2272 O2278 2.403 . S
Dy2272 O2279 2.664 1_556 S
Dy2272 O2283 2.326 . S
Dy2272 O2287 2.310 1_556 S
Dy2272 O2288 2.351 1_556 S
C2273 O2284 1.185 . S
C2273 O2285 1.355 . S
C2274 O2276 1.185 . S
C2274 O2277 1.355 . S
Dy2275 O2279 2.310 . S
Dy2275 O2282 2.351 . S
Dy2275 O2284 2.398 . S
Dy2275 O2285 2.491 . S
Dy2275 O2286 2.403 . S
Dy2275 O2287 2.664 . S
Dy2275 O2289 2.326 . S
O2276 Dy2272 2.398 . S
O2276 C2274 1.185 . S
O2277 Dy2272 2.491 . S
O2277 C2274 1.355 . S
O2278 Dy2272 2.403 . S
O2278 C2280 1.252 . S
O2279 Dy2272 2.664 1_554 S
O2279 Dy2275 2.310 . S
O2279 C2280 1.270 1_554 S
C2280 O2278 1.252 . S
C2280 O2279 1.270 1_556 S
C2281 O2286 1.254 . S
C2281 O2287 1.268 . S
O2282 Dy2275 2.351 . S
O2282 C2290 1.249 1_554 S
O2283 Dy2272 2.326 . S
O2283 C2290 1.267 . S
O2284 C2273 1.185 . S
O2284 Dy2275 2.398 . S
O2285 C2273 1.355 . S
O2285 Dy2275 2.491 . S
O2286 Dy2275 2.403 . S
O2286 C2281 1.254 . S
O2287 Dy2272 2.310 1_554 S
O2287 Dy2275 2.664 . S
O2287 C2281 1.268 . S
O2288 Dy2272 2.351 1_554 S
O2288 C2291 1.249 . S
O2289 Dy2275 2.326 . S
O2289 C2291 1.267 . S
C2290 O2282 1.249 1_556 S
C2290 O2283 1.267 . S
C2291 O2288 1.249 . S
C2291 O2289 1.267 . S
Dy2292 O2296 2.398 . S
Dy2292 O2297 2.491 . S
Dy2292 O2298 2.403 . S
Dy2292 O2299 2.664 . S
Dy2292 O2303 2.326 . S
Dy2292 O2307 2.310 . S
Dy2292 O2308 2.351 . S
C2293 O2304 1.185 . S
C2293 O2305 1.355 . S
C2294 O2296 1.185 . S
C2294 O2297 1.355 . S
Dy2295 O2299 2.310 . S
Dy2295 O2302 2.351 . S
Dy2295 O2304 2.398 . S
Dy2295 O2305 2.491 . S
Dy2295 O2306 2.403 . S
Dy2295 O2307 2.664 . S
Dy2295 O2309 2.326 . S
O2296 Dy2292 2.398 . S
O2296 C2294 1.185 . S
O2297 Dy2292 2.491 . S
O2297 C2294 1.355 . S
O2298 Dy2292 2.403 . S
O2298 C2300 1.254 . S
O2299 Dy2292 2.664 . S
O2299 Dy2295 2.310 . S
O2299 C2300 1.268 . S
C2300 O2298 1.254 . S
C2300 O2299 1.268 . S
C2301 O2306 1.254 . S
C2301 O2307 1.268 . S
O2302 Dy2295 2.351 . S
O2302 C2310 1.249 . S
O2303 Dy2292 2.326 . S
O2303 C2310 1.267 . S
O2304 C2293 1.185 . S
O2304 Dy2295 2.398 . S
O2305 C2293 1.355 . S
O2305 Dy2295 2.491 . S
O2306 Dy2295 2.403 . S
O2306 C2301 1.254 . S
O2307 Dy2292 2.310 . S
O2307 Dy2295 2.664 . S
O2307 C2301 1.268 . S
O2308 Dy2292 2.351 . S
O2308 C2311 1.249 . S
O2309 Dy2295 2.326 . S
O2309 C2311 1.267 . S
C2310 O2302 1.249 . S
C2310 O2303 1.267 . S
C2311 O2308 1.249 . S
C2311 O2309 1.267 . S
Dy2312 O2316 2.398 1_455 S
Dy2312 O2317 2.491 1_455 S
Dy2312 O2318 2.403 . S
Dy2312 O2319 2.664 . S
Dy2312 O2323 2.326 1_455 S
Dy2312 O2327 2.310 . S
Dy2312 O2328 2.351 . S
C2313 O2324 1.185 . S
C2313 O2325 1.355 . S
C2314 O2316 1.185 . S
C2314 O2317 1.355 . S
Dy2315 O2319 2.310 . S
Dy2315 O2322 2.351 1_455 S
Dy2315 O2324 2.398 . S
Dy2315 O2325 2.491 . S
Dy2315 O2326 2.403 . S
Dy2315 O2327 2.664 . S
Dy2315 O2329 2.326 . S
O2316 Dy2312 2.398 1_655 S
O2316 C2314 1.185 . S
O2317 Dy2312 2.491 1_655 S
O2317 C2314 1.355 . S
O2318 Dy2312 2.403 . S
O2318 C2320 1.254 . S
O2319 Dy2312 2.664 . S
O2319 Dy2315 2.310 . S
O2319 C2320 1.268 . S
C2320 O2318 1.254 . S
C2320 O2319 1.268 . S
C2321 O2326 1.254 . S
C2321 O2327 1.268 . S
O2322 Dy2315 2.351 1_655 S
O2322 C2330 1.249 . S
O2323 Dy2312 2.326 1_655 S
O2323 C2330 1.267 . S
O2324 C2313 1.185 . S
O2324 Dy2315 2.398 . S
O2325 C2313 1.355 . S
O2325 Dy2315 2.491 . S
O2326 Dy2315 2.403 . S
O2326 C2321 1.254 . S
O2327 Dy2312 2.310 . S
O2327 Dy2315 2.664 . S
O2327 C2321 1.268 . S
O2328 Dy2312 2.351 . S
O2328 C2331 1.249 . S
O2329 Dy2315 2.326 . S
O2329 C2331 1.267 . S
C2330 O2322 1.249 . S
C2330 O2323 1.267 . S
C2331 O2328 1.249 . S
C2331 O2329 1.267 . S
Dy2332 O2336 2.398 . S
Dy2332 O2337 2.491 . S
Dy2332 O2338 2.403 . S
Dy2332 O2339 2.664 . S
Dy2332 O2343 2.326 . S
Dy2332 O2347 2.310 . S
Dy2332 O2348 2.351 . S
C2333 O2344 1.185 . S
C2333 O2345 1.355 . S
C2334 O2336 1.185 . S
C2334 O2337 1.355 . S
Dy2335 O2339 2.310 . S
Dy2335 O2342 2.351 . S
Dy2335 O2344 2.398 . S
Dy2335 O2345 2.491 . S
Dy2335 O2346 2.403 . S
Dy2335 O2347 2.664 . S
Dy2335 O2349 2.326 . S
O2336 Dy2332 2.398 . S
O2336 C2334 1.185 . S
O2337 Dy2332 2.491 . S
O2337 C2334 1.355 . S
O2338 Dy2332 2.403 . S
O2338 C2340 1.254 . S
O2339 Dy2332 2.664 . S
O2339 Dy2335 2.310 . S
O2339 C2340 1.268 . S
C2340 O2338 1.254 . S
C2340 O2339 1.268 . S
C2341 O2346 1.254 . S
C2341 O2347 1.268 . S
O2342 Dy2335 2.351 . S
O2342 C2350 1.249 . S
O2343 Dy2332 2.326 . S
O2343 C2350 1.267 . S
O2344 C2333 1.185 . S
O2344 Dy2335 2.398 . S
O2345 C2333 1.355 . S
O2345 Dy2335 2.491 . S
O2346 Dy2335 2.403 . S
O2346 C2341 1.254 . S
O2347 Dy2332 2.310 . S
O2347 Dy2335 2.664 . S
O2347 C2341 1.268 . S
O2348 Dy2332 2.351 . S
O2348 C2351 1.249 . S
O2349 Dy2335 2.326 . S
O2349 C2351 1.267 . S
C2350 O2342 1.249 . S
C2350 O2343 1.267 . S
C2351 O2348 1.249 . S
C2351 O2349 1.267 . S
Dy2352 O2356 2.398 . S
Dy2352 O2357 2.491 . S
Dy2352 O2358 2.403 . S
Dy2352 O2359 2.664 . S
Dy2352 O2363 2.326 . S
Dy2352 O2367 2.310 . S
Dy2352 O2368 2.351 . S
C2353 O2364 1.185 . S
C2353 O2365 1.355 . S
C2354 O2356 1.185 . S
C2354 O2357 1.355 . S
Dy2355 O2359 2.310 . S
Dy2355 O2362 2.351 . S
Dy2355 O2364 2.398 . S
Dy2355 O2365 2.491 . S
Dy2355 O2366 2.403 . S
Dy2355 O2367 2.664 . S
Dy2355 O2369 2.326 . S
O2356 Dy2352 2.398 . S
O2356 C2354 1.185 . S
O2357 Dy2352 2.491 . S
O2357 C2354 1.355 . S
O2358 Dy2352 2.403 . S
O2358 C2360 1.254 . S
O2359 Dy2352 2.664 . S
O2359 Dy2355 2.310 . S
O2359 C2360 1.268 . S
C2360 O2358 1.254 . S
C2360 O2359 1.268 . S
C2361 O2366 1.254 . S
C2361 O2367 1.268 . S
O2362 Dy2355 2.351 . S
O2362 C2370 1.249 . S
O2363 Dy2352 2.326 . S
O2363 C2370 1.267 . S
O2364 C2353 1.185 . S
O2364 Dy2355 2.398 . S
O2365 C2353 1.355 . S
O2365 Dy2355 2.491 . S
O2366 Dy2355 2.403 . S
O2366 C2361 1.254 . S
O2367 Dy2352 2.310 . S
O2367 Dy2355 2.664 . S
O2367 C2361 1.268 . S
O2368 Dy2352 2.351 . S
O2368 C2371 1.249 . S
O2369 Dy2355 2.326 . S
O2369 C2371 1.267 . S
C2370 O2362 1.249 . S
C2370 O2363 1.267 . S
C2371 O2368 1.249 . S
C2371 O2369 1.267 . S
Dy2372 O2376 2.398 . S
Dy2372 O2377 2.491 . S
Dy2372 O2378 2.403 . S
Dy2372 O2379 2.664 . S
Dy2372 O2383 2.326 . S
Dy2372 O2387 2.310 . S
Dy2372 O2388 2.351 . S
C2373 O2384 1.185 . S
C2373 O2385 1.355 . S
C2374 O2376 1.185 . S
C2374 O2377 1.355 . S
Dy2375 O2379 2.310 . S
Dy2375 O2382 2.351 . S
Dy2375 O2384 2.398 . S
Dy2375 O2385 2.491 . S
Dy2375 O2386 2.403 . S
Dy2375 O2387 2.664 . S
Dy2375 O2389 2.326 . S
O2376 Dy2372 2.398 . S
O2376 C2374 1.185 . S
O2377 Dy2372 2.491 . S
O2377 C2374 1.355 . S
O2378 Dy2372 2.403 . S
O2378 C2380 1.254 . S
O2379 Dy2372 2.664 . S
O2379 Dy2375 2.310 . S
O2379 C2380 1.268 . S
C2380 O2378 1.254 . S
C2380 O2379 1.268 . S
C2381 O2386 1.254 . S
C2381 O2387 1.268 . S
O2382 Dy2375 2.351 . S
O2382 C2390 1.249 . S
O2383 Dy2372 2.326 . S
O2383 C2390 1.267 . S
O2384 C2373 1.185 . S
O2384 Dy2375 2.398 . S
O2385 C2373 1.355 . S
O2385 Dy2375 2.491 . S
O2386 Dy2375 2.403 . S
O2386 C2381 1.254 . S
O2387 Dy2372 2.310 . S
O2387 Dy2375 2.664 . S
O2387 C2381 1.268 . S
O2388 Dy2372 2.351 . S
O2388 C2391 1.249 . S
O2389 Dy2375 2.326 . S
O2389 C2391 1.267 . S
C2390 O2382 1.249 . S
C2390 O2383 1.267 . S
C2391 O2388 1.249 . S
C2391 O2389 1.267 . S
Dy2392 O2396 2.398 . S
Dy2392 O2397 2.491 . S
Dy2392 O2398 2.403 . S
Dy2392 O2399 2.664 . S
Dy2392 O2403 2.326 . S
Dy2392 O2407 2.310 . S
Dy2392 O2408 2.351 . S
C2393 O2404 1.185 . S
C2393 O2405 1.355 . S
C2394 O2396 1.185 . S
C2394 O2397 1.355 . S
Dy2395 O2399 2.310 . S
Dy2395 O2402 2.351 . S
Dy2395 O2404 2.398 . S
Dy2395 O2405 2.491 . S
Dy2395 O2406 2.403 . S
Dy2395 O2407 2.664 . S
Dy2395 O2409 2.326 . S
O2396 Dy2392 2.398 . S
O2396 C2394 1.185 . S
O2397 Dy2392 2.491 . S
O2397 C2394 1.355 . S
O2398 Dy2392 2.403 . S
O2398 C2400 1.254 . S
O2399 Dy2392 2.664 . S
O2399 Dy2395 2.310 . S
O2399 C2400 1.268 . S
C2400 O2398 1.254 . S
C2400 O2399 1.268 . S
C2401 O2406 1.254 . S
C2401 O2407 1.268 . S
O2402 Dy2395 2.351 . S
O2402 C2410 1.249 . S
O2403 Dy2392 2.326 . S
O2403 C2410 1.267 . S
O2404 C2393 1.185 . S
O2404 Dy2395 2.398 . S
O2405 C2393 1.355 . S
O2405 Dy2395 2.491 . S
O2406 Dy2395 2.403 . S
O2406 C2401 1.254 . S
O2407 Dy2392 2.310 . S
O2407 Dy2395 2.664 . S
O2407 C2401 1.268 . S
O2408 Dy2392 2.351 . S
O2408 C2411 1.249 . S
O2409 Dy2395 2.326 . S
O2409 C2411 1.267 . S
C2410 O2402 1.249 . S
C2410 O2403 1.267 . S
C2411 O2408 1.249 . S
C2411 O2409 1.267 . S
Dy2412 O2416 2.393 1_554 S
Dy2412 O2417 2.494 . S
Dy2412 O2418 2.395 1_554 S
Dy2412 O2419 2.662 1_554 S
Dy2412 O2423 2.325 1_554 S
Dy2412 O2427 2.317 . S
Dy2412 O2428 2.353 . S
C2413 O2424 1.185 . S
C2413 O2425 1.355 . S
C2414 O2416 1.185 . S
C2414 O2417 1.355 1_556 S
Dy2415 O2419 2.310 1_654 S
Dy2415 O2422 2.351 . S
Dy2415 O2424 2.398 . S
Dy2415 O2425 2.491 . S
Dy2415 O2426 2.403 . S
Dy2415 O2427 2.664 1_655 S
Dy2415 O2429 2.313 1_655 S
O2416 Dy2412 2.393 1_556 S
O2416 C2414 1.185 . S
O2417 Dy2412 2.494 . S
O2417 C2414 1.355 1_554 S
O2418 Dy2412 2.395 1_556 S
O2418 C2420 1.254 . S
O2419 Dy2412 2.662 1_556 S
O2419 Dy2415 2.310 1_456 S
O2419 C2420 1.268 . S
C2420 O2418 1.254 . S
C2420 O2419 1.268 . S
C2421 O2426 1.254 1_455 S
C2421 O2427 1.268 . S
O2422 Dy2415 2.351 . S
O2422 C2430 1.249 1_654 S
O2423 Dy2412 2.325 1_556 S
O2423 C2430 1.267 . S
O2424 C2413 1.185 . S
O2424 Dy2415 2.398 . S
O2425 C2413 1.355 . S
O2425 Dy2415 2.491 . S
O2426 Dy2415 2.403 . S
O2426 C2421 1.254 1_655 S
O2427 Dy2412 2.317 . S
O2427 Dy2415 2.664 1_455 S
O2427 C2421 1.268 . S
O2428 Dy2412 2.353 . S
O2428 C2431 1.249 . S
O2429 Dy2415 2.313 1_455 S
O2429 C2431 1.294 . S
C2430 O2422 1.249 1_456 S
C2430 O2423 1.267 . S
C2431 O2428 1.249 . S
C2431 O2429 1.294 . S
C2432 C2433 1.387 . S
C2432 H2436 0.950 . S
C2432 C2441 1.390 . S
C2433 C2432 1.387 . S
C2433 C2435 1.387 1_656 S
H2434 C2441 0.950 . S
C2435 C2433 1.387 1_454 S
C2435 C2437 1.390 . S
C2435 H2439 0.950 . S
H2436 C2432 0.950 . S
C2437 C2435 1.390 . S
C2437 C2438 1.387 1_554 S
C2437 H2440 0.950 . S
C2438 C2437 1.387 1_556 S
C2438 C2441 1.387 1_455 S
H2439 C2435 0.950 . S
H2440 C2437 0.950 . S
C2441 C2432 1.390 . S
C2441 H2434 0.950 . S
C2441 C2438 1.387 1_655 S
C2442 C2443 1.387 . S
C2442 H2446 0.950 . S
C2442 C2451 1.390 . S
C2443 C2442 1.387 . S
C2443 C2445 1.387 . S
H2444 C2451 0.950 . S
C2445 C2443 1.387 . S
C2445 C2447 1.390 . S
C2445 H2449 0.950 . S
H2446 C2442 0.950 . S
C2447 C2445 1.390 . S
C2447 C2448 1.387 . S
C2447 H2450 0.950 . S
C2448 C2447 1.387 . S
C2448 C2451 1.387 . S
H2449 C2445 0.950 . S
H2450 C2447 0.950 . S
C2451 C2442 1.390 . S
C2451 H2444 0.950 . S
C2451 C2448 1.387 . S
C2452 C2453 1.387 . S
C2452 H2456 0.950 . S
C2452 C2461 1.390 . S
C2453 C2452 1.387 . S
C2453 C2455 1.387 . S
H2454 C2461 0.950 . S
C2455 C2453 1.387 . S
C2455 C2457 1.390 . S
C2455 H2459 0.950 . S
H2456 C2452 0.950 . S
C2457 C2455 1.390 . S
C2457 C2458 1.387 . S
C2457 H2460 0.950 . S
C2458 C2457 1.387 . S
C2458 C2461 1.387 . S
H2459 C2455 0.950 . S
H2460 C2457 0.950 . S
C2461 C2452 1.390 . S
C2461 H2454 0.950 . S
C2461 C2458 1.387 . S
C2462 C2463 1.387 . S
C2462 H2466 0.950 . S
C2462 C2471 1.390 . S
C2463 C2462 1.387 . S
C2463 C2465 1.387 . S
H2464 C2471 0.950 . S
C2465 C2463 1.387 . S
C2465 C2467 1.390 . S
C2465 H2469 0.950 . S
H2466 C2462 0.950 . S
C2467 C2465 1.390 . S
C2467 C2468 1.387 . S
C2467 H2470 0.950 . S
C2468 C2467 1.387 . S
C2468 C2471 1.387 . S
H2469 C2465 0.950 . S
H2470 C2467 0.950 . S
C2471 C2462 1.390 . S
C2471 H2464 0.950 . S
C2471 C2468 1.387 . S
C2472 C2473 1.387 . S
C2472 H2476 0.950 . S
C2472 C2481 1.390 . S
C2473 C2472 1.387 . S
C2473 C2475 1.387 . S
H2474 C2481 0.950 . S
C2475 C2473 1.387 . S
C2475 C2477 1.390 . S
C2475 H2479 0.950 1_455 S
H2476 C2472 0.950 . S
C2477 C2475 1.390 . S
C2477 C2478 1.387 . S
C2477 H2480 0.950 . S
C2478 C2477 1.387 . S
C2478 C2481 1.387 . S
H2479 C2475 0.950 1_655 S
H2480 C2477 0.950 . S
C2481 C2472 1.390 . S
C2481 H2474 0.950 . S
C2481 C2478 1.387 . S
C2482 C2483 1.387 . S
C2482 H2486 0.950 . S
C2482 C2491 1.390 . S
C2483 C2482 1.387 . S
C2483 C2485 1.387 . S
H2484 C2491 0.950 . S
C2485 C2483 1.387 . S
C2485 C2487 1.390 . S
C2485 H2489 0.950 . S
H2486 C2482 0.950 . S
C2487 C2485 1.390 . S
C2487 C2488 1.387 . S
C2487 H2490 0.950 . S
C2488 C2487 1.387 . S
C2488 C2491 1.387 . S
H2489 C2485 0.950 . S
H2490 C2487 0.950 . S
C2491 C2482 1.390 . S
C2491 H2484 0.950 . S
C2491 C2488 1.387 . S
C2492 C2493 1.387 . S
C2492 H2496 0.950 . S
C2492 C2501 1.390 . S
C2493 C2492 1.387 . S
C2493 C2495 1.387 . S
H2494 C2501 0.950 . S
C2495 C2493 1.387 . S
C2495 C2497 1.390 . S
C2495 H2499 0.950 . S
H2496 C2492 0.950 . S
C2497 C2495 1.390 . S
C2497 C2498 1.387 . S
C2497 H2500 0.950 . S
C2498 C2497 1.387 . S
C2498 C2501 1.387 . S
H2499 C2495 0.950 . S
H2500 C2497 0.950 . S
C2501 C2492 1.390 . S
C2501 H2494 0.950 . S
C2501 C2498 1.387 . S
C2502 C2503 1.387 . S
C2502 H2506 0.950 . S
C2502 C2511 1.390 . S
C2503 C2502 1.387 . S
C2503 C2505 1.387 . S
H2504 C2511 0.950 . S
C2505 C2503 1.387 . S
C2505 C2507 1.390 . S
C2505 H2509 0.950 . S
H2506 C2502 0.950 . S
C2507 C2505 1.390 . S
C2507 C2508 1.387 . S
C2507 H2510 0.950 . S
C2508 C2507 1.387 . S
C2508 C2511 1.387 . S
H2509 C2505 0.950 . S
H2510 C2507 0.950 . S
C2511 C2502 1.390 . S
C2511 H2504 0.950 . S
C2511 C2508 1.387 . S
C2512 C2513 1.387 . S
C2512 H2516 0.950 . S
C2512 C2521 1.390 . S
C2513 C2512 1.387 . S
C2513 C2515 1.387 . S
H2514 C2521 0.950 . S
C2515 C2513 1.387 . S
C2515 C2517 1.390 . S
C2515 H2519 0.950 . S
H2516 C2512 0.950 . S
C2517 C2515 1.390 . S
C2517 C2518 1.387 . S
C2517 H2520 0.936 1_655 S
C2518 C2517 1.387 . S
C2518 C2521 1.387 . S
H2519 C2515 0.950 . S
H2520 C2517 0.936 1_455 S
C2521 C2512 1.390 . S
C2521 H2514 0.950 . S
C2521 C2518 1.387 . S
C2522 C2523 1.387 . S
C2522 H2526 0.950 . S
C2522 C2531 1.390 . S
C2523 C2522 1.387 . S
C2523 C2525 1.387 . S
H2524 C2531 0.950 . S
C2525 C2523 1.387 . S
C2525 C2527 1.390 . S
C2525 H2529 0.950 . S
H2526 C2522 0.950 . S
C2527 C2525 1.390 . S
C2527 C2528 1.387 . S
C2527 H2530 0.950 . S
C2528 C2527 1.387 . S
C2528 C2531 1.387 . S
H2529 C2525 0.950 . S
H2530 C2527 0.950 . S
C2531 C2522 1.390 . S
C2531 H2524 0.950 . S
C2531 C2528 1.387 . S
C2532 C2533 1.387 1_565 S
C2532 H2536 0.950 . S
C2532 C2541 1.390 . S
C2533 C2532 1.387 1_545 S
C2533 C2535 1.387 . S
H2534 C2541 0.950 . S
C2535 C2533 1.387 . S
C2535 C2537 1.390 . S
C2535 H2539 0.950 . S
H2536 C2532 0.950 . S
C2537 C2535 1.390 . S
C2537 C2538 1.387 . S
C2537 H2540 0.950 . S
C2538 C2537 1.387 . S
C2538 C2541 1.387 1_545 S
H2539 C2535 0.950 . S
H2540 C2537 0.950 . S
C2541 C2532 1.390 . S
C2541 H2534 0.950 . S
C2541 C2538 1.387 1_565 S
C2542 C2543 1.387 . S
C2542 H2546 0.950 . S
C2542 C2551 1.390 . S
C2543 C2542 1.387 . S
C2543 C2545 1.387 . S
H2544 C2551 0.950 . S
C2545 C2543 1.387 . S
C2545 C2547 1.390 . S
C2545 H2549 0.950 . S
H2546 C2542 0.950 . S
C2547 C2545 1.390 . S
C2547 C2548 1.387 . S
C2547 H2550 0.950 . S
C2548 C2547 1.387 . S
C2548 C2551 1.387 . S
H2549 C2545 0.950 . S
H2550 C2547 0.950 . S
C2551 C2542 1.390 . S
C2551 H2544 0.950 . S
C2551 C2548 1.387 . S
C2552 C2553 1.387 . S
C2552 H2556 0.950 . S
C2552 C2561 1.390 . S
C2553 C2552 1.387 . S
C2553 C2555 1.387 . S
H2554 C2561 0.950 . S
C2555 C2553 1.387 . S
C2555 C2557 1.390 . S
C2555 H2559 0.950 . S
H2556 C2552 0.950 . S
C2557 C2555 1.390 . S
C2557 C2558 1.387 . S
C2557 H2560 0.950 1_545 S
C2558 C2557 1.387 . S
C2558 C2561 1.387 . S
H2559 C2555 0.950 . S
H2560 C2557 0.950 1_565 S
C2561 C2552 1.390 . S
C2561 H2554 0.950 . S
C2561 C2558 1.387 . S
C2562 C2563 1.387 . S
C2562 H2566 0.950 . S
C2562 C2571 1.390 . S
C2563 C2562 1.387 . S
C2563 C2565 1.387 . S
H2564 C2571 0.950 . S
C2565 C2563 1.387 . S
C2565 C2567 1.390 . S
C2565 H2569 0.950 . S
H2566 C2562 0.950 . S
C2567 C2565 1.390 . S
C2567 C2568 1.387 . S
C2567 H2570 0.950 . S
C2568 C2567 1.387 . S
C2568 C2571 1.387 . S
H2569 C2565 0.950 . S
H2570 C2567 0.950 . S
C2571 C2562 1.390 . S
C2571 H2564 0.950 . S
C2571 C2568 1.387 . S
C2572 C2573 1.387 . S
C2572 H2576 0.950 1_545 S
C2572 C2581 1.390 . S
C2573 C2572 1.387 . S
C2573 C2575 1.387 . S
H2574 C2581 0.950 . S
C2575 C2573 1.387 . S
C2575 C2577 1.390 . S
C2575 H2579 0.950 . S
H2576 C2572 0.950 1_565 S
C2577 C2575 1.390 . S
C2577 C2578 1.387 . S
C2577 H2580 0.950 . S
C2578 C2577 1.387 . S
C2578 C2581 1.387 . S
H2579 C2575 0.950 . S
H2580 C2577 0.950 . S
C2581 C2572 1.390 . S
C2581 H2574 0.950 . S
C2581 C2578 1.387 . S
C2582 C2583 1.387 . S
C2582 H2586 0.950 . S
C2582 C2591 1.390 . S
C2583 C2582 1.387 . S
C2583 C2585 1.387 . S
H2584 C2591 0.950 . S
C2585 C2583 1.387 . S
C2585 C2587 1.390 . S
C2585 H2589 0.950 . S
H2586 C2582 0.950 . S
C2587 C2585 1.390 . S
C2587 C2588 1.387 . S
C2587 H2590 0.950 . S
C2588 C2587 1.387 . S
C2588 C2591 1.387 . S
H2589 C2585 0.950 . S
H2590 C2587 0.950 . S
C2591 C2582 1.390 . S
C2591 H2584 0.950 . S
C2591 C2588 1.387 . S
C2592 C2593 1.387 . S
C2592 H2596 0.950 1_554 S
C2592 C2601 1.390 . S
C2593 C2592 1.387 . S
C2593 C2595 1.387 . S
H2594 C2601 0.949 1_546 S
C2595 C2593 1.387 . S
C2595 C2597 1.390 . S
C2595 H2599 0.950 . S
H2596 C2592 0.950 1_556 S
C2597 C2595 1.390 . S
C2597 C2598 1.387 . S
C2597 H2600 0.950 . S
C2598 C2597 1.387 . S
C2598 C2601 1.387 . S
H2599 C2595 0.950 . S
H2600 C2597 0.950 . S
C2601 C2592 1.390 . S
C2601 H2594 0.949 1_564 S
C2601 C2598 1.387 . S
C2602 C2603 1.387 . S
C2602 H2606 0.950 . S
C2602 C2611 1.390 . S
C2603 C2602 1.387 . S
C2603 C2605 1.387 1_554 S
H2604 C2611 0.950 . S
C2605 C2603 1.387 1_556 S
C2605 C2607 1.390 . S
C2605 H2609 0.950 . S
H2606 C2602 0.950 . S
C2607 C2605 1.390 . S
C2607 C2608 1.387 1_556 S
C2607 H2610 0.950 . S
C2608 C2607 1.387 1_554 S
C2608 C2611 1.387 . S
H2609 C2605 0.950 . S
H2610 C2607 0.950 . S
C2611 C2602 1.390 . S
C2611 H2604 0.950 . S
C2611 C2608 1.387 . S
C2612 C2613 1.387 . S
C2612 H2616 0.950 . S
C2612 C2621 1.390 . S
C2613 C2612 1.387 . S
C2613 C2615 1.387 . S
H2614 C2621 0.950 . S
C2615 C2613 1.387 . S
C2615 C2617 1.390 . S
C2615 H2619 0.950 . S
H2616 C2612 0.950 . S
C2617 C2615 1.390 . S
C2617 C2618 1.387 . S
C2617 H2620 0.950 . S
C2618 C2617 1.387 . S
C2618 C2621 1.387 . S
H2619 C2615 0.950 . S
H2620 C2617 0.950 . S
C2621 C2612 1.390 . S
C2621 H2614 0.950 . S
C2621 C2618 1.387 . S
C2622 C2623 1.387 . S
C2622 H2626 0.950 . S
C2622 C2631 1.390 . S
C2623 C2622 1.387 . S
C2623 C2625 1.387 . S
H2624 C2631 0.950 . S
C2625 C2623 1.387 . S
C2625 C2627 1.390 . S
C2625 H2629 0.950 . S
H2626 C2622 0.950 . S
C2627 C2625 1.390 . S
C2627 C2628 1.387 . S
C2627 H2630 0.950 . S
C2628 C2627 1.387 . S
C2628 C2631 1.387 . S
H2629 C2625 0.950 . S
H2630 C2627 0.950 . S
C2631 C2622 1.390 . S
C2631 H2624 0.950 . S
C2631 C2628 1.387 . S
C2632 C2633 1.387 . S
C2632 H2636 0.950 . S
C2632 C2641 1.390 . S
C2633 C2632 1.387 . S
C2633 C2635 1.387 . S
H2634 C2641 0.950 . S
C2635 C2633 1.387 . S
C2635 C2637 1.390 . S
C2635 H2639 0.950 . S
H2636 C2632 0.950 . S
C2637 C2635 1.390 . S
C2637 C2638 1.387 . S
C2637 H2640 0.950 . S
C2638 C2637 1.387 . S
C2638 C2641 1.387 . S
H2639 C2635 0.950 . S
H2640 C2637 0.950 . S
C2641 C2632 1.390 . S
C2641 H2634 0.950 . S
C2641 C2638 1.387 . S
C2642 C2643 1.387 . S
C2642 H2646 0.950 . S
C2642 C2651 1.390 . S
C2643 C2642 1.387 . S
C2643 C2645 1.387 . S
H2644 C2651 0.950 . S
C2645 C2643 1.387 . S
C2645 C2647 1.390 . S
C2645 H2649 0.950 . S
H2646 C2642 0.950 . S
C2647 C2645 1.390 . S
C2647 C2648 1.387 . S
C2647 H2650 0.950 . S
C2648 C2647 1.387 . S
C2648 C2651 1.387 . S
H2649 C2645 0.950 . S
H2650 C2647 0.950 . S
C2651 C2642 1.390 . S
C2651 H2644 0.950 . S
C2651 C2648 1.387 . S
C2652 C2653 1.387 . S
C2652 H2656 0.950 . S
C2652 C2661 1.390 . S
C2653 C2652 1.387 . S
C2653 C2655 1.387 . S
H2654 C2661 0.950 . S
C2655 C2653 1.387 . S
C2655 C2657 1.390 . S
C2655 H2659 0.950 . S
H2656 C2652 0.950 . S
C2657 C2655 1.390 . S
C2657 C2658 1.387 . S
C2657 H2660 0.950 . S
C2658 C2657 1.387 . S
C2658 C2661 1.387 . S
H2659 C2655 0.950 . S
H2660 C2657 0.950 . S
C2661 C2652 1.390 . S
C2661 H2654 0.950 . S
C2661 C2658 1.387 . S
C2662 C2663 1.387 . S
C2662 H2666 0.950 . S
C2662 C2671 1.390 . S
C2663 C2662 1.387 . S
C2663 C2665 1.387 . S
H2664 C2671 0.950 . S
C2665 C2663 1.387 . S
C2665 C2667 1.390 . S
C2665 H2669 0.950 . S
H2666 C2662 0.950 . S
C2667 C2665 1.390 . S
C2667 C2668 1.387 . S
C2667 H2670 0.950 . S
C2668 C2667 1.387 . S
C2668 C2671 1.387 . S
H2669 C2665 0.950 . S
H2670 C2667 0.950 . S
C2671 C2662 1.390 . S
C2671 H2664 0.950 . S
C2671 C2668 1.387 . S
C2672 C2673 1.387 . S
C2672 H2676 0.950 . S
C2672 C2681 1.390 . S
C2673 C2672 1.387 . S
C2673 C2675 1.387 . S
H2674 C2681 0.950 1_556 S
C2675 C2673 1.387 . S
C2675 C2677 1.390 . S
C2675 H2679 0.950 . S
H2676 C2672 0.950 . S
C2677 C2675 1.390 . S
C2677 C2678 1.387 . S
C2677 H2680 0.950 . S
C2678 C2677 1.387 . S
C2678 C2681 1.387 . S
H2679 C2675 0.950 . S
H2680 C2677 0.950 . S
C2681 C2672 1.390 . S
C2681 H2674 0.950 1_554 S
C2681 C2678 1.387 . S
C2682 C2683 1.387 . S
C2682 H2686 0.950 . S
C2682 C2691 1.390 . S
C2683 C2682 1.387 . S
C2683 C2685 1.387 . S
H2684 C2691 0.950 . S
C2685 C2683 1.387 . S
C2685 C2687 1.390 . S
C2685 H2689 0.950 . S
H2686 C2682 0.950 . S
C2687 C2685 1.390 . S
C2687 C2688 1.387 . S
C2687 H2690 0.950 . S
C2688 C2687 1.387 . S
C2688 C2691 1.387 . S
H2689 C2685 0.950 . S
H2690 C2687 0.950 . S
C2691 C2682 1.390 . S
C2691 H2684 0.950 . S
C2691 C2688 1.387 . S
C2692 C2693 1.387 . S
C2692 H2696 0.950 . S
C2692 C2701 1.390 . S
C2693 C2692 1.387 . S
C2693 C2695 1.387 . S
H2694 C2701 0.950 . S
C2695 C2693 1.387 . S
C2695 C2697 1.390 . S
C2695 H2699 0.950 . S
H2696 C2692 0.950 . S
C2697 C2695 1.390 . S
C2697 C2698 1.387 . S
C2697 H2700 0.950 . S
C2698 C2697 1.387 . S
C2698 C2701 1.387 . S
H2699 C2695 0.950 . S
H2700 C2697 0.950 . S
C2701 C2692 1.390 . S
C2701 H2694 0.950 . S
C2701 C2698 1.387 . S
C2702 C2703 1.387 . S
C2702 H2706 0.950 . S
C2702 C2711 1.390 . S
C2703 C2702 1.387 . S
C2703 C2705 1.387 . S
H2704 C2711 0.950 . S
C2705 C2703 1.387 . S
C2705 C2707 1.390 . S
C2705 H2709 0.950 . S
H2706 C2702 0.950 . S
C2707 C2705 1.390 . S
C2707 C2708 1.387 . S
C2707 H2710 0.950 . S
C2708 C2707 1.387 . S
C2708 C2711 1.387 . S
H2709 C2705 0.950 . S
H2710 C2707 0.950 . S
C2711 C2702 1.390 . S
C2711 H2704 0.950 . S
C2711 C2708 1.387 . S
C2712 C2713 1.387 1_655 S
C2712 H2716 0.950 . S
C2712 C2721 1.390 . S
C2713 C2712 1.387 1_455 S
C2713 C2715 1.387 . S
H2714 C2721 0.950 . S
C2715 C2713 1.387 . S
C2715 C2717 1.390 . S
C2715 H2719 0.950 . S
H2716 C2712 0.950 . S
C2717 C2715 1.390 . S
C2717 C2718 1.387 . S
C2717 H2720 0.950 . S
C2718 C2717 1.387 . S
C2718 C2721 1.387 1_455 S
H2719 C2715 0.950 . S
H2720 C2717 0.950 . S
C2721 C2712 1.390 . S
C2721 H2714 0.950 . S
C2721 C2718 1.387 1_655 S
C2722 C2723 1.387 . S
C2722 H2726 0.950 . S
C2722 C2731 1.390 . S
C2723 C2722 1.387 . S
C2723 C2725 1.387 . S
H2724 C2731 0.950 . S
C2725 C2723 1.387 . S
C2725 C2727 1.390 . S
C2725 H2729 0.950 . S
H2726 C2722 0.950 . S
C2727 C2725 1.390 . S
C2727 C2728 1.387 . S
C2727 H2730 0.950 . S
C2728 C2727 1.387 . S
C2728 C2731 1.387 . S
H2729 C2725 0.950 . S
H2730 C2727 0.950 . S
C2731 C2722 1.390 . S
C2731 H2724 0.950 . S
C2731 C2728 1.387 . S
C2732 C2733 1.387 . S
C2732 H2736 0.950 . S
C2732 C2741 1.390 . S
C2733 C2732 1.387 . S
C2733 C2735 1.387 . S
H2734 C2741 0.950 . S
C2735 C2733 1.387 . S
C2735 C2737 1.390 . S
C2735 H2739 0.950 . S
H2736 C2732 0.950 . S
C2737 C2735 1.390 . S
C2737 C2738 1.387 . S
C2737 H2740 0.950 1_556 S
C2738 C2737 1.387 . S
C2738 C2741 1.387 . S
H2739 C2735 0.950 . S
H2740 C2737 0.950 1_554 S
C2741 C2732 1.390 . S
C2741 H2734 0.950 . S
C2741 C2738 1.387 . S
C2742 C2743 1.387 . S
C2742 H2746 0.950 . S
C2742 C2751 1.390 . S
C2743 C2742 1.387 . S
C2743 C2745 1.387 . S
H2744 C2751 0.950 . S
C2745 C2743 1.387 . S
C2745 C2747 1.390 . S
C2745 H2749 0.950 . S
H2746 C2742 0.950 . S
C2747 C2745 1.390 . S
C2747 C2748 1.387 . S
C2747 H2750 0.950 . S
C2748 C2747 1.387 . S
C2748 C2751 1.387 . S
H2749 C2745 0.950 . S
H2750 C2747 0.950 . S
C2751 C2742 1.390 . S
C2751 H2744 0.950 . S
C2751 C2748 1.387 . S
C2752 C2753 1.387 . S
C2752 H2756 0.950 . S
C2752 C2761 1.390 . S
C2753 C2752 1.387 . S
C2753 C2755 1.387 1_565 S
H2754 C2761 0.950 . S
C2755 C2753 1.387 1_545 S
C2755 C2757 1.390 . S
C2755 H2759 0.950 . S
H2756 C2752 0.950 . S
C2757 C2755 1.390 . S
C2757 C2758 1.387 . S
C2757 H2760 0.950 . S
C2758 C2757 1.387 . S
C2758 C2761 1.387 1_545 S
H2759 C2755 0.950 . S
H2760 C2757 0.950 . S
C2761 C2752 1.390 . S
C2761 H2754 0.950 . S
C2761 C2758 1.387 1_565 S
C2762 C2763 1.387 . S
C2762 H2766 0.950 . S
C2762 C2771 1.390 . S
C2763 C2762 1.387 . S
C2763 C2765 1.387 . S
H2764 C2771 0.950 . S
C2765 C2763 1.387 . S
C2765 C2767 1.390 . S
C2765 H2769 0.950 . S
H2766 C2762 0.950 . S
C2767 C2765 1.390 . S
C2767 C2768 1.387 . S
C2767 H2770 0.950 . S
C2768 C2767 1.387 . S
C2768 C2771 1.387 . S
H2769 C2765 0.950 . S
H2770 C2767 0.950 . S
C2771 C2762 1.390 . S
C2771 H2764 0.950 . S
C2771 C2768 1.387 . S
C2772 C2773 1.387 . S
C2772 H2776 0.950 1_545 S
C2772 C2781 1.390 . S
C2773 C2772 1.387 . S
C2773 C2775 1.387 . S
H2774 C2781 0.950 1_565 S
C2775 C2773 1.387 . S
C2775 C2777 1.390 . S
C2775 H2779 0.950 . S
H2776 C2772 0.950 1_565 S
C2777 C2775 1.390 . S
C2777 C2778 1.387 . S
C2777 H2780 0.950 . S
C2778 C2777 1.387 . S
C2778 C2781 1.387 . S
H2779 C2775 0.950 . S
H2780 C2777 0.950 . S
C2781 C2772 1.390 . S
C2781 H2774 0.950 1_545 S
C2781 C2778 1.387 . S
C2782 C2783 1.387 . S
C2782 H2786 0.950 . S
C2782 C2791 1.390 . S
C2783 C2782 1.387 . S
C2783 C2785 1.387 . S
H2784 C2791 0.950 . S
C2785 C2783 1.387 . S
C2785 C2787 1.390 . S
C2785 H2789 0.950 . S
H2786 C2782 0.950 . S
C2787 C2785 1.390 . S
C2787 C2788 1.387 . S
C2787 H2790 0.950 . S
C2788 C2787 1.387 . S
C2788 C2791 1.387 . S
H2789 C2785 0.950 . S
H2790 C2787 0.950 . S
C2791 C2782 1.390 . S
C2791 H2784 0.950 . S
C2791 C2788 1.387 . S
C2792 C2793 1.387 1_545 S
C2792 H2796 0.950 . S
C2792 C2801 1.390 . S
C2793 C2792 1.387 1_565 S
C2793 C2795 1.387 . S
H2794 C2801 0.950 . S
C2795 C2793 1.387 . S
C2795 C2797 1.390 . S
C2795 H2799 0.950 . S
H2796 C2792 0.950 . S
C2797 C2795 1.390 . S
C2797 C2798 1.387 1_565 S
C2797 H2800 0.950 . S
C2798 C2797 1.387 1_545 S
C2798 C2801 1.387 . S
H2799 C2795 0.950 . S
H2800 C2797 0.950 . S
C2801 C2792 1.390 . S
C2801 H2794 0.950 . S
C2801 C2798 1.387 . S
C2802 C2803 1.387 . S
C2802 H2806 0.950 . S
C2802 C2811 1.390 . S
C2803 C2802 1.387 . S
C2803 C2805 1.387 . S
H2804 C2811 0.950 . S
C2805 C2803 1.387 . S
C2805 C2807 1.390 . S
C2805 H2809 0.950 . S
H2806 C2802 0.950 . S
C2807 C2805 1.390 . S
C2807 C2808 1.387 . S
C2807 H2810 0.950 . S
C2808 C2807 1.387 . S
C2808 C2811 1.387 . S
H2809 C2805 0.950 . S
H2810 C2807 0.950 . S
C2811 C2802 1.390 . S
C2811 H2804 0.950 . S
C2811 C2808 1.387 . S
C2812 C2813 1.387 . S
C2812 H2816 0.950 . S
C2812 C2821 1.390 . S
C2813 C2812 1.387 . S
C2813 C2815 1.387 1_545 S
H2814 C2821 0.950 . S
C2815 C2813 1.387 1_565 S
C2815 C2817 1.390 . S
C2815 H2819 0.950 . S
H2816 C2812 0.950 . S
C2817 C2815 1.390 . S
C2817 C2818 1.370 1_565 S
C2817 H2820 0.950 . S
C2818 C2817 1.370 1_545 S
C2818 C2821 1.419 . S
H2819 C2815 0.950 . S
H2820 C2817 0.950 . S
C2821 C2812 1.390 . S
C2821 H2814 0.950 . S
C2821 C2818 1.419 . S
C2822 C2823 1.387 . S
C2822 H2826 0.950 . S
C2822 C2831 1.390 . S
C2823 C2822 1.387 . S
C2823 C2825 1.387 . S
H2824 C2831 0.950 . S
C2825 C2823 1.387 . S
C2825 C2827 1.390 . S
C2825 H2829 0.950 . S
H2826 C2822 0.950 . S
C2827 C2825 1.390 . S
C2827 C2828 1.387 . S
C2827 H2830 0.950 . S
C2828 C2827 1.387 . S
C2828 C2831 1.387 . S
H2829 C2825 0.950 . S
H2830 C2827 0.950 . S
C2831 C2822 1.390 . S
C2831 H2824 0.950 . S
C2831 C2828 1.387 . S
C2832 C2833 1.387 1_554 S
C2832 H2836 0.950 . S
C2832 C2841 1.390 . S
C2833 C2832 1.387 1_556 S
C2833 C2835 1.387 . S
H2834 C2841 0.950 . S
C2835 C2833 1.387 . S
C2835 C2837 1.390 . S
C2835 H2839 0.950 . S
H2836 C2832 0.950 . S
C2837 C2835 1.390 . S
C2837 C2838 1.387 . S
C2837 H2840 0.950 . S
C2838 C2837 1.387 . S
C2838 C2841 1.387 1_556 S
H2839 C2835 0.950 . S
H2840 C2837 0.950 . S
C2841 C2832 1.390 . S
C2841 H2834 0.950 . S
C2841 C2838 1.387 1_554 S
C2842 C2843 1.387 1_556 S
C2842 H2846 0.950 . S
C2842 C2851 1.390 . S
C2843 C2842 1.387 1_554 S
C2843 C2845 1.387 . S
H2844 C2851 0.950 . S
C2845 C2843 1.387 . S
C2845 C2847 1.390 . S
C2845 H2849 0.950 . S
H2846 C2842 0.950 . S
C2847 C2845 1.390 . S
C2847 C2848 1.387 . S
C2847 H2850 0.950 . S
C2848 C2847 1.387 . S
C2848 C2851 1.387 1_554 S
H2849 C2845 0.950 . S
H2850 C2847 0.950 . S
C2851 C2842 1.390 . S
C2851 H2844 0.950 . S
C2851 C2848 1.387 1_556 S
C2852 C2853 1.387 . S
C2852 H2856 0.950 . S
C2852 C2861 1.390 . S
C2853 C2852 1.387 . S
C2853 C2855 1.387 . S
H2854 C2861 0.950 . S
C2855 C2853 1.387 . S
C2855 C2857 1.390 . S
C2855 H2859 0.950 . S
H2856 C2852 0.950 . S
C2857 C2855 1.390 . S
C2857 C2858 1.387 . S
C2857 H2860 0.950 . S
C2858 C2857 1.387 . S
C2858 C2861 1.387 . S
H2859 C2855 0.950 . S
H2860 C2857 0.950 . S
C2861 C2852 1.390 . S
C2861 H2854 0.950 . S
C2861 C2858 1.387 . S
C2862 C2863 1.387 . S
C2862 H2866 0.950 . S
C2862 C2871 1.390 . S
C2863 C2862 1.387 . S
C2863 C2865 1.387 . S
H2864 C2871 0.950 . S
C2865 C2863 1.387 . S
C2865 C2867 1.390 . S
C2865 H2869 0.950 . S
H2866 C2862 0.950 . S
C2867 C2865 1.390 . S
C2867 C2868 1.387 . S
C2867 H2870 0.950 . S
C2868 C2867 1.387 . S
C2868 C2871 1.387 . S
H2869 C2865 0.950 . S
H2870 C2867 0.950 . S
C2871 C2862 1.390 . S
C2871 H2864 0.950 . S
C2871 C2868 1.387 . S
C2872 C2873 1.387 . S
C2872 H2876 0.950 . S
C2872 C2881 1.390 . S
C2873 C2872 1.387 . S
C2873 C2875 1.387 . S
H2874 C2881 0.950 . S
C2875 C2873 1.387 . S
C2875 C2877 1.390 . S
C2875 H2879 0.950 . S
H2876 C2872 0.950 . S
C2877 C2875 1.390 . S
C2877 C2878 1.387 . S
C2877 H2880 0.950 . S
C2878 C2877 1.387 . S
C2878 C2881 1.387 . S
H2879 C2875 0.950 . S
H2880 C2877 0.950 . S
C2881 C2872 1.390 . S
C2881 H2874 0.950 . S
C2881 C2878 1.387 . S
C2882 C2883 1.387 . S
C2882 H2886 0.950 . S
C2882 C2891 1.390 . S
C2883 C2882 1.387 . S
C2883 C2885 1.387 . S
H2884 C2891 0.950 . S
C2885 C2883 1.387 . S
C2885 C2887 1.390 . S
C2885 H2889 0.950 . S
H2886 C2882 0.950 . S
C2887 C2885 1.390 . S
C2887 C2888 1.387 . S
C2887 H2890 0.946 1_565 S
C2888 C2887 1.387 . S
C2888 C2891 1.387 . S
H2889 C2885 0.950 . S
H2890 C2887 0.946 1_545 S
C2891 C2882 1.390 . S
C2891 H2884 0.950 . S
C2891 C2888 1.387 . S
C2892 C2893 1.387 . S
C2892 H2896 0.950 . S
C2892 C2901 1.390 . S
C2893 C2892 1.387 . S
C2893 C2895 1.387 . S
H2894 C2901 0.950 . S
C2895 C2893 1.387 . S
C2895 C2897 1.390 . S
C2895 H2899 0.950 . S
H2896 C2892 0.950 . S
C2897 C2895 1.390 . S
C2897 C2898 1.387 . S
C2897 H2900 0.950 . S
C2898 C2897 1.387 . S
C2898 C2901 1.387 . S
H2899 C2895 0.950 . S
H2900 C2897 0.950 . S
C2901 C2892 1.390 . S
C2901 H2894 0.950 . S
C2901 C2898 1.387 . S
C2902 C2903 1.387 . S
C2902 H2906 0.950 . S
C2902 C2911 1.390 . S
C2903 C2902 1.387 . S
C2903 C2905 1.387 . S
H2904 C2911 0.950 . S
C2905 C2903 1.387 . S
C2905 C2907 1.390 . S
C2905 H2909 0.950 . S
H2906 C2902 0.950 . S
C2907 C2905 1.390 . S
C2907 C2908 1.387 . S
C2907 H2910 0.950 . S
C2908 C2907 1.387 . S
C2908 C2911 1.387 . S
H2909 C2905 0.950 . S
H2910 C2907 0.950 . S
C2911 C2902 1.390 . S
C2911 H2904 0.950 . S
C2911 C2908 1.387 . S
C2912 C2913 1.387 . S
C2912 H2916 0.950 . S
C2912 C2921 1.390 . S
C2913 C2912 1.387 . S
C2913 C2915 1.387 . S
H2914 C2921 0.950 . S
C2915 C2913 1.387 . S
C2915 C2917 1.390 . S
C2915 H2919 0.950 . S
H2916 C2912 0.950 . S
C2917 C2915 1.390 . S
C2917 C2918 1.387 . S
C2917 H2920 0.950 . S
C2918 C2917 1.387 . S
C2918 C2921 1.387 . S
H2919 C2915 0.950 . S
H2920 C2917 0.950 . S
C2921 C2912 1.390 . S
C2921 H2914 0.950 . S
C2921 C2918 1.387 . S
C2922 C2923 1.387 . S
C2922 H2926 0.950 . S
C2922 C2931 1.390 . S
C2923 C2922 1.387 . S
C2923 C2925 1.387 . S
H2924 C2931 0.950 . S
C2925 C2923 1.387 . S
C2925 C2927 1.390 . S
C2925 H2929 0.950 . S
H2926 C2922 0.950 . S
C2927 C2925 1.390 . S
C2927 C2928 1.387 . S
C2927 H2930 0.950 . S
C2928 C2927 1.387 . S
C2928 C2931 1.387 . S
H2929 C2925 0.950 . S
H2930 C2927 0.950 . S
C2931 C2922 1.390 . S
C2931 H2924 0.950 . S
C2931 C2928 1.387 . S
C2932 C2933 1.387 . S
C2932 H2936 0.950 1_455 S
C2932 C2941 1.392 . S
C2933 C2932 1.387 . S
C2933 C2935 1.387 1_556 S
H2934 C2941 0.947 1_655 S
C2935 C2933 1.387 1_554 S
C2935 C2937 1.390 . S
C2935 H2939 0.950 . S
H2936 C2932 0.950 1_655 S
C2937 C2935 1.390 . S
C2937 C2938 1.387 1_554 S
C2937 H2940 0.950 . S
C2938 C2937 1.387 1_556 S
C2938 C2941 1.389 . S
H2939 C2935 0.950 . S
H2940 C2937 0.950 . S
C2941 C2932 1.392 . S
C2941 H2934 0.947 1_455 S
C2941 C2938 1.389 . S
C2942 C2943 1.387 . S
C2942 H2946 0.950 . S
C2942 C2951 1.390 . S
C2943 C2942 1.387 . S
C2943 C2945 1.387 . S
H2944 C2951 0.950 . S
C2945 C2943 1.387 . S
C2945 C2947 1.390 . S
C2945 H2949 0.950 . S
H2946 C2942 0.950 . S
C2947 C2945 1.390 . S
C2947 C2948 1.387 . S
C2947 H2950 0.950 . S
C2948 C2947 1.387 . S
C2948 C2951 1.387 . S
H2949 C2945 0.950 . S
H2950 C2947 0.950 . S
C2951 C2942 1.390 . S
C2951 H2944 0.950 . S
C2951 C2948 1.387 . S
C2952 C2953 1.387 . S
C2952 H2956 0.950 . S
C2952 C2961 1.390 . S
C2953 C2952 1.387 . S
C2953 C2955 1.387 . S
H2954 C2961 0.950 . S
C2955 C2953 1.387 . S
C2955 C2957 1.390 . S
C2955 H2959 0.950 . S
H2956 C2952 0.950 . S
C2957 C2955 1.390 . S
C2957 C2958 1.387 . S
C2957 H2960 0.950 . S
C2958 C2957 1.387 . S
C2958 C2961 1.387 . S
H2959 C2955 0.950 . S
H2960 C2957 0.950 . S
C2961 C2952 1.390 . S
C2961 H2954 0.950 . S
C2961 C2958 1.387 . S
C2962 C2963 1.387 . S
C2962 H2966 0.950 . S
C2962 C2971 1.390 . S
C2963 C2962 1.387 . S
C2963 C2965 1.387 . S
H2964 C2971 0.950 . S
C2965 C2963 1.387 . S
C2965 C2967 1.390 . S
C2965 H2969 0.950 . S
H2966 C2962 0.950 . S
C2967 C2965 1.390 . S
C2967 C2968 1.387 . S
C2967 H2970 0.950 . S
C2968 C2967 1.387 . S
C2968 C2971 1.387 . S
H2969 C2965 0.950 . S
H2970 C2967 0.950 . S
C2971 C2962 1.390 . S
C2971 H2964 0.950 . S
C2971 C2968 1.387 . S
C2972 C2973 1.390 . S
C2972 H2976 0.951 . S
C2972 C2981 1.387 1_655 S
C2973 C2972 1.390 . S
C2973 C2975 1.387 . S
H2974 C2981 0.950 . S
C2975 C2973 1.387 . S
C2975 C2977 1.401 . S
C2975 H2979 0.950 . S
H2976 C2972 0.951 . S
C2977 C2975 1.401 . S
C2977 C2978 1.380 1_655 S
C2977 H2980 0.951 . S
C2978 C2977 1.380 1_455 S
C2978 C2981 1.387 . S
H2979 C2975 0.950 . S
H2980 C2977 0.951 . S
C2981 C2972 1.387 1_455 S
C2981 H2974 0.950 . S
C2981 C2978 1.387 . S
C2982 C2983 1.387 . S
C2982 H2986 0.950 . S
C2982 C2991 1.390 . S
C2983 C2982 1.387 . S
C2983 C2985 1.387 . S
H2984 C2991 0.950 . S
C2985 C2983 1.387 . S
C2985 C2987 1.390 . S
C2985 H2989 0.950 . S
H2986 C2982 0.950 . S
C2987 C2985 1.390 . S
C2987 C2988 1.387 . S
C2987 H2990 0.950 . S
C2988 C2987 1.387 . S
C2988 C2991 1.387 . S
H2989 C2985 0.950 . S
H2990 C2987 0.950 . S
C2991 C2982 1.390 . S
C2991 H2984 0.950 . S
C2991 C2988 1.387 . S
C2992 C2993 1.387 . S
C2992 H2996 0.950 . S
C2992 C3001 1.390 . S
C2993 C2992 1.387 . S
C2993 C2995 1.387 . S
H2994 C3001 0.950 . S
C2995 C2993 1.387 . S
C2995 C2997 1.390 . S
C2995 H2999 0.950 . S
H2996 C2992 0.950 . S
C2997 C2995 1.390 . S
C2997 C2998 1.387 . S
C2997 H3000 0.950 . S
C2998 C2997 1.387 . S
C2998 C3001 1.387 . S
H2999 C2995 0.950 . S
H3000 C2997 0.950 . S
C3001 C2992 1.390 . S
C3001 H2994 0.950 . S
C3001 C2998 1.387 . S
C3002 C3003 1.387 . S
C3002 H3006 0.950 . S
C3002 C3011 1.390 . S
C3003 C3002 1.387 . S
C3003 C3005 1.387 . S
H3004 C3011 0.950 . S
C3005 C3003 1.387 . S
C3005 C3007 1.390 . S
C3005 H3009 0.950 . S
H3006 C3002 0.950 . S
C3007 C3005 1.390 . S
C3007 C3008 1.387 . S
C3007 H3010 0.950 . S
C3008 C3007 1.387 . S
C3008 C3011 1.387 . S
H3009 C3005 0.950 . S
H3010 C3007 0.950 . S
C3011 C3002 1.390 . S
C3011 H3004 0.950 . S
C3011 C3008 1.387 . S
C3012 C3013 1.387 . S
C3012 H3016 0.950 . S
C3012 C3021 1.390 . S
C3013 C3012 1.387 . S
C3013 C3015 1.387 . S
H3014 C3021 0.950 . S
C3015 C3013 1.387 . S
C3015 C3017 1.390 . S
C3015 H3019 0.950 . S
H3016 C3012 0.950 . S
C3017 C3015 1.390 . S
C3017 C3018 1.387 . S
C3017 H3020 0.950 . S
C3018 C3017 1.387 . S
C3018 C3021 1.387 . S
H3019 C3015 0.950 . S
H3020 C3017 0.950 . S
C3021 C3012 1.390 . S
C3021 H3014 0.950 . S
C3021 C3018 1.387 . S
C3022 C3023 1.387 . S
C3022 H3026 0.950 . S
C3022 C3031 1.390 . S
C3023 C3022 1.387 . S
C3023 C3025 1.387 . S
H3024 C3031 0.950 . S
C3025 C3023 1.387 . S
C3025 C3027 1.390 . S
C3025 H3029 0.950 . S
H3026 C3022 0.950 . S
C3027 C3025 1.390 . S
C3027 C3028 1.387 . S
C3027 H3030 0.950 . S
C3028 C3027 1.387 . S
C3028 C3031 1.387 . S
H3029 C3025 0.950 . S
H3030 C3027 0.950 . S
C3031 C3022 1.390 . S
C3031 H3024 0.950 . S
C3031 C3028 1.387 . S
C3032 C3033 1.387 . S
C3032 H3036 0.950 . S
C3032 C3041 1.390 . S
C3033 C3032 1.387 . S
C3033 C3035 1.387 . S
H3034 C3041 0.950 . S
C3035 C3033 1.387 . S
C3035 C3037 1.390 . S
C3035 H3039 0.950 . S
H3036 C3032 0.950 . S
C3037 C3035 1.390 . S
C3037 C3038 1.387 . S
C3037 H3040 0.950 . S
C3038 C3037 1.387 . S
C3038 C3041 1.387 . S
H3039 C3035 0.950 . S
H3040 C3037 0.950 . S
C3041 C3032 1.390 . S
C3041 H3034 0.950 . S
C3041 C3038 1.387 . S
C3042 C3043 1.387 . S
C3042 H3046 0.950 . S
C3042 C3051 1.390 . S
C3043 C3042 1.387 . S
C3043 C3045 1.387 . S
H3044 C3051 0.950 . S
C3045 C3043 1.387 . S
C3045 C3047 1.390 . S
C3045 H3049 0.950 . S
H3046 C3042 0.950 . S
C3047 C3045 1.390 . S
C3047 C3048 1.387 . S
C3047 H3050 0.950 . S
C3048 C3047 1.387 . S
C3048 C3051 1.387 . S
H3049 C3045 0.950 . S
H3050 C3047 0.950 . S
C3051 C3042 1.390 . S
C3051 H3044 0.950 . S
C3051 C3048 1.387 . S
C3052 C3053 1.387 . S
C3052 H3056 0.950 . S
C3052 C3061 1.390 . S
C3053 C3052 1.387 . S
C3053 C3055 1.387 . S
H3054 C3061 0.950 . S
C3055 C3053 1.387 . S
C3055 C3057 1.390 . S
C3055 H3059 0.950 . S
H3056 C3052 0.950 . S
C3057 C3055 1.390 . S
C3057 C3058 1.387 . S
C3057 H3060 0.950 . S
C3058 C3057 1.387 . S
C3058 C3061 1.387 . S
H3059 C3055 0.950 . S
H3060 C3057 0.950 . S
C3061 C3052 1.390 . S
C3061 H3054 0.950 . S
C3061 C3058 1.387 . S
C3062 C3063 1.387 . S
C3062 H3066 0.950 . S
C3062 C3071 1.390 . S
C3063 C3062 1.387 . S
C3063 C3065 1.387 . S
H3064 C3071 0.950 . S
C3065 C3063 1.387 . S
C3065 C3067 1.390 . S
C3065 H3069 0.950 . S
H3066 C3062 0.950 . S
C3067 C3065 1.390 . S
C3067 C3068 1.387 . S
C3067 H3070 0.950 . S
C3068 C3067 1.387 . S
C3068 C3071 1.387 . S
H3069 C3065 0.950 . S
H3070 C3067 0.950 . S
C3071 C3062 1.390 . S
C3071 H3064 0.950 . S
C3071 C3068 1.387 . S
C3072 C3073 1.387 . S
C3072 H3076 0.950 . S
C3072 C3081 1.390 . S
C3073 C3072 1.387 . S
C3073 C3075 1.387 . S
H3074 C3081 0.950 . S
C3075 C3073 1.387 . S
C3075 C3077 1.390 . S
C3075 H3079 0.950 . S
H3076 C3072 0.950 . S
C3077 C3075 1.390 . S
C3077 C3078 1.387 . S
C3077 H3080 0.950 . S
C3078 C3077 1.387 . S
C3078 C3081 1.387 . S
H3079 C3075 0.950 . S
H3080 C3077 0.950 . S
C3081 C3072 1.390 . S
C3081 H3074 0.950 . S
C3081 C3078 1.387 . S
C3082 C3083 1.387 . S
C3082 H3086 0.950 . S
C3082 C3091 1.390 . S
C3083 C3082 1.387 . S
C3083 C3085 1.387 . S
H3084 C3091 0.950 . S
C3085 C3083 1.387 . S
C3085 C3087 1.390 . S
C3085 H3089 0.950 . S
H3086 C3082 0.950 . S
C3087 C3085 1.390 . S
C3087 C3088 1.387 . S
C3087 H3090 0.950 . S
C3088 C3087 1.387 . S
C3088 C3091 1.387 . S
H3089 C3085 0.950 . S
H3090 C3087 0.950 . S
C3091 C3082 1.390 . S
C3091 H3084 0.950 . S
C3091 C3088 1.387 . S
C3092 C3093 1.387 . S
C3092 H3096 0.950 . S
C3092 C3101 1.390 . S
C3093 C3092 1.387 . S
C3093 C3095 1.387 . S
H3094 C3101 0.950 . S
C3095 C3093 1.387 . S
C3095 C3097 1.390 . S
C3095 H3099 0.950 . S
H3096 C3092 0.950 . S
C3097 C3095 1.390 . S
C3097 C3098 1.387 . S
C3097 H3100 0.950 . S
C3098 C3097 1.387 . S
C3098 C3101 1.387 . S
H3099 C3095 0.950 . S
H3100 C3097 0.950 . S
C3101 C3092 1.390 . S
C3101 H3094 0.950 . S
C3101 C3098 1.387 . S
C3102 C3103 1.387 . S
C3102 H3106 0.950 . S
C3102 C3111 1.390 . S
C3103 C3102 1.387 . S
C3103 C3105 1.387 1_565 S
H3104 C3111 0.948 1_556 S
C3105 C3103 1.387 1_545 S
C3105 C3107 1.390 . S
C3105 H3109 0.950 . S
H3106 C3102 0.950 . S
C3107 C3105 1.390 . S
C3107 C3108 1.387 . S
C3107 H3110 0.950 . S
C3108 C3107 1.387 . S
C3108 C3111 1.387 1_545 S
H3109 C3105 0.950 . S
H3110 C3107 0.950 . S
C3111 C3102 1.390 . S
C3111 H3104 0.948 1_554 S
C3111 C3108 1.387 1_565 S
C3112 C3113 1.387 . S
C3112 H3116 0.950 . S
C3112 C3121 1.390 . S
C3113 C3112 1.387 . S
C3113 C3115 1.387 . S
H3114 C3121 0.950 . S
C3115 C3113 1.387 . S
C3115 C3117 1.390 . S
C3115 H3119 0.950 . S
H3116 C3112 0.950 . S
C3117 C3115 1.390 . S
C3117 C3118 1.387 . S
C3117 H3120 0.950 . S
C3118 C3117 1.387 . S
C3118 C3121 1.387 . S
H3119 C3115 0.950 . S
H3120 C3117 0.950 . S
C3121 C3112 1.390 . S
C3121 H3114 0.950 . S
C3121 C3118 1.387 . S
C3122 C3123 1.387 . S
C3122 H3126 0.950 . S
C3122 C3131 1.390 . S
C3123 C3122 1.387 . S
C3123 C3125 1.387 1_554 S
H3124 C3131 0.950 . S
C3125 C3123 1.387 1_556 S
C3125 C3127 1.390 1_556 S
C3125 H3129 0.950 . S
H3126 C3122 0.950 . S
C3127 C3125 1.390 1_554 S
C3127 C3128 1.387 . S
C3127 H3130 0.950 1_554 S
C3128 C3127 1.387 . S
C3128 C3131 1.387 . S
H3129 C3125 0.950 . S
H3130 C3127 0.950 1_556 S
C3131 C3122 1.390 . S
C3131 H3124 0.950 . S
C3131 C3128 1.387 . S
C3132 C3133 1.387 . S
C3132 H3136 0.950 . S
C3132 C3141 1.390 . S
C3133 C3132 1.387 . S
C3133 C3135 1.387 . S
H3134 C3141 0.950 . S
C3135 C3133 1.387 . S
C3135 C3137 1.390 . S
C3135 H3139 0.950 . S
H3136 C3132 0.950 . S
C3137 C3135 1.390 . S
C3137 C3138 1.387 . S
C3137 H3140 0.950 . S
C3138 C3137 1.387 . S
C3138 C3141 1.387 . S
H3139 C3135 0.950 . S
H3140 C3137 0.950 . S
C3141 C3132 1.390 . S
C3141 H3134 0.950 . S
C3141 C3138 1.387 . S
C3142 C3143 1.387 . S
C3142 H3146 0.950 . S
C3142 C3151 1.390 . S
C3143 C3142 1.387 . S
C3143 C3145 1.387 . S
H3144 C3151 0.950 . S
C3145 C3143 1.387 . S
C3145 C3147 1.390 . S
C3145 H3149 0.950 . S
H3146 C3142 0.950 . S
C3147 C3145 1.390 . S
C3147 C3148 1.387 . S
C3147 H3150 0.950 . S
C3148 C3147 1.387 . S
C3148 C3151 1.387 . S
H3149 C3145 0.950 . S
H3150 C3147 0.950 . S
C3151 C3142 1.390 . S
C3151 H3144 0.950 . S
C3151 C3148 1.387 . S
C3152 C3153 1.387 . S
C3152 H3156 0.950 . S
C3152 C3161 1.390 . S
C3153 C3152 1.387 . S
C3153 C3155 1.387 . S
H3154 C3161 0.950 . S
C3155 C3153 1.387 . S
C3155 C3157 1.390 . S
C3155 H3159 0.950 . S
H3156 C3152 0.950 . S
C3157 C3155 1.390 . S
C3157 C3158 1.387 . S
C3157 H3160 0.950 . S
C3158 C3157 1.387 . S
C3158 C3161 1.387 . S
H3159 C3155 0.950 . S
H3160 C3157 0.950 . S
C3161 C3152 1.390 . S
C3161 H3154 0.950 . S
C3161 C3158 1.387 . S
C3162 C3163 1.387 . S
C3162 H3166 0.950 . S
C3162 C3171 1.390 . S
C3163 C3162 1.387 . S
C3163 C3165 1.387 . S
H3164 C3171 0.950 . S
C3165 C3163 1.387 . S
C3165 C3167 1.390 . S
C3165 H3169 0.950 . S
H3166 C3162 0.950 . S
C3167 C3165 1.390 . S
C3167 C3168 1.387 . S
C3167 H3170 0.950 . S
C3168 C3167 1.387 . S
C3168 C3171 1.387 . S
H3169 C3165 0.950 . S
H3170 C3167 0.950 . S
C3171 C3162 1.390 . S
C3171 H3164 0.950 . S
C3171 C3168 1.387 . S
C3172 C3173 1.387 . S
C3172 H3176 0.950 . S
C3172 C3181 1.390 . S
C3173 C3172 1.387 . S
C3173 C3175 1.395 . S
H3174 C3181 0.950 . S
C3175 C3173 1.395 . S
C3175 C3177 1.396 . S
C3175 H3179 0.936 1_455 S
H3176 C3172 0.950 . S
C3177 C3175 1.396 . S
C3177 C3178 1.387 . S
C3177 H3180 0.950 1_454 S
C3178 C3177 1.387 . S
C3178 C3181 1.387 . S
H3179 C3175 0.936 1_655 S
H3180 C3177 0.950 1_656 S
C3181 C3172 1.390 . S
C3181 H3174 0.950 . S
C3181 C3178 1.387 . S
C3182 C3183 1.387 . S
C3182 H3186 0.950 . S
C3182 C3191 1.390 . S
C3183 C3182 1.387 . S
C3183 C3185 1.387 . S
H3184 C3191 0.950 . S
C3185 C3183 1.387 . S
C3185 C3187 1.390 . S
C3185 H3189 0.950 . S
H3186 C3182 0.950 . S
C3187 C3185 1.390 . S
C3187 C3188 1.387 . S
C3187 H3190 0.950 . S
C3188 C3187 1.387 . S
C3188 C3191 1.387 . S
H3189 C3185 0.950 . S
H3190 C3187 0.950 . S
C3191 C3182 1.390 . S
C3191 H3184 0.950 . S
C3191 C3188 1.387 . S
C3192 C3193 1.387 . S
C3192 H3196 0.950 . S
C3192 C3201 1.390 . S
C3193 C3192 1.387 . S
C3193 C3195 1.387 . S
H3194 C3201 0.950 1_554 S
C3195 C3193 1.387 . S
C3195 C3197 1.390 . S
C3195 H3199 0.950 . S
H3196 C3192 0.950 . S
C3197 C3195 1.390 . S
C3197 C3198 1.387 . S
C3197 H3200 0.950 . S
C3198 C3197 1.387 . S
C3198 C3201 1.387 . S
H3199 C3195 0.950 . S
H3200 C3197 0.950 . S
C3201 C3192 1.390 . S
C3201 H3194 0.950 1_556 S
C3201 C3198 1.387 . S
C3202 C3203 1.387 . S
C3202 H3206 0.950 . S
C3202 C3211 1.390 . S
C3203 C3202 1.387 . S
C3203 C3205 1.387 . S
H3204 C3211 0.950 . S
C3205 C3203 1.387 . S
C3205 C3207 1.390 . S
C3205 H3209 0.950 . S
H3206 C3202 0.950 . S
C3207 C3205 1.390 . S
C3207 C3208 1.387 . S
C3207 H3210 0.950 . S
C3208 C3207 1.387 . S
C3208 C3211 1.387 . S
H3209 C3205 0.950 . S
H3210 C3207 0.950 . S
C3211 C3202 1.390 . S
C3211 H3204 0.950 . S
C3211 C3208 1.387 . S
C3212 C3213 1.387 . S
C3212 H3216 0.950 . S
C3212 C3221 1.390 . S
C3213 C3212 1.387 . S
C3213 C3215 1.387 . S
H3214 C3221 0.950 1_655 S
C3215 C3213 1.387 . S
C3215 C3217 1.390 . S
C3215 H3219 0.950 . S
H3216 C3212 0.950 . S
C3217 C3215 1.390 . S
C3217 C3218 1.387 . S
C3217 H3220 0.950 . S
C3218 C3217 1.387 . S
C3218 C3221 1.387 . S
H3219 C3215 0.950 . S
H3220 C3217 0.950 . S
C3221 C3212 1.390 . S
C3221 H3214 0.950 1_455 S
C3221 C3218 1.387 . S
C3222 C3223 1.387 . S
C3222 H3226 0.950 . S
C3222 C3231 1.390 . S
C3223 C3222 1.387 . S
C3223 C3225 1.387 . S
H3224 C3231 0.950 . S
C3225 C3223 1.387 . S
C3225 C3227 1.390 . S
C3225 H3229 0.950 . S
H3226 C3222 0.950 . S
C3227 C3225 1.390 . S
C3227 C3228 1.387 . S
C3227 H3230 0.950 . S
C3228 C3227 1.387 . S
C3228 C3231 1.387 . S
H3229 C3225 0.950 . S
H3230 C3227 0.950 . S
C3231 C3222 1.390 . S
C3231 H3224 0.950 . S
C3231 C3228 1.387 . S
C3232 C3233 1.387 . S
C3232 H3236 0.950 . S
C3232 C3241 1.390 . S
C3233 C3232 1.387 . S
C3233 C3235 1.387 . S
H3234 C3241 0.950 . S
C3235 C3233 1.387 . S
C3235 C3237 1.390 . S
C3235 H3239 0.950 . S
H3236 C3232 0.950 . S
C3237 C3235 1.390 . S
C3237 C3238 1.387 . S
C3237 H3240 0.950 . S
C3238 C3237 1.387 . S
C3238 C3241 1.387 . S
H3239 C3235 0.950 . S
H3240 C3237 0.950 . S
C3241 C3232 1.390 . S
C3241 H3234 0.950 . S
C3241 C3238 1.387 . S
C3242 C3243 1.387 . S
C3242 H3246 0.950 . S
C3242 C3251 1.390 . S
C3243 C3242 1.387 . S
C3243 C3245 1.387 . S
H3244 C3251 0.950 . S
C3245 C3243 1.387 . S
C3245 C3247 1.390 . S
C3245 H3249 0.950 . S
H3246 C3242 0.950 . S
C3247 C3245 1.390 . S
C3247 C3248 1.387 . S
C3247 H3250 0.950 . S
C3248 C3247 1.387 . S
C3248 C3251 1.387 . S
H3249 C3245 0.950 . S
H3250 C3247 0.950 . S
C3251 C3242 1.390 . S
C3251 H3244 0.950 . S
C3251 C3248 1.387 . S
C3252 C3253 1.387 . S
C3252 H3256 0.950 . S
C3252 C3261 1.396 . S
C3253 C3252 1.387 . S
C3253 C3255 1.387 . S
H3254 C3261 0.938 1_455 S
C3255 C3253 1.387 . S
C3255 C3257 1.390 . S
C3255 H3259 0.950 . S
H3256 C3252 0.950 . S
C3257 C3255 1.390 . S
C3257 C3258 1.387 . S
C3257 H3260 0.950 . S
C3258 C3257 1.387 . S
C3258 C3261 1.394 . S
H3259 C3255 0.950 . S
H3260 C3257 0.950 . S
C3261 C3252 1.396 . S
C3261 H3254 0.938 1_655 S
C3261 C3258 1.394 . S
C3262 C3263 1.387 . S
C3262 H3266 0.950 . S
C3262 C3271 1.390 . S
C3263 C3262 1.387 . S
C3263 C3265 1.387 . S
H3264 C3271 0.950 . S
C3265 C3263 1.387 . S
C3265 C3267 1.390 . S
C3265 H3269 0.950 . S
H3266 C3262 0.950 . S
C3267 C3265 1.390 . S
C3267 C3268 1.387 . S
C3267 H3270 0.950 . S
C3268 C3267 1.387 . S
C3268 C3271 1.387 . S
H3269 C3265 0.950 . S
H3270 C3267 0.950 . S
C3271 C3262 1.390 . S
C3271 H3264 0.950 . S
C3271 C3268 1.387 . S
C3272 C3273 1.387 . S
C3272 H3276 0.950 . S
C3272 C3281 1.390 . S
C3273 C3272 1.387 . S
C3273 C3275 1.387 . S
H3274 C3281 0.950 . S
C3275 C3273 1.387 . S
C3275 C3277 1.390 . S
C3275 H3279 0.950 . S
H3276 C3272 0.950 . S
C3277 C3275 1.390 . S
C3277 C3278 1.387 . S
C3277 H3280 0.950 . S
C3278 C3277 1.387 . S
C3278 C3281 1.387 . S
H3279 C3275 0.950 . S
H3280 C3277 0.950 . S
C3281 C3272 1.390 . S
C3281 H3274 0.950 . S
C3281 C3278 1.387 . S
C3282 C3283 1.387 . S
C3282 H3286 0.950 . S
C3282 C3291 1.390 . S
C3283 C3282 1.387 . S
C3283 C3285 1.387 . S
H3284 C3291 0.950 . S
C3285 C3283 1.387 . S
C3285 C3287 1.390 . S
C3285 H3289 0.950 . S
H3286 C3282 0.950 . S
C3287 C3285 1.390 . S
C3287 C3288 1.387 . S
C3287 H3290 0.950 . S
C3288 C3287 1.387 . S
C3288 C3291 1.387 . S
H3289 C3285 0.950 . S
H3290 C3287 0.950 . S
C3291 C3282 1.390 . S
C3291 H3284 0.950 . S
C3291 C3288 1.387 . S
C3292 C3293 1.387 . S
C3292 H3296 0.950 . S
C3292 C3301 1.390 . S
C3293 C3292 1.387 . S
C3293 C3295 1.387 . S
H3294 C3301 0.950 . S
C3295 C3293 1.387 . S
C3295 C3297 1.390 . S
C3295 H3299 0.950 . S
H3296 C3292 0.950 . S
C3297 C3295 1.390 . S
C3297 C3298 1.387 . S
C3297 H3300 0.950 . S
C3298 C3297 1.387 . S
C3298 C3301 1.387 . S
H3299 C3295 0.950 . S
H3300 C3297 0.950 . S
C3301 C3292 1.390 . S
C3301 H3294 0.950 . S
C3301 C3298 1.387 . S
C3302 C3303 1.387 . S
C3302 H3306 0.950 . S
C3302 C3311 1.390 . S
C3303 C3302 1.387 . S
C3303 C3305 1.387 . S
H3304 C3311 0.950 . S
C3305 C3303 1.387 . S
C3305 C3307 1.390 . S
C3305 H3309 0.950 . S
H3306 C3302 0.950 . S
C3307 C3305 1.390 . S
C3307 C3308 1.387 . S
C3307 H3310 0.950 . S
C3308 C3307 1.387 . S
C3308 C3311 1.387 . S
H3309 C3305 0.950 . S
H3310 C3307 0.950 . S
C3311 C3302 1.390 . S
C3311 H3304 0.950 . S
C3311 C3308 1.387 . S
C3312 C3313 1.387 . S
C3312 H3316 0.950 . S
C3312 C3321 1.390 . S
C3313 C3312 1.387 . S
C3313 C3315 1.387 . S
H3314 C3321 0.950 . S
C3315 C3313 1.387 . S
C3315 C3317 1.390 . S
C3315 H3319 0.950 . S
H3316 C3312 0.950 . S
C3317 C3315 1.390 . S
C3317 C3318 1.387 . S
C3317 H3320 0.950 . S
C3318 C3317 1.387 . S
C3318 C3321 1.387 . S
H3319 C3315 0.950 . S
H3320 C3317 0.950 . S
C3321 C3312 1.390 . S
C3321 H3314 0.950 . S
C3321 C3318 1.387 . S
C3322 C3323 1.387 . S
C3322 H3326 0.950 1_565 S
C3322 C3331 1.390 1_565 S
C3323 C3322 1.387 . S
C3323 C3325 1.387 . S
H3324 C3331 0.950 . S
C3325 C3323 1.387 . S
C3325 C3327 1.390 . S
C3325 H3329 0.950 . S
H3326 C3322 0.950 1_545 S
C3327 C3325 1.390 . S
C3327 C3328 1.387 . S
C3327 H3330 0.950 . S
C3328 C3327 1.387 . S
C3328 C3331 1.387 1_565 S
H3329 C3325 0.950 . S
H3330 C3327 0.950 . S
C3331 C3322 1.390 1_545 S
C3331 H3324 0.950 . S
C3331 C3328 1.387 1_545 S
C3332 C3333 1.387 . S
C3332 H3336 0.950 . S
C3332 C3341 1.390 . S
C3333 C3332 1.387 . S
C3333 C3335 1.387 . S
H3334 C3341 0.950 . S
C3335 C3333 1.387 . S
C3335 C3337 1.390 . S
C3335 H3339 0.950 . S
H3336 C3332 0.950 . S
C3337 C3335 1.390 . S
C3337 C3338 1.387 . S
C3337 H3340 0.950 . S
C3338 C3337 1.387 . S
C3338 C3341 1.387 . S
H3339 C3335 0.950 . S
H3340 C3337 0.950 . S
C3341 C3332 1.390 . S
C3341 H3334 0.950 . S
C3341 C3338 1.387 . S
C3342 C3343 1.387 1_554 S
C3342 H3346 0.950 . S
C3342 C3351 1.390 . S
C3343 C3342 1.387 1_556 S
C3343 C3345 1.387 . S
H3344 C3351 0.950 . S
C3345 C3343 1.387 . S
C3345 C3347 1.390 . S
C3345 H3349 0.950 . S
H3346 C3342 0.950 . S
C3347 C3345 1.390 . S
C3347 C3348 1.387 1_556 S
C3347 H3350 0.950 . S
C3348 C3347 1.387 1_554 S
C3348 C3351 1.387 . S
H3349 C3345 0.950 . S
H3350 C3347 0.950 . S
C3351 C3342 1.390 . S
C3351 H3344 0.950 . S
C3351 C3348 1.387 . S
C3352 C3353 1.387 . S
C3352 H3356 0.950 . S
C3352 C3361 1.390 . S
C3353 C3352 1.387 . S
C3353 C3355 1.387 . S
H3354 C3361 0.950 . S
C3355 C3353 1.387 . S
C3355 C3357 1.390 . S
C3355 H3359 0.950 . S
H3356 C3352 0.950 . S
C3357 C3355 1.390 . S
C3357 C3358 1.387 . S
C3357 H3360 0.950 . S
C3358 C3357 1.387 . S
C3358 C3361 1.387 . S
H3359 C3355 0.950 . S
H3360 C3357 0.950 . S
C3361 C3352 1.390 . S
C3361 H3354 0.950 . S
C3361 C3358 1.387 . S
C3362 C3363 1.387 . S
C3362 H3366 0.950 . S
C3362 C3371 1.390 . S
C3363 C3362 1.387 . S
C3363 C3365 1.387 1_554 S
H3364 C3371 0.950 . S
C3365 C3363 1.387 1_556 S
C3365 C3367 1.390 . S
C3365 H3369 0.950 . S
H3366 C3362 0.950 . S
C3367 C3365 1.390 . S
C3367 C3368 1.387 . S
C3367 H3370 0.950 . S
C3368 C3367 1.387 . S
C3368 C3371 1.387 1_556 S
H3369 C3365 0.950 . S
H3370 C3367 0.950 . S
C3371 C3362 1.390 . S
C3371 H3364 0.950 . S
C3371 C3368 1.387 1_554 S
C3372 C3373 1.387 . S
C3372 H3376 0.950 . S
C3372 C3381 1.390 . S
C3373 C3372 1.387 . S
C3373 C3375 1.387 . S
H3374 C3381 0.950 . S
C3375 C3373 1.387 . S
C3375 C3377 1.390 . S
C3375 H3379 0.950 . S
H3376 C3372 0.950 . S
C3377 C3375 1.390 . S
C3377 C3378 1.387 . S
C3377 H3380 0.950 . S
C3378 C3377 1.387 . S
C3378 C3381 1.387 . S
H3379 C3375 0.950 . S
H3380 C3377 0.950 . S
C3381 C3372 1.390 . S
C3381 H3374 0.950 . S
C3381 C3378 1.387 . S
C3382 C3383 1.387 . S
C3382 H3386 0.950 . S
C3382 C3391 1.390 . S
C3383 C3382 1.387 . S
C3383 C3385 1.387 . S
H3384 C3391 0.950 . S
C3385 C3383 1.387 . S
C3385 C3387 1.390 . S
C3385 H3389 0.950 . S
H3386 C3382 0.950 . S
C3387 C3385 1.390 . S
C3387 C3388 1.387 . S
C3387 H3390 0.950 . S
C3388 C3387 1.387 . S
C3388 C3391 1.387 . S
H3389 C3385 0.950 . S
H3390 C3387 0.950 . S
C3391 C3382 1.390 . S
C3391 H3384 0.950 . S
C3391 C3388 1.387 . S
C2433 C665 1.560 . S
C2438 C2130 1.576 . S
C2443 C381 1.573 . S
C2448 C2141 1.571 . S
C2453 C460 1.047 . S
C2458 C2170 1.066 . S
C2468 C2173 1.423 . S
C2463 C585 1.446 . S
C2473 C108 1.584 . S
C2478 C2211 1.517 . S
C2488 C2214 1.083 . S
C2483 C196 1.048 . S
C2498 C2241 1.468 . S
C2493 C313 1.480 . S
C2503 C49 1.621 . S
C2508 C2270 1.586 . S
C2518 C2121 1.511 1_655 S
C2513 C1457 1.524 . S
C2523 C1545 0.956 . S
C2528 C2133 0.932 . S
C2538 C2161 1.575 . S
C2533 C1721 1.591 . S
C2548 C2190 1.372 . S
C2543 C1113 1.296 . S
C2553 C1428 1.141 . S
C2558 C2194 1.196 . S
C2568 C2220 1.617 . S
C2563 C1516 1.633 . S
C2578 C2233 0.841 . S
C2573 C1692 0.853 . S
C2588 C2261 1.625 . S
C2583 C1085 1.643 . S
C2598 C2113 1.486 1_565 S
C2593 C988 1.521 . S
C2603 C1817 1.714 . S
C2608 C2280 1.682 1_554 S
C2618 C2311 1.474 . S
C2613 C2081 1.562 . S
C2628 C2330 1.043 . S
C2623 C1993 1.015 . S
C2633 C761 1.369 . S
C2638 C2253 1.337 . S
C2643 C821 1.478 . S
C2648 C2153 1.454 . S
C2653 C2053 1.622 . S
C2658 C2341 1.598 . S
C2668 C2370 0.894 . S
C2663 C1868 0.899 . S
C2678 C2131 1.563 . S
C2673 C372 1.560 . S
C2688 C2360 1.569 . S
C2683 C645 1.569 . S
C2693 C577 1.046 . S
C2698 C2171 1.061 . S
C2703 C497 1.444 . S
C2708 C2334 1.421 . S
C2718 C2210 1.516 . S
C2713 C57 1.583 . S
C2723 C293 1.045 . S
C2728 C2293 1.077 . S
C2738 C2240 1.468 1_556 S
C2733 C205 1.476 . S
C2748 C2391 1.580 . S
C2743 C145 1.621 . S
C2758 C2120 1.511 . S
C2753 C909 1.521 . S
C2768 C2354 0.929 . S
C2763 C1956 0.955 . S
C2773 C724 1.587 . S
C2778 C2160 1.573 . S
C2783 C1780 1.292 . S
C2788 C2351 1.365 . S
C2793 C937 1.139 . S
C2798 C2193 1.187 . S
C2808 C2301 1.614 . S
C2803 C1985 1.630 . S
C2813 C753 0.847 . S
C2818 C2234 0.838 . S
C2823 C1809 1.641 . S
C2828 C2380 1.623 . S
C2833 C1173 1.520 . S
C2838 C2114 1.483 . S
C2843 C1105 1.706 . S
C2848 C2281 1.680 . S
C2853 C1633 1.561 . S
C2858 C2230 1.469 . S
C2863 C1553 1.012 . S
C2868 C2331 1.037 . S
C2878 C2374 1.337 . S
C2873 C1729 1.372 . S
C2883 C1340 1.479 . S
C2888 C2154 1.451 . S
C2898 C2180 1.593 . S
C2893 C1604 1.615 . S
C2908 C2151 0.889 . S
C2903 C1252 0.896 . S
C2913 C489 1.558 . S
C2918 C2410 1.567 . S
C2928 C2361 1.570 . S
C2923 C557 1.573 . S
C2933 C636 1.048 . S
C2938 C2430 1.066 . S
C2943 C409 1.446 . S
C2948 C2333 1.423 . S
C2953 C284 1.584 . S
C2958 C2291 1.519 . S
C2968 C2294 1.081 . S
C2963 C20 1.044 . S
C2978 C2321 1.469 . S
C2973 C137 1.480 . S
C2988 C2390 1.584 . S
C2983 C225 1.622 . S
C2998 C2401 1.513 . S
C2993 C1641 1.525 . S
C3003 C1193 0.955 . S
C3008 C2353 0.932 . S
C3018 C2421 1.577 . S
C3013 C1289 1.593 . S
C3028 C2350 1.372 . S
C3023 C1377 1.296 . S
C3038 C2274 1.195 . S
C3033 C1613 1.139 . S
C3043 C1164 1.633 . S
C3048 C2300 1.616 . S
C3058 C2313 0.839 . S
C3053 C1261 0.851 . S
C3063 C1349 1.643 . S
C3068 C2381 1.624 . S
C3078 C2393 1.485 . S
C3073 C1965 1.520 . S
C3083 C849 1.709 . S
C3088 C2200 1.682 . S
C3098 C2231 1.472 . S
C3093 C929 1.565 . S
C3108 C2250 1.044 . S
C3103 C1017 1.016 . S
C3118 C2373 1.339 . S
C3113 C1897 1.371 . S
C3123 C1789 1.478 . S
C3128 C2413 1.454 . S
C3138 C2181 1.595 . S
C3133 C900 1.615 . S
C3148 C2150 0.894 . S
C3143 C733 0.899 . S
C3153 C548 1.559 . S
C3158 C2411 1.564 . S
C3168 C2140 1.570 . S
C3163 C469 1.569 . S
C3173 C401 1.045 . S
C3178 C2431 1.060 . S
C3183 C673 1.445 . S
C3188 C2174 1.422 . S
C3193 C233 1.583 . S
C3198 C2290 1.517 . S
C3208 C2213 1.077 . S
C3203 C117 1.044 . S
C3213 C29 1.475 . S
C3218 C2320 1.466 . S
C3223 C321 1.621 . S
C3228 C2271 1.581 . S
C3238 C2400 1.509 . S
C3233 C2044 1.520 . S
C3243 C997 0.955 . S
C3248 C2134 0.929 . S
C3258 C2420 1.573 1_655 S
C3253 C1877 1.587 . S
C3263 C812 1.292 . S
C3268 C2191 1.365 . S
C3273 C2073 1.140 . S
C3278 C2273 1.190 . S
C3288 C2221 1.613 . S
C3283 C1025 1.629 . S
C3293 C1905 0.845 . S
C3298 C2314 0.831 . S
C3308 C2260 1.621 . S
C3303 C841 1.639 . S
C3318 C2394 1.484 . S
C3313 C1525 1.520 . S
C3328 C2201 1.679 1_565 S
C3323 C1369 1.706 . S
C3333 C1465 1.562 . S
C3338 C2310 1.471 . S
C3348 C2251 1.036 . S
C3343 C1201 1.011 . S
C3353 C1281 1.372 . S
C3358 C2254 1.338 . S
C3363 C1076 1.480 . S
C3368 C2414 1.452 . S
C3378 C2340 1.595 . S
C3373 C1437 1.617 . S
C3388 C2371 0.889 . S
C3383 C1701 0.895 . S
