# Generated by pormake.
# Topology zzz, (3,6)-cn, num edge types: 1
# Building blocks:
#     Node 0, Type 0, BuildingBlock: OLANEW_clean_sbu_2, # of connection points: 3
#     Node 1, Type 0, BuildingBlock: OLANEW_clean_sbu_2, # of connection points: 3
#     Node 2, Type 0, BuildingBlock: OLANEW_clean_sbu_2, # of connection points: 3
#     Node 3, Type 0, BuildingBlock: OLANEW_clean_sbu_2, # of connection points: 3
#     Node 4, Type 0, BuildingBlock: OLANEW_clean_sbu_2, # of connection points: 3
#     Node 5, Type 0, BuildingBlock: OLANEW_clean_sbu_2, # of connection points: 3
#     Node 6, Type 0, BuildingBlock: OLANEW_clean_sbu_2, # of connection points: 3
#     Node 7, Type 0, BuildingBlock: OLANEW_clean_sbu_2, # of connection points: 3
#     Node 8, Type 1, BuildingBlock: NUHQIS_clean_sbu_0, # of connection points: 6
#     Node 9, Type 1, BuildingBlock: NUHQIS_clean_sbu_0, # of connection points: 6
#     Node 10, Type 1, BuildingBlock: NUHQIS_clean_sbu_0, # of connection points: 6
#     Node 11, Type 1, BuildingBlock: NUHQIS_clean_sbu_0, # of connection points: 6
#     Edge 12, Type (0, 1), BuildingBlock: KIFKEQ_clean_linker_1, # of connection points: 2
#     Edge 13, Type (0, 1), BuildingBlock: KIFKEQ_clean_linker_1, # of connection points: 2
#     Edge 14, Type (0, 1), BuildingBlock: KIFKEQ_clean_linker_1, # of connection points: 2
#     Edge 15, Type (0, 1), BuildingBlock: KIFKEQ_clean_linker_1, # of connection points: 2
#     Edge 16, Type (0, 1), BuildingBlock: KIFKEQ_clean_linker_1, # of connection points: 2
#     Edge 17, Type (0, 1), BuildingBlock: KIFKEQ_clean_linker_1, # of connection points: 2
#     Edge 18, Type (0, 1), BuildingBlock: KIFKEQ_clean_linker_1, # of connection points: 2
#     Edge 19, Type (0, 1), BuildingBlock: KIFKEQ_clean_linker_1, # of connection points: 2
#     Edge 20, Type (0, 1), BuildingBlock: KIFKEQ_clean_linker_1, # of connection points: 2
#     Edge 21, Type (0, 1), BuildingBlock: KIFKEQ_clean_linker_1, # of connection points: 2
#     Edge 22, Type (0, 1), BuildingBlock: KIFKEQ_clean_linker_1, # of connection points: 2
#     Edge 23, Type (0, 1), BuildingBlock: KIFKEQ_clean_linker_1, # of connection points: 2
#     Edge 24, Type (0, 1), BuildingBlock: KIFKEQ_clean_linker_1, # of connection points: 2
#     Edge 25, Type (0, 1), BuildingBlock: KIFKEQ_clean_linker_1, # of connection points: 2
#     Edge 26, Type (0, 1), BuildingBlock: KIFKEQ_clean_linker_1, # of connection points: 2
#     Edge 27, Type (0, 1), BuildingBlock: KIFKEQ_clean_linker_1, # of connection points: 2
#     Edge 28, Type (0, 1), BuildingBlock: KIFKEQ_clean_linker_1, # of connection points: 2
#     Edge 29, Type (0, 1), BuildingBlock: KIFKEQ_clean_linker_1, # of connection points: 2
#     Edge 30, Type (0, 1), BuildingBlock: KIFKEQ_clean_linker_1, # of connection points: 2
#     Edge 31, Type (0, 1), BuildingBlock: KIFKEQ_clean_linker_1, # of connection points: 2
#     Edge 32, Type (0, 1), BuildingBlock: KIFKEQ_clean_linker_1, # of connection points: 2
#     Edge 33, Type (0, 1), BuildingBlock: KIFKEQ_clean_linker_1, # of connection points: 2
#     Edge 34, Type (0, 1), BuildingBlock: KIFKEQ_clean_linker_1, # of connection points: 2
#     Edge 35, Type (0, 1), BuildingBlock: KIFKEQ_clean_linker_1, # of connection points: 2
# Relax obj value: 0.224
# Max RMSD: 0.157
# Mean RMSD: 0.147
data_MOF--net-zzz--node1-OLANEW_clean_sbu_2--node2-NUHQIS_clean_sbu_0--edge1-KIFKEQ_clean_linker_1
_symmetry_space_group_name_H-M    P1
_symmetry_Int_Tables_number       1
_symmetry_cell_setting            triclinic
loop_
_symmetry_equiv_pos_as_xyz
'x, y, z'
_cell_length_a     56.937278
_cell_length_b     56.873303
_cell_length_c     16.255935
_cell_angle_alpha  89.594497
_cell_angle_beta   89.645305
_cell_angle_gamma 90.018241
loop_
_atom_site_label
_atom_site_type_symbol
_atom_site_fract_x
_atom_site_fract_y
_atom_site_fract_z
_atom_type_partial_charge
O0 O 0.7267 0.52212 0.1756 0.0
Cd1 Cd 0.69233 0.53806 0.24626 0.0
O2 O 0.73595 0.51275 0.30139 0.0
Cd3 Cd 0.76063 0.50392 0.39729 0.0
O4 O 0.79179 0.50845 0.47035 0.0
C5 C 0.80945 0.51765 0.43452 0.0
O6 O 0.80803 0.52321 0.35611 0.0
C7 C 0.74125 0.51306 0.22534 0.0
C8 C 0.65179 0.53296 0.15474 0.0
O9 O 0.66429 0.55165 0.1488 0.0
O10 O 0.65849 0.51672 0.20437 0.0
O11 O 0.9562 0.74291 0.22699 0.0
Cd12 Cd 0.9435 0.70797 0.30283 0.0
O13 O 0.9902 0.7377 0.28681 0.0
Cd14 Cd 0.0227 0.75375 0.32808 0.0
O15 O 0.02688 0.79021 0.36369 0.0
C16 C 0.00783 0.79953 0.38843 0.0
O17 O 0.98887 0.78643 0.39371 0.0
C18 C 0.97715 0.74965 0.23897 0.0
C19 C 0.95676 0.66728 0.22126 0.0
O20 O 0.93655 0.67663 0.20966 0.0
O21 O 0.97071 0.67715 0.27207 0.0
O22 O 0.76961 0.96733 0.24198 0.0
Cd23 Cd 0.80714 0.95782 0.30563 0.0
O24 O 0.76475 0.99232 0.3424 0.0
Cd25 Cd 0.74162 0.01361 0.41837 0.0
O26 O 0.70566 0.0157 0.46185 0.0
C27 C 0.70021 0.01958 0.5363 0.0
O28 O 0.71686 0.02411 0.58949 0.0
C29 C 0.75698 0.98258 0.27781 0.0
C30 C 0.84457 0.96543 0.19828 0.0
O31 O 0.83433 0.94538 0.20243 0.0
O32 O 0.83708 0.98188 0.24516 0.0
O33 O 0.55071 0.74239 0.21421 0.0
Cd34 Cd 0.56827 0.77823 0.26778 0.0
O35 O 0.52941 0.7402 0.32581 0.0
Cd36 Cd 0.5048 0.72915 0.42206 0.0
O37 O 0.48518 0.73186 0.54437 0.0
C38 C 0.48531 0.71599 0.60057 0.0
O39 O 0.48463 0.73268 0.54525 0.0
C40 C 0.53492 0.73184 0.2559 0.0
C41 C 0.5508 0.81726 0.18359 0.0
O42 O 0.56919 0.80647 0.1582 0.0
O43 O 0.54078 0.80973 0.24952 0.0
O44 O 0.25895 0.553 0.07032 0.0
Cd45 Cd 0.29608 0.54966 -0.00331 0.0
O46 O 0.26384 0.51552 0.0966 0.0
Cd47 Cd 0.2501 0.48085 0.12926 0.0
O48 O 0.2181 0.46421 0.08749 0.0
C49 C 0.2128 0.47139 0.01582 0.0
O50 O 0.2274 0.48569 0.9774 0.0
C51 C 0.25153 0.5341 0.10349 0.0
C52 C 0.33015 0.53606 0.10861 0.0
O53 O 0.32739 0.55775 0.08894 0.0
O54 O 0.31715 0.52072 0.07377 0.0
O55 O 0.96385 0.2745 0.12304 0.0
Cd56 Cd 0.96978 0.31377 0.06647 0.0
O57 O 0.00161 0.27001 0.1019 0.0
Cd58 Cd 0.03216 0.24712 0.09102 0.0
O59 O 0.04338 0.21187 0.05874 0.0
C60 C 0.05009 0.20791 0.98553 0.0
O61 O 0.05212 0.22566 0.93379 0.0
C62 C 0.98211 0.26177 0.12776 0.0
C63 C 0.97872 0.34479 0.19378 0.0
O64 O 0.95796 0.34243 0.1649 0.0
O65 O 0.99534 0.33268 0.1616 0.0
O66 O 0.2417 0.96839 0.08682 0.0
Cd67 Cd 0.20217 0.96927 0.03095 0.0
O68 O 0.24822 0.00382 0.03851 0.0
Cd69 Cd 0.2656 0.03801 0.02716 0.0
O70 O 0.27252 0.07732 0.00801 0.0
C71 C 0.29189 0.08801 0.99211 0.0
O72 O 0.27191 0.07778 0.00822 0.0
C73 C 0.2551 0.98617 0.08035 0.0
C74 C 0.17176 0.98125 0.15902 0.0
O75 O 0.17721 0.95976 0.14527 0.0
O76 O 0.18023 0.99708 0.1108 0.0
O77 O 0.54673 0.22339 0.16047 0.0
Cd78 Cd 0.54846 0.18242 0.11844 0.0
O79 O 0.51499 0.22969 0.08769 0.0
Cd80 Cd 0.48975 0.25375 0.03188 0.0
O81 O 0.47628 0.28536 0.97231 0.0
C82 C 0.48855 0.30373 0.98269 0.0
O83 O 0.50778 0.30226 0.0266 0.0
C84 C 0.53061 0.2372 0.13655 0.0
C85 C 0.5329 0.15406 0.24761 0.0
O86 O 0.554 0.16187 0.24496 0.0
O87 O 0.51911 0.1593 0.18823 0.0
Tb88 Tb 0.03224 0.99071 0.772 0.0
Eu89 Eu 0.99745 0.01575 0.63387 0.0
C90 C 0.05379 0.00979 0.60592 0.0
C91 C 0.02772 0.04607 0.75808 0.0
C92 C 0.04768 0.9478 0.93265 0.0
C93 C 0.05781 0.90846 0.98014 0.0
C94 C 0.06409 0.92957 0.94095 0.0
C95 C 0.025 0.94477 0.96586 0.0
C96 C 0.01875 0.92375 0.00524 0.0
C97 C 0.03498 0.90523 0.01198 0.0
C98 C 0.0538 0.96917 0.88489 0.0
O99 O 0.99635 0.98007 0.79912 0.0
O100 O 0.97814 0.01327 0.75434 0.0
O101 O 0.99178 0.97667 0.62406 0.0
O102 O 0.02778 0.96571 0.6736 0.0
C103 C 0.9786 0.99466 0.802 0.0
O104 O 0.96908 0.04024 0.60666 0.0
O105 O 0.98412 0.01941 0.50871 0.0
O106 O 0.03271 0.01125 0.57352 0.0
O107 O 0.05727 0.00596 0.68503 0.0
O108 O 0.02912 0.02752 0.8065 0.0
O109 O 0.01998 0.04468 0.68248 0.0
C110 C 0.00879 0.96121 0.63128 0.0
O111 O 0.05802 0.96606 0.80688 0.0
O112 O 0.04064 0.98758 0.89713 0.0
C113 C 0.97159 0.05779 0.47606 0.0
C114 C 0.97355 0.0999 0.38384 0.0
C115 C 0.95354 0.08539 0.38112 0.0
C116 C 0.95259 0.0645 0.42694 0.0
C117 C 0.99174 0.07196 0.47812 0.0
C118 C 0.99272 0.09283 0.43237 0.0
C119 C 0.96995 0.03658 0.52762 0.0
H120 H 0.07079 0.89462 0.98508 0.0
H121 H 0.08165 0.93149 0.9157 0.0
H122 H 0.01189 0.95845 0.95997 0.0
H123 H 1.00094 0.92175 0.02804 0.0
H124 H 0.9386 0.09019 0.34366 0.0
H125 H 0.93691 0.05372 0.42477 0.0
H126 H 0.00653 0.06706 0.51622 0.0
H127 H 0.00825 0.10374 0.43678 0.0
Tb128 Tb 0.50256 0.01445 0.86943 0.0
Eu129 Eu 0.47853 0.98774 0.71027 0.0
C130 C 0.49004 0.0416 0.70438 0.0
C131 C 0.44777 0.0148 0.84757 0.0
C132 C 0.54627 0.02666 0.02823 0.0
C133 C 0.58133 0.03832 0.10184 0.0
C134 C 0.55908 0.04367 0.07079 0.0
C135 C 0.55576 0.00408 0.01823 0.0
C136 C 0.57795 0.9987 0.04935 0.0
C137 C 0.59118 0.01585 0.09054 0.0
C138 C 0.52416 0.03309 0.98767 0.0
O139 O 0.49185 0.97956 0.9109 0.0
O140 O 0.49472 0.95969 0.78954 0.0
O141 O 0.51655 0.99491 0.68089 0.0
O142 O 0.53029 0.99397 0.81257 0.0
C143 C 0.49484 0.95993 0.87017 0.0
O144 O 0.45473 0.9616 0.6593 0.0
O145 O 0.47684 0.98242 0.57786 0.0
O146 O 0.47343 0.02636 0.68881 0.0
O147 O 0.50542 0.03786 0.76304 0.0
O148 O 0.46645 0.02658 0.87069 0.0
O149 O 0.44908 0.99666 0.79795 0.0
C150 C 0.53403 0.99365 0.73295 0.0
O151 O 0.52645 0.03973 0.91135 0.0
O152 O 0.5067 0.01848 -0.00289 0.0
C153 C 0.43969 0.97181 0.52922 0.0
C154 C 0.40149 0.98048 0.42409 0.0
C155 C 0.41726 0.96202 0.40781 0.0
C156 C 0.43621 0.95773 0.46006 0.0
C157 C 0.42422 0.99042 0.54538 0.0
C158 C 0.40524 0.99471 0.49327 0.0
C159 C 0.45972 0.96726 0.58319 0.0
H160 H 0.59113 0.05203 0.13225 0.0
H161 H 0.55214 0.06128 0.07807 0.0
H162 H 0.5462 0.99075 0.98485 0.0
H163 H 0.58482 0.98113 0.04054 0.0
H164 H 0.41467 0.95056 0.35572 0.0
H165 H 0.44807 0.94334 0.44671 0.0
H166 H 0.42684 1.00159 0.5983 0.0
H167 H 0.39356 0.0092 0.50696 0.0
Tb168 Tb 0.46621 0.51491 0.71138 0.0
Eu169 Eu 0.50465 0.4898 0.5867 0.0
C170 C 0.45058 0.49885 0.53822 0.0
C171 C 0.47195 0.45976 0.70525 0.0
C172 C 0.44644 0.55835 0.85855 0.0
C173 C 0.44034 0.58428 0.97499 0.0
C174 C 0.43354 0.56475 0.92862 0.0
C175 C 0.46611 0.57171 0.83509 0.0
C176 C 0.47291 0.5911 0.88116 0.0
C177 C 0.46018 0.59764 0.95187 0.0
C178 C 0.44088 0.53679 0.81323 0.0
O179 O 0.50101 0.52381 0.75568 0.0
O180 O 0.52 0.49073 0.71332 0.0
O181 O 0.51389 0.5284 0.589 0.0
O182 O 0.47643 0.54064 0.61854 0.0
C183 C 0.51825 0.50869 0.7629 0.0
O184 O 0.53375 0.46547 0.56819 0.0
O185 O 0.51993 0.4849 0.46441 0.0
O186 O 0.47264 0.49935 0.51419 0.0
O187 O 0.44466 0.49907 0.61661 0.0
O188 O 0.46932 0.4785 0.75117 0.0
O189 O 0.48026 0.46122 0.62998 0.0
C190 C 0.49771 0.54483 0.59072 0.0
O191 O 0.43906 0.53916 0.73369 0.0
O192 O 0.45381 0.51874 0.83255 0.0
C193 C 0.53298 0.44611 0.44157 0.0
C194 C 0.53216 0.40217 0.36247 0.0
C195 C 0.55331 0.41477 0.36992 0.0
C196 C 0.55369 0.43657 0.40915 0.0
C197 C 0.51175 0.43384 0.43319 0.0
C198 C 0.51132 0.41208 0.39365 0.0
C199 C 0.53388 0.46806 0.4885 0.0
H200 H 0.43008 0.58891 0.02881 0.0
H201 H 0.41845 0.55447 0.94807 0.0
H202 H 0.47654 0.56684 0.78187 0.0
H203 H 0.48856 0.60061 0.86241 0.0
H204 H 0.5696 0.40771 0.34577 0.0
H205 H 0.57023 0.44579 0.41541 0.0
H206 H 0.49561 0.44087 0.4587 0.0
H207 H 0.49481 0.40269 0.38978 0.0
Tb208 Tb 0.99406 0.47517 0.82719 0.0
Eu209 Eu 0.02013 0.51319 0.70103 0.0
C210 C 0.00719 0.46032 0.64848 0.0
C211 C 0.0488 0.47694 0.80997 0.0
C212 C 0.9474 0.45439 0.96097 0.0
C213 C 0.91484 0.44428 0.05199 0.0
C214 C 0.93745 0.43965 0.02128 0.0
C215 C 0.93465 0.47386 0.93233 0.0
C216 C 0.9121 0.47835 0.96218 0.0
C217 C 0.90186 0.46358 0.02207 0.0
C218 C 0.97101 0.44995 0.9272 0.0
O219 O 0.98606 0.51015 0.87172 0.0
O220 O 0.01899 0.52928 0.82691 0.0
O221 O 0.98211 0.52376 0.70312 0.0
O222 O 0.96759 0.4876 0.74198 0.0
C223 C 1.00095 0.52763 0.87702 0.0
O224 O 0.048 0.53875 0.67918 0.0
O225 O 0.02342 0.531 0.58184 0.0
O226 O 0.00803 0.48256 0.62641 0.0
O227 O 0.00732 0.45376 0.72632 0.0
O228 O 0.03093 0.47601 0.86143 0.0
O229 O 0.04662 0.48577 0.73572 0.0
C230 C 0.96468 0.50875 0.71067 0.0
O231 O 0.9718 0.44623 0.84819 0.0
O232 O 0.9871 0.46488 0.94946 0.0
C233 C 0.06247 0.53962 0.54308 0.0
C234 C 0.10078 0.53686 0.4326 0.0
C235 C 0.08357 0.55444 0.42327 0.0
C236 C 0.06462 0.55581 0.47815 0.0
C237 C 0.07927 0.52174 0.55179 0.0
C238 C 0.09829 0.52043 0.49727 0.0
C239 C 0.04283 0.54167 0.60169 0.0
H240 H 0.90736 0.43258 0.09802 0.0
H241 H 0.9471 0.4246 0.04436 0.0
H242 H 0.94216 0.48565 0.88667 0.0
H243 H 0.90276 0.49358 0.93896 0.0
H244 H 0.08471 0.56714 0.37346 0.0
H245 H 0.05169 0.56961 0.47018 0.0
H246 H 0.07785 0.50899 0.60142 0.0
H247 H 0.11133 0.50685 0.50705 0.0
H248 H 0.15581 0.95246 0.2823 0.0
H249 H 0.15312 0.02435 0.19491 0.0
H250 H 0.13 0.9626 0.39684 0.0
H251 H 0.12731 0.03448 0.31 0.0
H252 H 0.0554 0.02905 0.45227 0.0
H253 H 0.08608 0.02423 0.34883 0.0
H254 H 0.1286 0.98677 0.52548 0.0
H255 H 0.09773 0.99148 0.62945 0.0
C256 C 0.14979 0.97045 0.2877 0.0
C257 C 0.15639 0.98756 0.22919 0.0
C258 C 0.1352 0.9763 0.35382 0.0
C259 C 0.12673 0.99936 0.36257 0.0
C260 C 0.1335 0.01654 0.30457 0.0
C261 C 0.14828 0.01073 0.23876 0.0
C262 C 0.07145 0.02013 0.46956 0.0
C263 C 0.07408 0.01047 0.54882 0.0
C264 C 0.08908 0.01748 0.41035 0.0
C265 C 0.10963 0.00493 0.42886 0.0
C266 C 0.11279 0.99629 0.50932 0.0
C267 C 0.09523 0.99917 0.56898 0.0
H268 H 0.54943 0.15453 0.40377 0.0
H269 H 0.49793 0.12119 0.24965 0.0
H270 H 0.53677 0.13041 0.51978 0.0
H271 H 0.4862 0.09576 0.36411 0.0
H272 H 0.45891 0.06189 0.59724 0.0
H273 H 0.4675 0.09134 0.49116 0.0
H274 H 0.54009 0.0926 0.5684 0.0
H275 H 0.53113 0.06453 0.67641 0.0
C276 C 0.53552 0.14182 0.39468 0.0
C277 C 0.52477 0.13957 0.31775 0.0
C278 C 0.52832 0.12785 0.46107 0.0
C279 C 0.51061 0.11081 0.4516 0.0
C280 C 0.49962 0.10887 0.3745 0.0
C281 C 0.50647 0.12329 0.30853 0.0
C282 C 0.47657 0.06887 0.59218 0.0
C283 C 0.49428 0.06105 0.6455 0.0
C284 C 0.48159 0.08557 0.53085 0.0
C285 C 0.50455 0.09442 0.52057 0.0
C286 C 0.52209 0.08674 0.57514 0.0
C287 C 0.51696 0.07049 0.63723 0.0
H288 H 0.33133 0.49533 0.19848 0.0
H289 H 0.36802 0.56106 0.1598 0.0
H290 H 0.35989 0.48421 0.30417 0.0
H291 H 0.39664 0.54972 0.2641 0.0
H292 H 0.45717 0.50753 0.37502 0.0
H293 H 0.4275 0.51511 0.27151 0.0
H294 H 0.37283 0.50221 0.45116 0.0
H295 H 0.40265 0.49485 0.55663 0.0
C296 C 0.34555 0.50731 0.21223 0.0
C297 C 0.34755 0.52903 0.17087 0.0
C298 C 0.36172 0.50101 0.2729 0.0
C299 C 0.38037 0.51612 0.29178 0.0
C300 C 0.38244 0.53774 0.2501 0.0
C301 C 0.36606 0.54423 0.19069 0.0
C302 C 0.43886 0.50602 0.39281 0.0
C303 C 0.43227 0.50073 0.47444 0.0
C304 C 0.42191 0.51048 0.33339 0.0
C305 C 0.398 0.50942 0.3538 0.0
C306 C 0.39124 0.50309 0.43421 0.0
C307 C 0.40827 0.49894 0.49438 0.0
H308 H 0.01738 0.34626 0.29248 0.0
H309 H 0.95038 0.3798 0.25029 0.0
H310 H 0.02494 0.37339 0.40562 0.0
H311 H 0.95811 0.40695 0.36255 0.0
H312 H 0.99557 0.46832 0.48887 0.0
H313 H 0.9891 0.43963 0.3814 0.0
H314 H 0.00624 0.38347 0.55054 0.0
H315 H 0.0126 0.41233 0.65976 0.0
C316 C 0.0043 0.35941 0.30732 0.0
C317 C 0.98332 0.36098 0.2624 0.0
C318 C 0.00858 0.37478 0.37231 0.0
C319 C 0.99212 0.39222 0.39246 0.0
C320 C 0.97114 0.39373 0.34777 0.0
C321 C 0.9667 0.37816 0.28375 0.0
C322 C 0.99813 0.44989 0.50349 0.0
C323 C 0.00458 0.4426 0.58306 0.0
C324 C 0.99426 0.43347 0.44189 0.0
C325 C 0.99702 0.40939 0.45799 0.0
C326 C 0.00405 0.402 0.53676 0.0
C327 C 0.00761 0.41847 0.59913 0.0
H328 H 0.86482 0.93394 0.0934 0.0
H329 H 0.86913 0.00616 0.17307 0.0
H330 H 0.89712 0.94085 -0.00296 0.0
H331 H 0.90166 0.01292 0.07763 0.0
H332 H 0.94081 0.02287 0.83332 0.0
H333 H 0.90849 0.01554 0.92891 0.0
H334 H 0.93945 0.94889 -0.00311 0.0
H335 H 0.97153 0.95592 0.89984 0.0
C336 C 0.87271 0.95126 0.09059 0.0
C337 C 0.86439 0.96952 0.14074 0.0
C338 C 0.8913 0.95517 0.0357 0.0
C339 C 0.90192 0.97743 0.02968 0.0
C340 C 0.89364 0.99566 0.08009 0.0
C341 C 0.87508 0.99174 0.13509 0.0
C342 C 0.94071 0.00661 0.86842 0.0
C343 C 0.95881 0.99002 0.85915 0.0
C344 C 0.92227 0.0025 0.92364 0.0
C345 C 0.92147 0.98169 0.97069 0.0
C346 C 0.93947 0.965 0.96097 0.0
C347 C 0.95794 0.96912 0.90579 0.0
H348 H 0.51314 0.84482 0.22438 0.0
H349 H 0.56701 0.83587 0.03875 0.0
H350 H 0.49758 0.87843 0.14797 0.0
H351 H 0.55164 0.86958 0.96317 0.0
H352 H 0.50491 0.91649 0.80782 0.0
H353 H 0.51696 0.8814 0.88352 0.0
H354 H 0.50955 0.91891 0.11234 0.0
H355 H 0.49722 0.95391 0.03703 0.0
C356 C 0.52168 0.85003 0.16738 0.0
C357 C 0.54134 0.83769 0.13768 0.0
C358 C 0.51281 0.86933 0.1238 0.0
C359 C 0.52334 0.87662 0.04944 0.0
C360 C 0.54292 0.8642 0.01964 0.0
C361 C 0.55184 0.84498 0.06331 0.0
C362 C 0.50561 0.91721 0.87432 0.0
C363 C 0.50015 0.93805 0.91629 0.0
C364 C 0.51267 0.89714 0.91763 0.0
C365 C 0.51436 0.89744 0.00385 0.0
C366 C 0.50823 0.91805 0.04599 0.0
C367 C 0.50124 0.93815 0.0027 0.0
H368 H 0.63175 0.56509 0.05115 0.0
H369 H 0.62383 0.4941 0.14413 0.0
H370 H 0.59805 0.55934 0.9616 0.0
H371 H 0.58999 0.4885 0.05506 0.0
H372 H 0.55395 0.47898 0.80381 0.0
H373 H 0.58478 0.48526 0.90421 0.0
H374 H 0.55472 0.55269 0.96529 0.0
H375 H 0.52383 0.54657 0.86398 0.0
C376 C 0.62271 0.54833 0.05296 0.0
C377 C 0.63055 0.52999 0.10423 0.0
C378 C 0.60332 0.54511 0.00208 0.0
C379 C 0.59148 0.52345 0.00118 0.0
C380 C 0.59898 0.50529 0.05383 0.0
C381 C 0.61829 0.50854 0.10502 0.0
C382 C 0.55383 0.49514 0.83869 0.0
C383 C 0.5365 0.51233 0.82564 0.0
C384 C 0.57141 0.49864 0.89667 0.0
C385 C 0.57211 0.51944 0.94261 0.0
C386 C 0.55468 0.53657 0.9302 0.0
C387 C 0.53697 0.53301 0.87245 0.0
H388 H 0.92958 0.64024 0.12204 0.0
H389 H 0.99988 0.64602 0.21876 0.0
H390 H 0.94129 0.60563 0.04466 0.0
H391 H 0.01154 0.61115 0.14147 0.0
H392 H 0.02711 0.5672 0.90506 0.0
H393 H 0.01701 0.6002 0.99378 0.0
H394 H 0.95348 0.56443 0.06975 0.0
H395 H 0.96334 0.53159 0.98084 0.0
C396 C 0.9475 0.63405 0.12711 0.0
C397 C 0.96381 0.64588 0.17641 0.0
C398 C 0.95417 0.61414 0.08318 0.0
C399 C 0.97731 0.60566 0.08721 0.0
C400 C 0.99363 0.61741 0.13676 0.0
C401 C 0.98691 0.63728 0.18125 0.0
C402 C 0.01108 0.5663 0.94114 0.0
C403 C 0.99594 0.54685 0.93529 0.0
C404 C 0.00537 0.58514 0.99226 0.0
C405 C 0.98437 0.58494 0.03817 0.0
C406 C 0.9696 0.56521 0.03411 0.0
C407 C 0.97534 0.54636 0.9834 0.0
H408 H 0.94586 0.23075 0.1127 0.0
H409 H 0.0143 0.23872 0.22164 0.0
H410 H 0.94339 0.19067 0.16816 0.0
H411 H 0.01208 0.19875 0.27585 0.0
H412 H 0.01021 0.11917 0.29672 0.0
H413 H 0.01191 0.15771 0.22997 0.0
H414 H 0.94001 0.17082 0.3025 0.0
H415 H 0.93831 0.13234 0.36931 0.0
C416 C 0.96042 0.22386 0.14804 0.0
C417 C 0.98056 0.23757 0.16086 0.0
C418 C 0.95901 0.20097 0.17988 0.0
C419 C 0.97768 0.19143 0.22555 0.0
C420 C 0.99767 0.20533 0.23909 0.0
C421 C 0.99902 0.22819 0.20758 0.0
C422 C 0.99478 0.1303 0.29853 0.0
C423 C 0.97416 0.12272 0.33871 0.0
C424 C 0.99575 0.15236 0.26029 0.0
C425 C 0.97613 0.16737 0.26136 0.0
C426 C 0.95533 0.15957 0.29972 0.0
C427 C 0.95436 0.1375 0.338 0.0
H428 H 0.2965 0.00854 0.04098 0.0
H429 H 0.2637 0.96419 0.22502 0.0
H430 H 0.33242 0.00979 0.12323 0.0
H431 H 0.29951 0.96482 0.3057 0.0
H432 H 0.35657 0.98995 0.47281 0.0
H433 H 0.32179 0.99351 0.38722 0.0
H434 H 0.36421 0.98216 0.16993 0.0
H435 H 0.39927 0.97924 0.25563 0.0
C436 C 0.29687 0.99937 0.09938 0.0
C437 C 0.27718 0.9867 0.12741 0.0
C438 C 0.3175 0.99979 0.14591 0.0
C439 C 0.31866 0.98763 0.22144 0.0
C440 C 0.29901 0.97474 0.24861 0.0
C441 C 0.27857 0.9742 0.202 0.0
C442 C 0.35858 0.98863 0.40671 0.0
C443 C 0.38066 0.98419 0.37105 0.0
C444 C 0.33862 0.99044 0.35774 0.0
C445 C 0.34025 0.98789 0.27197 0.0
C446 C 0.36243 0.98429 0.23584 0.0
C447 C 0.38244 0.98237 0.28496 0.0
H448 H 0.49294 0.26366 0.18327 0.0
H449 H 0.56831 0.26581 0.15569 0.0
H450 H 0.49324 0.30385 0.23572 0.0
H451 H 0.56871 0.30615 0.20588 0.0
H452 H 0.56332 0.36651 0.38862 0.0
H453 H 0.56273 0.32706 0.33168 0.0
H454 H 0.50008 0.34439 0.1953 0.0
H455 H 0.50054 0.3839 0.25348 0.0
C456 C 0.50951 0.27293 0.18704 0.0
C457 C 0.53057 0.26183 0.16441 0.0
C458 C 0.50971 0.29593 0.21714 0.0
C459 C 0.531 0.30829 0.22486 0.0
C460 C 0.55203 0.29708 0.20172 0.0
C461 C 0.55183 0.27404 0.17252 0.0
C462 C 0.54956 0.36199 0.34579 0.0
C463 C 0.53202 0.37835 0.3254 0.0
C464 C 0.54922 0.33936 0.31304 0.0
C465 C 0.53138 0.33253 0.25872 0.0
C466 C 0.51389 0.34895 0.23788 0.0
C467 C 0.51417 0.3716 0.27104 0.0
H468 H 0.23834 0.50686 0.23491 0.0
H469 H 0.21323 0.56137 0.07166 0.0
H470 H 0.20064 0.50654 0.30654 0.0
H471 H 0.17557 0.56153 0.14499 0.0
H472 H 0.12617 0.57394 0.37037 0.0
H473 H 0.16144 0.57266 0.28492 0.0
H474 H 0.15832 0.49681 0.28446 0.0
H475 H 0.12274 0.49802 0.36881 0.0
C476 C 0.22455 0.51831 0.21285 0.0
C477 C 0.22852 0.53366 0.14616 0.0
C478 C 0.203 0.51828 0.25438 0.0
C479 C 0.18508 0.53389 0.23103 0.0
C480 C 0.18909 0.54937 0.16461 0.0
C481 C 0.21061 0.54926 0.12264 0.0
C482 C 0.13271 0.55698 0.35088 0.0
C483 C 0.12161 0.53608 0.37685 0.0
C484 C 0.15296 0.55626 0.30197 0.0
C485 C 0.16269 0.53463 0.27826 0.0
C486 C 0.1514 0.51373 0.30279 0.0
C487 C 0.13106 0.51444 0.3513 0.0
H488 H 0.95265 0.79049 0.22026 0.0
H489 H 0.02065 0.75934 0.17709 0.0
H490 H 0.96732 0.82824 0.16809 0.0
H491 H 0.03559 0.79711 0.12733 0.0
H492 H 0.04493 0.86115 0.9557 0.0
H493 H 0.03117 0.8236 0.0106 0.0
H494 H 0.99463 0.85975 0.20605 0.0
H495 H 0.00831 0.89742 0.15065 0.0
C496 C 0.97072 0.79175 0.19946 0.0
C497 C 0.98563 0.77213 0.20366 0.0
C498 C 0.97921 0.8134 0.17054 0.0
C499 C 0.00269 0.81575 0.14413 0.0
C500 C 0.0174 0.79591 0.14683 0.0
C501 C 0.00893 0.77434 0.17604 0.0
C502 C 0.03423 0.86109 0.01103 0.0
C503 C 0.0277 0.8823 0.0487 0.0
C504 C 0.02631 0.83955 0.04248 0.0
C505 C 0.01169 0.83867 0.11247 0.0
C506 C 0.0055 0.85985 0.15111 0.0
C507 C 0.01338 0.88141 0.11951 0.0
H508 H 0.72655 0.95208 0.20615 0.0
H509 H 0.73354 0.02454 0.27919 0.0
H510 H 0.68631 0.95978 0.16185 0.0
H511 H 0.69319 0.03216 0.23669 0.0
H512 H 0.61234 0.0294 0.23398 0.0
H513 H 0.65248 0.02139 0.27819 0.0
H514 H 0.66506 0.9823 0.05544 0.0
H515 H 0.62512 0.99048 0.01074 0.0
C516 C 0.71946 0.96964 0.21279 0.0
C517 C 0.73295 0.98755 0.24826 0.0
C518 C 0.69644 0.97406 0.18741 0.0
C519 C 0.68646 0.99652 0.19668 0.0
C520 C 0.70017 0.01454 0.23057 0.0
C521 C 0.72323 0.01014 0.25543 0.0
C522 C 0.62371 0.01924 0.19415 0.0
C523 C 0.61545 0.01056 0.11886 0.0
C524 C 0.64671 0.01465 0.21951 0.0
C525 C 0.66195 1.00121 0.17028 0.0
C526 C 0.65366 0.99241 0.09531 0.0
C527 C 0.63072 0.99707 0.06982 0.0
H528 H 0.49283 0.71073 0.30113 0.0
H529 H 0.55071 0.70544 0.12904 0.0
H530 H 0.47331 0.67792 0.23322 0.0
H531 H 0.53101 0.67322 0.06071 0.0
H532 H 0.47701 0.63983 0.89597 0.0
H533 H 0.49428 0.67139 0.9757 0.0
H534 H 0.47853 0.6336 0.20056 0.0
H535 H 0.46154 0.60154 0.12046 0.0
C536 C 0.50166 0.70235 0.25027 0.0
C537 C 0.52345 0.71073 0.22103 0.0
C538 C 0.49037 0.68364 0.21095 0.0
C539 C 0.50051 0.67325 0.14103 0.0
C540 C 0.52256 0.68118 0.11352 0.0
C541 C 0.53387 0.69962 0.153 0.0
C542 C 0.47725 0.63814 0.96237 0.0
C543 C 0.4682 0.61795 0.00166 0.0
C544 C 0.48712 0.65626 0.00804 0.0
C545 C 0.48806 0.65478 0.09424 0.0
C546 C 0.478 0.63519 0.13415 0.0
C547 C 0.46822 0.61689 0.08825 0.0
H548 H 0.76763 0.47668 0.28607 0.0
H549 H 0.76683 0.53011 0.09635 0.0
H550 H 0.80614 0.46351 0.23823 0.0
H551 H 0.80536 0.5172 0.04872 0.0
H552 H 0.86333 0.47483 0.93127 0.0
H553 H 0.82432 0.48553 0.98031 0.0
H554 H 0.84688 0.47493 0.23126 0.0
H555 H 0.88588 0.4637 0.18156 0.0
C556 C 0.77588 0.48588 0.23504 0.0
C557 C 0.76442 0.50471 0.19588 0.0
C558 C 0.79792 0.47828 0.20737 0.0
C559 C 0.80895 0.48929 0.13964 0.0
C560 C 0.79729 0.50803 0.10023 0.0
C561 C 0.77524 0.51553 0.12769 0.0
C562 C 0.85994 0.47477 -0.00307 0.0
C563 C 0.87772 0.46857 0.05259 0.0
C564 C 0.83759 0.481 0.02514 0.0
C565 C 0.83245 0.48137 0.10986 0.0
C566 C 0.85011 0.47461 0.16556 0.0
C567 C 0.87247 0.4682 0.13718 0.0
H568 H 0.03889 0.16751 0.06889 0.0
H569 H 0.0649 0.19307 0.8344 0.0
H570 H 0.03628 0.128 0.01348 0.0
H571 H 0.0629 0.15334 0.77956 0.0
H572 H 0.02262 0.089 0.68359 0.0
H573 H 0.03154 0.12741 0.7401 0.0
H574 H 0.05726 0.09436 0.96217 0.0
H575 H 0.04775 0.05587 0.90653 0.0
C576 C 0.04453 0.16461 0.00599 0.0
C577 C 0.0519 0.18347 0.95575 0.0
C578 C 0.04312 0.14191 0.97428 0.0
C579 C 0.04916 0.13754 0.89179 0.0
C580 C 0.05767 0.15621 0.84287 0.0
C581 C 0.05898 0.17895 0.87447 0.0
C582 C 0.0303 0.08987 0.7443 0.0
C583 C 0.0343 0.06935 0.79076 0.0
C584 C 0.03559 0.11192 0.77648 0.0
C585 C 0.04514 0.11397 0.8557 0.0
C586 C 0.04964 0.09341 0.90141 0.0
C587 C 0.04425 0.07134 0.86935 0.0
H588 H 0.2985 0.04162 0.94255 0.0
H589 H 0.33492 0.10602 -0.0022 0.0
H590 H 0.33588 0.02205 0.9174 0.0
H591 H 0.37227 0.08716 0.96661 0.0
H592 H 0.43768 0.04373 0.9761 0.0
H593 H 0.39957 0.05932 0.0165 0.0
H594 H 0.36691 0.021 0.81894 0.0
H595 H 0.40497 0.0047 0.78061 0.0
C596 C 0.31449 0.05144 0.95128 0.0
C597 C 0.31388 0.0751 0.97561 0.0
C598 C 0.33596 0.04039 0.93488 0.0
C599 C 0.35721 0.05292 0.94072 0.0
C600 C 0.35639 0.07672 0.96359 0.0
C601 C 0.33498 0.08762 0.9808 0.0
C602 C 0.42234 0.03851 0.94164 0.0
C603 C 0.42438 0.02308 0.87489 0.0
C604 C 0.40047 0.04755 0.96451 0.0
C605 C 0.38013 0.04166 0.9205 0.0
C606 C 0.38211 0.02573 0.85492 0.0
C607 C 0.40398 0.01646 0.83264 0.0
H608 H 0.50365 0.34722 0.02515 0.0
H609 H 0.45875 0.31123 0.85349 0.0
H610 H 0.49499 0.38452 0.95743 0.0
H611 H 0.45022 0.34881 0.78502 0.0
H612 H 0.47587 0.41654 0.63249 0.0
H613 H 0.47584 0.37821 0.70135 0.0
H614 H 0.46015 0.41167 0.93276 0.0
H615 H 0.46009 0.44991 0.86467 0.0
C616 C 0.49181 0.34731 0.97321 0.0
C617 C 0.48195 0.32633 0.94431 0.0
C618 C 0.48673 0.36869 0.93485 0.0
C619 C 0.4719 0.3695 0.86616 0.0
C620 C 0.46175 0.34859 0.83776 0.0
C621 C 0.46656 0.32717 0.87707 0.0
C622 C 0.47198 0.4157 0.69775 0.0
C623 C 0.46829 0.43633 0.74324 0.0
C624 C 0.47186 0.39374 0.73702 0.0
C625 C 0.46824 0.39208 0.82242 0.0
C626 C 0.46327 0.41254 0.86698 0.0
C627 C 0.46318 0.43442 0.82778 0.0
H628 H 0.19567 0.48769 0.87065 0.0
H629 H 0.17736 0.44402 0.08009 0.0
H630 H 0.15608 0.4841 0.81903 0.0
H631 H 0.13761 0.43965 0.02645 0.0
H632 H 0.0637 0.47057 0.96789 0.0
H633 H 0.10382 0.46431 0.01387 0.0
H634 H 0.12706 0.45981 0.76071 0.0
H635 H 0.08709 0.46708 0.71488 0.0
C636 C 0.1833 0.4769 0.90491 0.0
C637 C 0.1896 0.46634 0.97992 0.0
C638 C 0.16057 0.47466 0.87484 0.0
C639 C 0.14358 0.46162 0.91862 0.0
C640 C 0.15018 0.45011 0.99183 0.0
C641 C 0.17298 0.45249 0.02231 0.0
C642 C 0.07733 0.4679 0.92212 0.0
C643 C 0.07233 0.4697 0.83783 0.0
C644 C 0.10034 0.46415 0.94847 0.0
C645 C 0.11875 0.46184 0.89098 0.0
C646 C 0.1134 0.46208 0.80663 0.0
C647 C 0.09048 0.46615 0.78034 0.0
H648 H 0.97109 0.82282 0.45872 0.0
H649 H 0.04223 0.83276 0.37081 0.0
H650 H 0.97038 0.86315 0.50806 0.0
H651 H 0.04131 0.87331 0.41868 0.0
H652 H 0.04257 0.92753 0.62532 0.0
H653 H 0.04139 0.89003 0.55646 0.0
H654 H 0.97147 0.90531 0.4693 0.0
H655 H 0.97245 0.94323 0.53993 0.0
C656 C 0.98649 0.8337 0.44909 0.0
C657 C 0.0069 0.8245 0.41236 0.0
C658 C 0.98599 0.85688 0.47674 0.0
C659 C 0.00586 0.87131 0.46797 0.0
C660 C 0.02587 0.86243 0.42766 0.0
C661 C 0.02641 0.83924 0.40024 0.0
C662 C 0.02688 0.92306 0.5915 0.0
C663 C 0.00754 0.93841 0.58843 0.0
C664 C 0.02633 0.90158 0.55123 0.0
C665 C 0.00644 0.8948 0.5068 0.0
C666 C 0.98703 0.91008 0.50338 0.0
C667 C 0.9876 0.93176 0.54367 0.0
H668 H 0.6637 0.00233 0.44744 0.0
H669 H 0.68114 0.02963 0.68694 0.0
H670 H 0.62395 0.99437 0.49449 0.0
H671 H 0.64091 0.02259 0.73323 0.0
H672 H 0.57456 0.9855 0.81782 0.0
H673 H 0.61471 0.99157 0.76934 0.0
H674 H 0.58842 0.01272 0.53098 0.0
H675 H 0.5485 0.0057 0.57836 0.0
C676 C 0.65895 0.00693 0.50994 0.0
C677 C 0.6756 0.01655 0.56363 0.0
C678 C 0.63608 0.00244 0.53685 0.0
C679 C 0.62919 0.00774 0.61782 0.0
C680 C 0.64574 0.01784 0.671 0.0
C681 C 0.66874 0.02209 0.64429 0.0
C682 C 0.57742 0.99112 0.75472 0.0
C683 C 0.55838 0.99499 0.70177 0.0
C684 C 0.60041 0.99486 0.72717 0.0
C685 C 0.60483 0.00282 0.64638 0.0
C686 C 0.58574 0.00626 0.59316 0.0
C687 C 0.5628 0.00225 0.62039 0.0
H688 H 0.48607 0.69212 0.45278 0.0
H689 H 0.50253 0.68555 0.71074 0.0
H690 H 0.49613 0.65085 0.43257 0.0
H691 H 0.51212 0.64409 0.69107 0.0
H692 H 0.53574 0.57128 0.63254 0.0
H693 H 0.53872 0.61428 0.62083 0.0
H694 H 0.47377 0.61579 0.48489 0.0
H695 H 0.47078 0.57321 0.49753 0.0
C696 C 0.49267 0.68212 0.5045 0.0
C697 C 0.49402 0.69212 0.58321 0.0
C698 C 0.49818 0.6584 0.49311 0.0
C699 C 0.50507 0.64429 0.56012 0.0
C700 C 0.50733 0.65462 0.63795 0.0
C701 C 0.50165 0.67826 0.6494 0.0
C702 C 0.52264 0.58083 0.59766 0.0
C703 C 0.50304 0.56913 0.56586 0.0
C704 C 0.52421 0.60537 0.59156 0.0
C705 C 0.50642 0.61837 0.55229 0.0
C706 C 0.48788 0.60629 0.51475 0.0
C707 C 0.4861 0.58193 0.52217 0.0
H708 H 0.85266 0.52855 0.3713 0.0
H709 H 0.81583 0.51531 0.60029 0.0
H710 H 0.88964 0.53102 0.44564 0.0
H711 H 0.85265 0.51845 0.67472 0.0
H712 H 0.92389 0.48577 0.74304 0.0
H713 H 0.88592 0.49233 0.68155 0.0
H714 H 0.9136 0.55214 0.54705 0.0
H715 H 0.95224 0.54526 0.60823 0.0
C716 C 0.85242 0.52657 0.43763 0.0
C717 C 0.83145 0.52135 0.47989 0.0
C718 C 0.87357 0.52819 0.48027 0.0
C719 C 0.87406 0.52476 0.56593 0.0
C720 C 0.85286 0.52078 0.60852 0.0
C721 C 0.83179 0.51898 0.5659 0.0
C722 C 0.92194 0.50051 0.70109 0.0
C723 C 0.94115 0.51486 0.67981 0.0
C724 C 0.90003 0.5044 0.66634 0.0
C725 C 0.89675 0.52274 0.60937 0.0
C726 C 0.91571 0.53773 0.59028 0.0
C727 C 0.93775 0.53388 0.62557 0.0
loop_
_geom_bond_atom_site_label_1
_geom_bond_atom_site_label_2
_geom_bond_distance
_geom_bond_site_symmetry_2
_ccdc_geom_bond_type
O0 Cd1 2.300 . S
O0 C7 1.275 . S
Cd1 O0 2.300 . S
Cd1 O9 2.381 . S
Cd1 O10 2.378 . S
O2 Cd3 2.385 . S
O2 C7 1.255 . S
Cd3 O2 2.385 . S
Cd3 O4 2.317 . S
O4 Cd3 2.317 . S
O4 C5 1.232 . S
C5 O4 1.232 . S
C5 O6 1.218 . S
O6 C5 1.218 . S
C7 O0 1.275 . S
C7 O2 1.255 . S
C8 O9 1.258 . S
C8 O10 1.256 . S
O9 Cd1 2.381 . S
O9 C8 1.258 . S
O10 Cd1 2.378 . S
O10 C8 1.256 . S
O11 Cd12 2.300 1_655 S
O11 C18 1.275 1_655 S
Cd12 O11 2.300 1_455 S
Cd12 O20 2.381 1_455 S
Cd12 O21 2.378 . S
O13 Cd14 2.385 . S
O13 C18 1.255 . S
Cd14 O13 2.385 . S
Cd14 O15 2.317 . S
O15 Cd14 2.317 . S
O15 C16 1.232 . S
C16 O15 1.232 . S
C16 O17 1.218 . S
O17 C16 1.218 . S
C18 O11 1.275 1_455 S
C18 O13 1.255 . S
C19 O20 1.258 1_455 S
C19 O21 1.256 . S
O20 Cd12 2.381 1_655 S
O20 C19 1.258 1_655 S
O21 Cd12 2.378 . S
O21 C19 1.256 . S
O22 Cd23 2.300 1_565 S
O22 C29 1.275 1_565 S
Cd23 O22 2.300 1_545 S
Cd23 O31 2.381 1_545 S
Cd23 O32 2.378 . S
O24 Cd25 2.385 . S
O24 C29 1.255 . S
Cd25 O24 2.385 . S
Cd25 O26 2.317 . S
O26 Cd25 2.317 . S
O26 C27 1.232 . S
C27 O26 1.232 . S
C27 O28 1.218 . S
O28 C27 1.218 . S
C29 O22 1.275 1_545 S
C29 O24 1.255 . S
C30 O31 1.258 1_545 S
C30 O32 1.256 . S
O31 Cd23 2.381 1_565 S
O31 C30 1.258 1_565 S
O32 Cd23 2.378 . S
O32 C30 1.256 . S
O33 Cd34 2.300 . S
O33 C40 1.275 . S
Cd34 O33 2.300 . S
Cd34 O42 2.381 . S
Cd34 O43 2.378 . S
O35 Cd36 2.385 . S
O35 C40 1.255 . S
Cd36 O35 2.385 . S
Cd36 O37 2.317 . S
O37 Cd36 2.317 . S
O37 C38 1.232 . S
C38 O37 1.232 . S
C38 O39 1.218 . S
O39 C38 1.218 . S
C40 O33 1.275 . S
C40 O35 1.255 . S
C41 O42 1.258 . S
C41 O43 1.256 . S
O42 Cd34 2.381 . S
O42 C41 1.258 . S
O43 Cd34 2.378 . S
O43 C41 1.256 . S
O44 Cd45 2.300 . S
O44 C51 1.275 . S
Cd45 O44 2.300 . S
Cd45 O53 2.381 . S
Cd45 O54 2.378 . S
O46 Cd47 2.385 1_554 S
O46 C51 1.255 . S
Cd47 O46 2.385 1_556 S
Cd47 O48 2.317 . S
O48 Cd47 2.317 . S
O48 C49 1.232 . S
C49 O48 1.232 . S
C49 O50 1.218 . S
O50 C49 1.218 . S
C51 O44 1.275 . S
C51 O46 1.255 . S
C52 O53 1.258 . S
C52 O54 1.256 . S
O53 Cd45 2.381 . S
O53 C52 1.258 . S
O54 Cd45 2.378 . S
O54 C52 1.256 . S
O55 Cd56 2.300 1_655 S
O55 C62 1.275 1_655 S
Cd56 O55 2.300 1_455 S
Cd56 O64 2.381 1_455 S
Cd56 O65 2.378 . S
O57 Cd58 2.382 1_554 S
O57 C62 1.255 . S
Cd58 O57 2.382 1_556 S
Cd58 O59 2.319 . S
O59 Cd58 2.319 . S
O59 C60 1.232 . S
C60 O59 1.232 . S
C60 O61 1.218 . S
O61 C60 1.218 . S
C62 O55 1.275 1_455 S
C62 O57 1.255 . S
C63 O64 1.258 1_455 S
C63 O65 1.256 . S
O64 Cd56 2.381 1_655 S
O64 C63 1.258 1_655 S
O65 Cd56 2.378 . S
O65 C63 1.256 . S
O66 Cd67 2.300 1_565 S
O66 C73 1.275 1_565 S
Cd67 O66 2.300 1_545 S
Cd67 O75 2.381 1_545 S
Cd67 O76 2.378 . S
O68 Cd69 2.385 1_554 S
O68 C73 1.255 . S
Cd69 O68 2.385 1_556 S
Cd69 O70 2.317 . S
O70 Cd69 2.317 . S
O70 C71 1.232 . S
C71 O70 1.232 . S
C71 O72 1.218 . S
O72 C71 1.218 . S
C73 O66 1.275 1_545 S
C73 O68 1.255 . S
C74 O75 1.258 1_545 S
C74 O76 1.256 . S
O75 Cd67 2.381 1_565 S
O75 C74 1.258 1_565 S
O76 Cd67 2.378 . S
O76 C74 1.256 . S
O77 Cd78 2.300 . S
O77 C84 1.275 . S
Cd78 O77 2.300 . S
Cd78 O86 2.381 . S
Cd78 O87 2.378 . S
O79 Cd80 2.385 1_554 S
O79 C84 1.255 . S
Cd80 O79 2.385 1_556 S
Cd80 O81 2.317 . S
O81 Cd80 2.317 . S
O81 C82 1.232 . S
C82 O81 1.232 . S
C82 O83 1.218 . S
O83 C82 1.218 . S
C84 O77 1.275 . S
C84 O79 1.255 . S
C85 O86 1.258 . S
C85 O87 1.256 . S
O86 Cd78 2.381 . S
O86 C85 1.258 . S
O87 Cd78 2.378 . S
O87 C85 1.256 . S
Tb88 C98 2.825 . S
Tb88 O99 2.347 1_455 S
Tb88 O102 2.366 . S
Tb88 O107 2.418 . S
Tb88 O108 2.384 1_565 S
Tb88 O111 2.479 . S
Tb88 O112 2.471 . S
Eu89 O100 2.418 . S
Eu89 O101 2.384 1_545 S
Eu89 O104 2.479 . S
Eu89 O105 2.471 . S
Eu89 O106 2.347 1_655 S
Eu89 O109 2.366 . S
Eu89 C119 2.825 . S
C90 O106 1.259 1_565 S
C90 O107 1.265 . S
C91 O108 1.255 . S
C91 O109 1.265 1_455 S
C92 C94 1.380 . S
C92 C95 1.374 . S
C92 C98 1.507 . S
C93 C94 1.384 . S
C93 C97 1.387 1_556 S
C93 H120 0.930 1_556 S
C94 C92 1.380 . S
C94 C93 1.384 . S
C94 H121 0.931 . S
C95 C92 1.374 . S
C95 C96 1.390 . S
C95 H122 0.930 1_455 S
C96 C95 1.390 . S
C96 C97 1.391 1_556 S
C96 H123 0.930 1_456 S
C97 C93 1.387 1_554 S
C97 C96 1.391 1_554 S
C98 Tb88 2.825 . S
C98 C92 1.507 . S
C98 O111 1.238 . S
C98 O112 1.247 . S
O99 Tb88 2.347 1_655 S
O99 C103 1.259 1_565 S
O100 Eu89 2.418 . S
O100 C103 1.265 . S
O101 Eu89 2.384 1_565 S
O101 C110 1.255 . S
O102 Tb88 2.366 . S
O102 C110 1.265 1_455 S
C103 O99 1.259 1_545 S
C103 O100 1.265 . S
O104 Eu89 2.479 . S
O104 C119 1.238 . S
O105 Eu89 2.471 . S
O105 C119 1.247 . S
O106 Eu89 2.347 1_455 S
O106 C90 1.259 1_545 S
O107 Tb88 2.418 . S
O107 C90 1.265 . S
O108 Tb88 2.384 1_545 S
O108 C91 1.255 . S
O109 Eu89 2.366 . S
O109 C91 1.265 1_655 S
C110 O101 1.255 . S
C110 O102 1.265 1_655 S
O111 Tb88 2.479 . S
O111 C98 1.238 . S
O112 Tb88 2.471 . S
O112 C98 1.247 . S
C113 C116 1.380 . S
C113 C117 1.374 . S
C113 C119 1.507 . S
C114 C115 1.387 . S
C114 C118 1.391 . S
C115 C114 1.387 . S
C115 C116 1.384 . S
C115 H124 0.930 . S
C116 C113 1.380 . S
C116 C115 1.384 . S
C116 H125 0.931 . S
C117 C113 1.374 . S
C117 C118 1.390 . S
C117 H126 0.930 1_655 S
C118 C114 1.391 . S
C118 C117 1.390 . S
C118 H127 0.930 1_655 S
C119 Eu89 2.825 . S
C119 O104 1.238 . S
C119 O105 1.247 . S
C119 C113 1.507 . S
H120 C93 0.930 1_554 S
H121 C94 0.931 . S
H122 C95 0.930 1_655 S
H123 C96 0.930 1_654 S
H124 C115 0.930 . S
H125 C116 0.931 . S
H126 C117 0.930 1_455 S
H127 C118 0.930 1_455 S
Tb128 C138 2.825 . S
Tb128 O139 2.347 1_545 S
Tb128 O142 2.366 . S
Tb128 O147 2.418 . S
Tb128 O148 2.384 . S
Tb128 O151 2.479 . S
Tb128 O152 2.471 . S
Eu129 O140 2.418 . S
Eu129 O141 2.384 . S
Eu129 O144 2.479 . S
Eu129 O145 2.471 . S
Eu129 O146 2.347 1_565 S
Eu129 O149 2.366 . S
Eu129 C159 2.825 . S
C130 O146 1.259 . S
C130 O147 1.265 . S
C131 O148 1.255 . S
C131 O149 1.265 1_545 S
C132 C134 1.380 . S
C132 C135 1.374 . S
C132 C138 1.507 . S
C133 C134 1.384 . S
C133 C137 1.387 1_556 S
C133 H160 0.930 1_556 S
C134 C132 1.380 . S
C134 C133 1.384 . S
C134 H161 0.931 . S
C135 C132 1.374 . S
C135 C136 1.390 . S
C135 H162 0.930 1_545 S
C136 C135 1.390 . S
C136 C137 1.391 1_556 S
C136 H163 0.930 1_546 S
C137 C133 1.387 1_554 S
C137 C136 1.391 1_554 S
C138 Tb128 2.825 . S
C138 C132 1.507 . S
C138 O151 1.238 . S
C138 O152 1.247 . S
O139 Tb128 2.347 1_565 S
O139 C143 1.259 . S
O140 Eu129 2.418 . S
O140 C143 1.265 . S
O141 Eu129 2.384 . S
O141 C150 1.255 . S
O142 Tb128 2.366 . S
O142 C150 1.265 1_545 S
C143 O139 1.259 . S
C143 O140 1.265 . S
O144 Eu129 2.479 . S
O144 C159 1.238 . S
O145 Eu129 2.471 . S
O145 C159 1.247 . S
O146 Eu129 2.347 1_545 S
O146 C130 1.259 . S
O147 Tb128 2.418 . S
O147 C130 1.265 . S
O148 Tb128 2.384 . S
O148 C131 1.255 . S
O149 Eu129 2.366 . S
O149 C131 1.265 1_565 S
C150 O141 1.255 . S
C150 O142 1.265 1_565 S
O151 Tb128 2.479 . S
O151 C138 1.238 . S
O152 Tb128 2.471 . S
O152 C138 1.247 . S
C153 C156 1.380 . S
C153 C157 1.374 . S
C153 C159 1.507 . S
C154 C155 1.387 . S
C154 C158 1.391 . S
C155 C154 1.387 . S
C155 C156 1.384 . S
C155 H164 0.930 . S
C156 C153 1.380 . S
C156 C155 1.384 . S
C156 H165 0.931 . S
C157 C153 1.374 . S
C157 C158 1.390 . S
C157 H166 0.930 1_565 S
C158 C154 1.391 . S
C158 C157 1.390 . S
C158 H167 0.930 1_565 S
C159 Eu129 2.825 . S
C159 O144 1.238 . S
C159 O145 1.247 . S
C159 C153 1.507 . S
H160 C133 0.930 1_554 S
H161 C134 0.931 . S
H162 C135 0.930 1_565 S
H163 C136 0.930 1_564 S
H164 C155 0.930 . S
H165 C156 0.931 . S
H166 C157 0.930 1_545 S
H167 C158 0.930 1_545 S
Tb168 C178 2.825 . S
Tb168 O179 2.347 . S
Tb168 O182 2.366 . S
Tb168 O187 2.418 . S
Tb168 O188 2.384 . S
Tb168 O191 2.479 . S
Tb168 O192 2.471 . S
Eu169 O180 2.418 . S
Eu169 O181 2.384 . S
Eu169 O184 2.479 . S
Eu169 O185 2.471 . S
Eu169 O186 2.347 . S
Eu169 O189 2.366 . S
Eu169 C199 2.825 . S
C170 O186 1.259 . S
C170 O187 1.265 . S
C171 O188 1.255 . S
C171 O189 1.265 . S
C172 C174 1.380 . S
C172 C175 1.374 . S
C172 C178 1.507 . S
C173 C174 1.384 . S
C173 C177 1.387 1_556 S
C173 H200 0.930 1_556 S
C174 C172 1.380 . S
C174 C173 1.384 . S
C174 H201 0.931 . S
C175 C172 1.374 . S
C175 C176 1.390 . S
C175 H202 0.930 . S
C176 C175 1.390 . S
C176 C177 1.391 1_556 S
C176 H203 0.930 1_556 S
C177 C173 1.387 1_554 S
C177 C176 1.391 1_554 S
C178 Tb168 2.825 . S
C178 C172 1.507 . S
C178 O191 1.238 . S
C178 O192 1.247 . S
O179 Tb168 2.347 . S
O179 C183 1.259 . S
O180 Eu169 2.418 . S
O180 C183 1.265 . S
O181 Eu169 2.384 . S
O181 C190 1.255 . S
O182 Tb168 2.366 . S
O182 C190 1.265 . S
C183 O179 1.259 . S
C183 O180 1.265 . S
O184 Eu169 2.479 . S
O184 C199 1.238 . S
O185 Eu169 2.471 . S
O185 C199 1.247 . S
O186 Eu169 2.347 . S
O186 C170 1.259 . S
O187 Tb168 2.418 . S
O187 C170 1.265 . S
O188 Tb168 2.384 . S
O188 C171 1.255 . S
O189 Eu169 2.366 . S
O189 C171 1.265 . S
C190 O181 1.255 . S
C190 O182 1.265 . S
O191 Tb168 2.479 . S
O191 C178 1.238 . S
O192 Tb168 2.471 . S
O192 C178 1.247 . S
C193 C196 1.380 . S
C193 C197 1.374 . S
C193 C199 1.507 . S
C194 C195 1.387 . S
C194 C198 1.391 . S
C195 C194 1.387 . S
C195 C196 1.384 . S
C195 H204 0.930 . S
C196 C193 1.380 . S
C196 C195 1.384 . S
C196 H205 0.931 . S
C197 C193 1.374 . S
C197 C198 1.390 . S
C197 H206 0.930 . S
C198 C194 1.391 . S
C198 C197 1.390 . S
C198 H207 0.930 . S
C199 Eu169 2.825 . S
C199 O184 1.238 . S
C199 O185 1.247 . S
C199 C193 1.507 . S
H200 C173 0.930 1_554 S
H201 C174 0.931 . S
H202 C175 0.930 . S
H203 C176 0.930 1_554 S
H204 C195 0.930 . S
H205 C196 0.931 . S
H206 C197 0.930 . S
H207 C198 0.930 . S
Tb208 C218 2.825 . S
Tb208 O219 2.347 . S
Tb208 O222 2.366 . S
Tb208 O227 2.418 . S
Tb208 O228 2.384 1_655 S
Tb208 O231 2.479 . S
Tb208 O232 2.471 . S
Eu209 O220 2.418 . S
Eu209 O221 2.384 1_455 S
Eu209 O224 2.479 . S
Eu209 O225 2.471 . S
Eu209 O226 2.347 . S
Eu209 O229 2.366 . S
Eu209 C239 2.825 . S
C210 O226 1.259 1_655 S
C210 O227 1.265 . S
C211 O228 1.255 . S
C211 O229 1.265 . S
C212 C214 1.380 . S
C212 C215 1.374 . S
C212 C218 1.507 . S
C213 C214 1.384 . S
C213 C217 1.387 1_556 S
C213 H240 0.930 1_556 S
C214 C212 1.380 . S
C214 C213 1.384 . S
C214 H241 0.931 . S
C215 C212 1.374 . S
C215 C216 1.390 . S
C215 H242 0.930 . S
C216 C215 1.390 . S
C216 C217 1.391 1_556 S
C216 H243 0.930 1_556 S
C217 C213 1.387 1_554 S
C217 C216 1.391 1_554 S
C218 Tb208 2.825 . S
C218 C212 1.507 . S
C218 O231 1.238 . S
C218 O232 1.247 . S
O219 Tb208 2.347 . S
O219 C223 1.259 1_655 S
O220 Eu209 2.418 . S
O220 C223 1.265 . S
O221 Eu209 2.384 1_655 S
O221 C230 1.255 . S
O222 Tb208 2.366 . S
O222 C230 1.265 . S
C223 O219 1.259 1_455 S
C223 O220 1.265 . S
O224 Eu209 2.479 . S
O224 C239 1.238 . S
O225 Eu209 2.471 . S
O225 C239 1.247 . S
O226 Eu209 2.347 . S
O226 C210 1.259 1_455 S
O227 Tb208 2.418 . S
O227 C210 1.265 . S
O228 Tb208 2.384 1_455 S
O228 C211 1.255 . S
O229 Eu209 2.366 . S
O229 C211 1.265 . S
C230 O221 1.255 . S
C230 O222 1.265 . S
O231 Tb208 2.479 . S
O231 C218 1.238 . S
O232 Tb208 2.471 . S
O232 C218 1.247 . S
C233 C236 1.380 . S
C233 C237 1.374 . S
C233 C239 1.507 . S
C234 C235 1.387 . S
C234 C238 1.391 . S
C235 C234 1.387 . S
C235 C236 1.384 . S
C235 H244 0.930 . S
C236 C233 1.380 . S
C236 C235 1.384 . S
C236 H245 0.931 . S
C237 C233 1.374 . S
C237 C238 1.390 . S
C237 H246 0.930 . S
C238 C234 1.391 . S
C238 C237 1.390 . S
C238 H247 0.930 . S
C239 Eu209 2.825 . S
C239 O224 1.238 . S
C239 O225 1.247 . S
C239 C233 1.507 . S
H240 C213 0.930 1_554 S
H241 C214 0.931 . S
H242 C215 0.930 . S
H243 C216 0.930 1_554 S
H244 C235 0.930 . S
H245 C236 0.931 . S
H246 C237 0.930 . S
H247 C238 0.930 . S
H248 C256 0.950 . S
H249 C261 0.950 . S
H250 C258 0.950 . S
H251 C260 0.950 . S
H252 C262 0.950 . S
H253 C264 0.950 . S
H254 C266 0.950 . S
H255 C267 0.950 . S
C256 H248 0.950 . S
C256 C257 1.363 1_565 S
C256 C258 1.391 . S
C257 C256 1.363 1_545 S
C257 C261 1.418 . S
C258 H250 0.950 . S
C258 C256 1.391 . S
C258 C259 1.382 1_565 S
C259 C258 1.382 1_545 S
C259 C260 1.418 . S
C259 C265 1.490 . S
C260 H251 0.950 . S
C260 C259 1.418 . S
C260 C261 1.391 . S
C261 H249 0.950 . S
C261 C257 1.418 . S
C261 C260 1.391 . S
C262 H252 0.950 . S
C262 C263 1.385 1_545 S
C262 C264 1.391 . S
C263 C262 1.385 1_565 S
C263 C267 1.394 . S
C264 H253 0.950 . S
C264 C262 1.391 . S
C264 C265 1.399 . S
C265 C259 1.490 . S
C265 C264 1.399 . S
C265 C266 1.399 1_545 S
C266 H254 0.950 . S
C266 C265 1.399 1_565 S
C266 C267 1.391 . S
C267 H255 0.950 . S
C267 C263 1.394 . S
C267 C266 1.391 . S
H268 C276 0.950 . S
H269 C281 0.950 . S
H270 C278 0.950 . S
H271 C280 0.950 . S
H272 C282 0.950 . S
H273 C284 0.950 . S
H274 C286 0.950 . S
H275 C287 0.950 . S
C276 H268 0.950 . S
C276 C277 1.386 . S
C276 C278 1.391 . S
C277 C276 1.386 . S
C277 C281 1.393 . S
C278 H270 0.950 . S
C278 C276 1.391 . S
C278 C279 1.400 . S
C279 C278 1.400 . S
C279 C280 1.398 . S
C279 C285 1.491 . S
C280 H271 0.950 . S
C280 C279 1.398 . S
C280 C281 1.391 . S
C281 H269 0.950 . S
C281 C277 1.393 . S
C281 C280 1.391 . S
C282 H272 0.950 . S
C282 C283 1.386 . S
C282 C284 1.391 . S
C283 C282 1.386 . S
C283 C287 1.393 . S
C284 H273 0.950 . S
C284 C282 1.391 . S
C284 C285 1.400 . S
C285 C279 1.491 . S
C285 C284 1.400 . S
C285 C286 1.398 . S
C286 H274 0.950 . S
C286 C285 1.398 . S
C286 C287 1.391 . S
C287 H275 0.950 . S
C287 C283 1.393 . S
C287 C286 1.391 . S
H288 C296 0.950 . S
H289 C301 0.950 . S
H290 C298 0.950 . S
H291 C300 0.950 . S
H292 C302 0.950 . S
H293 C304 0.950 . S
H294 C306 0.950 . S
H295 C307 0.950 . S
C296 H288 0.950 . S
C296 C297 1.386 . S
C296 C298 1.391 . S
C297 C296 1.386 . S
C297 C301 1.393 . S
C298 H290 0.950 . S
C298 C296 1.391 . S
C298 C299 1.400 . S
C299 C298 1.400 . S
C299 C300 1.398 . S
C299 C305 1.491 . S
C300 H291 0.950 . S
C300 C299 1.398 . S
C300 C301 1.391 . S
C301 H289 0.950 . S
C301 C297 1.393 . S
C301 C300 1.391 . S
C302 H292 0.950 . S
C302 C303 1.386 . S
C302 C304 1.391 . S
C303 C302 1.386 . S
C303 C307 1.393 . S
C304 H293 0.950 . S
C304 C302 1.391 . S
C304 C305 1.400 . S
C305 C299 1.491 . S
C305 C304 1.400 . S
C305 C306 1.398 . S
C306 H294 0.950 . S
C306 C305 1.398 . S
C306 C307 1.391 . S
C307 H295 0.950 . S
C307 C303 1.393 . S
C307 C306 1.391 . S
H308 C316 0.950 . S
H309 C321 0.950 . S
H310 C318 0.950 . S
H311 C320 0.950 . S
H312 C322 0.950 . S
H313 C324 0.950 . S
H314 C326 0.950 . S
H315 C327 0.950 . S
C316 H308 0.950 . S
C316 C317 1.406 . S
C316 C318 1.391 . S
C317 C316 1.406 . S
C317 C321 1.375 1_455 S
C318 H310 0.950 . S
C318 C316 1.391 . S
C318 C319 1.419 . S
C319 C318 1.419 . S
C319 C320 1.382 1_455 S
C319 C325 1.490 . S
C320 H311 0.950 . S
C320 C319 1.382 1_655 S
C320 C321 1.391 . S
C321 H309 0.950 . S
C321 C317 1.375 1_655 S
C321 C320 1.391 . S
C322 H312 0.950 . S
C322 C323 1.382 1_655 S
C322 C324 1.391 . S
C323 C322 1.382 1_455 S
C323 C327 1.397 . S
C324 H313 0.950 . S
C324 C322 1.391 . S
C324 C325 1.396 1_655 S
C325 C319 1.490 . S
C325 C324 1.396 1_455 S
C325 C326 1.403 . S
C326 H314 0.950 . S
C326 C325 1.403 . S
C326 C327 1.391 . S
C327 H315 0.950 . S
C327 C323 1.397 . S
C327 C326 1.391 . S
H328 C336 0.950 . S
H329 C341 0.950 . S
H330 C338 0.950 . S
H331 C340 0.950 . S
H332 C342 0.950 . S
H333 C344 0.950 . S
H334 C346 0.950 . S
H335 C347 0.950 . S
C336 H328 0.950 . S
C336 C337 1.396 . S
C336 C338 1.391 . S
C337 C336 1.396 . S
C337 C341 1.383 1_565 S
C338 H330 0.950 . S
C338 C336 1.391 . S
C338 C339 1.411 . S
C339 C338 1.411 . S
C339 C340 1.388 1_565 S
C339 C345 1.491 . S
C340 H331 0.950 . S
C340 C339 1.388 1_545 S
C340 C341 1.391 . S
C341 H329 0.950 . S
C341 C337 1.383 1_545 S
C341 C340 1.391 . S
C342 H332 0.950 . S
C342 C343 1.387 1_545 S
C342 C344 1.391 . S
C343 C342 1.387 1_565 S
C343 C347 1.391 . S
C344 H333 0.950 . S
C344 C342 1.391 . S
C344 C345 1.402 1_546 S
C345 C339 1.491 . S
C345 C344 1.402 1_564 S
C345 C346 1.396 . S
C346 H334 0.950 . S
C346 C345 1.396 . S
C346 C347 1.391 1_554 S
C347 H335 0.950 . S
C347 C343 1.391 . S
C347 C346 1.391 1_556 S
H348 C356 0.950 . S
H349 C361 0.950 . S
H350 C358 0.950 . S
H351 C360 0.950 . S
H352 C362 0.950 . S
H353 C364 0.950 . S
H354 C366 0.950 . S
H355 C367 0.950 . S
C356 H348 0.950 . S
C356 C357 1.386 . S
C356 C358 1.391 . S
C357 C356 1.386 . S
C357 C361 1.393 . S
C358 H350 0.950 . S
C358 C356 1.391 . S
C358 C359 1.400 . S
C359 C358 1.400 . S
C359 C360 1.398 . S
C359 C365 1.491 . S
C360 H351 0.950 . S
C360 C359 1.398 . S
C360 C361 1.391 . S
C361 H349 0.950 . S
C361 C357 1.393 . S
C361 C360 1.391 . S
C362 H352 0.950 . S
C362 C363 1.386 . S
C362 C364 1.391 . S
C363 C362 1.386 . S
C363 C367 1.393 . S
C364 H353 0.950 . S
C364 C362 1.391 . S
C364 C365 1.400 1_556 S
C365 C359 1.491 . S
C365 C364 1.400 1_554 S
C365 C366 1.398 . S
C366 H354 0.950 . S
C366 C365 1.398 . S
C366 C367 1.391 1_554 S
C367 H355 0.950 . S
C367 C363 1.393 . S
C367 C366 1.391 1_556 S
H368 C376 0.950 . S
H369 C381 0.950 . S
H370 C378 0.950 . S
H371 C380 0.950 . S
H372 C382 0.950 . S
H373 C384 0.950 . S
H374 C386 0.950 . S
H375 C387 0.950 . S
C376 H368 0.950 . S
C376 C377 1.386 . S
C376 C378 1.391 . S
C377 C376 1.386 . S
C377 C381 1.393 . S
C378 H370 0.950 . S
C378 C376 1.391 . S
C378 C379 1.400 . S
C379 C378 1.400 . S
C379 C380 1.398 . S
C379 C385 1.491 . S
C380 H371 0.950 . S
C380 C379 1.398 . S
C380 C381 1.391 . S
C381 H369 0.950 . S
C381 C377 1.393 . S
C381 C380 1.391 . S
C382 H372 0.950 . S
C382 C383 1.386 . S
C382 C384 1.391 . S
C383 C382 1.386 . S
C383 C387 1.393 . S
C384 H373 0.950 . S
C384 C382 1.391 . S
C384 C385 1.400 1_556 S
C385 C379 1.491 . S
C385 C384 1.400 1_554 S
C385 C386 1.398 . S
C386 H374 0.950 . S
C386 C385 1.398 . S
C386 C387 1.391 1_554 S
C387 H375 0.950 . S
C387 C383 1.393 . S
C387 C386 1.391 1_556 S
H388 C396 0.950 . S
H389 C401 0.950 . S
H390 C398 0.950 . S
H391 C400 0.950 . S
H392 C402 0.950 . S
H393 C404 0.950 . S
H394 C406 0.950 1_554 S
H395 C407 0.950 . S
C396 H388 0.950 . S
C396 C397 1.400 . S
C396 C398 1.391 . S
C397 C396 1.400 . S
C397 C401 1.379 1_655 S
C398 H390 0.950 . S
C398 C396 1.391 . S
C398 C399 1.424 . S
C399 C398 1.424 . S
C399 C400 1.375 1_655 S
C399 C405 1.491 . S
C400 H391 0.950 . S
C400 C399 1.375 1_455 S
C400 C401 1.391 . S
C401 H389 0.950 . S
C401 C397 1.379 1_455 S
C401 C400 1.391 . S
C402 H392 0.950 . S
C402 C403 1.354 1_455 S
C402 C404 1.391 . S
C403 C402 1.354 1_655 S
C403 C407 1.424 . S
C404 H393 0.950 . S
C404 C402 1.391 . S
C404 C405 1.379 1_456 S
C405 C399 1.491 . S
C405 C404 1.379 1_654 S
C405 C406 1.419 1_554 S
C406 H394 0.950 1_556 S
C406 C405 1.419 1_556 S
C406 C407 1.391 . S
C407 H395 0.950 . S
C407 C403 1.424 . S
C407 C406 1.391 . S
H408 C416 0.950 . S
H409 C421 0.950 . S
H410 C418 0.950 . S
H411 C420 0.950 . S
H412 C422 0.950 1_455 S
H413 C424 0.950 1_455 S
H414 C426 0.950 . S
H415 C427 0.950 . S
C416 H408 0.950 . S
C416 C417 1.368 1_655 S
C416 C418 1.391 . S
C417 C416 1.368 1_455 S
C417 C421 1.406 . S
C418 H410 0.950 . S
C418 C416 1.391 . S
C418 C419 1.400 . S
C419 C418 1.400 . S
C419 C420 1.398 1_655 S
C419 C425 1.491 . S
C420 H411 0.950 . S
C420 C419 1.398 1_455 S
C420 C421 1.391 . S
C421 H409 0.950 . S
C421 C417 1.406 . S
C421 C420 1.391 . S
C422 H412 0.950 1_655 S
C422 C423 1.386 . S
C422 C424 1.391 . S
C423 C422 1.386 . S
C423 C427 1.393 . S
C424 H413 0.950 1_655 S
C424 C422 1.391 . S
C424 C425 1.400 . S
C425 C419 1.491 . S
C425 C424 1.400 . S
C425 C426 1.398 . S
C426 H414 0.950 . S
C426 C425 1.398 . S
C426 C427 1.391 . S
C427 H415 0.950 . S
C427 C423 1.393 . S
C427 C426 1.391 . S
H428 C436 0.950 . S
H429 C441 0.950 . S
H430 C438 0.950 . S
H431 C440 0.950 . S
H432 C442 0.950 . S
H433 C444 0.950 . S
H434 C446 0.950 . S
H435 C447 0.950 . S
C436 H428 0.950 . S
C436 C437 1.386 . S
C436 C438 1.391 . S
C437 C436 1.386 . S
C437 C441 1.393 1_545 S
C438 H430 0.950 . S
C438 C436 1.391 . S
C438 C439 1.400 1_545 S
C439 C438 1.400 1_565 S
C439 C440 1.398 . S
C439 C445 1.491 . S
C440 H431 0.950 . S
C440 C439 1.398 . S
C440 C441 1.391 . S
C441 H429 0.950 . S
C441 C437 1.393 1_565 S
C441 C440 1.391 . S
C442 H432 0.950 . S
C442 C443 1.386 . S
C442 C444 1.391 . S
C443 C442 1.386 . S
C443 C447 1.393 . S
C444 H433 0.950 . S
C444 C442 1.391 . S
C444 C445 1.400 . S
C445 C439 1.491 . S
C445 C444 1.400 . S
C445 C446 1.398 . S
C446 H434 0.950 . S
C446 C445 1.398 . S
C446 C447 1.391 . S
C447 H435 0.950 . S
C447 C443 1.393 . S
C447 C446 1.391 . S
H448 C456 0.950 . S
H449 C461 0.950 . S
H450 C458 0.950 . S
H451 C460 0.950 . S
H452 C462 0.950 . S
H453 C464 0.950 . S
H454 C466 0.950 . S
H455 C467 0.950 . S
C456 H448 0.950 . S
C456 C457 1.386 . S
C456 C458 1.391 . S
C457 C456 1.386 . S
C457 C461 1.393 . S
C458 H450 0.950 . S
C458 C456 1.391 . S
C458 C459 1.400 . S
C459 C458 1.400 . S
C459 C460 1.398 . S
C459 C465 1.491 . S
C460 H451 0.950 . S
C460 C459 1.398 . S
C460 C461 1.391 . S
C461 H449 0.950 . S
C461 C457 1.393 . S
C461 C460 1.391 . S
C462 H452 0.950 . S
C462 C463 1.386 . S
C462 C464 1.391 . S
C463 C462 1.386 . S
C463 C467 1.393 . S
C464 H453 0.950 . S
C464 C462 1.391 . S
C464 C465 1.400 . S
C465 C459 1.491 . S
C465 C464 1.400 . S
C465 C466 1.398 . S
C466 H454 0.950 . S
C466 C465 1.398 . S
C466 C467 1.391 . S
C467 H455 0.950 . S
C467 C463 1.393 . S
C467 C466 1.391 . S
H468 C476 0.950 . S
H469 C481 0.950 . S
H470 C478 0.950 . S
H471 C480 0.950 . S
H472 C482 0.950 . S
H473 C484 0.950 . S
H474 C486 0.950 . S
H475 C487 0.950 . S
C476 H468 0.950 . S
C476 C477 1.386 . S
C476 C478 1.391 . S
C477 C476 1.386 . S
C477 C481 1.393 . S
C478 H470 0.950 . S
C478 C476 1.391 . S
C478 C479 1.400 . S
C479 C478 1.400 . S
C479 C480 1.398 . S
C479 C485 1.491 . S
C480 H471 0.950 . S
C480 C479 1.398 . S
C480 C481 1.391 . S
C481 H469 0.950 . S
C481 C477 1.393 . S
C481 C480 1.391 . S
C482 H472 0.950 . S
C482 C483 1.386 . S
C482 C484 1.391 . S
C483 C482 1.386 . S
C483 C487 1.393 . S
C484 H473 0.950 . S
C484 C482 1.391 . S
C484 C485 1.400 . S
C485 C479 1.491 . S
C485 C484 1.400 . S
C485 C486 1.398 . S
C486 H474 0.950 . S
C486 C485 1.398 . S
C486 C487 1.391 . S
C487 H475 0.950 . S
C487 C483 1.393 . S
C487 C486 1.391 . S
H488 C496 0.950 . S
H489 C501 0.950 . S
H490 C498 0.950 . S
H491 C500 0.950 . S
H492 C502 0.950 1_556 S
H493 C504 0.950 . S
H494 C506 0.950 1_655 S
H495 C507 0.950 1_655 S
C496 H488 0.950 . S
C496 C497 1.393 . S
C496 C498 1.391 . S
C497 C496 1.393 . S
C497 C501 1.383 1_655 S
C498 H490 0.950 . S
C498 C496 1.391 . S
C498 C499 1.400 1_655 S
C499 C498 1.400 1_455 S
C499 C500 1.398 . S
C499 C505 1.491 . S
C500 H491 0.950 . S
C500 C499 1.398 . S
C500 C501 1.391 . S
C501 H489 0.950 . S
C501 C497 1.383 1_455 S
C501 C500 1.391 . S
C502 H492 0.950 1_554 S
C502 C503 1.386 . S
C502 C504 1.391 . S
C503 C502 1.386 . S
C503 C507 1.393 . S
C504 H493 0.950 . S
C504 C502 1.391 . S
C504 C505 1.400 . S
C505 C499 1.491 . S
C505 C504 1.400 . S
C505 C506 1.398 . S
C506 H494 0.950 1_455 S
C506 C505 1.398 . S
C506 C507 1.391 . S
C507 H495 0.950 1_455 S
C507 C503 1.393 . S
C507 C506 1.391 . S
H508 C516 0.950 . S
H509 C521 0.950 . S
H510 C518 0.950 . S
H511 C520 0.950 . S
H512 C522 0.950 . S
H513 C524 0.950 . S
H514 C526 0.950 1_565 S
H515 C527 0.945 1_556 S
C516 H508 0.950 . S
C516 C517 1.386 . S
C516 C518 1.391 . S
C517 C516 1.386 . S
C517 C521 1.393 1_565 S
C518 H510 0.950 . S
C518 C516 1.391 . S
C518 C519 1.400 1_565 S
C519 C518 1.400 1_545 S
C519 C520 1.398 . S
C519 C525 1.491 . S
C520 H511 0.950 . S
C520 C519 1.398 . S
C520 C521 1.391 . S
C521 H509 0.950 . S
C521 C517 1.393 1_545 S
C521 C520 1.391 . S
C522 H512 0.950 . S
C522 C523 1.386 . S
C522 C524 1.391 . S
C523 C522 1.386 . S
C523 C527 1.396 . S
C524 H513 0.950 . S
C524 C522 1.391 . S
C524 C525 1.400 . S
C525 C519 1.491 . S
C525 C524 1.400 . S
C525 C526 1.398 . S
C526 H514 0.950 1_545 S
C526 C525 1.398 . S
C526 C527 1.396 . S
C527 H515 0.945 1_554 S
C527 C523 1.396 . S
C527 C526 1.396 . S
H528 C536 0.950 . S
H529 C541 0.950 . S
H530 C538 0.950 . S
H531 C540 0.950 . S
H532 C542 0.950 1_556 S
H533 C544 0.950 . S
H534 C546 0.950 . S
H535 C547 0.950 . S
C536 H528 0.950 . S
C536 C537 1.386 . S
C536 C538 1.391 . S
C537 C536 1.386 . S
C537 C541 1.393 . S
C538 H530 0.950 . S
C538 C536 1.391 . S
C538 C539 1.400 . S
C539 C538 1.400 . S
C539 C540 1.398 . S
C539 C545 1.491 . S
C540 H531 0.950 . S
C540 C539 1.398 . S
C540 C541 1.391 . S
C541 H529 0.950 . S
C541 C537 1.393 . S
C541 C540 1.391 . S
C542 H532 0.950 1_554 S
C542 C543 1.386 . S
C542 C544 1.391 . S
C543 C542 1.386 . S
C543 C547 1.393 . S
C544 H533 0.950 . S
C544 C542 1.391 . S
C544 C545 1.400 . S
C545 C539 1.491 . S
C545 C544 1.400 . S
C545 C546 1.398 . S
C546 H534 0.950 . S
C546 C545 1.398 . S
C546 C547 1.391 . S
C547 H535 0.950 . S
C547 C543 1.393 . S
C547 C546 1.391 . S
H548 C556 0.950 . S
H549 C561 0.950 . S
H550 C558 0.950 . S
H551 C560 0.950 . S
H552 C562 0.950 1_556 S
H553 C564 0.950 . S
H554 C566 0.950 . S
H555 C567 0.950 . S
C556 H548 0.950 . S
C556 C557 1.386 . S
C556 C558 1.391 . S
C557 C556 1.386 . S
C557 C561 1.393 . S
C558 H550 0.950 . S
C558 C556 1.391 . S
C558 C559 1.400 . S
C559 C558 1.400 . S
C559 C560 1.398 . S
C559 C565 1.491 . S
C560 H551 0.950 . S
C560 C559 1.398 . S
C560 C561 1.391 . S
C561 H549 0.950 . S
C561 C557 1.393 . S
C561 C560 1.391 . S
C562 H552 0.950 1_554 S
C562 C563 1.386 . S
C562 C564 1.391 . S
C563 C562 1.386 . S
C563 C567 1.393 . S
C564 H553 0.950 . S
C564 C562 1.391 . S
C564 C565 1.400 . S
C565 C559 1.491 . S
C565 C564 1.400 . S
C565 C566 1.398 . S
C566 H554 0.950 . S
C566 C565 1.398 . S
C566 C567 1.391 . S
C567 H555 0.950 . S
C567 C563 1.393 . S
C567 C566 1.391 . S
H568 C576 0.950 . S
H569 C581 0.950 . S
H570 C578 0.950 . S
H571 C580 0.950 . S
H572 C582 0.955 . S
H573 C584 0.950 . S
H574 C586 0.950 . S
H575 C587 0.950 . S
C576 H568 0.950 . S
C576 C577 1.399 . S
C576 C578 1.391 . S
C577 C576 1.399 . S
C577 C581 1.382 1_455 S
C578 H570 0.950 . S
C578 C576 1.391 . S
C578 C579 1.400 . S
C579 C578 1.400 . S
C579 C580 1.398 1_455 S
C579 C585 1.491 . S
C580 H571 0.950 . S
C580 C579 1.398 1_655 S
C580 C581 1.391 . S
C581 H569 0.950 . S
C581 C577 1.382 1_655 S
C581 C580 1.391 . S
C582 H572 0.955 . S
C582 C583 1.380 1_655 S
C582 C584 1.392 . S
C583 C582 1.380 1_455 S
C583 C587 1.393 . S
C584 H573 0.950 . S
C584 C582 1.392 . S
C584 C585 1.400 1_655 S
C585 C579 1.491 . S
C585 C584 1.400 1_455 S
C585 C586 1.398 . S
C586 H574 0.950 . S
C586 C585 1.398 . S
C586 C587 1.391 . S
C587 H575 0.950 . S
C587 C583 1.393 . S
C587 C586 1.391 . S
H588 C596 0.950 . S
H589 C601 0.950 . S
H590 C598 0.950 . S
H591 C600 0.950 . S
H592 C602 0.950 . S
H593 C604 0.950 . S
H594 C606 0.950 . S
H595 C607 0.950 . S
C596 H588 0.950 . S
C596 C597 1.386 1_565 S
C596 C598 1.391 . S
C597 C596 1.386 1_545 S
C597 C601 1.393 . S
C598 H590 0.950 . S
C598 C596 1.391 . S
C598 C599 1.400 1_565 S
C599 C598 1.400 1_545 S
C599 C600 1.398 . S
C599 C605 1.491 . S
C600 H591 0.950 . S
C600 C599 1.398 . S
C600 C601 1.391 . S
C601 H589 0.950 . S
C601 C597 1.393 . S
C601 C600 1.391 . S
C602 H592 0.950 . S
C602 C603 1.386 . S
C602 C604 1.391 . S
C603 C602 1.386 . S
C603 C607 1.393 1_545 S
C604 H593 0.950 . S
C604 C602 1.391 . S
C604 C605 1.400 . S
C605 C599 1.491 . S
C605 C604 1.400 . S
C605 C606 1.398 1_545 S
C606 H594 0.950 . S
C606 C605 1.398 1_565 S
C606 C607 1.391 . S
C607 H595 0.950 . S
C607 C603 1.393 1_565 S
C607 C606 1.391 . S
H608 C616 0.950 . S
H609 C621 0.950 . S
H610 C618 0.950 . S
H611 C620 0.950 . S
H612 C622 0.950 . S
H613 C624 0.950 . S
H614 C626 0.950 . S
H615 C627 0.950 . S
C616 H608 0.950 . S
C616 C617 1.386 . S
C616 C618 1.391 . S
C617 C616 1.386 . S
C617 C621 1.393 . S
C618 H610 0.950 . S
C618 C616 1.391 . S
C618 C619 1.400 . S
C619 C618 1.400 . S
C619 C620 1.398 . S
C619 C625 1.491 . S
C620 H611 0.950 . S
C620 C619 1.398 . S
C620 C621 1.391 . S
C621 H609 0.950 . S
C621 C617 1.393 . S
C621 C620 1.391 . S
C622 H612 0.950 . S
C622 C623 1.386 . S
C622 C624 1.391 . S
C623 C622 1.386 . S
C623 C627 1.393 . S
C624 H613 0.950 . S
C624 C622 1.391 . S
C624 C625 1.400 . S
C625 C619 1.491 . S
C625 C624 1.400 . S
C625 C626 1.398 . S
C626 H614 0.950 . S
C626 C625 1.398 . S
C626 C627 1.391 . S
C627 H615 0.950 . S
C627 C623 1.393 . S
C627 C626 1.391 . S
H628 C636 0.950 . S
H629 C641 0.950 . S
H630 C638 0.950 . S
H631 C640 0.950 . S
H632 C642 0.950 . S
H633 C644 0.950 . S
H634 C646 0.950 . S
H635 C647 0.950 . S
C636 H628 0.950 . S
C636 C637 1.386 . S
C636 C638 1.391 . S
C637 C636 1.386 . S
C637 C641 1.393 . S
C638 H630 0.950 . S
C638 C636 1.391 . S
C638 C639 1.400 . S
C639 C638 1.400 . S
C639 C640 1.398 . S
C639 C645 1.491 . S
C640 H631 0.950 . S
C640 C639 1.398 . S
C640 C641 1.391 . S
C641 H629 0.950 . S
C641 C637 1.393 . S
C641 C640 1.391 . S
C642 H632 0.950 . S
C642 C643 1.386 . S
C642 C644 1.391 . S
C643 C642 1.386 . S
C643 C647 1.393 . S
C644 H633 0.950 . S
C644 C642 1.391 . S
C644 C645 1.400 . S
C645 C639 1.491 . S
C645 C644 1.400 . S
C645 C646 1.398 . S
C646 H634 0.950 . S
C646 C645 1.398 . S
C646 C647 1.391 . S
C647 H635 0.950 . S
C647 C643 1.393 . S
C647 C646 1.391 . S
H648 C656 0.950 . S
H649 C661 0.950 . S
H650 C658 0.950 . S
H651 C660 0.950 . S
H652 C662 0.950 . S
H653 C664 0.950 . S
H654 C666 0.950 . S
H655 C667 0.950 . S
C656 H648 0.950 . S
C656 C657 1.404 . S
C656 C658 1.391 . S
C657 C656 1.404 . S
C657 C661 1.376 1_655 S
C658 H650 0.950 . S
C658 C656 1.391 . S
C658 C659 1.400 . S
C659 C658 1.400 . S
C659 C660 1.398 1_655 S
C659 C665 1.491 . S
C660 H651 0.950 . S
C660 C659 1.398 1_455 S
C660 C661 1.391 . S
C661 H649 0.950 . S
C661 C657 1.376 1_455 S
C661 C660 1.391 . S
C662 H652 0.950 . S
C662 C663 1.386 1_455 S
C662 C664 1.391 . S
C663 C662 1.386 1_655 S
C663 C667 1.393 . S
C664 H653 0.950 . S
C664 C662 1.391 . S
C664 C665 1.400 1_455 S
C665 C659 1.491 . S
C665 C664 1.400 1_655 S
C665 C666 1.398 . S
C666 H654 0.950 . S
C666 C665 1.398 . S
C666 C667 1.391 . S
C667 H655 0.950 . S
C667 C663 1.393 . S
C667 C666 1.391 . S
H668 C676 0.950 . S
H669 C681 0.950 . S
H670 C678 0.950 . S
H671 C680 0.950 . S
H672 C682 0.950 . S
H673 C684 0.950 . S
H674 C686 0.950 . S
H675 C687 0.950 . S
C676 H668 0.950 . S
C676 C677 1.386 1_545 S
C676 C678 1.391 . S
C677 C676 1.386 1_565 S
C677 C681 1.393 . S
C678 H670 0.950 . S
C678 C676 1.391 . S
C678 C679 1.400 1_545 S
C679 C678 1.400 1_565 S
C679 C680 1.398 . S
C679 C685 1.491 . S
C680 H671 0.950 . S
C680 C679 1.398 . S
C680 C681 1.391 . S
C681 H669 0.950 . S
C681 C677 1.393 . S
C681 C680 1.391 . S
C682 H672 0.950 . S
C682 C683 1.386 . S
C682 C684 1.391 . S
C683 C682 1.386 . S
C683 C687 1.393 1_565 S
C684 H673 0.950 . S
C684 C682 1.391 . S
C684 C685 1.400 . S
C685 C679 1.491 . S
C685 C684 1.400 . S
C685 C686 1.398 1_565 S
C686 H674 0.950 . S
C686 C685 1.398 1_545 S
C686 C687 1.391 . S
C687 H675 0.950 . S
C687 C683 1.393 1_545 S
C687 C686 1.391 . S
H688 C696 0.950 . S
H689 C701 0.950 . S
H690 C698 0.950 . S
H691 C700 0.950 . S
H692 C702 0.950 . S
H693 C704 0.950 . S
H694 C706 0.950 . S
H695 C707 0.950 . S
C696 H688 0.950 . S
C696 C697 1.386 . S
C696 C698 1.391 . S
C697 C696 1.386 . S
C697 C701 1.393 . S
C698 H690 0.950 . S
C698 C696 1.391 . S
C698 C699 1.400 . S
C699 C698 1.400 . S
C699 C700 1.398 . S
C699 C705 1.491 . S
C700 H691 0.950 . S
C700 C699 1.398 . S
C700 C701 1.391 . S
C701 H689 0.950 . S
C701 C697 1.393 . S
C701 C700 1.391 . S
C702 H692 0.950 . S
C702 C703 1.386 . S
C702 C704 1.391 . S
C703 C702 1.386 . S
C703 C707 1.393 . S
C704 H693 0.950 . S
C704 C702 1.391 . S
C704 C705 1.400 . S
C705 C699 1.491 . S
C705 C704 1.400 . S
C705 C706 1.398 . S
C706 H694 0.950 . S
C706 C705 1.398 . S
C706 C707 1.391 . S
C707 H695 0.950 . S
C707 C703 1.393 . S
C707 C706 1.391 . S
H708 C716 0.950 . S
H709 C721 0.950 . S
H710 C718 0.950 . S
H711 C720 0.950 . S
H712 C722 0.950 . S
H713 C724 0.950 . S
H714 C726 0.950 . S
H715 C727 0.950 . S
C716 H708 0.950 . S
C716 C717 1.386 . S
C716 C718 1.391 . S
C717 C716 1.386 . S
C717 C721 1.393 . S
C718 H710 0.950 . S
C718 C716 1.391 . S
C718 C719 1.400 . S
C719 C718 1.400 . S
C719 C720 1.398 . S
C719 C725 1.491 . S
C720 H711 0.950 . S
C720 C719 1.398 . S
C720 C721 1.391 . S
C721 H709 0.950 . S
C721 C717 1.393 . S
C721 C720 1.391 . S
C722 H712 0.950 . S
C722 C723 1.386 . S
C722 C724 1.391 . S
C723 C722 1.386 . S
C723 C727 1.393 . S
C724 H713 0.950 . S
C724 C722 1.391 . S
C724 C725 1.400 . S
C725 C719 1.491 . S
C725 C724 1.400 . S
C725 C726 1.398 . S
C726 H714 0.950 . S
C726 C725 1.398 . S
C726 C727 1.391 . S
C727 H715 0.950 . S
C727 C723 1.393 . S
C727 C726 1.391 . S
C257 C74 1.781 . S
C263 C90 1.882 . S
C283 C130 1.894 . S
C277 C85 1.775 . S
C303 C170 1.893 . S
C297 C52 1.798 . S
C323 C210 1.887 1_455 S
C317 C63 1.797 . S
C343 C103 1.887 1_565 S
C337 C30 1.780 1_565 S
C357 C41 1.797 . S
C363 C143 1.893 . S
C377 C8 1.791 . S
C383 C183 1.893 . S
C397 C19 1.778 1_655 S
C403 C223 1.889 1_655 S
C423 C114 0.569 . S
C417 C62 0.582 . S
C443 C154 0.587 . S
C437 C73 0.560 . S
C463 C194 0.581 . S
C457 C84 0.564 . S
C477 C51 0.556 . S
C483 C234 0.567 . S
C497 C18 0.583 1_655 S
C503 C97 0.569 . S
C523 C137 0.592 . S
C517 C29 0.627 1_565 S
C543 C177 0.570 . S
C537 C40 0.589 . S
C557 C7 0.577 . S
C563 C217 0.564 . S
C577 C60 1.743 . S
C583 C91 2.247 . S
C597 C71 1.702 . S
C603 C131 2.236 . S
C623 C171 2.232 . S
C617 C82 1.709 . S
C643 C211 2.246 . S
C637 C49 1.714 . S
C657 C16 1.753 1_655 S
C663 C110 2.261 . S
C683 C150 2.232 . S
C677 C27 1.768 1_565 S
C703 C190 2.224 . S
C697 C38 1.769 . S
C717 C5 1.797 . S
C723 C230 2.248 . S
