# Generated by pormake.
# Topology scu, (8,4)-cn, num edge types: 1
# Building blocks:
#     Node 0, Type 0, BuildingBlock: GIZVER_clean_sbu_0, # of connection points: 8
#     Node 1, Type 1, BuildingBlock: NAWXER_clean_sbu_0, # of connection points: 4
#     Node 2, Type 1, BuildingBlock: NAWXER_clean_sbu_0, # of connection points: 4
#     Edge 3, Type (0, 1), BuildingBlock: XUDNAN_clean_linker_2, # of connection points: 2
#     Edge 4, Type (0, 1), BuildingBlock: XUDNAN_clean_linker_2, # of connection points: 2
#     Edge 5, Type (0, 1), BuildingBlock: XUDNAN_clean_linker_2, # of connection points: 2
#     Edge 6, Type (0, 1), BuildingBlock: XUDNAN_clean_linker_2, # of connection points: 2
#     Edge 7, Type (0, 1), BuildingBlock: XUDNAN_clean_linker_2, # of connection points: 2
#     Edge 8, Type (0, 1), BuildingBlock: XUDNAN_clean_linker_2, # of connection points: 2
#     Edge 9, Type (0, 1), BuildingBlock: XUDNAN_clean_linker_2, # of connection points: 2
#     Edge 10, Type (0, 1), BuildingBlock: XUDNAN_clean_linker_2, # of connection points: 2
# Relax obj value: 0.017
# Max RMSD: 0.079
# Mean RMSD: 0.059
data_MOF--net-scu--node1-GIZVER_clean_sbu_0--node2-NAWXER_clean_sbu_0--edge1-XUDNAN_clean_linker_2
_symmetry_space_group_name_H-M    P1
_symmetry_Int_Tables_number       1
_symmetry_cell_setting            triclinic
loop_
_symmetry_equiv_pos_as_xyz
'x, y, z'
_cell_length_a     23.235781
_cell_length_b     23.857402
_cell_length_c     21.9871
_cell_angle_alpha  98.669746
_cell_angle_beta   81.659089
_cell_angle_gamma 114.86837
loop_
_atom_site_label
_atom_site_type_symbol
_atom_site_fract_x
_atom_site_fract_y
_atom_site_fract_z
_atom_type_partial_charge
Co0 Co 0.01852 0.96468 0.15045 0.0
Co1 Co 0.11253 0.05832 0.10325 0.0
Co2 Co 1.00202 1.01425 1.01745 0.0
O3 O 0.04852 0.98689 0.06796 0.0
H4 H 0.06666 0.95995 0.04374 0.0
O5 O 0.95905 0.0459 0.96727 0.0
Co6 Co 1.00601 0.08085 0.89259 0.0
Co7 Co 0.90391 0.98856 0.91621 0.0
H8 H 0.93929 0.0713 0.9919 0.0
O9 O 0.18417 0.0553 0.12419 0.0
O10 O 0.09179 0.03908 0.18397 0.0
O11 O 0.10988 0.13852 0.10654 0.0
O12 O 0.01511 0.09426 0.07087 0.0
O13 O 0.08415 0.05238 0.96605 0.0
O14 O 0.04871 0.11816 0.82701 0.0
O15 O 0.98202 0.14547 0.8976 0.0
O16 O 0.04107 1.02089 0.87768 0.0
O17 O 0.98451 0.93169 0.96425 0.0
O18 O 0.90398 0.90848 0.90674 0.0
O19 O 0.93283 0.02662 0.84372 0.0
O20 O 0.83696 1.0017 0.89986 0.0
C21 C 0.03187 0.91182 0.20865 0.0
C22 C 0.91673 0.98824 0.12822 0.0
C23 C 0.0575 0.13991 0.09931 0.0
C24 C 0.15167 0.04757 0.17788 0.0
C25 C 0.02317 0.15692 0.84871 0.0
C26 C 0.0875 0.03298 0.90902 0.0
C27 C 0.94441 0.89445 0.92645 0.0
C28 C 0.87504 0.02463 0.8518 0.0
O29 O 0.99403 0.94004 0.22526 0.0
O30 O 0.06196 0.9166 0.15328 0.0
O31 O 0.92079 0.97516 0.06973 0.0
O32 O 0.96599 1.00944 0.15812 0.0
C33 C 0.98035 0.57282 0.61739 0.0
C34 C 0.98833 0.43897 0.42617 0.0
O35 O 0.03655 0.58133 0.59299 0.0
Zn36 Zn 0.08274 0.54836 0.51366 0.0
O37 O 0.93194 0.53434 0.59022 0.0
Zn38 Zn 0.97994 0.50688 0.52091 0.0
O39 O 0.02286 0.46494 0.56939 0.0
O40 O 0.12752 0.51384 0.55458 0.0
O41 O 0.93829 0.44124 0.45663 0.0
O42 O 0.04293 0.47628 0.44358 0.0
O43 O 0.12753 0.62219 0.46837 0.0
O44 O 0.02288 0.58878 0.47442 0.0
C45 C 0.07852 0.47175 0.5794 0.0
C46 C 0.07835 0.62804 0.45685 0.0
C47 C 0.61632 0.09098 0.58308 0.0
C48 C 0.44535 0.0772 0.46886 0.0
O49 O 0.57499 0.03526 0.57182 0.0
Zn50 Zn 0.49094 0.98726 0.52281 0.0
O51 O 0.61156 0.13611 0.56322 0.0
Zn52 Zn 0.53406 0.08629 0.52381 0.0
O53 O 0.4663 0.04969 0.60144 0.0
O54 O 0.42759 0.94687 0.58729 0.0
O55 O 0.49415 0.12581 0.48289 0.0
O56 O 0.43949 0.02434 0.4813 0.0
O57 O 0.51678 0.93775 0.45484 0.0
O58 O 0.5702 0.03853 0.44986 0.0
C59 C 0.42926 0.99641 0.61956 0.0
C60 C 0.5603 0.98266 0.4284 0.0
H61 H 0.12879 0.23974 0.1767 0.0
H62 H 0.9427 0.14849 0.10598 0.0
H63 H 0.90477 0.217 0.17952 0.0
H64 H 0.0735 0.25405 0.33186 0.0
H65 H 0.13578 0.32914 0.35093 0.0
H66 H 0.1506 0.27727 0.28862 0.0
H67 H 0.18455 0.36164 0.21312 0.0
H68 H 0.17072 0.41418 0.27545 0.0
H69 H 0.13134 0.39715 0.20587 0.0
H70 H 0.88371 0.28895 0.26893 0.0
H71 H 0.8853 0.3646 0.3602 0.0
H72 H 0.08532 0.40892 0.36965 0.0
C73 C 0.08062 0.23522 0.17536 0.0
C74 C 0.03909 0.18882 0.13505 0.0
C75 C 0.9759 0.18396 0.13585 0.0
C76 C 0.95365 0.22254 0.17774 0.0
C77 C 0.99523 0.26636 0.21821 0.0
C78 C 0.05767 0.27351 0.21666 0.0
C79 C 0.09197 0.32224 0.26673 0.0
C80 C 0.11425 0.29396 0.31221 0.0
C81 C 0.14795 0.37706 0.2386 0.0
C82 C 0.039 0.34092 0.29697 0.0
C83 C 0.98339 0.30813 0.26869 0.0
C84 C 0.92733 0.31564 0.29085 0.0
C85 C 0.92853 0.35845 0.34282 0.0
C86 C 0.98549 0.39319 0.37172 0.0
C87 C 0.04114 0.38389 0.34819 0.0
H88 H 0.89313 0.06003 0.22867 0.0
H89 H 0.80068 0.89655 0.10384 0.0
H90 H 0.6975 0.87682 0.16627 0.0
H91 H 0.80762 1.00183 0.36771 0.0
H92 H 0.8022 0.07343 0.40111 0.0
H93 H 0.86793 0.07512 0.34576 0.0
H94 H 0.84071 0.13838 0.27737 0.0
H95 H 0.77502 0.13734 0.33258 0.0
H96 H 0.76157 0.10882 0.25292 0.0
H97 H 0.60672 0.87003 0.24911 0.0
H98 H 0.53306 0.88448 0.33773 0.0
H99 H 0.68445 0.057 0.40174 0.0
C100 C 0.85101 1.0203 0.21438 0.0
C101 C 0.85453 0.97942 0.16199 0.0
C102 C 0.79857 0.92839 0.14394 0.0
C103 C 0.73999 0.91673 0.17919 0.0
C104 C 0.73823 0.95741 0.23138 0.0
C105 C 0.7921 1.00889 0.2481 0.0
C106 C 0.77755 0.04614 0.30541 0.0
C107 C 0.8161 0.04926 0.3581 0.0
C108 C 0.78939 0.11152 0.29119 0.0
C109 C 0.70733 1.00687 0.31918 0.0
C110 C 0.68548 0.95552 0.27646 0.0
C111 C 0.62298 0.91064 0.28224 0.0
C112 C 0.58164 0.91895 0.3327 0.0
C113 C 0.60295 0.97219 0.37578 0.0
C114 C 0.66654 1.01647 0.36868 0.0
H115 H 0.09191 0.83021 0.19136 0.0
H116 H 0.99575 0.91814 0.33151 0.0
H117 H 1.01001 0.86408 0.41051 0.0
H118 H 0.02192 0.68298 0.24909 0.0
H119 H 0.09192 0.66661 0.23273 0.0
H120 H 0.08066 0.71711 0.18697 0.0
H121 H 0.19027 0.80351 0.21268 0.0
H122 H 0.20173 0.75334 0.25896 0.0
H123 H 0.20642 0.82879 0.29228 0.0
H124 H 0.02526 0.79605 0.47337 0.0
H125 H 0.0374 0.71251 0.51659 0.0
H126 H 0.12402 0.66534 0.33951 0.0
C127 C 0.07458 0.83849 0.23879 0.0
C128 C 0.04271 0.87864 0.25495 0.0
C129 C 0.02007 0.88761 0.31753 0.0
C130 C 0.02834 0.85741 0.36311 0.0
C131 C 0.05926 0.81792 0.34583 0.0
C132 C 0.08193 0.80796 0.28534 0.0
C133 C 0.10939 0.75941 0.27942 0.0
C134 C 0.07383 0.7032 0.23439 0.0
C135 C 0.18123 0.78798 0.25966 0.0
C136 C 0.09654 0.74247 0.34558 0.0
C137 C 0.06849 0.77783 0.38302 0.0
C138 C 0.04819 0.76877 0.44492 0.0
C139 C 0.05536 0.72137 0.46909 0.0
C140 C 0.08285 0.68375 0.43173 0.0
C141 C 0.1047 0.69492 0.36938 0.0
H142 H 0.27981 0.08903 0.18383 0.0
H143 H 0.09894 1.01981 0.29583 0.0
H144 H 0.15531 0.02495 0.38504 0.0
H145 H 0.35473 1.01135 0.24523 0.0
H146 H 0.43201 0.07536 0.24315 0.0
H147 H 0.37698 0.06621 0.18885 0.0
H148 H 0.38549 0.17784 0.22457 0.0
H149 H 0.44036 0.18727 0.27931 0.0
H150 H 0.36874 0.1992 0.30522 0.0
H151 H 0.23148 0.02987 0.45896 0.0
H152 H 0.32177 0.03959 0.51362 0.0
H153 H 0.45313 0.11579 0.35629 0.0
C154 C 0.25185 0.07501 0.22709 0.0
C155 C 0.18469 0.05261 0.23247 0.0
C156 C 0.15023 0.03583 0.29026 0.0
C157 C 0.18191 0.03906 0.34128 0.0
C158 C 0.24818 0.06097 0.3341 0.0
C159 C 0.28275 0.07943 0.27865 0.0
C160 C 0.35354 0.1015 0.28283 0.0
C161 C 0.38089 0.06118 0.23733 0.0
C162 C 0.38911 0.17056 0.27237 0.0
C163 C 0.35354 0.09141 0.34908 0.0
C164 C 0.29223 0.06771 0.37783 0.0
C165 C 0.27971 0.04974 0.43745 0.0
C166 C 0.33109 0.0555 0.46811 0.0
C167 C 0.39401 0.08004 0.43949 0.0
C168 C 0.40551 0.09899 0.37969 0.0
H169 H 0.86884 0.8066 0.84337 0.0
H170 H 0.03446 0.85239 0.94197 0.0
H171 H 0.05249 0.76429 0.88146 0.0
H172 H 0.81684 0.63497 0.82243 0.0
H173 H 0.79449 0.62965 0.74592 0.0
H174 H 0.78842 0.68945 0.80392 0.0
H175 H 0.85945 0.77317 0.73093 0.0
H176 H 0.86612 0.71391 0.67296 0.0
H177 H 0.93699 0.7765 0.70022 0.0
H178 H 0.06128 0.68183 0.8012 0.0
H179 H 0.06035 0.6104 0.70754 0.0
H180 H 0.88894 0.61782 0.66047 0.0
C181 C 0.90793 0.79723 0.85371 0.0
C182 C 0.94996 0.8363 0.89797 0.0
C183 C 1.00115 0.82282 0.90895 0.0
C184 C 1.01176 0.77284 0.87476 0.0
C185 C 0.97046 0.73654 0.83022 0.0
C186 C 0.91928 0.74784 0.81994 0.0
C187 C 0.88586 0.7062 0.76521 0.0
C188 C 0.81733 0.66246 0.78561 0.0
C189 C 0.88723 0.74476 0.71435 0.0
C190 C 0.92737 0.67079 0.74499 0.0
C191 C 0.97549 0.68863 0.7836 0.0
C192 C 0.02316 0.66665 0.77142 0.0
C193 C 0.02234 0.62633 0.71796 0.0
C194 C 0.97422 0.60829 0.67719 0.0
C195 C 0.92532 0.62971 0.69166 0.0
H196 H 0.09927 0.96493 0.79949 0.0
H197 H 0.20519 0.08152 0.95186 0.0
H198 H 0.30308 0.07342 0.8991 0.0
H199 H 0.18783 0.86325 0.76728 0.0
H200 H 0.18402 0.85692 0.68509 0.0
H201 H 0.12104 0.86664 0.73782 0.0
H202 H 0.13706 0.96361 0.68621 0.0
H203 H 0.19991 0.95422 0.63349 0.0
H204 H 0.21487 0.02671 0.68075 0.0
H205 H 0.39131 0.06628 0.82356 0.0
H206 H 0.46321 0.05537 0.73224 0.0
H207 H 0.30001 0.93693 0.63203 0.0
C208 C 0.14292 0.98807 0.8221 0.0
C209 C 0.14482 0.0242 0.87956 0.0
C210 C 0.20268 0.05356 0.90786 0.0
C211 C 0.25847 0.0491 0.87833 0.0
C212 C 0.25526 1.01402 0.8212 0.0
C213 C 0.19882 0.98327 0.79372 0.0
C214 C 0.20895 0.95118 0.73074 0.0
C215 C 0.17335 0.88029 0.73023 0.0
C216 C 0.18904 0.97541 0.67982 0.0
C217 C 0.28045 0.97113 0.72586 0.0
C218 C 0.30614 1.00708 0.77878 0.0
C219 C 0.37174 0.03676 0.78263 0.0
C220 C 0.41215 0.03043 0.73072 0.0
C221 C 0.38674 0.99402 0.67628 0.0
C222 C 0.32021 0.963 0.6742 0.0
H223 H 0.94971 0.21373 0.81901 0.0
H224 H 0.14257 0.22553 0.80424 0.0
H225 H 0.17901 0.3115 0.73891 0.0
H226 H 0.95103 0.23632 0.6654 0.0
H227 H 0.9063 0.28374 0.67968 0.0
H228 H 0.8948 0.22887 0.73286 0.0
H229 H 0.92152 0.31506 0.82348 0.0
H230 H 0.93153 0.37071 0.7714 0.0
H231 H 0.99482 0.38364 0.81764 0.0
H232 H 0.19413 0.39072 0.66929 0.0
H233 H 0.18611 0.45871 0.59939 0.0
H234 H 0.98342 0.39432 0.65548 0.0
C235 C 0.99979 0.23575 0.80334 0.0
C236 C 0.04357 0.2136 0.81715 0.0
C237 C 0.10842 0.24214 0.79435 0.0
C238 C 0.12964 0.29104 0.75727 0.0
C239 C 0.08536 0.31089 0.74291 0.0
C240 C 0.02182 0.28449 0.76528 0.0
C241 C 0.98379 0.31231 0.73922 0.0
C242 C 0.9309 0.26229 0.70205 0.0
C243 C 0.9563 0.34753 0.79103 0.0
C244 C 0.03553 0.35669 0.69755 0.0
C245 C 0.09392 0.35583 0.70114 0.0
C246 C 0.14871 0.39216 0.66628 0.0
C247 C 0.14373 0.43055 0.62661 0.0
C248 C 0.08424 0.43173 0.6216 0.0
C249 C 0.02963 0.39431 0.65788 0.0
H250 H 0.75356 1.0123 0.84971 0.0
H251 H 0.94033 0.08379 0.74814 0.0
H252 H 0.89674 0.11907 0.67238 0.0
H253 H 0.66723 0.9516 0.71944 0.0
H254 H 0.60086 0.96932 0.75417 0.0
H255 H 0.6489 0.95526 0.8021 0.0
H256 H 0.67022 0.06215 0.86498 0.0
H257 H 0.62271 0.07682 0.81669 0.0
H258 H 0.70379 0.13145 0.82544 0.0
H259 H 0.83021 0.14673 0.60751 0.0
H260 H 0.74488 0.14836 0.55215 0.0
H261 H 0.60346 0.05268 0.69506 0.0
C262 C 0.78583 0.03606 0.81207 0.0
C263 C 0.85062 0.04596 0.80537 0.0
C264 C 0.89062 0.07619 0.7546 0.0
C265 C 0.86634 0.09673 0.71156 0.0
C266 C 0.80216 0.08676 0.72016 0.0
C267 C 0.76246 0.0563 0.76886 0.0
C268 C 0.69429 0.04618 0.76565 0.0
C269 C 0.65027 0.97647 0.75996 0.0
C270 C 0.67144 0.08126 0.82151 0.0
C271 C 0.70123 0.07481 0.70692 0.0
C272 C 0.76389 0.09943 0.68184 0.0
C273 C 0.7811 0.12764 0.62687 0.0
C274 C 0.73264 0.12882 0.59603 0.0
C275 C 0.6682 0.10095 0.61995 0.0
C276 C 0.65264 0.07463 0.67635 0.0
loop_
_geom_bond_atom_site_label_1
_geom_bond_atom_site_label_2
_geom_bond_distance
_geom_bond_site_symmetry_2
_ccdc_geom_bond_type
Co0 O3 2.042 . S
Co0 O10 2.264 1_565 S
Co0 O29 2.286 1_455 S
Co0 O30 2.069 . S
Co0 O32 2.015 1_455 S
Co1 O3 2.122 1_545 S
Co1 O9 2.073 . S
Co1 O10 2.327 . S
Co1 O11 1.976 . S
Co2 O3 2.085 1_545 S
Co2 O5 2.089 1_454 S
Co2 O12 2.117 . S
Co2 O13 2.145 1_554 S
Co2 O17 2.106 1_444 S
Co2 O31 2.142 1_445 S
O3 Co0 2.042 . S
O3 Co1 2.122 1_565 S
O3 Co2 2.085 1_565 S
O3 H4 0.980 . S
H4 O3 0.980 . S
O5 Co2 2.089 1_656 S
O5 Co6 2.045 . S
O5 Co7 2.122 1_545 S
O5 H8 0.980 . S
Co6 O5 2.045 . S
Co6 O14 2.287 1_655 S
Co6 O15 2.079 . S
Co6 O16 2.003 1_655 S
Co6 O19 2.273 1_545 S
Co7 O5 2.122 1_565 S
Co7 O18 1.976 . S
Co7 O19 2.327 . S
Co7 O20 2.073 . S
H8 O5 0.980 . S
O9 Co1 2.073 . S
O9 C24 1.245 1_545 S
O10 Co0 2.264 1_545 S
O10 Co1 2.327 . S
O10 C24 1.257 1_545 S
O11 Co1 1.976 . S
O11 C23 1.251 . S
O12 Co2 2.117 . S
O12 C23 1.274 . S
O13 Co2 2.145 1_556 S
O13 C26 1.246 . S
O14 Co6 2.287 1_455 S
O14 C25 1.259 1_455 S
O15 Co6 2.079 . S
O15 C25 1.289 . S
O16 Co6 2.003 1_455 S
O16 C26 1.257 . S
O17 Co2 2.106 1_666 S
O17 C27 1.274 . S
O18 Co7 1.976 . S
O18 C27 1.251 . S
O19 Co6 2.273 1_565 S
O19 Co7 2.327 . S
O19 C28 1.257 1_565 S
O20 Co7 2.073 . S
O20 C28 1.245 1_565 S
C21 O29 1.259 1_455 S
C21 O30 1.289 . S
C22 O31 1.246 . S
C22 O32 1.257 . S
C23 O11 1.251 . S
C23 O12 1.274 . S
C24 O9 1.245 1_565 S
C24 O10 1.257 1_565 S
C25 O14 1.259 1_655 S
C25 O15 1.289 . S
C26 O13 1.246 . S
C26 O16 1.257 . S
C27 O17 1.274 . S
C27 O18 1.251 . S
C28 O19 1.257 1_545 S
C28 O20 1.245 1_545 S
O29 Co0 2.286 1_655 S
O29 C21 1.259 1_655 S
O30 Co0 2.069 . S
O30 C21 1.289 . S
O31 Co2 2.142 1_665 S
O31 C22 1.246 . S
O32 Co0 2.015 1_655 S
O32 C22 1.257 . S
C33 O35 1.254 . S
C33 O37 1.253 1_455 S
C34 O41 1.245 . S
C34 O42 1.259 1_655 S
O35 C33 1.254 . S
O35 Zn36 2.028 . S
Zn36 O35 2.028 . S
Zn36 O40 2.035 . S
Zn36 O42 2.035 . S
Zn36 O43 2.028 . S
O37 C33 1.253 1_655 S
O37 Zn38 2.035 . S
Zn38 O37 2.035 . S
Zn38 O39 2.028 . S
Zn38 O41 2.028 . S
Zn38 O44 2.035 . S
O39 Zn38 2.028 . S
O39 C45 1.245 . S
O40 Zn36 2.035 . S
O40 C45 1.259 1_455 S
O41 C34 1.245 . S
O41 Zn38 2.028 . S
O42 C34 1.259 1_455 S
O42 Zn36 2.035 . S
O43 Zn36 2.028 . S
O43 C46 1.254 . S
O44 Zn38 2.035 . S
O44 C46 1.253 1_655 S
C45 O39 1.245 . S
C45 O40 1.259 1_655 S
C46 O43 1.254 . S
C46 O44 1.253 1_455 S
C47 O49 1.246 1_545 S
C47 O51 1.260 . S
C48 O55 1.254 . S
C48 O56 1.246 1_545 S
O49 C47 1.246 1_565 S
O49 Zn50 2.028 . S
Zn50 O49 2.028 . S
Zn50 O54 2.035 . S
Zn50 O56 2.035 . S
Zn50 O57 2.028 . S
O51 C47 1.260 . S
O51 Zn52 2.035 . S
Zn52 O51 2.035 . S
Zn52 O53 2.028 . S
Zn52 O55 2.028 . S
Zn52 O58 2.035 . S
O53 Zn52 2.028 . S
O53 C59 1.255 . S
O54 Zn50 2.035 . S
O54 C59 1.247 1_565 S
O55 C48 1.254 . S
O55 Zn52 2.028 . S
O56 C48 1.246 1_565 S
O56 Zn50 2.035 . S
O57 Zn50 2.028 . S
O57 C60 1.246 1_565 S
O58 Zn52 2.035 . S
O58 C60 1.260 . S
C59 O53 1.255 . S
C59 O54 1.247 1_545 S
C60 O57 1.246 1_545 S
C60 O58 1.260 . S
H61 C73 0.930 . S
H62 C75 0.930 . S
H63 C76 0.930 . S
H64 C80 0.959 . S
H65 C80 0.959 . S
H66 C80 0.961 . S
H67 C81 0.960 . S
H68 C81 0.961 . S
H69 C81 0.959 . S
H70 C84 0.929 . S
H71 C85 0.931 . S
H72 C87 0.930 . S
C73 H61 0.930 . S
C73 C74 1.399 1_455 S
C73 C78 1.399 . S
C74 C73 1.399 1_655 S
C74 C75 1.376 . S
C75 H62 0.930 . S
C75 C74 1.376 . S
C75 C76 1.388 . S
C76 H63 0.930 . S
C76 C75 1.388 . S
C76 C77 1.390 . S
C77 C76 1.390 . S
C77 C78 1.394 1_655 S
C77 C83 1.465 . S
C78 C73 1.399 . S
C78 C77 1.394 1_455 S
C78 C79 1.516 . S
C79 C78 1.516 . S
C79 C80 1.502 . S
C79 C81 1.561 . S
C79 C82 1.526 . S
C80 H64 0.959 . S
C80 H65 0.959 . S
C80 H66 0.961 . S
C80 C79 1.502 . S
C81 H67 0.960 . S
C81 H68 0.961 . S
C81 H69 0.959 . S
C81 C79 1.561 . S
C82 C79 1.526 . S
C82 C83 1.396 1_455 S
C82 C87 1.390 . S
C83 C77 1.465 . S
C83 C82 1.396 1_655 S
C83 C84 1.399 . S
C84 H70 0.929 . S
C84 C83 1.399 . S
C84 C85 1.385 . S
C85 H71 0.931 . S
C85 C84 1.385 . S
C85 C86 1.389 . S
C86 C85 1.389 . S
C86 C87 1.387 1_655 S
C87 H72 0.930 . S
C87 C82 1.390 . S
C87 C86 1.387 1_455 S
H88 C100 0.930 . S
H89 C102 0.930 . S
H90 C103 0.930 . S
H91 C107 0.959 . S
H92 C107 0.959 . S
H93 C107 0.961 . S
H94 C108 0.960 . S
H95 C108 0.961 . S
H96 C108 0.959 . S
H97 C111 0.929 . S
H98 C112 0.931 . S
H99 C114 0.930 . S
C100 H88 0.930 . S
C100 C101 1.399 1_545 S
C100 C105 1.399 . S
C101 C100 1.399 1_565 S
C101 C102 1.376 . S
C102 H89 0.930 . S
C102 C101 1.376 . S
C102 C103 1.388 . S
C103 H90 0.930 . S
C103 C102 1.388 . S
C103 C104 1.390 . S
C104 C103 1.390 . S
C104 C105 1.394 1_565 S
C104 C110 1.465 . S
C105 C100 1.399 . S
C105 C104 1.394 1_545 S
C105 C106 1.516 . S
C106 C105 1.516 . S
C106 C107 1.502 . S
C106 C108 1.561 . S
C106 C109 1.526 . S
C107 H91 0.959 . S
C107 H92 0.959 . S
C107 H93 0.961 . S
C107 C106 1.502 . S
C108 H94 0.960 . S
C108 H95 0.961 . S
C108 H96 0.959 . S
C108 C106 1.561 . S
C109 C106 1.526 . S
C109 C110 1.396 1_545 S
C109 C114 1.390 . S
C110 C104 1.465 . S
C110 C109 1.396 1_565 S
C110 C111 1.399 . S
C111 H97 0.929 . S
C111 C110 1.399 . S
C111 C112 1.385 . S
C112 H98 0.931 . S
C112 C111 1.385 . S
C112 C113 1.389 . S
C113 C112 1.389 . S
C113 C114 1.387 1_565 S
C114 H99 0.930 . S
C114 C109 1.390 . S
C114 C113 1.387 1_545 S
H115 C127 0.931 . S
H116 C129 0.930 . S
H117 C130 0.930 . S
H118 C134 0.959 . S
H119 C134 0.959 . S
H120 C134 0.961 . S
H121 C135 0.960 . S
H122 C135 0.961 . S
H123 C135 0.959 . S
H124 C138 0.929 . S
H125 C139 0.931 . S
H126 C141 0.931 1_655 S
C127 H115 0.931 . S
C127 C128 1.399 . S
C127 C132 1.399 . S
C128 C127 1.399 . S
C128 C129 1.376 . S
C129 H116 0.930 . S
C129 C128 1.376 . S
C129 C130 1.388 . S
C130 H117 0.930 . S
C130 C129 1.388 . S
C130 C131 1.390 . S
C131 C130 1.390 . S
C131 C132 1.394 . S
C131 C137 1.465 . S
C132 C127 1.399 . S
C132 C131 1.394 . S
C132 C133 1.516 . S
C133 C132 1.516 . S
C133 C134 1.502 1_455 S
C133 C135 1.561 . S
C133 C136 1.526 . S
C134 H118 0.959 . S
C134 H119 0.959 . S
C134 H120 0.961 . S
C134 C133 1.502 1_655 S
C135 H121 0.960 . S
C135 H122 0.961 . S
C135 H123 0.959 . S
C135 C133 1.561 . S
C136 C133 1.526 . S
C136 C137 1.396 . S
C136 C141 1.388 . S
C137 C131 1.465 . S
C137 C136 1.396 . S
C137 C138 1.399 . S
C138 H124 0.929 . S
C138 C137 1.399 . S
C138 C139 1.385 . S
C139 H125 0.931 . S
C139 C138 1.385 . S
C139 C140 1.389 . S
C140 C139 1.389 . S
C140 C141 1.387 . S
C141 H126 0.931 1_455 S
C141 C136 1.388 . S
C141 C140 1.387 . S
H142 C154 0.930 . S
H143 C156 0.930 . S
H144 C157 0.930 . S
H145 C161 0.959 1_565 S
H146 C161 0.959 . S
H147 C161 0.961 . S
H148 C162 0.960 . S
H149 C162 0.961 . S
H150 C162 0.959 . S
H151 C165 0.929 . S
H152 C166 0.931 . S
H153 C168 0.930 . S
C154 H142 0.930 . S
C154 C155 1.399 1_545 S
C154 C159 1.399 . S
C155 C154 1.399 1_565 S
C155 C156 1.376 . S
C156 H143 0.930 . S
C156 C155 1.376 . S
C156 C157 1.388 . S
C157 H144 0.930 . S
C157 C156 1.388 . S
C157 C158 1.390 . S
C158 C157 1.390 . S
C158 C159 1.394 1_565 S
C158 C164 1.465 . S
C159 C154 1.399 . S
C159 C158 1.394 1_545 S
C159 C160 1.516 . S
C160 C159 1.516 . S
C160 C161 1.502 . S
C160 C162 1.561 . S
C160 C163 1.526 . S
C161 H145 0.959 1_545 S
C161 H146 0.959 . S
C161 H147 0.961 . S
C161 C160 1.502 . S
C162 H148 0.960 . S
C162 H149 0.961 . S
C162 H150 0.959 . S
C162 C160 1.561 . S
C163 C160 1.526 . S
C163 C164 1.396 1_545 S
C163 C168 1.390 . S
C164 C158 1.465 . S
C164 C163 1.396 1_565 S
C164 C165 1.399 . S
C165 H151 0.929 . S
C165 C164 1.399 . S
C165 C166 1.385 . S
C166 H152 0.931 . S
C166 C165 1.385 . S
C166 C167 1.389 . S
C167 C166 1.389 . S
C167 C168 1.387 1_565 S
C168 H153 0.930 . S
C168 C163 1.390 . S
C168 C167 1.387 1_545 S
H169 C181 0.930 . S
H170 C183 0.930 . S
H171 C184 0.930 . S
H172 C188 0.959 . S
H173 C188 0.959 . S
H174 C188 0.961 . S
H175 C189 0.960 . S
H176 C189 0.961 1_655 S
H177 C189 0.959 . S
H178 C192 0.929 . S
H179 C193 0.931 . S
H180 C195 0.930 . S
C181 H169 0.930 . S
C181 C182 1.399 1_655 S
C181 C186 1.399 . S
C182 C181 1.399 1_455 S
C182 C183 1.376 . S
C183 H170 0.930 . S
C183 C182 1.376 . S
C183 C184 1.388 . S
C184 H171 0.930 . S
C184 C183 1.388 . S
C184 C185 1.390 . S
C185 C184 1.390 . S
C185 C186 1.394 1_455 S
C185 C191 1.465 . S
C186 C181 1.399 . S
C186 C185 1.394 1_655 S
C186 C187 1.516 . S
C187 C186 1.516 . S
C187 C188 1.502 . S
C187 C189 1.561 1_655 S
C187 C190 1.526 . S
C188 H172 0.959 . S
C188 H173 0.959 . S
C188 H174 0.961 . S
C188 C187 1.502 . S
C189 H175 0.960 . S
C189 H176 0.961 1_455 S
C189 H177 0.959 . S
C189 C187 1.561 1_455 S
C190 C187 1.526 . S
C190 C191 1.396 1_655 S
C190 C195 1.390 . S
C191 C185 1.465 . S
C191 C190 1.396 1_455 S
C191 C192 1.399 . S
C192 H178 0.929 . S
C192 C191 1.399 . S
C192 C193 1.385 . S
C193 H179 0.931 . S
C193 C192 1.385 . S
C193 C194 1.389 . S
C194 C193 1.389 . S
C194 C195 1.387 1_455 S
C195 H180 0.930 . S
C195 C190 1.390 . S
C195 C194 1.387 1_655 S
H196 C208 0.930 . S
H197 C210 0.930 . S
H198 C211 0.930 . S
H199 C215 0.959 . S
H200 C215 0.959 1_565 S
H201 C215 0.961 1_565 S
H202 C216 0.960 . S
H203 C216 0.961 . S
H204 C216 0.959 . S
H205 C219 0.929 . S
H206 C220 0.931 . S
H207 C222 0.930 . S
C208 H196 0.930 . S
C208 C209 1.399 1_565 S
C208 C213 1.399 . S
C209 C208 1.399 1_545 S
C209 C210 1.376 . S
C210 H197 0.930 . S
C210 C209 1.376 . S
C210 C211 1.388 . S
C211 H198 0.930 . S
C211 C210 1.388 . S
C211 C212 1.390 . S
C212 C211 1.390 . S
C212 C213 1.394 1_545 S
C212 C218 1.465 . S
C213 C208 1.399 . S
C213 C212 1.394 1_565 S
C213 C214 1.516 . S
C214 C213 1.516 . S
C214 C215 1.502 1_565 S
C214 C216 1.561 . S
C214 C217 1.526 . S
C215 H199 0.959 . S
C215 H200 0.959 1_545 S
C215 H201 0.961 1_545 S
C215 C214 1.502 1_545 S
C216 H202 0.960 . S
C216 H203 0.961 . S
C216 H204 0.959 . S
C216 C214 1.561 . S
C217 C214 1.526 . S
C217 C218 1.396 1_565 S
C217 C222 1.390 . S
C218 C212 1.465 . S
C218 C217 1.396 1_545 S
C218 C219 1.399 . S
C219 H205 0.929 . S
C219 C218 1.399 . S
C219 C220 1.385 . S
C220 H206 0.931 . S
C220 C219 1.385 . S
C220 C221 1.389 . S
C221 C220 1.389 . S
C221 C222 1.387 1_545 S
C222 H207 0.930 . S
C222 C217 1.390 . S
C222 C221 1.387 1_565 S
H223 C235 0.930 . S
H224 C237 0.930 . S
H225 C238 0.930 . S
H226 C242 0.959 . S
H227 C242 0.959 . S
H228 C242 0.961 . S
H229 C243 0.960 . S
H230 C243 0.961 . S
H231 C243 0.959 1_455 S
H232 C246 0.929 . S
H233 C247 0.931 . S
H234 C249 0.930 . S
C235 H223 0.930 . S
C235 C236 1.399 . S
C235 C240 1.399 . S
C236 C235 1.399 . S
C236 C237 1.376 1_655 S
C237 H224 0.930 . S
C237 C236 1.376 1_455 S
C237 C238 1.388 . S
C238 H225 0.930 . S
C238 C237 1.388 . S
C238 C239 1.390 . S
C239 C238 1.390 . S
C239 C240 1.394 1_455 S
C239 C245 1.465 . S
C240 C235 1.399 . S
C240 C239 1.394 1_655 S
C240 C241 1.516 . S
C241 C240 1.516 . S
C241 C242 1.502 . S
C241 C243 1.561 . S
C241 C244 1.526 . S
C242 H226 0.959 . S
C242 H227 0.959 . S
C242 H228 0.961 . S
C242 C241 1.502 . S
C243 H229 0.960 . S
C243 H230 0.961 . S
C243 H231 0.959 1_655 S
C243 C241 1.561 . S
C244 C241 1.526 . S
C244 C245 1.396 1_655 S
C244 C249 1.390 . S
C245 C239 1.465 . S
C245 C244 1.396 1_455 S
C245 C246 1.399 . S
C246 H232 0.929 . S
C246 C245 1.399 . S
C246 C247 1.385 . S
C247 H233 0.931 . S
C247 C246 1.385 . S
C247 C248 1.389 . S
C248 C247 1.389 . S
C248 C249 1.387 1_455 S
C249 H234 0.930 . S
C249 C244 1.390 . S
C249 C248 1.387 1_655 S
H250 C262 0.930 . S
H251 C264 0.930 . S
H252 C265 0.930 . S
H253 C269 0.959 . S
H254 C269 0.959 . S
H255 C269 0.961 . S
H256 C270 0.960 . S
H257 C270 0.961 . S
H258 C270 0.959 . S
H259 C273 0.929 . S
H260 C274 0.931 . S
H261 C276 0.930 . S
C262 H250 0.930 . S
C262 C263 1.399 . S
C262 C267 1.399 . S
C263 C262 1.399 . S
C263 C264 1.376 1_545 S
C264 H251 0.930 . S
C264 C263 1.376 1_565 S
C264 C265 1.388 . S
C265 H252 0.930 . S
C265 C264 1.388 . S
C265 C266 1.390 . S
C266 C265 1.390 . S
C266 C267 1.394 1_565 S
C266 C272 1.465 . S
C267 C262 1.399 . S
C267 C266 1.394 1_545 S
C267 C268 1.516 . S
C268 C267 1.516 . S
C268 C269 1.502 . S
C268 C270 1.561 . S
C268 C271 1.526 . S
C269 H253 0.959 . S
C269 H254 0.959 . S
C269 H255 0.961 . S
C269 C268 1.502 . S
C270 H256 0.960 . S
C270 H257 0.961 . S
C270 H258 0.959 . S
C270 C268 1.561 . S
C271 C268 1.526 . S
C271 C272 1.396 1_545 S
C271 C276 1.390 . S
C272 C266 1.465 . S
C272 C271 1.396 1_565 S
C272 C273 1.399 . S
C273 H259 0.929 . S
C273 C272 1.399 . S
C273 C274 1.385 . S
C274 H260 0.931 . S
C274 C273 1.385 . S
C274 C275 1.389 . S
C275 C274 1.389 . S
C275 C276 1.387 1_565 S
C276 H261 0.930 . S
C276 C271 1.390 . S
C276 C275 1.387 1_545 S
C74 C23 1.357 1_655 S
C86 C34 1.387 . S
C101 C22 1.409 . S
C113 C60 1.466 1_565 S
C128 C21 1.702 . S
C140 C46 1.721 . S
C155 C24 1.481 . S
C167 C48 1.546 1_565 S
C182 C27 1.359 1_455 S
C194 C33 1.373 . S
C209 C26 1.389 . S
C221 C59 1.481 . S
C248 C45 1.725 1_455 S
C236 C25 1.686 . S
C263 C28 1.448 . S
C275 C47 1.541 1_565 S
