# Generated by pormake.
# Topology iac, (4,6)-cn, num edge types: 1
# Building blocks:
#     Node 0, Type 0, BuildingBlock: TATPOV_clean_sbu_0, # of connection points: 4
#     Node 1, Type 0, BuildingBlock: TATPOV_clean_sbu_0, # of connection points: 4
#     Node 2, Type 0, BuildingBlock: TATPOV_clean_sbu_0, # of connection points: 4
#     Node 3, Type 0, BuildingBlock: TATPOV_clean_sbu_0, # of connection points: 4
#     Node 4, Type 0, BuildingBlock: TATPOV_clean_sbu_0, # of connection points: 4
#     Node 5, Type 0, BuildingBlock: TATPOV_clean_sbu_0, # of connection points: 4
#     Node 6, Type 0, BuildingBlock: TATPOV_clean_sbu_0, # of connection points: 4
#     Node 7, Type 0, BuildingBlock: TATPOV_clean_sbu_0, # of connection points: 4
#     Node 8, Type 0, BuildingBlock: TATPOV_clean_sbu_0, # of connection points: 4
#     Node 9, Type 0, BuildingBlock: TATPOV_clean_sbu_0, # of connection points: 4
#     Node 10, Type 0, BuildingBlock: TATPOV_clean_sbu_0, # of connection points: 4
#     Node 11, Type 0, BuildingBlock: TATPOV_clean_sbu_0, # of connection points: 4
#     Node 12, Type 0, BuildingBlock: TATPOV_clean_sbu_0, # of connection points: 4
#     Node 13, Type 0, BuildingBlock: TATPOV_clean_sbu_0, # of connection points: 4
#     Node 14, Type 0, BuildingBlock: TATPOV_clean_sbu_0, # of connection points: 4
#     Node 15, Type 0, BuildingBlock: TATPOV_clean_sbu_0, # of connection points: 4
#     Node 16, Type 0, BuildingBlock: TATPOV_clean_sbu_0, # of connection points: 4
#     Node 17, Type 0, BuildingBlock: TATPOV_clean_sbu_0, # of connection points: 4
#     Node 18, Type 0, BuildingBlock: TATPOV_clean_sbu_0, # of connection points: 4
#     Node 19, Type 0, BuildingBlock: TATPOV_clean_sbu_0, # of connection points: 4
#     Node 20, Type 0, BuildingBlock: TATPOV_clean_sbu_0, # of connection points: 4
#     Node 21, Type 0, BuildingBlock: TATPOV_clean_sbu_0, # of connection points: 4
#     Node 22, Type 0, BuildingBlock: TATPOV_clean_sbu_0, # of connection points: 4
#     Node 23, Type 0, BuildingBlock: TATPOV_clean_sbu_0, # of connection points: 4
#     Node 24, Type 1, BuildingBlock: VOLQOD_clean_sbu_1, # of connection points: 6
#     Node 25, Type 1, BuildingBlock: VOLQOD_clean_sbu_1, # of connection points: 6
#     Node 26, Type 1, BuildingBlock: VOLQOD_clean_sbu_1, # of connection points: 6
#     Node 27, Type 1, BuildingBlock: VOLQOD_clean_sbu_1, # of connection points: 6
#     Node 28, Type 1, BuildingBlock: VOLQOD_clean_sbu_1, # of connection points: 6
#     Node 29, Type 1, BuildingBlock: VOLQOD_clean_sbu_1, # of connection points: 6
#     Node 30, Type 1, BuildingBlock: VOLQOD_clean_sbu_1, # of connection points: 6
#     Node 31, Type 1, BuildingBlock: VOLQOD_clean_sbu_1, # of connection points: 6
#     Node 32, Type 1, BuildingBlock: VOLQOD_clean_sbu_1, # of connection points: 6
#     Node 33, Type 1, BuildingBlock: VOLQOD_clean_sbu_1, # of connection points: 6
#     Node 34, Type 1, BuildingBlock: VOLQOD_clean_sbu_1, # of connection points: 6
#     Node 35, Type 1, BuildingBlock: VOLQOD_clean_sbu_1, # of connection points: 6
#     Node 36, Type 1, BuildingBlock: VOLQOD_clean_sbu_1, # of connection points: 6
#     Node 37, Type 1, BuildingBlock: VOLQOD_clean_sbu_1, # of connection points: 6
#     Node 38, Type 1, BuildingBlock: VOLQOD_clean_sbu_1, # of connection points: 6
#     Node 39, Type 1, BuildingBlock: VOLQOD_clean_sbu_1, # of connection points: 6
#     Edge 40, Type (0, 1), None
#     Edge 41, Type (0, 1), None
#     Edge 42, Type (0, 1), None
#     Edge 43, Type (0, 1), None
#     Edge 44, Type (0, 1), None
#     Edge 45, Type (0, 1), None
#     Edge 46, Type (0, 1), None
#     Edge 47, Type (0, 1), None
#     Edge 48, Type (0, 1), None
#     Edge 49, Type (0, 1), None
#     Edge 50, Type (0, 1), None
#     Edge 51, Type (0, 1), None
#     Edge 52, Type (0, 1), None
#     Edge 53, Type (0, 1), None
#     Edge 54, Type (0, 1), None
#     Edge 55, Type (0, 1), None
#     Edge 56, Type (0, 1), None
#     Edge 57, Type (0, 1), None
#     Edge 58, Type (0, 1), None
#     Edge 59, Type (0, 1), None
#     Edge 60, Type (0, 1), None
#     Edge 61, Type (0, 1), None
#     Edge 62, Type (0, 1), None
#     Edge 63, Type (0, 1), None
#     Edge 64, Type (0, 1), None
#     Edge 65, Type (0, 1), None
#     Edge 66, Type (0, 1), None
#     Edge 67, Type (0, 1), None
#     Edge 68, Type (0, 1), None
#     Edge 69, Type (0, 1), None
#     Edge 70, Type (0, 1), None
#     Edge 71, Type (0, 1), None
#     Edge 72, Type (0, 1), None
#     Edge 73, Type (0, 1), None
#     Edge 74, Type (0, 1), None
#     Edge 75, Type (0, 1), None
#     Edge 76, Type (0, 1), None
#     Edge 77, Type (0, 1), None
#     Edge 78, Type (0, 1), None
#     Edge 79, Type (0, 1), None
#     Edge 80, Type (0, 1), None
#     Edge 81, Type (0, 1), None
#     Edge 82, Type (0, 1), None
#     Edge 83, Type (0, 1), None
#     Edge 84, Type (0, 1), None
#     Edge 85, Type (0, 1), None
#     Edge 86, Type (0, 1), None
#     Edge 87, Type (0, 1), None
#     Edge 88, Type (0, 1), None
#     Edge 89, Type (0, 1), None
#     Edge 90, Type (0, 1), None
#     Edge 91, Type (0, 1), None
#     Edge 92, Type (0, 1), None
#     Edge 93, Type (0, 1), None
#     Edge 94, Type (0, 1), None
#     Edge 95, Type (0, 1), None
#     Edge 96, Type (0, 1), None
#     Edge 97, Type (0, 1), None
#     Edge 98, Type (0, 1), None
#     Edge 99, Type (0, 1), None
#     Edge 100, Type (0, 1), None
#     Edge 101, Type (0, 1), None
#     Edge 102, Type (0, 1), None
#     Edge 103, Type (0, 1), None
#     Edge 104, Type (0, 1), None
#     Edge 105, Type (0, 1), None
#     Edge 106, Type (0, 1), None
#     Edge 107, Type (0, 1), None
#     Edge 108, Type (0, 1), None
#     Edge 109, Type (0, 1), None
#     Edge 110, Type (0, 1), None
#     Edge 111, Type (0, 1), None
#     Edge 112, Type (0, 1), None
#     Edge 113, Type (0, 1), None
#     Edge 114, Type (0, 1), None
#     Edge 115, Type (0, 1), None
#     Edge 116, Type (0, 1), None
#     Edge 117, Type (0, 1), None
#     Edge 118, Type (0, 1), None
#     Edge 119, Type (0, 1), None
#     Edge 120, Type (0, 1), None
#     Edge 121, Type (0, 1), None
#     Edge 122, Type (0, 1), None
#     Edge 123, Type (0, 1), None
#     Edge 124, Type (0, 1), None
#     Edge 125, Type (0, 1), None
#     Edge 126, Type (0, 1), None
#     Edge 127, Type (0, 1), None
#     Edge 128, Type (0, 1), None
#     Edge 129, Type (0, 1), None
#     Edge 130, Type (0, 1), None
#     Edge 131, Type (0, 1), None
#     Edge 132, Type (0, 1), None
#     Edge 133, Type (0, 1), None
#     Edge 134, Type (0, 1), None
#     Edge 135, Type (0, 1), None
# Relax obj value: 0.320
# Max RMSD: 0.293
# Mean RMSD: 0.179
data_MOF--net-iac--node1-TATPOV_clean_sbu_0--node2-VOLQOD_clean_sbu_1--edge1-none
_symmetry_space_group_name_H-M    P1
_symmetry_Int_Tables_number       1
_symmetry_cell_setting            triclinic
loop_
_symmetry_equiv_pos_as_xyz
'x, y, z'
_cell_length_a     26.411895
_cell_length_b     27.004913
_cell_length_c     27.898345
_cell_angle_alpha  90.616791
_cell_angle_beta   90.520433
_cell_angle_gamma 92.568893
loop_
_atom_site_label
_atom_site_type_symbol
_atom_site_fract_x
_atom_site_fract_y
_atom_site_fract_z
_atom_type_partial_charge
Zn0 Zn 0.08045 0.21107 0.07353 0.0
Zn1 Zn -0.01411 0.21678 0.09547 0.0
O2 O -0.0049 0.26902 0.04081 0.0
O3 O 0.07761 0.26638 0.02783 0.0
O4 O 0.91276 0.2111 0.12342 0.0
O5 O 0.07026 0.14397 0.04378 0.0
O6 O -0.01024 0.14717 0.06221 0.0
C7 C 0.03527 0.28407 0.01852 0.0
C8 C 0.07584 0.25096 0.16534 0.0
O9 O 0.02883 0.2474 0.15399 0.0
O10 O 0.10777 0.23106 0.13867 0.0
C11 C 0.90408 0.1935 0.16525 0.0
O12 O 0.94245 0.18157 0.19236 0.0
C13 C 0.02544 0.12569 0.04107 0.0
Zn14 Zn 0.93583 0.72551 0.40141 0.0
Zn15 Zn 0.0157 0.76444 0.36804 0.0
O16 O 0.00383 0.81354 0.41981 0.0
O17 O 0.92164 0.79446 0.42553 0.0
O18 O 0.0716 0.78142 0.32396 0.0
O19 O 0.9785 0.68315 0.44527 0.0
O20 O 0.03884 0.69895 0.3942 0.0
C21 C 0.95984 0.82293 0.43499 0.0
C22 C 0.92852 0.74343 0.30422 0.0
O23 O 0.96217 0.7744 0.31875 0.0
O24 O 0.91498 0.70783 0.33119 0.0
C25 C 0.07126 0.74968 0.28969 0.0
O26 O 0.03964 0.71078 0.29055 0.0
C27 C 0.02287 0.67605 0.4309 0.0
Zn28 Zn 0.46668 0.65289 0.66357 0.0
Zn29 Zn 0.47139 0.73433 0.60971 0.0
O30 O 0.40419 0.74175 0.65004 0.0
O31 O 0.40226 0.67303 0.69288 0.0
O32 O 0.48617 0.79248 0.56525 0.0
O33 O 0.53361 0.67573 0.69632 0.0
O34 O 0.53437 0.74313 0.65306 0.0
C35 C 0.38301 0.71327 0.68143 0.0
C36 C 0.45736 0.63087 0.56182 0.0
O37 O 0.46499 0.67756 0.55825 0.0
O38 O 0.45795 0.61099 0.60274 0.0
C39 C 0.53089 0.80429 0.55049 0.0
O40 O 0.57006 0.7809 0.56638 0.0
C41 C 0.55359 0.71781 0.68607 0.0
Zn42 Zn 0.44229 0.2394 0.93926 0.0
Zn43 Zn 0.49893 0.25172 0.86128 0.0
O44 O 0.49305 0.3192 0.8956 0.0
O45 O 0.4611 0.30508 -0.03251 0.0
O46 O 0.5515 0.2594 0.81223 0.0
O47 O 0.48096 0.17905 0.96057 0.0
O48 O 0.52595 0.19182 0.89604 0.0
C49 C 0.47783 0.33479 0.93611 0.0
C50 C 0.39479 0.24943 0.83948 0.0
O51 O 0.43735 0.24274 0.82086 0.0
O52 O 0.38931 0.2473 0.88469 0.0
C53 C 0.56435 0.22367 0.7854 0.0
O54 O 0.54011 0.18023 0.7875 0.0
C55 C 0.51791 0.1682 0.93452 0.0
Zn56 Zn 0.03554 0.04364 0.21337 0.0
Zn57 Zn 0.11687 -0.00994 0.22469 0.0
O58 O 0.07612 -0.00919 0.28794 0.0
O59 O 0.00116 0.02046 0.27136 0.0
O60 O 0.17066 0.94103 0.22937 0.0
O61 O 0.01443 0.01055 0.15182 0.0
O62 O 0.08042 0.96527 0.16329 0.0
C63 C 0.03171 0.00238 0.30063 0.0
C64 C 0.13884 0.09439 0.22927 0.0
O65 O 0.15908 0.05331 0.22332 0.0
O66 O 0.09113 0.09757 0.22537 0.0
C67 C 0.19841 0.92975 0.194 0.0
O68 O 0.19245 0.95108 0.15238 0.0
C69 C 0.04084 0.97483 0.1395 0.0
Zn70 Zn 0.29482 0.76964 0.48409 0.0
Zn71 Zn 0.22781 0.84429 0.47846 0.0
O72 O 0.22804 0.80673 0.41462 0.0
O73 O 0.27723 0.74251 0.42037 0.0
O74 O 0.16878 0.88838 0.48039 0.0
O75 O 0.26254 0.74093 0.54373 0.0
O76 O 0.21383 0.80451 0.53859 0.0
C77 C 0.24907 0.76948 0.39605 0.0
C78 C 0.33336 0.87637 0.47347 0.0
O79 O 0.28892 0.89133 0.47773 0.0
O80 O 0.34225 0.83078 0.47796 0.0
C81 C 0.17002 0.93537 0.48498 0.0
O82 O 0.21315 0.96132 0.48312 0.0
C83 C 0.22649 0.76536 0.55959 0.0
Zn84 Zn 0.4064 0.90402 0.71936 0.0
Zn85 Zn 0.36144 -0.00419 0.72437 0.0
O86 O 0.41005 -0.01284 0.78235 0.0
O87 O 0.4464 0.91471 0.77889 0.0
O88 O 0.33152 0.06381 0.72945 0.0
O89 O 0.43659 0.92952 0.65837 0.0
O90 O 0.39687 -0.00033 0.65927 0.0
C91 C 0.43974 0.95549 0.79984 0.0
C92 C 0.29618 0.90259 0.73262 0.0
O93 O 0.29926 0.94933 0.72965 0.0
O94 O 0.33494 0.87711 0.72789 0.0
C95 C 0.28513 0.07055 0.73872 0.0
O96 O 0.25459 0.03278 0.74963 0.0
C97 C 0.42753 0.97078 0.63981 0.0
Zn98 Zn 0.16166 0.13731 0.00704 0.0
Zn99 Zn 0.25445 0.12865 -0.01138 0.0
O100 O 0.23176 0.17892 0.93893 0.0
O101 O 0.14842 0.16903 0.94262 0.0
O102 O 0.32634 0.11205 -0.02628 0.0
O103 O 0.18256 0.18146 0.06412 0.0
O104 O 0.26094 0.15862 0.05857 0.0
C105 C 0.1876 0.18731 0.92259 0.0
C106 C 0.17743 0.03923 -0.01591 0.0
O107 O 0.21862 0.06065 -0.02922 0.0
O108 O 0.14761 0.06271 0.01024 0.0
C109 C 0.34135 0.0763 -0.00132 0.0
O110 O 0.3114 0.05743 0.0318 0.0
C111 C 0.2275 0.18257 0.08047 0.0
Zn112 Zn 0.79405 0.29738 -0.00263 0.0
Zn113 Zn 0.72824 0.35949 -0.01631 0.0
O114 O 0.73396 0.31925 0.92147 0.0
O115 O 0.80707 0.28296 0.9288 0.0
O116 O 0.67172 0.40517 -0.02116 0.0
O117 O 0.74475 0.25208 0.03211 0.0
O118 O 0.70855 0.32211 0.04458 0.0
C119 C 0.76969 0.29461 0.90355 0.0
C120 C 0.82895 0.39735 0.01005 0.0
O121 O 0.78896 0.40557 -0.01286 0.0
O122 O 0.83374 0.35533 0.02899 0.0
C123 C 0.67472 0.45198 -0.026 0.0
O124 O 0.7182 0.47528 -0.03505 0.0
C125 C 0.71347 0.2769 0.05504 0.0
Zn126 Zn 0.94823 0.4052 0.22676 0.0
Zn127 Zn 0.88812 0.48324 0.22292 0.0
O128 O 0.92929 0.48487 0.28718 0.0
O129 O 0.98277 0.42384 0.28636 0.0
O130 O 0.85233 0.54843 0.21707 0.0
O131 O 0.98037 0.42337 0.16514 0.0
O132 O 0.93125 0.48696 0.16155 0.0
C133 C 0.96398 0.46021 0.30719 0.0
C134 C 0.83873 0.38297 0.23425 0.0
O135 O 0.83168 0.42835 0.22579 0.0
O136 O 0.88292 0.36672 0.23475 0.0
C137 C 0.80518 0.55622 0.21338 0.0
O138 O 0.77141 0.51942 0.21778 0.0
C139 C 0.96671 0.46197 0.14438 0.0
Zn140 Zn 0.69088 0.69278 0.48013 0.0
Zn141 Zn 0.76359 0.6343 0.48522 0.0
O142 O 0.76471 0.67011 0.42025 0.0
O143 O 0.71024 0.72964 0.42271 0.0
O144 O 0.8289 0.60006 0.48145 0.0
O145 O 0.70699 0.72425 0.54353 0.0
O146 O 0.77347 0.6785 0.54825 0.0
C147 C 0.74374 0.70665 0.40105 0.0
C148 C 0.66176 0.58589 0.46927 0.0
O149 O 0.707 0.57755 0.48206 0.0
O150 O 0.64796 0.6302 0.46727 0.0
C151 C 0.83852 0.55793 0.49809 0.0
O152 O 0.80368 0.532 0.52142 0.0
C153 C 0.74722 0.71321 0.56504 0.0
Zn154 Zn 0.58042 0.58246 0.70663 0.0
Zn155 Zn 0.61991 0.50193 0.72708 0.0
O156 O 0.57043 0.50899 0.78164 0.0
O157 O 0.56025 0.58952 0.77658 0.0
O158 O 0.65783 0.44236 0.73512 0.0
O159 O 0.53234 0.54395 0.66041 0.0
O160 O 0.58896 0.48725 0.66225 0.0
C161 C 0.55467 0.54927 0.79908 0.0
C162 C 0.68669 0.58949 0.71259 0.0
O163 O 0.67715 0.55047 0.73559 0.0
O164 O 0.652 0.60784 0.68764 0.0
C165 C 0.69252 0.43244 0.70551 0.0
O166 O 0.70261 0.46173 0.66923 0.0
C167 C 0.54919 0.50402 0.64426 0.0
Zn168 Zn 0.94226 0.72242 0.92482 0.0
Zn169 Zn -0.00118 0.71334 0.8457 0.0
O170 O 0.03048 0.76754 0.89127 0.0
O171 O -0.00984 0.77271 0.95942 0.0
O172 O 0.04157 0.7296 0.78789 0.0
O173 O 0.95508 0.65031 0.93218 0.0
O174 O 0.00679 0.64221 0.87084 0.0
C175 C 0.02717 0.78593 0.93337 0.0
C176 C 0.88733 0.73183 0.83542 0.0
O177 O 0.92878 0.71948 0.81742 0.0
O178 O 0.88416 0.74023 0.8801 0.0
C179 C 0.03537 0.76951 0.76462 0.0
O180 O -0.00519 0.79458 0.77261 0.0
C181 C 0.9833 0.62395 0.90692 0.0
Zn182 Zn 0.09941 0.2532 0.5572 0.0
Zn183 Zn -0.00048 0.25173 0.59635 0.0
O184 O 0.00236 0.31407 0.55949 0.0
O185 O 0.07875 0.31831 0.52808 0.0
O186 O 0.93008 0.2545 0.6248 0.0
O187 O 0.08179 0.19407 0.51707 0.0
O188 O 0.00641 0.19258 0.55211 0.0
C189 C 0.03476 0.33473 0.53227 0.0
C190 C 0.08659 0.23553 0.6619 0.0
O191 O 0.04058 0.24441 0.65583 0.0
O192 O 0.11737 0.23833 0.62732 0.0
C193 C 0.92507 0.2781 0.66427 0.0
O194 O 0.96481 0.29846 0.68659 0.0
C195 C 0.03816 0.17428 0.5232 0.0
Zn196 Zn 0.43526 0.24456 0.43293 0.0
Zn197 Zn 0.49234 0.23273 0.35606 0.0
O198 O 0.52189 0.2951 0.39254 0.0
O199 O 0.4849 0.29914 0.46226 0.0
O200 O 0.54009 0.23415 0.2996 0.0
O201 O 0.44311 0.17239 0.44968 0.0
O202 O 0.49889 0.16572 0.3916 0.0
C203 C 0.51913 0.31493 0.43402 0.0
C204 C 0.37978 0.2448 0.34057 0.0
O205 O 0.42204 0.23342 0.3231 0.0
O206 O 0.37714 0.25704 0.38461 0.0
C207 C 0.55749 0.27355 0.27927 0.0
O208 O 0.54361 0.31718 0.29403 0.0
C209 C 0.4741 0.14691 0.42676 0.0
Zn210 Zn 0.49893 0.67849 0.15294 0.0
Zn211 Zn 0.51178 0.76621 0.10404 0.0
O212 O 0.44466 0.77615 0.1373 0.0
O213 O 0.4348 0.70698 0.1779 0.0
O214 O 0.51541 0.8245 0.06038 0.0
O215 O 0.56027 0.69414 0.19078 0.0
O216 O 0.57226 0.76426 0.15066 0.0
C217 C 0.42058 0.74978 0.16755 0.0
C218 C 0.52109 0.66867 0.05175 0.0
O219 O 0.51849 0.71522 0.05197 0.0
O220 O 0.511 0.64404 0.08909 0.0
C221 C 0.47813 0.82677 0.03111 0.0
O222 O 0.43921 0.79505 0.0343 0.0
C223 C 0.58607 0.73346 0.18233 0.0
Zn224 Zn 0.91991 0.92387 0.72744 0.0
Zn225 Zn 0.88132 0.00474 0.73847 0.0
O226 O 0.93645 0.01007 0.79229 0.0
O227 O 0.95504 0.93167 0.79097 0.0
O228 O 0.8499 0.07113 0.74434 0.0
O229 O 0.96289 0.93814 0.67337 0.0
O230 O 0.9142 0.00261 0.67151 0.0
C231 C 0.96208 0.97504 0.80831 0.0
C232 C 0.81347 0.91204 0.72297 0.0
O233 O 0.81919 0.95411 0.74397 0.0
O234 O 0.8525 0.89043 0.70996 0.0
C235 C 0.80257 0.077 0.74031 0.0
O236 O 0.77168 0.03908 0.72933 0.0
C237 C 0.94721 -0.02443 0.65234 0.0
Zn238 Zn 0.645 0.17756 0.47741 0.0
Zn239 Zn 0.73749 0.13488 0.47879 0.0
O240 O 0.74331 0.17383 0.41786 0.0
O241 O 0.66689 0.20273 0.41195 0.0
O242 O 0.80261 0.1018 0.48007 0.0
O243 O 0.66294 0.21819 0.53477 0.0
O244 O 0.73264 0.17554 0.53992 0.0
C245 C 0.71135 0.19898 0.39586 0.0
C246 C 0.645 0.07084 0.49342 0.0
O247 O 0.691 0.07484 0.48144 0.0
O248 O 0.61761 0.10813 0.4935 0.0
C249 C 0.81249 0.06749 0.45032 0.0
O250 O 0.77989 0.05405 0.41629 0.0
C251 C 0.70259 0.2068 0.55683 0.0
Zn252 Zn 0.55191 0.01508 0.23576 0.0
Zn253 Zn 0.61889 0.95934 0.2167 0.0
O254 O 0.58683 0.94083 0.28269 0.0
O255 O 0.51035 0.96595 0.27462 0.0
O256 O 0.67494 0.9134 0.21171 0.0
O257 O 0.53241 0.02297 0.16848 0.0
O258 O 0.57524 0.9557 0.15553 0.0
C259 C 0.54129 0.94084 0.29748 0.0
C260 C 0.65011 0.0615 0.23701 0.0
O261 O 0.65927 0.02384 0.21211 0.0
O262 O 0.60924 0.06233 0.26062 0.0
C263 C 0.70732 0.91093 0.24567 0.0
O264 O 0.7021 0.93673 0.28533 0.0
C265 C 0.54576 -0.01125 0.141 0.0
Zn266 Zn 0.81321 0.77955 0.95284 0.0
Zn267 Zn 0.75546 0.85855 -0.02465 0.0
O268 O 0.7199 0.82164 0.92015 0.0
O269 O 0.75429 0.74933 0.91407 0.0
O270 O 0.70514 0.91426 -0.01494 0.0
O271 O 0.82178 0.75947 0.02092 0.0
O272 O 0.76499 0.8158 0.03579 0.0
C273 C 0.71962 0.77799 0.90284 0.0
C274 C 0.86194 0.87726 0.94172 0.0
O275 O 0.82282 0.89326 0.96174 0.0
O276 O 0.86364 0.83227 0.92864 0.0
C277 C 0.69204 0.9395 0.9487 0.0
O278 O 0.71365 0.93114 0.90738 0.0
C279 C 0.79317 0.78096 0.04968 0.0
Zn280 Zn 0.14627 0.66131 -0.03365 0.0
Zn281 Zn 0.24096 0.62901 -0.03076 0.0
O282 O 0.24911 0.66994 0.90901 0.0
O283 O 0.17352 0.70089 0.91034 0.0
O284 O 0.30618 0.59637 -0.03086 0.0
O285 O 0.15467 0.69347 0.0299 0.0
O286 O 0.23542 0.67415 0.02928 0.0
C287 C 0.21771 0.69987 0.89306 0.0
C288 C 0.15037 0.55637 -0.02638 0.0
O289 O 0.19762 0.56573 -0.02661 0.0
O290 O 0.11976 0.59031 -0.03341 0.0
C291 C 0.3181 0.56248 0.93947 0.0
O292 O 0.28698 0.54777 0.90468 0.0
C293 C 0.19848 0.69601 0.04842 0.0
Zn294 Zn 0.0122 0.54527 0.75538 0.0
Zn295 Zn 0.10028 0.49267 0.74079 0.0
O296 O 0.05397 0.45879 0.78819 0.0
O297 O 0.98186 0.49334 0.80166 0.0
O298 O 0.15787 0.44616 0.74155 0.0
O299 O 0.00015 0.53637 0.68401 0.0
O300 O 0.07181 0.49774 0.67363 0.0
C301 C 0.01106 0.45813 0.8083 0.0
C302 C 0.11217 0.59964 0.76636 0.0
O303 O 0.13147 0.55903 0.75542 0.0
O304 O 0.06472 0.6022 0.77276 0.0
C305 C 0.18061 0.43127 0.77908 0.0
O306 O 0.17138 0.45131 0.82101 0.0
C307 C 0.03231 0.51711 0.65695 0.0
Zn308 Zn 0.2837 0.27958 0.48401 0.0
Zn309 Zn 0.23345 0.36399 0.50362 0.0
O310 O 0.20417 0.33517 0.44018 0.0
O311 O 0.23052 0.2596 0.43209 0.0
O312 O 0.19465 0.42748 0.50931 0.0
O313 O 0.27746 0.26139 0.55395 0.0
O314 O 0.22626 0.32318 0.56531 0.0
C315 C 0.20304 0.29386 0.41776 0.0
C316 C 0.3454 0.37011 0.4852 0.0
O317 O 0.30545 0.38903 0.50037 0.0
O318 O 0.34493 0.32568 0.46997 0.0
C319 C 0.19738 0.45838 0.47496 0.0
O320 O 0.22742 0.44948 0.43892 0.0
C321 C 0.24969 0.2861 0.58109 0.0
Zn322 Zn 0.42195 0.4414 0.21302 0.0
Zn323 Zn 0.37352 0.51737 0.21993 0.0
O324 O 0.41523 0.53119 0.28145 0.0
O325 O 0.44064 0.45504 0.28189 0.0
O326 O 0.32956 0.57391 0.2218 0.0
O327 O 0.46928 0.46612 0.16419 0.0
O328 O 0.41503 0.52533 0.15779 0.0
C329 C 0.43825 0.49718 0.30207 0.0
C330 C 0.31998 0.41563 0.20495 0.0
O331 O 0.32039 0.45919 0.2227 0.0
O332 O 0.36114 0.39794 0.1919 0.0
C333 C 0.28174 0.57585 0.21776 0.0
O334 O 0.25319 0.53632 0.20651 0.0
C335 C 0.45382 0.50349 0.14275 0.0
O336 O 0.04966 0.07113 -0.01967 0.0
Zn337 Zn 0.05432 0.0154 0.9335 0.0
O338 O 0.03279 0.95879 -0.03319 0.0
Zn339 Zn 0.0807 0.92202 0.00153 0.0
Zn340 Zn 0.97661 -0.02269 0.00432 0.0
Zn341 Zn 0.01918 0.91467 0.91456 0.0
O342 O 0.06139 0.84741 -0.01132 0.0
O343 O 0.06648 0.86038 0.91221 0.0
O344 O 0.12807 0.00084 0.92409 0.0
O345 O 0.14912 0.95653 -0.01282 0.0
O346 O 0.07051 0.93895 0.06965 0.0
O347 O -0.01076 0.95752 0.07207 0.0
O348 O 0.91393 0.94213 -0.02488 0.0
O349 O 0.00426 0.019 0.87499 0.0
O350 O 0.94695 0.89103 0.92084 0.0
O351 O 0.0282 0.94583 0.85309 0.0
C352 C 0.01596 0.08112 0.01081 0.0
C353 C 0.05887 0.8305 0.94588 0.0
C354 C 0.03188 0.95192 0.09257 0.0
C355 C 0.15772 -0.00638 0.95972 0.0
C356 C 0.90933 0.90702 0.94386 0.0
C357 C 0.00147 -0.0176 0.84566 0.0
O358 O 0.97687 0.05232 0.01644 0.0
O359 O 0.17511 0.70463 0.12836 0.0
Zn360 Zn 0.18996 0.70213 0.19831 0.0
O361 O 0.24 0.75356 0.21481 0.0
Zn362 Zn 0.29165 0.72795 0.2532 0.0
Zn363 Zn 0.26553 0.78905 0.16049 0.0
Zn364 Zn 0.20754 0.79993 0.25341 0.0
O365 O 0.28216 0.73983 0.3236 0.0
O366 O 0.2176 0.78933 0.32135 0.0
O367 O 0.21797 0.63415 0.20658 0.0
O368 O 0.29025 0.65711 0.24317 0.0
O369 O 0.35885 0.74618 0.22641 0.0
O370 O 0.34157 0.78559 0.15863 0.0
O371 O 0.23675 0.85887 0.16104 0.0
O372 O 0.12942 0.71113 0.24015 0.0
O373 O 0.23045 0.86766 0.23973 0.0
O374 O 0.13385 0.79319 0.24713 0.0
C375 C 0.20489 0.71921 0.09522 0.0
C376 C 0.24822 0.76394 0.34446 0.0
C377 C 0.37247 0.76507 0.18671 0.0
C378 C 0.26079 0.62416 0.22426 0.0
C379 C 0.22745 0.88521 0.19805 0.0
C380 C 0.11139 0.7516 0.2546 0.0
O381 O 0.24243 0.74952 0.10268 0.0
O382 O 0.51083 0.84964 0.48272 0.0
Zn383 Zn 0.48745 0.90393 0.4411 0.0
O384 O 0.49917 0.96585 0.47394 0.0
Zn385 Zn 0.43863 0.00121 0.49055 0.0
Zn386 Zn 0.53879 0.9569 0.53106 0.0
Zn387 Zn 0.54306 0.00478 0.4347 0.0
O388 O 0.44389 0.07096 0.46134 0.0
O389 O 0.52156 0.07495 0.43007 0.0
O390 O 0.41525 0.88951 0.44746 0.0
O391 O 0.37668 0.95595 0.47475 0.0
O392 O 0.42925 0.00644 0.56246 0.0
O393 O 0.49331 0.962 0.58611 0.0
O394 O 0.59235 0.01287 0.53311 0.0
O395 O 0.51026 0.90353 0.37012 0.0
O396 O 0.61263 -0.00055 0.45843 0.0
O397 O 0.54519 -0.02022 0.37024 0.0
C398 C 0.53838 0.84788 0.52018 0.0
C399 C 0.48022 0.09496 0.44033 0.0
C400 C 0.45228 -0.01714 0.5946 0.0
C401 C 0.37623 0.91019 0.46258 0.0
C402 C 0.62096 0.02202 0.49756 0.0
C403 C 0.53334 0.9395 0.34887 0.0
O404 O 0.56057 0.88663 0.53846 0.0
O405 O 0.21212 0.25085 0.87135 0.0
Zn406 Zn 0.24164 0.2871 0.81628 0.0
O407 O 0.22886 0.24839 0.75925 0.0
Zn408 Zn 0.28788 0.22989 0.72387 0.0
Zn409 Zn 0.18535 0.18983 0.77044 0.0
Zn410 Zn 0.18945 0.28998 0.72134 0.0
O411 O 0.28332 0.25515 0.65426 0.0
O412 O 0.20656 0.2862 0.65342 0.0
O413 O 0.31371 0.27851 0.83081 0.0
O414 O 0.34956 0.24712 0.76542 0.0
O415 O 0.29292 0.15596 0.72155 0.0
O416 O 0.22394 0.12812 0.75936 0.0
O417 O 0.12991 0.19137 0.71962 0.0
O418 O 0.21794 0.35962 0.81322 0.0
O419 O 0.11819 0.26998 0.73198 0.0
O420 O 0.19591 0.35988 0.73662 0.0
C421 C 0.18398 0.21199 0.87651 0.0
C422 C 0.24613 0.27384 0.63195 0.0
C423 C 0.26607 0.1207 0.73938 0.0
C424 C 0.35112 0.2603 0.80958 0.0
C425 C 0.10596 0.23001 0.71031 0.0
C426 C 0.20262 0.38234 0.77616 0.0
O427 O 0.16585 0.18685 0.84075 0.0
O428 O 0.97513 -0.01519 0.36297 0.0
Zn429 Zn 0.94184 -0.02443 0.42629 0.0
O430 O -0.01002 -0.00136 0.47608 0.0
Zn431 Zn 0.01227 0.94611 0.51548 0.0
Zn432 Zn 0.05075 0.03282 0.45121 0.0
Zn433 Zn 0.95302 0.04117 0.51583 0.0
O434 O -0.00837 0.95342 0.58361 0.0
O435 O 0.94312 0.01834 0.58085 0.0
O436 O 0.93088 0.90227 0.43087 0.0
O437 O -0.01511 0.88366 0.48897 0.0
O438 O 0.08576 0.93601 0.5096 0.0
O439 O 0.11567 0.00035 0.46836 0.0
O440 O 0.05504 0.10457 0.47406 0.0
O441 O 0.87476 0.0109 0.42588 0.0
O442 O -0.0122 0.10358 0.52146 0.0
O443 O 0.88741 0.05688 0.49131 0.0
C444 C 0.01843 0.00261 0.35078 0.0
C445 C 0.96271 -0.01626 0.60355 0.0
C446 C 0.12208 0.95976 0.48962 0.0
C447 C 0.95365 0.87099 0.456 0.0
C448 C 0.02595 0.12563 0.50349 0.0
C449 C 0.86039 0.04334 0.45568 0.0
O450 O 0.0493 0.02415 0.38033 0.0
O451 O 0.32682 0.76515 0.72258 0.0
Zn452 Zn 0.26729 0.77463 0.76659 0.0
O453 O 0.20786 0.75759 0.73279 0.0
Zn454 Zn 0.17473 0.80622 0.69725 0.0
Zn455 Zn 0.22325 0.70012 0.69905 0.0
Zn456 Zn 0.1634 0.75256 0.78559 0.0
O457 O 0.0977 0.79513 0.70809 0.0
O458 O 0.11373 0.80414 0.78398 0.0
O459 O 0.25534 0.8454 0.78015 0.0
O460 O 0.21551 0.8697 0.71422 0.0
O461 O 0.19064 0.7929 0.62997 0.0
O462 O 0.21587 0.71507 0.62822 0.0
O463 O 0.17719 0.64579 0.72776 0.0
O464 O 0.26638 0.72833 0.82528 0.0
O465 O 0.13247 0.68353 0.78456 0.0
O466 O 0.19844 0.76602 0.84571 0.0
C467 C 0.3336 0.72363 0.70222 0.0
C468 C 0.08167 0.79726 0.7508 0.0
C469 C 0.20698 0.7558 0.6075 0.0
C470 C 0.24938 0.8768 0.74698 0.0
C471 C 0.14343 0.64504 0.76066 0.0
C472 C 0.23079 0.73468 0.85489 0.0
O473 O 0.29898 0.68899 0.70242 0.0
O474 O 0.56412 0.01637 0.06429 0.0
Zn475 Zn 0.56636 0.02995 -0.0055 0.0
O476 O 0.50958 -0.0069 -0.03433 0.0
Zn477 Zn 0.53026 0.93711 0.9304 0.0
Zn478 Zn 0.45945 0.97108 0.01138 0.0
Zn479 Zn 0.47854 0.03889 0.92479 0.0
O480 O 0.49317 0.93455 0.86528 0.0
O481 O 0.45533 0.00674 0.86584 0.0
O482 O 0.63352 -0.00066 -0.02523 0.0
O483 O 0.60626 0.93727 0.92625 0.0
O484 O 0.51432 0.87896 -0.02712 0.0
O485 O 0.44114 0.89885 0.00448 0.0
O486 O 0.39888 0.01344 0.01087 0.0
O487 O 0.55343 0.10433 -0.01861 0.0
O488 O 0.41765 0.06941 0.9551 0.0
O489 O 0.5305 0.08943 0.90674 0.0
C490 C 0.53326 -0.00773 0.09093 0.0
C491 C 0.4646 0.96596 0.84583 0.0
C492 C 0.47591 0.8684 -0.00146 0.0
C493 C 0.64194 0.96157 0.94839 0.0
C494 C 0.38886 0.05247 -0.01194 0.0
C495 C 0.54082 0.12016 0.94012 0.0
O496 O 0.49068 0.97454 0.07607 0.0
O497 O 0.09353 0.27108 0.24617 0.0
Zn498 Zn 0.15561 0.24272 0.27681 0.0
O499 O 0.21673 0.26294 0.24394 0.0
Zn500 Zn 0.25997 0.20749 0.22973 0.0
Zn501 Zn 0.2041 0.29681 0.18655 0.0
Zn502 Zn 0.24427 0.31048 0.28941 0.0
O503 O 0.32477 0.21688 0.27469 0.0
O504 O 0.30458 0.28206 0.31987 0.0
O505 O 0.14342 0.17442 0.25858 0.0
O506 O 0.21672 0.14304 0.238 0.0
O507 O 0.27069 0.19909 0.1562 0.0
O508 O 0.20954 0.24771 0.13295 0.0
O509 O 0.25758 0.35378 0.18113 0.0
O510 O 0.16799 0.25021 0.34952 0.0
O511 O 0.27028 0.37154 0.25845 0.0
O512 O 0.1963 0.32717 0.34158 0.0
C513 C 0.09479 0.28635 0.2031 0.0
C514 C 0.33419 0.2477 0.30965 0.0
C515 C 0.23859 0.21234 0.12463 0.0
C516 C 0.1687 0.139 0.24333 0.0
C517 C 0.27757 0.38099 0.21461 0.0
C518 C 0.18274 0.29157 0.36848 0.0
O519 O 0.13127 0.3162 0.19094 0.0
O520 O 0.49986 0.51455 0.85543 0.0
Zn521 Zn 0.46253 0.49189 0.91314 0.0
O522 O 0.50049 0.51802 -0.03285 0.0
Zn523 Zn 0.5203 0.46756 0.00913 0.0
Zn524 Zn 0.55995 0.55866 0.95066 0.0
Zn525 Zn 0.46092 0.56268 0.0016 0.0
O526 O 0.49927 0.48007 0.07581 0.0
O527 O 0.4568 0.5491 0.0715 0.0
O528 O 0.46756 0.4175 0.91335 0.0
O529 O 0.49215 0.40213 -0.01185 0.0
O530 O 0.59321 0.45791 0.00333 0.0
O531 O 0.6225 0.51877 0.95677 0.0
O532 O 0.56324 0.61607 -0.00071 0.0
O533 O 0.38881 0.51618 0.91254 0.0
O534 O 0.48379 0.63046 -0.01356 0.0
O535 O 0.39315 0.56025 -0.01992 0.0
C536 C 0.53332 0.54855 0.84685 0.0
C537 C 0.47345 0.51333 0.09519 0.0
C538 C 0.62854 0.47881 -0.0206 0.0
C539 C 0.47896 0.38757 0.94636 0.0
C540 C 0.52536 0.64268 0.00633 0.0
C541 C 0.36863 0.54352 0.94418 0.0
O542 O 0.55536 0.57484 0.87998 0.0
O543 O 0.84747 0.20578 0.22993 0.0
Zn544 Zn 0.7868 0.23667 0.26236 0.0
O545 O 0.72941 0.2333 0.22135 0.0
Zn546 Zn 0.70092 0.29554 0.20539 0.0
Zn547 Zn 0.73792 0.18571 0.17236 0.0
Zn548 Zn 0.67759 0.20975 0.25985 0.0
O549 O 0.63364 0.30501 0.24222 0.0
O550 O 0.61145 0.22626 0.23463 0.0
O551 O 0.80939 0.30728 0.26299 0.0
O552 O 0.75573 0.34919 0.21811 0.0
O553 O 0.69273 0.29282 0.1343 0.0
O554 O 0.71074 0.21538 0.11277 0.0
O555 O 0.70176 0.11906 0.19235 0.0
O556 O 0.76583 0.2109 0.32879 0.0
O557 O 0.67483 0.13909 0.26501 0.0
O558 O 0.68705 0.23571 0.32489 0.0
C559 C 0.85247 0.19302 0.186 0.0
C560 C 0.60033 0.26954 0.24649 0.0
C561 C 0.69921 0.25948 0.10245 0.0
C562 C 0.79718 0.34648 0.24154 0.0
C563 C 0.68061 0.10744 0.23222 0.0
C564 C 0.72335 0.21875 0.34865 0.0
O565 O 0.81387 0.18412 0.15895 0.0
O566 O 0.05823 0.54177 0.58049 0.0
Zn567 Zn 0.0693 0.54741 0.50979 0.0
O568 O 0.01951 0.50469 0.47777 0.0
Zn569 Zn 0.05268 0.4589 0.43854 0.0
Zn570 Zn 0.97112 0.4741 0.51974 0.0
Zn571 Zn 0.98324 0.54269 0.43546 0.0
O572 O 0.01835 0.4504 0.37377 0.0
O573 O 0.96158 0.50851 0.37668 0.0
O574 O 0.13766 0.51558 0.50119 0.0
O575 O 0.12593 0.4777 0.43093 0.0
O576 O 0.05234 0.3975 0.47679 0.0
O577 O 0.98209 0.40146 0.52051 0.0
O578 O 0.90005 0.49715 0.50765 0.0
O579 O 0.05718 0.61867 0.48544 0.0
O580 O 0.92079 0.56553 0.46682 0.0
O581 O 0.03044 0.5948 0.41347 0.0
C582 C 0.02507 0.51853 0.60551 0.0
C583 C 0.98216 0.47354 0.35502 0.0
C584 C 0.02167 0.37958 0.50762 0.0
C585 C 0.15411 0.48958 0.46674 0.0
C586 C 0.88895 0.53906 0.49063 0.0
C587 C 0.0441 0.6289 0.44248 0.0
O588 O -0.01171 0.4931 0.58697 0.0
O589 O 0.78147 0.75315 0.34002 0.0
Zn590 Zn 0.79405 0.78466 0.27745 0.0
O591 O 0.77052 0.74075 0.22589 0.0
Zn592 Zn 0.82441 0.7137 0.1896 0.0
Zn593 Zn 0.72533 0.68906 0.24864 0.0
Zn594 Zn 0.7366 0.78628 0.18756 0.0
O595 O 0.82559 0.74223 0.12041 0.0
O596 O 0.75262 0.78022 0.12178 0.0
O597 O 0.8686 0.79388 0.27224 0.0
O598 O 0.88423 0.72395 0.23339 0.0
O599 O 0.81917 0.63915 0.18956 0.0
O600 O 0.75019 0.62072 0.23211 0.0
O601 O 0.65564 0.70063 0.22212 0.0
O602 O 0.75541 0.84809 0.27939 0.0
O603 O 0.66368 0.77589 0.19029 0.0
O604 O 0.75314 0.85606 0.2014 0.0
C605 C 0.75183 0.717 0.35111 0.0
C606 C 0.79057 0.76579 0.09957 0.0
C607 C 0.78933 0.60761 0.2097 0.0
C608 C 0.89597 0.75702 0.26477 0.0
C609 C 0.63692 0.73806 0.20197 0.0
C610 C 0.74451 0.87288 0.24262 0.0
O611 O 0.72567 0.69181 0.3202 0.0
O612 O 0.69596 0.19487 0.63866 0.0
Zn613 Zn 0.70373 0.1956 0.70944 0.0
O614 O 0.74623 0.25414 0.72619 0.0
Zn615 Zn 0.80633 0.23648 0.76196 0.0
Zn616 Zn 0.76447 0.29518 0.67137 0.0
Zn617 Zn 0.70618 0.2933 0.76547 0.0
O618 O 0.80265 0.2592 0.83214 0.0
O619 O 0.72921 0.29603 0.83044 0.0
O620 O 0.7399 0.13397 0.72439 0.0
O621 O 0.81222 0.16247 0.75835 0.0
O622 O 0.86951 0.2623 0.72833 0.0
O623 O 0.83855 0.29255 0.66056 0.0
O624 O 0.7403 0.36593 0.67569 0.0
O625 O 0.634 0.19338 0.74118 0.0
O626 O 0.70187 0.35998 0.74562 0.0
O627 O 0.63687 0.27018 0.76947 0.0
C628 C 0.71023 0.22383 0.60528 0.0
C629 C 0.76739 0.2819 0.85291 0.0
C630 C 0.87543 0.27945 0.68625 0.0
C631 C 0.7834 0.12691 0.7423 0.0
C632 C 0.71491 0.38461 0.70944 0.0
C633 C 0.61312 0.22939 0.7618 0.0
O634 O 0.73531 0.26429 0.61266 0.0
O635 O 0.62177 0.70533 0.73864 0.0
Zn636 Zn 0.68826 0.70621 0.77368 0.0
O637 O 0.73178 0.75127 0.73807 0.0
Zn638 Zn 0.785 0.71428 0.71062 0.0
Zn639 Zn 0.70292 0.79071 0.69203 0.0
Zn640 Zn 0.74864 0.79285 0.78991 0.0
O641 O 0.84279 0.72022 0.76108 0.0
O642 O 0.8073 0.76252 0.82124 0.0
O643 O 0.71886 0.6409 0.77153 0.0
O644 O 0.7532 0.64669 0.70091 0.0
O645 O 0.79514 0.72594 0.63883 0.0
O646 O 0.72029 0.75929 0.63022 0.0
O647 O 0.74267 0.86001 0.69682 0.0
O648 O 0.68836 0.7222 0.84471 0.0
O649 O 0.77252 0.85754 0.77128 0.0
O650 O 0.68835 0.80047 0.82996 0.0
C651 C 0.60212 0.73458 0.70867 0.0
C652 C 0.84337 0.73805 0.80416 0.0
C653 C 0.75673 0.73587 0.61293 0.0
C654 C 0.72709 0.62229 0.73085 0.0
C655 C 0.76916 0.87931 0.73178 0.0
C656 C 0.68879 0.76641 0.8603 0.0
O657 O 0.62575 0.7742 0.69372 0.0
O658 O 0.48534 0.60067 0.48708 0.0
Zn659 Zn 0.5076 0.54687 0.44052 0.0
O660 O 0.50128 0.48512 0.47357 0.0
Zn661 Zn 0.56222 0.45713 0.49922 0.0
Zn662 Zn 0.45109 0.49144 0.52193 0.0
Zn663 Zn 0.48248 0.43389 0.4296 0.0
O664 O 0.55466 0.38002 0.48552 0.0
O665 O 0.54054 0.39502 0.41074 0.0
O666 O 0.58153 0.56255 0.4411 0.0
O667 O 0.62306 0.50409 0.47992 0.0
O668 O 0.56254 0.46838 0.56946 0.0
O669 O 0.4849 0.49184 0.58611 0.0
O670 O 0.39566 0.43906 0.51179 0.0
O671 O 0.47336 0.54211 0.37191 0.0
O672 O 0.4249 0.39155 0.45317 0.0
O673 O 0.45973 0.46042 0.37172 0.0
C674 C 0.45141 0.5981 0.51919 0.0
C675 C 0.54599 0.36359 0.44303 0.0
C676 C 0.53017 0.48406 0.59866 0.0
C677 C 0.62185 0.5467 0.45997 0.0
C678 C 0.39163 0.40117 0.48406 0.0
C679 C 0.45723 0.50157 0.35139 0.0
O680 O 0.42356 0.55883 0.52367 0.0
O681 O -0.00106 0.33803 -0.03608 0.0
Zn682 Zn 0.96898 0.40034 0.9411 0.0
O683 O 0.00425 0.45394 -0.02738 0.0
Zn684 Zn 0.95756 0.49818 -0.0003 0.0
Zn685 Zn 0.05217 0.43795 0.0181 0.0
Zn686 Zn 0.04492 0.47726 0.92087 0.0
O687 O 0.9658 0.55994 0.96089 0.0
O688 O 0.01882 0.54425 0.90055 0.0
O689 O 0.904 0.39387 -0.0293 0.0
O690 O 0.88606 0.46741 0.00074 0.0
O691 O 0.96889 0.50617 0.07122 0.0
O692 O 0.01847 0.44257 0.08039 0.0
O693 O 0.10821 0.49169 0.01402 0.0
O694 O 0.96218 0.41822 0.86949 0.0
O695 O 0.11692 0.48698 0.93604 0.0
O696 O 0.0437 0.42198 0.87428 0.0
C697 C 0.0355 0.33069 -0.00723 0.0
C698 C -0.01059 0.57296 0.92282 0.0
C699 C -0.01244 0.47281 0.09714 0.0
C700 C 0.87512 0.42162 -0.00667 0.0
C701 C 0.13047 0.50562 -0.02413 0.0
C702 C 0.00456 0.4249 0.84893 0.0
O703 O 0.06455 0.36579 0.01005 0.0
loop_
_geom_bond_atom_site_label_1
_geom_bond_atom_site_label_2
_geom_bond_distance
_geom_bond_site_symmetry_2
_ccdc_geom_bond_type
Zn0 O3 2.031 . S
Zn0 O5 2.049 . S
Zn0 O10 2.067 . S
Zn1 O2 1.962 . S
Zn1 O4 1.986 . S
Zn1 O6 1.996 1_655 S
Zn1 O9 1.943 1_655 S
O2 Zn1 1.962 . S
O2 C7 1.254 1_655 S
O3 Zn0 2.031 . S
O3 C7 1.269 . S
O4 Zn1 1.986 . S
O4 C11 1.262 . S
O5 Zn0 2.049 . S
O5 C13 1.260 . S
O6 Zn1 1.996 1_455 S
O6 C13 1.257 . S
C7 O2 1.254 1_455 S
C7 O3 1.269 . S
C8 O9 1.249 . S
C8 O10 1.270 . S
O9 Zn1 1.943 1_455 S
O9 C8 1.249 . S
O10 Zn0 2.067 . S
O10 C8 1.270 . S
C11 O4 1.262 . S
C11 O12 1.232 . S
O12 C11 1.232 . S
C13 O5 1.260 . S
C13 O6 1.257 . S
Zn14 O17 2.031 . S
Zn14 O19 2.049 . S
Zn14 O24 2.067 . S
Zn15 O16 1.962 . S
Zn15 O18 1.986 . S
Zn15 O20 1.996 . S
Zn15 O23 1.943 1_455 S
O16 Zn15 1.962 . S
O16 C21 1.254 1_455 S
O17 Zn14 2.031 . S
O17 C21 1.269 . S
O18 Zn15 1.986 . S
O18 C25 1.262 . S
O19 Zn14 2.049 . S
O19 C27 1.260 . S
O20 Zn15 1.996 . S
O20 C27 1.257 1_455 S
C21 O16 1.254 1_655 S
C21 O17 1.269 . S
C22 O23 1.249 . S
C22 O24 1.270 . S
O23 Zn15 1.943 1_655 S
O23 C22 1.249 . S
O24 Zn14 2.067 . S
O24 C22 1.270 . S
C25 O18 1.262 . S
C25 O26 1.232 . S
O26 C25 1.232 . S
C27 O19 1.260 . S
C27 O20 1.257 1_655 S
Zn28 O31 2.031 . S
Zn28 O33 2.049 . S
Zn28 O38 2.067 . S
Zn29 O30 1.962 . S
Zn29 O32 1.986 . S
Zn29 O34 1.996 . S
Zn29 O37 1.943 . S
O30 Zn29 1.962 . S
O30 C35 1.254 . S
O31 Zn28 2.031 . S
O31 C35 1.269 . S
O32 Zn29 1.986 . S
O32 C39 1.262 . S
O33 Zn28 2.049 . S
O33 C41 1.260 . S
O34 Zn29 1.996 . S
O34 C41 1.257 . S
C35 O30 1.254 . S
C35 O31 1.269 . S
C36 O37 1.249 . S
C36 O38 1.270 . S
O37 Zn29 1.943 . S
O37 C36 1.249 . S
O38 Zn28 2.067 . S
O38 C36 1.270 . S
C39 O32 1.262 . S
C39 O40 1.232 . S
O40 C39 1.232 . S
C41 O33 1.260 . S
C41 O34 1.257 . S
Zn42 O45 2.031 . S
Zn42 O47 2.049 . S
Zn42 O52 2.067 . S
Zn43 O44 1.962 . S
Zn43 O46 1.986 . S
Zn43 O48 1.996 . S
Zn43 O51 1.943 . S
O44 Zn43 1.962 . S
O44 C49 1.254 . S
O45 Zn42 2.031 . S
O45 C49 1.269 . S
O46 Zn43 1.986 . S
O46 C53 1.262 . S
O47 Zn42 2.049 . S
O47 C55 1.260 . S
O48 Zn43 1.996 . S
O48 C55 1.257 . S
C49 O44 1.254 . S
C49 O45 1.269 . S
C50 O51 1.249 . S
C50 O52 1.270 . S
O51 Zn43 1.943 . S
O51 C50 1.249 . S
O52 Zn42 2.067 . S
O52 C50 1.270 . S
C53 O46 1.262 . S
C53 O54 1.232 . S
O54 C53 1.232 . S
C55 O47 1.260 . S
C55 O48 1.257 . S
Zn56 O59 2.031 . S
Zn56 O61 2.049 . S
Zn56 O66 2.067 . S
Zn57 O58 1.963 . S
Zn57 O60 1.986 1_545 S
Zn57 O62 1.996 . S
Zn57 O65 1.943 . S
O58 Zn57 1.963 . S
O58 C63 1.266 . S
O59 Zn56 2.031 . S
O59 C63 1.269 . S
O60 Zn57 1.986 1_565 S
O60 C67 1.262 . S
O61 Zn56 2.049 . S
O61 C69 1.260 . S
O62 Zn57 1.996 . S
O62 C69 1.257 . S
C63 O58 1.266 . S
C63 O59 1.269 . S
C64 O65 1.249 . S
C64 O66 1.270 . S
O65 Zn57 1.943 . S
O65 C64 1.249 . S
O66 Zn56 2.067 . S
O66 C64 1.270 . S
C67 O60 1.262 . S
C67 O68 1.232 . S
O68 C67 1.232 . S
C69 O61 1.260 . S
C69 O62 1.257 . S
Zn70 O73 2.031 . S
Zn70 O75 2.049 . S
Zn70 O80 2.067 . S
Zn71 O72 1.962 . S
Zn71 O74 1.986 . S
Zn71 O76 1.996 . S
Zn71 O79 1.943 . S
O72 Zn71 1.962 . S
O72 C77 1.254 . S
O73 Zn70 2.031 . S
O73 C77 1.269 . S
O74 Zn71 1.986 . S
O74 C81 1.262 . S
O75 Zn70 2.049 . S
O75 C83 1.260 . S
O76 Zn71 1.996 . S
O76 C83 1.257 . S
C77 O72 1.254 . S
C77 O73 1.269 . S
C78 O79 1.249 . S
C78 O80 1.270 . S
O79 Zn71 1.943 . S
O79 C78 1.249 . S
O80 Zn70 2.067 . S
O80 C78 1.270 . S
C81 O74 1.262 . S
C81 O82 1.232 . S
O82 C81 1.232 . S
C83 O75 1.260 . S
C83 O76 1.257 . S
Zn84 O87 2.031 . S
Zn84 O89 2.049 . S
Zn84 O94 2.067 . S
Zn85 O86 1.962 . S
Zn85 O88 1.986 . S
Zn85 O90 1.996 . S
Zn85 O93 1.943 1_545 S
O86 Zn85 1.962 . S
O86 C91 1.254 1_545 S
O87 Zn84 2.031 . S
O87 C91 1.269 . S
O88 Zn85 1.986 . S
O88 C95 1.262 . S
O89 Zn84 2.049 . S
O89 C97 1.260 . S
O90 Zn85 1.996 . S
O90 C97 1.257 1_545 S
C91 O86 1.254 1_565 S
C91 O87 1.269 . S
C92 O93 1.249 . S
C92 O94 1.270 . S
O93 Zn85 1.943 1_565 S
O93 C92 1.249 . S
O94 Zn84 2.067 . S
O94 C92 1.270 . S
C95 O88 1.262 . S
C95 O96 1.232 . S
O96 C95 1.232 . S
C97 O89 1.260 . S
C97 O90 1.257 1_565 S
Zn98 O101 2.031 1_554 S
Zn98 O103 2.049 . S
Zn98 O108 2.067 . S
Zn99 O100 1.962 1_554 S
Zn99 O102 1.986 . S
Zn99 O104 1.996 . S
Zn99 O107 1.943 . S
O100 Zn99 1.962 1_556 S
O100 C105 1.254 . S
O101 Zn98 2.031 1_556 S
O101 C105 1.269 . S
O102 Zn99 1.986 . S
O102 C109 1.262 . S
O103 Zn98 2.049 . S
O103 C111 1.260 . S
O104 Zn99 1.996 . S
O104 C111 1.257 . S
C105 O100 1.254 . S
C105 O101 1.269 . S
C106 O107 1.249 . S
C106 O108 1.270 . S
O107 Zn99 1.943 . S
O107 C106 1.249 . S
O108 Zn98 2.067 . S
O108 C106 1.270 . S
C109 O102 1.262 . S
C109 O110 1.232 1_554 S
O110 C109 1.232 1_556 S
C111 O103 1.260 . S
C111 O104 1.257 . S
Zn112 O115 2.031 1_554 S
Zn112 O117 2.049 . S
Zn112 O122 2.067 . S
Zn113 O114 1.962 1_554 S
Zn113 O116 1.986 . S
Zn113 O118 1.996 . S
Zn113 O121 1.943 . S
O114 Zn113 1.962 1_556 S
O114 C119 1.254 . S
O115 Zn112 2.031 1_556 S
O115 C119 1.269 . S
O116 Zn113 1.986 . S
O116 C123 1.262 . S
O117 Zn112 2.049 . S
O117 C125 1.260 . S
O118 Zn113 1.996 . S
O118 C125 1.257 . S
C119 O114 1.254 . S
C119 O115 1.269 . S
C120 O121 1.249 . S
C120 O122 1.270 . S
O121 Zn113 1.943 . S
O121 C120 1.249 . S
O122 Zn112 2.067 . S
O122 C120 1.270 . S
C123 O116 1.262 . S
C123 O124 1.232 1_554 S
O124 C123 1.232 1_556 S
C125 O117 1.260 . S
C125 O118 1.257 . S
Zn126 O129 2.031 . S
Zn126 O131 2.049 . S
Zn126 O136 2.067 . S
Zn127 O128 1.962 . S
Zn127 O130 1.986 . S
Zn127 O132 1.996 . S
Zn127 O135 1.943 . S
O128 Zn127 1.962 . S
O128 C133 1.254 . S
O129 Zn126 2.031 . S
O129 C133 1.269 . S
O130 Zn127 1.986 . S
O130 C137 1.262 . S
O131 Zn126 2.049 . S
O131 C139 1.260 . S
O132 Zn127 1.996 . S
O132 C139 1.257 . S
C133 O128 1.254 . S
C133 O129 1.269 . S
C134 O135 1.249 . S
C134 O136 1.270 . S
O135 Zn127 1.943 . S
O135 C134 1.249 . S
O136 Zn126 2.067 . S
O136 C134 1.270 . S
C137 O130 1.262 . S
C137 O138 1.232 . S
O138 C137 1.232 . S
C139 O131 1.260 . S
C139 O132 1.257 . S
Zn140 O143 2.031 . S
Zn140 O145 2.049 . S
Zn140 O150 2.067 . S
Zn141 O142 1.962 . S
Zn141 O144 1.986 . S
Zn141 O146 1.996 . S
Zn141 O149 1.943 . S
O142 Zn141 1.962 . S
O142 C147 1.254 . S
O143 Zn140 2.031 . S
O143 C147 1.269 . S
O144 Zn141 1.986 . S
O144 C151 1.262 . S
O145 Zn140 2.049 . S
O145 C153 1.260 . S
O146 Zn141 1.996 . S
O146 C153 1.257 . S
C147 O142 1.254 . S
C147 O143 1.269 . S
C148 O149 1.249 . S
C148 O150 1.270 . S
O149 Zn141 1.943 . S
O149 C148 1.249 . S
O150 Zn140 2.067 . S
O150 C148 1.270 . S
C151 O144 1.262 . S
C151 O152 1.232 . S
O152 C151 1.232 . S
C153 O145 1.260 . S
C153 O146 1.257 . S
Zn154 O157 2.031 . S
Zn154 O159 2.049 . S
Zn154 O164 2.067 . S
Zn155 O156 1.962 . S
Zn155 O158 1.986 . S
Zn155 O160 1.996 . S
Zn155 O163 1.943 . S
O156 Zn155 1.962 . S
O156 C161 1.254 . S
O157 Zn154 2.031 . S
O157 C161 1.269 . S
O158 Zn155 1.986 . S
O158 C165 1.262 . S
O159 Zn154 2.049 . S
O159 C167 1.260 . S
O160 Zn155 1.996 . S
O160 C167 1.257 . S
C161 O156 1.254 . S
C161 O157 1.269 . S
C162 O163 1.249 . S
C162 O164 1.270 . S
O163 Zn155 1.943 . S
O163 C162 1.249 . S
O164 Zn154 2.067 . S
O164 C162 1.270 . S
C165 O158 1.262 . S
C165 O166 1.232 . S
O166 C165 1.232 . S
C167 O159 1.260 . S
C167 O160 1.257 . S
Zn168 O171 2.031 . S
Zn168 O173 2.049 . S
Zn168 O178 2.067 . S
Zn169 O170 1.962 . S
Zn169 O172 1.986 . S
Zn169 O174 1.996 . S
Zn169 O177 1.943 1_455 S
O170 Zn169 1.962 . S
O170 C175 1.254 1_455 S
O171 Zn168 2.031 . S
O171 C175 1.269 . S
O172 Zn169 1.986 . S
O172 C179 1.262 . S
O173 Zn168 2.049 . S
O173 C181 1.260 . S
O174 Zn169 1.996 . S
O174 C181 1.257 1_455 S
C175 O170 1.254 1_655 S
C175 O171 1.269 . S
C176 O177 1.249 . S
C176 O178 1.270 . S
O177 Zn169 1.943 1_655 S
O177 C176 1.249 . S
O178 Zn168 2.067 . S
O178 C176 1.270 . S
C179 O172 1.262 . S
C179 O180 1.232 . S
O180 C179 1.232 . S
C181 O173 1.260 . S
C181 O174 1.257 1_655 S
Zn182 O185 2.031 . S
Zn182 O187 2.049 . S
Zn182 O192 2.067 . S
Zn183 O184 1.962 . S
Zn183 O186 1.986 . S
Zn183 O188 1.996 1_655 S
Zn183 O191 1.943 1_655 S
O184 Zn183 1.962 . S
O184 C189 1.254 1_655 S
O185 Zn182 2.031 . S
O185 C189 1.269 . S
O186 Zn183 1.986 . S
O186 C193 1.262 . S
O187 Zn182 2.049 . S
O187 C195 1.260 . S
O188 Zn183 1.996 1_455 S
O188 C195 1.257 . S
C189 O184 1.254 1_455 S
C189 O185 1.269 . S
C190 O191 1.249 . S
C190 O192 1.270 . S
O191 Zn183 1.943 1_455 S
O191 C190 1.249 . S
O192 Zn182 2.067 . S
O192 C190 1.270 . S
C193 O186 1.262 . S
C193 O194 1.232 . S
O194 C193 1.232 . S
C195 O187 1.260 . S
C195 O188 1.257 . S
Zn196 O199 2.031 . S
Zn196 O201 2.049 . S
Zn196 O206 2.067 . S
Zn197 O198 1.962 . S
Zn197 O200 1.986 . S
Zn197 O202 1.996 . S
Zn197 O205 1.943 . S
O198 Zn197 1.962 . S
O198 C203 1.254 . S
O199 Zn196 2.031 . S
O199 C203 1.269 . S
O200 Zn197 1.986 . S
O200 C207 1.262 . S
O201 Zn196 2.049 . S
O201 C209 1.260 . S
O202 Zn197 1.996 . S
O202 C209 1.257 . S
C203 O198 1.254 . S
C203 O199 1.269 . S
C204 O205 1.249 . S
C204 O206 1.270 . S
O205 Zn197 1.943 . S
O205 C204 1.249 . S
O206 Zn196 2.067 . S
O206 C204 1.270 . S
C207 O200 1.262 . S
C207 O208 1.232 . S
O208 C207 1.232 . S
C209 O201 1.260 . S
C209 O202 1.257 . S
Zn210 O213 2.031 . S
Zn210 O215 2.049 . S
Zn210 O220 2.067 . S
Zn211 O212 1.962 . S
Zn211 O214 1.986 . S
Zn211 O216 1.996 . S
Zn211 O219 1.943 . S
O212 Zn211 1.962 . S
O212 C217 1.254 . S
O213 Zn210 2.031 . S
O213 C217 1.269 . S
O214 Zn211 1.986 . S
O214 C221 1.262 . S
O215 Zn210 2.049 . S
O215 C223 1.260 . S
O216 Zn211 1.996 . S
O216 C223 1.257 . S
C217 O212 1.254 . S
C217 O213 1.269 . S
C218 O219 1.249 . S
C218 O220 1.270 . S
O219 Zn211 1.943 . S
O219 C218 1.249 . S
O220 Zn210 2.067 . S
O220 C218 1.270 . S
C221 O214 1.262 . S
C221 O222 1.232 . S
O222 C221 1.232 . S
C223 O215 1.260 . S
C223 O216 1.257 . S
Zn224 O227 2.031 . S
Zn224 O229 2.049 . S
Zn224 O234 2.067 . S
Zn225 O226 1.962 . S
Zn225 O228 1.986 . S
Zn225 O230 1.996 . S
Zn225 O233 1.943 1_545 S
O226 Zn225 1.962 . S
O226 C231 1.254 . S
O227 Zn224 2.031 . S
O227 C231 1.269 1_565 S
O228 Zn225 1.986 . S
O228 C235 1.262 . S
O229 Zn224 2.049 . S
O229 C237 1.260 1_565 S
O230 Zn225 1.996 . S
O230 C237 1.257 . S
C231 O226 1.254 . S
C231 O227 1.269 1_545 S
C232 O233 1.249 . S
C232 O234 1.270 . S
O233 Zn225 1.943 1_565 S
O233 C232 1.249 . S
O234 Zn224 2.067 . S
O234 C232 1.270 . S
C235 O228 1.262 . S
C235 O236 1.232 . S
O236 C235 1.232 . S
C237 O229 1.260 1_545 S
C237 O230 1.257 . S
Zn238 O241 2.031 . S
Zn238 O243 2.049 . S
Zn238 O248 2.067 . S
Zn239 O240 1.962 . S
Zn239 O242 1.986 . S
Zn239 O244 1.996 . S
Zn239 O247 1.943 . S
O240 Zn239 1.962 . S
O240 C245 1.254 . S
O241 Zn238 2.031 . S
O241 C245 1.269 . S
O242 Zn239 1.986 . S
O242 C249 1.262 . S
O243 Zn238 2.049 . S
O243 C251 1.260 . S
O244 Zn239 1.996 . S
O244 C251 1.257 . S
C245 O240 1.254 . S
C245 O241 1.269 . S
C246 O247 1.249 . S
C246 O248 1.270 . S
O247 Zn239 1.943 . S
O247 C246 1.249 . S
O248 Zn238 2.067 . S
O248 C246 1.270 . S
C249 O242 1.262 . S
C249 O250 1.232 . S
O250 C249 1.232 . S
C251 O243 1.260 . S
C251 O244 1.257 . S
Zn252 O255 2.031 . S
Zn252 O257 2.049 . S
Zn252 O262 2.067 . S
Zn253 O254 1.962 . S
Zn253 O256 1.986 . S
Zn253 O258 1.993 1_565 S
Zn253 O261 1.943 1_565 S
O254 Zn253 1.962 . S
O254 C259 1.254 1_565 S
O255 Zn252 2.031 . S
O255 C259 1.269 . S
O256 Zn253 1.986 . S
O256 C263 1.262 . S
O257 Zn252 2.049 . S
O257 C265 1.260 . S
O258 Zn253 1.993 1_545 S
O258 C265 1.263 . S
C259 O254 1.254 1_545 S
C259 O255 1.269 . S
C260 O261 1.249 . S
C260 O262 1.270 . S
O261 Zn253 1.943 1_545 S
O261 C260 1.249 . S
O262 Zn252 2.067 . S
O262 C260 1.270 . S
C263 O256 1.262 . S
C263 O264 1.232 . S
O264 C263 1.232 . S
C265 O257 1.260 . S
C265 O258 1.263 . S
Zn266 O269 2.031 1_554 S
Zn266 O271 2.049 . S
Zn266 O276 2.067 . S
Zn267 O268 1.962 1_554 S
Zn267 O270 1.986 . S
Zn267 O272 1.996 . S
Zn267 O275 1.943 . S
O268 Zn267 1.962 1_556 S
O268 C273 1.254 . S
O269 Zn266 2.031 1_556 S
O269 C273 1.269 . S
O270 Zn267 1.986 . S
O270 C277 1.262 . S
O271 Zn266 2.049 . S
O271 C279 1.260 . S
O272 Zn267 1.996 . S
O272 C279 1.257 . S
C273 O268 1.254 . S
C273 O269 1.269 . S
C274 O275 1.249 . S
C274 O276 1.270 . S
O275 Zn267 1.943 . S
O275 C274 1.249 . S
O276 Zn266 2.067 . S
O276 C274 1.270 . S
C277 O270 1.262 . S
C277 O278 1.232 1_554 S
O278 C277 1.232 1_556 S
C279 O271 1.260 . S
C279 O272 1.257 . S
Zn280 O283 2.031 1_554 S
Zn280 O285 2.049 . S
Zn280 O290 2.067 . S
Zn281 O282 1.962 . S
Zn281 O284 1.986 1_556 S
Zn281 O286 1.996 1_556 S
Zn281 O289 1.943 1_556 S
O282 Zn281 1.962 . S
O282 C287 1.254 . S
O283 Zn280 2.031 1_556 S
O283 C287 1.269 . S
O284 Zn281 1.986 1_554 S
O284 C291 1.250 1_554 S
O285 Zn280 2.049 . S
O285 C293 1.260 . S
O286 Zn281 1.996 1_554 S
O286 C293 1.257 . S
C287 O282 1.254 . S
C287 O283 1.269 . S
C288 O289 1.249 . S
C288 O290 1.270 . S
O289 Zn281 1.943 1_554 S
O289 C288 1.249 . S
O290 Zn280 2.067 . S
O290 C288 1.270 . S
C291 O284 1.250 1_556 S
C291 O292 1.247 . S
O292 C291 1.247 . S
C293 O285 1.260 . S
C293 O286 1.257 . S
Zn294 O297 2.031 . S
Zn294 O299 2.049 . S
Zn294 O304 2.067 . S
Zn295 O296 1.962 . S
Zn295 O298 1.986 . S
Zn295 O300 1.996 . S
Zn295 O303 1.943 . S
O296 Zn295 1.962 . S
O296 C301 1.254 . S
O297 Zn294 2.031 . S
O297 C301 1.269 . S
O298 Zn295 1.986 . S
O298 C305 1.262 . S
O299 Zn294 2.049 . S
O299 C307 1.260 . S
O300 Zn295 1.996 . S
O300 C307 1.257 . S
C301 O296 1.254 . S
C301 O297 1.269 . S
C302 O303 1.249 . S
C302 O304 1.270 . S
O303 Zn295 1.943 . S
O303 C302 1.249 . S
O304 Zn294 2.067 . S
O304 C302 1.270 . S
C305 O298 1.262 . S
C305 O306 1.232 . S
O306 C305 1.232 . S
C307 O299 1.260 . S
C307 O300 1.257 . S
Zn308 O311 2.031 . S
Zn308 O313 2.049 . S
Zn308 O318 2.067 . S
Zn309 O310 1.962 . S
Zn309 O312 1.986 . S
Zn309 O314 1.996 . S
Zn309 O317 1.943 . S
O310 Zn309 1.962 . S
O310 C315 1.254 . S
O311 Zn308 2.031 . S
O311 C315 1.269 . S
O312 Zn309 1.986 . S
O312 C319 1.262 . S
O313 Zn308 2.049 . S
O313 C321 1.260 . S
O314 Zn309 1.996 . S
O314 C321 1.257 . S
C315 O310 1.254 . S
C315 O311 1.269 . S
C316 O317 1.249 . S
C316 O318 1.270 . S
O317 Zn309 1.943 . S
O317 C316 1.249 . S
O318 Zn308 2.067 . S
O318 C316 1.270 . S
C319 O312 1.262 . S
C319 O320 1.232 . S
O320 C319 1.232 . S
C321 O313 1.260 . S
C321 O314 1.257 . S
Zn322 O325 2.031 . S
Zn322 O327 2.049 . S
Zn322 O332 2.067 . S
Zn323 O324 1.962 . S
Zn323 O326 1.986 . S
Zn323 O328 1.996 . S
Zn323 O331 1.943 . S
O324 Zn323 1.962 . S
O324 C329 1.254 . S
O325 Zn322 2.031 . S
O325 C329 1.269 . S
O326 Zn323 1.986 . S
O326 C333 1.262 . S
O327 Zn322 2.049 . S
O327 C335 1.260 . S
O328 Zn323 1.996 . S
O328 C335 1.257 . S
C329 O324 1.254 . S
C329 O325 1.269 . S
C330 O331 1.249 . S
C330 O332 1.270 . S
O331 Zn323 1.943 . S
O331 C330 1.249 . S
O332 Zn322 2.067 . S
O332 C330 1.270 . S
C333 O326 1.262 . S
C333 O334 1.232 . S
O334 C333 1.232 . S
C335 O327 1.260 . S
C335 O328 1.257 . S
O336 Zn337 1.953 1_554 S
O336 C352 1.225 1_455 S
Zn337 O336 1.953 1_556 S
Zn337 O338 1.949 1_556 S
Zn337 O344 1.919 . S
Zn337 O349 1.924 1_455 S
O338 Zn337 1.949 1_554 S
O338 Zn339 1.923 1_545 S
O338 Zn340 1.950 1_455 S
O338 Zn341 1.945 1_444 S
Zn339 O338 1.923 1_565 S
Zn339 O342 1.933 . S
Zn339 O345 1.941 1_565 S
Zn339 O346 1.965 . S
Zn340 O338 1.950 1_655 S
Zn340 O347 1.938 . S
Zn340 O348 1.906 1_545 S
Zn340 O358 1.953 . S
Zn341 O338 1.945 1_666 S
Zn341 O343 1.932 . S
Zn341 O350 1.977 . S
Zn341 O351 1.910 1_565 S
O342 Zn339 1.933 . S
O342 C353 1.226 1_554 S
O343 Zn341 1.932 . S
O343 C353 1.307 1_655 S
O344 Zn337 1.919 . S
O344 C355 1.253 . S
O345 Zn339 1.941 1_545 S
O345 C355 1.283 1_554 S
O346 Zn339 1.965 . S
O346 C354 1.303 . S
O347 Zn340 1.938 . S
O347 C354 1.247 1_645 S
O348 Zn340 1.906 1_565 S
O348 C356 1.304 . S
O349 Zn337 1.924 1_655 S
O349 C357 1.311 . S
O350 Zn341 1.977 . S
O350 C356 1.272 1_556 S
O351 Zn341 1.910 1_545 S
O351 C357 1.231 . S
C352 O336 1.225 1_655 S
C352 O358 1.298 . S
C353 O342 1.226 1_556 S
C353 O343 1.307 1_455 S
C354 O346 1.303 . S
C354 O347 1.247 1_465 S
C355 O344 1.253 . S
C355 O345 1.283 1_556 S
C356 O348 1.304 . S
C356 O350 1.272 1_554 S
C357 O349 1.311 . S
C357 O351 1.231 . S
O358 Zn340 1.953 . S
O358 C352 1.298 . S
O359 Zn360 1.953 . S
O359 C375 1.225 . S
Zn360 O359 1.953 . S
Zn360 O361 1.949 . S
Zn360 O367 1.919 . S
Zn360 O372 1.924 . S
O361 Zn360 1.949 . S
O361 Zn362 1.923 . S
O361 Zn363 1.950 . S
O361 Zn364 1.945 . S
Zn362 O361 1.923 . S
Zn362 O365 1.933 . S
Zn362 O368 1.941 . S
Zn362 O369 1.965 . S
Zn363 O361 1.950 . S
Zn363 O370 1.938 . S
Zn363 O371 1.906 . S
Zn363 O381 1.953 . S
Zn364 O361 1.945 . S
Zn364 O366 1.932 . S
Zn364 O373 1.977 . S
Zn364 O374 1.910 . S
O365 Zn362 1.933 . S
O365 C376 1.226 . S
O366 Zn364 1.932 . S
O366 C376 1.307 . S
O367 Zn360 1.919 . S
O367 C378 1.253 . S
O368 Zn362 1.941 . S
O368 C378 1.283 . S
O369 Zn362 1.965 . S
O369 C377 1.303 . S
O370 Zn363 1.938 . S
O370 C377 1.247 . S
O371 Zn363 1.906 . S
O371 C379 1.304 . S
O372 Zn360 1.924 . S
O372 C380 1.311 . S
O373 Zn364 1.977 . S
O373 C379 1.272 . S
O374 Zn364 1.910 . S
O374 C380 1.231 . S
C375 O359 1.225 . S
C375 O381 1.298 . S
C376 O365 1.226 . S
C376 O366 1.307 . S
C377 O369 1.303 . S
C377 O370 1.247 . S
C378 O367 1.253 . S
C378 O368 1.283 . S
C379 O371 1.304 . S
C379 O373 1.272 . S
C380 O372 1.311 . S
C380 O374 1.231 . S
O381 Zn363 1.953 . S
O381 C375 1.298 . S
O382 Zn383 1.953 . S
O382 C398 1.225 . S
Zn383 O382 1.953 . S
Zn383 O384 1.949 1_565 S
Zn383 O390 1.919 . S
Zn383 O395 1.924 . S
O384 Zn383 1.949 1_545 S
O384 Zn385 1.923 . S
O384 Zn386 1.950 . S
O384 Zn387 1.945 . S
Zn385 O384 1.923 . S
Zn385 O388 1.933 . S
Zn385 O391 1.941 . S
Zn385 O392 1.965 . S
Zn386 O384 1.950 . S
Zn386 O393 1.938 . S
Zn386 O394 1.906 . S
Zn386 O404 1.953 1_545 S
Zn387 O384 1.945 . S
Zn387 O389 1.932 . S
Zn387 O396 1.977 . S
Zn387 O397 1.910 . S
O388 Zn385 1.933 . S
O388 C399 1.226 . S
O389 Zn387 1.932 . S
O389 C399 1.307 . S
O390 Zn383 1.919 . S
O390 C401 1.253 . S
O391 Zn385 1.941 . S
O391 C401 1.283 1_545 S
O392 Zn385 1.965 . S
O392 C400 1.303 . S
O393 Zn386 1.938 . S
O393 C400 1.247 . S
O394 Zn386 1.906 . S
O394 C402 1.304 . S
O395 Zn383 1.924 . S
O395 C403 1.311 . S
O396 Zn387 1.977 . S
O396 C402 1.272 . S
O397 Zn387 1.910 . S
O397 C403 1.231 1_545 S
C398 O382 1.225 . S
C398 O404 1.298 . S
C399 O388 1.226 . S
C399 O389 1.307 . S
C400 O392 1.303 . S
C400 O393 1.247 . S
C401 O390 1.253 . S
C401 O391 1.283 1_565 S
C402 O394 1.304 . S
C402 O396 1.272 . S
C403 O395 1.311 . S
C403 O397 1.231 1_565 S
O404 Zn386 1.953 1_565 S
O404 C398 1.298 . S
O405 Zn406 1.953 . S
O405 C421 1.225 . S
Zn406 O405 1.953 . S
Zn406 O407 1.949 . S
Zn406 O413 1.919 . S
Zn406 O418 1.924 . S
O407 Zn406 1.949 . S
O407 Zn408 1.923 . S
O407 Zn409 1.950 . S
O407 Zn410 1.945 . S
Zn408 O407 1.923 . S
Zn408 O411 1.933 . S
Zn408 O414 1.941 . S
Zn408 O415 1.965 . S
Zn409 O407 1.950 . S
Zn409 O416 1.938 . S
Zn409 O417 1.906 . S
Zn409 O427 1.953 . S
Zn410 O407 1.945 . S
Zn410 O412 1.932 . S
Zn410 O419 1.977 . S
Zn410 O420 1.910 . S
O411 Zn408 1.933 . S
O411 C422 1.226 . S
O412 Zn410 1.932 . S
O412 C422 1.307 . S
O413 Zn406 1.919 . S
O413 C424 1.253 . S
O414 Zn408 1.941 . S
O414 C424 1.283 . S
O415 Zn408 1.965 . S
O415 C423 1.303 . S
O416 Zn409 1.938 . S
O416 C423 1.247 . S
O417 Zn409 1.906 . S
O417 C425 1.304 . S
O418 Zn406 1.924 . S
O418 C426 1.311 . S
O419 Zn410 1.977 . S
O419 C425 1.272 . S
O420 Zn410 1.910 . S
O420 C426 1.231 . S
C421 O405 1.225 . S
C421 O427 1.298 . S
C422 O411 1.226 . S
C422 O412 1.307 . S
C423 O415 1.303 . S
C423 O416 1.247 . S
C424 O413 1.253 . S
C424 O414 1.283 . S
C425 O417 1.304 . S
C425 O419 1.272 . S
C426 O418 1.311 . S
C426 O420 1.231 . S
O427 Zn409 1.953 . S
O427 C421 1.298 . S
O428 Zn429 1.953 1_445 S
O428 C444 1.225 . S
Zn429 O428 1.953 1_665 S
Zn429 O430 1.949 1_665 S
Zn429 O436 1.919 . S
Zn429 O441 1.924 1_565 S
O430 Zn429 1.949 1_445 S
O430 Zn431 1.923 1_545 S
O430 Zn432 1.950 . S
O430 Zn433 1.945 1_455 S
Zn431 O430 1.923 1_565 S
Zn431 O434 1.924 1_455 S
Zn431 O437 1.941 . S
Zn431 O438 1.965 . S
Zn432 O430 1.950 . S
Zn432 O439 1.938 . S
Zn432 O440 1.906 . S
Zn432 O450 1.953 . S
Zn433 O430 1.945 1_655 S
Zn433 O435 1.932 . S
Zn433 O442 1.977 . S
Zn433 O443 1.910 . S
O434 Zn431 1.924 1_655 S
O434 C445 1.242 . S
O435 Zn433 1.932 . S
O435 C445 1.307 1_545 S
O436 Zn429 1.919 . S
O436 C447 1.253 . S
O437 Zn431 1.941 . S
O437 C447 1.283 1_455 S
O438 Zn431 1.965 . S
O438 C446 1.303 . S
O439 Zn432 1.938 . S
O439 C446 1.247 1_545 S
O440 Zn432 1.906 . S
O440 C448 1.304 . S
O441 Zn429 1.924 1_545 S
O441 C449 1.311 . S
O442 Zn433 1.977 . S
O442 C448 1.272 1_655 S
O443 Zn433 1.910 . S
O443 C449 1.231 . S
C444 O428 1.225 . S
C444 O450 1.298 . S
C445 O434 1.242 . S
C445 O435 1.307 1_565 S
C446 O438 1.303 . S
C446 O439 1.247 1_565 S
C447 O436 1.253 . S
C447 O437 1.283 1_655 S
C448 O440 1.304 . S
C448 O442 1.272 1_455 S
C449 O441 1.311 . S
C449 O443 1.231 . S
O450 Zn432 1.953 . S
O450 C444 1.298 . S
O451 Zn452 1.953 . S
O451 C467 1.225 . S
Zn452 O451 1.953 . S
Zn452 O453 1.949 . S
Zn452 O459 1.919 . S
Zn452 O464 1.924 . S
O453 Zn452 1.949 . S
O453 Zn454 1.923 . S
O453 Zn455 1.950 . S
O453 Zn456 1.945 . S
Zn454 O453 1.923 . S
Zn454 O457 1.933 . S
Zn454 O460 1.941 . S
Zn454 O461 1.965 . S
Zn455 O453 1.950 . S
Zn455 O462 1.938 . S
Zn455 O463 1.906 . S
Zn455 O473 1.953 . S
Zn456 O453 1.945 . S
Zn456 O458 1.932 . S
Zn456 O465 1.977 . S
Zn456 O466 1.910 . S
O457 Zn454 1.933 . S
O457 C468 1.226 . S
O458 Zn456 1.932 . S
O458 C468 1.307 . S
O459 Zn452 1.919 . S
O459 C470 1.253 . S
O460 Zn454 1.941 . S
O460 C470 1.283 . S
O461 Zn454 1.965 . S
O461 C469 1.303 . S
O462 Zn455 1.938 . S
O462 C469 1.247 . S
O463 Zn455 1.906 . S
O463 C471 1.304 . S
O464 Zn452 1.924 . S
O464 C472 1.311 . S
O465 Zn456 1.977 . S
O465 C471 1.272 . S
O466 Zn456 1.910 . S
O466 C472 1.231 . S
C467 O451 1.225 . S
C467 O473 1.298 . S
C468 O457 1.226 . S
C468 O458 1.307 . S
C469 O461 1.303 . S
C469 O462 1.247 . S
C470 O459 1.253 . S
C470 O460 1.283 . S
C471 O463 1.304 . S
C471 O465 1.272 . S
C472 O464 1.311 . S
C472 O466 1.231 . S
O473 Zn455 1.953 . S
O473 C467 1.298 . S
O474 Zn475 1.953 . S
O474 C490 1.225 . S
Zn475 O474 1.953 . S
Zn475 O476 1.949 . S
Zn475 O482 1.919 1_544 S
Zn475 O487 1.924 . S
O476 Zn475 1.949 . S
O476 Zn477 1.923 1_544 S
O476 Zn478 1.950 . S
O476 Zn479 1.945 1_554 S
Zn477 O476 1.923 1_566 S
Zn477 O480 1.933 . S
Zn477 O483 1.941 . S
Zn477 O484 1.965 1_556 S
Zn478 O476 1.950 . S
Zn478 O485 1.938 1_545 S
Zn478 O486 1.906 . S
Zn478 O496 1.953 . S
Zn479 O476 1.945 1_556 S
Zn479 O481 1.932 . S
Zn479 O488 1.977 . S
Zn479 O489 1.910 . S
O480 Zn477 1.933 . S
O480 C491 1.226 . S
O481 Zn479 1.932 . S
O481 C491 1.307 1_545 S
O482 Zn475 1.919 1_566 S
O482 C493 1.253 . S
O483 Zn477 1.941 . S
O483 C493 1.283 . S
O484 Zn477 1.965 1_554 S
O484 C492 1.303 . S
O485 Zn478 1.938 1_565 S
O485 C492 1.247 . S
O486 Zn478 1.906 . S
O486 C494 1.304 . S
O487 Zn475 1.924 . S
O487 C495 1.311 1_554 S
O488 Zn479 1.977 . S
O488 C494 1.272 1_556 S
O489 Zn479 1.910 . S
O489 C495 1.231 . S
C490 O474 1.225 . S
C490 O496 1.298 . S
C491 O480 1.226 . S
C491 O481 1.307 1_565 S
C492 O484 1.303 . S
C492 O485 1.247 . S
C493 O482 1.253 . S
C493 O483 1.283 . S
C494 O486 1.304 . S
C494 O488 1.272 1_554 S
C495 O487 1.311 1_556 S
C495 O489 1.231 . S
O496 Zn478 1.953 . S
O496 C490 1.298 . S
O497 Zn498 1.953 . S
O497 C513 1.225 . S
Zn498 O497 1.953 . S
Zn498 O499 1.949 . S
Zn498 O505 1.919 . S
Zn498 O510 1.924 . S
O499 Zn498 1.949 . S
O499 Zn500 1.923 . S
O499 Zn501 1.950 . S
O499 Zn502 1.945 . S
Zn500 O499 1.923 . S
Zn500 O503 1.933 . S
Zn500 O506 1.941 . S
Zn500 O507 1.965 . S
Zn501 O499 1.950 . S
Zn501 O508 1.938 . S
Zn501 O509 1.906 . S
Zn501 O519 1.953 . S
Zn502 O499 1.945 . S
Zn502 O504 1.932 . S
Zn502 O511 1.977 . S
Zn502 O512 1.910 . S
O503 Zn500 1.933 . S
O503 C514 1.226 . S
O504 Zn502 1.932 . S
O504 C514 1.307 . S
O505 Zn498 1.919 . S
O505 C516 1.253 . S
O506 Zn500 1.941 . S
O506 C516 1.283 . S
O507 Zn500 1.965 . S
O507 C515 1.303 . S
O508 Zn501 1.938 . S
O508 C515 1.247 . S
O509 Zn501 1.906 . S
O509 C517 1.304 . S
O510 Zn498 1.924 . S
O510 C518 1.311 . S
O511 Zn502 1.977 . S
O511 C517 1.272 . S
O512 Zn502 1.910 . S
O512 C518 1.231 . S
C513 O497 1.225 . S
C513 O519 1.298 . S
C514 O503 1.226 . S
C514 O504 1.307 . S
C515 O507 1.303 . S
C515 O508 1.247 . S
C516 O505 1.253 . S
C516 O506 1.283 . S
C517 O509 1.304 . S
C517 O511 1.272 . S
C518 O510 1.311 . S
C518 O512 1.231 . S
O519 Zn501 1.953 . S
O519 C513 1.298 . S
O520 Zn521 1.953 . S
O520 C536 1.225 . S
Zn521 O520 1.953 . S
Zn521 O522 1.949 1_556 S
Zn521 O528 1.919 . S
Zn521 O533 1.924 . S
O522 Zn521 1.949 1_554 S
O522 Zn523 1.923 . S
O522 Zn524 1.950 . S
O522 Zn525 1.945 . S
Zn523 O522 1.923 . S
Zn523 O526 1.933 . S
Zn523 O529 1.941 . S
Zn523 O530 1.965 . S
Zn524 O522 1.950 . S
Zn524 O531 1.938 . S
Zn524 O532 1.906 . S
Zn524 O542 1.953 1_554 S
Zn525 O522 1.945 . S
Zn525 O527 1.932 . S
Zn525 O534 1.977 . S
Zn525 O535 1.910 . S
O526 Zn523 1.933 . S
O526 C537 1.226 . S
O527 Zn525 1.932 . S
O527 C537 1.307 . S
O528 Zn521 1.919 . S
O528 C539 1.253 . S
O529 Zn523 1.941 . S
O529 C539 1.283 1_554 S
O530 Zn523 1.965 . S
O530 C538 1.303 . S
O531 Zn524 1.938 . S
O531 C538 1.247 . S
O532 Zn524 1.906 . S
O532 C540 1.304 . S
O533 Zn521 1.924 . S
O533 C541 1.311 . S
O534 Zn525 1.977 . S
O534 C540 1.272 . S
O535 Zn525 1.910 . S
O535 C541 1.231 1_554 S
C536 O520 1.225 . S
C536 O542 1.298 . S
C537 O526 1.226 . S
C537 O527 1.307 . S
C538 O530 1.303 . S
C538 O531 1.247 . S
C539 O528 1.253 . S
C539 O529 1.283 1_556 S
C540 O532 1.304 . S
C540 O534 1.272 . S
C541 O533 1.311 . S
C541 O535 1.231 1_556 S
O542 Zn524 1.953 1_556 S
O542 C536 1.298 . S
O543 Zn544 1.953 . S
O543 C559 1.225 . S
Zn544 O543 1.953 . S
Zn544 O545 1.949 . S
Zn544 O551 1.919 . S
Zn544 O556 1.924 . S
O545 Zn544 1.949 . S
O545 Zn546 1.923 . S
O545 Zn547 1.950 . S
O545 Zn548 1.945 . S
Zn546 O545 1.923 . S
Zn546 O549 1.933 . S
Zn546 O552 1.941 . S
Zn546 O553 1.965 . S
Zn547 O545 1.950 . S
Zn547 O554 1.938 . S
Zn547 O555 1.906 . S
Zn547 O565 1.953 . S
Zn548 O545 1.945 . S
Zn548 O550 1.932 . S
Zn548 O557 1.977 . S
Zn548 O558 1.910 . S
O549 Zn546 1.933 . S
O549 C560 1.226 . S
O550 Zn548 1.932 . S
O550 C560 1.307 . S
O551 Zn544 1.919 . S
O551 C562 1.253 . S
O552 Zn546 1.941 . S
O552 C562 1.283 . S
O553 Zn546 1.965 . S
O553 C561 1.303 . S
O554 Zn547 1.938 . S
O554 C561 1.247 . S
O555 Zn547 1.906 . S
O555 C563 1.304 . S
O556 Zn544 1.924 . S
O556 C564 1.311 . S
O557 Zn548 1.977 . S
O557 C563 1.272 . S
O558 Zn548 1.910 . S
O558 C564 1.231 . S
C559 O543 1.225 . S
C559 O565 1.298 . S
C560 O549 1.226 . S
C560 O550 1.307 . S
C561 O553 1.303 . S
C561 O554 1.247 . S
C562 O551 1.253 . S
C562 O552 1.283 . S
C563 O555 1.304 . S
C563 O557 1.272 . S
C564 O556 1.311 . S
C564 O558 1.231 . S
O565 Zn547 1.953 . S
O565 C559 1.298 . S
O566 Zn567 1.953 . S
O566 C582 1.225 . S
Zn567 O566 1.953 . S
Zn567 O568 1.949 . S
Zn567 O574 1.919 . S
Zn567 O579 1.924 . S
O568 Zn567 1.949 . S
O568 Zn569 1.923 . S
O568 Zn570 1.950 1_455 S
O568 Zn571 1.945 1_455 S
Zn569 O568 1.923 . S
Zn569 O572 1.933 1_455 S
Zn569 O575 1.941 . S
Zn569 O576 1.965 1_455 S
Zn570 O568 1.950 1_655 S
Zn570 O577 1.938 . S
Zn570 O578 1.906 . S
Zn570 O588 1.953 1_655 S
Zn571 O568 1.945 1_655 S
Zn571 O573 1.932 . S
Zn571 O580 1.977 . S
Zn571 O581 1.910 1_655 S
O572 Zn569 1.933 1_655 S
O572 C583 1.226 . S
O573 Zn571 1.932 . S
O573 C583 1.307 . S
O574 Zn567 1.919 . S
O574 C585 1.253 . S
O575 Zn569 1.941 . S
O575 C585 1.283 . S
O576 Zn569 1.965 1_655 S
O576 C584 1.303 . S
O577 Zn570 1.938 . S
O577 C584 1.247 . S
O578 Zn570 1.906 . S
O578 C586 1.304 . S
O579 Zn567 1.924 . S
O579 C587 1.311 . S
O580 Zn571 1.977 . S
O580 C586 1.272 . S
O581 Zn571 1.910 1_455 S
O581 C587 1.231 . S
C582 O566 1.225 . S
C582 O588 1.298 . S
C583 O572 1.226 . S
C583 O573 1.307 . S
C584 O576 1.303 . S
C584 O577 1.247 . S
C585 O574 1.253 . S
C585 O575 1.283 . S
C586 O578 1.304 . S
C586 O580 1.272 . S
C587 O579 1.311 . S
C587 O581 1.231 . S
O588 Zn570 1.953 1_455 S
O588 C582 1.298 . S
O589 Zn590 1.953 . S
O589 C605 1.225 . S
Zn590 O589 1.953 . S
Zn590 O591 1.949 . S
Zn590 O597 1.919 . S
Zn590 O602 1.924 . S
O591 Zn590 1.949 . S
O591 Zn592 1.923 . S
O591 Zn593 1.950 . S
O591 Zn594 1.945 . S
Zn592 O591 1.923 . S
Zn592 O595 1.933 . S
Zn592 O598 1.941 . S
Zn592 O599 1.965 . S
Zn593 O591 1.950 . S
Zn593 O600 1.938 . S
Zn593 O601 1.906 . S
Zn593 O611 1.953 . S
Zn594 O591 1.945 . S
Zn594 O596 1.932 . S
Zn594 O603 1.977 . S
Zn594 O604 1.910 . S
O595 Zn592 1.933 . S
O595 C606 1.226 . S
O596 Zn594 1.932 . S
O596 C606 1.307 . S
O597 Zn590 1.919 . S
O597 C608 1.253 . S
O598 Zn592 1.941 . S
O598 C608 1.283 . S
O599 Zn592 1.965 . S
O599 C607 1.303 . S
O600 Zn593 1.938 . S
O600 C607 1.247 . S
O601 Zn593 1.906 . S
O601 C609 1.304 . S
O602 Zn590 1.924 . S
O602 C610 1.311 . S
O603 Zn594 1.977 . S
O603 C609 1.272 . S
O604 Zn594 1.910 . S
O604 C610 1.231 . S
C605 O589 1.225 . S
C605 O611 1.298 . S
C606 O595 1.226 . S
C606 O596 1.307 . S
C607 O599 1.303 . S
C607 O600 1.247 . S
C608 O597 1.253 . S
C608 O598 1.283 . S
C609 O601 1.304 . S
C609 O603 1.272 . S
C610 O602 1.311 . S
C610 O604 1.231 . S
O611 Zn593 1.953 . S
O611 C605 1.298 . S
O612 Zn613 1.953 . S
O612 C628 1.225 . S
Zn613 O612 1.953 . S
Zn613 O614 1.949 . S
Zn613 O620 1.919 . S
Zn613 O625 1.924 . S
O614 Zn613 1.949 . S
O614 Zn615 1.923 . S
O614 Zn616 1.950 . S
O614 Zn617 1.945 . S
Zn615 O614 1.923 . S
Zn615 O618 1.933 . S
Zn615 O621 1.941 . S
Zn615 O622 1.965 . S
Zn616 O614 1.950 . S
Zn616 O623 1.938 . S
Zn616 O624 1.906 . S
Zn616 O634 1.953 . S
Zn617 O614 1.945 . S
Zn617 O619 1.932 . S
Zn617 O626 1.977 . S
Zn617 O627 1.910 . S
O618 Zn615 1.933 . S
O618 C629 1.226 . S
O619 Zn617 1.932 . S
O619 C629 1.307 . S
O620 Zn613 1.919 . S
O620 C631 1.253 . S
O621 Zn615 1.941 . S
O621 C631 1.283 . S
O622 Zn615 1.965 . S
O622 C630 1.303 . S
O623 Zn616 1.938 . S
O623 C630 1.247 . S
O624 Zn616 1.906 . S
O624 C632 1.304 . S
O625 Zn613 1.924 . S
O625 C633 1.311 . S
O626 Zn617 1.977 . S
O626 C632 1.272 . S
O627 Zn617 1.910 . S
O627 C633 1.231 . S
C628 O612 1.225 . S
C628 O634 1.298 . S
C629 O618 1.226 . S
C629 O619 1.307 . S
C630 O622 1.303 . S
C630 O623 1.247 . S
C631 O620 1.253 . S
C631 O621 1.283 . S
C632 O624 1.304 . S
C632 O626 1.272 . S
C633 O625 1.311 . S
C633 O627 1.231 . S
O634 Zn616 1.953 . S
O634 C628 1.298 . S
O635 Zn636 1.953 . S
O635 C651 1.225 . S
Zn636 O635 1.953 . S
Zn636 O637 1.949 . S
Zn636 O643 1.919 . S
Zn636 O648 1.924 . S
O637 Zn636 1.949 . S
O637 Zn638 1.923 . S
O637 Zn639 1.950 . S
O637 Zn640 1.945 . S
Zn638 O637 1.923 . S
Zn638 O641 1.933 . S
Zn638 O644 1.941 . S
Zn638 O645 1.965 . S
Zn639 O637 1.950 . S
Zn639 O646 1.938 . S
Zn639 O647 1.906 . S
Zn639 O657 1.953 . S
Zn640 O637 1.945 . S
Zn640 O642 1.932 . S
Zn640 O649 1.977 . S
Zn640 O650 1.910 . S
O641 Zn638 1.933 . S
O641 C652 1.226 . S
O642 Zn640 1.932 . S
O642 C652 1.307 . S
O643 Zn636 1.919 . S
O643 C654 1.253 . S
O644 Zn638 1.941 . S
O644 C654 1.283 . S
O645 Zn638 1.965 . S
O645 C653 1.303 . S
O646 Zn639 1.938 . S
O646 C653 1.247 . S
O647 Zn639 1.906 . S
O647 C655 1.304 . S
O648 Zn636 1.924 . S
O648 C656 1.311 . S
O649 Zn640 1.977 . S
O649 C655 1.272 . S
O650 Zn640 1.910 . S
O650 C656 1.231 . S
C651 O635 1.225 . S
C651 O657 1.298 . S
C652 O641 1.226 . S
C652 O642 1.307 . S
C653 O645 1.303 . S
C653 O646 1.247 . S
C654 O643 1.253 . S
C654 O644 1.283 . S
C655 O647 1.304 . S
C655 O649 1.272 . S
C656 O648 1.311 . S
C656 O650 1.231 . S
O657 Zn639 1.953 . S
O657 C651 1.298 . S
O658 Zn659 1.953 . S
O658 C674 1.225 . S
Zn659 O658 1.953 . S
Zn659 O660 1.949 . S
Zn659 O666 1.919 . S
Zn659 O671 1.924 . S
O660 Zn659 1.949 . S
O660 Zn661 1.923 . S
O660 Zn662 1.950 . S
O660 Zn663 1.945 . S
Zn661 O660 1.923 . S
Zn661 O664 1.933 . S
Zn661 O667 1.941 . S
Zn661 O668 1.965 . S
Zn662 O660 1.950 . S
Zn662 O669 1.938 . S
Zn662 O670 1.906 . S
Zn662 O680 1.953 . S
Zn663 O660 1.945 . S
Zn663 O665 1.932 . S
Zn663 O672 1.977 . S
Zn663 O673 1.910 . S
O664 Zn661 1.933 . S
O664 C675 1.226 . S
O665 Zn663 1.932 . S
O665 C675 1.307 . S
O666 Zn659 1.919 . S
O666 C677 1.253 . S
O667 Zn661 1.941 . S
O667 C677 1.283 . S
O668 Zn661 1.965 . S
O668 C676 1.303 . S
O669 Zn662 1.938 . S
O669 C676 1.247 . S
O670 Zn662 1.906 . S
O670 C678 1.304 . S
O671 Zn659 1.924 . S
O671 C679 1.311 . S
O672 Zn663 1.977 . S
O672 C678 1.272 . S
O673 Zn663 1.910 . S
O673 C679 1.231 . S
C674 O658 1.225 . S
C674 O680 1.298 . S
C675 O664 1.226 . S
C675 O665 1.307 . S
C676 O668 1.303 . S
C676 O669 1.247 . S
C677 O666 1.253 . S
C677 O667 1.283 . S
C678 O670 1.304 . S
C678 O672 1.272 . S
C679 O671 1.311 . S
C679 O673 1.231 . S
O680 Zn662 1.953 . S
O680 C674 1.298 . S
O681 Zn682 1.953 1_454 S
O681 C697 1.225 . S
Zn682 O681 1.953 1_656 S
Zn682 O683 1.949 1_656 S
Zn682 O689 1.919 . S
Zn682 O694 1.924 1_655 S
O683 Zn682 1.949 1_454 S
O683 Zn684 1.923 1_455 S
O683 Zn685 1.950 . S
O683 Zn686 1.945 1_554 S
Zn684 O683 1.923 1_655 S
Zn684 O687 1.933 . S
Zn684 O690 1.941 . S
Zn684 O691 1.965 . S
Zn685 O683 1.950 . S
Zn685 O692 1.938 . S
Zn685 O693 1.906 . S
Zn685 O703 1.953 . S
Zn686 O683 1.945 1_556 S
Zn686 O688 1.932 . S
Zn686 O695 1.977 . S
Zn686 O696 1.910 . S
O687 Zn684 1.933 . S
O687 C698 1.226 1_554 S
O688 Zn686 1.932 . S
O688 C698 1.307 1_455 S
O689 Zn682 1.919 . S
O689 C700 1.253 . S
O690 Zn684 1.941 . S
O690 C700 1.283 1_554 S
O691 Zn684 1.965 . S
O691 C699 1.303 . S
O692 Zn685 1.938 . S
O692 C699 1.247 1_455 S
O693 Zn685 1.906 . S
O693 C701 1.304 . S
O694 Zn682 1.924 1_455 S
O694 C702 1.311 . S
O695 Zn686 1.977 . S
O695 C701 1.272 1_556 S
O696 Zn686 1.910 . S
O696 C702 1.231 . S
C697 O681 1.225 . S
C697 O703 1.298 . S
C698 O687 1.226 1_556 S
C698 O688 1.307 1_655 S
C699 O691 1.303 . S
C699 O692 1.247 1_655 S
C700 O689 1.253 . S
C700 O690 1.283 1_556 S
C701 O693 1.304 . S
C701 O695 1.272 1_554 S
C702 O694 1.311 . S
C702 O696 1.231 . S
O703 Zn685 1.953 . S
O703 C697 1.298 . S
C352 C13 1.593 1_655 S
C25 C380 1.730 . S
C39 C398 1.271 . S
C424 C50 1.894 . S
C21 C447 1.508 . S
C467 C35 1.234 . S
C495 C55 1.996 . S
C8 C513 1.501 . S
C69 C354 1.659 1_545 S
C77 C376 1.270 . S
C400 C97 1.754 1_545 S
C421 C105 1.266 . S
C63 C444 1.323 . S
C469 C83 1.756 . S
C491 C91 1.205 . S
C515 C111 1.696 . S
C355 C106 1.377 1_556 S
C538 C123 1.428 . S
C134 C562 1.439 . S
C586 C151 1.221 . S
C64 C516 1.373 . S
C401 C78 1.482 . S
C137 C607 1.279 . S
C632 C165 1.256 . S
C175 C353 1.398 1_655 S
C630 C193 1.396 . S
C209 C399 0.930 . S
C223 C609 0.961 . S
C448 C195 0.972 . S
C560 C207 1.055 . S
C492 C221 1.388 . S
C652 C176 1.252 . S
C357 C231 1.558 . S
C251 C628 1.421 . S
C403 C259 1.566 1_565 S
C279 C606 1.422 . S
C237 C445 1.431 1_545 S
C245 C564 1.628 . S
C490 C265 1.410 . S
C273 C656 1.475 . S
C274 C356 1.354 . S
C291 C541 1.378 . S
C302 C471 1.531 . S
C319 C585 1.243 . S
C655 C232 1.372 . S
C402 C246 1.504 . S
C426 C305 1.390 . S
C378 C333 1.233 . S
C36 C674 1.535 . S
C633 C53 1.748 . S
C697 C7 1.231 . S
C22 C608 1.870 . S
C49 C539 1.552 . S
C559 C11 1.306 . S
C587 C27 1.945 1_455 S
C651 C41 1.526 . S
C676 C167 1.675 . S
C119 C629 1.257 . S
C139 C699 1.777 . S
C605 C147 1.271 . S
C536 C161 1.320 . S
C125 C561 1.729 . S
C583 C133 1.218 . S
C153 C653 1.687 . S
C677 C148 1.329 . S
C446 C81 1.367 . S
C470 C92 1.393 . S
C109 C494 1.161 . S
C654 C162 1.435 . S
C120 C700 1.424 1_554 S
C423 C95 1.338 . S
C379 C67 1.317 . S
C203 C675 1.439 . S
C377 C217 1.887 . S
C698 C181 0.912 . S
C190 C425 1.216 . S
C218 C540 1.219 . S
C179 C468 1.073 . S
C189 C584 1.886 1_455 S
C204 C514 1.307 . S
C679 C329 1.711 . S
C293 C375 1.370 . S
C702 C301 1.690 . S
C321 C422 1.355 . S
C335 C537 1.367 . S
C472 C287 1.762 . S
C307 C582 1.359 . S
C518 C315 1.618 . S
C678 C316 1.390 . S
C449 C249 1.484 . S
C260 C563 1.500 . S
C493 C277 1.358 1_556 S
C517 C330 1.391 . S
C288 C701 1.526 . S
C610 C263 1.510 . S
C631 C235 1.347 . S
