# Generated by pormake.
# Topology pyr, (3,6)-cn, num edge types: 1
# Building blocks:
#     Node 0, Type 0, BuildingBlock: OLANEW_clean_sbu_2, # of connection points: 3
#     Node 1, Type 0, BuildingBlock: OLANEW_clean_sbu_2, # of connection points: 3
#     Node 2, Type 0, BuildingBlock: OLANEW_clean_sbu_2, # of connection points: 3
#     Node 3, Type 0, BuildingBlock: OLANEW_clean_sbu_2, # of connection points: 3
#     Node 4, Type 0, BuildingBlock: OLANEW_clean_sbu_2, # of connection points: 3
#     Node 5, Type 0, BuildingBlock: OLANEW_clean_sbu_2, # of connection points: 3
#     Node 6, Type 0, BuildingBlock: OLANEW_clean_sbu_2, # of connection points: 3
#     Node 7, Type 0, BuildingBlock: OLANEW_clean_sbu_2, # of connection points: 3
#     Node 8, Type 1, BuildingBlock: MIFKUJ_clean_sbu_0, # of connection points: 6
#     Node 9, Type 1, BuildingBlock: MIFKUJ_clean_sbu_0, # of connection points: 6
#     Node 10, Type 1, BuildingBlock: MIFKUJ_clean_sbu_0, # of connection points: 6
#     Node 11, Type 1, BuildingBlock: MIFKUJ_clean_sbu_0, # of connection points: 6
#     Edge 12, Type (0, 1), BuildingBlock: AJUNOK_clean_linker_0, # of connection points: 2
#     Edge 13, Type (0, 1), BuildingBlock: AJUNOK_clean_linker_0, # of connection points: 2
#     Edge 14, Type (0, 1), BuildingBlock: AJUNOK_clean_linker_0, # of connection points: 2
#     Edge 15, Type (0, 1), BuildingBlock: AJUNOK_clean_linker_0, # of connection points: 2
#     Edge 16, Type (0, 1), BuildingBlock: AJUNOK_clean_linker_0, # of connection points: 2
#     Edge 17, Type (0, 1), BuildingBlock: AJUNOK_clean_linker_0, # of connection points: 2
#     Edge 18, Type (0, 1), BuildingBlock: AJUNOK_clean_linker_0, # of connection points: 2
#     Edge 19, Type (0, 1), BuildingBlock: AJUNOK_clean_linker_0, # of connection points: 2
#     Edge 20, Type (0, 1), BuildingBlock: AJUNOK_clean_linker_0, # of connection points: 2
#     Edge 21, Type (0, 1), BuildingBlock: AJUNOK_clean_linker_0, # of connection points: 2
#     Edge 22, Type (0, 1), BuildingBlock: AJUNOK_clean_linker_0, # of connection points: 2
#     Edge 23, Type (0, 1), BuildingBlock: AJUNOK_clean_linker_0, # of connection points: 2
#     Edge 24, Type (0, 1), BuildingBlock: AJUNOK_clean_linker_0, # of connection points: 2
#     Edge 25, Type (0, 1), BuildingBlock: AJUNOK_clean_linker_0, # of connection points: 2
#     Edge 26, Type (0, 1), BuildingBlock: AJUNOK_clean_linker_0, # of connection points: 2
#     Edge 27, Type (0, 1), BuildingBlock: AJUNOK_clean_linker_0, # of connection points: 2
#     Edge 28, Type (0, 1), BuildingBlock: AJUNOK_clean_linker_0, # of connection points: 2
#     Edge 29, Type (0, 1), BuildingBlock: AJUNOK_clean_linker_0, # of connection points: 2
#     Edge 30, Type (0, 1), BuildingBlock: AJUNOK_clean_linker_0, # of connection points: 2
#     Edge 31, Type (0, 1), BuildingBlock: AJUNOK_clean_linker_0, # of connection points: 2
#     Edge 32, Type (0, 1), BuildingBlock: AJUNOK_clean_linker_0, # of connection points: 2
#     Edge 33, Type (0, 1), BuildingBlock: AJUNOK_clean_linker_0, # of connection points: 2
#     Edge 34, Type (0, 1), BuildingBlock: AJUNOK_clean_linker_0, # of connection points: 2
#     Edge 35, Type (0, 1), BuildingBlock: AJUNOK_clean_linker_0, # of connection points: 2
# Relax obj value: 0.081
# Max RMSD: 0.166
# Mean RMSD: 0.121
data_MOF--net-pyr--node1-OLANEW_clean_sbu_2--node2-MIFKUJ_clean_sbu_0--edge1-AJUNOK_clean_linker_0
_symmetry_space_group_name_H-M    P1
_symmetry_Int_Tables_number       1
_symmetry_cell_setting            triclinic
loop_
_symmetry_equiv_pos_as_xyz
'x, y, z'
_cell_length_a     32.048817
_cell_length_b     28.931138
_cell_length_c     29.596351
_cell_angle_alpha  89.653086
_cell_angle_beta   86.706077
_cell_angle_gamma 102.66288
loop_
_atom_site_label
_atom_site_type_symbol
_atom_site_fract_x
_atom_site_fract_y
_atom_site_fract_z
_atom_type_partial_charge
O0 O 0.26543 0.1812 0.18009 0.0
Cd1 Cd 0.20517 0.20577 0.22136 0.0
O2 O 0.22616 0.12016 0.14743 0.0
Cd3 Cd 0.17055 0.12693 0.19023 0.0
O4 O 0.1394 0.11116 0.25755 0.0
C5 C 0.15971 0.09138 0.28475 0.0
O6 O 0.19691 0.08307 0.27049 0.0
C7 C 0.26262 0.14669 0.15311 0.0
C8 C 0.17219 0.27375 0.17587 0.0
O9 O 0.20564 0.2855 0.19859 0.0
O10 O 0.15444 0.22962 0.17402 0.0
O11 O 0.39648 0.89079 0.83089 0.0
Cd12 Cd 0.34695 0.86064 0.77318 0.0
O13 O 0.36378 0.94444 0.85863 0.0
Cd14 Cd 0.31433 0.9283 0.80978 0.0
O15 O 0.25986 0.92394 0.76779 0.0
C16 C 0.26366 0.92494 0.7248 0.0
O17 O 0.30172 0.92757 0.70457 0.0
C18 C 0.39441 0.92307 0.85925 0.0
C19 C 0.38505 0.80037 0.7202 0.0
O20 O 0.3872 0.84318 0.70714 0.0
O21 O 0.36395 0.78582 0.75756 0.0
O22 O 0.7734 0.45846 0.86658 0.0
Cd23 Cd 0.69578 0.43299 0.85659 0.0
O24 O 0.76277 0.42745 0.93535 0.0
Cd25 Cd 0.69522 0.3945 0.93256 0.0
O26 O 0.64936 0.33013 0.95426 0.0
C27 C 0.66707 0.29806 0.96848 0.0
O28 O 0.70913 0.30676 0.96744 0.0
C29 C 0.78812 0.44999 0.90414 0.0
C30 C 0.65926 0.47331 0.78653 0.0
O31 O 0.66496 0.49373 0.82471 0.0
O32 O 0.67226 0.43474 0.78091 0.0
O33 O 0.92203 0.75717 0.32007 0.0
Cd34 Cd 0.88627 0.68423 0.28391 0.0
O35 O 0.91299 0.71308 0.38146 0.0
Cd36 Cd 0.89915 0.70173 0.45391 0.0
O37 O 0.83817 0.66294 0.48424 0.0
C38 C 0.80838 0.68402 0.49537 0.0
O39 O 0.81635 0.73053 0.4934 0.0
C40 C 0.9243 0.75373 0.3626 0.0
C41 C 0.93423 0.64538 0.2192 0.0
O42 O 0.91671 0.67961 0.2092 0.0
O43 O 0.92988 0.63001 0.2603 0.0
O44 O 0.93769 0.90536 0.80672 0.0
Cd45 Cd 0.91821 0.88687 0.88647 0.0
O46 O 0.88094 0.93272 0.79204 0.0
Cd47 Cd 0.84915 0.92359 0.85999 0.0
O48 O 0.79778 0.93518 0.90777 0.0
C49 C 0.76337 0.9381 0.88972 0.0
O50 O 0.76151 0.93216 0.84585 0.0
C51 C 0.91644 0.92297 0.77887 0.0
C52 C 0.94671 0.80613 0.91038 0.0
O53 O 0.90829 0.80335 0.89888 0.0
O54 O 0.97155 0.84732 0.9113 0.0
O55 O 0.6548 0.0758 0.35159 0.0
Cd56 Cd 0.68136 0.06973 0.42626 0.0
O57 O 0.63763 0.14171 0.37236 0.0
Cd58 Cd 0.60904 0.20364 0.37259 0.0
O59 O 0.59618 0.26807 0.40282 0.0
C60 C 0.6194 0.28402 0.43511 0.0
O61 O 0.64858 0.26131 0.44661 0.0
C62 C 0.63777 0.1102 0.34262 0.0
C63 C 0.76768 0.06754 0.4239 0.0
O64 O 0.73903 0.03008 0.41734 0.0
O65 O 0.75558 0.10642 0.43086 0.0
O66 O 0.43783 0.77842 0.2463 0.0
Cd67 Cd 0.40033 0.70627 0.28829 0.0
O68 O 0.37954 0.7781 0.21049 0.0
Cd69 Cd 0.33981 0.71073 0.23439 0.0
O70 O 0.2842 0.65968 0.21321 0.0
C71 C 0.27496 0.66499 0.17255 0.0
O72 O 0.29948 0.69916 0.14755 0.0
C73 C 0.41782 0.7978 0.21837 0.0
C74 C 0.44388 0.67392 0.35713 0.0
O75 O 0.44482 0.65721 0.31716 0.0
O76 O 0.42349 0.70694 0.36418 0.0
O77 O 0.16359 0.4177 0.76464 0.0
Cd78 Cd 0.19157 0.38018 0.69901 0.0
O79 O 0.1755 0.36324 0.8112 0.0
Cd80 Cd 0.19069 0.31804 0.75703 0.0
O81 O 0.17442 0.26197 0.70814 0.0
C82 C 0.13832 0.25781 0.69107 0.0
O83 O 0.11465 0.28808 0.70268 0.0
C84 C 0.16324 0.40156 0.80479 0.0
C85 C 0.27682 0.42398 0.6763 0.0
O86 O 0.24619 0.43576 0.65627 0.0
O87 O 0.26713 0.39124 0.7069 0.0
Zn88 Zn 0.08063 0.99357 0.55524 0.0
Zn89 Zn 0.9957 0.01014 0.50693 0.0
C90 C 0.0736 0.09297 0.58247 0.0
O91 O 0.03928 0.0891 0.55948 0.0
C92 C 0.95058 0.9212 0.47283 0.0
O93 O 0.91708 0.93847 0.48496 0.0
O94 O 0.12686 0.9649 0.57981 0.0
O95 O 0.02557 0.95264 0.58322 0.0
O96 O 0.98561 0.0042 0.57442 0.0
C97 C 0.12438 0.96121 0.62278 0.0
O98 O 0.09319 0.97545 0.64545 0.0
O99 O 0.09269 0.05881 0.58339 0.0
C100 C 0.93792 0.03832 0.44583 0.0
O101 O 0.95892 0.0182 0.4151 0.0
O102 O 0.94849 0.0393 0.48657 0.0
O103 O 0.04971 0.05045 0.47823 0.0
O104 O 0.09079 -0.00032 0.48704 0.0
O105 O 0.98789 0.94475 0.4802 0.0
C106 C 0.9948 0.97097 0.5972 0.0
C107 C 0.08065 0.03247 0.46415 0.0
Zn108 Zn 0.57024 0.02162 0.06172 0.0
Zn109 Zn 0.50051 0.06708 0.10147 0.0
C110 C 0.51769 0.96876 0.99809 0.0
O111 O 0.53666 0.93644 0.01343 0.0
C112 C 0.55174 0.11539 0.17499 0.0
O113 O 0.5447 0.15555 0.15967 0.0
O114 O 0.61956 0.99484 0.03542 0.0
O115 O 0.59318 0.09161 0.06658 0.0
O116 O 0.53179 0.10537 0.04804 0.0
C117 C 0.63 0.00587 0.994 0.0
O118 O 0.6105 0.03483 0.97353 0.0
O119 O 0.52612 0.00999 0.01457 0.0
C120 C 0.41685 0.08472 0.09134 0.0
O121 O 0.41926 0.05891 0.05532 0.0
O122 O 0.44825 0.09312 0.11667 0.0
O123 O 0.48106 0.99612 0.09875 0.0
O124 O 0.54324 0.98398 0.11743 0.0
O125 O 0.53687 0.07726 0.15485 0.0
C126 C 0.57223 0.11844 0.04826 0.0
C127 C 0.50259 0.97097 0.11889 0.0
Zn128 Zn 0.55202 0.52832 0.55259 0.0
Zn129 Zn 0.52045 0.6037 0.60545 0.0
C130 C 0.63304 0.57489 0.50949 0.0
O131 O 0.62016 0.54523 0.47711 0.0
C132 C 0.45094 0.53486 0.64718 0.0
O133 O 0.47054 0.55063 0.68367 0.0
O134 O 0.5594 0.46885 0.52117 0.0
O135 O 0.54462 0.51119 0.61942 0.0
O136 O 0.56754 0.58498 0.63884 0.0
C137 C 0.5898 0.45004 0.53205 0.0
O138 O 0.6145 0.46979 0.56373 0.0
O139 O 0.60855 0.57524 0.54467 0.0
C140 C 0.47237 0.67325 0.62111 0.0
O141 O 0.45915 0.65778 0.58165 0.0
O142 O 0.50056 0.65571 0.63929 0.0
O143 O 0.53304 0.62653 0.54065 0.0
O144 O 0.50876 0.55402 0.5183 0.0
O145 O 0.46777 0.55065 0.60867 0.0
C146 C 0.56531 0.54112 0.64588 0.0
C147 C 0.51513 0.59847 0.51114 0.0
Zn148 Zn 0.04035 0.56261 0.98291 0.0
Zn149 Zn 0.06486 0.48564 0.05105 0.0
C150 C 0.97002 0.51683 0.93341 0.0
O151 O 0.99508 0.54081 0.9006 0.0
C152 C 0.12244 0.54264 0.10576 0.0
O153 O 0.09434 0.51757 0.13553 0.0
O154 O 0.03404 0.6244 0.95453 0.0
O155 O 0.04504 0.57818 0.0487 0.0
O156 O 0.01373 0.50854 0.07798 0.0
C157 C 0.99839 0.63492 0.96604 0.0
O158 O 0.97086 0.60595 0.99349 0.0
O159 O 0.98392 0.51752 0.97291 0.0
C160 C 0.11182 0.42096 0.08065 0.0
O161 O 0.14033 0.45018 0.05438 0.0
O162 O 0.07384 0.42774 0.08535 0.0
O163 O 0.06668 0.46772 0.98545 0.0
O164 O 0.08776 0.5375 0.95097 0.0
O165 O 0.11659 0.53651 0.06388 0.0
C166 C 0.01948 0.55347 0.07844 0.0
C167 C 0.087 0.49338 0.9528 0.0
C168 C 0.10309 0.08949 0.34691 0.0
C169 C 0.14131 0.07698 0.33122 0.0
C170 C 0.08427 0.0755 0.39007 0.0
C171 C 0.10268 0.04813 0.41941 0.0
H172 H 0.0873 0.11012 0.32564 0.0
H173 H 0.05458 0.08574 0.40014 0.0
S174 S 0.20353 0.00719 0.39545 0.0
N175 N 0.19763 0.03649 0.34908 0.0
N176 N 0.16205 0.01009 0.43017 0.0
C177 C 0.14119 0.03579 0.40447 0.0
C178 C 0.16054 0.05027 0.36046 0.0
C179 C 0.42538 0.97166 0.9242 0.0
C180 C 0.42707 0.93497 0.8935 0.0
C181 C 0.45515 0.98281 0.95756 0.0
C182 C 0.48742 0.95738 0.96187 0.0
H183 H 0.40078 0.99188 0.9227 0.0
H184 H 0.45238 0.01108 0.98063 0.0
S185 S 0.50787 0.86012 0.88861 0.0
N186 N 0.46536 0.87463 0.86861 0.0
N187 N 0.52083 0.89552 0.93149 0.0
C188 C 0.49 0.92115 0.93112 0.0
C189 C 0.45998 0.91 0.89689 0.0
C190 C 0.6196 0.46273 0.71544 0.0
C191 C 0.63639 0.49221 0.75074 0.0
C192 C 0.59613 0.4786 0.68231 0.0
C193 C 0.58892 0.5249 0.6826 0.0
H194 H 0.62405 0.42673 0.71362 0.0
H195 H 0.58388 0.45433 0.65603 0.0
S196 S 0.62649 0.61658 0.76732 0.0
N197 N 0.64423 0.57016 0.78387 0.0
N198 N 0.60071 0.6002 0.72133 0.0
C199 C 0.60579 0.55494 0.71753 0.0
C200 C 0.62933 0.53856 0.75161 0.0
C201 C 0.96005 0.57544 0.18854 0.0
C202 C 0.95751 0.62319 0.18388 0.0
C203 C 0.97986 0.55293 0.15426 0.0
C204 C 0.99862 0.57764 0.11446 0.0
H205 H 0.94579 0.55494 0.21848 0.0
H206 H 0.98061 0.516 0.15913 0.0
S207 S 0.00248 0.70423 0.08696 0.0
N208 N 0.97621 0.69477 0.13694 0.0
N209 N 0.01459 0.65335 0.07332 0.0
C210 C 0.99715 0.62584 0.10998 0.0
C211 C 0.97629 0.64837 0.14445 0.0
C212 C 0.34184 0.15308 0.15078 0.0
C213 C 0.3021 0.13428 0.13271 0.0
C214 C 0.37879 0.13744 0.13659 0.0
C215 C 0.37772 0.1027 0.10333 0.0
H216 H 0.34429 0.17893 0.17738 0.0
H217 H 0.4083 0.15229 0.1524 0.0
S218 S 0.28251 0.04494 0.04233 0.0
N219 N 0.26449 0.08099 0.0777 0.0
N220 N 0.33397 0.0519 0.05073 0.0
C221 C 0.33862 0.08503 0.08351 0.0
C222 C 0.30084 0.10071 0.09826 0.0
C223 C 0.23296 0.94109 0.65176 0.0
C224 C 0.22654 0.92823 0.69806 0.0
C225 C 0.19932 0.94967 0.62695 0.0
C226 C 0.15802 0.94585 0.64754 0.0
H227 H 0.26455 0.94624 0.63481 0.0
H228 H 0.2062 0.96125 0.59191 0.0
S229 S 0.12262 0.90622 0.76585 0.0
N230 N 0.17436 0.907 0.76204 0.0
N231 N 0.1114 0.92327 0.71551 0.0
C232 C 0.15057 0.9304 0.69304 0.0
C233 C 0.18473 0.92154 0.71827 0.0
C234 C 0.86347 0.48987 0.87768 0.0
C235 C 0.83465 0.46528 0.91188 0.0
C236 C 0.90731 0.50497 0.8845 0.0
C237 C 0.92427 0.49625 0.92583 0.0
H238 H 0.85212 0.49797 0.84545 0.0
H239 H 0.92788 0.52454 0.85728 0.0
S240 S 0.8631 0.43113 0.02572 0.0
N241 N 0.82685 0.43129 0.98837 0.0
N242 N 0.90895 0.45974 0.00088 0.0
C243 C 0.89604 0.4708 0.96 0.0
C244 C 0.8514 0.45536 0.95311 0.0
C245 C 0.75213 0.61251 0.48037 0.0
C246 C 0.76384 0.65625 0.50198 0.0
C247 C 0.70962 0.58696 0.48251 0.0
C248 C 0.67728 0.60362 0.50712 0.0
H249 H 0.77579 0.59835 0.46059 0.0
H250 H 0.70217 0.55359 0.46508 0.0
S251 S 0.69123 0.71526 0.57114 0.0
N252 N 0.73976 0.71491 0.54924 0.0
N253 N 0.65977 0.666 0.55441 0.0
C254 C 0.68857 0.64679 0.52972 0.0
C255 C 0.73185 0.67336 0.5268 0.0
C256 C 0.18302 0.35377 0.13929 0.0
C257 C 0.15527 0.31036 0.15202 0.0
C258 C 0.16846 0.38903 0.11625 0.0
C259 C 0.12531 0.38282 0.10581 0.0
H260 H 0.21654 0.3604 0.14658 0.0
H261 H 0.19127 0.42167 0.10689 0.0
S262 S 0.03918 0.27624 0.1327 0.0
N263 N 0.08233 0.2632 0.15282 0.0
N264 N 0.05475 0.33019 0.1104 0.0
C265 C 0.09695 0.33994 0.11892 0.0
C266 C 0.112 0.30352 0.1417 0.0
C267 C 0.6628 0.21849 0.00375 0.0
C268 C 0.64151 0.25232 0.98745 0.0
C269 C 0.6401 0.17546 0.02313 0.0
C270 C 0.59505 0.16425 0.02701 0.0
H271 H 0.69747 0.22525 0.00186 0.0
H272 H 0.6582 0.15084 0.03519 0.0
S273 S 0.52364 0.24028 0.98908 0.0
N274 N 0.57254 0.27145 0.97605 0.0
N275 N 0.52976 0.19047 0.01253 0.0
C276 C 0.57319 0.19752 0.0105 0.0
C277 C 0.59641 0.24153 0.99073 0.0
C278 C 0.91097 0.83271 0.38293 0.0
C279 C 0.93301 0.79661 0.3902 0.0
C280 C 0.91643 0.87255 0.41045 0.0
C281 C 0.94508 0.87829 0.44527 0.0
H282 H 0.88856 0.82958 0.35647 0.0
H283 H 0.89853 0.89939 0.40403 0.0
S284 S 0.01143 0.79463 0.47704 0.0
N285 N 0.98454 0.76901 0.43451 0.0
N286 N 0.99633 0.84519 0.48505 0.0
C287 C 0.96802 0.84299 0.45227 0.0
C288 C 0.96152 0.80173 0.42505 0.0
C289 C 0.42335 0.73407 0.71671 0.0
C290 C 0.40763 0.76898 0.69399 0.0
C291 C 0.44552 0.70421 0.69298 0.0
C292 C 0.45181 0.70744 0.64558 0.0
H293 H 0.41889 0.73007 0.75321 0.0
H294 H 0.45686 0.67763 0.71181 0.0
S295 S 0.41704 0.79283 0.57013 0.0
N296 N 0.40052 0.8056 0.6215 0.0
N297 N 0.44101 0.7484 0.57671 0.0
C298 C 0.43623 0.74211 0.62242 0.0
C299 C 0.41448 0.77321 0.64668 0.0
C300 C 0.96973 0.91614 0.71533 0.0
C301 C 0.93383 0.93324 0.73135 0.0
C302 C 0.98827 0.92717 0.67148 0.0
C303 C 0.9721 0.95634 0.64191 0.0
H304 H 0.98401 0.8943 0.73694 0.0
H305 H 0.01611 0.91344 0.66117 0.0
S306 S 0.87684 0.00785 0.66605 0.0
N307 N 0.88137 0.97889 0.71308 0.0
N308 N 0.91644 -3e-05 0.63093 0.0
C309 C 0.93543 0.97259 0.65696 0.0
C310 C 0.91629 0.96101 0.70155 0.0
C311 C 0.61306 0.15452 0.27968 0.0
C312 C 0.6167 0.11135 0.29945 0.0
C313 C 0.59245 0.15566 0.2392 0.0
C314 C 0.57487 0.11366 0.21685 0.0
H315 H 0.62674 0.18777 0.29511 0.0
H316 H 0.59028 0.18976 0.22543 0.0
S317 S 0.57658 0.99119 0.2545 0.0
N318 N 0.60138 0.02553 0.29345 0.0
N319 N 0.56321 0.02748 0.21755 0.0
C320 C 0.57896 0.07024 0.23602 0.0
C321 C 0.59979 0.06915 0.27717 0.0
C322 C 0.47476 0.68201 0.43326 0.0
C323 C 0.46439 0.65476 0.39462 0.0
C324 C 0.49224 0.66402 0.47015 0.0
C325 C 0.49913 0.61758 0.4704 0.0
H326 H 0.46927 0.71761 0.43514 0.0
H327 H 0.49954 0.68647 0.49908 0.0
S328 S 0.47863 0.53205 0.37693 0.0
N329 N 0.46366 0.57944 0.35821 0.0
N330 N 0.49558 0.54527 0.42788 0.0
C331 C 0.48945 0.59014 0.43171 0.0
C332 C 0.47236 0.6088 0.39377 0.0
C333 C 0.13593 0.47013 0.83728 0.0
C334 C 0.14645 0.42582 0.84369 0.0
C335 C 0.11756 0.49233 0.87287 0.0
C336 C 0.10852 0.47083 0.91612 0.0
H337 H 0.14145 0.48769 0.80437 0.0
H338 H 0.10948 0.52606 0.8661 0.0
S339 S 0.13211 0.3563 0.95175 0.0
N340 N 0.1482 0.3624 0.89766 0.0
N341 N 0.11339 0.40376 0.96401 0.0
C342 C 0.11972 0.42705 0.92329 0.0
C343 C 0.13878 0.40468 0.88728 0.0
C344 C 0.73038 0.96037 0.96337 0.0
C345 C 0.7274 0.95167 0.91669 0.0
C346 C 0.69815 0.97653 0.98872 0.0
C347 C 0.6621 0.98523 0.96816 0.0
H348 H 0.75817 0.95548 0.9804 0.0
H349 H 0.70215 0.98371 0.02428 0.0
S350 S 0.63602 0.96308 0.84863 0.0
N351 N 0.68304 0.94923 0.85214 0.0
N352 N 0.62322 0.98018 0.89967 0.0
C353 C 0.65787 0.97509 0.92209 0.0
C354 C 0.69029 0.95815 0.89639 0.0
C355 C 0.82838 0.02963 0.40151 0.0
C356 C 0.81311 0.06502 0.42548 0.0
C357 C 0.87 0.02314 0.40609 0.0
C358 C 0.89738 0.05112 0.43562 0.0
H359 H 0.80771 0.00609 0.37975 0.0
H360 H 0.87993 0.99443 0.38819 0.0
S361 S 0.87395 0.1504 0.50392 0.0
N362 N 0.82968 0.13035 0.47759 0.0
N363 N 0.90751 0.11712 0.48719 0.0
C364 C 0.88312 0.08765 0.45857 0.0
C365 C 0.84108 0.09493 0.45319 0.0
C366 C 0.20709 0.60306 0.1834 0.0
C367 C 0.23655 0.63428 0.15419 0.0
C368 C 0.17021 0.57414 0.16737 0.0
C369 C 0.1613 0.57489 0.12137 0.0
H370 H 0.21232 0.601 0.21912 0.0
H371 H 0.14872 0.55069 0.19139 0.0
S372 S 0.22808 0.65026 0.03058 0.0
N373 N 0.25424 0.66428 0.07676 0.0
N374 N 0.18494 0.60968 0.0467 0.0
C375 C 0.19043 0.6059 0.09167 0.0
C376 C 0.22801 0.63562 0.10805 0.0
C377 C 0.35219 0.44997 0.6989 0.0
C378 C 0.32194 0.44904 0.66611 0.0
C379 C 0.39418 0.47683 0.69192 0.0
C380 C 0.40779 0.50309 0.65156 0.0
H381 H 0.34304 0.43111 0.73092 0.0
H382 H 0.41594 0.47753 0.71873 0.0
S383 S 0.34194 0.50944 0.55343 0.0
N384 N 0.3091 0.47471 0.59074 0.0
N385 N 0.38819 0.5245 0.57726 0.0
C386 C 0.37838 0.50086 0.61765 0.0
C387 C 0.33541 0.47408 0.62505 0.0
C388 C 0.93092 0.72126 0.93526 0.0
C389 C 0.9614 0.7629 0.92296 0.0
C390 C 0.94345 0.68011 0.94858 0.0
C391 C 0.98697 0.67858 0.94943 0.0
H392 H 0.89698 0.72057 0.93542 0.0
H393 H 0.91866 0.64916 0.9583 0.0
S394 S 0.07962 0.77738 0.91879 0.0
N395 N 0.03726 0.79983 0.91155 0.0
N396 N 0.06073 0.72194 0.93601 0.0
C397 C 0.0179 0.71955 0.9363 0.0
C398 C 0.00513 0.76186 0.92331 0.0
C399 C 0.48312 0.86091 0.19521 0.0
C400 C 0.43874 0.8427 0.19386 0.0
C401 C 0.50353 0.9022 0.17075 0.0
C402 C 0.48035 0.92712 0.14414 0.0
H403 H 0.50244 0.84288 0.2149 0.0
H404 H 0.53776 0.91464 0.17283 0.0
S405 S 0.36311 0.89523 0.13008 0.0
N406 N 0.37204 0.8537 0.16427 0.0
N407 N 0.4103 0.93081 0.11852 0.0
C408 C 0.43587 0.90958 0.14288 0.0
C409 C 0.41511 0.86758 0.16765 0.0
C410 C 0.14469 0.18138 0.65513 0.0
C411 C 0.12199 0.21757 0.66126 0.0
C412 C 0.12895 0.14163 0.62932 0.0
C413 C 0.08992 0.13641 0.60828 0.0
H414 H 0.17464 0.18325 0.67097 0.0
H415 H 0.14756 0.11462 0.62617 0.0
S416 S 0.01871 0.22199 0.61225 0.0
N417 N 0.05886 0.24625 0.64299 0.0
N418 N 0.02935 0.17164 0.59446 0.0
C419 C 0.06722 0.17277 0.61337 0.0
C420 C 0.08321 0.21326 0.63983 0.0
C421 C 0.57915 0.34807 0.44997 0.0
C422 C 0.61297 0.32658 0.46006 0.0
C423 C 0.57187 0.38775 0.47349 0.0
C424 C 0.59814 0.40771 0.50808 0.0
H425 H 0.55786 0.33407 0.4238 0.0
H426 H 0.54535 0.40283 0.46435 0.0
S427 S 0.69168 0.36549 0.54719 0.0
N428 N 0.67346 0.32877 0.50681 0.0
N429 N 0.65978 0.40315 0.55091 0.0
C430 C 0.63225 0.38675 0.51841 0.0
C431 C 0.63966 0.3463 0.49445 0.0
loop_
_geom_bond_atom_site_label_1
_geom_bond_atom_site_label_2
_geom_bond_distance
_geom_bond_site_symmetry_2
_ccdc_geom_bond_type
O0 Cd1 2.300 . S
O0 C7 1.275 . S
Cd1 O0 2.300 . S
Cd1 O9 2.381 . S
Cd1 O10 2.378 . S
O2 Cd3 2.385 . S
O2 C7 1.255 . S
Cd3 O2 2.385 . S
Cd3 O4 2.317 . S
O4 Cd3 2.317 . S
O4 C5 1.232 . S
C5 O4 1.232 . S
C5 O6 1.218 . S
O6 C5 1.218 . S
C7 O0 1.275 . S
C7 O2 1.255 . S
C8 O9 1.258 . S
C8 O10 1.256 . S
O9 Cd1 2.381 . S
O9 C8 1.258 . S
O10 Cd1 2.378 . S
O10 C8 1.256 . S
O11 Cd12 2.300 . S
O11 C18 1.275 . S
Cd12 O11 2.300 . S
Cd12 O20 2.381 . S
Cd12 O21 2.378 . S
O13 Cd14 2.385 . S
O13 C18 1.255 . S
Cd14 O13 2.385 . S
Cd14 O15 2.317 . S
O15 Cd14 2.317 . S
O15 C16 1.232 . S
C16 O15 1.232 . S
C16 O17 1.218 . S
O17 C16 1.218 . S
C18 O11 1.275 . S
C18 O13 1.255 . S
C19 O20 1.258 . S
C19 O21 1.256 . S
O20 Cd12 2.381 . S
O20 C19 1.258 . S
O21 Cd12 2.378 . S
O21 C19 1.256 . S
O22 Cd23 2.300 . S
O22 C29 1.275 . S
Cd23 O22 2.300 . S
Cd23 O31 2.381 . S
Cd23 O32 2.378 . S
O24 Cd25 2.385 . S
O24 C29 1.255 . S
Cd25 O24 2.385 . S
Cd25 O26 2.317 . S
O26 Cd25 2.317 . S
O26 C27 1.232 . S
C27 O26 1.232 . S
C27 O28 1.218 . S
O28 C27 1.218 . S
C29 O22 1.275 . S
C29 O24 1.255 . S
C30 O31 1.258 . S
C30 O32 1.256 . S
O31 Cd23 2.381 . S
O31 C30 1.258 . S
O32 Cd23 2.378 . S
O32 C30 1.256 . S
O33 Cd34 2.300 . S
O33 C40 1.275 . S
Cd34 O33 2.300 . S
Cd34 O42 2.381 . S
Cd34 O43 2.378 . S
O35 Cd36 2.385 . S
O35 C40 1.255 . S
Cd36 O35 2.385 . S
Cd36 O37 2.317 . S
O37 Cd36 2.317 . S
O37 C38 1.232 . S
C38 O37 1.232 . S
C38 O39 1.218 . S
O39 C38 1.218 . S
C40 O33 1.275 . S
C40 O35 1.255 . S
C41 O42 1.258 . S
C41 O43 1.256 . S
O42 Cd34 2.381 . S
O42 C41 1.258 . S
O43 Cd34 2.378 . S
O43 C41 1.256 . S
O44 Cd45 2.300 . S
O44 C51 1.275 . S
Cd45 O44 2.300 . S
Cd45 O53 2.381 . S
Cd45 O54 2.378 . S
O46 Cd47 2.385 . S
O46 C51 1.255 . S
Cd47 O46 2.385 . S
Cd47 O48 2.317 . S
O48 Cd47 2.317 . S
O48 C49 1.232 . S
C49 O48 1.232 . S
C49 O50 1.218 . S
O50 C49 1.218 . S
C51 O44 1.275 . S
C51 O46 1.255 . S
C52 O53 1.258 . S
C52 O54 1.256 . S
O53 Cd45 2.381 . S
O53 C52 1.258 . S
O54 Cd45 2.378 . S
O54 C52 1.256 . S
O55 Cd56 2.300 . S
O55 C62 1.275 . S
Cd56 O55 2.300 . S
Cd56 O64 2.381 . S
Cd56 O65 2.378 . S
O57 Cd58 2.385 . S
O57 C62 1.255 . S
Cd58 O57 2.385 . S
Cd58 O59 2.317 . S
O59 Cd58 2.317 . S
O59 C60 1.232 . S
C60 O59 1.232 . S
C60 O61 1.218 . S
O61 C60 1.218 . S
C62 O55 1.275 . S
C62 O57 1.255 . S
C63 O64 1.258 . S
C63 O65 1.256 . S
O64 Cd56 2.381 . S
O64 C63 1.258 . S
O65 Cd56 2.378 . S
O65 C63 1.256 . S
O66 Cd67 2.300 . S
O66 C73 1.275 . S
Cd67 O66 2.300 . S
Cd67 O75 2.381 . S
Cd67 O76 2.378 . S
O68 Cd69 2.385 . S
O68 C73 1.255 . S
Cd69 O68 2.385 . S
Cd69 O70 2.317 . S
O70 Cd69 2.317 . S
O70 C71 1.232 . S
C71 O70 1.232 . S
C71 O72 1.218 . S
O72 C71 1.218 . S
C73 O66 1.275 . S
C73 O68 1.255 . S
C74 O75 1.258 . S
C74 O76 1.256 . S
O75 Cd67 2.381 . S
O75 C74 1.258 . S
O76 Cd67 2.378 . S
O76 C74 1.256 . S
O77 Cd78 2.300 . S
O77 C84 1.275 . S
Cd78 O77 2.300 . S
Cd78 O86 2.381 . S
Cd78 O87 2.378 . S
O79 Cd80 2.385 . S
O79 C84 1.255 . S
Cd80 O79 2.385 . S
Cd80 O81 2.317 . S
O81 Cd80 2.317 . S
O81 C82 1.232 . S
C82 O81 1.232 . S
C82 O83 1.218 . S
O83 C82 1.218 . S
C84 O77 1.275 . S
C84 O79 1.255 . S
C85 O86 1.258 . S
C85 O87 1.256 . S
O86 Cd78 2.381 . S
O86 C85 1.258 . S
O87 Cd78 2.378 . S
O87 C85 1.256 . S
Zn88 O94 1.969 1_545 S
Zn88 O95 1.965 1_545 S
Zn88 O99 2.024 . S
Zn88 O104 1.969 . S
Zn89 O96 1.969 . S
Zn89 O102 1.969 1_565 S
Zn89 O103 1.965 1_665 S
Zn89 O105 2.024 . S
C90 O91 1.229 . S
C90 O99 1.058 . S
O91 C90 1.229 . S
C92 O93 1.229 . S
C92 O105 1.058 . S
O93 C92 1.229 . S
O94 Zn88 1.969 1_565 S
O94 C97 1.267 . S
O95 Zn88 1.965 1_565 S
O95 C106 1.260 1_455 S
O96 Zn89 1.969 . S
O96 C106 1.258 . S
C97 O94 1.267 . S
C97 O98 1.228 . S
O98 C97 1.228 . S
O99 Zn88 2.024 . S
O99 C90 1.058 . S
C100 O101 1.228 . S
C100 O102 1.267 . S
O101 C100 1.228 . S
O102 Zn89 1.969 1_545 S
O102 C100 1.267 . S
O103 Zn89 1.965 1_445 S
O103 C107 1.260 . S
O104 Zn88 1.969 . S
O104 C107 1.258 . S
O105 Zn89 2.024 . S
O105 C92 1.058 . S
C106 O95 1.260 1_655 S
C106 O96 1.258 . S
C107 O103 1.260 . S
C107 O104 1.258 . S
Zn108 O114 1.969 1_545 S
Zn108 O115 1.965 . S
Zn108 O119 2.024 1_554 S
Zn108 O124 1.969 1_545 S
Zn109 O116 1.969 . S
Zn109 O122 1.969 . S
Zn109 O123 1.965 . S
Zn109 O125 2.024 . S
C110 O111 1.229 . S
C110 O119 1.058 1_565 S
O111 C110 1.229 . S
C112 O113 1.229 . S
C112 O125 1.058 . S
O113 C112 1.229 . S
O114 Zn108 1.969 1_565 S
O114 C117 1.267 1_554 S
O115 Zn108 1.965 . S
O115 C126 1.260 . S
O116 Zn109 1.969 . S
O116 C126 1.258 . S
C117 O114 1.267 1_556 S
C117 O118 1.228 1_565 S
O118 C117 1.228 1_545 S
O119 Zn108 2.024 1_556 S
O119 C110 1.058 1_545 S
C120 O121 1.228 . S
C120 O122 1.267 . S
O121 C120 1.228 . S
O122 Zn109 1.969 . S
O122 C120 1.267 . S
O123 Zn109 1.965 . S
O123 C127 1.260 1_545 S
O124 Zn108 1.969 1_565 S
O124 C127 1.258 . S
O125 Zn109 2.024 . S
O125 C112 1.058 . S
C126 O115 1.260 . S
C126 O116 1.258 . S
C127 O123 1.260 1_565 S
C127 O124 1.258 . S
Zn128 O134 1.969 . S
Zn128 O135 1.965 . S
Zn128 O139 2.024 . S
Zn128 O144 1.969 . S
Zn129 O136 1.969 . S
Zn129 O142 1.969 . S
Zn129 O143 1.965 . S
Zn129 O145 2.024 . S
C130 O131 1.229 . S
C130 O139 1.058 . S
O131 C130 1.229 . S
C132 O133 1.229 . S
C132 O145 1.058 . S
O133 C132 1.229 . S
O134 Zn128 1.969 . S
O134 C137 1.267 . S
O135 Zn128 1.965 . S
O135 C146 1.260 . S
O136 Zn129 1.969 . S
O136 C146 1.258 . S
C137 O134 1.267 . S
C137 O138 1.228 . S
O138 C137 1.228 . S
O139 Zn128 2.024 . S
O139 C130 1.058 . S
C140 O141 1.228 . S
C140 O142 1.267 . S
O141 C140 1.228 . S
O142 Zn129 1.969 . S
O142 C140 1.267 . S
O143 Zn129 1.965 . S
O143 C147 1.260 . S
O144 Zn128 1.969 . S
O144 C147 1.258 . S
O145 Zn129 2.024 . S
O145 C132 1.058 . S
C146 O135 1.260 . S
C146 O136 1.258 . S
C147 O143 1.260 . S
C147 O144 1.258 . S
Zn148 O154 1.969 . S
Zn148 O155 1.965 1_556 S
Zn148 O159 2.024 1_455 S
Zn148 O164 1.969 . S
Zn149 O156 1.969 . S
Zn149 O162 1.969 . S
Zn149 O163 1.965 . S
Zn149 O165 2.024 . S
C150 O151 1.229 . S
C150 O159 1.058 . S
O151 C150 1.229 . S
C152 O153 1.229 . S
C152 O165 1.058 . S
O153 C152 1.229 . S
O154 Zn148 1.969 . S
O154 C157 1.267 1_455 S
O155 Zn148 1.965 1_554 S
O155 C166 1.260 . S
O156 Zn149 1.969 . S
O156 C166 1.258 . S
C157 O154 1.267 1_655 S
C157 O158 1.228 . S
O158 C157 1.228 . S
O159 Zn148 2.024 1_655 S
O159 C150 1.058 . S
C160 O161 1.228 . S
C160 O162 1.267 . S
O161 C160 1.228 . S
O162 Zn149 1.969 . S
O162 C160 1.267 . S
O163 Zn149 1.965 . S
O163 C167 1.260 1_554 S
O164 Zn148 1.969 . S
O164 C167 1.258 . S
O165 Zn149 2.024 . S
O165 C152 1.058 . S
C166 O155 1.260 . S
C166 O156 1.258 . S
C167 O163 1.260 1_556 S
C167 O164 1.258 . S
C168 C169 1.369 . S
C168 C170 1.419 . S
C168 H172 0.930 . S
C169 C168 1.369 . S
C169 C178 1.429 . S
C170 C168 1.419 . S
C170 C171 1.363 . S
C170 H173 0.929 . S
C171 C170 1.363 . S
C171 C177 1.428 . S
H172 C168 0.930 . S
H173 C170 0.929 . S
S174 N175 1.613 . S
S174 N176 1.610 . S
N175 S174 1.613 . S
N175 C178 1.350 . S
N176 S174 1.610 . S
N176 C177 1.351 . S
C177 C171 1.428 . S
C177 N176 1.351 . S
C177 C178 1.434 . S
C178 C169 1.429 . S
C178 N175 1.350 . S
C178 C177 1.434 . S
C179 C180 1.369 . S
C179 C181 1.419 . S
C179 H183 0.930 . S
C180 C179 1.369 . S
C180 C189 1.429 . S
C181 C179 1.419 . S
C181 C182 1.363 . S
C181 H184 0.929 . S
C182 C181 1.363 . S
C182 C188 1.428 . S
H183 C179 0.930 . S
H184 C181 0.929 . S
S185 N186 1.613 . S
S185 N187 1.610 . S
N186 S185 1.613 . S
N186 C189 1.350 . S
N187 S185 1.610 . S
N187 C188 1.351 . S
C188 C182 1.428 . S
C188 N187 1.351 . S
C188 C189 1.434 . S
C189 C180 1.429 . S
C189 N186 1.350 . S
C189 C188 1.434 . S
C190 C191 1.369 . S
C190 C192 1.419 . S
C190 H194 0.930 . S
C191 C190 1.369 . S
C191 C200 1.429 . S
C192 C190 1.419 . S
C192 C193 1.363 . S
C192 H195 0.929 . S
C193 C192 1.363 . S
C193 C199 1.428 . S
H194 C190 0.930 . S
H195 C192 0.929 . S
S196 N197 1.613 . S
S196 N198 1.610 . S
N197 S196 1.613 . S
N197 C200 1.350 . S
N198 S196 1.610 . S
N198 C199 1.351 . S
C199 C193 1.428 . S
C199 N198 1.351 . S
C199 C200 1.434 . S
C200 C191 1.429 . S
C200 N197 1.350 . S
C200 C199 1.434 . S
C201 C202 1.369 . S
C201 C203 1.419 . S
C201 H205 0.930 . S
C202 C201 1.369 . S
C202 C211 1.429 . S
C203 C201 1.419 . S
C203 C204 1.363 . S
C203 H206 0.929 . S
C204 C203 1.363 . S
C204 C210 1.428 1_655 S
H205 C201 0.930 . S
H206 C203 0.929 . S
S207 N208 1.613 1_455 S
S207 N209 1.610 . S
N208 S207 1.613 1_655 S
N208 C211 1.350 . S
N209 S207 1.610 . S
N209 C210 1.351 . S
C210 C204 1.428 1_455 S
C210 N209 1.351 . S
C210 C211 1.434 1_455 S
C211 C202 1.429 . S
C211 N208 1.350 . S
C211 C210 1.434 1_655 S
C212 C213 1.369 . S
C212 C214 1.419 . S
C212 H216 0.930 . S
C213 C212 1.369 . S
C213 C222 1.429 . S
C214 C212 1.419 . S
C214 C215 1.363 . S
C214 H217 0.929 . S
C215 C214 1.363 . S
C215 C221 1.428 . S
H216 C212 0.930 . S
H217 C214 0.929 . S
S218 N219 1.613 . S
S218 N220 1.610 . S
N219 S218 1.613 . S
N219 C222 1.350 . S
N220 S218 1.610 . S
N220 C221 1.351 . S
C221 C215 1.428 . S
C221 N220 1.351 . S
C221 C222 1.434 . S
C222 C213 1.429 . S
C222 N219 1.350 . S
C222 C221 1.434 . S
C223 C224 1.369 . S
C223 C225 1.419 . S
C223 H227 0.930 . S
C224 C223 1.369 . S
C224 C233 1.429 . S
C225 C223 1.419 . S
C225 C226 1.363 . S
C225 H228 0.929 1_565 S
C226 C225 1.363 . S
C226 C232 1.428 . S
H227 C223 0.930 . S
H228 C225 0.929 1_545 S
S229 N230 1.613 . S
S229 N231 1.610 . S
N230 S229 1.613 . S
N230 C233 1.350 . S
N231 S229 1.610 . S
N231 C232 1.351 . S
C232 C226 1.428 . S
C232 N231 1.351 . S
C232 C233 1.434 . S
C233 C224 1.429 . S
C233 N230 1.350 . S
C233 C232 1.434 . S
C234 C235 1.369 . S
C234 C236 1.419 . S
C234 H238 0.930 . S
C235 C234 1.369 . S
C235 C244 1.429 . S
C236 C234 1.419 . S
C236 C237 1.363 . S
C236 H239 0.929 . S
C237 C236 1.363 . S
C237 C243 1.428 . S
H238 C234 0.930 . S
H239 C236 0.929 . S
S240 N241 1.613 1_554 S
S240 N242 1.610 . S
N241 S240 1.613 1_556 S
N241 C244 1.350 . S
N242 S240 1.610 . S
N242 C243 1.351 1_554 S
C243 C237 1.428 . S
C243 N242 1.351 1_556 S
C243 C244 1.434 . S
C244 C235 1.429 . S
C244 N241 1.350 . S
C244 C243 1.434 . S
C245 C246 1.369 . S
C245 C247 1.419 . S
C245 H249 0.930 . S
C246 C245 1.369 . S
C246 C255 1.429 . S
C247 C245 1.419 . S
C247 C248 1.363 . S
C247 H250 0.929 . S
C248 C247 1.363 . S
C248 C254 1.428 . S
H249 C245 0.930 . S
H250 C247 0.929 . S
S251 N252 1.613 . S
S251 N253 1.610 . S
N252 S251 1.613 . S
N252 C255 1.350 . S
N253 S251 1.610 . S
N253 C254 1.351 . S
C254 C248 1.428 . S
C254 N253 1.351 . S
C254 C255 1.434 . S
C255 C246 1.429 . S
C255 N252 1.350 . S
C255 C254 1.434 . S
C256 C257 1.369 . S
C256 C258 1.419 . S
C256 H260 0.930 . S
C257 C256 1.369 . S
C257 C266 1.429 . S
C258 C256 1.419 . S
C258 C259 1.363 . S
C258 H261 0.929 . S
C259 C258 1.363 . S
C259 C265 1.428 . S
H260 C256 0.930 . S
H261 C258 0.929 . S
S262 N263 1.613 . S
S262 N264 1.610 . S
N263 S262 1.613 . S
N263 C266 1.350 . S
N264 S262 1.610 . S
N264 C265 1.351 . S
C265 C259 1.428 . S
C265 N264 1.351 . S
C265 C266 1.434 . S
C266 C257 1.429 . S
C266 N263 1.350 . S
C266 C265 1.434 . S
C267 C268 1.369 . S
C267 C269 1.419 . S
C267 H271 0.930 . S
C268 C267 1.369 . S
C268 C277 1.429 . S
C269 C267 1.419 . S
C269 C270 1.363 . S
C269 H272 0.929 . S
C270 C269 1.363 . S
C270 C276 1.428 . S
H271 C267 0.930 . S
H272 C269 0.929 . S
S273 N274 1.613 . S
S273 N275 1.610 . S
N274 S273 1.613 . S
N274 C277 1.350 . S
N275 S273 1.610 . S
N275 C276 1.351 . S
C276 C270 1.428 . S
C276 N275 1.351 . S
C276 C277 1.434 . S
C277 C268 1.429 . S
C277 N274 1.350 . S
C277 C276 1.434 . S
C278 C279 1.369 . S
C278 C280 1.419 . S
C278 H282 0.930 . S
C279 C278 1.369 . S
C279 C288 1.429 . S
C280 C278 1.419 . S
C280 C281 1.363 . S
C280 H283 0.929 . S
C281 C280 1.363 . S
C281 C287 1.428 . S
H282 C278 0.930 . S
H283 C280 0.929 . S
S284 N285 1.613 1_455 S
S284 N286 1.613 . S
N285 S284 1.613 1_655 S
N285 C288 1.350 . S
N286 S284 1.613 . S
N286 C287 1.346 1_455 S
C287 C281 1.428 . S
C287 N286 1.346 1_655 S
C287 C288 1.434 . S
C288 C279 1.429 . S
C288 N285 1.350 . S
C288 C287 1.434 . S
C289 C290 1.369 . S
C289 C291 1.419 . S
C289 H293 0.930 . S
C290 C289 1.369 . S
C290 C299 1.429 . S
C291 C289 1.419 . S
C291 C292 1.363 . S
C291 H294 0.929 . S
C292 C291 1.363 . S
C292 C298 1.428 . S
H293 C289 0.930 . S
H294 C291 0.929 . S
S295 N296 1.613 . S
S295 N297 1.610 . S
N296 S295 1.613 . S
N296 C299 1.350 . S
N297 S295 1.610 . S
N297 C298 1.351 . S
C298 C292 1.428 . S
C298 N297 1.351 . S
C298 C299 1.434 . S
C299 C290 1.429 . S
C299 N296 1.350 . S
C299 C298 1.434 . S
C300 C301 1.369 . S
C300 C302 1.419 . S
C300 H304 0.930 . S
C301 C300 1.369 . S
C301 C310 1.429 . S
C302 C300 1.419 . S
C302 C303 1.363 . S
C302 H305 0.929 . S
C303 C302 1.363 . S
C303 C309 1.428 . S
H304 C300 0.930 . S
H305 C302 0.929 . S
S306 N307 1.613 . S
S306 N308 1.610 . S
N307 S306 1.613 . S
N307 C310 1.350 . S
N308 S306 1.610 . S
N308 C309 1.351 . S
C309 C303 1.428 . S
C309 N308 1.351 . S
C309 C310 1.434 . S
C310 C301 1.429 . S
C310 N307 1.350 . S
C310 C309 1.434 . S
C311 C312 1.369 . S
C311 C313 1.419 . S
C311 H315 0.930 . S
C312 C311 1.369 . S
C312 C321 1.429 . S
C313 C311 1.419 . S
C313 C314 1.363 . S
C313 H316 0.929 . S
C314 C313 1.363 . S
C314 C320 1.428 . S
H315 C311 0.930 . S
H316 C313 0.929 . S
S317 N318 1.613 . S
S317 N319 1.610 . S
N318 S317 1.613 . S
N318 C321 1.350 . S
N319 S317 1.610 . S
N319 C320 1.351 . S
C320 C314 1.428 . S
C320 N319 1.351 . S
C320 C321 1.434 . S
C321 C312 1.429 . S
C321 N318 1.350 . S
C321 C320 1.434 . S
C322 C323 1.369 . S
C322 C324 1.419 . S
C322 H326 0.930 . S
C323 C322 1.369 . S
C323 C332 1.429 . S
C324 C322 1.419 . S
C324 C325 1.363 . S
C324 H327 0.929 . S
C325 C324 1.363 . S
C325 C331 1.428 . S
H326 C322 0.930 . S
H327 C324 0.929 . S
S328 N329 1.613 . S
S328 N330 1.610 . S
N329 S328 1.613 . S
N329 C332 1.350 . S
N330 S328 1.610 . S
N330 C331 1.351 . S
C331 C325 1.428 . S
C331 N330 1.351 . S
C331 C332 1.434 . S
C332 C323 1.429 . S
C332 N329 1.350 . S
C332 C331 1.434 . S
C333 C334 1.369 . S
C333 C335 1.419 . S
C333 H337 0.930 . S
C334 C333 1.369 . S
C334 C343 1.429 . S
C335 C333 1.419 . S
C335 C336 1.363 . S
C335 H338 0.929 . S
C336 C335 1.363 . S
C336 C342 1.428 . S
H337 C333 0.930 . S
H338 C335 0.929 . S
S339 N340 1.613 . S
S339 N341 1.610 . S
N340 S339 1.613 . S
N340 C343 1.350 . S
N341 S339 1.610 . S
N341 C342 1.351 . S
C342 C336 1.428 . S
C342 N341 1.351 . S
C342 C343 1.434 . S
C343 C334 1.429 . S
C343 N340 1.350 . S
C343 C342 1.434 . S
C344 C345 1.369 . S
C344 C346 1.419 . S
C344 H348 0.930 . S
C345 C344 1.369 . S
C345 C354 1.429 . S
C346 C344 1.419 . S
C346 C347 1.363 . S
C346 H349 0.929 . S
C347 C346 1.363 . S
C347 C353 1.428 . S
H348 C344 0.930 . S
H349 C346 0.929 . S
S350 N351 1.613 . S
S350 N352 1.610 . S
N351 S350 1.613 . S
N351 C354 1.350 . S
N352 S350 1.610 . S
N352 C353 1.351 . S
C353 C347 1.428 . S
C353 N352 1.351 . S
C353 C354 1.434 . S
C354 C345 1.429 . S
C354 N351 1.350 . S
C354 C353 1.434 . S
C355 C356 1.369 . S
C355 C357 1.419 . S
C355 H359 0.930 . S
C356 C355 1.369 . S
C356 C365 1.429 . S
C357 C355 1.419 . S
C357 C358 1.363 . S
C357 H360 0.929 . S
C358 C357 1.363 . S
C358 C364 1.428 . S
H359 C355 0.930 . S
H360 C357 0.929 . S
S361 N362 1.613 . S
S361 N363 1.610 . S
N362 S361 1.613 . S
N362 C365 1.350 . S
N363 S361 1.610 . S
N363 C364 1.351 . S
C364 C358 1.428 . S
C364 N363 1.351 . S
C364 C365 1.434 . S
C365 C356 1.429 . S
C365 N362 1.350 . S
C365 C364 1.434 . S
C366 C367 1.369 . S
C366 C368 1.419 . S
C366 H370 0.930 . S
C367 C366 1.369 . S
C367 C376 1.429 . S
C368 C366 1.419 . S
C368 C369 1.363 . S
C368 H371 0.929 . S
C369 C368 1.363 . S
C369 C375 1.428 . S
H370 C366 0.930 . S
H371 C368 0.929 . S
S372 N373 1.613 . S
S372 N374 1.610 . S
N373 S372 1.613 . S
N373 C376 1.350 . S
N374 S372 1.610 . S
N374 C375 1.351 . S
C375 C369 1.428 . S
C375 N374 1.351 . S
C375 C376 1.434 . S
C376 C367 1.429 . S
C376 N373 1.350 . S
C376 C375 1.434 . S
C377 C378 1.369 . S
C377 C379 1.419 . S
C377 H381 0.930 . S
C378 C377 1.369 . S
C378 C387 1.429 . S
C379 C377 1.419 . S
C379 C380 1.363 . S
C379 H382 0.929 . S
C380 C379 1.363 . S
C380 C386 1.428 . S
H381 C377 0.930 . S
H382 C379 0.929 . S
S383 N384 1.613 . S
S383 N385 1.610 . S
N384 S383 1.613 . S
N384 C387 1.350 . S
N385 S383 1.610 . S
N385 C386 1.351 . S
C386 C380 1.428 . S
C386 N385 1.351 . S
C386 C387 1.434 . S
C387 C378 1.429 . S
C387 N384 1.350 . S
C387 C386 1.434 . S
C388 C389 1.369 . S
C388 C390 1.419 . S
C388 H392 0.930 . S
C389 C388 1.369 . S
C389 C398 1.429 . S
C390 C388 1.419 . S
C390 C391 1.363 . S
C390 H393 0.929 . S
C391 C390 1.363 . S
C391 C397 1.428 . S
H392 C388 0.930 . S
H393 C390 0.929 . S
S394 N395 1.613 1_455 S
S394 N396 1.610 . S
N395 S394 1.613 1_655 S
N395 C398 1.350 . S
N396 S394 1.610 . S
N396 C397 1.351 1_455 S
C397 C391 1.428 . S
C397 N396 1.351 1_655 S
C397 C398 1.434 . S
C398 C389 1.429 . S
C398 N395 1.350 . S
C398 C397 1.434 . S
C399 C400 1.369 . S
C399 C401 1.419 . S
C399 H403 0.930 . S
C400 C399 1.369 . S
C400 C409 1.429 . S
C401 C399 1.419 . S
C401 C402 1.363 . S
C401 H404 0.929 . S
C402 C401 1.363 . S
C402 C408 1.428 . S
H403 C399 0.930 . S
H404 C401 0.929 . S
S405 N406 1.613 . S
S405 N407 1.610 . S
N406 S405 1.613 . S
N406 C409 1.350 . S
N407 S405 1.610 . S
N407 C408 1.351 . S
C408 C402 1.428 . S
C408 N407 1.351 . S
C408 C409 1.434 . S
C409 C400 1.429 . S
C409 N406 1.350 . S
C409 C408 1.434 . S
C410 C411 1.369 . S
C410 C412 1.419 . S
C410 H414 0.930 . S
C411 C410 1.369 . S
C411 C420 1.429 . S
C412 C410 1.419 . S
C412 C413 1.363 . S
C412 H415 0.929 . S
C413 C412 1.363 . S
C413 C419 1.428 . S
H414 C410 0.930 . S
H415 C412 0.929 . S
S416 N417 1.613 . S
S416 N418 1.610 . S
N417 S416 1.613 . S
N417 C420 1.350 . S
N418 S416 1.610 . S
N418 C419 1.351 . S
C419 C413 1.428 . S
C419 N418 1.351 . S
C419 C420 1.434 . S
C420 C411 1.429 . S
C420 N417 1.350 . S
C420 C419 1.434 . S
C421 C422 1.369 . S
C421 C423 1.419 . S
C421 H425 0.930 . S
C422 C421 1.369 . S
C422 C431 1.429 . S
C423 C421 1.419 . S
C423 C424 1.363 . S
C423 H426 0.929 . S
C424 C423 1.363 . S
C424 C430 1.428 . S
H425 C421 0.930 . S
H426 C423 0.929 . S
S427 N428 1.613 . S
S427 N429 1.610 . S
N428 S427 1.613 . S
N428 C431 1.350 . S
N429 S427 1.610 . S
N429 C430 1.351 . S
C430 C424 1.428 . S
C430 N429 1.351 . S
C430 C431 1.434 . S
C431 C422 1.429 . S
C431 N428 1.350 . S
C431 C430 1.434 . S
C169 C5 1.485 . S
C171 C107 1.759 . S
C180 C18 1.315 . S
C182 C110 1.371 . S
C193 C146 1.640 . S
C191 C30 1.670 . S
C202 C41 1.461 . S
C204 C166 1.452 1_655 S
C215 C120 1.863 . S
C213 C7 1.786 . S
C226 C97 1.671 . S
C224 C16 1.523 . S
C237 C150 1.600 . S
C235 C29 1.670 . S
C248 C130 1.105 . S
C246 C38 0.932 . S
C257 C8 1.448 . S
C259 C160 1.422 . S
C270 C126 1.804 1_556 S
C268 C27 1.687 . S
C279 C40 1.703 . S
C281 C92 1.703 . S
C290 C19 1.151 . S
C292 C140 1.088 . S
C303 C106 1.556 . S
C301 C51 1.433 . S
C312 C62 1.441 . S
C314 C112 1.433 . S
C323 C74 1.740 . S
C325 C147 1.715 . S
C334 C84 1.524 . S
C336 C167 1.532 . S
C345 C49 1.655 . S
C347 C117 1.900 . S
C358 C100 1.465 . S
C356 C63 1.496 . S
C369 C152 1.518 . S
C367 C71 1.499 . S
C380 C132 1.248 . S
C378 C85 1.351 . S
C389 C52 1.413 . S
C391 C157 1.347 . S
C402 C127 1.876 . S
C400 C73 1.870 . S
C413 C90 1.540 . S
C411 C82 1.430 . S
C422 C60 1.291 . S
C424 C137 1.453 . S
