# Generated by pormake.
# Topology ocu, (6,8)-cn, num edge types: 1
# Building blocks:
#     Node 0, Type 0, BuildingBlock: VOLQOD_clean_sbu_1, # of connection points: 6
#     Node 1, Type 0, BuildingBlock: VOLQOD_clean_sbu_1, # of connection points: 6
#     Node 2, Type 0, BuildingBlock: VOLQOD_clean_sbu_1, # of connection points: 6
#     Node 3, Type 0, BuildingBlock: VOLQOD_clean_sbu_1, # of connection points: 6
#     Node 4, Type 0, BuildingBlock: VOLQOD_clean_sbu_1, # of connection points: 6
#     Node 5, Type 0, BuildingBlock: VOLQOD_clean_sbu_1, # of connection points: 6
#     Node 6, Type 0, BuildingBlock: VOLQOD_clean_sbu_1, # of connection points: 6
#     Node 7, Type 0, BuildingBlock: VOLQOD_clean_sbu_1, # of connection points: 6
#     Node 8, Type 1, BuildingBlock: GIZVER_clean_sbu_0, # of connection points: 8
#     Node 9, Type 1, BuildingBlock: GIZVER_clean_sbu_0, # of connection points: 8
#     Node 10, Type 1, BuildingBlock: GIZVER_clean_sbu_0, # of connection points: 8
#     Node 11, Type 1, BuildingBlock: GIZVER_clean_sbu_0, # of connection points: 8
#     Node 12, Type 1, BuildingBlock: GIZVER_clean_sbu_0, # of connection points: 8
#     Node 13, Type 1, BuildingBlock: GIZVER_clean_sbu_0, # of connection points: 8
#     Edge 14, Type (0, 1), BuildingBlock: XIVTED_clean_linker_0, # of connection points: 2
#     Edge 15, Type (0, 1), BuildingBlock: XIVTED_clean_linker_0, # of connection points: 2
#     Edge 16, Type (0, 1), BuildingBlock: XIVTED_clean_linker_0, # of connection points: 2
#     Edge 17, Type (0, 1), BuildingBlock: XIVTED_clean_linker_0, # of connection points: 2
#     Edge 18, Type (0, 1), BuildingBlock: XIVTED_clean_linker_0, # of connection points: 2
#     Edge 19, Type (0, 1), BuildingBlock: XIVTED_clean_linker_0, # of connection points: 2
#     Edge 20, Type (0, 1), BuildingBlock: XIVTED_clean_linker_0, # of connection points: 2
#     Edge 21, Type (0, 1), BuildingBlock: XIVTED_clean_linker_0, # of connection points: 2
#     Edge 22, Type (0, 1), BuildingBlock: XIVTED_clean_linker_0, # of connection points: 2
#     Edge 23, Type (0, 1), BuildingBlock: XIVTED_clean_linker_0, # of connection points: 2
#     Edge 24, Type (0, 1), BuildingBlock: XIVTED_clean_linker_0, # of connection points: 2
#     Edge 25, Type (0, 1), BuildingBlock: XIVTED_clean_linker_0, # of connection points: 2
#     Edge 26, Type (0, 1), BuildingBlock: XIVTED_clean_linker_0, # of connection points: 2
#     Edge 27, Type (0, 1), BuildingBlock: XIVTED_clean_linker_0, # of connection points: 2
#     Edge 28, Type (0, 1), BuildingBlock: XIVTED_clean_linker_0, # of connection points: 2
#     Edge 29, Type (0, 1), BuildingBlock: XIVTED_clean_linker_0, # of connection points: 2
#     Edge 30, Type (0, 1), BuildingBlock: XIVTED_clean_linker_0, # of connection points: 2
#     Edge 31, Type (0, 1), BuildingBlock: XIVTED_clean_linker_0, # of connection points: 2
#     Edge 32, Type (0, 1), BuildingBlock: XIVTED_clean_linker_0, # of connection points: 2
#     Edge 33, Type (0, 1), BuildingBlock: XIVTED_clean_linker_0, # of connection points: 2
#     Edge 34, Type (0, 1), BuildingBlock: XIVTED_clean_linker_0, # of connection points: 2
#     Edge 35, Type (0, 1), BuildingBlock: XIVTED_clean_linker_0, # of connection points: 2
#     Edge 36, Type (0, 1), BuildingBlock: XIVTED_clean_linker_0, # of connection points: 2
#     Edge 37, Type (0, 1), BuildingBlock: XIVTED_clean_linker_0, # of connection points: 2
#     Edge 38, Type (0, 1), BuildingBlock: XIVTED_clean_linker_0, # of connection points: 2
#     Edge 39, Type (0, 1), BuildingBlock: XIVTED_clean_linker_0, # of connection points: 2
#     Edge 40, Type (0, 1), BuildingBlock: XIVTED_clean_linker_0, # of connection points: 2
#     Edge 41, Type (0, 1), BuildingBlock: XIVTED_clean_linker_0, # of connection points: 2
#     Edge 42, Type (0, 1), BuildingBlock: XIVTED_clean_linker_0, # of connection points: 2
#     Edge 43, Type (0, 1), BuildingBlock: XIVTED_clean_linker_0, # of connection points: 2
#     Edge 44, Type (0, 1), BuildingBlock: XIVTED_clean_linker_0, # of connection points: 2
#     Edge 45, Type (0, 1), BuildingBlock: XIVTED_clean_linker_0, # of connection points: 2
#     Edge 46, Type (0, 1), BuildingBlock: XIVTED_clean_linker_0, # of connection points: 2
#     Edge 47, Type (0, 1), BuildingBlock: XIVTED_clean_linker_0, # of connection points: 2
#     Edge 48, Type (0, 1), BuildingBlock: XIVTED_clean_linker_0, # of connection points: 2
#     Edge 49, Type (0, 1), BuildingBlock: XIVTED_clean_linker_0, # of connection points: 2
#     Edge 50, Type (0, 1), BuildingBlock: XIVTED_clean_linker_0, # of connection points: 2
#     Edge 51, Type (0, 1), BuildingBlock: XIVTED_clean_linker_0, # of connection points: 2
#     Edge 52, Type (0, 1), BuildingBlock: XIVTED_clean_linker_0, # of connection points: 2
#     Edge 53, Type (0, 1), BuildingBlock: XIVTED_clean_linker_0, # of connection points: 2
#     Edge 54, Type (0, 1), BuildingBlock: XIVTED_clean_linker_0, # of connection points: 2
#     Edge 55, Type (0, 1), BuildingBlock: XIVTED_clean_linker_0, # of connection points: 2
#     Edge 56, Type (0, 1), BuildingBlock: XIVTED_clean_linker_0, # of connection points: 2
#     Edge 57, Type (0, 1), BuildingBlock: XIVTED_clean_linker_0, # of connection points: 2
#     Edge 58, Type (0, 1), BuildingBlock: XIVTED_clean_linker_0, # of connection points: 2
#     Edge 59, Type (0, 1), BuildingBlock: XIVTED_clean_linker_0, # of connection points: 2
#     Edge 60, Type (0, 1), BuildingBlock: XIVTED_clean_linker_0, # of connection points: 2
#     Edge 61, Type (0, 1), BuildingBlock: XIVTED_clean_linker_0, # of connection points: 2
# Relax obj value: 0.254
# Max RMSD: 0.358
# Mean RMSD: 0.249
data_MOF--net-ocu--node1-VOLQOD_clean_sbu_1--node2-GIZVER_clean_sbu_0--edge1-XIVTED_clean_linker_0
_symmetry_space_group_name_H-M    P1
_symmetry_Int_Tables_number       1
_symmetry_cell_setting            triclinic
loop_
_symmetry_equiv_pos_as_xyz
'x, y, z'
_cell_length_a     42.252214
_cell_length_b     44.259103
_cell_length_c     31.001058
_cell_angle_alpha  88.966707
_cell_angle_beta   90.856142
_cell_angle_gamma 101.45024
loop_
_atom_site_label
_atom_site_type_symbol
_atom_site_fract_x
_atom_site_fract_y
_atom_site_fract_z
_atom_type_partial_charge
O0 O 0.30314 0.30058 0.28441 0.0
Zn1 Zn 0.26843 0.26709 0.31021 0.0
O2 O 0.24528 0.24049 0.26385 0.0
Zn3 Zn 0.19916 0.24083 0.26429 0.0
Zn4 Zn 0.26257 0.25483 0.20721 0.0
Zn5 Zn 0.24997 0.19796 0.27249 0.0
O6 O 0.17147 0.19891 0.27708 0.0
O7 O 0.20796 0.16955 0.28579 0.0
O8 O 0.2373 0.28859 0.34261 0.0
O9 O 0.19045 0.26863 0.31091 0.0
O10 O 0.18455 0.2589 0.20905 0.0
O11 O 0.22961 0.27257 0.1714 0.0
O12 O 0.27835 0.22121 0.17493 0.0
O13 O 0.29162 0.24171 0.35204 0.0
O14 O 0.27022 0.18185 0.22153 0.0
O15 O 0.27822 0.19502 0.32352 0.0
C16 C 0.31397 0.30516 0.24622 0.0
C17 C 0.17879 0.17295 0.28617 0.0
C18 C 0.1995 0.27178 0.17608 0.0
C19 C 0.20676 0.28622 0.33876 0.0
C20 C 0.28032 0.19361 0.18527 0.0
C21 C 0.29286 0.2131 0.35199 0.0
O22 O 0.30134 0.28872 0.21479 0.0
O23 O 0.74201 0.20501 0.18872 0.0
Zn24 Zn 0.77372 0.23204 0.23026 0.0
O25 O 0.75102 0.25666 0.26745 0.0
Zn26 Zn 0.76691 0.30003 0.25833 0.0
Zn27 Zn 0.70549 0.24877 0.25409 0.0
Zn28 Zn 0.75709 0.24853 0.32817 0.0
O29 O 0.77719 0.32373 0.31269 0.0
O30 O 0.77824 0.28618 0.36063 0.0
O31 O 0.80983 0.26076 0.19716 0.0
O32 O 0.80791 0.30564 0.22741 0.0
O33 O 0.73719 0.31893 0.22102 0.0
O34 O 0.69136 0.28471 0.22647 0.0
O35 O 0.67845 0.23269 0.30497 0.0
O36 O 0.79602 0.2045 0.26834 0.0
O37 O 0.71512 0.22896 0.35574 0.0
O38 O 0.78668 0.21937 0.3344 0.0
C39 C 0.7114 0.20225 0.18516 0.0
C40 C 0.78339 0.31467 0.35044 0.0
C41 C 0.70735 0.31021 0.21225 0.0
C42 C 0.82143 0.28931 0.20321 0.0
C43 C 0.68582 0.22478 0.34289 0.0
C44 C 0.79989 0.20336 0.30921 0.0
O45 O 0.69588 0.21723 0.20882 0.0
O46 O 0.7077 0.71047 0.25666 0.0
Zn47 Zn 0.74378 0.7407 0.28614 0.0
O48 O 0.77291 0.76429 0.24185 0.0
Zn49 Zn 0.81639 0.75722 0.2494 0.0
Zn50 Zn 0.75885 0.75229 0.18321 0.0
Zn51 Zn 0.77465 0.80822 0.24731 0.0
O52 O 0.8484 0.79512 0.26448 0.0
O53 O 0.81842 0.83084 0.26535 0.0
O54 O 0.76896 0.7171 0.328 0.0
O55 O 0.81808 0.7301 0.30025 0.0
O56 O 0.83111 0.73627 0.19901 0.0
O57 O 0.79011 0.73037 0.1523 0.0
O58 O 0.74702 0.7877 0.14818 0.0
O59 O 0.72149 0.76998 0.31999 0.0
O60 O 0.75932 0.82673 0.19338 0.0
O61 O 0.74476 0.81583 0.29334 0.0
C62 C 0.70023 0.70748 0.21674 0.0
C63 C 0.84533 0.82259 0.27131 0.0
C64 C 0.81812 0.72619 0.16344 0.0
C65 C 0.79898 0.71608 0.32859 0.0
C66 C 0.74817 0.81587 0.15726 0.0
C67 C 0.72507 0.79934 0.319 0.0
O68 O 0.71768 0.72247 0.18746 0.0
O69 O 0.28539 0.77872 0.31626 0.0
Zn70 Zn 0.25505 0.74937 0.27609 0.0
O71 O 0.23109 0.77242 0.23602 0.0
Zn72 Zn 0.18502 0.76134 0.24546 0.0
Zn73 Zn 0.24333 0.81612 0.24595 0.0
Zn74 Zn 0.23958 0.76421 0.17594 0.0
O75 O 0.16236 0.73774 0.19566 0.0
O76 O 0.19976 0.74015 0.14551 0.0
O77 O 0.22335 0.71844 0.31149 0.0
O78 O 0.17657 0.73147 0.29397 0.0
O79 O 0.16481 0.79696 0.26169 0.0
O80 O 0.20693 0.83566 0.26269 0.0
O81 O 0.26513 0.83808 0.19502 0.0
O82 O 0.28162 0.72456 0.24272 0.0
O83 O 0.26136 0.80288 0.14404 0.0
O84 O 0.27146 0.73657 0.17467 0.0
C85 C 0.2893 0.80794 0.31954 0.0
C86 C 0.17105 0.73043 0.15878 0.0
C87 C 0.17706 0.82518 0.26834 0.0
C88 C 0.19289 0.7153 0.31579 0.0
C89 C 0.27072 0.83043 0.15701 0.0
C90 C 0.2857 0.72227 0.20236 0.0
O91 O 0.27438 0.82381 0.29497 0.0
O92 O 0.25437 0.70195 0.68789 0.0
Zn93 Zn 0.28311 0.72969 0.73155 0.0
O94 O 0.25823 0.75394 0.76652 0.0
Zn95 Zn 0.27497 0.79762 0.7602 0.0
Zn96 Zn 0.21411 0.746 0.74691 0.0
Zn97 Zn 0.25873 0.7435 0.82781 0.0
O98 O 0.28685 0.818 0.8169 0.0
O99 O 0.27568 0.78035 0.8658 0.0
O100 O 0.32025 0.75831 0.70082 0.0
O101 O 0.31582 0.80347 0.72816 0.0
O102 O 0.24466 0.81954 0.72729 0.0
O103 O 0.20031 0.78318 0.72384 0.0
O104 O 0.18388 0.72461 0.79122 0.0
O105 O 0.30427 0.70297 0.77184 0.0
O106 O 0.2156 0.71798 0.84678 0.0
O107 O 0.29042 0.71679 0.83655 0.0
C108 C 0.22462 0.70083 0.67862 0.0
C109 C 0.28666 0.80852 0.85589 0.0
C110 C 0.21531 0.81046 0.71589 0.0
C111 C 0.33069 0.78714 0.70572 0.0
C112 C 0.18794 0.7131 0.82824 0.0
C113 C 0.30602 0.70187 0.81292 0.0
O114 O 0.2082 0.71709 0.69855 0.0
O115 O 0.21065 0.2051 0.74581 0.0
Zn116 Zn 0.24687 0.23325 0.77816 0.0
O117 O 0.27677 0.25852 0.73636 0.0
Zn118 Zn 0.32053 0.25305 0.74667 0.0
Zn119 Zn 0.2649 0.24713 0.67684 0.0
Zn120 Zn 0.27666 0.30198 0.74245 0.0
O121 O 0.35052 0.29152 0.76435 0.0
O122 O 0.31947 0.32633 0.76125 0.0
O123 O 0.27096 0.20706 0.81732 0.0
O124 O 0.32145 0.22409 0.79591 0.0
O125 O 0.33806 0.2346 0.69621 0.0
O126 O 0.2982 0.22728 0.64769 0.0
O127 O 0.25302 0.28226 0.64158 0.0
O128 O 0.22523 0.26116 0.81519 0.0
O129 O 0.26124 0.32029 0.68868 0.0
O130 O 0.24619 0.30761 0.78845 0.0
C131 C 0.2051 0.20186 0.70543 0.0
C132 C 0.3465 0.3189 0.76949 0.0
C133 C 0.32645 0.22459 0.65991 0.0
C134 C 0.3012 0.20736 0.82056 0.0
C135 C 0.25219 0.30987 0.65157 0.0
C136 C 0.22766 0.29039 0.81471 0.0
O137 O 0.22427 0.21641 0.67756 0.0
O138 O 0.77949 0.26938 0.80873 0.0
Zn139 Zn 0.75006 0.24221 0.76505 0.0
O140 O 0.72907 0.26723 0.72363 0.0
Zn141 Zn 0.68225 0.25496 0.72407 0.0
Zn142 Zn 0.74023 0.30982 0.73972 0.0
Zn143 Zn 0.74333 0.26377 0.66454 0.0
O144 O 0.66462 0.23522 0.66783 0.0
O145 O 0.70776 0.23957 0.62654 0.0
O146 O 0.71614 0.20997 0.79526 0.0
O147 O 0.67102 0.22009 0.76577 0.0
O148 O 0.66 0.28934 0.7434 0.0
O149 O 0.70212 0.32731 0.75415 0.0
O150 O 0.76551 0.3353 0.69425 0.0
O151 O 0.77828 0.21856 0.73264 0.0
O152 O 0.76767 0.30438 0.63936 0.0
O153 O 0.77574 0.23746 0.66604 0.0
C154 C 0.78391 0.29842 0.81448 0.0
C155 C 0.67781 0.2292 0.63311 0.0
C156 C 0.67188 0.31689 0.7548 0.0
C157 C 0.68548 0.20403 0.79078 0.0
C158 C 0.77533 0.33072 0.65687 0.0
C159 C 0.78677 0.22036 0.69329 0.0
O160 O 0.76948 0.31532 0.79091 0.0
O161 O 0.80004 0.79072 0.77799 0.0
Zn162 Zn 0.76563 0.75651 0.80349 0.0
O163 O 0.73885 0.73281 0.75713 0.0
Zn164 Zn 0.6939 0.73669 0.7604 0.0
Zn165 Zn 0.75545 0.74789 0.70072 0.0
Zn166 Zn 0.7396 0.68909 0.76215 0.0
O167 O 0.66357 0.69624 0.7726 0.0
O168 O 0.69572 0.66234 0.7726 0.0
O169 O 0.73754 0.77845 0.84045 0.0
O170 O 0.68931 0.76437 0.8089 0.0
O171 O 0.67923 0.75596 0.70632 0.0
O172 O 0.72145 0.76177 0.663 0.0
O173 O 0.77644 0.71662 0.67114 0.0
O174 O 0.78805 0.72798 0.84092 0.0
O175 O 0.76145 0.6743 0.7114 0.0
O176 O 0.76655 0.68239 0.81313 0.0
C177 C 0.80526 0.79993 0.73908 0.0
C178 C 0.66782 0.66866 0.77673 0.0
C179 C 0.6926 0.76458 0.67042 0.0
C180 C 0.70753 0.77921 0.83768 0.0
C181 C 0.77623 0.6882 0.67895 0.0
C182 C 0.78467 0.69865 0.84067 0.0
O183 O 0.78945 0.78575 0.7078 0.0
Co184 Co 0.03419 0.94777 0.51784 0.0
Co185 Co 0.04102 0.97117 0.59355 0.0
Co186 Co 0.99361 0.00349 0.53848 0.0
O187 O 0.03376 0.98736 0.54081 0.0
H188 H 0.05239 0.0027 0.53252 0.0
O189 O 0.95364 0.01971 0.53502 0.0
Co190 Co 0.95382 0.06175 0.54487 0.0
Co191 Co 0.94681 0.02732 0.4776 0.0
H192 H 0.93519 0.00579 0.54696 0.0
O193 O 0.08236 0.97283 0.61023 0.0
O194 O 0.04906 0.93426 0.57493 0.0
O195 O 0.00657 0.96333 0.63416 0.0
O196 O 0.9713 0.97659 0.58703 0.0
O197 O 0.01264 0.03549 0.5798 0.0
O198 O 0.95019 0.09962 0.55551 0.0
O199 O 0.91136 0.05643 0.5552 0.0
O200 O -0.00046 0.07276 0.53921 0.0
O201 O 0.01578 0.03013 0.48957 0.0
O202 O 0.97964 0.02401 0.43653 0.0
O203 O 0.94575 0.06855 0.48178 0.0
O204 O 0.90707 0.02922 0.45703 0.0
C205 C 0.06582 0.92857 0.48465 0.0
C206 C 0.97124 0.94325 0.50429 0.0
C207 C 0.97785 0.96433 0.62291 0.0
C208 C 0.07676 0.94547 0.59363 0.0
C209 C 0.92046 0.08589 0.56204 0.0
C210 C 0.01644 0.06389 0.56958 0.0
C211 C 0.0086 0.03162 0.44953 0.0
C212 C 0.91869 0.05856 0.46073 0.0
O213 O 0.03767 0.91283 0.4952 0.0
O214 O 0.07528 0.95669 0.49846 0.0
O215 O 0.9742 0.97195 0.49729 0.0
O216 O 0.99009 0.93347 0.53121 0.0
Co217 Co 0.54405 0.93896 -0.00257 0.0
Co218 Co 0.54554 0.96094 0.07342 0.0
Co219 Co 0.50713 3e-05 0.00971 0.0
O220 O 0.54488 0.97974 0.01924 0.0
H221 H 0.56515 0.99373 0.01389 0.0
O222 O 0.46878 0.01907 0.00094 0.0
Co223 Co 0.46651 0.05912 0.02038 0.0
Co224 Co 0.46397 0.03305 0.94579 0.0
H225 H 0.44917 0.00453 0.00781 0.0
O226 O 0.58493 0.96054 0.0983 0.0
O227 O 0.55505 0.92439 0.05589 0.0
O228 O 0.50581 0.95099 0.10409 0.0
O229 O 0.48078 0.97796 0.05828 0.0
O230 O 0.52812 0.03384 0.04828 0.0
O231 O 0.46004 0.09515 0.03942 0.0
O232 O 0.42374 0.05083 0.03135 0.0
O233 O 0.51221 0.07275 0.01366 0.0
O234 O 0.53314 0.02282 0.96067 0.0
O235 O 0.50082 0.03702 0.90982 0.0
O236 O 0.45761 0.07182 0.96 0.0
O237 O 0.42355 0.03467 0.92402 0.0
C238 C 0.57666 0.91559 0.97211 0.0
C239 C 0.47847 0.93883 0.98509 0.0
C240 C 0.48075 0.96025 0.0911 0.0
C241 C 0.58148 0.93461 0.07803 0.0
C242 C 0.43054 0.07967 0.04274 0.0
C243 C 0.53314 0.06213 0.03641 0.0
C244 C 0.52862 0.03445 0.92356 0.0
C245 C 0.43043 0.06245 0.93911 0.0
O246 O 0.5464 0.90294 0.97661 0.0
O247 O 0.58668 0.94437 0.98302 0.0
O248 O 0.48604 0.96647 0.97091 0.0
O249 O 0.49862 0.92735 0.00795 0.0
Co250 Co 0.04172 0.42983 0.97048 0.0
Co251 Co 0.05067 0.45792 0.04461 0.0
Co252 Co 0.00309 0.49014 0.98763 0.0
O253 O 0.04218 0.47121 0.98902 0.0
H254 H 0.06097 0.48547 0.97864 0.0
O255 O 0.96368 0.50912 0.98614 0.0
Co256 Co 0.96697 0.55107 0.0044 0.0
Co257 Co 0.95595 0.52333 0.93042 0.0
H258 H 0.94478 0.49533 -0.00286 0.0
O259 O 0.09115 0.45087 0.06129 0.0
O260 O 0.05049 0.41716 0.03075 0.0
O261 O 0.01713 0.45599 0.08625 0.0
O262 O 0.98115 0.46313 0.03594 0.0
O263 O 0.02567 0.52271 0.02826 0.0
O264 O 0.96739 0.58853 0.02264 0.0
O265 O 0.92548 0.54819 0.02276 0.0
O266 O 0.01073 0.55986 0.98932 0.0
O267 O 0.02532 0.51656 0.93906 0.0
O268 O 0.99088 0.52897 0.89009 0.0
O269 O 0.95397 0.56318 0.94607 0.0
O270 O 0.91474 0.52842 0.91472 0.0
C271 C 0.07572 0.40674 0.94842 0.0
C272 C 0.97573 0.42945 0.95579 0.0
C273 C 0.98817 0.45294 0.07295 0.0
C274 C 0.07887 0.423 0.04933 0.0
C275 C 0.93743 0.57707 0.03148 0.0
C276 C 0.03 0.55105 0.01638 0.0
C277 C 0.0195 0.52923 0.90328 0.0
C278 C 0.92495 0.55587 0.92975 0.0
O279 O 0.04568 0.39288 0.95218 0.0
O280 O 0.08425 0.43574 0.95872 0.0
O281 O 0.98064 0.45828 0.94687 0.0
O282 O 0.99614 0.41809 0.97833 0.0
Co283 Co 0.53102 0.4482 0.00017 0.0
Co284 Co 0.54835 0.46776 0.07555 0.0
Co285 Co 0.49515 0.50288 0.04021 0.0
O286 O 0.53472 0.48673 0.0289 0.0
H287 H 0.55226 0.50239 0.01827 0.0
O288 O 0.45569 0.51922 0.04933 0.0
Co289 Co 0.45691 0.561 0.06344 0.0
Co290 Co 0.44341 0.52907 0.99433 0.0
H291 H 0.43865 0.5047 0.06326 0.0
O292 O 0.59093 0.46806 0.08056 0.0
O293 O 0.55206 0.43138 0.05033 0.0
O294 O 0.51997 0.45845 0.12352 0.0
O295 O 0.47874 0.47329 0.08927 0.0
O296 O 0.51944 0.5325 0.0815 0.0
O297 O 0.4545 0.59876 0.07816 0.0
O298 O 0.4154 0.55587 0.08002 0.0
O299 O 0.50162 0.57157 0.05099 0.0
O300 O 0.51187 0.53226 0.99152 0.0
O301 O 0.4712 0.52759 0.94519 0.0
O302 O 0.44388 0.56992 0.00282 0.0
O303 O 0.40221 0.5315 0.98283 0.0
C304 C 0.55731 0.42965 0.95684 0.0
C305 C 0.46869 0.44493 0.00097 0.0
C306 C 0.49029 0.45969 0.1208 0.0
C307 C 0.58183 0.44104 0.06348 0.0
C308 C 0.42505 0.58528 0.08705 0.0
C309 C 0.5211 0.56137 0.07663 0.0
C310 C 0.50118 0.53443 0.95321 0.0
C311 C 0.41533 0.56063 0.98516 0.0
O312 O 0.53019 0.4142 0.97156 0.0
O313 O 0.56917 0.45704 0.97191 0.0
O314 O 0.47025 0.47381 -0.00097 0.0
O315 O 0.48971 0.43446 0.02327 0.0
Co316 Co 0.07395 0.46914 0.51595 0.0
Co317 Co 0.04217 0.46471 0.44344 0.0
Co318 Co 0.00986 0.50554 0.5079 0.0
O319 O 0.02944 0.46827 0.50015 0.0
H320 H 0.01524 0.4495 0.50956 0.0
O321 O 0.99062 0.543 0.51598 0.0
Co322 Co 0.9465 0.54295 0.50023 0.0
Co323 Co 0.97924 0.54775 0.57349 0.0
H324 H 0.00495 0.56157 0.50617 0.0
O325 O 0.04389 0.42647 0.4226 0.0
O326 O 0.08386 0.45972 0.45563 0.0
O327 O 0.04677 0.50043 0.40673 0.0
O328 O 0.03319 0.52972 0.45828 0.0
O329 O 0.97307 0.48593 0.46982 0.0
O330 O 0.90679 0.54634 0.48463 0.0
O331 O 0.95133 0.58383 0.48848 0.0
O332 O 0.93565 0.50037 0.50927 0.0
O333 O 0.98576 0.48162 0.55709 0.0
O334 O 0.97563 0.51163 0.60998 0.0
O335 O 0.93646 0.54922 0.56076 0.0
O336 O 0.97199 0.58579 0.59422 0.0
C337 C 0.1011 0.43846 0.53784 0.0
C338 C 0.07573 0.52963 0.53274 0.0
C339 C 0.04506 0.52659 0.42139 0.0
C340 C 0.07356 0.43347 0.4365 0.0
C341 C 0.92049 0.57518 0.4799 0.0
C342 C 0.94387 0.48226 0.48227 0.0
C343 C 0.97431 0.48514 0.59414 0.0
C344 C 0.94281 0.57535 0.58045 0.0
O345 O 0.1135 0.46742 0.53165 0.0
O346 O 0.07028 0.42837 0.53021 0.0
O347 O 0.04663 0.5249 0.54586 0.0
O348 O 0.0842 0.51201 0.50502 0.0
Co349 Co 0.57063 0.95991 0.50479 0.0
Co350 Co 0.54958 0.96668 0.42794 0.0
Co351 Co 0.50708 0.99619 0.4971 0.0
O352 O 0.52913 0.96269 0.48032 0.0
H353 H 0.51435 0.94299 0.48129 0.0
O354 O 0.48621 0.0305 0.51409 0.0
Co355 Co 0.44454 0.03464 0.49363 0.0
Co356 Co 0.46897 0.02636 0.56855 0.0
H357 H 0.50122 0.05002 0.51219 0.0
O358 O 0.55308 0.93159 0.39793 0.0
O359 O 0.5883 0.95716 0.44633 0.0
O360 O 0.55801 0.0075 0.40449 0.0
O361 O 0.52851 0.02683 0.4524 0.0
O362 O 0.47086 0.97928 0.45671 0.0
O363 O 0.40713 0.0421 0.47445 0.0
O364 O 0.45272 0.07652 0.48895 0.0
O365 O 0.43069 0.99103 0.49417 0.0
O366 O 0.48573 0.96534 0.54171 0.0
O367 O 0.46355 0.98647 0.59551 0.0
O368 O 0.43022 0.037 0.55424 0.0
O369 O 0.46934 0.06128 0.59924 0.0
C370 C 0.59111 0.92404 0.52599 0.0
C371 C 0.57119 0.02222 0.52555 0.0
C372 C 0.5474 0.02984 0.42012 0.0
C373 C 0.58006 0.93445 0.41956 0.0
C374 C 0.42256 0.07059 0.4761 0.0
C375 C 0.44156 0.97303 0.46911 0.0
C376 C 0.47096 0.96331 0.57761 0.0
C377 C 0.44148 0.05976 0.58007 0.0
O378 O 0.60734 0.95231 0.528 0.0
O379 O 0.56184 0.9187 0.51013 0.0
O380 O 0.54247 0.01265 0.53837 0.0
O381 O 0.58494 0.00453 0.50349 0.0
H382 H 0.18724 0.12084 0.32983 0.0
H383 H -0.00056 0.05794 0.37093 0.0
H384 H 0.11288 0.16659 0.27976 0.0
H385 H 0.07436 0.04081 0.45883 0.0
H386 H 0.04078 0.08855 0.32491 0.0
H387 H 0.1457 0.08209 0.3645 0.0
C388 C 0.16215 0.1225 0.32549 0.0
C389 C 0.15355 0.1472 0.30211 0.0
C390 C 0.04811 0.0778 0.35406 0.0
C391 C 0.10599 0.10283 0.3417 0.0
C392 C 0.0246 0.0602 0.38024 0.0
C393 C 0.03348 0.04699 0.41899 0.0
C394 C 0.08074 0.08185 0.36634 0.0
C395 C 0.06645 0.05081 0.42945 0.0
C396 C 0.13851 0.10045 0.34553 0.0
C397 C 0.12063 0.14811 0.29776 0.0
N398 N 0.08891 0.06796 0.4033 0.0
N399 N 0.09802 0.12629 0.31751 0.0
H400 H 0.8327 0.21206 0.38525 0.0
H401 H 0.87423 0.04593 0.39578 0.0
H402 H 0.81393 0.14993 0.27796 0.0
H403 H 0.92635 0.12094 0.47185 0.0
H404 H 0.84801 0.08229 0.35589 0.0
H405 H 0.86382 0.17772 0.42074 0.0
C406 C 0.83523 0.19118 0.3691 0.0
C407 C 0.82054 0.18361 0.32877 0.0
C408 C 0.86528 0.09078 0.38119 0.0
C409 C 0.85588 0.14423 0.3694 0.0
C410 C 0.88005 0.07005 0.40427 0.0
C411 C 0.90234 0.08046 0.43741 0.0
C412 C 0.87245 0.12204 0.39177 0.0
C413 C 0.90923 0.11198 0.44665 0.0
C414 C 0.85313 0.17173 0.38929 0.0
C415 C 0.82489 0.15653 0.30905 0.0
N416 N 0.89409 0.13169 0.42413 0.0
N417 N 0.8419 0.13752 0.32988 0.0
H418 H 0.85084 0.88408 0.2857 0.0
H419 H 0.97623 0.88417 0.48168 0.0
H420 H 0.89693 0.80717 0.3147 0.0
H421 H 0.92311 0.95624 0.4536 0.0
H422 H 0.95028 0.85607 0.41878 0.0
H423 H 0.88309 0.91318 0.34236 0.0
C424 C 0.86827 0.87355 0.30336 0.0
C425 C 0.87081 0.84301 0.29591 0.0
C426 C 0.94435 0.87802 0.42659 0.0
C427 C 0.90716 0.87582 0.36176 0.0
C428 C 0.95889 0.89388 0.46268 0.0
C429 C 0.95213 0.92274 0.47247 0.0
C430 C 0.92294 0.89121 0.40059 0.0
C431 C 0.92935 0.93422 0.44691 0.0
C432 C 0.88646 0.89005 0.33607 0.0
C433 C 0.89402 0.83062 0.31956 0.0
N434 N 0.91578 0.91853 0.41209 0.0
N435 N 0.91095 0.84691 0.35203 0.0
H436 H 0.19543 0.88601 0.29034 0.0
H437 H 0.05763 0.86811 0.46532 0.0
H438 H 0.11588 0.80809 0.29973 0.0
H439 H 0.1175 0.95674 0.43536 0.0
H440 H 0.08273 0.84544 0.40767 0.0
H441 H 0.16917 0.913 0.34309 0.0
C442 C 0.17214 0.8748 0.30275 0.0
C443 C 0.15806 0.84449 0.29105 0.0
C444 C 0.09047 0.86985 0.41357 0.0
C445 C 0.12843 0.87502 0.35191 0.0
C446 C 0.07635 0.88281 0.44681 0.0
C447 C 0.08533 0.91445 0.45492 0.0
C448 C 0.11398 0.88853 0.38818 0.0
C449 C 0.10996 0.93223 0.43016 0.0
C450 C 0.15731 0.89019 0.33304 0.0
C451 C 0.12782 0.83126 0.308 0.0
N452 N 0.12343 0.91901 0.3976 0.0
N453 N 0.11427 0.84643 0.33806 0.0
H454 H 0.23465 0.87267 0.70098 0.0
H455 H 0.07119 0.88437 0.57496 0.0
H456 H 0.15798 0.79501 0.67277 0.0
H457 H 0.13781 0.96277 0.62615 0.0
H458 H 0.10911 0.8515 0.59601 0.0
H459 H 0.20493 0.90617 0.66028 0.0
C460 C 0.21166 0.86268 0.68617 0.0
C461 C 0.19846 0.83116 0.69094 0.0
C462 C 0.11549 0.87597 0.60224 0.0
C463 C 0.16471 0.86906 0.64413 0.0
C464 C 0.09391 0.89471 0.59019 0.0
C465 C 0.10101 0.92613 0.59996 0.0
C466 C 0.14425 0.88885 0.62408 0.0
C467 C 0.13104 0.93848 0.61897 0.0
C468 C 0.19479 0.88174 0.66286 0.0
C469 C 0.16879 0.8193 0.67064 0.0
N470 N 0.15142 0.91971 0.63094 0.0
N471 N 0.15283 0.83831 0.64833 0.0
H472 H 0.16523 0.15336 0.74654 0.0
H473 H 0.04129 0.1239 0.54679 0.0
H474 H 0.17625 0.20674 0.62777 0.0
H475 H 0.0488 0.05419 0.64363 0.0
H476 H 0.08488 0.15919 0.58347 0.0
H477 H 0.11624 0.12089 0.71605 0.0
C478 C 0.15727 0.1583 0.71427 0.0
C479 C 0.17499 0.18242 0.68942 0.0
C480 C 0.07686 0.13617 0.5967 0.0
C481 C 0.11926 0.146 0.65484 0.0
C482 C 0.052 0.11609 0.57583 0.0
C483 C 0.04173 0.08601 0.59191 0.0
C484 C 0.09125 0.12614 0.63406 0.0
C485 C 0.0563 0.07709 0.62983 0.0
C486 C 0.12946 0.13982 0.6969 0.0
C487 C 0.16362 0.18803 0.64782 0.0
N488 N 0.08041 0.09708 0.64962 0.0
N489 N 0.13651 0.16996 0.63187 0.0
H490 H 0.82842 0.23446 0.62739 0.0
H491 H 0.86646 0.06607 0.61057 0.0
H492 H 0.79372 0.16285 0.72136 0.0
H493 H 0.92388 0.14718 0.55089 0.0
H494 H 0.8339 0.09898 0.64499 0.0
H495 H 0.8593 0.20067 0.59363 0.0
C496 C 0.82761 0.21164 0.64115 0.0
C497 C 0.80861 0.20133 0.67716 0.0
C498 C 0.85358 0.10941 0.6242 0.0
C499 C 0.84345 0.16238 0.63829 0.0
C500 C 0.87184 0.0907 0.60424 0.0
C501 C 0.89784 0.10408 0.57812 0.0
C502 C 0.86129 0.14145 0.61724 0.0
C503 C 0.90414 0.13603 0.5711 0.0
C504 C 0.84518 0.19236 0.62184 0.0
C505 C 0.80838 0.17163 0.69381 0.0
N506 N 0.88599 0.15364 0.59059 0.0
N507 N 0.82538 0.15294 0.6739 0.0
H508 H 0.85925 0.82642 0.78618 0.0
H509 H 0.91306 0.95848 0.60713 0.0
H510 H 0.80576 0.83787 0.66934 0.0
H511 H 0.98079 0.92999 0.69735 0.0
H512 H 0.86942 0.92256 0.64196 0.0
H513 H 0.90025 0.87176 0.76485 0.0
C514 C 0.85599 0.83862 0.75635 0.0
C515 C 0.82935 0.82817 0.72917 0.0
C516 C 0.8938 0.92441 0.65444 0.0
C517 C 0.87553 0.87994 0.70512 0.0
C518 C 0.91877 0.94504 0.63467 0.0
C519 C 0.95082 0.94692 0.64878 0.0
C520 C 0.90077 0.90548 0.68864 0.0
C521 C 0.95653 0.92907 0.68501 0.0
C522 C 0.87934 0.86438 0.74421 0.0
C523 C 0.82619 0.84481 0.69093 0.0
N524 N 0.93177 0.90878 0.70341 0.0
N525 N 0.84898 0.86978 0.68007 0.0
H526 H 0.32042 0.21516 0.11795 0.0
H527 H 0.37111 0.05331 0.07506 0.0
H528 H 0.28002 0.13156 0.18804 0.0
H529 H 0.43166 0.1415 0.04511 0.0
H530 H 0.33067 0.08014 0.10413 0.0
H531 H 0.35413 0.18659 0.07793 0.0
C532 C 0.31823 0.19071 0.12448 0.0
C533 C 0.29751 0.17582 0.15671 0.0
C534 C 0.35276 0.09354 0.09096 0.0
C535 C 0.33611 0.14303 0.111 0.0
C536 C 0.37579 0.07828 0.07431 0.0
C537 C 0.40497 0.09521 0.05819 0.0
C538 C 0.35875 0.12593 0.09077 0.0
C539 C 0.40972 0.12753 0.05784 0.0
C540 C 0.33764 0.17448 0.1018 0.0
C541 C 0.29584 0.14407 0.16377 0.0
N542 N 0.38689 0.14182 0.07389 0.0
N543 N 0.31496 0.12877 0.14124 0.0
H544 H 0.83157 0.29855 0.11689 0.0
H545 H 0.99098 0.42776 0.15419 0.0
H546 H 0.87608 0.31869 0.24175 0.0
H547 H 0.92893 0.42499 0.04167 0.0
H548 H 0.95354 0.38335 0.18434 0.0
H549 H 0.87363 0.33874 0.08474 0.0
C550 C 0.85093 0.31066 0.13715 0.0
C551 C 0.85081 0.30528 0.18176 0.0
C552 C 0.94808 0.39266 0.15318 0.0
C553 C 0.89795 0.35162 0.14597 0.0
C554 C 0.96927 0.41818 0.13614 0.0
C555 C 0.96308 0.43029 0.09543 0.0
C556 C 0.92074 0.3789 0.12912 0.0
C557 C 0.93464 0.41668 0.07333 0.0
C558 C 0.87452 0.3339 0.11906 0.0
C559 C 0.87574 0.3221 0.20707 0.0
N560 N 0.91469 0.39157 0.0903 0.0
N561 N 0.89823 0.34469 0.18888 0.0
H562 H 0.75702 0.87862 0.1532 0.0
H563 H 0.58073 0.87449 0.0547 0.0
H564 H 0.69787 0.79635 0.10092 0.0
H565 H 0.64312 0.95532 0.10617 0.0
H566 H 0.62552 0.84673 0.06132 0.0
H567 H 0.7188 0.9086 0.12433 0.0
C568 C 0.73635 0.86697 0.13473 0.0
C569 C 0.73047 0.83489 0.12991 0.0
C570 C 0.62939 0.87061 0.07089 0.0
C571 C 0.68588 0.86896 0.09779 0.0
C572 C 0.60382 0.88643 0.0672 0.0
C573 C 0.60802 0.91716 0.08043 0.0
C574 C 0.65925 0.88564 0.08813 0.0
C575 C 0.63851 0.93152 0.0962 0.0
C576 C 0.71434 0.88406 0.11846 0.0
C577 C 0.70333 0.82104 0.10546 0.0
N578 N 0.66278 0.91561 0.09985 0.0
N579 N 0.68166 0.83806 0.09105 0.0
H580 H 0.11786 0.69107 0.18946 0.0
H581 H 0.06603 0.60033 0.97511 0.0
H582 H 0.175 0.71253 0.07451 0.0
H583 H 0.05074 0.5566 0.10053 0.0
H584 H 0.10166 0.64459 0.00817 0.0
H585 H 0.08674 0.64568 0.1543 0.0
C586 C 0.12357 0.6866 0.15653 0.0
C587 C 0.14914 0.70582 0.13487 0.0
C588 C 0.09087 0.62514 0.02833 0.0
C589 C 0.11355 0.65352 0.09466 0.0
C590 C 0.07066 0.59989 0.00957 0.0
C591 C 0.05562 0.57481 0.03524 0.0
C592 C 0.09524 0.62569 0.07323 0.0
C593 C 0.06216 0.57538 0.07967 0.0
C594 C 0.10602 0.6604 0.13675 0.0
C595 C 0.15551 0.69845 0.09238 0.0
N596 N 0.08109 0.60072 0.09743 0.0
N597 N 0.13771 0.67292 0.07353 0.0
H598 H 0.2998 0.87144 0.8542 0.0
H599 H 0.45169 0.87964 0.0118 0.0
H600 H 0.31749 0.79339 0.9294 0.0
H601 H 0.42995 0.95694 0.93834 0.0
H602 H 0.39862 0.84942 0.99138 0.0
H603 H 0.34211 0.90487 0.89504 0.0
C604 C 0.31208 0.86143 0.88006 0.0
C605 C 0.30532 0.82951 0.88802 0.0
C606 C 0.40541 0.87308 0.98004 0.0
C607 C 0.35465 0.8676 0.93425 0.0
C608 C 0.43577 0.8903 0.99153 0.0
C609 C 0.44566 0.92067 0.97595 0.0
C610 C 0.38487 0.88628 0.95265 0.0
C611 C 0.42371 0.93346 0.9505 0.0
C612 C 0.33643 0.88053 0.90326 0.0
C613 C 0.32193 0.81787 0.92209 0.0
N614 N 0.39461 0.91613 0.93931 0.0
N615 N 0.3463 0.83681 0.94338 0.0
H616 H 0.17125 0.26433 0.8561 0.0
H617 H 0.14019 0.428 0.93329 0.0
H618 H 0.23825 0.35071 0.83753 0.0
H619 H 0.06661 0.34497 0.93253 0.0
H620 H 0.17916 0.39835 0.90799 0.0
H621 H 0.13546 0.29182 0.89467 0.0
C622 C 0.17865 0.28894 0.86068 0.0
C623 C 0.20759 0.30528 0.84314 0.0
C624 C 0.15449 0.3866 0.91347 0.0
C625 C 0.16685 0.33683 0.88691 0.0
C626 C 0.13223 0.40355 0.92786 0.0
C627 C 0.09997 0.38908 0.93439 0.0
C628 C 0.14449 0.3549 0.90572 0.0
C629 C 0.09113 0.35721 0.92734 0.0
C630 C 0.15816 0.30465 0.88245 0.0
C631 C 0.21596 0.33719 0.84998 0.0
N632 N 0.11321 0.34123 0.9132 0.0
N633 N 0.19564 0.3519 0.87105 0.0
H634 H 0.70154 0.16742 0.85782 0.0
H635 H 0.53097 0.05122 0.83844 0.0
H636 H 0.62491 0.17593 0.76735 0.0
H637 H 0.5903 0.05565 0.95368 0.0
H638 H 0.57327 0.08873 0.80369 0.0
H639 H 0.66748 0.11986 0.88694 0.0
C640 C 0.67768 0.15937 0.84417 0.0
C641 C 0.6659 0.17593 0.81055 0.0
C642 C 0.57725 0.08121 0.83641 0.0
C643 C 0.62755 0.12153 0.84259 0.0
C644 C 0.55317 0.05964 0.85615 0.0
C645 C 0.55687 0.0507 0.89921 0.0
C646 C 0.60514 0.09422 0.85997 0.0
C647 C 0.58638 0.06208 0.92045 0.0
C648 C 0.65839 0.13225 0.86061 0.0
C649 C 0.63492 0.16432 0.79373 0.0
N650 N 0.60925 0.08375 0.90084 0.0
N651 N 0.61697 0.13793 0.80986 0.0
H652 H 0.84682 0.71806 0.87156 0.0
H653 H 0.85953 0.54406 0.92178 0.0
H654 H 0.76601 0.64135 0.87492 0.0
H655 H 0.94136 0.61918 0.93448 0.0
H656 H 0.82429 0.58107 0.91361 0.0
H657 H 0.88105 0.68468 0.90443 0.0
C658 C 0.8361 0.6945 0.88038 0.0
C659 C 0.8037 0.68227 0.87001 0.0
C660 C 0.84992 0.58964 0.91843 0.0
C661 C 0.84254 0.64402 0.90674 0.0
C662 C 0.8701 0.56843 0.92285 0.0
C663 C 0.9035 0.57855 0.9279 0.0
C664 C 0.86317 0.62139 0.91823 0.0
C665 C 0.91574 0.61043 0.93005 0.0
C666 C 0.85566 0.67539 0.8988 0.0
C667 C 0.79102 0.65156 0.88178 0.0
N668 N 0.89563 0.63079 0.9245 0.0
N669 N 0.81051 0.63346 0.89895 0.0
H670 H 0.22546 0.31923 0.1212 0.0
H671 H 0.05519 0.36062 0.05364 0.0
H672 H 0.13418 0.26534 0.163 0.0
H673 H 0.14359 0.42838 0.06465 0.0
H674 H 0.0849 0.32034 0.07552 0.0
H675 H 0.19637 0.35388 0.08161 0.0
C676 C 0.1993 0.31427 0.12132 0.0
C677 C 0.18225 0.28948 0.14584 0.0
C678 C 0.09777 0.34401 0.07272 0.0
C679 C 0.14891 0.32906 0.10059 0.0
C680 C 0.08088 0.36698 0.06017 0.0
C681 C 0.09685 0.39796 0.05809 0.0
C682 C 0.13093 0.35205 0.08241 0.0
C683 C 0.13022 0.40485 0.06659 0.0
C684 C 0.18276 0.33419 0.09896 0.0
C685 C 0.14833 0.28433 0.1449 0.0
N686 N 0.14613 0.38212 0.07849 0.0
N687 N 0.13277 0.30404 0.12288 0.0
H688 H 0.12433 0.70231 0.80407 0.0
H689 H 0.08395 0.53786 0.9235 0.0
H690 H 0.19157 0.6677 0.88858 0.0
H691 H 0.01605 0.57396 0.84177 0.0
H692 H 0.12457 0.58396 0.90807 0.0
H693 H 0.08417 0.65567 0.8184 0.0
C694 C 0.13047 0.68515 0.82632 0.0
C695 C 0.16148 0.6889 0.84499 0.0
C696 C 0.10091 0.58163 0.89309 0.0
C697 C 0.11573 0.63498 0.86071 0.0
C698 C 0.07775 0.55509 0.90143 0.0
C699 C 0.04632 0.55201 0.8842 0.0
C700 C 0.09268 0.60532 0.86724 0.0
C701 C 0.03986 0.57523 0.85587 0.0
C702 C 0.10759 0.65836 0.83415 0.0
C703 C 0.16798 0.66588 0.87358 0.0
N704 N 0.06271 0.60104 0.8487 0.0
N705 N 0.1454 0.63974 0.88022 0.0
H706 H 0.35591 0.22236 0.86837 0.0
H707 H 0.36865 0.04795 0.90722 0.0
H708 H 0.27686 0.14678 0.84236 0.0
H709 H 0.43964 0.12459 0.95417 0.0
H710 H 0.33253 0.08325 0.88961 0.0
H711 H 0.38412 0.18707 0.90726 0.0
C712 C 0.34422 0.19833 0.87169 0.0
C713 C 0.31414 0.18736 0.85197 0.0
C714 C 0.35585 0.09233 0.90419 0.0
C715 C 0.34672 0.14656 0.89542 0.0
C716 C 0.37662 0.07221 0.91403 0.0
C717 C 0.40752 0.08341 0.93148 0.0
C718 C 0.36611 0.12399 0.91141 0.0
C719 C 0.41624 0.11497 0.94025 0.0
C720 C 0.36037 0.17816 0.89381 0.0
C721 C 0.29999 0.15611 0.85726 0.0
N722 N 0.39581 0.1342 0.92962 0.0
N723 N 0.31671 0.13662 0.87781 0.0
H724 H 0.83444 0.27677 0.85387 0.0
H725 H 0.92139 0.44642 0.92251 0.0
H726 H 0.79024 0.35664 0.8449 0.0
H727 H 0.96087 0.36607 0.95526 0.0
H728 H 0.87254 0.41286 0.89562 0.0
H729 H 0.87987 0.30757 0.89409 0.0
C730 C 0.83395 0.30053 0.86104 0.0
C731 C 0.80862 0.31418 0.84551 0.0
C732 C 0.89176 0.40247 0.90889 0.0
C733 C 0.86063 0.34961 0.89078 0.0
C734 C 0.91979 0.42169 0.9241 0.0
C735 C 0.94544 0.40911 0.94087 0.0
C736 C 0.88931 0.37031 0.90991 0.0
C737 C 0.94174 0.37681 0.94247 0.0
C738 C 0.85997 0.31815 0.88376 0.0
C739 C 0.80938 0.34516 0.85564 0.0
N740 N 0.91434 0.35852 0.92681 0.0
N741 N 0.83503 0.36181 0.87712 0.0
H742 H 0.73444 0.83549 0.87315 0.0
H743 H 0.56252 0.8538 0.96184 0.0
H744 H 0.64658 0.76666 0.86763 0.0
H745 H 0.64177 0.93183 0.95117 0.0
H746 H 0.59717 0.82045 0.93781 0.0
H747 H 0.70513 0.86962 0.91179 0.0
C748 C 0.70923 0.82736 0.88085 0.0
C749 C 0.69278 0.79832 0.86699 0.0
C750 C 0.6072 0.84485 0.94048 0.0
C751 C 0.65938 0.83696 0.91061 0.0
C752 C 0.58728 0.86409 0.95412 0.0
C753 C 0.59898 0.89592 0.9577 0.0
C754 C 0.63931 0.85724 0.92968 0.0
C755 C 0.63162 0.9075 0.9482 0.0
C756 C 0.69251 0.84688 0.90251 0.0
C757 C 0.66012 0.78895 0.87735 0.0
N758 N 0.65068 0.88816 0.93415 0.0
N759 N 0.64458 0.80819 0.89828 0.0
H760 H 0.88268 0.72799 0.16153 0.0
H761 H 0.87079 0.57123 0.03164 0.0
H762 H 0.79255 0.67992 0.10696 0.0
H763 H 0.95951 0.63117 0.07122 0.0
H764 H 0.84054 0.60914 0.05891 0.0
H765 H 0.91045 0.69186 0.12737 0.0
C766 C 0.86875 0.70997 0.14187 0.0
C767 C 0.83524 0.70698 0.13717 0.0
C768 C 0.86663 0.61384 0.06153 0.0
C769 C 0.86694 0.6648 0.09829 0.0
C770 C 0.88383 0.59213 0.04637 0.0
C771 C 0.9177 0.59793 0.04946 0.0
C772 C 0.88353 0.64126 0.08014 0.0
C773 C 0.93345 0.62561 0.06812 0.0
C774 C 0.88463 0.68921 0.12238 0.0
C775 C 0.81848 0.68315 0.11119 0.0
N776 N 0.91629 0.64603 0.08277 0.0
N777 N 0.83446 0.6627 0.09306 0.0
H778 H 0.31499 0.81659 0.10149 0.0
H779 H 0.42609 0.98385 0.09734 0.0
H780 H 0.28323 0.89329 0.15925 0.0
H781 H 0.46269 0.90001 0.11423 0.0
H782 H 0.37083 0.95371 0.10374 0.0
H783 H 0.3662 0.85077 0.08354 0.0
C784 C 0.31827 0.84084 0.10892 0.0
C785 C 0.29511 0.8521 0.13247 0.0
C786 C 0.39107 0.94211 0.10653 0.0
C787 C 0.35356 0.89085 0.11293 0.0
C788 C 0.42247 0.95924 0.10355 0.0
C789 C 0.4489 0.9444 0.10621 0.0
C790 C 0.38625 0.90995 0.11084 0.0
C791 C 0.44301 0.91241 0.11311 0.0
C792 C 0.34767 0.86015 0.09936 0.0
C793 C 0.30072 0.88371 0.14154 0.0
N794 N 0.41224 0.89615 0.11461 0.0
N795 N 0.32965 0.902 0.13225 0.0
H796 H 0.71414 0.1425 0.16423 0.0
H797 H 0.55058 0.12468 0.02375 0.0
H798 H 0.66458 0.21652 0.13338 0.0
H799 H 0.58527 0.04709 0.0796 0.0
H800 H 0.599 0.15896 0.0509 0.0
H801 H 0.67397 0.10768 0.12018 0.0
C802 C 0.69533 0.15154 0.14729 0.0
C803 C 0.69244 0.18227 0.1525 0.0
C804 C 0.59613 0.1344 0.057 0.0
C805 C 0.64663 0.14293 0.10271 0.0
C806 C 0.56844 0.1148 0.04149 0.0
C807 C 0.56351 0.08298 0.05 0.0
C808 C 0.61921 0.1222 0.08116 0.0
C809 C 0.58778 0.07153 0.07282 0.0
C810 C 0.6723 0.13169 0.12254 0.0
C811 C 0.66746 0.19287 0.13038 0.0
N812 N 0.61446 0.09114 0.08789 0.0
N813 N 0.64548 0.17324 0.10671 0.0
H814 H 0.60329 0.67058 0.77923 0.0
H815 H 0.56512 0.53318 0.94794 0.0
H816 H 0.67065 0.61143 0.8098 0.0
H817 H 0.48912 0.56854 0.88214 0.0
H818 H 0.604 0.56151 0.89692 0.0
H819 H 0.56071 0.63348 0.81514 0.0
C820 C 0.60904 0.6496 0.7929 0.0
C821 C 0.64072 0.6443 0.79183 0.0
C822 C 0.57877 0.56279 0.89323 0.0
C823 C 0.59219 0.60202 0.83353 0.0
C824 C 0.55659 0.54672 0.92247 0.0
C825 C 0.52391 0.5487 0.91942 0.0
C826 C 0.56837 0.58157 0.86119 0.0
C827 C 0.51412 0.56639 0.88557 0.0
C828 C 0.58469 0.62842 0.81334 0.0
C829 C 0.64667 0.6166 0.80993 0.0
N830 N 0.53637 0.58258 0.85815 0.0
N831 N 0.62278 0.59678 0.83063 0.0
H832 H 0.32093 0.64803 0.78552 0.0
H833 H 0.42607 0.62334 0.99385 0.0
H834 H 0.33684 0.71276 0.88992 0.0
H835 H 0.36997 0.54822 0.92163 0.0
H836 H 0.40253 0.6597 0.94897 0.0
H837 H 0.3498 0.61419 0.82747 0.0
C838 C 0.3309 0.65525 0.81694 0.0
C839 C 0.32629 0.68287 0.83467 0.0
C840 C 0.39544 0.6352 0.94322 0.0
C841 C 0.35906 0.6448 0.88226 0.0
C842 C 0.4087 0.61454 0.96881 0.0
C843 C 0.39973 0.58282 0.96158 0.0
C844 C 0.37374 0.62392 0.90982 0.0
C845 C 0.3773 0.5725 0.92859 0.0
C846 C 0.34709 0.63595 0.84089 0.0
C847 C 0.33956 0.69133 0.8755 0.0
N848 N 0.36523 0.59305 0.90367 0.0
N849 N 0.35536 0.6723 0.89805 0.0
H850 H 0.40096 0.30709 0.8098 0.0
H851 H 0.4275 0.46308 0.94216 0.0
H852 H 0.34758 0.3796 0.78595 0.0
H853 H 0.46851 0.38455 0.98054 0.0
H854 H 0.40276 0.43497 0.87978 0.0
H855 H 0.43278 0.33866 0.8649 0.0
C856 C 0.3964 0.32993 0.81538 0.0
C857 C 0.37116 0.34052 0.79373 0.0
C858 C 0.4172 0.42386 0.90177 0.0
C859 C 0.40708 0.37639 0.85721 0.0
C860 C 0.43124 0.43983 0.93761 0.0
C861 C 0.45053 0.4263 0.96639 0.0
C862 C 0.42233 0.39406 0.89455 0.0
C863 C 0.45418 0.39602 0.95892 0.0
C864 C 0.41436 0.34777 0.8472 0.0
C865 C 0.36649 0.37033 0.80224 0.0
N866 N 0.44032 0.38092 0.92351 0.0
N867 N 0.38402 0.38708 0.83373 0.0
H868 H 0.60839 0.30015 0.77913 0.0
H869 H 0.61579 0.45243 0.91804 0.0
H870 H 0.68886 0.37747 0.77711 0.0
H871 H 0.53585 0.37459 0.91817 0.0
H872 H 0.6414 0.42741 0.86189 0.0
H873 H 0.57897 0.32977 0.82412 0.0
C874 C 0.61966 0.32352 0.78746 0.0
C875 C 0.6513 0.33614 0.77475 0.0
C876 C 0.61818 0.41593 0.87418 0.0
C877 C 0.61804 0.37002 0.82691 0.0
C878 C 0.60365 0.43016 0.90632 0.0
C879 C 0.5738 0.41551 0.92313 0.0
C880 C 0.60268 0.38692 0.85886 0.0
C881 C 0.55902 0.38672 0.90653 0.0
C882 C 0.60296 0.34038 0.81343 0.0
C883 C 0.66466 0.3666 0.78659 0.0
N884 N 0.57363 0.37338 0.87551 0.0
N885 N 0.64813 0.38234 0.81239 0.0
H886 H 0.73291 0.36623 0.17544 0.0
H887 H 0.56747 0.3782 0.05754 0.0
H888 H 0.64662 0.29495 0.17765 0.0
H889 H 0.64694 0.45508 0.07579 0.0
H890 H 0.60222 0.34328 0.08248 0.0
H891 H 0.70666 0.3952 0.12299 0.0
C892 C 0.70844 0.35671 0.16501 0.0
C893 C 0.69166 0.32847 0.18164 0.0
C894 C 0.61218 0.36776 0.08024 0.0
C895 C 0.66181 0.36117 0.12124 0.0
C896 C 0.59244 0.38766 0.06579 0.0
C897 C 0.60412 0.41956 0.06627 0.0
C898 C 0.64358 0.38006 0.09509 0.0
C899 C 0.63675 0.43062 0.0764 0.0
C900 C 0.6936 0.37311 0.1348 0.0
C901 C 0.66023 0.31694 0.16636 0.0
N902 N 0.65525 0.4109 0.0913 0.0
N903 N 0.64622 0.33348 0.13723 0.0
H904 H 0.66131 0.71899 0.15161 0.0
H905 H 0.56181 0.54786 0.14045 0.0
H906 H 0.67086 0.65082 0.2496 0.0
H907 H 0.53535 0.6242 0.06947 0.0
H908 H 0.6021 0.58434 0.18069 0.0
H909 H 0.61485 0.68409 0.12154 0.0
C910 C 0.65335 0.69663 0.16698 0.0
C911 C 0.66998 0.68751 0.2028 0.0
C912 C 0.58728 0.59305 0.15653 0.0
C913 C 0.61705 0.64726 0.16822 0.0
C914 C 0.56447 0.57228 0.13331 0.0
C915 C 0.54544 0.58303 0.10121 0.0
C916 C 0.59126 0.62469 0.14724 0.0
C917 C 0.54966 0.61488 0.09365 0.0
C918 C 0.62677 0.67676 0.14989 0.0
C919 C 0.65856 0.65855 0.22189 0.0
N920 N 0.57229 0.63456 0.11629 0.0
N921 N 0.63295 0.63912 0.20388 0.0
H922 H 0.31915 0.72888 0.12759 0.0
H923 H 0.3722 0.5668 0.13862 0.0
H924 H 0.29981 0.66997 0.24052 0.0
H925 H 0.42785 0.64634 0.07328 0.0
H926 H 0.33785 0.6001 0.16853 0.0
H927 H 0.35208 0.69444 0.09923 0.0
C928 C 0.3219 0.70868 0.14645 0.0
C929 C 0.3069 0.70227 0.18653 0.0
C930 C 0.35763 0.61008 0.14761 0.0
C931 C 0.34403 0.6626 0.15391 0.0
C932 C 0.37698 0.59116 0.13035 0.0
C933 C 0.40286 0.60395 0.10364 0.0
C934 C 0.36389 0.64167 0.13706 0.0
C935 C 0.40826 0.63562 0.094 0.0
C936 C 0.3407 0.68911 0.13028 0.0
C937 C 0.31127 0.67582 0.20966 0.0
N938 N 0.38881 0.65336 0.11048 0.0
N939 N 0.32928 0.65669 0.19281 0.0
H940 H 0.32406 0.36586 0.2688 0.0
H941 H 0.49883 0.40838 0.16589 0.0
H942 H 0.3678 0.29958 0.20361 0.0
H943 H 0.42986 0.46723 0.14356 0.0
H944 H 0.45766 0.37205 0.20531 0.0
H945 H 0.36981 0.40689 0.24668 0.0
C946 C 0.34359 0.35997 0.25055 0.0
C947 C 0.34235 0.32954 0.23769 0.0
C948 C 0.45186 0.39325 0.19246 0.0
C949 C 0.3944 0.37561 0.21358 0.0
C950 C 0.4753 0.41407 0.1702 0.0
C951 C 0.46762 0.44074 0.1511 0.0
C952 C 0.42079 0.39946 0.19644 0.0
C953 C 0.43663 0.44678 0.15748 0.0
C954 C 0.36943 0.38325 0.23789 0.0
C955 C 0.36794 0.32288 0.21383 0.0
N956 N 0.4142 0.42618 0.17955 0.0
N957 N 0.39305 0.34573 0.20268 0.0
H958 H 0.8294 0.71376 0.6318 0.0
H959 H 0.87765 0.55334 0.57679 0.0
H960 H 0.77154 0.62595 0.66998 0.0
H961 H 0.94835 0.63628 0.60061 0.0
H962 H 0.83468 0.58123 0.59271 0.0
H963 H 0.86901 0.68677 0.60125 0.0
C964 C 0.82464 0.68879 0.63293 0.0
C965 C 0.79718 0.67208 0.65373 0.0
C966 C 0.85961 0.5933 0.59421 0.0
C967 C 0.84239 0.64121 0.61885 0.0
C968 C 0.88414 0.57746 0.58514 0.0
C969 C 0.91667 0.59243 0.58802 0.0
C970 C 0.8676 0.62446 0.6055 0.0
C971 C 0.92363 0.62376 0.59864 0.0
C972 C 0.8474 0.67347 0.61582 0.0
C973 C 0.79246 0.63975 0.65451 0.0
N974 N 0.89929 0.63876 0.60699 0.0
N975 N 0.81489 0.62536 0.63744 0.0
H976 H 0.3808 0.82064 0.74864 0.0
H977 H 0.45646 0.90821 0.53608 0.0
H978 H 0.34904 0.79082 0.62085 0.0
H979 H 0.45885 0.94823 0.66233 0.0
H980 H 0.43053 0.8582 0.56717 0.0
H981 H 0.42423 0.85905 0.71744 0.0
C982 C 0.38366 0.82168 0.71392 0.0
C983 C 0.36137 0.80289 0.68711 0.0
C984 C 0.43729 0.87784 0.58807 0.0
C985 C 0.41017 0.84734 0.65119 0.0
C986 C 0.45214 0.90632 0.57049 0.0
C987 C 0.45948 0.93242 0.59673 0.0
C988 C 0.43027 0.87547 0.63222 0.0
C989 C 0.45322 0.92877 0.64093 0.0
C990 C 0.40825 0.84371 0.69614 0.0
C991 C 0.36592 0.80498 0.64242 0.0
N992 N 0.43884 0.90086 0.65723 0.0
N993 N 0.38956 0.8274 0.62564 0.0
H994 H 0.26284 0.37238 0.64527 0.0
H995 H 0.09186 0.37482 0.533 0.0
H996 H 0.20198 0.29023 0.59531 0.0
H997 H 0.16141 0.45544 0.57097 0.0
H998 H 0.13177 0.34283 0.552 0.0
H999 H 0.227 0.40315 0.61222 0.0
C1000 C 0.24223 0.36091 0.6265 0.0
C1001 C 0.23531 0.32877 0.62312 0.0
C1002 C 0.13815 0.36755 0.55602 0.0
C1003 C 0.19334 0.36372 0.58627 0.0
C1004 C 0.1153 0.38571 0.54566 0.0
C1005 C 0.12317 0.41778 0.55091 0.0
C1006 C 0.16882 0.38169 0.57191 0.0
C1007 C 0.15413 0.43082 0.56653 0.0
C1008 C 0.22158 0.37844 0.60782 0.0
C1009 C 0.20825 0.31503 0.59846 0.0
N1010 N 0.17562 0.41278 0.57656 0.0
N1011 N 0.18785 0.33255 0.58155 0.0
H1012 H 0.61295 0.20433 0.63296 0.0
H1013 H 0.63103 0.05505 0.49941 0.0
H1014 H 0.70148 0.19628 0.57061 0.0
H1015 H 0.54701 0.06425 0.57169 0.0
H1016 H 0.65549 0.10886 0.51642 0.0
H1017 H 0.58626 0.15611 0.6003 0.0
C1018 C 0.62668 0.19279 0.61168 0.0
C1019 C 0.65969 0.20444 0.60499 0.0
C1020 C 0.63166 0.09902 0.52838 0.0
C1021 C 0.62924 0.14835 0.56802 0.0
C1022 C 0.61775 0.06825 0.51886 0.0
C1023 C 0.58706 0.05477 0.53462 0.0
C1024 C 0.61472 0.11644 0.55377 0.0
C1025 C 0.57081 0.0733 0.55907 0.0
C1026 C 0.61144 0.16502 0.59322 0.0
C1027 C 0.67604 0.18827 0.57686 0.0
N1028 N 0.58484 0.10291 0.56796 0.0
N1029 N 0.66081 0.16086 0.55996 0.0
H1030 H 0.82961 0.3055 0.40867 0.0
H1031 H 0.87967 0.48089 0.47541 0.0
H1032 H 0.78079 0.37546 0.35743 0.0
H1033 H 0.95111 0.42526 0.45502 0.0
H1034 H 0.83762 0.43845 0.45063 0.0
H1035 H 0.8684 0.34568 0.44564 0.0
C1036 C 0.82653 0.32919 0.4062 0.0
C1037 C 0.80207 0.33731 0.37995 0.0
C1038 C 0.86249 0.43556 0.45174 0.0
C1039 C 0.84611 0.38293 0.42181 0.0
C1040 C 0.88649 0.45967 0.4658 0.0
C1041 C 0.91892 0.4566 0.46672 0.0
C1042 C 0.87087 0.40796 0.43938 0.0
C1043 C 0.92641 0.42862 0.45411 0.0
C1044 C 0.84885 0.35202 0.42682 0.0
C1045 C 0.7994 0.36835 0.37728 0.0
N1046 N 0.90244 0.40518 0.44104 0.0
N1047 N 0.82123 0.39011 0.39796 0.0
H1048 H 0.66216 0.77852 0.34349 0.0
H1049 H 0.644 0.94021 0.44269 0.0
H1050 H 0.74098 0.85678 0.3528 0.0
H1051 H 0.56525 0.8781 0.38126 0.0
H1052 H 0.67968 0.90437 0.42717 0.0
H1053 H 0.62632 0.80943 0.37533 0.0
C1054 C 0.67207 0.80192 0.35318 0.0
C1055 C 0.70451 0.81519 0.34528 0.0
C1056 C 0.65453 0.89858 0.41733 0.0
C1057 C 0.66384 0.85052 0.38155 0.0
C1058 C 0.63416 0.919 0.42615 0.0
C1059 C 0.60171 0.91241 0.41259 0.0
C1060 C 0.64226 0.87116 0.39537 0.0
C1061 C 0.59022 0.88438 0.39168 0.0
C1062 C 0.65159 0.8196 0.37097 0.0
C1063 C 0.71605 0.84574 0.35804 0.0
N1064 N 0.61047 0.86483 0.38364 0.0
N1065 N 0.69575 0.86239 0.3754 0.0
H1066 H 0.1375 0.71381 0.3596 0.0
H1067 H 0.09376 0.53055 0.36308 0.0
H1068 H 0.20539 0.65736 0.32569 0.0
H1069 H 0.04 0.58635 0.43397 0.0
H1070 H 0.13201 0.57728 0.34203 0.0
H1071 H 0.09998 0.66765 0.38419 0.0
C1072 C 0.14477 0.6917 0.35836 0.0
C1073 C 0.17453 0.68928 0.34075 0.0
C1074 C 0.1117 0.57925 0.36195 0.0
C1075 C 0.13137 0.6364 0.36724 0.0
C1076 C 0.08954 0.55266 0.37338 0.0
C1077 C 0.06363 0.55456 0.40034 0.0
C1078 C 0.1077 0.60789 0.37723 0.0
C1079 C 0.05966 0.58382 0.4132 0.0
C1080 C 0.12328 0.66538 0.37203 0.0
C1081 C 0.18278 0.66017 0.33949 0.0
N1082 N 0.08155 0.60934 0.40164 0.0
N1083 N 0.16104 0.6347 0.35193 0.0
H1084 H 0.27076 0.16392 0.40311 0.0
H1085 H 0.44663 0.13299 0.46334 0.0
H1086 H 0.35738 0.22989 0.373 0.0
H1087 H 0.35772 0.06531 0.46662 0.0
H1088 H 0.41532 0.17279 0.44379 0.0
H1089 H 0.30306 0.1326 0.44278 0.0
C1090 C 0.29663 0.17215 0.40589 0.0
C1091 C 0.31149 0.19944 0.38492 0.0
C1092 C 0.4028 0.14922 0.4491 0.0
C1093 C 0.34897 0.16304 0.42869 0.0
C1094 C 0.42061 0.12652 0.46011 0.0
C1095 C 0.40485 0.09564 0.4658 0.0
C1096 C 0.36904 0.14093 0.44441 0.0
C1097 C 0.37108 0.08862 0.46174 0.0
C1098 C 0.31514 0.15414 0.42818 0.0
C1099 C 0.34509 0.20905 0.38914 0.0
N1100 N 0.35445 0.11098 0.45125 0.0
N1101 N 0.36288 0.19054 0.40998 0.0
H1102 H 0.62793 0.76502 0.66455 0.0
H1103 H 0.65538 0.92335 0.53577 0.0
H1104 H 0.71941 0.80517 0.60711 0.0
H1105 H 0.56082 0.86557 0.54865 0.0
H1106 H 0.67947 0.88065 0.5628 0.0
H1107 H 0.60252 0.80126 0.62259 0.0
C1108 C 0.64257 0.78111 0.64257 0.0
C1109 C 0.67589 0.78218 0.63955 0.0
C1110 C 0.65346 0.87724 0.55939 0.0
C1111 C 0.6471 0.82413 0.59221 0.0
C1112 C 0.6397 0.90167 0.5443 0.0
C1113 C 0.60605 0.89809 0.54052 0.0
C1114 C 0.63339 0.84924 0.57156 0.0
C1115 C 0.58688 0.86935 0.55133 0.0
C1116 C 0.62805 0.80179 0.61864 0.0
C1117 C 0.69365 0.80348 0.61046 0.0
N1118 N 0.6008 0.84614 0.56695 0.0
N1119 N 0.67915 0.82397 0.58848 0.0
H1120 H 0.6945 0.18901 0.41311 0.0
H1121 H 0.52151 0.08203 0.41951 0.0
H1122 H 0.62011 0.21347 0.33014 0.0
H1123 H 0.60943 0.04939 0.39654 0.0
H1124 H 0.55186 0.13552 0.4112 0.0
H1125 H 0.65606 0.14352 0.43774 0.0
C1126 C 0.66985 0.18548 0.40112 0.0
C1127 C 0.66076 0.2045 0.36844 0.0
C1128 C 0.56417 0.11645 0.40785 0.0
C1129 C 0.61706 0.15277 0.39661 0.0
C1130 C 0.54698 0.08614 0.412 0.0
C1131 C 0.56294 0.06138 0.40766 0.0
C1132 C 0.59753 0.12165 0.40115 0.0
C1133 C 0.59606 0.06777 0.39901 0.0
C1134 C 0.64808 0.15943 0.41503 0.0
C1135 C 0.6283 0.19891 0.35458 0.0
N1136 N 0.61235 0.09733 0.39656 0.0
N1137 N 0.60762 0.17306 0.36814 0.0
H1138 H 0.8587 0.7315 0.36397 0.0
H1139 H 0.85511 0.56465 0.46663 0.0
H1140 H 0.7723 0.66084 0.36876 0.0
H1141 H 0.94014 0.6371 0.46224 0.0
H1142 H 0.82282 0.60098 0.43921 0.0
H1143 H 0.88666 0.69931 0.40893 0.0
C1144 C 0.84547 0.70925 0.37504 0.0
C1145 C 0.81323 0.69862 0.36221 0.0
C1146 C 0.84848 0.60901 0.44451 0.0
C1147 C 0.84541 0.66126 0.41328 0.0
C1148 C 0.86703 0.58825 0.46002 0.0
C1149 C 0.90057 0.5977 0.466 0.0
C1150 C 0.86353 0.63948 0.43471 0.0
C1151 C 0.91448 0.62867 0.45759 0.0
C1152 C 0.8615 0.69085 0.4007 0.0
C1153 C 0.79716 0.66984 0.3779 0.0
N1154 N 0.89595 0.64836 0.442 0.0
N1155 N 0.81361 0.65188 0.40212 0.0
H1156 H 0.35235 0.80429 0.33797 0.0
H1157 H 0.3771 0.95451 0.48495 0.0
H1158 H 0.27659 0.85126 0.37297 0.0
H1159 H 0.45593 0.92636 0.4199 0.0
H1160 H 0.34048 0.90932 0.4572 0.0
H1161 H 0.39089 0.84134 0.38122 0.0
C1162 C 0.34373 0.82184 0.35575 0.0
C1163 C 0.31139 0.82488 0.35205 0.0
C1164 C 0.36582 0.91292 0.44913 0.0
C1165 C 0.35492 0.86711 0.40086 0.0
C1166 C 0.3868 0.93878 0.46495 0.0
C1167 C 0.41962 0.94461 0.45416 0.0
C1168 C 0.37759 0.89251 0.42232 0.0
C1169 C 0.43072 0.92306 0.42851 0.0
C1170 C 0.36569 0.8431 0.37998 0.0
C1171 C 0.3014 0.84825 0.37501 0.0
N1172 N 0.4097 0.89804 0.41319 0.0
N1173 N 0.32306 0.8685 0.39824 0.0
H1174 H 0.14332 0.27373 0.35965 0.0
H1175 H 0.14004 0.44259 0.44586 0.0
H1176 H 0.2302 0.34275 0.37591 0.0
H1177 H 0.05622 0.37348 0.41323 0.0
H1178 H 0.17444 0.40516 0.43112 0.0
H1179 H 0.11234 0.30828 0.39124 0.0
C1180 C 0.15597 0.29613 0.37033 0.0
C1181 C 0.18937 0.30548 0.36461 0.0
C1182 C 0.1485 0.39827 0.42742 0.0
C1183 C 0.15373 0.34572 0.40038 0.0
C1184 C 0.12887 0.41959 0.43577 0.0
C1185 C 0.0952 0.41134 0.43009 0.0
C1186 C 0.13425 0.36852 0.41356 0.0
C1187 C 0.08203 0.38114 0.4174 0.0
C1188 C 0.13821 0.31595 0.38833 0.0
C1189 C 0.20446 0.33465 0.37964 0.0
N1190 N 0.10152 0.36101 0.40944 0.0
N1191 N 0.18645 0.35398 0.3963 0.0
H1192 H 0.39146 0.2283 0.66009 0.0
H1193 H 0.37827 0.06164 0.55875 0.0
H1194 H 0.30296 0.17718 0.60494 0.0
H1195 H 0.46522 0.1163 0.61319 0.0
H1196 H 0.35108 0.10528 0.56755 0.0
H1197 H 0.42012 0.19005 0.63327 0.0
C1198 C 0.37817 0.20926 0.64159 0.0
C1199 C 0.34474 0.20572 0.63514 0.0
C1200 C 0.37614 0.10767 0.57742 0.0
C1201 C 0.37727 0.16121 0.60523 0.0
C1202 C 0.3916 0.08275 0.57258 0.0
C1203 C 0.42396 0.08521 0.58564 0.0
C1204 C 0.39318 0.13509 0.59566 0.0
C1205 C 0.44014 0.11314 0.60315 0.0
C1206 C 0.39451 0.18729 0.62643 0.0
C1207 C 0.32876 0.18073 0.61066 0.0
N1208 N 0.42457 0.13685 0.60774 0.0
N1209 N 0.34508 0.15906 0.59721 0.0
H1210 H 0.82071 0.32409 0.59693 0.0
H1211 H 0.93274 0.4851 0.66135 0.0
H1212 H 0.79102 0.39129 0.67838 0.0
H1213 H 0.9593 0.42586 0.56462 0.0
H1214 H 0.88284 0.44774 0.673 0.0
H1215 H 0.87201 0.36003 0.58476 0.0
C1216 C 0.82458 0.34667 0.61131 0.0
C1217 C 0.80162 0.35457 0.63902 0.0
C1218 C 0.89975 0.44276 0.64952 0.0
C1219 C 0.86059 0.39523 0.62655 0.0
C1220 C 0.92858 0.4639 0.64335 0.0
C1221 C 0.95022 0.45894 0.61153 0.0
C1222 C 0.89247 0.41638 0.62385 0.0
C1223 C 0.94329 0.43089 0.58927 0.0
C1224 C 0.85407 0.36698 0.6049 0.0
C1225 C 0.80812 0.38406 0.65711 0.0
N1226 N 0.91482 0.41087 0.59542 0.0
N1227 N 0.83711 0.40311 0.651 0.0
H1228 H 0.16773 0.70351 0.63854 0.0
H1229 H 0.14169 0.53806 0.5307 0.0
H1230 H 0.24067 0.64769 0.64716 0.0
H1231 H 0.06442 0.5815 0.57121 0.0
H1232 H 0.18102 0.5817 0.55941 0.0
H1233 H 0.13318 0.66318 0.5979 0.0
C1234 C 0.17671 0.68287 0.63144 0.0
C1235 C 0.207 0.67877 0.64698 0.0
C1236 C 0.15546 0.58163 0.56181 0.0
C1237 C 0.16717 0.63228 0.60039 0.0
C1238 C 0.13301 0.55685 0.5454 0.0
C1239 C 0.09972 0.5561 0.54884 0.0
C1240 C 0.1445 0.60603 0.58102 0.0
C1241 C 0.08981 0.58098 0.56821 0.0
C1242 C 0.15683 0.65979 0.60833 0.0
C1243 C 0.21745 0.65173 0.636 0.0
N1244 N 0.11211 0.60495 0.58345 0.0
N1245 N 0.19735 0.62926 0.61367 0.0
loop_
_geom_bond_atom_site_label_1
_geom_bond_atom_site_label_2
_geom_bond_distance
_geom_bond_site_symmetry_2
_ccdc_geom_bond_type
O0 Zn1 1.953 . S
O0 C16 1.225 . S
Zn1 O0 1.953 . S
Zn1 O2 1.949 . S
Zn1 O8 1.919 . S
Zn1 O13 1.924 . S
O2 Zn1 1.949 . S
O2 Zn3 1.923 . S
O2 Zn4 1.950 . S
O2 Zn5 1.945 . S
Zn3 O2 1.923 . S
Zn3 O6 1.933 . S
Zn3 O9 1.941 . S
Zn3 O10 1.965 . S
Zn4 O2 1.950 . S
Zn4 O11 1.938 . S
Zn4 O12 1.906 . S
Zn4 O22 1.953 . S
Zn5 O2 1.945 . S
Zn5 O7 1.932 . S
Zn5 O14 1.977 . S
Zn5 O15 1.910 . S
O6 Zn3 1.933 . S
O6 C17 1.226 . S
O7 Zn5 1.932 . S
O7 C17 1.307 . S
O8 Zn1 1.919 . S
O8 C19 1.253 . S
O9 Zn3 1.941 . S
O9 C19 1.283 . S
O10 Zn3 1.965 . S
O10 C18 1.303 . S
O11 Zn4 1.938 . S
O11 C18 1.247 . S
O12 Zn4 1.906 . S
O12 C20 1.304 . S
O13 Zn1 1.924 . S
O13 C21 1.311 . S
O14 Zn5 1.977 . S
O14 C20 1.272 . S
O15 Zn5 1.910 . S
O15 C21 1.231 . S
C16 O0 1.225 . S
C16 O22 1.298 . S
C17 O6 1.226 . S
C17 O7 1.307 . S
C18 O10 1.303 . S
C18 O11 1.247 . S
C19 O8 1.253 . S
C19 O9 1.283 . S
C20 O12 1.304 . S
C20 O14 1.272 . S
C21 O13 1.311 . S
C21 O15 1.231 . S
O22 Zn4 1.953 . S
O22 C16 1.298 . S
O23 Zn24 1.953 . S
O23 C39 1.225 . S
Zn24 O23 1.953 . S
Zn24 O25 1.949 . S
Zn24 O31 1.919 . S
Zn24 O36 1.924 . S
O25 Zn24 1.949 . S
O25 Zn26 1.923 . S
O25 Zn27 1.950 . S
O25 Zn28 1.945 . S
Zn26 O25 1.923 . S
Zn26 O29 1.933 . S
Zn26 O32 1.941 . S
Zn26 O33 1.965 . S
Zn27 O25 1.950 . S
Zn27 O34 1.938 . S
Zn27 O35 1.906 . S
Zn27 O45 1.953 . S
Zn28 O25 1.945 . S
Zn28 O30 1.932 . S
Zn28 O37 1.977 . S
Zn28 O38 1.910 . S
O29 Zn26 1.933 . S
O29 C40 1.226 . S
O30 Zn28 1.932 . S
O30 C40 1.307 . S
O31 Zn24 1.919 . S
O31 C42 1.253 . S
O32 Zn26 1.941 . S
O32 C42 1.283 . S
O33 Zn26 1.965 . S
O33 C41 1.303 . S
O34 Zn27 1.938 . S
O34 C41 1.247 . S
O35 Zn27 1.906 . S
O35 C43 1.304 . S
O36 Zn24 1.924 . S
O36 C44 1.311 . S
O37 Zn28 1.977 . S
O37 C43 1.272 . S
O38 Zn28 1.910 . S
O38 C44 1.231 . S
C39 O23 1.225 . S
C39 O45 1.298 . S
C40 O29 1.226 . S
C40 O30 1.307 . S
C41 O33 1.303 . S
C41 O34 1.247 . S
C42 O31 1.253 . S
C42 O32 1.283 . S
C43 O35 1.304 . S
C43 O37 1.272 . S
C44 O36 1.311 . S
C44 O38 1.231 . S
O45 Zn27 1.953 . S
O45 C39 1.298 . S
O46 Zn47 1.953 . S
O46 C62 1.225 . S
Zn47 O46 1.953 . S
Zn47 O48 1.949 . S
Zn47 O54 1.919 . S
Zn47 O59 1.924 . S
O48 Zn47 1.949 . S
O48 Zn49 1.923 . S
O48 Zn50 1.950 . S
O48 Zn51 1.945 . S
Zn49 O48 1.923 . S
Zn49 O52 1.933 . S
Zn49 O55 1.941 . S
Zn49 O56 1.965 . S
Zn50 O48 1.950 . S
Zn50 O57 1.938 . S
Zn50 O58 1.906 . S
Zn50 O68 1.953 . S
Zn51 O48 1.945 . S
Zn51 O53 1.932 . S
Zn51 O60 1.977 . S
Zn51 O61 1.910 . S
O52 Zn49 1.933 . S
O52 C63 1.226 . S
O53 Zn51 1.932 . S
O53 C63 1.307 . S
O54 Zn47 1.919 . S
O54 C65 1.253 . S
O55 Zn49 1.941 . S
O55 C65 1.283 . S
O56 Zn49 1.965 . S
O56 C64 1.303 . S
O57 Zn50 1.938 . S
O57 C64 1.247 . S
O58 Zn50 1.906 . S
O58 C66 1.304 . S
O59 Zn47 1.924 . S
O59 C67 1.311 . S
O60 Zn51 1.977 . S
O60 C66 1.272 . S
O61 Zn51 1.910 . S
O61 C67 1.231 . S
C62 O46 1.225 . S
C62 O68 1.298 . S
C63 O52 1.226 . S
C63 O53 1.307 . S
C64 O56 1.303 . S
C64 O57 1.247 . S
C65 O54 1.253 . S
C65 O55 1.283 . S
C66 O58 1.304 . S
C66 O60 1.272 . S
C67 O59 1.311 . S
C67 O61 1.231 . S
O68 Zn50 1.953 . S
O68 C62 1.298 . S
O69 Zn70 1.953 . S
O69 C85 1.225 . S
Zn70 O69 1.953 . S
Zn70 O71 1.949 . S
Zn70 O77 1.919 . S
Zn70 O82 1.924 . S
O71 Zn70 1.949 . S
O71 Zn72 1.923 . S
O71 Zn73 1.950 . S
O71 Zn74 1.945 . S
Zn72 O71 1.923 . S
Zn72 O75 1.933 . S
Zn72 O78 1.941 . S
Zn72 O79 1.965 . S
Zn73 O71 1.950 . S
Zn73 O80 1.938 . S
Zn73 O81 1.906 . S
Zn73 O91 1.953 . S
Zn74 O71 1.945 . S
Zn74 O76 1.932 . S
Zn74 O83 1.977 . S
Zn74 O84 1.910 . S
O75 Zn72 1.933 . S
O75 C86 1.226 . S
O76 Zn74 1.932 . S
O76 C86 1.307 . S
O77 Zn70 1.919 . S
O77 C88 1.253 . S
O78 Zn72 1.941 . S
O78 C88 1.283 . S
O79 Zn72 1.965 . S
O79 C87 1.303 . S
O80 Zn73 1.938 . S
O80 C87 1.247 . S
O81 Zn73 1.906 . S
O81 C89 1.304 . S
O82 Zn70 1.924 . S
O82 C90 1.311 . S
O83 Zn74 1.977 . S
O83 C89 1.272 . S
O84 Zn74 1.910 . S
O84 C90 1.231 . S
C85 O69 1.225 . S
C85 O91 1.298 . S
C86 O75 1.226 . S
C86 O76 1.307 . S
C87 O79 1.303 . S
C87 O80 1.247 . S
C88 O77 1.253 . S
C88 O78 1.283 . S
C89 O81 1.304 . S
C89 O83 1.272 . S
C90 O82 1.311 . S
C90 O84 1.231 . S
O91 Zn73 1.953 . S
O91 C85 1.298 . S
O92 Zn93 1.953 . S
O92 C108 1.225 . S
Zn93 O92 1.953 . S
Zn93 O94 1.949 . S
Zn93 O100 1.919 . S
Zn93 O105 1.924 . S
O94 Zn93 1.949 . S
O94 Zn95 1.923 . S
O94 Zn96 1.950 . S
O94 Zn97 1.945 . S
Zn95 O94 1.923 . S
Zn95 O98 1.933 . S
Zn95 O101 1.941 . S
Zn95 O102 1.965 . S
Zn96 O94 1.950 . S
Zn96 O103 1.938 . S
Zn96 O104 1.906 . S
Zn96 O114 1.953 . S
Zn97 O94 1.945 . S
Zn97 O99 1.932 . S
Zn97 O106 1.977 . S
Zn97 O107 1.910 . S
O98 Zn95 1.933 . S
O98 C109 1.226 . S
O99 Zn97 1.932 . S
O99 C109 1.307 . S
O100 Zn93 1.919 . S
O100 C111 1.253 . S
O101 Zn95 1.941 . S
O101 C111 1.283 . S
O102 Zn95 1.965 . S
O102 C110 1.303 . S
O103 Zn96 1.938 . S
O103 C110 1.247 . S
O104 Zn96 1.906 . S
O104 C112 1.304 . S
O105 Zn93 1.924 . S
O105 C113 1.311 . S
O106 Zn97 1.977 . S
O106 C112 1.272 . S
O107 Zn97 1.910 . S
O107 C113 1.231 . S
C108 O92 1.225 . S
C108 O114 1.298 . S
C109 O98 1.226 . S
C109 O99 1.307 . S
C110 O102 1.303 . S
C110 O103 1.247 . S
C111 O100 1.253 . S
C111 O101 1.283 . S
C112 O104 1.304 . S
C112 O106 1.272 . S
C113 O105 1.311 . S
C113 O107 1.231 . S
O114 Zn96 1.953 . S
O114 C108 1.298 . S
O115 Zn116 1.953 . S
O115 C131 1.225 . S
Zn116 O115 1.953 . S
Zn116 O117 1.949 . S
Zn116 O123 1.919 . S
Zn116 O128 1.924 . S
O117 Zn116 1.949 . S
O117 Zn118 1.923 . S
O117 Zn119 1.950 . S
O117 Zn120 1.945 . S
Zn118 O117 1.923 . S
Zn118 O121 1.933 . S
Zn118 O124 1.941 . S
Zn118 O125 1.965 . S
Zn119 O117 1.950 . S
Zn119 O126 1.938 . S
Zn119 O127 1.906 . S
Zn119 O137 1.953 . S
Zn120 O117 1.945 . S
Zn120 O122 1.932 . S
Zn120 O129 1.977 . S
Zn120 O130 1.910 . S
O121 Zn118 1.933 . S
O121 C132 1.226 . S
O122 Zn120 1.932 . S
O122 C132 1.307 . S
O123 Zn116 1.919 . S
O123 C134 1.253 . S
O124 Zn118 1.941 . S
O124 C134 1.283 . S
O125 Zn118 1.965 . S
O125 C133 1.303 . S
O126 Zn119 1.938 . S
O126 C133 1.247 . S
O127 Zn119 1.906 . S
O127 C135 1.304 . S
O128 Zn116 1.924 . S
O128 C136 1.311 . S
O129 Zn120 1.977 . S
O129 C135 1.272 . S
O130 Zn120 1.910 . S
O130 C136 1.231 . S
C131 O115 1.225 . S
C131 O137 1.298 . S
C132 O121 1.226 . S
C132 O122 1.307 . S
C133 O125 1.303 . S
C133 O126 1.247 . S
C134 O123 1.253 . S
C134 O124 1.283 . S
C135 O127 1.304 . S
C135 O129 1.272 . S
C136 O128 1.311 . S
C136 O130 1.231 . S
O137 Zn119 1.953 . S
O137 C131 1.298 . S
O138 Zn139 1.953 . S
O138 C154 1.225 . S
Zn139 O138 1.953 . S
Zn139 O140 1.949 . S
Zn139 O146 1.919 . S
Zn139 O151 1.924 . S
O140 Zn139 1.949 . S
O140 Zn141 1.923 . S
O140 Zn142 1.950 . S
O140 Zn143 1.945 . S
Zn141 O140 1.923 . S
Zn141 O144 1.933 . S
Zn141 O147 1.941 . S
Zn141 O148 1.965 . S
Zn142 O140 1.950 . S
Zn142 O149 1.938 . S
Zn142 O150 1.906 . S
Zn142 O160 1.953 . S
Zn143 O140 1.945 . S
Zn143 O145 1.932 . S
Zn143 O152 1.977 . S
Zn143 O153 1.910 . S
O144 Zn141 1.933 . S
O144 C155 1.226 . S
O145 Zn143 1.932 . S
O145 C155 1.307 . S
O146 Zn139 1.919 . S
O146 C157 1.253 . S
O147 Zn141 1.941 . S
O147 C157 1.283 . S
O148 Zn141 1.965 . S
O148 C156 1.303 . S
O149 Zn142 1.938 . S
O149 C156 1.247 . S
O150 Zn142 1.906 . S
O150 C158 1.304 . S
O151 Zn139 1.924 . S
O151 C159 1.311 . S
O152 Zn143 1.977 . S
O152 C158 1.272 . S
O153 Zn143 1.910 . S
O153 C159 1.231 . S
C154 O138 1.225 . S
C154 O160 1.298 . S
C155 O144 1.226 . S
C155 O145 1.307 . S
C156 O148 1.303 . S
C156 O149 1.247 . S
C157 O146 1.253 . S
C157 O147 1.283 . S
C158 O150 1.304 . S
C158 O152 1.272 . S
C159 O151 1.311 . S
C159 O153 1.231 . S
O160 Zn142 1.953 . S
O160 C154 1.298 . S
O161 Zn162 1.953 . S
O161 C177 1.225 . S
Zn162 O161 1.953 . S
Zn162 O163 1.949 . S
Zn162 O169 1.919 . S
Zn162 O174 1.924 . S
O163 Zn162 1.949 . S
O163 Zn164 1.923 . S
O163 Zn165 1.950 . S
O163 Zn166 1.945 . S
Zn164 O163 1.923 . S
Zn164 O167 1.933 . S
Zn164 O170 1.941 . S
Zn164 O171 1.965 . S
Zn165 O163 1.950 . S
Zn165 O172 1.938 . S
Zn165 O173 1.906 . S
Zn165 O183 1.953 . S
Zn166 O163 1.945 . S
Zn166 O168 1.932 . S
Zn166 O175 1.977 . S
Zn166 O176 1.910 . S
O167 Zn164 1.933 . S
O167 C178 1.226 . S
O168 Zn166 1.932 . S
O168 C178 1.307 . S
O169 Zn162 1.919 . S
O169 C180 1.253 . S
O170 Zn164 1.941 . S
O170 C180 1.283 . S
O171 Zn164 1.965 . S
O171 C179 1.303 . S
O172 Zn165 1.938 . S
O172 C179 1.247 . S
O173 Zn165 1.906 . S
O173 C181 1.304 . S
O174 Zn162 1.924 . S
O174 C182 1.311 . S
O175 Zn166 1.977 . S
O175 C181 1.272 . S
O176 Zn166 1.910 . S
O176 C182 1.231 . S
C177 O161 1.225 . S
C177 O183 1.298 . S
C178 O167 1.226 . S
C178 O168 1.307 . S
C179 O171 1.303 . S
C179 O172 1.247 . S
C180 O169 1.253 . S
C180 O170 1.283 . S
C181 O173 1.304 . S
C181 O175 1.272 . S
C182 O174 1.311 . S
C182 O176 1.231 . S
O183 Zn165 1.953 . S
O183 C177 1.298 . S
Co184 O187 2.042 . S
Co184 O194 2.264 . S
Co184 O213 2.286 . S
Co184 O214 2.069 . S
Co184 O216 2.015 1_455 S
Co185 O187 2.122 . S
Co185 O193 2.073 . S
Co185 O194 2.327 . S
Co185 O195 1.976 1_455 S
Co186 O187 2.087 1_545 S
Co186 O189 2.087 1_455 S
Co186 O196 2.111 1_445 S
Co186 O197 2.143 . S
Co186 O201 2.111 . S
Co186 O215 2.143 1_445 S
O187 Co184 2.042 . S
O187 Co185 2.122 . S
O187 Co186 2.087 1_565 S
O187 H188 0.980 . S
H188 O187 0.980 . S
O189 Co186 2.087 1_655 S
O189 Co190 2.042 . S
O189 Co191 2.122 . S
O189 H192 0.980 . S
Co190 O189 2.042 . S
Co190 O198 2.286 . S
Co190 O199 2.069 . S
Co190 O200 2.015 1_655 S
Co190 O203 2.264 . S
Co191 O189 2.122 . S
Co191 O202 1.976 1_655 S
Co191 O203 2.327 . S
Co191 O204 2.073 . S
H192 O189 0.980 . S
O193 Co185 2.073 . S
O193 C208 1.245 . S
O194 Co184 2.264 . S
O194 Co185 2.327 . S
O194 C208 1.257 . S
O195 Co185 1.976 1_655 S
O195 C207 1.251 . S
O196 Co186 2.111 1_665 S
O196 C207 1.274 . S
O197 Co186 2.143 . S
O197 C210 1.246 . S
O198 Co190 2.286 . S
O198 C209 1.259 . S
O199 Co190 2.069 . S
O199 C209 1.289 . S
O200 Co190 2.015 1_455 S
O200 C210 1.257 . S
O201 Co186 2.111 . S
O201 C211 1.274 . S
O202 Co191 1.976 1_455 S
O202 C211 1.251 . S
O203 Co190 2.264 . S
O203 Co191 2.327 . S
O203 C212 1.257 . S
O204 Co191 2.073 . S
O204 C212 1.245 . S
C205 O213 1.259 . S
C205 O214 1.289 . S
C206 O215 1.246 . S
C206 O216 1.257 . S
C207 O195 1.251 . S
C207 O196 1.274 . S
C208 O193 1.245 . S
C208 O194 1.257 . S
C209 O198 1.259 . S
C209 O199 1.289 . S
C210 O197 1.246 . S
C210 O200 1.257 . S
C211 O201 1.274 . S
C211 O202 1.251 . S
C212 O203 1.257 . S
C212 O204 1.245 . S
O213 Co184 2.286 . S
O213 C205 1.259 . S
O214 Co184 2.069 . S
O214 C205 1.289 . S
O215 Co186 2.143 1_665 S
O215 C206 1.246 . S
O216 Co184 2.015 1_655 S
O216 C206 1.257 . S
Co217 O220 2.042 1_556 S
Co217 O227 2.264 1_556 S
Co217 O246 2.286 . S
Co217 O247 2.069 . S
Co217 O249 2.015 . S
Co218 O220 2.122 . S
Co218 O226 2.073 . S
Co218 O227 2.327 . S
Co218 O228 1.976 . S
Co219 O220 2.087 1_545 S
Co219 O222 2.087 . S
Co219 O229 2.111 1_545 S
Co219 O230 2.143 . S
Co219 O234 2.111 1_554 S
Co219 O248 2.143 1_544 S
O220 Co217 2.042 1_554 S
O220 Co218 2.122 . S
O220 Co219 2.087 1_565 S
O220 H221 0.980 . S
H221 O220 0.980 . S
O222 Co219 2.087 . S
O222 Co223 2.042 . S
O222 Co224 2.122 1_554 S
O222 H225 0.980 . S
Co223 O222 2.042 . S
Co223 O231 2.286 . S
Co223 O232 2.069 . S
Co223 O233 2.015 . S
Co223 O236 2.264 1_554 S
Co224 O222 2.122 1_556 S
Co224 O235 1.976 . S
Co224 O236 2.327 . S
Co224 O237 2.073 . S
H225 O222 0.980 . S
O226 Co218 2.073 . S
O226 C241 1.245 . S
O227 Co217 2.264 1_554 S
O227 Co218 2.327 . S
O227 C241 1.257 . S
O228 Co218 1.976 . S
O228 C240 1.251 . S
O229 Co219 2.111 1_565 S
O229 C240 1.274 . S
O230 Co219 2.143 . S
O230 C243 1.246 . S
O231 Co223 2.286 . S
O231 C242 1.259 . S
O232 Co223 2.069 . S
O232 C242 1.289 . S
O233 Co223 2.015 . S
O233 C243 1.257 . S
O234 Co219 2.111 1_556 S
O234 C244 1.274 . S
O235 Co224 1.976 . S
O235 C244 1.251 . S
O236 Co223 2.264 1_556 S
O236 Co224 2.327 . S
O236 C245 1.257 . S
O237 Co224 2.073 . S
O237 C245 1.245 . S
C238 O246 1.259 . S
C238 O247 1.289 . S
C239 O248 1.246 . S
C239 O249 1.257 . S
C240 O228 1.251 . S
C240 O229 1.274 . S
C241 O226 1.245 . S
C241 O227 1.257 . S
C242 O231 1.259 . S
C242 O232 1.289 . S
C243 O230 1.246 . S
C243 O233 1.257 . S
C244 O234 1.274 . S
C244 O235 1.251 . S
C245 O236 1.257 . S
C245 O237 1.245 . S
O246 Co217 2.286 . S
O246 C238 1.259 . S
O247 Co217 2.069 . S
O247 C238 1.289 . S
O248 Co219 2.143 1_566 S
O248 C239 1.246 . S
O249 Co217 2.015 . S
O249 C239 1.257 . S
Co250 O253 2.042 1_556 S
Co250 O260 2.264 1_556 S
Co250 O279 2.286 . S
Co250 O280 2.069 . S
Co250 O282 2.015 1_455 S
Co251 O253 2.122 . S
Co251 O259 2.073 . S
Co251 O260 2.327 . S
Co251 O261 1.976 1_455 S
Co252 O253 2.087 . S
Co252 O255 2.087 1_454 S
Co252 O262 2.111 1_455 S
Co252 O263 2.143 . S
Co252 O267 2.111 1_554 S
Co252 O281 2.143 1_454 S
O253 Co250 2.042 1_554 S
O253 Co251 2.122 . S
O253 Co252 2.087 . S
O253 H254 0.980 . S
H254 O253 0.980 . S
O255 Co252 2.087 1_656 S
O255 Co256 2.042 1_556 S
O255 Co257 2.122 . S
O255 H258 0.980 . S
Co256 O255 2.042 1_554 S
Co256 O264 2.286 . S
Co256 O265 2.069 . S
Co256 O266 2.015 1_655 S
Co256 O269 2.264 1_554 S
Co257 O255 2.122 . S
Co257 O268 1.976 1_655 S
Co257 O269 2.327 . S
Co257 O270 2.073 . S
H258 O255 0.980 . S
O259 Co251 2.073 . S
O259 C274 1.245 . S
O260 Co250 2.264 1_554 S
O260 Co251 2.327 . S
O260 C274 1.257 . S
O261 Co251 1.976 1_655 S
O261 C273 1.251 . S
O262 Co252 2.111 1_655 S
O262 C273 1.274 . S
O263 Co252 2.143 . S
O263 C276 1.246 . S
O264 Co256 2.286 . S
O264 C275 1.259 . S
O265 Co256 2.069 . S
O265 C275 1.289 . S
O266 Co256 2.015 1_455 S
O266 C276 1.257 . S
O267 Co252 2.111 1_556 S
O267 C277 1.274 . S
O268 Co257 1.976 1_455 S
O268 C277 1.251 . S
O269 Co256 2.264 1_556 S
O269 Co257 2.327 . S
O269 C278 1.257 . S
O270 Co257 2.073 . S
O270 C278 1.245 . S
C271 O279 1.259 . S
C271 O280 1.289 . S
C272 O281 1.246 . S
C272 O282 1.257 . S
C273 O261 1.251 . S
C273 O262 1.274 . S
C274 O259 1.245 . S
C274 O260 1.257 . S
C275 O264 1.259 . S
C275 O265 1.289 . S
C276 O263 1.246 . S
C276 O266 1.257 . S
C277 O267 1.274 . S
C277 O268 1.251 . S
C278 O269 1.257 . S
C278 O270 1.245 . S
O279 Co250 2.286 . S
O279 C271 1.259 . S
O280 Co250 2.069 . S
O280 C271 1.289 . S
O281 Co252 2.143 1_656 S
O281 C272 1.246 . S
O282 Co250 2.015 1_655 S
O282 C272 1.257 . S
Co283 O286 2.042 1_556 S
Co283 O293 2.264 1_556 S
Co283 O312 2.286 . S
Co283 O313 2.069 . S
Co283 O315 2.015 . S
Co284 O286 2.122 . S
Co284 O292 2.073 . S
Co284 O293 2.327 . S
Co284 O294 1.976 . S
Co285 O286 2.087 . S
Co285 O288 2.087 1_554 S
Co285 O295 2.111 . S
Co285 O296 2.143 . S
Co285 O300 2.111 1_554 S
Co285 O314 2.143 1_554 S
O286 Co283 2.042 1_554 S
O286 Co284 2.122 . S
O286 Co285 2.087 . S
O286 H287 0.980 . S
H287 O286 0.980 . S
O288 Co285 2.087 1_556 S
O288 Co289 2.042 1_556 S
O288 Co290 2.122 . S
O288 H291 0.980 . S
Co289 O288 2.042 1_554 S
Co289 O297 2.286 . S
Co289 O298 2.069 . S
Co289 O299 2.015 . S
Co289 O302 2.264 1_554 S
Co290 O288 2.122 . S
Co290 O301 1.976 . S
Co290 O302 2.327 . S
Co290 O303 2.073 . S
H291 O288 0.980 . S
O292 Co284 2.073 . S
O292 C307 1.245 . S
O293 Co283 2.264 1_554 S
O293 Co284 2.327 . S
O293 C307 1.257 . S
O294 Co284 1.976 . S
O294 C306 1.251 . S
O295 Co285 2.111 . S
O295 C306 1.274 . S
O296 Co285 2.143 . S
O296 C309 1.246 . S
O297 Co289 2.286 . S
O297 C308 1.259 . S
O298 Co289 2.069 . S
O298 C308 1.289 . S
O299 Co289 2.015 . S
O299 C309 1.257 . S
O300 Co285 2.111 1_556 S
O300 C310 1.274 . S
O301 Co290 1.976 . S
O301 C310 1.251 . S
O302 Co289 2.264 1_556 S
O302 Co290 2.327 . S
O302 C311 1.257 . S
O303 Co290 2.073 . S
O303 C311 1.245 . S
C304 O312 1.259 . S
C304 O313 1.289 . S
C305 O314 1.246 . S
C305 O315 1.257 . S
C306 O294 1.251 . S
C306 O295 1.274 . S
C307 O292 1.245 . S
C307 O293 1.257 . S
C308 O297 1.259 . S
C308 O298 1.289 . S
C309 O296 1.246 . S
C309 O299 1.257 . S
C310 O300 1.274 . S
C310 O301 1.251 . S
C311 O302 1.257 . S
C311 O303 1.245 . S
O312 Co283 2.286 . S
O312 C304 1.259 . S
O313 Co283 2.069 . S
O313 C304 1.289 . S
O314 Co285 2.143 1_556 S
O314 C305 1.246 . S
O315 Co283 2.015 . S
O315 C305 1.257 . S
Co316 O319 2.042 . S
Co316 O326 2.264 . S
Co316 O345 2.286 . S
Co316 O346 2.069 . S
Co316 O348 2.015 . S
Co317 O319 2.122 . S
Co317 O325 2.073 . S
Co317 O326 2.327 . S
Co317 O327 1.976 . S
Co318 O319 2.087 . S
Co318 O321 2.087 1_455 S
Co318 O328 2.111 . S
Co318 O329 2.143 1_455 S
Co318 O333 2.111 1_455 S
Co318 O347 2.143 . S
O319 Co316 2.042 . S
O319 Co317 2.122 . S
O319 Co318 2.087 . S
O319 H320 0.980 . S
H320 O319 0.980 . S
O321 Co318 2.087 1_655 S
O321 Co322 2.042 . S
O321 Co323 2.122 . S
O321 H324 0.980 . S
Co322 O321 2.042 . S
Co322 O330 2.286 . S
Co322 O331 2.069 . S
Co322 O332 2.015 . S
Co322 O335 2.264 . S
Co323 O321 2.122 . S
Co323 O334 1.976 . S
Co323 O335 2.327 . S
Co323 O336 2.073 . S
H324 O321 0.980 . S
O325 Co317 2.073 . S
O325 C340 1.245 . S
O326 Co316 2.264 . S
O326 Co317 2.327 . S
O326 C340 1.257 . S
O327 Co317 1.976 . S
O327 C339 1.251 . S
O328 Co318 2.111 . S
O328 C339 1.274 . S
O329 Co318 2.143 1_655 S
O329 C342 1.246 . S
O330 Co322 2.286 . S
O330 C341 1.259 . S
O331 Co322 2.069 . S
O331 C341 1.289 . S
O332 Co322 2.015 . S
O332 C342 1.257 . S
O333 Co318 2.111 1_655 S
O333 C343 1.274 . S
O334 Co323 1.976 . S
O334 C343 1.251 . S
O335 Co322 2.264 . S
O335 Co323 2.327 . S
O335 C344 1.257 . S
O336 Co323 2.073 . S
O336 C344 1.245 . S
C337 O345 1.259 . S
C337 O346 1.289 . S
C338 O347 1.246 . S
C338 O348 1.257 . S
C339 O327 1.251 . S
C339 O328 1.274 . S
C340 O325 1.245 . S
C340 O326 1.257 . S
C341 O330 1.259 . S
C341 O331 1.289 . S
C342 O329 1.246 . S
C342 O332 1.257 . S
C343 O333 1.274 . S
C343 O334 1.251 . S
C344 O335 1.257 . S
C344 O336 1.245 . S
O345 Co316 2.286 . S
O345 C337 1.259 . S
O346 Co316 2.069 . S
O346 C337 1.289 . S
O347 Co318 2.143 . S
O347 C338 1.246 . S
O348 Co316 2.015 . S
O348 C338 1.257 . S
Co349 O352 2.042 . S
Co349 O359 2.264 . S
Co349 O378 2.286 . S
Co349 O379 2.069 . S
Co349 O381 2.015 1_565 S
Co350 O352 2.122 . S
Co350 O358 2.073 . S
Co350 O359 2.327 . S
Co350 O360 1.976 1_565 S
Co351 O352 2.087 1_545 S
Co351 O354 2.087 . S
Co351 O361 2.111 . S
Co351 O362 2.143 1_545 S
Co351 O366 2.111 1_545 S
Co351 O380 2.143 . S
O352 Co349 2.042 . S
O352 Co350 2.122 . S
O352 Co351 2.087 1_565 S
O352 H353 0.980 . S
H353 O352 0.980 . S
O354 Co351 2.087 . S
O354 Co355 2.042 . S
O354 Co356 2.122 . S
O354 H357 0.980 . S
Co355 O354 2.042 . S
Co355 O363 2.286 . S
Co355 O364 2.069 . S
Co355 O365 2.015 1_545 S
Co355 O368 2.264 . S
Co356 O354 2.122 . S
Co356 O367 1.976 1_545 S
Co356 O368 2.327 . S
Co356 O369 2.073 . S
H357 O354 0.980 . S
O358 Co350 2.073 . S
O358 C373 1.245 . S
O359 Co349 2.264 . S
O359 Co350 2.327 . S
O359 C373 1.257 . S
O360 Co350 1.976 1_545 S
O360 C372 1.251 . S
O361 Co351 2.111 . S
O361 C372 1.274 . S
O362 Co351 2.143 1_565 S
O362 C375 1.246 . S
O363 Co355 2.286 . S
O363 C374 1.259 . S
O364 Co355 2.069 . S
O364 C374 1.289 . S
O365 Co355 2.015 1_565 S
O365 C375 1.257 . S
O366 Co351 2.111 1_565 S
O366 C376 1.274 . S
O367 Co356 1.976 1_565 S
O367 C376 1.251 . S
O368 Co355 2.264 . S
O368 Co356 2.327 . S
O368 C377 1.257 . S
O369 Co356 2.073 . S
O369 C377 1.245 . S
C370 O378 1.259 . S
C370 O379 1.289 . S
C371 O380 1.246 . S
C371 O381 1.257 . S
C372 O360 1.251 . S
C372 O361 1.274 . S
C373 O358 1.245 . S
C373 O359 1.257 . S
C374 O363 1.259 . S
C374 O364 1.289 . S
C375 O362 1.246 . S
C375 O365 1.257 . S
C376 O366 1.274 . S
C376 O367 1.251 . S
C377 O368 1.257 . S
C377 O369 1.245 . S
O378 Co349 2.286 . S
O378 C370 1.259 . S
O379 Co349 2.069 . S
O379 C370 1.289 . S
O380 Co351 2.143 . S
O380 C371 1.246 . S
O381 Co349 2.015 1_545 S
O381 C371 1.257 . S
H382 C388 0.930 . S
H383 C392 0.930 . S
H384 C397 0.929 . S
H385 C395 0.929 . S
H386 C390 0.929 . S
H387 C396 0.929 . S
C388 H382 0.930 . S
C388 C389 1.367 . S
C388 C396 1.378 . S
C389 C388 1.367 . S
C389 C397 1.433 . S
C390 H386 0.929 . S
C390 C392 1.378 . S
C390 C394 1.350 . S
C391 C394 1.463 . S
C391 C396 1.350 . S
C391 N399 1.427 . S
C392 H383 0.930 . S
C392 C390 1.378 . S
C392 C393 1.367 . S
C393 C392 1.367 . S
C393 C395 1.433 . S
C394 C390 1.350 . S
C394 C391 1.463 . S
C394 N398 1.427 . S
C395 H385 0.929 . S
C395 C393 1.433 . S
C395 N398 1.384 . S
C396 H387 0.929 . S
C396 C388 1.378 . S
C396 C391 1.350 . S
C397 H384 0.929 . S
C397 C389 1.433 . S
C397 N399 1.384 . S
N398 C394 1.427 . S
N398 C395 1.384 . S
N399 C391 1.427 . S
N399 C397 1.384 . S
H400 C406 0.930 . S
H401 C410 0.930 . S
H402 C415 0.929 . S
H403 C413 0.929 . S
H404 C408 0.929 . S
H405 C414 0.929 . S
C406 H400 0.930 . S
C406 C407 1.367 . S
C406 C414 1.378 . S
C407 C406 1.367 . S
C407 C415 1.433 . S
C408 H404 0.929 . S
C408 C410 1.378 . S
C408 C412 1.350 . S
C409 C412 1.463 . S
C409 C414 1.350 . S
C409 N417 1.427 . S
C410 H401 0.930 . S
C410 C408 1.378 . S
C410 C411 1.367 . S
C411 C410 1.367 . S
C411 C413 1.433 . S
C412 C408 1.350 . S
C412 C409 1.463 . S
C412 N416 1.427 . S
C413 H403 0.929 . S
C413 C411 1.433 . S
C413 N416 1.384 . S
C414 H405 0.929 . S
C414 C406 1.378 . S
C414 C409 1.350 . S
C415 H402 0.929 . S
C415 C407 1.433 . S
C415 N417 1.384 . S
N416 C412 1.427 . S
N416 C413 1.384 . S
N417 C409 1.427 . S
N417 C415 1.384 . S
H418 C424 0.930 . S
H419 C428 0.930 . S
H420 C433 0.929 . S
H421 C431 0.929 . S
H422 C426 0.929 . S
H423 C432 0.929 . S
C424 H418 0.930 . S
C424 C425 1.367 . S
C424 C432 1.378 . S
C425 C424 1.367 . S
C425 C433 1.433 . S
C426 H422 0.929 . S
C426 C428 1.378 . S
C426 C430 1.350 . S
C427 C430 1.463 . S
C427 C432 1.350 . S
C427 N435 1.427 . S
C428 H419 0.930 . S
C428 C426 1.378 . S
C428 C429 1.367 . S
C429 C428 1.367 . S
C429 C431 1.433 . S
C430 C426 1.350 . S
C430 C427 1.463 . S
C430 N434 1.427 . S
C431 H421 0.929 . S
C431 C429 1.433 . S
C431 N434 1.384 . S
C432 H423 0.929 . S
C432 C424 1.378 . S
C432 C427 1.350 . S
C433 H420 0.929 . S
C433 C425 1.433 . S
C433 N435 1.384 . S
N434 C430 1.427 . S
N434 C431 1.384 . S
N435 C427 1.427 . S
N435 C433 1.384 . S
H436 C442 0.930 . S
H437 C446 0.930 . S
H438 C451 0.929 . S
H439 C449 0.929 . S
H440 C444 0.929 . S
H441 C450 0.929 . S
C442 H436 0.930 . S
C442 C443 1.367 . S
C442 C450 1.378 . S
C443 C442 1.367 . S
C443 C451 1.433 . S
C444 H440 0.929 . S
C444 C446 1.378 . S
C444 C448 1.350 . S
C445 C448 1.463 . S
C445 C450 1.350 . S
C445 N453 1.427 . S
C446 H437 0.930 . S
C446 C444 1.378 . S
C446 C447 1.367 . S
C447 C446 1.367 . S
C447 C449 1.433 . S
C448 C444 1.350 . S
C448 C445 1.463 . S
C448 N452 1.427 . S
C449 H439 0.929 . S
C449 C447 1.433 . S
C449 N452 1.384 . S
C450 H441 0.929 . S
C450 C442 1.378 . S
C450 C445 1.350 . S
C451 H438 0.929 . S
C451 C443 1.433 . S
C451 N453 1.384 . S
N452 C448 1.427 . S
N452 C449 1.384 . S
N453 C445 1.427 . S
N453 C451 1.384 . S
H454 C460 0.930 . S
H455 C464 0.930 . S
H456 C469 0.929 . S
H457 C467 0.929 . S
H458 C462 0.929 . S
H459 C468 0.929 . S
C460 H454 0.930 . S
C460 C461 1.367 . S
C460 C468 1.378 . S
C461 C460 1.367 . S
C461 C469 1.433 . S
C462 H458 0.929 . S
C462 C464 1.378 . S
C462 C466 1.350 . S
C463 C466 1.463 . S
C463 C468 1.350 . S
C463 N471 1.427 . S
C464 H455 0.930 . S
C464 C462 1.378 . S
C464 C465 1.367 . S
C465 C464 1.367 . S
C465 C467 1.433 . S
C466 C462 1.350 . S
C466 C463 1.463 . S
C466 N470 1.427 . S
C467 H457 0.929 . S
C467 C465 1.433 . S
C467 N470 1.384 . S
C468 H459 0.929 . S
C468 C460 1.378 . S
C468 C463 1.350 . S
C469 H456 0.929 . S
C469 C461 1.433 . S
C469 N471 1.384 . S
N470 C466 1.427 . S
N470 C467 1.384 . S
N471 C463 1.427 . S
N471 C469 1.384 . S
H472 C478 0.930 . S
H473 C482 0.930 . S
H474 C487 0.929 . S
H475 C485 0.929 . S
H476 C480 0.929 . S
H477 C486 0.929 . S
C478 H472 0.930 . S
C478 C479 1.367 . S
C478 C486 1.378 . S
C479 C478 1.367 . S
C479 C487 1.433 . S
C480 H476 0.929 . S
C480 C482 1.378 . S
C480 C484 1.350 . S
C481 C484 1.463 . S
C481 C486 1.350 . S
C481 N489 1.427 . S
C482 H473 0.930 . S
C482 C480 1.378 . S
C482 C483 1.367 . S
C483 C482 1.367 . S
C483 C485 1.433 . S
C484 C480 1.350 . S
C484 C481 1.463 . S
C484 N488 1.427 . S
C485 H475 0.929 . S
C485 C483 1.433 . S
C485 N488 1.384 . S
C486 H477 0.929 . S
C486 C478 1.378 . S
C486 C481 1.350 . S
C487 H474 0.929 . S
C487 C479 1.433 . S
C487 N489 1.384 . S
N488 C484 1.427 . S
N488 C485 1.384 . S
N489 C481 1.427 . S
N489 C487 1.384 . S
H490 C496 0.930 . S
H491 C500 0.930 . S
H492 C505 0.929 . S
H493 C503 0.929 . S
H494 C498 0.929 . S
H495 C504 0.929 . S
C496 H490 0.930 . S
C496 C497 1.367 . S
C496 C504 1.378 . S
C497 C496 1.367 . S
C497 C505 1.433 . S
C498 H494 0.929 . S
C498 C500 1.378 . S
C498 C502 1.350 . S
C499 C502 1.463 . S
C499 C504 1.350 . S
C499 N507 1.427 . S
C500 H491 0.930 . S
C500 C498 1.378 . S
C500 C501 1.367 . S
C501 C500 1.367 . S
C501 C503 1.433 . S
C502 C498 1.350 . S
C502 C499 1.463 . S
C502 N506 1.427 . S
C503 H493 0.929 . S
C503 C501 1.433 . S
C503 N506 1.384 . S
C504 H495 0.929 . S
C504 C496 1.378 . S
C504 C499 1.350 . S
C505 H492 0.929 . S
C505 C497 1.433 . S
C505 N507 1.384 . S
N506 C502 1.427 . S
N506 C503 1.384 . S
N507 C499 1.427 . S
N507 C505 1.384 . S
H508 C514 0.930 . S
H509 C518 0.930 . S
H510 C523 0.929 . S
H511 C521 0.929 . S
H512 C516 0.929 . S
H513 C522 0.929 . S
C514 H508 0.930 . S
C514 C515 1.367 . S
C514 C522 1.378 . S
C515 C514 1.367 . S
C515 C523 1.433 . S
C516 H512 0.929 . S
C516 C518 1.378 . S
C516 C520 1.350 . S
C517 C520 1.463 . S
C517 C522 1.350 . S
C517 N525 1.427 . S
C518 H509 0.930 . S
C518 C516 1.378 . S
C518 C519 1.367 . S
C519 C518 1.367 . S
C519 C521 1.433 . S
C520 C516 1.350 . S
C520 C517 1.463 . S
C520 N524 1.427 . S
C521 H511 0.929 . S
C521 C519 1.433 . S
C521 N524 1.384 . S
C522 H513 0.929 . S
C522 C514 1.378 . S
C522 C517 1.350 . S
C523 H510 0.929 . S
C523 C515 1.433 . S
C523 N525 1.384 . S
N524 C520 1.427 . S
N524 C521 1.384 . S
N525 C517 1.427 . S
N525 C523 1.384 . S
H526 C532 0.930 . S
H527 C536 0.930 . S
H528 C541 0.929 . S
H529 C539 0.929 . S
H530 C534 0.929 . S
H531 C540 0.929 . S
C532 H526 0.930 . S
C532 C533 1.367 . S
C532 C540 1.378 . S
C533 C532 1.367 . S
C533 C541 1.433 . S
C534 H530 0.929 . S
C534 C536 1.378 . S
C534 C538 1.350 . S
C535 C538 1.463 . S
C535 C540 1.350 . S
C535 N543 1.427 . S
C536 H527 0.930 . S
C536 C534 1.378 . S
C536 C537 1.367 . S
C537 C536 1.367 . S
C537 C539 1.433 . S
C538 C534 1.350 . S
C538 C535 1.463 . S
C538 N542 1.427 . S
C539 H529 0.929 . S
C539 C537 1.433 . S
C539 N542 1.384 . S
C540 H531 0.929 . S
C540 C532 1.378 . S
C540 C535 1.350 . S
C541 H528 0.929 . S
C541 C533 1.433 . S
C541 N543 1.384 . S
N542 C538 1.427 . S
N542 C539 1.384 . S
N543 C535 1.427 . S
N543 C541 1.384 . S
H544 C550 0.930 . S
H545 C554 0.930 . S
H546 C559 0.929 . S
H547 C557 0.929 . S
H548 C552 0.929 . S
H549 C558 0.929 . S
C550 H544 0.930 . S
C550 C551 1.367 . S
C550 C558 1.378 . S
C551 C550 1.367 . S
C551 C559 1.433 . S
C552 H548 0.929 . S
C552 C554 1.378 . S
C552 C556 1.350 . S
C553 C556 1.463 . S
C553 C558 1.350 . S
C553 N561 1.427 . S
C554 H545 0.930 . S
C554 C552 1.378 . S
C554 C555 1.367 . S
C555 C554 1.367 . S
C555 C557 1.433 . S
C556 C552 1.350 . S
C556 C553 1.463 . S
C556 N560 1.427 . S
C557 H547 0.929 . S
C557 C555 1.433 . S
C557 N560 1.384 . S
C558 H549 0.929 . S
C558 C550 1.378 . S
C558 C553 1.350 . S
C559 H546 0.929 . S
C559 C551 1.433 . S
C559 N561 1.384 . S
N560 C556 1.427 . S
N560 C557 1.384 . S
N561 C553 1.427 . S
N561 C559 1.384 . S
H562 C568 0.930 . S
H563 C572 0.930 . S
H564 C577 0.929 . S
H565 C575 0.929 . S
H566 C570 0.929 . S
H567 C576 0.929 . S
C568 H562 0.930 . S
C568 C569 1.367 . S
C568 C576 1.378 . S
C569 C568 1.367 . S
C569 C577 1.433 . S
C570 H566 0.929 . S
C570 C572 1.378 . S
C570 C574 1.350 . S
C571 C574 1.463 . S
C571 C576 1.350 . S
C571 N579 1.427 . S
C572 H563 0.930 . S
C572 C570 1.378 . S
C572 C573 1.367 . S
C573 C572 1.367 . S
C573 C575 1.433 . S
C574 C570 1.350 . S
C574 C571 1.463 . S
C574 N578 1.427 . S
C575 H565 0.929 . S
C575 C573 1.433 . S
C575 N578 1.384 . S
C576 H567 0.929 . S
C576 C568 1.378 . S
C576 C571 1.350 . S
C577 H564 0.929 . S
C577 C569 1.433 . S
C577 N579 1.384 . S
N578 C574 1.427 . S
N578 C575 1.384 . S
N579 C571 1.427 . S
N579 C577 1.384 . S
H580 C586 0.930 . S
H581 C590 0.930 . S
H582 C595 0.929 . S
H583 C593 0.929 . S
H584 C588 0.929 . S
H585 C594 0.929 . S
C586 H580 0.930 . S
C586 C587 1.367 . S
C586 C594 1.378 . S
C587 C586 1.367 . S
C587 C595 1.433 . S
C588 H584 0.929 . S
C588 C590 1.378 . S
C588 C592 1.350 . S
C589 C592 1.463 . S
C589 C594 1.350 . S
C589 N597 1.427 . S
C590 H581 0.930 . S
C590 C588 1.378 . S
C590 C591 1.367 . S
C591 C590 1.367 . S
C591 C593 1.433 . S
C592 C588 1.350 . S
C592 C589 1.463 . S
C592 N596 1.427 . S
C593 H583 0.929 . S
C593 C591 1.433 . S
C593 N596 1.384 . S
C594 H585 0.929 . S
C594 C586 1.378 . S
C594 C589 1.350 . S
C595 H582 0.929 . S
C595 C587 1.433 . S
C595 N597 1.384 . S
N596 C592 1.427 . S
N596 C593 1.384 . S
N597 C589 1.427 . S
N597 C595 1.384 . S
H598 C604 0.930 . S
H599 C608 0.930 . S
H600 C613 0.929 . S
H601 C611 0.929 . S
H602 C606 0.929 . S
H603 C612 0.929 . S
C604 H598 0.930 . S
C604 C605 1.367 . S
C604 C612 1.378 . S
C605 C604 1.367 . S
C605 C613 1.433 . S
C606 H602 0.929 . S
C606 C608 1.378 . S
C606 C610 1.350 . S
C607 C610 1.463 . S
C607 C612 1.350 . S
C607 N615 1.427 . S
C608 H599 0.930 . S
C608 C606 1.378 . S
C608 C609 1.367 . S
C609 C608 1.367 . S
C609 C611 1.433 . S
C610 C606 1.350 . S
C610 C607 1.463 . S
C610 N614 1.427 . S
C611 H601 0.929 . S
C611 C609 1.433 . S
C611 N614 1.384 . S
C612 H603 0.929 . S
C612 C604 1.378 . S
C612 C607 1.350 . S
C613 H600 0.929 . S
C613 C605 1.433 . S
C613 N615 1.384 . S
N614 C610 1.427 . S
N614 C611 1.384 . S
N615 C607 1.427 . S
N615 C613 1.384 . S
H616 C622 0.930 . S
H617 C626 0.930 . S
H618 C631 0.929 . S
H619 C629 0.929 . S
H620 C624 0.929 . S
H621 C630 0.929 . S
C622 H616 0.930 . S
C622 C623 1.367 . S
C622 C630 1.378 . S
C623 C622 1.367 . S
C623 C631 1.433 . S
C624 H620 0.929 . S
C624 C626 1.378 . S
C624 C628 1.350 . S
C625 C628 1.463 . S
C625 C630 1.350 . S
C625 N633 1.427 . S
C626 H617 0.930 . S
C626 C624 1.378 . S
C626 C627 1.367 . S
C627 C626 1.367 . S
C627 C629 1.433 . S
C628 C624 1.350 . S
C628 C625 1.463 . S
C628 N632 1.427 . S
C629 H619 0.929 . S
C629 C627 1.433 . S
C629 N632 1.384 . S
C630 H621 0.929 . S
C630 C622 1.378 . S
C630 C625 1.350 . S
C631 H618 0.929 . S
C631 C623 1.433 . S
C631 N633 1.384 . S
N632 C628 1.427 . S
N632 C629 1.384 . S
N633 C625 1.427 . S
N633 C631 1.384 . S
H634 C640 0.930 . S
H635 C644 0.930 . S
H636 C649 0.929 . S
H637 C647 0.929 . S
H638 C642 0.929 . S
H639 C648 0.929 . S
C640 H634 0.930 . S
C640 C641 1.367 . S
C640 C648 1.378 . S
C641 C640 1.367 . S
C641 C649 1.433 . S
C642 H638 0.929 . S
C642 C644 1.378 . S
C642 C646 1.350 . S
C643 C646 1.463 . S
C643 C648 1.350 . S
C643 N651 1.427 . S
C644 H635 0.930 . S
C644 C642 1.378 . S
C644 C645 1.367 . S
C645 C644 1.367 . S
C645 C647 1.433 . S
C646 C642 1.350 . S
C646 C643 1.463 . S
C646 N650 1.427 . S
C647 H637 0.929 . S
C647 C645 1.433 . S
C647 N650 1.384 . S
C648 H639 0.929 . S
C648 C640 1.378 . S
C648 C643 1.350 . S
C649 H636 0.929 . S
C649 C641 1.433 . S
C649 N651 1.384 . S
N650 C646 1.427 . S
N650 C647 1.384 . S
N651 C643 1.427 . S
N651 C649 1.384 . S
H652 C658 0.930 . S
H653 C662 0.930 . S
H654 C667 0.929 . S
H655 C665 0.929 . S
H656 C660 0.929 . S
H657 C666 0.929 . S
C658 H652 0.930 . S
C658 C659 1.367 . S
C658 C666 1.378 . S
C659 C658 1.367 . S
C659 C667 1.433 . S
C660 H656 0.929 . S
C660 C662 1.378 . S
C660 C664 1.350 . S
C661 C664 1.463 . S
C661 C666 1.350 . S
C661 N669 1.427 . S
C662 H653 0.930 . S
C662 C660 1.378 . S
C662 C663 1.367 . S
C663 C662 1.367 . S
C663 C665 1.433 . S
C664 C660 1.350 . S
C664 C661 1.463 . S
C664 N668 1.427 . S
C665 H655 0.929 . S
C665 C663 1.433 . S
C665 N668 1.384 . S
C666 H657 0.929 . S
C666 C658 1.378 . S
C666 C661 1.350 . S
C667 H654 0.929 . S
C667 C659 1.433 . S
C667 N669 1.384 . S
N668 C664 1.427 . S
N668 C665 1.384 . S
N669 C661 1.427 . S
N669 C667 1.384 . S
H670 C676 0.930 . S
H671 C680 0.930 . S
H672 C685 0.929 . S
H673 C683 0.929 . S
H674 C678 0.929 . S
H675 C684 0.929 . S
C676 H670 0.930 . S
C676 C677 1.367 . S
C676 C684 1.378 . S
C677 C676 1.367 . S
C677 C685 1.433 . S
C678 H674 0.929 . S
C678 C680 1.378 . S
C678 C682 1.350 . S
C679 C682 1.463 . S
C679 C684 1.350 . S
C679 N687 1.427 . S
C680 H671 0.930 . S
C680 C678 1.378 . S
C680 C681 1.367 . S
C681 C680 1.367 . S
C681 C683 1.433 . S
C682 C678 1.350 . S
C682 C679 1.463 . S
C682 N686 1.427 . S
C683 H673 0.929 . S
C683 C681 1.433 . S
C683 N686 1.384 . S
C684 H675 0.929 . S
C684 C676 1.378 . S
C684 C679 1.350 . S
C685 H672 0.929 . S
C685 C677 1.433 . S
C685 N687 1.384 . S
N686 C682 1.427 . S
N686 C683 1.384 . S
N687 C679 1.427 . S
N687 C685 1.384 . S
H688 C694 0.930 . S
H689 C698 0.930 . S
H690 C703 0.929 . S
H691 C701 0.929 . S
H692 C696 0.929 . S
H693 C702 0.929 . S
C694 H688 0.930 . S
C694 C695 1.367 . S
C694 C702 1.378 . S
C695 C694 1.367 . S
C695 C703 1.433 . S
C696 H692 0.929 . S
C696 C698 1.378 . S
C696 C700 1.350 . S
C697 C700 1.463 . S
C697 C702 1.350 . S
C697 N705 1.427 . S
C698 H689 0.930 . S
C698 C696 1.378 . S
C698 C699 1.367 . S
C699 C698 1.367 . S
C699 C701 1.433 . S
C700 C696 1.350 . S
C700 C697 1.463 . S
C700 N704 1.427 . S
C701 H691 0.929 . S
C701 C699 1.433 . S
C701 N704 1.384 . S
C702 H693 0.929 . S
C702 C694 1.378 . S
C702 C697 1.350 . S
C703 H690 0.929 . S
C703 C695 1.433 . S
C703 N705 1.384 . S
N704 C700 1.427 . S
N704 C701 1.384 . S
N705 C697 1.427 . S
N705 C703 1.384 . S
H706 C712 0.930 . S
H707 C716 0.930 . S
H708 C721 0.929 . S
H709 C719 0.929 1_554 S
H710 C714 0.929 . S
H711 C720 0.929 . S
C712 H706 0.930 . S
C712 C713 1.367 . S
C712 C720 1.378 . S
C713 C712 1.367 . S
C713 C721 1.433 . S
C714 H710 0.929 . S
C714 C716 1.378 . S
C714 C718 1.350 . S
C715 C718 1.463 . S
C715 C720 1.350 . S
C715 N723 1.427 . S
C716 H707 0.930 . S
C716 C714 1.378 . S
C716 C717 1.367 . S
C717 C716 1.367 . S
C717 C719 1.433 . S
C718 C714 1.350 . S
C718 C715 1.463 . S
C718 N722 1.427 . S
C719 H709 0.929 1_556 S
C719 C717 1.433 . S
C719 N722 1.384 . S
C720 H711 0.929 . S
C720 C712 1.378 . S
C720 C715 1.350 . S
C721 H708 0.929 . S
C721 C713 1.433 . S
C721 N723 1.384 . S
N722 C718 1.427 . S
N722 C719 1.384 . S
N723 C715 1.427 . S
N723 C721 1.384 . S
H724 C730 0.930 . S
H725 C734 0.930 . S
H726 C739 0.929 . S
H727 C737 0.929 . S
H728 C732 0.929 . S
H729 C738 0.929 . S
C730 H724 0.930 . S
C730 C731 1.367 . S
C730 C738 1.378 . S
C731 C730 1.367 . S
C731 C739 1.433 . S
C732 H728 0.929 . S
C732 C734 1.378 . S
C732 C736 1.350 . S
C733 C736 1.463 . S
C733 C738 1.350 . S
C733 N741 1.427 . S
C734 H725 0.930 . S
C734 C732 1.378 . S
C734 C735 1.367 . S
C735 C734 1.367 . S
C735 C737 1.433 . S
C736 C732 1.350 . S
C736 C733 1.463 . S
C736 N740 1.427 . S
C737 H727 0.929 . S
C737 C735 1.433 . S
C737 N740 1.384 . S
C738 H729 0.929 . S
C738 C730 1.378 . S
C738 C733 1.350 . S
C739 H726 0.929 . S
C739 C731 1.433 . S
C739 N741 1.384 . S
N740 C736 1.427 . S
N740 C737 1.384 . S
N741 C733 1.427 . S
N741 C739 1.384 . S
H742 C748 0.930 . S
H743 C752 0.930 . S
H744 C757 0.929 . S
H745 C755 0.929 1_554 S
H746 C750 0.929 . S
H747 C756 0.929 . S
C748 H742 0.930 . S
C748 C749 1.367 . S
C748 C756 1.378 . S
C749 C748 1.367 . S
C749 C757 1.433 . S
C750 H746 0.929 . S
C750 C752 1.378 . S
C750 C754 1.350 . S
C751 C754 1.463 . S
C751 C756 1.350 . S
C751 N759 1.427 . S
C752 H743 0.930 . S
C752 C750 1.378 . S
C752 C753 1.367 . S
C753 C752 1.367 . S
C753 C755 1.433 . S
C754 C750 1.350 . S
C754 C751 1.463 . S
C754 N758 1.427 . S
C755 H745 0.929 1_556 S
C755 C753 1.433 . S
C755 N758 1.384 . S
C756 H747 0.929 . S
C756 C748 1.378 . S
C756 C751 1.350 . S
C757 H744 0.929 . S
C757 C749 1.433 . S
C757 N759 1.384 . S
N758 C754 1.427 . S
N758 C755 1.384 . S
N759 C751 1.427 . S
N759 C757 1.384 . S
H760 C766 0.930 . S
H761 C770 0.930 . S
H762 C775 0.929 . S
H763 C773 0.929 . S
H764 C768 0.929 . S
H765 C774 0.929 . S
C766 H760 0.930 . S
C766 C767 1.367 . S
C766 C774 1.378 . S
C767 C766 1.367 . S
C767 C775 1.433 . S
C768 H764 0.929 . S
C768 C770 1.378 . S
C768 C772 1.350 . S
C769 C772 1.463 . S
C769 C774 1.350 . S
C769 N777 1.427 . S
C770 H761 0.930 . S
C770 C768 1.378 . S
C770 C771 1.367 . S
C771 C770 1.367 . S
C771 C773 1.433 . S
C772 C768 1.350 . S
C772 C769 1.463 . S
C772 N776 1.427 . S
C773 H763 0.929 . S
C773 C771 1.433 . S
C773 N776 1.384 . S
C774 H765 0.929 . S
C774 C766 1.378 . S
C774 C769 1.350 . S
C775 H762 0.929 . S
C775 C767 1.433 . S
C775 N777 1.384 . S
N776 C772 1.427 . S
N776 C773 1.384 . S
N777 C769 1.427 . S
N777 C775 1.384 . S
H778 C784 0.930 . S
H779 C788 0.930 . S
H780 C793 0.929 . S
H781 C791 0.929 . S
H782 C786 0.929 . S
H783 C792 0.929 . S
C784 H778 0.930 . S
C784 C785 1.367 . S
C784 C792 1.378 . S
C785 C784 1.367 . S
C785 C793 1.433 . S
C786 H782 0.929 . S
C786 C788 1.378 . S
C786 C790 1.350 . S
C787 C790 1.463 . S
C787 C792 1.350 . S
C787 N795 1.427 . S
C788 H779 0.930 . S
C788 C786 1.378 . S
C788 C789 1.367 . S
C789 C788 1.367 . S
C789 C791 1.433 . S
C790 C786 1.350 . S
C790 C787 1.463 . S
C790 N794 1.427 . S
C791 H781 0.929 . S
C791 C789 1.433 . S
C791 N794 1.384 . S
C792 H783 0.929 . S
C792 C784 1.378 . S
C792 C787 1.350 . S
C793 H780 0.929 . S
C793 C785 1.433 . S
C793 N795 1.384 . S
N794 C790 1.427 . S
N794 C791 1.384 . S
N795 C787 1.427 . S
N795 C793 1.384 . S
H796 C802 0.930 . S
H797 C806 0.930 . S
H798 C811 0.929 . S
H799 C809 0.929 . S
H800 C804 0.929 . S
H801 C810 0.929 . S
C802 H796 0.930 . S
C802 C803 1.367 . S
C802 C810 1.378 . S
C803 C802 1.367 . S
C803 C811 1.433 . S
C804 H800 0.929 . S
C804 C806 1.378 . S
C804 C808 1.350 . S
C805 C808 1.463 . S
C805 C810 1.350 . S
C805 N813 1.427 . S
C806 H797 0.930 . S
C806 C804 1.378 . S
C806 C807 1.367 . S
C807 C806 1.367 . S
C807 C809 1.433 . S
C808 C804 1.350 . S
C808 C805 1.463 . S
C808 N812 1.427 . S
C809 H799 0.929 . S
C809 C807 1.433 . S
C809 N812 1.384 . S
C810 H801 0.929 . S
C810 C802 1.378 . S
C810 C805 1.350 . S
C811 H798 0.929 . S
C811 C803 1.433 . S
C811 N813 1.384 . S
N812 C808 1.427 . S
N812 C809 1.384 . S
N813 C805 1.427 . S
N813 C811 1.384 . S
H814 C820 0.930 . S
H815 C824 0.930 . S
H816 C829 0.929 . S
H817 C827 0.929 . S
H818 C822 0.929 . S
H819 C828 0.929 . S
C820 H814 0.930 . S
C820 C821 1.367 . S
C820 C828 1.378 . S
C821 C820 1.367 . S
C821 C829 1.433 . S
C822 H818 0.929 . S
C822 C824 1.378 . S
C822 C826 1.350 . S
C823 C826 1.463 . S
C823 C828 1.350 . S
C823 N831 1.427 . S
C824 H815 0.930 . S
C824 C822 1.378 . S
C824 C825 1.367 . S
C825 C824 1.367 . S
C825 C827 1.433 . S
C826 C822 1.350 . S
C826 C823 1.463 . S
C826 N830 1.427 . S
C827 H817 0.929 . S
C827 C825 1.433 . S
C827 N830 1.384 . S
C828 H819 0.929 . S
C828 C820 1.378 . S
C828 C823 1.350 . S
C829 H816 0.929 . S
C829 C821 1.433 . S
C829 N831 1.384 . S
N830 C826 1.427 . S
N830 C827 1.384 . S
N831 C823 1.427 . S
N831 C829 1.384 . S
H832 C838 0.930 . S
H833 C842 0.930 . S
H834 C847 0.929 . S
H835 C845 0.929 . S
H836 C840 0.929 . S
H837 C846 0.929 . S
C838 H832 0.930 . S
C838 C839 1.367 . S
C838 C846 1.378 . S
C839 C838 1.367 . S
C839 C847 1.433 . S
C840 H836 0.929 . S
C840 C842 1.378 . S
C840 C844 1.350 . S
C841 C844 1.463 . S
C841 C846 1.350 . S
C841 N849 1.427 . S
C842 H833 0.930 . S
C842 C840 1.378 . S
C842 C843 1.367 . S
C843 C842 1.367 . S
C843 C845 1.433 . S
C844 C840 1.350 . S
C844 C841 1.463 . S
C844 N848 1.427 . S
C845 H835 0.929 . S
C845 C843 1.433 . S
C845 N848 1.384 . S
C846 H837 0.929 . S
C846 C838 1.378 . S
C846 C841 1.350 . S
C847 H834 0.929 . S
C847 C839 1.433 . S
C847 N849 1.384 . S
N848 C844 1.427 . S
N848 C845 1.384 . S
N849 C841 1.427 . S
N849 C847 1.384 . S
H850 C856 0.930 . S
H851 C860 0.930 . S
H852 C865 0.929 . S
H853 C863 0.929 . S
H854 C858 0.929 . S
H855 C864 0.929 . S
C856 H850 0.930 . S
C856 C857 1.367 . S
C856 C864 1.378 . S
C857 C856 1.367 . S
C857 C865 1.433 . S
C858 H854 0.929 . S
C858 C860 1.378 . S
C858 C862 1.350 . S
C859 C862 1.463 . S
C859 C864 1.350 . S
C859 N867 1.427 . S
C860 H851 0.930 . S
C860 C858 1.378 . S
C860 C861 1.367 . S
C861 C860 1.367 . S
C861 C863 1.433 . S
C862 C858 1.350 . S
C862 C859 1.463 . S
C862 N866 1.427 . S
C863 H853 0.929 . S
C863 C861 1.433 . S
C863 N866 1.384 . S
C864 H855 0.929 . S
C864 C856 1.378 . S
C864 C859 1.350 . S
C865 H852 0.929 . S
C865 C857 1.433 . S
C865 N867 1.384 . S
N866 C862 1.427 . S
N866 C863 1.384 . S
N867 C859 1.427 . S
N867 C865 1.384 . S
H868 C874 0.930 . S
H869 C878 0.930 . S
H870 C883 0.929 . S
H871 C881 0.929 . S
H872 C876 0.929 . S
H873 C882 0.929 . S
C874 H868 0.930 . S
C874 C875 1.367 . S
C874 C882 1.378 . S
C875 C874 1.367 . S
C875 C883 1.433 . S
C876 H872 0.929 . S
C876 C878 1.378 . S
C876 C880 1.350 . S
C877 C880 1.463 . S
C877 C882 1.350 . S
C877 N885 1.427 . S
C878 H869 0.930 . S
C878 C876 1.378 . S
C878 C879 1.367 . S
C879 C878 1.367 . S
C879 C881 1.433 . S
C880 C876 1.350 . S
C880 C877 1.463 . S
C880 N884 1.427 . S
C881 H871 0.929 . S
C881 C879 1.433 . S
C881 N884 1.384 . S
C882 H873 0.929 . S
C882 C874 1.378 . S
C882 C877 1.350 . S
C883 H870 0.929 . S
C883 C875 1.433 . S
C883 N885 1.384 . S
N884 C880 1.427 . S
N884 C881 1.384 . S
N885 C877 1.427 . S
N885 C883 1.384 . S
H886 C892 0.930 . S
H887 C896 0.930 . S
H888 C901 0.929 . S
H889 C899 0.929 . S
H890 C894 0.929 . S
H891 C900 0.929 . S
C892 H886 0.930 . S
C892 C893 1.367 . S
C892 C900 1.378 . S
C893 C892 1.367 . S
C893 C901 1.433 . S
C894 H890 0.929 . S
C894 C896 1.378 . S
C894 C898 1.350 . S
C895 C898 1.463 . S
C895 C900 1.350 . S
C895 N903 1.427 . S
C896 H887 0.930 . S
C896 C894 1.378 . S
C896 C897 1.367 . S
C897 C896 1.367 . S
C897 C899 1.433 . S
C898 C894 1.350 . S
C898 C895 1.463 . S
C898 N902 1.427 . S
C899 H889 0.929 . S
C899 C897 1.433 . S
C899 N902 1.384 . S
C900 H891 0.929 . S
C900 C892 1.378 . S
C900 C895 1.350 . S
C901 H888 0.929 . S
C901 C893 1.433 . S
C901 N903 1.384 . S
N902 C898 1.427 . S
N902 C899 1.384 . S
N903 C895 1.427 . S
N903 C901 1.384 . S
H904 C910 0.930 . S
H905 C914 0.930 . S
H906 C919 0.929 . S
H907 C917 0.929 . S
H908 C912 0.929 . S
H909 C918 0.929 . S
C910 H904 0.930 . S
C910 C911 1.367 . S
C910 C918 1.378 . S
C911 C910 1.367 . S
C911 C919 1.433 . S
C912 H908 0.929 . S
C912 C914 1.378 . S
C912 C916 1.350 . S
C913 C916 1.463 . S
C913 C918 1.350 . S
C913 N921 1.427 . S
C914 H905 0.930 . S
C914 C912 1.378 . S
C914 C915 1.367 . S
C915 C914 1.367 . S
C915 C917 1.433 . S
C916 C912 1.350 . S
C916 C913 1.463 . S
C916 N920 1.427 . S
C917 H907 0.929 . S
C917 C915 1.433 . S
C917 N920 1.384 . S
C918 H909 0.929 . S
C918 C910 1.378 . S
C918 C913 1.350 . S
C919 H906 0.929 . S
C919 C911 1.433 . S
C919 N921 1.384 . S
N920 C916 1.427 . S
N920 C917 1.384 . S
N921 C913 1.427 . S
N921 C919 1.384 . S
H922 C928 0.930 . S
H923 C932 0.930 . S
H924 C937 0.929 . S
H925 C935 0.929 . S
H926 C930 0.929 . S
H927 C936 0.929 . S
C928 H922 0.930 . S
C928 C929 1.367 . S
C928 C936 1.378 . S
C929 C928 1.367 . S
C929 C937 1.433 . S
C930 H926 0.929 . S
C930 C932 1.378 . S
C930 C934 1.350 . S
C931 C934 1.463 . S
C931 C936 1.350 . S
C931 N939 1.427 . S
C932 H923 0.930 . S
C932 C930 1.378 . S
C932 C933 1.367 . S
C933 C932 1.367 . S
C933 C935 1.433 . S
C934 C930 1.350 . S
C934 C931 1.463 . S
C934 N938 1.427 . S
C935 H925 0.929 . S
C935 C933 1.433 . S
C935 N938 1.384 . S
C936 H927 0.929 . S
C936 C928 1.378 . S
C936 C931 1.350 . S
C937 H924 0.929 . S
C937 C929 1.433 . S
C937 N939 1.384 . S
N938 C934 1.427 . S
N938 C935 1.384 . S
N939 C931 1.427 . S
N939 C937 1.384 . S
H940 C946 0.930 . S
H941 C950 0.930 . S
H942 C955 0.929 . S
H943 C953 0.929 . S
H944 C948 0.929 . S
H945 C954 0.929 . S
C946 H940 0.930 . S
C946 C947 1.367 . S
C946 C954 1.378 . S
C947 C946 1.367 . S
C947 C955 1.433 . S
C948 H944 0.929 . S
C948 C950 1.378 . S
C948 C952 1.350 . S
C949 C952 1.463 . S
C949 C954 1.350 . S
C949 N957 1.427 . S
C950 H941 0.930 . S
C950 C948 1.378 . S
C950 C951 1.367 . S
C951 C950 1.367 . S
C951 C953 1.433 . S
C952 C948 1.350 . S
C952 C949 1.463 . S
C952 N956 1.427 . S
C953 H943 0.929 . S
C953 C951 1.433 . S
C953 N956 1.384 . S
C954 H945 0.929 . S
C954 C946 1.378 . S
C954 C949 1.350 . S
C955 H942 0.929 . S
C955 C947 1.433 . S
C955 N957 1.384 . S
N956 C952 1.427 . S
N956 C953 1.384 . S
N957 C949 1.427 . S
N957 C955 1.384 . S
H958 C964 0.930 . S
H959 C968 0.930 . S
H960 C973 0.929 . S
H961 C971 0.929 . S
H962 C966 0.929 . S
H963 C972 0.929 . S
C964 H958 0.930 . S
C964 C965 1.367 . S
C964 C972 1.378 . S
C965 C964 1.367 . S
C965 C973 1.433 . S
C966 H962 0.929 . S
C966 C968 1.378 . S
C966 C970 1.350 . S
C967 C970 1.463 . S
C967 C972 1.350 . S
C967 N975 1.427 . S
C968 H959 0.930 . S
C968 C966 1.378 . S
C968 C969 1.367 . S
C969 C968 1.367 . S
C969 C971 1.433 . S
C970 C966 1.350 . S
C970 C967 1.463 . S
C970 N974 1.427 . S
C971 H961 0.929 . S
C971 C969 1.433 . S
C971 N974 1.384 . S
C972 H963 0.929 . S
C972 C964 1.378 . S
C972 C967 1.350 . S
C973 H960 0.929 . S
C973 C965 1.433 . S
C973 N975 1.384 . S
N974 C970 1.427 . S
N974 C971 1.384 . S
N975 C967 1.427 . S
N975 C973 1.384 . S
H976 C982 0.930 . S
H977 C986 0.930 . S
H978 C991 0.929 . S
H979 C989 0.929 . S
H980 C984 0.929 . S
H981 C990 0.929 . S
C982 H976 0.930 . S
C982 C983 1.367 . S
C982 C990 1.378 . S
C983 C982 1.367 . S
C983 C991 1.433 . S
C984 H980 0.929 . S
C984 C986 1.378 . S
C984 C988 1.350 . S
C985 C988 1.463 . S
C985 C990 1.350 . S
C985 N993 1.427 . S
C986 H977 0.930 . S
C986 C984 1.378 . S
C986 C987 1.367 . S
C987 C986 1.367 . S
C987 C989 1.433 . S
C988 C984 1.350 . S
C988 C985 1.463 . S
C988 N992 1.427 . S
C989 H979 0.929 . S
C989 C987 1.433 . S
C989 N992 1.384 . S
C990 H981 0.929 . S
C990 C982 1.378 . S
C990 C985 1.350 . S
C991 H978 0.929 . S
C991 C983 1.433 . S
C991 N993 1.384 . S
N992 C988 1.427 . S
N992 C989 1.384 . S
N993 C985 1.427 . S
N993 C991 1.384 . S
H994 C1000 0.930 . S
H995 C1004 0.930 . S
H996 C1009 0.929 . S
H997 C1007 0.929 . S
H998 C1002 0.929 . S
H999 C1008 0.929 . S
C1000 H994 0.930 . S
C1000 C1001 1.367 . S
C1000 C1008 1.378 . S
C1001 C1000 1.367 . S
C1001 C1009 1.433 . S
C1002 H998 0.929 . S
C1002 C1004 1.378 . S
C1002 C1006 1.350 . S
C1003 C1006 1.463 . S
C1003 C1008 1.350 . S
C1003 N1011 1.427 . S
C1004 H995 0.930 . S
C1004 C1002 1.378 . S
C1004 C1005 1.367 . S
C1005 C1004 1.367 . S
C1005 C1007 1.433 . S
C1006 C1002 1.350 . S
C1006 C1003 1.463 . S
C1006 N1010 1.427 . S
C1007 H997 0.929 . S
C1007 C1005 1.433 . S
C1007 N1010 1.384 . S
C1008 H999 0.929 . S
C1008 C1000 1.378 . S
C1008 C1003 1.350 . S
C1009 H996 0.929 . S
C1009 C1001 1.433 . S
C1009 N1011 1.384 . S
N1010 C1006 1.427 . S
N1010 C1007 1.384 . S
N1011 C1003 1.427 . S
N1011 C1009 1.384 . S
H1012 C1018 0.930 . S
H1013 C1022 0.930 . S
H1014 C1027 0.929 . S
H1015 C1025 0.929 . S
H1016 C1020 0.929 . S
H1017 C1026 0.929 . S
C1018 H1012 0.930 . S
C1018 C1019 1.367 . S
C1018 C1026 1.378 . S
C1019 C1018 1.367 . S
C1019 C1027 1.433 . S
C1020 H1016 0.929 . S
C1020 C1022 1.378 . S
C1020 C1024 1.350 . S
C1021 C1024 1.463 . S
C1021 C1026 1.350 . S
C1021 N1029 1.427 . S
C1022 H1013 0.930 . S
C1022 C1020 1.378 . S
C1022 C1023 1.367 . S
C1023 C1022 1.367 . S
C1023 C1025 1.433 . S
C1024 C1020 1.350 . S
C1024 C1021 1.463 . S
C1024 N1028 1.427 . S
C1025 H1015 0.929 . S
C1025 C1023 1.433 . S
C1025 N1028 1.384 . S
C1026 H1017 0.929 . S
C1026 C1018 1.378 . S
C1026 C1021 1.350 . S
C1027 H1014 0.929 . S
C1027 C1019 1.433 . S
C1027 N1029 1.384 . S
N1028 C1024 1.427 . S
N1028 C1025 1.384 . S
N1029 C1021 1.427 . S
N1029 C1027 1.384 . S
H1030 C1036 0.930 . S
H1031 C1040 0.930 . S
H1032 C1045 0.929 . S
H1033 C1043 0.929 . S
H1034 C1038 0.929 . S
H1035 C1044 0.929 . S
C1036 H1030 0.930 . S
C1036 C1037 1.367 . S
C1036 C1044 1.378 . S
C1037 C1036 1.367 . S
C1037 C1045 1.433 . S
C1038 H1034 0.929 . S
C1038 C1040 1.378 . S
C1038 C1042 1.350 . S
C1039 C1042 1.463 . S
C1039 C1044 1.350 . S
C1039 N1047 1.427 . S
C1040 H1031 0.930 . S
C1040 C1038 1.378 . S
C1040 C1041 1.367 . S
C1041 C1040 1.367 . S
C1041 C1043 1.433 . S
C1042 C1038 1.350 . S
C1042 C1039 1.463 . S
C1042 N1046 1.427 . S
C1043 H1033 0.929 . S
C1043 C1041 1.433 . S
C1043 N1046 1.384 . S
C1044 H1035 0.929 . S
C1044 C1036 1.378 . S
C1044 C1039 1.350 . S
C1045 H1032 0.929 . S
C1045 C1037 1.433 . S
C1045 N1047 1.384 . S
N1046 C1042 1.427 . S
N1046 C1043 1.384 . S
N1047 C1039 1.427 . S
N1047 C1045 1.384 . S
H1048 C1054 0.930 . S
H1049 C1058 0.930 . S
H1050 C1063 0.929 . S
H1051 C1061 0.929 . S
H1052 C1056 0.929 . S
H1053 C1062 0.929 . S
C1054 H1048 0.930 . S
C1054 C1055 1.367 . S
C1054 C1062 1.378 . S
C1055 C1054 1.367 . S
C1055 C1063 1.433 . S
C1056 H1052 0.929 . S
C1056 C1058 1.378 . S
C1056 C1060 1.350 . S
C1057 C1060 1.463 . S
C1057 C1062 1.350 . S
C1057 N1065 1.427 . S
C1058 H1049 0.930 . S
C1058 C1056 1.378 . S
C1058 C1059 1.367 . S
C1059 C1058 1.367 . S
C1059 C1061 1.433 . S
C1060 C1056 1.350 . S
C1060 C1057 1.463 . S
C1060 N1064 1.427 . S
C1061 H1051 0.929 . S
C1061 C1059 1.433 . S
C1061 N1064 1.384 . S
C1062 H1053 0.929 . S
C1062 C1054 1.378 . S
C1062 C1057 1.350 . S
C1063 H1050 0.929 . S
C1063 C1055 1.433 . S
C1063 N1065 1.384 . S
N1064 C1060 1.427 . S
N1064 C1061 1.384 . S
N1065 C1057 1.427 . S
N1065 C1063 1.384 . S
H1066 C1072 0.930 . S
H1067 C1076 0.930 . S
H1068 C1081 0.929 . S
H1069 C1079 0.929 . S
H1070 C1074 0.929 . S
H1071 C1080 0.929 . S
C1072 H1066 0.930 . S
C1072 C1073 1.367 . S
C1072 C1080 1.378 . S
C1073 C1072 1.367 . S
C1073 C1081 1.433 . S
C1074 H1070 0.929 . S
C1074 C1076 1.378 . S
C1074 C1078 1.350 . S
C1075 C1078 1.463 . S
C1075 C1080 1.350 . S
C1075 N1083 1.427 . S
C1076 H1067 0.930 . S
C1076 C1074 1.378 . S
C1076 C1077 1.367 . S
C1077 C1076 1.367 . S
C1077 C1079 1.433 . S
C1078 C1074 1.350 . S
C1078 C1075 1.463 . S
C1078 N1082 1.427 . S
C1079 H1069 0.929 . S
C1079 C1077 1.433 . S
C1079 N1082 1.384 . S
C1080 H1071 0.929 . S
C1080 C1072 1.378 . S
C1080 C1075 1.350 . S
C1081 H1068 0.929 . S
C1081 C1073 1.433 . S
C1081 N1083 1.384 . S
N1082 C1078 1.427 . S
N1082 C1079 1.384 . S
N1083 C1075 1.427 . S
N1083 C1081 1.384 . S
H1084 C1090 0.930 . S
H1085 C1094 0.930 . S
H1086 C1099 0.929 . S
H1087 C1097 0.929 . S
H1088 C1092 0.929 . S
H1089 C1098 0.929 . S
C1090 H1084 0.930 . S
C1090 C1091 1.367 . S
C1090 C1098 1.378 . S
C1091 C1090 1.367 . S
C1091 C1099 1.433 . S
C1092 H1088 0.929 . S
C1092 C1094 1.378 . S
C1092 C1096 1.350 . S
C1093 C1096 1.463 . S
C1093 C1098 1.350 . S
C1093 N1101 1.427 . S
C1094 H1085 0.930 . S
C1094 C1092 1.378 . S
C1094 C1095 1.367 . S
C1095 C1094 1.367 . S
C1095 C1097 1.433 . S
C1096 C1092 1.350 . S
C1096 C1093 1.463 . S
C1096 N1100 1.427 . S
C1097 H1087 0.929 . S
C1097 C1095 1.433 . S
C1097 N1100 1.384 . S
C1098 H1089 0.929 . S
C1098 C1090 1.378 . S
C1098 C1093 1.350 . S
C1099 H1086 0.929 . S
C1099 C1091 1.433 . S
C1099 N1101 1.384 . S
N1100 C1096 1.427 . S
N1100 C1097 1.384 . S
N1101 C1093 1.427 . S
N1101 C1099 1.384 . S
H1102 C1108 0.930 . S
H1103 C1112 0.930 . S
H1104 C1117 0.929 . S
H1105 C1115 0.929 . S
H1106 C1110 0.929 . S
H1107 C1116 0.929 . S
C1108 H1102 0.930 . S
C1108 C1109 1.367 . S
C1108 C1116 1.378 . S
C1109 C1108 1.367 . S
C1109 C1117 1.433 . S
C1110 H1106 0.929 . S
C1110 C1112 1.378 . S
C1110 C1114 1.350 . S
C1111 C1114 1.463 . S
C1111 C1116 1.350 . S
C1111 N1119 1.427 . S
C1112 H1103 0.930 . S
C1112 C1110 1.378 . S
C1112 C1113 1.367 . S
C1113 C1112 1.367 . S
C1113 C1115 1.433 . S
C1114 C1110 1.350 . S
C1114 C1111 1.463 . S
C1114 N1118 1.427 . S
C1115 H1105 0.929 . S
C1115 C1113 1.433 . S
C1115 N1118 1.384 . S
C1116 H1107 0.929 . S
C1116 C1108 1.378 . S
C1116 C1111 1.350 . S
C1117 H1104 0.929 . S
C1117 C1109 1.433 . S
C1117 N1119 1.384 . S
N1118 C1114 1.427 . S
N1118 C1115 1.384 . S
N1119 C1111 1.427 . S
N1119 C1117 1.384 . S
H1120 C1126 0.930 . S
H1121 C1130 0.930 . S
H1122 C1135 0.929 . S
H1123 C1133 0.929 . S
H1124 C1128 0.929 . S
H1125 C1134 0.929 . S
C1126 H1120 0.930 . S
C1126 C1127 1.367 . S
C1126 C1134 1.378 . S
C1127 C1126 1.367 . S
C1127 C1135 1.433 . S
C1128 H1124 0.929 . S
C1128 C1130 1.378 . S
C1128 C1132 1.350 . S
C1129 C1132 1.463 . S
C1129 C1134 1.350 . S
C1129 N1137 1.427 . S
C1130 H1121 0.930 . S
C1130 C1128 1.378 . S
C1130 C1131 1.367 . S
C1131 C1130 1.367 . S
C1131 C1133 1.433 . S
C1132 C1128 1.350 . S
C1132 C1129 1.463 . S
C1132 N1136 1.427 . S
C1133 H1123 0.929 . S
C1133 C1131 1.433 . S
C1133 N1136 1.384 . S
C1134 H1125 0.929 . S
C1134 C1126 1.378 . S
C1134 C1129 1.350 . S
C1135 H1122 0.929 . S
C1135 C1127 1.433 . S
C1135 N1137 1.384 . S
N1136 C1132 1.427 . S
N1136 C1133 1.384 . S
N1137 C1129 1.427 . S
N1137 C1135 1.384 . S
H1138 C1144 0.930 . S
H1139 C1148 0.930 . S
H1140 C1153 0.929 . S
H1141 C1151 0.929 . S
H1142 C1146 0.929 . S
H1143 C1152 0.929 . S
C1144 H1138 0.930 . S
C1144 C1145 1.367 . S
C1144 C1152 1.378 . S
C1145 C1144 1.367 . S
C1145 C1153 1.433 . S
C1146 H1142 0.929 . S
C1146 C1148 1.378 . S
C1146 C1150 1.350 . S
C1147 C1150 1.463 . S
C1147 C1152 1.350 . S
C1147 N1155 1.427 . S
C1148 H1139 0.930 . S
C1148 C1146 1.378 . S
C1148 C1149 1.367 . S
C1149 C1148 1.367 . S
C1149 C1151 1.433 . S
C1150 C1146 1.350 . S
C1150 C1147 1.463 . S
C1150 N1154 1.427 . S
C1151 H1141 0.929 . S
C1151 C1149 1.433 . S
C1151 N1154 1.384 . S
C1152 H1143 0.929 . S
C1152 C1144 1.378 . S
C1152 C1147 1.350 . S
C1153 H1140 0.929 . S
C1153 C1145 1.433 . S
C1153 N1155 1.384 . S
N1154 C1150 1.427 . S
N1154 C1151 1.384 . S
N1155 C1147 1.427 . S
N1155 C1153 1.384 . S
H1156 C1162 0.930 . S
H1157 C1166 0.930 . S
H1158 C1171 0.929 . S
H1159 C1169 0.929 . S
H1160 C1164 0.929 . S
H1161 C1170 0.929 . S
C1162 H1156 0.930 . S
C1162 C1163 1.367 . S
C1162 C1170 1.378 . S
C1163 C1162 1.367 . S
C1163 C1171 1.433 . S
C1164 H1160 0.929 . S
C1164 C1166 1.378 . S
C1164 C1168 1.350 . S
C1165 C1168 1.463 . S
C1165 C1170 1.350 . S
C1165 N1173 1.427 . S
C1166 H1157 0.930 . S
C1166 C1164 1.378 . S
C1166 C1167 1.367 . S
C1167 C1166 1.367 . S
C1167 C1169 1.433 . S
C1168 C1164 1.350 . S
C1168 C1165 1.463 . S
C1168 N1172 1.427 . S
C1169 H1159 0.929 . S
C1169 C1167 1.433 . S
C1169 N1172 1.384 . S
C1170 H1161 0.929 . S
C1170 C1162 1.378 . S
C1170 C1165 1.350 . S
C1171 H1158 0.929 . S
C1171 C1163 1.433 . S
C1171 N1173 1.384 . S
N1172 C1168 1.427 . S
N1172 C1169 1.384 . S
N1173 C1165 1.427 . S
N1173 C1171 1.384 . S
H1174 C1180 0.930 . S
H1175 C1184 0.930 . S
H1176 C1189 0.929 . S
H1177 C1187 0.929 . S
H1178 C1182 0.929 . S
H1179 C1188 0.929 . S
C1180 H1174 0.930 . S
C1180 C1181 1.367 . S
C1180 C1188 1.378 . S
C1181 C1180 1.367 . S
C1181 C1189 1.433 . S
C1182 H1178 0.929 . S
C1182 C1184 1.378 . S
C1182 C1186 1.350 . S
C1183 C1186 1.463 . S
C1183 C1188 1.350 . S
C1183 N1191 1.427 . S
C1184 H1175 0.930 . S
C1184 C1182 1.378 . S
C1184 C1185 1.367 . S
C1185 C1184 1.367 . S
C1185 C1187 1.433 . S
C1186 C1182 1.350 . S
C1186 C1183 1.463 . S
C1186 N1190 1.427 . S
C1187 H1177 0.929 . S
C1187 C1185 1.433 . S
C1187 N1190 1.384 . S
C1188 H1179 0.929 . S
C1188 C1180 1.378 . S
C1188 C1183 1.350 . S
C1189 H1176 0.929 . S
C1189 C1181 1.433 . S
C1189 N1191 1.384 . S
N1190 C1186 1.427 . S
N1190 C1187 1.384 . S
N1191 C1183 1.427 . S
N1191 C1189 1.384 . S
H1192 C1198 0.930 . S
H1193 C1202 0.930 . S
H1194 C1207 0.929 . S
H1195 C1205 0.929 . S
H1196 C1200 0.929 . S
H1197 C1206 0.929 . S
C1198 H1192 0.930 . S
C1198 C1199 1.367 . S
C1198 C1206 1.378 . S
C1199 C1198 1.367 . S
C1199 C1207 1.433 . S
C1200 H1196 0.929 . S
C1200 C1202 1.378 . S
C1200 C1204 1.350 . S
C1201 C1204 1.463 . S
C1201 C1206 1.350 . S
C1201 N1209 1.427 . S
C1202 H1193 0.930 . S
C1202 C1200 1.378 . S
C1202 C1203 1.367 . S
C1203 C1202 1.367 . S
C1203 C1205 1.433 . S
C1204 C1200 1.350 . S
C1204 C1201 1.463 . S
C1204 N1208 1.427 . S
C1205 H1195 0.929 . S
C1205 C1203 1.433 . S
C1205 N1208 1.384 . S
C1206 H1197 0.929 . S
C1206 C1198 1.378 . S
C1206 C1201 1.350 . S
C1207 H1194 0.929 . S
C1207 C1199 1.433 . S
C1207 N1209 1.384 . S
N1208 C1204 1.427 . S
N1208 C1205 1.384 . S
N1209 C1201 1.427 . S
N1209 C1207 1.384 . S
H1210 C1216 0.930 . S
H1211 C1220 0.930 . S
H1212 C1225 0.929 . S
H1213 C1223 0.929 . S
H1214 C1218 0.929 . S
H1215 C1224 0.929 . S
C1216 H1210 0.930 . S
C1216 C1217 1.367 . S
C1216 C1224 1.378 . S
C1217 C1216 1.367 . S
C1217 C1225 1.433 . S
C1218 H1214 0.929 . S
C1218 C1220 1.378 . S
C1218 C1222 1.350 . S
C1219 C1222 1.463 . S
C1219 C1224 1.350 . S
C1219 N1227 1.427 . S
C1220 H1211 0.930 . S
C1220 C1218 1.378 . S
C1220 C1221 1.367 . S
C1221 C1220 1.367 . S
C1221 C1223 1.433 . S
C1222 C1218 1.350 . S
C1222 C1219 1.463 . S
C1222 N1226 1.427 . S
C1223 H1213 0.929 . S
C1223 C1221 1.433 . S
C1223 N1226 1.384 . S
C1224 H1215 0.929 . S
C1224 C1216 1.378 . S
C1224 C1219 1.350 . S
C1225 H1212 0.929 . S
C1225 C1217 1.433 . S
C1225 N1227 1.384 . S
N1226 C1222 1.427 . S
N1226 C1223 1.384 . S
N1227 C1219 1.427 . S
N1227 C1225 1.384 . S
H1228 C1234 0.930 . S
H1229 C1238 0.930 . S
H1230 C1243 0.929 . S
H1231 C1241 0.929 . S
H1232 C1236 0.929 . S
H1233 C1242 0.929 . S
C1234 H1228 0.930 . S
C1234 C1235 1.367 . S
C1234 C1242 1.378 . S
C1235 C1234 1.367 . S
C1235 C1243 1.433 . S
C1236 H1232 0.929 . S
C1236 C1238 1.378 . S
C1236 C1240 1.350 . S
C1237 C1240 1.463 . S
C1237 C1242 1.350 . S
C1237 N1245 1.427 . S
C1238 H1229 0.930 . S
C1238 C1236 1.378 . S
C1238 C1239 1.367 . S
C1239 C1238 1.367 . S
C1239 C1241 1.433 . S
C1240 C1236 1.350 . S
C1240 C1237 1.463 . S
C1240 N1244 1.427 . S
C1241 H1231 0.929 . S
C1241 C1239 1.433 . S
C1241 N1244 1.384 . S
C1242 H1233 0.929 . S
C1242 C1234 1.378 . S
C1242 C1237 1.350 . S
C1243 H1230 0.929 . S
C1243 C1235 1.433 . S
C1243 N1245 1.384 . S
N1244 C1240 1.427 . S
N1244 C1241 1.384 . S
N1245 C1237 1.427 . S
N1245 C1243 1.384 . S
C393 C211 1.097 . S
C389 C17 1.187 . S
C411 C212 1.682 . S
C407 C44 1.706 . S
C429 C206 1.216 . S
C425 C63 1.252 . S
C443 C87 1.040 . S
C447 C205 1.036 . S
C461 C110 1.628 . S
C465 C208 1.551 . S
C483 C210 1.235 . S
C479 C131 1.258 . S
C497 C159 1.109 . S
C501 C209 1.177 . S
C515 C177 1.204 . S
C519 C207 1.127 . S
C537 C242 1.553 . S
C533 C20 1.384 . S
C551 C42 1.444 . S
C555 C273 1.363 . S
C573 C241 1.483 . S
C569 C66 1.366 . S
C591 C276 1.133 . S
C587 C86 1.145 . S
C605 C109 1.335 . S
C609 C239 1.319 . S
C627 C271 1.521 . S
C623 C136 1.435 . S
C641 C157 1.228 . S
C645 C244 1.184 . S
C659 C182 1.355 . S
C663 C278 1.394 . S
C677 C18 1.403 . S
C681 C274 1.346 . S
C695 C112 1.370 . S
C699 C277 1.432 . S
C717 C245 1.334 . S
C713 C134 1.339 . S
C735 C272 1.287 . S
C731 C154 1.303 . S
C749 C180 1.415 . S
C753 C238 1.468 . S
C767 C64 1.450 . S
C771 C275 1.461 . S
C789 C240 1.352 . S
C785 C89 1.201 . S
C803 C39 1.502 . S
C807 C243 1.488 . S
C821 C178 1.181 . S
C825 C310 1.107 . S
C839 C113 1.365 . S
C843 C311 1.357 . S
C861 C305 1.213 . S
C857 C132 1.243 . S
C879 C304 1.443 . S
C875 C156 1.450 . S
C893 C41 1.217 . S
C897 C307 1.139 . S
C915 C309 1.224 . S
C911 C62 1.246 . S
C929 C90 1.478 . S
C933 C308 1.535 . S
C947 C16 1.199 . S
C951 C306 1.118 . S
C965 C181 1.477 . S
C969 C344 1.540 . S
C987 C376 1.226 . S
C983 C111 1.251 . S
C1001 C135 1.214 . S
C1005 C337 1.309 . S
C1019 C155 1.385 . S
C1023 C371 1.388 . S
C1041 C342 1.113 . S
C1037 C40 1.126 . S
C1055 C67 1.657 . S
C1059 C373 1.766 . S
C1077 C339 1.364 . S
C1073 C88 1.439 . S
C1095 C374 1.429 . S
C1091 C21 1.292 . S
C1113 C370 1.321 . S
C1109 C179 1.319 . S
C1127 C43 1.180 . S
C1131 C372 1.368 . S
C1145 C65 1.237 . S
C1149 C341 1.296 . S
C1167 C375 1.543 . S
C1163 C85 1.531 . S
C1181 C19 1.524 . S
C1185 C340 1.537 . S
C1199 C133 1.639 . S
C1203 C377 1.587 . S
C1221 C343 1.443 . S
C1217 C158 1.384 . S
C1239 C338 1.290 . S
C1235 C108 1.285 . S
