# Generated by pormake.
# Topology pyr, (3,6)-cn, num edge types: 1
# Building blocks:
#     Node 0, Type 0, BuildingBlock: OLANEW_clean_sbu_2, # of connection points: 3
#     Node 1, Type 0, BuildingBlock: OLANEW_clean_sbu_2, # of connection points: 3
#     Node 2, Type 0, BuildingBlock: OLANEW_clean_sbu_2, # of connection points: 3
#     Node 3, Type 0, BuildingBlock: OLANEW_clean_sbu_2, # of connection points: 3
#     Node 4, Type 0, BuildingBlock: OLANEW_clean_sbu_2, # of connection points: 3
#     Node 5, Type 0, BuildingBlock: OLANEW_clean_sbu_2, # of connection points: 3
#     Node 6, Type 0, BuildingBlock: OLANEW_clean_sbu_2, # of connection points: 3
#     Node 7, Type 0, BuildingBlock: OLANEW_clean_sbu_2, # of connection points: 3
#     Node 8, Type 1, BuildingBlock: FUNLAD_clean_sbu_0, # of connection points: 6
#     Node 9, Type 1, BuildingBlock: FUNLAD_clean_sbu_0, # of connection points: 6
#     Node 10, Type 1, BuildingBlock: FUNLAD_clean_sbu_0, # of connection points: 6
#     Node 11, Type 1, BuildingBlock: FUNLAD_clean_sbu_0, # of connection points: 6
#     Edge 12, Type (0, 1), BuildingBlock: TEMPAE_clean_linker_10, # of connection points: 2
#     Edge 13, Type (0, 1), BuildingBlock: TEMPAE_clean_linker_10, # of connection points: 2
#     Edge 14, Type (0, 1), BuildingBlock: TEMPAE_clean_linker_10, # of connection points: 2
#     Edge 15, Type (0, 1), BuildingBlock: TEMPAE_clean_linker_10, # of connection points: 2
#     Edge 16, Type (0, 1), BuildingBlock: TEMPAE_clean_linker_10, # of connection points: 2
#     Edge 17, Type (0, 1), BuildingBlock: TEMPAE_clean_linker_10, # of connection points: 2
#     Edge 18, Type (0, 1), BuildingBlock: TEMPAE_clean_linker_10, # of connection points: 2
#     Edge 19, Type (0, 1), BuildingBlock: TEMPAE_clean_linker_10, # of connection points: 2
#     Edge 20, Type (0, 1), BuildingBlock: TEMPAE_clean_linker_10, # of connection points: 2
#     Edge 21, Type (0, 1), BuildingBlock: TEMPAE_clean_linker_10, # of connection points: 2
#     Edge 22, Type (0, 1), BuildingBlock: TEMPAE_clean_linker_10, # of connection points: 2
#     Edge 23, Type (0, 1), BuildingBlock: TEMPAE_clean_linker_10, # of connection points: 2
#     Edge 24, Type (0, 1), BuildingBlock: TEMPAE_clean_linker_10, # of connection points: 2
#     Edge 25, Type (0, 1), BuildingBlock: TEMPAE_clean_linker_10, # of connection points: 2
#     Edge 26, Type (0, 1), BuildingBlock: TEMPAE_clean_linker_10, # of connection points: 2
#     Edge 27, Type (0, 1), BuildingBlock: TEMPAE_clean_linker_10, # of connection points: 2
#     Edge 28, Type (0, 1), BuildingBlock: TEMPAE_clean_linker_10, # of connection points: 2
#     Edge 29, Type (0, 1), BuildingBlock: TEMPAE_clean_linker_10, # of connection points: 2
#     Edge 30, Type (0, 1), BuildingBlock: TEMPAE_clean_linker_10, # of connection points: 2
#     Edge 31, Type (0, 1), BuildingBlock: TEMPAE_clean_linker_10, # of connection points: 2
#     Edge 32, Type (0, 1), BuildingBlock: TEMPAE_clean_linker_10, # of connection points: 2
#     Edge 33, Type (0, 1), BuildingBlock: TEMPAE_clean_linker_10, # of connection points: 2
#     Edge 34, Type (0, 1), BuildingBlock: TEMPAE_clean_linker_10, # of connection points: 2
#     Edge 35, Type (0, 1), BuildingBlock: TEMPAE_clean_linker_10, # of connection points: 2
# Relax obj value: 0.143
# Max RMSD: 0.170
# Mean RMSD: 0.117
data_MOF--net-pry--node1-OLANEW_clean_sbu_2--node2-FUNLAD_clean_sbu_0--edge1-TEMPAE_clean_linker_10
_symmetry_space_group_name_H-M    P1
_symmetry_Int_Tables_number       1
_symmetry_cell_setting            triclinic
loop_
_symmetry_equiv_pos_as_xyz
'x, y, z'
_cell_length_a     38.600783
_cell_length_b     41.367672
_cell_length_c     41.447663
_cell_angle_alpha  94.284674
_cell_angle_beta   89.222433
_cell_angle_gamma 91.986428
loop_
_atom_site_label
_atom_site_type_symbol
_atom_site_fract_x
_atom_site_fract_y
_atom_site_fract_z
_atom_type_partial_charge
O0 O 0.21667 0.1825 0.1691 0.0
Cd1 Cd 0.16492 0.21519 0.18426 0.0
O2 O 0.22172 0.15129 0.21038 0.0
Cd3 Cd 0.17807 0.15674 0.24568 0.0
O4 O 0.14742 0.14207 0.28865 0.0
C5 C 0.16214 0.12544 0.30893 0.0
O6 O 0.19473 0.11825 0.30375 0.0
C7 C 0.2327 0.16119 0.18345 0.0
C8 C 0.14626 0.2658 0.1454 0.0
O9 O 0.16952 0.27045 0.16721 0.0
O10 O 0.13266 0.23711 0.141 0.0
O11 O 0.4154 0.89851 0.77579 0.0
Cd12 Cd 0.39446 0.87742 0.72196 0.0
O13 O 0.36986 0.92891 0.78388 0.0
Cd14 Cd 0.34162 0.91493 0.73927 0.0
O15 O 0.29641 0.91765 0.70828 0.0
C16 C 0.29799 0.93194 0.68215 0.0
O17 O 0.32809 0.94373 0.67244 0.0
C18 C 0.39864 0.91925 0.79352 0.0
C19 C 0.42047 0.81852 0.69521 0.0
O20 O 0.43674 0.84558 0.69159 0.0
O21 O 0.39251 0.81917 0.71228 0.0
O22 O 0.70688 0.55146 0.99123 0.0
Cd23 Cd 0.64476 0.56076 0.99331 0.0
O24 O 0.6905 0.50058 0.98481 0.0
Cd25 Cd 0.68877 0.4476 0.98074 0.0
O26 O 0.67277 0.39668 0.98122 0.0
C27 C 0.64106 0.39046 0.98763 0.0
O28 O 0.62013 0.41469 0.99315 0.0
C29 C 0.71508 0.52193 0.98732 0.0
C30 C 0.61657 0.54658 0.93224 0.0
O31 O 0.61972 0.52424 0.95171 0.0
O32 O 0.62627 0.5756 0.9419 0.0
O33 O 0.02096 0.62926 0.47798 0.0
Cd34 Cd 0.01742 0.57118 0.46374 0.0
O35 O 0.96695 0.6222 0.49292 0.0
Cd36 Cd 0.914 0.63463 0.50675 0.0
O37 O 0.85893 0.62444 0.51526 0.0
C38 C 0.83787 0.64485 0.52777 0.0
O39 O 0.84918 0.67454 0.53632 0.0
C40 C 0.99271 0.64132 0.48823 0.0
C41 C 0.00906 0.56434 0.39711 0.0
O42 O 0.03862 0.56026 0.40962 0.0
O43 O 0.98326 0.57045 0.41608 0.0
O44 O 0.91706 0.86866 0.83624 0.0
Cd45 Cd 0.90097 0.84089 0.88639 0.0
O46 O 0.87415 0.90319 0.83909 0.0
Cd47 Cd 0.84221 0.89362 0.88233 0.0
O48 O 0.79522 0.90393 0.91242 0.0
C49 C 0.79638 0.91999 0.93987 0.0
O50 O 0.82676 0.92948 0.95174 0.0
C51 C 0.90124 0.89197 0.82489 0.0
C52 C 0.93174 0.78284 0.90321 0.0
O53 O 0.90388 0.78204 0.8866 0.0
O54 O 0.94612 0.8108 0.91055 0.0
O55 O 0.66758 0.14102 0.35686 0.0
Cd56 Cd 0.69355 0.16761 0.40657 0.0
O57 O 0.62484 0.17512 0.356 0.0
Cd58 Cd 0.63708 0.20904 0.39806 0.0
O59 O 0.63094 0.25456 0.42859 0.0
C60 C 0.60039 0.2624 0.43719 0.0
O61 O 0.57435 0.24243 0.42864 0.0
C62 C 0.6403 0.15031 0.34372 0.0
C63 C 0.74703 0.13493 0.43483 0.0
O64 O 0.71528 0.13055 0.44342 0.0
O65 O 0.75344 0.15405 0.41236 0.0
O66 O 0.5273 0.65268 0.11213 0.0
Cd67 Cd 0.53775 0.59615 0.12011 0.0
O68 O 0.47256 0.63899 0.10496 0.0
Cd69 Cd 0.41816 0.64519 0.09349 0.0
O70 O 0.36377 0.63719 0.08042 0.0
C71 C 0.35042 0.60916 0.08406 0.0
O72 O 0.36972 0.58726 0.09564 0.0
C73 C 0.49652 0.66091 0.10726 0.0
C74 C 0.52873 0.58722 0.18566 0.0
O75 O 0.50333 0.58277 0.16604 0.0
O76 O 0.55851 0.59517 0.17407 0.0
O77 O 0.11559 0.4141 0.62775 0.0
Cd78 Cd 0.13966 0.40622 0.57319 0.0
O79 O 0.15886 0.38656 0.64404 0.0
Cd80 Cd 0.18578 0.36677 0.68379 0.0
O81 O 0.20458 0.35471 0.73071 0.0
C82 C 0.19545 0.32865 0.74336 0.0
O83 O 0.20985 0.32185 0.77046 0.0
C84 C 0.13224 0.4032 0.65057 0.0
C85 C 0.2081 0.43041 0.57339 0.0
O86 O 0.20113 0.40028 0.57653 0.0
O87 O 0.18276 0.44894 0.56963 0.0
C88 C 0.04277 0.04119 0.50797 0.0
N89 N 0.03054 0.08938 0.60033 0.0
C90 C 0.0634 0.10059 0.59446 0.0
C91 C 0.07536 0.13047 0.60835 0.0
C92 C 0.05333 0.14963 0.62839 0.0
C93 C 0.01934 0.13767 0.63399 0.0
C94 C 0.00841 0.10728 0.61962 0.0
Zn95 Zn 0.01781 0.04435 0.5785 0.0
C96 C 0.94957 0.04135 0.54499 0.0
N97 N 0.99785 0.95101 0.53022 0.0
C98 C 0.02447 0.93485 0.51535 0.0
C99 C 0.96664 0.9358 0.53539 0.0
C100 C 0.96199 0.90255 0.52722 0.0
C101 C 0.98992 0.88495 0.51412 0.0
C102 C 0.02112 0.90157 0.50728 0.0
Zn103 Zn 0.00799 0.99638 0.55156 0.0
O104 O 0.04049 0.0595 0.53396 0.0
C105 C 0.07633 0.99962 0.5845 0.0
O106 O 0.03112 0.01203 0.5079 0.0
H107 H 0.94596 0.94905 0.54755 0.0
H108 H 0.08072 0.08614 0.57911 0.0
H109 H 0.04904 0.94739 0.51143 0.0
O110 O 0.06635 0.02794 0.59295 0.0
O111 O 0.05684 0.98075 0.56665 0.0
H112 H 0.98235 0.09797 0.62395 0.0
O113 O 0.98529 0.98104 0.59561 0.0
O114 O 0.99531 0.0279 0.62274 0.0
O115 O 0.95943 0.01284 0.53662 0.0
O116 O 0.96875 0.06009 0.56352 0.0
C117 C 0.9839 0.99855 0.62214 0.0
H118 H 0.102 0.13809 0.60389 0.0
H119 H 1.00137 0.15164 0.64916 0.0
H120 H 0.93761 0.8904 0.53295 0.0
H121 H 0.04309 0.88871 0.49693 0.0
C122 C 0.57826 0.00865 0.04765 0.0
N123 N 0.53912 0.10127 0.04431 0.0
C124 C 0.57174 0.11278 0.05161 0.0
C125 C 0.58294 0.1434 0.04314 0.0
C126 C 0.56043 0.1624 0.02689 0.0
C127 C 0.5272 0.14963 0.01885 0.0
C128 C 0.51697 0.11884 0.02795 0.0
Zn129 Zn 0.52375 0.05758 0.06029 0.0
C130 C 0.48732 0.0142 0.01062 0.0
N131 N 0.49354 0.96676 0.09576 0.0
C132 C 0.51734 0.95026 0.11128 0.0
C133 C 0.46227 0.95276 0.08713 0.0
C134 C 0.45474 0.92031 0.09249 0.0
C135 C 0.47961 0.90219 0.1069 0.0
C136 C 0.51087 0.91783 0.11716 0.0
Zn137 Zn 0.50783 0.01095 0.08018 0.0
O138 O 0.57104 0.03762 0.04287 0.0
C139 C 0.54516 0.0537 0.12984 0.0
O140 O 0.55675 0.99176 0.06345 0.0
H141 H 0.44375 0.96633 0.07477 0.0
H142 H 0.58899 0.09837 0.0645 0.0
H143 H 0.54213 0.96178 0.11769 0.0
O144 O 0.54671 0.07155 0.10614 0.0
O145 O 0.52964 0.02606 0.12619 0.0
H146 H 0.49113 0.1092 0.02248 0.0
O147 O 0.45901 0.03079 0.09606 0.0
O148 O 0.47595 0.0773 0.07785 0.0
O149 O 0.48658 0.9963 0.03425 0.0
O150 O 0.50096 0.04266 0.01452 0.0
C151 C 0.45308 0.06032 0.09197 0.0
H152 H 0.60893 0.1522 0.04937 0.0
H153 H 0.50902 0.16366 0.00652 0.0
H154 H 0.43017 0.90926 0.08454 0.0
H155 H 0.53096 0.90471 0.12798 0.0
C156 C 0.54255 0.48391 0.54018 0.0
N157 N 0.5377 0.52854 0.63461 0.0
C158 C 0.52472 0.50159 0.64814 0.0
C159 C 0.53185 0.49667 0.68041 0.0
C160 C 0.55297 0.51944 0.69846 0.0
C161 C 0.5661 0.54681 0.68382 0.0
C162 C 0.55789 0.55104 0.65187 0.0
Zn163 Zn 0.52703 0.53784 0.58811 0.0
C164 C 0.58874 0.56908 0.55666 0.0
N165 N 0.50651 0.56156 0.49207 0.0
C166 C 0.49025 0.53806 0.4725 0.0
C167 C 0.51923 0.58946 0.48026 0.0
C168 C 0.51722 0.59387 0.44726 0.0
C169 C 0.50194 0.56933 0.42626 0.0
C170 C 0.48757 0.54151 0.43943 0.0
Zn171 Zn 0.51608 0.55203 0.53869 0.0
O172 O 0.54231 0.49078 0.57061 0.0
C173 C 0.45434 0.52072 0.56942 0.0
O174 O 0.53324 0.50512 0.52165 0.0
H175 H 0.53217 0.60778 0.49624 0.0
H176 H 0.50865 0.48405 0.63399 0.0
H177 H 0.4804 0.51602 0.48234 0.0
O178 O 0.47485 0.52003 0.59313 0.0
O179 O 0.46514 0.53275 0.54367 0.0
H180 H 0.56744 0.5726 0.64098 0.0
O181 O 0.49909 0.59881 0.55672 0.0
O182 O 0.51169 0.58493 0.60512 0.0
O183 O 0.56722 0.57111 0.53409 0.0
O184 O 0.57896 0.55575 0.58203 0.0
C185 C 0.50079 0.60587 0.58711 0.0
H186 H 0.52123 0.47529 0.69106 0.0
H187 H 0.58198 0.56517 0.6972 0.0
H188 H 0.52891 0.61559 0.43811 0.0
H189 H 0.47506 0.52223 0.42421 0.0
C190 C 0.01712 0.57812 0.99455 0.0
N191 N 0.01529 0.54267 0.08837 0.0
C192 C 0.02316 0.57293 0.10197 0.0
C193 C 0.01674 0.58049 0.13495 0.0
C194 C 0.00269 0.55648 0.15419 0.0
C195 C 0.99395 0.52581 0.13902 0.0
C196 C 1.00006 0.51958 0.10604 0.0
Zn197 Zn 0.02891 0.52833 0.04184 0.0
C198 C 0.96955 0.4958 0.00668 0.0
N199 N 0.05729 0.4939 0.946 0.0
C200 C 0.07725 0.51299 0.92733 0.0
C201 C 0.0448 0.46425 0.93422 0.0
C202 C 0.05183 0.45292 0.90233 0.0
C203 C 0.07213 0.47218 0.88233 0.0
C204 C 0.08513 0.50251 0.89533 0.0
Zn205 Zn 0.04427 0.51 0.99218 0.0
O206 O 0.01301 0.5734 0.02445 0.0
C207 C 0.10312 0.54383 0.02785 0.0
O208 O 0.03031 0.55588 0.97581 0.0
H209 H 0.02896 0.44947 0.94948 0.0
H210 H 0.0352 0.59096 0.08744 0.0
H211 H 0.08691 0.53647 0.9372 0.0
O212 O 0.07954 0.54791 0.04933 0.0
O213 O 0.09575 0.5283 1.00101 0.0
H214 H 0.99373 0.49573 0.0948 0.0
O215 O 0.05861 0.46417 0.00921 0.0
O216 O 0.04518 0.48323 0.05823 0.0
O217 O 0.99204 0.49272 0.98408 0.0
O218 O 0.9785 0.5089 0.03408 0.0
C219 C 0.0567 0.46033 0.03937 0.0
H220 H 0.02332 0.60469 0.14528 0.0
H221 H 0.98378 0.50615 0.15257 0.0
H222 H 0.04088 0.4296 0.89329 0.0
H223 H 0.10135 0.51797 0.88101 0.0
C224 C 0.16098 0.0969 0.36036 0.0
C225 C 0.14326 0.11378 0.33782 0.0
C226 C 0.144 0.08528 0.38765 0.0
C227 C 0.1082 0.09045 0.39276 0.0
C228 C 0.09006 0.10744 0.37014 0.0
C229 C 0.10778 0.11894 0.34302 0.0
C230 C 0.16449 0.06746 0.41109 0.0
C231 C 0.05189 0.11341 0.37457 0.0
C232 C 0.05975 0.0346 0.44891 0.0
C233 C 0.05881 0.05392 0.47824 0.0
C234 C 0.07507 0.04636 0.42082 0.0
C235 C 0.09003 0.07822 0.42194 0.0
C236 C 0.0889 0.09791 0.4514 0.0
C237 C 0.07332 0.0856 0.47907 0.0
C238 C 0.0756 0.02451 0.38999 0.0
C239 C 0.10465 0.13192 0.45385 0.0
H240 H 0.18837 0.09272 0.35674 0.0
H241 H 0.09376 0.13186 0.32581 0.0
H242 H 0.16321 0.0802 0.43558 0.0
H243 H 0.15304 0.04268 0.41296 0.0
H244 H 0.19215 0.06543 0.40373 0.0
H245 H 0.04142 0.1268 0.3548 0.0
H246 H 0.03718 0.08997 0.37546 0.0
H247 H 0.04729 0.12755 0.39796 0.0
H248 H 0.04857 0.01015 0.44787 0.0
H249 H 0.07278 0.10081 0.50151 0.0
H250 H 0.10279 0.01981 0.38254 0.0
H251 H 0.06351 0.03659 0.37016 0.0
H252 H 0.0617 1.00088 0.39268 0.0
H253 H 0.13289 0.13116 0.44863 0.0
H254 H 0.10073 0.14451 0.47818 0.0
H255 H 0.09311 0.14643 0.43553 0.0
C256 C 0.44571 0.92602 0.83534 0.0
C257 C 0.41233 0.93282 0.82531 0.0
C258 C 0.45876 0.93951 0.86514 0.0
C259 C 0.43786 0.96012 0.88549 0.0
C260 C 0.40414 0.96694 0.87554 0.0
C261 C 0.39186 0.95333 0.84565 0.0
C262 C 0.4949 0.93174 0.87486 0.0
C263 C 0.38089 0.98854 0.89658 0.0
C264 C 0.45658 0.97058 0.97564 0.0
C265 C 0.47387 1.00107 0.97867 0.0
C266 C 0.44495 0.95695 0.9455 0.0
C267 C 0.45084 0.97409 0.91752 0.0
C268 C 0.46821 0.00491 0.92036 0.0
C269 C 0.47941 0.01809 0.9509 0.0
C270 C 0.42624 0.92419 0.94364 0.0
C271 C 0.47506 0.02392 0.8911 0.0
H272 H 0.46179 0.91034 0.81982 0.0
H273 H 0.366 0.95875 0.83827 0.0
H274 H 0.51079 0.95447 0.87926 0.0
H275 H 0.49387 0.91957 0.89783 0.0
H276 H 0.50809 0.91576 0.85613 0.0
H277 H 0.35539 0.9916 0.88527 0.0
H278 H 0.37636 0.97819 0.92027 0.0
H279 H 0.39364 0.01283 0.90147 0.0
H280 H 0.45213 0.9572 0.99691 0.0
H281 H 0.4929 0.04155 0.95294 0.0
H282 H 0.44017 0.90693 0.92676 0.0
H283 H 0.39983 0.92627 0.93394 0.0
H284 H 0.42395 0.91388 0.9676 0.0
H285 H 0.49029 0.00935 0.87276 0.0
H286 H 0.48943 0.04726 0.89725 0.0
H287 H 0.45018 0.02912 0.87978 0.0
C288 C 0.60059 0.50682 0.88585 0.0
C289 C 0.60327 0.53901 0.89913 0.0
C290 C 0.59056 0.49964 0.85359 0.0
C291 C 0.58268 0.52524 0.83438 0.0
C292 C 0.58409 0.55766 0.84806 0.0
C293 C 0.59457 0.56416 0.8802 0.0
C294 C 0.58963 0.46482 0.83974 0.0
C295 C 0.5755 0.58561 0.82845 0.0
C296 C 0.59504 0.51933 0.74346 0.0
C297 C 0.56076 0.51574 0.73279 0.0
C298 C 0.60267 0.5206 0.77648 0.0
C299 C 0.57525 0.51867 0.79937 0.0
C300 C 0.54069 0.51345 0.78863 0.0
C301 C 0.53385 0.51185 0.75533 0.0
C302 C 0.63992 0.52566 0.78691 0.0
C303 C 0.51078 0.51147 0.81231 0.0
H304 H 0.60734 0.48727 0.90036 0.0
H305 H 0.59632 0.58906 0.89039 0.0
H306 H 0.56435 0.45853 0.82806 0.0
H307 H 0.61002 0.46156 0.82076 0.0
H308 H 0.59391 0.44757 0.85847 0.0
H309 H 0.57552 0.60911 0.8433 0.0
H310 H 0.59474 0.58762 0.8085 0.0
H311 H 0.54964 0.58125 0.81727 0.0
H312 H 0.61585 0.52204 0.72592 0.0
H313 H 0.50731 0.50929 0.74704 0.0
H314 H 0.64645 0.50781 0.80438 0.0
H315 H 0.64366 0.5502 0.79936 0.0
H316 H 0.65836 0.52339 0.76611 0.0
H317 H 0.51612 0.49416 0.83067 0.0
H318 H 0.48605 0.50385 0.80012 0.0
H319 H 0.50749 0.53559 0.82538 0.0
C320 C 0.02494 0.54288 0.34131 0.0
C321 C 0.00521 0.56367 0.36177 0.0
C322 C 0.02227 0.54282 0.30758 0.0
C323 C 1.00035 0.56497 0.29415 0.0
C324 C 0.98061 0.58624 0.31479 0.0
C325 C 0.98281 0.58491 0.34843 0.0
C326 C 0.04289 0.51905 0.28634 0.0
C327 C 0.95793 0.61095 0.30139 0.0
C328 C 0.02391 0.58185 0.20773 0.0
C329 C 0.99932 0.56219 0.19007 0.0
C330 C 0.02339 0.58434 0.24169 0.0
C331 C 0.99842 0.56591 0.25845 0.0
C332 C 0.97285 0.54691 0.24095 0.0
C333 C 0.97316 0.54585 0.20706 0.0
C334 C 0.0504 0.60575 0.25959 0.0
C335 C 0.94616 0.52643 0.25792 0.0
H336 H 0.04216 0.5264 0.35171 0.0
H337 H 0.9679 0.60129 0.36435 0.0
H338 H 0.02538 0.50455 0.2694 0.0
H339 H 0.06191 0.53235 0.27151 0.0
H340 H 0.05713 0.50222 0.30062 0.0
H341 H 0.94435 0.62581 0.32076 0.0
H342 H 0.97395 0.62738 0.28681 0.0
H343 H 0.93826 0.5987 0.28502 0.0
H344 H 0.0445 0.59438 0.19517 0.0
H345 H 0.95332 0.53141 0.19387 0.0
H346 H 0.06905 0.59049 0.2711 0.0
H347 H 0.03806 0.6213 0.27916 0.0
H348 H 0.06508 0.62155 0.24329 0.0
H349 H 0.95938 0.50797 0.27096 0.0
H350 H 0.92737 0.51376 0.24084 0.0
H351 H 0.93161 0.54165 0.27623 0.0
C352 C 0.28971 0.1348 0.18879 0.0
C353 C 0.26503 0.1473 0.16891 0.0
C354 C 0.3202 0.12109 0.17579 0.0
C355 C 0.32597 0.11892 0.14188 0.0
C356 C 0.30104 0.13129 0.1216 0.0
C357 C 0.27114 0.1457 0.13537 0.0
C358 C 0.34637 0.10906 0.19845 0.0
C359 C 0.30572 0.12886 0.0853 0.0
C360 C 0.41874 0.10893 0.1103 0.0
C361 C 0.42026 0.07517 0.10399 0.0
C362 C 0.38832 0.12343 0.12251 0.0
C363 C 0.3582 0.10388 0.12783 0.0
C364 C 0.35934 0.06983 0.1208 0.0
C365 C 0.39043 0.05587 0.10941 0.0
C366 C 0.38867 0.15967 0.13042 0.0
C367 C 0.32771 0.04811 0.12539 0.0
H368 H 0.28541 0.13612 0.21475 0.0
H369 H 0.25213 0.15504 0.11978 0.0
H370 H 0.34965 0.08266 0.19314 0.0
H371 H 0.372 0.12128 0.19472 0.0
H372 H 0.33861 0.11346 0.22427 0.0
H373 H 0.28368 0.13894 0.07282 0.0
H374 H 0.32993 0.14207 0.07857 0.0
H375 H 0.30832 0.1031 0.07631 0.0
H376 H 0.4417 0.12404 0.10638 0.0
H377 H 0.39127 0.02981 0.10439 0.0
H378 H 0.38268 0.165 0.1565 0.0
H379 H 0.36833 0.17071 0.11659 0.0
H380 H 0.4141 0.1715 0.12483 0.0
H381 H 0.32011 0.04918 0.15134 0.0
H382 H 0.33218 0.02244 0.11701 0.0
H383 H 0.30555 0.05668 0.11193 0.0
C384 C 0.23323 0.93017 0.67799 0.0
C385 C 0.2658 0.9381 0.66473 0.0
C386 C 0.20252 0.93857 0.66339 0.0
C387 C 0.20436 0.9551 0.63468 0.0
C388 C 0.23708 0.96208 0.62048 0.0
C389 C 0.26741 0.95359 0.63572 0.0
C390 C 0.16814 0.93079 0.67936 0.0
C391 C 0.24009 0.9794 0.58972 0.0
C392 C 0.1218 0.95782 0.58586 0.0
C393 C 0.10974 0.98855 0.59621 0.0
C394 C 0.15285 0.94676 0.59775 0.0
C395 C 0.17215 0.96681 0.62069 0.0
C396 C 0.16029 0.99796 0.63095 0.0
C397 C 0.12933 0.00848 0.61852 0.0
C398 C 0.16479 0.9135 0.58606 0.0
C399 C 0.18001 0.02003 0.65549 0.0
H400 H 0.23167 0.91818 0.70036 0.0
H401 H 0.29242 0.95967 0.62519 0.0
H402 H 0.15533 0.95364 0.68749 0.0
H403 H 0.15064 0.91714 0.6618 0.0
H404 H 0.17103 0.91629 0.70061 0.0
H405 H 0.26721 0.98089 0.58048 0.0
H406 H 0.22357 0.96681 0.57067 0.0
H407 H 0.23066 0.00439 0.59417 0.0
H408 H 0.10688 0.94229 0.56857 0.0
H409 H 0.12024 0.03224 0.6267 0.0
H410 H 0.1657 0.89796 0.6067 0.0
H411 H 0.19145 0.91532 0.57586 0.0
H412 H 0.14749 0.90137 0.56732 0.0
H413 H 0.18179 0.00815 0.67851 0.0
H414 H 0.16757 0.04372 0.66057 0.0
H415 H 0.20688 0.02459 0.64669 0.0
C416 C 0.77751 0.5377 0.99572 0.0
C417 C 0.75223 0.51349 0.98709 0.0
C418 C 0.81274 0.53067 0.99646 0.0
C419 C 0.82311 0.49848 0.98881 0.0
C420 C 0.79796 0.47398 0.97958 0.0
C421 C 0.7629 0.48189 0.97839 0.0
C422 C 0.83884 0.55768 0.00589 0.0
C423 C 0.80804 0.43936 0.9714 0.0
C424 C 0.91907 0.4924 0.96952 0.0
C425 C 0.93239 0.48893 1.00032 0.0
C426 C 0.88318 0.49366 0.96486 0.0
C427 C 0.86024 0.49072 0.99153 0.0
C428 C 0.87352 0.48433 0.022 0.0
C429 C 0.90948 0.48387 0.02612 0.0
C430 C 0.87014 0.50089 0.93208 0.0
C431 C 0.84989 0.48025 0.05085 0.0
H432 H 0.76979 0.5623 1.0022 0.0
H433 H 0.74413 0.46324 0.97044 0.0
H434 H 0.85171 0.55265 0.02867 0.0
H435 H 0.85931 0.55903 0.98694 0.0
H436 H 0.82675 0.58168 0.00949 0.0
H437 H 0.78538 0.42315 0.96452 0.0
H438 H 0.82714 0.43825 0.95115 0.0
H439 H 0.82072 0.42996 0.9925 0.0
H440 H 0.93672 0.49654 0.94956 0.0
H441 H 0.91974 0.48094 0.04992 0.0
H442 H 0.86176 0.52635 0.93313 0.0
H443 H 0.84731 0.48503 0.9251 0.0
H444 H 0.89044 0.49774 0.91296 0.0
H445 H 0.83911 0.50401 0.05913 0.0
H446 H 0.86374 0.47092 0.07138 0.0
H447 H 0.82774 0.46338 0.04417 0.0
C448 C 0.77712 0.65719 0.54587 0.0
C449 C 0.80101 0.63492 0.53269 0.0
C450 C 0.74217 0.64784 0.55052 0.0
C451 C 0.73091 0.61545 0.54182 0.0
C452 C 0.75491 0.59286 0.52859 0.0
C453 C 0.78961 0.60286 0.52417 0.0
C454 C 0.71726 0.67259 0.56467 0.0
C455 C 0.74391 0.5581 0.51902 0.0
C456 C 0.64842 0.58049 0.57859 0.0
C457 C 0.62481 0.58191 0.55333 0.0
C458 C 0.68287 0.59194 0.57543 0.0
C459 C 0.69399 0.60506 0.54629 0.0
C460 C 0.67017 0.607 0.5209 0.0
C461 C 0.63587 0.59543 0.52472 0.0
C462 C 0.70752 0.58949 0.60306 0.0
C463 C 0.68108 0.62079 0.48945 0.0
H464 H 0.78568 0.682 0.55252 0.0
H465 H 0.80785 0.58543 0.51401 0.0
H466 H 0.696 0.6753 0.54743 0.0
H467 H 0.70523 0.66421 0.58717 0.0
H468 H 0.73015 0.69674 0.57035 0.0
H469 H 0.76582 0.54351 0.50921 0.0
H470 H 0.7327 0.54652 0.54027 0.0
H471 H 0.72342 0.55735 0.50044 0.0
H472 H 0.64006 0.57022 0.60082 0.0
H473 H 0.6178 0.59671 0.5051 0.0
H474 H 0.71947 0.61369 0.61025 0.0
H475 H 0.72884 0.5733 0.5952 0.0
H476 H 0.69445 0.57989 0.62457 0.0
H477 H 0.69245 0.64566 0.49421 0.0
H478 H 0.65909 0.62172 0.47256 0.0
H479 H 0.70143 0.60576 0.47737 0.0
C480 C 0.10377 0.28963 0.10883 0.0
C481 C 0.13434 0.29305 0.12699 0.0
C482 C 0.09089 0.31581 0.09321 0.0
C483 C 0.10916 0.34621 0.09529 0.0
C484 C 0.14055 0.34955 0.11283 0.0
C485 C 0.15257 0.3231 0.12862 0.0
C486 C 0.05715 0.31116 0.07519 0.0
C487 C 0.16121 0.38127 0.11538 0.0
C488 C 0.08976 0.40849 0.03447 0.0
C489 C 0.06886 0.43023 0.05289 0.0
C490 C 0.103 0.3811 0.04784 0.0
C491 C 0.09478 0.37487 0.08032 0.0
C492 C 0.07309 0.39639 0.09877 0.0
C493 C 0.06067 0.4238 0.08497 0.0
C494 C 0.12635 0.35915 0.02738 0.0
C495 C 0.06316 0.39059 0.13327 0.0
H496 H 0.08934 0.26663 0.10748 0.0
H497 H 0.17624 0.32607 0.14244 0.0
H498 H 0.03766 0.32759 0.08665 0.0
H499 H 0.06084 0.31763 0.04986 0.0
H500 H 0.04658 0.28582 0.07492 0.0
H501 H 0.18606 0.37945 0.12821 0.0
H502 H 0.16692 0.38937 0.09088 0.0
H503 H 0.1458 0.40029 0.12856 0.0
H504 H 0.09646 0.41327 0.00975 0.0
H505 H 0.04446 0.44029 0.09945 0.0
H506 H 0.1154 0.33394 0.0258 0.0
H507 H 0.15211 0.35873 0.03888 0.0
H508 H 0.12999 0.36702 0.00248 0.0
H509 H 0.05071 0.36611 0.13435 0.0
H510 H 0.04507 0.40886 0.144 0.0
H511 H 0.08672 0.39137 0.14837 0.0
C512 C 0.59413 0.35031 1.00096 0.0
C513 C 0.62817 0.35664 0.99029 0.0
C514 C 0.58204 0.31855 0.0053 0.0
C515 C 0.60447 0.29249 0.99861 0.0
C516 C 0.63853 0.29859 0.98695 0.0
C517 C 0.65002 0.33063 0.98301 0.0
C518 C 0.5456 0.31298 0.01792 0.0
C519 C 0.6631 0.27136 0.97939 0.0
C520 C 0.58809 0.21652 0.04301 0.0
C521 C 0.57136 0.19574 0.01942 0.0
C522 C 0.59891 0.24807 0.03652 0.0
C523 C 0.59296 0.25908 0.00562 0.0
C524 C 0.57601 0.23827 0.98168 0.0
C525 C 0.56525 0.20682 0.98893 0.0
C526 C 0.61661 0.26966 0.06279 0.0
C527 C 0.56944 0.24916 0.94841 0.0
H528 H 0.57705 0.37026 0.00659 0.0
H529 H 0.67629 0.33529 0.97458 0.0
H530 H 0.53127 0.29497 1.00149 0.0
H531 H 0.54646 0.30286 0.04193 0.0
H532 H 0.53088 0.33566 0.02042 0.0
H533 H 0.68797 0.27994 0.96865 0.0
H534 H 0.66881 0.25965 1.00186 0.0
H535 H 0.65093 0.25249 0.96233 0.0
H536 H 0.59237 0.20819 0.06678 0.0
H537 H 0.55256 0.1907 0.97057 0.0
H538 H 0.60177 0.29196 0.06809 0.0
H539 H 0.64288 0.27732 0.0545 0.0
H540 H 0.61914 0.25741 0.08556 0.0
H541 H 0.5535 0.27104 0.95035 0.0
H542 H 0.55591 0.23003 0.93255 0.0
H543 H 0.59438 0.25597 0.93669 0.0
C544 C 0.96857 0.69135 0.51654 0.0
C545 C 0.9896 0.67683 0.49216 0.0
C546 C 0.96627 0.72524 0.52053 0.0
C547 C 0.98506 0.74485 0.49928 0.0
C548 C 0.00569 0.73016 0.47418 0.0
C549 C 0.00803 0.69635 0.47118 0.0
C550 C 0.9446 0.74008 0.548 0.0
C551 C 0.02564 0.75018 0.45069 0.0
C552 C 0.96126 0.83257 0.49276 0.0
C553 C 0.98781 0.84912 0.51057 0.0
C554 C 0.95973 0.7985 0.4891 0.0
C555 C 0.98489 0.7808 0.50427 0.0
C556 C 0.01113 0.79754 0.52304 0.0
C557 C 0.01246 0.83151 0.52569 0.0
C558 C 0.93178 0.78147 0.46841 0.0
C559 C 0.03804 0.77958 0.5401 0.0
H560 H 0.95476 0.67629 0.53309 0.0
H561 H 0.02406 0.68509 0.45211 0.0
H562 H 0.96157 0.75483 0.56524 0.0
H563 H 0.9257 0.75663 0.53872 0.0
H564 H 0.93023 0.72144 0.56135 0.0
H565 H 0.03855 0.73489 0.43122 0.0
H566 H 0.00799 0.76658 0.4394 0.0
H567 H 0.04573 0.76564 0.46378 0.0
H568 H 0.94221 0.8463 0.48113 0.0
H569 H 0.03265 0.84441 0.53991 0.0
H570 H 0.91675 0.76391 0.48251 0.0
H571 H 0.94379 0.76745 0.44755 0.0
H572 H 0.9136 0.79871 0.45906 0.0
H573 H 0.0252 0.76187 0.5556 0.0
H574 H 0.05532 0.79619 0.5554 0.0
H575 H 0.05423 0.76567 0.52202 0.0
C576 C 0.4123 0.75901 0.67939 0.0
C577 C 0.43299 0.78759 0.67932 0.0
C578 C 0.42325 0.72981 0.66357 0.0
C579 C 0.45587 0.72899 0.6475 0.0
C580 C 0.47698 0.75769 0.64749 0.0
C581 C 0.46523 0.78664 0.66325 0.0
C582 C 0.39987 0.69982 0.66403 0.0
C583 C 0.51208 0.75778 0.63097 0.0
C584 C 0.4973 0.64684 0.63455 0.0
C585 C 0.49007 0.63789 0.60191 0.0
C586 C 0.48678 0.67654 0.64946 0.0
C587 C 0.46823 0.69787 0.63147 0.0
C588 C 0.46104 0.68914 0.59844 0.0
C589 C 0.4722 0.65933 0.584 0.0
C590 C 0.49532 0.68499 0.68461 0.0
C591 C 0.44113 0.7111 0.57849 0.0
H592 H 0.38727 0.7595 0.69156 0.0
H593 H 0.48143 0.80856 0.66305 0.0
H594 H 0.39421 0.69008 0.63891 0.0
H595 H 0.4131 0.68066 0.67605 0.0
H596 H 0.37494 0.70464 0.67691 0.0
H597 H 0.52529 0.78212 0.63299 0.0
H598 H 0.52889 0.74033 0.64177 0.0
H599 H 0.50932 0.74975 0.60496 0.0
H600 H 0.51128 0.63056 0.64859 0.0
H601 H 0.46644 0.65262 0.55882 0.0
H602 H 0.47106 0.68778 0.69904 0.0
H603 H 0.51004 0.70853 0.68728 0.0
H604 H 0.51085 0.66622 0.69493 0.0
H605 H 0.41501 0.71489 0.58935 0.0
H606 H 0.43805 0.70105 0.55304 0.0
H607 H 0.45457 0.73524 0.57851 0.0
C608 C 0.94711 0.90097 0.78171 0.0
C609 C 0.91402 0.90694 0.7949 0.0
C610 C 0.95926 0.9161 0.75403 0.0
C611 C 0.93775 0.93746 0.73881 0.0
C612 C 0.90425 0.94328 0.75185 0.0
C613 C 0.89294 0.92819 0.77964 0.0
C614 C 0.99524 0.90935 0.74115 0.0
C615 C 0.88015 0.96542 0.73633 0.0
C616 C 0.97665 0.99944 0.68295 0.0
C617 C 0.97095 0.98383 0.65212 0.0
C618 C 0.96648 0.98451 0.7113 0.0
C619 C 0.9498 0.95331 0.70893 0.0
C620 C 0.94363 0.93765 0.67786 0.0
C621 C 0.95438 0.95294 0.64999 0.0
C622 C 0.97382 1.00206 0.74385 0.0
C623 C 0.92552 0.90466 0.67399 0.0
H624 H 0.96373 0.88479 0.79325 0.0
H625 H 0.86727 0.93299 0.78934 0.0
H626 H 0.99381 0.89842 0.71592 0.0
H627 H 0.01074 0.93241 0.74062 0.0
H628 H 0.00905 0.89268 0.75597 0.0
H629 H 0.85484 0.96736 0.7493 0.0
H630 H 0.89234 0.99006 0.73585 0.0
H631 H 0.87531 0.95631 0.71088 0.0
H632 H 0.98966 0.02313 0.68498 0.0
H633 H 0.94979 0.94054 0.62638 0.0
H634 H 0.98975 0.98689 0.75844 0.0
H635 H 0.94918 0.00625 0.75734 0.0
H636 H 0.98767 0.02581 0.7417 0.0
H637 H 0.94023 0.88685 0.68654 0.0
H638 H 0.92267 0.89567 0.6482 0.0
H639 H 0.89938 0.90572 0.68541 0.0
C640 C 0.64638 0.11022 0.2952 0.0
C641 C 0.62662 0.13303 0.31345 0.0
C642 C 0.63424 0.09539 0.26557 0.0
C643 C 0.60141 0.1033 0.25402 0.0
C644 C 0.58101 0.12565 0.27276 0.0
C645 C 0.59388 0.14029 0.30206 0.0
C646 C 0.65688 0.07185 0.24624 0.0
C647 C 0.54575 0.13458 0.26157 0.0
C648 C 0.58147 0.09407 0.16399 0.0
C649 C 0.56086 0.06537 0.16137 0.0
C650 C 0.59559 0.10612 0.19376 0.0
C651 C 0.58877 0.08929 0.22183 0.0
C652 C 0.56843 0.06004 0.21929 0.0
C653 C 0.55486 0.04837 0.1891 0.0
C654 C 0.61733 0.13725 0.19528 0.0
C655 C 0.5603 0.04148 0.24862 0.0
H656 H 0.67171 0.10446 0.30368 0.0
H657 H 0.57823 0.15769 0.31598 0.0
H658 H 0.64253 0.0484 0.24092 0.0
H659 H 0.6639 0.08154 0.22269 0.0
H660 H 0.68111 0.06727 0.25909 0.0
H661 H 0.53243 0.1512 0.27963 0.0
H662 H 0.54843 0.14656 0.23855 0.0
H663 H 0.52907 0.11241 0.25675 0.0
H664 H 0.58647 0.10731 0.14272 0.0
H665 H 0.53898 0.02619 0.18738 0.0
H666 H 0.64281 0.13347 0.20622 0.0
H667 H 0.60428 0.15616 0.21095 0.0
H668 H 0.62181 0.14646 0.17102 0.0
H669 H 0.58461 0.03587 0.26069 0.0
H670 H 0.54544 0.01843 0.2424 0.0
H671 H 0.54492 0.05662 0.26638 0.0
C672 C 0.49091 0.57563 0.23328 0.0
C673 C 0.52368 0.58405 0.22077 0.0
C674 C 0.48567 0.57326 0.26661 0.0
C675 C 0.51387 0.57949 0.28791 0.0
C676 C 0.547 0.58798 0.27545 0.0
C677 C 0.55151 0.59013 0.24203 0.0
C678 C 0.45 0.56405 0.27905 0.0
C679 C 0.57771 0.59479 0.29742 0.0
C680 C 0.4972 0.60121 0.37734 0.0
C681 C 0.50306 0.57173 0.39066 0.0
C682 C 0.50006 0.60399 0.34384 0.0
C683 C 0.50898 0.57661 0.32323 0.0
C684 C 0.51434 0.54666 0.33646 0.0
C685 C 0.5114 0.5446 0.37 0.0
C686 C 0.49407 0.63631 0.33055 0.0
C687 C 0.52395 0.51694 0.31527 0.0
H688 H 0.46926 0.57094 0.21702 0.0
H689 H 0.5769 0.59673 0.23258 0.0
H690 H 0.45104 0.54142 0.29173 0.0
H691 H 0.44085 0.58329 0.29691 0.0
H692 H 0.43074 0.56028 0.25933 0.0
H693 H 0.60167 0.60137 0.28392 0.0
H694 H 0.57206 0.61493 0.31572 0.0
H695 H 0.58264 0.57314 0.31072 0.0
H696 H 0.49039 0.62216 0.39313 0.0
H697 H 0.51657 0.52187 0.38013 0.0
H698 H 0.47358 0.63361 0.31194 0.0
H699 H 0.5181 0.64514 0.31857 0.0
H700 H 0.48628 0.65497 0.3497 0.0
H701 H 0.50446 0.51171 0.29599 0.0
H702 H 0.5258 0.49516 0.3292 0.0
H703 H 0.54929 0.52144 0.30316 0.0
C704 C 0.08717 0.41017 0.69411 0.0
C705 C 0.12205 0.41135 0.68449 0.0
C706 C 0.07749 0.41869 0.72636 0.0
C707 C 0.10335 0.42914 0.74913 0.0
C708 C 0.1386 0.43044 0.73936 0.0
C709 C 0.14748 0.42163 0.70711 0.0
C710 C 0.03969 0.41672 0.73602 0.0
C711 C 0.16691 0.44173 0.76279 0.0
C712 C 0.07932 0.48277 0.82377 0.0
C713 C 0.07933 0.46087 0.84804 0.0
C714 C 0.08657 0.47265 0.79141 0.0
C715 C 0.09367 0.43973 0.783 0.0
C716 C 0.09314 0.41733 0.8072 0.0
C717 C 0.08615 0.4282 0.83946 0.0
C718 C 0.08717 0.4973 0.76628 0.0
C719 C 0.10054 0.38201 0.79908 0.0
H720 H 0.06754 0.40235 0.67648 0.0
H721 H 0.17435 0.42358 0.69936 0.0
H722 H 0.036 0.40089 0.75633 0.0
H723 H 0.03092 0.44115 0.74468 0.0
H724 H 0.02295 0.40709 0.71567 0.0
H725 H 0.19313 0.44057 0.75145 0.0
H726 H 0.16265 0.4671 0.77224 0.0
H727 H 0.16622 0.42659 0.7838 0.0
H728 H 0.07344 0.50791 0.83003 0.0
H729 H 0.08664 0.41116 0.85806 0.0
H730 H 0.06867 0.48959 0.74671 0.0
H731 H 0.11336 0.49891 0.75502 0.0
H732 H 0.08039 0.52183 0.77668 0.0
H733 H 0.08304 0.37163 0.77967 0.0
H734 H 0.09727 0.36737 0.82038 0.0
H735 H 0.12749 0.37972 0.78974 0.0
C736 C 0.76547 0.94609 0.98831 0.0
C737 C 0.76393 0.92994 0.95729 0.0
C738 C 0.7354 0.9575 0.00433 0.0
C739 C 0.70285 0.95291 0.98897 0.0
C740 C 0.70098 0.93602 0.95796 0.0
C741 C 0.73146 0.92466 0.94257 0.0
C742 C 0.7386 0.97515 0.03744 0.0
C743 C 0.66688 0.93072 0.94063 0.0
C744 C 0.61961 0.96281 0.03929 0.0
C745 C 0.61067 0.99452 0.03367 0.0
C746 C 0.64957 0.949 0.02511 0.0
C747 C 0.67109 0.9672 0.00463 0.0
C748 C 0.66228 0.99925 0.99903 0.0
C749 C 0.63235 0.0125 0.01364 0.0
C750 C 0.65813 0.91486 0.03192 0.0
C751 C 0.68433 0.01952 0.9773 0.0
H752 H 0.79032 0.95022 1.00003 0.0
H753 H 0.72989 0.91227 0.91863 0.0
H754 H 0.73103 1.00067 0.03637 0.0
H755 H 0.72069 0.96381 0.05481 0.0
H756 H 0.76539 0.97512 0.04689 0.0
H757 H 0.66949 0.91591 0.91729 0.0
H758 H 0.64766 0.91843 0.95612 0.0
H759 H 0.65633 0.95447 0.93576 0.0
H760 H 0.60309 0.94867 0.05469 0.0
H761 H 0.62574 0.03697 0.00901 0.0
H762 H 0.68433 0.91468 0.04258 0.0
H763 H 0.65865 0.89922 0.00899 0.0
H764 H 0.63911 0.90408 0.04875 0.0
H765 H 0.71113 0.02238 0.98666 0.0
H766 H 0.67394 0.04401 0.97537 0.0
H767 H 0.6859 0.0071 0.95268 0.0
C768 C 0.8099 0.12265 0.43997 0.0
C769 C 0.77554 0.11928 0.45106 0.0
C770 C 0.8373 0.10909 0.4558 0.0
C771 C 0.83033 0.09186 0.48359 0.0
C772 C 0.79568 0.08813 0.49477 0.0
C773 C 0.76872 0.10177 0.47834 0.0
C774 C 0.87381 0.11341 0.44288 0.0
C775 C 0.78712 0.07007 0.52435 0.0
C776 C 0.89889 0.0342 0.50745 0.0
C777 C 0.91734 0.05332 0.53131 0.0
C778 C 0.87019 0.04619 0.49218 0.0
C779 C 0.85941 0.07804 0.50103 0.0
C780 C 0.87726 0.09712 0.52576 0.0
C781 C 0.90603 0.0846 0.54051 0.0
C782 C 0.852 0.02506 0.46589 0.0
C783 C 0.86646 0.13109 0.53614 0.0
H784 H 0.81548 0.13606 0.41892 0.0
H785 H 0.74231 0.09908 0.48718 0.0
H786 H 0.89021 0.12684 0.46152 0.0
H787 H 0.88531 0.08939 0.43734 0.0
H788 H 0.87484 0.12683 0.42063 0.0
H789 H 0.75885 0.06894 0.52972 0.0
H790 H 0.79644 0.04497 0.52091 0.0
H791 H 0.80067 0.08209 0.54568 0.0
H792 H 0.90737 0.01003 0.50008 0.0
H793 H 0.92001 0.09958 0.55892 0.0
H794 H 0.85473 0.03647 0.44256 0.0
H795 H 0.82388 0.02278 0.47147 0.0
H796 H 0.86258 1.00037 0.46279 0.0
H797 H 0.86975 0.14669 0.5156 0.0
H798 H 0.88183 0.14216 0.55684 0.0
H799 H 0.83861 0.1309 0.54314 0.0
C800 C 0.29357 0.62375 0.0614 0.0
C801 C 0.31395 0.60101 0.0751 0.0
C802 C 0.25906 0.61604 0.05267 0.0
C803 C 0.24461 0.58491 0.05785 0.0
C804 C 0.26503 0.56189 0.07169 0.0
C805 C 0.29944 0.5702 0.08011 0.0
C806 C 0.23804 0.64119 0.03796 0.0
C807 C 0.2505 0.52847 0.07772 0.0
C808 C 0.14713 0.57171 0.06497 0.0
C809 C 0.13899 0.55609 0.03466 0.0
C810 C 0.18128 0.58187 0.07257 0.0
C811 C 0.20797 0.57637 0.04927 0.0
C812 C 0.19984 0.56137 0.01834 0.0
C813 C 0.16544 0.55137 0.0114 0.0
C814 C 0.18891 0.59777 0.10583 0.0
C815 C 0.22762 0.55522 0.99284 0.0
H816 H 0.30459 0.6476 0.05741 0.0
H817 H 0.31495 0.55248 0.0907 0.0
H818 H 0.22855 0.63164 0.01383 0.0
H819 H 0.21491 0.64665 0.05333 0.0
H820 H 0.25321 0.66416 0.03519 0.0
H821 H 0.26986 0.51332 0.0885 0.0
H822 H 0.22772 0.53048 0.09428 0.0
H823 H 0.24143 0.5158 0.05468 0.0
H824 H 0.12687 0.57554 0.08308 0.0
H825 H 0.15937 0.53943 0.98789 0.0
H826 H 0.20268 0.62153 0.10381 0.0
H827 H 0.20625 0.58241 0.1188 0.0
H828 H 0.16501 0.60165 0.12064 0.0
H829 H 0.24223 0.57812 0.98866 0.0
H830 H 0.21679 0.54486 0.96946 0.0
H831 H 0.24643 0.53812 1.00133 0.0
C832 C 0.2512 0.47709 0.57747 0.0
C833 C 0.24432 0.44349 0.57424 0.0
C834 C 0.28538 0.48987 0.57825 0.0
C835 C 0.31334 0.46855 0.57526 0.0
C836 C 0.30656 0.4346 0.57215 0.0
C837 C 0.27213 0.42248 0.57191 0.0
C838 C 0.29156 0.5262 0.58199 0.0
C839 C 0.33569 0.41111 0.56846 0.0
C840 C 0.39872 0.50196 0.54301 0.0
C841 C 0.41836 0.50731 0.57127 0.0
C842 C 0.36466 0.48912 0.54399 0.0
C843 C 0.34963 0.4818 0.57402 0.0
C844 C 0.36922 0.48726 0.60269 0.0
C845 C 0.40347 0.49974 0.60095 0.0
C846 C 0.34479 0.48331 0.51282 0.0
C847 C 0.3539 0.48011 0.63521 0.0
H848 H 0.22984 0.49348 0.57955 0.0
H849 H 0.267 0.39649 0.56937 0.0
H850 H 0.30867 0.53289 0.60291 0.0
H851 H 0.30502 0.53454 0.56014 0.0
H852 H 0.26706 0.53939 0.58562 0.0
H853 H 0.32608 0.38542 0.56697 0.0
H854 H 0.35098 0.41537 0.54622 0.0
H855 H 0.35358 0.41513 0.5892 0.0
H856 H 0.41009 0.50754 0.51993 0.0
H857 H 0.41847 0.50391 0.62288 0.0
H858 H 0.32117 0.4979 0.51405 0.0
H859 H 0.33619 0.45743 0.50928 0.0
H860 H 0.36048 0.48969 0.4914 0.0
H861 H 0.33038 0.49443 0.64017 0.0
H862 H 0.37247 0.48587 0.65523 0.0
H863 H 0.34575 0.45412 0.63505 0.0
C864 C 0.97756 0.75346 0.93131 0.0
C865 C 0.94581 0.75262 0.91502 0.0
C866 C 0.99017 0.7255 0.94408 0.0
C867 C 0.9705 0.69586 0.94089 0.0
C868 C 0.93856 0.69481 0.92426 0.0
C869 C 0.92673 0.72304 0.91145 0.0
C870 C 0.02451 0.72777 0.96125 0.0
C871 C 0.91655 0.66391 0.92041 0.0
C872 C 0.01466 0.61551 0.94937 0.0
C873 C 0.00601 0.60876 0.98129 0.0
C874 C 0.0037 0.64381 0.93613 0.0
C875 C 0.98318 0.66601 0.95502 0.0
C876 C 0.97445 0.65941 0.9873 0.0
C877 C 0.98608 0.63106 1.00006 0.0
C878 C 0.01399 0.64988 0.90178 0.0
C879 C 0.95241 0.68214 0.00828 0.0
H880 H 0.99258 0.77609 0.93426 0.0
H881 H 0.9021 0.72203 0.89911 0.0
H882 H 0.02068 0.7219 0.98676 0.0
H883 H 0.0423 0.70974 0.94968 0.0
H884 H 0.03716 0.75229 0.96099 0.0
H885 H 0.89245 0.66695 0.90677 0.0
H886 H 0.93153 0.64438 0.90755 0.0
H887 H 0.90935 0.65571 0.94457 0.0
H888 H 0.03011 0.5986 0.9346 0.0
H889 H 0.97908 0.62614 0.02467 0.0
H890 H 0.02802 0.6737 0.90121 0.0
H891 H 0.99047 0.65087 0.88684 0.0
H892 H 0.03078 0.63078 0.89053 0.0
H893 H 0.96498 0.70672 0.01059 0.0
H894 H 0.94802 0.67375 0.0329 0.0
H895 H 0.92689 0.68438 0.9968 0.0
C896 C 0.51529 0.71652 0.09384 0.0
C897 C 0.48929 0.6955 0.10496 0.0
C898 C 0.5103 0.74993 0.09399 0.0
C899 C 0.47859 0.76267 0.10577 0.0
C900 C 0.45197 0.74151 0.11653 0.0
C901 C 0.45772 0.70814 0.11614 0.0
C902 C 0.53931 0.77169 0.08222 0.0
C903 C 0.41789 0.75424 0.12938 0.0
C904 C 0.48551 0.85149 0.13567 0.0
C905 C 0.47466 0.86658 0.10853 0.0
C906 C 0.48537 0.81757 0.13567 0.0
C907 C 0.47411 0.79831 0.10786 0.0
C908 C 0.46144 0.81336 0.08104 0.0
C909 C 0.46191 0.84733 0.08168 0.0
C910 C 0.49886 0.80241 0.16485 0.0
C911 C 0.44912 0.79364 0.051 0.0
H912 H 0.53979 0.70684 0.0853 0.0
H913 H 0.43803 0.69222 0.12589 0.0
H914 H 0.52988 0.78611 0.06281 0.0
H915 H 0.54821 0.78907 0.10234 0.0
H916 H 0.56186 0.7578 0.07274 0.0
H917 H 0.39894 0.7344 0.13449 0.0
H918 H 0.42231 0.76975 0.15206 0.0
H919 H 0.40637 0.76959 0.11178 0.0
H920 H 0.49493 0.86625 0.15665 0.0
H921 H 0.45384 0.85879 0.06046 0.0
H922 H 0.52346 0.79029 0.15838 0.0
H923 H 0.48013 0.78356 0.17275 0.0
H924 H 0.50377 0.82059 0.18553 0.0
H925 H 0.47146 0.78164 0.03866 0.0
H926 H 0.43674 0.8088 0.03368 0.0
H927 H 0.43029 0.77424 0.05747 0.0
C928 C 0.14086 0.31549 0.71253 0.0
C929 C 0.1708 0.30511 0.72687 0.0
C930 C 0.11739 0.29302 0.69678 0.0
C931 C 0.12453 0.25955 0.69485 0.0
C932 C 0.15472 0.24908 0.70953 0.0
C933 C 0.1772 0.27197 0.72576 0.0
C934 C 0.08507 0.30508 0.68224 0.0
C935 C 0.16372 0.21372 0.7075 0.0
C936 C 0.05884 0.19032 0.67657 0.0
C937 C 0.06685 0.18109 0.64412 0.0
C938 C 0.07566 0.21737 0.69287 0.0
C939 C 0.1015 0.23526 0.67651 0.0
C940 C 0.10812 0.22728 0.64326 0.0
C941 C 0.09043 0.2006 0.62742 0.0
C942 C 0.06723 0.22561 0.72813 0.0
C943 C 0.13559 0.24552 0.62489 0.0
H944 H 0.13552 0.34113 0.71412 0.0
H945 H 0.20037 0.26401 0.7369 0.0
H946 H 0.08541 0.29946 0.65565 0.0
H947 H 0.0618 0.29244 0.69196 0.0
H948 H 0.08249 0.33166 0.68727 0.0
H949 H 0.18827 0.20965 0.72003 0.0
H950 H 0.1426 0.19915 0.71842 0.0
H951 H 0.16635 0.20451 0.68177 0.0
H952 H 0.04073 0.1755 0.68977 0.0
H953 H 0.09608 0.1943 0.60209 0.0
H954 H 0.0644 0.25214 0.73296 0.0
H955 H 0.0888 0.21844 0.74321 0.0
H956 H 0.04303 0.21291 0.73586 0.0
H957 H 0.13188 0.27202 0.62831 0.0
H958 H 0.13546 0.23817 0.59856 0.0
H959 H 0.16152 0.24086 0.63447 0.0
C960 C 0.55981 0.30201 0.46457 0.0
C961 C 0.59369 0.29427 0.45485 0.0
C962 C 0.55244 0.33259 0.47966 0.0
C963 C 0.57958 0.35618 0.48519 0.0
C964 C 0.61397 0.34835 0.47604 0.0
C965 C 0.62063 0.3175 0.46102 0.0
C966 C 0.51543 0.33985 0.48911 0.0
C967 C 0.64362 0.37283 0.48149 0.0
C968 C 0.55362 0.44438 0.4926 0.0
C969 C 0.55314 0.45151 0.52626 0.0
C970 C 0.56275 0.41369 0.47897 0.0
C971 C 0.57162 0.38937 0.49942 0.0
C972 C 0.57161 0.3965 0.53339 0.0
C973 C 0.5624 0.42745 0.5464 0.0
C974 C 0.56243 0.40715 0.44263 0.0
C975 C 0.58084 0.37125 0.55602 0.0
H976 H 0.53879 0.28427 0.46005 0.0
H977 H 0.64689 0.31179 0.45362 0.0
H978 H 0.51379 0.34794 0.5152 0.0
H979 H 0.50643 0.35996 0.47541 0.0
H980 H 0.49752 0.31848 0.48432 0.0
H981 H 0.66904 0.36257 0.47428 0.0
H982 H 0.63948 0.39408 0.46735 0.0
H983 H 0.64463 0.3818 0.50737 0.0
H984 H 0.54658 0.46275 0.47679 0.0
H985 H 0.56216 0.43269 0.57242 0.0
H986 H 0.54307 0.38746 0.43579 0.0
H987 H 0.5881 0.39878 0.43381 0.0
H988 H 0.55605 0.42894 0.43005 0.0
H989 H 0.56207 0.35033 0.55329 0.0
H990 H 0.58078 0.38092 0.58175 0.0
H991 H 0.60688 0.36195 0.54974 0.0
loop_
_geom_bond_atom_site_label_1
_geom_bond_atom_site_label_2
_geom_bond_distance
_geom_bond_site_symmetry_2
_ccdc_geom_bond_type
O0 Cd1 2.300 . S
O0 C7 1.275 . S
Cd1 O0 2.300 . S
Cd1 O9 2.381 . S
Cd1 O10 2.378 . S
O2 Cd3 2.385 . S
O2 C7 1.255 . S
Cd3 O2 2.385 . S
Cd3 O4 2.317 . S
O4 Cd3 2.317 . S
O4 C5 1.232 . S
C5 O4 1.232 . S
C5 O6 1.218 . S
O6 C5 1.218 . S
C7 O0 1.275 . S
C7 O2 1.255 . S
C8 O9 1.258 . S
C8 O10 1.256 . S
O9 Cd1 2.381 . S
O9 C8 1.258 . S
O10 Cd1 2.378 . S
O10 C8 1.256 . S
O11 Cd12 2.300 . S
O11 C18 1.275 . S
Cd12 O11 2.300 . S
Cd12 O20 2.381 . S
Cd12 O21 2.378 . S
O13 Cd14 2.385 . S
O13 C18 1.255 . S
Cd14 O13 2.385 . S
Cd14 O15 2.317 . S
O15 Cd14 2.317 . S
O15 C16 1.232 . S
C16 O15 1.232 . S
C16 O17 1.218 . S
O17 C16 1.218 . S
C18 O11 1.275 . S
C18 O13 1.255 . S
C19 O20 1.258 . S
C19 O21 1.256 . S
O20 Cd12 2.381 . S
O20 C19 1.258 . S
O21 Cd12 2.378 . S
O21 C19 1.256 . S
O22 Cd23 2.300 . S
O22 C29 1.275 . S
Cd23 O22 2.300 . S
Cd23 O31 2.381 . S
Cd23 O32 2.378 . S
O24 Cd25 2.385 . S
O24 C29 1.255 . S
Cd25 O24 2.385 . S
Cd25 O26 2.317 . S
O26 Cd25 2.317 . S
O26 C27 1.232 . S
C27 O26 1.232 . S
C27 O28 1.218 1_556 S
O28 C27 1.218 1_554 S
C29 O22 1.275 . S
C29 O24 1.255 . S
C30 O31 1.258 . S
C30 O32 1.256 . S
O31 Cd23 2.381 . S
O31 C30 1.258 . S
O32 Cd23 2.378 . S
O32 C30 1.256 . S
O33 Cd34 2.300 . S
O33 C40 1.275 . S
Cd34 O33 2.300 . S
Cd34 O42 2.381 . S
Cd34 O43 2.378 . S
O35 Cd36 2.385 . S
O35 C40 1.255 . S
Cd36 O35 2.385 . S
Cd36 O37 2.317 . S
O37 Cd36 2.317 . S
O37 C38 1.232 . S
C38 O37 1.232 . S
C38 O39 1.218 . S
O39 C38 1.218 . S
C40 O33 1.275 . S
C40 O35 1.255 . S
C41 O42 1.258 . S
C41 O43 1.256 . S
O42 Cd34 2.381 . S
O42 C41 1.258 . S
O43 Cd34 2.378 . S
O43 C41 1.256 . S
O44 Cd45 2.300 . S
O44 C51 1.275 . S
Cd45 O44 2.300 . S
Cd45 O53 2.381 . S
Cd45 O54 2.378 . S
O46 Cd47 2.385 . S
O46 C51 1.255 . S
Cd47 O46 2.385 . S
Cd47 O48 2.317 . S
O48 Cd47 2.317 . S
O48 C49 1.232 . S
C49 O48 1.232 . S
C49 O50 1.218 . S
O50 C49 1.218 . S
C51 O44 1.275 . S
C51 O46 1.255 . S
C52 O53 1.258 . S
C52 O54 1.256 . S
O53 Cd45 2.381 . S
O53 C52 1.258 . S
O54 Cd45 2.378 . S
O54 C52 1.256 . S
O55 Cd56 2.300 . S
O55 C62 1.275 . S
Cd56 O55 2.300 . S
Cd56 O64 2.381 . S
Cd56 O65 2.378 . S
O57 Cd58 2.385 . S
O57 C62 1.255 . S
Cd58 O57 2.385 . S
Cd58 O59 2.317 . S
O59 Cd58 2.317 . S
O59 C60 1.232 . S
C60 O59 1.232 . S
C60 O61 1.218 . S
O61 C60 1.218 . S
C62 O55 1.275 . S
C62 O57 1.255 . S
C63 O64 1.258 . S
C63 O65 1.256 . S
O64 Cd56 2.381 . S
O64 C63 1.258 . S
O65 Cd56 2.378 . S
O65 C63 1.256 . S
O66 Cd67 2.300 . S
O66 C73 1.275 . S
Cd67 O66 2.300 . S
Cd67 O75 2.381 . S
Cd67 O76 2.378 . S
O68 Cd69 2.385 . S
O68 C73 1.255 . S
Cd69 O68 2.385 . S
Cd69 O70 2.317 . S
O70 Cd69 2.317 . S
O70 C71 1.232 . S
C71 O70 1.232 . S
C71 O72 1.218 . S
O72 C71 1.218 . S
C73 O66 1.275 . S
C73 O68 1.255 . S
C74 O75 1.258 . S
C74 O76 1.256 . S
O75 Cd67 2.381 . S
O75 C74 1.258 . S
O76 Cd67 2.378 . S
O76 C74 1.256 . S
O77 Cd78 2.300 . S
O77 C84 1.275 . S
Cd78 O77 2.300 . S
Cd78 O86 2.381 . S
Cd78 O87 2.378 . S
O79 Cd80 2.385 . S
O79 C84 1.255 . S
Cd80 O79 2.385 . S
Cd80 O81 2.317 . S
O81 Cd80 2.317 . S
O81 C82 1.232 . S
C82 O81 1.232 . S
C82 O83 1.218 . S
O83 C82 1.218 . S
C84 O77 1.275 . S
C84 O79 1.255 . S
C85 O86 1.258 . S
C85 O87 1.256 . S
O86 Cd78 2.381 . S
O86 C85 1.258 . S
O87 Cd78 2.378 . S
O87 C85 1.256 . S
C88 O104 1.251 . S
C88 O106 1.254 . S
N89 C90 1.333 . S
N89 C94 1.307 . S
N89 Zn95 2.020 . S
C90 N89 1.333 . S
C90 C91 1.379 . S
C90 H108 0.952 . S
C91 C90 1.379 . S
C91 C92 1.390 . S
C91 H118 0.949 . S
C92 C91 1.390 . S
C92 C93 1.357 . S
C93 C92 1.357 . S
C93 C94 1.370 . S
C93 H119 0.950 . S
C94 N89 1.307 . S
C94 C93 1.370 . S
C94 H112 0.948 . S
Zn95 N89 2.020 . S
Zn95 O104 2.039 . S
Zn95 O110 2.034 . S
Zn95 O114 2.025 . S
Zn95 O116 2.024 1_455 S
C96 O115 1.246 . S
C96 O116 1.249 . S
N97 C98 1.307 1_655 S
N97 C99 1.333 . S
N97 Zn103 2.020 1_655 S
C98 N97 1.307 1_455 S
C98 C102 1.370 1_455 S
C98 H109 0.948 . S
C99 N97 1.333 . S
C99 C100 1.379 . S
C99 H107 0.952 . S
C100 C99 1.379 . S
C100 C101 1.390 . S
C100 H120 0.949 . S
C101 C100 1.390 . S
C101 C102 1.357 . S
C102 C98 1.370 1_655 S
C102 C101 1.357 . S
C102 H121 0.950 1_655 S
Zn103 N97 2.020 1_455 S
Zn103 O106 2.025 1_565 S
Zn103 O111 2.024 . S
Zn103 O113 2.039 1_455 S
Zn103 O115 2.034 1_465 S
O104 C88 1.251 . S
O104 Zn95 2.039 . S
C105 O110 1.246 1_565 S
C105 O111 1.249 . S
O106 C88 1.254 . S
O106 Zn103 2.025 1_545 S
H107 C99 0.952 . S
H108 C90 0.952 . S
H109 C98 0.948 . S
O110 Zn95 2.034 . S
O110 C105 1.246 1_545 S
O111 Zn103 2.024 . S
O111 C105 1.249 . S
H112 C94 0.948 . S
O113 Zn103 2.039 1_655 S
O113 C117 1.251 1_565 S
O114 Zn95 2.025 . S
O114 C117 1.254 1_455 S
O115 C96 1.246 . S
O115 Zn103 2.034 1_645 S
O116 Zn95 2.024 1_655 S
O116 C96 1.249 . S
C117 O113 1.251 1_545 S
C117 O114 1.254 1_655 S
H118 C91 0.949 . S
H119 C93 0.950 . S
H120 C100 0.949 . S
H121 C102 0.950 1_455 S
C122 O138 1.251 . S
C122 O140 1.254 1_545 S
N123 C124 1.333 . S
N123 C128 1.307 . S
N123 Zn129 2.020 . S
C124 N123 1.333 . S
C124 C125 1.379 . S
C124 H142 0.952 . S
C125 C124 1.379 . S
C125 C126 1.390 . S
C125 H152 0.949 . S
C126 C125 1.390 . S
C126 C127 1.357 . S
C127 C126 1.357 . S
C127 C128 1.370 . S
C127 H153 0.950 . S
C128 N123 1.307 . S
C128 C127 1.370 . S
C128 H146 0.948 . S
Zn129 N123 2.020 . S
Zn129 O138 2.039 . S
Zn129 O144 2.034 . S
Zn129 O148 2.025 . S
Zn129 O150 2.024 . S
C130 O149 1.246 1_545 S
C130 O150 1.249 . S
N131 C132 1.307 . S
N131 C133 1.333 . S
N131 Zn137 2.020 . S
C132 N131 1.307 . S
C132 C136 1.370 . S
C132 H143 0.948 . S
C133 N131 1.333 . S
C133 C134 1.379 . S
C133 H141 0.952 . S
C134 C133 1.379 . S
C134 C135 1.390 . S
C134 H154 0.949 . S
C135 C134 1.390 . S
C135 C136 1.357 . S
C136 C132 1.370 . S
C136 C135 1.357 . S
C136 H155 0.950 . S
Zn137 N131 2.020 . S
Zn137 O140 2.025 . S
Zn137 O145 2.024 1_565 S
Zn137 O147 2.039 1_565 S
Zn137 O149 2.034 . S
O138 C122 1.251 . S
O138 Zn129 2.039 . S
C139 O144 1.246 . S
C139 O145 1.249 . S
O140 C122 1.254 1_565 S
O140 Zn137 2.025 . S
H141 C133 0.952 . S
H142 C124 0.952 . S
H143 C132 0.948 . S
O144 Zn129 2.034 . S
O144 C139 1.246 . S
O145 Zn137 2.024 1_545 S
O145 C139 1.249 . S
H146 C128 0.948 . S
O147 Zn137 2.039 1_545 S
O147 C151 1.251 . S
O148 Zn129 2.025 . S
O148 C151 1.254 . S
O149 C130 1.246 1_565 S
O149 Zn137 2.034 . S
O150 Zn129 2.024 . S
O150 C130 1.249 . S
C151 O147 1.251 . S
C151 O148 1.254 . S
H152 C125 0.949 . S
H153 C127 0.950 . S
H154 C134 0.949 . S
H155 C136 0.950 . S
C156 O172 1.251 . S
C156 O174 1.254 . S
N157 C158 1.333 . S
N157 C162 1.307 . S
N157 Zn163 2.020 . S
C158 N157 1.333 . S
C158 C159 1.379 . S
C158 H176 0.952 . S
C159 C158 1.379 . S
C159 C160 1.390 . S
C159 H186 0.949 . S
C160 C159 1.390 . S
C160 C161 1.357 . S
C161 C160 1.357 . S
C161 C162 1.370 . S
C161 H187 0.950 . S
C162 N157 1.307 . S
C162 C161 1.370 . S
C162 H180 0.948 . S
Zn163 N157 2.020 . S
Zn163 O172 2.039 . S
Zn163 O178 2.034 . S
Zn163 O182 2.025 . S
Zn163 O184 2.024 . S
C164 O183 1.246 . S
C164 O184 1.249 . S
N165 C166 1.307 . S
N165 C167 1.333 . S
N165 Zn171 2.020 . S
C166 N165 1.307 . S
C166 C170 1.370 . S
C166 H177 0.948 . S
C167 N165 1.333 . S
C167 C168 1.379 . S
C167 H175 0.952 . S
C168 C167 1.379 . S
C168 C169 1.390 . S
C168 H188 0.949 . S
C169 C168 1.390 . S
C169 C170 1.357 . S
C170 C166 1.370 . S
C170 C169 1.357 . S
C170 H189 0.950 . S
Zn171 N165 2.020 . S
Zn171 O174 2.025 . S
Zn171 O179 2.024 . S
Zn171 O181 2.039 . S
Zn171 O183 2.034 . S
O172 C156 1.251 . S
O172 Zn163 2.039 . S
C173 O178 1.246 . S
C173 O179 1.249 . S
O174 C156 1.254 . S
O174 Zn171 2.025 . S
H175 C167 0.952 . S
H176 C158 0.952 . S
H177 C166 0.948 . S
O178 Zn163 2.034 . S
O178 C173 1.246 . S
O179 Zn171 2.024 . S
O179 C173 1.249 . S
H180 C162 0.948 . S
O181 Zn171 2.039 . S
O181 C185 1.251 . S
O182 Zn163 2.025 . S
O182 C185 1.254 . S
O183 C164 1.246 . S
O183 Zn171 2.034 . S
O184 Zn163 2.024 . S
O184 C164 1.249 . S
C185 O181 1.251 . S
C185 O182 1.254 . S
H186 C159 0.949 . S
H187 C161 0.950 . S
H188 C168 0.949 . S
H189 C170 0.950 . S
C190 O206 1.251 . S
C190 O208 1.254 1_554 S
N191 C192 1.333 . S
N191 C196 1.307 1_455 S
N191 Zn197 2.020 . S
C192 N191 1.333 . S
C192 C193 1.379 1_455 S
C192 H210 0.952 . S
C193 C192 1.379 1_655 S
C193 C194 1.390 . S
C193 H220 0.949 . S
C194 C193 1.390 . S
C194 C195 1.357 . S
C195 C194 1.357 . S
C195 C196 1.370 . S
C195 H221 0.950 . S
C196 N191 1.307 1_655 S
C196 C195 1.370 . S
C196 H214 0.948 . S
Zn197 N191 2.020 . S
Zn197 O206 2.039 . S
Zn197 O212 2.034 . S
Zn197 O216 2.025 . S
Zn197 O218 2.024 1_455 S
C198 O217 1.246 1_554 S
C198 O218 1.249 . S
N199 C200 1.307 . S
N199 C201 1.333 . S
N199 Zn205 2.020 . S
C200 N199 1.307 . S
C200 C204 1.370 . S
C200 H211 0.948 . S
C201 N199 1.333 . S
C201 C202 1.379 . S
C201 H209 0.952 . S
C202 C201 1.379 . S
C202 C203 1.390 . S
C202 H222 0.949 . S
C203 C202 1.390 . S
C203 C204 1.357 . S
C204 C200 1.370 . S
C204 C203 1.357 . S
C204 H223 0.950 . S
Zn205 N199 2.020 . S
Zn205 O208 2.025 . S
Zn205 O213 2.024 1_556 S
Zn205 O215 2.039 1_556 S
Zn205 O217 2.034 1_455 S
O206 C190 1.251 . S
O206 Zn197 2.039 . S
C207 O212 1.246 . S
C207 O213 1.249 . S
O208 C190 1.254 1_556 S
O208 Zn205 2.025 . S
H209 C201 0.952 . S
H210 C192 0.952 . S
H211 C200 0.948 . S
O212 Zn197 2.034 . S
O212 C207 1.246 . S
O213 Zn205 2.024 1_554 S
O213 C207 1.249 . S
H214 C196 0.948 . S
O215 Zn205 2.039 1_554 S
O215 C219 1.251 . S
O216 Zn197 2.025 . S
O216 C219 1.254 . S
O217 C198 1.246 1_556 S
O217 Zn205 2.034 1_655 S
O218 Zn197 2.024 1_655 S
O218 C198 1.249 . S
C219 O215 1.251 . S
C219 O216 1.254 . S
H220 C193 0.949 . S
H221 C195 0.950 . S
H222 C202 0.949 . S
H223 C204 0.950 . S
C224 C225 1.391 . S
C224 C226 1.394 . S
C224 H240 0.931 . S
C225 C224 1.391 . S
C225 C229 1.376 . S
C226 C224 1.394 . S
C226 C227 1.369 . S
C226 C230 1.531 . S
C227 C226 1.369 . S
C227 C228 1.410 . S
C227 C235 1.503 . S
C228 C227 1.410 . S
C228 C229 1.392 . S
C228 C231 1.511 . S
C229 C225 1.376 . S
C229 C228 1.392 . S
C229 H241 0.929 . S
C230 C226 1.531 . S
C230 H242 0.960 . S
C230 H243 0.962 1_545 S
C230 H244 0.960 1_545 S
C231 C228 1.511 . S
C231 H245 0.961 . S
C231 H246 0.961 . S
C231 H247 0.961 . S
C232 C233 1.370 . S
C232 C234 1.363 . S
C232 H248 0.931 . S
C233 C232 1.370 . S
C233 C237 1.408 . S
C234 C232 1.363 . S
C234 C235 1.370 . S
C234 C238 1.524 . S
C235 C227 1.503 . S
C235 C234 1.370 . S
C235 C236 1.403 . S
C236 C235 1.403 . S
C236 C237 1.404 . S
C236 C239 1.539 . S
C237 C233 1.408 . S
C237 C236 1.404 . S
C237 H249 0.930 . S
C238 C234 1.524 . S
C238 H250 0.956 . S
C238 H251 0.961 . S
C238 H252 0.961 1_455 S
C239 C236 1.539 . S
C239 H253 0.958 . S
C239 H254 0.961 . S
C239 H255 0.960 . S
H240 C224 0.931 . S
H241 C229 0.929 . S
H242 C230 0.960 . S
H243 C230 0.962 1_565 S
H244 C230 0.960 1_565 S
H245 C231 0.961 . S
H246 C231 0.961 . S
H247 C231 0.961 . S
H248 C232 0.931 . S
H249 C237 0.930 . S
H250 C238 0.956 . S
H251 C238 0.961 . S
H252 C238 0.961 1_655 S
H253 C239 0.958 . S
H254 C239 0.961 . S
H255 C239 0.960 . S
C256 C257 1.391 . S
C256 C258 1.394 . S
C256 H272 0.931 . S
C257 C256 1.391 . S
C257 C261 1.376 . S
C258 C256 1.394 . S
C258 C259 1.369 . S
C258 C262 1.531 . S
C259 C258 1.369 . S
C259 C260 1.410 . S
C259 C267 1.503 . S
C260 C259 1.410 . S
C260 C261 1.392 . S
C260 C263 1.511 . S
C261 C257 1.376 . S
C261 C260 1.392 . S
C261 H273 0.929 . S
C262 C258 1.531 . S
C262 H274 0.960 1_565 S
C262 H275 0.962 . S
C262 H276 0.966 . S
C263 C260 1.511 . S
C263 H277 0.961 . S
C263 H278 0.961 . S
C263 H279 0.961 . S
C264 C265 1.383 . S
C264 C266 1.363 . S
C264 H280 0.931 . S
C265 C264 1.383 . S
C265 C269 1.397 1_565 S
C266 C264 1.363 . S
C266 C267 1.370 . S
C266 C270 1.524 . S
C267 C259 1.503 . S
C267 C266 1.370 . S
C267 C268 1.403 1_565 S
C268 C267 1.403 1_545 S
C268 C269 1.404 . S
C268 C271 1.539 . S
C269 C265 1.397 1_545 S
C269 C268 1.404 . S
C269 H281 0.930 . S
C270 C266 1.524 . S
C270 H282 0.956 . S
C270 H283 0.961 . S
C270 H284 0.961 . S
C271 C268 1.539 . S
C271 H285 0.958 . S
C271 H286 0.961 . S
C271 H287 0.960 . S
H272 C256 0.931 . S
H273 C261 0.929 . S
H274 C262 0.960 1_545 S
H275 C262 0.962 . S
H276 C262 0.966 . S
H277 C263 0.961 . S
H278 C263 0.961 . S
H279 C263 0.961 . S
H280 C264 0.931 . S
H281 C269 0.930 . S
H282 C270 0.956 . S
H283 C270 0.961 . S
H284 C270 0.961 . S
H285 C271 0.958 . S
H286 C271 0.961 . S
H287 C271 0.960 . S
C288 C289 1.391 . S
C288 C290 1.394 . S
C288 H304 0.931 . S
C289 C288 1.391 . S
C289 C293 1.376 . S
C290 C288 1.394 . S
C290 C291 1.369 . S
C290 C294 1.531 . S
C291 C290 1.369 . S
C291 C292 1.410 . S
C291 C299 1.503 . S
C292 C291 1.410 . S
C292 C293 1.392 . S
C292 C295 1.511 . S
C293 C289 1.376 . S
C293 C292 1.392 . S
C293 H305 0.929 . S
C294 C290 1.531 . S
C294 H306 0.960 . S
C294 H307 0.962 . S
C294 H308 0.960 . S
C295 C292 1.511 . S
C295 H309 0.961 . S
C295 H310 0.961 . S
C295 H311 0.961 . S
C296 C297 1.370 . S
C296 C298 1.363 . S
C296 H312 0.931 . S
C297 C296 1.370 . S
C297 C301 1.408 . S
C298 C296 1.363 . S
C298 C299 1.370 . S
C298 C302 1.524 . S
C299 C291 1.503 . S
C299 C298 1.370 . S
C299 C300 1.403 . S
C300 C299 1.403 . S
C300 C301 1.404 . S
C300 C303 1.539 . S
C301 C297 1.408 . S
C301 C300 1.404 . S
C301 H313 0.930 . S
C302 C298 1.524 . S
C302 H314 0.956 . S
C302 H315 0.961 . S
C302 H316 0.961 . S
C303 C300 1.539 . S
C303 H317 0.958 . S
C303 H318 0.961 . S
C303 H319 0.960 . S
H304 C288 0.931 . S
H305 C293 0.929 . S
H306 C294 0.960 . S
H307 C294 0.962 . S
H308 C294 0.960 . S
H309 C295 0.961 . S
H310 C295 0.961 . S
H311 C295 0.961 . S
H312 C296 0.931 . S
H313 C301 0.930 . S
H314 C302 0.956 . S
H315 C302 0.961 . S
H316 C302 0.961 . S
H317 C303 0.958 . S
H318 C303 0.961 . S
H319 C303 0.960 . S
C320 C321 1.391 . S
C320 C322 1.394 . S
C320 H336 0.931 . S
C321 C320 1.391 . S
C321 C325 1.376 . S
C322 C320 1.394 . S
C322 C323 1.369 . S
C322 C326 1.531 . S
C323 C322 1.369 . S
C323 C324 1.410 . S
C323 C331 1.503 . S
C324 C323 1.410 . S
C324 C325 1.392 . S
C324 C327 1.511 . S
C325 C321 1.376 . S
C325 C324 1.392 . S
C325 H337 0.929 . S
C326 C322 1.531 . S
C326 H338 0.960 . S
C326 H339 0.962 1_655 S
C326 H340 0.960 . S
C327 C324 1.511 . S
C327 H341 0.961 . S
C327 H342 0.961 . S
C327 H343 0.961 . S
C328 C329 1.370 . S
C328 C330 1.363 . S
C328 H344 0.931 1_655 S
C329 C328 1.370 . S
C329 C333 1.408 . S
C330 C328 1.363 . S
C330 C331 1.370 . S
C330 C334 1.524 1_655 S
C331 C323 1.503 . S
C331 C330 1.370 . S
C331 C332 1.403 . S
C332 C331 1.403 . S
C332 C333 1.404 . S
C332 C335 1.539 . S
C333 C329 1.408 . S
C333 C332 1.404 . S
C333 H345 0.930 . S
C334 C330 1.524 1_455 S
C334 H346 0.956 . S
C334 H347 0.971 . S
C334 H348 0.961 . S
C335 C332 1.539 . S
C335 H349 0.958 . S
C335 H350 0.961 . S
C335 H351 0.960 . S
H336 C320 0.931 . S
H337 C325 0.929 . S
H338 C326 0.960 . S
H339 C326 0.962 1_455 S
H340 C326 0.960 . S
H341 C327 0.961 . S
H342 C327 0.961 . S
H343 C327 0.961 . S
H344 C328 0.931 1_455 S
H345 C333 0.930 . S
H346 C334 0.956 . S
H347 C334 0.971 . S
H348 C334 0.961 . S
H349 C335 0.958 . S
H350 C335 0.961 . S
H351 C335 0.960 . S
C352 C353 1.391 . S
C352 C354 1.394 . S
C352 H368 0.931 . S
C353 C352 1.391 . S
C353 C357 1.376 . S
C354 C352 1.394 . S
C354 C355 1.369 . S
C354 C358 1.531 . S
C355 C354 1.369 . S
C355 C356 1.410 . S
C355 C363 1.503 . S
C356 C355 1.410 . S
C356 C357 1.392 . S
C356 C359 1.511 . S
C357 C353 1.376 . S
C357 C356 1.392 . S
C357 H369 0.929 . S
C358 C354 1.531 . S
C358 H370 0.960 . S
C358 H371 0.962 . S
C358 H372 0.960 . S
C359 C356 1.511 . S
C359 H373 0.961 . S
C359 H374 0.961 . S
C359 H375 0.961 . S
C360 C361 1.370 . S
C360 C362 1.363 . S
C360 H376 0.931 . S
C361 C360 1.370 . S
C361 C365 1.408 . S
C362 C360 1.363 . S
C362 C363 1.370 . S
C362 C366 1.524 . S
C363 C355 1.503 . S
C363 C362 1.370 . S
C363 C364 1.403 . S
C364 C363 1.403 . S
C364 C365 1.404 . S
C364 C367 1.539 . S
C365 C361 1.408 . S
C365 C364 1.404 . S
C365 H377 0.930 . S
C366 C362 1.524 . S
C366 H378 0.956 . S
C366 H379 0.961 . S
C366 H380 0.961 . S
C367 C364 1.539 . S
C367 H381 0.958 . S
C367 H382 0.961 . S
C367 H383 0.960 . S
H368 C352 0.931 . S
H369 C357 0.929 . S
H370 C358 0.960 . S
H371 C358 0.962 . S
H372 C358 0.960 . S
H373 C359 0.961 . S
H374 C359 0.961 . S
H375 C359 0.961 . S
H376 C360 0.931 . S
H377 C365 0.930 . S
H378 C366 0.956 . S
H379 C366 0.961 . S
H380 C366 0.961 . S
H381 C367 0.958 . S
H382 C367 0.961 . S
H383 C367 0.960 . S
C384 C385 1.391 . S
C384 C386 1.394 . S
C384 H400 0.931 . S
C385 C384 1.391 . S
C385 C389 1.376 . S
C386 C384 1.394 . S
C386 C387 1.369 . S
C386 C390 1.531 . S
C387 C386 1.369 . S
C387 C388 1.400 1_565 S
C387 C395 1.503 . S
C388 C387 1.400 1_545 S
C388 C389 1.390 1_545 S
C388 C391 1.523 . S
C389 C385 1.376 . S
C389 C388 1.390 1_565 S
C389 H401 0.929 1_565 S
C390 C386 1.531 . S
C390 H402 0.960 . S
C390 H403 0.962 . S
C390 H404 0.960 . S
C391 C388 1.523 . S
C391 H405 0.961 . S
C391 H406 0.961 . S
C391 H407 0.961 . S
C392 C393 1.370 . S
C392 C394 1.363 . S
C392 H408 0.931 . S
C393 C392 1.370 . S
C393 C397 1.408 . S
C394 C392 1.363 . S
C394 C395 1.370 . S
C394 C398 1.524 . S
C395 C387 1.503 . S
C395 C394 1.370 . S
C395 C396 1.403 . S
C396 C395 1.403 . S
C396 C397 1.404 . S
C396 C399 1.539 . S
C397 C393 1.408 . S
C397 C396 1.404 . S
C397 H409 0.930 . S
C398 C394 1.524 . S
C398 H410 0.956 . S
C398 H411 0.961 . S
C398 H412 0.961 . S
C399 C396 1.539 . S
C399 H413 0.958 . S
C399 H414 0.961 . S
C399 H415 0.960 . S
H400 C384 0.931 . S
H401 C389 0.929 1_545 S
H402 C390 0.960 . S
H403 C390 0.962 . S
H404 C390 0.960 . S
H405 C391 0.961 . S
H406 C391 0.961 . S
H407 C391 0.961 . S
H408 C392 0.931 . S
H409 C397 0.930 . S
H410 C398 0.956 . S
H411 C398 0.961 . S
H412 C398 0.961 . S
H413 C399 0.958 . S
H414 C399 0.961 . S
H415 C399 0.960 . S
C416 C417 1.391 1_554 S
C416 C418 1.394 . S
C416 H432 0.931 . S
C417 C416 1.391 1_556 S
C417 C421 1.376 . S
C418 C416 1.394 . S
C418 C419 1.369 1_554 S
C418 C422 1.531 . S
C419 C418 1.369 1_556 S
C419 C420 1.410 . S
C419 C427 1.503 . S
C420 C419 1.410 . S
C420 C421 1.392 . S
C420 C423 1.511 . S
C421 C417 1.376 . S
C421 C420 1.392 . S
C421 H433 0.929 . S
C422 C418 1.531 . S
C422 H434 0.960 . S
C422 H435 0.962 . S
C422 H436 0.960 . S
C423 C420 1.511 . S
C423 H437 0.961 . S
C423 H438 0.961 . S
C423 H439 0.961 . S
C424 C425 1.382 . S
C424 C426 1.363 . S
C424 H440 0.931 . S
C425 C424 1.382 . S
C425 C429 1.397 1_556 S
C426 C424 1.363 . S
C426 C427 1.370 . S
C426 C430 1.524 . S
C427 C419 1.503 . S
C427 C426 1.370 . S
C427 C428 1.403 1_556 S
C428 C427 1.403 1_554 S
C428 C429 1.404 . S
C428 C431 1.539 . S
C429 C425 1.397 1_554 S
C429 C428 1.404 . S
C429 H441 0.930 . S
C430 C426 1.524 . S
C430 H442 0.956 . S
C430 H443 0.961 . S
C430 H444 0.961 . S
C431 C428 1.539 . S
C431 H445 0.958 . S
C431 H446 0.961 . S
C431 H447 0.960 . S
H432 C416 0.931 . S
H433 C421 0.929 . S
H434 C422 0.960 . S
H435 C422 0.962 . S
H436 C422 0.960 . S
H437 C423 0.961 . S
H438 C423 0.961 . S
H439 C423 0.961 . S
H440 C424 0.931 . S
H441 C429 0.930 . S
H442 C430 0.956 . S
H443 C430 0.961 . S
H444 C430 0.961 . S
H445 C431 0.958 . S
H446 C431 0.961 . S
H447 C431 0.960 . S
C448 C449 1.391 . S
C448 C450 1.394 . S
C448 H464 0.931 . S
C449 C448 1.391 . S
C449 C453 1.376 . S
C450 C448 1.394 . S
C450 C451 1.369 . S
C450 C454 1.531 . S
C451 C450 1.369 . S
C451 C452 1.410 . S
C451 C459 1.503 . S
C452 C451 1.410 . S
C452 C453 1.392 . S
C452 C455 1.511 . S
C453 C449 1.376 . S
C453 C452 1.392 . S
C453 H465 0.929 . S
C454 C450 1.531 . S
C454 H466 0.960 . S
C454 H467 0.962 . S
C454 H468 0.960 . S
C455 C452 1.511 . S
C455 H469 0.961 . S
C455 H470 0.961 . S
C455 H471 0.961 . S
C456 C457 1.370 . S
C456 C458 1.363 . S
C456 H472 0.931 . S
C457 C456 1.370 . S
C457 C461 1.408 . S
C458 C456 1.363 . S
C458 C459 1.370 . S
C458 C462 1.524 . S
C459 C451 1.503 . S
C459 C458 1.370 . S
C459 C460 1.403 . S
C460 C459 1.403 . S
C460 C461 1.404 . S
C460 C463 1.539 . S
C461 C457 1.408 . S
C461 C460 1.404 . S
C461 H473 0.930 . S
C462 C458 1.524 . S
C462 H474 0.956 . S
C462 H475 0.961 . S
C462 H476 0.961 . S
C463 C460 1.539 . S
C463 H477 0.958 . S
C463 H478 0.961 . S
C463 H479 0.960 . S
H464 C448 0.931 . S
H465 C453 0.929 . S
H466 C454 0.960 . S
H467 C454 0.962 . S
H468 C454 0.960 . S
H469 C455 0.961 . S
H470 C455 0.961 . S
H471 C455 0.961 . S
H472 C456 0.931 . S
H473 C461 0.930 . S
H474 C462 0.956 . S
H475 C462 0.961 . S
H476 C462 0.961 . S
H477 C463 0.958 . S
H478 C463 0.961 . S
H479 C463 0.960 . S
C480 C481 1.391 . S
C480 C482 1.394 . S
C480 H496 0.931 . S
C481 C480 1.391 . S
C481 C485 1.376 . S
C482 C480 1.394 . S
C482 C483 1.369 . S
C482 C486 1.531 . S
C483 C482 1.369 . S
C483 C484 1.410 . S
C483 C491 1.503 . S
C484 C483 1.410 . S
C484 C485 1.392 . S
C484 C487 1.511 . S
C485 C481 1.376 . S
C485 C484 1.392 . S
C485 H497 0.929 . S
C486 C482 1.531 . S
C486 H498 0.960 . S
C486 H499 0.962 . S
C486 H500 0.960 . S
C487 C484 1.511 . S
C487 H501 0.961 . S
C487 H502 0.961 . S
C487 H503 0.961 . S
C488 C489 1.370 . S
C488 C490 1.363 . S
C488 H504 0.931 . S
C489 C488 1.370 . S
C489 C493 1.408 . S
C490 C488 1.363 . S
C490 C491 1.370 . S
C490 C494 1.524 . S
C491 C483 1.503 . S
C491 C490 1.370 . S
C491 C492 1.403 . S
C492 C491 1.403 . S
C492 C493 1.404 . S
C492 C495 1.539 . S
C493 C489 1.408 . S
C493 C492 1.404 . S
C493 H505 0.930 . S
C494 C490 1.524 . S
C494 H506 0.956 . S
C494 H507 0.961 . S
C494 H508 0.961 . S
C495 C492 1.539 . S
C495 H509 0.958 . S
C495 H510 0.961 . S
C495 H511 0.960 . S
H496 C480 0.931 . S
H497 C485 0.929 . S
H498 C486 0.960 . S
H499 C486 0.962 . S
H500 C486 0.960 . S
H501 C487 0.961 . S
H502 C487 0.961 . S
H503 C487 0.961 . S
H504 C488 0.931 . S
H505 C493 0.930 . S
H506 C494 0.956 . S
H507 C494 0.961 . S
H508 C494 0.961 . S
H509 C495 0.958 . S
H510 C495 0.961 . S
H511 C495 0.960 . S
C512 C513 1.391 . S
C512 C514 1.394 . S
C512 H528 0.931 . S
C513 C512 1.391 . S
C513 C517 1.376 1_554 S
C514 C512 1.394 . S
C514 C515 1.369 . S
C514 C518 1.531 . S
C515 C514 1.369 . S
C515 C516 1.410 1_554 S
C515 C523 1.503 . S
C516 C515 1.410 1_556 S
C516 C517 1.392 . S
C516 C519 1.511 . S
C517 C513 1.376 1_556 S
C517 C516 1.392 . S
C517 H529 0.929 . S
C518 C514 1.531 . S
C518 H530 0.960 . S
C518 H531 0.962 . S
C518 H532 0.960 . S
C519 C516 1.511 . S
C519 H533 0.961 . S
C519 H534 0.961 . S
C519 H535 0.961 . S
C520 C521 1.370 . S
C520 C522 1.363 . S
C520 H536 0.931 . S
C521 C520 1.370 . S
C521 C525 1.408 . S
C522 C520 1.363 . S
C522 C523 1.370 . S
C522 C526 1.524 . S
C523 C515 1.503 . S
C523 C522 1.370 . S
C523 C524 1.403 . S
C524 C523 1.403 . S
C524 C525 1.404 . S
C524 C527 1.539 1_554 S
C525 C521 1.408 . S
C525 C524 1.404 . S
C525 H537 0.930 . S
C526 C522 1.524 . S
C526 H538 0.956 . S
C526 H539 0.961 . S
C526 H540 0.961 . S
C527 C524 1.539 1_556 S
C527 H541 0.958 1_556 S
C527 H542 0.961 . S
C527 H543 0.960 . S
H528 C512 0.931 . S
H529 C517 0.929 . S
H530 C518 0.960 . S
H531 C518 0.962 . S
H532 C518 0.960 . S
H533 C519 0.961 . S
H534 C519 0.961 . S
H535 C519 0.961 . S
H536 C520 0.931 . S
H537 C525 0.930 . S
H538 C526 0.956 . S
H539 C526 0.961 . S
H540 C526 0.961 . S
H541 C527 0.958 1_554 S
H542 C527 0.961 . S
H543 C527 0.960 . S
C544 C545 1.391 . S
C544 C546 1.394 . S
C544 H560 0.931 . S
C545 C544 1.391 . S
C545 C549 1.376 . S
C546 C544 1.394 . S
C546 C547 1.369 . S
C546 C550 1.531 . S
C547 C546 1.369 . S
C547 C548 1.410 . S
C547 C555 1.503 . S
C548 C547 1.410 . S
C548 C549 1.392 . S
C548 C551 1.511 . S
C549 C545 1.376 . S
C549 C548 1.392 . S
C549 H561 0.929 . S
C550 C546 1.531 . S
C550 H562 0.960 . S
C550 H563 0.962 . S
C550 H564 0.960 . S
C551 C548 1.511 . S
C551 H565 0.961 . S
C551 H566 0.961 . S
C551 H567 0.961 1_655 S
C552 C553 1.370 . S
C552 C554 1.363 . S
C552 H568 0.931 . S
C553 C552 1.370 . S
C553 C557 1.408 . S
C554 C552 1.363 . S
C554 C555 1.370 . S
C554 C558 1.524 . S
C555 C547 1.503 . S
C555 C554 1.370 . S
C555 C556 1.403 . S
C556 C555 1.403 . S
C556 C557 1.404 . S
C556 C559 1.539 1_655 S
C557 C553 1.408 . S
C557 C556 1.404 . S
C557 H569 0.930 1_655 S
C558 C554 1.524 . S
C558 H570 0.956 . S
C558 H571 0.961 . S
C558 H572 0.961 . S
C559 C556 1.539 1_455 S
C559 H573 0.958 1_455 S
C559 H574 0.961 . S
C559 H575 0.960 . S
H560 C544 0.931 . S
H561 C549 0.929 . S
H562 C550 0.960 . S
H563 C550 0.962 . S
H564 C550 0.960 . S
H565 C551 0.961 . S
H566 C551 0.961 . S
H567 C551 0.961 1_455 S
H568 C552 0.931 . S
H569 C557 0.930 1_455 S
H570 C558 0.956 . S
H571 C558 0.961 . S
H572 C558 0.961 . S
H573 C559 0.958 1_655 S
H574 C559 0.961 . S
H575 C559 0.960 . S
C576 C577 1.391 . S
C576 C578 1.394 . S
C576 H592 0.931 . S
C577 C576 1.391 . S
C577 C581 1.376 . S
C578 C576 1.394 . S
C578 C579 1.369 . S
C578 C582 1.531 . S
C579 C578 1.369 . S
C579 C580 1.410 . S
C579 C587 1.503 . S
C580 C579 1.410 . S
C580 C581 1.392 . S
C580 C583 1.511 . S
C581 C577 1.376 . S
C581 C580 1.392 . S
C581 H593 0.929 . S
C582 C578 1.531 . S
C582 H594 0.960 . S
C582 H595 0.962 . S
C582 H596 0.960 . S
C583 C580 1.511 . S
C583 H597 0.961 . S
C583 H598 0.961 . S
C583 H599 0.961 . S
C584 C585 1.370 . S
C584 C586 1.363 . S
C584 H600 0.931 . S
C585 C584 1.370 . S
C585 C589 1.408 . S
C586 C584 1.363 . S
C586 C587 1.370 . S
C586 C590 1.524 . S
C587 C579 1.503 . S
C587 C586 1.370 . S
C587 C588 1.403 . S
C588 C587 1.403 . S
C588 C589 1.404 . S
C588 C591 1.539 . S
C589 C585 1.408 . S
C589 C588 1.404 . S
C589 H601 0.930 . S
C590 C586 1.524 . S
C590 H602 0.956 . S
C590 H603 0.961 . S
C590 H604 0.961 . S
C591 C588 1.539 . S
C591 H605 0.958 . S
C591 H606 0.961 . S
C591 H607 0.960 . S
H592 C576 0.931 . S
H593 C581 0.929 . S
H594 C582 0.960 . S
H595 C582 0.962 . S
H596 C582 0.960 . S
H597 C583 0.961 . S
H598 C583 0.961 . S
H599 C583 0.961 . S
H600 C584 0.931 . S
H601 C589 0.930 . S
H602 C590 0.956 . S
H603 C590 0.961 . S
H604 C590 0.961 . S
H605 C591 0.958 . S
H606 C591 0.961 . S
H607 C591 0.960 . S
C608 C609 1.391 . S
C608 C610 1.394 . S
C608 H624 0.931 . S
C609 C608 1.391 . S
C609 C613 1.376 . S
C610 C608 1.394 . S
C610 C611 1.369 . S
C610 C614 1.531 . S
C611 C610 1.369 . S
C611 C612 1.410 . S
C611 C619 1.503 . S
C612 C611 1.410 . S
C612 C613 1.392 . S
C612 C615 1.511 1_565 S
C613 C609 1.376 . S
C613 C612 1.392 . S
C613 H625 0.929 . S
C614 C610 1.531 . S
C614 H626 0.960 . S
C614 H627 0.962 . S
C614 H628 0.960 . S
C615 C612 1.511 1_545 S
C615 H629 0.961 . S
C615 H630 0.961 . S
C615 H631 0.961 . S
C616 C617 1.370 . S
C616 C618 1.363 . S
C616 H632 0.931 1_665 S
C617 C616 1.370 . S
C617 C621 1.408 . S
C618 C616 1.363 . S
C618 C619 1.370 . S
C618 C622 1.524 1_655 S
C619 C611 1.503 . S
C619 C618 1.370 . S
C619 C620 1.403 . S
C620 C619 1.403 . S
C620 C621 1.404 . S
C620 C623 1.539 . S
C621 C617 1.408 . S
C621 C620 1.404 . S
C621 H633 0.930 . S
C622 C618 1.524 1_455 S
C622 H634 0.956 . S
C622 H635 0.961 1_465 S
C622 H636 0.961 1_565 S
C623 C620 1.539 . S
C623 H637 0.958 . S
C623 H638 0.961 . S
C623 H639 0.960 . S
H624 C608 0.931 . S
H625 C613 0.929 . S
H626 C614 0.960 . S
H627 C614 0.962 . S
H628 C614 0.960 . S
H629 C615 0.961 . S
H630 C615 0.961 . S
H631 C615 0.961 . S
H632 C616 0.931 1_445 S
H633 C621 0.930 . S
H634 C622 0.956 . S
H635 C622 0.961 1_645 S
H636 C622 0.961 1_545 S
H637 C623 0.958 . S
H638 C623 0.961 . S
H639 C623 0.960 . S
C640 C641 1.391 . S
C640 C642 1.394 . S
C640 H656 0.931 . S
C641 C640 1.391 . S
C641 C645 1.376 . S
C642 C640 1.394 . S
C642 C643 1.369 . S
C642 C646 1.531 . S
C643 C642 1.369 . S
C643 C644 1.410 . S
C643 C651 1.503 . S
C644 C643 1.410 . S
C644 C645 1.392 . S
C644 C647 1.511 . S
C645 C641 1.376 . S
C645 C644 1.392 . S
C645 H657 0.929 . S
C646 C642 1.531 . S
C646 H658 0.960 . S
C646 H659 0.962 . S
C646 H660 0.960 . S
C647 C644 1.511 . S
C647 H661 0.961 . S
C647 H662 0.961 . S
C647 H663 0.961 . S
C648 C649 1.370 . S
C648 C650 1.363 . S
C648 H664 0.931 . S
C649 C648 1.370 . S
C649 C653 1.408 . S
C650 C648 1.363 . S
C650 C651 1.370 . S
C650 C654 1.524 . S
C651 C643 1.503 . S
C651 C650 1.370 . S
C651 C652 1.403 . S
C652 C651 1.403 . S
C652 C653 1.404 . S
C652 C655 1.539 . S
C653 C649 1.408 . S
C653 C652 1.404 . S
C653 H665 0.930 . S
C654 C650 1.524 . S
C654 H666 0.956 . S
C654 H667 0.961 . S
C654 H668 0.961 . S
C655 C652 1.539 . S
C655 H669 0.958 . S
C655 H670 0.961 . S
C655 H671 0.960 . S
H656 C640 0.931 . S
H657 C645 0.929 . S
H658 C646 0.960 . S
H659 C646 0.962 . S
H660 C646 0.960 . S
H661 C647 0.961 . S
H662 C647 0.961 . S
H663 C647 0.961 . S
H664 C648 0.931 . S
H665 C653 0.930 . S
H666 C654 0.956 . S
H667 C654 0.961 . S
H668 C654 0.961 . S
H669 C655 0.958 . S
H670 C655 0.961 . S
H671 C655 0.960 . S
C672 C673 1.391 . S
C672 C674 1.394 . S
C672 H688 0.931 . S
C673 C672 1.391 . S
C673 C677 1.376 . S
C674 C672 1.394 . S
C674 C675 1.369 . S
C674 C678 1.531 . S
C675 C674 1.369 . S
C675 C676 1.410 . S
C675 C683 1.503 . S
C676 C675 1.410 . S
C676 C677 1.392 . S
C676 C679 1.511 . S
C677 C673 1.376 . S
C677 C676 1.392 . S
C677 H689 0.929 . S
C678 C674 1.531 . S
C678 H690 0.960 . S
C678 H691 0.962 . S
C678 H692 0.960 . S
C679 C676 1.511 . S
C679 H693 0.961 . S
C679 H694 0.961 . S
C679 H695 0.961 . S
C680 C681 1.370 . S
C680 C682 1.363 . S
C680 H696 0.931 . S
C681 C680 1.370 . S
C681 C685 1.408 . S
C682 C680 1.363 . S
C682 C683 1.370 . S
C682 C686 1.524 . S
C683 C675 1.503 . S
C683 C682 1.370 . S
C683 C684 1.403 . S
C684 C683 1.403 . S
C684 C685 1.404 . S
C684 C687 1.539 . S
C685 C681 1.408 . S
C685 C684 1.404 . S
C685 H697 0.930 . S
C686 C682 1.524 . S
C686 H698 0.956 . S
C686 H699 0.961 . S
C686 H700 0.961 . S
C687 C684 1.539 . S
C687 H701 0.958 . S
C687 H702 0.961 . S
C687 H703 0.960 . S
H688 C672 0.931 . S
H689 C677 0.929 . S
H690 C678 0.960 . S
H691 C678 0.962 . S
H692 C678 0.960 . S
H693 C679 0.961 . S
H694 C679 0.961 . S
H695 C679 0.961 . S
H696 C680 0.931 . S
H697 C685 0.930 . S
H698 C686 0.956 . S
H699 C686 0.961 . S
H700 C686 0.961 . S
H701 C687 0.958 . S
H702 C687 0.961 . S
H703 C687 0.960 . S
C704 C705 1.391 . S
C704 C706 1.394 . S
C704 H720 0.931 . S
C705 C704 1.391 . S
C705 C709 1.376 . S
C706 C704 1.394 . S
C706 C707 1.369 . S
C706 C710 1.531 . S
C707 C706 1.369 . S
C707 C708 1.410 . S
C707 C715 1.503 . S
C708 C707 1.410 . S
C708 C709 1.392 . S
C708 C711 1.511 . S
C709 C705 1.376 . S
C709 C708 1.392 . S
C709 H721 0.929 . S
C710 C706 1.531 . S
C710 H722 0.960 . S
C710 H723 0.962 . S
C710 H724 0.960 . S
C711 C708 1.511 . S
C711 H725 0.961 . S
C711 H726 0.961 . S
C711 H727 0.961 . S
C712 C713 1.370 . S
C712 C714 1.363 . S
C712 H728 0.931 . S
C713 C712 1.370 . S
C713 C717 1.408 . S
C714 C712 1.363 . S
C714 C715 1.370 . S
C714 C718 1.524 . S
C715 C707 1.503 . S
C715 C714 1.370 . S
C715 C716 1.403 . S
C716 C715 1.403 . S
C716 C717 1.404 . S
C716 C719 1.539 . S
C717 C713 1.408 . S
C717 C716 1.404 . S
C717 H729 0.930 . S
C718 C714 1.524 . S
C718 H730 0.956 . S
C718 H731 0.961 . S
C718 H732 0.961 . S
C719 C716 1.539 . S
C719 H733 0.958 . S
C719 H734 0.961 . S
C719 H735 0.960 . S
H720 C704 0.931 . S
H721 C709 0.929 . S
H722 C710 0.960 . S
H723 C710 0.962 . S
H724 C710 0.960 . S
H725 C711 0.961 . S
H726 C711 0.961 . S
H727 C711 0.961 . S
H728 C712 0.931 . S
H729 C717 0.930 . S
H730 C718 0.956 . S
H731 C718 0.961 . S
H732 C718 0.961 . S
H733 C719 0.958 . S
H734 C719 0.961 . S
H735 C719 0.960 . S
C736 C737 1.391 . S
C736 C738 1.394 . S
C736 H752 0.931 1_565 S
C737 C736 1.391 . S
C737 C741 1.376 . S
C738 C736 1.394 . S
C738 C739 1.369 . S
C738 C742 1.531 1_565 S
C739 C738 1.369 . S
C739 C740 1.410 . S
C739 C747 1.503 . S
C740 C739 1.410 . S
C740 C741 1.392 . S
C740 C743 1.511 . S
C741 C737 1.376 . S
C741 C740 1.392 . S
C741 H753 0.929 . S
C742 C738 1.531 1_545 S
C742 H754 0.960 . S
C742 H755 0.962 . S
C742 H756 0.960 . S
C743 C740 1.511 . S
C743 H757 0.953 1_556 S
C743 H758 0.961 1_556 S
C743 H759 0.961 . S
C744 C745 1.370 . S
C744 C746 1.363 . S
C744 H760 0.931 1_565 S
C745 C744 1.370 . S
C745 C749 1.408 1_554 S
C746 C744 1.363 . S
C746 C747 1.370 1_554 S
C746 C750 1.524 . S
C747 C739 1.503 . S
C747 C746 1.370 1_556 S
C747 C748 1.403 . S
C748 C747 1.403 . S
C748 C749 1.404 . S
C748 C751 1.539 . S
C749 C745 1.408 1_556 S
C749 C748 1.404 . S
C749 H761 0.930 . S
C750 C746 1.524 . S
C750 H762 0.956 1_565 S
C750 H763 0.961 . S
C750 H764 0.961 . S
C751 C748 1.539 . S
C751 H765 0.958 . S
C751 H766 0.961 . S
C751 H767 0.960 . S
H752 C736 0.931 1_545 S
H753 C741 0.929 . S
H754 C742 0.960 . S
H755 C742 0.962 . S
H756 C742 0.960 . S
H757 C743 0.953 1_554 S
H758 C743 0.961 1_554 S
H759 C743 0.961 . S
H760 C744 0.931 1_545 S
H761 C749 0.930 . S
H762 C750 0.956 1_545 S
H763 C750 0.961 . S
H764 C750 0.961 . S
H765 C751 0.958 . S
H766 C751 0.961 . S
H767 C751 0.960 . S
C768 C769 1.391 . S
C768 C770 1.394 . S
C768 H784 0.931 . S
C769 C768 1.391 . S
C769 C773 1.376 . S
C770 C768 1.394 . S
C770 C771 1.369 . S
C770 C774 1.531 . S
C771 C770 1.369 . S
C771 C772 1.410 . S
C771 C779 1.503 . S
C772 C771 1.410 . S
C772 C773 1.392 . S
C772 C775 1.511 . S
C773 C769 1.376 . S
C773 C772 1.392 . S
C773 H785 0.929 . S
C774 C770 1.531 . S
C774 H786 0.960 . S
C774 H787 0.962 . S
C774 H788 0.960 . S
C775 C772 1.511 . S
C775 H789 0.961 . S
C775 H790 0.961 . S
C775 H791 0.961 . S
C776 C777 1.370 . S
C776 C778 1.363 . S
C776 H792 0.931 . S
C777 C776 1.370 . S
C777 C781 1.408 . S
C778 C776 1.363 . S
C778 C779 1.370 . S
C778 C782 1.524 . S
C779 C771 1.503 . S
C779 C778 1.370 . S
C779 C780 1.403 . S
C780 C779 1.403 . S
C780 C781 1.404 . S
C780 C783 1.539 . S
C781 C777 1.408 . S
C781 C780 1.404 . S
C781 H793 0.930 . S
C782 C778 1.524 . S
C782 H794 0.956 . S
C782 H795 0.961 . S
C782 H796 0.961 . S
C783 C780 1.539 . S
C783 H797 0.958 . S
C783 H798 0.961 . S
C783 H799 0.960 . S
H784 C768 0.931 . S
H785 C773 0.929 . S
H786 C774 0.960 . S
H787 C774 0.962 . S
H788 C774 0.960 . S
H789 C775 0.961 . S
H790 C775 0.961 . S
H791 C775 0.961 . S
H792 C776 0.931 . S
H793 C781 0.930 . S
H794 C782 0.956 . S
H795 C782 0.961 . S
H796 C782 0.961 . S
H797 C783 0.958 . S
H798 C783 0.961 . S
H799 C783 0.960 . S
C800 C801 1.391 . S
C800 C802 1.394 . S
C800 H816 0.931 . S
C801 C800 1.391 . S
C801 C805 1.376 . S
C802 C800 1.394 . S
C802 C803 1.369 . S
C802 C806 1.531 . S
C803 C802 1.369 . S
C803 C804 1.410 . S
C803 C811 1.503 . S
C804 C803 1.410 . S
C804 C805 1.392 . S
C804 C807 1.511 . S
C805 C801 1.376 . S
C805 C804 1.392 . S
C805 H817 0.929 . S
C806 C802 1.531 . S
C806 H818 0.960 . S
C806 H819 0.962 . S
C806 H820 0.960 . S
C807 C804 1.511 . S
C807 H821 0.961 . S
C807 H822 0.961 . S
C807 H823 0.961 . S
C808 C809 1.370 . S
C808 C810 1.363 . S
C808 H824 0.931 . S
C809 C808 1.370 . S
C809 C813 1.408 . S
C810 C808 1.363 . S
C810 C811 1.370 . S
C810 C814 1.524 . S
C811 C803 1.503 . S
C811 C810 1.370 . S
C811 C812 1.403 . S
C812 C811 1.403 . S
C812 C813 1.404 . S
C812 C815 1.539 1_554 S
C813 C809 1.408 . S
C813 C812 1.404 . S
C813 H825 0.946 . S
C814 C810 1.524 . S
C814 H826 0.956 . S
C814 H827 0.961 . S
C814 H828 0.961 . S
C815 C812 1.539 1_556 S
C815 H829 0.958 . S
C815 H830 0.961 . S
C815 H831 0.962 . S
H816 C800 0.931 . S
H817 C805 0.929 . S
H818 C806 0.960 . S
H819 C806 0.962 . S
H820 C806 0.960 . S
H821 C807 0.961 . S
H822 C807 0.961 . S
H823 C807 0.961 . S
H824 C808 0.931 . S
H825 C813 0.946 . S
H826 C814 0.956 . S
H827 C814 0.961 . S
H828 C814 0.961 . S
H829 C815 0.958 . S
H830 C815 0.961 . S
H831 C815 0.962 . S
C832 C833 1.391 . S
C832 C834 1.394 . S
C832 H848 0.931 . S
C833 C832 1.391 . S
C833 C837 1.376 . S
C834 C832 1.394 . S
C834 C835 1.369 . S
C834 C838 1.531 . S
C835 C834 1.369 . S
C835 C836 1.410 . S
C835 C843 1.503 . S
C836 C835 1.410 . S
C836 C837 1.392 . S
C836 C839 1.511 . S
C837 C833 1.376 . S
C837 C836 1.392 . S
C837 H849 0.929 . S
C838 C834 1.531 . S
C838 H850 0.960 . S
C838 H851 0.962 . S
C838 H852 0.960 . S
C839 C836 1.511 . S
C839 H853 0.961 . S
C839 H854 0.961 . S
C839 H855 0.961 . S
C840 C841 1.370 . S
C840 C842 1.363 . S
C840 H856 0.931 . S
C841 C840 1.370 . S
C841 C845 1.408 . S
C842 C840 1.363 . S
C842 C843 1.370 . S
C842 C846 1.524 . S
C843 C835 1.503 . S
C843 C842 1.370 . S
C843 C844 1.403 . S
C844 C843 1.403 . S
C844 C845 1.404 . S
C844 C847 1.539 . S
C845 C841 1.408 . S
C845 C844 1.404 . S
C845 H857 0.930 . S
C846 C842 1.524 . S
C846 H858 0.956 . S
C846 H859 0.961 . S
C846 H860 0.961 . S
C847 C844 1.539 . S
C847 H861 0.958 . S
C847 H862 0.961 . S
C847 H863 0.960 . S
H848 C832 0.931 . S
H849 C837 0.929 . S
H850 C838 0.960 . S
H851 C838 0.962 . S
H852 C838 0.960 . S
H853 C839 0.961 . S
H854 C839 0.961 . S
H855 C839 0.961 . S
H856 C840 0.931 . S
H857 C845 0.930 . S
H858 C846 0.956 . S
H859 C846 0.961 . S
H860 C846 0.961 . S
H861 C847 0.958 . S
H862 C847 0.961 . S
H863 C847 0.960 . S
C864 C865 1.391 . S
C864 C866 1.394 1_655 S
C864 H880 0.931 1_655 S
C865 C864 1.391 . S
C865 C869 1.376 . S
C866 C864 1.394 1_455 S
C866 C867 1.369 1_455 S
C866 C870 1.531 . S
C867 C866 1.369 1_655 S
C867 C868 1.410 . S
C867 C875 1.503 . S
C868 C867 1.410 . S
C868 C869 1.392 . S
C868 C871 1.511 . S
C869 C865 1.376 . S
C869 C868 1.392 . S
C869 H881 0.929 . S
C870 C866 1.531 . S
C870 H882 0.960 1_556 S
C870 H883 0.962 . S
C870 H884 0.960 . S
C871 C868 1.511 . S
C871 H885 0.961 . S
C871 H886 0.961 . S
C871 H887 0.933 1_556 S
C872 C873 1.370 . S
C872 C874 1.363 1_455 S
C872 H888 0.931 . S
C873 C872 1.370 . S
C873 C877 1.408 1_456 S
C874 C872 1.363 1_655 S
C874 C875 1.370 . S
C874 C878 1.524 . S
C875 C867 1.503 . S
C875 C874 1.370 . S
C875 C876 1.403 1_556 S
C876 C875 1.403 1_554 S
C876 C877 1.404 . S
C876 C879 1.539 . S
C877 C873 1.408 1_654 S
C877 C876 1.404 . S
C877 H889 0.930 . S
C878 C874 1.524 . S
C878 H890 0.956 1_655 S
C878 H891 0.961 . S
C878 H892 0.961 . S
C879 C876 1.539 . S
C879 H893 0.958 . S
C879 H894 0.961 . S
C879 H895 0.960 . S
H880 C864 0.931 1_455 S
H881 C869 0.929 . S
H882 C870 0.960 1_554 S
H883 C870 0.962 . S
H884 C870 0.960 . S
H885 C871 0.961 . S
H886 C871 0.961 . S
H887 C871 0.933 1_554 S
H888 C872 0.931 . S
H889 C877 0.930 . S
H890 C878 0.956 1_455 S
H891 C878 0.961 . S
H892 C878 0.961 . S
H893 C879 0.958 . S
H894 C879 0.961 . S
H895 C879 0.960 . S
C896 C897 1.391 . S
C896 C898 1.394 . S
C896 H912 0.931 . S
C897 C896 1.391 . S
C897 C901 1.376 . S
C898 C896 1.394 . S
C898 C899 1.369 . S
C898 C902 1.531 . S
C899 C898 1.369 . S
C899 C900 1.410 . S
C899 C907 1.503 . S
C900 C899 1.410 . S
C900 C901 1.392 . S
C900 C903 1.511 . S
C901 C897 1.376 . S
C901 C900 1.392 . S
C901 H913 0.929 . S
C902 C898 1.531 . S
C902 H914 0.960 . S
C902 H915 0.962 . S
C902 H916 0.960 . S
C903 C900 1.511 . S
C903 H917 0.961 . S
C903 H918 0.961 . S
C903 H919 0.961 . S
C904 C905 1.370 . S
C904 C906 1.363 . S
C904 H920 0.931 . S
C905 C904 1.370 . S
C905 C909 1.408 . S
C906 C904 1.363 . S
C906 C907 1.370 . S
C906 C910 1.524 . S
C907 C899 1.503 . S
C907 C906 1.370 . S
C907 C908 1.403 . S
C908 C907 1.403 . S
C908 C909 1.404 . S
C908 C911 1.539 . S
C909 C905 1.408 . S
C909 C908 1.404 . S
C909 H921 0.930 . S
C910 C906 1.524 . S
C910 H922 0.956 . S
C910 H923 0.961 . S
C910 H924 0.961 . S
C911 C908 1.539 . S
C911 H925 0.958 . S
C911 H926 0.961 . S
C911 H927 0.960 . S
H912 C896 0.931 . S
H913 C901 0.929 . S
H914 C902 0.960 . S
H915 C902 0.962 . S
H916 C902 0.960 . S
H917 C903 0.961 . S
H918 C903 0.961 . S
H919 C903 0.961 . S
H920 C904 0.931 . S
H921 C909 0.930 . S
H922 C910 0.956 . S
H923 C910 0.961 . S
H924 C910 0.961 . S
H925 C911 0.958 . S
H926 C911 0.961 . S
H927 C911 0.960 . S
C928 C929 1.391 . S
C928 C930 1.394 . S
C928 H944 0.931 . S
C929 C928 1.391 . S
C929 C933 1.376 . S
C930 C928 1.394 . S
C930 C931 1.369 . S
C930 C934 1.531 . S
C931 C930 1.369 . S
C931 C932 1.410 . S
C931 C939 1.503 . S
C932 C931 1.410 . S
C932 C933 1.392 . S
C932 C935 1.511 . S
C933 C929 1.376 . S
C933 C932 1.392 . S
C933 H945 0.929 . S
C934 C930 1.531 . S
C934 H946 0.960 . S
C934 H947 0.962 . S
C934 H948 0.960 . S
C935 C932 1.511 . S
C935 H949 0.961 . S
C935 H950 0.961 . S
C935 H951 0.961 . S
C936 C937 1.370 . S
C936 C938 1.363 . S
C936 H952 0.931 . S
C937 C936 1.370 . S
C937 C941 1.408 . S
C938 C936 1.363 . S
C938 C939 1.370 . S
C938 C942 1.524 . S
C939 C931 1.503 . S
C939 C938 1.370 . S
C939 C940 1.403 . S
C940 C939 1.403 . S
C940 C941 1.404 . S
C940 C943 1.539 . S
C941 C937 1.408 . S
C941 C940 1.404 . S
C941 H953 0.930 . S
C942 C938 1.524 . S
C942 H954 0.956 . S
C942 H955 0.961 . S
C942 H956 0.961 . S
C943 C940 1.539 . S
C943 H957 0.958 . S
C943 H958 0.961 . S
C943 H959 0.960 . S
H944 C928 0.931 . S
H945 C933 0.929 . S
H946 C934 0.960 . S
H947 C934 0.962 . S
H948 C934 0.960 . S
H949 C935 0.961 . S
H950 C935 0.961 . S
H951 C935 0.961 . S
H952 C936 0.931 . S
H953 C941 0.930 . S
H954 C942 0.956 . S
H955 C942 0.961 . S
H956 C942 0.961 . S
H957 C943 0.958 . S
H958 C943 0.961 . S
H959 C943 0.960 . S
C960 C961 1.391 . S
C960 C962 1.394 . S
C960 H976 0.931 . S
C961 C960 1.391 . S
C961 C965 1.376 . S
C962 C960 1.394 . S
C962 C963 1.369 . S
C962 C966 1.531 . S
C963 C962 1.369 . S
C963 C964 1.410 . S
C963 C971 1.503 . S
C964 C963 1.410 . S
C964 C965 1.392 . S
C964 C967 1.511 . S
C965 C961 1.376 . S
C965 C964 1.392 . S
C965 H977 0.929 . S
C966 C962 1.531 . S
C966 H978 0.960 . S
C966 H979 0.962 . S
C966 H980 0.960 . S
C967 C964 1.511 . S
C967 H981 0.961 . S
C967 H982 0.961 . S
C967 H983 0.961 . S
C968 C969 1.370 . S
C968 C970 1.363 . S
C968 H984 0.931 . S
C969 C968 1.370 . S
C969 C973 1.408 . S
C970 C968 1.363 . S
C970 C971 1.370 . S
C970 C974 1.524 . S
C971 C963 1.503 . S
C971 C970 1.370 . S
C971 C972 1.403 . S
C972 C971 1.403 . S
C972 C973 1.404 . S
C972 C975 1.539 . S
C973 C969 1.408 . S
C973 C972 1.404 . S
C973 H985 0.930 . S
C974 C970 1.524 . S
C974 H986 0.956 . S
C974 H987 0.961 . S
C974 H988 0.961 . S
C975 C972 1.539 . S
C975 H989 0.958 . S
C975 H990 0.961 . S
C975 H991 0.960 . S
H976 C960 0.931 . S
H977 C965 0.929 . S
H978 C966 0.960 . S
H979 C966 0.962 . S
H980 C966 0.960 . S
H981 C967 0.961 . S
H982 C967 0.961 . S
H983 C967 0.961 . S
H984 C968 0.931 . S
H985 C973 0.930 . S
H986 C974 0.956 . S
H987 C974 0.961 . S
H988 C974 0.961 . S
H989 C975 0.958 . S
H990 C975 0.961 . S
H991 C975 0.960 . S
C225 C5 2.498 . S
C233 C88 2.649 . S
C257 C18 2.281 . S
C265 C130 2.393 1_566 S
C297 C160 0.815 . S
C289 C30 0.791 . S
C321 C41 0.818 . S
C329 C194 0.827 . S
C361 C151 2.118 . S
C353 C7 2.036 . S
C393 C105 2.134 . S
C385 C16 1.759 . S
C425 C198 1.370 1_556 S
C417 C29 1.270 . S
C457 C164 0.912 . S
C449 C38 0.905 . S
C481 C8 2.278 . S
C489 C219 2.277 . S
C521 C126 1.277 . S
C513 C27 1.092 1_554 S
C545 C40 1.047 . S
C553 C101 1.075 . S
C577 C19 1.764 . S
C585 C185 1.803 . S
C617 C117 2.430 1_565 S
C609 C51 2.381 . S
C641 C62 2.342 . S
C649 C139 2.471 . S
C673 C74 0.922 . S
C681 C169 0.887 . S
C705 C84 0.862 . S
C713 C203 0.942 . S
C737 C49 2.097 . S
C745 C122 2.217 1_565 S
C777 C96 1.839 . S
C769 C63 1.800 . S
C809 C207 1.307 . S
C801 C71 1.082 . S
C841 C173 1.021 . S
C833 C85 0.983 . S
C865 C52 2.249 . S
C873 C190 2.255 1_556 S
C905 C135 1.323 . S
C897 C73 1.266 . S
C937 C92 0.996 . S
C929 C82 0.860 . S
C961 C60 1.999 . S
C969 C156 2.336 . S
