# Generated by pormake.
# Topology pth, (4,4)-cn, num edge types: 1
# Building blocks:
#     Node 0, Type 0, BuildingBlock: KUFVIS_clean_sbu_0, # of connection points: 4
#     Node 1, Type 0, BuildingBlock: KUFVIS_clean_sbu_0, # of connection points: 4
#     Node 2, Type 0, BuildingBlock: KUFVIS_clean_sbu_0, # of connection points: 4
#     Node 3, Type 1, BuildingBlock: KOZSID_clean_sbu_0, # of connection points: 4
#     Node 4, Type 1, BuildingBlock: KOZSID_clean_sbu_0, # of connection points: 4
#     Node 5, Type 1, BuildingBlock: KOZSID_clean_sbu_0, # of connection points: 4
#     Edge 6, Type (0, 1), BuildingBlock: EZIPEK_clean_linker_0, # of connection points: 2
#     Edge 7, Type (0, 1), BuildingBlock: EZIPEK_clean_linker_0, # of connection points: 2
#     Edge 8, Type (0, 1), BuildingBlock: EZIPEK_clean_linker_0, # of connection points: 2
#     Edge 9, Type (0, 1), BuildingBlock: EZIPEK_clean_linker_0, # of connection points: 2
#     Edge 10, Type (0, 1), BuildingBlock: EZIPEK_clean_linker_0, # of connection points: 2
#     Edge 11, Type (0, 1), BuildingBlock: EZIPEK_clean_linker_0, # of connection points: 2
#     Edge 12, Type (0, 1), BuildingBlock: EZIPEK_clean_linker_0, # of connection points: 2
#     Edge 13, Type (0, 1), BuildingBlock: EZIPEK_clean_linker_0, # of connection points: 2
#     Edge 14, Type (0, 1), BuildingBlock: EZIPEK_clean_linker_0, # of connection points: 2
#     Edge 15, Type (0, 1), BuildingBlock: EZIPEK_clean_linker_0, # of connection points: 2
#     Edge 16, Type (0, 1), BuildingBlock: EZIPEK_clean_linker_0, # of connection points: 2
#     Edge 17, Type (0, 1), BuildingBlock: EZIPEK_clean_linker_0, # of connection points: 2
# Relax obj value: 0.011
# Max RMSD: 0.089
# Mean RMSD: 0.053
data_MOF--net-pth--node1-KUFVIS_clean_sbu_0--node2-KOZSID_clean_sbu_0--edge1-EZIPEK_clean_linker_0
_symmetry_space_group_name_H-M    P1
_symmetry_Int_Tables_number       1
_symmetry_cell_setting            triclinic
loop_
_symmetry_equiv_pos_as_xyz
'x, y, z'
_cell_length_a     19.89718
_cell_length_b     19.949506
_cell_length_c     46.284513
_cell_angle_alpha  86.823184
_cell_angle_beta   88.703246
_cell_angle_gamma 120.38699
loop_
_atom_site_label
_atom_site_type_symbol
_atom_site_fract_x
_atom_site_fract_y
_atom_site_fract_z
_atom_type_partial_charge
Mn0 Mn 0.11269 0.06042 0.04189 0.0
Mn1 Mn 0.02501 0.14021 0.00303 0.0
C2 C 0.0325 0.9941 0.00493 0.0
C3 C 0.11054 0.97656 0.08043 0.0
C4 C 0.19795 0.19482 0.99388 0.0
O5 O 0.11937 0.1437 0.06795 0.0
O6 O 0.05846 0.19105 0.04019 0.0
C7 C 0.88542 0.08452 0.04291 0.0
N8 N 0.91723 0.08784 0.01611 0.0
C9 C 0.79007 0.00927 0.99796 0.0
C10 C 0.75601 0.00545 0.02531 0.0
C11 C 0.80393 0.043 0.0479 0.0
C12 C 0.87164 0.05107 0.99433 0.0
H13 H 0.92191 0.11314 0.06038 0.0
C14 C 0.09303 0.18993 0.06314 0.0
O15 O 0.17574 0.03156 0.06774 0.0
O16 O 0.0474 0.97355 0.07218 0.0
N17 N 0.98795 0.0957 0.96697 0.0
C18 C 0.02958 0.10647 0.94167 0.0
C19 C 0.99044 0.07059 0.91717 0.0
C20 C 0.90863 0.02609 0.91864 0.0
C21 C 0.86671 0.01878 0.94451 0.0
C22 C 0.90906 0.0553 0.96831 0.0
H23 H 0.09198 0.14289 0.94012 0.0
O24 O 0.08629 0.98018 0.0132 0.0
O25 O 0.02921 0.04873 0.01787 0.0
O26 O 0.19871 0.14722 0.01345 0.0
O27 O 0.13612 0.19619 0.98779 0.0
C28 C 0.78458 0.97699 0.94758 0.0
C29 C 0.74627 0.97245 0.97427 0.0
H30 H 0.69317 0.97347 0.02925 0.0
H31 H 0.77809 0.03998 0.06911 0.0
H32 H 0.02322 0.07773 0.89716 0.0
H33 H 0.87862 0.99877 0.89965 0.0
H34 H 0.75033 0.94787 0.9296 0.0
H35 H 0.6831 0.93965 0.97644 0.0
Mn36 Mn 0.06249 0.07436 0.3752 0.0
Mn37 Mn 0.17118 0.24819 0.40294 0.0
C38 C 0.14951 0.08818 0.41041 0.0
C39 C 0.04967 0.98604 0.34075 0.0
C40 C 0.99808 0.14095 0.42015 0.0
O41 O 0.05339 0.14994 0.34561 0.0
O42 O 0.1306 0.26302 0.36564 0.0
C43 C 0.30061 0.31651 0.35778 0.0
N44 N 0.27528 0.29543 0.3862 0.0
C45 C 0.40631 0.34407 0.40075 0.0
C46 C 0.43389 0.36685 0.37167 0.0
C47 C 0.38074 0.35268 0.35008 0.0
C48 C 0.32579 0.30802 0.4071 0.0
H49 H 0.25995 0.30569 0.34111 0.0
C50 C 0.08628 0.22417 0.34583 0.0
O51 O 0.98892 0.97972 0.35461 0.0
O52 O 0.11644 0.04558 0.34554 0.0
N53 N 0.21554 0.24333 0.43882 0.0
C54 C 0.17919 0.21094 0.4654 0.0
C55 C 0.22391 0.21812 0.48934 0.0
C56 C 0.30565 0.25788 0.48566 0.0
C57 C 0.34187 0.28954 0.45801 0.0
C58 C 0.29423 0.28108 0.43502 0.0
H59 H 0.11658 0.1768 0.46805 0.0
O60 O 0.09131 0.02023 0.40592 0.0
O61 O 0.15417 0.14622 0.39431 0.0
O62 O 0.98871 0.08558 0.40466 0.0
O63 O 0.06428 0.20333 0.42125 0.0
C64 C 0.4233 0.32801 0.45226 0.0
C65 C 0.45548 0.35487 0.42363 0.0
H66 H 0.49566 0.3947 0.36564 0.0
H67 H 0.4015 0.36967 0.32756 0.0
H68 H 0.19535 0.19175 0.51047 0.0
H69 H 0.33991 0.26236 0.5041 0.0
H70 H 0.46173 0.33649 0.46964 0.0
H71 H 0.51806 0.38304 0.41942 0.0
Mn72 Mn 0.13091 0.07749 0.70568 0.0
Mn73 Mn 0.05656 0.16098 0.7472 0.0
C74 C 0.19909 0.14771 0.74475 0.0
C75 C 0.21147 0.07983 0.66695 0.0
C76 C 0.99203 0.98684 0.75132 0.0
O77 O 0.05137 0.08405 0.67941 0.0
O78 O 1.00548 0.13851 0.70935 0.0
C79 C 0.13764 0.31025 0.71068 0.0
N80 N 0.11708 0.27101 0.73737 0.0
C81 C 0.19568 0.38986 0.76031 0.0
C82 C 0.21179 0.43208 0.73331 0.0
C83 C 0.18386 0.39193 0.7083 0.0
C84 C 0.14867 0.3086 0.76128 0.0
H85 H 0.12159 0.27913 0.69133 0.0
C86 C 1.0049 0.10917 0.68528 0.0
O87 O 0.15305 0.01509 0.67849 0.0
O88 O 0.22026 0.14353 0.67649 0.0
N89 N 0.09818 0.18499 0.78457 0.0
C90 C 0.08462 0.13525 0.80827 0.0
C91 C 0.11559 0.16542 0.83463 0.0
C92 C 0.15838 0.24639 0.83658 0.0
C93 C 0.1702 0.29643 0.81206 0.0
C94 C 0.13815 0.26297 0.78634 0.0
H95 H 0.05039 0.07306 0.80709 0.0
O96 O 0.21082 0.09444 0.73511 0.0
O97 O 0.14558 0.1552 0.732 0.0
O98 O 0.04007 0.98852 0.732 0.0
O99 O 0.99348 0.04794 0.75918 0.0
C100 C 0.21326 0.37819 0.81203 0.0
C101 C 0.22686 0.42494 0.78609 0.0
H102 H 0.24831 0.495 0.73139 0.0
H103 H 0.19952 0.42368 0.68718 0.0
H104 H 0.10657 0.12634 0.85338 0.0
H105 H 0.18229 0.26948 0.85693 0.0
H106 H 0.23791 0.40569 0.8317 0.0
H107 H 0.26267 0.48771 0.78609 0.0
C108 C 0.16347 0.72664 0.16597 0.0
C109 C 0.23764 0.7861 0.15634 0.0
C110 C 0.28907 0.77337 0.17122 0.0
C111 C 0.2436 0.70695 0.18893 0.0
N112 N 0.16618 0.67562 0.18592 0.0
Co113 Co 0.07948 0.58054 0.20827 0.0
N114 N 0.15464 0.56864 0.23324 0.0
C115 C 0.23296 0.61654 0.23234 0.0
C116 C 0.26955 0.59306 0.25167 0.0
C117 C 0.21131 0.52555 0.26556 0.0
C118 C 0.14228 0.51147 0.25373 0.0
N119 N 0.99296 0.48436 0.23024 0.0
C120 C 0.99596 0.43375 0.25037 0.0
C121 C 0.92217 0.37123 0.25854 0.0
C122 C 0.87074 0.38208 0.24284 0.0
C123 C 0.91583 0.4502 0.22596 0.0
N124 N 1.00431 0.59381 0.18378 0.0
C125 C 0.92574 0.54746 0.18529 0.0
C126 C 0.88889 0.57455 0.1676 0.0
C127 C 0.9472 0.6432 0.15441 0.0
C128 C 0.01662 0.65396 0.16477 0.0
N129 N 0.08823 0.51239 0.17998 0.0
C130 C 0.0982 0.40842 0.14317 0.0
C131 C 0.027 0.40363 0.14964 0.0
C132 C 0.02338 0.45584 0.16781 0.0
C133 C 0.16463 0.46676 0.15501 0.0
C134 C 0.15845 0.5178 0.17314 0.0
N135 N 0.07037 0.6486 0.2364 0.0
C136 C 0.99074 0.68737 0.26319 0.0
C137 C 0.05689 0.75494 0.27069 0.0
C138 C 0.12995 0.76718 0.2616 0.0
C139 C 0.13536 0.71354 0.24477 0.0
C140 C 0.99871 0.63535 0.24624 0.0
H141 H 0.19277 0.72635 0.23846 0.0
H142 H 0.94594 0.58529 0.24106 0.0
H143 H 0.96724 0.44883 0.17182 0.0
H144 H 0.21128 0.56079 0.18153 0.0
C145 C 0.2711 0.67846 0.2111 0.0
C146 C 0.0924 0.72367 0.1567 0.0
C147 C 0.06716 0.44119 0.26182 0.0
C148 C 0.888 0.4819 0.20505 0.0
H149 H 0.25286 0.83508 0.14088 0.0
H150 H 0.35197 0.81023 0.17026 0.0
H151 H 0.33152 0.62023 0.25457 0.0
H152 H 0.219 0.48955 0.28196 0.0
H153 H 0.90724 0.32213 0.27389 0.0
H154 H 0.8081 0.34384 0.24316 0.0
H155 H 0.82677 0.54889 0.16537 0.0
H156 H 0.93934 0.68198 0.13944 0.0
H157 H 0.9742 0.35968 0.14065 0.0
H158 H 0.22114 0.47289 0.1503 0.0
H159 H 0.93304 0.67497 0.27027 0.0
H160 H 0.18277 0.81819 0.26742 0.0
C161 C 0.44602 0.01298 0.58218 0.0
C162 C 0.38431 0.9401 0.59203 0.0
C163 C 0.39436 0.88672 0.57828 0.0
C164 C 0.46116 0.92986 0.5608 0.0
N165 N 0.49557 0.00751 0.56302 0.0
Co166 Co 0.58787 0.0913 0.53863 0.0
N167 N 0.59852 0.01316 0.51636 0.0
C168 C 0.55512 0.93476 0.52101 0.0
C169 C 0.57985 0.89592 0.50424 0.0
C170 C 0.64408 0.95298 0.48832 0.0
C171 C 0.65453 0.0235 0.49625 0.0
N172 N 0.67699 0.17525 0.51315 0.0
C173 C 0.72283 0.17035 0.49218 0.0
C174 C 0.77806 0.24343 0.47968 0.0
C175 C 0.76787 0.29643 0.49367 0.0
C176 C 0.70691 0.25291 0.51372 0.0
N177 N 0.57996 0.16934 0.56188 0.0
C178 C 0.62896 0.24739 0.55944 0.0
C179 C 0.60811 0.28624 0.57785 0.0
C180 C 0.5412 0.22976 0.59263 0.0
C181 C 0.52478 0.15947 0.58223 0.0
N182 N 0.66246 0.0887 0.56632 0.0
C183 C 0.77189 0.08539 0.60367 0.0
C184 C 0.78747 0.15425 0.58813 0.0
C185 C 0.73229 0.15486 0.57009 0.0
C186 C 0.70049 0.01797 0.6002 0.0
C187 C 0.64729 0.02074 0.58141 0.0
N188 N 0.51344 0.09402 0.51107 0.0
C189 C 0.45186 0.16149 0.48958 0.0
C190 C 0.39754 0.09452 0.47709 0.0
C191 C 0.40335 0.02775 0.4811 0.0
C192 C 0.46096 0.02854 0.49823 0.0
C193 C 0.50974 0.16048 0.50586 0.0
H194 H 0.46109 0.97517 0.50116 0.0
H195 H 0.55002 0.21403 0.51441 0.0
H196 H 0.74771 0.20988 0.55945 0.0
H197 H 0.59421 0.96717 0.57951 0.0
C198 C 0.49184 0.89961 0.54142 0.0
C199 C 0.45357 0.0857 0.59097 0.0
C200 C 0.72022 0.09871 0.4849 0.0
C201 C 0.68465 0.28297 0.5362 0.0
H202 H 0.33612 0.927 0.60712 0.0
H203 H 0.35633 0.82404 0.58021 0.0
H204 H 0.55502 0.83356 0.50401 0.0
H205 H 0.68 0.94387 0.47297 0.0
H206 H 0.82298 0.25705 0.46295 0.0
H207 H 0.80336 0.35931 0.49063 0.0
H208 H 0.6355 0.34861 0.5791 0.0
H209 H 0.50657 0.23946 0.60839 0.0
H210 H 0.84169 0.20809 0.59041 0.0
H211 H 0.68555 0.9635 0.61213 0.0
H212 H 0.44954 0.21444 0.48684 0.0
H213 H 0.36239 0.97467 0.4716 0.0
C214 C 0.74642 0.64332 0.82826 0.0
C215 C 0.80841 0.63321 0.82065 0.0
C216 C 0.80675 0.57971 0.84082 0.0
C217 C 0.74364 0.5596 0.85939 0.0
N218 N 0.70369 0.59539 0.85189 0.0
Co219 Co 0.60927 0.58261 0.87365 0.0
N220 N 0.59859 0.49349 0.89949 0.0
C221 C 0.65175 0.471 0.90193 0.0
C222 C 0.62724 0.40625 0.92076 0.0
C223 C 0.55383 0.38638 0.9309 0.0
C224 C 0.53781 0.44038 0.91763 0.0
N225 N 0.51662 0.57105 0.89605 0.0
C226 C 0.46479 0.51302 0.91544 0.0
C227 C 0.40907 0.52892 0.92612 0.0
C228 C 0.42646 0.59939 0.9129 0.0
C229 C 0.49159 0.62241 0.89499 0.0
N230 N 0.61777 0.66962 0.84684 0.0
C231 C 0.57736 0.70649 0.85038 0.0
C232 C 0.59792 0.7672 0.83003 0.0
C233 C 0.65657 0.77069 0.81287 0.0
C234 C 0.66862 0.71146 0.82368 0.0
N235 N 0.5398 0.50639 0.84687 0.0
C236 C 0.43202 0.38953 0.81305 0.0
C237 C 0.42225 0.4513 0.82048 0.0
C238 C 0.47636 0.50874 0.83729 0.0
C239 C 0.49853 0.38904 0.82207 0.0
C240 C 0.55133 0.44759 0.83894 0.0
N241 N 0.67847 0.65886 0.90105 0.0
C242 C 0.78067 0.78909 0.91007 0.0
C243 C 0.78535 0.76477 0.93836 0.0
C244 C 0.73256 0.68725 0.94831 0.0
C245 C 0.67832 0.63611 0.92964 0.0
C246 C 0.72812 0.73577 0.89192 0.0
H247 H 0.63698 0.57824 0.93869 0.0
H248 H 0.73048 0.75869 0.87036 0.0
H249 H 0.46589 0.55444 0.84281 0.0
H250 H 0.60068 0.44409 0.8459 0.0
C251 C 0.7182 0.50463 0.88314 0.0
C252 C 0.73843 0.70754 0.81525 0.0
C253 C 0.46664 0.44246 0.92436 0.0
C254 C 0.52226 0.68397 0.87355 0.0
H255 H 0.85252 0.66428 0.80315 0.0
H256 H 0.84725 0.55863 0.84199 0.0
H257 H 0.65788 0.37546 0.92573 0.0
H258 H 0.51647 0.33797 0.94638 0.0
H259 H 0.36041 0.49283 0.94154 0.0
H260 H 0.3934 0.62854 0.91509 0.0
H261 H 0.57518 0.80634 0.82854 0.0
H262 H 0.68989 0.8152 0.7956 0.0
H263 H 0.37324 0.45548 0.81324 0.0
H264 H 0.50905 0.34302 0.81643 0.0
H265 H 0.81976 0.84879 0.9016 0.0
H266 H 0.73323 0.66634 0.97034 0.0
C267 C 0.06966 0.22019 0.1138 0.0
C268 C 0.10215 0.24665 0.08487 0.0
C269 C 0.13118 0.37909 0.09413 0.0
C270 C 0.10299 0.35359 0.12344 0.0
N271 N 0.05937 0.25385 0.16273 0.0
N272 N 0.17798 0.35479 0.04938 0.0
C273 C 0.07668 0.27531 0.13374 0.0
C274 C 0.13714 0.32722 0.07565 0.0
N275 N 0.02789 0.14207 0.12183 0.0
N276 N 0.14935 0.45205 0.08355 0.0
H277 H 0.18345 0.31904 0.0351 0.0
H278 H 0.21231 0.41387 0.04283 0.0
H279 H 0.1466 0.49208 0.09637 0.0
H280 H 0.16109 0.47084 0.06162 0.0
H281 H 0.99541 0.11886 0.14149 0.0
H282 H 0.01984 0.0996 0.10791 0.0
H283 H 0.04808 0.20022 0.1721 0.0
H284 H 0.06298 0.29231 0.17783 0.0
C285 C 0.92909 0.15258 0.46576 0.0
C286 C 0.92725 0.13442 0.43618 0.0
C287 C 0.78761 0.09667 0.43785 0.0
C288 C 0.78867 0.10373 0.46818 0.0
N289 N 0.85633 0.12088 0.51202 0.0
N290 N 0.85242 0.093 0.39347 0.0
C291 C 0.85797 0.12532 0.48241 0.0
C292 C 0.85543 0.10673 0.42215 0.0
N293 N 0.99756 0.20158 0.47766 0.0
N294 N 0.72275 0.08365 0.42386 0.0
H295 H 0.90191 0.11211 0.37973 0.0
H296 H 0.80047 0.06181 0.38324 0.0
H297 H 0.6719 0.07424 0.43478 0.0
H298 H 0.72057 0.08693 0.40141 0.0
H299 H 1.00018 0.21903 0.49862 0.0
H300 H 0.04956 0.23669 0.46556 0.0
H301 H 0.90373 0.1284 0.52358 0.0
H302 H 0.8053 0.10162 0.52494 0.0
C303 C 0.94289 0.88605 0.79366 0.0
C304 C 0.93096 0.91006 0.76586 0.0
C305 C 0.7998 0.79274 0.76807 0.0
C306 C 0.80699 0.77563 0.79771 0.0
N307 N 0.88577 0.81238 0.83957 0.0
N308 N 0.84555 0.88984 0.72708 0.0
C309 C 0.87881 0.82388 0.8107 0.0
C310 C 0.85878 0.86411 0.75311 0.0
N311 N 0.01641 0.92118 0.80348 0.0
N312 N 0.73718 0.73999 0.75405 0.0
H313 H 0.88778 0.94079 0.71536 0.0
H314 H 0.79127 0.86379 0.71814 0.0
H315 H 0.69337 0.68728 0.76429 0.0
H316 H 0.73214 0.74527 0.73181 0.0
H317 H 0.03086 0.90133 0.82228 0.0
H318 H 0.06461 0.96537 0.79116 0.0
H319 H 0.9322 0.85218 0.85091 0.0
H320 H 0.84316 0.76563 0.85278 0.0
C321 C 0.08696 0.84026 0.08908 0.0
C322 C 0.10693 0.91279 0.10021 0.0
C323 C 0.11209 0.8597 0.14892 0.0
C324 C 0.09783 0.78952 0.13722 0.0
N325 N 0.08624 0.71836 0.09547 0.0
N326 N 0.14697 0.99527 0.13989 0.0
C327 C 0.08944 0.78142 0.10709 0.0
C328 C 0.12222 0.92365 0.12992 0.0
N329 N 0.06384 0.82665 0.06139 0.0
N330 N 0.11382 0.86428 0.17828 0.0
H331 H 0.15233 0.04219 0.12678 0.0
H332 H 0.16697 0.00984 0.16049 0.0
H333 H 0.1075 0.81904 0.19268 0.0
H334 H 0.11606 0.91033 0.18861 0.0
H335 H 0.03933 0.77202 0.05324 0.0
H336 H 0.06325 0.86846 0.04713 0.0
H337 H 0.08932 0.71337 0.07327 0.0
H338 H 0.08722 0.67372 0.10795 0.0
C339 C 0.19713 0.06025 0.4571 0.0
C340 C 0.21396 0.09339 0.42794 0.0
C341 C 0.35144 0.12964 0.43147 0.0
C342 C 0.33418 0.09417 0.46019 0.0
N343 N 0.24067 0.02085 0.50011 0.0
N344 N 0.30228 0.14134 0.38524 0.0
C345 C 0.25685 0.05781 0.47289 0.0
C346 C 0.28989 0.12345 0.41456 0.0
N347 N 0.12461 0.03386 0.47001 0.0
N348 N 0.42698 0.1695 0.42026 0.0
H349 H 0.25886 0.13551 0.3717 0.0
H350 H 0.35385 0.15531 0.37374 0.0
H351 H 0.47319 0.17128 0.43108 0.0
H352 H 0.44486 0.20533 0.40107 0.0
H353 H 0.10987 0.01618 0.49192 0.0
H354 H 0.07983 0.0355 0.45933 0.0
H355 H 0.18465 0.98549 0.50959 0.0
H356 H 0.28352 0.02227 0.51305 0.0
C357 C 0.30655 0.2874 0.74979 0.0
C358 C 0.25898 0.20941 0.76234 0.0
C359 C 0.32585 0.24913 0.8079 0.0
C360 C 0.37369 0.32676 0.79534 0.0
N361 N 0.41989 0.4167 0.75286 0.0
N362 N 0.23552 0.11294 0.80105 0.0
C363 C 0.36642 0.34511 0.7659 0.0
C364 C 0.27263 0.18943 0.79066 0.0
N365 N 0.2959 0.30615 0.72208 0.0
N366 N 0.32907 0.23284 0.83672 0.0
H367 H 0.19405 0.06802 0.78969 0.0
H368 H 0.24943 0.09318 0.81999 0.0
H369 H 0.36901 0.27365 0.8498 0.0
H370 H 0.28872 0.18071 0.84822 0.0
H371 H 0.32001 0.36298 0.71295 0.0
H372 H 0.26017 0.26499 0.70818 0.0
H373 H 0.42387 0.43228 0.73081 0.0
H374 H 0.46541 0.45958 0.76368 0.0
C375 C 0.91254 0.15223 0.66417 0.0
C376 C 0.94443 0.10174 0.66401 0.0
C377 C 0.8654 0.04267 0.62216 0.0
C378 C 0.8279 0.08656 0.62512 0.0
N379 N 0.79942 0.16402 0.65566 0.0
N380 N 0.92491 0.97933 0.64777 0.0
C381 C 0.84612 0.13495 0.64831 0.0
C382 C 0.9137 0.04137 0.64434 0.0
N383 N 0.94718 0.21966 0.67781 0.0
N384 N 0.85621 1.00297 0.59808 0.0
H385 H 0.95058 0.96919 0.66552 0.0
H386 H 0.89834 0.93178 0.63518 0.0
H387 H 0.82215 1.00312 0.5813 0.0
H388 H 0.88846 0.97632 0.59367 0.0
H389 H 0.92932 0.26059 0.67589 0.0
H390 H 0.99937 0.24061 0.68763 0.0
H391 H 0.80613 0.19346 0.67429 0.0
H392 H 0.74886 0.15103 0.64513 0.0
C393 C 0.88997 0.89427 0.99986 0.0
C394 C 0.96836 0.93626 0.98785 0.0
C395 C 0.92759 0.85318 0.94691 0.0
C396 C 0.84805 0.82042 0.95655 0.0
N397 N 0.75275 0.8172 0.99065 0.0
N398 N 0.06096 0.95863 0.94864 0.0
C399 C 0.82898 0.8428 0.98267 0.0
C400 C 0.98685 0.91628 0.96103 0.0
N401 N 0.87382 0.90066 0.0281 0.0
N402 N 0.94696 0.82147 0.92506 0.0
H403 H 0.10648 1.00346 0.95868 0.0
H404 H 0.07582 0.95367 0.92746 0.0
H405 H 0.90571 0.7732 0.91494 0.0
H406 H 1.00418 0.83752 0.91901 0.0
H407 H 0.81922 0.86544 0.03881 0.0
H408 H 0.91636 0.93565 0.04183 0.0
H409 H 0.73567 0.83695 0.00814 0.0
H410 H 0.70655 0.7818 0.97824 0.0
C411 C 0.01803 0.91445 0.29491 0.0
C412 C 0.04549 0.9232 0.32329 0.0
C413 C 0.06971 0.8146 0.31835 0.0
C414 C 0.05007 0.81126 0.28898 0.0
N415 N 0.01276 0.86274 0.24809 0.0
N416 N 0.10523 0.8869 0.36118 0.0
C417 C 0.02561 0.86216 0.27697 0.0
C418 C 0.07356 0.87476 0.33473 0.0
N419 N 0.98473 0.95621 0.28513 0.0
N420 N 0.08189 0.75827 0.33096 0.0
H421 H 0.10497 0.92661 0.37477 0.0
H422 H 0.13624 0.86115 0.36896 0.0
H423 H 0.07924 0.7131 0.31977 0.0
H424 H 0.08766 0.75194 0.35309 0.0
H425 H 0.95611 0.94699 0.26592 0.0
H426 H 0.9809 0.99677 0.29729 0.0
H427 H 1.00339 0.904 0.23713 0.0
H428 H 0.01693 0.82497 0.23444 0.0
C429 C 0.32551 0.05975 0.65877 0.0
C430 C 0.27232 0.08054 0.64713 0.0
C431 C 0.33485 0.1003 0.59835 0.0
C432 C 0.39086 0.08427 0.61037 0.0
N433 N 0.44764 0.06091 0.6523 0.0
N434 N 0.23104 0.12905 0.60666 0.0
C435 C 0.38831 0.06727 0.64068 0.0
C436 C 0.27854 0.1035 0.61712 0.0
N437 N 0.31567 0.03204 0.68718 0.0
N438 N 0.33439 0.11045 0.56891 0.0
H439 H 0.18735 0.12909 0.61954 0.0
H440 H 0.23768 0.15455 0.58576 0.0
H441 H 0.37535 0.10964 0.55468 0.0
H442 H 0.29075 0.11444 0.55838 0.0
H443 H 0.34602 0.00681 0.69607 0.0
H444 H 0.2733 0.02928 0.70164 0.0
H445 H 0.45463 0.0578 0.67445 0.0
H446 H 0.49389 0.06489 0.63973 0.0
C447 C 0.33189 0.31799 0.99082 0.0
C448 C 0.27283 0.25323 0.97734 0.0
C449 C 0.33951 0.31402 0.92967 0.0
C450 C 0.40019 0.3771 0.94297 0.0
N451 N 0.46098 0.43475 0.98647 0.0
N452 N 0.23673 0.17897 0.93547 0.0
C453 C 0.39852 0.37762 0.9737 0.0
C454 C 0.2813 0.24832 0.94717 0.0
N455 N 0.3233 0.3236 0.01979 0.0
N456 N 0.33596 0.31752 0.90025 0.0
H457 H 0.19828 0.12866 0.94833 0.0
H458 H 0.24462 0.16956 0.91405 0.0
H459 H 0.37807 0.36406 0.88657 0.0
H460 H 0.28751 0.2775 0.88981 0.0
H461 H 0.35862 0.37342 0.03035 0.0
H462 H 0.27802 0.2793 0.03321 0.0
H463 H 0.46766 0.43437 0.0087 0.0
H464 H 0.50915 0.4804 0.97458 0.0
C465 C 0.09516 0.27561 0.29357 0.0
C466 C 0.07027 0.26977 0.3231 0.0
C467 C 0.0413 0.37455 0.31237 0.0
C468 C 0.06347 0.37853 0.2827 0.0
N469 N 0.09674 0.32318 0.24386 0.0
N470 N 1.00173 0.29985 0.35899 0.0
C471 C 0.08554 0.32571 0.27293 0.0
C472 C 0.0378 0.31509 0.33196 0.0
N473 N 0.13183 0.23669 0.2855 0.0
N474 N 0.02639 0.42949 0.32209 0.0
H475 H 0.99699 0.25605 0.37376 0.0
H476 H 0.96987 0.3251 0.36573 0.0
H477 H 0.0273 0.47331 0.30841 0.0
H478 H 0.01899 0.43533 0.34397 0.0
H479 H 0.15936 0.24545 0.2651 0.0
H480 H 0.13971 0.19944 0.29987 0.0
H481 H 0.10515 0.28087 0.23506 0.0
H482 H 0.09118 0.35971 0.22829 0.0
loop_
_geom_bond_atom_site_label_1
_geom_bond_atom_site_label_2
_geom_bond_distance
_geom_bond_site_symmetry_2
_ccdc_geom_bond_type
Mn0 O5 2.095 . S
Mn0 O15 2.162 1_545 S
Mn0 O16 2.297 1_545 S
Mn0 O24 2.385 1_545 S
Mn0 O25 2.209 . S
Mn0 O26 2.094 . S
Mn1 O6 2.121 . S
Mn1 N8 2.257 1_454 S
Mn1 N17 2.282 1_554 S
Mn1 O25 2.215 . S
Mn1 O27 2.117 1_554 S
C2 O24 1.234 . S
C2 O25 1.283 1_565 S
C3 O15 1.281 . S
C3 O16 1.236 . S
C4 O26 1.240 1_556 S
C4 O27 1.264 . S
O5 Mn0 2.095 . S
O5 C14 1.250 . S
O6 Mn1 2.121 . S
O6 C14 1.258 . S
C7 N8 1.326 1_554 S
C7 C11 1.460 . S
C7 H13 0.929 . S
N8 Mn1 2.257 1_656 S
N8 C7 1.326 1_556 S
N8 C12 1.362 . S
C9 C10 1.258 . S
C9 C12 1.431 . S
C9 C29 1.449 . S
C10 C9 1.258 . S
C10 C11 1.477 1_556 S
C10 H30 0.931 . S
C11 C7 1.460 . S
C11 C10 1.477 1_554 S
C11 H31 0.930 . S
C12 N8 1.362 . S
C12 C9 1.431 . S
C12 C22 1.476 . S
H13 C7 0.929 . S
C14 O5 1.250 . S
C14 O6 1.258 . S
O15 Mn0 2.162 1_565 S
O15 C3 1.281 . S
O16 Mn0 2.297 1_565 S
O16 C3 1.236 . S
N17 Mn1 2.282 1_556 S
N17 C18 1.328 . S
N17 C22 1.318 1_455 S
C18 N17 1.328 . S
C18 C19 1.457 . S
C18 H23 0.929 . S
C19 C18 1.457 . S
C19 C20 1.291 1_455 S
C19 H32 0.931 . S
C20 C19 1.291 1_655 S
C20 C21 1.373 . S
C20 H33 0.929 . S
C21 C20 1.373 . S
C21 C22 1.396 . S
C21 C28 1.403 . S
C22 C12 1.476 . S
C22 N17 1.318 1_655 S
C22 C21 1.396 . S
H23 C18 0.929 . S
O24 Mn0 2.385 1_565 S
O24 C2 1.234 . S
O25 Mn0 2.209 . S
O25 Mn1 2.215 . S
O25 C2 1.283 1_545 S
O26 Mn0 2.094 . S
O26 C4 1.240 1_554 S
O27 Mn1 2.117 1_556 S
O27 C4 1.264 . S
C28 C21 1.403 . S
C28 C29 1.399 . S
C28 H34 0.929 . S
C29 C9 1.449 . S
C29 C28 1.399 . S
C29 H35 0.930 . S
H30 C10 0.931 . S
H31 C11 0.930 . S
H32 C19 0.931 . S
H33 C20 0.929 . S
H34 C28 0.929 . S
H35 C29 0.930 . S
Mn36 O41 2.095 . S
Mn36 O51 2.162 1_445 S
Mn36 O52 2.297 . S
Mn36 O60 2.385 . S
Mn36 O61 2.209 . S
Mn36 O62 2.094 1_455 S
Mn37 O42 2.121 . S
Mn37 N44 2.257 . S
Mn37 N53 2.282 . S
Mn37 O61 2.215 . S
Mn37 O63 2.117 . S
C38 O60 1.234 . S
C38 O61 1.283 . S
C39 O51 1.281 1_455 S
C39 O52 1.236 1_565 S
C40 O62 1.240 . S
C40 O63 1.264 1_655 S
O41 Mn36 2.095 . S
O41 C50 1.250 . S
O42 Mn37 2.121 . S
O42 C50 1.258 . S
C43 N44 1.326 . S
C43 C47 1.460 . S
C43 H49 0.929 . S
N44 Mn37 2.257 . S
N44 C43 1.326 . S
N44 C48 1.362 . S
C45 C46 1.258 . S
C45 C48 1.431 . S
C45 C65 1.449 . S
C46 C45 1.258 . S
C46 C47 1.477 . S
C46 H66 0.931 . S
C47 C43 1.460 . S
C47 C46 1.477 . S
C47 H67 0.930 . S
C48 N44 1.362 . S
C48 C45 1.431 . S
C48 C58 1.476 . S
H49 C43 0.929 . S
C50 O41 1.250 . S
C50 O42 1.258 . S
O51 Mn36 2.162 1_665 S
O51 C39 1.281 1_655 S
O52 Mn36 2.297 . S
O52 C39 1.236 1_545 S
N53 Mn37 2.282 . S
N53 C54 1.328 . S
N53 C58 1.318 . S
C54 N53 1.328 . S
C54 C55 1.457 . S
C54 H59 0.929 . S
C55 C54 1.457 . S
C55 C56 1.291 . S
C55 H68 0.931 . S
C56 C55 1.291 . S
C56 C57 1.373 . S
C56 H69 0.929 . S
C57 C56 1.373 . S
C57 C58 1.396 . S
C57 C64 1.403 . S
C58 C48 1.476 . S
C58 N53 1.318 . S
C58 C57 1.396 . S
H59 C54 0.929 . S
O60 Mn36 2.385 . S
O60 C38 1.234 . S
O61 Mn36 2.209 . S
O61 Mn37 2.215 . S
O61 C38 1.283 . S
O62 Mn36 2.094 1_655 S
O62 C40 1.240 . S
O63 Mn37 2.117 . S
O63 C40 1.264 1_455 S
C64 C57 1.403 . S
C64 C65 1.399 . S
C64 H70 0.929 . S
C65 C45 1.449 . S
C65 C64 1.399 . S
C65 H71 0.930 . S
H66 C46 0.931 . S
H67 C47 0.930 . S
H68 C55 0.931 . S
H69 C56 0.929 . S
H70 C64 0.929 . S
H71 C65 0.930 . S
Mn72 O77 2.095 . S
Mn72 O87 2.162 1_545 S
Mn72 O88 2.297 . S
Mn72 O96 2.385 . S
Mn72 O97 2.209 . S
Mn72 O98 2.094 1_545 S
Mn73 O78 2.121 1_455 S
Mn73 N80 2.257 . S
Mn73 N89 2.282 . S
Mn73 O97 2.215 . S
Mn73 O99 2.117 1_445 S
C74 O96 1.234 . S
C74 O97 1.283 . S
C75 O87 1.281 1_545 S
C75 O88 1.236 . S
C76 O98 1.240 1_655 S
C76 O99 1.264 . S
O77 Mn72 2.095 . S
O77 C86 1.250 1_455 S
O78 Mn73 2.121 1_655 S
O78 C86 1.258 . S
C79 N80 1.326 . S
C79 C83 1.460 . S
C79 H85 0.929 . S
N80 Mn73 2.257 . S
N80 C79 1.326 . S
N80 C84 1.362 . S
C81 C82 1.258 . S
C81 C84 1.431 . S
C81 C101 1.449 . S
C82 C81 1.258 . S
C82 C83 1.477 . S
C82 H102 0.931 . S
C83 C79 1.460 . S
C83 C82 1.477 . S
C83 H103 0.930 . S
C84 N80 1.362 . S
C84 C81 1.431 . S
C84 C94 1.476 . S
H85 C79 0.929 . S
C86 O77 1.250 1_655 S
C86 O78 1.258 . S
O87 Mn72 2.162 1_565 S
O87 C75 1.281 1_565 S
O88 Mn72 2.297 . S
O88 C75 1.236 . S
N89 Mn73 2.282 . S
N89 C90 1.328 . S
N89 C94 1.318 . S
C90 N89 1.328 . S
C90 C91 1.457 . S
C90 H95 0.929 . S
C91 C90 1.457 . S
C91 C92 1.291 . S
C91 H104 0.931 . S
C92 C91 1.291 . S
C92 C93 1.373 . S
C92 H105 0.929 . S
C93 C92 1.373 . S
C93 C94 1.396 . S
C93 C100 1.403 . S
C94 C84 1.476 . S
C94 N89 1.318 . S
C94 C93 1.396 . S
H95 C90 0.929 . S
O96 Mn72 2.385 . S
O96 C74 1.234 . S
O97 Mn72 2.209 . S
O97 Mn73 2.215 . S
O97 C74 1.283 . S
O98 Mn72 2.094 1_565 S
O98 C76 1.240 1_455 S
O99 Mn73 2.117 1_665 S
O99 C76 1.264 . S
C100 C93 1.403 . S
C100 C101 1.399 . S
C100 H106 0.929 . S
C101 C81 1.449 . S
C101 C100 1.399 . S
C101 H107 0.930 . S
H102 C82 0.931 . S
H103 C83 0.930 . S
H104 C91 0.931 . S
H105 C92 0.929 . S
H106 C100 0.929 . S
H107 C101 0.930 . S
C108 C109 1.443 . S
C108 N112 1.376 . S
C108 C146 1.389 . S
C109 C108 1.443 . S
C109 C110 1.340 . S
C109 H149 0.951 . S
C110 C109 1.340 . S
C110 C111 1.439 . S
C110 H150 0.950 . S
C111 C110 1.439 . S
C111 N112 1.374 . S
C111 C145 1.395 . S
N112 C108 1.376 . S
N112 C111 1.374 . S
N112 Co113 2.008 . S
Co113 N112 2.008 . S
Co113 N114 1.995 . S
Co113 N119 2.008 1_455 S
Co113 N124 1.995 1_455 S
Co113 N129 2.282 . S
Co113 N135 2.282 . S
N114 Co113 1.995 . S
N114 C115 1.376 . S
N114 C118 1.383 . S
C115 N114 1.376 . S
C115 C116 1.446 . S
C115 C145 1.391 . S
C116 C115 1.446 . S
C116 C117 1.339 . S
C116 H151 0.949 . S
C117 C116 1.339 . S
C117 C118 1.439 . S
C117 H152 0.950 . S
C118 N114 1.383 . S
C118 C117 1.439 . S
C118 C147 1.392 . S
N119 Co113 2.008 1_655 S
N119 C120 1.376 . S
N119 C123 1.374 . S
C120 N119 1.376 . S
C120 C121 1.443 . S
C120 C147 1.389 1_655 S
C121 C120 1.443 . S
C121 C122 1.340 . S
C121 H153 0.951 . S
C122 C121 1.340 . S
C122 C123 1.439 . S
C122 H154 0.950 . S
C123 N119 1.374 . S
C123 C122 1.439 . S
C123 C148 1.395 . S
N124 Co113 1.995 1_655 S
N124 C125 1.376 . S
N124 C128 1.383 1_655 S
C125 N124 1.376 . S
C125 C126 1.446 . S
C125 C148 1.391 . S
C126 C125 1.446 . S
C126 C127 1.339 . S
C126 H155 0.949 . S
C127 C126 1.339 . S
C127 C128 1.439 1_655 S
C127 H156 0.950 . S
C128 N124 1.383 1_455 S
C128 C127 1.439 1_455 S
C128 C146 1.392 . S
N129 Co113 2.282 . S
N129 C132 1.332 . S
N129 C134 1.332 . S
C130 C131 1.386 . S
C130 C133 1.388 . S
C131 C130 1.386 . S
C131 C132 1.382 . S
C131 H157 0.950 1_455 S
C132 N129 1.332 . S
C132 C131 1.382 . S
C132 H143 0.952 1_455 S
C133 C130 1.388 . S
C133 C134 1.382 . S
C133 H158 0.950 . S
C134 N129 1.332 . S
C134 C133 1.382 . S
C134 H144 0.948 . S
N135 Co113 2.282 . S
N135 C139 1.332 . S
N135 C140 1.332 1_455 S
C136 C137 1.388 1_655 S
C136 C140 1.382 . S
C136 H159 0.950 . S
C137 C136 1.388 1_455 S
C137 C138 1.386 . S
C138 C137 1.386 . S
C138 C139 1.382 . S
C138 H160 0.950 . S
C139 N135 1.332 . S
C139 C138 1.382 . S
C139 H141 0.952 . S
C140 N135 1.332 1_655 S
C140 C136 1.382 . S
C140 H142 0.948 . S
H141 C139 0.952 . S
H142 C140 0.948 . S
H143 C132 0.952 1_655 S
H144 C134 0.948 . S
C145 C111 1.395 . S
C145 C115 1.391 . S
C146 C108 1.389 . S
C146 C128 1.392 . S
C147 C118 1.392 . S
C147 C120 1.389 1_455 S
C148 C123 1.395 . S
C148 C125 1.391 . S
H149 C109 0.951 . S
H150 C110 0.950 . S
H151 C116 0.949 . S
H152 C117 0.950 . S
H153 C121 0.951 . S
H154 C122 0.950 . S
H155 C126 0.949 . S
H156 C127 0.950 . S
H157 C131 0.950 1_655 S
H158 C133 0.950 . S
H159 C136 0.950 . S
H160 C138 0.950 . S
C161 C162 1.443 1_545 S
C161 N165 1.376 . S
C161 C199 1.389 . S
C162 C161 1.443 1_565 S
C162 C163 1.340 . S
C162 H202 0.951 . S
C163 C162 1.340 . S
C163 C164 1.439 . S
C163 H203 0.950 . S
C164 C163 1.439 . S
C164 N165 1.374 1_565 S
C164 C198 1.395 . S
N165 C161 1.376 . S
N165 C164 1.374 1_545 S
N165 Co166 2.008 . S
Co166 N165 2.008 . S
Co166 N167 1.995 . S
Co166 N172 2.008 . S
Co166 N177 1.995 . S
Co166 N182 2.282 . S
Co166 N188 2.282 . S
N167 Co166 1.995 . S
N167 C168 1.376 1_545 S
N167 C171 1.383 . S
C168 N167 1.376 1_565 S
C168 C169 1.446 . S
C168 C198 1.391 . S
C169 C168 1.446 . S
C169 C170 1.339 . S
C169 H204 0.949 . S
C170 C169 1.339 . S
C170 C171 1.439 1_565 S
C170 H205 0.950 . S
C171 N167 1.383 . S
C171 C170 1.439 1_545 S
C171 C200 1.392 . S
N172 Co166 2.008 . S
N172 C173 1.376 . S
N172 C176 1.374 . S
C173 N172 1.376 . S
C173 C174 1.443 . S
C173 C200 1.389 . S
C174 C173 1.443 . S
C174 C175 1.340 . S
C174 H206 0.951 . S
C175 C174 1.340 . S
C175 C176 1.439 . S
C175 H207 0.950 . S
C176 N172 1.374 . S
C176 C175 1.439 . S
C176 C201 1.395 . S
N177 Co166 1.995 . S
N177 C178 1.376 . S
N177 C181 1.383 . S
C178 N177 1.376 . S
C178 C179 1.446 . S
C178 C201 1.391 . S
C179 C178 1.446 . S
C179 C180 1.339 . S
C179 H208 0.949 . S
C180 C179 1.339 . S
C180 C181 1.439 . S
C180 H209 0.950 . S
C181 N177 1.383 . S
C181 C180 1.439 . S
C181 C199 1.392 . S
N182 Co166 2.282 . S
N182 C185 1.332 . S
N182 C187 1.332 . S
C183 C184 1.386 . S
C183 C186 1.388 . S
C184 C183 1.386 . S
C184 C185 1.382 . S
C184 H210 0.950 . S
C185 N182 1.332 . S
C185 C184 1.382 . S
C185 H196 0.952 . S
C186 C183 1.388 . S
C186 C187 1.382 . S
C186 H211 0.950 . S
C187 N182 1.332 . S
C187 C186 1.382 . S
C187 H197 0.948 . S
N188 Co166 2.282 . S
N188 C192 1.332 . S
N188 C193 1.332 . S
C189 C190 1.388 . S
C189 C193 1.382 . S
C189 H212 0.950 . S
C190 C189 1.388 . S
C190 C191 1.386 . S
C191 C190 1.386 . S
C191 C192 1.382 . S
C191 H213 0.950 . S
C192 N188 1.332 . S
C192 C191 1.382 . S
C192 H194 0.952 . S
C193 N188 1.332 . S
C193 C189 1.382 . S
C193 H195 0.948 . S
H194 C192 0.952 . S
H195 C193 0.948 . S
H196 C185 0.952 . S
H197 C187 0.948 . S
C198 C164 1.395 . S
C198 C168 1.391 . S
C199 C161 1.389 . S
C199 C181 1.392 . S
C200 C171 1.392 . S
C200 C173 1.389 . S
C201 C176 1.395 . S
C201 C178 1.391 . S
H202 C162 0.951 . S
H203 C163 0.950 . S
H204 C169 0.949 . S
H205 C170 0.950 . S
H206 C174 0.951 . S
H207 C175 0.950 . S
H208 C179 0.949 . S
H209 C180 0.950 . S
H210 C184 0.950 . S
H211 C186 0.950 . S
H212 C189 0.950 . S
H213 C191 0.950 . S
C214 C215 1.443 . S
C214 N218 1.376 . S
C214 C252 1.389 . S
C215 C214 1.443 . S
C215 C216 1.340 . S
C215 H255 0.951 . S
C216 C215 1.340 . S
C216 C217 1.439 . S
C216 H256 0.950 . S
C217 C216 1.439 . S
C217 N218 1.374 . S
C217 C251 1.395 . S
N218 C214 1.376 . S
N218 C217 1.374 . S
N218 Co219 2.008 . S
Co219 N218 2.008 . S
Co219 N220 1.995 . S
Co219 N225 2.008 . S
Co219 N230 1.995 . S
Co219 N235 2.282 . S
Co219 N241 2.282 . S
N220 Co219 1.995 . S
N220 C221 1.376 . S
N220 C224 1.383 . S
C221 N220 1.376 . S
C221 C222 1.446 . S
C221 C251 1.391 . S
C222 C221 1.446 . S
C222 C223 1.339 . S
C222 H257 0.949 . S
C223 C222 1.339 . S
C223 C224 1.439 . S
C223 H258 0.950 . S
C224 N220 1.383 . S
C224 C223 1.439 . S
C224 C253 1.392 . S
N225 Co219 2.008 . S
N225 C226 1.376 . S
N225 C229 1.374 . S
C226 N225 1.376 . S
C226 C227 1.443 . S
C226 C253 1.389 . S
C227 C226 1.443 . S
C227 C228 1.340 . S
C227 H259 0.951 . S
C228 C227 1.340 . S
C228 C229 1.439 . S
C228 H260 0.950 . S
C229 N225 1.374 . S
C229 C228 1.439 . S
C229 C254 1.395 . S
N230 Co219 1.995 . S
N230 C231 1.376 . S
N230 C234 1.383 . S
C231 N230 1.376 . S
C231 C232 1.446 . S
C231 C254 1.391 . S
C232 C231 1.446 . S
C232 C233 1.339 . S
C232 H261 0.949 . S
C233 C232 1.339 . S
C233 C234 1.439 . S
C233 H262 0.950 . S
C234 N230 1.383 . S
C234 C233 1.439 . S
C234 C252 1.392 . S
N235 Co219 2.282 . S
N235 C238 1.332 . S
N235 C240 1.332 . S
C236 C237 1.386 . S
C236 C239 1.388 . S
C237 C236 1.386 . S
C237 C238 1.382 . S
C237 H263 0.950 . S
C238 N235 1.332 . S
C238 C237 1.382 . S
C238 H249 0.952 . S
C239 C236 1.388 . S
C239 C240 1.382 . S
C239 H264 0.950 . S
C240 N235 1.332 . S
C240 C239 1.382 . S
C240 H250 0.948 . S
N241 Co219 2.282 . S
N241 C245 1.332 . S
N241 C246 1.332 . S
C242 C243 1.388 . S
C242 C246 1.382 . S
C242 H265 0.950 . S
C243 C242 1.388 . S
C243 C244 1.386 . S
C244 C243 1.386 . S
C244 C245 1.382 . S
C244 H266 0.950 . S
C245 N241 1.332 . S
C245 C244 1.382 . S
C245 H247 0.952 . S
C246 N241 1.332 . S
C246 C242 1.382 . S
C246 H248 0.948 . S
H247 C245 0.952 . S
H248 C246 0.948 . S
H249 C238 0.952 . S
H250 C240 0.948 . S
C251 C217 1.395 . S
C251 C221 1.391 . S
C252 C214 1.389 . S
C252 C234 1.392 . S
C253 C224 1.392 . S
C253 C226 1.389 . S
C254 C229 1.395 . S
C254 C231 1.391 . S
H255 C215 0.951 . S
H256 C216 0.950 . S
H257 C222 0.949 . S
H258 C223 0.950 . S
H259 C227 0.951 . S
H260 C228 0.950 . S
H261 C232 0.949 . S
H262 C233 0.950 . S
H263 C237 0.950 . S
H264 C239 0.950 . S
H265 C242 0.950 . S
H266 C244 0.950 . S
C267 C268 1.363 . S
C267 C273 1.379 . S
C267 N275 1.356 . S
C268 C267 1.363 . S
C268 C274 1.363 . S
C269 C270 1.363 . S
C269 C274 1.379 . S
C269 N276 1.356 . S
C270 C269 1.363 . S
C270 C273 1.363 . S
N271 C273 1.356 . S
N271 H283 0.984 1_455 S
N271 H284 0.985 . S
N272 C274 1.356 . S
N272 H277 0.984 . S
N272 H278 0.985 . S
C273 C267 1.379 . S
C273 C270 1.363 . S
C273 N271 1.356 . S
C274 C268 1.363 . S
C274 C269 1.379 . S
C274 N272 1.356 . S
N275 C267 1.356 . S
N275 H281 0.984 1_455 S
N275 H282 0.984 . S
N276 C269 1.356 . S
N276 H279 0.984 . S
N276 H280 0.985 . S
H277 N272 0.984 . S
H278 N272 0.985 . S
H279 N276 0.984 . S
H280 N276 0.985 . S
H281 N275 0.984 1_655 S
H282 N275 0.984 . S
H283 N271 0.984 1_655 S
H284 N271 0.985 . S
C285 C286 1.363 . S
C285 C291 1.379 . S
C285 N293 1.356 . S
C286 C285 1.363 . S
C286 C292 1.363 . S
C287 C288 1.363 . S
C287 C292 1.379 . S
C287 N294 1.356 . S
C288 C287 1.363 . S
C288 C291 1.363 . S
N289 C291 1.356 . S
N289 H301 0.984 . S
N289 H302 0.985 . S
N290 C292 1.356 1_565 S
N290 H295 0.980 . S
N290 H296 0.985 . S
C291 C285 1.379 . S
C291 C288 1.363 . S
C291 N289 1.356 . S
C292 C286 1.363 . S
C292 C287 1.379 . S
C292 N290 1.356 1_545 S
N293 C285 1.356 . S
N293 H299 0.984 1_655 S
N293 H300 0.984 1_655 S
N294 C287 1.356 . S
N294 H297 0.984 . S
N294 H298 0.985 1_545 S
H295 N290 0.980 . S
H296 N290 0.985 . S
H297 N294 0.984 . S
H298 N294 0.985 1_565 S
H299 N293 0.984 1_455 S
H300 N293 0.984 1_455 S
H301 N289 0.984 . S
H302 N289 0.985 . S
C303 C304 1.363 . S
C303 C309 1.379 . S
C303 N311 1.356 1_655 S
C304 C303 1.363 . S
C304 C310 1.363 . S
C305 C306 1.363 . S
C305 C310 1.379 . S
C305 N312 1.356 . S
C306 C305 1.363 . S
C306 C309 1.363 . S
N307 C309 1.356 . S
N307 H319 0.984 . S
N307 H320 0.985 . S
N308 C310 1.356 . S
N308 H313 0.984 . S
N308 H314 0.985 . S
C309 C303 1.379 . S
C309 C306 1.363 . S
C309 N307 1.356 . S
C310 C304 1.363 . S
C310 C305 1.379 . S
C310 N308 1.356 . S
N311 C303 1.356 1_455 S
N311 H317 0.984 . S
N311 H318 0.984 . S
N312 C305 1.356 . S
N312 H315 0.984 . S
N312 H316 0.985 . S
H313 N308 0.984 . S
H314 N308 0.985 . S
H315 N312 0.984 . S
H316 N312 0.985 . S
H317 N311 0.984 . S
H318 N311 0.984 . S
H319 N307 0.984 . S
H320 N307 0.985 . S
C321 C322 1.363 . S
C321 C327 1.379 . S
C321 N329 1.356 . S
C322 C321 1.363 . S
C322 C328 1.363 . S
C323 C324 1.363 . S
C323 C328 1.379 . S
C323 N330 1.356 . S
C324 C323 1.363 . S
C324 C327 1.363 . S
N325 C327 1.356 . S
N325 H337 0.984 1_455 S
N325 H338 0.985 . S
N326 C328 1.356 . S
N326 H331 0.984 1_565 S
N326 H332 0.985 1_565 S
C327 C321 1.379 . S
C327 C324 1.363 . S
C327 N325 1.356 . S
C328 C322 1.363 . S
C328 C323 1.379 . S
C328 N326 1.356 . S
N329 C321 1.356 . S
N329 H335 0.984 . S
N329 H336 0.984 . S
N330 C323 1.356 . S
N330 H333 0.984 . S
N330 H334 0.985 . S
H331 N326 0.984 1_545 S
H332 N326 0.985 1_545 S
H333 N330 0.984 . S
H334 N330 0.985 . S
H335 N329 0.984 . S
H336 N329 0.984 . S
H337 N325 0.984 1_655 S
H338 N325 0.985 . S
C339 C340 1.363 . S
C339 C345 1.379 . S
C339 N347 1.356 . S
C340 C339 1.363 . S
C340 C346 1.363 . S
C341 C342 1.363 . S
C341 C346 1.379 . S
C341 N348 1.356 . S
C342 C341 1.363 . S
C342 C345 1.363 . S
N343 C345 1.356 . S
N343 H355 0.984 1_545 S
N343 H356 0.985 . S
N344 C346 1.356 . S
N344 H349 0.984 . S
N344 H350 0.985 . S
C345 C339 1.379 . S
C345 C342 1.363 . S
C345 N343 1.356 . S
C346 C340 1.363 . S
C346 C341 1.379 . S
C346 N344 1.356 . S
N347 C339 1.356 . S
N347 H353 0.984 1_545 S
N347 H354 0.984 . S
N348 C341 1.356 . S
N348 H351 0.984 . S
N348 H352 0.985 . S
H349 N344 0.984 . S
H350 N344 0.985 . S
H351 N348 0.984 . S
H352 N348 0.985 . S
H353 N347 0.984 1_565 S
H354 N347 0.984 . S
H355 N343 0.984 1_565 S
H356 N343 0.985 . S
C357 C358 1.363 . S
C357 C363 1.379 . S
C357 N365 1.356 . S
C358 C357 1.363 . S
C358 C364 1.363 . S
C359 C360 1.363 . S
C359 C364 1.379 . S
C359 N366 1.356 . S
C360 C359 1.363 . S
C360 C363 1.363 . S
N361 C363 1.356 . S
N361 H373 0.984 . S
N361 H374 0.985 . S
N362 C364 1.356 . S
N362 H367 0.984 . S
N362 H368 0.985 . S
C363 C357 1.379 . S
C363 C360 1.363 . S
C363 N361 1.356 . S
C364 C358 1.363 . S
C364 C359 1.379 . S
C364 N362 1.356 . S
N365 C357 1.356 . S
N365 H371 0.984 . S
N365 H372 0.984 . S
N366 C359 1.356 . S
N366 H369 0.984 . S
N366 H370 0.985 . S
H367 N362 0.984 . S
H368 N362 0.985 . S
H369 N366 0.984 . S
H370 N366 0.985 . S
H371 N365 0.984 . S
H372 N365 0.984 . S
H373 N361 0.984 . S
H374 N361 0.985 . S
C375 C376 1.363 . S
C375 C381 1.379 . S
C375 N383 1.356 . S
C376 C375 1.363 . S
C376 C382 1.363 . S
C377 C378 1.363 . S
C377 C382 1.379 . S
C377 N384 1.356 . S
C378 C377 1.363 . S
C378 C381 1.363 . S
N379 C381 1.356 . S
N379 H391 0.984 . S
N379 H392 0.985 . S
N380 C382 1.356 . S
N380 H385 0.984 1_655 S
N380 H386 0.985 1_545 S
C381 C375 1.379 . S
C381 C378 1.363 . S
C381 N379 1.356 . S
C382 C376 1.363 . S
C382 C377 1.379 . S
C382 N380 1.356 . S
N383 C375 1.356 . S
N383 H389 0.984 . S
N383 H390 0.984 . S
N384 C377 1.356 . S
N384 H387 0.984 . S
N384 H388 0.985 . S
H385 N380 0.984 1_455 S
H386 N380 0.985 1_565 S
H387 N384 0.984 . S
H388 N384 0.985 . S
H389 N383 0.984 . S
H390 N383 0.984 . S
H391 N379 0.984 . S
H392 N379 0.985 . S
C393 C394 1.363 . S
C393 C399 1.379 . S
C393 N401 1.356 . S
C394 C393 1.363 . S
C394 C400 1.363 . S
C395 C396 1.363 . S
C395 C400 1.379 . S
C395 N402 1.356 . S
C396 C395 1.363 . S
C396 C399 1.363 . S
N397 C399 1.356 . S
N397 H409 0.984 . S
N397 H410 0.985 . S
N398 C400 1.356 1_455 S
N398 H403 0.981 1_556 S
N398 H404 0.985 . S
C399 C393 1.379 . S
C399 C396 1.363 . S
C399 N397 1.356 . S
C400 C394 1.363 . S
C400 C395 1.379 . S
C400 N398 1.356 1_655 S
N401 C393 1.356 . S
N401 H407 0.988 . S
N401 H408 0.984 1_566 S
N402 C395 1.356 . S
N402 H405 0.984 . S
N402 H406 0.985 . S
H403 N398 0.981 1_554 S
H404 N398 0.985 . S
H405 N402 0.984 . S
H406 N402 0.985 . S
H407 N401 0.988 . S
H408 N401 0.984 1_544 S
H409 N397 0.984 . S
H410 N397 0.985 . S
C411 C412 1.363 . S
C411 C417 1.379 . S
C411 N419 1.356 1_455 S
C412 C411 1.363 . S
C412 C418 1.363 . S
C413 C414 1.363 . S
C413 C418 1.379 . S
C413 N420 1.356 . S
C414 C413 1.363 . S
C414 C417 1.363 . S
N415 C417 1.356 1_655 S
N415 H427 0.984 . S
N415 H428 0.985 1_655 S
N416 C418 1.356 . S
N416 H421 0.984 . S
N416 H422 0.985 . S
C417 C411 1.379 . S
C417 C414 1.363 . S
C417 N415 1.356 1_455 S
C418 C412 1.363 . S
C418 C413 1.379 . S
C418 N416 1.356 . S
N419 C411 1.356 1_655 S
N419 H425 0.984 . S
N419 H426 0.984 . S
N420 C413 1.356 . S
N420 H423 0.984 . S
N420 H424 0.985 . S
H421 N416 0.984 . S
H422 N416 0.985 . S
H423 N420 0.984 . S
H424 N420 0.985 . S
H425 N419 0.984 . S
H426 N419 0.984 . S
H427 N415 0.984 . S
H428 N415 0.985 1_455 S
C429 C430 1.363 . S
C429 C435 1.379 . S
C429 N437 1.356 1_545 S
C430 C429 1.363 . S
C430 C436 1.363 . S
C431 C432 1.363 . S
C431 C436 1.379 . S
C431 N438 1.356 . S
C432 C431 1.363 . S
C432 C435 1.363 . S
N433 C435 1.356 . S
N433 H445 0.985 1_545 S
N433 H446 0.984 . S
N434 C436 1.356 . S
N434 H439 0.984 . S
N434 H440 0.985 . S
C435 C429 1.379 . S
C435 C432 1.363 . S
C435 N433 1.356 . S
C436 C430 1.363 . S
C436 C431 1.379 . S
C436 N434 1.356 . S
N437 C429 1.356 1_565 S
N437 H443 0.984 . S
N437 H444 0.984 . S
N438 C431 1.356 . S
N438 H441 0.984 . S
N438 H442 0.985 . S
H439 N434 0.984 . S
H440 N434 0.985 . S
H441 N438 0.984 . S
H442 N438 0.985 . S
H443 N437 0.984 . S
H444 N437 0.984 . S
H445 N433 0.985 1_565 S
H446 N433 0.984 . S
C447 C448 1.363 . S
C447 C453 1.379 . S
C447 N455 1.356 1_556 S
C448 C447 1.363 . S
C448 C454 1.363 . S
C449 C450 1.363 . S
C449 C454 1.379 . S
C449 N456 1.356 . S
C450 C449 1.363 . S
C450 C453 1.363 . S
N451 C453 1.356 . S
N451 H463 0.984 . S
N451 H464 0.985 . S
N452 C454 1.356 . S
N452 H457 0.984 . S
N452 H458 0.985 . S
C453 C447 1.379 . S
C453 C450 1.363 . S
C453 N451 1.356 . S
C454 C448 1.363 . S
C454 C449 1.379 . S
C454 N452 1.356 . S
N455 C447 1.356 1_554 S
N455 H461 0.984 . S
N455 H462 0.984 . S
N456 C449 1.356 . S
N456 H459 0.984 . S
N456 H460 0.985 . S
H457 N452 0.984 . S
H458 N452 0.985 . S
H459 N456 0.984 . S
H460 N456 0.985 . S
H461 N455 0.984 . S
H462 N455 0.984 . S
H463 N451 0.984 . S
H464 N451 0.985 . S
C465 C466 1.363 . S
C465 C471 1.379 . S
C465 N473 1.356 . S
C466 C465 1.363 . S
C466 C472 1.352 1_455 S
C467 C468 1.363 1_655 S
C467 C472 1.384 . S
C467 N474 1.356 . S
C468 C467 1.363 1_455 S
C468 C471 1.363 . S
N469 C471 1.356 . S
N469 H481 0.984 . S
N469 H482 0.985 . S
N470 C472 1.359 . S
N470 H475 0.984 . S
N470 H476 0.985 . S
C471 C465 1.379 . S
C471 C468 1.363 . S
C471 N469 1.356 . S
C472 C466 1.352 1_655 S
C472 C467 1.384 . S
C472 N470 1.359 . S
N473 C465 1.356 . S
N473 H479 0.984 . S
N473 H480 0.984 . S
N474 C467 1.356 . S
N474 H477 0.984 . S
N474 H478 0.985 . S
H475 N470 0.984 . S
H476 N470 0.985 . S
H477 N474 0.984 . S
H478 N474 0.985 . S
H479 N473 0.984 . S
H480 N473 0.984 . S
H481 N469 0.984 . S
H482 N469 0.985 . S
C270 C130 1.492 . S
C268 C14 1.449 . S
C286 C40 1.501 . S
C288 C200 1.522 . S
C304 C76 1.473 . S
C306 C252 1.489 . S
C322 C3 1.482 . S
C324 C146 1.479 . S
C342 C190 1.510 . S
C340 C38 1.500 . S
C358 C74 1.465 . S
C360 C236 1.482 . S
C378 C183 1.473 . S
C376 C86 1.432 . S
C394 C2 1.466 1_656 S
C396 C243 1.483 . S
C414 C137 1.470 . S
C412 C39 1.470 . S
C432 C199 1.488 . S
C430 C75 1.495 . S
C450 C253 1.493 . S
C448 C4 1.475 . S
C466 C50 1.447 . S
C468 C147 1.493 . S
