# Generated by pormake.
# Topology ocu, (6,8)-cn, num edge types: 1
# Building blocks:
#     Node 0, Type 0, BuildingBlock: KUMJIN_clean_sbu_0, # of connection points: 6
#     Node 1, Type 0, BuildingBlock: KUMJIN_clean_sbu_0, # of connection points: 6
#     Node 2, Type 0, BuildingBlock: KUMJIN_clean_sbu_0, # of connection points: 6
#     Node 3, Type 0, BuildingBlock: KUMJIN_clean_sbu_0, # of connection points: 6
#     Node 4, Type 0, BuildingBlock: KUMJIN_clean_sbu_0, # of connection points: 6
#     Node 5, Type 0, BuildingBlock: KUMJIN_clean_sbu_0, # of connection points: 6
#     Node 6, Type 0, BuildingBlock: KUMJIN_clean_sbu_0, # of connection points: 6
#     Node 7, Type 0, BuildingBlock: KUMJIN_clean_sbu_0, # of connection points: 6
#     Node 8, Type 1, BuildingBlock: TAGTUT_clean_sbu_1, # of connection points: 8
#     Node 9, Type 1, BuildingBlock: TAGTUT_clean_sbu_1, # of connection points: 8
#     Node 10, Type 1, BuildingBlock: TAGTUT_clean_sbu_1, # of connection points: 8
#     Node 11, Type 1, BuildingBlock: TAGTUT_clean_sbu_1, # of connection points: 8
#     Node 12, Type 1, BuildingBlock: TAGTUT_clean_sbu_1, # of connection points: 8
#     Node 13, Type 1, BuildingBlock: TAGTUT_clean_sbu_1, # of connection points: 8
#     Edge 14, Type (0, 1), BuildingBlock: AJUNOK_clean_linker_0, # of connection points: 2
#     Edge 15, Type (0, 1), BuildingBlock: AJUNOK_clean_linker_0, # of connection points: 2
#     Edge 16, Type (0, 1), BuildingBlock: AJUNOK_clean_linker_0, # of connection points: 2
#     Edge 17, Type (0, 1), BuildingBlock: AJUNOK_clean_linker_0, # of connection points: 2
#     Edge 18, Type (0, 1), BuildingBlock: AJUNOK_clean_linker_0, # of connection points: 2
#     Edge 19, Type (0, 1), BuildingBlock: AJUNOK_clean_linker_0, # of connection points: 2
#     Edge 20, Type (0, 1), BuildingBlock: AJUNOK_clean_linker_0, # of connection points: 2
#     Edge 21, Type (0, 1), BuildingBlock: AJUNOK_clean_linker_0, # of connection points: 2
#     Edge 22, Type (0, 1), BuildingBlock: AJUNOK_clean_linker_0, # of connection points: 2
#     Edge 23, Type (0, 1), BuildingBlock: AJUNOK_clean_linker_0, # of connection points: 2
#     Edge 24, Type (0, 1), BuildingBlock: AJUNOK_clean_linker_0, # of connection points: 2
#     Edge 25, Type (0, 1), BuildingBlock: AJUNOK_clean_linker_0, # of connection points: 2
#     Edge 26, Type (0, 1), BuildingBlock: AJUNOK_clean_linker_0, # of connection points: 2
#     Edge 27, Type (0, 1), BuildingBlock: AJUNOK_clean_linker_0, # of connection points: 2
#     Edge 28, Type (0, 1), BuildingBlock: AJUNOK_clean_linker_0, # of connection points: 2
#     Edge 29, Type (0, 1), BuildingBlock: AJUNOK_clean_linker_0, # of connection points: 2
#     Edge 30, Type (0, 1), BuildingBlock: AJUNOK_clean_linker_0, # of connection points: 2
#     Edge 31, Type (0, 1), BuildingBlock: AJUNOK_clean_linker_0, # of connection points: 2
#     Edge 32, Type (0, 1), BuildingBlock: AJUNOK_clean_linker_0, # of connection points: 2
#     Edge 33, Type (0, 1), BuildingBlock: AJUNOK_clean_linker_0, # of connection points: 2
#     Edge 34, Type (0, 1), BuildingBlock: AJUNOK_clean_linker_0, # of connection points: 2
#     Edge 35, Type (0, 1), BuildingBlock: AJUNOK_clean_linker_0, # of connection points: 2
#     Edge 36, Type (0, 1), BuildingBlock: AJUNOK_clean_linker_0, # of connection points: 2
#     Edge 37, Type (0, 1), BuildingBlock: AJUNOK_clean_linker_0, # of connection points: 2
#     Edge 38, Type (0, 1), BuildingBlock: AJUNOK_clean_linker_0, # of connection points: 2
#     Edge 39, Type (0, 1), BuildingBlock: AJUNOK_clean_linker_0, # of connection points: 2
#     Edge 40, Type (0, 1), BuildingBlock: AJUNOK_clean_linker_0, # of connection points: 2
#     Edge 41, Type (0, 1), BuildingBlock: AJUNOK_clean_linker_0, # of connection points: 2
#     Edge 42, Type (0, 1), BuildingBlock: AJUNOK_clean_linker_0, # of connection points: 2
#     Edge 43, Type (0, 1), BuildingBlock: AJUNOK_clean_linker_0, # of connection points: 2
#     Edge 44, Type (0, 1), BuildingBlock: AJUNOK_clean_linker_0, # of connection points: 2
#     Edge 45, Type (0, 1), BuildingBlock: AJUNOK_clean_linker_0, # of connection points: 2
#     Edge 46, Type (0, 1), BuildingBlock: AJUNOK_clean_linker_0, # of connection points: 2
#     Edge 47, Type (0, 1), BuildingBlock: AJUNOK_clean_linker_0, # of connection points: 2
#     Edge 48, Type (0, 1), BuildingBlock: AJUNOK_clean_linker_0, # of connection points: 2
#     Edge 49, Type (0, 1), BuildingBlock: AJUNOK_clean_linker_0, # of connection points: 2
#     Edge 50, Type (0, 1), BuildingBlock: AJUNOK_clean_linker_0, # of connection points: 2
#     Edge 51, Type (0, 1), BuildingBlock: AJUNOK_clean_linker_0, # of connection points: 2
#     Edge 52, Type (0, 1), BuildingBlock: AJUNOK_clean_linker_0, # of connection points: 2
#     Edge 53, Type (0, 1), BuildingBlock: AJUNOK_clean_linker_0, # of connection points: 2
#     Edge 54, Type (0, 1), BuildingBlock: AJUNOK_clean_linker_0, # of connection points: 2
#     Edge 55, Type (0, 1), BuildingBlock: AJUNOK_clean_linker_0, # of connection points: 2
#     Edge 56, Type (0, 1), BuildingBlock: AJUNOK_clean_linker_0, # of connection points: 2
#     Edge 57, Type (0, 1), BuildingBlock: AJUNOK_clean_linker_0, # of connection points: 2
#     Edge 58, Type (0, 1), BuildingBlock: AJUNOK_clean_linker_0, # of connection points: 2
#     Edge 59, Type (0, 1), BuildingBlock: AJUNOK_clean_linker_0, # of connection points: 2
#     Edge 60, Type (0, 1), BuildingBlock: AJUNOK_clean_linker_0, # of connection points: 2
#     Edge 61, Type (0, 1), BuildingBlock: AJUNOK_clean_linker_0, # of connection points: 2
# Relax obj value: 0.120
# Max RMSD: 0.263
# Mean RMSD: 0.151
data_MOF--net-ocu--node1-KUMJIN_clean_sbu_0--node2-TAGTUT_clean_sbu_1--edge1-AJUNOK_clean_linker_0
_symmetry_space_group_name_H-M    P1
_symmetry_Int_Tables_number       1
_symmetry_cell_setting            triclinic
loop_
_symmetry_equiv_pos_as_xyz
'x, y, z'
_cell_length_a     30.882734
_cell_length_b     29.737274
_cell_length_c     33.434685
_cell_angle_alpha  76.339048
_cell_angle_beta   103.50017
_cell_angle_gamma 119.62045
loop_
_atom_site_label
_atom_site_type_symbol
_atom_site_fract_x
_atom_site_fract_y
_atom_site_fract_z
_atom_type_partial_charge
Eu0 Eu 0.24922 0.19576 0.22477 0.0
C1 C 0.42942 0.35951 0.33309 0.0
C2 C 0.43993 0.3091 0.39947 0.0
C3 C 0.5071 0.39582 0.38067 0.0
C4 C 0.41051 0.31454 0.3612 0.0
C5 C 0.47723 0.40141 0.3431 0.0
C6 C 0.48862 0.34957 0.40869 0.0
C7 C 0.46051 0.45311 0.28002 0.0
N8 N 0.39946 0.36405 0.29737 0.0
C9 C 0.41366 0.41034 0.27145 0.0
C10 C 0.49248 0.44859 0.31606 0.0
Eu11 Eu 0.31645 0.29591 0.28851 0.0
N12 N 0.36283 0.27674 0.3517 0.0
C13 C 0.34186 0.23313 0.38001 0.0
C14 C 0.41913 0.26373 0.4278 0.0
C15 C 0.36979 0.22572 0.41809 0.0
H16 H 0.38786 0.41418 0.24487 0.0
H17 H 0.3531 0.19077 0.44004 0.0
H18 H 0.51175 0.34603 0.43787 0.0
H19 H 0.47152 0.48971 0.25932 0.0
H20 H 0.30374 0.20331 0.37353 0.0
H21 H 0.19367 0.29094 0.07529 0.0
H22 H 0.44051 0.25805 0.45747 0.0
H23 H 0.18646 0.07494 0.27128 0.0
H24 H 0.25095 0.28219 0.13751 0.0
H25 H 0.1025 0.99782 0.26367 0.0
H26 H 0.54408 0.42743 0.38871 0.0
H27 H 0.10547 0.22203 0.06568 0.0
H28 H 0.03843 0.13386 0.0911 0.0
H29 H 0.52796 0.48222 0.32356 0.0
H30 H 1.01395 0.05362 0.14188 0.0
N31 N 0.19573 0.20957 0.16467 0.0
C32 C 0.21262 0.25176 0.13438 0.0
C33 C 0.1304 0.21807 0.09348 0.0
C34 C 0.11385 0.17373 0.12349 0.0
C35 C 0.18017 0.25696 0.09874 0.0
C36 C 0.14785 0.1705 0.15915 0.0
H37 H 0.03859 0.00173 0.20501 0.0
N38 N 0.16812 0.12307 0.22073 0.0
C39 C 0.11103 0.03342 0.24191 0.0
C40 C 0.13369 0.12579 0.18798 0.0
C41 C 0.15805 0.07732 0.24684 0.0
C42 C 0.07463 0.03605 0.20917 0.0
C43 C 0.0857 0.08251 0.18159 0.0
O44 O 0.26447 0.13281 0.22141 0.0
O45 O 0.31879 0.22715 0.27343 0.0
O46 O 0.37068 0.31231 0.24456 0.0
O47 O 0.30901 0.26857 0.19333 0.0
O48 O 0.27006 0.14926 0.28336 0.0
O49 O 0.27244 0.19352 0.16859 0.0
O50 O 0.30711 0.36362 0.28972 0.0
O51 O 0.24841 0.26618 0.23883 0.0
O52 O 0.19234 0.18076 0.26481 0.0
O53 O 0.25154 0.22447 0.31727 0.0
O54 O 0.29883 0.34403 0.23023 0.0
O55 O 0.28991 0.30094 0.34162 0.0
C56 C 0.31375 0.18444 0.2968 0.0
C57 C 0.25213 0.11023 0.15535 0.0
C58 C 0.26653 0.06981 0.1079 0.0
C59 C 0.28334 0.11078 0.13086 0.0
C60 C 0.21718 0.02867 0.10937 0.0
C61 C 0.20235 0.07044 0.15473 0.0
C62 C 0.18479 0.03033 0.13119 0.0
C63 C 0.35595 0.30099 0.20607 0.0
C64 C 0.27395 0.14961 0.18324 0.0
C65 C 0.05111 0.08626 0.14706 0.0
C66 C 0.06509 0.13191 0.11815 0.0
C67 C 0.25542 0.30958 0.21555 0.0
C68 C 0.31537 0.3856 0.35545 0.0
C69 C 0.28336 0.3869 0.37803 0.0
C70 C 0.3007 0.42752 0.40153 0.0
C71 C 0.35188 0.46458 0.40472 0.0
C72 C 0.36625 0.42284 0.35893 0.0
C73 C 0.38459 0.46135 0.38428 0.0
C74 C 0.20467 0.19346 0.3026 0.0
C75 C 0.2935 0.34705 0.32664 0.0
H76 H 0.32115 0.14294 0.13042 0.0
H77 H 0.20356 0.99471 0.09434 0.0
H78 H 0.17746 0.06936 0.17311 0.0
H79 H 0.14657 0.99914 0.13137 0.0
H80 H 0.24462 0.35656 0.37652 0.0
H81 H 0.3665 0.49661 0.42232 0.0
H82 H 0.39166 0.42292 0.34175 0.0
H83 H 0.42393 0.48999 0.38684 0.0
Eu84 Eu 0.82269 0.21382 0.25104 0.0
C85 C 0.68198 0.23866 0.33526 0.0
C86 C 0.60122 0.17095 0.3095 0.0
C87 C 0.6117 0.1997 0.37485 0.0
C88 C 0.65151 0.20818 0.30422 0.0
C89 C 0.66228 0.23464 0.37085 0.0
C90 C 0.58129 0.1678 0.34433 0.0
C91 C 0.74453 0.29868 0.39723 0.0
N92 N 0.73141 0.27052 0.33168 0.0
C93 C 0.76236 0.30151 0.36155 0.0
C94 C 0.69427 0.26505 0.40196 0.0
Eu95 Eu 0.75676 0.28102 0.267 0.0
N96 N 0.67219 0.21116 0.27118 0.0
C97 C 0.64656 0.17183 0.24694 0.0
C98 C 0.57316 0.13573 0.28095 0.0
C99 C 0.59639 0.13534 0.25018 0.0
H100 H 0.80087 0.32948 0.35759 0.0
H101 H 0.57631 0.10553 0.22994 0.0
H102 H 0.54279 0.13961 0.34863 0.0
H103 H 0.76945 0.323 0.42079 0.0
H104 H 0.66445 0.16599 0.22611 0.0
H105 H 0.94692 0.18924 0.39149 0.0
H106 H 0.53466 0.10644 0.2841 0.0
H107 H 0.84595 0.25318 0.15154 0.0
H108 H 0.8661 0.17826 0.35022 0.0
H109 H 0.91774 0.2918 0.11281 0.0
H110 H 0.59611 0.19605 0.402 0.0
H111 H 1.02352 0.23107 0.35781 0.0
H112 H 0.0643 0.2743 0.29318 0.0
H113 H 0.68054 0.26285 0.42974 0.0
H114 H 0.05685 0.30368 0.21786 0.0
N115 N 0.89608 0.21325 0.29291 0.0
C116 C 0.89872 0.19528 0.33457 0.0
C117 C 0.98802 0.22613 0.33926 0.0
C118 C 0.98519 0.24409 0.29662 0.0
C119 C 0.94472 0.20205 0.35832 0.0
C120 C 0.93822 0.23757 0.27399 0.0
H121 H 1.00251 0.31003 0.15047 0.0
N122 N 0.88926 0.25053 0.21093 0.0
C123 C 0.92323 0.28272 0.14634 0.0
C124 C 0.93459 0.25632 0.23183 0.0
C125 C 0.88259 0.26124 0.16854 0.0
C126 C 0.97094 0.29286 0.16769 0.0
C127 C 0.97702 0.27899 0.21087 0.0
O128 O 0.75414 0.14433 0.23278 0.0
O129 O 0.76765 0.21119 0.28421 0.0
O130 O 0.81098 0.27241 0.32187 0.0
O131 O 0.8744 0.27466 0.29465 0.0
O132 O 0.78665 0.15214 0.30687 0.0
O133 O 0.82409 0.16282 0.21442 0.0
O134 O 0.80296 0.36274 0.27777 0.0
O135 O 0.82049 0.28932 0.23991 0.0
O136 O 0.7824 0.23747 0.19129 0.0
O137 O 0.71925 0.25137 0.20473 0.0
O138 O 0.79407 0.34093 0.21115 0.0
O139 O 0.7213 0.32667 0.27024 0.0
C140 C 0.75797 0.17074 0.31089 0.0
C141 C 0.7698 0.07519 0.23567 0.0
C142 C 0.7971 0.02567 0.29402 0.0
C143 C 0.80684 0.07154 0.2669 0.0
C144 C 0.75104 0.98076 0.2884 0.0
C145 C 0.72323 0.03066 0.22944 0.0
C146 C 0.71427 0.98318 0.25548 0.0
C147 C 0.85829 0.28563 0.32268 0.0
C148 C 0.77746 0.12771 0.21716 0.0
C149 C 1.02378 0.28579 0.23337 0.0
C150 C 1.02793 0.26877 0.2762 0.0
C151 C 0.83006 0.32974 0.2127 0.0
C152 C 0.76333 0.41422 0.24343 0.0
C153 C 0.73366 0.40285 0.20543 0.0
C154 C 0.71808 0.43785 0.18032 0.0
C155 C 0.73795 0.48819 0.19067 0.0
C156 C 0.78423 0.46445 0.254 0.0
C157 C 0.77249 0.50199 0.22687 0.0
C158 C 0.73672 0.23349 0.18242 0.0
C159 C 0.76368 0.37003 0.27337 0.0
H160 H 0.84232 0.10616 0.27297 0.0
H161 H 0.74321 0.9449 0.30981 0.0
H162 H 0.69353 0.03308 0.20577 0.0
H163 H 0.67833 0.94885 0.25103 0.0
H164 H 0.71682 0.36343 0.19811 0.0
H165 H 0.72559 0.51578 0.1717 0.0
H166 H 0.80759 0.47382 0.28357 0.0
H167 H 0.78776 0.54064 0.23508 0.0
Eu168 Eu 0.73194 0.71127 0.27908 0.0
C169 C 0.84871 0.9037 0.1686 0.0
C170 C 0.78822 0.89289 0.10605 0.0
C171 C 0.84764 0.98006 0.12246 0.0
C172 C 0.80875 0.87127 0.14293 0.0
C173 C 0.86931 0.95858 0.15812 0.0
C174 C 0.80713 0.94727 0.09653 0.0
C175 C 0.93443 0.96732 0.2164 0.0
N176 N 0.86918 0.88185 0.20262 0.0
C177 C 0.91353 0.91295 0.22473 0.0
C178 C 0.91181 0.99033 0.18324 0.0
Eu179 Eu 0.83022 0.78874 0.21627 0.0
N180 N 0.7911 0.81878 0.15306 0.0
C181 C 0.75575 0.78629 0.12562 0.0
C182 C 0.75006 0.85935 0.07929 0.0
C183 C 0.73435 0.80586 0.08884 0.0
H184 H 0.93323 0.89575 0.24868 0.0
H185 H 0.70582 0.77958 0.06779 0.0
H186 H 0.79133 0.9644 0.06874 0.0
H187 H 0.96842 0.99141 0.23514 0.0
H188 H 0.74334 0.74511 0.13138 0.0
H189 H 0.83164 0.6527 0.42422 0.0
H190 H 0.73343 0.87443 0.05071 0.0
H191 H 0.61234 0.63636 0.23842 0.0
H192 H 0.80855 0.71356 0.37381 0.0
H193 H 0.55464 0.54269 0.23531 0.0
H194 H 0.86257 0.02203 0.11423 0.0
H195 H 0.7899 0.55952 0.41538 0.0
H196 H 0.71729 0.48569 0.38179 0.0
H197 H 0.9285 0.03255 0.1764 0.0
H198 H 0.6408 0.45527 0.33076 0.0
N199 N 0.75446 0.65647 0.3346 0.0
C200 C 0.78919 0.67337 0.36888 0.0
C201 C 0.77835 0.58604 0.39369 0.0
C202 C 0.73836 0.56783 0.3619 0.0
C203 C 0.80235 0.63864 0.39836 0.0
C204 C 0.72667 0.60439 0.33266 0.0
H205 H 0.57994 0.47618 0.27692 0.0
N206 N 0.67038 0.62288 0.2791 0.0
C207 C 0.59084 0.55457 0.25456 0.0
C208 C 0.68344 0.58713 0.30402 0.0
C209 C 0.62348 0.60751 0.25649 0.0
C210 C 0.60537 0.5173 0.27767 0.0
C211 C 0.6513 0.53321 0.30377 0.0
O212 O 0.67277 0.68475 0.31721 0.0
O213 O 0.75999 0.7839 0.2311 0.0
O214 O 0.85386 0.82996 0.27389 0.0
O215 O 0.79649 0.76827 0.31764 0.0
O216 O 0.68423 0.72981 0.22229 0.0
O217 O 0.71909 0.76724 0.3006 0.0
O218 O 0.90774 0.82132 0.20455 0.0
O219 O 0.80328 0.71668 0.26505 0.0
O220 O 0.70671 0.66979 0.22263 0.0
O221 O 0.77962 0.70998 0.19225 0.0
O222 O 0.87959 0.76958 0.27093 0.0
O223 O 0.84646 0.76016 0.16981 0.0
C224 C 0.7178 0.77534 0.20823 0.0
C225 C 0.6943 0.73991 0.36712 0.0
C226 C 0.69974 0.79135 0.41712 0.0
C227 C 0.69335 0.78339 0.37576 0.0
C228 C 0.71006 0.75653 0.44956 0.0
C229 C 0.7046 0.70578 0.40006 0.0
C230 C 0.71299 0.71452 0.44098 0.0
C231 C 0.83662 0.8129 0.31022 0.0
C232 C 0.68577 0.73152 0.32365 0.0
C233 C 0.66483 0.49687 0.33084 0.0
C234 C 0.7084 0.51418 0.35983 0.0
C235 C 0.84622 0.72526 0.28688 0.0
C236 C 0.93081 0.79353 0.15371 0.0
C237 C 0.91978 0.74993 0.1361 0.0
C238 C 0.95539 0.75105 0.11598 0.0
C239 C 1.00179 0.79643 0.11286 0.0
C240 C 0.9773 0.83857 0.15038 0.0
C241 C 1.01248 0.84002 0.1298 0.0
C242 C 0.73289 0.6728 0.19527 0.0
C243 C 0.89445 0.79172 0.17629 0.0
H244 H 0.68755 0.81077 0.35011 0.0
H245 H 0.7144 0.76072 0.48177 0.0
H246 H 0.70606 0.67228 0.39429 0.0
H247 H 0.72074 0.68794 0.46622 0.0
H248 H 0.88449 0.71469 0.13933 0.0
H249 H 1.02984 0.79797 0.09748 0.0
H250 H 0.9864 0.87262 0.16366 0.0
H251 H 0.0483 0.87481 0.12731 0.0
Eu252 Eu 0.31966 0.71245 0.27079 0.0
C253 C 0.22536 0.83747 0.14202 0.0
C254 C 0.29778 0.91806 0.12157 0.0
C255 C 0.22227 0.88302 0.07166 0.0
C256 C 0.27418 0.87535 0.15164 0.0
C257 C 0.19847 0.84133 0.10215 0.0
C258 C 0.27204 0.92083 0.08125 0.0
C259 C 0.12706 0.7618 0.12535 0.0
N260 N 0.20419 0.79667 0.1717 0.0
C261 C 0.15527 0.75958 0.16441 0.0
C262 C 0.14877 0.80272 0.094 0.0
Eu263 Eu 0.25689 0.79211 0.23454 0.0
N264 N 0.29866 0.8704 0.1904 0.0
C265 C 0.34511 0.90918 0.20243 0.0
C266 C 0.34668 0.95638 0.13289 0.0
C267 C 0.37 0.95257 0.17377 0.0
H268 H 0.13846 0.72727 0.18822 0.0
H269 H 0.40753 0.98241 0.18299 0.0
H270 H 0.29032 0.95186 0.05726 0.0
H271 H 0.08895 0.73154 0.1192 0.0
H272 H 0.36405 0.9059 0.23361 0.0
H273 H 0.16373 0.52619 0.32096 0.0
H274 H 0.36663 0.98902 0.11044 0.0
H275 H 0.43713 0.77551 0.3195 0.0
H276 H 0.21135 0.59948 0.27006 0.0
H277 H 0.48363 0.77145 0.39034 0.0
H278 H 0.20266 0.88623 0.04055 0.0
H279 H 0.20073 0.52209 0.39485 0.0
H280 H 0.27651 0.5557 0.44912 0.0
H281 H 0.1269 0.80409 0.06367 0.0
H282 H 0.3642 0.62042 0.46754 0.0
N283 N 0.27531 0.6349 0.31454 0.0
C284 C 0.22881 0.59667 0.30185 0.0
C285 C 0.22285 0.55228 0.37223 0.0
C286 C 0.27221 0.58905 0.38425 0.0
C287 C 0.20159 0.55507 0.33063 0.0
C288 C 0.29795 0.63041 0.35416 0.0
H289 H 0.44188 0.70101 0.44572 0.0
N290 N 0.36982 0.70786 0.33522 0.0
C291 C 0.44532 0.74194 0.38339 0.0
C292 C 0.34682 0.66769 0.36476 0.0
C293 C 0.41899 0.74397 0.34339 0.0
C294 C 0.42151 0.70211 0.41467 0.0
C295 C 0.37174 0.66415 0.40552 0.0
O296 O 0.38219 0.71432 0.25015 0.0
O297 O 0.31636 0.7774 0.223 0.0
O298 O 0.24274 0.74797 0.18227 0.0
O299 O 0.25253 0.67726 0.221 0.0
O300 O 0.38704 0.78854 0.24899 0.0
O301 O 0.30792 0.64681 0.24398 0.0
O302 O 0.19589 0.79355 0.25504 0.0
O303 O 0.25934 0.72663 0.28176 0.0
O304 O 0.33329 0.75596 0.32283 0.0
O305 O 0.32562 0.82744 0.28359 0.0
O306 O 0.18914 0.71642 0.25538 0.0
O307 O 0.27325 0.85421 0.26786 0.0
C308 C 0.36244 0.80838 0.22071 0.0
C309 C 0.37866 0.63406 0.25076 0.0
C310 C 0.42833 0.60258 0.23114 0.0
C311 C 0.40398 0.63349 0.22168 0.0
C312 C 0.42712 0.57187 0.27027 0.0
C313 C 0.37764 0.6039 0.28997 0.0
C314 C 0.40203 0.57294 0.29963 0.0
C315 C 0.23822 0.70068 0.18562 0.0
C316 C 0.3551 0.66786 0.23911 0.0
C317 C 0.346 0.62342 0.43584 0.0
C318 C 0.29614 0.58632 0.42531 0.0
C319 C 0.21306 0.69606 0.28381 0.0
C320 C 0.20876 0.87405 0.2671 0.0
C321 C 0.19923 0.8819 0.30282 0.0
C322 C 0.18032 0.91656 0.30055 0.0
C323 C 0.17276 0.9448 0.26188 0.0
C324 C 0.20083 0.90168 0.22849 0.0
C325 C 0.18285 0.93714 0.22607 0.0
C326 C 0.33904 0.80362 0.31927 0.0
C327 C 0.22623 0.83592 0.27186 0.0
H328 H 0.40411 0.65672 0.19125 0.0
H329 H 0.44568 0.54755 0.27813 0.0
H330 H 0.35834 0.60445 0.31289 0.0
H331 H 0.40162 0.55004 0.32992 0.0
H332 H 0.20609 0.86035 0.33257 0.0
H333 H 0.15815 0.97172 0.25909 0.0
H334 H 0.20814 0.89558 0.20057 0.0
H335 H 0.17586 0.95792 0.19641 0.0
Eu336 Eu 0.32384 0.70422 0.76839 0.0
C337 C 0.18373 0.79569 0.79132 0.0
C338 C 0.10172 0.73616 0.76059 0.0
C339 C 0.10936 0.79602 0.80324 0.0
C340 C 0.1547 0.75805 0.76571 0.0
C341 C 0.16137 0.81391 0.81153 0.0
C342 C 0.07939 0.7569 0.77795 0.0
C343 C 0.24237 0.8604 0.8511 0.0
N344 N 0.23349 0.8104 0.8 0.0
C345 C 0.26263 0.84075 0.83066 0.0
C346 C 0.19159 0.84766 0.84097 0.0
Eu347 Eu 0.26905 0.78637 0.7582 0.0
N348 N 0.17783 0.73817 0.75052 0.0
C349 C 0.14885 0.69097 0.73583 0.0
C350 C 0.07266 0.69191 0.74067 0.0
C351 C 0.09638 0.66828 0.72944 0.0
H352 H 0.30213 0.85138 0.83842 0.0
H353 H 0.07429 0.63199 0.7165 0.0
H354 H 0.0389 0.74124 0.77354 0.0
H355 H 0.26593 0.8853 0.87463 0.0
H356 H 0.16528 0.66953 0.72907 0.0
H357 H 0.51559 0.84823 0.74043 0.0
H358 H 1.03195 0.6738 0.73631 0.0
H359 H 0.24949 0.59061 0.73295 0.0
H360 H 0.43877 0.80906 0.77281 0.0
H361 H 0.24818 0.54015 0.68444 0.0
H362 H 0.0921 0.81078 0.8178 0.0
H363 H 0.52013 0.80616 0.68703 0.0
H364 H 0.47965 0.72999 0.64714 0.0
H365 H 0.17572 0.86243 0.85714 0.0
H366 H 0.40819 0.64449 0.63363 0.0
N367 N 0.39892 0.74553 0.73767 0.0
C368 C 0.43984 0.78992 0.74971 0.0
C369 C 0.48608 0.78869 0.70115 0.0
C370 C 0.445 0.74182 0.69046 0.0
C371 C 0.48373 0.81241 0.73138 0.0
C372 C 0.4015 0.72095 0.70962 0.0
H373 H 0.32241 0.57275 0.64799 0.0
N374 N 0.32062 0.65463 0.72106 0.0
C375 C 0.28111 0.57669 0.68964 0.0
C376 C 0.36135 0.67349 0.7016 0.0
C377 C 0.28144 0.60597 0.71667 0.0
C378 C 0.32268 0.59558 0.66905 0.0
C379 C 0.36353 0.64465 0.67485 0.0
O380 O 0.30916 0.62845 0.80525 0.0
O381 O 0.26813 0.71368 0.79517 0.0
O382 O 0.29873 0.76537 0.82388 0.0
O383 O 0.3684 0.76919 0.8097 0.0
O384 O 0.24354 0.64205 0.77974 0.0
O385 O 0.38168 0.69499 0.81611 0.0
O386 O 0.3395 0.85762 0.77132 0.0
O387 O 0.3355 0.78557 0.74234 0.0
O388 O 0.27526 0.69518 0.70566 0.0
O389 O 0.23242 0.74388 0.70038 0.0
O390 O 0.29218 0.81153 0.69411 0.0
O391 O 0.27061 0.86221 0.74497 0.0
C392 C 0.23134 0.66813 0.79658 0.0
C393 C 0.34527 0.6354 0.87385 0.0
C394 C 0.35675 0.66492 0.93893 0.0
C395 C 0.35823 0.67528 0.89633 0.0
C396 C 0.34288 0.61256 0.96117 0.0
C397 C 0.32655 0.58382 0.89321 0.0
C398 C 0.32537 0.5722 0.9358 0.0
C399 C 0.34664 0.77919 0.83348 0.0
C400 C 0.35106 0.64717 0.82994 0.0
C401 C 0.40609 0.66575 0.65473 0.0
C402 C 0.44668 0.71444 0.66235 0.0
C403 C 0.33269 0.80586 0.70396 0.0
C404 C 0.34607 0.93767 0.7322 0.0
C405 C 0.33933 0.93727 0.68968 0.0
C406 C 0.32381 0.97186 0.66322 0.0
C407 C 0.33574 0.01856 0.67692 0.0
C408 C 0.35909 0.98397 0.74662 0.0
C409 C 0.35652 0.02577 0.71828 0.0
C410 C 0.24088 0.71022 0.68681 0.0
C411 C 0.31873 0.8881 0.75776 0.0
H412 H 0.37528 0.71529 0.88201 0.0
H413 H 0.37259 0.61268 0.03759 0.0
H414 H 0.31544 0.55253 0.87566 0.0
H415 H 0.31514 0.53196 0.94921 0.0
H416 H 0.33145 0.90266 0.67843 0.0
H417 H 0.325 0.04702 0.65727 0.0
H418 H 0.36591 0.98579 0.77963 0.0
H419 H 0.3648 0.06105 0.72916 0.0
Eu420 Eu 0.25219 0.22374 0.77748 0.0
C421 C 0.41185 0.43495 0.70399 0.0
C422 C 0.37019 0.46608 0.64157 0.0
C423 C 0.44062 0.52827 0.68323 0.0
C424 C 0.37392 0.42454 0.67028 0.0
C425 C 0.44563 0.48692 0.71078 0.0
C426 C 0.40323 0.5179 0.64857 0.0
C427 C 0.49005 0.45372 0.7692 0.0
N428 N 0.41648 0.39428 0.72962 0.0
C429 C 0.4564 0.40298 0.7607 0.0
C430 C 0.48399 0.49582 0.74468 0.0
Eu431 Eu 0.35304 0.30968 0.71601 0.0
N432 N 0.34177 0.37401 0.6647 0.0
C433 C 0.30797 0.36243 0.62946 0.0
C434 C 0.33376 0.45432 0.60638 0.0
C435 C 0.30299 0.40229 0.60003 0.0
H436 H 0.46108 0.37071 0.78021 0.0
H437 H 0.27528 0.3928 0.57258 0.0
H438 H 0.4005 0.55026 0.6271 0.0
H439 H 0.52053 0.46031 0.79468 0.0
H440 H 0.28402 0.32251 0.62415 0.0
H441 H 0.33464 0.14111 0.91821 0.0
H442 H 0.32966 0.4851 0.58361 0.0
H443 H 0.13544 0.1632 0.72375 0.0
H444 H 0.32237 0.21071 0.86859 0.0
H445 H 0.06828 0.07495 0.71679 0.0
H446 H 0.46616 0.56846 0.68796 0.0
H447 H 0.27929 0.04863 0.90748 0.0
H448 H 0.19901 0.98278 0.87232 0.0
H449 H 0.51019 0.53514 0.75129 0.0
H450 H 0.12537 0.96462 0.81814 0.0
N451 N 0.26103 0.15867 0.83034 0.0
C452 C 0.29723 0.17073 0.86419 0.0
C453 C 0.27255 0.07917 0.88701 0.0
C454 C 0.23195 0.06693 0.85518 0.0
C455 C 0.3042 0.13126 0.89263 0.0
C456 C 0.22719 0.10819 0.82699 0.0
H457 H 0.07645 0.99867 0.76029 0.0
N458 N 0.18267 0.13915 0.77122 0.0
C459 C 0.10145 0.08063 0.73917 0.0
C460 C 0.18646 0.09805 0.79652 0.0
C461 C 0.14012 0.13113 0.74337 0.0
C462 C 0.10612 0.03789 0.76374 0.0
C463 C 0.1486 0.04626 0.79333 0.0
O464 O 0.18928 0.23137 0.78912 0.0
O465 O 0.27967 0.29759 0.73006 0.0
O466 O 0.35697 0.35273 0.76607 0.0
O467 O 0.32318 0.2798 0.81407 0.0
O468 O 0.20407 0.2459 0.72339 0.0
O469 O 0.25798 0.25535 0.83212 0.0
O470 O 0.42302 0.33634 0.69214 0.0
O471 O 0.32413 0.23508 0.76129 0.0
O472 O 0.24331 0.18062 0.7254 0.0
O473 O 0.28572 0.25218 0.67746 0.0
O474 O 0.40049 0.28162 0.76768 0.0
O475 O 0.35595 0.27147 0.66859 0.0
C476 C 0.23741 0.28975 0.70771 0.0
C477 C 0.18533 0.23442 0.85823 0.0
C478 C 0.15657 0.25684 0.90885 0.0
C479 C 0.18287 0.27202 0.87507 0.0
C480 C 0.13327 0.20376 0.92589 0.0
C481 C 0.16235 0.18171 0.87567 0.0
C482 C 0.13643 0.16653 0.9095 0.0
C483 C 0.35029 0.33085 0.80475 0.0
C484 C 0.21322 0.25154 0.82317 0.0
C485 C 0.15388 0.0047 0.82031 0.0
C486 C 0.19573 0.01503 0.85111 0.0
C487 C 0.3655 0.23788 0.78203 0.0
C488 C 0.43311 0.26881 0.67587 0.0
C489 C 0.42009 0.23276 0.64884 0.0
C490 C 0.44894 0.20675 0.65231 0.0
C491 C 0.49146 0.21817 0.68299 0.0
C492 C 0.47461 0.27768 0.7072 0.0
C493 C 0.50356 0.25262 0.71054 0.0
C494 C 0.25434 0.20193 0.68706 0.0
C495 C 0.40455 0.29835 0.6703 0.0
H496 H 0.20034 0.31275 0.86129 0.0
H497 H 0.11231 0.19111 0.95174 0.0
H498 H 0.16449 0.15254 0.86312 0.0
H499 H 0.11842 0.12579 0.92287 0.0
H500 H 0.3878 0.22536 0.62496 0.0
H501 H 0.51631 0.20151 0.68525 0.0
H502 H 0.48539 0.30471 0.72875 0.0
H503 H 0.53615 0.26071 0.73413 0.0
Eu504 Eu 0.82009 0.22073 0.77045 0.0
C505 C 0.71633 0.33267 0.64379 0.0
C506 C 0.78687 0.41454 0.62199 0.0
C507 C 0.71165 0.37537 0.57264 0.0
C508 C 0.76448 0.37254 0.65287 0.0
C509 C 0.68885 0.33437 0.60392 0.0
C510 C 0.7608 0.41483 0.58157 0.0
C511 C 0.61839 0.25496 0.62907 0.0
N512 N 0.69622 0.2923 0.67415 0.0
C513 C 0.6474 0.25453 0.66798 0.0
C514 C 0.63943 0.29467 0.59671 0.0
Eu515 Eu 0.75013 0.29296 0.73709 0.0
N516 N 0.78939 0.37036 0.6919 0.0
C517 C 0.83481 0.41088 0.70327 0.0
C518 C 0.83493 0.45473 0.63266 0.0
C519 C 0.85852 0.45357 0.67369 0.0
H520 H 0.63119 0.22337 0.6927 0.0
H521 H 0.89533 0.48493 0.68233 0.0
H522 H 0.77826 0.44535 0.55702 0.0
H523 H 0.58001 0.22446 0.62396 0.0
H524 H 0.85371 0.40938 0.73473 0.0
H525 H 0.68338 0.02892 0.83501 0.0
H526 H 0.85398 0.4868 0.60957 0.0
H527 H 0.94153 0.29454 0.80816 0.0
H528 H 0.71819 0.10391 0.7803 0.0
H529 H 0.99849 0.29698 0.87317 0.0
H530 H 0.69168 0.37691 0.54148 0.0
H531 H 0.73239 0.02855 0.90478 0.0
H532 H 0.81328 0.07336 0.95282 0.0
H533 H 0.61707 0.29462 0.56645 0.0
H534 H 0.89916 0.14439 0.96268 0.0
N535 N 0.78621 0.14506 0.81899 0.0
C536 C 0.74027 0.10361 0.81052 0.0
C537 C 0.74831 0.06105 0.88084 0.0
C538 C 0.7966 0.10249 0.88851 0.0
C539 C 0.7204 0.06116 0.84143 0.0
C540 C 0.81504 0.1441 0.85625 0.0
H541 H 0.96892 0.22745 0.93308 0.0
N542 N 0.87975 0.224 0.83009 0.0
C543 C 0.96059 0.26518 0.8706 0.0
C544 C 0.86339 0.18464 0.86193 0.0
C545 C 0.928 0.26353 0.83353 0.0
C546 C 0.94376 0.22595 0.90422 0.0
C547 C 0.89472 0.18491 0.90008 0.0
O548 O 0.87893 0.2199 0.74578 0.0
O549 O 0.81319 0.28478 0.72343 0.0
O550 O 0.73831 0.25078 0.68473 0.0
O551 O 0.75011 0.18187 0.72418 0.0
O552 O 0.88455 0.29817 0.74782 0.0
O553 O 0.80283 0.15529 0.74065 0.0
O554 O 0.68798 0.28215 0.7645 0.0
O555 O 0.75799 0.22987 0.78463 0.0
O556 O 0.83197 0.26176 0.82351 0.0
O557 O 0.81639 0.33025 0.78747 0.0
O558 O 0.68622 0.21365 0.75764 0.0
O559 O 0.75219 0.35925 0.75662 0.0
C560 C 0.85893 0.31737 0.72048 0.0
C561 C 0.86858 0.13796 0.73954 0.0
C562 C 0.89683 0.09322 0.70808 0.0
C563 C 0.87486 0.12564 0.70434 0.0
C564 C 0.90906 0.07021 0.74792 0.0
C565 C 0.88153 0.11568 0.77923 0.0
C566 C 0.9013 0.08128 0.7833 0.0
C567 C 0.7357 0.20444 0.68842 0.0
C568 C 0.84874 0.17464 0.73316 0.0
C569 C 0.87601 0.14451 0.93284 0.0
C570 C 0.827 0.10369 0.92713 0.0
C571 C 0.71232 0.19637 0.78666 0.0
C572 C 0.67255 0.35301 0.75603 0.0
C573 C 0.65191 0.35637 0.78739 0.0
C574 C 0.61566 0.37373 0.77747 0.0
C575 C 0.59968 0.38766 0.73581 0.0
C576 C 0.65658 0.3667 0.71427 0.0
C577 C 0.62001 0.3838 0.70425 0.0
C578 C 0.8334 0.30727 0.82175 0.0
C579 C 0.70759 0.33123 0.76823 0.0
H580 H 0.86264 0.14169 0.67386 0.0
H581 H 0.92503 0.04428 0.7517 0.0
H582 H 0.87631 0.12478 0.8067 0.0
H583 H 0.91115 0.06364 0.81387 0.0
H584 H 0.66443 0.34595 0.81973 0.0
H585 H 0.57229 0.40216 0.72788 0.0
H586 H 0.67204 0.36397 0.68962 0.0
H587 H 0.60767 0.39438 0.67204 0.0
Eu588 Eu 0.7622 0.70713 0.72634 0.0
C589 C 0.94049 0.87326 0.83143 0.0
C590 C 0.95824 0.8199 0.89318 0.0
C591 C 1.02276 0.90788 0.87358 0.0
C592 C 0.92518 0.82648 0.85797 0.0
C593 C 0.98885 0.91513 0.83991 0.0
C594 C 1.00754 0.86023 0.9001 0.0
C595 C 0.96491 0.97016 0.78427 0.0
N596 N 0.90641 0.87951 0.79979 0.0
C597 C 0.91719 0.92767 0.77725 0.0
C598 C 1.00088 0.9638 0.8156 0.0
Eu599 Eu 0.82536 0.80688 0.79196 0.0
N600 N 0.87668 0.78911 0.85142 0.0
C601 C 0.85787 0.74618 0.88058 0.0
C602 C 0.94021 0.77364 0.92112 0.0
C603 C 0.8897 0.73682 0.91486 0.0
H604 H 0.88947 0.93325 0.75314 0.0
H605 H 0.87525 0.70102 0.93618 0.0
H606 H 1.03357 0.85564 0.92671 0.0
H607 H 0.97455 0.00765 0.76516 0.0
H608 H 0.81853 0.71805 0.87676 0.0
H609 H 0.72203 0.80561 0.57342 0.0
H610 H 0.96454 0.76662 0.94816 0.0
H611 H 0.69083 0.58871 0.77551 0.0
H612 H 0.77289 0.79585 0.64042 0.0
H613 H 0.60912 0.51167 0.76125 0.0
H614 H 0.06027 0.93945 0.88016 0.0
H615 H 0.63533 0.73612 0.55736 0.0
H616 H 0.5659 0.64731 0.57852 0.0
H617 H 1.0373 0.99707 0.82158 0.0
H618 H 0.53575 0.56707 0.62909 0.0
N619 N 0.71479 0.72261 0.66315 0.0
C620 C 0.73484 0.76558 0.6342 0.0
C621 C 0.65724 0.73188 0.58711 0.0
C622 C 0.6376 0.68698 0.61622 0.0
C623 C 0.7062 0.77117 0.59604 0.0
C624 C 0.66767 0.68341 0.65453 0.0
H625 H 0.55331 0.51514 0.69556 0.0
N626 N 0.68025 0.6362 0.71967 0.0
C627 C 0.61996 0.54736 0.73936 0.0
C628 C 0.65008 0.63876 0.68345 0.0
C629 C 0.66618 0.59118 0.74741 0.0
C630 C 0.58833 0.54958 0.70244 0.0
C631 C 0.60283 0.59577 0.67421 0.0
O632 O 0.77824 0.64335 0.7272 0.0
O633 O 0.82632 0.73623 0.77871 0.0
O634 O 0.88445 0.82211 0.75464 0.0
O635 O 0.82904 0.77863 0.7 0.0
O636 O 0.77587 0.6579 0.78592 0.0
O637 O 0.78621 0.70083 0.67199 0.0
O638 O 0.81343 0.87178 0.79879 0.0
O639 O 0.76095 0.77774 0.73945 0.0
O640 O 0.70272 0.69542 0.7621 0.0
O641 O 0.7581 0.73503 0.81808 0.0
O642 O 0.8094 0.85571 0.73291 0.0
O643 O 0.79917 0.80499 0.84678 0.0
C644 C 0.81795 0.69274 0.80201 0.0
C645 C 0.7648 0.61491 0.66311 0.0
C646 C 0.77563 0.57337 0.61405 0.0
C647 C 0.79291 0.61625 0.63512 0.0
C648 C 0.72915 0.52939 0.62098 0.0
C649 C 0.71791 0.57126 0.66861 0.0
C650 C 0.70009 0.52896 0.64743 0.0
C651 C 0.87483 0.80909 0.71725 0.0
C652 C 0.78732 0.65708 0.68886 0.0
C653 C 0.57236 0.59953 0.63651 0.0
C654 C 0.58956 0.6452 0.60771 0.0
C655 C 0.76757 0.82091 0.71636 0.0
C656 C 0.82119 0.88346 0.8687 0.0
C657 C 0.79 0.898 0.88077 0.0
C658 C 0.80234 0.91644 0.91909 0.0
C659 C 0.84918 0.92498 0.94295 0.0
C660 C 0.86772 0.89265 0.89274 0.0
C661 C 0.88203 0.91429 0.92927 0.0
C662 C 0.71191 0.70647 0.80024 0.0
C663 C 0.80036 0.85051 0.8357 0.0
H664 H 0.82894 0.65024 0.63067 0.0
H665 H 0.71574 0.49467 0.60697 0.0
H666 H 0.6957 0.56888 0.69015 0.0
H667 H 0.66432 0.49508 0.65251 0.0
H668 H 0.75519 0.89269 0.86085 0.0
H669 H 0.86003 0.93837 0.97287 0.0
H670 H 0.89209 0.88132 0.88432 0.0
H671 H 0.91771 0.92056 0.94802 0.0
C672 C 0.9339 0.05371 0.56107 0.0
C673 C 0.94637 0.06006 0.43252 0.0
C674 C 0.94254 0.88498 0.46845 0.0
Mg675 Mg 1.01996 0.08893 0.5096 0.0
O676 O 1.00013 0.01755 0.52936 0.0
Mg677 Mg 0.92978 0.96515 0.51156 0.0
Mg678 Mg 1.03454 0.98915 0.50926 0.0
O679 O 0.06736 0.95983 0.48935 0.0
Mg680 Mg 0.04605 0.88634 0.5045 0.0
Mg681 Mg 0.13586 0.00783 0.51185 0.0
C682 C 0.12544 0.09387 0.54878 0.0
C683 C 0.09951 0.07486 0.43751 0.0
O684 O 0.91175 0.00725 0.55114 0.0
O685 O 0.97403 0.09054 0.5471 0.0
O686 O 0.92345 0.01702 0.45484 0.0
O687 O 0.98941 0.09587 0.44484 0.0
O688 O 0.09986 0.11893 0.53378 0.0
O689 O 0.10731 0.04552 0.54505 0.0
C690 C 0.97638 0.90395 0.58334 0.0
O691 O 1.01767 0.92837 0.56809 0.0
O692 O 0.93874 0.91182 0.5671 0.0
O693 O 0.15156 0.96405 0.47132 0.0
O694 O 0.08157 0.88921 0.45748 0.0
O695 O 0.12452 0.94882 0.56788 0.0
C696 C 0.12608 0.92429 0.45149 0.0
O697 O 0.09709 0.86961 0.55558 0.0
O698 O 0.96497 0.85721 0.4863 0.0
C699 C 0.1314 0.90975 0.57144 0.0
O700 O 0.96083 0.93261 0.4743 0.0
O701 O 0.05619 0.05175 0.45003 0.0
O702 O 0.13542 0.06496 0.45639 0.0
C703 C 0.40455 0.06623 0.01866 0.0
C704 C 0.44591 0.10566 0.90291 0.0
C705 C 0.46094 0.90676 0.9603 0.0
Mg706 Mg 0.50797 0.10969 0.99189 0.0
O707 O 0.49105 0.04054 0.99856 0.0
Mg708 Mg 0.42406 0.99101 0.97211 0.0
Mg709 Mg 0.5374 0.00983 1.00485 0.0
O710 O 0.58228 0.97807 0.0108 0.0
Mg711 Mg 0.56252 0.90815 0.01568 0.0
Mg712 Mg 0.64988 0.02637 0.03646 0.0
C713 C 0.61134 0.11383 0.0483 0.0
C714 C 0.62699 0.08745 0.944 0.0
O715 O 0.38799 0.02822 0.99797 0.0
O716 O 0.45105 0.09982 0.02405 0.0
O717 O 0.42468 0.05498 0.91001 0.0
O718 O 0.48259 0.13282 0.92857 0.0
O719 O 0.58359 0.13403 0.02559 0.0
O720 O 0.6008 0.06547 0.04986 0.0
C721 C 0.44761 0.92991 0.06506 0.0
O722 O 0.49495 0.95329 0.06209 0.0
O723 O 0.41623 0.93583 0.03452 0.0
O724 O 0.68318 0.98652 0.0092 0.0
O725 O 0.61769 0.9162 0.98362 0.0
O726 O 0.64944 0.96016 0.09695 0.0
C727 C 0.66466 0.94784 0.9887 0.0
O728 O 0.58973 0.88308 0.07774 0.0
O729 O 0.48743 0.88394 0.98037 0.0
C730 C 0.62808 0.90937 0.10275 0.0
O731 O 0.47468 0.95528 0.96022 0.0
O732 O 0.57978 0.06545 0.9472 0.0
O733 O 0.65812 0.08137 0.9746 0.0
C734 C 0.95737 0.6059 0.03335 0.0
C735 C 0.95363 0.60861 0.90951 0.0
C736 C 0.93685 0.39756 0.97219 0.0
Mg737 Mg 0.0377 0.61602 0.98648 0.0
O738 O 1.00613 0.54485 1.00583 0.0
Mg739 Mg 0.93267 0.50467 0.98799 0.0
Mg740 Mg 1.03514 0.49729 0.00721 0.0
O741 O 0.06413 0.44993 0.00787 0.0
Mg742 Mg 1.03263 0.37868 0.02735 0.0
Mg743 Mg 0.13784 0.49124 0.02389 0.0
C744 C 0.13452 0.59931 0.03934 0.0
C745 C 0.11272 0.55327 0.93433 0.0
O746 O 0.92404 0.5636 0.01845 0.0
O747 O 1.00318 0.62977 0.02663 0.0
O748 O 0.93085 0.55994 0.92448 0.0
O749 O 0.99818 0.6382 0.92613 0.0
O750 O 0.11451 0.62752 0.0156 0.0
O751 O 0.11198 0.54874 0.04278 0.0
C752 C 0.95289 0.43725 0.07649 0.0
O753 O 0.99705 0.44757 0.07072 0.0
O754 O 0.92722 0.45547 0.04926 0.0
O755 O 0.14689 0.43053 0.99584 0.0
O756 O 0.06883 0.36281 0.99005 0.0
O757 O 0.13919 0.4376 0.08833 0.0
C758 C 0.11463 0.38633 0.98327 0.0
O759 O 0.07225 0.35892 0.08913 0.0
O760 O 0.95658 0.36846 0.99489 0.0
C761 C 0.11673 0.38964 0.10521 0.0
O762 O 0.95959 0.44779 0.97036 0.0
O763 O 0.0709 0.54448 0.94402 0.0
O764 O 0.14196 0.53804 0.95988 0.0
C765 C 0.49548 0.60349 0.08482 0.0
C766 C 0.48714 0.64784 0.96547 0.0
C767 C 0.42325 0.43168 0.95458 0.0
Mg768 Mg 0.56368 0.62579 0.02339 0.0
O769 O 0.51808 0.55312 0.02403 0.0
Mg770 Mg 0.44554 0.52706 0.00706 0.0
Mg771 Mg 0.52651 0.50811 0.99687 0.0
O772 O 0.53543 0.46085 0.97029 0.0
Mg773 Mg 0.49242 0.38655 0.98096 0.0
Mg774 Mg 0.60888 0.48925 0.98854 0.0
C775 C 0.63828 0.58344 0.04302 0.0
C776 C 0.59235 0.57888 0.92373 0.0
O777 O 0.46036 0.57093 0.0614 0.0
O778 O 0.54117 0.62998 0.07765 0.0
O779 O 0.46237 0.60016 0.95971 0.0
O780 O 0.53462 0.66883 0.97542 0.0
O781 O 0.63156 0.62164 0.02127 0.0
O782 O 0.60722 0.53651 0.03526 0.0
C783 C 0.45743 0.43279 0.06869 0.0
O784 O 0.49609 0.44433 0.05286 0.0
O785 O 0.43114 0.45652 0.05459 0.0
O786 O 0.60039 0.43957 0.94211 0.0
O787 O 0.51984 0.37742 0.93033 0.0
O788 O 0.59603 0.42393 0.0392 0.0
C789 C 0.5653 0.40329 0.92178 0.0
O790 O 0.5191 0.35659 0.04041 0.0
O791 O 0.43195 0.40223 0.98594 0.0
C792 C 0.56477 0.38019 0.05597 0.0
O793 O 0.44493 0.48099 0.95693 0.0
O794 O 0.55726 0.57159 0.94225 0.0
O795 O 0.61775 0.55402 0.93671 0.0
C796 C 0.90432 0.56167 0.5194 0.0
C797 C 0.94079 0.60089 0.40273 0.0
C798 C 0.96214 0.40123 0.45813 0.0
Mg799 Mg 1.00632 0.60482 0.49084 0.0
O800 O 0.98996 0.5363 0.49444 0.0
Mg801 Mg 0.92178 0.48617 0.47024 0.0
Mg802 Mg 1.03634 0.50543 0.50197 0.0
O803 O 0.08263 0.47422 0.50983 0.0
Mg804 Mg 0.0661 0.40547 0.51361 0.0
Mg805 Mg 0.15143 0.5249 0.53249 0.0
C806 C 0.11057 0.6098 0.5456 0.0
C807 C 0.12542 0.58327 0.43983 0.0
O808 O 0.88646 0.52415 0.49777 0.0
O809 O 0.95104 0.59423 0.52452 0.0
O810 O 0.92044 0.55019 0.40856 0.0
O811 O 0.97808 0.62744 0.42833 0.0
O812 O 0.08128 0.6295 0.52585 0.0
O813 O 0.10058 0.56219 0.54511 0.0
C814 C 0.94616 0.4278 0.56362 0.0
O815 O 0.99362 0.45098 0.5607 0.0
O816 O 0.91484 0.43243 0.53258 0.0
O817 O 0.18527 0.48584 0.50463 0.0
O818 O 0.11955 0.41613 0.47808 0.0
O819 O 0.15549 0.46205 0.59363 0.0
C820 C 0.1664 0.44821 0.48296 0.0
O821 O 0.09975 0.38353 0.57461 0.0
O822 O 0.99042 0.38068 0.47901 0.0
C823 C 0.13768 0.41161 0.59914 0.0
O824 O 0.97299 0.44916 0.4583 0.0
O825 O 0.07815 0.56004 0.44317 0.0
O826 O 0.15698 0.57811 0.47034 0.0
C827 C 0.44763 0.09656 0.53259 0.0
C828 C 0.45404 0.10736 0.40768 0.0
C829 C 0.45067 0.90155 0.46558 0.0
Mg830 Mg 0.53456 0.11726 0.48827 0.0
O831 O 0.50734 0.04495 0.50413 0.0
Mg832 Mg 0.43476 1.00033 0.48541 0.0
Mg833 Mg 0.54244 0.00233 0.50615 0.0
O834 O 0.57729 0.96004 0.50825 0.0
Mg835 Mg 0.54927 0.88764 0.5209 0.0
Mg836 Mg 0.64883 0.00381 0.53052 0.0
C837 C 0.63335 0.10429 0.5435 0.0
C838 C 0.62997 0.06962 0.44167 0.0
O839 O 0.41911 0.05254 0.5185 0.0
O840 O 0.49337 0.12553 0.52626 0.0
O841 O 0.43217 0.05839 0.42249 0.0
O842 O 0.49687 0.13815 0.42609 0.0
O843 O 0.61112 0.1312 0.52125 0.0
O844 O 0.6135 0.05417 0.54564 0.0
C845 C 0.4582 0.93273 0.57332 0.0
O846 O 0.50354 0.94855 0.56724 0.0
O847 O 0.42919 0.94713 0.54645 0.0
O848 O 0.6688 0.95211 0.5017 0.0
O849 O 0.5939 0.88456 0.48313 0.0
O850 O 0.6458 0.94557 0.59295 0.0
C851 C 0.64129 0.91212 0.4823 0.0
O852 O 0.58596 0.86492 0.58329 0.0
O853 O 0.4732 0.8742 0.48606 0.0
C854 C 0.62604 0.89582 0.60466 0.0
O855 O 0.46993 0.95112 0.46636 0.0
O856 O 0.58383 0.0545 0.44555 0.0
O857 O 0.65819 0.05617 0.47021 0.0
C858 C 0.1806 0.18911 0.37005 0.0
C859 C 0.16713 0.16932 0.33216 0.0
C860 C 0.15269 0.16131 0.40297 0.0
C861 C 0.11043 0.11247 0.39948 0.0
H862 H 0.21491 0.22463 0.37568 0.0
H863 H 0.16738 0.17552 0.43278 0.0
S864 S 0.05215 0.04886 0.3048 0.0
N865 N 0.10183 0.10338 0.29055 0.0
N866 N 0.05222 0.04849 0.35423 0.0
C867 C 0.09321 0.09488 0.36073 0.0
C868 C 0.12089 0.12404 0.32656 0.0
C869 C 0.83835 0.06021 0.35974 0.0
C870 C 0.83399 0.03022 0.33088 0.0
C871 C 0.88027 0.07709 0.38995 0.0
C872 C 0.91913 0.06491 0.39188 0.0
H873 H 0.80942 0.0713 0.35844 0.0
H874 H 0.88087 0.09705 0.4135 0.0
S875 S 0.92451 0.98693 0.32342 0.0
N876 N 0.87145 0.98997 0.30496 0.0
N877 N 0.94986 0.01952 0.36362 0.0
C878 C 0.91527 0.03531 0.36292 0.0
C879 C 0.87264 0.01835 0.33197 0.0
C880 C 0.83828 0.8335 0.37917 0.0
C881 C 0.86494 0.84057 0.34712 0.0
C882 C 0.86305 0.84943 0.41816 0.0
C883 C 0.91558 0.87323 0.42649 0.0
H884 H 0.79767 0.81373 0.37458 0.0
H885 H 0.84099 0.84153 0.44221 0.0
S886 S 1.00397 0.90653 0.35307 0.0
N887 N 0.94763 0.87675 0.32647 0.0
N888 N 0.99406 0.90775 0.39914 0.0
C889 C 0.94293 0.88343 0.39429 0.0
C890 C 0.91774 0.86698 0.35471 0.0
C891 C 0.13953 0.87388 0.3646 0.0
C892 C 0.16666 0.92019 0.33873 0.0
C893 C 0.12851 0.87544 0.40221 0.0
C894 C 0.14454 0.92338 0.41539 0.0
H895 H 0.12627 0.83603 0.35552 0.0
H896 H 0.10665 0.83889 0.42079 0.0
S897 S 0.21414 0.05551 0.35858 0.0
N898 N 0.20758 0.01503 0.32861 0.0
N899 N 0.18673 0.01807 0.39941 0.0
C900 C 0.17127 0.96989 0.3899 0.0
C901 C 0.18208 0.96826 0.35139 0.0
C902 C 0.23976 0.89951 0.64127 0.0
C903 C 0.28008 0.94972 0.63117 0.0
C904 C 0.19186 0.88361 0.61854 0.0
C905 C 0.18283 0.91751 0.58524 0.0
H906 H 0.24349 0.8738 0.66903 0.0
H907 H 0.16102 0.84711 0.62963 0.0
S908 S 0.27798 0.04653 0.53954 0.0
N909 N 0.30989 0.02773 0.58061 0.0
N910 N 0.21952 0.99918 0.53826 0.0
C911 C 0.22392 0.96494 0.57179 0.0
C912 C 0.27274 0.98071 0.59468 0.0
C913 C 0.22969 0.1969 0.61061 0.0
C914 C 0.22749 0.17066 0.65183 0.0
C915 C 0.19998 0.17066 0.57665 0.0
C916 C 0.16755 0.11673 0.5821 0.0
H917 H 0.25261 0.23874 0.60432 0.0
H918 H 0.20032 0.19334 0.54603 0.0
S919 S 0.15352 0.02755 0.68228 0.0
N920 N 0.19437 0.08592 0.69531 0.0
N921 N 0.13881 0.03657 0.6313 0.0
C922 C 0.16805 0.08899 0.62258 0.0
C923 C 0.19783 0.11592 0.65745 0.0
C924 C 0.89485 0.03313 0.66538 0.0
C925 C 0.90646 0.0838 0.67016 0.0
C926 C 0.90017 0.02292 0.62852 0.0
C927 C 0.9188 0.06338 0.59556 0.0
H928 H 0.88131 1.00097 0.6902 0.0
H929 H 0.89181 0.98347 0.62667 0.0
S930 S 0.96048 0.20409 0.59422 0.0
N931 N 0.9414 0.17566 0.64 0.0
N932 N 0.95115 0.15648 0.5707 0.0
C933 C 0.9316 0.11445 0.60023 0.0
C934 C 0.92584 0.12474 0.63759 0.0
C935 C 0.91393 0.80031 0.66458 0.0
C936 C 0.91555 0.83104 0.69166 0.0
C937 C 0.94271 0.8232 0.63182 0.0
C938 C 0.9742 0.87723 0.62574 0.0
H939 H 0.88717 0.75916 0.66652 0.0
H940 H 0.93561 0.79975 0.60839 0.0
S941 S 0.9954 0.97364 0.68956 0.0
N942 N 0.95447 0.91723 0.7118 0.0
N943 N 1.0098 0.9598 0.65117 0.0
C944 C 0.98116 0.90696 0.65565 0.0
C945 C 0.95109 0.88397 0.68837 0.0
C946 C 0.35275 0.08897 0.09919 0.0
C947 C 0.30118 0.06992 0.08361 0.0
C948 C 0.38628 0.0898 0.07699 0.0
C949 C 0.36924 0.06957 0.0392 0.0
H950 H 0.36744 0.10239 0.12924 0.0
H951 H 0.42541 0.10408 0.09058 0.0
S952 S 0.23853 0.01533 0.98465 0.0
N953 N 0.23559 0.03322 0.02655 0.0
N954 N 0.29799 0.03005 0.98698 0.0
C955 C 0.3181 0.0506 0.02313 0.0
C956 C 0.28418 0.05153 0.04495 0.0
C957 C 0.91661 0.37781 0.18751 0.0
C958 C 0.86337 0.35068 0.17914 0.0
C959 C 0.94721 0.40336 0.15485 0.0
C960 C 0.92566 0.40128 0.11265 0.0
H961 H 0.93457 0.38122 0.21937 0.0
H962 H 0.98741 0.42651 0.16264 0.0
S963 S 0.78913 0.33063 0.07437 0.0
N964 N 0.79169 0.32402 0.12509 0.0
N965 N 0.84797 0.36407 0.06543 0.0
C966 C 0.87284 0.37128 0.10462 0.0
C967 C 0.84209 0.34852 0.1372 0.0
C968 C 0.65476 0.79352 0.15437 0.0
C969 C 0.70018 0.81397 0.18152 0.0
C970 C 0.63182 0.82426 0.13134 0.0
C971 C 0.65271 0.87834 0.13322 0.0
H972 H 0.63615 0.7525 0.15085 0.0
H973 H 0.59723 0.8048 0.11105 0.0
S974 S 0.77189 0.95252 0.2 0.0
N975 N 0.76452 0.89216 0.21063 0.0
N976 N 0.72376 0.95118 0.16491 0.0
C977 C 0.69873 0.8999 0.16015 0.0
C978 C 0.72166 0.86768 0.18478 0.0
C979 C 0.2142 0.70344 0.1086 0.0
C980 C 0.21842 0.67436 0.1478 0.0
C981 C 0.19276 0.67963 0.07256 0.0
C982 C 0.17329 0.62525 0.07401 0.0
H983 H 0.22625 0.74489 0.10563 0.0
H984 H 0.18829 0.70375 0.04369 0.0
S985 S 0.18359 0.53305 0.16794 0.0
N986 N 0.20823 0.58958 0.1851 0.0
N987 N 0.16687 0.54454 0.11748 0.0
C988 C 0.18154 0.59656 0.11245 0.0
C989 C 0.20397 0.62106 0.14929 0.0
C990 C 0.41785 0.85926 0.85833 0.0
C991 C 0.37462 0.81205 0.86616 0.0
C992 C 0.4424 0.89346 0.8879 0.0
C993 C 0.42493 0.8807 0.92632 0.0
H994 H 0.43256 0.86991 0.82918 0.0
H995 H 0.47711 0.92854 0.88179 0.0
S996 S 0.31264 0.76235 0.96113 0.0
N997 N 0.31363 0.75534 0.9138 0.0
N998 N 0.36214 0.81856 0.9706 0.0
C999 C 0.38126 0.83421 0.93416 0.0
C1000 C 0.35543 0.80007 0.90365 0.0
C1001 C 0.09969 0.28565 0.92305 0.0
C1002 C 0.14898 0.29491 0.92419 0.0
C1003 C 0.08989 0.31715 0.94067 0.0
C1004 C 0.12885 0.35929 0.96054 0.0
H1005 H 0.06821 0.25299 0.90908 0.0
H1006 H 0.05096 0.30725 0.93962 0.0
S1007 S 0.26538 0.40261 0.9687 0.0
N1008 N 0.23796 0.35113 0.94395 0.0
N1009 N 0.21942 0.4107 0.97769 0.0
C1010 C 0.17877 0.37073 0.9601 0.0
C1011 C 0.18884 0.33844 0.94179 0.0
C1012 C 0.72048 0.17309 0.86552 0.0
C1013 C 0.69057 0.1659 0.82639 0.0
C1014 C 0.69942 0.14862 0.90289 0.0
C1015 C 0.64706 0.11637 0.90332 0.0
H1016 H 0.76054 0.19824 0.86753 0.0
H1017 H 0.72474 0.15532 0.93187 0.0
S1018 S 0.55188 0.08309 0.8092 0.0
N1019 N 0.60555 0.12251 0.79052 0.0
N1020 N 0.56612 0.07755 0.86031 0.0
C1021 C 0.61668 0.10871 0.86435 0.0
C1022 C 0.6383 0.13312 0.82623 0.0
C1023 C 0.83726 0.62384 0.8505 0.0
C1024 C 0.85581 0.67504 0.82851 0.0
C1025 C 0.86909 0.60288 0.87432 0.0
C1026 C 0.92216 0.63195 0.8787 0.0
H1027 H 0.79709 0.59921 0.84947 0.0
H1028 H 0.85134 0.56345 0.89056 0.0
S1029 S 0.99112 0.76852 0.82738 0.0
N1030 N 0.93155 0.75368 0.81101 0.0
N1031 N 0.99165 0.7165 0.85855 0.0
C1032 C 0.94161 0.68366 0.85702 0.0
C1033 C 0.90866 0.70446 0.83135 0.0
C1034 C 0.1648 0.29468 0.17942 0.0
C1035 C 0.21681 0.32783 0.19023 0.0
C1036 C 0.13182 0.31418 0.15342 0.0
C1037 C 0.14835 0.3683 0.13858 0.0
H1038 H 0.14951 0.2532 0.19021 0.0
H1039 H 0.09326 0.28635 0.14428 0.0
S1040 S 0.27793 0.47345 0.16506 0.0
N1041 N 0.28054 0.41906 0.18746 0.0
N1042 N 0.21966 0.45465 0.1421 0.0
C1043 C 0.19915 0.40181 0.15216 0.0
C1044 C 0.2327 0.38206 0.17709 0.0
C1045 C 0.1659 0.58592 0.83332 0.0
C1046 C 0.19392 0.64111 0.82797 0.0
C1047 C 0.13598 0.5576 0.86572 0.0
C1048 C 0.1308 0.58292 0.89366 0.0
H1049 H 0.16905 0.56388 0.81356 0.0
H1050 H 0.11854 0.5153 0.8701 0.0
S1051 S 0.19246 0.72536 0.89386 0.0
N1052 N 0.21227 0.71885 0.85479 0.0
N1053 N 0.15442 0.66568 0.91348 0.0
C1054 C 0.15609 0.63756 0.88775 0.0
C1055 C 0.18778 0.66654 0.85553 0.0
C1056 C 0.42133 0.22024 0.84322 0.0
C1057 C 0.37879 0.1992 0.81352 0.0
C1058 C 0.44277 0.18999 0.8699 0.0
C1059 C 0.42304 0.13581 0.86925 0.0
H1060 H 0.43886 0.26144 0.84561 0.0
H1061 H 0.47531 0.20997 0.89183 0.0
S1062 S 0.31098 0.06003 0.79684 0.0
N1063 N 0.31781 0.12019 0.7839 0.0
N1064 N 0.35621 0.06214 0.83556 0.0
C1065 C 0.3797 0.11355 0.83977 0.0
C1066 C 0.35819 0.14526 0.81167 0.0
C1067 C 0.85679 0.29932 0.89869 0.0
C1068 C 0.85214 0.3307 0.86083 0.0
C1069 C 0.87847 0.32027 0.93591 0.0
C1070 C 0.89774 0.37397 0.937 0.0
H1071 H 0.84514 0.25828 0.89969 0.0
H1072 H 0.88344 0.29458 0.96348 0.0
S1073 S 0.88542 0.47098 0.84792 0.0
N1074 N 0.861 0.41639 0.82779 0.0
N1075 N 0.90299 0.45639 0.89774 0.0
C1076 C 0.88879 0.40481 0.90011 0.0
C1077 C 0.86602 0.38313 0.86202 0.0
C1078 C 0.78354 0.96403 0.95986 0.0
C1079 C 0.76584 0.92406 0.9355 0.0
C1080 C 0.75066 0.97053 0.97765 0.0
C1081 C 0.69851 0.93881 0.97053 0.0
H1082 H 0.82324 0.99093 0.96525 0.0
H1083 H 0.76635 1.0012 0.99681 0.0
S1084 S 0.63208 0.8256 0.91169 0.0
N1085 N 0.69208 0.84918 0.90821 0.0
N1086 N 0.63028 0.86397 0.93895 0.0
C1087 C 0.67996 0.89833 0.94648 0.0
C1088 C 0.71355 0.89063 0.92939 0.0
C1089 C 0.98034 0.68393 0.11553 0.0
C1090 C 0.94635 0.70432 0.10025 0.0
C1091 C 0.97999 0.6473 0.09582 0.0
C1092 C 0.94512 0.62921 0.06047 0.0
H1093 H 1.00917 0.69866 0.14154 0.0
H1094 H 1.00941 0.63564 0.10666 0.0
S1095 S 0.84128 0.66193 0.01408 0.0
N1096 N 0.87244 0.69869 0.05151 0.0
N1097 N 0.8706 0.6277 0.01518 0.0
C1098 C 0.90732 0.64474 0.04773 0.0
C1099 C 0.90824 0.68297 0.06748 0.0
C1100 C 0.35476 0.83496 0.14211 0.0
C1101 C 0.38429 0.84122 0.18149 0.0
C1102 C 0.37569 0.86302 0.1051 0.0
C1103 C 0.42759 0.89811 0.10526 0.0
H1104 H 0.31508 0.80789 0.13959 0.0
H1105 H 0.35068 0.85684 0.07595 0.0
S1106 S 0.52159 0.92979 0.20024 0.0
N1107 N 0.46836 0.8863 0.21823 0.0
N1108 N 0.50768 0.93806 0.14912 0.0
C1109 C 0.45762 0.90458 0.14446 0.0
C1110 C 0.43609 0.87641 0.18224 0.0
C1111 C 0.72433 0.18637 0.12434 0.0
C1112 C 0.70534 0.20754 0.14561 0.0
C1113 C 0.69387 0.15463 0.09356 0.0
C1114 C 0.64333 0.14285 0.08302 0.0
H1115 H 0.76289 0.19325 0.13193 0.0
H1116 H 0.71002 0.13981 0.07773 0.0
S1117 S 0.57432 0.18719 0.12876 0.0
N1118 N 0.63253 0.21481 0.15251 0.0
N1119 N 0.57459 0.15312 0.09649 0.0
C1120 C 0.62368 0.1635 0.10391 0.0
C1121 C 0.65486 0.19654 0.13455 0.0
C1122 C 0.62923 0.63251 0.81854 0.0
C1123 C 0.67073 0.6809 0.82622 0.0
C1124 C 0.59818 0.60082 0.84907 0.0
C1125 C 0.60661 0.6178 0.88724 0.0
H1126 H 0.62291 0.61702 0.79048 0.0
H1127 H 0.57044 0.56118 0.84429 0.0
S1128 S 0.70075 0.74581 0.91852 0.0
N1129 N 0.71104 0.74803 0.8717 0.0
N1130 N 0.6525 0.68808 0.92869 0.0
C1131 C 0.64287 0.66851 0.89292 0.0
C1132 C 0.67501 0.70037 0.86234 0.0
C1133 C 0.43615 0.74213 0.95609 0.0
C1134 C 0.38677 0.70771 0.96509 0.0
C1135 C 0.47128 0.72353 0.95938 0.0
C1136 C 0.46082 0.67171 0.97667 0.0
H1137 H 0.4445 0.78088 0.93967 0.0
H1138 H 0.50473 0.74853 0.94448 0.0
S1139 S 0.30971 0.55166 0.02053 0.0
N1140 N 0.32367 0.63225 0.0129 0.0
N1141 N 0.38599 0.5771 0.00826 0.0
C1142 C 0.42082 0.64333 1.00023 0.0
C1143 C 0.38313 0.67659 1.00234 0.0
C1144 C 0.38448 0.3361 0.87925 0.0
C1145 C 0.37516 0.36203 0.84001 0.0
C1146 C 0.4007 0.35973 0.91496 0.0
C1147 C 0.4101 0.4116 0.9138 0.0
H1148 H 0.37804 0.29622 0.88287 0.0
H1149 H 0.40476 0.33581 0.94405 0.0
S1150 S 0.39581 0.49908 0.81782 0.0
N1151 N 0.379 0.44385 0.80111 0.0
N1152 N 0.41129 0.48944 0.86876 0.0
C1153 C 0.40342 0.43938 0.87434 0.0
C1154 C 0.38594 0.41456 0.83742 0.0
C1155 C 0.55792 0.34343 0.83017 0.0
C1156 C 0.59978 0.38285 0.81144 0.0
C1157 C 0.5468 0.35007 0.86609 0.0
C1158 C 0.57747 0.39603 0.88429 0.0
H1159 H 0.53451 0.30698 0.81755 0.0
H1160 H 0.51478 0.31876 0.88026 0.0
S1161 S 0.69189 0.51023 0.846 0.0
N1162 N 0.67219 0.46836 0.81304 0.0
N1163 N 0.65126 0.48206 0.87966 0.0
C1164 C 0.61931 0.43582 0.86515 0.0
C1165 C 0.63046 0.42887 0.82891 0.0
C1166 C 0.6295 0.41651 0.15281 0.0
C1167 C 0.67357 0.41562 0.14952 0.0
C1168 C 0.58468 0.38984 0.12739 0.0
C1169 C 0.58357 0.3635 0.09712 0.0
H1170 H 0.62982 0.43843 0.17467 0.0
H1171 H 0.5531 0.39637 0.12712 0.0
S1172 S 0.68451 0.33941 0.08258 0.0
N1173 N 0.71073 0.37876 0.11834 0.0
N1174 N 0.62534 0.32782 0.07151 0.0
C1175 C 0.62469 0.35553 0.09818 0.0
C1176 C 0.67068 0.38355 0.12298 0.0
C1177 C 0.65473 0.61902 0.1491 0.0
C1178 C 0.70678 0.63769 0.16231 0.0
C1179 C 0.63151 0.59582 0.1125 0.0
C1180 C 0.65929 0.5911 0.08725 0.0
H1181 H 0.63224 0.62522 0.16556 0.0
H1182 H 0.59197 0.58384 0.10266 0.0
S1183 S 0.7924 0.61881 0.11434 0.0
N1184 N 0.78252 0.63863 0.15193 0.0
N1185 N 0.73899 0.59709 0.08241 0.0
C1186 C 0.70985 0.60443 0.10229 0.0
C1187 C 0.73352 0.62734 0.13989 0.0
C1188 C 0.48705 0.64828 0.17813 0.0
C1189 C 0.45203 0.60118 0.19842 0.0
C1190 C 0.50282 0.64918 0.14179 0.0
C1191 C 0.48322 0.60307 0.12463 0.0
H1192 H 0.50082 0.68484 0.18962 0.0
H1193 H 0.52862 0.68618 0.12619 0.0
S1194 S 0.39385 0.46988 0.16696 0.0
N1195 N 0.40018 0.50752 0.19947 0.0
N1196 N 0.43097 0.50897 0.13196 0.0
C1197 C 0.45027 0.55563 0.14572 0.0
C1198 C 0.43433 0.55469 0.1825 0.0
C1199 C 0.36942 0.31705 0.13232 0.0
C1200 C 0.38939 0.32928 0.1732 0.0
C1201 C 0.39473 0.34803 0.09856 0.0
C1202 C 0.44146 0.39192 0.10423 0.0
H1203 H 0.33242 0.285 0.12551 0.0
H1204 H 0.37601 0.33966 0.06748 0.0
S1205 S 0.51486 0.43653 0.20407 0.0
N1206 N 0.46277 0.38452 0.21739 0.0
N1207 N 0.50964 0.444 0.15299 0.0
C1208 C 0.46413 0.40243 0.14473 0.0
C1209 C 0.43835 0.37066 0.17949 0.0
C1210 C 0.8599 0.59274 0.60055 0.0
C1211 C 0.80785 0.57312 0.58745 0.0
C1212 C 0.89085 0.59032 0.57752 0.0
C1213 C 0.8708 0.56672 0.5411 0.0
H1214 H 0.87684 0.60871 0.62953 0.0
H1215 H 0.93048 0.60501 0.58946 0.0
S1216 S 0.73777 0.51258 0.49184 0.0
N1217 N 0.73846 0.53353 0.5336 0.0
N1218 N 0.79627 0.52526 0.49212 0.0
C1219 C 0.81917 0.54792 0.52716 0.0
C1220 C 0.78777 0.55178 0.54997 0.0
C1221 C 0.41945 0.8721 0.68271 0.0
C1222 C 0.37104 0.8299 0.67419 0.0
C1223 C 0.45071 0.90278 0.65106 0.0
C1224 C 0.43431 0.89313 0.60937 0.0
H1225 H 0.43203 0.88361 0.71345 0.0
H1226 H 0.48612 0.93646 0.65872 0.0
S1227 S 0.30902 0.79264 0.5693 0.0
N1228 N 0.30763 0.78498 0.61956 0.0
N1229 N 0.36588 0.83944 0.56158 0.0
C1230 C 0.38645 0.85095 0.60084 0.0
C1231 C 0.35489 0.82063 0.6326 0.0
C1232 C 0.17484 0.30279 0.65047 0.0
C1233 C 0.21955 0.32594 0.67785 0.0
C1234 C 0.14891 0.33048 0.62716 0.0
C1235 C 0.16604 0.38389 0.62895 0.0
H1236 H 0.15861 0.26176 0.64773 0.0
H1237 H 0.11479 0.30911 0.60713 0.0
S1238 S 0.28277 0.46359 0.69562 0.0
N1239 N 0.27959 0.40512 0.70653 0.0
N1240 N 0.23397 0.45919 0.66006 0.0
C1241 C 0.21195 0.40814 0.65552 0.0
C1242 C 0.23772 0.37891 0.68048 0.0
C1243 C 0.71446 0.20803 0.61156 0.0
C1244 C 0.71753 0.17856 0.65081 0.0
C1245 C 0.69317 0.1844 0.57556 0.0
C1246 C 0.67305 0.13003 0.57732 0.0
H1247 H 0.72683 0.24954 0.60855 0.0
H1248 H 0.68888 0.20847 0.54659 0.0
S1249 S 0.68036 0.03692 0.67154 0.0
N1250 N 0.70561 0.09356 0.68861 0.0
N1251 N 0.66502 0.04874 0.62091 0.0
C1252 C 0.68073 0.10099 0.61576 0.0
C1253 C 0.70272 0.12527 0.65257 0.0
C1254 C 0.88717 0.28983 0.39686 0.0
C1255 C 0.89176 0.31532 0.3559 0.0
C1256 C 0.90541 0.31831 0.43011 0.0
C1257 C 0.92824 0.37332 0.42349 0.0
H1258 H 0.86822 0.2475 0.4031 0.0
H1259 H 0.90327 0.29723 0.46143 0.0
S1260 S 0.9439 0.45767 0.32114 0.0
N1261 N 0.91666 0.39764 0.30978 0.0
N1262 N 0.95175 0.4519 0.37237 0.0
C1263 C 0.9312 0.3991 0.38238 0.0
C1264 C 0.91307 0.36992 0.34858 0.0
C1265 C 0.7209 0.85865 0.46192 0.0
C1266 C 0.69166 0.83268 0.42729 0.0
C1267 C 0.70717 0.88875 0.47785 0.0
C1268 C 0.66396 0.89414 0.45948 0.0
H1269 H 0.7532 0.8535 0.47819 0.0
H1270 H 0.72835 0.90462 0.50633 0.0
S1271 S 0.58085 0.84452 0.3633 0.0
N1272 N 0.62119 0.82101 0.372 0.0
N1273 N 0.59707 0.87926 0.40107 0.0
C1274 C 0.63756 0.87323 0.42246 0.0
C1275 C 0.65104 0.84217 0.40648 0.0
C1276 C 0.21969 0.67256 0.36263 0.0
C1277 C 0.19052 0.66555 0.32322 0.0
C1278 C 0.19805 0.64683 0.39962 0.0
C1279 C 0.14571 0.61356 0.39941 0.0
H1280 H 0.25967 0.69836 0.36519 0.0
H1281 H 0.22295 0.65324 0.42882 0.0
S1282 S 0.05209 0.58313 0.30427 0.0
N1283 N 0.10609 0.62316 0.28634 0.0
N1284 N 0.06541 0.57583 0.35546 0.0
C1285 C 0.11595 0.60693 0.36017 0.0
C1286 C 0.13823 0.63266 0.32241 0.0
C1287 C 0.40339 0.2021 0.33778 0.0
C1288 C 0.35483 0.16808 0.31952 0.0
C1289 C 0.43623 0.18327 0.36488 0.0
C1290 C 0.42385 0.12943 0.37322 0.0
H1291 H 0.41619 0.24357 0.33173 0.0
H1292 H 0.47117 0.21123 0.38014 0.0
S1293 S 0.3123 0.02685 0.31876 0.0
N1294 N 0.30436 0.0795 0.30256 0.0
N1295 N 0.36462 0.04498 0.35188 0.0
C1296 C 0.37863 0.09631 0.35064 0.0
C1297 C 0.34507 0.11527 0.324 0.0
C1298 C 0.67795 0.80255 0.6755 0.0
C1299 C 0.72756 0.83736 0.69139 0.0
C1300 C 0.64438 0.82064 0.64874 0.0
C1301 C 0.65717 0.87454 0.63866 0.0
H1302 H 0.66494 0.76098 0.68309 0.0
H1303 H 0.60838 0.79201 0.63538 0.0
S1304 S 0.77546 0.9812 0.68295 0.0
N1305 N 0.78285 0.92848 0.70067 0.0
N1306 N 0.72004 0.96105 0.65416 0.0
C1307 C 0.70437 0.90892 0.65825 0.0
C1308 C 0.73901 0.89087 0.68373 0.0
C1309 C 0.73406 0.16875 0.37875 0.0
C1310 C 0.72156 0.14783 0.3417 0.0
C1311 C 0.70104 0.14611 0.4089 0.0
C1312 C 0.65402 0.1012 0.4037 0.0
H1313 H 0.77015 0.2022 0.38508 0.0
H1314 H 0.71353 0.16257 0.43764 0.0
S1315 S 0.60736 0.02589 0.31544 0.0
N1316 N 0.6614 0.07601 0.30364 0.0
N1317 N 0.59945 0.03379 0.36006 0.0
C1318 C 0.64162 0.07919 0.36715 0.0
C1319 C 0.6755 0.10209 0.33651 0.0
C1320 C 0.84792 0.63624 0.31519 0.0
C1321 C 0.86443 0.68937 0.31773 0.0
C1322 C 0.87258 0.60754 0.34169 0.0
C1323 C 0.91588 0.63102 0.37104 0.0
H1324 H 0.81623 0.61686 0.2924 0.0
H1325 H 0.85756 0.56671 0.33906 0.0
S1326 S 0.97269 0.76916 0.39044 0.0
N1327 N 0.92531 0.76285 0.35328 0.0
N1328 N 0.97205 0.71193 0.40049 0.0
C1329 C 0.93207 0.68427 0.37331 0.0
C1330 C 0.90653 0.71244 0.34739 0.0
C1331 C 0.36267 0.79979 0.3963 0.0
C1332 C 0.36058 0.82989 0.35711 0.0
C1333 C 0.38707 0.82314 0.43236 0.0
C1334 C 0.41087 0.87778 0.43094 0.0
H1335 H 0.34687 0.75774 0.39919 0.0
H1336 H 0.39007 0.79827 0.46119 0.0
S1337 S 0.41095 0.9739 0.33688 0.0
N1338 N 0.37977 0.91685 0.31973 0.0
N1339 N 0.42613 0.96104 0.38743 0.0
C1340 C 0.40545 0.90809 0.39253 0.0
C1341 C 0.38039 0.88411 0.35563 0.0
C1342 C 0.28066 0.44694 0.46189 0.0
C1343 C 0.26536 0.43178 0.422 0.0
C1344 C 0.24843 0.45222 0.48153 0.0
C1345 C 0.19946 0.44144 0.46236 0.0
H1346 H 0.31779 0.45465 0.47824 0.0
H1347 H 0.26184 0.46461 0.51199 0.0
S1348 S 0.14116 0.40253 0.35757 0.0
N1349 N 0.19848 0.4093 0.36304 0.0
N1350 N 0.13663 0.4148 0.40162 0.0
C1351 C 0.183 0.42486 0.42305 0.0
C1352 C 0.21637 0.42145 0.40234 0.0
C1353 C 0.4254 0.18494 0.57938 0.0
C1354 C 0.43731 0.17077 0.62227 0.0
C1355 C 0.42305 0.15681 0.54986 0.0
C1356 C 0.43133 0.11283 0.56215 0.0
H1357 H 0.42153 0.22022 0.56823 0.0
H1358 H 0.41821 0.17168 0.51715 0.0
S1359 S 0.46046 0.05692 0.67 0.0
N1360 N 0.4542 0.10721 0.67522 0.0
N1361 N 0.44965 0.05488 0.61955 0.0
C1362 C 0.43999 0.09618 0.60475 0.0
C1363 C 0.44299 0.12499 0.63484 0.0
C1364 C 0.85145 0.33989 0.64131 0.0
C1365 C 0.88047 0.34851 0.68069 0.0
C1366 C 0.87321 0.36476 0.60418 0.0
C1367 C 0.92548 0.39876 0.60424 0.0
H1368 H 0.81167 0.31315 0.63899 0.0
H1369 H 0.84855 0.35688 0.57497 0.0
S1370 S 1.01818 0.43595 0.69919 0.0
N1371 N 0.96441 0.39497 0.71726 0.0
N1372 N 1.00507 0.44057 0.64804 0.0
C1373 C 0.95485 0.40777 0.64346 0.0
C1374 C 0.93252 0.38299 0.68129 0.0
C1375 C 0.16354 0.68651 0.63523 0.0
C1376 C 0.21115 0.68906 0.64784 0.0
C1377 C 0.13185 0.66116 0.60174 0.0
C1378 C 0.14691 0.63832 0.57889 0.0
H1379 H 0.14976 0.70283 0.65188 0.0
H1380 H 0.0946 0.65839 0.59435 0.0
S1381 S 0.2725 0.648 0.59025 0.0
N1382 N 0.27517 0.67494 0.62933 0.0
N1383 N 0.21472 0.62801 0.56558 0.0
C1384 C 0.19537 0.64372 0.58882 0.0
C1385 C 0.22779 0.66906 0.62342 0.0
loop_
_geom_bond_atom_site_label_1
_geom_bond_atom_site_label_2
_geom_bond_distance
_geom_bond_site_symmetry_2
_ccdc_geom_bond_type
Eu0 N31 2.657 . S
Eu0 N38 2.609 . S
Eu0 O44 2.558 . S
Eu0 O45 2.612 . S
Eu0 O47 2.339 . S
Eu0 O48 2.563 . S
Eu0 O49 2.419 . S
Eu0 O51 2.380 . S
Eu0 O52 2.432 . S
Eu0 C64 2.848 . S
C1 C4 1.429 . S
C1 C5 1.411 . S
C1 N8 1.377 . S
C2 C4 1.420 . S
C2 C6 1.423 . S
C2 C14 1.392 . S
C3 C5 1.420 . S
C3 C6 1.351 . S
C3 H26 0.931 . S
C4 C1 1.429 . S
C4 C2 1.420 . S
C4 N12 1.362 . S
C5 C1 1.411 . S
C5 C3 1.420 . S
C5 C10 1.395 . S
C6 C2 1.423 . S
C6 C3 1.351 . S
C6 H18 0.930 . S
C7 C9 1.400 . S
C7 C10 1.386 . S
C7 H19 0.930 . S
N8 C1 1.377 . S
N8 C9 1.321 . S
N8 Eu11 2.609 . S
C9 C7 1.400 . S
C9 N8 1.321 . S
C9 H16 0.930 . S
C10 C5 1.395 . S
C10 C7 1.386 . S
C10 H29 0.930 . S
Eu11 N8 2.609 . S
Eu11 N12 2.657 . S
Eu11 O45 2.380 . S
Eu11 O46 2.432 . S
Eu11 O50 2.558 . S
Eu11 O51 2.612 . S
Eu11 O53 2.339 . S
Eu11 O54 2.563 . S
Eu11 O55 2.419 . S
Eu11 C75 2.848 . S
N12 C4 1.362 . S
N12 Eu11 2.657 . S
N12 C13 1.334 . S
C13 N12 1.334 . S
C13 C15 1.413 . S
C13 H20 0.929 . S
C14 C2 1.392 . S
C14 C15 1.367 . S
C14 H22 0.930 . S
C15 C13 1.413 . S
C15 C14 1.367 . S
C15 H17 0.930 . S
H16 C9 0.930 . S
H17 C15 0.930 . S
H18 C6 0.930 . S
H19 C7 0.930 . S
H20 C13 0.929 . S
H21 C35 0.930 . S
H22 C14 0.930 . S
H23 C41 0.930 . S
H24 C32 0.929 . S
H25 C39 0.930 . S
H26 C3 0.931 . S
H27 C33 0.930 . S
H28 C66 0.930 . S
H29 C10 0.930 . S
H30 C65 0.931 . S
N31 Eu0 2.657 . S
N31 C32 1.334 . S
N31 C36 1.362 . S
C32 H24 0.929 . S
C32 N31 1.334 . S
C32 C35 1.413 . S
C33 H27 0.930 . S
C33 C34 1.392 . S
C33 C35 1.367 . S
C34 C33 1.392 . S
C34 C36 1.420 . S
C34 C66 1.423 . S
C35 H21 0.930 . S
C35 C32 1.413 . S
C35 C33 1.367 . S
C36 N31 1.362 . S
C36 C34 1.420 . S
C36 C40 1.429 . S
H37 C42 0.930 . S
N38 Eu0 2.609 . S
N38 C40 1.377 . S
N38 C41 1.321 . S
C39 H25 0.930 . S
C39 C41 1.400 . S
C39 C42 1.386 . S
C40 C36 1.429 . S
C40 N38 1.377 . S
C40 C43 1.411 . S
C41 H23 0.930 . S
C41 N38 1.321 . S
C41 C39 1.400 . S
C42 H37 0.930 . S
C42 C39 1.386 . S
C42 C43 1.395 . S
C43 C40 1.411 . S
C43 C42 1.395 . S
C43 C65 1.420 . S
O44 Eu0 2.558 . S
O44 C64 1.257 . S
O45 Eu0 2.612 . S
O45 Eu11 2.380 . S
O45 C56 1.276 . S
O46 Eu11 2.432 . S
O46 C63 1.264 . S
O47 Eu0 2.339 . S
O47 C63 1.254 . S
O48 Eu0 2.563 . S
O48 C56 1.235 . S
O49 Eu0 2.419 . S
O49 C64 1.249 . S
O50 Eu11 2.558 . S
O50 C75 1.257 . S
O51 Eu0 2.380 . S
O51 Eu11 2.612 . S
O51 C67 1.276 . S
O52 Eu0 2.432 . S
O52 C74 1.264 . S
O53 Eu11 2.339 . S
O53 C74 1.254 . S
O54 Eu11 2.563 . S
O54 C67 1.235 . S
O55 Eu11 2.419 . S
O55 C75 1.249 . S
C56 O45 1.276 . S
C56 O48 1.235 . S
C57 C59 1.393 . S
C57 C61 1.395 . S
C57 C64 1.492 . S
C58 C59 1.392 . S
C58 C60 1.386 . S
C59 C57 1.393 . S
C59 C58 1.392 . S
C59 H76 0.930 . S
C60 C58 1.386 . S
C60 C62 1.395 . S
C60 H77 0.930 . S
C61 C57 1.395 . S
C61 C62 1.379 . S
C61 H78 0.930 . S
C62 C60 1.395 . S
C62 C61 1.379 . S
C62 H79 0.930 1_545 S
C63 O46 1.264 . S
C63 O47 1.254 . S
C64 Eu0 2.848 . S
C64 O44 1.257 . S
C64 O49 1.249 . S
C64 C57 1.492 . S
C65 H30 0.931 . S
C65 C43 1.420 . S
C65 C66 1.351 . S
C66 H28 0.930 . S
C66 C34 1.423 . S
C66 C65 1.351 . S
C67 O51 1.276 . S
C67 O54 1.235 . S
C68 C69 1.393 . S
C68 C72 1.395 . S
C68 C75 1.492 . S
C69 C68 1.393 . S
C69 C70 1.392 . S
C69 H80 0.930 . S
C70 C69 1.392 . S
C70 C71 1.386 . S
C71 C70 1.386 . S
C71 C73 1.395 . S
C71 H81 0.930 . S
C72 C68 1.395 . S
C72 C73 1.379 . S
C72 H82 0.930 . S
C73 C71 1.395 . S
C73 C72 1.379 . S
C73 H83 0.930 . S
C74 O52 1.264 . S
C74 O53 1.254 . S
C75 Eu11 2.848 . S
C75 O50 1.257 . S
C75 O55 1.249 . S
C75 C68 1.492 . S
H76 C59 0.930 . S
H77 C60 0.930 . S
H78 C61 0.930 . S
H79 C62 0.930 1_565 S
H80 C69 0.930 . S
H81 C71 0.930 . S
H82 C72 0.930 . S
H83 C73 0.930 . S
Eu84 N115 2.657 . S
Eu84 N122 2.609 . S
Eu84 O128 2.558 . S
Eu84 O129 2.612 . S
Eu84 O131 2.339 . S
Eu84 O132 2.563 . S
Eu84 O133 2.419 . S
Eu84 O135 2.380 . S
Eu84 O136 2.432 . S
Eu84 C148 2.848 . S
C85 C88 1.429 . S
C85 C89 1.411 . S
C85 N92 1.377 . S
C86 C88 1.420 . S
C86 C90 1.423 . S
C86 C98 1.392 . S
C87 C89 1.420 . S
C87 C90 1.351 . S
C87 H110 0.931 . S
C88 C85 1.429 . S
C88 C86 1.420 . S
C88 N96 1.362 . S
C89 C85 1.411 . S
C89 C87 1.420 . S
C89 C94 1.395 . S
C90 C86 1.423 . S
C90 C87 1.351 . S
C90 H102 0.930 . S
C91 C93 1.400 . S
C91 C94 1.386 . S
C91 H103 0.930 . S
N92 C85 1.377 . S
N92 C93 1.321 . S
N92 Eu95 2.609 . S
C93 C91 1.400 . S
C93 N92 1.321 . S
C93 H100 0.930 . S
C94 C89 1.395 . S
C94 C91 1.386 . S
C94 H113 0.930 . S
Eu95 N92 2.609 . S
Eu95 N96 2.657 . S
Eu95 O129 2.380 . S
Eu95 O130 2.432 . S
Eu95 O134 2.558 . S
Eu95 O135 2.612 . S
Eu95 O137 2.339 . S
Eu95 O138 2.563 . S
Eu95 O139 2.419 . S
Eu95 C159 2.848 . S
N96 C88 1.362 . S
N96 Eu95 2.657 . S
N96 C97 1.334 . S
C97 N96 1.334 . S
C97 C99 1.413 . S
C97 H104 0.929 . S
C98 C86 1.392 . S
C98 C99 1.367 . S
C98 H106 0.930 . S
C99 C97 1.413 . S
C99 C98 1.367 . S
C99 H101 0.930 . S
H100 C93 0.930 . S
H101 C99 0.930 . S
H102 C90 0.930 . S
H103 C91 0.930 . S
H104 C97 0.929 . S
H105 C119 0.930 . S
H106 C98 0.930 . S
H107 C125 0.930 . S
H108 C116 0.929 . S
H109 C123 0.930 . S
H110 C87 0.931 . S
H111 C117 0.930 . S
H112 C150 0.930 . S
H113 C94 0.930 . S
H114 C149 0.931 . S
N115 Eu84 2.657 . S
N115 C116 1.334 . S
N115 C120 1.362 . S
C116 H108 0.929 . S
C116 N115 1.334 . S
C116 C119 1.413 . S
C117 H111 0.930 . S
C117 C118 1.392 . S
C117 C119 1.367 . S
C118 C117 1.392 . S
C118 C120 1.420 . S
C118 C150 1.423 . S
C119 H105 0.930 . S
C119 C116 1.413 . S
C119 C117 1.367 . S
C120 N115 1.362 . S
C120 C118 1.420 . S
C120 C124 1.429 . S
H121 C126 0.930 . S
N122 Eu84 2.609 . S
N122 C124 1.377 . S
N122 C125 1.321 . S
C123 H109 0.930 . S
C123 C125 1.400 . S
C123 C126 1.386 . S
C124 C120 1.429 . S
C124 N122 1.377 . S
C124 C127 1.411 . S
C125 H107 0.930 . S
C125 N122 1.321 . S
C125 C123 1.400 . S
C126 H121 0.930 . S
C126 C123 1.386 . S
C126 C127 1.395 . S
C127 C124 1.411 . S
C127 C126 1.395 . S
C127 C149 1.420 . S
O128 Eu84 2.558 . S
O128 C148 1.257 . S
O129 Eu84 2.612 . S
O129 Eu95 2.380 . S
O129 C140 1.276 . S
O130 Eu95 2.432 . S
O130 C147 1.264 . S
O131 Eu84 2.339 . S
O131 C147 1.254 . S
O132 Eu84 2.563 . S
O132 C140 1.235 . S
O133 Eu84 2.419 . S
O133 C148 1.249 . S
O134 Eu95 2.558 . S
O134 C159 1.257 . S
O135 Eu84 2.380 . S
O135 Eu95 2.612 . S
O135 C151 1.276 . S
O136 Eu84 2.432 . S
O136 C158 1.264 . S
O137 Eu95 2.339 . S
O137 C158 1.254 . S
O138 Eu95 2.563 . S
O138 C151 1.235 . S
O139 Eu95 2.419 . S
O139 C159 1.249 . S
C140 O129 1.276 . S
C140 O132 1.235 . S
C141 C143 1.393 . S
C141 C145 1.395 . S
C141 C148 1.492 . S
C142 C143 1.392 . S
C142 C144 1.386 . S
C143 C141 1.393 . S
C143 C142 1.392 . S
C143 H160 0.930 . S
C144 C142 1.386 . S
C144 C146 1.395 . S
C144 H161 0.930 . S
C145 C141 1.395 . S
C145 C146 1.379 . S
C145 H162 0.930 . S
C146 C144 1.395 . S
C146 C145 1.379 . S
C146 H163 0.930 . S
C147 O130 1.264 . S
C147 O131 1.254 . S
C148 Eu84 2.848 . S
C148 O128 1.257 . S
C148 O133 1.249 . S
C148 C141 1.492 . S
C149 H114 0.931 . S
C149 C127 1.420 . S
C149 C150 1.351 . S
C150 H112 0.930 . S
C150 C118 1.423 . S
C150 C149 1.351 . S
C151 O135 1.276 . S
C151 O138 1.235 . S
C152 C153 1.393 . S
C152 C156 1.395 . S
C152 C159 1.492 . S
C153 C152 1.393 . S
C153 C154 1.392 . S
C153 H164 0.930 . S
C154 C153 1.392 . S
C154 C155 1.386 . S
C155 C154 1.386 . S
C155 C157 1.395 . S
C155 H165 0.930 . S
C156 C152 1.395 . S
C156 C157 1.379 . S
C156 H166 0.930 . S
C157 C155 1.395 . S
C157 C156 1.379 . S
C157 H167 0.930 . S
C158 O136 1.264 . S
C158 O137 1.254 . S
C159 Eu95 2.848 . S
C159 O134 1.257 . S
C159 O139 1.249 . S
C159 C152 1.492 . S
H160 C143 0.930 . S
H161 C144 0.930 . S
H162 C145 0.930 . S
H163 C146 0.930 . S
H164 C153 0.930 . S
H165 C155 0.930 . S
H166 C156 0.930 . S
H167 C157 0.930 . S
Eu168 N199 2.657 . S
Eu168 N206 2.609 . S
Eu168 O212 2.558 . S
Eu168 O213 2.612 . S
Eu168 O215 2.339 . S
Eu168 O216 2.563 . S
Eu168 O217 2.419 . S
Eu168 O219 2.380 . S
Eu168 O220 2.432 . S
Eu168 C232 2.848 . S
C169 C172 1.429 . S
C169 C173 1.411 . S
C169 N176 1.377 . S
C170 C172 1.420 . S
C170 C174 1.423 . S
C170 C182 1.392 . S
C171 C173 1.420 . S
C171 C174 1.351 . S
C171 H194 0.931 . S
C172 C169 1.429 . S
C172 C170 1.420 . S
C172 N180 1.362 . S
C173 C169 1.411 . S
C173 C171 1.420 . S
C173 C178 1.395 . S
C174 C170 1.423 . S
C174 C171 1.351 . S
C174 H186 0.930 . S
C175 C177 1.400 . S
C175 C178 1.386 . S
C175 H187 0.930 . S
N176 C169 1.377 . S
N176 C177 1.321 . S
N176 Eu179 2.609 . S
C177 C175 1.400 . S
C177 N176 1.321 . S
C177 H184 0.930 . S
C178 C173 1.395 . S
C178 C175 1.386 . S
C178 H197 0.930 1_565 S
Eu179 N176 2.609 . S
Eu179 N180 2.657 . S
Eu179 O213 2.380 . S
Eu179 O214 2.432 . S
Eu179 O218 2.558 . S
Eu179 O219 2.612 . S
Eu179 O221 2.339 . S
Eu179 O222 2.563 . S
Eu179 O223 2.419 . S
Eu179 C243 2.848 . S
N180 C172 1.362 . S
N180 Eu179 2.657 . S
N180 C181 1.334 . S
C181 N180 1.334 . S
C181 C183 1.413 . S
C181 H188 0.929 . S
C182 C170 1.392 . S
C182 C183 1.367 . S
C182 H190 0.930 . S
C183 C181 1.413 . S
C183 C182 1.367 . S
C183 H185 0.930 . S
H184 C177 0.930 . S
H185 C183 0.930 . S
H186 C174 0.930 . S
H187 C175 0.930 . S
H188 C181 0.929 . S
H189 C203 0.930 . S
H190 C182 0.930 . S
H191 C209 0.930 . S
H192 C200 0.929 . S
H193 C207 0.930 . S
H194 C171 0.931 . S
H195 C201 0.930 . S
H196 C234 0.930 . S
H197 C178 0.930 1_545 S
H198 C233 0.931 . S
N199 Eu168 2.657 . S
N199 C200 1.334 . S
N199 C204 1.362 . S
C200 H192 0.929 . S
C200 N199 1.334 . S
C200 C203 1.413 . S
C201 H195 0.930 . S
C201 C202 1.392 . S
C201 C203 1.367 . S
C202 C201 1.392 . S
C202 C204 1.420 . S
C202 C234 1.423 . S
C203 H189 0.930 . S
C203 C200 1.413 . S
C203 C201 1.367 . S
C204 N199 1.362 . S
C204 C202 1.420 . S
C204 C208 1.429 . S
H205 C210 0.930 . S
N206 Eu168 2.609 . S
N206 C208 1.377 . S
N206 C209 1.321 . S
C207 H193 0.930 . S
C207 C209 1.400 . S
C207 C210 1.386 . S
C208 C204 1.429 . S
C208 N206 1.377 . S
C208 C211 1.411 . S
C209 H191 0.930 . S
C209 N206 1.321 . S
C209 C207 1.400 . S
C210 H205 0.930 . S
C210 C207 1.386 . S
C210 C211 1.395 . S
C211 C208 1.411 . S
C211 C210 1.395 . S
C211 C233 1.420 . S
O212 Eu168 2.558 . S
O212 C232 1.257 . S
O213 Eu168 2.612 . S
O213 Eu179 2.380 . S
O213 C224 1.276 . S
O214 Eu179 2.432 . S
O214 C231 1.264 . S
O215 Eu168 2.339 . S
O215 C231 1.254 . S
O216 Eu168 2.563 . S
O216 C224 1.235 . S
O217 Eu168 2.419 . S
O217 C232 1.249 . S
O218 Eu179 2.558 . S
O218 C243 1.257 . S
O219 Eu168 2.380 . S
O219 Eu179 2.612 . S
O219 C235 1.276 . S
O220 Eu168 2.432 . S
O220 C242 1.264 . S
O221 Eu179 2.339 . S
O221 C242 1.254 . S
O222 Eu179 2.563 . S
O222 C235 1.235 . S
O223 Eu179 2.419 . S
O223 C243 1.249 . S
C224 O213 1.276 . S
C224 O216 1.235 . S
C225 C227 1.393 . S
C225 C229 1.395 . S
C225 C232 1.492 . S
C226 C227 1.392 . S
C226 C228 1.386 . S
C227 C225 1.393 . S
C227 C226 1.392 . S
C227 H244 0.930 . S
C228 C226 1.386 . S
C228 C230 1.395 . S
C228 H245 0.930 . S
C229 C225 1.395 . S
C229 C230 1.379 . S
C229 H246 0.930 . S
C230 C228 1.395 . S
C230 C229 1.379 . S
C230 H247 0.930 . S
C231 O214 1.264 . S
C231 O215 1.254 . S
C232 Eu168 2.848 . S
C232 O212 1.257 . S
C232 O217 1.249 . S
C232 C225 1.492 . S
C233 H198 0.931 . S
C233 C211 1.420 . S
C233 C234 1.351 . S
C234 H196 0.930 . S
C234 C202 1.423 . S
C234 C233 1.351 . S
C235 O219 1.276 . S
C235 O222 1.235 . S
C236 C237 1.393 . S
C236 C240 1.395 . S
C236 C243 1.492 . S
C237 C236 1.393 . S
C237 C238 1.392 . S
C237 H248 0.930 . S
C238 C237 1.392 . S
C238 C239 1.386 . S
C239 C238 1.386 . S
C239 C241 1.395 . S
C239 H249 0.930 . S
C240 C236 1.395 . S
C240 C241 1.379 . S
C240 H250 0.930 . S
C241 C239 1.395 . S
C241 C240 1.379 . S
C241 H251 0.930 1_655 S
C242 O220 1.264 . S
C242 O221 1.254 . S
C243 Eu179 2.848 . S
C243 O218 1.257 . S
C243 O223 1.249 . S
C243 C236 1.492 . S
H244 C227 0.930 . S
H245 C228 0.930 . S
H246 C229 0.930 . S
H247 C230 0.930 . S
H248 C237 0.930 . S
H249 C239 0.930 . S
H250 C240 0.930 . S
H251 C241 0.930 1_455 S
Eu252 N283 2.657 . S
Eu252 N290 2.609 . S
Eu252 O296 2.558 . S
Eu252 O297 2.612 . S
Eu252 O299 2.339 . S
Eu252 O300 2.563 . S
Eu252 O301 2.419 . S
Eu252 O303 2.380 . S
Eu252 O304 2.432 . S
Eu252 C316 2.848 . S
C253 C256 1.429 . S
C253 C257 1.411 . S
C253 N260 1.377 . S
C254 C256 1.420 . S
C254 C258 1.423 . S
C254 C266 1.392 . S
C255 C257 1.420 . S
C255 C258 1.351 . S
C255 H278 0.931 . S
C256 C253 1.429 . S
C256 C254 1.420 . S
C256 N264 1.362 . S
C257 C253 1.411 . S
C257 C255 1.420 . S
C257 C262 1.395 . S
C258 C254 1.423 . S
C258 C255 1.351 . S
C258 H270 0.930 1_565 S
C259 C261 1.400 . S
C259 C262 1.386 . S
C259 H271 0.930 . S
N260 C253 1.377 . S
N260 C261 1.321 . S
N260 Eu263 2.609 . S
C261 C259 1.400 . S
C261 N260 1.321 . S
C261 H268 0.930 . S
C262 C257 1.395 . S
C262 C259 1.386 . S
C262 H281 0.930 . S
Eu263 N260 2.609 . S
Eu263 N264 2.657 . S
Eu263 O297 2.380 . S
Eu263 O298 2.432 . S
Eu263 O302 2.558 . S
Eu263 O303 2.612 . S
Eu263 O305 2.339 . S
Eu263 O306 2.563 . S
Eu263 O307 2.419 . S
Eu263 C327 2.848 . S
N264 C256 1.362 . S
N264 Eu263 2.657 . S
N264 C265 1.334 . S
C265 N264 1.334 . S
C265 C267 1.413 . S
C265 H272 0.929 . S
C266 C254 1.392 . S
C266 C267 1.367 . S
C266 H274 0.930 1_565 S
C267 C265 1.413 . S
C267 C266 1.367 . S
C267 H269 0.930 . S
H268 C261 0.930 . S
H269 C267 0.930 . S
H270 C258 0.930 1_545 S
H271 C259 0.930 . S
H272 C265 0.929 . S
H273 C287 0.930 . S
H274 C266 0.930 1_545 S
H275 C293 0.930 . S
H276 C284 0.929 . S
H277 C291 0.930 . S
H278 C255 0.931 . S
H279 C285 0.930 . S
H280 C318 0.930 . S
H281 C262 0.930 . S
H282 C317 0.931 . S
N283 Eu252 2.657 . S
N283 C284 1.334 . S
N283 C288 1.362 . S
C284 H276 0.929 . S
C284 N283 1.334 . S
C284 C287 1.413 . S
C285 H279 0.930 . S
C285 C286 1.392 . S
C285 C287 1.367 . S
C286 C285 1.392 . S
C286 C288 1.420 . S
C286 C318 1.423 . S
C287 H273 0.930 . S
C287 C284 1.413 . S
C287 C285 1.367 . S
C288 N283 1.362 . S
C288 C286 1.420 . S
C288 C292 1.429 . S
H289 C294 0.930 . S
N290 Eu252 2.609 . S
N290 C292 1.377 . S
N290 C293 1.321 . S
C291 H277 0.930 . S
C291 C293 1.400 . S
C291 C294 1.386 . S
C292 C288 1.429 . S
C292 N290 1.377 . S
C292 C295 1.411 . S
C293 H275 0.930 . S
C293 N290 1.321 . S
C293 C291 1.400 . S
C294 H289 0.930 . S
C294 C291 1.386 . S
C294 C295 1.395 . S
C295 C292 1.411 . S
C295 C294 1.395 . S
C295 C317 1.420 . S
O296 Eu252 2.558 . S
O296 C316 1.257 . S
O297 Eu252 2.612 . S
O297 Eu263 2.380 . S
O297 C308 1.276 . S
O298 Eu263 2.432 . S
O298 C315 1.264 . S
O299 Eu252 2.339 . S
O299 C315 1.254 . S
O300 Eu252 2.563 . S
O300 C308 1.235 . S
O301 Eu252 2.419 . S
O301 C316 1.249 . S
O302 Eu263 2.558 . S
O302 C327 1.257 . S
O303 Eu252 2.380 . S
O303 Eu263 2.612 . S
O303 C319 1.276 . S
O304 Eu252 2.432 . S
O304 C326 1.264 . S
O305 Eu263 2.339 . S
O305 C326 1.254 . S
O306 Eu263 2.563 . S
O306 C319 1.235 . S
O307 Eu263 2.419 . S
O307 C327 1.249 . S
C308 O297 1.276 . S
C308 O300 1.235 . S
C309 C311 1.393 . S
C309 C313 1.395 . S
C309 C316 1.492 . S
C310 C311 1.392 . S
C310 C312 1.386 . S
C311 C309 1.393 . S
C311 C310 1.392 . S
C311 H328 0.930 . S
C312 C310 1.386 . S
C312 C314 1.395 . S
C312 H329 0.930 . S
C313 C309 1.395 . S
C313 C314 1.379 . S
C313 H330 0.930 . S
C314 C312 1.395 . S
C314 C313 1.379 . S
C314 H331 0.930 . S
C315 O298 1.264 . S
C315 O299 1.254 . S
C316 Eu252 2.848 . S
C316 O296 1.257 . S
C316 O301 1.249 . S
C316 C309 1.492 . S
C317 H282 0.931 . S
C317 C295 1.420 . S
C317 C318 1.351 . S
C318 H280 0.930 . S
C318 C286 1.423 . S
C318 C317 1.351 . S
C319 O303 1.276 . S
C319 O306 1.235 . S
C320 C321 1.393 . S
C320 C324 1.395 . S
C320 C327 1.492 . S
C321 C320 1.393 . S
C321 C322 1.392 . S
C321 H332 0.930 . S
C322 C321 1.392 . S
C322 C323 1.386 . S
C323 C322 1.386 . S
C323 C325 1.395 . S
C323 H333 0.930 . S
C324 C320 1.395 . S
C324 C325 1.379 . S
C324 H334 0.930 . S
C325 C323 1.395 . S
C325 C324 1.379 . S
C325 H335 0.930 . S
C326 O304 1.264 . S
C326 O305 1.254 . S
C327 Eu263 2.848 . S
C327 O302 1.257 . S
C327 O307 1.249 . S
C327 C320 1.492 . S
H328 C311 0.930 . S
H329 C312 0.930 . S
H330 C313 0.930 . S
H331 C314 0.930 . S
H332 C321 0.930 . S
H333 C323 0.930 . S
H334 C324 0.930 . S
H335 C325 0.930 . S
Eu336 N367 2.657 . S
Eu336 N374 2.609 . S
Eu336 O380 2.558 . S
Eu336 O381 2.612 . S
Eu336 O383 2.339 . S
Eu336 O384 2.563 . S
Eu336 O385 2.419 . S
Eu336 O387 2.380 . S
Eu336 O388 2.432 . S
Eu336 C400 2.848 . S
C337 C340 1.429 . S
C337 C341 1.411 . S
C337 N344 1.377 . S
C338 C340 1.420 . S
C338 C342 1.423 . S
C338 C350 1.392 . S
C339 C341 1.420 . S
C339 C342 1.351 . S
C339 H362 0.931 . S
C340 C337 1.429 . S
C340 C338 1.420 . S
C340 N348 1.362 . S
C341 C337 1.411 . S
C341 C339 1.420 . S
C341 C346 1.395 . S
C342 C338 1.423 . S
C342 C339 1.351 . S
C342 H354 0.930 . S
C343 C345 1.400 . S
C343 C346 1.386 . S
C343 H355 0.930 . S
N344 C337 1.377 . S
N344 C345 1.321 . S
N344 Eu347 2.609 . S
C345 C343 1.400 . S
C345 N344 1.321 . S
C345 H352 0.930 . S
C346 C341 1.395 . S
C346 C343 1.386 . S
C346 H365 0.930 . S
Eu347 N344 2.609 . S
Eu347 N348 2.657 . S
Eu347 O381 2.380 . S
Eu347 O382 2.432 . S
Eu347 O386 2.558 . S
Eu347 O387 2.612 . S
Eu347 O389 2.339 . S
Eu347 O390 2.563 . S
Eu347 O391 2.419 . S
Eu347 C411 2.848 . S
N348 C340 1.362 . S
N348 Eu347 2.657 . S
N348 C349 1.334 . S
C349 N348 1.334 . S
C349 C351 1.413 . S
C349 H356 0.929 . S
C350 C338 1.392 . S
C350 C351 1.367 . S
C350 H358 0.930 . S
C351 C349 1.413 . S
C351 C350 1.367 . S
C351 H353 0.930 . S
H352 C345 0.930 . S
H353 C351 0.930 . S
H354 C342 0.930 . S
H355 C343 0.930 . S
H356 C349 0.929 . S
H357 C371 0.930 . S
H358 C350 0.930 . S
H359 C377 0.930 . S
H360 C368 0.929 . S
H361 C375 0.930 . S
H362 C339 0.931 . S
H363 C369 0.930 . S
H364 C402 0.930 . S
H365 C346 0.930 . S
H366 C401 0.931 . S
N367 Eu336 2.657 . S
N367 C368 1.334 . S
N367 C372 1.362 . S
C368 H360 0.929 . S
C368 N367 1.334 . S
C368 C371 1.413 . S
C369 H363 0.930 . S
C369 C370 1.392 . S
C369 C371 1.367 . S
C370 C369 1.392 . S
C370 C372 1.420 . S
C370 C402 1.423 . S
C371 H357 0.930 . S
C371 C368 1.413 . S
C371 C369 1.367 . S
C372 N367 1.362 . S
C372 C370 1.420 . S
C372 C376 1.429 . S
H373 C378 0.930 . S
N374 Eu336 2.609 . S
N374 C376 1.377 . S
N374 C377 1.321 . S
C375 H361 0.930 . S
C375 C377 1.400 . S
C375 C378 1.386 . S
C376 C372 1.429 . S
C376 N374 1.377 . S
C376 C379 1.411 . S
C377 H359 0.930 . S
C377 N374 1.321 . S
C377 C375 1.400 . S
C378 H373 0.930 . S
C378 C375 1.386 . S
C378 C379 1.395 . S
C379 C376 1.411 . S
C379 C378 1.395 . S
C379 C401 1.420 . S
O380 Eu336 2.558 . S
O380 C400 1.257 . S
O381 Eu336 2.612 . S
O381 Eu347 2.380 . S
O381 C392 1.276 . S
O382 Eu347 2.432 . S
O382 C399 1.264 . S
O383 Eu336 2.339 . S
O383 C399 1.254 . S
O384 Eu336 2.563 . S
O384 C392 1.235 . S
O385 Eu336 2.419 . S
O385 C400 1.249 . S
O386 Eu347 2.558 . S
O386 C411 1.257 . S
O387 Eu336 2.380 . S
O387 Eu347 2.612 . S
O387 C403 1.276 . S
O388 Eu336 2.432 . S
O388 C410 1.264 . S
O389 Eu347 2.339 . S
O389 C410 1.254 . S
O390 Eu347 2.563 . S
O390 C403 1.235 . S
O391 Eu347 2.419 . S
O391 C411 1.249 . S
C392 O381 1.276 . S
C392 O384 1.235 . S
C393 C395 1.393 . S
C393 C397 1.395 . S
C393 C400 1.492 . S
C394 C395 1.392 . S
C394 C396 1.386 . S
C395 C393 1.393 . S
C395 C394 1.392 . S
C395 H412 0.930 . S
C396 C394 1.386 . S
C396 C398 1.395 . S
C396 H413 0.930 . S
C397 C393 1.395 . S
C397 C398 1.379 . S
C397 H414 0.930 . S
C398 C396 1.395 . S
C398 C397 1.379 . S
C398 H415 0.930 . S
C399 O382 1.264 . S
C399 O383 1.254 . S
C400 Eu336 2.848 . S
C400 O380 1.257 . S
C400 O385 1.249 . S
C400 C393 1.492 . S
C401 H366 0.931 . S
C401 C379 1.420 . S
C401 C402 1.351 . S
C402 H364 0.930 . S
C402 C370 1.423 . S
C402 C401 1.351 . S
C403 O387 1.276 . S
C403 O390 1.235 . S
C404 C405 1.393 . S
C404 C408 1.395 . S
C404 C411 1.492 . S
C405 C404 1.393 . S
C405 C406 1.392 . S
C405 H416 0.930 . S
C406 C405 1.392 . S
C406 C407 1.386 . S
C407 C406 1.386 . S
C407 C409 1.395 . S
C407 H417 0.930 . S
C408 C404 1.395 . S
C408 C409 1.379 . S
C408 H418 0.930 . S
C409 C407 1.395 . S
C409 C408 1.379 . S
C409 H419 0.930 . S
C410 O388 1.264 . S
C410 O389 1.254 . S
C411 Eu347 2.848 . S
C411 O386 1.257 . S
C411 O391 1.249 . S
C411 C404 1.492 . S
H412 C395 0.930 . S
H413 C396 0.930 . S
H414 C397 0.930 . S
H415 C398 0.930 . S
H416 C405 0.930 . S
H417 C407 0.930 . S
H418 C408 0.930 . S
H419 C409 0.930 . S
Eu420 N451 2.657 . S
Eu420 N458 2.609 . S
Eu420 O464 2.558 . S
Eu420 O465 2.612 . S
Eu420 O467 2.339 . S
Eu420 O468 2.563 . S
Eu420 O469 2.419 . S
Eu420 O471 2.380 . S
Eu420 O472 2.432 . S
Eu420 C484 2.848 . S
C421 C424 1.429 . S
C421 C425 1.411 . S
C421 N428 1.377 . S
C422 C424 1.420 . S
C422 C426 1.423 . S
C422 C434 1.392 . S
C423 C425 1.420 . S
C423 C426 1.351 . S
C423 H446 0.931 . S
C424 C421 1.429 . S
C424 C422 1.420 . S
C424 N432 1.362 . S
C425 C421 1.411 . S
C425 C423 1.420 . S
C425 C430 1.395 . S
C426 C422 1.423 . S
C426 C423 1.351 . S
C426 H438 0.930 . S
C427 C429 1.400 . S
C427 C430 1.386 . S
C427 H439 0.930 . S
N428 C421 1.377 . S
N428 C429 1.321 . S
N428 Eu431 2.609 . S
C429 C427 1.400 . S
C429 N428 1.321 . S
C429 H436 0.930 . S
C430 C425 1.395 . S
C430 C427 1.386 . S
C430 H449 0.930 . S
Eu431 N428 2.609 . S
Eu431 N432 2.657 . S
Eu431 O465 2.380 . S
Eu431 O466 2.432 . S
Eu431 O470 2.558 . S
Eu431 O471 2.612 . S
Eu431 O473 2.339 . S
Eu431 O474 2.563 . S
Eu431 O475 2.419 . S
Eu431 C495 2.848 . S
N432 C424 1.362 . S
N432 Eu431 2.657 . S
N432 C433 1.334 . S
C433 N432 1.334 . S
C433 C435 1.413 . S
C433 H440 0.929 . S
C434 C422 1.392 . S
C434 C435 1.367 . S
C434 H442 0.930 . S
C435 C433 1.413 . S
C435 C434 1.367 . S
C435 H437 0.930 . S
H436 C429 0.930 . S
H437 C435 0.930 . S
H438 C426 0.930 . S
H439 C427 0.930 . S
H440 C433 0.929 . S
H441 C455 0.930 . S
H442 C434 0.930 . S
H443 C461 0.930 . S
H444 C452 0.929 . S
H445 C459 0.930 . S
H446 C423 0.931 . S
H447 C453 0.930 . S
H448 C486 0.930 . S
H449 C430 0.930 . S
H450 C485 0.931 . S
N451 Eu420 2.657 . S
N451 C452 1.334 . S
N451 C456 1.362 . S
C452 H444 0.929 . S
C452 N451 1.334 . S
C452 C455 1.413 . S
C453 H447 0.930 . S
C453 C454 1.392 . S
C453 C455 1.367 . S
C454 C453 1.392 . S
C454 C456 1.420 . S
C454 C486 1.423 . S
C455 H441 0.930 . S
C455 C452 1.413 . S
C455 C453 1.367 . S
C456 N451 1.362 . S
C456 C454 1.420 . S
C456 C460 1.429 . S
H457 C462 0.930 1_565 S
N458 Eu420 2.609 . S
N458 C460 1.377 . S
N458 C461 1.321 . S
C459 H445 0.930 . S
C459 C461 1.400 . S
C459 C462 1.386 . S
C460 C456 1.429 . S
C460 N458 1.377 . S
C460 C463 1.411 . S
C461 H443 0.930 . S
C461 N458 1.321 . S
C461 C459 1.400 . S
C462 H457 0.930 1_545 S
C462 C459 1.386 . S
C462 C463 1.395 . S
C463 C460 1.411 . S
C463 C462 1.395 . S
C463 C485 1.420 . S
O464 Eu420 2.558 . S
O464 C484 1.257 . S
O465 Eu420 2.612 . S
O465 Eu431 2.380 . S
O465 C476 1.276 . S
O466 Eu431 2.432 . S
O466 C483 1.264 . S
O467 Eu420 2.339 . S
O467 C483 1.254 . S
O468 Eu420 2.563 . S
O468 C476 1.235 . S
O469 Eu420 2.419 . S
O469 C484 1.249 . S
O470 Eu431 2.558 . S
O470 C495 1.257 . S
O471 Eu420 2.380 . S
O471 Eu431 2.612 . S
O471 C487 1.276 . S
O472 Eu420 2.432 . S
O472 C494 1.264 . S
O473 Eu431 2.339 . S
O473 C494 1.254 . S
O474 Eu431 2.563 . S
O474 C487 1.235 . S
O475 Eu431 2.419 . S
O475 C495 1.249 . S
C476 O465 1.276 . S
C476 O468 1.235 . S
C477 C479 1.393 . S
C477 C481 1.395 . S
C477 C484 1.492 . S
C478 C479 1.392 . S
C478 C480 1.386 . S
C479 C477 1.393 . S
C479 C478 1.392 . S
C479 H496 0.930 . S
C480 C478 1.386 . S
C480 C482 1.395 . S
C480 H497 0.930 . S
C481 C477 1.395 . S
C481 C482 1.379 . S
C481 H498 0.930 . S
C482 C480 1.395 . S
C482 C481 1.379 . S
C482 H499 0.930 1_455 S
C483 O466 1.264 . S
C483 O467 1.254 . S
C484 Eu420 2.848 . S
C484 O464 1.257 . S
C484 O469 1.249 . S
C484 C477 1.492 . S
C485 H450 0.931 . S
C485 C463 1.420 . S
C485 C486 1.351 . S
C486 H448 0.930 . S
C486 C454 1.423 . S
C486 C485 1.351 . S
C487 O471 1.276 . S
C487 O474 1.235 . S
C488 C489 1.393 . S
C488 C492 1.395 . S
C488 C495 1.492 . S
C489 C488 1.393 . S
C489 C490 1.392 . S
C489 H500 0.930 . S
C490 C489 1.392 . S
C490 C491 1.386 . S
C491 C490 1.386 . S
C491 C493 1.395 . S
C491 H501 0.930 . S
C492 C488 1.395 . S
C492 C493 1.379 . S
C492 H502 0.930 . S
C493 C491 1.395 . S
C493 C492 1.379 . S
C493 H503 0.930 . S
C494 O472 1.264 . S
C494 O473 1.254 . S
C495 Eu431 2.848 . S
C495 O470 1.257 . S
C495 O475 1.249 . S
C495 C488 1.492 . S
H496 C479 0.930 . S
H497 C480 0.930 . S
H498 C481 0.930 . S
H499 C482 0.930 1_655 S
H500 C489 0.930 . S
H501 C491 0.930 . S
H502 C492 0.930 . S
H503 C493 0.930 . S
Eu504 N535 2.657 . S
Eu504 N542 2.609 . S
Eu504 O548 2.558 . S
Eu504 O549 2.612 . S
Eu504 O551 2.339 . S
Eu504 O552 2.563 . S
Eu504 O553 2.419 . S
Eu504 O555 2.380 . S
Eu504 O556 2.432 . S
Eu504 C568 2.848 . S
C505 C508 1.429 . S
C505 C509 1.411 . S
C505 N512 1.377 . S
C506 C508 1.420 . S
C506 C510 1.423 . S
C506 C518 1.392 . S
C507 C509 1.420 . S
C507 C510 1.351 . S
C507 H530 0.931 . S
C508 C505 1.429 . S
C508 C506 1.420 . S
C508 N516 1.362 . S
C509 C505 1.411 . S
C509 C507 1.420 . S
C509 C514 1.395 . S
C510 C506 1.423 . S
C510 C507 1.351 . S
C510 H522 0.930 . S
C511 C513 1.400 . S
C511 C514 1.386 . S
C511 H523 0.930 . S
N512 C505 1.377 . S
N512 C513 1.321 . S
N512 Eu515 2.609 . S
C513 C511 1.400 . S
C513 N512 1.321 . S
C513 H520 0.930 . S
C514 C509 1.395 . S
C514 C511 1.386 . S
C514 H533 0.930 . S
Eu515 N512 2.609 . S
Eu515 N516 2.657 . S
Eu515 O549 2.380 . S
Eu515 O550 2.432 . S
Eu515 O554 2.558 . S
Eu515 O555 2.612 . S
Eu515 O557 2.339 . S
Eu515 O558 2.563 . S
Eu515 O559 2.419 . S
Eu515 C579 2.848 . S
N516 C508 1.362 . S
N516 Eu515 2.657 . S
N516 C517 1.334 . S
C517 N516 1.334 . S
C517 C519 1.413 . S
C517 H524 0.929 . S
C518 C506 1.392 . S
C518 C519 1.367 . S
C518 H526 0.930 . S
C519 C517 1.413 . S
C519 C518 1.367 . S
C519 H521 0.930 . S
H520 C513 0.930 . S
H521 C519 0.930 . S
H522 C510 0.930 . S
H523 C511 0.930 . S
H524 C517 0.929 . S
H525 C539 0.930 . S
H526 C518 0.930 . S
H527 C545 0.930 . S
H528 C536 0.929 . S
H529 C543 0.930 . S
H530 C507 0.931 . S
H531 C537 0.930 1_565 S
H532 C570 0.930 1_565 S
H533 C514 0.930 . S
H534 C569 0.931 . S
N535 Eu504 2.657 . S
N535 C536 1.334 . S
N535 C540 1.362 . S
C536 H528 0.929 . S
C536 N535 1.334 . S
C536 C539 1.413 . S
C537 H531 0.930 1_545 S
C537 C538 1.392 . S
C537 C539 1.367 . S
C538 C537 1.392 . S
C538 C540 1.420 . S
C538 C570 1.423 . S
C539 H525 0.930 . S
C539 C536 1.413 . S
C539 C537 1.367 . S
C540 N535 1.362 . S
C540 C538 1.420 . S
C540 C544 1.429 . S
H541 C546 0.930 . S
N542 Eu504 2.609 . S
N542 C544 1.377 . S
N542 C545 1.321 . S
C543 H529 0.930 . S
C543 C545 1.400 . S
C543 C546 1.386 . S
C544 C540 1.429 . S
C544 N542 1.377 . S
C544 C547 1.411 . S
C545 H527 0.930 . S
C545 N542 1.321 . S
C545 C543 1.400 . S
C546 H541 0.930 . S
C546 C543 1.386 . S
C546 C547 1.395 . S
C547 C544 1.411 . S
C547 C546 1.395 . S
C547 C569 1.420 . S
O548 Eu504 2.558 . S
O548 C568 1.257 . S
O549 Eu504 2.612 . S
O549 Eu515 2.380 . S
O549 C560 1.276 . S
O550 Eu515 2.432 . S
O550 C567 1.264 . S
O551 Eu504 2.339 . S
O551 C567 1.254 . S
O552 Eu504 2.563 . S
O552 C560 1.235 . S
O553 Eu504 2.419 . S
O553 C568 1.249 . S
O554 Eu515 2.558 . S
O554 C579 1.257 . S
O555 Eu504 2.380 . S
O555 Eu515 2.612 . S
O555 C571 1.276 . S
O556 Eu504 2.432 . S
O556 C578 1.264 . S
O557 Eu515 2.339 . S
O557 C578 1.254 . S
O558 Eu515 2.563 . S
O558 C571 1.235 . S
O559 Eu515 2.419 . S
O559 C579 1.249 . S
C560 O549 1.276 . S
C560 O552 1.235 . S
C561 C563 1.393 . S
C561 C565 1.395 . S
C561 C568 1.492 . S
C562 C563 1.392 . S
C562 C564 1.386 . S
C563 C561 1.393 . S
C563 C562 1.392 . S
C563 H580 0.930 . S
C564 C562 1.386 . S
C564 C566 1.395 . S
C564 H581 0.930 . S
C565 C561 1.395 . S
C565 C566 1.379 . S
C565 H582 0.930 . S
C566 C564 1.395 . S
C566 C565 1.379 . S
C566 H583 0.930 . S
C567 O550 1.264 . S
C567 O551 1.254 . S
C568 Eu504 2.848 . S
C568 O548 1.257 . S
C568 O553 1.249 . S
C568 C561 1.492 . S
C569 H534 0.931 . S
C569 C547 1.420 . S
C569 C570 1.351 . S
C570 H532 0.930 1_545 S
C570 C538 1.423 . S
C570 C569 1.351 . S
C571 O555 1.276 . S
C571 O558 1.235 . S
C572 C573 1.393 . S
C572 C576 1.395 . S
C572 C579 1.492 . S
C573 C572 1.393 . S
C573 C574 1.392 . S
C573 H584 0.930 . S
C574 C573 1.392 . S
C574 C575 1.386 . S
C575 C574 1.386 . S
C575 C577 1.395 . S
C575 H585 0.930 . S
C576 C572 1.395 . S
C576 C577 1.379 . S
C576 H586 0.930 . S
C577 C575 1.395 . S
C577 C576 1.379 . S
C577 H587 0.930 . S
C578 O556 1.264 . S
C578 O557 1.254 . S
C579 Eu515 2.848 . S
C579 O554 1.257 . S
C579 O559 1.249 . S
C579 C572 1.492 . S
H580 C563 0.930 . S
H581 C564 0.930 . S
H582 C565 0.930 . S
H583 C566 0.930 . S
H584 C573 0.930 . S
H585 C575 0.930 . S
H586 C576 0.930 . S
H587 C577 0.930 . S
Eu588 N619 2.657 . S
Eu588 N626 2.609 . S
Eu588 O632 2.558 . S
Eu588 O633 2.612 . S
Eu588 O635 2.339 . S
Eu588 O636 2.563 . S
Eu588 O637 2.419 . S
Eu588 O639 2.380 . S
Eu588 O640 2.432 . S
Eu588 C652 2.848 . S
C589 C592 1.429 . S
C589 C593 1.411 . S
C589 N596 1.377 . S
C590 C592 1.420 . S
C590 C594 1.423 . S
C590 C602 1.392 . S
C591 C593 1.420 . S
C591 C594 1.351 . S
C591 H614 0.931 . S
C592 C589 1.429 . S
C592 C590 1.420 . S
C592 N600 1.362 . S
C593 C589 1.411 . S
C593 C591 1.420 . S
C593 C598 1.395 . S
C594 C590 1.423 . S
C594 C591 1.351 . S
C594 H606 0.930 . S
C595 C597 1.400 . S
C595 C598 1.386 . S
C595 H607 0.930 . S
N596 C589 1.377 . S
N596 C597 1.321 . S
N596 Eu599 2.609 . S
C597 C595 1.400 . S
C597 N596 1.321 . S
C597 H604 0.930 . S
C598 C593 1.395 . S
C598 C595 1.386 . S
C598 H617 0.930 . S
Eu599 N596 2.609 . S
Eu599 N600 2.657 . S
Eu599 O633 2.380 . S
Eu599 O634 2.432 . S
Eu599 O638 2.558 . S
Eu599 O639 2.612 . S
Eu599 O641 2.339 . S
Eu599 O642 2.563 . S
Eu599 O643 2.419 . S
Eu599 C663 2.848 . S
N600 C592 1.362 . S
N600 Eu599 2.657 . S
N600 C601 1.334 . S
C601 N600 1.334 . S
C601 C603 1.413 . S
C601 H608 0.929 . S
C602 C590 1.392 . S
C602 C603 1.367 . S
C602 H610 0.930 . S
C603 C601 1.413 . S
C603 C602 1.367 . S
C603 H605 0.930 . S
H604 C597 0.930 . S
H605 C603 0.930 . S
H606 C594 0.930 . S
H607 C595 0.930 . S
H608 C601 0.929 . S
H609 C623 0.930 . S
H610 C602 0.930 . S
H611 C629 0.930 . S
H612 C620 0.929 . S
H613 C627 0.930 . S
H614 C591 0.931 . S
H615 C621 0.930 . S
H616 C654 0.930 . S
H617 C598 0.930 . S
H618 C653 0.931 . S
N619 Eu588 2.657 . S
N619 C620 1.334 . S
N619 C624 1.362 . S
C620 H612 0.929 . S
C620 N619 1.334 . S
C620 C623 1.413 . S
C621 H615 0.930 . S
C621 C622 1.392 . S
C621 C623 1.367 . S
C622 C621 1.392 . S
C622 C624 1.420 . S
C622 C654 1.423 . S
C623 H609 0.930 . S
C623 C620 1.413 . S
C623 C621 1.367 . S
C624 N619 1.362 . S
C624 C622 1.420 . S
C624 C628 1.429 . S
H625 C630 0.930 . S
N626 Eu588 2.609 . S
N626 C628 1.377 . S
N626 C629 1.321 . S
C627 H613 0.930 . S
C627 C629 1.400 . S
C627 C630 1.386 . S
C628 C624 1.429 . S
C628 N626 1.377 . S
C628 C631 1.411 . S
C629 H611 0.930 . S
C629 N626 1.321 . S
C629 C627 1.400 . S
C630 H625 0.930 . S
C630 C627 1.386 . S
C630 C631 1.395 . S
C631 C628 1.411 . S
C631 C630 1.395 . S
C631 C653 1.420 . S
O632 Eu588 2.558 . S
O632 C652 1.257 . S
O633 Eu588 2.612 . S
O633 Eu599 2.380 . S
O633 C644 1.276 . S
O634 Eu599 2.432 . S
O634 C651 1.264 . S
O635 Eu588 2.339 . S
O635 C651 1.254 . S
O636 Eu588 2.563 . S
O636 C644 1.235 . S
O637 Eu588 2.419 . S
O637 C652 1.249 . S
O638 Eu599 2.558 . S
O638 C663 1.257 . S
O639 Eu588 2.380 . S
O639 Eu599 2.612 . S
O639 C655 1.276 . S
O640 Eu588 2.432 . S
O640 C662 1.264 . S
O641 Eu599 2.339 . S
O641 C662 1.254 . S
O642 Eu599 2.563 . S
O642 C655 1.235 . S
O643 Eu599 2.419 . S
O643 C663 1.249 . S
C644 O633 1.276 . S
C644 O636 1.235 . S
C645 C647 1.393 . S
C645 C649 1.395 . S
C645 C652 1.492 . S
C646 C647 1.392 . S
C646 C648 1.386 . S
C647 C645 1.393 . S
C647 C646 1.392 . S
C647 H664 0.930 . S
C648 C646 1.386 . S
C648 C650 1.395 . S
C648 H665 0.930 . S
C649 C645 1.395 . S
C649 C650 1.379 . S
C649 H666 0.930 . S
C650 C648 1.395 . S
C650 C649 1.379 . S
C650 H667 0.930 . S
C651 O634 1.264 . S
C651 O635 1.254 . S
C652 Eu588 2.848 . S
C652 O632 1.257 . S
C652 O637 1.249 . S
C652 C645 1.492 . S
C653 H618 0.931 . S
C653 C631 1.420 . S
C653 C654 1.351 . S
C654 H616 0.930 . S
C654 C622 1.423 . S
C654 C653 1.351 . S
C655 O639 1.276 . S
C655 O642 1.235 . S
C656 C657 1.393 . S
C656 C660 1.395 . S
C656 C663 1.492 . S
C657 C656 1.393 . S
C657 C658 1.392 . S
C657 H668 0.930 . S
C658 C657 1.392 . S
C658 C659 1.386 . S
C659 C658 1.386 . S
C659 C661 1.395 . S
C659 H669 0.930 . S
C660 C656 1.395 . S
C660 C661 1.379 . S
C660 H670 0.930 . S
C661 C659 1.395 . S
C661 C660 1.379 . S
C661 H671 0.930 1_565 S
C662 O640 1.264 . S
C662 O641 1.254 . S
C663 Eu599 2.848 . S
C663 O638 1.257 . S
C663 O643 1.249 . S
C663 C656 1.492 . S
H664 C647 0.930 . S
H665 C648 0.930 . S
H666 C649 0.930 . S
H667 C650 0.930 . S
H668 C657 0.930 . S
H669 C659 0.930 . S
H670 C660 0.930 . S
H671 C661 0.930 1_545 S
C672 O684 1.241 . S
C672 O685 1.280 . S
C673 O686 1.277 . S
C673 O687 1.245 . S
C674 O698 1.247 . S
C674 O700 1.289 . S
Mg675 O676 1.926 1_455 S
Mg675 O685 1.984 1_455 S
Mg675 O687 1.988 1_455 S
Mg675 O688 2.061 . S
O676 Mg675 1.926 1_655 S
O676 Mg677 1.986 1_545 S
O676 Mg678 1.927 1_655 S
Mg677 O676 1.986 1_565 S
Mg677 O684 2.042 1_565 S
Mg677 O686 2.041 1_565 S
Mg677 O692 2.038 . S
Mg677 O700 2.238 . S
Mg678 O676 1.927 1_455 S
Mg678 O679 1.907 1_545 S
Mg678 O689 2.108 . S
Mg678 O691 2.075 1_445 S
Mg678 O700 2.105 1_445 S
Mg678 O701 2.083 . S
O679 Mg678 1.907 1_565 S
O679 Mg680 1.926 1_455 S
O679 Mg681 1.986 1_565 S
Mg680 O679 1.926 1_655 S
Mg680 O694 1.984 1_655 S
Mg680 O697 1.988 1_655 S
Mg680 O698 2.061 . S
Mg681 O679 1.986 1_545 S
Mg681 O689 2.238 . S
Mg681 O693 2.042 1_545 S
Mg681 O695 2.041 1_545 S
Mg681 O702 2.038 . S
C682 O688 1.247 . S
C682 O689 1.289 . S
C683 O701 1.245 . S
C683 O702 1.274 . S
O684 C672 1.241 . S
O684 Mg677 2.042 1_545 S
O685 C672 1.280 . S
O685 Mg675 1.984 1_655 S
O686 C673 1.277 . S
O686 Mg677 2.041 1_545 S
O687 C673 1.245 . S
O687 Mg675 1.988 1_655 S
O688 Mg675 2.061 . S
O688 C682 1.247 . S
O689 Mg678 2.108 . S
O689 Mg681 2.238 . S
O689 C682 1.289 . S
C690 O691 1.245 . S
C690 O692 1.274 . S
O691 Mg678 2.075 1_665 S
O691 C690 1.245 . S
O692 Mg677 2.038 . S
O692 C690 1.274 . S
O693 Mg681 2.042 1_565 S
O693 C696 1.241 . S
O694 Mg680 1.984 1_455 S
O694 C696 1.280 . S
O695 Mg681 2.041 1_565 S
O695 C699 1.277 . S
C696 O693 1.241 . S
C696 O694 1.280 . S
O697 Mg680 1.988 1_455 S
O697 C699 1.245 . S
O698 C674 1.247 . S
O698 Mg680 2.061 . S
C699 O695 1.277 . S
C699 O697 1.245 . S
O700 C674 1.289 . S
O700 Mg677 2.238 . S
O700 Mg678 2.105 1_665 S
O701 Mg678 2.083 . S
O701 C683 1.245 . S
O702 Mg681 2.038 . S
O702 C683 1.274 . S
C703 O715 1.241 . S
C703 O716 1.280 . S
C704 O717 1.277 . S
C704 O718 1.245 . S
C705 O729 1.247 . S
C705 O731 1.289 . S
Mg706 O707 1.926 . S
Mg706 O716 1.984 . S
Mg706 O718 1.988 1_554 S
Mg706 O719 2.061 . S
O707 Mg706 1.926 . S
O707 Mg708 1.986 1_544 S
O707 Mg709 1.929 . S
Mg708 O707 1.986 1_566 S
Mg708 O715 2.042 1_566 S
Mg708 O717 2.041 1_565 S
Mg708 O723 2.038 1_556 S
Mg708 O731 2.238 . S
Mg709 O707 1.929 . S
Mg709 O710 1.905 1_544 S
Mg709 O720 2.111 . S
Mg709 O722 2.080 1_545 S
Mg709 O731 2.102 1_544 S
Mg709 O732 2.077 1_554 S
O710 Mg709 1.905 1_566 S
O710 Mg711 1.926 . S
O710 Mg712 1.986 1_566 S
Mg711 O710 1.926 . S
Mg711 O725 1.984 . S
Mg711 O728 1.988 1_556 S
Mg711 O729 2.061 . S
Mg712 O710 1.986 1_544 S
Mg712 O720 2.238 . S
Mg712 O724 2.042 1_544 S
Mg712 O726 2.041 1_545 S
Mg712 O733 2.038 1_554 S
C713 O719 1.247 . S
C713 O720 1.289 . S
C714 O732 1.245 . S
C714 O733 1.274 . S
O715 C703 1.241 . S
O715 Mg708 2.042 1_544 S
O716 C703 1.280 . S
O716 Mg706 1.984 . S
O717 C704 1.277 . S
O717 Mg708 2.041 1_545 S
O718 C704 1.245 . S
O718 Mg706 1.988 1_556 S
O719 Mg706 2.061 . S
O719 C713 1.247 . S
O720 Mg709 2.111 . S
O720 Mg712 2.238 . S
O720 C713 1.289 . S
C721 O722 1.245 . S
C721 O723 1.274 . S
O722 Mg709 2.080 1_565 S
O722 C721 1.245 . S
O723 Mg708 2.038 1_554 S
O723 C721 1.274 . S
O724 Mg712 2.042 1_566 S
O724 C727 1.241 . S
O725 Mg711 1.984 . S
O725 C727 1.280 . S
O726 Mg712 2.041 1_565 S
O726 C730 1.277 . S
C727 O724 1.241 . S
C727 O725 1.280 . S
O728 Mg711 1.988 1_554 S
O728 C730 1.245 . S
O729 C705 1.247 . S
O729 Mg711 2.061 . S
C730 O726 1.277 . S
C730 O728 1.245 . S
O731 C705 1.289 . S
O731 Mg708 2.238 . S
O731 Mg709 2.102 1_566 S
O732 Mg709 2.077 1_556 S
O732 C714 1.245 . S
O733 Mg712 2.038 1_556 S
O733 C714 1.274 . S
C734 O746 1.241 . S
C734 O747 1.280 . S
C735 O748 1.277 . S
C735 O749 1.245 . S
C736 O760 1.247 . S
C736 O762 1.289 . S
Mg737 O738 1.926 1_455 S
Mg737 O747 1.984 1_455 S
Mg737 O749 1.988 1_454 S
Mg737 O750 2.061 . S
O738 Mg737 1.926 1_655 S
O738 Mg739 1.986 1_554 S
O738 Mg740 1.919 1_655 S
Mg739 O738 1.986 1_556 S
Mg739 O746 2.042 1_556 S
Mg739 O748 2.041 . S
Mg739 O754 2.038 1_556 S
Mg739 O762 2.238 . S
Mg740 O738 1.919 1_455 S
Mg740 O741 1.914 1_554 S
Mg740 O751 2.110 . S
Mg740 O753 2.084 1_455 S
Mg740 O762 2.103 1_454 S
Mg740 O763 2.073 1_554 S
O741 Mg740 1.914 1_556 S
O741 Mg742 1.926 1_455 S
O741 Mg743 1.986 1_556 S
Mg742 O741 1.926 1_655 S
Mg742 O756 1.984 1_655 S
Mg742 O759 1.988 1_656 S
Mg742 O760 2.061 . S
Mg743 O741 1.986 1_554 S
Mg743 O751 2.238 . S
Mg743 O755 2.042 1_554 S
Mg743 O757 2.041 . S
Mg743 O764 2.038 1_554 S
C744 O750 1.247 . S
C744 O751 1.289 . S
C745 O763 1.245 . S
C745 O764 1.274 . S
O746 C734 1.241 . S
O746 Mg739 2.042 1_554 S
O747 C734 1.280 . S
O747 Mg737 1.984 1_655 S
O748 C735 1.277 . S
O748 Mg739 2.041 . S
O749 C735 1.245 . S
O749 Mg737 1.988 1_656 S
O750 Mg737 2.061 . S
O750 C744 1.247 . S
O751 Mg740 2.110 . S
O751 Mg743 2.238 . S
O751 C744 1.289 . S
C752 O753 1.245 . S
C752 O754 1.274 . S
O753 Mg740 2.084 1_655 S
O753 C752 1.245 . S
O754 Mg739 2.038 1_554 S
O754 C752 1.274 . S
O755 Mg743 2.042 1_556 S
O755 C758 1.241 . S
O756 Mg742 1.984 1_455 S
O756 C758 1.280 . S
O757 Mg743 2.041 . S
O757 C761 1.277 . S
C758 O755 1.241 . S
C758 O756 1.280 . S
O759 Mg742 1.988 1_454 S
O759 C761 1.245 . S
O760 C736 1.247 . S
O760 Mg742 2.061 . S
C761 O757 1.277 . S
C761 O759 1.245 . S
O762 C736 1.289 . S
O762 Mg739 2.238 . S
O762 Mg740 2.103 1_656 S
O763 Mg740 2.073 1_556 S
O763 C745 1.245 . S
O764 Mg743 2.038 1_556 S
O764 C745 1.274 . S
C765 O777 1.241 . S
C765 O778 1.280 . S
C766 O779 1.277 . S
C766 O780 1.245 . S
C767 O791 1.247 . S
C767 O793 1.289 . S
Mg768 O769 1.926 . S
Mg768 O778 1.984 . S
Mg768 O780 1.988 1_554 S
Mg768 O781 2.061 . S
O769 Mg768 1.926 . S
O769 Mg770 1.986 1_554 S
O769 Mg771 1.919 . S
Mg770 O769 1.986 1_556 S
Mg770 O777 2.042 1_556 S
Mg770 O779 2.041 . S
Mg770 O785 2.038 1_556 S
Mg770 O793 2.238 . S
Mg771 O769 1.919 . S
Mg771 O772 1.914 1_554 S
Mg771 O782 2.110 . S
Mg771 O784 2.084 . S
Mg771 O793 2.103 1_554 S
Mg771 O794 2.073 1_554 S
O772 Mg771 1.914 1_556 S
O772 Mg773 1.926 . S
O772 Mg774 1.986 1_556 S
Mg773 O772 1.926 . S
Mg773 O787 1.984 . S
Mg773 O790 1.988 1_556 S
Mg773 O791 2.061 . S
Mg774 O772 1.986 1_554 S
Mg774 O782 2.238 . S
Mg774 O786 2.042 1_554 S
Mg774 O788 2.041 . S
Mg774 O795 2.038 1_554 S
C775 O781 1.247 . S
C775 O782 1.289 . S
C776 O794 1.245 . S
C776 O795 1.274 . S
O777 C765 1.241 . S
O777 Mg770 2.042 1_554 S
O778 C765 1.280 . S
O778 Mg768 1.984 . S
O779 C766 1.277 . S
O779 Mg770 2.041 . S
O780 C766 1.245 . S
O780 Mg768 1.988 1_556 S
O781 Mg768 2.061 . S
O781 C775 1.247 . S
O782 Mg771 2.110 . S
O782 Mg774 2.238 . S
O782 C775 1.289 . S
C783 O784 1.245 . S
C783 O785 1.274 . S
O784 Mg771 2.084 . S
O784 C783 1.245 . S
O785 Mg770 2.038 1_554 S
O785 C783 1.274 . S
O786 Mg774 2.042 1_556 S
O786 C789 1.241 . S
O787 Mg773 1.984 . S
O787 C789 1.280 . S
O788 Mg774 2.041 . S
O788 C792 1.277 . S
C789 O786 1.241 . S
C789 O787 1.280 . S
O790 Mg773 1.988 1_554 S
O790 C792 1.245 . S
O791 C767 1.247 . S
O791 Mg773 2.061 . S
C792 O788 1.277 . S
C792 O790 1.245 . S
O793 C767 1.289 . S
O793 Mg770 2.238 . S
O793 Mg771 2.103 1_556 S
O794 Mg771 2.073 1_556 S
O794 C776 1.245 . S
O795 Mg774 2.038 1_556 S
O795 C776 1.274 . S
C796 O808 1.241 . S
C796 O809 1.280 . S
C797 O810 1.277 . S
C797 O811 1.245 . S
C798 O822 1.247 . S
C798 O824 1.289 . S
Mg799 O800 1.926 1_455 S
Mg799 O809 1.984 1_455 S
Mg799 O811 1.988 1_455 S
Mg799 O812 2.061 . S
O800 Mg799 1.926 1_655 S
O800 Mg801 1.986 . S
O800 Mg802 1.917 1_655 S
Mg801 O800 1.986 . S
Mg801 O808 2.042 . S
Mg801 O810 2.041 . S
Mg801 O816 2.038 . S
Mg801 O824 2.238 . S
Mg802 O800 1.917 1_455 S
Mg802 O803 1.917 . S
Mg802 O813 2.106 . S
Mg802 O815 2.079 1_455 S
Mg802 O824 2.106 1_455 S
Mg802 O825 2.079 . S
O803 Mg802 1.917 . S
O803 Mg804 1.926 1_455 S
O803 Mg805 1.986 . S
Mg804 O803 1.926 1_655 S
Mg804 O818 1.984 1_655 S
Mg804 O821 1.988 1_655 S
Mg804 O822 2.061 . S
Mg805 O803 1.986 . S
Mg805 O813 2.238 . S
Mg805 O817 2.042 . S
Mg805 O819 2.041 . S
Mg805 O826 2.038 . S
C806 O812 1.247 . S
C806 O813 1.289 . S
C807 O825 1.245 . S
C807 O826 1.274 . S
O808 C796 1.241 . S
O808 Mg801 2.042 . S
O809 C796 1.280 . S
O809 Mg799 1.984 1_655 S
O810 C797 1.277 . S
O810 Mg801 2.041 . S
O811 C797 1.245 . S
O811 Mg799 1.988 1_655 S
O812 Mg799 2.061 . S
O812 C806 1.247 . S
O813 Mg802 2.106 . S
O813 Mg805 2.238 . S
O813 C806 1.289 . S
C814 O815 1.245 . S
C814 O816 1.274 . S
O815 Mg802 2.079 1_655 S
O815 C814 1.245 . S
O816 Mg801 2.038 . S
O816 C814 1.274 . S
O817 Mg805 2.042 . S
O817 C820 1.241 . S
O818 Mg804 1.984 1_455 S
O818 C820 1.280 . S
O819 Mg805 2.041 . S
O819 C823 1.277 . S
C820 O817 1.241 . S
C820 O818 1.280 . S
O821 Mg804 1.988 1_455 S
O821 C823 1.245 . S
O822 C798 1.247 . S
O822 Mg804 2.061 . S
C823 O819 1.277 . S
C823 O821 1.245 . S
O824 C798 1.289 . S
O824 Mg801 2.238 . S
O824 Mg802 2.106 1_655 S
O825 Mg802 2.079 . S
O825 C807 1.245 . S
O826 Mg805 2.038 . S
O826 C807 1.274 . S
C827 O839 1.241 . S
C827 O840 1.280 . S
C828 O841 1.277 . S
C828 O842 1.245 . S
C829 O853 1.247 . S
C829 O855 1.289 . S
Mg830 O831 1.926 . S
Mg830 O840 1.984 . S
Mg830 O842 1.988 . S
Mg830 O843 2.061 . S
O831 Mg830 1.926 . S
O831 Mg832 1.986 1_545 S
O831 Mg833 1.926 . S
Mg832 O831 1.986 1_565 S
Mg832 O839 2.042 1_565 S
Mg832 O841 2.041 1_565 S
Mg832 O847 2.038 . S
Mg832 O855 2.238 . S
Mg833 O831 1.926 . S
Mg833 O834 1.908 1_545 S
Mg833 O844 2.108 . S
Mg833 O846 2.075 1_545 S
Mg833 O855 2.105 1_545 S
Mg833 O856 2.082 . S
O834 Mg833 1.908 1_565 S
O834 Mg835 1.926 . S
O834 Mg836 1.986 1_565 S
Mg835 O834 1.926 . S
Mg835 O849 1.984 . S
Mg835 O852 1.988 . S
Mg835 O853 2.061 . S
Mg836 O834 1.986 1_545 S
Mg836 O844 2.238 . S
Mg836 O848 2.042 1_545 S
Mg836 O850 2.041 1_545 S
Mg836 O857 2.038 . S
C837 O843 1.247 . S
C837 O844 1.289 . S
C838 O856 1.245 . S
C838 O857 1.274 . S
O839 C827 1.241 . S
O839 Mg832 2.042 1_545 S
O840 C827 1.280 . S
O840 Mg830 1.984 . S
O841 C828 1.277 . S
O841 Mg832 2.041 1_545 S
O842 C828 1.245 . S
O842 Mg830 1.988 . S
O843 Mg830 2.061 . S
O843 C837 1.247 . S
O844 Mg833 2.108 . S
O844 Mg836 2.238 . S
O844 C837 1.289 . S
C845 O846 1.245 . S
C845 O847 1.274 . S
O846 Mg833 2.075 1_565 S
O846 C845 1.245 . S
O847 Mg832 2.038 . S
O847 C845 1.274 . S
O848 Mg836 2.042 1_565 S
O848 C851 1.241 . S
O849 Mg835 1.984 . S
O849 C851 1.280 . S
O850 Mg836 2.041 1_565 S
O850 C854 1.277 . S
C851 O848 1.241 . S
C851 O849 1.280 . S
O852 Mg835 1.988 . S
O852 C854 1.245 . S
O853 C829 1.247 . S
O853 Mg835 2.061 . S
C854 O850 1.277 . S
C854 O852 1.245 . S
O855 C829 1.289 . S
O855 Mg832 2.238 . S
O855 Mg833 2.105 1_565 S
O856 Mg833 2.082 . S
O856 C838 1.245 . S
O857 Mg836 2.038 . S
O857 C838 1.274 . S
C858 C859 1.369 . S
C858 C860 1.419 . S
C858 H862 0.930 . S
C859 C858 1.369 . S
C859 C868 1.429 . S
C860 C858 1.419 . S
C860 C861 1.363 . S
C860 H863 0.929 . S
C861 C860 1.363 . S
C861 C867 1.428 . S
H862 C858 0.930 . S
H863 C860 0.929 . S
S864 N865 1.613 . S
S864 N866 1.610 . S
N865 S864 1.613 . S
N865 C868 1.350 . S
N866 S864 1.610 . S
N866 C867 1.351 . S
C867 C861 1.428 . S
C867 N866 1.351 . S
C867 C868 1.434 . S
C868 C859 1.429 . S
C868 N865 1.350 . S
C868 C867 1.434 . S
C869 C870 1.369 . S
C869 C871 1.419 . S
C869 H873 0.930 . S
C870 C869 1.369 . S
C870 C879 1.429 . S
C871 C869 1.419 . S
C871 C872 1.363 . S
C871 H874 0.929 . S
C872 C871 1.363 . S
C872 C878 1.428 . S
H873 C869 0.930 . S
H874 C871 0.929 . S
S875 N876 1.613 . S
S875 N877 1.610 . S
N876 S875 1.613 . S
N876 C879 1.350 . S
N877 S875 1.610 . S
N877 C878 1.351 . S
C878 C872 1.428 . S
C878 N877 1.351 . S
C878 C879 1.434 . S
C879 C870 1.429 . S
C879 N876 1.350 . S
C879 C878 1.434 . S
C880 C881 1.369 . S
C880 C882 1.419 . S
C880 H884 0.930 . S
C881 C880 1.369 . S
C881 C890 1.429 . S
C882 C880 1.419 . S
C882 C883 1.363 . S
C882 H885 0.929 . S
C883 C882 1.363 . S
C883 C889 1.428 . S
H884 C880 0.930 . S
H885 C882 0.929 . S
S886 N887 1.613 . S
S886 N888 1.610 . S
N887 S886 1.613 . S
N887 C890 1.350 . S
N888 S886 1.610 . S
N888 C889 1.351 . S
C889 C883 1.428 . S
C889 N888 1.351 . S
C889 C890 1.434 . S
C890 C881 1.429 . S
C890 N887 1.350 . S
C890 C889 1.434 . S
C891 C892 1.369 . S
C891 C893 1.419 . S
C891 H895 0.930 . S
C892 C891 1.369 . S
C892 C901 1.429 . S
C893 C891 1.419 . S
C893 C894 1.363 . S
C893 H896 0.929 . S
C894 C893 1.363 . S
C894 C900 1.428 . S
H895 C891 0.930 . S
H896 C893 0.929 . S
S897 N898 1.613 1_545 S
S897 N899 1.610 . S
N898 S897 1.613 1_565 S
N898 C901 1.350 . S
N899 S897 1.610 . S
N899 C900 1.351 1_545 S
C900 C894 1.428 . S
C900 N899 1.351 1_565 S
C900 C901 1.434 . S
C901 C892 1.429 . S
C901 N898 1.350 . S
C901 C900 1.434 . S
C902 C903 1.369 . S
C902 C904 1.419 . S
C902 H906 0.930 . S
C903 C902 1.369 . S
C903 C912 1.429 . S
C904 C902 1.419 . S
C904 C905 1.363 . S
C904 H907 0.929 . S
C905 C904 1.363 . S
C905 C911 1.428 . S
H906 C902 0.930 . S
H907 C904 0.929 . S
S908 N909 1.613 . S
S908 N910 1.610 . S
N909 S908 1.613 . S
N909 C912 1.350 . S
N910 S908 1.610 . S
N910 C911 1.351 . S
C911 C905 1.428 . S
C911 N910 1.351 . S
C911 C912 1.434 . S
C912 C903 1.429 . S
C912 N909 1.350 . S
C912 C911 1.434 . S
C913 C914 1.369 . S
C913 C915 1.419 . S
C913 H917 0.930 . S
C914 C913 1.369 . S
C914 C923 1.429 . S
C915 C913 1.419 . S
C915 C916 1.363 . S
C915 H918 0.929 . S
C916 C915 1.363 . S
C916 C922 1.428 . S
H917 C913 0.930 . S
H918 C915 0.929 . S
S919 N920 1.613 1_565 S
S919 N921 1.610 1_565 S
N920 S919 1.613 1_545 S
N920 C923 1.350 . S
N921 S919 1.610 1_545 S
N921 C922 1.351 . S
C922 C916 1.428 . S
C922 N921 1.351 . S
C922 C923 1.434 . S
C923 C914 1.429 . S
C923 N920 1.350 . S
C923 C922 1.434 . S
C924 C925 1.369 . S
C924 C926 1.419 . S
C924 H928 0.930 . S
C925 C924 1.369 . S
C925 C934 1.429 . S
C926 C924 1.419 . S
C926 C927 1.363 . S
C926 H929 0.929 . S
C927 C926 1.363 . S
C927 C933 1.428 . S
H928 C924 0.930 . S
H929 C926 0.929 . S
S930 N931 1.613 . S
S930 N932 1.610 . S
N931 S930 1.613 . S
N931 C934 1.350 . S
N932 S930 1.610 . S
N932 C933 1.351 . S
C933 C927 1.428 . S
C933 N932 1.351 . S
C933 C934 1.434 . S
C934 C925 1.429 . S
C934 N931 1.350 . S
C934 C933 1.434 . S
C935 C936 1.369 . S
C935 C937 1.419 . S
C935 H939 0.930 . S
C936 C935 1.369 . S
C936 C945 1.429 . S
C937 C935 1.419 . S
C937 C938 1.363 . S
C937 H940 0.929 . S
C938 C937 1.363 . S
C938 C944 1.428 . S
H939 C935 0.930 . S
H940 C937 0.929 . S
S941 N942 1.613 . S
S941 N943 1.610 . S
N942 S941 1.613 . S
N942 C945 1.350 . S
N943 S941 1.610 . S
N943 C944 1.351 . S
C944 C938 1.428 . S
C944 N943 1.351 . S
C944 C945 1.434 . S
C945 C936 1.429 . S
C945 N942 1.350 . S
C945 C944 1.434 . S
C946 C947 1.369 . S
C946 C948 1.419 . S
C946 H950 0.930 . S
C947 C946 1.369 . S
C947 C956 1.429 . S
C948 C946 1.419 . S
C948 C949 1.363 . S
C948 H951 0.929 . S
C949 C948 1.363 . S
C949 C955 1.428 . S
H950 C946 0.930 . S
H951 C948 0.929 . S
S952 N953 1.613 1_565 S
S952 N954 1.610 1_565 S
N953 S952 1.613 1_545 S
N953 C956 1.350 . S
N954 S952 1.610 1_545 S
N954 C955 1.351 . S
C955 C949 1.428 . S
C955 N954 1.351 . S
C955 C956 1.434 . S
C956 C947 1.429 . S
C956 N953 1.350 . S
C956 C955 1.434 . S
C957 C958 1.369 . S
C957 C959 1.419 . S
C957 H961 0.930 . S
C958 C957 1.369 . S
C958 C967 1.429 . S
C959 C957 1.419 . S
C959 C960 1.363 . S
C959 H962 0.929 . S
C960 C959 1.363 . S
C960 C966 1.428 . S
H961 C957 0.930 . S
H962 C959 0.929 . S
S963 N964 1.613 . S
S963 N965 1.610 . S
N964 S963 1.613 . S
N964 C967 1.350 . S
N965 S963 1.610 . S
N965 C966 1.351 . S
C966 C960 1.428 . S
C966 N965 1.351 . S
C966 C967 1.434 . S
C967 C958 1.429 . S
C967 N964 1.350 . S
C967 C966 1.434 . S
C968 C969 1.369 . S
C968 C970 1.419 . S
C968 H972 0.930 . S
C969 C968 1.369 . S
C969 C978 1.429 . S
C970 C968 1.419 . S
C970 C971 1.363 . S
C970 H973 0.929 . S
C971 C970 1.363 . S
C971 C977 1.428 . S
H972 C968 0.930 . S
H973 C970 0.929 . S
S974 N975 1.613 1_545 S
S974 N976 1.610 1_545 S
N975 S974 1.613 1_565 S
N975 C978 1.350 . S
N976 S974 1.610 1_565 S
N976 C977 1.351 . S
C977 C971 1.428 . S
C977 N976 1.351 . S
C977 C978 1.434 . S
C978 C969 1.429 . S
C978 N975 1.350 . S
C978 C977 1.434 . S
C979 C980 1.369 . S
C979 C981 1.419 . S
C979 H983 0.930 . S
C980 C979 1.369 . S
C980 C989 1.429 . S
C981 C979 1.419 . S
C981 C982 1.363 . S
C981 H984 0.929 . S
C982 C981 1.363 . S
C982 C988 1.428 . S
H983 C979 0.930 . S
H984 C981 0.929 . S
S985 N986 1.613 . S
S985 N987 1.610 . S
N986 S985 1.613 . S
N986 C989 1.350 . S
N987 S985 1.610 . S
N987 C988 1.351 . S
C988 C982 1.428 . S
C988 N987 1.351 . S
C988 C989 1.434 . S
C989 C980 1.429 . S
C989 N986 1.350 . S
C989 C988 1.434 . S
C990 C991 1.369 . S
C990 C992 1.419 . S
C990 H994 0.930 . S
C991 C990 1.369 . S
C991 C1000 1.429 . S
C992 C990 1.419 . S
C992 C993 1.363 . S
C992 H995 0.929 . S
C993 C992 1.363 . S
C993 C999 1.428 . S
H994 C990 0.930 . S
H995 C992 0.929 . S
S996 N997 1.613 . S
S996 N998 1.610 . S
N997 S996 1.613 . S
N997 C1000 1.350 . S
N998 S996 1.610 . S
N998 C999 1.351 . S
C999 C993 1.428 . S
C999 N998 1.351 . S
C999 C1000 1.434 . S
C1000 C991 1.429 . S
C1000 N997 1.350 . S
C1000 C999 1.434 . S
C1001 C1002 1.369 . S
C1001 C1003 1.419 . S
C1001 H1005 0.930 . S
C1002 C1001 1.369 . S
C1002 C1011 1.429 . S
C1003 C1001 1.419 . S
C1003 C1004 1.363 . S
C1003 H1006 0.929 . S
C1004 C1003 1.363 . S
C1004 C1010 1.428 . S
H1005 C1001 0.930 . S
H1006 C1003 0.929 . S
S1007 N1008 1.613 . S
S1007 N1009 1.610 . S
N1008 S1007 1.613 . S
N1008 C1011 1.350 . S
N1009 S1007 1.610 . S
N1009 C1010 1.351 . S
C1010 C1004 1.428 . S
C1010 N1009 1.351 . S
C1010 C1011 1.434 . S
C1011 C1002 1.429 . S
C1011 N1008 1.350 . S
C1011 C1010 1.434 . S
C1012 C1013 1.369 . S
C1012 C1014 1.419 . S
C1012 H1016 0.930 . S
C1013 C1012 1.369 . S
C1013 C1022 1.429 . S
C1014 C1012 1.419 . S
C1014 C1015 1.363 . S
C1014 H1017 0.929 . S
C1015 C1014 1.363 . S
C1015 C1021 1.428 . S
H1016 C1012 0.930 . S
H1017 C1014 0.929 . S
S1018 N1019 1.613 . S
S1018 N1020 1.610 . S
N1019 S1018 1.613 . S
N1019 C1022 1.350 . S
N1020 S1018 1.610 . S
N1020 C1021 1.351 . S
C1021 C1015 1.428 . S
C1021 N1020 1.351 . S
C1021 C1022 1.434 . S
C1022 C1013 1.429 . S
C1022 N1019 1.350 . S
C1022 C1021 1.434 . S
C1023 C1024 1.369 . S
C1023 C1025 1.419 . S
C1023 H1027 0.930 . S
C1024 C1023 1.369 . S
C1024 C1033 1.429 . S
C1025 C1023 1.419 . S
C1025 C1026 1.363 . S
C1025 H1028 0.929 . S
C1026 C1025 1.363 . S
C1026 C1032 1.428 . S
H1027 C1023 0.930 . S
H1028 C1025 0.929 . S
S1029 N1030 1.613 . S
S1029 N1031 1.610 . S
N1030 S1029 1.613 . S
N1030 C1033 1.350 . S
N1031 S1029 1.610 . S
N1031 C1032 1.351 . S
C1032 C1026 1.428 . S
C1032 N1031 1.351 . S
C1032 C1033 1.434 . S
C1033 C1024 1.429 . S
C1033 N1030 1.350 . S
C1033 C1032 1.434 . S
C1034 C1035 1.369 . S
C1034 C1036 1.419 . S
C1034 H1038 0.930 . S
C1035 C1034 1.369 . S
C1035 C1044 1.429 . S
C1036 C1034 1.419 . S
C1036 C1037 1.363 . S
C1036 H1039 0.929 . S
C1037 C1036 1.363 . S
C1037 C1043 1.428 . S
H1038 C1034 0.930 . S
H1039 C1036 0.929 . S
S1040 N1041 1.613 . S
S1040 N1042 1.610 . S
N1041 S1040 1.613 . S
N1041 C1044 1.350 . S
N1042 S1040 1.610 . S
N1042 C1043 1.351 . S
C1043 C1037 1.428 . S
C1043 N1042 1.351 . S
C1043 C1044 1.434 . S
C1044 C1035 1.429 . S
C1044 N1041 1.350 . S
C1044 C1043 1.434 . S
C1045 C1046 1.369 . S
C1045 C1047 1.419 . S
C1045 H1049 0.930 . S
C1046 C1045 1.369 . S
C1046 C1055 1.429 . S
C1047 C1045 1.419 . S
C1047 C1048 1.363 . S
C1047 H1050 0.929 . S
C1048 C1047 1.363 . S
C1048 C1054 1.428 . S
H1049 C1045 0.930 . S
H1050 C1047 0.929 . S
S1051 N1052 1.613 . S
S1051 N1053 1.610 . S
N1052 S1051 1.613 . S
N1052 C1055 1.350 . S
N1053 S1051 1.610 . S
N1053 C1054 1.351 . S
C1054 C1048 1.428 . S
C1054 N1053 1.351 . S
C1054 C1055 1.434 . S
C1055 C1046 1.429 . S
C1055 N1052 1.350 . S
C1055 C1054 1.434 . S
C1056 C1057 1.369 . S
C1056 C1058 1.419 . S
C1056 H1060 0.930 . S
C1057 C1056 1.369 . S
C1057 C1066 1.429 . S
C1058 C1056 1.419 . S
C1058 C1059 1.363 . S
C1058 H1061 0.929 . S
C1059 C1058 1.363 . S
C1059 C1065 1.428 . S
H1060 C1056 0.930 . S
H1061 C1058 0.929 . S
S1062 N1063 1.613 . S
S1062 N1064 1.610 . S
N1063 S1062 1.613 . S
N1063 C1066 1.350 . S
N1064 S1062 1.610 . S
N1064 C1065 1.351 . S
C1065 C1059 1.428 . S
C1065 N1064 1.351 . S
C1065 C1066 1.434 . S
C1066 C1057 1.429 . S
C1066 N1063 1.350 . S
C1066 C1065 1.434 . S
C1067 C1068 1.369 . S
C1067 C1069 1.419 . S
C1067 H1071 0.930 . S
C1068 C1067 1.369 . S
C1068 C1077 1.429 . S
C1069 C1067 1.419 . S
C1069 C1070 1.363 . S
C1069 H1072 0.929 . S
C1070 C1069 1.363 . S
C1070 C1076 1.428 . S
H1071 C1067 0.930 . S
H1072 C1069 0.929 . S
S1073 N1074 1.613 . S
S1073 N1075 1.610 . S
N1074 S1073 1.613 . S
N1074 C1077 1.350 . S
N1075 S1073 1.610 . S
N1075 C1076 1.351 . S
C1076 C1070 1.428 . S
C1076 N1075 1.351 . S
C1076 C1077 1.434 . S
C1077 C1068 1.429 . S
C1077 N1074 1.350 . S
C1077 C1076 1.434 . S
C1078 C1079 1.369 . S
C1078 C1080 1.419 . S
C1078 H1082 0.930 . S
C1079 C1078 1.369 . S
C1079 C1088 1.429 . S
C1080 C1078 1.419 . S
C1080 C1081 1.363 . S
C1080 H1083 0.929 1_565 S
C1081 C1080 1.363 . S
C1081 C1087 1.428 . S
H1082 C1078 0.930 . S
H1083 C1080 0.929 1_545 S
S1084 N1085 1.613 . S
S1084 N1086 1.610 . S
N1085 S1084 1.613 . S
N1085 C1088 1.350 . S
N1086 S1084 1.610 . S
N1086 C1087 1.351 . S
C1087 C1081 1.428 . S
C1087 N1086 1.351 . S
C1087 C1088 1.434 . S
C1088 C1079 1.429 . S
C1088 N1085 1.350 . S
C1088 C1087 1.434 . S
C1089 C1090 1.369 . S
C1089 C1091 1.419 . S
C1089 H1093 0.930 . S
C1090 C1089 1.369 . S
C1090 C1099 1.429 . S
C1091 C1089 1.419 . S
C1091 C1092 1.363 . S
C1091 H1094 0.929 . S
C1092 C1091 1.363 . S
C1092 C1098 1.428 . S
H1093 C1089 0.930 . S
H1094 C1091 0.929 . S
S1095 N1096 1.613 . S
S1095 N1097 1.610 . S
N1096 S1095 1.613 . S
N1096 C1099 1.350 . S
N1097 S1095 1.610 . S
N1097 C1098 1.351 . S
C1098 C1092 1.428 . S
C1098 N1097 1.351 . S
C1098 C1099 1.434 . S
C1099 C1090 1.429 . S
C1099 N1096 1.350 . S
C1099 C1098 1.434 . S
C1100 C1101 1.369 . S
C1100 C1102 1.419 . S
C1100 H1104 0.930 . S
C1101 C1100 1.369 . S
C1101 C1110 1.429 . S
C1102 C1100 1.419 . S
C1102 C1103 1.363 . S
C1102 H1105 0.929 . S
C1103 C1102 1.363 . S
C1103 C1109 1.428 . S
H1104 C1100 0.930 . S
H1105 C1102 0.929 . S
S1106 N1107 1.613 . S
S1106 N1108 1.610 . S
N1107 S1106 1.613 . S
N1107 C1110 1.350 . S
N1108 S1106 1.610 . S
N1108 C1109 1.351 . S
C1109 C1103 1.428 . S
C1109 N1108 1.351 . S
C1109 C1110 1.434 . S
C1110 C1101 1.429 . S
C1110 N1107 1.350 . S
C1110 C1109 1.434 . S
C1111 C1112 1.369 . S
C1111 C1113 1.419 . S
C1111 H1115 0.930 . S
C1112 C1111 1.369 . S
C1112 C1121 1.429 . S
C1113 C1111 1.419 . S
C1113 C1114 1.363 . S
C1113 H1116 0.929 . S
C1114 C1113 1.363 . S
C1114 C1120 1.428 . S
H1115 C1111 0.930 . S
H1116 C1113 0.929 . S
S1117 N1118 1.613 . S
S1117 N1119 1.610 . S
N1118 S1117 1.613 . S
N1118 C1121 1.350 . S
N1119 S1117 1.610 . S
N1119 C1120 1.351 . S
C1120 C1114 1.428 . S
C1120 N1119 1.351 . S
C1120 C1121 1.434 . S
C1121 C1112 1.429 . S
C1121 N1118 1.350 . S
C1121 C1120 1.434 . S
C1122 C1123 1.369 . S
C1122 C1124 1.419 . S
C1122 H1126 0.930 . S
C1123 C1122 1.369 . S
C1123 C1132 1.429 . S
C1124 C1122 1.419 . S
C1124 C1125 1.363 . S
C1124 H1127 0.929 . S
C1125 C1124 1.363 . S
C1125 C1131 1.428 . S
H1126 C1122 0.930 . S
H1127 C1124 0.929 . S
S1128 N1129 1.613 . S
S1128 N1130 1.610 . S
N1129 S1128 1.613 . S
N1129 C1132 1.350 . S
N1130 S1128 1.610 . S
N1130 C1131 1.351 . S
C1131 C1125 1.428 . S
C1131 N1130 1.351 . S
C1131 C1132 1.434 . S
C1132 C1123 1.429 . S
C1132 N1129 1.350 . S
C1132 C1131 1.434 . S
C1133 C1134 1.369 . S
C1133 C1135 1.419 . S
C1133 H1137 0.930 . S
C1134 C1133 1.369 . S
C1134 C1143 1.429 . S
C1135 C1133 1.419 . S
C1135 C1136 1.363 . S
C1135 H1138 0.929 . S
C1136 C1135 1.363 . S
C1136 C1142 1.428 . S
H1137 C1133 0.930 . S
H1138 C1135 0.929 . S
S1139 N1140 1.613 . S
S1139 N1141 1.610 . S
N1140 S1139 1.613 . S
N1140 C1143 1.350 . S
N1141 S1139 1.610 . S
N1141 C1142 1.351 . S
C1142 C1136 1.428 . S
C1142 N1141 1.351 . S
C1142 C1143 1.434 . S
C1143 C1134 1.429 . S
C1143 N1140 1.350 . S
C1143 C1142 1.434 . S
C1144 C1145 1.369 . S
C1144 C1146 1.419 . S
C1144 H1148 0.930 . S
C1145 C1144 1.369 . S
C1145 C1154 1.429 . S
C1146 C1144 1.419 . S
C1146 C1147 1.363 . S
C1146 H1149 0.929 . S
C1147 C1146 1.363 . S
C1147 C1153 1.428 . S
H1148 C1144 0.930 . S
H1149 C1146 0.929 . S
S1150 N1151 1.613 . S
S1150 N1152 1.610 . S
N1151 S1150 1.613 . S
N1151 C1154 1.350 . S
N1152 S1150 1.610 . S
N1152 C1153 1.351 . S
C1153 C1147 1.428 . S
C1153 N1152 1.351 . S
C1153 C1154 1.434 . S
C1154 C1145 1.429 . S
C1154 N1151 1.350 . S
C1154 C1153 1.434 . S
C1155 C1156 1.369 . S
C1155 C1157 1.419 . S
C1155 H1159 0.930 . S
C1156 C1155 1.369 . S
C1156 C1165 1.429 . S
C1157 C1155 1.419 . S
C1157 C1158 1.363 . S
C1157 H1160 0.929 . S
C1158 C1157 1.363 . S
C1158 C1164 1.428 . S
H1159 C1155 0.930 . S
H1160 C1157 0.929 . S
S1161 N1162 1.613 . S
S1161 N1163 1.610 . S
N1162 S1161 1.613 . S
N1162 C1165 1.350 . S
N1163 S1161 1.610 . S
N1163 C1164 1.351 . S
C1164 C1158 1.428 . S
C1164 N1163 1.351 . S
C1164 C1165 1.434 . S
C1165 C1156 1.429 . S
C1165 N1162 1.350 . S
C1165 C1164 1.434 . S
C1166 C1167 1.369 . S
C1166 C1168 1.419 . S
C1166 H1170 0.930 . S
C1167 C1166 1.369 . S
C1167 C1176 1.429 . S
C1168 C1166 1.419 . S
C1168 C1169 1.363 . S
C1168 H1171 0.929 . S
C1169 C1168 1.363 . S
C1169 C1175 1.428 . S
H1170 C1166 0.930 . S
H1171 C1168 0.929 . S
S1172 N1173 1.613 1_556 S
S1172 N1174 1.610 1_556 S
N1173 S1172 1.613 1_554 S
N1173 C1176 1.350 . S
N1174 S1172 1.610 1_554 S
N1174 C1175 1.351 . S
C1175 C1169 1.428 . S
C1175 N1174 1.351 . S
C1175 C1176 1.434 . S
C1176 C1167 1.429 . S
C1176 N1173 1.350 . S
C1176 C1175 1.434 . S
C1177 C1178 1.369 . S
C1177 C1179 1.419 . S
C1177 H1181 0.930 . S
C1178 C1177 1.369 . S
C1178 C1187 1.429 . S
C1179 C1177 1.419 . S
C1179 C1180 1.363 . S
C1179 H1182 0.929 . S
C1180 C1179 1.363 . S
C1180 C1186 1.428 . S
H1181 C1177 0.930 . S
H1182 C1179 0.929 . S
S1183 N1184 1.613 . S
S1183 N1185 1.610 . S
N1184 S1183 1.613 . S
N1184 C1187 1.350 . S
N1185 S1183 1.610 . S
N1185 C1186 1.351 . S
C1186 C1180 1.428 . S
C1186 N1185 1.351 . S
C1186 C1187 1.434 . S
C1187 C1178 1.429 . S
C1187 N1184 1.350 . S
C1187 C1186 1.434 . S
C1188 C1189 1.369 . S
C1188 C1190 1.419 . S
C1188 H1192 0.930 . S
C1189 C1188 1.369 . S
C1189 C1198 1.429 . S
C1190 C1188 1.419 . S
C1190 C1191 1.363 . S
C1190 H1193 0.929 . S
C1191 C1190 1.363 . S
C1191 C1197 1.428 . S
H1192 C1188 0.930 . S
H1193 C1190 0.929 . S
S1194 N1195 1.613 . S
S1194 N1196 1.610 . S
N1195 S1194 1.613 . S
N1195 C1198 1.350 . S
N1196 S1194 1.610 . S
N1196 C1197 1.351 . S
C1197 C1191 1.428 . S
C1197 N1196 1.351 . S
C1197 C1198 1.434 . S
C1198 C1189 1.429 . S
C1198 N1195 1.350 . S
C1198 C1197 1.434 . S
C1199 C1200 1.369 . S
C1199 C1201 1.419 . S
C1199 H1203 0.930 . S
C1200 C1199 1.369 . S
C1200 C1209 1.429 . S
C1201 C1199 1.419 . S
C1201 C1202 1.363 . S
C1201 H1204 0.929 . S
C1202 C1201 1.363 . S
C1202 C1208 1.428 . S
H1203 C1199 0.930 . S
H1204 C1201 0.929 . S
S1205 N1206 1.613 . S
S1205 N1207 1.610 . S
N1206 S1205 1.613 . S
N1206 C1209 1.350 . S
N1207 S1205 1.610 . S
N1207 C1208 1.351 . S
C1208 C1202 1.428 . S
C1208 N1207 1.351 . S
C1208 C1209 1.434 . S
C1209 C1200 1.429 . S
C1209 N1206 1.350 . S
C1209 C1208 1.434 . S
C1210 C1211 1.369 . S
C1210 C1212 1.419 . S
C1210 H1214 0.930 . S
C1211 C1210 1.369 . S
C1211 C1220 1.429 . S
C1212 C1210 1.419 . S
C1212 C1213 1.363 . S
C1212 H1215 0.929 . S
C1213 C1212 1.363 . S
C1213 C1219 1.428 . S
H1214 C1210 0.930 . S
H1215 C1212 0.929 . S
S1216 N1217 1.613 . S
S1216 N1218 1.610 . S
N1217 S1216 1.613 . S
N1217 C1220 1.350 . S
N1218 S1216 1.610 . S
N1218 C1219 1.351 . S
C1219 C1213 1.428 . S
C1219 N1218 1.351 . S
C1219 C1220 1.434 . S
C1220 C1211 1.429 . S
C1220 N1217 1.350 . S
C1220 C1219 1.434 . S
C1221 C1222 1.369 . S
C1221 C1223 1.419 . S
C1221 H1225 0.930 . S
C1222 C1221 1.369 . S
C1222 C1231 1.429 . S
C1223 C1221 1.419 . S
C1223 C1224 1.363 . S
C1223 H1226 0.929 . S
C1224 C1223 1.363 . S
C1224 C1230 1.428 . S
H1225 C1221 0.930 . S
H1226 C1223 0.929 . S
S1227 N1228 1.613 . S
S1227 N1229 1.610 . S
N1228 S1227 1.613 . S
N1228 C1231 1.350 . S
N1229 S1227 1.610 . S
N1229 C1230 1.351 . S
C1230 C1224 1.428 . S
C1230 N1229 1.351 . S
C1230 C1231 1.434 . S
C1231 C1222 1.429 . S
C1231 N1228 1.350 . S
C1231 C1230 1.434 . S
C1232 C1233 1.369 . S
C1232 C1234 1.419 . S
C1232 H1236 0.930 . S
C1233 C1232 1.369 . S
C1233 C1242 1.429 . S
C1234 C1232 1.419 . S
C1234 C1235 1.363 . S
C1234 H1237 0.929 . S
C1235 C1234 1.363 . S
C1235 C1241 1.428 . S
H1236 C1232 0.930 . S
H1237 C1234 0.929 . S
S1238 N1239 1.613 . S
S1238 N1240 1.610 . S
N1239 S1238 1.613 . S
N1239 C1242 1.350 . S
N1240 S1238 1.610 . S
N1240 C1241 1.351 . S
C1241 C1235 1.428 . S
C1241 N1240 1.351 . S
C1241 C1242 1.434 . S
C1242 C1233 1.429 . S
C1242 N1239 1.350 . S
C1242 C1241 1.434 . S
C1243 C1244 1.369 . S
C1243 C1245 1.419 . S
C1243 H1247 0.930 . S
C1244 C1243 1.369 . S
C1244 C1253 1.429 . S
C1245 C1243 1.419 . S
C1245 C1246 1.363 . S
C1245 H1248 0.929 . S
C1246 C1245 1.363 . S
C1246 C1252 1.428 . S
H1247 C1243 0.930 . S
H1248 C1245 0.929 . S
S1249 N1250 1.613 . S
S1249 N1251 1.610 . S
N1250 S1249 1.613 . S
N1250 C1253 1.350 . S
N1251 S1249 1.610 . S
N1251 C1252 1.351 . S
C1252 C1246 1.428 . S
C1252 N1251 1.351 . S
C1252 C1253 1.434 . S
C1253 C1244 1.429 . S
C1253 N1250 1.350 . S
C1253 C1252 1.434 . S
C1254 C1255 1.369 . S
C1254 C1256 1.419 . S
C1254 H1258 0.930 . S
C1255 C1254 1.369 . S
C1255 C1264 1.429 . S
C1256 C1254 1.419 . S
C1256 C1257 1.363 . S
C1256 H1259 0.929 . S
C1257 C1256 1.363 . S
C1257 C1263 1.428 . S
H1258 C1254 0.930 . S
H1259 C1256 0.929 . S
S1260 N1261 1.613 . S
S1260 N1262 1.610 . S
N1261 S1260 1.613 . S
N1261 C1264 1.350 . S
N1262 S1260 1.610 . S
N1262 C1263 1.351 . S
C1263 C1257 1.428 . S
C1263 N1262 1.351 . S
C1263 C1264 1.434 . S
C1264 C1255 1.429 . S
C1264 N1261 1.350 . S
C1264 C1263 1.434 . S
C1265 C1266 1.369 . S
C1265 C1267 1.419 . S
C1265 H1269 0.930 . S
C1266 C1265 1.369 . S
C1266 C1275 1.429 . S
C1267 C1265 1.419 . S
C1267 C1268 1.363 . S
C1267 H1270 0.929 . S
C1268 C1267 1.363 . S
C1268 C1274 1.428 . S
H1269 C1265 0.930 . S
H1270 C1267 0.929 . S
S1271 N1272 1.613 . S
S1271 N1273 1.610 . S
N1272 S1271 1.613 . S
N1272 C1275 1.350 . S
N1273 S1271 1.610 . S
N1273 C1274 1.351 . S
C1274 C1268 1.428 . S
C1274 N1273 1.351 . S
C1274 C1275 1.434 . S
C1275 C1266 1.429 . S
C1275 N1272 1.350 . S
C1275 C1274 1.434 . S
C1276 C1277 1.369 . S
C1276 C1278 1.419 . S
C1276 H1280 0.930 . S
C1277 C1276 1.369 . S
C1277 C1286 1.429 . S
C1278 C1276 1.419 . S
C1278 C1279 1.363 . S
C1278 H1281 0.929 . S
C1279 C1278 1.363 . S
C1279 C1285 1.428 . S
H1280 C1276 0.930 . S
H1281 C1278 0.929 . S
S1282 N1283 1.613 . S
S1282 N1284 1.610 . S
N1283 S1282 1.613 . S
N1283 C1286 1.350 . S
N1284 S1282 1.610 . S
N1284 C1285 1.351 . S
C1285 C1279 1.428 . S
C1285 N1284 1.351 . S
C1285 C1286 1.434 . S
C1286 C1277 1.429 . S
C1286 N1283 1.350 . S
C1286 C1285 1.434 . S
C1287 C1288 1.369 . S
C1287 C1289 1.419 . S
C1287 H1291 0.930 . S
C1288 C1287 1.369 . S
C1288 C1297 1.429 . S
C1289 C1287 1.419 . S
C1289 C1290 1.363 . S
C1289 H1292 0.929 . S
C1290 C1289 1.363 . S
C1290 C1296 1.428 . S
H1291 C1287 0.930 . S
H1292 C1289 0.929 . S
S1293 N1294 1.613 . S
S1293 N1295 1.610 . S
N1294 S1293 1.613 . S
N1294 C1297 1.350 . S
N1295 S1293 1.610 . S
N1295 C1296 1.351 . S
C1296 C1290 1.428 . S
C1296 N1295 1.351 . S
C1296 C1297 1.434 . S
C1297 C1288 1.429 . S
C1297 N1294 1.350 . S
C1297 C1296 1.434 . S
C1298 C1299 1.369 . S
C1298 C1300 1.419 . S
C1298 H1302 0.930 . S
C1299 C1298 1.369 . S
C1299 C1308 1.429 . S
C1300 C1298 1.419 . S
C1300 C1301 1.363 . S
C1300 H1303 0.929 . S
C1301 C1300 1.363 . S
C1301 C1307 1.428 . S
H1302 C1298 0.930 . S
H1303 C1300 0.929 . S
S1304 N1305 1.613 . S
S1304 N1306 1.610 . S
N1305 S1304 1.613 . S
N1305 C1308 1.350 . S
N1306 S1304 1.610 . S
N1306 C1307 1.351 . S
C1307 C1301 1.428 . S
C1307 N1306 1.351 . S
C1307 C1308 1.434 . S
C1308 C1299 1.429 . S
C1308 N1305 1.350 . S
C1308 C1307 1.434 . S
C1309 C1310 1.369 . S
C1309 C1311 1.419 . S
C1309 H1313 0.930 . S
C1310 C1309 1.369 . S
C1310 C1319 1.429 . S
C1311 C1309 1.419 . S
C1311 C1312 1.363 . S
C1311 H1314 0.929 . S
C1312 C1311 1.363 . S
C1312 C1318 1.428 . S
H1313 C1309 0.930 . S
H1314 C1311 0.929 . S
S1315 N1316 1.613 . S
S1315 N1317 1.610 . S
N1316 S1315 1.613 . S
N1316 C1319 1.350 . S
N1317 S1315 1.610 . S
N1317 C1318 1.351 . S
C1318 C1312 1.428 . S
C1318 N1317 1.351 . S
C1318 C1319 1.434 . S
C1319 C1310 1.429 . S
C1319 N1316 1.350 . S
C1319 C1318 1.434 . S
C1320 C1321 1.369 . S
C1320 C1322 1.419 . S
C1320 H1324 0.930 . S
C1321 C1320 1.369 . S
C1321 C1330 1.429 . S
C1322 C1320 1.419 . S
C1322 C1323 1.363 . S
C1322 H1325 0.929 . S
C1323 C1322 1.363 . S
C1323 C1329 1.428 . S
H1324 C1320 0.930 . S
H1325 C1322 0.929 . S
S1326 N1327 1.613 . S
S1326 N1328 1.610 . S
N1327 S1326 1.613 . S
N1327 C1330 1.350 . S
N1328 S1326 1.610 . S
N1328 C1329 1.351 . S
C1329 C1323 1.428 . S
C1329 N1328 1.351 . S
C1329 C1330 1.434 . S
C1330 C1321 1.429 . S
C1330 N1327 1.350 . S
C1330 C1329 1.434 . S
C1331 C1332 1.369 . S
C1331 C1333 1.419 . S
C1331 H1335 0.930 . S
C1332 C1331 1.369 . S
C1332 C1341 1.429 . S
C1333 C1331 1.419 . S
C1333 C1334 1.363 . S
C1333 H1336 0.929 . S
C1334 C1333 1.363 . S
C1334 C1340 1.428 . S
H1335 C1331 0.930 . S
H1336 C1333 0.929 . S
S1337 N1338 1.613 . S
S1337 N1339 1.610 . S
N1338 S1337 1.613 . S
N1338 C1341 1.350 . S
N1339 S1337 1.610 . S
N1339 C1340 1.351 . S
C1340 C1334 1.428 . S
C1340 N1339 1.351 . S
C1340 C1341 1.434 . S
C1341 C1332 1.429 . S
C1341 N1338 1.350 . S
C1341 C1340 1.434 . S
C1342 C1343 1.369 . S
C1342 C1344 1.419 . S
C1342 H1346 0.930 . S
C1343 C1342 1.369 . S
C1343 C1352 1.429 . S
C1344 C1342 1.419 . S
C1344 C1345 1.363 . S
C1344 H1347 0.929 . S
C1345 C1344 1.363 . S
C1345 C1351 1.428 . S
H1346 C1342 0.930 . S
H1347 C1344 0.929 . S
S1348 N1349 1.613 . S
S1348 N1350 1.610 . S
N1349 S1348 1.613 . S
N1349 C1352 1.350 . S
N1350 S1348 1.610 . S
N1350 C1351 1.351 . S
C1351 C1345 1.428 . S
C1351 N1350 1.351 . S
C1351 C1352 1.434 . S
C1352 C1343 1.429 . S
C1352 N1349 1.350 . S
C1352 C1351 1.434 . S
C1353 C1354 1.369 . S
C1353 C1355 1.419 . S
C1353 H1357 0.930 . S
C1354 C1353 1.369 . S
C1354 C1363 1.429 . S
C1355 C1353 1.419 . S
C1355 C1356 1.363 . S
C1355 H1358 0.929 . S
C1356 C1355 1.363 . S
C1356 C1362 1.428 . S
H1357 C1353 0.930 . S
H1358 C1355 0.929 . S
S1359 N1360 1.613 . S
S1359 N1361 1.610 . S
N1360 S1359 1.613 . S
N1360 C1363 1.350 . S
N1361 S1359 1.610 . S
N1361 C1362 1.351 . S
C1362 C1356 1.428 . S
C1362 N1361 1.351 . S
C1362 C1363 1.434 . S
C1363 C1354 1.429 . S
C1363 N1360 1.350 . S
C1363 C1362 1.434 . S
C1364 C1365 1.369 . S
C1364 C1366 1.419 . S
C1364 H1368 0.930 . S
C1365 C1364 1.369 . S
C1365 C1374 1.429 . S
C1366 C1364 1.419 . S
C1366 C1367 1.363 . S
C1366 H1369 0.929 . S
C1367 C1366 1.363 . S
C1367 C1373 1.428 . S
H1368 C1364 0.930 . S
H1369 C1366 0.929 . S
S1370 N1371 1.613 . S
S1370 N1372 1.610 . S
N1371 S1370 1.613 . S
N1371 C1374 1.350 . S
N1372 S1370 1.610 . S
N1372 C1373 1.351 . S
C1373 C1367 1.428 . S
C1373 N1372 1.351 . S
C1373 C1374 1.434 . S
C1374 C1365 1.429 . S
C1374 N1371 1.350 . S
C1374 C1373 1.434 . S
C1375 C1376 1.369 . S
C1375 C1377 1.419 . S
C1375 H1379 0.930 . S
C1376 C1375 1.369 . S
C1376 C1385 1.429 . S
C1377 C1375 1.419 . S
C1377 C1378 1.363 . S
C1377 H1380 0.929 . S
C1378 C1377 1.363 . S
C1378 C1384 1.428 . S
H1379 C1375 0.930 . S
H1380 C1377 0.929 . S
S1381 N1382 1.613 . S
S1381 N1383 1.610 . S
N1382 S1381 1.613 . S
N1382 C1385 1.350 . S
N1383 S1381 1.610 . S
N1383 C1384 1.351 . S
C1384 C1378 1.428 . S
C1384 N1383 1.351 . S
C1384 C1385 1.434 . S
C1385 C1376 1.429 . S
C1385 N1382 1.350 . S
C1385 C1384 1.434 . S
C861 C683 1.650 . S
C859 C74 1.556 . S
C872 C673 0.815 . S
C870 C142 0.896 . S
C883 C674 1.398 . S
C881 C231 1.279 . S
C892 C322 1.280 . S
C894 C696 1.335 . S
C903 C406 0.912 . S
C905 C699 0.793 . S
C916 C682 1.402 . S
C914 C494 1.294 . S
C925 C562 1.285 . S
C927 C672 1.331 . S
C936 C651 1.558 . S
C938 C690 1.651 . S
C949 C703 1.379 . S
C947 C58 1.350 . S
C958 C151 1.692 . S
C960 C752 1.632 . S
C971 C730 2.626 . S
C969 C224 2.505 . S
C982 C744 1.242 . S
C980 C315 1.255 . S
C991 C399 1.263 . S
C993 C705 1.237 . S
C1004 C758 1.405 . S
C1002 C478 1.476 . S
C1013 C571 1.583 . S
C1015 C714 1.622 . S
C1024 C644 2.500 . S
C1026 C735 2.583 . S
C1035 C67 2.494 . S
C1037 C761 2.585 . S
C1046 C392 1.692 . S
C1048 C745 1.636 . S
C1059 C704 2.627 . S
C1057 C487 2.506 . S
C1070 C736 1.242 . S
C1068 C578 1.256 . S
C1079 C658 1.361 . S
C1081 C727 1.380 . S
C1090 C238 1.478 . S
C1092 C734 1.407 . S
C1103 C721 1.621 . S
C1101 C308 1.585 . S
C1112 C158 1.252 . S
C1114 C713 1.244 . S
C1123 C662 1.550 . S
C1125 C776 1.648 . S
C1134 C394 0.901 . S
C1136 C766 0.804 . S
C1147 C767 1.402 . S
C1145 C483 1.294 . S
C1158 C789 1.335 . S
C1156 C574 1.272 . S
C1167 C154 0.913 . S
C1169 C792 0.792 . S
C1180 C775 1.402 . S
C1178 C242 1.287 . S
C1189 C310 1.273 . S
C1191 C765 1.336 . S
C1200 C63 1.554 . S
C1202 C783 1.649 . S
C1211 C646 1.351 . S
C1213 C796 1.381 . S
C1224 C845 1.630 . S
C1222 C403 1.689 . S
C1233 C476 2.507 . S
C1235 C823 2.625 . S
C1244 C567 1.257 . S
C1246 C837 1.243 . S
C1257 C798 1.241 . S
C1255 C147 1.254 . S
C1266 C226 1.472 . S
C1268 C851 1.406 . S
C1279 C807 1.622 . S
C1277 C319 1.582 . S
C1290 C828 2.582 . S
C1288 C56 2.494 . S
C1301 C854 2.585 . S
C1299 C655 2.496 . S
C1310 C140 1.686 . S
C1312 C838 1.631 . S
C1321 C235 2.499 . S
C1323 C797 2.628 . S
C1334 C829 1.242 . S
C1332 C326 1.254 . S
C1343 C70 1.360 . S
C1345 C820 1.382 . S
C1354 C490 1.476 . S
C1356 C827 1.411 . S
C1367 C814 1.622 . S
C1365 C560 1.584 . S
C1378 C806 1.238 . S
C1376 C410 1.262 . S
