# Generated by pormake.
# Topology gar, (4,6)-cn, num edge types: 1
# Building blocks:
#     Node 0, Type 0, BuildingBlock: NAHDIM_clean_sbu_0, # of connection points: 4
#     Node 1, Type 0, BuildingBlock: NAHDIM_clean_sbu_0, # of connection points: 4
#     Node 2, Type 0, BuildingBlock: NAHDIM_clean_sbu_0, # of connection points: 4
#     Node 3, Type 0, BuildingBlock: NAHDIM_clean_sbu_0, # of connection points: 4
#     Node 4, Type 0, BuildingBlock: NAHDIM_clean_sbu_0, # of connection points: 4
#     Node 5, Type 0, BuildingBlock: NAHDIM_clean_sbu_0, # of connection points: 4
#     Node 6, Type 0, BuildingBlock: NAHDIM_clean_sbu_0, # of connection points: 4
#     Node 7, Type 0, BuildingBlock: NAHDIM_clean_sbu_0, # of connection points: 4
#     Node 8, Type 0, BuildingBlock: NAHDIM_clean_sbu_0, # of connection points: 4
#     Node 9, Type 0, BuildingBlock: NAHDIM_clean_sbu_0, # of connection points: 4
#     Node 10, Type 0, BuildingBlock: NAHDIM_clean_sbu_0, # of connection points: 4
#     Node 11, Type 0, BuildingBlock: NAHDIM_clean_sbu_0, # of connection points: 4
#     Node 12, Type 0, BuildingBlock: NAHDIM_clean_sbu_0, # of connection points: 4
#     Node 13, Type 0, BuildingBlock: NAHDIM_clean_sbu_0, # of connection points: 4
#     Node 14, Type 0, BuildingBlock: NAHDIM_clean_sbu_0, # of connection points: 4
#     Node 15, Type 0, BuildingBlock: NAHDIM_clean_sbu_0, # of connection points: 4
#     Node 16, Type 0, BuildingBlock: NAHDIM_clean_sbu_0, # of connection points: 4
#     Node 17, Type 0, BuildingBlock: NAHDIM_clean_sbu_0, # of connection points: 4
#     Node 18, Type 0, BuildingBlock: NAHDIM_clean_sbu_0, # of connection points: 4
#     Node 19, Type 0, BuildingBlock: NAHDIM_clean_sbu_0, # of connection points: 4
#     Node 20, Type 0, BuildingBlock: NAHDIM_clean_sbu_0, # of connection points: 4
#     Node 21, Type 0, BuildingBlock: NAHDIM_clean_sbu_0, # of connection points: 4
#     Node 22, Type 0, BuildingBlock: NAHDIM_clean_sbu_0, # of connection points: 4
#     Node 23, Type 0, BuildingBlock: NAHDIM_clean_sbu_0, # of connection points: 4
#     Node 24, Type 1, BuildingBlock: PAMTUU_clean_sbu_0, # of connection points: 6
#     Node 25, Type 1, BuildingBlock: PAMTUU_clean_sbu_0, # of connection points: 6
#     Node 26, Type 1, BuildingBlock: PAMTUU_clean_sbu_0, # of connection points: 6
#     Node 27, Type 1, BuildingBlock: PAMTUU_clean_sbu_0, # of connection points: 6
#     Node 28, Type 1, BuildingBlock: PAMTUU_clean_sbu_0, # of connection points: 6
#     Node 29, Type 1, BuildingBlock: PAMTUU_clean_sbu_0, # of connection points: 6
#     Node 30, Type 1, BuildingBlock: PAMTUU_clean_sbu_0, # of connection points: 6
#     Node 31, Type 1, BuildingBlock: PAMTUU_clean_sbu_0, # of connection points: 6
#     Node 32, Type 1, BuildingBlock: PAMTUU_clean_sbu_0, # of connection points: 6
#     Node 33, Type 1, BuildingBlock: PAMTUU_clean_sbu_0, # of connection points: 6
#     Node 34, Type 1, BuildingBlock: PAMTUU_clean_sbu_0, # of connection points: 6
#     Node 35, Type 1, BuildingBlock: PAMTUU_clean_sbu_0, # of connection points: 6
#     Node 36, Type 1, BuildingBlock: PAMTUU_clean_sbu_0, # of connection points: 6
#     Node 37, Type 1, BuildingBlock: PAMTUU_clean_sbu_0, # of connection points: 6
#     Node 38, Type 1, BuildingBlock: PAMTUU_clean_sbu_0, # of connection points: 6
#     Node 39, Type 1, BuildingBlock: PAMTUU_clean_sbu_0, # of connection points: 6
#     Edge 40, Type (0, 1), BuildingBlock: TEMPAE_clean_linker_10, # of connection points: 2
#     Edge 41, Type (0, 1), BuildingBlock: TEMPAE_clean_linker_10, # of connection points: 2
#     Edge 42, Type (0, 1), BuildingBlock: TEMPAE_clean_linker_10, # of connection points: 2
#     Edge 43, Type (0, 1), BuildingBlock: TEMPAE_clean_linker_10, # of connection points: 2
#     Edge 44, Type (0, 1), BuildingBlock: TEMPAE_clean_linker_10, # of connection points: 2
#     Edge 45, Type (0, 1), BuildingBlock: TEMPAE_clean_linker_10, # of connection points: 2
#     Edge 46, Type (0, 1), BuildingBlock: TEMPAE_clean_linker_10, # of connection points: 2
#     Edge 47, Type (0, 1), BuildingBlock: TEMPAE_clean_linker_10, # of connection points: 2
#     Edge 48, Type (0, 1), BuildingBlock: TEMPAE_clean_linker_10, # of connection points: 2
#     Edge 49, Type (0, 1), BuildingBlock: TEMPAE_clean_linker_10, # of connection points: 2
#     Edge 50, Type (0, 1), BuildingBlock: TEMPAE_clean_linker_10, # of connection points: 2
#     Edge 51, Type (0, 1), BuildingBlock: TEMPAE_clean_linker_10, # of connection points: 2
#     Edge 52, Type (0, 1), BuildingBlock: TEMPAE_clean_linker_10, # of connection points: 2
#     Edge 53, Type (0, 1), BuildingBlock: TEMPAE_clean_linker_10, # of connection points: 2
#     Edge 54, Type (0, 1), BuildingBlock: TEMPAE_clean_linker_10, # of connection points: 2
#     Edge 55, Type (0, 1), BuildingBlock: TEMPAE_clean_linker_10, # of connection points: 2
#     Edge 56, Type (0, 1), BuildingBlock: TEMPAE_clean_linker_10, # of connection points: 2
#     Edge 57, Type (0, 1), BuildingBlock: TEMPAE_clean_linker_10, # of connection points: 2
#     Edge 58, Type (0, 1), BuildingBlock: TEMPAE_clean_linker_10, # of connection points: 2
#     Edge 59, Type (0, 1), BuildingBlock: TEMPAE_clean_linker_10, # of connection points: 2
#     Edge 60, Type (0, 1), BuildingBlock: TEMPAE_clean_linker_10, # of connection points: 2
#     Edge 61, Type (0, 1), BuildingBlock: TEMPAE_clean_linker_10, # of connection points: 2
#     Edge 62, Type (0, 1), BuildingBlock: TEMPAE_clean_linker_10, # of connection points: 2
#     Edge 63, Type (0, 1), BuildingBlock: TEMPAE_clean_linker_10, # of connection points: 2
#     Edge 64, Type (0, 1), BuildingBlock: TEMPAE_clean_linker_10, # of connection points: 2
#     Edge 65, Type (0, 1), BuildingBlock: TEMPAE_clean_linker_10, # of connection points: 2
#     Edge 66, Type (0, 1), BuildingBlock: TEMPAE_clean_linker_10, # of connection points: 2
#     Edge 67, Type (0, 1), BuildingBlock: TEMPAE_clean_linker_10, # of connection points: 2
#     Edge 68, Type (0, 1), BuildingBlock: TEMPAE_clean_linker_10, # of connection points: 2
#     Edge 69, Type (0, 1), BuildingBlock: TEMPAE_clean_linker_10, # of connection points: 2
#     Edge 70, Type (0, 1), BuildingBlock: TEMPAE_clean_linker_10, # of connection points: 2
#     Edge 71, Type (0, 1), BuildingBlock: TEMPAE_clean_linker_10, # of connection points: 2
#     Edge 72, Type (0, 1), BuildingBlock: TEMPAE_clean_linker_10, # of connection points: 2
#     Edge 73, Type (0, 1), BuildingBlock: TEMPAE_clean_linker_10, # of connection points: 2
#     Edge 74, Type (0, 1), BuildingBlock: TEMPAE_clean_linker_10, # of connection points: 2
#     Edge 75, Type (0, 1), BuildingBlock: TEMPAE_clean_linker_10, # of connection points: 2
#     Edge 76, Type (0, 1), BuildingBlock: TEMPAE_clean_linker_10, # of connection points: 2
#     Edge 77, Type (0, 1), BuildingBlock: TEMPAE_clean_linker_10, # of connection points: 2
#     Edge 78, Type (0, 1), BuildingBlock: TEMPAE_clean_linker_10, # of connection points: 2
#     Edge 79, Type (0, 1), BuildingBlock: TEMPAE_clean_linker_10, # of connection points: 2
#     Edge 80, Type (0, 1), BuildingBlock: TEMPAE_clean_linker_10, # of connection points: 2
#     Edge 81, Type (0, 1), BuildingBlock: TEMPAE_clean_linker_10, # of connection points: 2
#     Edge 82, Type (0, 1), BuildingBlock: TEMPAE_clean_linker_10, # of connection points: 2
#     Edge 83, Type (0, 1), BuildingBlock: TEMPAE_clean_linker_10, # of connection points: 2
#     Edge 84, Type (0, 1), BuildingBlock: TEMPAE_clean_linker_10, # of connection points: 2
#     Edge 85, Type (0, 1), BuildingBlock: TEMPAE_clean_linker_10, # of connection points: 2
#     Edge 86, Type (0, 1), BuildingBlock: TEMPAE_clean_linker_10, # of connection points: 2
#     Edge 87, Type (0, 1), BuildingBlock: TEMPAE_clean_linker_10, # of connection points: 2
#     Edge 88, Type (0, 1), BuildingBlock: TEMPAE_clean_linker_10, # of connection points: 2
#     Edge 89, Type (0, 1), BuildingBlock: TEMPAE_clean_linker_10, # of connection points: 2
#     Edge 90, Type (0, 1), BuildingBlock: TEMPAE_clean_linker_10, # of connection points: 2
#     Edge 91, Type (0, 1), BuildingBlock: TEMPAE_clean_linker_10, # of connection points: 2
#     Edge 92, Type (0, 1), BuildingBlock: TEMPAE_clean_linker_10, # of connection points: 2
#     Edge 93, Type (0, 1), BuildingBlock: TEMPAE_clean_linker_10, # of connection points: 2
#     Edge 94, Type (0, 1), BuildingBlock: TEMPAE_clean_linker_10, # of connection points: 2
#     Edge 95, Type (0, 1), BuildingBlock: TEMPAE_clean_linker_10, # of connection points: 2
#     Edge 96, Type (0, 1), BuildingBlock: TEMPAE_clean_linker_10, # of connection points: 2
#     Edge 97, Type (0, 1), BuildingBlock: TEMPAE_clean_linker_10, # of connection points: 2
#     Edge 98, Type (0, 1), BuildingBlock: TEMPAE_clean_linker_10, # of connection points: 2
#     Edge 99, Type (0, 1), BuildingBlock: TEMPAE_clean_linker_10, # of connection points: 2
#     Edge 100, Type (0, 1), BuildingBlock: TEMPAE_clean_linker_10, # of connection points: 2
#     Edge 101, Type (0, 1), BuildingBlock: TEMPAE_clean_linker_10, # of connection points: 2
#     Edge 102, Type (0, 1), BuildingBlock: TEMPAE_clean_linker_10, # of connection points: 2
#     Edge 103, Type (0, 1), BuildingBlock: TEMPAE_clean_linker_10, # of connection points: 2
#     Edge 104, Type (0, 1), BuildingBlock: TEMPAE_clean_linker_10, # of connection points: 2
#     Edge 105, Type (0, 1), BuildingBlock: TEMPAE_clean_linker_10, # of connection points: 2
#     Edge 106, Type (0, 1), BuildingBlock: TEMPAE_clean_linker_10, # of connection points: 2
#     Edge 107, Type (0, 1), BuildingBlock: TEMPAE_clean_linker_10, # of connection points: 2
#     Edge 108, Type (0, 1), BuildingBlock: TEMPAE_clean_linker_10, # of connection points: 2
#     Edge 109, Type (0, 1), BuildingBlock: TEMPAE_clean_linker_10, # of connection points: 2
#     Edge 110, Type (0, 1), BuildingBlock: TEMPAE_clean_linker_10, # of connection points: 2
#     Edge 111, Type (0, 1), BuildingBlock: TEMPAE_clean_linker_10, # of connection points: 2
#     Edge 112, Type (0, 1), BuildingBlock: TEMPAE_clean_linker_10, # of connection points: 2
#     Edge 113, Type (0, 1), BuildingBlock: TEMPAE_clean_linker_10, # of connection points: 2
#     Edge 114, Type (0, 1), BuildingBlock: TEMPAE_clean_linker_10, # of connection points: 2
#     Edge 115, Type (0, 1), BuildingBlock: TEMPAE_clean_linker_10, # of connection points: 2
#     Edge 116, Type (0, 1), BuildingBlock: TEMPAE_clean_linker_10, # of connection points: 2
#     Edge 117, Type (0, 1), BuildingBlock: TEMPAE_clean_linker_10, # of connection points: 2
#     Edge 118, Type (0, 1), BuildingBlock: TEMPAE_clean_linker_10, # of connection points: 2
#     Edge 119, Type (0, 1), BuildingBlock: TEMPAE_clean_linker_10, # of connection points: 2
#     Edge 120, Type (0, 1), BuildingBlock: TEMPAE_clean_linker_10, # of connection points: 2
#     Edge 121, Type (0, 1), BuildingBlock: TEMPAE_clean_linker_10, # of connection points: 2
#     Edge 122, Type (0, 1), BuildingBlock: TEMPAE_clean_linker_10, # of connection points: 2
#     Edge 123, Type (0, 1), BuildingBlock: TEMPAE_clean_linker_10, # of connection points: 2
#     Edge 124, Type (0, 1), BuildingBlock: TEMPAE_clean_linker_10, # of connection points: 2
#     Edge 125, Type (0, 1), BuildingBlock: TEMPAE_clean_linker_10, # of connection points: 2
#     Edge 126, Type (0, 1), BuildingBlock: TEMPAE_clean_linker_10, # of connection points: 2
#     Edge 127, Type (0, 1), BuildingBlock: TEMPAE_clean_linker_10, # of connection points: 2
#     Edge 128, Type (0, 1), BuildingBlock: TEMPAE_clean_linker_10, # of connection points: 2
#     Edge 129, Type (0, 1), BuildingBlock: TEMPAE_clean_linker_10, # of connection points: 2
#     Edge 130, Type (0, 1), BuildingBlock: TEMPAE_clean_linker_10, # of connection points: 2
#     Edge 131, Type (0, 1), BuildingBlock: TEMPAE_clean_linker_10, # of connection points: 2
#     Edge 132, Type (0, 1), BuildingBlock: TEMPAE_clean_linker_10, # of connection points: 2
#     Edge 133, Type (0, 1), BuildingBlock: TEMPAE_clean_linker_10, # of connection points: 2
#     Edge 134, Type (0, 1), BuildingBlock: TEMPAE_clean_linker_10, # of connection points: 2
#     Edge 135, Type (0, 1), BuildingBlock: TEMPAE_clean_linker_10, # of connection points: 2
# Relax obj value: 0.193
# Max RMSD: 0.332
# Mean RMSD: 0.187
data_MOF--net-gar--node1-NAHDIM_clean_sbu_0--node2-PAMTUU_clean_sbu_0--edge1-TEMPAE_clean_linker_10
_symmetry_space_group_name_H-M    P1
_symmetry_Int_Tables_number       1
_symmetry_cell_setting            triclinic
loop_
_symmetry_equiv_pos_as_xyz
'x, y, z'
_cell_length_a     62.030084
_cell_length_b     57.384815
_cell_length_c     58.741303
_cell_angle_alpha  93.978618
_cell_angle_beta   94.049223
_cell_angle_gamma 107.98337
loop_
_atom_site_label
_atom_site_type_symbol
_atom_site_fract_x
_atom_site_fract_y
_atom_site_fract_z
_atom_type_partial_charge
C0 C 0.103 0.29357 0.35955 0.0
O1 O 0.09099 0.30123 0.34418 0.0
O2 O 0.05734 0.2519 0.41664 0.0
Zn3 Zn 0.05957 0.28483 0.39576 0.0
O4 O 0.06369 0.31952 0.41908 0.0
C5 C 1.00719 0.28323 0.38132 0.0
O6 O 1.00786 0.28708 0.40371 0.0
O7 O 0.09363 0.28744 0.37853 0.0
C8 C 0.05503 0.33679 0.41434 0.0
O9 O 0.044 0.33438 0.39395 0.0
C10 C 0.04113 0.23258 0.42109 0.0
O11 O 0.02031 0.23058 0.4129 0.0
O12 O 0.02567 0.28068 0.37345 0.0
C13 C 1.00024 0.80278 0.68927 0.0
O14 O 1.00036 0.81306 0.66996 0.0
O15 O 0.04523 0.76413 0.6515 0.0
Zn16 Zn 0.05032 0.79945 0.67411 0.0
O17 O 0.05164 0.83122 0.65191 0.0
C18 C 0.10329 0.80069 0.68735 0.0
O19 O 0.10223 0.79575 0.66505 0.0
O20 O 0.01811 0.79586 0.69478 0.0
C21 C 0.06434 0.85422 0.65401 0.0
O22 O 0.08017 0.86126 0.67139 0.0
C23 C 0.05479 0.74731 0.65526 0.0
O24 O 0.06785 0.75035 0.67452 0.0
O25 O 0.0851 0.80407 0.69524 0.0
C26 C 0.6096 0.7856 0.87938 0.0
O27 O 0.61055 0.776 0.89894 0.0
O28 O 0.55868 0.75597 0.91863 0.0
Zn29 Zn 0.55966 0.78789 0.8962 0.0
O30 O 0.56651 0.82383 0.91813 0.0
C31 C 0.50648 0.77108 0.86556 0.0
O32 O 0.50722 0.74871 0.86043 0.0
O33 O 0.59112 0.79162 0.87426 0.0
C34 C 0.55081 0.83214 0.92568 0.0
O35 O 0.52965 0.81775 0.92121 0.0
C36 C 0.54489 0.73352 0.91832 0.0
O37 O 0.52714 0.72693 0.90295 0.0
O38 O 0.52433 0.78651 0.87774 0.0
C39 C 0.50136 0.30098 0.19223 0.0
O40 O 0.49999 0.30898 0.17193 0.0
O41 O 0.54623 0.26451 0.15503 0.0
Zn42 Zn 0.55189 0.30051 0.1765 0.0
O43 O 0.55183 0.33269 0.15493 0.0
C44 C 0.59786 0.28956 0.19939 0.0
O45 O 0.58538 0.26653 0.19385 0.0
O46 O 0.52035 0.29634 0.19824 0.0
C47 C 0.56741 0.35338 0.15231 0.0
O48 O 0.5877 0.35712 0.16296 0.0
C49 C 0.5616 0.25766 0.14499 0.0
O50 O 0.58188 0.27405 0.14561 0.0
O51 O 0.58797 0.30628 0.19554 0.0
C52 C 0.05242 0.81152 0.14964 0.0
O53 O 0.04824 0.81315 0.12767 0.0
O54 O 0.08749 0.77899 0.11732 0.0
Zn55 Zn 0.09533 0.81365 0.13403 0.0
O56 O 0.09212 0.84097 0.11418 0.0
C57 C 0.13198 0.80313 0.15889 0.0
O58 O 0.11681 0.78116 0.15497 0.0
O59 O 0.07211 0.81124 0.15709 0.0
C60 C 0.10749 0.86119 0.11198 0.0
O61 O 0.12836 0.86475 0.12106 0.0
C62 C 0.08584 0.77061 0.09641 0.0
O63 O 0.08871 0.78588 0.0804 0.0
O64 O 0.12694 0.82142 0.15161 0.0
C65 C 0.55701 0.77791 0.42147 0.0
O66 O 0.56237 0.78331 0.44367 0.0
O67 O 0.51287 0.74023 0.45492 0.0
Zn68 Zn 0.51223 0.76893 0.43588 0.0
O69 O 0.52026 0.80272 0.45416 0.0
C70 C 0.47961 0.78073 0.40656 0.0
O71 O 0.49695 0.80112 0.4083 0.0
O72 O 0.53616 0.77145 0.41368 0.0
C73 C 0.50797 0.8092 0.46821 0.0
O74 O 0.48946 0.7927 0.4734 0.0
C75 C 0.51396 0.72089 0.44358 0.0
O76 O 0.51323 0.72039 0.42113 0.0
O77 O 0.48167 0.76282 0.41722 0.0
C78 C 0.54568 0.29215 0.64998 0.0
O79 O 0.54065 0.2842 0.62813 0.0
O80 O 0.58519 0.27696 0.61455 0.0
Zn81 Zn 0.59163 0.30852 0.63624 0.0
O82 O 0.59082 0.33976 0.62102 0.0
C83 C 0.6413 0.31823 0.65056 0.0
O84 O 0.64514 0.32551 0.6301 0.0
O85 O 0.56644 0.3027 0.65747 0.0
C86 C 0.60188 0.35133 0.60555 0.0
O87 O 0.61714 0.34311 0.59632 0.0
C88 C 0.58726 0.25873 0.62476 0.0
O89 O 0.59285 0.26205 0.64702 0.0
O90 O 0.62104 0.31207 0.65635 0.0
C91 C 0.05376 0.28158 0.92393 0.0
O92 O 0.05831 0.28552 0.94632 0.0
O93 O 1.00692 0.23878 0.95135 0.0
Zn94 Zn 1.00792 0.27063 0.93655 0.0
O95 O 0.01503 0.3017 0.95913 0.0
C96 C 0.96684 0.24943 0.90305 0.0
O97 O 0.97385 0.23008 0.90077 0.0
O98 O 0.03312 0.27548 0.91545 0.0
C99 C 0.01988 0.32203 0.95005 0.0
O100 O 0.02049 0.32141 0.92771 0.0
C101 C 0.01598 0.23784 0.9713 0.0
O102 O 0.0251 0.2584 0.98469 0.0
O103 O 0.97822 0.26767 0.91716 0.0
C104 C 0.42447 0.09855 0.28548 0.0
O105 O 0.44198 0.09461 0.2765 0.0
O106 O 0.45051 0.05508 0.29437 0.0
Zn107 Zn 0.43139 0.06456 0.31686 0.0
O108 O 0.45124 0.07871 0.34591 0.0
C109 C 0.40771 0.01904 0.33619 0.0
O110 O 0.42569 0.02509 0.35124 0.0
O111 O 0.41761 0.08842 0.30337 0.0
C112 C 0.44327 0.08033 0.36504 0.0
O113 O 0.4211 0.07421 0.36572 0.0
C114 C 0.45834 0.03724 0.2963 0.0
O115 O 0.45433 0.02451 0.31413 0.0
O116 O 0.4064 0.03351 0.32109 0.0
C117 C 0.32881 0.17039 0.54997 0.0
O118 O 0.31616 0.17031 0.56702 0.0
O119 O 0.30933 0.22119 0.56476 0.0
Zn120 Zn 0.30445 0.20215 0.53293 0.0
O121 O 0.3099 0.22172 0.50443 0.0
C122 C 0.25574 0.18278 0.53676 0.0
O123 O 0.25814 0.20594 0.54295 0.0
O124 O 0.32677 0.18279 0.53329 0.0
C125 C 0.29503 0.2272 0.49163 0.0
O126 O 0.27419 0.22213 0.49761 0.0
C127 C 0.3045 0.24027 0.57192 0.0
O128 O 0.29646 0.25238 0.55709 0.0
O129 O 0.27287 0.17701 0.5307 0.0
C130 C 0.19285 0.98899 0.79763 0.0
O131 O 0.1779 0.99545 0.78471 0.0
O132 O 0.15909 0.02548 0.80964 0.0
Zn133 Zn 0.18598 0.02483 0.8303 0.0
O134 O 0.17687 0.02093 0.86226 0.0
C135 C 0.21443 0.06426 0.8092 0.0
O136 O 0.20373 0.04976 0.79087 0.0
O137 O 0.19811 0.99831 0.81833 0.0
C138 C 0.18147 0.03988 0.87652 0.0
O139 O 0.19335 0.06133 0.87041 0.0
C140 C 0.15232 0.04423 0.81111 0.0
O141 O 0.16195 0.06199 0.82748 0.0
O142 O 0.21018 0.05713 0.82887 0.0
C143 C 0.27394 0.96445 0.03902 0.0
O144 O 0.28215 0.95254 0.0539 0.0
O145 O 0.29828 0.91808 0.03128 0.0
Zn146 Zn 0.2997 0.94422 0.01004 0.0
O147 O 0.29334 0.92909 0.9776 0.0
C148 C 0.34252 0.97493 0.03316 0.0
O149 O 0.33163 0.97081 0.05159 0.0
O150 O 0.27883 0.96334 0.01841 0.0
C151 C 0.30729 0.91793 0.97213 0.0
O152 O 0.3232 0.91708 0.98776 0.0
C153 C 0.28613 0.89561 0.02797 0.0
O154 O 0.27241 0.88764 0.00904 0.0
O155 O 0.33188 0.96631 0.01361 0.0
C156 C 0.26569 0.39467 0.03178 0.0
O157 O 0.2608 0.37454 0.0177 0.0
O158 O 0.30637 0.36409 0.07359 0.0
Zn159 Zn 0.30755 0.38317 0.0448 0.0
O160 O 0.30494 0.36444 0.01308 0.0
C161 C 0.35559 0.40316 0.04199 0.0
O162 O 0.35317 0.37972 0.03723 0.0
O163 O 0.28423 0.40139 0.04481 0.0
C164 C 0.29514 0.34242 0.00436 0.0
O165 O 0.28364 0.32601 0.01721 0.0
C166 C 0.29017 0.36143 0.08645 0.0
O167 O 0.2729 0.36886 0.07986 0.0
O168 O 0.3383 0.40932 0.04678 0.0
C169 C 0.83329 0.11679 0.03009 0.0
O170 O 0.81887 0.12228 0.01561 0.0
O171 O 0.82568 0.16147 0.09265 0.0
Zn172 Zn 0.81941 0.14933 0.0592 0.0
O173 O 0.8262 0.17712 0.03901 0.0
C174 C 0.77153 0.13872 0.06132 0.0
O175 O 0.77843 0.15825 0.07629 0.0
O176 O 0.83679 0.12661 0.05064 0.0
C177 C 0.82019 0.19619 0.04286 0.0
O178 O 0.81071 0.19902 0.06171 0.0
C179 C 0.84024 0.18206 0.09996 0.0
O180 O 0.85283 0.19536 0.08554 0.0
O181 O 0.78622 0.13085 0.0522 0.0
C182 C 0.19045 0.49836 0.28121 0.0
O183 O 0.17523 0.50556 0.29162 0.0
O184 O 0.15532 0.50901 0.22266 0.0
Zn185 Zn 0.18039 0.5272 0.2466 0.0
O186 O 0.16817 0.5442 0.27093 0.0
C187 C 0.19561 0.57089 0.22649 0.0
O188 O 0.17343 0.56646 0.22439 0.0
O189 O 0.195 0.50478 0.26135 0.0
C190 C 0.18227 0.56059 0.285 0.0
O191 O 0.20416 0.56604 0.28277 0.0
C192 C 0.13482 0.50104 0.22744 0.0
O193 O 0.13028 0.50351 0.24882 0.0
O194 O 0.20341 0.55447 0.23376 0.0
C195 C 0.75879 0.89446 0.52921 0.0
O196 O 0.75035 0.87041 0.52508 0.0
O197 O 0.79793 0.86766 0.56606 0.0
Zn198 Zn 0.80301 0.88561 0.53649 0.0
O199 O 0.80186 0.86631 0.50522 0.0
C200 C 0.85242 0.91013 0.54838 0.0
O201 O 0.8523 0.88964 0.55709 0.0
O202 O 0.78015 0.90427 0.53405 0.0
C203 C 0.78982 0.84535 0.4954 0.0
O204 O 0.77459 0.83049 0.50666 0.0
C205 C 0.80557 0.85113 0.57361 0.0
O206 O 0.81805 0.84183 0.56086 0.0
O207 O 0.83378 0.91222 0.53979 0.0
C208 C 0.88637 0.0542 0.26511 0.0
O209 O 0.88667 0.03343 0.273 0.0
O210 O 0.92684 0.05039 0.20573 0.0
Zn211 Zn 0.90954 0.03694 0.23189 0.0
O212 O 0.92998 0.02793 0.25571 0.0
C213 C 0.88775 0.98941 0.20792 0.0
O214 O 0.90777 0.99317 0.20011 0.0
O215 O 0.89579 0.06043 0.24697 0.0
C216 C 0.92381 0.0078 0.26497 0.0
O217 O 0.90351 0.99199 0.25881 0.0
C218 C 0.94845 0.05815 0.20823 0.0
O219 O 0.95909 0.05897 0.22856 0.0
O220 O 0.88427 0.00656 0.22043 0.0
C221 C 0.35006 0.61739 0.55865 0.0
O222 O 0.35819 0.64116 0.55694 0.0
O223 O 0.31542 0.64684 0.60072 0.0
Zn224 Zn 0.30895 0.62774 0.56959 0.0
O225 O 0.30981 0.6505 0.54457 0.0
C226 C 0.2667 0.59414 0.583 0.0
O227 O 0.27644 0.59938 0.60412 0.0
O228 O 0.33011 0.60839 0.56453 0.0
C229 C 0.29116 0.65268 0.53603 0.0
O230 O 0.27207 0.64059 0.54406 0.0
C231 C 0.30026 0.656 0.60684 0.0
O232 O 0.28212 0.65297 0.59257 0.0
O233 O 0.27769 0.60341 0.56665 0.0
C234 C 0.40821 0.59642 0.74861 0.0
O235 O 0.43044 0.60378 0.75329 0.0
O236 O 0.42937 0.55623 0.70231 0.0
Zn237 Zn 0.41466 0.55129 0.73152 0.0
O238 O 0.43756 0.55372 0.75804 0.0
C239 C 0.39743 0.49859 0.7245 0.0
O240 O 0.41755 0.50105 0.71742 0.0
O241 O 0.39828 0.57523 0.73828 0.0
C242 C 0.43003 0.54852 0.77721 0.0
O243 O 0.40805 0.54317 0.7789 0.0
C244 C 0.44805 0.55164 0.70132 0.0
O245 O 0.45712 0.54475 0.71951 0.0
O246 O 0.39212 0.51769 0.73021 0.0
C247 C 0.67297 0.9659 0.78201 0.0
O248 O 0.65643 0.97081 0.79211 0.0
O249 O 0.64603 0.98342 0.71813 0.0
Zn250 Zn 0.66327 0.99684 0.74875 0.0
O251 O 0.64229 1.00494 0.76997 0.0
C252 C 0.68788 0.04233 0.7303 0.0
O253 O 0.67198 0.03478 0.713 0.0
O254 O 0.67784 0.97397 0.76277 0.0
C255 C 0.6345 0.02273 0.76748 0.0
O256 O 0.63981 0.03593 0.7501 0.0
C257 C 0.62458 0.97345 0.7169 0.0
O258 O 0.61458 0.96961 0.7359 0.0
O259 O 0.68775 0.02869 0.74645 0.0
C260 C 0.84517 0.68868 0.03215 0.0
O261 O 0.85311 0.71168 0.04109 0.0
O262 O 0.81 0.72045 0.05656 0.0
Zn263 Zn 0.80391 0.70152 0.02441 0.0
O264 O 0.80882 0.72159 0.99612 0.0
C265 C 0.76646 0.66213 0.0361 0.0
O266 O 0.78241 0.66056 0.05131 0.0
O267 O 0.82452 0.68024 0.02365 0.0
C268 C 0.79567 0.71271 0.97773 0.0
O269 O 0.77887 0.69215 0.97808 0.0
C270 C 0.79616 0.72994 0.06557 0.0
O271 O 0.77803 0.73052 0.05293 0.0
O272 O 0.77157 0.67859 0.02221 0.0
C273 C 0.91018 0.58708 0.84012 0.0
O274 O 0.93221 0.59859 0.84254 0.0
O275 O 0.93755 0.5559 0.79726 0.0
Zn276 Zn 0.92344 0.54503 0.82574 0.0
O277 O 0.94813 0.54881 0.8505 0.0
C278 C 0.91457 0.49375 0.81439 0.0
O279 O 0.93671 0.50092 0.81327 0.0
O280 O 0.90297 0.56419 0.83387 0.0
C281 C 0.94516 0.53492 0.86662 0.0
O282 O 0.92505 0.51872 0.86765 0.0
C283 C 0.95764 0.57071 0.79788 0.0
O284 O 0.96908 0.58025 0.81779 0.0
O285 O 0.90493 0.50968 0.81955 0.0
C286 C 0.77553 0.48096 0.50197 0.0
O287 O 0.78442 0.48658 0.48264 0.0
O288 O 0.80425 0.42295 0.5236 0.0
Zn289 Zn 0.80041 0.44639 0.50129 0.0
O290 O 0.78989 0.42811 0.47035 0.0
C291 C 0.84069 0.49032 0.5112 0.0
O292 O 0.82924 0.49854 0.52604 0.0
O293 O 0.77965 0.46393 0.51237 0.0
C294 C 0.80484 0.41932 0.46306 0.0
O295 O 0.82366 0.4225 0.47637 0.0
C296 C 0.78774 0.4061 0.52985 0.0
O297 O 0.76686 0.40377 0.52158 0.0
O298 O 0.83126 0.4699 0.4993 0.0
C299 C 0.68407 0.47846 0.30557 0.0
O300 O 0.66194 0.46762 0.30259 0.0
O301 O 0.64455 0.51319 0.30055 0.0
Zn302 Zn 0.67325 0.52216 0.32168 0.0
O303 O 0.66707 0.52272 0.35445 0.0
C304 C 0.70921 0.56778 0.32972 0.0
O305 O 0.71506 0.55728 0.34728 0.0
O306 O 0.69191 0.50071 0.31402 0.0
C307 C 0.6682 0.50703 0.3683 0.0
O308 O 0.6732 0.4873 0.36112 0.0
C309 C 0.62764 0.51979 0.3058 0.0
O310 O 0.62839 0.53095 0.32629 0.0
O311 O 0.6916 0.55613 0.31636 0.0
Tb312 Tb 0.08074 0.06501 0.05338 0.0
Tb313 Tb 0.03635 0.02793 0.02219 0.0
C314 C 0.03315 0.05259 0.07047 0.0
C315 C 0.13648 0.08335 0.08431 0.0
C316 C 0.17147 0.0618 0.08482 0.0
C317 C 0.1748 0.08492 0.07653 0.0
C318 C 0.1574 0.09564 0.07631 0.0
C319 C 0.13403 0.06137 0.0946 0.0
C320 C 0.15141 0.05076 0.09491 0.0
C321 C 0.11627 0.09054 0.07758 0.0
O322 O 0.07465 0.02824 0.06531 0.0
O323 O 0.05598 1.00425 0.03262 0.0
O324 O 0.06363 0.03777 0.99989 0.0
O325 O 0.09386 0.0463 0.02719 0.0
O326 O 1.00737 0.99653 0.01886 0.0
O327 O 0.0156 0.01928 0.991 0.0
O328 O 0.03246 0.06446 0.02263 0.0
O329 O 0.0701 0.0874 0.02893 0.0
O330 O 0.05163 0.07056 0.06814 0.0
O331 O 0.02738 0.03191 0.05711 0.0
C332 C 0.0678 0.00691 0.05264 0.0
O333 O 0.11278 0.09207 0.05565 0.0
O334 O 0.09749 0.07886 0.08613 0.0
C335 C 0.08519 0.0408 0.0058 0.0
C336 C 0.97802 0.00715 0.99949 0.0
C337 C 0.93998 0.02375 0.99684 0.0
C338 C 0.94159 1.00567 0.98025 0.0
C339 C 0.96073 0.99753 0.98147 0.0
C340 C 0.97573 0.02433 0.01657 0.0
C341 C 0.95691 0.03257 0.01524 0.0
C342 C 0.99984 1.00231 0.99944 0.0
C343 C 0.04889 0.08522 0.02183 0.0
H344 H 0.19009 0.0938 0.06861 0.0
H345 H 0.15963 0.11253 0.06824 0.0
H346 H 0.11813 0.05139 0.10096 0.0
H347 H 0.1486 0.03313 0.10179 0.0
H348 H 0.92862 0.9987 0.96594 0.0
H349 H 0.96241 0.98448 0.96803 0.0
H350 H 0.98898 0.03215 0.0305 0.0
H351 H 0.95585 0.04635 0.02832 0.0
Tb352 Tb 0.29056 0.78997 0.30557 0.0
Tb353 Tb 0.32101 0.79679 0.2616 0.0
C354 C 0.27159 0.80281 0.2581 0.0
C355 C 0.27181 0.77019 0.36062 0.0
C356 C 0.27843 0.74616 0.3994 0.0
C357 C 0.26333 0.76011 0.39907 0.0
C358 C 0.26005 0.77205 0.37978 0.0
C359 C 0.28689 0.75632 0.36085 0.0
C360 C 0.29015 0.74437 0.38006 0.0
C361 C 0.26922 0.78351 0.34075 0.0
O362 O 0.29039 0.75387 0.29151 0.0
O363 O 0.29309 0.76289 0.25451 0.0
O364 O 0.33916 0.78122 0.28638 0.0
O365 O 0.32439 0.791 0.3192 0.0
O366 O 0.33601 0.78123 0.23622 0.0
O367 O 0.33985 0.82008 0.23913 0.0
O368 O 0.33562 0.82852 0.28644 0.0
O369 O 0.30253 0.82885 0.30078 0.0
O370 O 0.26703 0.79253 0.2773 0.0
O371 O 0.29211 0.80894 0.25102 0.0
C372 C 0.28708 0.74683 0.26948 0.0
O373 O 0.2865 0.80287 0.33876 0.0
O374 O 0.2621 0.76997 0.32127 0.0
C375 C 0.33974 0.78392 0.30887 0.0
C376 C 0.33429 0.80018 0.20225 0.0
C377 C 0.31743 0.80425 0.15747 0.0
C378 C 0.34093 0.8137 0.16448 0.0
C379 C 0.34927 0.81169 0.18673 0.0
C380 C 0.31099 0.78968 0.19506 0.0
C381 C 0.30264 0.79161 0.17282 0.0
C382 C 0.34243 0.80171 0.2265 0.0
C383 C 0.32353 0.84032 0.29688 0.0
H384 H 0.2539 0.7616 0.41364 0.0
H385 H 0.24844 0.7828 0.37987 0.0
H386 H 0.29629 0.75492 0.34622 0.0
H387 H 0.3021 0.73402 0.37993 0.0
H388 H 0.35274 0.82391 0.15324 0.0
H389 H 0.36726 0.82011 0.19212 0.0
H390 H 0.29914 0.78087 0.20694 0.0
H391 H 0.2845 0.78397 0.1679 0.0
Tb392 Tb 0.52087 0.03082 0.54386 0.0
Tb393 Tb 0.57346 0.04246 0.52973 0.0
C394 C 0.55831 0.02066 0.57568 0.0
C395 C 0.46567 0.0397 0.55353 0.0
C396 C 0.43673 0.06921 0.55269 0.0
C397 C 0.4288 0.04478 0.55841 0.0
C398 C 0.44315 0.03017 0.5588 0.0
C399 C 0.4738 0.06411 0.54802 0.0
C400 C 0.45946 0.07874 0.54761 0.0
C401 C 0.48038 0.02394 0.55313 0.0
O402 O 0.54052 0.06695 0.56116 0.0
O403 O 0.57033 0.0787 0.53868 0.0
O404 O 0.55191 0.04469 0.49943 0.0
O405 O 0.52485 0.05598 0.51777 0.0
O406 O 0.60889 0.0579 0.53763 0.0
O407 O 0.59481 0.0374 0.50497 0.0
O408 O 0.55919 1.00275 0.52872 0.0
O409 O 0.52167 0.99947 0.52069 0.0
O410 O 0.53701 0.01207 0.56697 0.0
O411 O 0.57377 0.0371 0.56603 0.0
C412 C 0.55756 0.08406 0.55392 0.0
O413 O 0.48595 0.01839 0.53293 0.0
O414 O 0.49786 0.03026 0.56858 0.0
C415 C 0.53563 0.05483 0.49964 0.0
C416 C 0.62858 0.03267 0.5214 0.0
C417 C 0.65703 1.00266 0.52416 0.0
C418 C 0.66348 0.02442 0.51308 0.0
C419 C 0.64936 0.03926 0.5117 0.0
C420 C 0.62214 0.01118 0.53272 0.0
C421 C 0.63624 0.99632 0.53412 0.0
C422 C 0.61324 0.04762 0.51876 0.0
C423 C 0.53828 0.98967 0.521 0.0
H424 H 0.41151 0.03697 0.56274 0.0
H425 H 0.43662 0.01137 0.5631 0.0
H426 H 0.49117 0.07175 0.5438 0.0
H427 H 0.46606 0.09736 0.54289 0.0
H428 H 0.67949 0.03003 0.50551 0.0
H429 H 0.65457 0.05577 0.50288 0.0
H430 H 0.60607 1.00572 0.54021 0.0
H431 H 0.63062 0.97957 0.54254 0.0
Tb432 Tb 0.32835 0.29134 0.79289 0.0
Tb433 Tb 0.2747 0.29007 0.78418 0.0
C434 C 0.28756 0.24399 0.7954 0.0
C435 C 0.3864 0.29028 0.78146 0.0
C436 C 0.41977 0.28727 0.75204 0.0
C437 C 0.42226 0.2831 0.77527 0.0
C438 C 0.40574 0.28466 0.78984 0.0
C439 C 0.38355 0.29387 0.75817 0.0
C440 C 0.4001 0.29244 0.74361 0.0
C441 C 0.36984 0.29335 0.79728 0.0
O442 O 0.3214 0.28931 0.75581 0.0
O443 O 0.28214 0.2741 0.75183 0.0
O444 O 0.29573 0.32117 0.76874 0.0
O445 O 0.32642 0.32855 0.79483 0.0
O446 O 0.24002 0.27077 0.77523 0.0
O447 O 0.25158 0.31013 0.78405 0.0
O448 O 0.28649 0.30613 0.81945 0.0
O449 O 0.31702 0.29207 0.82716 0.0
O450 O 0.30699 0.25314 0.78671 0.0
O451 O 0.27511 0.25785 0.80096 0.0
C452 C 0.30194 0.279 0.74311 0.0
O453 O 0.36285 0.31232 0.79503 0.0
O454 O 0.35304 0.27376 0.79988 0.0
C455 C 0.31498 0.33601 0.77888 0.0
C456 C 0.21545 0.28825 0.79421 0.0
C457 C 0.18045 0.2866 0.82287 0.0
C458 C 0.17975 0.29537 0.80115 0.0
C459 C 0.19708 0.29615 0.78696 0.0
C460 C 0.21627 0.27941 0.81584 0.0
C461 C 0.19884 0.27848 0.83002 0.0
C462 C 0.23399 0.2904 0.77939 0.0
C463 C 0.30144 0.30148 0.83406 0.0
H464 H 0.4373 0.2793 0.78234 0.0
H465 H 0.40826 0.28188 0.80777 0.0
H466 H 0.3687 0.29816 0.75132 0.0
H467 H 0.39751 0.29542 0.72575 0.0
H468 H 0.16571 0.3015 0.79505 0.0
H469 H 0.19623 0.30312 0.77035 0.0
H470 H 0.23048 0.27348 0.82183 0.0
H471 H 0.19998 0.27187 0.84675 0.0
Tb472 Tb 0.05273 0.05695 0.55842 0.0
Tb473 Tb 0.05491 0.02644 0.5109 0.0
C474 C 1.00811 0.02453 0.52964 0.0
C475 C 0.06111 0.07849 0.61981 0.0
C476 C 0.07826 0.0746 0.66448 0.0
C477 C 0.06115 0.08568 0.661 0.0
C478 C 0.05266 0.08764 0.63877 0.0
C479 C 0.07815 0.06739 0.62321 0.0
C480 C 0.08671 0.06554 0.64536 0.0
C481 C 0.05142 0.0794 0.59656 0.0
O482 O 0.04977 0.01919 0.56816 0.0
O483 O 0.06444 1.00447 0.53769 0.0
O484 O 0.08889 0.05161 0.51958 0.0
O485 O 0.08845 0.05927 0.55816 0.0
O486 O 0.04542 0.99278 0.49032 0.0
O487 O 0.06767 0.02556 0.47872 0.0
O488 O 0.04551 0.05883 0.49942 0.0
O489 O 0.05571 0.08448 0.53283 0.0
O490 O 0.01812 0.04547 0.54205 0.0
O491 O 0.01981 0.01289 0.51847 0.0
C492 C 0.05745 1.00208 0.55853 0.0
O493 O 0.06606 0.08825 0.58201 0.0
O494 O 0.0358 0.05929 0.58778 0.0
C495 C 0.09949 0.06073 0.5398 0.0
C496 C 0.04109 0.99835 0.4511 0.0
C497 C 0.01504 0.99447 0.40894 0.0
C498 C 0.03825 0.9964 0.40956 0.0
C499 C 0.05115 0.9983 0.4305 0.0
C500 C 0.01783 0.9959 0.45056 0.0
C501 C 1.00489 0.99379 0.42966 0.0
C502 C 0.05531 1.00283 0.47302 0.0
C503 C 0.05027 0.08123 0.51032 0.0
H504 H 0.05443 0.0929 0.67544 0.0
H505 H 0.03937 0.0961 0.63637 0.0
H506 H 0.08463 0.05991 0.60872 0.0
H507 H 0.09963 0.05656 0.64754 0.0
H508 H 0.04665 0.9973 0.39395 0.0
H509 H 0.06913 1.00041 0.43064 0.0
H510 H 1.00973 0.99609 0.46629 0.0
H511 H 0.98699 0.99195 0.42976 0.0
Tb512 Tb 0.31832 0.81778 0.77196 0.0
Tb513 Tb 0.29217 0.7724 0.79873 0.0
C514 C 0.30844 0.76353 0.75101 0.0
C515 C 0.32503 0.87192 0.74154 0.0
C516 C 0.29581 0.90045 0.73685 0.0
C517 C 0.28961 0.87661 0.72562 0.0
C518 C 0.30404 0.86236 0.72805 0.0
C519 C 0.33247 0.8968 0.75016 0.0
C520 C 0.31792 0.911 0.74789 0.0
C521 C 0.33613 0.85515 0.75137 0.0
O522 O 0.28158 0.81631 0.76562 0.0
O523 O 0.26381 0.77767 0.77585 0.0
O524 O 0.28587 0.80423 0.81477 0.0
O525 O 0.31929 0.83122 0.80764 0.0
O526 O 0.26849 0.73737 0.79906 0.0
O527 O 0.28642 0.75817 0.83055 0.0
O528 O 0.32916 0.78117 0.81217 0.0
O529 O 0.34702 0.8046 0.78475 0.0
O530 O 0.30892 0.78583 0.74711 0.0
O531 O 0.30596 0.75596 0.77142 0.0
C532 C 0.26253 0.79758 0.7662 0.0
O533 O 0.33647 0.85544 0.77353 0.0
O534 O 0.33005 0.83271 0.74166 0.0
C535 C 0.30182 0.82526 0.81969 0.0
C536 C 0.28313 0.71594 0.82523 0.0
C537 C 0.30791 0.68317 0.81862 0.0
C538 C 0.28534 0.67691 0.80887 0.0
C539 C 0.27288 0.69308 0.81241 0.0
C540 C 0.30465 0.72058 0.83743 0.0
C541 C 0.31697 0.70421 0.83413 0.0
C542 C 0.2744 0.73647 0.82069 0.0
C543 C 0.34825 0.792 0.80271 0.0
H544 H 0.27284 0.8683 0.71659 0.0
H545 H 0.29782 0.84323 0.72111 0.0
H546 H 0.34857 0.90452 0.76064 0.0
H547 H 0.32314 0.92936 0.75672 0.0
H548 H 0.27811 0.66061 0.79691 0.0
H549 H 0.25626 0.68898 0.80301 0.0
H550 H 0.31298 0.73792 0.84765 0.0
H551 H 0.33441 0.70927 0.84178 0.0
Tb552 Tb 0.56076 0.03294 0.06036 0.0
Tb553 Tb 0.55437 0.05647 0.01288 0.0
C554 C 0.60277 0.05984 0.03463 0.0
C555 C 0.55413 0.00966 0.11785 0.0
C556 C 0.53329 1.004 0.15885 0.0
C557 C 0.55403 0.99921 0.15709 0.0
C558 C 0.56436 1.00201 0.13668 0.0
C559 C 0.53325 0.01403 0.11934 0.0
C560 C 0.52286 0.01117 0.1397 0.0
C561 C 0.56568 0.01369 0.097 0.0
O562 O 0.55301 0.06726 0.07182 0.0
O563 O 0.56074 0.0878 0.03965 0.0
O564 O 0.5227 0.05066 0.02826 0.0
O565 O 0.5245 0.01981 0.05005 0.0
O566 O 0.56481 0.08504 0.99179 0.0
O567 O 0.53446 0.05412 0.98188 0.0
O568 O 0.55024 0.01708 0.002 0.0
O569 O 0.56787 0.00745 0.03388 0.0
O570 O 0.59438 0.05521 0.05423 0.0
O571 O 0.58977 0.0577 0.01555 0.0
C572 C 0.55658 0.08784 0.06148 0.0
O573 O 0.554 1.0015 0.07827 0.0
O574 O 0.57603 0.03657 0.09402 0.0
C575 C 0.5129 0.03238 0.03996 0.0
C576 C 0.55625 0.07151 0.95279 0.0
C577 C 0.57092 0.067 0.90909 0.0
C578 C 0.55397 0.07808 0.91251 0.0
C579 C 0.54673 0.08038 0.93429 0.0
C580 C 0.57299 0.06023 0.94943 0.0
C581 C 0.58033 0.05805 0.92774 0.0
C582 C 0.5487 0.07398 0.97556 0.0
C583 C 0.55931 1.00189 0.0122 0.0
H584 H 0.56234 0.99356 0.17157 0.0
H585 H 0.5805 0.99855 0.13568 0.0
H586 H 0.52522 0.02007 0.1049 0.0
H587 H 0.50706 0.01537 0.1407 0.0
H588 H 0.54653 0.08516 0.8984 0.0
H589 H 0.53375 0.08909 0.93671 0.0
H590 H 0.58036 0.05311 0.96357 0.0
H591 H 0.59313 0.04905 0.92548 0.0
Tb592 Tb 0.29403 0.26162 0.27722 0.0
Tb593 Tb 0.31734 0.31704 0.2986 0.0
C594 C 0.2986 0.30523 0.24663 0.0
C595 C 0.28739 0.2038 0.24374 0.0
C596 C 0.3171 0.18031 0.22657 0.0
C597 C 0.31975 0.20483 0.22253 0.0
C598 C 0.305 0.21656 0.23116 0.0
C599 C 0.28294 0.17854 0.24514 0.0
C600 C 0.29767 0.16678 0.23651 0.0
C601 C 0.27815 0.21764 0.26014 0.0
O602 O 0.33118 0.2686 0.27131 0.0
O603 O 0.34627 0.31022 0.28134 0.0
O604 O 0.32713 0.29422 0.32291 0.0
O605 O 0.29575 0.261 0.31429 0.0
O606 O 0.33401 0.35449 0.29572 0.0
O607 O 0.32646 0.34133 0.32861 0.0
O608 O 0.28158 0.30834 0.30899 0.0
O609 O 0.26346 0.27176 0.28738 0.0
O610 O 0.29935 0.28285 0.2479 0.0
O611 O 0.30048 0.31996 0.26533 0.0
C612 C 0.34865 0.28941 0.27213 0.0
O613 O 0.29084 0.22458 0.27961 0.0
O614 O 0.27154 0.23542 0.25251 0.0
C615 C 0.31262 0.27427 0.32896 0.0
C616 C 0.31896 0.37725 0.32103 0.0
C617 C 0.2904 0.40546 0.33083 0.0
C618 C 0.31227 0.41156 0.34258 0.0
C619 C 0.32645 0.39736 0.3378 0.0
C620 C 0.29726 0.37136 0.30922 0.0
C621 C 0.28315 0.38531 0.31402 0.0
C622 C 0.33226 0.36056 0.31715 0.0
C623 C 0.26244 0.2902 0.30194 0.0
H624 H 0.33445 0.21555 0.2147 0.0
H625 H 0.30876 0.23616 0.23 0.0
H626 H 0.26952 0.1685 0.25496 0.0
H627 H 0.29527 0.1479 0.23999 0.0
H628 H 0.31826 0.4271 0.35553 0.0
H629 H 0.34305 0.40185 0.3473 0.0
H630 H 0.29109 0.35574 0.29636 0.0
H631 H 0.26665 0.38052 0.30425 0.0
Tb632 Tb 0.55624 0.56135 0.0626 0.0
Tb633 Tb 0.55667 0.53059 0.01507 0.0
C634 C 0.512 0.52484 0.03745 0.0
C635 C 0.55164 0.57617 0.12356 0.0
C636 C 0.55218 0.56152 0.16822 0.0
C637 C 0.55602 0.58643 0.16467 0.0
C638 C 0.55588 0.59371 0.14247 0.0
C639 C 0.54601 0.55111 0.12694 0.0
C640 C 0.5463 0.54382 0.14911 0.0
C641 C 0.55617 0.5842 0.10076 0.0
O642 O 0.56249 0.52715 0.07405 0.0
O643 O 0.55529 0.50255 0.03996 0.0
O644 O 0.59141 0.54231 0.03118 0.0
O645 O 0.58913 0.57714 0.05012 0.0
O646 O 0.54139 0.49989 0.99119 0.0
O647 O 0.57237 0.52761 0.98499 0.0
O648 O 0.55925 0.56809 0.00468 0.0
O649 O 0.54837 0.58518 0.03654 0.0
O650 O 0.52424 0.53199 0.05713 0.0
O651 O 0.52154 0.5293 0.01835 0.0
C652 C 0.55916 0.5052 0.06269 0.0
O653 O 0.57424 0.58051 0.09319 0.0
O654 O 0.53887 0.57759 0.08508 0.0
C655 C 0.60129 0.56456 0.04116 0.0
C656 C 0.54444 0.51259 0.9543 0.0
C657 C 0.52457 0.52214 0.91296 0.0
C658 C 0.53796 0.5063 0.91283 0.0
C659 C 0.54791 0.50161 0.93343 0.0
C660 C 0.53099 0.52824 0.95446 0.0
C661 C 0.52113 0.53296 0.93401 0.0
C662 C 0.55532 0.50881 0.97604 0.0
C663 C 0.5534 0.5863 0.0149 0.0
H664 H 0.56025 0.60043 0.17907 0.0
H665 H 0.56023 0.61312 0.14011 0.0
H666 H 0.54268 0.53733 0.11245 0.0
H667 H 0.54348 0.52453 0.15121 0.0
H668 H 0.54097 0.49782 0.89682 0.0
H669 H 0.55839 0.48961 0.93307 0.0
H670 H 0.52815 0.53689 0.97047 0.0
H671 H 0.51058 0.54487 0.93471 0.0
Tb672 Tb 0.81902 0.31311 0.27007 0.0
Tb673 Tb 0.79335 0.2649 0.29361 0.0
C674 C 0.81398 0.26155 0.24757 0.0
C675 C 0.82531 0.37022 0.2457 0.0
C676 C 0.79752 0.40022 0.25071 0.0
C677 C 0.79062 0.37954 0.23455 0.0
C678 C 0.80442 0.36459 0.23206 0.0
C679 C 0.83338 0.39264 0.2596 0.0
C680 C 0.81946 0.40743 0.26227 0.0
C681 C 0.83562 0.35074 0.24988 0.0
O682 O 0.7821 0.30333 0.25593 0.0
O683 O 0.76431 0.27801 0.28207 0.0
O684 O 0.79668 0.29477 0.31947 0.0
O685 O 0.804 0.32738 0.29765 0.0
O686 O 0.77047 0.22887 0.29025 0.0
O687 O 0.78834 0.24564 0.32289 0.0
O688 O 0.83053 0.26826 0.29999 0.0
O689 O 0.84718 0.3085 0.29365 0.0
O690 O 0.8284 0.28335 0.2536 0.0
O691 O 0.79558 0.25351 0.25799 0.0
C692 C 0.76301 0.2916 0.26494 0.0
O693 O 0.84111 0.34925 0.27149 0.0
O694 O 0.82517 0.32903 0.23907 0.0
C695 C 0.79837 0.31768 0.31672 0.0
C696 C 0.7851 0.20467 0.31328 0.0
C697 C 0.80422 0.16671 0.31791 0.0
C698 C 0.78311 0.16488 0.32622 0.0
C699 C 0.77367 0.18398 0.32411 0.0
C700 C 0.80592 0.20616 0.30465 0.0
C701 C 0.81549 0.18749 0.30711 0.0
C702 C 0.77607 0.22521 0.31116 0.0
C703 C 0.84904 0.28794 0.30148 0.0
H704 H 0.77374 0.37369 0.22543 0.0
H705 H 0.79773 0.34755 0.22102 0.0
H706 H 0.84948 0.39751 0.27014 0.0
H707 H 0.82517 0.42354 0.27461 0.0
H708 H 0.77407 0.14881 0.33436 0.0
H709 H 0.75754 0.18259 0.33081 0.0
H710 H 0.81475 0.22175 0.29585 0.0
H711 H 0.83149 0.18901 0.30003 0.0
Tb712 Tb 0.05084 0.52736 0.55841 0.0
Tb713 Tb 0.05839 0.5561 0.51301 0.0
C714 C 0.09891 0.5491 0.54275 0.0
C715 C 0.03772 0.51522 0.6164 0.0
C716 C 0.02454 0.53359 0.65685 0.0
C717 C 0.03794 0.51779 0.65772 0.0
C718 C 0.04449 0.50867 0.63759 0.0
C719 C 0.02426 0.53086 0.61542 0.0
C720 C 0.01763 0.53987 0.63546 0.0
C721 C 0.04661 0.50804 0.59559 0.0
O722 O 0.05698 0.56681 0.57106 0.0
O723 O 0.04994 0.58241 0.53748 0.0
O724 O 0.02178 0.54042 0.51223 0.0
O725 O 0.01836 0.53251 0.54978 0.0
O726 O 0.0732 0.58878 0.49826 0.0
O727 O 0.05198 0.55626 0.47744 0.0
O728 O 0.06369 0.52 0.50298 0.0
O729 O 0.04507 0.49723 0.53042 0.0
O730 O 0.08458 0.5297 0.54968 0.0
O731 O 0.09171 0.5648 0.53186 0.0
C732 C 0.0531 0.58484 0.56013 0.0
O733 O 0.03185 0.50003 0.57757 0.0
O734 O 0.06534 0.52414 0.59084 0.0
C735 C 1.00959 0.53518 0.5296 0.0
C736 C 0.08211 0.58277 0.46075 0.0
C737 C 0.11301 0.58897 0.42729 0.0
C738 C 0.09302 0.59543 0.42369 0.0
C739 C 0.0777 0.59236 0.44033 0.0
C740 C 0.10221 0.57674 0.46472 0.0
C741 C 0.11761 0.57988 0.4481 0.0
C742 C 0.06541 0.57877 0.47755 0.0
C743 C 0.05453 0.49825 0.51079 0.0
H744 H 0.04375 0.51287 0.67398 0.0
H745 H 0.05525 0.49699 0.63861 0.0
H746 H 0.01919 0.53642 0.59916 0.0
H747 H 1.00705 0.55171 0.63419 0.0
H748 H 0.0888 0.60204 0.40767 0.0
H749 H 0.06219 0.59704 0.43709 0.0
H750 H 0.10582 0.56934 0.48051 0.0
H751 H 0.13296 0.57493 0.45141 0.0
Tb752 Tb 0.8271 0.78598 0.28663 0.0
Tb753 Tb 0.77374 0.78513 0.27737 0.0
C754 C 0.7859 0.7414 0.29633 0.0
C755 C 0.88711 0.79082 0.27719 0.0
C756 C 0.92417 0.79716 0.25037 0.0
C757 C 0.9018 0.78482 0.24066 0.0
C758 C 0.88343 0.78181 0.25389 0.0
C759 C 0.90937 0.80352 0.2868 0.0
C760 C 0.92774 0.80678 0.27349 0.0
C761 C 0.86809 0.78647 0.29176 0.0
O762 O 0.81994 0.7822 0.2495 0.0
O763 O 0.78093 0.76532 0.2469 0.0
O764 O 0.79352 0.81392 0.25851 0.0
O765 O 0.82729 0.82312 0.28095 0.0
O766 O 0.7392 0.76525 0.26864 0.0
O767 O 0.75031 0.80482 0.27604 0.0
O768 O 0.78694 0.80554 0.31098 0.0
O769 O 0.816 0.79002 0.3207 0.0
O770 O 0.80511 0.74824 0.28683 0.0
O771 O 0.77362 0.7561 0.29885 0.0
C772 C 0.8004 0.77037 0.23753 0.0
O773 O 0.86152 0.80531 0.29769 0.0
O774 O 0.85081 0.76675 0.28581 0.0
C775 C 0.81397 0.82876 0.26539 0.0
C776 C 0.71467 0.78293 0.28726 0.0
C777 C 0.6802 0.7813 0.31652 0.0
C778 C 0.67885 0.78948 0.2946 0.0
C779 C 0.69594 0.79025 0.2801 0.0
C780 C 0.71615 0.77472 0.30911 0.0
C781 C 0.69899 0.77381 0.32359 0.0
C782 C 0.7329 0.78481 0.27212 0.0
C783 C 0.80132 0.80123 0.3265 0.0
H784 H 0.89852 0.77753 0.2228 0.0
H785 H 0.86639 0.77218 0.24597 0.0
H786 H 0.91256 0.81065 0.30472 0.0
H787 H 0.9448 0.81628 0.28144 0.0
H788 H 0.66449 0.79514 0.28859 0.0
H789 H 0.69459 0.79672 0.26332 0.0
H790 H 0.73065 0.76924 0.31502 0.0
H791 H 0.70062 0.76768 0.34047 0.0
Tb792 Tb 0.78484 0.26928 0.79531 0.0
Tb793 Tb 0.81222 0.26802 0.75004 0.0
C794 C 0.7656 0.27977 0.7476 0.0
C795 C 0.77216 0.27161 0.85532 0.0
C796 C 0.78567 0.26853 0.90138 0.0
C797 C 0.76303 0.26699 0.89449 0.0
C798 C 0.75632 0.26843 0.87157 0.0
C799 C 0.795 0.27446 0.86227 0.0
C800 C 0.80172 0.27291 0.88514 0.0
C801 C 0.76451 0.26971 0.83093 0.0
O802 O 0.76754 0.23568 0.77322 0.0
O803 O 0.79911 0.23066 0.75889 0.0
O804 O 0.83675 0.26746 0.77839 0.0
O805 O 0.8128 0.25607 0.80681 0.0
O806 O 0.8131 0.25164 0.71719 0.0
O807 O 0.84047 0.2836 0.73207 0.0
O808 O 0.81503 0.30583 0.76063 0.0
O809 O 0.81462 0.30173 0.79881 0.0
O810 O 0.76826 0.28559 0.76987 0.0
O811 O 0.77826 0.26829 0.73756 0.0
C812 C 0.7781 0.22142 0.76385 0.0
O813 O 0.77323 0.2892 0.82035 0.0
O814 O 0.76479 0.24968 0.81922 0.0
C815 C 0.83287 0.26012 0.79893 0.0
C816 C 0.82759 0.28268 0.69359 0.0
C817 C 0.81989 0.30794 0.65607 0.0
C818 C 0.83496 0.29395 0.6552 0.0
C819 C 0.83877 0.28137 0.67389 0.0
C820 C 0.81255 0.29656 0.69447 0.0
C821 C 0.80865 0.30896 0.67587 0.0
C822 C 0.83098 0.26953 0.71334 0.0
C823 C 0.82064 0.31537 0.78194 0.0
H824 H 0.75037 0.26392 0.90669 0.0
H825 H 0.73862 0.26624 0.86641 0.0
H826 H 0.80743 0.2769 0.84985 0.0
H827 H 0.8192 0.27386 0.88983 0.0
H828 H 0.84399 0.293 0.64022 0.0
H829 H 0.85043 0.2707 0.67299 0.0
H830 H 0.80375 0.29775 0.70956 0.0
H831 H 0.79664 0.31917 0.67695 0.0
Tb832 Tb 0.79221 0.76867 0.77105 0.0
Tb833 Tb 0.81594 0.82416 0.79168 0.0
C834 C 0.79671 0.81061 0.73948 0.0
C835 C 0.78355 0.70301 0.76099 0.0
C836 C 0.80482 0.6707 0.77891 0.0
C837 C 0.78274 0.66931 0.78405 0.0
C838 C 0.7721 0.68523 0.77498 0.0
C839 C 0.80497 0.70315 0.75453 0.0
C840 C 0.81547 0.68703 0.76336 0.0
C841 C 0.77501 0.72376 0.75703 0.0
O842 O 0.82764 0.7768 0.75973 0.0
O843 O 0.8461 0.81336 0.78129 0.0
O844 O 0.80908 0.80275 0.82086 0.0
O845 O 0.81055 0.76675 0.80373 0.0
O846 O 0.81977 0.86144 0.7898 0.0
O847 O 0.83946 0.84982 0.81602 0.0
O848 O 0.77927 0.81832 0.79869 0.0
O849 O 0.76356 0.77702 0.78779 0.0
O850 O 0.78275 0.79007 0.74518 0.0
O851 O 0.81302 0.82463 0.75445 0.0
C852 C 0.8469 0.79495 0.76658 0.0
O853 O 0.76981 0.73392 0.77545 0.0
O854 O 0.78649 0.74027 0.74449 0.0
C855 C 0.81089 0.78082 0.8224 0.0
C856 C 0.82403 0.88148 0.82613 0.0
C857 C 0.79288 0.90244 0.84401 0.0
C858 C 0.79263 0.87885 0.84922 0.0
C859 C 0.80806 0.86835 0.84021 0.0
C860 C 0.82645 0.90625 0.82382 0.0
C861 C 0.81097 0.91675 0.83281 0.0
C862 C 0.83285 0.86789 0.80907 0.0
C863 C 0.76154 0.79776 0.79753 0.0
H864 H 0.77414 0.65664 0.79582 0.0
H865 H 0.75556 0.68479 0.78017 0.0
H866 H 0.81429 0.71669 0.74385 0.0
H867 H 0.83255 0.68847 0.75922 0.0
H868 H 0.77898 0.86759 0.85805 0.0
H869 H 0.80584 0.84913 0.84213 0.0
H870 H 0.83858 0.91657 0.8129 0.0
H871 H 0.81153 0.93496 0.82848 0.0
Tb872 Tb 0.57856 0.55814 0.54667 0.0
Tb873 Tb 0.53511 0.51965 0.51481 0.0
C874 C 0.52979 0.54529 0.56192 0.0
C875 C 0.635 0.58182 0.57623 0.0
C876 C 0.67258 0.56526 0.57119 0.0
C877 C 0.65386 0.5511 0.58161 0.0
C878 C 0.63516 0.55927 0.58406 0.0
C879 C 0.65485 0.59731 0.56853 0.0
C880 C 0.67356 0.58905 0.56597 0.0
C881 C 0.61322 0.58622 0.57057 0.0
O882 O 0.57364 0.52199 0.55956 0.0
O883 O 0.55426 0.49659 0.52777 0.0
O884 O 0.56341 0.52876 0.49384 0.0
O885 O 0.59309 0.53908 0.52202 0.0
O886 O 0.50734 0.48709 0.51074 0.0
O887 O 0.51516 0.51025 0.48314 0.0
O888 O 0.53057 0.55578 0.51376 0.0
O889 O 0.56804 0.57898 0.52068 0.0
O890 O 0.54874 0.56298 0.56043 0.0
O891 O 0.52408 0.52463 0.54855 0.0
C892 C 0.56623 0.50012 0.54781 0.0
O893 O 0.60878 0.58776 0.54879 0.0
O894 O 0.59549 0.57232 0.57934 0.0
C895 C 0.58482 0.53192 0.50066 0.0
C896 C 0.4766 0.49504 0.49052 0.0
C897 C 0.43891 0.51025 0.49989 0.0
C898 C 0.44252 0.49021 0.51015 0.0
C899 C 0.46117 0.48258 0.50542 0.0
C900 C 0.47146 0.51322 0.47833 0.0
C901 C 0.45282 0.52081 0.48304 0.0
C902 C 0.49968 0.49263 0.49125 0.0
C903 C 0.54694 0.5766 0.51308 0.0
H904 H 0.65294 0.53286 0.58618 0.0
H905 H 0.62015 0.54693 0.59018 0.0
H906 H 0.65505 0.61474 0.56236 0.0
H907 H 0.68783 0.60033 0.55792 0.0
H908 H 0.43174 0.48143 0.52286 0.0
H909 H 0.46446 0.46823 0.51479 0.0
H910 H 0.48281 0.52299 0.46649 0.0
H911 H 0.45046 0.53631 0.47485 0.0
Tb912 Tb 0.0256 0.53452 0.04805 0.0
Tb913 Tb 0.0805 0.54435 0.0447 0.0
C914 C 0.05689 0.5287 0.08811 0.0
C915 C 0.97001 0.54572 0.0475 0.0
C916 C 0.94319 0.5772 0.04314 0.0
C917 C 0.93393 0.55351 0.0502 0.0
C918 C 0.94724 0.53791 0.05234 0.0
C919 C 0.97939 0.56932 0.04044 0.0
C920 C 0.96608 0.58493 0.03823 0.0
C921 C 0.98388 0.52925 0.05002 0.0
O922 O 0.04262 0.57219 0.06339 0.0
O923 O 0.07741 0.58127 0.04841 0.0
O924 O 0.06381 0.53999 0.01011 0.0
O925 O 0.03614 0.55617 0.01988 0.0
O926 O 0.11158 0.54563 0.06205 0.0
O927 O 0.10979 0.5531 0.02669 0.0
O928 O 0.06514 0.50441 0.04108 0.0
O929 O 0.02814 0.5014 0.02916 0.0
O930 O 0.03787 0.51722 0.07549 0.0
O931 O 0.07277 0.54611 0.08009 0.0
C932 C 0.06178 0.58818 0.05859 0.0
O933 O 0.99245 0.52367 0.03153 0.0
O934 O 0.99884 0.53482 0.06794 0.0
C935 C 0.04851 0.55061 0.00458 0.0
C936 C 0.1359 0.53286 0.03896 0.0
C937 C 0.16267 0.50133 0.03392 0.0
C938 C 0.17257 0.52702 0.03447 0.0
C939 C 0.15929 0.54263 0.03701 0.0
C940 C 0.12583 0.50726 0.0378 0.0
C941 C 0.13907 0.49162 0.0353 0.0
C942 C 0.12249 0.54946 0.04384 0.0
C943 C 0.04473 0.49161 0.03134 0.0
H944 H 0.91631 0.54692 0.05385 0.0
H945 H 0.93974 0.51973 0.05778 0.0
H946 H 0.99701 0.57568 0.03672 0.0
H947 H 0.97379 0.60316 0.03302 0.0
H948 H 0.19073 0.53511 0.03369 0.0
H949 H 0.16738 0.56237 0.03803 0.0
H950 H 0.10783 0.49944 0.03938 0.0
H951 H 0.13085 0.47193 0.03464 0.0
C952 C 0.0158 0.19412 0.96248 0.0
C953 C 0.01831 0.21424 0.97863 0.0
C954 C 0.01998 0.17257 0.96897 0.0
C955 C 0.02646 0.17082 0.99228 0.0
C956 C 0.02828 0.19076 0.00875 0.0
C957 C 0.0244 0.21223 1.00173 0.0
C958 C 0.01812 0.15197 0.95077 0.0
C959 C 0.03467 0.18957 0.03383 0.0
C960 C 0.02052 0.10732 0.01248 0.0
C961 C 0.04312 0.10692 0.01384 0.0
C962 C 0.01484 0.1279 0.00556 0.0
C963 C 0.03208 0.14853 0.99936 0.0
C964 C 0.05486 0.14806 1.00034 0.0
C965 C 0.06012 0.12743 0.00775 0.0
C966 C 0.9904 0.12764 0.00513 0.0
C967 C 0.07374 0.16941 0.99356 0.0
H968 H 1.01126 0.19548 0.94457 0.0
H969 H 0.02629 0.22757 0.01439 0.0
H970 H 0.03491 0.14898 0.95004 0.0
H971 H 1.00596 0.13455 0.95512 0.0
H972 H 0.01239 0.15587 0.93351 0.0
H973 H 0.0341 0.20598 0.04467 0.0
H974 H 0.02296 0.17285 0.03995 0.0
H975 H 0.05212 0.18819 0.03623 0.0
H976 H 1.00722 0.09165 0.01721 0.0
H977 H 0.0776 0.1273 0.00859 0.0
H978 H 0.98375 0.12893 0.98739 0.0
H979 H 0.98935 0.14387 0.01588 0.0
H980 H 0.9792 0.1107 0.01145 0.0
H981 H 0.06951 0.17328 0.97584 0.0
H982 H 0.09039 0.16585 0.99441 0.0
H983 H 0.07553 0.18622 0.00503 0.0
C984 C 0.16829 0.82888 0.18234 0.0
C985 C 0.15425 0.80596 0.17189 0.0
C986 C 0.18855 0.83092 0.19598 0.0
C987 C 0.19505 0.80961 0.199 0.0
C988 C 0.18136 0.78666 0.18774 0.0
C989 C 0.16112 0.78509 0.17452 0.0
C990 C 0.20281 0.85574 0.20754 0.0
C991 C 0.18788 0.76358 0.18998 0.0
C992 C 0.25535 0.81259 0.22081 0.0
C993 C 0.25265 0.80681 0.2435 0.0
C994 C 0.23706 0.81466 0.20636 0.0
C995 C 0.21547 0.81081 0.21475 0.0
C996 C 0.21291 0.80592 0.23789 0.0
C997 C 0.23144 0.8039 0.25192 0.0
C998 C 0.24076 0.81977 0.18184 0.0
C999 C 0.19032 0.80199 0.24766 0.0
H1000 H 0.16314 0.8451 0.18037 0.0
H1001 H 0.15057 0.76734 0.16629 0.0
H1002 H 0.20361 0.85527 0.22643 0.0
H1003 H 0.22051 0.86019 0.20274 0.0
H1004 H 0.1959 0.87067 0.2029 0.0
H1005 H 0.17596 0.74738 0.17929 0.0
H1006 H 0.20531 0.76642 0.18484 0.0
H1007 H 0.18806 0.75938 0.20814 0.0
H1008 H 0.2716 0.81482 0.21402 0.0
H1009 H 0.22917 0.79965 0.26946 0.0
H1010 H 0.23028 0.83082 0.1752 0.0
H1011 H 0.23586 0.80203 0.17091 0.0
H1012 H 0.25894 0.82969 0.1801 0.0
H1013 H 0.18366 0.81742 0.24433 0.0
H1014 H 0.19158 0.80044 0.26643 0.0
H1015 H 0.17771 0.78487 0.2391 0.0
C1016 C 0.50335 0.84229 0.49599 0.0
C1017 C 0.51321 0.83557 0.47684 0.0
C1018 C 0.50731 0.8672 0.50365 0.0
C1019 C 0.52106 0.88594 0.49161 0.0
C1020 C 0.53104 0.87925 0.47225 0.0
C1021 C 0.5272 0.85422 0.46526 0.0
C1022 C 0.49677 0.87346 0.52468 0.0
C1023 C 0.54552 0.89857 0.45867 0.0
C1024 C 0.51415 0.94993 0.49875 0.0
C1025 C 0.53347 0.96308 0.51358 0.0
C1026 C 0.50997 0.9249 0.49134 0.0
C1027 C 0.52518 0.91252 0.49935 0.0
C1028 C 0.5445 0.92564 0.51464 0.0
C1029 C 0.54851 0.95074 0.52136 0.0
C1030 C 0.48941 0.91175 0.4747 0.0
C1031 C 0.56093 0.91316 0.524 0.0
H1032 H 0.49256 0.82804 0.50507 0.0
H1033 H 0.53471 0.84924 0.45031 0.0
H1034 H 0.51024 0.88531 0.53768 0.0
H1035 H 0.48511 0.88405 0.52014 0.0
H1036 H 0.48705 0.85679 0.53251 0.0
H1037 H 0.55172 0.89038 0.4438 0.0
H1038 H 0.53556 0.91027 0.4523 0.0
H1039 H 0.56046 0.91079 0.46985 0.0
H1040 H 0.50251 0.95934 0.49258 0.0
H1041 H 0.56339 0.96065 0.53301 0.0
H1042 H 0.47815 0.89584 0.48234 0.0
H1043 H 0.49488 0.9044 0.45892 0.0
H1044 H 0.47939 0.92401 0.46985 0.0
H1045 H 0.55168 0.89709 0.53284 0.0
H1046 H 0.57476 0.92575 0.53626 0.0
H1047 H 0.56874 0.90613 0.50974 0.0
C1048 C 0.50455 0.27709 0.65735 0.0
C1049 C 0.52729 0.28993 0.66538 0.0
C1050 C 0.48683 0.27568 0.67137 0.0
C1051 C 0.49191 0.28752 0.69396 0.0
C1052 C 0.51484 0.30023 0.70229 0.0
C1053 C 0.53225 0.30122 0.68794 0.0
C1054 C 0.46263 0.2618 0.66189 0.0
C1055 C 0.52096 0.31318 0.72623 0.0
C1056 C 0.4451 0.30541 0.72203 0.0
C1057 C 0.43794 0.28696 0.73685 0.0
C1058 C 0.46261 0.30579 0.708 0.0
C1059 C 0.47317 0.28718 0.70867 0.0
C1060 C 0.4659 0.26837 0.72345 0.0
C1061 C 0.44844 0.26854 0.73741 0.0
C1062 C 0.46996 0.32627 0.69261 0.0
C1063 C 0.47657 0.24807 0.72451 0.0
H1064 H 0.50052 0.26823 0.63999 0.0
H1065 H 0.54974 0.31121 0.69431 0.0
H1066 H 0.45472 0.24749 0.67322 0.0
H1067 H 0.45238 0.27459 0.66145 0.0
H1068 H 0.4616 0.25281 0.64431 0.0
H1069 H 0.53964 0.32178 0.73031 0.0
H1070 H 0.5127 0.32772 0.72818 0.0
H1071 H 0.5145 0.29997 0.73899 0.0
H1072 H 0.43729 0.31989 0.72172 0.0
H1073 H 0.44283 0.25408 0.74865 0.0
H1074 H 0.46799 0.31847 0.67449 0.0
H1075 H 0.48825 0.3367 0.69706 0.0
H1076 H 0.45997 0.3393 0.69403 0.0
H1077 H 0.47466 0.23806 0.70726 0.0
H1078 H 0.46883 0.23466 0.73671 0.0
H1079 H 0.49509 0.25604 0.72981 0.0
C1080 C 0.04344 0.8715 0.62167 0.0
C1081 C 0.0622 0.87409 0.63793 0.0
C1082 C 0.04185 0.89117 0.60824 0.0
C1083 C 0.05942 0.91455 0.61046 0.0
C1084 C 0.07843 0.91699 0.62658 0.0
C1085 C 0.07949 0.89729 0.63983 0.0
C1086 C 0.02101 0.88697 0.59173 0.0
C1087 C 0.09794 0.94079 0.63007 0.0
C1088 C 0.06676 0.96108 0.56281 0.0
C1089 C 0.05789 0.97947 0.57161 0.0
C1090 C 0.06704 0.94013 0.5748 0.0
C1091 C 0.05808 0.9365 0.59653 0.0
C1092 C 0.04893 0.95489 0.60537 0.0
C1093 C 0.049 0.97572 0.59311 0.0
C1094 C 0.07728 0.92185 0.56418 0.0
C1095 C 0.03901 0.95267 0.62812 0.0
H1096 H 0.0297 0.85421 0.61967 0.0
H1097 H 0.09427 0.90027 0.65198 0.0
H1098 H 0.01215 0.90042 0.59654 0.0
H1099 H 0.02606 0.89008 0.57417 0.0
H1100 H 1.00889 0.86807 0.59145 0.0
H1101 H 0.1119 0.93992 0.64257 0.0
H1102 H 0.10497 0.94539 0.6135 0.0
H1103 H 0.09174 0.95604 0.63631 0.0
H1104 H 0.07371 0.96307 0.54638 0.0
H1105 H 0.04192 0.98922 0.60055 0.0
H1106 H 0.06463 0.90315 0.56226 0.0
H1107 H 0.09204 0.92117 0.57564 0.0
H1108 H 0.08307 0.92651 0.54712 0.0
H1109 H 0.02559 0.9346 0.62789 0.0
H1110 H 0.03156 0.96751 0.63244 0.0
H1111 H 0.05246 0.95342 0.64191 0.0
C1112 C 0.478 0.7976 0.86416 0.0
C1113 C 0.48417 0.77666 0.85676 0.0
C1114 C 0.45656 0.80094 0.85623 0.0
C1115 C 0.44006 0.78325 0.84005 0.0
C1116 C 0.4464 0.76234 0.83244 0.0
C1117 C 0.46766 0.75935 0.84075 0.0
C1118 C 0.4514 0.82356 0.86551 0.0
C1119 C 0.4305 0.74267 0.81528 0.0
C1120 C 0.37437 0.7779 0.83235 0.0
C1121 C 0.37181 0.79006 0.81258 0.0
C1122 C 0.39595 0.77603 0.8415 0.0
C1123 C 0.41653 0.78632 0.831 0.0
C1124 C 0.41402 0.79855 0.81102 0.0
C1125 C 0.39228 0.80032 0.80233 0.0
C1126 C 0.39664 0.76277 0.86266 0.0
C1127 C 0.43451 0.80968 0.7984 0.0
H1128 H 0.4898 0.81135 0.87651 0.0
H1129 H 0.47134 0.74294 0.83443 0.0
H1130 H 0.44861 0.83428 0.85121 0.0
H1131 H 0.43543 0.81807 0.87406 0.0
H1132 H 0.46534 0.83561 0.87798 0.0
H1133 H 0.43787 0.72799 0.81009 0.0
H1134 H 0.41427 0.73408 0.82268 0.0
H1135 H 0.42633 0.75096 0.79973 0.0
H1136 H 0.35931 0.76966 0.84088 0.0
H1137 H 0.39137 0.80977 0.78714 0.0
H1138 H 0.40948 0.77491 0.87606 0.0
H1139 H 0.40194 0.74631 0.85856 0.0
H1140 H 0.37987 0.7568 0.86974 0.0
H1141 H 0.44801 0.82329 0.81019 0.0
H1142 H 0.43037 0.81893 0.78348 0.0
H1143 H 0.44161 0.79511 0.79225 0.0
C1144 C 0.53722 0.21342 0.12679 0.0
C1145 C 0.55846 0.23146 0.13374 0.0
C1146 C 0.53549 0.18974 0.11549 0.0
C1147 C 0.55537 0.18312 0.11107 0.0
C1148 C 0.57671 0.20112 0.11852 0.0
C1149 C 0.57795 0.22457 0.12936 0.0
C1150 C 0.51222 0.17182 0.10793 0.0
C1151 C 0.5986 0.19568 0.11493 0.0
C1152 C 0.55416 0.11448 0.09829 0.0
C1153 C 0.55554 0.11187 0.07437 0.0
C1154 C 0.55366 0.13697 0.11021 0.0
C1155 C 0.55422 0.158 0.0983 0.0
C1156 C 0.55519 0.15527 0.07411 0.0
C1157 C 0.55596 0.13273 0.06269 0.0
C1158 C 0.55294 0.13834 0.13585 0.0
C1159 C 0.55563 0.17643 0.06011 0.0
H1160 H 0.52187 0.21792 0.12977 0.0
H1161 H 0.59462 0.23771 0.13457 0.0
H1162 H 0.51041 0.16741 0.08905 0.0
H1163 H 0.51014 0.15432 0.11579 0.0
H1164 H 0.49836 0.17916 0.11263 0.0
H1165 H 0.61388 0.21092 0.12247 0.0
H1166 H 0.59862 0.17863 0.12275 0.0
H1167 H 0.59995 0.19245 0.09633 0.0
H1168 H 0.5538 0.09895 0.10792 0.0
H1169 H 0.55687 0.13151 0.04432 0.0
H1170 H 0.53814 0.14396 0.14056 0.0
H1171 H 0.5685 0.15256 0.14424 0.0
H1172 H 0.55178 0.1205 0.14275 0.0
H1173 H 0.54105 0.18313 0.06338 0.0
H1174 H 0.55488 0.17126 0.04142 0.0
H1175 H 0.57144 0.19198 0.06532 0.0
C1176 C 0.14217 0.28337 0.36647 0.0
C1177 C 0.12713 0.29262 0.35323 0.0
C1178 C 0.16393 0.28267 0.35923 0.0
C1179 C 0.17188 0.2914 0.33799 0.0
C1180 C 0.1568 0.30082 0.32478 0.0
C1181 C 0.13533 0.30126 0.33231 0.0
C1182 C 0.17856 0.27241 0.37452 0.0
C1183 C 0.16336 0.31062 0.30223 0.0
C1184 C 0.23718 0.31051 0.32551 0.0
C1185 C 0.2392 0.29044 0.31115 0.0
C1186 C 0.21612 0.31091 0.33439 0.0
C1187 C 0.19543 0.29073 0.32938 0.0
C1188 C 0.19738 0.2704 0.31497 0.0
C1189 C 0.21865 0.27051 0.30625 0.0
C1190 C 0.21606 0.33346 0.34911 0.0
C1191 C 0.17669 0.24819 0.30854 0.0
H1192 H 0.13695 0.27648 0.38258 0.0
H1193 H 0.12474 0.30861 0.32136 0.0
H1194 H 0.18154 0.25639 0.36513 0.0
H1195 H 0.19545 0.28648 0.37924 0.0
H1196 H 0.17071 0.26652 0.39045 0.0
H1197 H 0.15017 0.31731 0.29363 0.0
H1198 H 0.17962 0.32602 0.30502 0.0
H1199 H 0.16616 0.29602 0.29054 0.0
H1200 H 0.25227 0.32631 0.32985 0.0
H1201 H 0.2191 0.25461 0.29545 0.0
H1202 H 0.20849 0.32812 0.36529 0.0
H1203 H 0.20534 0.34285 0.33999 0.0
H1204 H 0.23344 0.34673 0.35337 0.0
H1205 H 0.16951 0.24067 0.32426 0.0
H1206 H 0.18058 0.23344 0.298 0.0
H1207 H 0.16333 0.25363 0.29876 0.0
C1208 C 0.98396 0.06247 0.18929 0.0
C1209 C 0.96128 0.06232 0.18788 0.0
C1210 C 0.9954 0.06275 0.16954 0.0
C1211 C 0.98395 0.06331 0.14797 0.0
C1212 C 0.9615 0.06462 0.14659 0.0
C1213 C 0.95034 0.06392 0.16659 0.0
C1214 C 0.01931 0.06116 0.17163 0.0
C1215 C 0.94898 0.06577 0.12391 0.0
C1216 C 0.0216 0.07894 0.0996 0.0
C1217 C 0.01918 0.05546 0.08908 0.0
C1218 C 1.00952 0.08189 0.11828 0.0
C1219 C 0.99501 0.06082 0.1268 0.0
C1220 C 0.99203 0.0371 0.11586 0.0
C1221 C 1.00403 0.03472 0.09697 0.0
C1222 C 0.01272 0.10748 0.12924 0.0
C1223 C 0.97682 0.01418 0.12463 0.0
H1224 H 0.9925 0.0612 0.20569 0.0
H1225 H 0.93285 0.06402 0.16546 0.0
H1226 H 0.01943 0.04355 0.16263 0.0
H1227 H 0.03087 0.07628 0.16331 0.0
H1228 H 0.02621 0.06215 0.18977 0.0
H1229 H 0.93262 0.0694 0.12608 0.0
H1230 H 0.95969 0.08039 0.11439 0.0
H1231 H 0.94532 0.04806 0.11319 0.0
H1232 H 0.03309 0.09506 0.09335 0.0
H1233 H 1.00212 0.01654 0.08887 0.0
H1234 H 0.0214 0.10979 0.14681 0.0
H1235 H 0.99596 0.11027 0.13085 0.0
H1236 H 0.02302 0.12199 0.11931 0.0
H1237 H 0.98341 0.01255 0.14231 0.0
H1238 H 0.97576 0.9972 0.11369 0.0
H1239 H 0.95938 0.01539 0.12542 0.0
C1240 C 0.2696 0.66865 0.50686 0.0
C1241 C 0.29058 0.66778 0.51672 0.0
C1242 C 0.26841 0.68208 0.48805 0.0
C1243 C 0.28871 0.69506 0.4789 0.0
C1244 C 0.30999 0.69458 0.48893 0.0
C1245 C 0.31068 0.68089 0.50773 0.0
C1246 C 0.24538 0.68209 0.47778 0.0
C1247 C 0.33197 0.70831 0.47963 0.0
C1248 C 0.28219 0.70904 0.41712 0.0
C1249 C 0.28188 0.7334 0.41978 0.0
C1250 C 0.28492 0.69652 0.43623 0.0
C1251 C 0.28745 0.70869 0.45852 0.0
C1252 C 0.28757 0.73343 0.46132 0.0
C1253 C 0.28472 0.74548 0.44189 0.0
C1254 C 0.28454 0.67007 0.43257 0.0
C1255 C 0.29033 0.74702 0.48483 0.0
H1256 H 0.25397 0.65859 0.51367 0.0
H1257 H 0.32695 0.68033 0.51528 0.0
H1258 H 0.24483 0.70124 0.47792 0.0
H1259 H 0.24244 0.67418 0.45963 0.0
H1260 H 0.23125 0.67134 0.48716 0.0
H1261 H 0.34714 0.70666 0.48979 0.0
H1262 H 0.33193 0.70108 0.46161 0.0
H1263 H 0.33354 0.72809 0.47959 0.0
H1264 H 0.27977 0.69956 0.40006 0.0
H1265 H 0.28482 0.76443 0.444 0.0
H1266 H 0.26969 0.65799 0.44012 0.0
H1267 H 0.30007 0.66785 0.44144 0.0
H1268 H 0.28347 0.66365 0.41412 0.0
H1269 H 0.27581 0.73787 0.49451 0.0
H1270 H 0.29114 0.76655 0.48402 0.0
H1271 H 0.30607 0.74646 0.49466 0.0
C1272 C 0.58979 0.97623 0.69515 0.0
C1273 C 0.61096 0.97224 0.69504 0.0
C1274 C 0.57898 0.98099 0.67507 0.0
C1275 C 0.58938 0.9811 0.65438 0.0
C1276 C 0.60967 0.97477 0.65378 0.0
C1277 C 0.62043 0.97075 0.67425 0.0
C1278 C 0.55758 0.98809 0.67648 0.0
C1279 C 0.62087 0.97395 0.63186 0.0
C1280 C 0.55596 0.98565 0.59913 0.0
C1281 C 0.56548 0.01064 0.59615 0.0
C1282 C 0.56371 0.97557 0.61791 0.0
C1283 C 0.58085 0.9911 0.63429 0.0
C1284 C 0.59013 0.01649 0.63154 0.0
C1285 C 0.58256 0.02587 0.61226 0.0
C1286 C 0.55397 0.94831 0.61996 0.0
C1287 C 0.60808 0.03375 0.64894 0.0
H1288 H 0.58249 0.97752 0.71124 0.0
H1289 H 0.63672 0.96746 0.67414 0.0
H1290 H 0.56159 0.00809 0.67475 0.0
H1291 H 0.54454 0.97818 0.66227 0.0
H1292 H 0.55019 0.98419 0.69302 0.0
H1293 H 0.63422 0.96481 0.63348 0.0
H1294 H 0.60805 0.96407 0.61744 0.0
H1295 H 0.62891 0.99298 0.62742 0.0
H1296 H 0.54297 0.97384 0.58639 0.0
H1297 H 0.58983 0.04521 0.60989 0.0
H1298 H 0.54649 0.94513 0.63652 0.0
H1299 H 0.56777 0.93979 0.61983 0.0
H1300 H 0.54064 0.93882 0.6058 0.0
H1301 H 0.60195 0.0327 0.66625 0.0
H1302 H 0.61265 0.05318 0.6448 0.0
H1303 H 0.62372 0.02821 0.64972 0.0
C1304 C 0.3079 0.35371 0.96574 0.0
C1305 C 0.2963 0.33575 0.97952 0.0
C1306 C 0.30886 0.34799 0.94221 0.0
C1307 C 0.29801 0.32366 0.93203 0.0
C1308 C 0.2864 0.30538 0.94584 0.0
C1309 C 0.28566 0.31163 0.96936 0.0
C1310 C 0.32141 0.36809 0.92821 0.0
C1311 C 0.27463 0.27922 0.93573 0.0
C1312 C 0.28274 0.31464 0.86715 0.0
C1313 C 0.30055 0.307 0.85916 0.0
C1314 C 0.28159 0.31984 0.89073 0.0
C1315 C 0.29868 0.31747 0.9069 0.0
C1316 C 0.31664 0.30968 0.89898 0.0
C1317 C 0.31734 0.30451 0.87529 0.0
C1318 C 0.26209 0.32801 0.89834 0.0
C1319 C 0.33524 0.30694 0.91557 0.0
H1320 H 0.3162 0.37241 0.9733 0.0
H1321 H 0.27666 0.29758 0.97977 0.0
H1322 H 0.33508 0.36285 0.9201 0.0
H1323 H 0.30955 0.37049 0.91419 0.0
H1324 H 0.32916 0.38602 0.9387 0.0
H1325 H 0.26656 0.26708 0.94876 0.0
H1326 H 0.26133 0.27881 0.92192 0.0
H1327 H 0.28706 0.27158 0.92785 0.0
H1328 H 0.26956 0.31651 0.85496 0.0
H1329 H 0.33118 0.29863 0.86942 0.0
H1330 H 0.26877 0.34671 0.9076 0.0
H1331 H 0.25277 0.31548 0.91046 0.0
H1332 H 0.24986 0.32838 0.88371 0.0
H1333 H 0.34434 0.32489 0.92549 0.0
H1334 H 0.34782 0.30033 0.90675 0.0
H1335 H 0.32773 0.2938 0.92804 0.0
C1336 C 0.9605 0.01948 0.29005 0.0
C1337 C 0.93842 1.00327 0.28401 0.0
C1338 C 0.97377 0.01659 0.30932 0.0
C1339 C 0.96464 0.99715 0.32294 0.0
C1340 C 0.94271 0.98017 0.31644 0.0
C1341 C 0.92989 0.98337 0.29697 0.0
C1342 C 0.99721 0.0349 0.31559 0.0
C1343 C 0.93237 0.95927 0.33061 0.0
C1344 C 1.00449 0.98126 0.36688 0.0
C1345 C 1.00173 0.99443 0.38691 0.0
C1346 C 0.99247 0.98186 0.34588 0.0
C1347 C 0.97725 0.99582 0.34498 0.0
C1348 C 0.97421 0.00893 0.36515 0.0
C1349 C 0.98658 0.00819 0.38582 0.0
C1350 C 0.99618 0.96774 0.32465 0.0
C1351 C 0.95807 0.02399 0.36488 0.0
H1352 H 0.96728 0.03477 0.27998 0.0
H1353 H 0.91287 0.97069 0.29236 0.0
H1354 H 0.99737 0.04602 0.33186 0.0
H1355 H 1.00994 0.02515 0.31845 0.0
H1356 H 1.00259 0.04759 0.30213 0.0
H1357 H 0.916 0.94648 0.32216 0.0
H1358 H 0.94431 0.94867 0.33388 0.0
H1359 H 0.92923 0.96683 0.34751 0.0
H1360 H 0.01599 0.97038 0.36765 0.0
H1361 H 0.98467 0.01882 0.4011 0.0
H1362 H 1.00258 0.98057 0.31157 0.0
H1363 H 0.9798 0.95431 0.31706 0.0
H1364 H 1.00854 0.95768 0.32828 0.0
H1365 H 0.96359 0.03883 0.35339 0.0
H1366 H 0.95716 0.0325 0.38221 0.0
H1367 H 0.9407 0.01222 0.358 0.0
C1368 C 0.32274 0.67515 0.64435 0.0
C1369 C 0.30257 0.66948 0.62971 0.0
C1370 C 0.32521 0.68889 0.66566 0.0
C1371 C 0.30705 0.69701 0.67241 0.0
C1372 C 0.2864 0.69057 0.65804 0.0
C1373 C 0.28444 0.67696 0.63686 0.0
C1374 C 0.34745 0.69538 0.68062 0.0
C1375 C 0.26657 0.69873 0.66472 0.0
C1376 C 0.30388 0.72101 0.7335 0.0
C1377 C 0.31007 0.74644 0.7317 0.0
C1378 C 0.30368 0.70459 0.71456 0.0
C1379 C 0.31007 0.71393 0.6935 0.0
C1380 C 0.31744 0.73964 0.69197 0.0
C1381 C 0.31723 0.75557 0.71105 0.0
C1382 C 0.29557 0.67726 0.71677 0.0
C1383 C 0.32468 0.75033 0.66988 0.0
H1384 H 0.33677 0.66929 0.63898 0.0
H1385 H 0.2687 0.67242 0.62577 0.0
H1386 H 0.35591 0.71558 0.68205 0.0
H1387 H 0.34432 0.69013 0.6982 0.0
H1388 H 0.35926 0.68616 0.6737 0.0
H1389 H 0.25116 0.69068 0.6524 0.0
H1390 H 0.26223 0.69339 0.68203 0.0
H1391 H 0.27134 0.71909 0.6655 0.0
H1392 H 0.29842 0.71383 0.74947 0.0
H1393 H 0.32238 0.77522 0.70964 0.0
H1394 H 0.30738 0.66833 0.70946 0.0
H1395 H 0.27866 0.66887 0.70691 0.0
H1396 H 0.29398 0.67313 0.73489 0.0
H1397 H 0.33766 0.74277 0.66313 0.0
H1398 H 0.33182 0.77073 0.67212 0.0
H1399 H 0.30981 0.74508 0.65676 0.0
C1400 C 0.61782 0.05269 0.78633 0.0
C1401 C 0.62139 0.02969 0.78525 0.0
C1402 C 0.60774 0.06053 0.80478 0.0
C1403 C 0.60106 0.0449 0.82235 0.0
C1404 C 0.60355 0.02116 0.82069 0.0
C1405 C 0.61372 0.01387 0.80217 0.0
C1406 C 0.6053 0.08594 0.80603 0.0
C1407 C 0.59646 1.00389 0.83905 0.0
C1408 C 0.60191 0.06988 0.88365 0.0
C1409 C 0.57862 0.06423 0.88613 0.0
C1410 C 0.60949 0.06488 0.86255 0.0
C1411 C 0.59334 0.0539 0.84354 0.0
C1412 C 0.56984 0.04932 0.84562 0.0
C1413 C 0.56273 0.05459 0.86697 0.0
C1414 C 0.63473 0.0702 0.86093 0.0
C1415 C 0.55218 0.03764 0.82567 0.0
H1416 H 0.62368 0.06497 0.77326 0.0
H1417 H 0.61622 0.99595 0.80128 0.0
H1418 H 0.58787 0.08518 0.80994 0.0
H1419 H 0.61735 0.09786 0.82014 0.0
H1420 H 0.60887 0.09466 0.78982 0.0
H1421 H 0.59793 0.98541 0.83427 0.0
H1422 H 0.60735 0.01175 0.85529 0.0
H1423 H 0.5786 1.0017 0.84242 0.0
H1424 H 0.6142 0.07775 0.8984 0.0
H1425 H 0.5447 0.05013 0.86891 0.0
H1426 H 0.64007 0.08079 0.84607 0.0
H1427 H 0.63857 0.05263 0.85815 0.0
H1428 H 0.64509 0.08075 0.87669 0.0
H1429 H 0.55692 0.0471 0.81006 0.0
H1430 H 0.53497 0.03812 0.82929 0.0
H1431 H 0.55135 0.01816 0.82184 0.0
C1432 C 0.3117 0.34995 0.11976 0.0
C1433 C 0.29135 0.35216 0.10953 0.0
C1434 C 0.31317 0.34291 0.14223 0.0
C1435 C 0.29378 0.33766 0.1548 0.0
C1436 C 0.27313 0.33952 0.14441 0.0
C1437 C 0.27221 0.34682 0.12207 0.0
C1438 C 0.33555 0.34128 0.15263 0.0
C1439 C 0.25193 0.33379 0.15693 0.0
C1440 C 0.29094 0.29676 0.20381 0.0
C1441 C 0.29646 0.31383 0.22337 0.0
C1442 C 0.28997 0.30426 0.18157 0.0
C1443 C 0.29482 0.32956 0.17853 0.0
C1444 C 0.3003 0.34694 0.19817 0.0
C1445 C 0.30094 0.33888 0.22033 0.0
C1446 C 0.28375 0.285 0.16126 0.0
C1447 C 0.30573 0.37411 0.19576 0.0
H1448 H 0.32665 0.35419 0.11037 0.0
H1449 H 0.25637 0.34841 0.11441 0.0
H1450 H 0.34118 0.3537 0.16874 0.0
H1451 H 0.33342 0.3223 0.15714 0.0
H1452 H 0.34915 0.34632 0.14085 0.0
H1453 H 0.23719 0.33603 0.14649 0.0
H1454 H 0.24731 0.31459 0.16166 0.0
H1455 H 0.25517 0.34606 0.17309 0.0
H1456 H 0.28737 0.27734 0.20584 0.0
H1457 H 0.30537 0.35227 0.23523 0.0
H1458 H 0.2978 0.28856 0.14999 0.0
H1459 H 0.26845 0.28601 0.15092 0.0
H1460 H 0.28024 0.26605 0.16649 0.0
H1461 H 0.32043 0.38035 0.18547 0.0
H1462 H 0.30984 0.38531 0.21263 0.0
H1463 H 0.29104 0.37766 0.18645 0.0
C1464 C 0.25219 0.99359 0.03105 0.0
C1465 C 0.25957 0.97931 0.04637 0.0
C1466 C 0.23858 0.00777 0.03789 0.0
C1467 C 0.23217 0.00756 0.06055 0.0
C1468 C 0.23964 0.9933 0.07612 0.0
C1469 C 0.25331 0.97937 0.06885 0.0
C1470 C 0.23075 0.02268 0.0208 0.0
C1471 C 0.23296 0.99251 0.10035 0.0
C1472 C 0.21092 0.05906 0.08349 0.0
C1473 C 0.18729 0.04774 0.08013 0.0
C1474 C 0.22582 0.0461 0.07741 0.0
C1475 C 0.21678 0.0214 0.06764 0.0
C1476 C 0.19295 0.00988 0.06431 0.0
C1477 C 0.1785 0.02317 0.07068 0.0
C1478 C 0.25119 0.05891 0.08115 0.0
C1479 C 0.18267 0.98361 0.0538 0.0
H1480 H 0.25702 0.99368 0.01367 0.0
H1481 H 0.25894 0.96837 0.08078 0.0
H1482 H 0.21188 0.01609 0.0178 0.0
H1483 H 0.23589 0.0423 0.02772 0.0
H1484 H 0.23785 0.02148 0.00408 0.0
H1485 H 0.2409 0.98121 0.11058 0.0
H1486 H 0.23802 0.01142 0.10913 0.0
H1487 H 0.21418 0.98473 0.10006 0.0
H1488 H 0.21772 0.07805 0.09079 0.0
H1489 H 0.16022 0.01451 0.06762 0.0
H1490 H 0.25864 0.05952 0.06449 0.0
H1491 H 0.25939 0.04844 0.09212 0.0
H1492 H 0.25546 0.07802 0.08934 0.0
H1493 H 0.18982 0.98095 0.03739 0.0
H1494 H 0.16385 0.97822 0.05043 0.0
H1495 H 0.18697 0.971 0.06551 0.0
C1496 C 0.72564 0.64714 0.01955 0.0
C1497 C 0.74274 0.64553 0.03575 0.0
C1498 C 0.70293 0.63234 0.01978 0.0
C1499 C 0.69714 0.61556 0.03664 0.0
C1500 C 0.71441 0.61337 0.05264 0.0
C1501 C 0.73699 0.62837 0.052 0.0
C1502 C 0.68501 0.63518 0.00239 0.0
C1503 C 0.70892 0.59573 0.0709 0.0
C1504 C 0.63666 0.59969 0.05325 0.0
C1505 C 0.62614 0.57658 0.04098 0.0
C1506 C 0.6598 0.61231 0.05223 0.0
C1507 C 0.67283 0.60165 0.03856 0.0
C1508 C 0.66249 0.57812 0.02647 0.0
C1509 C 0.63925 0.56582 0.02785 0.0
C1510 C 0.6702 0.63731 0.0655 0.0
C1511 C 0.67586 0.56617 0.01172 0.0
H1512 H 0.72993 0.66025 0.00686 0.0
H1513 H 0.75008 0.62691 0.06453 0.0
H1514 H 0.67507 0.61701 0.99331 0.0
H1515 H 0.67289 0.64248 0.01125 0.0
H1516 H 0.69248 0.64783 0.98949 0.0
H1517 H 0.72447 0.59501 0.08105 0.0
H1518 H 0.69793 0.60143 0.08277 0.0
H1519 H 0.69927 0.57692 0.063 0.0
H1520 H 0.62675 0.60813 0.06355 0.0
H1521 H 0.63125 0.54801 0.01827 0.0
H1522 H 0.67642 0.65146 0.05348 0.0
H1523 H 0.6851 0.63739 0.07716 0.0
H1524 H 0.65789 0.64271 0.07585 0.0
H1525 H 0.68202 0.57768 0.99764 0.0
H1526 H 0.66556 0.54742 0.00411 0.0
H1527 H 0.69109 0.5649 0.02201 0.0
C1528 C 0.72296 0.47935 0.29692 0.0
C1529 C 0.69997 0.46581 0.29765 0.0
C1530 C 0.73833 0.46817 0.28869 0.0
C1531 C 0.73059 0.44276 0.28126 0.0
C1532 C 0.70747 0.42886 0.28215 0.0
C1533 C 0.69235 0.44062 0.29023 0.0
C1534 C 0.76285 0.48361 0.28788 0.0
C1535 C 0.69879 0.40161 0.27465 0.0
C1536 C 0.76745 0.41988 0.24234 0.0
C1537 C 0.78064 0.41162 0.25821 0.0
C1538 C 0.75074 0.42975 0.24955 0.0
C1539 C 0.74698 0.43083 0.27305 0.0
C1540 C 0.7599 0.42188 0.28901 0.0
C1541 C 0.77673 0.41256 0.2814 0.0
C1542 C 0.7374 0.43941 0.23214 0.0
C1543 C 0.75612 0.42236 0.31415 0.0
H1544 H 0.72899 0.49886 0.30251 0.0
H1545 H 0.67461 0.43009 0.29079 0.0
H1546 H 0.77422 0.4765 0.29887 0.0
H1547 H 0.76771 0.48235 0.27012 0.0
H1548 H 0.76596 0.50329 0.29374 0.0
H1549 H 0.68049 0.39334 0.27707 0.0
H1550 H 0.7011 0.39834 0.25628 0.0
H1551 H 0.70874 0.39192 0.2845 0.0
H1552 H 0.77042 0.41885 0.22438 0.0
H1553 H 0.78661 0.40554 0.29355 0.0
H1554 H 0.74067 0.4594 0.23652 0.0
H1555 H 0.71888 0.4302 0.23252 0.0
H1556 H 0.74195 0.43653 0.21444 0.0
H1557 H 0.76131 0.4417 0.32189 0.0
H1558 H 0.76596 0.41239 0.32382 0.0
H1559 H 0.73779 0.41396 0.31629 0.0
C1560 C 0.87773 0.49068 0.49732 0.0
C1561 C 0.86542 0.50223 0.51075 0.0
C1562 C 0.90152 0.49901 0.49938 0.0
C1563 C 0.91329 0.51973 0.5149 0.0
C1564 C 0.90102 0.53268 0.52718 0.0
C1565 C 0.87712 0.52364 0.52509 0.0
C1566 C 0.91399 0.48456 0.48612 0.0
C1567 C 0.91311 0.55524 0.54343 0.0
C1568 C 0.97028 0.51821 0.54079 0.0
C1569 C 0.98515 0.53238 0.52648 0.0
C1570 C 0.94687 0.5146 0.53762 0.0
C1571 C 0.93824 0.5259 0.52002 0.0
C1572 C 0.95329 0.54111 0.50615 0.0
C1573 C 0.97661 0.54393 0.50936 0.0
C1574 C 0.93128 0.49786 0.5525 0.0
C1575 C 0.9447 0.5539 0.48761 0.0
H1576 H 0.86883 0.47426 0.48599 0.0
H1577 H 0.86771 0.53282 0.53531 0.0
H1578 H 0.92713 0.49695 0.4768 0.0
H1579 H 0.92287 0.47573 0.49822 0.0
H1580 H 0.90233 0.46996 0.47355 0.0
H1581 H 0.90136 0.56535 0.54877 0.0
H1582 H 0.92067 0.5497 0.55901 0.0
H1583 H 0.92723 0.56791 0.5354 0.0
H1584 H 0.97686 0.50929 0.55407 0.0
H1585 H 0.98817 0.55525 0.49852 0.0
H1586 H 0.91958 0.48163 0.5417 0.0
H1587 H 0.92063 0.5076 0.56093 0.0
H1588 H 0.94082 0.49125 0.56597 0.0
H1589 H 0.93447 0.54008 0.47365 0.0
H1590 H 0.95883 0.56727 0.48015 0.0
H1591 H 0.9334 0.56376 0.49454 0.0
C1592 C 0.41726 0.12149 0.25254 0.0
C1593 C 0.41155 0.11273 0.27376 0.0
C1594 C 0.40412 0.13358 0.24063 0.0
C1595 C 0.3849 0.13693 0.25023 0.0
C1596 C 0.37927 0.12846 0.2718 0.0
C1597 C 0.39267 0.11649 0.28329 0.0
C1598 C 0.41055 0.14239 0.21768 0.0
C1599 C 0.35897 0.13188 0.28272 0.0
C1600 C 0.3577 0.18534 0.23767 0.0
C1601 C 0.33675 0.17088 0.22614 0.0
C1602 C 0.37467 0.17494 0.24375 0.0
C1603 C 0.3705 0.14947 0.23817 0.0
C1604 C 0.35035 0.13534 0.22451 0.0
C1605 C 0.33361 0.14624 0.21869 0.0
C1606 C 0.39597 0.19062 0.25827 0.0
C1607 C 0.34542 0.10816 0.21804 0.0
H1608 H 0.43181 0.11859 0.24504 0.0
H1609 H 0.38817 0.10983 0.29969 0.0
H1610 H 0.39663 0.13274 0.20416 0.0
H1611 H 0.41282 0.16235 0.21786 0.0
H1612 H 0.42649 0.13914 0.21297 0.0
H1613 H 0.35702 0.1243 0.29963 0.0
H1614 H 0.36068 0.15174 0.28516 0.0
H1615 H 0.34315 0.12265 0.27129 0.0
H1616 H 0.36005 0.20426 0.24392 0.0
H1617 H 0.31744 0.13508 0.2097 0.0
H1618 H 0.41132 0.18842 0.25098 0.0
H1619 H 0.39592 0.18453 0.2758 0.0
H1620 H 0.39736 0.21045 0.25971 0.0
H1621 H 0.36077 0.10428 0.21243 0.0
H1622 H 0.3313 0.10094 0.20413 0.0
H1623 H 0.3405 0.09801 0.23325 0.0
C1624 C 0.3582 0.15552 0.53176 0.0
C1625 C 0.34512 0.1561 0.55021 0.0
C1626 C 0.37351 0.14185 0.53174 0.0
C1627 C 0.37583 0.12847 0.55063 0.0
C1628 C 0.36278 0.12911 0.56935 0.0
C1629 C 0.34759 0.14288 0.56891 0.0
C1630 C 0.38712 0.14163 0.51144 0.0
C1631 C 0.36477 0.1151 0.58982 0.0
C1632 C 0.39859 0.07436 0.54228 0.0
C1633 C 0.42126 0.08457 0.55185 0.0
C1634 C 0.3837 0.08848 0.54162 0.0
C1635 C 0.39165 0.11347 0.5507 0.0
C1636 C 0.41456 0.12398 0.56018 0.0
C1637 C 0.42907 0.10942 0.56065 0.0
C1638 C 0.35943 0.0766 0.53128 0.0
C1639 C 0.42367 0.15056 0.57005 0.0
H1640 H 0.35643 0.16566 0.51723 0.0
H1641 H 0.33761 0.14323 0.58327 0.0
H1642 H 0.4056 0.14834 0.51719 0.0
H1643 H 0.38315 0.12252 0.50342 0.0
H1644 H 0.38356 0.15325 0.49824 0.0
H1645 H 0.35368 0.11778 0.60314 0.0
H1646 H 0.36005 0.09514 0.58428 0.0
H1647 H 0.38266 0.12109 0.59763 0.0
H1648 H 0.39251 0.05531 0.53509 0.0
H1649 H 0.44648 0.11739 0.5683 0.0
H1650 H 0.35566 0.0868 0.51696 0.0
H1651 H 0.34752 0.07746 0.54431 0.0
H1652 H 0.35598 0.05704 0.52472 0.0
H1653 H 0.42127 0.16275 0.55691 0.0
H1654 H 0.44204 0.15611 0.57627 0.0
H1655 H 0.41403 0.15361 0.58456 0.0
C1656 C 0.74018 0.60745 0.34187 0.0
C1657 C 0.72269 0.59298 0.32559 0.0
C1658 C 0.75243 0.63174 0.33838 0.0
C1659 C 0.7471 0.6416 0.3181 0.0
C1660 C 0.72985 0.62688 0.30138 0.0
C1661 C 0.71781 0.60277 0.30537 0.0
C1662 C 0.77067 0.64701 0.35659 0.0
C1663 C 0.72378 0.63676 0.27947 0.0
C1664 C 0.75826 0.70996 0.3161 0.0
C1665 C 0.77735 0.71634 0.30361 0.0
C1666 C 0.74882 0.68585 0.32178 0.0
C1667 C 0.75866 0.66769 0.31469 0.0
C1668 C 0.77842 0.67417 0.30282 0.0
C1669 C 0.7876 0.6985 0.29746 0.0
C1670 C 0.72781 0.67965 0.33461 0.0
C1671 C 0.78932 0.65523 0.29498 0.0
H1672 H 0.74403 0.59997 0.35753 0.0
H1673 H 0.70443 0.59164 0.29263 0.0
H1674 H 0.78695 0.65472 0.34899 0.0
H1675 H 0.76573 0.6628 0.36382 0.0
H1676 H 0.77357 0.6362 0.37081 0.0
H1677 H 0.71066 0.62254 0.26777 0.0
H1678 H 0.71723 0.65235 0.28355 0.0
H1679 H 0.73917 0.6439 0.27031 0.0
H1680 H 0.75038 0.7237 0.32115 0.0
H1681 H 0.8024 0.70334 0.28787 0.0
H1682 H 0.73038 0.67001 0.3498 0.0
H1683 H 0.71316 0.66697 0.32338 0.0
H1684 H 0.72333 0.69626 0.3404 0.0
H1685 H 0.79248 0.64493 0.30948 0.0
H1686 H 0.80569 0.66364 0.2877 0.0
H1687 H 0.77758 0.64167 0.28169 0.0
C1688 C 0.87719 0.46032 0.8098 0.0
C1689 C 0.90096 0.46751 0.80985 0.0
C1690 C 0.86396 0.43554 0.80543 0.0
C1691 C 0.87479 0.41754 0.80109 0.0
C1692 C 0.89877 0.42461 0.80122 0.0
C1693 C 0.91159 0.44957 0.80556 0.0
C1694 C 0.83839 0.42863 0.80534 0.0
C1695 C 0.91085 0.40582 0.79673 0.0
C1696 C 0.84234 0.35148 0.80952 0.0
C1697 C 0.83425 0.34156 0.7869 0.0
C1698 C 0.85569 0.37619 0.81439 0.0
C1699 C 0.86094 0.39129 0.7962 0.0
C1700 C 0.85276 0.38143 0.77335 0.0
C1701 C 0.83953 0.35664 0.76896 0.0
C1702 C 0.8642 0.38614 0.83897 0.0
C1703 C 0.85795 0.39706 0.75354 0.0
H1704 H 0.86884 0.47409 0.81308 0.0
H1705 H 0.92996 0.455 0.80563 0.0
H1706 H 0.83007 0.41929 0.78836 0.0
H1707 H 0.83243 0.41547 0.81826 0.0
H1708 H 0.83265 0.44489 0.80913 0.0
H1709 H 0.92963 0.41434 0.79771 0.0
H1710 H 0.90684 0.39198 0.80938 0.0
H1711 H 0.90477 0.39583 0.77947 0.0
H1712 H 0.83839 0.33991 0.82346 0.0
H1713 H 0.83332 0.3491 0.75143 0.0
H1714 H 0.85779 0.40163 0.84392 0.0
H1715 H 0.88307 0.39349 0.84083 0.0
H1716 H 0.85875 0.3719 0.8511 0.0
H1717 H 0.85136 0.41289 0.75593 0.0
H1718 H 0.85032 0.38653 0.73677 0.0
H1719 H 0.87664 0.40469 0.753 0.0
C1720 C 0.11849 0.9015 0.09437 0.0
C1721 C 0.10149 0.88166 0.10152 0.0
C1722 C 0.11332 0.92173 0.08584 0.0
C1723 C 0.09065 0.92252 0.08486 0.0
C1724 C 0.0734 0.90248 0.09198 0.0
C1725 C 0.07896 0.88224 0.09996 0.0
C1726 C 0.13217 0.94231 0.07792 0.0
C1727 C 0.0491 0.90268 0.09166 0.0
C1728 C 0.08147 0.98548 0.08402 0.0
C1729 C 0.07379 0.98544 0.06094 0.0
C1730 C 0.08686 0.96515 0.09204 0.0
C1731 C 0.08501 0.94435 0.07657 0.0
C1732 C 0.07765 0.94441 0.05317 0.0
C1733 C 0.07195 0.96477 0.04572 0.0
C1734 C 0.09434 0.96584 0.11716 0.0
C1735 C 0.07592 0.92297 0.03594 0.0
H1736 H 0.13593 0.90125 0.09544 0.0
H1737 H 0.06572 0.86716 0.10565 0.0
H1738 H 0.12769 0.94508 0.05991 0.0
H1739 H 0.13427 0.9598 0.08848 0.0
H1740 H 0.14873 0.93857 0.07901 0.0
H1741 H 0.03769 0.88579 0.09786 0.0
H1742 H 0.04841 0.91893 0.10263 0.0
H1743 H 0.04248 0.90431 0.07401 0.0
H1744 H 0.08297 1.0013 0.09596 0.0
H1745 H 0.06628 0.96457 0.0278 0.0
H1746 H 0.11168 0.96412 0.11925 0.0
H1747 H 0.08276 0.94999 0.12461 0.0
H1748 H 0.09451 0.98311 0.12706 0.0
H1749 H 0.09262 0.91964 0.03596 0.0
H1750 H 0.07056 0.9261 0.01827 0.0
H1751 H 0.06346 0.906 0.04077 0.0
C1752 C 0.9404 0.27209 0.88887 0.0
C1753 C 0.94639 0.25038 0.88861 0.0
C1754 C 0.92166 0.27349 0.87466 0.0
C1755 C 0.90841 0.25265 0.85986 0.0
C1756 C 0.91414 0.23058 0.85978 0.0
C1757 C 0.93305 0.22974 0.87406 0.0
C1758 C 0.91624 0.29742 0.87525 0.0
C1759 C 0.90041 0.20788 0.84443 0.0
C1760 C 0.8486 0.25008 0.83641 0.0
C1761 C 0.85202 0.25732 0.81421 0.0
C1762 C 0.8667 0.24841 0.85138 0.0
C1763 C 0.88889 0.2541 0.84409 0.0
C1764 C 0.89244 0.26128 0.82169 0.0
C1765 C 0.87403 0.26277 0.80706 0.0
C1766 C 0.86209 0.24068 0.87508 0.0
C1767 C 0.9158 0.26764 0.81323 0.0
H1768 H 0.95056 0.28818 0.89998 0.0
H1769 H 0.93742 0.21284 0.87373 0.0
H1770 H 0.9175 0.30439 0.85808 0.0
H1771 H 0.89849 0.29439 0.87948 0.0
H1772 H 0.92791 0.3118 0.888 0.0
H1773 H 0.90665 0.19195 0.84683 0.0
H1774 H 0.88226 0.20268 0.8479 0.0
H1775 H 0.90114 0.21178 0.82621 0.0
H1776 H 0.83175 0.24586 0.84223 0.0
H1777 H 0.87698 0.26847 0.79004 0.0
H1778 H 0.87269 0.25531 0.88822 0.0
H1779 H 0.8669 0.22387 0.87752 0.0
H1780 H 0.84392 0.2369 0.87817 0.0
H1781 H 0.92786 0.28319 0.82452 0.0
H1782 H 0.91577 0.27283 0.79536 0.0
H1783 H 0.92233 0.25173 0.81397 0.0
C1784 C 0.57326 0.22786 0.58978 0.0
C1785 C 0.58342 0.23397 0.61243 0.0
C1786 C 0.56887 0.20397 0.57876 0.0
C1787 C 0.57497 0.18584 0.59059 0.0
C1788 C 0.58562 0.19212 0.61327 0.0
C1789 C 0.58961 0.21595 0.62387 0.0
C1790 C 0.55737 0.198 0.55462 0.0
C1791 C 0.59261 0.17353 0.62651 0.0
C1792 C 0.54557 0.11716 0.57463 0.0
C1793 C 0.56181 0.11028 0.56265 0.0
C1794 C 0.54928 0.14178 0.58306 0.0
C1795 C 0.56985 0.16009 0.57968 0.0
C1796 C 0.58616 0.15335 0.56728 0.0
C1797 C 0.58191 0.1286 0.55883 0.0
C1798 C 0.53133 0.1481 0.59598 0.0
C1799 C 0.60838 0.1722 0.56342 0.0
H1800 H 0.56837 0.2416 0.5808 0.0
H1801 H 0.59762 0.22044 0.64131 0.0
H1802 H 0.568 0.19102 0.54323 0.0
H1803 H 0.54085 0.18317 0.5543 0.0
H1804 H 0.55422 0.21423 0.54754 0.0
H1805 H 0.60138 0.18153 0.64373 0.0
H1806 H 0.57737 0.1578 0.62869 0.0
H1807 H 0.60416 0.1661 0.61682 0.0
H1808 H 0.52984 0.10328 0.57744 0.0
H1809 H 0.59456 0.12356 0.54955 0.0
H1810 H 0.52681 0.16343 0.58855 0.0
H1811 H 0.53812 0.15443 0.61411 0.0
H1812 H 0.51559 0.13216 0.59569 0.0
H1813 H 0.60512 0.18784 0.55533 0.0
H1814 H 0.61874 0.16433 0.55238 0.0
H1815 H 0.6185 0.17971 0.58014 0.0
C1816 C 0.59807 0.78771 0.41441 0.0
C1817 C 0.57501 0.77872 0.4059 0.0
C1818 C 0.61533 0.78828 0.40002 0.0
C1819 C 0.60942 0.77951 0.37656 0.0
C1820 C 0.58618 0.77042 0.36786 0.0
C1821 C 0.56926 0.77021 0.38261 0.0
C1822 C 0.63992 0.79827 0.40992 0.0
C1823 C 0.57919 0.76081 0.34297 0.0
C1824 C 0.6538 0.80088 0.33457 0.0
C1825 C 0.66214 0.78083 0.332 0.0
C1826 C 0.63668 0.80071 0.34904 0.0
C1827 C 0.62757 0.77992 0.36114 0.0
C1828 C 0.6359 0.75961 0.35859 0.0
C1829 C 0.65315 0.76035 0.34412 0.0
C1830 C 0.62844 0.82284 0.35148 0.0
C1831 C 0.6265 0.73704 0.37105 0.0
H1832 H 0.60269 0.79437 0.43236 0.0
H1833 H 0.55149 0.76316 0.3759 0.0
H1834 H 0.64831 0.78388 0.40764 0.0
H1835 H 0.6492 0.81395 0.40064 0.0
H1836 H 0.64168 0.8046 0.42847 0.0
H1837 H 0.56041 0.75424 0.33891 0.0
H1838 H 0.58666 0.77548 0.33183 0.0
H1839 H 0.58588 0.74538 0.33862 0.0
H1840 H 0.66089 0.81689 0.32548 0.0
H1841 H 0.65937 0.74471 0.34201 0.0
H1842 H 0.63118 0.83055 0.36969 0.0
H1843 H 0.60988 0.81728 0.3463 0.0
H1844 H 0.6373 0.83755 0.34092 0.0
H1845 H 0.62904 0.74218 0.38984 0.0
H1846 H 0.6347 0.72273 0.36711 0.0
H1847 H 0.60789 0.72897 0.3663 0.0
C1848 C 0.06564 0.20783 0.44068 0.0
C1849 C 0.04445 0.21155 0.43502 0.0
C1850 C 0.06755 0.18722 0.45251 0.0
C1851 C 0.04795 0.16933 0.45948 0.0
C1852 C 0.02668 0.17328 0.45404 0.0
C1853 C 0.02524 0.19373 0.44207 0.0
C1854 C 0.09074 0.18441 0.45736 0.0
C1855 C 1.00506 0.15569 0.4609 0.0
C1856 C 0.04671 0.10236 0.47285 0.0
C1857 C 0.04969 0.10368 0.49709 0.0
C1858 C 0.04663 0.12323 0.46064 0.0
C1859 C 0.04938 0.14678 0.47244 0.0
C1860 C 0.05238 0.14819 0.49689 0.0
C1861 C 0.05263 0.12713 0.50864 0.0
C1862 C 0.04352 0.11996 0.43481 0.0
C1863 C 0.05511 0.17213 0.51087 0.0
H1864 H 0.08083 0.22083 0.43553 0.0
H1865 H 1.00859 0.19571 0.43821 0.0
H1866 H 0.09464 0.18446 0.47609 0.0
H1867 H 0.09088 0.16644 0.4492 0.0
H1868 H 0.10438 0.19934 0.45094 0.0
H1869 H 0.98983 0.16121 0.45603 0.0
H1870 H 1.00244 0.13691 0.45264 0.0
H1871 H 1.0065 0.15468 0.47972 0.0
H1872 H 0.04454 0.08486 0.46321 0.0
H1873 H 0.055 0.12912 0.52721 0.0
H1874 H 0.05781 0.13356 0.42783 0.0
H1875 H 0.02761 0.1235 0.42862 0.0
H1876 H 0.04266 0.10116 0.42785 0.0
H1877 H 0.06988 0.18682 0.5059 0.0
H1878 H 0.05765 0.17077 0.52958 0.0
H1879 H 0.03978 0.17788 0.50731 0.0
C1880 C 0.63733 0.31399 0.22378 0.0
C1881 C 0.62336 0.29392 0.20851 0.0
C1882 C 0.65998 0.31528 0.23322 0.0
C1883 C 0.66997 0.2964 0.22735 0.0
C1884 C 0.65611 0.27661 0.2115 0.0
C1885 C 0.63361 0.27557 0.20274 0.0
C1886 C 0.67316 0.33686 0.25002 0.0
C1887 C 0.66503 0.25602 0.20372 0.0
C1888 C 0.73648 0.30623 0.23622 0.0
C1889 C 0.73935 0.29359 0.25557 0.0
C1890 C 0.71468 0.30772 0.22734 0.0
C1891 C 0.69425 0.29663 0.23778 0.0
C1892 C 0.69715 0.28428 0.25756 0.0
C1893 C 0.71908 0.28284 0.26593 0.0
C1894 C 0.71352 0.32101 0.20628 0.0
C1895 C 0.67681 0.27226 0.27006 0.0
H1896 H 0.63035 0.32843 0.22898 0.0
H1897 H 0.62381 0.25983 0.19104 0.0
H1898 H 0.67765 0.33024 0.26645 0.0
H1899 H 0.68936 0.34699 0.24329 0.0
H1900 H 0.66341 0.34982 0.25345 0.0
H1901 H 0.65307 0.24254 0.19049 0.0
H1902 H 0.6816 0.26365 0.1966 0.0
H1903 H 0.66806 0.24615 0.21859 0.0
H1904 H 0.75142 0.3149 0.22766 0.0
H1905 H 0.72026 0.27308 0.28087 0.0
H1906 H 0.70577 0.33574 0.20987 0.0
H1907 H 0.70244 0.30798 0.19222 0.0
H1908 H 0.73058 0.32938 0.20032 0.0
H1909 H 0.66787 0.28573 0.27461 0.0
H1910 H 0.6816 0.26488 0.28596 0.0
H1911 H 0.66456 0.25693 0.2587 0.0
C1912 C 0.53658 0.86241 0.94968 0.0
C1913 C 0.55479 0.85759 0.93907 0.0
C1914 C 0.53826 0.8857 0.96121 0.0
C1915 C 0.55871 0.90588 0.96252 0.0
C1916 C 0.57734 0.90128 0.95201 0.0
C1917 C 0.57525 0.87752 0.94064 0.0
C1918 C 0.51778 0.88869 0.972 0.0
C1919 C 0.59957 0.92172 0.9525 0.0
C1920 C 0.55321 0.97188 0.97536 0.0
C1921 C 0.55989 0.97774 0.99912 0.0
C1922 C 0.55341 0.94934 0.96332 0.0
C1923 C 0.56026 0.93133 0.97491 0.0
C1924 C 0.56718 0.93725 0.99885 0.0
C1925 C 0.56702 0.95999 0.01042 0.0
C1926 C 0.54598 0.9447 0.93798 0.0
C1927 C 0.57443 0.91921 0.01254 0.0
H1928 H 0.52055 0.84771 0.94899 0.0
H1929 H 0.58957 0.87474 0.93261 0.0
H1930 H 0.52233 0.89477 0.99055 0.0
H1931 H 0.51225 0.90315 0.96407 0.0
H1932 H 0.5032 0.87137 0.97005 0.0
H1933 H 0.61255 0.91565 0.94387 0.0
H1934 H 0.59673 0.9373 0.94392 0.0
H1935 H 0.60635 0.92874 0.9705 0.0
H1936 H 0.54771 0.98499 0.966 0.0
H1937 H 0.57226 0.9637 0.02864 0.0
H1938 H 0.53026 0.92864 0.93469 0.0
H1939 H 0.55928 0.94013 0.92859 0.0
H1940 H 0.54257 0.96082 0.93091 0.0
H1941 H 0.56 0.90193 0.01216 0.0
H1942 H 0.5802 0.92656 0.03069 0.0
H1943 H 0.58846 0.9144 0.00474 0.0
C1944 C 0.97421 0.78921 0.72379 0.0
C1945 C 0.97865 0.80025 0.70298 0.0
C1946 C 0.95369 0.78755 0.73507 0.0
C1947 C 0.93629 0.79707 0.72591 0.0
C1948 C 0.94081 0.80817 0.70503 0.0
C1949 C 0.96122 0.80955 0.69423 0.0
C1950 C 0.9506 0.77543 0.75704 0.0
C1951 C 0.92383 0.81882 0.69379 0.0
C1952 C 0.87186 0.77568 0.7414 0.0
C1953 C 0.87007 0.7949 0.75702 0.0
C1954 C 0.89281 0.77581 0.73192 0.0
C1955 C 0.91363 0.79568 0.73762 0.0
C1956 C 0.91198 0.81502 0.75354 0.0
C1957 C 0.89082 0.81441 0.76281 0.0
C1958 C 0.8925 0.75447 0.71532 0.0
C1959 C 0.93278 0.83692 0.7607 0.0
H1960 H 0.98675 0.78172 0.73139 0.0
H1961 H 0.96343 0.81824 0.6784 0.0
H1962 H 0.9488 0.7886 0.77096 0.0
H1963 H 0.93469 0.75956 0.75498 0.0
H1964 H 0.9651 0.76886 0.76233 0.0
H1965 H 0.92936 0.82694 0.67772 0.0
H1966 H 0.90712 0.80428 0.68974 0.0
H1967 H 0.92121 0.83331 0.70576 0.0
H1968 H 0.85661 0.76026 0.73629 0.0
H1969 H 0.89057 0.82967 0.7746 0.0
H1970 H 0.90598 0.74663 0.72114 0.0
H1971 H 0.89628 0.76098 0.69825 0.0
H1972 H 0.87581 0.73966 0.71341 0.0
H1973 H 0.94699 0.83069 0.76757 0.0
H1974 H 0.92959 0.84994 0.77393 0.0
H1975 H 0.9384 0.84687 0.74555 0.0
C1976 C 0.17195 0.06013 0.91162 0.0
C1977 C 0.17088 0.03846 0.89834 0.0
C1978 C 0.15936 0.05939 0.93057 0.0
C1979 C 0.14557 0.0364 0.93651 0.0
C1980 C 0.14553 0.01437 0.92407 0.0
C1981 C 0.15812 0.01566 0.90502 0.0
C1982 C 0.1598 0.08329 0.94342 0.0
C1983 C 0.1313 0.98952 0.93018 0.0
C1984 C 0.12196 0.03672 0.99426 0.0
C1985 C 0.10017 0.03816 0.98803 0.0
C1986 C 0.13675 0.03532 0.97762 0.0
C1987 C 0.12962 0.03569 0.95427 0.0
C1988 C 0.10749 0.03664 0.94785 0.0
C1989 C 0.09298 0.03773 0.96482 0.0
C1990 C 0.16012 0.03398 0.98504 0.0
C1991 C 0.09937 0.03722 0.9231 0.0
H1992 H 0.18185 0.07781 0.90664 0.0
H1993 H 0.15739 0.99882 0.89496 0.0
H1994 H 0.14283 0.08588 0.94064 0.0
H1995 H 0.16342 0.08281 0.96211 0.0
H1996 H 0.17274 0.09944 0.93779 0.0
H1997 H 0.13526 0.97417 0.92064 0.0
H1998 H 0.13403 0.9881 0.94883 0.0
H1999 H 0.11298 0.98725 0.92609 0.0
H2000 H 0.12755 0.03682 0.01219 0.0
H2001 H 0.07618 0.03886 0.9599 0.0
H2002 H 0.1733 0.05097 0.98132 0.0
H2003 H 0.1632 0.01828 0.97522 0.0
H2004 H 0.16234 0.03188 0.00365 0.0
H2005 H 0.11031 0.05395 0.9163 0.0
H2006 H 0.08143 0.03722 0.92093 0.0
H2007 H 0.10077 0.02106 0.91253 0.0
C2008 C 0.7742 0.3735 0.55646 0.0
C2009 C 0.79219 0.38983 0.54678 0.0
C2010 C 0.77846 0.35896 0.5734 0.0
C2011 C 0.80122 0.36075 0.58067 0.0
C2012 C 0.8194 0.37669 0.5705 0.0
C2013 C 0.81467 0.39108 0.55372 0.0
C2014 C 0.75865 0.34221 0.58399 0.0
C2015 C 0.84389 0.37902 0.57776 0.0
C2016 C 0.8143 0.34538 0.64067 0.0
C2017 C 0.81578 0.32158 0.63655 0.0
C2018 C 0.80941 0.35823 0.62263 0.0
C2019 C 0.80613 0.34709 0.59986 0.0
C2020 C 0.80789 0.32321 0.5955 0.0
C2021 C 0.81268 0.31069 0.61393 0.0
C2022 C 0.80773 0.38371 0.62795 0.0
C2023 C 0.80458 0.31085 0.5714 0.0
H2024 H 0.7568 0.37242 0.55116 0.0
H2025 H 0.82868 0.40353 0.5462 0.0
H2026 H 0.75953 0.32315 0.58284 0.0
H2027 H 0.75956 0.3484 0.60245 0.0
H2028 H 0.74196 0.34193 0.57556 0.0
H2029 H 0.85596 0.39118 0.56722 0.0
H2030 H 0.84827 0.38664 0.59598 0.0
H2031 H 0.84632 0.36063 0.57643 0.0
H2032 H 0.81707 0.35406 0.65808 0.0
H2033 H 0.81355 0.2922 0.61068 0.0
H2034 H 0.79072 0.38427 0.62133 0.0
H2035 H 0.82058 0.39724 0.61923 0.0
H2036 H 0.81045 0.38959 0.64664 0.0
H2037 H 0.7873 0.30896 0.56344 0.0
H2038 H 0.80674 0.29231 0.5709 0.0
H2039 H 0.81698 0.32236 0.56074 0.0
C2040 C 0.48192 0.0951 0.38632 0.0
C2041 C 0.45847 0.08317 0.38616 0.0
C2042 C 0.49713 0.09425 0.40484 0.0
C2043 C 0.48867 0.0806 0.42322 0.0
C2044 C 0.4649 0.06942 0.42358 0.0
C2045 C 0.45005 0.07112 0.40513 0.0
C2046 C 0.52228 0.1071 0.40428 0.0
C2047 C 0.45525 0.05446 0.44281 0.0
C2048 C 0.52449 0.0502 0.45771 0.0
C2049 C 0.52791 0.06403 0.47895 0.0
C2050 C 0.51256 0.05609 0.43894 0.0
C2051 C 0.50454 0.07666 0.44152 0.0
C2052 C 0.5097 0.09183 0.46247 0.0
C2053 C 0.52102 0.08508 0.48109 0.0
C2054 C 0.50706 0.03926 0.41695 0.0
C2055 C 0.50209 0.11434 0.46566 0.0
H2056 H 0.48843 0.10454 0.37167 0.0
H2057 H 0.43195 0.0617 0.40495 0.0
H2058 H 0.52967 0.11808 0.42088 0.0
H2059 H 0.53119 0.09322 0.40163 0.0
H2060 H 0.52576 0.11946 0.3903 0.0
H2061 H 0.43634 0.04746 0.44075 0.0
H2062 H 0.46177 0.03852 0.44341 0.0
H2063 H 0.46085 0.06573 0.45954 0.0
H2064 H 0.52968 0.03381 0.45622 0.0
H2065 H 0.52388 0.09584 0.49759 0.0
H2066 H 0.51184 0.05003 0.40209 0.0
H2067 H 0.48843 0.0297 0.41424 0.0
H2068 H 0.51595 0.02517 0.41717 0.0
H2069 H 0.50562 0.12533 0.45075 0.0
H2070 H 0.51066 0.12626 0.48151 0.0
H2071 H 0.48344 0.10857 0.46683 0.0
C2072 C 0.78809 0.75387 0.09963 0.0
C2073 C 0.79877 0.73743 0.09072 0.0
C2074 C 0.78892 0.75972 0.12345 0.0
C2075 C 0.80016 0.74834 0.13891 0.0
C2076 C 0.81108 0.7318 0.12999 0.0
C2077 C 0.81051 0.7268 0.10606 0.0
C2078 C 0.77759 0.77798 0.13208 0.0
C2079 C 0.82287 0.71885 0.14575 0.0
C2080 C 0.81845 0.77745 0.20061 0.0
C2081 C 0.80036 0.7642 0.21242 0.0
C2082 C 0.81853 0.77262 0.17678 0.0
C2083 C 0.80034 0.75363 0.16435 0.0
C2084 C 0.78219 0.7399 0.17624 0.0
C2085 C 0.78227 0.74555 0.20003 0.0
C2086 C 0.83796 0.78814 0.16485 0.0
C2087 C 0.76268 0.71916 0.16383 0.0
H2088 H 0.77902 0.76221 0.08793 0.0
H2089 H 0.81857 0.71383 0.09938 0.0
H2090 H 0.76349 0.76879 0.14222 0.0
H2091 H 0.78998 0.79301 0.14366 0.0
H2092 H 0.77061 0.7862 0.1179 0.0
H2093 H 0.83051 0.70648 0.13618 0.0
H2094 H 0.83651 0.73254 0.15733 0.0
H2095 H 0.81051 0.70778 0.15671 0.0
H2096 H 0.83242 0.79209 0.20993 0.0
H2097 H 0.76828 0.73514 0.20898 0.0
H2098 H 0.83127 0.7974 0.15135 0.0
H2099 H 0.84672 0.77631 0.15626 0.0
H2100 H 0.85068 0.8024 0.17689 0.0
H2101 H 0.75348 0.72639 0.15061 0.0
H2102 H 0.75037 0.70959 0.17563 0.0
H2103 H 0.7693 0.70552 0.15484 0.0
C2104 C 0.12797 0.02953 0.77405 0.0
C2105 C 0.13674 0.04779 0.79241 0.0
C2106 C 0.11614 0.03403 0.7545 0.0
C2107 C 0.11302 0.05734 0.75332 0.0
C2108 C 0.12058 0.07531 0.77236 0.0
C2109 C 0.13237 0.07032 0.79173 0.0
C2110 C 0.10821 0.01434 0.73456 0.0
C2111 C 0.11741 0.10032 0.77177 0.0
C2112 C 0.1106 0.07743 0.69346 0.0
C2113 C 0.08712 0.072 0.68792 0.0
C2114 C 0.11924 0.0734 0.71497 0.0
C2115 C 0.10401 0.06366 0.73132 0.0
C2116 C 0.08033 0.05884 0.72612 0.0
C2117 C 0.07214 0.06311 0.70442 0.0
C2118 C 0.14465 0.07895 0.71996 0.0
C2119 C 0.06362 0.04844 0.74315 0.0
H2120 H 0.13112 0.012 0.77451 0.0
H2121 H 0.13899 0.08449 0.8059 0.0
H2122 H 0.09014 0.01151 0.72857 0.0
H2123 H 0.11842 0.02028 0.72001 0.0
H2124 H 0.10994 0.99646 0.73904 0.0
H2125 H 0.12167 0.11103 0.78888 0.0
H2126 H 0.12858 0.11094 0.7596 0.0
H2127 H 0.0996 0.09847 0.76557 0.0
H2128 H 0.12222 0.08466 0.68083 0.0
H2129 H 0.05396 0.05872 0.70011 0.0
H2130 H 0.14856 0.0617 0.72279 0.0
H2131 H 0.1509 0.09156 0.73589 0.0
H2132 H 0.15421 0.08749 0.70577 0.0
H2133 H 0.06373 0.02958 0.7461 0.0
H2134 H 0.04598 0.04757 0.73715 0.0
H2135 H 0.0687 0.05976 0.7599 0.0
C2136 C 0.78084 0.40034 0.42632 0.0
C2137 C 0.80155 0.40598 0.44006 0.0
C2138 C 0.77764 0.38701 0.40471 0.0
C2139 C 0.79561 0.3793 0.39683 0.0
C2140 C 0.81671 0.38551 0.4104 0.0
C2141 C 0.81939 0.39872 0.43186 0.0
C2142 C 0.75495 0.38067 0.3906 0.0
C2143 C 0.83634 0.3777 0.4025 0.0
C2144 C 0.78686 0.32281 0.35608 0.0
C2145 C 0.79462 0.33327 0.33612 0.0
C2146 C 0.78555 0.33758 0.37556 0.0
C2147 C 0.79227 0.36343 0.37507 0.0
C2148 C 0.7987 0.37402 0.35455 0.0
C2149 C 0.79976 0.35877 0.33524 0.0
C2150 C 0.77839 0.32562 0.39711 0.0
C2151 C 0.80589 0.40153 0.3534 0.0
H2152 H 0.76702 0.40601 0.43256 0.0
H2153 H 0.83552 0.4032 0.4423 0.0
H2154 H 0.75738 0.38654 0.3731 0.0
H2155 H 0.74669 0.36042 0.38871 0.0
H2156 H 0.74326 0.38944 0.39849 0.0
H2157 H 0.85196 0.38507 0.41465 0.0
H2158 H 0.83151 0.35731 0.40066 0.0
H2159 H 0.84038 0.38408 0.38545 0.0
H2160 H 0.78247 0.30308 0.35678 0.0
H2161 H 0.80551 0.36698 0.31978 0.0
H2162 H 0.76563 0.33292 0.40472 0.0
H2163 H 0.79339 0.32999 0.40999 0.0
H2164 H 0.77105 0.30528 0.39386 0.0
H2165 H 0.79357 0.40944 0.36111 0.0
H2166 H 0.8074 0.40654 0.33552 0.0
H2167 H 0.82267 0.41017 0.36345 0.0
C2168 C 0.47696 0.00874 0.278 0.0
C2169 C 0.47084 0.03031 0.27792 0.0
C2170 C 0.48785 1.00154 0.2599 0.0
C2171 C 0.4927 0.01634 0.24146 0.0
C2172 C 0.48691 0.03833 0.24152 0.0
C2173 C 0.47604 0.04503 0.25974 0.0
C2174 C 0.49382 0.97798 0.2603 0.0
C2175 C 0.49192 0.05467 0.22216 0.0
C2176 C 0.53706 0.01517 0.20103 0.0
C2177 C 0.5233 1.00337 0.18098 0.0
C2178 C 0.52741 0.01807 0.22146 0.0
C2179 C 0.50349 0.00893 0.22173 0.0
C2180 C 0.48968 0.99553 0.20196 0.0
C2181 C 0.49978 0.99295 0.18175 0.0
C2182 C 0.54266 0.03248 0.24223 0.0
C2183 C 0.46411 0.98535 0.20168 0.0
H2184 H 0.47295 0.99727 0.292 0.0
H2185 H 0.47144 0.06178 0.2596 0.0
H2186 H 0.48446 0.96489 0.24544 0.0
H2187 H 0.51226 0.98171 0.25866 0.0
H2188 H 0.4896 0.969 0.27629 0.0
H2189 H 0.4867 0.07141 0.2251 0.0
H2190 H 0.5104 0.06047 0.22004 0.0
H2191 H 0.48281 0.0443 0.20582 0.0
H2192 H 0.55524 0.02339 0.20044 0.0
H2193 H 0.48919 0.98348 0.16632 0.0
H2194 H 0.53818 0.02296 0.25785 0.0
H2195 H 0.54021 0.05079 0.24495 0.0
H2196 H 0.56095 0.0353 0.24023 0.0
H2197 H 0.45938 0.9753 0.21697 0.0
H2198 H 0.45621 0.97274 0.18603 0.0
H2199 H 0.45683 1.00076 0.20231 0.0
C2200 C 0.78149 0.71827 0.93813 0.0
C2201 C 0.79943 0.72418 0.95569 0.0
C2202 C 0.78459 0.72757 0.91664 0.0
C2203 C 0.80633 0.74289 0.91223 0.0
C2204 C 0.82459 0.74888 0.92985 0.0
C2205 C 0.82087 0.73968 0.95143 0.0
C2206 C 0.76448 0.7211 0.89867 0.0
C2207 C 0.8481 0.76482 0.9258 0.0
C2208 C 0.81527 0.74906 0.84871 0.0
C2209 C 0.81149 0.77158 0.84555 0.0
C2210 C 0.81454 0.73992 0.87046 0.0
C2211 C 0.80951 0.75335 0.88949 0.0
C2212 C 0.80602 0.77623 0.8864 0.0
C2213 C 0.80722 0.78509 0.86465 0.0
C2214 C 0.81866 0.71559 0.87295 0.0
C2215 C 0.80021 0.79103 0.90595 0.0
H2216 H 0.76483 0.70638 0.94121 0.0
H2217 H 0.8349 0.74412 0.96476 0.0
H2218 H 0.7614 0.73815 0.89356 0.0
H2219 H 0.76815 0.7115 0.88309 0.0
H2220 H 0.74866 0.70912 0.90482 0.0
H2221 H 0.86065 0.7672 0.94093 0.0
H2222 H 0.85407 0.75653 0.91084 0.0
H2223 H 0.84763 0.78324 0.92168 0.0
H2224 H 0.8186 0.73846 0.83415 0.0
H2225 H 0.80416 0.80245 0.86252 0.0
H2226 H 0.80261 0.70161 0.87631 0.0
H2227 H 0.83133 0.71731 0.8878 0.0
H2228 H 0.82484 0.70878 0.85732 0.0
H2229 H 0.78374 0.78034 0.91183 0.0
H2230 H 0.79885 0.8089 0.901 0.0
H2231 H 0.81333 0.79469 0.92073 0.0
C2232 C 0.84508 0.09252 0.99909 0.0
C2233 C 0.84579 0.1 0.02246 0.0
C2234 C 0.85807 0.07786 0.99159 0.0
C2235 C 0.87194 0.07048 0.00788 0.0
C2236 C 0.87198 0.07714 0.03155 0.0
C2237 C 0.85896 0.0919 0.03854 0.0
C2238 C 0.85771 0.07116 0.96622 0.0
C2239 C 0.88646 0.06946 0.04947 0.0
C2240 C 0.89887 0.02051 0.9959 0.0
C2241 C 0.92151 0.03478 0.99488 0.0
C2242 C 0.88199 0.03181 0.99869 0.0
C2243 C 0.88812 0.05784 1.00036 0.0
C2244 C 0.9107 0.0721 0.99755 0.0
C2245 C 0.92715 0.06035 0.99491 0.0
C2246 C 0.85805 0.01606 1.00152 0.0
C2247 C 0.91792 0.09987 0.99903 0.0
H2248 H 0.83486 0.09866 0.98657 0.0
H2249 H 0.85938 0.09739 0.05665 0.0
H2250 H 0.87445 0.08098 0.96035 0.0
H2251 H 0.8549 0.05115 0.96267 0.0
H2252 H 0.84427 0.07608 0.95599 0.0
H2253 H 0.88324 0.0746 0.0672 0.0
H2254 H 0.88312 0.04926 0.04718 0.0
H2255 H 0.90475 0.07837 0.04746 0.0
H2256 H 0.89465 1.00071 0.99593 0.0
H2257 H 0.94473 0.07126 0.99392 0.0
H2258 H 0.84543 0.02217 0.99128 0.0
H2259 H 0.85477 0.018 0.01977 0.0
H2260 H 0.85527 0.99628 0.99631 0.0
H2261 H 0.90576 0.10609 0.98822 0.0
H2262 H 0.93525 0.10791 0.99358 0.0
H2263 H 0.91791 0.10727 0.01699 0.0
C2264 C 0.39746 0.41509 0.03834 0.0
C2265 C 0.37792 0.42209 0.04073 0.0
C2266 C 0.4187 0.43268 0.03685 0.0
C2267 C 0.42045 0.45792 0.03753 0.0
C2268 C 0.40075 0.46512 0.03964 0.0
C2269 C 0.37974 0.44713 0.04134 0.0
C2270 C 0.43936 0.42428 0.03492 0.0
C2271 C 0.40191 0.49182 0.04027 0.0
C2272 C 0.47871 0.50308 0.05789 0.0
C2273 C 0.4878 0.50958 0.03714 0.0
C2274 C 0.45666 0.48676 0.05822 0.0
C2275 C 0.44316 0.4768 0.03729 0.0
C2276 C 0.45186 0.48395 0.01629 0.0
C2277 C 0.47414 0.5002 0.01644 0.0
C2278 C 0.44812 0.47953 0.08099 0.0
C2279 C 0.43786 0.4739 0.99364 0.0
H2280 H 0.39623 0.3958 0.03784 0.0
H2281 H 0.3647 0.4527 0.043 0.0
H2282 H 0.44766 0.4307 0.01937 0.0
H2283 H 0.45201 0.43252 0.04992 0.0
H2284 H 0.43504 0.40394 0.03405 0.0
H2285 H 0.38487 0.49428 0.04084 0.0
H2286 H 0.41306 0.50239 0.05556 0.0
H2287 H 0.40955 0.4999 0.02495 0.0
H2288 H 0.48906 0.51021 0.07401 0.0
H2289 H 0.48099 0.50514 1.00034 0.0
H2290 H 0.44506 0.45953 0.0819 0.0
H2291 H 0.43165 0.48298 0.08271 0.0
H2292 H 0.46036 0.48974 0.09576 0.0
H2293 H 0.43477 0.45377 0.99088 0.0
H2294 H 0.44639 0.48265 0.97898 0.0
H2295 H 0.42099 0.47679 0.99378 0.0
C2296 C 0.40468 0.63505 0.76815 0.0
C2297 C 0.39439 0.61099 0.75786 0.0
C2298 C 0.39162 0.64822 0.77832 0.0
C2299 C 0.36787 0.63683 0.77841 0.0
C2300 C 0.3574 0.61269 0.76781 0.0
C2301 C 0.37076 0.60012 0.75752 0.0
C2302 C 0.40314 0.67426 0.78896 0.0
C2303 C 0.3321 0.59996 0.76763 0.0
C2304 C 0.33492 0.65893 0.82235 0.0
C2305 C 0.3233 0.67114 0.80882 0.0
C2306 C 0.34997 0.64802 0.81276 0.0
C2307 C 0.35372 0.65007 0.78934 0.0
C2308 C 0.34262 0.66329 0.77592 0.0
C2309 C 0.32729 0.67341 0.78579 0.0
C2310 C 0.36138 0.63382 0.82745 0.0
C2311 C 0.34642 0.66628 0.75102 0.0
H2312 H 0.42292 0.64354 0.76836 0.0
H2313 H 0.36269 0.58149 0.74968 0.0
H2314 H 0.39528 0.68697 0.78085 0.0
H2315 H 0.40069 0.67558 0.80747 0.0
H2316 H 0.4217 0.6806 0.78708 0.0
H2317 H 0.32672 0.5809 0.75909 0.0
H2318 H 0.32726 0.59922 0.78546 0.0
H2319 H 0.32249 0.61055 0.7586 0.0
H2320 H 0.33192 0.6576 0.84025 0.0
H2321 H 0.31856 0.68342 0.77558 0.0
H2322 H 0.38013 0.64104 0.82716 0.0
H2323 H 0.35586 0.61421 0.8204 0.0
H2324 H 0.35729 0.63476 0.84553 0.0
H2325 H 0.36467 0.67016 0.74832 0.0
H2326 H 0.34065 0.68138 0.74471 0.0
H2327 H 0.33671 0.64893 0.74044 0.0
C2328 C 0.2328 0.57183 0.55596 0.0
C2329 C 0.24202 0.58178 0.57831 0.0
C2330 C 0.20926 0.56404 0.55003 0.0
C2331 C 0.19469 0.5666 0.56682 0.0
C2332 C 0.2038 0.57538 0.58972 0.0
C2333 C 0.22744 0.58272 0.59525 0.0
C2334 C 0.2001 0.5543 0.52554 0.0
C2335 C 0.18873 0.57847 0.60803 0.0
C2336 C 0.13925 0.57645 0.54602 0.0
C2337 C 0.1235 0.55333 0.54786 0.0
C2338 C 0.16252 0.581 0.55217 0.0
C2339 C 0.17016 0.56185 0.56004 0.0
C2340 C 0.15441 0.53831 0.56142 0.0
C2341 C 0.13123 0.53437 0.55542 0.0
C2342 C 0.1789 0.60639 0.55059 0.0
C2343 C 0.16204 0.51738 0.56935 0.0
H2344 H 0.24408 0.57094 0.54287 0.0
H2345 H 0.23454 0.59055 0.61251 0.0
H2346 H 0.18582 0.53687 0.52502 0.0
H2347 H 0.19332 0.56776 0.51732 0.0
H2348 H 0.21339 0.55094 0.51526 0.0
H2349 H 0.19825 0.58367 0.62533 0.0
H2350 H 0.18112 0.59301 0.60395 0.0
H2351 H 0.17449 0.56119 0.60851 0.0
H2352 H 0.13335 0.59117 0.54024 0.0
H2353 H 0.11913 0.51637 0.55671 0.0
H2354 H 0.1919 0.60531 0.53888 0.0
H2355 H 0.18804 0.61415 0.5677 0.0
H2356 H 0.17017 0.61927 0.54426 0.0
H2357 H 0.1749 0.51413 0.55842 0.0
H2358 H 0.14767 0.49999 0.56883 0.0
H2359 H 0.17031 0.52225 0.58716 0.0
C2360 C 0.68323 0.94583 0.81584 0.0
C2361 C 0.68773 0.95396 0.79415 0.0
C2362 C 0.69828 0.93633 0.82823 0.0
C2363 C 0.71825 0.93513 0.8187 0.0
C2364 C 0.72266 0.94294 0.79667 0.0
C2365 C 0.7073 0.95214 0.78464 0.0
C2366 C 0.69301 0.92791 0.85158 0.0
C2367 C 0.74374 0.94175 0.78581 0.0
C2368 C 0.77257 0.93347 0.8506 0.0
C2369 C 0.77177 0.90926 0.84409 0.0
C2370 C 0.75409 0.94169 0.84439 0.0
C2371 C 0.73462 0.92531 0.83121 0.0
C2372 C 0.73297 0.90031 0.82642 0.0
C2373 C 0.75159 0.8926 0.83295 0.0
C2374 C 0.75638 0.96848 0.84988 0.0
C2375 C 0.71254 0.88232 0.81232 0.0
H2376 H 0.66812 0.94718 0.82329 0.0
H2377 H 0.71091 0.95838 0.76791 0.0
H2378 H 0.69241 0.90842 0.85193 0.0
H2379 H 0.70674 0.93895 0.86474 0.0
H2380 H 0.67653 0.92964 0.85638 0.0
H2381 H 0.74467 0.94872 0.76861 0.0
H2382 H 0.75922 0.9528 0.79696 0.0
H2383 H 0.74402 0.92247 0.784 0.0
H2384 H 0.78818 0.94636 0.85917 0.0
H2385 H 0.75109 0.87404 0.82734 0.0
H2386 H 0.7403 0.97054 0.85546 0.0
H2387 H 0.76001 0.97821 0.83422 0.0
H2388 H 0.77043 0.97759 0.86349 0.0
H2389 H 0.69677 0.8818 0.82035 0.0
H2390 H 0.71381 0.8634 0.81043 0.0
H2391 H 0.71086 0.88836 0.79492 0.0
C2392 C 0.72018 0.89959 0.52209 0.0
C2393 C 0.74362 0.91007 0.52851 0.0
C2394 C 0.70569 0.91422 0.52141 0.0
C2395 C 0.71483 0.93994 0.52736 0.0
C2396 C 0.73846 0.95062 0.53392 0.0
C2397 C 0.75255 0.93559 0.53438 0.0
C2398 C 0.6806 0.90214 0.51425 0.0
C2399 C 0.74888 0.97796 0.54044 0.0
C2400 C 0.68231 0.9817 0.50564 0.0
C2401 C 0.67176 0.98648 0.52501 0.0
C2402 C 0.69624 0.9665 0.50614 0.0
C2403 C 0.69975 0.95577 0.5265 0.0
C2404 C 0.68909 0.96042 0.54609 0.0
C2405 C 0.67523 0.9757 0.54511 0.0
C2406 C 0.70721 0.96193 0.48485 0.0
C2407 C 0.69248 0.94942 0.56815 0.0
H2408 H 0.7131 0.87992 0.51752 0.0
H2409 H 0.77062 0.9439 0.53941 0.0
H2410 H 0.67049 0.90578 0.52812 0.0
H2411 H 0.67548 0.91013 0.4989 0.0
H2412 H 0.67614 0.88192 0.51023 0.0
H2413 H 0.7675 0.98336 0.54539 0.0
H2414 H 0.74588 0.98822 0.52585 0.0
H2415 H 0.74062 0.98374 0.555 0.0
H2416 H 0.67944 0.98962 0.48994 0.0
H2417 H 0.66736 0.9795 0.56023 0.0
H2418 H 0.70192 0.9419 0.47944 0.0
H2419 H 0.72601 0.9683 0.48856 0.0
H2420 H 0.70264 0.9715 0.47035 0.0
H2421 H 0.68709 0.92906 0.56506 0.0
H2422 H 0.68273 0.95453 0.58174 0.0
H2423 H 0.71081 0.95572 0.57453 0.0
C2424 C 0.38831 0.45296 0.72317 0.0
C2425 C 0.38257 0.4742 0.72922 0.0
C2426 C 0.37595 0.43015 0.73009 0.0
C2427 C 0.35757 0.42869 0.74348 0.0
C2428 C 0.35109 0.44984 0.74882 0.0
C2429 C 0.36362 0.47235 0.74152 0.0
C2430 C 0.38311 0.40784 0.72383 0.0
C2431 C 0.33159 0.44893 0.76311 0.0
C2432 C 0.31619 0.3658 0.7497 0.0
C2433 C 0.32496 0.36036 0.77064 0.0
C2434 C 0.32655 0.38806 0.74067 0.0
C2435 C 0.34596 0.40534 0.75302 0.0
C2436 C 0.35456 0.40023 0.77442 0.0
C2437 C 0.34401 0.3777 0.78293 0.0
C2438 C 0.31707 0.39285 0.7177 0.0
C2439 C 0.37511 0.41841 0.78818 0.0
H2440 H 0.40285 0.45425 0.71354 0.0
H2441 H 0.35905 0.48869 0.74625 0.0
H2442 H 0.38968 0.40162 0.73957 0.0
H2443 H 0.36827 0.39242 0.71581 0.0
H2444 H 0.39658 0.41167 0.71183 0.0
H2445 H 0.32777 0.46664 0.76445 0.0
H2446 H 0.31599 0.43411 0.75568 0.0
H2447 H 0.33582 0.44458 0.78065 0.0
H2448 H 0.30156 0.35238 0.74002 0.0
H2449 H 0.35081 0.3736 0.79914 0.0
H2450 H 0.33009 0.39498 0.70531 0.0
H2451 H 0.31289 0.41031 0.71928 0.0
H2452 H 0.30152 0.37775 0.71055 0.0
H2453 H 0.39016 0.4216 0.77826 0.0
H2454 H 0.37917 0.41195 0.80486 0.0
H2455 H 0.37214 0.43639 0.79152 0.0
C2456 C 0.20172 0.61562 0.22401 0.0
C2457 C 0.21095 0.59639 0.22648 0.0
C2458 C 0.21532 0.64024 0.22888 0.0
C2459 C 0.23873 0.64572 0.23612 0.0
C2460 C 0.24851 0.6265 0.2369 0.0
C2461 C 0.23447 0.60201 0.23212 0.0
C2462 C 0.20427 0.66025 0.2278 0.0
C2463 C 0.27352 0.6317 0.24415 0.0
C2464 C 0.27522 0.71253 0.23803 0.0
C2465 C 0.27581 0.72065 0.26124 0.0
C2466 C 0.26373 0.68799 0.22967 0.0
C2467 C 0.2524 0.67129 0.24485 0.0
C2468 C 0.25328 0.67926 0.26838 0.0
C2469 C 0.26509 0.70384 0.27631 0.0
C2470 C 0.26337 0.68006 0.20456 0.0
C2471 C 0.24126 0.66197 0.28506 0.0
H2472 H 0.18359 0.61147 0.21952 0.0
H2473 H 0.24177 0.58725 0.2339 0.0
H2474 H 0.20432 0.66867 0.24539 0.0
H2475 H 0.21404 0.67505 0.21787 0.0
H2476 H 0.1864 0.65314 0.21986 0.0
H2477 H 0.27901 0.61517 0.24098 0.0
H2478 H 0.28401 0.64671 0.23489 0.0
H2479 H 0.27701 0.63793 0.26274 0.0
H2480 H 0.28362 0.72538 0.22629 0.0
H2481 H 0.26546 0.71 0.29425 0.0
H2482 H 0.24568 0.67459 0.19627 0.0
H2483 H 0.2693 0.66373 0.20252 0.0
H2484 H 0.27424 0.69491 0.19534 0.0
H2485 H 0.22268 0.65523 0.2798 0.0
H2486 H 0.24408 0.6709 0.30289 0.0
H2487 H 0.24727 0.64565 0.28489 0.0
C2488 C 0.52049 0.67982 0.44172 0.0
C2489 C 0.51731 0.69962 0.45502 0.0
C2490 C 0.52466 0.65994 0.45182 0.0
C2491 C 0.52558 0.65952 0.47594 0.0
C2492 C 0.52201 0.67921 0.48951 0.0
C2493 C 0.518 0.69905 0.47892 0.0
C2494 C 0.52845 0.6395 0.43663 0.0
C2495 C 0.52267 0.67943 0.51525 0.0
C2496 C 0.51869 0.59682 0.49822 0.0
C2497 C 0.5414 0.59804 0.50413 0.0
C2498 C 0.51324 0.61688 0.48969 0.0
C2499 C 0.5309 0.63875 0.48677 0.0
C2500 C 0.55382 0.64018 0.49294 0.0
C2501 C 0.55877 0.61992 0.50158 0.0
C2502 C 0.48857 0.61452 0.48349 0.0
C2503 C 0.57321 0.663 0.48998 0.0
H2504 H 0.52003 0.67996 0.42325 0.0
H2505 H 0.51555 0.71418 0.48938 0.0
H2506 H 0.5457 0.63826 0.44121 0.0
H2507 H 0.51599 0.62157 0.43934 0.0
H2508 H 0.52682 0.64232 0.41815 0.0
H2509 H 0.51875 0.69555 0.52333 0.0
H2510 H 0.51024 0.66236 0.51994 0.0
H2511 H 0.53978 0.67979 0.5225 0.0
H2512 H 0.50508 0.58013 0.50021 0.0
H2513 H 0.57636 0.62117 0.5061 0.0
H2514 H 0.48559 0.61573 0.46483 0.0
H2515 H 0.48431 0.62991 0.49253 0.0
H2516 H 0.47679 0.59685 0.48789 0.0
H2517 H 0.57353 0.66613 0.47156 0.0
H2518 H 0.59 0.66164 0.49643 0.0
H2519 H 0.57069 0.67936 0.49918 0.0
C2520 C 0.65481 0.29777 0.6825 0.0
C2521 C 0.65992 0.31445 0.66576 0.0
C2522 C 0.67214 0.29244 0.69581 0.0
C2523 C 0.69526 0.30449 0.69275 0.0
C2524 C 0.70056 0.32183 0.67629 0.0
C2525 C 0.68284 0.32637 0.66281 0.0
C2526 C 0.66568 0.27344 0.71278 0.0
C2527 C 0.72496 0.3355 0.67281 0.0
C2528 C 0.73917 0.30477 0.74176 0.0
C2529 C 0.74787 0.28633 0.73342 0.0
C2530 C 0.72246 0.31126 0.72853 0.0
C2531 C 0.71382 0.29863 0.70657 0.0
C2532 C 0.72254 0.27998 0.69807 0.0
C2533 C 0.73962 0.27426 0.71146 0.0
C2534 C 0.71407 0.33164 0.73804 0.0
C2535 C 0.71354 0.26573 0.67496 0.0
H2536 H 0.63716 0.28824 0.68473 0.0
H2537 H 0.68695 0.33932 0.64995 0.0
H2538 H 0.67265 0.25823 0.70847 0.0
H2539 H 0.67322 0.28176 0.73029 0.0
H2540 H 0.64694 0.26558 0.71301 0.0
H2541 H 0.72625 0.34922 0.66011 0.0
H2542 H 0.73429 0.34515 0.68934 0.0
H2543 H 0.73365 0.3223 0.66681 0.0
H2544 H 0.74561 0.3144 0.7586 0.0
H2545 H 0.74621 0.25996 0.70487 0.0
H2546 H 0.69562 0.32427 0.74011 0.0
H2547 H 0.7162 0.34596 0.72587 0.0
H2548 H 0.72325 0.34044 0.75491 0.0
H2549 H 0.69494 0.25638 0.67456 0.0
H2550 H 0.72198 0.25167 0.67087 0.0
H2551 H 0.71612 0.27847 0.66132 0.0
C2552 C 0.03181 0.36812 0.95336 0.0
C2553 C 0.02411 0.34614 0.96384 0.0
C2554 C 0.03515 0.39116 0.96546 0.0
C2555 C 0.03057 0.39249 0.9887 0.0
C2556 C 0.02299 0.37042 0.99952 0.0
C2557 C 0.01993 0.34753 0.987 0.0
C2558 C 0.04345 0.41413 0.95324 0.0
C2559 C 0.01782 0.37099 0.02423 0.0
C2560 C 0.05808 0.45483 0.02335 0.0
C2561 C 0.04056 0.46556 0.02187 0.0
C2562 C 0.05491 0.4309 0.01321 0.0
C2563 C 0.03357 0.41705 1.00142 0.0
C2564 C 0.01557 0.42742 1.0005 0.0
C2565 C 0.01928 0.45149 0.01063 0.0
C2566 C 0.07466 0.42074 0.01452 0.0
C2567 C 0.9925 0.41331 0.98824 0.0
H2568 H 0.03522 0.36738 0.93553 0.0
H2569 H 0.01393 0.33071 0.99526 0.0
H2570 H 0.03063 0.42401 0.95301 0.0
H2571 H 0.0594 0.4268 0.96254 0.0
H2572 H 0.04672 0.41003 0.93528 0.0
H2573 H 0.01241 0.35233 0.03028 0.0
H2574 H 0.03307 0.38265 0.03536 0.0
H2575 H 1.00409 0.37937 0.02634 0.0
H2576 H 0.07451 0.46527 0.03213 0.0
H2577 H 1.00553 0.45942 0.0094 0.0
H2578 H 0.07965 0.41782 0.99704 0.0
H2579 H 0.06959 0.4026 0.02156 0.0
H2580 H 0.08976 0.43324 0.02536 0.0
H2581 H 0.99403 0.41026 0.96965 0.0
H2582 H 0.97982 0.42316 0.99045 0.0
H2583 H 0.986 0.39494 0.99467 0.0
C2584 C 0.03737 0.80509 0.18812 0.0
C2585 C 0.03434 0.81002 0.16526 0.0
C2586 C 0.02006 0.80319 0.20279 0.0
C2587 C 0.99931 0.80649 0.19444 0.0
C2588 C 0.99628 0.81177 0.17148 0.0
C2589 C 0.01377 0.81337 0.15717 0.0
C2590 C 0.02385 0.79736 0.22713 0.0
C2591 C 0.97449 0.81559 0.16195 0.0
C2592 C 0.94528 0.77901 0.2231 0.0
C2593 C 0.94372 0.79954 0.23647 0.0
C2594 C 0.96354 0.78091 0.20975 0.0
C2595 C 0.98052 0.80398 0.20952 0.0
C2596 C 0.9791 0.82476 0.22308 0.0
C2597 C 0.96078 0.82225 0.23651 0.0
C2598 C 0.96456 0.75826 0.19575 0.0
C2599 C 0.99669 0.84973 0.22306 0.0
H2600 H 0.05319 0.80244 0.19452 0.0
H2601 H 1.01128 0.81731 0.13957 0.0
H2602 H 0.02185 0.81202 0.23933 0.0
H2603 H 1.01085 0.77989 0.23011 0.0
H2604 H 0.04102 0.79557 0.23106 0.0
H2605 H 0.97507 0.82025 0.14391 0.0
H2606 H 0.95993 0.79866 0.16267 0.0
H2607 H 0.97112 0.83063 0.17254 0.0
H2608 H 0.93227 0.76136 0.22327 0.0
H2609 H 0.95954 0.8382 0.2467 0.0
H2610 H 0.98103 0.75505 0.2002 0.0
H2611 H 0.9636 0.76103 0.17725 0.0
H2612 H 0.9505 0.74152 0.19851 0.0
H2613 H 0.01392 0.84868 0.22808 0.0
H2614 H 0.99342 0.86392 0.23494 0.0
H2615 H 0.99681 0.85575 0.20551 0.0
C2616 C 0.54277 0.37667 0.13033 0.0
C2617 C 0.56406 0.37414 0.13791 0.0
C2618 C 0.54088 0.39727 0.1184 0.0
C2619 C 0.5606 0.41639 0.11325 0.0
C2620 C 0.58199 0.41361 0.1206 0.0
C2621 C 0.58339 0.39317 0.13263 0.0
C2622 C 0.51753 0.39875 0.11151 0.0
C2623 C 0.60378 0.4325 0.11576 0.0
C2624 C 0.55833 0.45961 0.06416 0.0
C2625 C 0.55939 0.48249 0.07579 0.0
C2626 C 0.55839 0.43841 0.07584 0.0
C2627 C 0.55923 0.43902 0.10026 0.0
C2628 C 0.56003 0.46197 0.1121 0.0
C2629 C 0.56021 0.48301 0.1 0.0
C2630 C 0.55782 0.41518 0.06181 0.0
C2631 C 0.56074 0.46444 0.13788 0.0
H2632 H 0.52746 0.36277 0.13409 0.0
H2633 H 0.60013 0.39217 0.13798 0.0
H2634 H 0.51583 0.4161 0.11958 0.0
H2635 H 0.51516 0.39922 0.09267 0.0
H2636 H 0.50378 0.38297 0.1166 0.0
H2637 H 0.61914 0.4278 0.12191 0.0
H2638 H 0.60387 0.43415 0.09705 0.0
H2639 H 0.60491 0.4508 0.12419 0.0
H2640 H 0.55763 0.4582 0.04562 0.0
H2641 H 0.56088 0.50001 0.10971 0.0
H2642 H 0.543 0.39968 0.06541 0.0
H2643 H 0.57337 0.41029 0.06671 0.0
H2644 H 0.55677 0.41706 0.0431 0.0
H2645 H 0.54632 0.44979 0.14349 0.0
H2646 H 0.55991 0.48264 0.14476 0.0
H2647 H 0.57668 0.46197 0.1455 0.0
C2648 C 0.97985 0.27864 0.34291 0.0
C2649 C 0.98466 0.28304 0.36708 0.0
C2650 C 0.95854 0.27887 0.33118 0.0
C2651 C 0.94083 0.28375 0.34335 0.0
C2652 C 0.94574 0.28822 0.36762 0.0
C2653 C 0.9669 0.28777 0.37879 0.0
C2654 C 0.95493 0.27382 0.30547 0.0
C2655 C 0.92843 0.29367 0.38212 0.0
C2656 C 0.89261 0.30751 0.3147 0.0
C2657 C 0.87269 0.2867 0.31171 0.0
C2658 C 0.91441 0.30669 0.32424 0.0
C2659 C 0.91748 0.28445 0.33128 0.0
C2660 C 0.89749 0.2633 0.32805 0.0
C2661 C 0.87585 0.26466 0.31859 0.0
C2662 C 0.93432 0.33007 0.32706 0.0
C2663 C 0.89884 0.2389 0.33484 0.0
H2664 H 0.99272 0.27493 0.33302 0.0
H2665 H 0.96949 0.29135 0.39729 0.0
H2666 H 0.93944 0.2578 0.30048 0.0
H2667 H 0.95206 0.28986 0.29778 0.0
H2668 H 0.96966 0.26999 0.29816 0.0
H2669 H 0.9344 0.29687 0.40069 0.0
H2670 H 0.92453 0.31022 0.37678 0.0
H2671 H 0.91229 0.2781 0.3795 0.0
H2672 H 0.8912 0.32484 0.3097 0.0
H2673 H 0.86122 0.24814 0.31661 0.0
H2674 H 0.94865 0.32721 0.31822 0.0
H2675 H 0.94041 0.33508 0.34551 0.0
H2676 H 0.9299 0.34572 0.32013 0.0
H2677 H 0.91256 0.23412 0.32639 0.0
H2678 H 0.88256 0.22377 0.33021 0.0
H2679 H 0.90325 0.24024 0.35362 0.0
C2680 C 0.0725 0.71663 0.63729 0.0
C2681 C 0.05323 0.72478 0.63848 0.0
C2682 C 0.07196 0.69452 0.62422 0.0
C2683 C 0.05141 0.67878 0.61201 0.0
C2684 C 0.0318 0.68685 0.61299 0.0
C2685 C 0.03296 0.70959 0.62582 0.0
C2686 C 0.09366 0.68792 0.62368 0.0
C2687 C 1.00923 0.671 0.60098 0.0
C2688 C 0.05496 0.63058 0.56277 0.0
C2689 C 0.05225 0.60867 0.5735 0.0
C2690 C 0.05457 0.65299 0.5748 0.0
C2691 C 0.05073 0.6542 0.59845 0.0
C2692 C 0.0475 0.63198 0.60928 0.0
C2693 C 0.04856 0.60995 0.59697 0.0
C2694 C 0.05878 0.67571 0.56214 0.0
C2695 C 0.04283 0.63139 0.63411 0.0
H2696 H 0.08837 0.72774 0.64684 0.0
H2697 H 0.01772 0.71492 0.62665 0.0
H2698 H 0.09176 0.67058 0.63175 0.0
H2699 H 0.09718 0.68469 0.60566 0.0
H2700 H 0.10857 0.70253 0.6328 0.0
H2701 H 0.99553 0.67946 0.60306 0.0
H2702 H 1.01075 0.66771 0.58242 0.0
H2703 H 1.0042 0.65278 0.60791 0.0
H2704 H 0.0579 0.63042 0.5448 0.0
H2705 H 0.04619 0.59349 0.60579 0.0
H2706 H 0.07407 0.69033 0.57054 0.0
H2707 H 0.04418 0.68295 0.56286 0.0
H2708 H 0.0614 0.67211 0.54388 0.0
H2709 H 0.05779 0.64386 0.64508 0.0
H2710 H 0.03904 0.6126 0.6398 0.0
H2711 H 0.02818 0.63815 0.63689 0.0
C2712 C 0.64811 0.77843 0.87244 0.0
C2713 C 0.63077 0.78847 0.86494 0.0
C2714 C 0.6684 0.78048 0.86119 0.0
C2715 C 0.67292 0.79315 0.84112 0.0
C2716 C 0.65558 0.80338 0.8332 0.0
C2717 C 0.63516 0.80098 0.84488 0.0
C2718 C 0.68528 0.76889 0.87111 0.0
C2719 C 0.65869 0.81721 0.8122 0.0
C2720 C 0.73709 0.81592 0.8246 0.0
C2721 C 0.73863 0.79748 0.80791 0.0
C2722 C 0.7164 0.8149 0.8351 0.0
C2723 C 0.69546 0.7953 0.82886 0.0
C2724 C 0.69687 0.77684 0.81181 0.0
C2725 C 0.71788 0.77799 0.80201 0.0
C2726 C 0.71711 0.83482 0.85352 0.0
C2727 C 0.67595 0.75531 0.80397 0.0
H2728 H 0.64592 0.7686 0.88763 0.0
H2729 H 0.62274 0.80919 0.83829 0.0
H2730 H 0.68751 0.75498 0.8582 0.0
H2731 H 0.70216 0.78308 0.87544 0.0
H2732 H 0.67987 0.75982 0.88678 0.0
H2733 H 0.6439 0.82348 0.80735 0.0
H2734 H 0.6742 0.83349 0.8154 0.0
H2735 H 0.66127 0.80538 0.79756 0.0
H2736 H 0.75242 0.83107 0.83007 0.0
H2737 H 0.71796 0.76329 0.78945 0.0
H2738 H 0.71114 0.82656 0.86937 0.0
H2739 H 0.70535 0.84493 0.84792 0.0
H2740 H 0.73448 0.84808 0.85776 0.0
H2741 H 0.67061 0.74421 0.81852 0.0
H2742 H 0.67887 0.7432 0.78974 0.0
H2743 H 0.66166 0.76197 0.79822 0.0
C2744 C 0.45097 0.56257 0.66095 0.0
C2745 C 0.45866 0.55231 0.67963 0.0
C2746 C 0.46067 0.56266 0.6401 0.0
C2747 C 0.47841 0.55222 0.63802 0.0
C2748 C 0.48619 0.54181 0.65682 0.0
C2749 C 0.47627 0.54208 0.67743 0.0
C2750 C 0.45224 0.57453 0.6207 0.0
C2751 C 0.50503 0.53039 0.65517 0.0
C2752 C 0.49433 0.53013 0.58154 0.0
C2753 C 0.51501 0.54845 0.57968 0.0
C2754 C 0.48135 0.5319 0.59976 0.0
C2755 C 0.48938 0.55236 0.61647 0.0
C2756 C 0.50938 0.57169 0.61381 0.0
C2757 C 0.522 0.5695 0.59543 0.0
C2758 C 0.45962 0.51137 0.60172 0.0
C2759 C 0.51803 0.59412 0.631 0.0
H2760 H 0.43744 0.57067 0.66263 0.0
H2761 H 0.48221 0.53401 0.69177 0.0
H2762 H 0.46271 0.59419 0.62178 0.0
H2763 H 0.45368 0.56578 0.60369 0.0
H2764 H 0.43423 0.57373 0.62185 0.0
H2765 H 0.50883 0.52275 0.67129 0.0
H2766 H 0.50022 0.51535 0.64101 0.0
H2767 H 0.52081 0.54436 0.65115 0.0
H2768 H 0.48857 0.51405 0.56914 0.0
H2769 H 0.53776 0.58397 0.59389 0.0
H2770 H 0.44566 0.519 0.60522 0.0
H2771 H 0.46214 0.50093 0.61634 0.0
H2772 H 0.45426 0.49839 0.58591 0.0
H2773 H 0.50422 0.6022 0.63385 0.0
H2774 H 0.53271 0.60847 0.62537 0.0
H2775 H 0.52343 0.58871 0.64771 0.0
C2776 C 0.81118 0.23205 0.02759 0.0
C2777 C 0.82055 0.21283 0.02468 0.0
C2778 C 0.80775 0.24518 0.00913 0.0
C2779 C 0.8138 0.23883 0.98733 0.0
C2780 C 0.82484 0.22074 0.98473 0.0
C2781 C 0.82814 0.20798 0.00347 0.0
C2782 C 0.7962 0.2646 0.01261 0.0
C2783 C 0.83164 0.21352 0.96175 0.0
C2784 C 0.77767 0.24273 0.93408 0.0
C2785 C 0.792 0.26298 0.92471 0.0
C2786 C 0.7843 0.23529 0.9549 0.0
C2787 C 0.80581 0.24844 0.96667 0.0
C2788 C 0.82002 0.26949 0.9578 0.0
C2789 C 0.81297 0.27649 0.93683 0.0
C2790 C 0.76867 0.21266 0.96376 0.0
C2791 C 0.84296 0.28406 0.97003 0.0
H2792 H 0.8055 0.23611 0.044 0.0
H2793 H 0.83563 0.19334 1.00113 0.0
H2794 H 0.80486 0.28119 0.00414 0.0
H2795 H 0.77836 0.25733 0.00465 0.0
H2796 H 0.79593 0.2701 0.03107 0.0
H2797 H 0.84236 0.20124 0.96317 0.0
H2798 H 0.81611 0.20374 0.95008 0.0
H2799 H 0.84113 0.23008 0.9537 0.0
H2800 H 0.76163 0.23197 0.92463 0.0
H2801 H 0.824 0.29229 0.92972 0.0
H2802 H 0.76549 0.21693 0.98168 0.0
H2803 H 0.77689 0.19801 0.96383 0.0
H2804 H 0.75202 0.20533 0.95317 0.0
H2805 H 0.84137 0.28861 0.98838 0.0
H2806 H 0.85082 0.30141 0.96223 0.0
H2807 H 0.85462 0.27281 0.96938 0.0
C2808 C 0.12111 0.48858 0.18633 0.0
C2809 C 0.11643 0.49451 0.20858 0.0
C2810 C 0.10634 0.48898 0.16734 0.0
C2811 C 0.08662 0.49573 0.1708 0.0
C2812 C 0.08044 0.49875 0.19328 0.0
C2813 C 0.09546 0.49802 0.21202 0.0
C2814 C 0.11323 0.48497 0.1436 0.0
C2815 C 0.05932 0.50548 0.19762 0.0
C2816 C 0.07827 0.5374 0.1266 0.0
C2817 C 0.06152 0.52108 0.11086 0.0
C2818 C 0.08546 0.52963 0.14697 0.0
C2819 C 0.0758 0.50483 0.15155 0.0
C2820 C 0.05786 0.48863 0.1364 0.0
C2821 C 0.05083 0.49702 0.11615 0.0
C2822 C 0.1044 0.54766 0.1629 0.0
C2823 C 0.04712 0.46211 0.14072 0.0
H2824 H 0.13709 0.48531 0.18366 0.0
H2825 H 0.09163 0.50231 0.22924 0.0
H2826 H 0.09836 0.4735 0.13189 0.0
H2827 H 0.11985 0.503 0.13654 0.0
H2828 H 0.12671 0.47595 0.14372 0.0
H2829 H 0.05425 0.50172 0.2151 0.0
H2830 H 0.06269 0.52541 0.19599 0.0
H2831 H 0.04487 0.49523 0.18484 0.0
H2832 H 0.08631 0.55612 0.12266 0.0
H2833 H 0.03785 0.48436 0.10394 0.0
H2834 H 0.11996 0.542 0.16287 0.0
H2835 H 0.09957 0.54773 0.18073 0.0
H2836 H 0.10862 0.56673 0.15781 0.0
H2837 H 0.05841 0.45137 0.1356 0.0
H2838 H 0.03028 0.45381 0.13063 0.0
H2839 H 0.04495 0.46032 0.15917 0.0
C2840 C 0.78031 0.81492 0.46009 0.0
C2841 C 0.79218 0.83851 0.47085 0.0
C2842 C 0.78193 0.8086 0.43677 0.0
C2843 C 0.7956 0.82631 0.42366 0.0
C2844 C 0.80768 0.85011 0.43444 0.0
C2845 C 0.80592 0.85587 0.45782 0.0
C2846 C 0.76889 0.78295 0.4261 0.0
C2847 C 0.82234 0.86964 0.4212 0.0
C2848 C 0.81569 0.80457 0.36828 0.0
C2849 C 0.80022 0.80825 0.35132 0.0
C2850 C 0.81438 0.81033 0.39177 0.0
C2851 C 0.79717 0.82002 0.39868 0.0
C2852 C 0.78154 0.82385 0.38167 0.0
C2853 C 0.78325 0.81795 0.3583 0.0
C2854 C 0.8314 0.80592 0.40924 0.0
C2855 C 0.76292 0.83412 0.38816 0.0
H2856 H 0.76968 0.80132 0.4699 0.0
H2857 H 0.81513 0.87418 0.46581 0.0
H2858 H 0.75665 0.78385 0.41173 0.0
H2859 H 0.78077 0.77407 0.41884 0.0
H2860 H 0.75934 0.77115 0.43863 0.0
H2861 H 0.83077 0.88721 0.43205 0.0
H2862 H 0.83566 0.86309 0.41383 0.0
H2863 H 0.8118 0.87329 0.40667 0.0
H2864 H 0.82885 0.79706 0.36323 0.0
H2865 H 0.77109 0.82077 0.34548 0.0
H2866 H 0.82237 0.79295 0.42119 0.0
H2867 H 0.841 0.82342 0.41963 0.0
H2868 H 0.84373 0.79826 0.40115 0.0
H2869 H 0.7519 0.82195 0.39948 0.0
H2870 H 0.7521 0.836 0.37294 0.0
H2871 H 0.77049 0.85245 0.39794 0.0
C2872 C 0.46846 0.5496 0.79423 0.0
C2873 C 0.44548 0.54667 0.79682 0.0
C2874 C 0.48295 0.54641 0.81234 0.0
C2875 C 0.47423 0.54024 0.8335 0.0
C2876 C 0.45117 0.53772 0.83635 0.0
C2877 C 0.43706 0.54095 0.81796 0.0
C2878 C 0.50745 0.54923 0.80873 0.0
C2879 C 0.44132 0.53127 0.85875 0.0
C2880 C 0.50228 0.50783 0.87464 0.0
C2881 C 0.51367 0.52714 0.89139 0.0
C2882 C 0.48996 0.51199 0.85525 0.0
C2883 C 0.48904 0.53603 0.85266 0.0
C2884 C 0.50123 0.55576 0.86907 0.0
C2885 C 0.51346 0.55108 0.88823 0.0
C2886 C 0.47721 0.49052 0.83802 0.0
C2887 C 0.5007 0.58164 0.86683 0.0
H2888 H 0.47507 0.554 0.77792 0.0
H2889 H 0.41934 0.5387 0.82009 0.0
H2890 H 0.51901 0.56323 0.8218 0.0
H2891 H 0.51084 0.53158 0.81089 0.0
H2892 H 0.51173 0.55475 0.79143 0.0
H2893 H 0.42319 0.53053 0.85831 0.0
H2894 H 0.44257 0.5131 0.86281 0.0
H2895 H 0.45124 0.54503 0.87292 0.0
H2896 H 0.50226 0.48928 0.87712 0.0
H2897 H 0.52259 0.56613 0.90098 0.0
H2898 H 0.4816 0.4948 0.82047 0.0
H2899 H 0.45861 0.48711 0.83817 0.0
H2900 H 0.48099 0.47338 0.84168 0.0
H2901 H 0.50572 0.58741 0.84983 0.0
H2902 H 0.51219 0.59514 0.88038 0.0
H2903 H 0.4831 0.58226 0.86799 0.0
C2904 C 0.83423 0.17753 0.14114 0.0
C2905 C 0.83971 0.19272 0.12334 0.0
C2906 C 0.83124 0.18717 0.16287 0.0
C2907 C 0.83293 0.21234 0.16649 0.0
C2908 C 0.83883 0.22781 0.14862 0.0
C2909 C 0.84253 0.21786 0.12734 0.0
C2910 C 0.8258 0.17035 0.18178 0.0
C2911 C 0.84025 0.25462 0.15164 0.0
C2912 C 0.80051 0.23316 0.21188 0.0
C2913 C 0.81833 0.2466 0.22819 0.0
C2914 C 0.80497 0.22139 0.19185 0.0
C2915 C 0.82767 0.22247 0.18859 0.0
C2916 C 0.84551 0.23481 0.20575 0.0
C2917 C 0.84067 0.24714 0.22519 0.0
C2918 C 0.78557 0.20892 0.17367 0.0
C2919 C 0.86979 0.23561 0.20326 0.0
H2920 H 0.83212 0.15807 0.13799 0.0
H2921 H 0.84646 0.22953 0.11346 0.0
H2922 H 0.83738 0.17866 0.19752 0.0
H2923 H 0.80817 0.16791 0.18612 0.0
H2924 H 0.82734 0.15193 0.17686 0.0
H2925 H 0.84506 0.26412 0.13603 0.0
H2926 H 0.82354 0.2562 0.15578 0.0
H2927 H 0.85293 0.26436 0.16619 0.0
H2928 H 0.78327 0.23294 0.21423 0.0
H2929 H 0.85438 0.25737 0.23802 0.0
H2930 H 0.78488 0.18959 0.16922 0.0
H2931 H 0.78842 0.21847 0.15782 0.0
H2932 H 0.76883 0.209 0.17921 0.0
H2933 H 0.87054 0.21686 0.19843 0.0
H2934 H 0.88111 0.24336 0.21931 0.0
H2935 H 0.8765 0.24712 0.18936 0.0
C2936 C 0.18993 0.58473 0.32337 0.0
C2937 C 0.17429 0.5708 0.30527 0.0
C2938 C 0.18245 0.59159 0.344 0.0
C2939 C 0.15884 0.58438 0.34642 0.0
C2940 C 0.14297 0.57167 0.3277 0.0
C2941 C 0.15091 0.56501 0.30733 0.0
C2942 C 0.19981 0.60528 0.3636 0.0
C2943 C 0.11761 0.56386 0.32958 0.0
C2944 C 0.1357 0.5698 0.40323 0.0
C2945 C 0.12791 0.5898 0.40856 0.0
C2946 C 0.14706 0.56855 0.38366 0.0
C2947 C 0.15057 0.58772 0.36906 0.0
C2948 C 0.14395 0.60864 0.37502 0.0
C2949 C 0.13267 0.60944 0.39477 0.0
C2950 C 0.15399 0.54597 0.37788 0.0
C2951 C 0.1476 0.62949 0.35991 0.0
H2952 H 0.20804 0.58941 0.32181 0.0
H2953 H 0.13874 0.5545 0.29329 0.0
H2954 H 0.19504 0.62082 0.37164 0.0
H2955 H 0.20032 0.59267 0.37698 0.0
H2956 H 0.21717 0.61254 0.35798 0.0
H2957 H 0.10757 0.55602 0.31286 0.0
H2958 H 0.11312 0.54975 0.34194 0.0
H2959 H 0.11249 0.57975 0.3362 0.0
H2960 H 0.13187 0.55446 0.41368 0.0
H2961 H 0.12698 0.62512 0.39908 0.0
H2962 H 0.17197 0.55136 0.37384 0.0
H2963 H 0.14331 0.53515 0.36242 0.0
H2964 H 0.15205 0.53391 0.3921 0.0
H2965 H 0.16527 0.63519 0.35494 0.0
H2966 H 0.14428 0.64576 0.36846 0.0
H2967 H 0.13597 0.6232 0.3439 0.0
C2968 C 0.81273 0.82803 0.60686 0.0
C2969 C 0.80196 0.84389 0.59742 0.0
C2970 C 0.81066 0.82223 0.62972 0.0
C2971 C 0.79739 0.83238 0.64365 0.0
C2972 C 0.78605 0.84795 0.63408 0.0
C2973 C 0.7885 0.85355 0.61119 0.0
C2974 C 0.82315 0.80564 0.63913 0.0
C2975 C 0.77163 0.85909 0.64817 0.0
C2976 C 0.77918 0.80184 0.69829 0.0
C2977 C 0.79558 0.81707 0.71523 0.0
C2978 C 0.77926 0.80682 0.67508 0.0
C2979 C 0.79619 0.82749 0.66846 0.0
C2980 C 0.81249 0.84318 0.68554 0.0
C2981 C 0.81196 0.83784 0.70859 0.0
C2982 C 0.76146 0.78967 0.65754 0.0
C2983 C 0.8309 0.86537 0.6794 0.0
H2984 H 0.82319 0.82044 0.59651 0.0
H2985 H 0.78004 0.86577 0.60417 0.0
H2986 H 0.83584 0.81587 0.65352 0.0
H2987 H 0.81104 0.78978 0.64606 0.0
H2988 H 0.83212 0.79853 0.62594 0.0
H2989 H 0.76298 0.86979 0.63795 0.0
H2990 H 0.75852 0.84441 0.65547 0.0
H2991 H 0.78243 0.87148 0.66277 0.0
H2992 H 0.76645 0.78573 0.70308 0.0
H2993 H 0.82479 0.84978 0.72138 0.0
H2994 H 0.76978 0.7807 0.64509 0.0
H2995 H 0.75235 0.8002 0.64771 0.0
H2996 H 0.74879 0.77512 0.6655 0.0
H2997 H 0.84179 0.85939 0.66759 0.0
H2998 H 0.84189 0.87619 0.69472 0.0
H2999 H 0.82318 0.87758 0.67028 0.0
C3000 C 0.75593 0.49161 0.53475 0.0
C3001 C 0.76156 0.49477 0.51221 0.0
C3002 C 0.74253 0.50427 0.54486 0.0
C3003 C 0.73443 0.52033 0.53205 0.0
C3004 C 0.74024 0.52388 0.50939 0.0
C3005 C 0.75387 0.51109 0.49973 0.0
C3006 C 0.73669 0.5001 0.56911 0.0
C3007 C 0.73157 0.54065 0.49517 0.0
C3008 C 0.68043 0.53058 0.54954 0.0
C3009 C 0.68884 0.55368 0.56223 0.0
C3010 C 0.69509 0.51973 0.53933 0.0
C3011 C 0.71877 0.53223 0.54201 0.0
C3012 C 0.72743 0.55558 0.55479 0.0
C3013 C 0.71228 0.56614 0.56469 0.0
C3014 C 0.68521 0.49487 0.52568 0.0
C3015 C 0.75264 0.56931 0.55802 0.0
H3016 H 0.76198 0.47917 0.54458 0.0
H3017 H 0.75818 0.51358 0.48231 0.0
H3018 H 0.74154 0.51794 0.57987 0.0
H3019 H 0.71803 0.49152 0.56917 0.0
H3020 H 0.74536 0.48799 0.57713 0.0
H3021 H 0.73875 0.54253 0.47835 0.0
H3022 H 0.71274 0.53329 0.49206 0.0
H3023 H 0.73587 0.5592 0.50455 0.0
H3024 H 0.66222 0.52123 0.54709 0.0
H3025 H 0.71873 0.58406 0.5744 0.0
H3026 H 0.69131 0.48106 0.53412 0.0
H3027 H 0.69105 0.49566 0.50825 0.0
H3028 H 0.66629 0.48841 0.52401 0.0
H3029 H 0.76179 0.55817 0.5669 0.0
H3030 H 0.75656 0.58744 0.56816 0.0
H3031 H 0.75938 0.57229 0.54109 0.0
C3032 C 0.23248 0.13891 0.53959 0.0
C3033 C 0.23361 0.16356 0.53809 0.0
C3034 C 0.21166 0.12074 0.54167 0.0
C3035 C 0.19143 0.12727 0.54176 0.0
C3036 C 0.19251 0.15213 0.54023 0.0
C3037 C 0.2136 0.16999 0.53865 0.0
C3038 C 0.21129 0.09453 0.54365 0.0
C3039 C 0.17129 0.15981 0.53975 0.0
C3040 C 0.13456 0.07981 0.52068 0.0
C3041 C 0.12404 0.07525 0.54106 0.0
C3042 C 0.15667 0.09614 0.52079 0.0
C3043 C 0.1689 0.108 0.54185 0.0
C3044 C 0.15892 0.10254 0.56263 0.0
C3045 C 0.13651 0.08637 0.56199 0.0
C3046 C 0.1665 0.1016 0.49821 0.0
C3047 C 0.17161 0.11444 0.58546 0.0
H3048 H 0.24794 0.13387 0.53946 0.0
H3049 H 0.21435 0.18899 0.53749 0.0
H3050 H 0.2029 0.0876 0.55901 0.0
H3051 H 0.20118 0.08252 0.5285 0.0
H3052 H 0.22866 0.09276 0.54488 0.0
H3053 H 0.17507 0.17994 0.53893 0.0
H3054 H 0.15936 0.15004 0.52464 0.0
H3055 H 0.1624 0.15457 0.55525 0.0
H3056 H 0.12519 0.07137 0.50437 0.0
H3057 H 0.12861 0.08293 0.57783 0.0
H3058 H 0.18333 0.09859 0.49837 0.0
H3059 H 0.16921 0.12122 0.49556 0.0
H3060 H 0.15522 0.09 0.48342 0.0
H3061 H 0.18888 0.11247 0.58689 0.0
H3062 H 0.16252 0.10636 0.6001 0.0
H3063 H 0.17378 0.13443 0.58682 0.0
C3064 C 0.22352 0.96934 0.8005 0.0
C3065 C 0.20551 0.97355 0.78745 0.0
C3066 C 0.23708 0.95674 0.79054 0.0
C3067 C 0.23243 0.94802 0.76701 0.0
C3068 C 0.21388 0.95155 0.75388 0.0
C3069 C 0.20064 0.96434 0.76426 0.0
C3070 C 0.25663 0.95309 0.80514 0.0
C3071 C 0.20835 0.94226 0.72879 0.0
C3072 C 0.28247 0.93745 0.73951 0.0
C3073 C 0.27816 0.91221 0.74102 0.0
C3074 C 0.26715 0.94923 0.74699 0.0
C3075 C 0.2472 0.93537 0.75626 0.0
C3076 C 0.24237 0.90972 0.75702 0.0
C3077 C 0.25796 0.89848 0.74943 0.0
C3078 C 0.27285 0.97667 0.74604 0.0
C3079 C 0.22129 0.89433 0.76681 0.0
H3080 H 0.22737 0.97638 0.81843 0.0
H3081 H 0.18671 0.96748 0.75408 0.0
H3082 H 0.25472 0.9332 0.80482 0.0
H3083 H 0.27294 0.96218 0.79806 0.0
H3084 H 0.25774 0.9607 0.82325 0.0
H3085 H 0.19293 0.94588 0.72116 0.0
H3086 H 0.22292 0.95125 0.71913 0.0
H3087 H 0.2056 0.92216 0.72654 0.0
H3088 H 0.29814 0.94808 0.73311 0.0
H3089 H 0.25492 0.8791 0.7513 0.0
H3090 H 0.27626 0.98598 0.76373 0.0
H3091 H 0.25822 0.98107 0.73757 0.0
H3092 H 0.28804 0.9844 0.7367 0.0
H3093 H 0.22058 0.90189 0.78455 0.0
H3094 H 0.22066 0.87481 0.76717 0.0
H3095 H 0.20587 0.89495 0.75642 0.0
C3096 C 0.37938 0.99788 0.05626 0.0
C3097 C 0.36746 0.9866 0.03516 0.0
C3098 C 0.40325 0.00711 0.05867 0.0
C3099 C 0.41537 1.00463 0.0396 0.0
C3100 C 0.4034 0.99376 0.01815 0.0
C3101 C 0.37958 0.98505 0.01615 0.0
C3102 C 0.41552 0.01901 0.08169 0.0
C3103 C 0.41576 0.99065 0.99745 0.0
C3104 C 0.4767 0.04271 0.03638 0.0
C3105 C 0.48818 0.02592 0.04167 0.0
C3106 C 0.45304 0.03642 0.03667 0.0
C3107 C 0.44059 0.01266 0.04204 0.0
C3108 C 0.45216 0.99588 0.04805 0.0
C3109 C 0.47589 1.00279 0.04797 0.0
C3110 C 0.44129 0.05493 0.03054 0.0
C3111 C 0.43938 0.97026 0.05365 0.0
H3112 H 0.37008 0.99923 0.07098 0.0
H3113 H 0.3705 0.97628 0.99979 0.0
H3114 H 0.42574 0.0078 0.08857 0.0
H3115 H 0.42753 0.03749 0.07983 0.0
H3116 H 0.40358 0.02098 0.09437 0.0
H3117 H 0.40388 0.98217 0.98192 0.0
H3118 H 0.42721 0.00875 0.9937 0.0
H3119 H 0.42656 0.97885 1.00105 0.0
H3120 H 0.48617 0.06076 0.03181 0.0
H3121 H 0.48471 0.98978 0.0521 0.0
H3122 H 0.42982 0.05684 0.0437 0.0
H3123 H 0.43061 0.0484 0.01398 0.0
H3124 H 0.45361 0.07335 0.02896 0.0
H3125 H 0.42824 0.97115 0.06743 0.0
H3126 H 0.451 0.95995 0.05922 0.0
H3127 H 0.42822 0.95979 0.03832 0.0
C3128 C 0.87033 0.58815 0.83796 0.0
C3129 C 0.89374 0.60094 0.83977 0.0
C3130 C 0.85432 0.59986 0.83196 0.0
C3131 C 0.862 0.6249 0.82774 0.0
C3132 C 0.88542 0.63852 0.83189 0.0
C3133 C 0.90109 0.62634 0.83792 0.0
C3134 C 0.82943 0.58483 0.82804 0.0
C3135 C 0.89416 0.6654 0.8279 0.0
C3136 C 0.82987 0.64421 0.77939 0.0
C3137 C 0.81772 0.65708 0.79136 0.0
C3138 C 0.84405 0.63332 0.79114 0.0
C3139 C 0.84621 0.63558 0.81543 0.0
C3140 C 0.8336 0.64812 0.82763 0.0
C3141 C 0.81941 0.65873 0.81539 0.0
C3142 C 0.85707 0.61981 0.77753 0.0
C3143 C 0.83565 0.65106 0.85351 0.0
H3144 H 0.86453 0.56858 0.83982 0.0
H3145 H 0.91916 0.63638 0.83956 0.0
H3146 H 0.81871 0.59509 0.83553 0.0
H3147 H 0.82423 0.58109 0.80933 0.0
H3148 H 0.82592 0.56692 0.83553 0.0
H3149 H 0.91205 0.6742 0.83538 0.0
H3150 H 0.8934 0.66716 0.80919 0.0
H3151 H 0.88337 0.6756 0.83536 0.0
H3152 H 0.82844 0.64294 0.7608 0.0
H3153 H 0.81027 0.66909 0.82463 0.0
H3154 H 0.85309 0.60063 0.78219 0.0
H3155 H 0.87565 0.62889 0.78172 0.0
H3156 H 0.85303 0.61927 0.75873 0.0
H3157 H 0.83364 0.63309 0.86043 0.0
H3158 H 0.82282 0.6589 0.86027 0.0
H3159 H 0.85286 0.6635 0.86004 0.0
C3160 C 0.85148 0.64803 0.02314 0.0
C3161 C 0.85988 0.6726 0.03268 0.0
C3162 C 0.86506 0.63246 0.02415 0.0
C3163 C 0.88756 0.64165 0.035 0.0
C3164 C 0.89622 0.6665 0.04443 0.0
C3165 C 0.8823 0.68167 0.04314 0.0
C3166 C 0.85523 0.60609 0.01382 0.0
C3167 C 0.92011 0.67699 0.05617 0.0
C3168 C 0.91473 0.59592 0.05799 0.0
C3169 C 0.92903 0.59381 0.04103 0.0
C3170 C 0.90117 0.61142 0.05624 0.0
C3171 C 0.90185 0.62512 0.037 0.0
C3172 C 0.91624 0.62308 0.01981 0.0
C3173 C 0.92969 0.6075 0.02205 0.0
C3174 C 0.88619 0.61321 0.07502 0.0
C3175 C 0.91734 0.63728 0.99899 0.0
H3176 H 0.83421 0.64085 0.015 0.0
H3177 H 0.88897 0.70062 0.05055 0.0
H3178 H 0.86619 0.60207 1.00097 0.0
H3179 H 0.85483 0.59346 0.02737 0.0
H3180 H 0.83768 0.60198 0.00541 0.0
H3181 H 0.92445 0.69682 0.0622 0.0
H3182 H 0.92202 0.66674 0.07112 0.0
H3183 H 0.9326 0.67476 0.04427 0.0
H3184 H 0.91437 0.58566 0.07285 0.0
H3185 H 0.9405 0.60574 0.00875 0.0
H3186 H 0.86814 0.6078 0.06778 0.0
H3187 H 0.89089 0.63253 0.08273 0.0
H3188 H 0.88758 0.60131 0.08882 0.0
H3189 H 0.90019 0.63232 0.98949 0.0
H3190 H 0.92937 0.63364 0.98715 0.0
H3191 H 0.92273 0.65731 0.00437 0.0
C3192 C 0.24115 0.10482 0.82646 0.0
C3193 C 0.22897 0.08963 0.80703 0.0
C3194 C 0.25299 0.12971 0.82499 0.0
C3195 C 0.25242 0.13961 0.80364 0.0
C3196 C 0.24098 0.12413 0.78379 0.0
C3197 C 0.22947 0.09926 0.78571 0.0
C3198 C 0.26525 0.14565 0.84646 0.0
C3199 C 0.23988 0.13408 0.76075 0.0
C3200 C 0.25675 0.20685 0.80391 0.0
C3201 C 0.27905 0.21742 0.79828 0.0
C3202 C 0.248 0.18158 0.80591 0.0
C3203 C 0.26197 0.16652 0.80239 0.0
C3204 C 0.28463 0.17709 0.79712 0.0
C3205 C 0.2929 0.20246 0.79501 0.0
C3206 C 0.22366 0.17092 0.81142 0.0
C3207 C 0.30003 0.16157 0.79347 0.0
H3208 H 0.24097 0.09743 0.84296 0.0
H3209 H 0.22012 0.08763 0.77061 0.0
H3210 H 0.28282 0.15644 0.84339 0.0
H3211 H 0.25627 0.15898 0.85128 0.0
H3212 H 0.26611 0.13465 0.86114 0.0
H3213 H 0.23183 0.11927 0.74671 0.0
H3214 H 0.2299 0.14713 0.7613 0.0
H3215 H 0.25722 0.14443 0.75662 0.0
H3216 H 0.2459 0.21826 0.80642 0.0
H3217 H 0.3102 0.21053 0.79077 0.0
H3218 H 0.22313 0.1613 0.82721 0.0
H3219 H 0.21373 0.1571 0.7973 0.0
H3220 H 0.21517 0.18523 0.81394 0.0
H3221 H 0.30111 0.15134 0.80863 0.0
H3222 H 0.31752 0.17278 0.79043 0.0
H3223 H 0.29284 0.14772 0.77852 0.0
C3224 C 0.37415 0.98617 0.31578 0.0
C3225 C 0.39119 0.99393 0.33421 0.0
C3226 C 0.36089 0.96138 0.31134 0.0
C3227 C 0.36468 0.94401 0.32577 0.0
C3228 C 0.38067 0.952 0.34536 0.0
C3229 C 0.39379 0.97691 0.34934 0.0
C3230 C 0.34395 0.95356 0.2903 0.0
C3231 C 0.38498 0.93403 0.36129 0.0
C3232 C 0.32272 0.87919 0.31852 0.0
C3233 C 0.3339 0.8668 0.30448 0.0
C3234 C 0.33259 0.90433 0.32584 0.0
C3235 C 0.35402 0.91731 0.31879 0.0
C3236 C 0.36535 0.90489 0.30463 0.0
C3237 C 0.35519 0.87979 0.29772 0.0
C3238 C 0.32014 0.91699 0.34107 0.0
C3239 C 0.38818 0.91816 0.29663 0.0
H3240 H 0.37188 0.99923 0.3041 0.0
H3241 H 0.40676 0.9828 0.36376 0.0
H3242 H 0.35033 0.94298 0.27735 0.0
H3243 H 0.32737 0.94132 0.29459 0.0
H3244 H 0.34109 0.96956 0.28244 0.0
H3245 H 0.3956 0.94352 0.3773 0.0
H3246 H 0.36867 0.9215 0.36589 0.0
H3247 H 0.39391 0.9225 0.3525 0.0
H3248 H 0.3063 0.86924 0.3239 0.0
H3249 H 0.36391 0.87039 0.28682 0.0
H3250 H 0.31655 0.93219 0.33248 0.0
H3251 H 0.33097 0.9253 0.35724 0.0
H3252 H 0.30379 0.90416 0.34535 0.0
H3253 H 0.38677 0.93349 0.28671 0.0
H3254 H 0.39473 0.90579 0.28568 0.0
H3255 H 0.40085 0.92633 0.31162 0.0
C3256 C 0.57992 0.38177 0.60645 0.0
C3257 C 0.59737 0.37389 0.59789 0.0
C3258 C 0.57522 0.40272 0.59908 0.0
C3259 C 0.58829 0.41636 0.58277 0.0
C3260 C 0.60613 0.40873 0.5743 0.0
C3261 C 0.6104 0.38764 0.58189 0.0
C3262 C 0.556 0.41006 0.60855 0.0
C3263 C 0.62059 0.42272 0.55699 0.0
C3264 C 0.56182 0.45489 0.54614 0.0
C3265 C 0.57186 0.47881 0.55704 0.0
C3266 C 0.56698 0.43455 0.55434 0.0
C3267 C 0.58273 0.43802 0.57393 0.0
C3268 C 0.59303 0.46211 0.585 0.0
C3269 C 0.58742 0.48215 0.57651 0.0
C3270 C 0.55551 0.40928 0.54198 0.0
C3271 C 0.61003 0.46676 0.60581 0.0
H3272 H 0.56972 0.3714 0.61882 0.0
H3273 H 0.62398 0.38188 0.57518 0.0
H3274 H 0.56241 0.42934 0.6165 0.0
H3275 H 0.54286 0.40923 0.59441 0.0
H3276 H 0.54781 0.39797 0.62156 0.0
H3277 H 0.63434 0.41502 0.55271 0.0
H3278 H 0.60976 0.42223 0.54099 0.0
H3279 H 0.62842 0.44233 0.56368 0.0
H3280 H 0.54975 0.45195 0.53112 0.0
H3281 H 0.59541 0.50048 0.58505 0.0
H3282 H 0.54588 0.39676 0.55395 0.0
H3283 H 0.56852 0.40138 0.53585 0.0
H3284 H 0.5436 0.4096 0.52706 0.0
H3285 H 0.60195 0.45617 0.61976 0.0
H3286 H 0.6168 0.48656 0.61226 0.0
H3287 H 0.6245 0.46025 0.60161 0.0
C3288 C 0.45576 0.80021 0.38327 0.0
C3289 C 0.45822 0.77912 0.39244 0.0
C3290 C 0.4359 0.79939 0.36977 0.0
C3291 C 0.41796 0.77687 0.36509 0.0
C3292 C 0.42028 0.75544 0.37424 0.0
C3293 C 0.44035 0.75684 0.38788 0.0
C3294 C 0.4341 0.82273 0.36056 0.0
C3295 C 0.40159 0.73106 0.36955 0.0
C3296 C 0.3599 0.783 0.34725 0.0
C3297 C 0.35887 0.77999 0.32321 0.0
C3298 C 0.37861 0.78112 0.36109 0.0
C3299 C 0.39681 0.77603 0.35072 0.0
C3300 C 0.3955 0.77204 0.32651 0.0
C3301 C 0.3766 0.7741 0.31306 0.0
C3302 C 0.37928 0.78551 0.38681 0.0
C3303 C 0.41444 0.76641 0.31477 0.0
H3304 H 0.46939 0.81756 0.38673 0.0
H3305 H 0.4421 0.74043 0.39483 0.0
H3306 H 0.43153 0.8202 0.34155 0.0
H3307 H 0.4191 0.82698 0.3667 0.0
H3308 H 0.44952 0.83878 0.36585 0.0
H3309 H 0.40604 0.71608 0.37777 0.0
H3310 H 0.38564 0.73265 0.37594 0.0
H3311 H 0.39802 0.72584 0.35079 0.0
H3312 H 0.34627 0.78735 0.35536 0.0
H3313 H 0.37598 0.77158 0.29454 0.0
H3314 H 0.39322 0.80266 0.39312 0.0
H3315 H 0.38294 0.77023 0.39519 0.0
H3316 H 0.36302 0.78728 0.39227 0.0
H3317 H 0.43008 0.78259 0.3177 0.0
H3318 H 0.41003 0.76177 0.29599 0.0
H3319 H 0.41851 0.75081 0.32215 0.0
C3320 C 0.08237 0.72827 0.10786 0.0
C3321 C 0.08177 0.74377 0.09047 0.0
C3322 C 0.0792 0.70305 0.10268 0.0
C3323 C 0.07508 0.69282 0.07953 0.0
C3324 C 0.07424 0.70828 0.06189 0.0
C3325 C 0.07771 0.73353 0.06755 0.0
C3326 C 0.08043 0.68737 0.12204 0.0
C3327 C 0.06968 0.69811 0.03701 0.0
C3328 C 0.08706 0.63232 0.06482 0.0
C3329 C 0.06532 0.61494 0.0641 0.0
C3330 C 0.09048 0.65765 0.06982 0.0
C3331 C 0.07167 0.66596 0.07385 0.0
C3332 C 0.04964 0.64851 0.07287 0.0
C3333 C 0.04677 0.62328 0.0682 0.0
C3334 C 0.11428 0.67554 0.07097 0.0
C3335 C 0.02905 0.65649 0.07672 0.0
H3336 H 0.08558 0.7359 0.12563 0.0
H3337 H 0.07716 0.74526 0.05397 0.0
H3338 H 0.06411 0.67225 0.12174 0.0
H3339 H 0.09398 0.67875 0.11981 0.0
H3340 H 0.08401 0.69814 0.1391 0.0
H3341 H 0.06919 0.71241 0.02534 0.0
H3342 H 0.08307 0.69009 0.03228 0.0
H3343 H 0.05317 0.68307 0.03421 0.0
H3344 H 0.10151 0.62612 0.06172 0.0
H3345 H 0.02985 0.61009 0.06745 0.0
H3346 H 0.11907 0.68585 0.08822 0.0
H3347 H 0.11496 0.68922 0.05837 0.0
H3348 H 0.1271 0.66619 0.06743 0.0
H3349 H 0.03096 0.66576 0.09429 0.0
H3350 H 0.01298 0.64076 0.0745 0.0
H3351 H 0.02762 0.67002 0.06456 0.0
C3352 C 0.09521 0.29176 0.9183 0.0
C3353 C 0.07239 0.28317 0.90896 0.0
C3354 C 0.11304 0.29268 0.90454 0.0
C3355 C 0.10795 0.28467 0.88087 0.0
C3356 C 0.08496 0.2761 0.8713 0.0
C3357 C 0.06747 0.27554 0.88542 0.0
C3358 C 0.13732 0.30214 0.91538 0.0
C3359 C 0.07883 0.26729 0.84615 0.0
C3360 C 0.15411 0.30647 0.84071 0.0
C3361 C 0.16211 0.28618 0.83802 0.0
C3362 C 0.1366 0.30628 0.85468 0.0
C3363 C 0.12669 0.28521 0.86613 0.0
C3364 C 0.13472 0.26467 0.86352 0.0
C3365 C 0.15239 0.26545 0.84958 0.0
C3366 C 0.12873 0.32865 0.85721 0.0
C3367 C 0.1245 0.24179 0.87531 0.0
H3368 H 0.09921 0.29775 0.93644 0.0
H3369 H 0.0499 0.26881 0.87805 0.0
H3370 H 0.14553 0.28757 0.91328 0.0
H3371 H 0.14723 0.31796 0.90662 0.0
H3372 H 0.13844 0.30809 0.93394 0.0
H3373 H 0.06016 0.26119 0.84135 0.0
H3374 H 0.08707 0.28225 0.83558 0.0
H3375 H 0.08532 0.25172 0.84179 0.0
H3376 H 0.16176 0.32268 0.83206 0.0
H3377 H 0.15834 0.24962 0.84738 0.0
H3378 H 0.13082 0.33582 0.87554 0.0
H3379 H 0.11035 0.32356 0.85129 0.0
H3380 H 0.1383 0.34363 0.8473 0.0
H3381 H 0.12635 0.24646 0.89414 0.0
H3382 H 0.13262 0.22739 0.87149 0.0
H3383 H 0.106 0.23404 0.86981 0.0
C3384 C 0.56772 0.71528 0.94833 0.0
C3385 C 0.54765 0.71375 0.93438 0.0
C3386 C 0.56957 0.69565 0.96174 0.0
C3387 C 0.55096 0.67334 0.9619 0.0
C3388 C 0.53069 0.67197 0.9481 0.0
C3389 C 0.52938 0.6916 0.93481 0.0
C3390 C 0.59178 0.69868 0.97562 0.0
C3391 C 0.51004 0.64941 0.94719 0.0
C3392 C 0.5589 0.61069 0.97873 0.0
C3393 C 0.5529 0.6088 1.00154 0.0
C3394 C 0.5588 0.63129 0.96614 0.0
C3395 C 0.55245 0.65143 0.97597 0.0
C3396 C 0.54637 0.64965 0.99899 0.0
C3397 C 0.54673 0.62886 0.01126 0.0
C3398 C 0.56547 0.63136 0.94195 0.0
C3399 C 0.53914 0.6698 0.01077 0.0
H3400 H 0.58225 0.7317 0.94851 0.0
H3401 H 0.51358 0.68939 0.92449 0.0
H3402 H 0.58894 0.69691 0.99394 0.0
H3403 H 0.59867 0.68382 0.96981 0.0
H3404 H 0.60469 0.71675 0.97415 0.0
H3405 H 0.49522 0.65113 0.93649 0.0
H3406 H 0.51412 0.63302 0.94008 0.0
H3407 H 0.50512 0.64605 0.96476 0.0
H3408 H 0.56377 0.59584 0.97048 0.0
H3409 H 0.54201 0.62835 0.02866 0.0
H3410 H 0.57937 0.64857 0.94015 0.0
H3411 H 0.55076 0.63092 0.92984 0.0
H3412 H 0.5712 0.61538 0.9369 0.0
H3413 H 0.55273 0.68773 0.01097 0.0
H3414 H 0.53537 0.66643 0.02868 0.0
H3415 H 0.52371 0.67137 1.00108 0.0
C3416 C 0.13351 0.81143 0.7243 0.0
C3417 C 0.12568 0.8005 0.7016 0.0
C3418 C 0.15516 0.81171 0.73565 0.0
C3419 C 0.17005 0.80058 0.72467 0.0
C3420 C 0.16197 0.7893 0.70199 0.0
C3421 C 0.14061 0.78953 0.69106 0.0
C3422 C 0.16232 0.82438 0.75954 0.0
C3423 C 0.17609 0.77685 0.68888 0.0
C3424 C 0.23643 0.81832 0.7434 0.0
C3425 C 0.23884 0.79884 0.75596 0.0
C3426 C 0.21471 0.81926 0.73365 0.0
C3427 C 0.1938 0.80057 0.73637 0.0
C3428 C 0.19612 0.78102 0.7492 0.0
C3429 C 0.21805 0.78036 0.75852 0.0
C3430 C 0.21413 0.84039 0.72001 0.0
C3431 C 0.17519 0.7603 0.75292 0.0
H3432 H 0.12295 0.82026 0.73317 0.0
H3433 H 0.13555 0.78076 0.67374 0.0
H3434 H 0.16596 0.8114 0.77125 0.0
H3435 H 0.1783 0.83992 0.75955 0.0
H3436 H 0.14911 0.83157 0.76635 0.0
H3437 H 0.16771 0.76854 0.6716 0.0
H3438 H 0.19288 0.79035 0.68688 0.0
H3439 H 0.17934 0.76217 0.6986 0.0
H3440 H 0.25174 0.83293 0.74087 0.0
H3441 H 0.21882 0.76504 0.76797 0.0
H3442 H 0.20419 0.85102 0.72841 0.0
H3443 H 0.20541 0.83332 0.70262 0.0
H3444 H 0.23141 0.85295 0.71821 0.0
H3445 H 0.16278 0.76778 0.76103 0.0
H3446 H 0.1792 0.7469 0.76392 0.0
H3447 H 0.16679 0.75039 0.73616 0.0
C3448 C 0.04037 0.3726 0.42595 0.0
C3449 C 0.05589 0.3595 0.43076 0.0
C3450 C 0.04055 0.39438 0.43935 0.0
C3451 C 0.05692 0.40458 0.45854 0.0
C3452 C 0.07266 0.39148 0.46373 0.0
C3453 C 0.07188 0.36931 0.45009 0.0
C3454 C 0.02299 0.4066 0.43277 0.0
C3455 C 0.0907 0.40117 0.48362 0.0
C3456 C 0.06824 0.47456 0.47851 0.0
C3457 C 0.05548 0.47429 0.49758 0.0
C3458 C 0.06937 0.45249 0.46632 0.0
C3459 C 0.05731 0.42874 0.47274 0.0
C3460 C 0.04445 0.42837 0.49201 0.0
C3461 C 0.04382 0.45072 0.50406 0.0
C3462 C 0.08355 0.45466 0.44629 0.0
C3463 C 0.03089 0.40413 0.4998 0.0
H3464 H 0.02767 0.36572 0.41138 0.0
H3465 H 0.08419 0.36 0.45434 0.0
H3466 H 0.01317 0.40829 0.44753 0.0
H3467 H 0.03156 0.4255 0.4283 0.0
H3468 H 1.01089 0.39626 0.41796 0.0
H3469 H 0.10171 0.38929 0.48575 0.0
H3470 H 0.10155 0.42001 0.48105 0.0
H3471 H 0.08262 0.40254 0.4997 0.0
H3472 H 0.07755 0.49221 0.47302 0.0
H3473 H 0.03384 0.44962 0.51858 0.0
H3474 H 0.07241 0.44632 0.4303 0.0
H3475 H 0.09588 0.44434 0.44867 0.0
H3476 H 0.09307 0.4741 0.44408 0.0
H3477 H 0.01783 0.39353 0.48584 0.0
H3478 H 0.02223 0.40654 0.5153 0.0
H3479 H 0.0422 0.39294 0.50362 0.0
C3480 C 0.47671 0.2884 0.22791 0.0
C3481 C 0.48002 0.29815 0.20638 0.0
C3482 C 0.45623 0.28615 0.23944 0.0
C3483 C 0.43774 0.29373 0.22982 0.0
C3484 C 0.44111 0.3035 0.20821 0.0
C3485 C 0.4615 0.30551 0.19717 0.0
C3486 C 0.45434 0.27543 0.26216 0.0
C3487 C 0.42285 0.31194 0.19636 0.0
C3488 C 0.37426 0.26987 0.24792 0.0
C3489 C 0.37173 0.28979 0.26211 0.0
C3490 C 0.3951 0.27075 0.2378 0.0
C3491 C 0.41518 0.29183 0.24189 0.0
C3492 C 0.41281 0.31178 0.25649 0.0
C3493 C 0.39167 0.31063 0.26599 0.0
C3494 C 0.39548 0.24893 0.22222 0.0
C3495 C 0.43282 0.33488 0.26199 0.0
H3496 H 0.49009 0.28235 0.23586 0.0
H3497 H 0.4628 0.3131 0.18077 0.0
H3498 H 0.4514 0.28866 0.27533 0.0
H3499 H 0.43943 0.25847 0.26077 0.0
H3500 H 0.46984 0.27085 0.26802 0.0
H3501 H 0.42741 0.31881 0.17956 0.0
H3502 H 0.4066 0.29653 0.19354 0.0
H3503 H 0.41979 0.32686 0.20739 0.0
H3504 H 0.35962 0.25348 0.24423 0.0
H3505 H 0.39084 0.32645 0.27665 0.0
H3506 H 0.40753 0.24033 0.23017 0.0
H3507 H 0.40167 0.25491 0.20565 0.0
H3508 H 0.37843 0.23488 0.21869 0.0
H3509 H 0.44792 0.33024 0.26898 0.0
H3510 H 0.42928 0.34827 0.27458 0.0
H3511 H 0.43728 0.34384 0.24607 0.0
C3512 C 0.66155 0.53373 0.40033 0.0
C3513 C 0.66207 0.5105 0.39181 0.0
C3514 C 0.65229 0.53689 0.42088 0.0
C3515 C 0.64325 0.51626 0.43314 0.0
C3516 C 0.64549 0.4932 0.42568 0.0
C3517 C 0.65496 0.49057 0.405 0.0
C3518 C 0.65049 0.56188 0.42842 0.0
C3519 C 0.63627 0.47089 0.4385 0.0
C3520 C 0.6228 0.52994 0.4904 0.0
C3521 C 0.59979 0.52682 0.48384 0.0
C3522 C 0.63716 0.52571 0.47426 0.0
C3523 C 0.62818 0.51812 0.45117 0.0
C3524 C 0.60484 0.51425 0.44465 0.0
C3525 C 0.59095 0.51866 0.46106 0.0
C3526 C 0.66194 0.52981 0.48179 0.0
C3527 C 0.59464 0.50621 0.42014 0.0
H3528 H 0.66751 0.54934 0.39042 0.0
H3529 H 0.65555 0.47264 0.39858 0.0
H3530 H 0.63247 0.56141 0.42554 0.0
H3531 H 0.65587 0.56678 0.44701 0.0
H3532 H 0.66101 0.57658 0.41881 0.0
H3533 H 0.64286 0.45569 0.43292 0.0
H3534 H 0.64069 0.47562 0.45724 0.0
H3535 H 0.61742 0.46415 0.43537 0.0
H3536 H 0.62971 0.53599 0.50806 0.0
H3537 H 0.57317 0.51598 0.45587 0.0
H3538 H 0.67295 0.54366 0.47178 0.0
H3539 H 0.66601 0.51246 0.47838 0.0
H3540 H 0.66633 0.53621 0.50031 0.0
H3541 H 0.60261 0.52066 0.40896 0.0
H3542 H 0.57593 0.50272 0.41819 0.0
H3543 H 0.59812 0.48916 0.41388 0.0
C3544 C 0.30295 0.88787 0.06532 0.0
C3545 C 0.28814 0.87869 0.0453 0.0
C3546 C 0.30557 0.87238 0.08192 0.0
C3547 C 0.29306 0.84701 0.07849 0.0
C3548 C 0.27801 0.83754 0.05838 0.0
C3549 C 0.27572 0.85353 0.04197 0.0
C3550 C 0.32178 0.88325 0.10318 0.0
C3551 C 0.2644 0.81058 0.05426 0.0
C3552 C 0.31997 0.81048 0.11577 0.0
C3553 C 0.3083 0.81027 0.13538 0.0
C3554 C 0.31396 0.82063 0.0962 0.0
C3555 C 0.29587 0.83079 0.09631 0.0
C3556 C 0.28284 0.82877 0.11532 0.0
C3557 C 0.28925 0.81858 0.13465 0.0
C3558 C 0.32814 0.82224 0.07615 0.0
C3559 C 0.26337 0.8393 0.11612 0.0
H3560 H 0.31262 0.90728 0.06808 0.0
H3561 H 0.26426 0.84631 0.02652 0.0
H3562 H 0.31245 0.88002 0.11869 0.0
H3563 H 0.33509 0.87407 0.10457 0.0
H3564 H 0.33027 0.90336 0.10315 0.0
H3565 H 0.2535 0.8061 0.0377 0.0
H3566 H 0.27603 0.79927 0.0543 0.0
H3567 H 0.25338 0.80518 0.06833 0.0
H3568 H 0.33443 0.80364 0.11608 0.0
H3569 H 0.28021 0.81865 0.14975 0.0
H3570 H 0.33924 0.84152 0.07589 0.0
H3571 H 0.3171 0.81704 0.05972 0.0
H3572 H 0.33913 0.81022 0.07719 0.0
H3573 H 0.27029 0.85968 0.11893 0.0
H3574 H 0.25267 0.83261 0.13019 0.0
H3575 H 0.25241 0.83454 0.09964 0.0
C3576 C 0.98639 0.55168 0.88083 0.0
C3577 C 0.96422 0.53708 0.88394 0.0
C3578 C 1.00448 0.55481 0.89765 0.0
C3579 C 1.00015 0.54332 0.91809 0.0
C3580 C 0.97798 0.52785 0.92096 0.0
C3581 C 0.96028 0.52483 0.90376 0.0
C3582 C 0.02797 0.57114 0.89393 0.0
C3583 C 0.9727 0.51535 0.94264 0.0
C3584 C 0.04317 0.5356 0.96314 0.0
C3585 C 0.04208 0.55301 0.98056 0.0
C3586 C 0.03113 0.53355 0.94157 0.0
C3587 C 0.01793 0.54934 0.93765 0.0
C3588 C 0.01893 0.56867 0.95441 0.0
C3589 C 0.03104 0.57026 0.97571 0.0
C3590 C 0.03076 0.51302 0.92391 0.0
C3591 C 1.00529 0.58607 0.95081 0.0
H3592 H 0.98959 0.56095 0.86535 0.0
H3593 H 0.94322 0.51342 0.90617 0.0
H3594 H 0.03225 0.58857 0.90524 0.0
H3595 H 0.04095 0.56216 0.89853 0.0
H3596 H 0.02918 0.5757 0.87589 0.0
H3597 H 0.95491 0.5028 0.94156 0.0
H3598 H 0.98443 0.50459 0.94628 0.0
H3599 H 0.97532 0.52944 0.95738 0.0
H3600 H 0.05179 0.52229 0.9669 0.0
H3601 H 0.03055 0.584 0.98915 0.0
H3602 H 0.03122 0.51924 0.90643 0.0
H3603 H 0.01474 0.49759 0.92408 0.0
H3604 H 0.04531 0.50595 0.92749 0.0
H3605 H 1.00729 0.5931 0.93372 0.0
H3606 H 1.01041 0.602 0.96413 0.0
H3607 H 0.98695 0.57605 0.95149 0.0
C3608 C 0.30103 0.26838 0.60544 0.0
C3609 C 0.30557 0.24702 0.59708 0.0
C3610 C 0.30069 0.27411 0.62911 0.0
C3611 C 0.30479 0.258 0.64491 0.0
C3612 C 0.30962 0.23655 0.6366 0.0
C3613 C 0.31005 0.2314 0.61289 0.0
C3614 C 0.29574 0.2973 0.63722 0.0
C3615 C 0.314 0.21881 0.65276 0.0
C3616 C 0.32303 0.28201 0.70783 0.0
C3617 C 0.30251 0.27351 0.71797 0.0
C3618 C 0.32398 0.27724 0.68416 0.0
C3619 C 0.30396 0.2635 0.67011 0.0
C3620 C 0.28319 0.25481 0.6802 0.0
C3621 C 0.28269 0.25998 0.70394 0.0
C3622 C 0.34647 0.28699 0.67419 0.0
C3623 C 0.26148 0.23991 0.66592 0.0
H3624 H 0.29756 0.28061 0.59345 0.0
H3625 H 0.31349 0.21478 0.60671 0.0
H3626 H 0.28004 0.29257 0.64622 0.0
H3627 H 0.30984 0.30898 0.64969 0.0
H3628 H 0.29346 0.30822 0.62287 0.0
H3629 H 0.31765 0.20303 0.64363 0.0
H3630 H 0.32864 0.22848 0.66553 0.0
H3631 H 0.29896 0.21155 0.66239 0.0
H3632 H 0.33845 0.29263 0.71836 0.0
H3633 H 0.26675 0.25326 0.7115 0.0
H3634 H 0.34497 0.29931 0.66084 0.0
H3635 H 0.35113 0.27155 0.66577 0.0
H3636 H 0.36049 0.29736 0.68741 0.0
H3637 H 0.25747 0.25068 0.65218 0.0
H3638 H 0.24674 0.23444 0.6763 0.0
H3639 H 0.2637 0.22302 0.65743 0.0
C3640 C 0.61067 0.51014 0.26513 0.0
C3641 C 0.60968 0.51935 0.28765 0.0
C3642 C 0.597 0.51428 0.24683 0.0
C3643 C 0.58188 0.5278 0.2512 0.0
C3644 C 0.57918 0.53501 0.27407 0.0
C3645 C 0.59319 0.53075 0.29208 0.0
C3646 C 0.6003 0.50612 0.22267 0.0
C3647 C 0.56286 0.54898 0.27943 0.0
C3648 C 0.57757 0.5686 0.2045 0.0
C3649 C 0.55752 0.55443 0.19125 0.0
C3650 C 0.58502 0.56061 0.22466 0.0
C3651 C 0.57209 0.53785 0.23183 0.0
C3652 C 0.55119 0.52404 0.21926 0.0
C3653 C 0.54419 0.53244 0.19899 0.0
C3654 C 0.60748 0.57589 0.23752 0.0
C3655 C 0.5368 0.49988 0.22658 0.0
H3656 H 0.62311 0.50096 0.26157 0.0
H3657 H 0.59207 0.53762 0.30947 0.0
H3658 H 0.58364 0.49704 0.21258 0.0
H3659 H 0.6093 0.52247 0.21403 0.0
H3660 H 0.61046 0.49321 0.22232 0.0
H3661 H 0.55956 0.54906 0.29777 0.0
H3662 H 0.5702 0.56833 0.27552 0.0
H3663 H 0.54642 0.54095 0.26866 0.0
H3664 H 0.58818 0.58537 0.19846 0.0
H3665 H 0.52858 0.52152 0.1889 0.0
H3666 H 0.61997 0.56563 0.2366 0.0
H3667 H 0.60535 0.57945 0.25589 0.0
H3668 H 0.61472 0.59384 0.23047 0.0
H3669 H 0.54502 0.48557 0.22288 0.0
H3670 H 0.51942 0.49362 0.21739 0.0
H3671 H 0.53537 0.5014 0.24531 0.0
C3672 C 0.29165 0.9102 0.93085 0.0
C3673 C 0.30586 0.90607 0.94872 0.0
C3674 C 0.29037 0.89896 0.90858 0.0
C3675 C 0.30339 0.88304 0.90427 0.0
C3676 C 0.31783 0.87893 0.92222 0.0
C3677 C 0.31897 0.8906 0.9442 0.0
C3678 C 0.27498 0.9039 0.88973 0.0
C3679 C 0.33179 0.86185 0.91833 0.0
C3680 C 0.28486 0.8322 0.85573 0.0
C3681 C 0.30089 0.84121 0.84017 0.0
C3682 C 0.28493 0.84609 0.8763 0.0
C3683 C 0.30127 0.86966 0.8813 0.0
C3684 C 0.31679 0.87938 0.86519 0.0
C3685 C 0.31651 0.86495 0.84482 0.0
C3686 C 0.26824 0.83501 0.89316 0.0
C3687 C 0.33423 0.90463 0.86985 0.0
H3688 H 0.2816 0.92229 0.93423 0.0
H3689 H 0.32995 0.8873 0.95794 0.0
H3690 H 0.28479 0.91062 0.87512 0.0
H3691 H 0.26138 0.88658 0.8832 0.0
H3692 H 0.26687 0.91771 0.89565 0.0
H3693 H 0.34246 0.86099 0.93405 0.0
H3694 H 0.32035 0.84299 0.91251 0.0
H3695 H 0.34308 0.86797 0.90461 0.0
H3696 H 0.27268 0.81389 0.85224 0.0
H3697 H 0.32878 0.8721 0.83274 0.0
H3698 H 0.25895 0.84788 0.89844 0.0
H3699 H 0.2776 0.83184 0.90883 0.0
H3700 H 0.25561 0.81721 0.88597 0.0
H3701 H 0.32595 0.91843 0.87526 0.0
H3702 H 0.34338 0.91052 0.8546 0.0
H3703 H 0.34691 0.90456 0.88412 0.0
C3704 C 0.95628 0.56566 0.75536 0.0
C3705 C 0.96916 0.57335 0.77666 0.0
C3706 C 0.96679 0.56329 0.73542 0.0
C3707 C 0.99071 0.56855 0.73693 0.0
C3708 C 1.00396 0.57824 0.75805 0.0
C3709 C 0.99299 0.58065 0.77774 0.0
C3710 C 0.95213 0.55329 0.71309 0.0
C3711 C 0.02952 0.58412 0.76028 0.0
C3712 C 1.01004 0.52772 0.69529 0.0
C3713 C 0.01745 0.54324 0.67811 0.0
C3714 C 1.00204 0.5361 0.71491 0.0
C3715 C 1.00127 0.56055 0.71728 0.0
C3716 C 1.00928 0.57655 0.70032 0.0
C3717 C 0.01736 0.56771 0.68092 0.0
C3718 C 0.99372 0.51851 0.73274 0.0
C3719 C 1.0087 0.60272 0.70232 0.0
H3720 H 0.93786 0.56036 0.75442 0.0
H3721 H 1.00304 0.58672 0.79416 0.0
H3722 H 0.95927 0.56424 0.69898 0.0
H3723 H 0.9518 0.53408 0.70855 0.0
H3724 H 0.93432 0.55333 0.71416 0.0
H3725 H 0.03755 0.59513 0.77673 0.0
H3726 H 0.03381 0.5667 0.75951 0.0
H3727 H 0.03704 0.59437 0.74592 0.0
H3728 H 1.00983 0.50874 0.69309 0.0
H3729 H 0.02345 0.5799 0.66785 0.0
H3730 H 0.97519 0.51498 0.7336 0.0
H3731 H 1.00238 0.52675 0.74992 0.0
H3732 H 0.99676 0.50061 0.72894 0.0
H3733 H 0.99076 0.6027 0.70145 0.0
H3734 H 0.01713 0.61331 0.68849 0.0
H3735 H 0.01716 0.61237 0.71915 0.0
C3736 C 0.31975 0.235 0.45881 0.0
C3737 C 0.3004 0.23679 0.46896 0.0
C3738 C 0.32372 0.24177 0.43646 0.0
C3739 C 0.30819 0.25094 0.42396 0.0
C3740 C 0.28908 0.25362 0.43446 0.0
C3741 C 0.28534 0.24636 0.45666 0.0
C3742 C 0.34414 0.23828 0.42592 0.0
C3743 C 0.27223 0.26365 0.42201 0.0
C3744 C 0.32515 0.28563 0.37119 0.0
C3745 C 0.31366 0.2678 0.35313 0.0
C3746 C 0.3239 0.28035 0.39428 0.0
C3747 C 0.31114 0.25653 0.39952 0.0
C3748 C 0.30026 0.23822 0.38128 0.0
C3749 C 0.30148 0.24412 0.35843 0.0
C3750 C 0.33552 0.30053 0.41309 0.0
C3751 C 0.2868 0.21248 0.38592 0.0
H3752 H 0.33146 0.22751 0.46804 0.0
H3753 H 0.2704 0.24796 0.4643 0.0
H3754 H 0.33836 0.22434 0.41085 0.0
H3755 H 0.3544 0.25571 0.41968 0.0
H3756 H 0.35524 0.23215 0.43821 0.0
H3757 H 0.25917 0.26622 0.43306 0.0
H3758 H 0.28123 0.28158 0.41578 0.0
H3759 H 0.26345 0.25084 0.40677 0.0
H3760 H 0.33443 0.30405 0.36735 0.0
H3761 H 0.29259 0.23016 0.34465 0.0
H3762 H 0.34686 0.29437 0.42503 0.0
H3763 H 0.32254 0.30482 0.42321 0.0
H3764 H 0.34574 0.31766 0.40627 0.0
H3765 H 0.29738 0.20475 0.39727 0.0
H3766 H 0.28069 0.19991 0.36992 0.0
H3767 H 0.27182 0.21298 0.39497 0.0
C3768 C 0.38544 0.61012 0.54634 0.0
C3769 C 0.36293 0.6007 0.55174 0.0
C3770 C 0.39722 0.59432 0.53848 0.0
C3771 C 0.38609 0.56858 0.53577 0.0
C3772 C 0.36351 0.55895 0.54153 0.0
C3773 C 0.35224 0.57513 0.54955 0.0
C3774 C 0.42146 0.60516 0.53278 0.0
C3775 C 0.35113 0.5316 0.53882 0.0
C3776 C 0.40945 0.53137 0.49406 0.0
C3777 C 0.42304 0.52243 0.50894 0.0
C3778 C 0.39686 0.54596 0.50261 0.0
C3779 C 0.39799 0.55174 0.52658 0.0
C3780 C 0.411 0.54201 0.54171 0.0
C3781 C 0.42343 0.52751 0.5327 0.0
C3782 C 0.38289 0.55579 0.48599 0.0
C3783 C 0.41261 0.54778 0.56737 0.0
H3784 H 0.39382 0.62985 0.54809 0.0
H3785 H 0.33481 0.56768 0.55365 0.0
H3786 H 0.43283 0.5972 0.54282 0.0
H3787 H 0.42261 0.6004 0.51437 0.0
H3788 H 0.42786 0.62551 0.53641 0.0
H3789 H 0.33372 0.52707 0.54448 0.0
H3790 H 0.34979 0.52436 0.52058 0.0
H3791 H 0.36086 0.52187 0.5489 0.0
H3792 H 0.40905 0.52735 0.47569 0.0
H3793 H 0.43428 0.52107 0.54428 0.0
H3794 H 0.38978 0.57617 0.48727 0.0
H3795 H 0.36504 0.55091 0.4904 0.0
H3796 H 0.38288 0.54852 0.46796 0.0
H3797 H 0.42213 0.56756 0.57197 0.0
H3798 H 0.42142 0.53665 0.57677 0.0
H3799 H 0.39541 0.54437 0.57329 0.0
C3800 C 0.87486 0.94989 0.53418 0.0
C3801 C 0.87426 0.92981 0.54679 0.0
C3802 C 0.89561 0.96762 0.53105 0.0
C3803 C 0.91628 0.96531 0.54086 0.0
C3804 C 0.91573 0.94555 0.55423 0.0
C3805 C 0.89476 0.92802 0.55698 0.0
C3806 C 0.89548 0.98836 0.51664 0.0
C3807 C 0.93737 0.94252 0.56514 0.0
C3808 C 0.972 0.99146 0.5148 0.0
C3809 C 0.98338 0.01202 0.53034 0.0
C3810 C 0.94976 0.97678 0.51744 0.0
C3811 C 0.9386 0.98266 0.53618 0.0
C3812 C 0.94951 1.00412 0.55124 0.0
C3813 C 0.97176 0.01861 0.54809 0.0
C3814 C 0.93864 0.95425 0.50079 0.0
C3815 C 0.93819 0.01104 0.57141 0.0
H3816 H 0.85913 0.95147 0.52623 0.0
H3817 H 0.89449 0.91268 0.56685 0.0
H3818 H 0.90522 0.00635 0.52616 0.0
H3819 H 0.90398 0.98657 0.50091 0.0
H3820 H 0.87794 0.98851 0.51149 0.0
H3821 H 0.93397 0.92698 0.57608 0.0
H3822 H 0.94796 0.93917 0.55161 0.0
H3823 H 0.94752 0.95965 0.5758 0.0
H3824 H 0.98077 0.98632 0.50092 0.0
H3825 H 0.98043 0.0344 0.56025 0.0
H3826 H 0.92136 0.95396 0.49413 0.0
H3827 H 0.93666 0.93743 0.50977 0.0
H3828 H 0.94874 0.95344 0.48605 0.0
H3829 H 0.92069 0.01089 0.56582 0.0
H3830 H 0.94791 0.02951 0.5801 0.0
H3831 H 0.93673 0.99726 0.58405 0.0
C3832 C 0.8662 0.06407 0.29797 0.0
C3833 C 0.87428 0.06942 0.27659 0.0
C3834 C 0.85408 0.07797 0.30872 0.0
C3835 C 0.84982 0.09744 0.29768 0.0
C3836 C 0.85805 0.10298 0.27615 0.0
C3837 C 0.87028 0.08897 0.26593 0.0
C3838 C 0.84578 0.07181 0.3318 0.0
C3839 C 0.85376 0.12362 0.2638 0.0
C3840 C 0.80193 0.12321 0.30781 0.0
C3841 C 0.81417 0.14653 0.31861 0.0
C3842 C 0.81306 0.10594 0.30253 0.0
C3843 C 0.83685 0.11231 0.30837 0.0
C3844 C 0.84874 0.13489 0.32139 0.0
C3845 C 0.83722 0.15183 0.32629 0.0
C3846 C 0.79982 0.08199 0.28869 0.0
C3847 C 0.87403 0.14221 0.32821 0.0
H3848 H 0.86933 0.04902 0.30634 0.0
H3849 H 0.87643 0.09314 0.24938 0.0
H3850 H 0.85266 0.08817 0.3445 0.0
H3851 H 0.82695 0.06675 0.33061 0.0
H3852 H 0.85089 0.05637 0.33828 0.0
H3853 H 0.86115 0.12535 0.24707 0.0
H3854 H 0.83518 0.12044 0.2607 0.0
H3855 H 0.86123 0.14137 0.27458 0.0
H3856 H 0.78412 0.11923 0.3018 0.0
H3857 H 0.84658 0.16989 0.33481 0.0
H3858 H 0.80448 0.0664 0.29535 0.0
H3859 H 0.80406 0.08291 0.27066 0.0
H3860 H 0.78114 0.07814 0.28878 0.0
H3861 H 0.87873 0.12663 0.33486 0.0
H3862 H 0.87983 0.15821 0.34145 0.0
H3863 H 0.88335 0.14729 0.31292 0.0
C3864 C 0.731 0.13702 0.06267 0.0
C3865 C 0.74699 0.1265 0.0547 0.0
C3866 C 0.70764 0.12558 0.05678 0.0
C3867 C 0.70011 0.10299 0.04273 0.0
C3868 C 0.71616 0.0925 0.03423 0.0
C3869 C 0.73946 0.10443 0.04029 0.0
C3870 C 0.69099 0.13735 0.06612 0.0
C3871 C 0.70869 0.06834 0.01934 0.0
C3872 C 0.64116 0.06349 0.05276 0.0
C3873 C 0.62775 0.06852 0.03471 0.0
C3874 C 0.66487 0.07368 0.05488 0.0
C3875 C 0.67541 0.08947 0.03866 0.0
C3876 C 0.66208 0.09373 0.01977 0.0
C3877 C 0.6383 0.08304 0.01793 0.0
C3878 C 0.67852 0.06842 0.0751 0.0
C3879 C 0.67281 0.11052 0.00219 0.0
H3880 H 0.7367 0.15418 0.07364 0.0
H3881 H 0.75175 0.09625 0.03399 0.0
H3882 H 0.67908 0.13937 0.05196 0.0
H3883 H 0.68064 0.12535 0.07801 0.0
H3884 H 0.69966 0.15575 0.0755 0.0
H3885 H 0.72331 0.06361 0.01272 0.0
H3886 H 0.69939 0.05335 0.02936 0.0
H3887 H 0.69678 0.06901 0.00458 0.0
H3888 H 0.63307 0.05194 0.06558 0.0
H3889 H 0.62795 0.08693 0.00396 0.0
H3890 H 0.68624 0.08552 0.08675 0.0
H3891 H 0.69265 0.06223 0.06923 0.0
H3892 H 0.66791 0.05411 0.08503 0.0
H3893 H 0.67962 0.12974 0.01026 0.0
H3894 H 0.66045 0.10989 0.98734 0.0
H3895 H 0.68735 0.10548 0.99583 0.0
C3896 C 0.21467 0.47109 0.28039 0.0
C3897 C 0.20334 0.48438 0.29306 0.0
C3898 C 0.22802 0.45874 0.29137 0.0
C3899 C 0.23037 0.46011 0.31564 0.0
C3900 C 0.21875 0.47324 0.32856 0.0
C3901 C 0.20517 0.48512 0.31706 0.0
C3902 C 0.23984 0.44449 0.27695 0.0
C3903 C 0.22115 0.47531 0.35443 0.0
C3904 C 0.25191 0.40947 0.33429 0.0
C3905 C 0.27545 0.42079 0.33435 0.0
C3906 C 0.23673 0.42275 0.33047 0.0
C3907 C 0.24545 0.44797 0.32706 0.0
C3908 C 0.26923 0.46015 0.33022 0.0
C3909 C 0.28404 0.44631 0.33371 0.0
C3910 C 0.2115 0.40909 0.32738 0.0
C3911 C 0.27912 0.48719 0.3273 0.0
H3912 H 0.21313 0.47036 0.26184 0.0
H3913 H 0.19653 0.49558 0.3269 0.0
H3914 H 0.25857 0.45264 0.28068 0.0
H3915 H 0.23515 0.42514 0.28126 0.0
H3916 H 0.23543 0.44444 0.25828 0.0
H3917 H 0.20956 0.48453 0.36186 0.0
H3918 H 0.21759 0.45683 0.3607 0.0
H3919 H 0.23894 0.48604 0.36094 0.0
H3920 H 0.24529 0.38979 0.33539 0.0
H3921 H 0.30224 0.45515 0.3339 0.0
H3922 H 0.20575 0.40529 0.30878 0.0
H3923 H 0.2017 0.42025 0.33517 0.0
H3924 H 0.20739 0.39123 0.33502 0.0
H3925 H 0.27846 0.48983 0.30876 0.0
H3926 H 0.29715 0.49477 0.33473 0.0
H3927 H 0.2691 0.49788 0.33548 0.0
C3928 C 0.22989 0.40276 0.01727 0.0
C3929 C 0.25004 0.40972 0.03211 0.0
C3930 C 0.21516 0.41709 0.01709 0.0
C3931 C 0.22068 0.43893 0.03212 0.0
C3932 C 0.24091 0.44598 0.04723 0.0
C3933 C 0.25533 0.43132 0.04704 0.0
C3934 C 0.19374 0.40893 1.00075 0.0
C3935 C 0.24738 0.46911 0.06355 0.0
C3936 C 0.19451 0.48876 0.01819 0.0
C3937 C 0.17705 0.48482 0.03281 0.0
C3938 C 0.20866 0.4738 0.0176 0.0
C3939 C 0.20534 0.45446 0.03202 0.0
C3940 C 0.18762 0.45024 0.04666 0.0
C3941 C 0.17369 0.46544 0.04687 0.0
C3942 C 0.22729 0.47881 1.00165 0.0
C3943 C 0.18358 0.42989 0.06238 0.0
H3944 H 0.22563 0.38612 0.00567 0.0
H3945 H 0.27083 0.43687 0.05859 0.0
H3946 H 0.1786 0.40639 0.01045 0.0
H3947 H 0.19387 0.42336 0.98908 0.0
H3948 H 0.19184 0.39143 0.99023 0.0
H3949 H 0.26359 0.47193 0.07433 0.0
H3950 H 0.2492 0.48536 0.05377 0.0
H3951 H 0.2337 0.46827 0.07496 0.0
H3952 H 0.19704 0.50351 0.00709 0.0
H3953 H 0.16046 0.46249 0.05846 0.0
H3954 H 0.22519 0.46209 0.98991 0.0
H3955 H 0.24413 0.48333 0.01171 0.0
H3956 H 0.22737 0.49425 0.99122 0.0
H3957 H 0.18066 0.41194 0.05228 0.0
H3958 H 0.16873 0.42863 0.0723 0.0
H3959 H 0.1989 0.43305 0.07461 0.0
C3960 C 0.87903 0.94387 0.20119 0.0
C3961 C 0.8722 0.96412 0.20827 0.0
C3962 C 0.86753 0.92031 0.20717 0.0
C3963 C 0.84891 0.91714 0.22055 0.0
C3964 C 0.84059 0.93702 0.22573 0.0
C3965 C 0.85227 0.96028 0.21937 0.0
C3966 C 0.87653 0.89933 0.20089 0.0
C3967 C 0.82069 0.93433 0.23987 0.0
C3968 C 0.81262 0.85368 0.23254 0.0
C3969 C 0.82276 0.85147 0.25407 0.0
C3970 C 0.82119 0.87477 0.22113 0.0
C3971 C 0.8401 0.89417 0.2317 0.0
C3972 C 0.85039 0.89207 0.25345 0.0
C3973 C 0.84168 0.87061 0.26431 0.0
C3974 C 0.81005 0.87629 0.19782 0.0
C3975 C 0.8705 0.91258 0.26535 0.0
H3976 H 0.89427 0.94663 0.19237 0.0
H3977 H 0.84666 0.9758 0.22459 0.0
H3978 H 0.88583 0.8955 0.21628 0.0
H3979 H 0.86236 0.88229 0.19488 0.0
H3980 H 0.88838 0.90367 0.18732 0.0
H3981 H 0.8145 0.95055 0.23979 0.0
H3982 H 0.80636 0.9176 0.23345 0.0
H3983 H 0.82597 0.93227 0.25787 0.0
H3984 H 0.79817 0.83874 0.2244 0.0
H3985 H 0.84955 0.86894 0.28093 0.0
H3986 H 0.82284 0.87966 0.18513 0.0
H3987 H 0.80323 0.89203 0.19844 0.0
H3988 H 0.79592 0.85923 0.19166 0.0
H3989 H 0.88485 0.91656 0.25444 0.0
H3990 H 0.87649 0.90801 0.28223 0.0
H3991 H 0.86583 0.92967 0.26806 0.0
C3992 C 0.70217 0.0843 0.71674 0.0
C3993 C 0.70379 0.06779 0.73279 0.0
C3994 C 0.71531 0.10923 0.72044 0.0
C3995 C 0.73037 0.11777 0.74067 0.0
C3996 C 0.7328 0.10099 0.75643 0.0
C3997 C 0.71952 0.0762 0.75228 0.0
C3998 C 0.71243 0.12661 0.70317 0.0
C3999 C 0.74873 0.10941 0.77817 0.0
C4000 C 0.77607 0.18011 0.74533 0.0
C4001 C 0.76591 0.19492 0.75786 0.0
C4002 C 0.7646 0.155 0.73934 0.0
C4003 C 0.74252 0.14447 0.74614 0.0
C4004 C 0.73216 0.15932 0.75875 0.0
C4005 C 0.74397 0.18439 0.76441 0.0
C4006 C 0.77612 0.13972 0.72581 0.0
C4007 C 0.70866 0.14867 0.76642 0.0
H4008 H 0.69012 0.07795 0.70161 0.0
H4009 H 0.72099 0.06355 0.76472 0.0
H4010 H 0.70462 0.13983 0.71098 0.0
H4011 H 0.72925 0.13748 0.69818 0.0
H4012 H 0.70148 0.11675 0.68747 0.0
H4013 H 0.74977 0.09378 0.78787 0.0
H4014 H 0.76609 0.1198 0.77415 0.0
H4015 H 0.74278 0.12205 0.7894 0.0
H4016 H 0.79299 0.18813 0.74011 0.0
H4017 H 0.73601 0.19569 0.7741 0.0
H4018 H 0.76534 0.13087 0.70974 0.0
H4019 H 0.77824 0.12477 0.73585 0.0
H4020 H 0.79312 0.15085 0.72136 0.0
H4021 H 0.69618 0.14018 0.75135 0.0
H4022 H 0.70291 0.16278 0.77585 0.0
H4023 H 0.70852 0.13393 0.77772 0.0
loop_
_geom_bond_atom_site_label_1
_geom_bond_atom_site_label_2
_geom_bond_distance
_geom_bond_site_symmetry_2
_ccdc_geom_bond_type
C0 O1 1.160 . S
C0 O7 1.185 . S
O1 C0 1.160 . S
O2 Zn3 1.899 . S
O2 C10 1.284 . S
Zn3 O2 1.899 . S
Zn3 O4 2.032 . S
Zn3 O7 2.086 . S
Zn3 O12 1.977 . S
O4 Zn3 2.032 . S
O4 C8 1.278 . S
C5 O6 1.203 . S
C5 O12 1.267 1_655 S
O6 C5 1.203 . S
O7 C0 1.185 . S
O7 Zn3 2.086 . S
C8 O4 1.278 . S
C8 O9 1.211 . S
O9 C8 1.211 . S
C10 O2 1.284 . S
C10 O11 1.273 . S
O11 C10 1.273 . S
O12 Zn3 1.977 . S
O12 C5 1.267 1_455 S
C13 O14 1.160 1_455 S
C13 O20 1.185 . S
O14 C13 1.160 1_655 S
O15 Zn16 1.899 . S
O15 C23 1.284 . S
Zn16 O15 1.899 . S
Zn16 O17 2.032 . S
Zn16 O20 2.086 . S
Zn16 O25 1.977 . S
O17 Zn16 2.032 . S
O17 C21 1.278 . S
C18 O19 1.203 . S
C18 O25 1.267 . S
O19 C18 1.203 . S
O20 C13 1.185 . S
O20 Zn16 2.086 . S
C21 O17 1.278 . S
C21 O22 1.211 . S
O22 C21 1.211 . S
C23 O15 1.284 . S
C23 O24 1.273 . S
O24 C23 1.273 . S
O25 Zn16 1.977 . S
O25 C18 1.267 . S
C26 O27 1.160 . S
C26 O33 1.185 . S
O27 C26 1.160 . S
O28 Zn29 1.899 . S
O28 C36 1.284 . S
Zn29 O28 1.899 . S
Zn29 O30 2.032 . S
Zn29 O33 2.086 . S
Zn29 O38 1.977 . S
O30 Zn29 2.032 . S
O30 C34 1.278 . S
C31 O32 1.203 . S
C31 O38 1.267 . S
O32 C31 1.203 . S
O33 C26 1.185 . S
O33 Zn29 2.086 . S
C34 O30 1.278 . S
C34 O35 1.211 . S
O35 C34 1.211 . S
C36 O28 1.284 . S
C36 O37 1.273 . S
O37 C36 1.273 . S
O38 Zn29 1.977 . S
O38 C31 1.267 . S
C39 O40 1.160 . S
C39 O46 1.185 . S
O40 C39 1.160 . S
O41 Zn42 1.899 . S
O41 C49 1.284 . S
Zn42 O41 1.899 . S
Zn42 O43 2.032 . S
Zn42 O46 2.086 . S
Zn42 O51 1.977 . S
O43 Zn42 2.032 . S
O43 C47 1.278 . S
C44 O45 1.203 . S
C44 O51 1.267 . S
O45 C44 1.203 . S
O46 C39 1.185 . S
O46 Zn42 2.086 . S
C47 O43 1.278 . S
C47 O48 1.211 . S
O48 C47 1.211 . S
C49 O41 1.284 . S
C49 O50 1.273 . S
O50 C49 1.273 . S
O51 Zn42 1.977 . S
O51 C44 1.267 . S
C52 O53 1.160 . S
C52 O59 1.185 . S
O53 C52 1.160 . S
O54 Zn55 1.899 . S
O54 C62 1.284 . S
Zn55 O54 1.899 . S
Zn55 O56 2.032 . S
Zn55 O59 2.086 . S
Zn55 O64 1.977 . S
O56 Zn55 2.032 . S
O56 C60 1.278 . S
C57 O58 1.203 . S
C57 O64 1.267 . S
O58 C57 1.203 . S
O59 C52 1.185 . S
O59 Zn55 2.086 . S
C60 O56 1.278 . S
C60 O61 1.211 . S
O61 C60 1.211 . S
C62 O54 1.284 . S
C62 O63 1.273 . S
O63 C62 1.273 . S
O64 Zn55 1.977 . S
O64 C57 1.267 . S
C65 O66 1.160 . S
C65 O72 1.185 . S
O66 C65 1.160 . S
O67 Zn68 1.899 . S
O67 C75 1.284 . S
Zn68 O67 1.899 . S
Zn68 O69 2.032 . S
Zn68 O72 2.086 . S
Zn68 O77 1.977 . S
O69 Zn68 2.032 . S
O69 C73 1.278 . S
C70 O71 1.203 . S
C70 O77 1.267 . S
O71 C70 1.203 . S
O72 C65 1.185 . S
O72 Zn68 2.086 . S
C73 O69 1.278 . S
C73 O74 1.211 . S
O74 C73 1.211 . S
C75 O67 1.284 . S
C75 O76 1.273 . S
O76 C75 1.273 . S
O77 Zn68 1.977 . S
O77 C70 1.267 . S
C78 O79 1.160 . S
C78 O85 1.185 . S
O79 C78 1.160 . S
O80 Zn81 1.899 . S
O80 C88 1.284 . S
Zn81 O80 1.899 . S
Zn81 O82 2.032 . S
Zn81 O85 2.086 . S
Zn81 O90 1.977 . S
O82 Zn81 2.032 . S
O82 C86 1.278 . S
C83 O84 1.203 . S
C83 O90 1.267 . S
O84 C83 1.203 . S
O85 C78 1.185 . S
O85 Zn81 2.086 . S
C86 O82 1.278 . S
C86 O87 1.211 . S
O87 C86 1.211 . S
C88 O80 1.284 . S
C88 O89 1.273 . S
O89 C88 1.273 . S
O90 Zn81 1.977 . S
O90 C83 1.267 . S
C91 O92 1.160 . S
C91 O98 1.185 . S
O92 C91 1.160 . S
O93 Zn94 1.899 1_655 S
O93 C101 1.284 . S
Zn94 O93 1.899 1_455 S
Zn94 O95 2.032 . S
Zn94 O98 2.086 . S
Zn94 O103 1.977 1_455 S
O95 Zn94 2.032 . S
O95 C99 1.278 . S
C96 O97 1.203 . S
C96 O103 1.267 . S
O97 C96 1.203 . S
O98 C91 1.185 . S
O98 Zn94 2.086 . S
C99 O95 1.278 . S
C99 O100 1.211 1_455 S
O100 C99 1.211 1_655 S
C101 O93 1.284 . S
C101 O102 1.273 . S
O102 C101 1.273 . S
O103 Zn94 1.977 1_655 S
O103 C96 1.267 . S
C104 O105 1.160 . S
C104 O111 1.185 . S
O105 C104 1.160 . S
O106 Zn107 1.899 . S
O106 C114 1.284 . S
Zn107 O106 1.899 . S
Zn107 O108 2.032 . S
Zn107 O111 2.086 . S
Zn107 O116 1.977 1_545 S
O108 Zn107 2.032 . S
O108 C112 1.278 . S
C109 O110 1.203 . S
C109 O116 1.267 . S
O110 C109 1.203 . S
O111 C104 1.185 . S
O111 Zn107 2.086 . S
C112 O108 1.278 . S
C112 O113 1.211 . S
O113 C112 1.211 . S
C114 O106 1.284 . S
C114 O115 1.273 . S
O115 C114 1.273 . S
O116 Zn107 1.977 1_565 S
O116 C109 1.267 . S
C117 O118 1.160 . S
C117 O124 1.185 . S
O118 C117 1.160 . S
O119 Zn120 1.899 . S
O119 C127 1.284 . S
Zn120 O119 1.899 . S
Zn120 O121 2.032 . S
Zn120 O124 2.086 . S
Zn120 O129 1.977 . S
O121 Zn120 2.032 . S
O121 C125 1.278 . S
C122 O123 1.203 . S
C122 O129 1.267 . S
O123 C122 1.203 . S
O124 C117 1.185 . S
O124 Zn120 2.086 . S
C125 O121 1.278 . S
C125 O126 1.211 . S
O126 C125 1.211 . S
C127 O119 1.284 . S
C127 O128 1.273 . S
O128 C127 1.273 . S
O129 Zn120 1.977 . S
O129 C122 1.267 . S
C130 O131 1.160 . S
C130 O137 1.185 . S
O131 C130 1.160 . S
O132 Zn133 1.899 . S
O132 C140 1.284 . S
Zn133 O132 1.899 . S
Zn133 O134 2.032 . S
Zn133 O137 2.086 . S
Zn133 O142 1.977 . S
O134 Zn133 2.032 . S
O134 C138 1.278 . S
C135 O136 1.203 . S
C135 O142 1.267 . S
O136 C135 1.203 . S
O137 C130 1.185 . S
O137 Zn133 2.086 . S
C138 O134 1.278 . S
C138 O139 1.211 . S
O139 C138 1.211 . S
C140 O132 1.284 . S
C140 O141 1.273 . S
O141 C140 1.273 . S
O142 Zn133 1.977 . S
O142 C135 1.267 . S
C143 O144 1.160 . S
C143 O150 1.185 1_554 S
O144 C143 1.160 . S
O145 Zn146 1.899 . S
O145 C153 1.284 . S
Zn146 O145 1.899 . S
Zn146 O147 2.032 1_554 S
Zn146 O150 2.086 1_554 S
Zn146 O155 1.975 1_554 S
O147 Zn146 2.032 1_556 S
O147 C151 1.278 . S
C148 O149 1.203 . S
C148 O155 1.263 1_554 S
O149 C148 1.203 . S
O150 C143 1.185 1_556 S
O150 Zn146 2.086 1_556 S
C151 O147 1.278 . S
C151 O152 1.211 . S
O152 C151 1.211 . S
C153 O145 1.284 . S
C153 O154 1.273 . S
O154 C153 1.273 . S
O155 Zn146 1.975 1_556 S
O155 C148 1.263 1_556 S
C156 O157 1.160 . S
C156 O163 1.185 . S
O157 C156 1.160 . S
O158 Zn159 1.899 . S
O158 C166 1.284 . S
Zn159 O158 1.899 . S
Zn159 O160 2.032 . S
Zn159 O163 2.086 . S
Zn159 O168 1.977 . S
O160 Zn159 2.032 . S
O160 C164 1.278 1_554 S
C161 O162 1.203 . S
C161 O168 1.267 . S
O162 C161 1.203 . S
O163 C156 1.185 . S
O163 Zn159 2.086 . S
C164 O160 1.278 1_556 S
C164 O165 1.211 1_556 S
O165 C164 1.211 1_554 S
C166 O158 1.284 . S
C166 O167 1.273 . S
O167 C166 1.273 . S
O168 Zn159 1.977 . S
O168 C161 1.267 . S
C169 O170 1.160 . S
C169 O176 1.185 . S
O170 C169 1.160 . S
O171 Zn172 1.899 . S
O171 C179 1.284 . S
Zn172 O171 1.899 . S
Zn172 O173 2.032 . S
Zn172 O176 2.086 . S
Zn172 O181 1.977 . S
O173 Zn172 2.032 . S
O173 C177 1.278 . S
C174 O175 1.203 . S
C174 O181 1.267 . S
O175 C174 1.203 . S
O176 C169 1.185 . S
O176 Zn172 2.086 . S
C177 O173 1.278 . S
C177 O178 1.211 . S
O178 C177 1.211 . S
C179 O171 1.284 . S
C179 O180 1.273 . S
O180 C179 1.273 . S
O181 Zn172 1.977 . S
O181 C174 1.267 . S
C182 O183 1.160 . S
C182 O189 1.185 . S
O183 C182 1.160 . S
O184 Zn185 1.899 . S
O184 C192 1.284 . S
Zn185 O184 1.899 . S
Zn185 O186 2.032 . S
Zn185 O189 2.086 . S
Zn185 O194 1.977 . S
O186 Zn185 2.032 . S
O186 C190 1.278 . S
C187 O188 1.203 . S
C187 O194 1.267 . S
O188 C187 1.203 . S
O189 C182 1.185 . S
O189 Zn185 2.086 . S
C190 O186 1.278 . S
C190 O191 1.211 . S
O191 C190 1.211 . S
C192 O184 1.284 . S
C192 O193 1.273 . S
O193 C192 1.273 . S
O194 Zn185 1.977 . S
O194 C187 1.267 . S
C195 O196 1.160 . S
C195 O202 1.185 . S
O196 C195 1.160 . S
O197 Zn198 1.899 . S
O197 C205 1.284 . S
Zn198 O197 1.899 . S
Zn198 O199 2.032 . S
Zn198 O202 2.086 . S
Zn198 O207 1.977 . S
O199 Zn198 2.032 . S
O199 C203 1.278 . S
C200 O201 1.203 . S
C200 O207 1.267 . S
O201 C200 1.203 . S
O202 C195 1.185 . S
O202 Zn198 2.086 . S
C203 O199 1.278 . S
C203 O204 1.211 . S
O204 C203 1.211 . S
C205 O197 1.284 . S
C205 O206 1.273 . S
O206 C205 1.273 . S
O207 Zn198 1.977 . S
O207 C200 1.267 . S
C208 O209 1.160 . S
C208 O215 1.185 . S
O209 C208 1.160 . S
O210 Zn211 1.899 . S
O210 C218 1.284 . S
Zn211 O210 1.899 . S
Zn211 O212 2.032 . S
Zn211 O215 2.086 . S
Zn211 O220 1.977 1_545 S
O212 Zn211 2.032 . S
O212 C216 1.278 . S
C213 O214 1.203 . S
C213 O220 1.267 . S
O214 C213 1.203 . S
O215 C208 1.185 . S
O215 Zn211 2.086 . S
C216 O212 1.278 . S
C216 O217 1.211 1_545 S
O217 C216 1.211 1_565 S
C218 O210 1.284 . S
C218 O219 1.273 . S
O219 C218 1.273 . S
O220 Zn211 1.977 1_565 S
O220 C213 1.267 . S
C221 O222 1.160 . S
C221 O228 1.185 . S
O222 C221 1.160 . S
O223 Zn224 1.899 . S
O223 C231 1.284 . S
Zn224 O223 1.899 . S
Zn224 O225 2.032 . S
Zn224 O228 2.086 . S
Zn224 O233 1.977 . S
O225 Zn224 2.032 . S
O225 C229 1.278 . S
C226 O227 1.203 . S
C226 O233 1.267 . S
O227 C226 1.203 . S
O228 C221 1.185 . S
O228 Zn224 2.086 . S
C229 O225 1.278 . S
C229 O230 1.211 . S
O230 C229 1.211 . S
C231 O223 1.284 . S
C231 O232 1.273 . S
O232 C231 1.273 . S
O233 Zn224 1.977 . S
O233 C226 1.267 . S
C234 O235 1.160 . S
C234 O241 1.185 . S
O235 C234 1.160 . S
O236 Zn237 1.899 . S
O236 C244 1.284 . S
Zn237 O236 1.899 . S
Zn237 O238 2.032 . S
Zn237 O241 2.086 . S
Zn237 O246 1.977 . S
O238 Zn237 2.032 . S
O238 C242 1.278 . S
C239 O240 1.203 . S
C239 O246 1.267 . S
O240 C239 1.203 . S
O241 C234 1.185 . S
O241 Zn237 2.086 . S
C242 O238 1.278 . S
C242 O243 1.211 . S
O243 C242 1.211 . S
C244 O236 1.284 . S
C244 O245 1.273 . S
O245 C244 1.273 . S
O246 Zn237 1.977 . S
O246 C239 1.267 . S
C247 O248 1.160 . S
C247 O254 1.185 1_565 S
O248 C247 1.160 . S
O249 Zn250 1.899 . S
O249 C257 1.284 . S
Zn250 O249 1.899 . S
Zn250 O251 2.032 . S
Zn250 O254 2.086 . S
Zn250 O259 1.977 . S
O251 Zn250 2.032 . S
O251 C255 1.278 . S
C252 O253 1.203 . S
C252 O259 1.267 . S
O253 C252 1.203 . S
O254 C247 1.185 1_545 S
O254 Zn250 2.086 . S
C255 O251 1.278 . S
C255 O256 1.211 . S
O256 C255 1.211 . S
C257 O249 1.284 . S
C257 O258 1.273 . S
O258 C257 1.273 . S
O259 Zn250 1.977 . S
O259 C252 1.267 . S
C260 O261 1.160 . S
C260 O267 1.185 . S
O261 C260 1.160 . S
O262 Zn263 1.899 . S
O262 C270 1.284 . S
Zn263 O262 1.899 . S
Zn263 O264 2.032 . S
Zn263 O267 2.086 . S
Zn263 O272 1.977 . S
O264 Zn263 2.032 . S
O264 C268 1.278 1_554 S
C265 O266 1.203 . S
C265 O272 1.267 . S
O266 C265 1.203 . S
O267 C260 1.185 . S
O267 Zn263 2.086 . S
C268 O264 1.278 1_556 S
C268 O269 1.212 . S
O269 C268 1.212 . S
C270 O262 1.284 . S
C270 O271 1.273 . S
O271 C270 1.273 . S
O272 Zn263 1.977 . S
O272 C265 1.267 . S
C273 O274 1.160 . S
C273 O280 1.185 . S
O274 C273 1.160 . S
O275 Zn276 1.899 . S
O275 C283 1.284 . S
Zn276 O275 1.899 . S
Zn276 O277 2.032 . S
Zn276 O280 2.086 . S
Zn276 O285 1.977 . S
O277 Zn276 2.032 . S
O277 C281 1.278 . S
C278 O279 1.203 . S
C278 O285 1.267 . S
O279 C278 1.203 . S
O280 C273 1.185 . S
O280 Zn276 2.086 . S
C281 O277 1.278 . S
C281 O282 1.211 . S
O282 C281 1.211 . S
C283 O275 1.284 . S
C283 O284 1.273 . S
O284 C283 1.273 . S
O285 Zn276 1.977 . S
O285 C278 1.267 . S
C286 O287 1.160 . S
C286 O293 1.185 . S
O287 C286 1.160 . S
O288 Zn289 1.899 . S
O288 C296 1.284 . S
Zn289 O288 1.899 . S
Zn289 O290 2.032 . S
Zn289 O293 2.086 . S
Zn289 O298 1.977 . S
O290 Zn289 2.032 . S
O290 C294 1.278 . S
C291 O292 1.203 . S
C291 O298 1.267 . S
O292 C291 1.203 . S
O293 C286 1.185 . S
O293 Zn289 2.086 . S
C294 O290 1.278 . S
C294 O295 1.211 . S
O295 C294 1.211 . S
C296 O288 1.284 . S
C296 O297 1.273 . S
O297 C296 1.273 . S
O298 Zn289 1.977 . S
O298 C291 1.267 . S
C299 O300 1.160 . S
C299 O306 1.185 . S
O300 C299 1.160 . S
O301 Zn302 1.899 . S
O301 C309 1.284 . S
Zn302 O301 1.899 . S
Zn302 O303 2.032 . S
Zn302 O306 2.086 . S
Zn302 O311 1.977 . S
O303 Zn302 2.032 . S
O303 C307 1.278 . S
C304 O305 1.203 . S
C304 O311 1.267 . S
O305 C304 1.203 . S
O306 C299 1.185 . S
O306 Zn302 2.086 . S
C307 O303 1.278 . S
C307 O308 1.211 . S
O308 C307 1.211 . S
C309 O301 1.284 . S
C309 O310 1.273 . S
O310 C309 1.273 . S
O311 Zn302 1.977 . S
O311 C304 1.267 . S
Tb312 C321 2.764 . S
Tb312 O322 2.325 . S
Tb312 O325 2.303 . S
Tb312 O329 2.322 . S
Tb312 O330 2.349 . S
Tb312 O333 2.415 . S
Tb312 O334 2.399 . S
Tb313 O323 2.322 1_545 S
Tb313 O324 2.349 1_554 S
Tb313 O326 2.415 1_455 S
Tb313 O327 2.399 1_454 S
Tb313 O328 2.325 . S
Tb313 O331 2.303 . S
Tb313 C342 2.764 1_455 S
C314 O330 1.261 . S
C314 O331 1.257 . S
C315 C318 1.358 . S
C315 C319 1.332 . S
C315 C321 1.504 . S
C316 C317 1.373 . S
C316 C320 1.308 . S
C317 C316 1.373 . S
C317 C318 1.429 . S
C317 H344 0.932 . S
C318 C315 1.358 . S
C318 C317 1.429 . S
C318 H345 0.930 . S
C319 C315 1.332 . S
C319 C320 1.394 . S
C319 H346 0.932 . S
C320 C316 1.308 . S
C320 C319 1.394 . S
C320 H347 0.929 1_545 S
C321 Tb312 2.764 . S
C321 C315 1.504 . S
C321 O333 1.239 . S
C321 O334 1.263 . S
O322 Tb312 2.325 . S
O322 C332 1.236 1_545 S
O323 Tb313 2.322 1_565 S
O323 C332 1.257 . S
O324 Tb313 2.349 1_556 S
O324 C335 1.261 . S
O325 Tb312 2.303 . S
O325 C335 1.257 1_554 S
O326 Tb313 2.415 1_655 S
O326 C342 1.239 . S
O327 Tb313 2.399 1_656 S
O327 C342 1.263 1_556 S
O328 Tb313 2.325 . S
O328 C343 1.236 . S
O329 Tb312 2.322 . S
O329 C343 1.257 . S
O330 Tb312 2.349 . S
O330 C314 1.261 . S
O331 Tb313 2.303 . S
O331 C314 1.257 . S
C332 O322 1.236 1_565 S
C332 O323 1.257 . S
O333 Tb312 2.415 . S
O333 C321 1.239 . S
O334 Tb312 2.399 . S
O334 C321 1.263 . S
C335 O324 1.261 . S
C335 O325 1.257 1_556 S
C336 C339 1.350 1_554 S
C336 C340 1.338 . S
C336 C342 1.505 . S
C337 C338 1.373 . S
C337 C341 1.308 1_556 S
C338 C337 1.373 . S
C338 C339 1.429 . S
C338 H348 0.932 . S
C339 C336 1.350 1_556 S
C339 C338 1.429 . S
C339 H349 0.930 . S
C340 C336 1.338 . S
C340 C341 1.394 . S
C340 H350 0.932 . S
C341 C337 1.308 1_554 S
C341 C340 1.394 . S
C341 H351 0.929 . S
C342 Tb313 2.764 1_655 S
C342 O326 1.239 . S
C342 O327 1.263 1_554 S
C342 C336 1.505 . S
C343 O328 1.236 . S
C343 O329 1.257 . S
H344 C317 0.932 . S
H345 C318 0.930 . S
H346 C319 0.932 . S
H347 C320 0.929 1_565 S
H348 C338 0.932 . S
H349 C339 0.930 . S
H350 C340 0.932 . S
H351 C341 0.929 . S
Tb352 C361 2.764 . S
Tb352 O362 2.325 . S
Tb352 O365 2.303 . S
Tb352 O369 2.322 . S
Tb352 O370 2.349 . S
Tb352 O373 2.415 . S
Tb352 O374 2.399 . S
Tb353 O363 2.322 . S
Tb353 O364 2.349 . S
Tb353 O366 2.415 . S
Tb353 O367 2.399 . S
Tb353 O368 2.325 . S
Tb353 O371 2.303 . S
Tb353 C382 2.764 . S
C354 O370 1.261 . S
C354 O371 1.257 . S
C355 C358 1.358 . S
C355 C359 1.332 . S
C355 C361 1.504 . S
C356 C357 1.373 . S
C356 C360 1.308 . S
C357 C356 1.373 . S
C357 C358 1.429 . S
C357 H384 0.932 . S
C358 C355 1.358 . S
C358 C357 1.429 . S
C358 H385 0.930 . S
C359 C355 1.332 . S
C359 C360 1.394 . S
C359 H386 0.932 . S
C360 C356 1.308 . S
C360 C359 1.394 . S
C360 H387 0.929 . S
C361 Tb352 2.764 . S
C361 C355 1.504 . S
C361 O373 1.239 . S
C361 O374 1.263 . S
O362 Tb352 2.325 . S
O362 C372 1.236 . S
O363 Tb353 2.322 . S
O363 C372 1.257 . S
O364 Tb353 2.349 . S
O364 C375 1.261 . S
O365 Tb352 2.303 . S
O365 C375 1.257 . S
O366 Tb353 2.415 . S
O366 C382 1.239 . S
O367 Tb353 2.399 . S
O367 C382 1.263 . S
O368 Tb353 2.325 . S
O368 C383 1.236 . S
O369 Tb352 2.322 . S
O369 C383 1.257 . S
O370 Tb352 2.349 . S
O370 C354 1.261 . S
O371 Tb353 2.303 . S
O371 C354 1.257 . S
C372 O362 1.236 . S
C372 O363 1.257 . S
O373 Tb352 2.415 . S
O373 C361 1.239 . S
O374 Tb352 2.399 . S
O374 C361 1.263 . S
C375 O364 1.261 . S
C375 O365 1.257 . S
C376 C379 1.358 . S
C376 C380 1.332 . S
C376 C382 1.504 . S
C377 C378 1.373 . S
C377 C381 1.308 . S
C378 C377 1.373 . S
C378 C379 1.429 . S
C378 H388 0.932 . S
C379 C376 1.358 . S
C379 C378 1.429 . S
C379 H389 0.930 . S
C380 C376 1.332 . S
C380 C381 1.394 . S
C380 H390 0.932 . S
C381 C377 1.308 . S
C381 C380 1.394 . S
C381 H391 0.929 . S
C382 Tb353 2.764 . S
C382 O366 1.239 . S
C382 O367 1.263 . S
C382 C376 1.504 . S
C383 O368 1.236 . S
C383 O369 1.257 . S
H384 C357 0.932 . S
H385 C358 0.930 . S
H386 C359 0.932 . S
H387 C360 0.929 . S
H388 C378 0.932 . S
H389 C379 0.930 . S
H390 C380 0.932 . S
H391 C381 0.929 . S
Tb392 C401 2.764 . S
Tb392 O402 2.325 . S
Tb392 O405 2.303 . S
Tb392 O409 2.322 1_545 S
Tb392 O410 2.349 . S
Tb392 O413 2.415 . S
Tb392 O414 2.399 . S
Tb393 O403 2.322 . S
Tb393 O404 2.349 . S
Tb393 O406 2.415 . S
Tb393 O407 2.399 . S
Tb393 O408 2.325 . S
Tb393 O411 2.303 . S
Tb393 C422 2.764 . S
C394 O410 1.261 . S
C394 O411 1.257 . S
C395 C398 1.358 . S
C395 C399 1.332 . S
C395 C401 1.504 . S
C396 C397 1.373 . S
C396 C400 1.308 . S
C397 C396 1.373 . S
C397 C398 1.429 . S
C397 H424 0.932 . S
C398 C395 1.358 . S
C398 C397 1.429 . S
C398 H425 0.930 . S
C399 C395 1.332 . S
C399 C400 1.394 . S
C399 H426 0.932 . S
C400 C396 1.308 . S
C400 C399 1.394 . S
C400 H427 0.929 . S
C401 Tb392 2.764 . S
C401 C395 1.504 . S
C401 O413 1.239 . S
C401 O414 1.263 . S
O402 Tb392 2.325 . S
O402 C412 1.236 . S
O403 Tb393 2.322 . S
O403 C412 1.257 . S
O404 Tb393 2.349 . S
O404 C415 1.261 . S
O405 Tb392 2.303 . S
O405 C415 1.257 . S
O406 Tb393 2.415 . S
O406 C422 1.239 . S
O407 Tb393 2.399 . S
O407 C422 1.263 . S
O408 Tb393 2.325 . S
O408 C423 1.236 1_545 S
O409 Tb392 2.322 1_565 S
O409 C423 1.257 . S
O410 Tb392 2.349 . S
O410 C394 1.261 . S
O411 Tb393 2.303 . S
O411 C394 1.257 . S
C412 O402 1.236 . S
C412 O403 1.257 . S
O413 Tb392 2.415 . S
O413 C401 1.239 . S
O414 Tb392 2.399 . S
O414 C401 1.263 . S
C415 O404 1.261 . S
C415 O405 1.257 . S
C416 C419 1.358 . S
C416 C420 1.332 1_545 S
C416 C422 1.504 . S
C417 C418 1.373 . S
C417 C421 1.308 . S
C418 C417 1.373 . S
C418 C419 1.429 1_565 S
C418 H428 0.932 . S
C419 C416 1.358 . S
C419 C418 1.429 1_545 S
C419 H429 0.930 . S
C420 C416 1.332 1_565 S
C420 C421 1.394 . S
C420 H430 0.932 . S
C421 C417 1.308 . S
C421 C420 1.394 . S
C421 H431 0.929 . S
C422 Tb393 2.764 . S
C422 O406 1.239 . S
C422 O407 1.263 . S
C422 C416 1.504 . S
C423 O408 1.236 1_565 S
C423 O409 1.257 . S
H424 C397 0.932 . S
H425 C398 0.930 . S
H426 C399 0.932 . S
H427 C400 0.929 . S
H428 C418 0.932 . S
H429 C419 0.930 . S
H430 C420 0.932 . S
H431 C421 0.929 . S
Tb432 C441 2.764 . S
Tb432 O442 2.325 . S
Tb432 O445 2.303 . S
Tb432 O449 2.322 . S
Tb432 O450 2.349 . S
Tb432 O453 2.415 . S
Tb432 O454 2.399 . S
Tb433 O443 2.322 . S
Tb433 O444 2.349 . S
Tb433 O446 2.415 . S
Tb433 O447 2.399 . S
Tb433 O448 2.325 . S
Tb433 O451 2.303 . S
Tb433 C462 2.764 . S
C434 O450 1.261 . S
C434 O451 1.257 . S
C435 C438 1.358 . S
C435 C439 1.332 . S
C435 C441 1.504 . S
C436 C437 1.373 . S
C436 C440 1.308 . S
C437 C436 1.373 . S
C437 C438 1.429 . S
C437 H464 0.932 . S
C438 C435 1.358 . S
C438 C437 1.429 . S
C438 H465 0.930 . S
C439 C435 1.332 . S
C439 C440 1.394 . S
C439 H466 0.932 . S
C440 C436 1.308 . S
C440 C439 1.394 . S
C440 H467 0.929 . S
C441 Tb432 2.764 . S
C441 C435 1.504 . S
C441 O453 1.239 . S
C441 O454 1.263 . S
O442 Tb432 2.325 . S
O442 C452 1.236 . S
O443 Tb433 2.322 . S
O443 C452 1.257 . S
O444 Tb433 2.349 . S
O444 C455 1.261 . S
O445 Tb432 2.303 . S
O445 C455 1.257 . S
O446 Tb433 2.415 . S
O446 C462 1.239 . S
O447 Tb433 2.399 . S
O447 C462 1.263 . S
O448 Tb433 2.325 . S
O448 C463 1.236 . S
O449 Tb432 2.322 . S
O449 C463 1.257 . S
O450 Tb432 2.349 . S
O450 C434 1.261 . S
O451 Tb433 2.303 . S
O451 C434 1.257 . S
C452 O442 1.236 . S
C452 O443 1.257 . S
O453 Tb432 2.415 . S
O453 C441 1.239 . S
O454 Tb432 2.399 . S
O454 C441 1.263 . S
C455 O444 1.261 . S
C455 O445 1.257 . S
C456 C459 1.358 . S
C456 C460 1.332 . S
C456 C462 1.504 . S
C457 C458 1.373 . S
C457 C461 1.308 . S
C458 C457 1.373 . S
C458 C459 1.429 . S
C458 H468 0.932 . S
C459 C456 1.358 . S
C459 C458 1.429 . S
C459 H469 0.930 . S
C460 C456 1.332 . S
C460 C461 1.394 . S
C460 H470 0.932 . S
C461 C457 1.308 . S
C461 C460 1.394 . S
C461 H471 0.929 . S
C462 Tb433 2.764 . S
C462 O446 1.239 . S
C462 O447 1.263 . S
C462 C456 1.504 . S
C463 O448 1.236 . S
C463 O449 1.257 . S
H464 C437 0.932 . S
H465 C438 0.930 . S
H466 C439 0.932 . S
H467 C440 0.929 . S
H468 C458 0.932 . S
H469 C459 0.930 . S
H470 C460 0.932 . S
H471 C461 0.929 . S
Tb472 C481 2.764 . S
Tb472 O482 2.325 . S
Tb472 O485 2.303 . S
Tb472 O489 2.322 . S
Tb472 O490 2.349 . S
Tb472 O493 2.415 . S
Tb472 O494 2.399 . S
Tb473 O483 2.302 1_545 S
Tb473 O484 2.349 . S
Tb473 O486 2.415 . S
Tb473 O487 2.399 . S
Tb473 O488 2.325 . S
Tb473 O491 2.303 . S
Tb473 C502 2.764 . S
C474 O490 1.261 1_655 S
C474 O491 1.257 1_655 S
C475 C478 1.358 . S
C475 C479 1.332 . S
C475 C481 1.504 . S
C476 C477 1.373 . S
C476 C480 1.308 . S
C477 C476 1.373 . S
C477 C478 1.429 . S
C477 H504 0.932 . S
C478 C475 1.358 . S
C478 C477 1.429 . S
C478 H505 0.930 . S
C479 C475 1.332 . S
C479 C480 1.394 . S
C479 H506 0.932 . S
C480 C476 1.308 . S
C480 C479 1.394 . S
C480 H507 0.929 . S
C481 Tb472 2.764 . S
C481 C475 1.504 . S
C481 O493 1.239 . S
C481 O494 1.263 . S
O482 Tb472 2.325 . S
O482 C492 1.223 1_545 S
O483 Tb473 2.302 1_565 S
O483 C492 1.258 . S
O484 Tb473 2.349 . S
O484 C495 1.261 . S
O485 Tb472 2.303 . S
O485 C495 1.257 . S
O486 Tb473 2.415 . S
O486 C502 1.239 . S
O487 Tb473 2.399 . S
O487 C502 1.263 . S
O488 Tb473 2.325 . S
O488 C503 1.236 . S
O489 Tb472 2.322 . S
O489 C503 1.257 . S
O490 Tb472 2.349 . S
O490 C474 1.261 1_455 S
O491 Tb473 2.303 . S
O491 C474 1.257 1_455 S
C492 O482 1.223 1_565 S
C492 O483 1.258 . S
O493 Tb472 2.415 . S
O493 C481 1.239 . S
O494 Tb472 2.399 . S
O494 C481 1.263 . S
C495 O484 1.261 . S
C495 O485 1.257 . S
C496 C499 1.358 . S
C496 C500 1.332 1_455 S
C496 C502 1.504 . S
C497 C498 1.373 1_655 S
C497 C501 1.308 . S
C498 C497 1.373 1_455 S
C498 C499 1.429 . S
C498 H508 0.932 . S
C499 C496 1.358 . S
C499 C498 1.429 . S
C499 H509 0.930 . S
C500 C496 1.332 1_655 S
C500 C501 1.394 . S
C500 H510 0.932 . S
C501 C497 1.308 . S
C501 C500 1.394 . S
C501 H511 0.929 . S
C502 Tb473 2.764 . S
C502 O486 1.239 . S
C502 O487 1.263 . S
C502 C496 1.504 . S
C503 O488 1.236 . S
C503 O489 1.257 . S
H504 C477 0.932 . S
H505 C478 0.930 . S
H506 C479 0.932 . S
H507 C480 0.929 . S
H508 C498 0.932 . S
H509 C499 0.930 . S
H510 C500 0.932 . S
H511 C501 0.929 . S
Tb512 C521 2.764 . S
Tb512 O522 2.325 . S
Tb512 O525 2.303 . S
Tb512 O529 2.322 . S
Tb512 O530 2.349 . S
Tb512 O533 2.415 . S
Tb512 O534 2.399 . S
Tb513 O523 2.322 . S
Tb513 O524 2.349 . S
Tb513 O526 2.415 . S
Tb513 O527 2.399 . S
Tb513 O528 2.325 . S
Tb513 O531 2.303 . S
Tb513 C542 2.764 . S
C514 O530 1.261 . S
C514 O531 1.257 . S
C515 C518 1.358 . S
C515 C519 1.332 . S
C515 C521 1.504 . S
C516 C517 1.373 . S
C516 C520 1.308 . S
C517 C516 1.373 . S
C517 C518 1.429 . S
C517 H544 0.932 . S
C518 C515 1.358 . S
C518 C517 1.429 . S
C518 H545 0.930 . S
C519 C515 1.332 . S
C519 C520 1.394 . S
C519 H546 0.932 . S
C520 C516 1.308 . S
C520 C519 1.394 . S
C520 H547 0.929 . S
C521 Tb512 2.764 . S
C521 C515 1.504 . S
C521 O533 1.239 . S
C521 O534 1.263 . S
O522 Tb512 2.325 . S
O522 C532 1.236 . S
O523 Tb513 2.322 . S
O523 C532 1.257 . S
O524 Tb513 2.349 . S
O524 C535 1.261 . S
O525 Tb512 2.303 . S
O525 C535 1.257 . S
O526 Tb513 2.415 . S
O526 C542 1.239 . S
O527 Tb513 2.399 . S
O527 C542 1.263 . S
O528 Tb513 2.325 . S
O528 C543 1.236 . S
O529 Tb512 2.322 . S
O529 C543 1.257 . S
O530 Tb512 2.349 . S
O530 C514 1.261 . S
O531 Tb513 2.303 . S
O531 C514 1.257 . S
C532 O522 1.236 . S
C532 O523 1.257 . S
O533 Tb512 2.415 . S
O533 C521 1.239 . S
O534 Tb512 2.399 . S
O534 C521 1.263 . S
C535 O524 1.261 . S
C535 O525 1.257 . S
C536 C539 1.358 . S
C536 C540 1.332 . S
C536 C542 1.504 . S
C537 C538 1.373 . S
C537 C541 1.308 . S
C538 C537 1.373 . S
C538 C539 1.429 . S
C538 H548 0.932 . S
C539 C536 1.358 . S
C539 C538 1.429 . S
C539 H549 0.930 . S
C540 C536 1.332 . S
C540 C541 1.394 . S
C540 H550 0.932 . S
C541 C537 1.308 . S
C541 C540 1.394 . S
C541 H551 0.929 . S
C542 Tb513 2.764 . S
C542 O526 1.239 . S
C542 O527 1.263 . S
C542 C536 1.504 . S
C543 O528 1.236 . S
C543 O529 1.257 . S
H544 C517 0.932 . S
H545 C518 0.930 . S
H546 C519 0.932 . S
H547 C520 0.929 . S
H548 C538 0.932 . S
H549 C539 0.930 . S
H550 C540 0.932 . S
H551 C541 0.929 . S
Tb552 C561 2.764 . S
Tb552 O562 2.325 . S
Tb552 O565 2.303 . S
Tb552 O569 2.322 1_545 S
Tb552 O570 2.349 . S
Tb552 O573 2.415 . S
Tb552 O574 2.399 . S
Tb553 O563 2.322 . S
Tb553 O564 2.349 . S
Tb553 O566 2.415 1_554 S
Tb553 O567 2.399 1_554 S
Tb553 O568 2.325 . S
Tb553 O571 2.303 . S
Tb553 C582 2.764 1_554 S
C554 O570 1.261 . S
C554 O571 1.257 . S
C555 C558 1.358 . S
C555 C559 1.332 . S
C555 C561 1.504 . S
C556 C557 1.373 . S
C556 C560 1.308 . S
C557 C556 1.373 . S
C557 C558 1.429 . S
C557 H584 0.932 . S
C558 C555 1.358 . S
C558 C557 1.429 . S
C558 H585 0.930 . S
C559 C555 1.332 . S
C559 C560 1.394 . S
C559 H586 0.932 . S
C560 C556 1.308 . S
C560 C559 1.394 . S
C560 H587 0.929 . S
C561 Tb552 2.764 . S
C561 C555 1.504 . S
C561 O573 1.239 . S
C561 O574 1.263 . S
O562 Tb552 2.325 . S
O562 C572 1.236 . S
O563 Tb553 2.322 . S
O563 C572 1.257 . S
O564 Tb553 2.349 . S
O564 C575 1.261 . S
O565 Tb552 2.303 . S
O565 C575 1.257 . S
O566 Tb553 2.415 1_556 S
O566 C582 1.239 . S
O567 Tb553 2.399 1_556 S
O567 C582 1.263 . S
O568 Tb553 2.325 . S
O568 C583 1.236 1_545 S
O569 Tb552 2.322 1_565 S
O569 C583 1.257 . S
O570 Tb552 2.349 . S
O570 C554 1.261 . S
O571 Tb553 2.303 . S
O571 C554 1.257 . S
C572 O562 1.236 . S
C572 O563 1.257 . S
O573 Tb552 2.415 . S
O573 C561 1.239 . S
O574 Tb552 2.399 . S
O574 C561 1.263 . S
C575 O564 1.261 . S
C575 O565 1.257 . S
C576 C579 1.358 . S
C576 C580 1.332 . S
C576 C582 1.504 . S
C577 C578 1.373 . S
C577 C581 1.308 . S
C578 C577 1.373 . S
C578 C579 1.429 . S
C578 H588 0.932 . S
C579 C576 1.358 . S
C579 C578 1.429 . S
C579 H589 0.930 . S
C580 C576 1.332 . S
C580 C581 1.394 . S
C580 H590 0.932 . S
C581 C577 1.308 . S
C581 C580 1.394 . S
C581 H591 0.929 . S
C582 Tb553 2.764 1_556 S
C582 O566 1.239 . S
C582 O567 1.263 . S
C582 C576 1.504 . S
C583 O568 1.236 1_565 S
C583 O569 1.257 . S
H584 C557 0.932 . S
H585 C558 0.930 . S
H586 C559 0.932 . S
H587 C560 0.929 . S
H588 C578 0.932 . S
H589 C579 0.930 . S
H590 C580 0.932 . S
H591 C581 0.929 . S
Tb592 C601 2.764 . S
Tb592 O602 2.325 . S
Tb592 O605 2.303 . S
Tb592 O609 2.322 . S
Tb592 O610 2.349 . S
Tb592 O613 2.415 . S
Tb592 O614 2.399 . S
Tb593 O603 2.322 . S
Tb593 O604 2.349 . S
Tb593 O606 2.415 . S
Tb593 O607 2.399 . S
Tb593 O608 2.325 . S
Tb593 O611 2.303 . S
Tb593 C622 2.764 . S
C594 O610 1.261 . S
C594 O611 1.257 . S
C595 C598 1.358 . S
C595 C599 1.332 . S
C595 C601 1.504 . S
C596 C597 1.373 . S
C596 C600 1.308 . S
C597 C596 1.373 . S
C597 C598 1.429 . S
C597 H624 0.932 . S
C598 C595 1.358 . S
C598 C597 1.429 . S
C598 H625 0.930 . S
C599 C595 1.332 . S
C599 C600 1.394 . S
C599 H626 0.932 . S
C600 C596 1.308 . S
C600 C599 1.394 . S
C600 H627 0.929 . S
C601 Tb592 2.764 . S
C601 C595 1.504 . S
C601 O613 1.239 . S
C601 O614 1.263 . S
O602 Tb592 2.325 . S
O602 C612 1.236 . S
O603 Tb593 2.322 . S
O603 C612 1.257 . S
O604 Tb593 2.349 . S
O604 C615 1.261 . S
O605 Tb592 2.303 . S
O605 C615 1.257 . S
O606 Tb593 2.415 . S
O606 C622 1.239 . S
O607 Tb593 2.399 . S
O607 C622 1.263 . S
O608 Tb593 2.325 . S
O608 C623 1.236 . S
O609 Tb592 2.322 . S
O609 C623 1.257 . S
O610 Tb592 2.349 . S
O610 C594 1.261 . S
O611 Tb593 2.303 . S
O611 C594 1.257 . S
C612 O602 1.236 . S
C612 O603 1.257 . S
O613 Tb592 2.415 . S
O613 C601 1.239 . S
O614 Tb592 2.399 . S
O614 C601 1.263 . S
C615 O604 1.261 . S
C615 O605 1.257 . S
C616 C619 1.358 . S
C616 C620 1.332 . S
C616 C622 1.504 . S
C617 C618 1.373 . S
C617 C621 1.308 . S
C618 C617 1.373 . S
C618 C619 1.429 . S
C618 H628 0.932 . S
C619 C616 1.358 . S
C619 C618 1.429 . S
C619 H629 0.930 . S
C620 C616 1.332 . S
C620 C621 1.394 . S
C620 H630 0.932 . S
C621 C617 1.308 . S
C621 C620 1.394 . S
C621 H631 0.929 . S
C622 Tb593 2.764 . S
C622 O606 1.239 . S
C622 O607 1.263 . S
C622 C616 1.504 . S
C623 O608 1.236 . S
C623 O609 1.257 . S
H624 C597 0.932 . S
H625 C598 0.930 . S
H626 C599 0.932 . S
H627 C600 0.929 . S
H628 C618 0.932 . S
H629 C619 0.930 . S
H630 C620 0.932 . S
H631 C621 0.929 . S
Tb632 C641 2.764 . S
Tb632 O642 2.325 . S
Tb632 O645 2.303 . S
Tb632 O649 2.322 . S
Tb632 O650 2.349 . S
Tb632 O653 2.415 . S
Tb632 O654 2.399 . S
Tb633 O643 2.322 . S
Tb633 O644 2.349 . S
Tb633 O646 2.415 1_554 S
Tb633 O647 2.399 1_554 S
Tb633 O648 2.325 . S
Tb633 O651 2.303 . S
Tb633 C662 2.764 1_554 S
C634 O650 1.261 . S
C634 O651 1.257 . S
C635 C638 1.358 . S
C635 C639 1.332 . S
C635 C641 1.504 . S
C636 C637 1.373 . S
C636 C640 1.308 . S
C637 C636 1.373 . S
C637 C638 1.429 . S
C637 H664 0.932 . S
C638 C635 1.358 . S
C638 C637 1.429 . S
C638 H665 0.930 . S
C639 C635 1.332 . S
C639 C640 1.394 . S
C639 H666 0.932 . S
C640 C636 1.308 . S
C640 C639 1.394 . S
C640 H667 0.929 . S
C641 Tb632 2.764 . S
C641 C635 1.504 . S
C641 O653 1.239 . S
C641 O654 1.263 . S
O642 Tb632 2.325 . S
O642 C652 1.236 . S
O643 Tb633 2.322 . S
O643 C652 1.257 . S
O644 Tb633 2.349 . S
O644 C655 1.261 . S
O645 Tb632 2.303 . S
O645 C655 1.257 . S
O646 Tb633 2.415 1_556 S
O646 C662 1.239 . S
O647 Tb633 2.399 1_556 S
O647 C662 1.263 . S
O648 Tb633 2.325 . S
O648 C663 1.236 . S
O649 Tb632 2.322 . S
O649 C663 1.257 . S
O650 Tb632 2.349 . S
O650 C634 1.261 . S
O651 Tb633 2.303 . S
O651 C634 1.257 . S
C652 O642 1.236 . S
C652 O643 1.257 . S
O653 Tb632 2.415 . S
O653 C641 1.239 . S
O654 Tb632 2.399 . S
O654 C641 1.263 . S
C655 O644 1.261 . S
C655 O645 1.257 . S
C656 C659 1.358 . S
C656 C660 1.332 . S
C656 C662 1.504 . S
C657 C658 1.373 . S
C657 C661 1.308 . S
C658 C657 1.373 . S
C658 C659 1.429 . S
C658 H668 0.932 . S
C659 C656 1.358 . S
C659 C658 1.429 . S
C659 H669 0.930 . S
C660 C656 1.332 . S
C660 C661 1.394 . S
C660 H670 0.932 . S
C661 C657 1.308 . S
C661 C660 1.394 . S
C661 H671 0.929 . S
C662 Tb633 2.764 1_556 S
C662 O646 1.239 . S
C662 O647 1.263 . S
C662 C656 1.504 . S
C663 O648 1.236 . S
C663 O649 1.257 . S
H664 C637 0.932 . S
H665 C638 0.930 . S
H666 C639 0.932 . S
H667 C640 0.929 . S
H668 C658 0.932 . S
H669 C659 0.930 . S
H670 C660 0.932 . S
H671 C661 0.929 . S
Tb672 C681 2.764 . S
Tb672 O682 2.325 . S
Tb672 O685 2.303 . S
Tb672 O689 2.322 . S
Tb672 O690 2.349 . S
Tb672 O693 2.415 . S
Tb672 O694 2.399 . S
Tb673 O683 2.322 . S
Tb673 O684 2.349 . S
Tb673 O686 2.415 . S
Tb673 O687 2.399 . S
Tb673 O688 2.325 . S
Tb673 O691 2.303 . S
Tb673 C702 2.764 . S
C674 O690 1.261 . S
C674 O691 1.257 . S
C675 C678 1.358 . S
C675 C679 1.332 . S
C675 C681 1.504 . S
C676 C677 1.373 . S
C676 C680 1.308 . S
C677 C676 1.373 . S
C677 C678 1.429 . S
C677 H704 0.932 . S
C678 C675 1.358 . S
C678 C677 1.429 . S
C678 H705 0.930 . S
C679 C675 1.332 . S
C679 C680 1.394 . S
C679 H706 0.932 . S
C680 C676 1.308 . S
C680 C679 1.394 . S
C680 H707 0.929 . S
C681 Tb672 2.764 . S
C681 C675 1.504 . S
C681 O693 1.239 . S
C681 O694 1.263 . S
O682 Tb672 2.325 . S
O682 C692 1.236 . S
O683 Tb673 2.322 . S
O683 C692 1.257 . S
O684 Tb673 2.349 . S
O684 C695 1.261 . S
O685 Tb672 2.303 . S
O685 C695 1.257 . S
O686 Tb673 2.415 . S
O686 C702 1.239 . S
O687 Tb673 2.399 . S
O687 C702 1.263 . S
O688 Tb673 2.325 . S
O688 C703 1.236 . S
O689 Tb672 2.322 . S
O689 C703 1.257 . S
O690 Tb672 2.349 . S
O690 C674 1.261 . S
O691 Tb673 2.303 . S
O691 C674 1.257 . S
C692 O682 1.236 . S
C692 O683 1.257 . S
O693 Tb672 2.415 . S
O693 C681 1.239 . S
O694 Tb672 2.399 . S
O694 C681 1.263 . S
C695 O684 1.261 . S
C695 O685 1.257 . S
C696 C699 1.358 . S
C696 C700 1.332 . S
C696 C702 1.504 . S
C697 C698 1.373 . S
C697 C701 1.308 . S
C698 C697 1.373 . S
C698 C699 1.429 . S
C698 H708 0.932 . S
C699 C696 1.358 . S
C699 C698 1.429 . S
C699 H709 0.930 . S
C700 C696 1.332 . S
C700 C701 1.394 . S
C700 H710 0.932 . S
C701 C697 1.308 . S
C701 C700 1.394 . S
C701 H711 0.929 . S
C702 Tb673 2.764 . S
C702 O686 1.239 . S
C702 O687 1.263 . S
C702 C696 1.504 . S
C703 O688 1.236 . S
C703 O689 1.257 . S
H704 C677 0.932 . S
H705 C678 0.930 . S
H706 C679 0.932 . S
H707 C680 0.929 . S
H708 C698 0.932 . S
H709 C699 0.930 . S
H710 C700 0.932 . S
H711 C701 0.929 . S
Tb712 C721 2.764 . S
Tb712 O722 2.325 . S
Tb712 O725 2.303 . S
Tb712 O729 2.322 . S
Tb712 O730 2.349 . S
Tb712 O733 2.415 . S
Tb712 O734 2.399 . S
Tb713 O723 2.322 . S
Tb713 O724 2.349 . S
Tb713 O726 2.415 . S
Tb713 O727 2.399 . S
Tb713 O728 2.325 . S
Tb713 O731 2.303 . S
Tb713 C742 2.764 . S
C714 O730 1.261 . S
C714 O731 1.257 . S
C715 C718 1.358 . S
C715 C719 1.366 . S
C715 C721 1.504 . S
C716 C717 1.373 . S
C716 C720 1.308 1_455 S
C717 C716 1.373 . S
C717 C718 1.429 . S
C717 H744 0.932 . S
C718 C715 1.358 . S
C718 C717 1.429 . S
C718 H745 0.930 . S
C719 C715 1.366 . S
C719 C720 1.381 1_455 S
C719 H746 0.912 1_455 S
C720 C716 1.308 1_655 S
C720 C719 1.381 1_655 S
C720 H747 0.929 . S
C721 Tb712 2.764 . S
C721 C715 1.504 . S
C721 O733 1.239 . S
C721 O734 1.263 . S
O722 Tb712 2.325 . S
O722 C732 1.236 . S
O723 Tb713 2.322 . S
O723 C732 1.257 . S
O724 Tb713 2.349 . S
O724 C735 1.261 . S
O725 Tb712 2.303 . S
O725 C735 1.255 . S
O726 Tb713 2.415 . S
O726 C742 1.239 . S
O727 Tb713 2.399 . S
O727 C742 1.263 . S
O728 Tb713 2.325 . S
O728 C743 1.236 . S
O729 Tb712 2.322 . S
O729 C743 1.257 . S
O730 Tb712 2.349 . S
O730 C714 1.261 . S
O731 Tb713 2.303 . S
O731 C714 1.257 . S
C732 O722 1.236 . S
C732 O723 1.257 . S
O733 Tb712 2.415 . S
O733 C721 1.239 . S
O734 Tb712 2.399 . S
O734 C721 1.263 . S
C735 O724 1.261 . S
C735 O725 1.255 . S
C736 C739 1.358 . S
C736 C740 1.332 . S
C736 C742 1.504 . S
C737 C738 1.373 . S
C737 C741 1.308 . S
C738 C737 1.373 . S
C738 C739 1.429 . S
C738 H748 0.932 . S
C739 C736 1.358 . S
C739 C738 1.429 . S
C739 H749 0.930 . S
C740 C736 1.332 . S
C740 C741 1.394 . S
C740 H750 0.932 . S
C741 C737 1.308 . S
C741 C740 1.394 . S
C741 H751 0.929 . S
C742 Tb713 2.764 . S
C742 O726 1.239 . S
C742 O727 1.263 . S
C742 C736 1.504 . S
C743 O728 1.236 . S
C743 O729 1.257 . S
H744 C717 0.932 . S
H745 C718 0.930 . S
H746 C719 0.912 1_655 S
H747 C720 0.929 . S
H748 C738 0.932 . S
H749 C739 0.930 . S
H750 C740 0.932 . S
H751 C741 0.929 . S
Tb752 C761 2.764 . S
Tb752 O762 2.325 . S
Tb752 O765 2.303 . S
Tb752 O769 2.322 . S
Tb752 O770 2.349 . S
Tb752 O773 2.415 . S
Tb752 O774 2.399 . S
Tb753 O763 2.322 . S
Tb753 O764 2.349 . S
Tb753 O766 2.415 . S
Tb753 O767 2.399 . S
Tb753 O768 2.325 . S
Tb753 O771 2.303 . S
Tb753 C782 2.764 . S
C754 O770 1.261 . S
C754 O771 1.257 . S
C755 C758 1.358 . S
C755 C759 1.332 . S
C755 C761 1.504 . S
C756 C757 1.373 . S
C756 C760 1.308 . S
C757 C756 1.373 . S
C757 C758 1.429 . S
C757 H784 0.932 . S
C758 C755 1.358 . S
C758 C757 1.429 . S
C758 H785 0.930 . S
C759 C755 1.332 . S
C759 C760 1.394 . S
C759 H786 0.932 . S
C760 C756 1.308 . S
C760 C759 1.394 . S
C760 H787 0.929 . S
C761 Tb752 2.764 . S
C761 C755 1.504 . S
C761 O773 1.239 . S
C761 O774 1.263 . S
O762 Tb752 2.325 . S
O762 C772 1.236 . S
O763 Tb753 2.322 . S
O763 C772 1.257 . S
O764 Tb753 2.349 . S
O764 C775 1.261 . S
O765 Tb752 2.303 . S
O765 C775 1.257 . S
O766 Tb753 2.415 . S
O766 C782 1.239 . S
O767 Tb753 2.399 . S
O767 C782 1.263 . S
O768 Tb753 2.325 . S
O768 C783 1.236 . S
O769 Tb752 2.322 . S
O769 C783 1.257 . S
O770 Tb752 2.349 . S
O770 C754 1.261 . S
O771 Tb753 2.303 . S
O771 C754 1.257 . S
C772 O762 1.236 . S
C772 O763 1.257 . S
O773 Tb752 2.415 . S
O773 C761 1.239 . S
O774 Tb752 2.399 . S
O774 C761 1.263 . S
C775 O764 1.261 . S
C775 O765 1.257 . S
C776 C779 1.358 . S
C776 C780 1.332 . S
C776 C782 1.504 . S
C777 C778 1.373 . S
C777 C781 1.308 . S
C778 C777 1.373 . S
C778 C779 1.429 . S
C778 H788 0.932 . S
C779 C776 1.358 . S
C779 C778 1.429 . S
C779 H789 0.930 . S
C780 C776 1.332 . S
C780 C781 1.394 . S
C780 H790 0.932 . S
C781 C777 1.308 . S
C781 C780 1.394 . S
C781 H791 0.929 . S
C782 Tb753 2.764 . S
C782 O766 1.239 . S
C782 O767 1.263 . S
C782 C776 1.504 . S
C783 O768 1.236 . S
C783 O769 1.257 . S
H784 C757 0.932 . S
H785 C758 0.930 . S
H786 C759 0.932 . S
H787 C760 0.929 . S
H788 C778 0.932 . S
H789 C779 0.930 . S
H790 C780 0.932 . S
H791 C781 0.929 . S
Tb792 C801 2.764 . S
Tb792 O802 2.325 . S
Tb792 O805 2.303 . S
Tb792 O809 2.322 . S
Tb792 O810 2.349 . S
Tb792 O813 2.415 . S
Tb792 O814 2.399 . S
Tb793 O803 2.322 . S
Tb793 O804 2.349 . S
Tb793 O806 2.415 . S
Tb793 O807 2.399 . S
Tb793 O808 2.325 . S
Tb793 O811 2.303 . S
Tb793 C822 2.764 . S
C794 O810 1.261 . S
C794 O811 1.257 . S
C795 C798 1.358 . S
C795 C799 1.332 . S
C795 C801 1.504 . S
C796 C797 1.373 . S
C796 C800 1.308 . S
C797 C796 1.373 . S
C797 C798 1.429 . S
C797 H824 0.932 . S
C798 C795 1.358 . S
C798 C797 1.429 . S
C798 H825 0.930 . S
C799 C795 1.332 . S
C799 C800 1.394 . S
C799 H826 0.932 . S
C800 C796 1.308 . S
C800 C799 1.394 . S
C800 H827 0.929 . S
C801 Tb792 2.764 . S
C801 C795 1.504 . S
C801 O813 1.239 . S
C801 O814 1.263 . S
O802 Tb792 2.325 . S
O802 C812 1.236 . S
O803 Tb793 2.322 . S
O803 C812 1.257 . S
O804 Tb793 2.349 . S
O804 C815 1.261 . S
O805 Tb792 2.303 . S
O805 C815 1.257 . S
O806 Tb793 2.415 . S
O806 C822 1.239 . S
O807 Tb793 2.399 . S
O807 C822 1.263 . S
O808 Tb793 2.325 . S
O808 C823 1.236 . S
O809 Tb792 2.322 . S
O809 C823 1.257 . S
O810 Tb792 2.349 . S
O810 C794 1.261 . S
O811 Tb793 2.303 . S
O811 C794 1.257 . S
C812 O802 1.236 . S
C812 O803 1.257 . S
O813 Tb792 2.415 . S
O813 C801 1.239 . S
O814 Tb792 2.399 . S
O814 C801 1.263 . S
C815 O804 1.261 . S
C815 O805 1.257 . S
C816 C819 1.358 . S
C816 C820 1.332 . S
C816 C822 1.504 . S
C817 C818 1.373 . S
C817 C821 1.308 . S
C818 C817 1.373 . S
C818 C819 1.429 . S
C818 H828 0.932 . S
C819 C816 1.358 . S
C819 C818 1.429 . S
C819 H829 0.930 . S
C820 C816 1.332 . S
C820 C821 1.394 . S
C820 H830 0.932 . S
C821 C817 1.308 . S
C821 C820 1.394 . S
C821 H831 0.929 . S
C822 Tb793 2.764 . S
C822 O806 1.239 . S
C822 O807 1.263 . S
C822 C816 1.504 . S
C823 O808 1.236 . S
C823 O809 1.257 . S
H824 C797 0.932 . S
H825 C798 0.930 . S
H826 C799 0.932 . S
H827 C800 0.929 . S
H828 C818 0.932 . S
H829 C819 0.930 . S
H830 C820 0.932 . S
H831 C821 0.929 . S
Tb832 C841 2.764 . S
Tb832 O842 2.325 . S
Tb832 O845 2.303 . S
Tb832 O849 2.322 . S
Tb832 O850 2.349 . S
Tb832 O853 2.415 . S
Tb832 O854 2.399 . S
Tb833 O843 2.322 . S
Tb833 O844 2.349 . S
Tb833 O846 2.415 . S
Tb833 O847 2.399 . S
Tb833 O848 2.325 . S
Tb833 O851 2.303 . S
Tb833 C862 2.764 . S
C834 O850 1.261 . S
C834 O851 1.257 . S
C835 C838 1.358 . S
C835 C839 1.332 . S
C835 C841 1.504 . S
C836 C837 1.373 . S
C836 C840 1.308 . S
C837 C836 1.373 . S
C837 C838 1.429 . S
C837 H864 0.932 . S
C838 C835 1.358 . S
C838 C837 1.429 . S
C838 H865 0.930 . S
C839 C835 1.332 . S
C839 C840 1.394 . S
C839 H866 0.932 . S
C840 C836 1.308 . S
C840 C839 1.394 . S
C840 H867 0.929 . S
C841 Tb832 2.764 . S
C841 C835 1.504 . S
C841 O853 1.239 . S
C841 O854 1.263 . S
O842 Tb832 2.325 . S
O842 C852 1.236 . S
O843 Tb833 2.322 . S
O843 C852 1.257 . S
O844 Tb833 2.349 . S
O844 C855 1.261 . S
O845 Tb832 2.303 . S
O845 C855 1.257 . S
O846 Tb833 2.415 . S
O846 C862 1.239 . S
O847 Tb833 2.399 . S
O847 C862 1.263 . S
O848 Tb833 2.325 . S
O848 C863 1.236 . S
O849 Tb832 2.322 . S
O849 C863 1.257 . S
O850 Tb832 2.349 . S
O850 C834 1.261 . S
O851 Tb833 2.303 . S
O851 C834 1.257 . S
C852 O842 1.236 . S
C852 O843 1.257 . S
O853 Tb832 2.415 . S
O853 C841 1.239 . S
O854 Tb832 2.399 . S
O854 C841 1.263 . S
C855 O844 1.261 . S
C855 O845 1.257 . S
C856 C859 1.358 . S
C856 C860 1.332 . S
C856 C862 1.504 . S
C857 C858 1.373 . S
C857 C861 1.308 . S
C858 C857 1.373 . S
C858 C859 1.429 . S
C858 H868 0.932 . S
C859 C856 1.358 . S
C859 C858 1.429 . S
C859 H869 0.930 . S
C860 C856 1.332 . S
C860 C861 1.394 . S
C860 H870 0.932 . S
C861 C857 1.308 . S
C861 C860 1.394 . S
C861 H871 0.929 . S
C862 Tb833 2.764 . S
C862 O846 1.239 . S
C862 O847 1.263 . S
C862 C856 1.504 . S
C863 O848 1.236 . S
C863 O849 1.257 . S
H864 C837 0.932 . S
H865 C838 0.930 . S
H866 C839 0.932 . S
H867 C840 0.929 . S
H868 C858 0.932 . S
H869 C859 0.930 . S
H870 C860 0.932 . S
H871 C861 0.929 . S
Tb872 C881 2.764 . S
Tb872 O882 2.325 . S
Tb872 O885 2.303 . S
Tb872 O889 2.322 . S
Tb872 O890 2.349 . S
Tb872 O893 2.415 . S
Tb872 O894 2.399 . S
Tb873 O883 2.322 . S
Tb873 O884 2.349 . S
Tb873 O886 2.415 . S
Tb873 O887 2.399 . S
Tb873 O888 2.325 . S
Tb873 O891 2.303 . S
Tb873 C902 2.764 . S
C874 O890 1.261 . S
C874 O891 1.257 . S
C875 C878 1.358 . S
C875 C879 1.332 . S
C875 C881 1.504 . S
C876 C877 1.373 . S
C876 C880 1.308 . S
C877 C876 1.373 . S
C877 C878 1.429 . S
C877 H904 0.932 . S
C878 C875 1.358 . S
C878 C877 1.429 . S
C878 H905 0.930 . S
C879 C875 1.332 . S
C879 C880 1.394 . S
C879 H906 0.932 . S
C880 C876 1.308 . S
C880 C879 1.394 . S
C880 H907 0.929 . S
C881 Tb872 2.764 . S
C881 C875 1.504 . S
C881 O893 1.239 . S
C881 O894 1.263 . S
O882 Tb872 2.325 . S
O882 C892 1.236 . S
O883 Tb873 2.322 . S
O883 C892 1.257 . S
O884 Tb873 2.349 . S
O884 C895 1.261 . S
O885 Tb872 2.303 . S
O885 C895 1.257 . S
O886 Tb873 2.415 . S
O886 C902 1.239 . S
O887 Tb873 2.399 . S
O887 C902 1.263 . S
O888 Tb873 2.325 . S
O888 C903 1.236 . S
O889 Tb872 2.322 . S
O889 C903 1.257 . S
O890 Tb872 2.349 . S
O890 C874 1.261 . S
O891 Tb873 2.303 . S
O891 C874 1.257 . S
C892 O882 1.236 . S
C892 O883 1.257 . S
O893 Tb872 2.415 . S
O893 C881 1.239 . S
O894 Tb872 2.399 . S
O894 C881 1.263 . S
C895 O884 1.261 . S
C895 O885 1.257 . S
C896 C899 1.358 . S
C896 C900 1.332 . S
C896 C902 1.504 . S
C897 C898 1.373 . S
C897 C901 1.308 . S
C898 C897 1.373 . S
C898 C899 1.429 . S
C898 H908 0.932 . S
C899 C896 1.358 . S
C899 C898 1.429 . S
C899 H909 0.930 . S
C900 C896 1.332 . S
C900 C901 1.394 . S
C900 H910 0.932 . S
C901 C897 1.308 . S
C901 C900 1.394 . S
C901 H911 0.929 . S
C902 Tb873 2.764 . S
C902 O886 1.239 . S
C902 O887 1.263 . S
C902 C896 1.504 . S
C903 O888 1.236 . S
C903 O889 1.257 . S
H904 C877 0.932 . S
H905 C878 0.930 . S
H906 C879 0.932 . S
H907 C880 0.929 . S
H908 C898 0.932 . S
H909 C899 0.930 . S
H910 C900 0.932 . S
H911 C901 0.929 . S
Tb912 C921 2.764 1_455 S
Tb912 O922 2.325 . S
Tb912 O925 2.303 . S
Tb912 O929 2.322 . S
Tb912 O930 2.349 . S
Tb912 O933 2.415 1_455 S
Tb912 O934 2.399 1_455 S
Tb913 O923 2.322 . S
Tb913 O924 2.349 1_554 S
Tb913 O926 2.415 . S
Tb913 O927 2.399 1_554 S
Tb913 O928 2.325 . S
Tb913 O931 2.303 . S
Tb913 C942 2.764 . S
C914 O930 1.261 . S
C914 O931 1.257 . S
C915 C918 1.358 . S
C915 C919 1.332 . S
C915 C921 1.504 . S
C916 C917 1.373 . S
C916 C920 1.308 . S
C917 C916 1.373 . S
C917 C918 1.429 . S
C917 H944 0.932 . S
C918 C915 1.358 . S
C918 C917 1.429 . S
C918 H945 0.930 . S
C919 C915 1.332 . S
C919 C920 1.394 . S
C919 H946 0.932 . S
C920 C916 1.308 . S
C920 C919 1.394 . S
C920 H947 0.929 . S
C921 Tb912 2.764 1_655 S
C921 C915 1.504 . S
C921 O933 1.239 . S
C921 O934 1.263 . S
O922 Tb912 2.325 . S
O922 C932 1.236 . S
O923 Tb913 2.322 . S
O923 C932 1.257 . S
O924 Tb913 2.349 1_556 S
O924 C935 1.261 . S
O925 Tb912 2.303 . S
O925 C935 1.257 1_554 S
O926 Tb913 2.415 . S
O926 C942 1.239 . S
O927 Tb913 2.399 1_556 S
O927 C942 1.263 1_556 S
O928 Tb913 2.325 . S
O928 C943 1.236 . S
O929 Tb912 2.322 . S
O929 C943 1.257 . S
O930 Tb912 2.349 . S
O930 C914 1.261 . S
O931 Tb913 2.303 . S
O931 C914 1.257 . S
C932 O922 1.236 . S
C932 O923 1.257 . S
O933 Tb912 2.415 1_655 S
O933 C921 1.239 . S
O934 Tb912 2.399 1_655 S
O934 C921 1.263 . S
C935 O924 1.261 . S
C935 O925 1.257 1_556 S
C936 C939 1.358 1_554 S
C936 C940 1.332 . S
C936 C942 1.504 . S
C937 C938 1.349 1_554 S
C937 C941 1.337 . S
C938 C937 1.349 1_556 S
C938 C939 1.429 . S
C938 H948 0.932 . S
C939 C936 1.358 1_556 S
C939 C938 1.429 . S
C939 H949 0.930 . S
C940 C936 1.332 . S
C940 C941 1.394 . S
C940 H950 0.932 . S
C941 C937 1.337 . S
C941 C940 1.394 . S
C941 H951 0.929 . S
C942 Tb913 2.764 . S
C942 O926 1.239 . S
C942 O927 1.263 1_554 S
C942 C936 1.504 . S
C943 O928 1.236 . S
C943 O929 1.257 . S
H944 C917 0.932 . S
H945 C918 0.930 . S
H946 C919 0.932 . S
H947 C920 0.929 . S
H948 C938 0.932 . S
H949 C939 0.930 . S
H950 C940 0.932 . S
H951 C941 0.929 . S
C952 C953 1.391 . S
C952 C954 1.394 . S
C952 H968 0.931 . S
C953 C952 1.391 . S
C953 C957 1.376 1_655 S
C954 C952 1.394 . S
C954 C955 1.369 1_655 S
C954 C958 1.531 . S
C955 C954 1.369 1_455 S
C955 C956 1.410 . S
C955 C963 1.503 . S
C956 C955 1.410 . S
C956 C957 1.392 . S
C956 C959 1.511 1_556 S
C957 C953 1.376 1_455 S
C957 C956 1.392 . S
C957 H969 0.929 . S
C958 C954 1.531 . S
C958 H970 0.960 . S
C958 H971 0.962 . S
C958 H972 0.960 . S
C959 C956 1.511 1_554 S
C959 H973 0.961 . S
C959 H974 0.961 . S
C959 H975 0.961 1_554 S
C960 C961 1.370 . S
C960 C962 1.363 . S
C960 H976 0.931 . S
C961 C960 1.370 . S
C961 C965 1.408 1_554 S
C962 C960 1.363 . S
C962 C963 1.370 1_554 S
C962 C966 1.524 1_455 S
C963 C955 1.503 . S
C963 C962 1.370 1_556 S
C963 C964 1.403 . S
C964 C963 1.403 . S
C964 C965 1.404 . S
C964 C967 1.539 . S
C965 C961 1.408 1_556 S
C965 C964 1.404 . S
C965 H977 0.930 . S
C966 C962 1.524 1_655 S
C966 H978 0.956 . S
C966 H979 0.961 1_655 S
C966 H980 0.961 . S
C967 C964 1.539 . S
C967 H981 0.958 . S
C967 H982 0.961 . S
C967 H983 0.960 . S
H968 C952 0.931 . S
H969 C957 0.929 . S
H970 C958 0.960 . S
H971 C958 0.962 . S
H972 C958 0.960 . S
H973 C959 0.961 . S
H974 C959 0.961 . S
H975 C959 0.961 1_556 S
H976 C960 0.931 . S
H977 C965 0.930 . S
H978 C966 0.956 . S
H979 C966 0.961 1_455 S
H980 C966 0.961 . S
H981 C967 0.958 . S
H982 C967 0.961 . S
H983 C967 0.960 . S
C984 C985 1.391 . S
C984 C986 1.394 . S
C984 H1000 0.931 . S
C985 C984 1.391 . S
C985 C989 1.376 . S
C986 C984 1.394 . S
C986 C987 1.369 . S
C986 C990 1.531 . S
C987 C986 1.369 . S
C987 C988 1.410 . S
C987 C995 1.503 . S
C988 C987 1.410 . S
C988 C989 1.392 . S
C988 C991 1.511 . S
C989 C985 1.376 . S
C989 C988 1.392 . S
C989 H1001 0.929 . S
C990 C986 1.531 . S
C990 H1002 0.960 . S
C990 H1003 0.962 . S
C990 H1004 0.960 . S
C991 C988 1.511 . S
C991 H1005 0.961 . S
C991 H1006 0.961 . S
C991 H1007 0.961 . S
C992 C993 1.370 . S
C992 C994 1.363 . S
C992 H1008 0.931 . S
C993 C992 1.370 . S
C993 C997 1.408 . S
C994 C992 1.363 . S
C994 C995 1.370 . S
C994 C998 1.524 . S
C995 C987 1.503 . S
C995 C994 1.370 . S
C995 C996 1.403 . S
C996 C995 1.403 . S
C996 C997 1.404 . S
C996 C999 1.539 . S
C997 C993 1.408 . S
C997 C996 1.404 . S
C997 H1009 0.930 . S
C998 C994 1.524 . S
C998 H1010 0.956 . S
C998 H1011 0.961 . S
C998 H1012 0.961 . S
C999 C996 1.539 . S
C999 H1013 0.958 . S
C999 H1014 0.961 . S
C999 H1015 0.960 . S
H1000 C984 0.931 . S
H1001 C989 0.929 . S
H1002 C990 0.960 . S
H1003 C990 0.962 . S
H1004 C990 0.960 . S
H1005 C991 0.961 . S
H1006 C991 0.961 . S
H1007 C991 0.961 . S
H1008 C992 0.931 . S
H1009 C997 0.930 . S
H1010 C998 0.956 . S
H1011 C998 0.961 . S
H1012 C998 0.961 . S
H1013 C999 0.958 . S
H1014 C999 0.961 . S
H1015 C999 0.960 . S
C1016 C1017 1.391 . S
C1016 C1018 1.394 . S
C1016 H1032 0.931 . S
C1017 C1016 1.391 . S
C1017 C1021 1.376 . S
C1018 C1016 1.394 . S
C1018 C1019 1.369 . S
C1018 C1022 1.531 . S
C1019 C1018 1.369 . S
C1019 C1020 1.410 . S
C1019 C1027 1.503 . S
C1020 C1019 1.410 . S
C1020 C1021 1.392 . S
C1020 C1023 1.511 . S
C1021 C1017 1.376 . S
C1021 C1020 1.392 . S
C1021 H1033 0.929 . S
C1022 C1018 1.531 . S
C1022 H1034 0.960 . S
C1022 H1035 0.962 . S
C1022 H1036 0.960 . S
C1023 C1020 1.511 . S
C1023 H1037 0.961 . S
C1023 H1038 0.961 . S
C1023 H1039 0.961 . S
C1024 C1025 1.370 . S
C1024 C1026 1.363 . S
C1024 H1040 0.931 . S
C1025 C1024 1.370 . S
C1025 C1029 1.408 . S
C1026 C1024 1.363 . S
C1026 C1027 1.370 . S
C1026 C1030 1.524 . S
C1027 C1019 1.503 . S
C1027 C1026 1.370 . S
C1027 C1028 1.403 . S
C1028 C1027 1.403 . S
C1028 C1029 1.404 . S
C1028 C1031 1.539 . S
C1029 C1025 1.408 . S
C1029 C1028 1.404 . S
C1029 H1041 0.930 . S
C1030 C1026 1.524 . S
C1030 H1042 0.956 . S
C1030 H1043 0.961 . S
C1030 H1044 0.961 . S
C1031 C1028 1.539 . S
C1031 H1045 0.958 . S
C1031 H1046 0.961 . S
C1031 H1047 0.960 . S
H1032 C1016 0.931 . S
H1033 C1021 0.929 . S
H1034 C1022 0.960 . S
H1035 C1022 0.962 . S
H1036 C1022 0.960 . S
H1037 C1023 0.961 . S
H1038 C1023 0.961 . S
H1039 C1023 0.961 . S
H1040 C1024 0.931 . S
H1041 C1029 0.930 . S
H1042 C1030 0.956 . S
H1043 C1030 0.961 . S
H1044 C1030 0.961 . S
H1045 C1031 0.958 . S
H1046 C1031 0.961 . S
H1047 C1031 0.960 . S
C1048 C1049 1.391 . S
C1048 C1050 1.394 . S
C1048 H1064 0.931 . S
C1049 C1048 1.391 . S
C1049 C1053 1.376 . S
C1050 C1048 1.394 . S
C1050 C1051 1.369 . S
C1050 C1054 1.531 . S
C1051 C1050 1.369 . S
C1051 C1052 1.410 . S
C1051 C1059 1.503 . S
C1052 C1051 1.410 . S
C1052 C1053 1.392 . S
C1052 C1055 1.511 . S
C1053 C1049 1.376 . S
C1053 C1052 1.392 . S
C1053 H1065 0.929 . S
C1054 C1050 1.531 . S
C1054 H1066 0.960 . S
C1054 H1067 0.962 . S
C1054 H1068 0.960 . S
C1055 C1052 1.511 . S
C1055 H1069 0.961 . S
C1055 H1070 0.961 . S
C1055 H1071 0.961 . S
C1056 C1057 1.370 . S
C1056 C1058 1.363 . S
C1056 H1072 0.931 . S
C1057 C1056 1.370 . S
C1057 C1061 1.408 . S
C1058 C1056 1.363 . S
C1058 C1059 1.370 . S
C1058 C1062 1.524 . S
C1059 C1051 1.503 . S
C1059 C1058 1.370 . S
C1059 C1060 1.403 . S
C1060 C1059 1.403 . S
C1060 C1061 1.404 . S
C1060 C1063 1.539 . S
C1061 C1057 1.408 . S
C1061 C1060 1.404 . S
C1061 H1073 0.930 . S
C1062 C1058 1.524 . S
C1062 H1074 0.956 . S
C1062 H1075 0.961 . S
C1062 H1076 0.961 . S
C1063 C1060 1.539 . S
C1063 H1077 0.958 . S
C1063 H1078 0.961 . S
C1063 H1079 0.960 . S
H1064 C1048 0.931 . S
H1065 C1053 0.929 . S
H1066 C1054 0.960 . S
H1067 C1054 0.962 . S
H1068 C1054 0.960 . S
H1069 C1055 0.961 . S
H1070 C1055 0.961 . S
H1071 C1055 0.961 . S
H1072 C1056 0.931 . S
H1073 C1061 0.930 . S
H1074 C1062 0.956 . S
H1075 C1062 0.961 . S
H1076 C1062 0.961 . S
H1077 C1063 0.958 . S
H1078 C1063 0.961 . S
H1079 C1063 0.960 . S
C1080 C1081 1.391 . S
C1080 C1082 1.394 . S
C1080 H1096 0.931 . S
C1081 C1080 1.391 . S
C1081 C1085 1.376 . S
C1082 C1080 1.394 . S
C1082 C1083 1.369 . S
C1082 C1086 1.531 . S
C1083 C1082 1.369 . S
C1083 C1084 1.410 . S
C1083 C1091 1.503 . S
C1084 C1083 1.410 . S
C1084 C1085 1.392 . S
C1084 C1087 1.511 . S
C1085 C1081 1.376 . S
C1085 C1084 1.392 . S
C1085 H1097 0.929 . S
C1086 C1082 1.531 . S
C1086 H1098 0.960 . S
C1086 H1099 0.962 . S
C1086 H1100 0.960 . S
C1087 C1084 1.511 . S
C1087 H1101 0.961 . S
C1087 H1102 0.961 . S
C1087 H1103 0.961 . S
C1088 C1089 1.370 . S
C1088 C1090 1.363 . S
C1088 H1104 0.931 . S
C1089 C1088 1.370 . S
C1089 C1093 1.408 . S
C1090 C1088 1.363 . S
C1090 C1091 1.370 . S
C1090 C1094 1.524 . S
C1091 C1083 1.503 . S
C1091 C1090 1.370 . S
C1091 C1092 1.403 . S
C1092 C1091 1.403 . S
C1092 C1093 1.404 . S
C1092 C1095 1.539 . S
C1093 C1089 1.408 . S
C1093 C1092 1.404 . S
C1093 H1105 0.930 . S
C1094 C1090 1.524 . S
C1094 H1106 0.956 . S
C1094 H1107 0.961 . S
C1094 H1108 0.961 . S
C1095 C1092 1.539 . S
C1095 H1109 0.958 . S
C1095 H1110 0.961 . S
C1095 H1111 0.960 . S
H1096 C1080 0.931 . S
H1097 C1085 0.929 . S
H1098 C1086 0.960 . S
H1099 C1086 0.962 . S
H1100 C1086 0.960 . S
H1101 C1087 0.961 . S
H1102 C1087 0.961 . S
H1103 C1087 0.961 . S
H1104 C1088 0.931 . S
H1105 C1093 0.930 . S
H1106 C1094 0.956 . S
H1107 C1094 0.961 . S
H1108 C1094 0.961 . S
H1109 C1095 0.958 . S
H1110 C1095 0.961 . S
H1111 C1095 0.960 . S
C1112 C1113 1.391 . S
C1112 C1114 1.394 . S
C1112 H1128 0.931 . S
C1113 C1112 1.391 . S
C1113 C1117 1.376 . S
C1114 C1112 1.394 . S
C1114 C1115 1.369 . S
C1114 C1118 1.531 . S
C1115 C1114 1.369 . S
C1115 C1116 1.410 . S
C1115 C1123 1.503 . S
C1116 C1115 1.410 . S
C1116 C1117 1.392 . S
C1116 C1119 1.511 . S
C1117 C1113 1.376 . S
C1117 C1116 1.392 . S
C1117 H1129 0.929 . S
C1118 C1114 1.531 . S
C1118 H1130 0.960 . S
C1118 H1131 0.962 . S
C1118 H1132 0.960 . S
C1119 C1116 1.511 . S
C1119 H1133 0.961 . S
C1119 H1134 0.961 . S
C1119 H1135 0.961 . S
C1120 C1121 1.370 . S
C1120 C1122 1.363 . S
C1120 H1136 0.931 . S
C1121 C1120 1.370 . S
C1121 C1125 1.408 . S
C1122 C1120 1.363 . S
C1122 C1123 1.370 . S
C1122 C1126 1.524 . S
C1123 C1115 1.503 . S
C1123 C1122 1.370 . S
C1123 C1124 1.403 . S
C1124 C1123 1.403 . S
C1124 C1125 1.404 . S
C1124 C1127 1.539 . S
C1125 C1121 1.408 . S
C1125 C1124 1.404 . S
C1125 H1137 0.930 . S
C1126 C1122 1.524 . S
C1126 H1138 0.956 . S
C1126 H1139 0.961 . S
C1126 H1140 0.961 . S
C1127 C1124 1.539 . S
C1127 H1141 0.958 . S
C1127 H1142 0.961 . S
C1127 H1143 0.960 . S
H1128 C1112 0.931 . S
H1129 C1117 0.929 . S
H1130 C1118 0.960 . S
H1131 C1118 0.962 . S
H1132 C1118 0.960 . S
H1133 C1119 0.961 . S
H1134 C1119 0.961 . S
H1135 C1119 0.961 . S
H1136 C1120 0.931 . S
H1137 C1125 0.930 . S
H1138 C1126 0.956 . S
H1139 C1126 0.961 . S
H1140 C1126 0.961 . S
H1141 C1127 0.958 . S
H1142 C1127 0.961 . S
H1143 C1127 0.960 . S
C1144 C1145 1.391 . S
C1144 C1146 1.394 . S
C1144 H1160 0.931 . S
C1145 C1144 1.391 . S
C1145 C1149 1.376 . S
C1146 C1144 1.394 . S
C1146 C1147 1.369 . S
C1146 C1150 1.531 . S
C1147 C1146 1.369 . S
C1147 C1148 1.410 . S
C1147 C1155 1.503 . S
C1148 C1147 1.410 . S
C1148 C1149 1.392 . S
C1148 C1151 1.511 . S
C1149 C1145 1.376 . S
C1149 C1148 1.392 . S
C1149 H1161 0.929 . S
C1150 C1146 1.531 . S
C1150 H1162 0.960 . S
C1150 H1163 0.962 . S
C1150 H1164 0.960 . S
C1151 C1148 1.511 . S
C1151 H1165 0.961 . S
C1151 H1166 0.961 . S
C1151 H1167 0.961 . S
C1152 C1153 1.370 . S
C1152 C1154 1.363 . S
C1152 H1168 0.931 . S
C1153 C1152 1.370 . S
C1153 C1157 1.408 . S
C1154 C1152 1.363 . S
C1154 C1155 1.370 . S
C1154 C1158 1.524 . S
C1155 C1147 1.503 . S
C1155 C1154 1.370 . S
C1155 C1156 1.403 . S
C1156 C1155 1.403 . S
C1156 C1157 1.404 . S
C1156 C1159 1.539 . S
C1157 C1153 1.408 . S
C1157 C1156 1.404 . S
C1157 H1169 0.930 . S
C1158 C1154 1.524 . S
C1158 H1170 0.956 . S
C1158 H1171 0.961 . S
C1158 H1172 0.961 . S
C1159 C1156 1.539 . S
C1159 H1173 0.958 . S
C1159 H1174 0.961 . S
C1159 H1175 0.960 . S
H1160 C1144 0.931 . S
H1161 C1149 0.929 . S
H1162 C1150 0.960 . S
H1163 C1150 0.962 . S
H1164 C1150 0.960 . S
H1165 C1151 0.961 . S
H1166 C1151 0.961 . S
H1167 C1151 0.961 . S
H1168 C1152 0.931 . S
H1169 C1157 0.930 . S
H1170 C1158 0.956 . S
H1171 C1158 0.961 . S
H1172 C1158 0.961 . S
H1173 C1159 0.958 . S
H1174 C1159 0.961 . S
H1175 C1159 0.960 . S
C1176 C1177 1.391 . S
C1176 C1178 1.394 . S
C1176 H1192 0.931 . S
C1177 C1176 1.391 . S
C1177 C1181 1.376 . S
C1178 C1176 1.394 . S
C1178 C1179 1.369 . S
C1178 C1182 1.531 . S
C1179 C1178 1.369 . S
C1179 C1180 1.410 . S
C1179 C1187 1.503 . S
C1180 C1179 1.410 . S
C1180 C1181 1.392 . S
C1180 C1183 1.511 . S
C1181 C1177 1.376 . S
C1181 C1180 1.392 . S
C1181 H1193 0.929 . S
C1182 C1178 1.531 . S
C1182 H1194 0.960 . S
C1182 H1195 0.962 . S
C1182 H1196 0.960 . S
C1183 C1180 1.511 . S
C1183 H1197 0.961 . S
C1183 H1198 0.961 . S
C1183 H1199 0.961 . S
C1184 C1185 1.370 . S
C1184 C1186 1.363 . S
C1184 H1200 0.931 . S
C1185 C1184 1.370 . S
C1185 C1189 1.408 . S
C1186 C1184 1.363 . S
C1186 C1187 1.370 . S
C1186 C1190 1.524 . S
C1187 C1179 1.503 . S
C1187 C1186 1.370 . S
C1187 C1188 1.403 . S
C1188 C1187 1.403 . S
C1188 C1189 1.404 . S
C1188 C1191 1.539 . S
C1189 C1185 1.408 . S
C1189 C1188 1.404 . S
C1189 H1201 0.930 . S
C1190 C1186 1.524 . S
C1190 H1202 0.956 . S
C1190 H1203 0.961 . S
C1190 H1204 0.961 . S
C1191 C1188 1.539 . S
C1191 H1205 0.958 . S
C1191 H1206 0.961 . S
C1191 H1207 0.960 . S
H1192 C1176 0.931 . S
H1193 C1181 0.929 . S
H1194 C1182 0.960 . S
H1195 C1182 0.962 . S
H1196 C1182 0.960 . S
H1197 C1183 0.961 . S
H1198 C1183 0.961 . S
H1199 C1183 0.961 . S
H1200 C1184 0.931 . S
H1201 C1189 0.930 . S
H1202 C1190 0.956 . S
H1203 C1190 0.961 . S
H1204 C1190 0.961 . S
H1205 C1191 0.958 . S
H1206 C1191 0.961 . S
H1207 C1191 0.960 . S
C1208 C1209 1.391 . S
C1208 C1210 1.394 . S
C1208 H1224 0.931 . S
C1209 C1208 1.391 . S
C1209 C1213 1.376 . S
C1210 C1208 1.394 . S
C1210 C1211 1.369 . S
C1210 C1214 1.531 1_655 S
C1211 C1210 1.369 . S
C1211 C1212 1.410 . S
C1211 C1219 1.503 . S
C1212 C1211 1.410 . S
C1212 C1213 1.392 . S
C1212 C1215 1.511 . S
C1213 C1209 1.376 . S
C1213 C1212 1.392 . S
C1213 H1225 0.929 . S
C1214 C1210 1.531 1_455 S
C1214 H1226 0.960 . S
C1214 H1227 0.962 . S
C1214 H1228 0.960 . S
C1215 C1212 1.511 . S
C1215 H1229 0.961 . S
C1215 H1230 0.961 . S
C1215 H1231 0.961 1_545 S
C1216 C1217 1.370 . S
C1216 C1218 1.332 1_455 S
C1216 H1232 0.931 . S
C1217 C1216 1.370 . S
C1217 C1221 1.408 . S
C1218 C1216 1.332 1_655 S
C1218 C1219 1.377 . S
C1218 C1222 1.551 . S
C1219 C1211 1.503 . S
C1219 C1218 1.377 . S
C1219 C1220 1.403 . S
C1220 C1219 1.403 . S
C1220 C1221 1.404 1_655 S
C1220 C1223 1.539 1_545 S
C1221 C1217 1.408 . S
C1221 C1220 1.404 1_455 S
C1221 H1233 0.930 1_545 S
C1222 C1218 1.551 . S
C1222 H1234 0.947 1_655 S
C1222 H1235 0.961 . S
C1222 H1236 0.960 1_655 S
C1223 C1220 1.539 1_565 S
C1223 H1237 0.958 . S
C1223 H1238 0.961 . S
C1223 H1239 0.960 . S
H1224 C1208 0.931 . S
H1225 C1213 0.929 . S
H1226 C1214 0.960 . S
H1227 C1214 0.962 . S
H1228 C1214 0.960 . S
H1229 C1215 0.961 . S
H1230 C1215 0.961 . S
H1231 C1215 0.961 1_565 S
H1232 C1216 0.931 . S
H1233 C1221 0.930 1_565 S
H1234 C1222 0.947 1_455 S
H1235 C1222 0.961 . S
H1236 C1222 0.960 1_455 S
H1237 C1223 0.958 . S
H1238 C1223 0.961 . S
H1239 C1223 0.960 . S
C1240 C1241 1.391 . S
C1240 C1242 1.394 . S
C1240 H1256 0.931 . S
C1241 C1240 1.391 . S
C1241 C1245 1.376 . S
C1242 C1240 1.394 . S
C1242 C1243 1.369 . S
C1242 C1246 1.531 . S
C1243 C1242 1.369 . S
C1243 C1244 1.410 . S
C1243 C1251 1.503 . S
C1244 C1243 1.410 . S
C1244 C1245 1.392 . S
C1244 C1247 1.511 . S
C1245 C1241 1.376 . S
C1245 C1244 1.392 . S
C1245 H1257 0.929 . S
C1246 C1242 1.531 . S
C1246 H1258 0.960 . S
C1246 H1259 0.962 . S
C1246 H1260 0.960 . S
C1247 C1244 1.511 . S
C1247 H1261 0.961 . S
C1247 H1262 0.961 . S
C1247 H1263 0.961 . S
C1248 C1249 1.370 . S
C1248 C1250 1.363 . S
C1248 H1264 0.931 . S
C1249 C1248 1.370 . S
C1249 C1253 1.408 . S
C1250 C1248 1.363 . S
C1250 C1251 1.370 . S
C1250 C1254 1.524 . S
C1251 C1243 1.503 . S
C1251 C1250 1.370 . S
C1251 C1252 1.403 . S
C1252 C1251 1.403 . S
C1252 C1253 1.404 . S
C1252 C1255 1.539 . S
C1253 C1249 1.408 . S
C1253 C1252 1.404 . S
C1253 H1265 0.930 . S
C1254 C1250 1.524 . S
C1254 H1266 0.956 . S
C1254 H1267 0.961 . S
C1254 H1268 0.961 . S
C1255 C1252 1.539 . S
C1255 H1269 0.958 . S
C1255 H1270 0.961 . S
C1255 H1271 0.960 . S
H1256 C1240 0.931 . S
H1257 C1245 0.929 . S
H1258 C1246 0.960 . S
H1259 C1246 0.962 . S
H1260 C1246 0.960 . S
H1261 C1247 0.961 . S
H1262 C1247 0.961 . S
H1263 C1247 0.961 . S
H1264 C1248 0.931 . S
H1265 C1253 0.930 . S
H1266 C1254 0.956 . S
H1267 C1254 0.961 . S
H1268 C1254 0.961 . S
H1269 C1255 0.958 . S
H1270 C1255 0.961 . S
H1271 C1255 0.960 . S
C1272 C1273 1.391 . S
C1272 C1274 1.394 . S
C1272 H1288 0.931 . S
C1273 C1272 1.391 . S
C1273 C1277 1.376 . S
C1274 C1272 1.394 . S
C1274 C1275 1.369 . S
C1274 C1278 1.531 . S
C1275 C1274 1.369 . S
C1275 C1276 1.410 . S
C1275 C1283 1.503 . S
C1276 C1275 1.410 . S
C1276 C1277 1.392 . S
C1276 C1279 1.511 . S
C1277 C1273 1.376 . S
C1277 C1276 1.392 . S
C1277 H1289 0.929 . S
C1278 C1274 1.531 . S
C1278 H1290 0.960 . S
C1278 H1291 0.962 . S
C1278 H1292 0.960 . S
C1279 C1276 1.511 . S
C1279 H1293 0.961 . S
C1279 H1294 0.961 . S
C1279 H1295 0.961 . S
C1280 C1281 1.370 . S
C1280 C1282 1.363 . S
C1280 H1296 0.931 1_545 S
C1281 C1280 1.370 . S
C1281 C1285 1.408 . S
C1282 C1280 1.363 . S
C1282 C1283 1.370 . S
C1282 C1286 1.524 1_545 S
C1283 C1275 1.503 . S
C1283 C1282 1.370 . S
C1283 C1284 1.403 . S
C1284 C1283 1.403 . S
C1284 C1285 1.404 . S
C1284 C1287 1.539 . S
C1285 C1281 1.408 . S
C1285 C1284 1.404 . S
C1285 H1297 0.930 . S
C1286 C1282 1.524 1_565 S
C1286 H1298 0.956 . S
C1286 H1299 0.961 . S
C1286 H1300 0.961 . S
C1287 C1284 1.539 . S
C1287 H1301 0.958 . S
C1287 H1302 0.961 . S
C1287 H1303 0.960 . S
H1288 C1272 0.931 . S
H1289 C1277 0.929 . S
H1290 C1278 0.960 . S
H1291 C1278 0.962 . S
H1292 C1278 0.960 . S
H1293 C1279 0.961 . S
H1294 C1279 0.961 . S
H1295 C1279 0.961 . S
H1296 C1280 0.931 1_565 S
H1297 C1285 0.930 . S
H1298 C1286 0.956 . S
H1299 C1286 0.961 . S
H1300 C1286 0.961 . S
H1301 C1287 0.958 . S
H1302 C1287 0.961 . S
H1303 C1287 0.960 . S
C1304 C1305 1.391 . S
C1304 C1306 1.394 . S
C1304 H1320 0.931 . S
C1305 C1304 1.391 . S
C1305 C1309 1.376 . S
C1306 C1304 1.394 . S
C1306 C1307 1.369 . S
C1306 C1310 1.531 . S
C1307 C1306 1.369 . S
C1307 C1308 1.410 . S
C1307 C1315 1.503 . S
C1308 C1307 1.410 . S
C1308 C1309 1.392 . S
C1308 C1311 1.511 . S
C1309 C1305 1.376 . S
C1309 C1308 1.392 . S
C1309 H1321 0.929 . S
C1310 C1306 1.531 . S
C1310 H1322 0.960 . S
C1310 H1323 0.962 . S
C1310 H1324 0.960 . S
C1311 C1308 1.511 . S
C1311 H1325 0.961 . S
C1311 H1326 0.961 . S
C1311 H1327 0.961 . S
C1312 C1313 1.370 . S
C1312 C1314 1.363 . S
C1312 H1328 0.931 . S
C1313 C1312 1.370 . S
C1313 C1317 1.408 . S
C1314 C1312 1.363 . S
C1314 C1315 1.370 . S
C1314 C1318 1.524 . S
C1315 C1307 1.503 . S
C1315 C1314 1.370 . S
C1315 C1316 1.403 . S
C1316 C1315 1.403 . S
C1316 C1317 1.404 . S
C1316 C1319 1.539 . S
C1317 C1313 1.408 . S
C1317 C1316 1.404 . S
C1317 H1329 0.930 . S
C1318 C1314 1.524 . S
C1318 H1330 0.956 . S
C1318 H1331 0.961 . S
C1318 H1332 0.961 . S
C1319 C1316 1.539 . S
C1319 H1333 0.958 . S
C1319 H1334 0.961 . S
C1319 H1335 0.960 . S
H1320 C1304 0.931 . S
H1321 C1309 0.929 . S
H1322 C1310 0.960 . S
H1323 C1310 0.962 . S
H1324 C1310 0.960 . S
H1325 C1311 0.961 . S
H1326 C1311 0.961 . S
H1327 C1311 0.961 . S
H1328 C1312 0.931 . S
H1329 C1317 0.930 . S
H1330 C1318 0.956 . S
H1331 C1318 0.961 . S
H1332 C1318 0.961 . S
H1333 C1319 0.958 . S
H1334 C1319 0.961 . S
H1335 C1319 0.960 . S
C1336 C1337 1.391 . S
C1336 C1338 1.394 . S
C1336 H1352 0.931 . S
C1337 C1336 1.391 . S
C1337 C1341 1.399 . S
C1338 C1336 1.394 . S
C1338 C1339 1.369 . S
C1338 C1342 1.531 . S
C1339 C1338 1.369 . S
C1339 C1340 1.428 . S
C1339 C1347 1.503 . S
C1340 C1339 1.428 . S
C1340 C1341 1.393 . S
C1340 C1343 1.487 1_545 S
C1341 C1337 1.399 . S
C1341 C1340 1.393 . S
C1341 H1353 0.912 1_545 S
C1342 C1338 1.531 . S
C1342 H1354 0.960 . S
C1342 H1355 0.962 1_655 S
C1342 H1356 0.960 . S
C1343 C1340 1.487 1_565 S
C1343 H1357 0.961 . S
C1343 H1358 0.961 . S
C1343 H1359 0.961 . S
C1344 C1345 1.370 1_455 S
C1344 C1346 1.363 1_455 S
C1344 H1360 0.914 1_545 S
C1345 C1344 1.370 1_655 S
C1345 C1349 1.408 . S
C1346 C1344 1.363 1_655 S
C1346 C1347 1.370 . S
C1346 C1350 1.524 1_545 S
C1347 C1339 1.503 . S
C1347 C1346 1.370 . S
C1347 C1348 1.403 . S
C1348 C1347 1.403 . S
C1348 C1349 1.404 . S
C1348 C1351 1.539 . S
C1349 C1345 1.408 . S
C1349 C1348 1.404 . S
C1349 H1361 0.930 . S
C1350 C1346 1.524 1_565 S
C1350 H1362 0.956 1_665 S
C1350 H1363 0.961 . S
C1350 H1364 0.961 1_655 S
C1351 C1348 1.539 . S
C1351 H1365 0.958 . S
C1351 H1366 0.961 . S
C1351 H1367 0.960 . S
H1352 C1336 0.931 . S
H1353 C1341 0.912 1_565 S
H1354 C1342 0.960 . S
H1355 C1342 0.962 1_455 S
H1356 C1342 0.960 . S
H1357 C1343 0.961 . S
H1358 C1343 0.961 . S
H1359 C1343 0.961 . S
H1360 C1344 0.914 1_565 S
H1361 C1349 0.930 . S
H1362 C1350 0.956 1_445 S
H1363 C1350 0.961 . S
H1364 C1350 0.961 1_455 S
H1365 C1351 0.958 . S
H1366 C1351 0.961 . S
H1367 C1351 0.960 . S
C1368 C1369 1.391 . S
C1368 C1370 1.394 . S
C1368 H1384 0.931 . S
C1369 C1368 1.391 . S
C1369 C1373 1.376 . S
C1370 C1368 1.394 . S
C1370 C1371 1.369 . S
C1370 C1374 1.531 . S
C1371 C1370 1.369 . S
C1371 C1372 1.410 . S
C1371 C1379 1.503 . S
C1372 C1371 1.410 . S
C1372 C1373 1.392 . S
C1372 C1375 1.511 . S
C1373 C1369 1.376 . S
C1373 C1372 1.392 . S
C1373 H1385 0.929 . S
C1374 C1370 1.531 . S
C1374 H1386 0.960 . S
C1374 H1387 0.962 . S
C1374 H1388 0.960 . S
C1375 C1372 1.511 . S
C1375 H1389 0.961 . S
C1375 H1390 0.961 . S
C1375 H1391 0.961 . S
C1376 C1377 1.370 . S
C1376 C1378 1.363 . S
C1376 H1392 0.931 . S
C1377 C1376 1.370 . S
C1377 C1381 1.408 . S
C1378 C1376 1.363 . S
C1378 C1379 1.370 . S
C1378 C1382 1.524 . S
C1379 C1371 1.503 . S
C1379 C1378 1.370 . S
C1379 C1380 1.403 . S
C1380 C1379 1.403 . S
C1380 C1381 1.404 . S
C1380 C1383 1.539 . S
C1381 C1377 1.408 . S
C1381 C1380 1.404 . S
C1381 H1393 0.930 . S
C1382 C1378 1.524 . S
C1382 H1394 0.956 . S
C1382 H1395 0.961 . S
C1382 H1396 0.961 . S
C1383 C1380 1.539 . S
C1383 H1397 0.958 . S
C1383 H1398 0.961 . S
C1383 H1399 0.960 . S
H1384 C1368 0.931 . S
H1385 C1373 0.929 . S
H1386 C1374 0.960 . S
H1387 C1374 0.962 . S
H1388 C1374 0.960 . S
H1389 C1375 0.961 . S
H1390 C1375 0.961 . S
H1391 C1375 0.961 . S
H1392 C1376 0.931 . S
H1393 C1381 0.930 . S
H1394 C1382 0.956 . S
H1395 C1382 0.961 . S
H1396 C1382 0.961 . S
H1397 C1383 0.958 . S
H1398 C1383 0.961 . S
H1399 C1383 0.960 . S
C1400 C1401 1.391 . S
C1400 C1402 1.394 . S
C1400 H1416 0.931 . S
C1401 C1400 1.391 . S
C1401 C1405 1.376 . S
C1402 C1400 1.394 . S
C1402 C1403 1.369 . S
C1402 C1406 1.531 . S
C1403 C1402 1.369 . S
C1403 C1404 1.410 . S
C1403 C1411 1.503 . S
C1404 C1403 1.410 . S
C1404 C1405 1.392 . S
C1404 C1407 1.511 1_545 S
C1405 C1401 1.376 . S
C1405 C1404 1.392 . S
C1405 H1417 0.929 1_545 S
C1406 C1402 1.531 . S
C1406 H1418 0.960 . S
C1406 H1419 0.962 . S
C1406 H1420 0.960 . S
C1407 C1404 1.511 1_565 S
C1407 H1421 0.961 . S
C1407 H1422 0.961 . S
C1407 H1423 0.961 . S
C1408 C1409 1.370 . S
C1408 C1410 1.363 . S
C1408 H1424 0.931 . S
C1409 C1408 1.370 . S
C1409 C1413 1.408 . S
C1410 C1408 1.363 . S
C1410 C1411 1.370 . S
C1410 C1414 1.524 . S
C1411 C1403 1.503 . S
C1411 C1410 1.370 . S
C1411 C1412 1.403 . S
C1412 C1411 1.403 . S
C1412 C1413 1.404 . S
C1412 C1415 1.539 . S
C1413 C1409 1.408 . S
C1413 C1412 1.404 . S
C1413 H1425 0.930 . S
C1414 C1410 1.524 . S
C1414 H1426 0.956 . S
C1414 H1427 0.961 . S
C1414 H1428 0.961 . S
C1415 C1412 1.539 . S
C1415 H1429 0.958 . S
C1415 H1430 0.961 . S
C1415 H1431 0.960 . S
H1416 C1400 0.931 . S
H1417 C1405 0.929 1_565 S
H1418 C1406 0.960 . S
H1419 C1406 0.962 . S
H1420 C1406 0.960 . S
H1421 C1407 0.961 . S
H1422 C1407 0.961 . S
H1423 C1407 0.961 . S
H1424 C1408 0.931 . S
H1425 C1413 0.930 . S
H1426 C1414 0.956 . S
H1427 C1414 0.961 . S
H1428 C1414 0.961 . S
H1429 C1415 0.958 . S
H1430 C1415 0.961 . S
H1431 C1415 0.960 . S
C1432 C1433 1.391 . S
C1432 C1434 1.394 . S
C1432 H1448 0.931 . S
C1433 C1432 1.391 . S
C1433 C1437 1.376 . S
C1434 C1432 1.394 . S
C1434 C1435 1.369 . S
C1434 C1438 1.531 . S
C1435 C1434 1.369 . S
C1435 C1436 1.410 . S
C1435 C1443 1.503 . S
C1436 C1435 1.410 . S
C1436 C1437 1.392 . S
C1436 C1439 1.511 . S
C1437 C1433 1.376 . S
C1437 C1436 1.392 . S
C1437 H1449 0.929 . S
C1438 C1434 1.531 . S
C1438 H1450 0.960 . S
C1438 H1451 0.962 . S
C1438 H1452 0.960 . S
C1439 C1436 1.511 . S
C1439 H1453 0.961 . S
C1439 H1454 0.961 . S
C1439 H1455 0.961 . S
C1440 C1441 1.370 . S
C1440 C1442 1.363 . S
C1440 H1456 0.931 . S
C1441 C1440 1.370 . S
C1441 C1445 1.408 . S
C1442 C1440 1.363 . S
C1442 C1443 1.370 . S
C1442 C1446 1.524 . S
C1443 C1435 1.503 . S
C1443 C1442 1.370 . S
C1443 C1444 1.403 . S
C1444 C1443 1.403 . S
C1444 C1445 1.404 . S
C1444 C1447 1.539 . S
C1445 C1441 1.408 . S
C1445 C1444 1.404 . S
C1445 H1457 0.930 . S
C1446 C1442 1.524 . S
C1446 H1458 0.956 . S
C1446 H1459 0.961 . S
C1446 H1460 0.961 . S
C1447 C1444 1.539 . S
C1447 H1461 0.958 . S
C1447 H1462 0.961 . S
C1447 H1463 0.960 . S
H1448 C1432 0.931 . S
H1449 C1437 0.929 . S
H1450 C1438 0.960 . S
H1451 C1438 0.962 . S
H1452 C1438 0.960 . S
H1453 C1439 0.961 . S
H1454 C1439 0.961 . S
H1455 C1439 0.961 . S
H1456 C1440 0.931 . S
H1457 C1445 0.930 . S
H1458 C1446 0.956 . S
H1459 C1446 0.961 . S
H1460 C1446 0.961 . S
H1461 C1447 0.958 . S
H1462 C1447 0.961 . S
H1463 C1447 0.960 . S
C1464 C1465 1.391 . S
C1464 C1466 1.394 . S
C1464 H1480 0.931 1_564 S
C1465 C1464 1.391 . S
C1465 C1469 1.376 . S
C1466 C1464 1.394 . S
C1466 C1467 1.369 . S
C1466 C1470 1.531 1_565 S
C1467 C1466 1.369 . S
C1467 C1468 1.410 . S
C1467 C1475 1.503 . S
C1468 C1467 1.410 . S
C1468 C1469 1.392 . S
C1468 C1471 1.511 . S
C1469 C1465 1.376 . S
C1469 C1468 1.392 . S
C1469 H1481 0.929 . S
C1470 C1466 1.531 1_545 S
C1470 H1482 0.960 . S
C1470 H1483 0.962 . S
C1470 H1484 0.960 1_554 S
C1471 C1468 1.511 . S
C1471 H1485 0.961 . S
C1471 H1486 0.961 . S
C1471 H1487 0.961 . S
C1472 C1473 1.370 . S
C1472 C1474 1.363 . S
C1472 H1488 0.931 . S
C1473 C1472 1.370 . S
C1473 C1477 1.408 1_545 S
C1474 C1472 1.363 . S
C1474 C1475 1.370 1_545 S
C1474 C1478 1.524 . S
C1475 C1467 1.503 . S
C1475 C1474 1.370 1_565 S
C1475 C1476 1.403 . S
C1476 C1475 1.403 . S
C1476 C1477 1.404 . S
C1476 C1479 1.565 . S
C1477 C1473 1.408 1_565 S
C1477 C1476 1.404 . S
C1477 H1489 0.930 . S
C1478 C1474 1.524 . S
C1478 H1490 0.956 . S
C1478 H1491 0.961 1_545 S
C1478 H1492 0.961 . S
C1479 C1476 1.565 . S
C1479 H1493 0.937 1_554 S
C1479 H1494 0.965 1_554 S
C1479 H1495 0.954 1_554 S
H1480 C1464 0.931 1_546 S
H1481 C1469 0.929 . S
H1482 C1470 0.960 . S
H1483 C1470 0.962 . S
H1484 C1470 0.960 1_556 S
H1485 C1471 0.961 . S
H1486 C1471 0.961 . S
H1487 C1471 0.961 . S
H1488 C1472 0.931 . S
H1489 C1477 0.930 . S
H1490 C1478 0.956 . S
H1491 C1478 0.961 1_565 S
H1492 C1478 0.961 . S
H1493 C1479 0.937 1_556 S
H1494 C1479 0.965 1_556 S
H1495 C1479 0.954 1_556 S
C1496 C1497 1.391 . S
C1496 C1498 1.394 . S
C1496 H1512 0.931 1_554 S
C1497 C1496 1.391 . S
C1497 C1501 1.376 . S
C1498 C1496 1.394 . S
C1498 C1499 1.369 . S
C1498 C1502 1.531 1_554 S
C1499 C1498 1.369 . S
C1499 C1500 1.410 . S
C1499 C1507 1.503 . S
C1500 C1499 1.410 . S
C1500 C1501 1.392 . S
C1500 C1503 1.511 . S
C1501 C1497 1.376 . S
C1501 C1500 1.392 . S
C1501 H1513 0.929 . S
C1502 C1498 1.531 1_556 S
C1502 H1514 0.960 . S
C1502 H1515 0.962 . S
C1502 H1516 0.960 . S
C1503 C1500 1.511 . S
C1503 H1517 0.961 . S
C1503 H1518 0.961 . S
C1503 H1519 0.961 . S
C1504 C1505 1.370 . S
C1504 C1506 1.363 . S
C1504 H1520 0.931 . S
C1505 C1504 1.370 . S
C1505 C1509 1.408 . S
C1506 C1504 1.363 . S
C1506 C1507 1.370 . S
C1506 C1510 1.524 . S
C1507 C1499 1.503 . S
C1507 C1506 1.370 . S
C1507 C1508 1.403 . S
C1508 C1507 1.403 . S
C1508 C1509 1.404 . S
C1508 C1511 1.539 . S
C1509 C1505 1.408 . S
C1509 C1508 1.404 . S
C1509 H1521 0.930 . S
C1510 C1506 1.524 . S
C1510 H1522 0.956 . S
C1510 H1523 0.961 . S
C1510 H1524 0.961 . S
C1511 C1508 1.539 . S
C1511 H1525 0.958 . S
C1511 H1526 0.961 . S
C1511 H1527 0.960 . S
H1512 C1496 0.931 1_556 S
H1513 C1501 0.929 . S
H1514 C1502 0.960 . S
H1515 C1502 0.962 . S
H1516 C1502 0.960 . S
H1517 C1503 0.961 . S
H1518 C1503 0.961 . S
H1519 C1503 0.961 . S
H1520 C1504 0.931 . S
H1521 C1509 0.930 . S
H1522 C1510 0.956 . S
H1523 C1510 0.961 . S
H1524 C1510 0.961 . S
H1525 C1511 0.958 . S
H1526 C1511 0.961 . S
H1527 C1511 0.960 . S
C1528 C1529 1.391 . S
C1528 C1530 1.394 . S
C1528 H1544 0.931 . S
C1529 C1528 1.391 . S
C1529 C1533 1.376 . S
C1530 C1528 1.394 . S
C1530 C1531 1.369 . S
C1530 C1534 1.531 . S
C1531 C1530 1.369 . S
C1531 C1532 1.410 . S
C1531 C1539 1.503 . S
C1532 C1531 1.410 . S
C1532 C1533 1.392 . S
C1532 C1535 1.511 . S
C1533 C1529 1.376 . S
C1533 C1532 1.392 . S
C1533 H1545 0.929 . S
C1534 C1530 1.531 . S
C1534 H1546 0.960 . S
C1534 H1547 0.962 . S
C1534 H1548 0.960 . S
C1535 C1532 1.511 . S
C1535 H1549 0.961 . S
C1535 H1550 0.961 . S
C1535 H1551 0.961 . S
C1536 C1537 1.370 . S
C1536 C1538 1.363 . S
C1536 H1552 0.931 . S
C1537 C1536 1.370 . S
C1537 C1541 1.408 . S
C1538 C1536 1.363 . S
C1538 C1539 1.370 . S
C1538 C1542 1.524 . S
C1539 C1531 1.503 . S
C1539 C1538 1.370 . S
C1539 C1540 1.403 . S
C1540 C1539 1.403 . S
C1540 C1541 1.404 . S
C1540 C1543 1.539 . S
C1541 C1537 1.408 . S
C1541 C1540 1.404 . S
C1541 H1553 0.930 . S
C1542 C1538 1.524 . S
C1542 H1554 0.956 . S
C1542 H1555 0.961 . S
C1542 H1556 0.961 . S
C1543 C1540 1.539 . S
C1543 H1557 0.958 . S
C1543 H1558 0.961 . S
C1543 H1559 0.960 . S
H1544 C1528 0.931 . S
H1545 C1533 0.929 . S
H1546 C1534 0.960 . S
H1547 C1534 0.962 . S
H1548 C1534 0.960 . S
H1549 C1535 0.961 . S
H1550 C1535 0.961 . S
H1551 C1535 0.961 . S
H1552 C1536 0.931 . S
H1553 C1541 0.930 . S
H1554 C1542 0.956 . S
H1555 C1542 0.961 . S
H1556 C1542 0.961 . S
H1557 C1543 0.958 . S
H1558 C1543 0.961 . S
H1559 C1543 0.960 . S
C1560 C1561 1.391 . S
C1560 C1562 1.394 . S
C1560 H1576 0.931 . S
C1561 C1560 1.391 . S
C1561 C1565 1.376 . S
C1562 C1560 1.394 . S
C1562 C1563 1.369 . S
C1562 C1566 1.531 . S
C1563 C1562 1.369 . S
C1563 C1564 1.410 . S
C1563 C1571 1.503 . S
C1564 C1563 1.410 . S
C1564 C1565 1.392 . S
C1564 C1567 1.511 . S
C1565 C1561 1.376 . S
C1565 C1564 1.392 . S
C1565 H1577 0.929 . S
C1566 C1562 1.531 . S
C1566 H1578 0.960 . S
C1566 H1579 0.962 . S
C1566 H1580 0.960 . S
C1567 C1564 1.511 . S
C1567 H1581 0.961 . S
C1567 H1582 0.961 . S
C1567 H1583 0.961 . S
C1568 C1569 1.370 . S
C1568 C1570 1.363 . S
C1568 H1584 0.931 . S
C1569 C1568 1.370 . S
C1569 C1573 1.408 . S
C1570 C1568 1.363 . S
C1570 C1571 1.370 . S
C1570 C1574 1.524 . S
C1571 C1563 1.503 . S
C1571 C1570 1.370 . S
C1571 C1572 1.403 . S
C1572 C1571 1.403 . S
C1572 C1573 1.404 . S
C1572 C1575 1.539 . S
C1573 C1569 1.408 . S
C1573 C1572 1.404 . S
C1573 H1585 0.930 . S
C1574 C1570 1.524 . S
C1574 H1586 0.956 . S
C1574 H1587 0.961 . S
C1574 H1588 0.961 . S
C1575 C1572 1.539 . S
C1575 H1589 0.958 . S
C1575 H1590 0.961 . S
C1575 H1591 0.960 . S
H1576 C1560 0.931 . S
H1577 C1565 0.929 . S
H1578 C1566 0.960 . S
H1579 C1566 0.962 . S
H1580 C1566 0.960 . S
H1581 C1567 0.961 . S
H1582 C1567 0.961 . S
H1583 C1567 0.961 . S
H1584 C1568 0.931 . S
H1585 C1573 0.930 . S
H1586 C1574 0.956 . S
H1587 C1574 0.961 . S
H1588 C1574 0.961 . S
H1589 C1575 0.958 . S
H1590 C1575 0.961 . S
H1591 C1575 0.960 . S
C1592 C1593 1.391 . S
C1592 C1594 1.394 . S
C1592 H1608 0.931 . S
C1593 C1592 1.391 . S
C1593 C1597 1.376 . S
C1594 C1592 1.394 . S
C1594 C1595 1.369 . S
C1594 C1598 1.531 . S
C1595 C1594 1.369 . S
C1595 C1596 1.410 . S
C1595 C1603 1.503 . S
C1596 C1595 1.410 . S
C1596 C1597 1.392 . S
C1596 C1599 1.511 . S
C1597 C1593 1.376 . S
C1597 C1596 1.392 . S
C1597 H1609 0.929 . S
C1598 C1594 1.531 . S
C1598 H1610 0.960 . S
C1598 H1611 0.962 . S
C1598 H1612 0.960 . S
C1599 C1596 1.511 . S
C1599 H1613 0.961 . S
C1599 H1614 0.961 . S
C1599 H1615 0.961 . S
C1600 C1601 1.370 . S
C1600 C1602 1.363 . S
C1600 H1616 0.931 . S
C1601 C1600 1.370 . S
C1601 C1605 1.408 . S
C1602 C1600 1.363 . S
C1602 C1603 1.370 . S
C1602 C1606 1.524 . S
C1603 C1595 1.503 . S
C1603 C1602 1.370 . S
C1603 C1604 1.403 . S
C1604 C1603 1.403 . S
C1604 C1605 1.404 . S
C1604 C1607 1.539 . S
C1605 C1601 1.408 . S
C1605 C1604 1.404 . S
C1605 H1617 0.930 . S
C1606 C1602 1.524 . S
C1606 H1618 0.956 . S
C1606 H1619 0.961 . S
C1606 H1620 0.961 . S
C1607 C1604 1.539 . S
C1607 H1621 0.958 . S
C1607 H1622 0.961 . S
C1607 H1623 0.960 . S
H1608 C1592 0.931 . S
H1609 C1597 0.929 . S
H1610 C1598 0.960 . S
H1611 C1598 0.962 . S
H1612 C1598 0.960 . S
H1613 C1599 0.961 . S
H1614 C1599 0.961 . S
H1615 C1599 0.961 . S
H1616 C1600 0.931 . S
H1617 C1605 0.930 . S
H1618 C1606 0.956 . S
H1619 C1606 0.961 . S
H1620 C1606 0.961 . S
H1621 C1607 0.958 . S
H1622 C1607 0.961 . S
H1623 C1607 0.960 . S
C1624 C1625 1.391 . S
C1624 C1626 1.394 . S
C1624 H1640 0.931 . S
C1625 C1624 1.391 . S
C1625 C1629 1.376 . S
C1626 C1624 1.394 . S
C1626 C1627 1.369 . S
C1626 C1630 1.531 . S
C1627 C1626 1.369 . S
C1627 C1628 1.410 . S
C1627 C1635 1.503 . S
C1628 C1627 1.410 . S
C1628 C1629 1.392 . S
C1628 C1631 1.511 . S
C1629 C1625 1.376 . S
C1629 C1628 1.392 . S
C1629 H1641 0.929 . S
C1630 C1626 1.531 . S
C1630 H1642 0.960 . S
C1630 H1643 0.962 . S
C1630 H1644 0.960 . S
C1631 C1628 1.511 . S
C1631 H1645 0.961 . S
C1631 H1646 0.961 . S
C1631 H1647 0.961 . S
C1632 C1633 1.370 . S
C1632 C1634 1.363 . S
C1632 H1648 0.931 . S
C1633 C1632 1.370 . S
C1633 C1637 1.408 . S
C1634 C1632 1.363 . S
C1634 C1635 1.370 . S
C1634 C1638 1.524 . S
C1635 C1627 1.503 . S
C1635 C1634 1.370 . S
C1635 C1636 1.403 . S
C1636 C1635 1.403 . S
C1636 C1637 1.404 . S
C1636 C1639 1.539 . S
C1637 C1633 1.408 . S
C1637 C1636 1.404 . S
C1637 H1649 0.930 . S
C1638 C1634 1.524 . S
C1638 H1650 0.956 . S
C1638 H1651 0.961 . S
C1638 H1652 0.961 . S
C1639 C1636 1.539 . S
C1639 H1653 0.958 . S
C1639 H1654 0.961 . S
C1639 H1655 0.960 . S
H1640 C1624 0.931 . S
H1641 C1629 0.929 . S
H1642 C1630 0.960 . S
H1643 C1630 0.962 . S
H1644 C1630 0.960 . S
H1645 C1631 0.961 . S
H1646 C1631 0.961 . S
H1647 C1631 0.961 . S
H1648 C1632 0.931 . S
H1649 C1637 0.930 . S
H1650 C1638 0.956 . S
H1651 C1638 0.961 . S
H1652 C1638 0.961 . S
H1653 C1639 0.958 . S
H1654 C1639 0.961 . S
H1655 C1639 0.960 . S
C1656 C1657 1.391 . S
C1656 C1658 1.394 . S
C1656 H1672 0.931 . S
C1657 C1656 1.391 . S
C1657 C1661 1.376 . S
C1658 C1656 1.394 . S
C1658 C1659 1.369 . S
C1658 C1662 1.531 . S
C1659 C1658 1.369 . S
C1659 C1660 1.410 . S
C1659 C1667 1.503 . S
C1660 C1659 1.410 . S
C1660 C1661 1.392 . S
C1660 C1663 1.511 . S
C1661 C1657 1.376 . S
C1661 C1660 1.392 . S
C1661 H1673 0.929 . S
C1662 C1658 1.531 . S
C1662 H1674 0.960 . S
C1662 H1675 0.962 . S
C1662 H1676 0.960 . S
C1663 C1660 1.511 . S
C1663 H1677 0.961 . S
C1663 H1678 0.961 . S
C1663 H1679 0.961 . S
C1664 C1665 1.370 . S
C1664 C1666 1.363 . S
C1664 H1680 0.931 . S
C1665 C1664 1.370 . S
C1665 C1669 1.408 . S
C1666 C1664 1.363 . S
C1666 C1667 1.370 . S
C1666 C1670 1.524 . S
C1667 C1659 1.503 . S
C1667 C1666 1.370 . S
C1667 C1668 1.403 . S
C1668 C1667 1.403 . S
C1668 C1669 1.404 . S
C1668 C1671 1.539 . S
C1669 C1665 1.408 . S
C1669 C1668 1.404 . S
C1669 H1681 0.930 . S
C1670 C1666 1.524 . S
C1670 H1682 0.956 . S
C1670 H1683 0.961 . S
C1670 H1684 0.961 . S
C1671 C1668 1.539 . S
C1671 H1685 0.958 . S
C1671 H1686 0.961 . S
C1671 H1687 0.960 . S
H1672 C1656 0.931 . S
H1673 C1661 0.929 . S
H1674 C1662 0.960 . S
H1675 C1662 0.962 . S
H1676 C1662 0.960 . S
H1677 C1663 0.961 . S
H1678 C1663 0.961 . S
H1679 C1663 0.961 . S
H1680 C1664 0.931 . S
H1681 C1669 0.930 . S
H1682 C1670 0.956 . S
H1683 C1670 0.961 . S
H1684 C1670 0.961 . S
H1685 C1671 0.958 . S
H1686 C1671 0.961 . S
H1687 C1671 0.960 . S
C1688 C1689 1.391 . S
C1688 C1690 1.394 . S
C1688 H1704 0.931 . S
C1689 C1688 1.391 . S
C1689 C1693 1.376 . S
C1690 C1688 1.394 . S
C1690 C1691 1.369 . S
C1690 C1694 1.531 . S
C1691 C1690 1.369 . S
C1691 C1692 1.410 . S
C1691 C1699 1.503 . S
C1692 C1691 1.410 . S
C1692 C1693 1.392 . S
C1692 C1695 1.511 . S
C1693 C1689 1.376 . S
C1693 C1692 1.392 . S
C1693 H1705 0.929 . S
C1694 C1690 1.531 . S
C1694 H1706 0.960 . S
C1694 H1707 0.962 . S
C1694 H1708 0.960 . S
C1695 C1692 1.511 . S
C1695 H1709 0.961 . S
C1695 H1710 0.961 . S
C1695 H1711 0.961 . S
C1696 C1697 1.370 . S
C1696 C1698 1.363 . S
C1696 H1712 0.931 . S
C1697 C1696 1.370 . S
C1697 C1701 1.408 . S
C1698 C1696 1.363 . S
C1698 C1699 1.370 . S
C1698 C1702 1.524 . S
C1699 C1691 1.503 . S
C1699 C1698 1.370 . S
C1699 C1700 1.403 . S
C1700 C1699 1.403 . S
C1700 C1701 1.404 . S
C1700 C1703 1.539 . S
C1701 C1697 1.408 . S
C1701 C1700 1.404 . S
C1701 H1713 0.930 . S
C1702 C1698 1.524 . S
C1702 H1714 0.956 . S
C1702 H1715 0.961 . S
C1702 H1716 0.961 . S
C1703 C1700 1.539 . S
C1703 H1717 0.958 . S
C1703 H1718 0.961 . S
C1703 H1719 0.960 . S
H1704 C1688 0.931 . S
H1705 C1693 0.929 . S
H1706 C1694 0.960 . S
H1707 C1694 0.962 . S
H1708 C1694 0.960 . S
H1709 C1695 0.961 . S
H1710 C1695 0.961 . S
H1711 C1695 0.961 . S
H1712 C1696 0.931 . S
H1713 C1701 0.930 . S
H1714 C1702 0.956 . S
H1715 C1702 0.961 . S
H1716 C1702 0.961 . S
H1717 C1703 0.958 . S
H1718 C1703 0.961 . S
H1719 C1703 0.960 . S
C1720 C1721 1.391 . S
C1720 C1722 1.394 . S
C1720 H1736 0.931 . S
C1721 C1720 1.391 . S
C1721 C1725 1.376 . S
C1722 C1720 1.394 . S
C1722 C1723 1.369 . S
C1722 C1726 1.531 . S
C1723 C1722 1.369 . S
C1723 C1724 1.410 . S
C1723 C1731 1.503 . S
C1724 C1723 1.410 . S
C1724 C1725 1.392 . S
C1724 C1727 1.511 . S
C1725 C1721 1.376 . S
C1725 C1724 1.392 . S
C1725 H1737 0.929 . S
C1726 C1722 1.531 . S
C1726 H1738 0.960 . S
C1726 H1739 0.962 . S
C1726 H1740 0.960 . S
C1727 C1724 1.511 . S
C1727 H1741 0.961 . S
C1727 H1742 0.961 . S
C1727 H1743 0.961 . S
C1728 C1729 1.370 . S
C1728 C1730 1.363 . S
C1728 H1744 0.931 . S
C1729 C1728 1.370 . S
C1729 C1733 1.408 . S
C1730 C1728 1.363 . S
C1730 C1731 1.370 . S
C1730 C1734 1.524 . S
C1731 C1723 1.503 . S
C1731 C1730 1.370 . S
C1731 C1732 1.403 . S
C1732 C1731 1.403 . S
C1732 C1733 1.404 . S
C1732 C1735 1.539 . S
C1733 C1729 1.408 . S
C1733 C1732 1.404 . S
C1733 H1745 0.930 . S
C1734 C1730 1.524 . S
C1734 H1746 0.956 . S
C1734 H1747 0.961 . S
C1734 H1748 0.961 . S
C1735 C1732 1.539 . S
C1735 H1749 0.958 . S
C1735 H1750 0.961 . S
C1735 H1751 0.960 . S
H1736 C1720 0.931 . S
H1737 C1725 0.929 . S
H1738 C1726 0.960 . S
H1739 C1726 0.962 . S
H1740 C1726 0.960 . S
H1741 C1727 0.961 . S
H1742 C1727 0.961 . S
H1743 C1727 0.961 . S
H1744 C1728 0.931 . S
H1745 C1733 0.930 . S
H1746 C1734 0.956 . S
H1747 C1734 0.961 . S
H1748 C1734 0.961 . S
H1749 C1735 0.958 . S
H1750 C1735 0.961 . S
H1751 C1735 0.960 . S
C1752 C1753 1.391 . S
C1752 C1754 1.394 . S
C1752 H1768 0.931 . S
C1753 C1752 1.391 . S
C1753 C1757 1.376 . S
C1754 C1752 1.394 . S
C1754 C1755 1.369 . S
C1754 C1758 1.531 . S
C1755 C1754 1.369 . S
C1755 C1756 1.410 . S
C1755 C1763 1.503 . S
C1756 C1755 1.410 . S
C1756 C1757 1.392 . S
C1756 C1759 1.511 . S
C1757 C1753 1.376 . S
C1757 C1756 1.392 . S
C1757 H1769 0.929 . S
C1758 C1754 1.531 . S
C1758 H1770 0.960 . S
C1758 H1771 0.962 . S
C1758 H1772 0.960 . S
C1759 C1756 1.511 . S
C1759 H1773 0.961 . S
C1759 H1774 0.961 . S
C1759 H1775 0.961 . S
C1760 C1761 1.370 . S
C1760 C1762 1.363 . S
C1760 H1776 0.931 . S
C1761 C1760 1.370 . S
C1761 C1765 1.408 . S
C1762 C1760 1.363 . S
C1762 C1763 1.370 . S
C1762 C1766 1.524 . S
C1763 C1755 1.503 . S
C1763 C1762 1.370 . S
C1763 C1764 1.403 . S
C1764 C1763 1.403 . S
C1764 C1765 1.404 . S
C1764 C1767 1.539 . S
C1765 C1761 1.408 . S
C1765 C1764 1.404 . S
C1765 H1777 0.930 . S
C1766 C1762 1.524 . S
C1766 H1778 0.956 . S
C1766 H1779 0.961 . S
C1766 H1780 0.961 . S
C1767 C1764 1.539 . S
C1767 H1781 0.958 . S
C1767 H1782 0.961 . S
C1767 H1783 0.960 . S
H1768 C1752 0.931 . S
H1769 C1757 0.929 . S
H1770 C1758 0.960 . S
H1771 C1758 0.962 . S
H1772 C1758 0.960 . S
H1773 C1759 0.961 . S
H1774 C1759 0.961 . S
H1775 C1759 0.961 . S
H1776 C1760 0.931 . S
H1777 C1765 0.930 . S
H1778 C1766 0.956 . S
H1779 C1766 0.961 . S
H1780 C1766 0.961 . S
H1781 C1767 0.958 . S
H1782 C1767 0.961 . S
H1783 C1767 0.960 . S
C1784 C1785 1.391 . S
C1784 C1786 1.394 . S
C1784 H1800 0.931 . S
C1785 C1784 1.391 . S
C1785 C1789 1.376 . S
C1786 C1784 1.394 . S
C1786 C1787 1.369 . S
C1786 C1790 1.531 . S
C1787 C1786 1.369 . S
C1787 C1788 1.410 . S
C1787 C1795 1.503 . S
C1788 C1787 1.410 . S
C1788 C1789 1.392 . S
C1788 C1791 1.511 . S
C1789 C1785 1.376 . S
C1789 C1788 1.392 . S
C1789 H1801 0.929 . S
C1790 C1786 1.531 . S
C1790 H1802 0.960 . S
C1790 H1803 0.962 . S
C1790 H1804 0.960 . S
C1791 C1788 1.511 . S
C1791 H1805 0.961 . S
C1791 H1806 0.961 . S
C1791 H1807 0.961 . S
C1792 C1793 1.370 . S
C1792 C1794 1.363 . S
C1792 H1808 0.931 . S
C1793 C1792 1.370 . S
C1793 C1797 1.408 . S
C1794 C1792 1.363 . S
C1794 C1795 1.370 . S
C1794 C1798 1.524 . S
C1795 C1787 1.503 . S
C1795 C1794 1.370 . S
C1795 C1796 1.403 . S
C1796 C1795 1.403 . S
C1796 C1797 1.404 . S
C1796 C1799 1.539 . S
C1797 C1793 1.408 . S
C1797 C1796 1.404 . S
C1797 H1809 0.930 . S
C1798 C1794 1.524 . S
C1798 H1810 0.956 . S
C1798 H1811 0.961 . S
C1798 H1812 0.961 . S
C1799 C1796 1.539 . S
C1799 H1813 0.958 . S
C1799 H1814 0.961 . S
C1799 H1815 0.960 . S
H1800 C1784 0.931 . S
H1801 C1789 0.929 . S
H1802 C1790 0.960 . S
H1803 C1790 0.962 . S
H1804 C1790 0.960 . S
H1805 C1791 0.961 . S
H1806 C1791 0.961 . S
H1807 C1791 0.961 . S
H1808 C1792 0.931 . S
H1809 C1797 0.930 . S
H1810 C1798 0.956 . S
H1811 C1798 0.961 . S
H1812 C1798 0.961 . S
H1813 C1799 0.958 . S
H1814 C1799 0.961 . S
H1815 C1799 0.960 . S
C1816 C1817 1.391 . S
C1816 C1818 1.394 . S
C1816 H1832 0.931 . S
C1817 C1816 1.391 . S
C1817 C1821 1.376 . S
C1818 C1816 1.394 . S
C1818 C1819 1.369 . S
C1818 C1822 1.531 . S
C1819 C1818 1.369 . S
C1819 C1820 1.410 . S
C1819 C1827 1.503 . S
C1820 C1819 1.410 . S
C1820 C1821 1.392 . S
C1820 C1823 1.511 . S
C1821 C1817 1.376 . S
C1821 C1820 1.392 . S
C1821 H1833 0.929 . S
C1822 C1818 1.531 . S
C1822 H1834 0.960 . S
C1822 H1835 0.962 . S
C1822 H1836 0.960 . S
C1823 C1820 1.511 . S
C1823 H1837 0.961 . S
C1823 H1838 0.961 . S
C1823 H1839 0.961 . S
C1824 C1825 1.370 . S
C1824 C1826 1.363 . S
C1824 H1840 0.931 . S
C1825 C1824 1.370 . S
C1825 C1829 1.408 . S
C1826 C1824 1.363 . S
C1826 C1827 1.370 . S
C1826 C1830 1.524 . S
C1827 C1819 1.503 . S
C1827 C1826 1.370 . S
C1827 C1828 1.403 . S
C1828 C1827 1.403 . S
C1828 C1829 1.404 . S
C1828 C1831 1.539 . S
C1829 C1825 1.408 . S
C1829 C1828 1.404 . S
C1829 H1841 0.930 . S
C1830 C1826 1.524 . S
C1830 H1842 0.956 . S
C1830 H1843 0.961 . S
C1830 H1844 0.961 . S
C1831 C1828 1.539 . S
C1831 H1845 0.958 . S
C1831 H1846 0.961 . S
C1831 H1847 0.960 . S
H1832 C1816 0.931 . S
H1833 C1821 0.929 . S
H1834 C1822 0.960 . S
H1835 C1822 0.962 . S
H1836 C1822 0.960 . S
H1837 C1823 0.961 . S
H1838 C1823 0.961 . S
H1839 C1823 0.961 . S
H1840 C1824 0.931 . S
H1841 C1829 0.930 . S
H1842 C1830 0.956 . S
H1843 C1830 0.961 . S
H1844 C1830 0.961 . S
H1845 C1831 0.958 . S
H1846 C1831 0.961 . S
H1847 C1831 0.960 . S
C1848 C1849 1.391 . S
C1848 C1850 1.394 . S
C1848 H1864 0.931 . S
C1849 C1848 1.391 . S
C1849 C1853 1.376 . S
C1850 C1848 1.394 . S
C1850 C1851 1.369 . S
C1850 C1854 1.531 . S
C1851 C1850 1.369 . S
C1851 C1852 1.410 . S
C1851 C1859 1.503 . S
C1852 C1851 1.410 . S
C1852 C1853 1.392 . S
C1852 C1855 1.511 . S
C1853 C1849 1.376 . S
C1853 C1852 1.392 . S
C1853 H1865 0.929 . S
C1854 C1850 1.531 . S
C1854 H1866 0.960 . S
C1854 H1867 0.962 . S
C1854 H1868 0.960 . S
C1855 C1852 1.511 . S
C1855 H1869 0.961 . S
C1855 H1870 0.961 . S
C1855 H1871 0.961 . S
C1856 C1857 1.370 . S
C1856 C1858 1.363 . S
C1856 H1872 0.931 1_455 S
C1857 C1856 1.370 . S
C1857 C1861 1.408 . S
C1858 C1856 1.363 . S
C1858 C1859 1.370 . S
C1858 C1862 1.524 1_455 S
C1859 C1851 1.503 . S
C1859 C1858 1.370 . S
C1859 C1860 1.403 . S
C1860 C1859 1.403 . S
C1860 C1861 1.404 . S
C1860 C1863 1.539 . S
C1861 C1857 1.408 . S
C1861 C1860 1.404 . S
C1861 H1873 0.930 . S
C1862 C1858 1.524 1_655 S
C1862 H1874 0.956 . S
C1862 H1875 0.961 . S
C1862 H1876 0.961 . S
C1863 C1860 1.539 . S
C1863 H1877 0.958 . S
C1863 H1878 0.961 . S
C1863 H1879 0.960 . S
H1864 C1848 0.931 . S
H1865 C1853 0.929 . S
H1866 C1854 0.960 . S
H1867 C1854 0.962 . S
H1868 C1854 0.960 . S
H1869 C1855 0.961 . S
H1870 C1855 0.961 . S
H1871 C1855 0.961 . S
H1872 C1856 0.931 1_655 S
H1873 C1861 0.930 . S
H1874 C1862 0.956 . S
H1875 C1862 0.961 . S
H1876 C1862 0.961 . S
H1877 C1863 0.958 . S
H1878 C1863 0.961 . S
H1879 C1863 0.960 . S
C1880 C1881 1.391 . S
C1880 C1882 1.394 . S
C1880 H1896 0.931 . S
C1881 C1880 1.391 . S
C1881 C1885 1.376 . S
C1882 C1880 1.394 . S
C1882 C1883 1.369 . S
C1882 C1886 1.531 . S
C1883 C1882 1.369 . S
C1883 C1884 1.410 . S
C1883 C1891 1.503 . S
C1884 C1883 1.410 . S
C1884 C1885 1.392 . S
C1884 C1887 1.511 . S
C1885 C1881 1.376 . S
C1885 C1884 1.392 . S
C1885 H1897 0.929 . S
C1886 C1882 1.531 . S
C1886 H1898 0.960 . S
C1886 H1899 0.962 . S
C1886 H1900 0.960 . S
C1887 C1884 1.511 . S
C1887 H1901 0.961 . S
C1887 H1902 0.961 . S
C1887 H1903 0.961 . S
C1888 C1889 1.370 . S
C1888 C1890 1.363 . S
C1888 H1904 0.931 . S
C1889 C1888 1.370 . S
C1889 C1893 1.408 . S
C1890 C1888 1.363 . S
C1890 C1891 1.370 . S
C1890 C1894 1.524 . S
C1891 C1883 1.503 . S
C1891 C1890 1.370 . S
C1891 C1892 1.403 . S
C1892 C1891 1.403 . S
C1892 C1893 1.404 . S
C1892 C1895 1.539 . S
C1893 C1889 1.408 . S
C1893 C1892 1.404 . S
C1893 H1905 0.930 . S
C1894 C1890 1.524 . S
C1894 H1906 0.956 . S
C1894 H1907 0.961 . S
C1894 H1908 0.961 . S
C1895 C1892 1.539 . S
C1895 H1909 0.958 . S
C1895 H1910 0.961 . S
C1895 H1911 0.960 . S
H1896 C1880 0.931 . S
H1897 C1885 0.929 . S
H1898 C1886 0.960 . S
H1899 C1886 0.962 . S
H1900 C1886 0.960 . S
H1901 C1887 0.961 . S
H1902 C1887 0.961 . S
H1903 C1887 0.961 . S
H1904 C1888 0.931 . S
H1905 C1893 0.930 . S
H1906 C1894 0.956 . S
H1907 C1894 0.961 . S
H1908 C1894 0.961 . S
H1909 C1895 0.958 . S
H1910 C1895 0.961 . S
H1911 C1895 0.960 . S
C1912 C1913 1.391 . S
C1912 C1914 1.394 . S
C1912 H1928 0.931 . S
C1913 C1912 1.391 . S
C1913 C1917 1.376 . S
C1914 C1912 1.394 . S
C1914 C1915 1.369 . S
C1914 C1918 1.531 . S
C1915 C1914 1.369 . S
C1915 C1916 1.410 . S
C1915 C1923 1.503 . S
C1916 C1915 1.410 . S
C1916 C1917 1.392 . S
C1916 C1919 1.511 . S
C1917 C1913 1.376 . S
C1917 C1916 1.392 . S
C1917 H1929 0.929 . S
C1918 C1914 1.531 . S
C1918 H1930 0.960 . S
C1918 H1931 0.962 . S
C1918 H1932 0.960 . S
C1919 C1916 1.511 . S
C1919 H1933 0.961 . S
C1919 H1934 0.961 . S
C1919 H1935 0.961 . S
C1920 C1921 1.370 . S
C1920 C1922 1.363 . S
C1920 H1936 0.931 . S
C1921 C1920 1.370 . S
C1921 C1925 1.407 . S
C1922 C1920 1.363 . S
C1922 C1923 1.370 . S
C1922 C1926 1.524 . S
C1923 C1915 1.503 . S
C1923 C1922 1.370 . S
C1923 C1924 1.403 . S
C1924 C1923 1.403 . S
C1924 C1925 1.402 . S
C1924 C1927 1.539 . S
C1925 C1921 1.407 . S
C1925 C1924 1.402 . S
C1925 H1937 0.932 1_556 S
C1926 C1922 1.524 . S
C1926 H1938 0.956 . S
C1926 H1939 0.961 . S
C1926 H1940 0.961 . S
C1927 C1924 1.539 . S
C1927 H1941 0.958 1_556 S
C1927 H1942 0.961 . S
C1927 H1943 0.960 . S
H1928 C1912 0.931 . S
H1929 C1917 0.929 . S
H1930 C1918 0.960 . S
H1931 C1918 0.962 . S
H1932 C1918 0.960 . S
H1933 C1919 0.961 . S
H1934 C1919 0.961 . S
H1935 C1919 0.961 . S
H1936 C1920 0.931 . S
H1937 C1925 0.932 1_554 S
H1938 C1926 0.956 . S
H1939 C1926 0.961 . S
H1940 C1926 0.961 . S
H1941 C1927 0.958 1_554 S
H1942 C1927 0.961 . S
H1943 C1927 0.960 . S
C1944 C1945 1.391 . S
C1944 C1946 1.394 . S
C1944 H1960 0.931 . S
C1945 C1944 1.391 . S
C1945 C1949 1.376 . S
C1946 C1944 1.394 . S
C1946 C1947 1.369 . S
C1946 C1950 1.531 . S
C1947 C1946 1.369 . S
C1947 C1948 1.410 . S
C1947 C1955 1.503 . S
C1948 C1947 1.410 . S
C1948 C1949 1.392 . S
C1948 C1951 1.511 . S
C1949 C1945 1.376 . S
C1949 C1948 1.392 . S
C1949 H1961 0.929 . S
C1950 C1946 1.531 . S
C1950 H1962 0.960 . S
C1950 H1963 0.962 . S
C1950 H1964 0.960 . S
C1951 C1948 1.511 . S
C1951 H1965 0.961 . S
C1951 H1966 0.961 . S
C1951 H1967 0.961 . S
C1952 C1953 1.370 . S
C1952 C1954 1.363 . S
C1952 H1968 0.931 . S
C1953 C1952 1.370 . S
C1953 C1957 1.408 . S
C1954 C1952 1.363 . S
C1954 C1955 1.370 . S
C1954 C1958 1.524 . S
C1955 C1947 1.503 . S
C1955 C1954 1.370 . S
C1955 C1956 1.403 . S
C1956 C1955 1.403 . S
C1956 C1957 1.404 . S
C1956 C1959 1.539 . S
C1957 C1953 1.408 . S
C1957 C1956 1.404 . S
C1957 H1969 0.930 . S
C1958 C1954 1.524 . S
C1958 H1970 0.956 . S
C1958 H1971 0.961 . S
C1958 H1972 0.961 . S
C1959 C1956 1.539 . S
C1959 H1973 0.958 . S
C1959 H1974 0.961 . S
C1959 H1975 0.960 . S
H1960 C1944 0.931 . S
H1961 C1949 0.929 . S
H1962 C1950 0.960 . S
H1963 C1950 0.962 . S
H1964 C1950 0.960 . S
H1965 C1951 0.961 . S
H1966 C1951 0.961 . S
H1967 C1951 0.961 . S
H1968 C1952 0.931 . S
H1969 C1957 0.930 . S
H1970 C1958 0.956 . S
H1971 C1958 0.961 . S
H1972 C1958 0.961 . S
H1973 C1959 0.958 . S
H1974 C1959 0.961 . S
H1975 C1959 0.960 . S
C1976 C1977 1.391 . S
C1976 C1978 1.394 . S
C1976 H1992 0.931 . S
C1977 C1976 1.391 . S
C1977 C1981 1.376 . S
C1978 C1976 1.394 . S
C1978 C1979 1.369 . S
C1978 C1982 1.531 . S
C1979 C1978 1.369 . S
C1979 C1980 1.410 . S
C1979 C1987 1.503 . S
C1980 C1979 1.410 . S
C1980 C1981 1.392 . S
C1980 C1983 1.511 1_545 S
C1981 C1977 1.376 . S
C1981 C1980 1.392 . S
C1981 H1993 0.929 . S
C1982 C1978 1.531 . S
C1982 H1994 0.960 . S
C1982 H1995 0.962 . S
C1982 H1996 0.960 . S
C1983 C1980 1.511 1_565 S
C1983 H1997 0.961 . S
C1983 H1998 0.966 . S
C1983 H1999 0.961 . S
C1984 C1985 1.370 . S
C1984 C1986 1.363 . S
C1984 H2000 0.931 . S
C1985 C1984 1.370 . S
C1985 C1989 1.408 . S
C1986 C1984 1.363 . S
C1986 C1987 1.370 . S
C1986 C1990 1.524 . S
C1987 C1979 1.503 . S
C1987 C1986 1.370 . S
C1987 C1988 1.403 . S
C1988 C1987 1.403 . S
C1988 C1989 1.404 . S
C1988 C1991 1.539 . S
C1989 C1985 1.408 . S
C1989 C1988 1.404 . S
C1989 H2001 0.930 . S
C1990 C1986 1.524 . S
C1990 H2002 0.956 . S
C1990 H2003 0.961 . S
C1990 H2004 0.961 . S
C1991 C1988 1.539 . S
C1991 H2005 0.958 . S
C1991 H2006 0.961 1_545 S
C1991 H2007 0.960 . S
H1992 C1976 0.931 . S
H1993 C1981 0.929 . S
H1994 C1982 0.960 . S
H1995 C1982 0.962 . S
H1996 C1982 0.960 . S
H1997 C1983 0.961 . S
H1998 C1983 0.966 . S
H1999 C1983 0.961 . S
H2000 C1984 0.931 . S
H2001 C1989 0.930 . S
H2002 C1990 0.956 . S
H2003 C1990 0.961 . S
H2004 C1990 0.961 . S
H2005 C1991 0.958 . S
H2006 C1991 0.961 1_565 S
H2007 C1991 0.960 . S
C2008 C2009 1.391 . S
C2008 C2010 1.394 . S
C2008 H2024 0.931 . S
C2009 C2008 1.391 . S
C2009 C2013 1.376 . S
C2010 C2008 1.394 . S
C2010 C2011 1.369 . S
C2010 C2014 1.531 . S
C2011 C2010 1.369 . S
C2011 C2012 1.410 . S
C2011 C2019 1.503 . S
C2012 C2011 1.410 . S
C2012 C2013 1.392 . S
C2012 C2015 1.511 . S
C2013 C2009 1.376 . S
C2013 C2012 1.392 . S
C2013 H2025 0.929 . S
C2014 C2010 1.531 . S
C2014 H2026 0.960 . S
C2014 H2027 0.962 . S
C2014 H2028 0.960 . S
C2015 C2012 1.511 . S
C2015 H2029 0.961 . S
C2015 H2030 0.961 . S
C2015 H2031 0.961 . S
C2016 C2017 1.370 . S
C2016 C2018 1.363 . S
C2016 H2032 0.931 . S
C2017 C2016 1.370 . S
C2017 C2021 1.408 . S
C2018 C2016 1.363 . S
C2018 C2019 1.370 . S
C2018 C2022 1.524 . S
C2019 C2011 1.503 . S
C2019 C2018 1.370 . S
C2019 C2020 1.403 . S
C2020 C2019 1.403 . S
C2020 C2021 1.404 . S
C2020 C2023 1.539 . S
C2021 C2017 1.408 . S
C2021 C2020 1.404 . S
C2021 H2033 0.930 . S
C2022 C2018 1.524 . S
C2022 H2034 0.956 . S
C2022 H2035 0.961 . S
C2022 H2036 0.961 . S
C2023 C2020 1.539 . S
C2023 H2037 0.958 . S
C2023 H2038 0.961 . S
C2023 H2039 0.960 . S
H2024 C2008 0.931 . S
H2025 C2013 0.929 . S
H2026 C2014 0.960 . S
H2027 C2014 0.962 . S
H2028 C2014 0.960 . S
H2029 C2015 0.961 . S
H2030 C2015 0.961 . S
H2031 C2015 0.961 . S
H2032 C2016 0.931 . S
H2033 C2021 0.930 . S
H2034 C2022 0.956 . S
H2035 C2022 0.961 . S
H2036 C2022 0.961 . S
H2037 C2023 0.958 . S
H2038 C2023 0.961 . S
H2039 C2023 0.960 . S
C2040 C2041 1.391 . S
C2040 C2042 1.394 . S
C2040 H2056 0.931 . S
C2041 C2040 1.391 . S
C2041 C2045 1.376 . S
C2042 C2040 1.394 . S
C2042 C2043 1.369 . S
C2042 C2046 1.531 . S
C2043 C2042 1.369 . S
C2043 C2044 1.410 . S
C2043 C2051 1.503 . S
C2044 C2043 1.410 . S
C2044 C2045 1.392 . S
C2044 C2047 1.511 . S
C2045 C2041 1.376 . S
C2045 C2044 1.392 . S
C2045 H2057 0.929 . S
C2046 C2042 1.531 . S
C2046 H2058 0.960 . S
C2046 H2059 0.962 . S
C2046 H2060 0.960 . S
C2047 C2044 1.511 . S
C2047 H2061 0.961 1_545 S
C2047 H2062 0.961 . S
C2047 H2063 0.961 . S
C2048 C2049 1.370 . S
C2048 C2050 1.363 . S
C2048 H2064 0.931 . S
C2049 C2048 1.370 . S
C2049 C2053 1.408 . S
C2050 C2048 1.363 . S
C2050 C2051 1.370 . S
C2050 C2054 1.524 . S
C2051 C2043 1.503 . S
C2051 C2050 1.370 . S
C2051 C2052 1.403 . S
C2052 C2051 1.403 . S
C2052 C2053 1.404 . S
C2052 C2055 1.539 . S
C2053 C2049 1.408 . S
C2053 C2052 1.404 . S
C2053 H2065 0.930 . S
C2054 C2050 1.524 . S
C2054 H2066 0.956 . S
C2054 H2067 0.961 . S
C2054 H2068 0.961 . S
C2055 C2052 1.539 . S
C2055 H2069 0.958 . S
C2055 H2070 0.961 . S
C2055 H2071 0.960 . S
H2056 C2040 0.931 . S
H2057 C2045 0.929 . S
H2058 C2046 0.960 . S
H2059 C2046 0.962 . S
H2060 C2046 0.960 . S
H2061 C2047 0.961 1_565 S
H2062 C2047 0.961 . S
H2063 C2047 0.961 . S
H2064 C2048 0.931 . S
H2065 C2053 0.930 . S
H2066 C2054 0.956 . S
H2067 C2054 0.961 . S
H2068 C2054 0.961 . S
H2069 C2055 0.958 . S
H2070 C2055 0.961 . S
H2071 C2055 0.960 . S
C2072 C2073 1.391 . S
C2072 C2074 1.394 . S
C2072 H2088 0.931 . S
C2073 C2072 1.391 . S
C2073 C2077 1.376 . S
C2074 C2072 1.394 . S
C2074 C2075 1.369 . S
C2074 C2078 1.531 . S
C2075 C2074 1.369 . S
C2075 C2076 1.410 . S
C2075 C2083 1.503 . S
C2076 C2075 1.410 . S
C2076 C2077 1.392 . S
C2076 C2079 1.511 . S
C2077 C2073 1.376 . S
C2077 C2076 1.392 . S
C2077 H2089 0.929 . S
C2078 C2074 1.531 . S
C2078 H2090 0.960 . S
C2078 H2091 0.962 . S
C2078 H2092 0.960 . S
C2079 C2076 1.511 . S
C2079 H2093 0.961 . S
C2079 H2094 0.961 . S
C2079 H2095 0.961 . S
C2080 C2081 1.370 . S
C2080 C2082 1.363 . S
C2080 H2096 0.931 . S
C2081 C2080 1.370 . S
C2081 C2085 1.408 . S
C2082 C2080 1.363 . S
C2082 C2083 1.370 . S
C2082 C2086 1.524 . S
C2083 C2075 1.503 . S
C2083 C2082 1.370 . S
C2083 C2084 1.403 . S
C2084 C2083 1.403 . S
C2084 C2085 1.404 . S
C2084 C2087 1.539 . S
C2085 C2081 1.408 . S
C2085 C2084 1.404 . S
C2085 H2097 0.930 . S
C2086 C2082 1.524 . S
C2086 H2098 0.956 . S
C2086 H2099 0.961 . S
C2086 H2100 0.961 . S
C2087 C2084 1.539 . S
C2087 H2101 0.958 . S
C2087 H2102 0.961 . S
C2087 H2103 0.960 . S
H2088 C2072 0.931 . S
H2089 C2077 0.929 . S
H2090 C2078 0.960 . S
H2091 C2078 0.962 . S
H2092 C2078 0.960 . S
H2093 C2079 0.961 . S
H2094 C2079 0.961 . S
H2095 C2079 0.961 . S
H2096 C2080 0.931 . S
H2097 C2085 0.930 . S
H2098 C2086 0.956 . S
H2099 C2086 0.961 . S
H2100 C2086 0.961 . S
H2101 C2087 0.958 . S
H2102 C2087 0.961 . S
H2103 C2087 0.960 . S
C2104 C2105 1.391 . S
C2104 C2106 1.394 . S
C2104 H2120 0.931 . S
C2105 C2104 1.391 . S
C2105 C2109 1.376 . S
C2106 C2104 1.394 . S
C2106 C2107 1.369 . S
C2106 C2110 1.531 . S
C2107 C2106 1.369 . S
C2107 C2108 1.410 . S
C2107 C2115 1.503 . S
C2108 C2107 1.410 . S
C2108 C2109 1.392 . S
C2108 C2111 1.511 . S
C2109 C2105 1.376 . S
C2109 C2108 1.392 . S
C2109 H2121 0.929 . S
C2110 C2106 1.531 . S
C2110 H2122 0.960 . S
C2110 H2123 0.962 . S
C2110 H2124 0.960 . S
C2111 C2108 1.511 . S
C2111 H2125 0.961 . S
C2111 H2126 0.961 . S
C2111 H2127 0.961 . S
C2112 C2113 1.370 . S
C2112 C2114 1.363 . S
C2112 H2128 0.931 . S
C2113 C2112 1.370 . S
C2113 C2117 1.408 . S
C2114 C2112 1.363 . S
C2114 C2115 1.370 . S
C2114 C2118 1.524 . S
C2115 C2107 1.503 . S
C2115 C2114 1.370 . S
C2115 C2116 1.403 . S
C2116 C2115 1.403 . S
C2116 C2117 1.404 . S
C2116 C2119 1.539 . S
C2117 C2113 1.408 . S
C2117 C2116 1.404 . S
C2117 H2129 0.930 . S
C2118 C2114 1.524 . S
C2118 H2130 0.956 . S
C2118 H2131 0.961 . S
C2118 H2132 0.961 . S
C2119 C2116 1.539 . S
C2119 H2133 0.958 1_545 S
C2119 H2134 0.961 . S
C2119 H2135 0.960 . S
H2120 C2104 0.931 . S
H2121 C2109 0.929 . S
H2122 C2110 0.960 . S
H2123 C2110 0.962 . S
H2124 C2110 0.960 . S
H2125 C2111 0.961 . S
H2126 C2111 0.961 . S
H2127 C2111 0.961 . S
H2128 C2112 0.931 . S
H2129 C2117 0.930 . S
H2130 C2118 0.956 . S
H2131 C2118 0.961 . S
H2132 C2118 0.961 . S
H2133 C2119 0.958 1_565 S
H2134 C2119 0.961 . S
H2135 C2119 0.960 . S
C2136 C2137 1.391 . S
C2136 C2138 1.394 . S
C2136 H2152 0.931 . S
C2137 C2136 1.391 . S
C2137 C2141 1.376 . S
C2138 C2136 1.394 . S
C2138 C2139 1.369 . S
C2138 C2142 1.531 . S
C2139 C2138 1.369 . S
C2139 C2140 1.410 . S
C2139 C2147 1.503 . S
C2140 C2139 1.410 . S
C2140 C2141 1.392 . S
C2140 C2143 1.511 . S
C2141 C2137 1.376 . S
C2141 C2140 1.392 . S
C2141 H2153 0.929 . S
C2142 C2138 1.531 . S
C2142 H2154 0.960 . S
C2142 H2155 0.962 . S
C2142 H2156 0.960 . S
C2143 C2140 1.511 . S
C2143 H2157 0.961 . S
C2143 H2158 0.961 . S
C2143 H2159 0.961 . S
C2144 C2145 1.370 . S
C2144 C2146 1.363 . S
C2144 H2160 0.931 . S
C2145 C2144 1.370 . S
C2145 C2149 1.408 . S
C2146 C2144 1.363 . S
C2146 C2147 1.370 . S
C2146 C2150 1.524 . S
C2147 C2139 1.503 . S
C2147 C2146 1.370 . S
C2147 C2148 1.403 . S
C2148 C2147 1.403 . S
C2148 C2149 1.404 . S
C2148 C2151 1.539 . S
C2149 C2145 1.408 . S
C2149 C2148 1.404 . S
C2149 H2161 0.930 . S
C2150 C2146 1.524 . S
C2150 H2162 0.956 . S
C2150 H2163 0.961 . S
C2150 H2164 0.961 . S
C2151 C2148 1.539 . S
C2151 H2165 0.958 . S
C2151 H2166 0.961 . S
C2151 H2167 0.960 . S
H2152 C2136 0.931 . S
H2153 C2141 0.929 . S
H2154 C2142 0.960 . S
H2155 C2142 0.962 . S
H2156 C2142 0.960 . S
H2157 C2143 0.961 . S
H2158 C2143 0.961 . S
H2159 C2143 0.961 . S
H2160 C2144 0.931 . S
H2161 C2149 0.930 . S
H2162 C2150 0.956 . S
H2163 C2150 0.961 . S
H2164 C2150 0.961 . S
H2165 C2151 0.958 . S
H2166 C2151 0.961 . S
H2167 C2151 0.960 . S
C2168 C2169 1.391 . S
C2168 C2170 1.394 . S
C2168 H2184 0.931 1_545 S
C2169 C2168 1.391 . S
C2169 C2173 1.376 . S
C2170 C2168 1.394 . S
C2170 C2171 1.369 . S
C2170 C2174 1.531 1_545 S
C2171 C2170 1.369 . S
C2171 C2172 1.410 . S
C2171 C2179 1.503 . S
C2172 C2171 1.410 . S
C2172 C2173 1.392 . S
C2172 C2175 1.511 . S
C2173 C2169 1.376 . S
C2173 C2172 1.392 . S
C2173 H2185 0.929 . S
C2174 C2170 1.531 1_565 S
C2174 H2186 0.960 . S
C2174 H2187 0.962 . S
C2174 H2188 0.960 . S
C2175 C2172 1.511 . S
C2175 H2189 0.961 . S
C2175 H2190 0.961 . S
C2175 H2191 0.961 . S
C2176 C2177 1.370 . S
C2176 C2178 1.363 . S
C2176 H2192 0.931 . S
C2177 C2176 1.370 . S
C2177 C2181 1.408 . S
C2178 C2176 1.363 . S
C2178 C2179 1.370 . S
C2178 C2182 1.524 . S
C2179 C2171 1.503 . S
C2179 C2178 1.370 . S
C2179 C2180 1.403 . S
C2180 C2179 1.403 . S
C2180 C2181 1.404 . S
C2180 C2183 1.538 1_545 S
C2181 C2177 1.408 . S
C2181 C2180 1.404 . S
C2181 H2193 0.930 . S
C2182 C2178 1.524 . S
C2182 H2194 0.956 . S
C2182 H2195 0.961 . S
C2182 H2196 0.961 . S
C2183 C2180 1.538 1_565 S
C2183 H2197 0.964 . S
C2183 H2198 0.960 1_565 S
C2183 H2199 0.956 1_565 S
H2184 C2168 0.931 1_565 S
H2185 C2173 0.929 . S
H2186 C2174 0.960 . S
H2187 C2174 0.962 . S
H2188 C2174 0.960 . S
H2189 C2175 0.961 . S
H2190 C2175 0.961 . S
H2191 C2175 0.961 . S
H2192 C2176 0.931 . S
H2193 C2181 0.930 . S
H2194 C2182 0.956 . S
H2195 C2182 0.961 . S
H2196 C2182 0.961 . S
H2197 C2183 0.964 . S
H2198 C2183 0.960 1_545 S
H2199 C2183 0.956 1_545 S
C2200 C2201 1.391 . S
C2200 C2202 1.394 . S
C2200 H2216 0.931 . S
C2201 C2200 1.391 . S
C2201 C2205 1.376 . S
C2202 C2200 1.394 . S
C2202 C2203 1.369 . S
C2202 C2206 1.531 . S
C2203 C2202 1.369 . S
C2203 C2204 1.410 . S
C2203 C2211 1.503 . S
C2204 C2203 1.410 . S
C2204 C2205 1.392 . S
C2204 C2207 1.511 . S
C2205 C2201 1.376 . S
C2205 C2204 1.392 . S
C2205 H2217 0.929 . S
C2206 C2202 1.531 . S
C2206 H2218 0.960 . S
C2206 H2219 0.962 . S
C2206 H2220 0.960 . S
C2207 C2204 1.511 . S
C2207 H2221 0.961 . S
C2207 H2222 0.961 . S
C2207 H2223 0.961 . S
C2208 C2209 1.370 . S
C2208 C2210 1.363 . S
C2208 H2224 0.931 . S
C2209 C2208 1.370 . S
C2209 C2213 1.408 . S
C2210 C2208 1.363 . S
C2210 C2211 1.370 . S
C2210 C2214 1.524 . S
C2211 C2203 1.503 . S
C2211 C2210 1.370 . S
C2211 C2212 1.403 . S
C2212 C2211 1.403 . S
C2212 C2213 1.404 . S
C2212 C2215 1.539 . S
C2213 C2209 1.408 . S
C2213 C2212 1.404 . S
C2213 H2225 0.930 . S
C2214 C2210 1.524 . S
C2214 H2226 0.956 . S
C2214 H2227 0.961 . S
C2214 H2228 0.961 . S
C2215 C2212 1.539 . S
C2215 H2229 0.958 . S
C2215 H2230 0.961 . S
C2215 H2231 0.960 . S
H2216 C2200 0.931 . S
H2217 C2205 0.929 . S
H2218 C2206 0.960 . S
H2219 C2206 0.962 . S
H2220 C2206 0.960 . S
H2221 C2207 0.961 . S
H2222 C2207 0.961 . S
H2223 C2207 0.961 . S
H2224 C2208 0.931 . S
H2225 C2213 0.930 . S
H2226 C2214 0.956 . S
H2227 C2214 0.961 . S
H2228 C2214 0.961 . S
H2229 C2215 0.958 . S
H2230 C2215 0.961 . S
H2231 C2215 0.960 . S
C2232 C2233 1.391 . S
C2232 C2234 1.394 . S
C2232 H2248 0.931 . S
C2233 C2232 1.391 . S
C2233 C2237 1.376 . S
C2234 C2232 1.394 . S
C2234 C2235 1.369 . S
C2234 C2238 1.534 1_554 S
C2235 C2234 1.369 . S
C2235 C2236 1.410 . S
C2235 C2243 1.503 . S
C2236 C2235 1.410 . S
C2236 C2237 1.392 . S
C2236 C2239 1.511 . S
C2237 C2233 1.376 . S
C2237 C2236 1.392 . S
C2237 H2249 0.929 . S
C2238 C2234 1.534 1_556 S
C2238 H2250 0.959 . S
C2238 H2251 0.960 . S
C2238 H2252 0.960 . S
C2239 C2236 1.511 . S
C2239 H2253 0.961 . S
C2239 H2254 0.961 . S
C2239 H2255 0.961 . S
C2240 C2241 1.370 . S
C2240 C2242 1.363 1_556 S
C2240 H2256 0.931 . S
C2241 C2240 1.370 . S
C2241 C2245 1.408 1_556 S
C2242 C2240 1.363 1_554 S
C2242 C2243 1.370 . S
C2242 C2246 1.524 . S
C2243 C2235 1.503 . S
C2243 C2242 1.370 . S
C2243 C2244 1.403 . S
C2244 C2243 1.403 . S
C2244 C2245 1.404 . S
C2244 C2247 1.539 . S
C2245 C2241 1.408 1_554 S
C2245 C2244 1.404 . S
C2245 H2257 0.930 . S
C2246 C2242 1.524 . S
C2246 H2258 0.956 . S
C2246 H2259 0.961 . S
C2246 H2260 0.961 . S
C2247 C2244 1.539 . S
C2247 H2261 0.958 . S
C2247 H2262 0.961 . S
C2247 H2263 0.960 . S
H2248 C2232 0.931 . S
H2249 C2237 0.929 . S
H2250 C2238 0.959 . S
H2251 C2238 0.960 . S
H2252 C2238 0.960 . S
H2253 C2239 0.961 . S
H2254 C2239 0.961 . S
H2255 C2239 0.961 . S
H2256 C2240 0.931 . S
H2257 C2245 0.930 . S
H2258 C2246 0.956 . S
H2259 C2246 0.961 . S
H2260 C2246 0.961 . S
H2261 C2247 0.958 . S
H2262 C2247 0.961 . S
H2263 C2247 0.960 . S
C2264 C2265 1.391 . S
C2264 C2266 1.394 . S
C2264 H2280 0.931 . S
C2265 C2264 1.391 . S
C2265 C2269 1.376 . S
C2266 C2264 1.394 . S
C2266 C2267 1.369 . S
C2266 C2270 1.531 . S
C2267 C2266 1.369 . S
C2267 C2268 1.410 . S
C2267 C2275 1.503 . S
C2268 C2267 1.410 . S
C2268 C2269 1.392 . S
C2268 C2271 1.511 . S
C2269 C2265 1.376 . S
C2269 C2268 1.392 . S
C2269 H2281 0.929 . S
C2270 C2266 1.531 . S
C2270 H2282 0.960 . S
C2270 H2283 0.962 . S
C2270 H2284 0.960 . S
C2271 C2268 1.511 . S
C2271 H2285 0.961 . S
C2271 H2286 0.961 . S
C2271 H2287 0.961 . S
C2272 C2273 1.370 . S
C2272 C2274 1.363 . S
C2272 H2288 0.931 . S
C2273 C2272 1.370 . S
C2273 C2277 1.408 . S
C2274 C2272 1.363 . S
C2274 C2275 1.370 . S
C2274 C2278 1.524 . S
C2275 C2267 1.503 . S
C2275 C2274 1.370 . S
C2275 C2276 1.403 . S
C2276 C2275 1.403 . S
C2276 C2277 1.404 . S
C2276 C2279 1.539 1_554 S
C2277 C2273 1.408 . S
C2277 C2276 1.404 . S
C2277 H2289 0.930 . S
C2278 C2274 1.524 . S
C2278 H2290 0.956 . S
C2278 H2291 0.961 . S
C2278 H2292 0.961 . S
C2279 C2276 1.539 1_556 S
C2279 H2293 0.958 . S
C2279 H2294 0.961 . S
C2279 H2295 0.960 . S
H2280 C2264 0.931 . S
H2281 C2269 0.929 . S
H2282 C2270 0.960 . S
H2283 C2270 0.962 . S
H2284 C2270 0.960 . S
H2285 C2271 0.961 . S
H2286 C2271 0.961 . S
H2287 C2271 0.961 . S
H2288 C2272 0.931 . S
H2289 C2277 0.930 . S
H2290 C2278 0.956 . S
H2291 C2278 0.961 . S
H2292 C2278 0.961 . S
H2293 C2279 0.958 . S
H2294 C2279 0.961 . S
H2295 C2279 0.960 . S
C2296 C2297 1.391 . S
C2296 C2298 1.394 . S
C2296 H2312 0.931 . S
C2297 C2296 1.391 . S
C2297 C2301 1.376 . S
C2298 C2296 1.394 . S
C2298 C2299 1.369 . S
C2298 C2302 1.531 . S
C2299 C2298 1.369 . S
C2299 C2300 1.410 . S
C2299 C2307 1.503 . S
C2300 C2299 1.410 . S
C2300 C2301 1.392 . S
C2300 C2303 1.511 . S
C2301 C2297 1.376 . S
C2301 C2300 1.392 . S
C2301 H2313 0.929 . S
C2302 C2298 1.531 . S
C2302 H2314 0.960 . S
C2302 H2315 0.962 . S
C2302 H2316 0.960 . S
C2303 C2300 1.511 . S
C2303 H2317 0.961 . S
C2303 H2318 0.961 . S
C2303 H2319 0.961 . S
C2304 C2305 1.370 . S
C2304 C2306 1.363 . S
C2304 H2320 0.931 . S
C2305 C2304 1.370 . S
C2305 C2309 1.408 . S
C2306 C2304 1.363 . S
C2306 C2307 1.370 . S
C2306 C2310 1.524 . S
C2307 C2299 1.503 . S
C2307 C2306 1.370 . S
C2307 C2308 1.403 . S
C2308 C2307 1.403 . S
C2308 C2309 1.404 . S
C2308 C2311 1.539 . S
C2309 C2305 1.408 . S
C2309 C2308 1.404 . S
C2309 H2321 0.930 . S
C2310 C2306 1.524 . S
C2310 H2322 0.956 . S
C2310 H2323 0.961 . S
C2310 H2324 0.961 . S
C2311 C2308 1.539 . S
C2311 H2325 0.958 . S
C2311 H2326 0.961 . S
C2311 H2327 0.960 . S
H2312 C2296 0.931 . S
H2313 C2301 0.929 . S
H2314 C2302 0.960 . S
H2315 C2302 0.962 . S
H2316 C2302 0.960 . S
H2317 C2303 0.961 . S
H2318 C2303 0.961 . S
H2319 C2303 0.961 . S
H2320 C2304 0.931 . S
H2321 C2309 0.930 . S
H2322 C2310 0.956 . S
H2323 C2310 0.961 . S
H2324 C2310 0.961 . S
H2325 C2311 0.958 . S
H2326 C2311 0.961 . S
H2327 C2311 0.960 . S
C2328 C2329 1.391 . S
C2328 C2330 1.394 . S
C2328 H2344 0.931 . S
C2329 C2328 1.391 . S
C2329 C2333 1.376 . S
C2330 C2328 1.394 . S
C2330 C2331 1.369 . S
C2330 C2334 1.531 . S
C2331 C2330 1.369 . S
C2331 C2332 1.410 . S
C2331 C2339 1.503 . S
C2332 C2331 1.410 . S
C2332 C2333 1.392 . S
C2332 C2335 1.511 . S
C2333 C2329 1.376 . S
C2333 C2332 1.392 . S
C2333 H2345 0.929 . S
C2334 C2330 1.531 . S
C2334 H2346 0.960 . S
C2334 H2347 0.962 . S
C2334 H2348 0.960 . S
C2335 C2332 1.511 . S
C2335 H2349 0.961 . S
C2335 H2350 0.961 . S
C2335 H2351 0.961 . S
C2336 C2337 1.370 . S
C2336 C2338 1.363 . S
C2336 H2352 0.931 . S
C2337 C2336 1.370 . S
C2337 C2341 1.408 . S
C2338 C2336 1.363 . S
C2338 C2339 1.370 . S
C2338 C2342 1.524 . S
C2339 C2331 1.503 . S
C2339 C2338 1.370 . S
C2339 C2340 1.403 . S
C2340 C2339 1.403 . S
C2340 C2341 1.404 . S
C2340 C2343 1.539 . S
C2341 C2337 1.408 . S
C2341 C2340 1.404 . S
C2341 H2353 0.930 . S
C2342 C2338 1.524 . S
C2342 H2354 0.956 . S
C2342 H2355 0.961 . S
C2342 H2356 0.961 . S
C2343 C2340 1.539 . S
C2343 H2357 0.958 . S
C2343 H2358 0.961 . S
C2343 H2359 0.960 . S
H2344 C2328 0.931 . S
H2345 C2333 0.929 . S
H2346 C2334 0.960 . S
H2347 C2334 0.962 . S
H2348 C2334 0.960 . S
H2349 C2335 0.961 . S
H2350 C2335 0.961 . S
H2351 C2335 0.961 . S
H2352 C2336 0.931 . S
H2353 C2341 0.930 . S
H2354 C2342 0.956 . S
H2355 C2342 0.961 . S
H2356 C2342 0.961 . S
H2357 C2343 0.958 . S
H2358 C2343 0.961 . S
H2359 C2343 0.960 . S
C2360 C2361 1.391 . S
C2360 C2362 1.394 . S
C2360 H2376 0.931 . S
C2361 C2360 1.391 . S
C2361 C2365 1.376 . S
C2362 C2360 1.394 . S
C2362 C2363 1.369 . S
C2362 C2366 1.531 . S
C2363 C2362 1.369 . S
C2363 C2364 1.410 . S
C2363 C2371 1.503 . S
C2364 C2363 1.410 . S
C2364 C2365 1.392 . S
C2364 C2367 1.511 . S
C2365 C2361 1.376 . S
C2365 C2364 1.392 . S
C2365 H2377 0.929 1_565 S
C2366 C2362 1.531 . S
C2366 H2378 0.960 . S
C2366 H2379 0.962 . S
C2366 H2380 0.960 . S
C2367 C2364 1.511 . S
C2367 H2381 0.961 . S
C2367 H2382 0.961 . S
C2367 H2383 0.961 . S
C2368 C2369 1.370 . S
C2368 C2370 1.363 . S
C2368 H2384 0.931 . S
C2369 C2368 1.370 . S
C2369 C2373 1.408 . S
C2370 C2368 1.363 . S
C2370 C2371 1.370 . S
C2370 C2374 1.524 . S
C2371 C2363 1.503 . S
C2371 C2370 1.370 . S
C2371 C2372 1.403 . S
C2372 C2371 1.403 . S
C2372 C2373 1.404 . S
C2372 C2375 1.539 . S
C2373 C2369 1.408 . S
C2373 C2372 1.404 . S
C2373 H2385 0.930 . S
C2374 C2370 1.524 . S
C2374 H2386 0.956 . S
C2374 H2387 0.961 . S
C2374 H2388 0.961 . S
C2375 C2372 1.539 . S
C2375 H2389 0.958 . S
C2375 H2390 0.961 . S
C2375 H2391 0.960 . S
H2376 C2360 0.931 . S
H2377 C2365 0.929 1_545 S
H2378 C2366 0.960 . S
H2379 C2366 0.962 . S
H2380 C2366 0.960 . S
H2381 C2367 0.961 . S
H2382 C2367 0.961 . S
H2383 C2367 0.961 . S
H2384 C2368 0.931 . S
H2385 C2373 0.930 . S
H2386 C2374 0.956 . S
H2387 C2374 0.961 . S
H2388 C2374 0.961 . S
H2389 C2375 0.958 . S
H2390 C2375 0.961 . S
H2391 C2375 0.960 . S
C2392 C2393 1.391 . S
C2392 C2394 1.394 . S
C2392 H2408 0.931 . S
C2393 C2392 1.391 . S
C2393 C2397 1.376 . S
C2394 C2392 1.394 . S
C2394 C2395 1.369 . S
C2394 C2398 1.531 . S
C2395 C2394 1.369 . S
C2395 C2396 1.410 . S
C2395 C2403 1.503 . S
C2396 C2395 1.410 . S
C2396 C2397 1.392 . S
C2396 C2399 1.511 . S
C2397 C2393 1.376 . S
C2397 C2396 1.392 . S
C2397 H2409 0.929 . S
C2398 C2394 1.531 . S
C2398 H2410 0.960 . S
C2398 H2411 0.962 . S
C2398 H2412 0.960 . S
C2399 C2396 1.511 . S
C2399 H2413 0.961 . S
C2399 H2414 0.961 . S
C2399 H2415 0.961 . S
C2400 C2401 1.370 . S
C2400 C2402 1.363 . S
C2400 H2416 0.931 . S
C2401 C2400 1.370 . S
C2401 C2405 1.408 . S
C2402 C2400 1.363 . S
C2402 C2403 1.370 . S
C2402 C2406 1.524 . S
C2403 C2395 1.503 . S
C2403 C2402 1.370 . S
C2403 C2404 1.403 . S
C2404 C2403 1.403 . S
C2404 C2405 1.404 . S
C2404 C2407 1.539 . S
C2405 C2401 1.408 . S
C2405 C2404 1.404 . S
C2405 H2417 0.930 . S
C2406 C2402 1.524 . S
C2406 H2418 0.956 . S
C2406 H2419 0.961 . S
C2406 H2420 0.961 . S
C2407 C2404 1.539 . S
C2407 H2421 0.958 . S
C2407 H2422 0.961 . S
C2407 H2423 0.960 . S
H2408 C2392 0.931 . S
H2409 C2397 0.929 . S
H2410 C2398 0.960 . S
H2411 C2398 0.962 . S
H2412 C2398 0.960 . S
H2413 C2399 0.961 . S
H2414 C2399 0.961 . S
H2415 C2399 0.961 . S
H2416 C2400 0.931 . S
H2417 C2405 0.930 . S
H2418 C2406 0.956 . S
H2419 C2406 0.961 . S
H2420 C2406 0.961 . S
H2421 C2407 0.958 . S
H2422 C2407 0.961 . S
H2423 C2407 0.960 . S
C2424 C2425 1.391 . S
C2424 C2426 1.394 . S
C2424 H2440 0.931 . S
C2425 C2424 1.391 . S
C2425 C2429 1.376 . S
C2426 C2424 1.394 . S
C2426 C2427 1.369 . S
C2426 C2430 1.531 . S
C2427 C2426 1.369 . S
C2427 C2428 1.410 . S
C2427 C2435 1.503 . S
C2428 C2427 1.410 . S
C2428 C2429 1.392 . S
C2428 C2431 1.511 . S
C2429 C2425 1.376 . S
C2429 C2428 1.392 . S
C2429 H2441 0.929 . S
C2430 C2426 1.531 . S
C2430 H2442 0.960 . S
C2430 H2443 0.962 . S
C2430 H2444 0.960 . S
C2431 C2428 1.511 . S
C2431 H2445 0.961 . S
C2431 H2446 0.961 . S
C2431 H2447 0.961 . S
C2432 C2433 1.370 . S
C2432 C2434 1.363 . S
C2432 H2448 0.931 . S
C2433 C2432 1.370 . S
C2433 C2437 1.408 . S
C2434 C2432 1.363 . S
C2434 C2435 1.370 . S
C2434 C2438 1.524 . S
C2435 C2427 1.503 . S
C2435 C2434 1.370 . S
C2435 C2436 1.403 . S
C2436 C2435 1.403 . S
C2436 C2437 1.404 . S
C2436 C2439 1.539 . S
C2437 C2433 1.408 . S
C2437 C2436 1.404 . S
C2437 H2449 0.930 . S
C2438 C2434 1.524 . S
C2438 H2450 0.956 . S
C2438 H2451 0.961 . S
C2438 H2452 0.961 . S
C2439 C2436 1.539 . S
C2439 H2453 0.958 . S
C2439 H2454 0.961 . S
C2439 H2455 0.960 . S
H2440 C2424 0.931 . S
H2441 C2429 0.929 . S
H2442 C2430 0.960 . S
H2443 C2430 0.962 . S
H2444 C2430 0.960 . S
H2445 C2431 0.961 . S
H2446 C2431 0.961 . S
H2447 C2431 0.961 . S
H2448 C2432 0.931 . S
H2449 C2437 0.930 . S
H2450 C2438 0.956 . S
H2451 C2438 0.961 . S
H2452 C2438 0.961 . S
H2453 C2439 0.958 . S
H2454 C2439 0.961 . S
H2455 C2439 0.960 . S
C2456 C2457 1.391 . S
C2456 C2458 1.394 . S
C2456 H2472 0.931 . S
C2457 C2456 1.391 . S
C2457 C2461 1.376 . S
C2458 C2456 1.394 . S
C2458 C2459 1.369 . S
C2458 C2462 1.531 . S
C2459 C2458 1.369 . S
C2459 C2460 1.410 . S
C2459 C2467 1.503 . S
C2460 C2459 1.410 . S
C2460 C2461 1.392 . S
C2460 C2463 1.511 . S
C2461 C2457 1.376 . S
C2461 C2460 1.392 . S
C2461 H2473 0.929 . S
C2462 C2458 1.531 . S
C2462 H2474 0.960 . S
C2462 H2475 0.962 . S
C2462 H2476 0.960 . S
C2463 C2460 1.511 . S
C2463 H2477 0.961 . S
C2463 H2478 0.961 . S
C2463 H2479 0.961 . S
C2464 C2465 1.370 . S
C2464 C2466 1.363 . S
C2464 H2480 0.931 . S
C2465 C2464 1.370 . S
C2465 C2469 1.408 . S
C2466 C2464 1.363 . S
C2466 C2467 1.370 . S
C2466 C2470 1.524 . S
C2467 C2459 1.503 . S
C2467 C2466 1.370 . S
C2467 C2468 1.403 . S
C2468 C2467 1.403 . S
C2468 C2469 1.404 . S
C2468 C2471 1.539 . S
C2469 C2465 1.408 . S
C2469 C2468 1.404 . S
C2469 H2481 0.930 . S
C2470 C2466 1.524 . S
C2470 H2482 0.956 . S
C2470 H2483 0.961 . S
C2470 H2484 0.961 . S
C2471 C2468 1.539 . S
C2471 H2485 0.958 . S
C2471 H2486 0.961 . S
C2471 H2487 0.960 . S
H2472 C2456 0.931 . S
H2473 C2461 0.929 . S
H2474 C2462 0.960 . S
H2475 C2462 0.962 . S
H2476 C2462 0.960 . S
H2477 C2463 0.961 . S
H2478 C2463 0.961 . S
H2479 C2463 0.961 . S
H2480 C2464 0.931 . S
H2481 C2469 0.930 . S
H2482 C2470 0.956 . S
H2483 C2470 0.961 . S
H2484 C2470 0.961 . S
H2485 C2471 0.958 . S
H2486 C2471 0.961 . S
H2487 C2471 0.960 . S
C2488 C2489 1.391 . S
C2488 C2490 1.394 . S
C2488 H2504 0.931 . S
C2489 C2488 1.391 . S
C2489 C2493 1.376 . S
C2490 C2488 1.394 . S
C2490 C2491 1.369 . S
C2490 C2494 1.531 . S
C2491 C2490 1.369 . S
C2491 C2492 1.410 . S
C2491 C2499 1.503 . S
C2492 C2491 1.410 . S
C2492 C2493 1.392 . S
C2492 C2495 1.511 . S
C2493 C2489 1.376 . S
C2493 C2492 1.392 . S
C2493 H2505 0.929 . S
C2494 C2490 1.531 . S
C2494 H2506 0.960 . S
C2494 H2507 0.962 . S
C2494 H2508 0.960 . S
C2495 C2492 1.511 . S
C2495 H2509 0.961 . S
C2495 H2510 0.961 . S
C2495 H2511 0.961 . S
C2496 C2497 1.370 . S
C2496 C2498 1.363 . S
C2496 H2512 0.931 . S
C2497 C2496 1.370 . S
C2497 C2501 1.408 . S
C2498 C2496 1.363 . S
C2498 C2499 1.370 . S
C2498 C2502 1.524 . S
C2499 C2491 1.503 . S
C2499 C2498 1.370 . S
C2499 C2500 1.403 . S
C2500 C2499 1.403 . S
C2500 C2501 1.404 . S
C2500 C2503 1.539 . S
C2501 C2497 1.408 . S
C2501 C2500 1.404 . S
C2501 H2513 0.930 . S
C2502 C2498 1.524 . S
C2502 H2514 0.956 . S
C2502 H2515 0.961 . S
C2502 H2516 0.961 . S
C2503 C2500 1.539 . S
C2503 H2517 0.958 . S
C2503 H2518 0.961 . S
C2503 H2519 0.960 . S
H2504 C2488 0.931 . S
H2505 C2493 0.929 . S
H2506 C2494 0.960 . S
H2507 C2494 0.962 . S
H2508 C2494 0.960 . S
H2509 C2495 0.961 . S
H2510 C2495 0.961 . S
H2511 C2495 0.961 . S
H2512 C2496 0.931 . S
H2513 C2501 0.930 . S
H2514 C2502 0.956 . S
H2515 C2502 0.961 . S
H2516 C2502 0.961 . S
H2517 C2503 0.958 . S
H2518 C2503 0.961 . S
H2519 C2503 0.960 . S
C2520 C2521 1.391 . S
C2520 C2522 1.394 . S
C2520 H2536 0.931 . S
C2521 C2520 1.391 . S
C2521 C2525 1.376 . S
C2522 C2520 1.394 . S
C2522 C2523 1.369 . S
C2522 C2526 1.531 . S
C2523 C2522 1.369 . S
C2523 C2524 1.410 . S
C2523 C2531 1.503 . S
C2524 C2523 1.410 . S
C2524 C2525 1.392 . S
C2524 C2527 1.511 . S
C2525 C2521 1.376 . S
C2525 C2524 1.392 . S
C2525 H2537 0.929 . S
C2526 C2522 1.531 . S
C2526 H2538 0.960 . S
C2526 H2539 0.962 . S
C2526 H2540 0.960 . S
C2527 C2524 1.511 . S
C2527 H2541 0.961 . S
C2527 H2542 0.961 . S
C2527 H2543 0.961 . S
C2528 C2529 1.370 . S
C2528 C2530 1.363 . S
C2528 H2544 0.931 . S
C2529 C2528 1.370 . S
C2529 C2533 1.408 . S
C2530 C2528 1.363 . S
C2530 C2531 1.370 . S
C2530 C2534 1.524 . S
C2531 C2523 1.503 . S
C2531 C2530 1.370 . S
C2531 C2532 1.403 . S
C2532 C2531 1.403 . S
C2532 C2533 1.404 . S
C2532 C2535 1.539 . S
C2533 C2529 1.408 . S
C2533 C2532 1.404 . S
C2533 H2545 0.930 . S
C2534 C2530 1.524 . S
C2534 H2546 0.956 . S
C2534 H2547 0.961 . S
C2534 H2548 0.961 . S
C2535 C2532 1.539 . S
C2535 H2549 0.958 . S
C2535 H2550 0.961 . S
C2535 H2551 0.960 . S
H2536 C2520 0.931 . S
H2537 C2525 0.929 . S
H2538 C2526 0.960 . S
H2539 C2526 0.962 . S
H2540 C2526 0.960 . S
H2541 C2527 0.961 . S
H2542 C2527 0.961 . S
H2543 C2527 0.961 . S
H2544 C2528 0.931 . S
H2545 C2533 0.930 . S
H2546 C2534 0.956 . S
H2547 C2534 0.961 . S
H2548 C2534 0.961 . S
H2549 C2535 0.958 . S
H2550 C2535 0.961 . S
H2551 C2535 0.960 . S
C2552 C2553 1.391 . S
C2552 C2554 1.394 . S
C2552 H2568 0.931 . S
C2553 C2552 1.391 . S
C2553 C2557 1.376 . S
C2554 C2552 1.394 . S
C2554 C2555 1.369 . S
C2554 C2558 1.531 . S
C2555 C2554 1.369 . S
C2555 C2556 1.410 1_556 S
C2555 C2563 1.503 . S
C2556 C2555 1.410 1_554 S
C2556 C2557 1.392 1_554 S
C2556 C2559 1.511 . S
C2557 C2553 1.376 . S
C2557 C2556 1.392 1_556 S
C2557 H2569 0.929 1_556 S
C2558 C2554 1.531 . S
C2558 H2570 0.972 . S
C2558 H2571 0.962 . S
C2558 H2572 0.960 1_455 S
C2559 C2556 1.511 . S
C2559 H2573 0.961 . S
C2559 H2574 0.961 . S
C2559 H2575 0.961 . S
C2560 C2561 1.370 . S
C2560 C2562 1.363 1_554 S
C2560 H2576 0.931 . S
C2561 C2560 1.370 . S
C2561 C2565 1.408 . S
C2562 C2560 1.363 1_556 S
C2562 C2563 1.370 . S
C2562 C2566 1.524 . S
C2563 C2555 1.503 . S
C2563 C2562 1.370 . S
C2563 C2564 1.403 1_556 S
C2564 C2563 1.403 1_554 S
C2564 C2565 1.404 . S
C2564 C2567 1.539 1_455 S
C2565 C2561 1.408 . S
C2565 C2564 1.404 . S
C2565 H2577 0.930 1_455 S
C2566 C2562 1.524 . S
C2566 H2578 0.956 . S
C2566 H2579 0.961 . S
C2566 H2580 0.961 . S
C2567 C2564 1.539 1_655 S
C2567 H2581 0.958 1_554 S
C2567 H2582 0.961 . S
C2567 H2583 0.960 . S
H2568 C2552 0.931 . S
H2569 C2557 0.929 1_554 S
H2570 C2558 0.972 . S
H2571 C2558 0.962 . S
H2572 C2558 0.960 1_655 S
H2573 C2559 0.961 . S
H2574 C2559 0.961 . S
H2575 C2559 0.961 . S
H2576 C2560 0.931 . S
H2577 C2565 0.930 1_655 S
H2578 C2566 0.956 . S
H2579 C2566 0.961 . S
H2580 C2566 0.961 . S
H2581 C2567 0.958 1_556 S
H2582 C2567 0.961 . S
H2583 C2567 0.960 . S
C2584 C2585 1.391 . S
C2584 C2586 1.394 . S
C2584 H2600 0.931 . S
C2585 C2584 1.391 . S
C2585 C2589 1.376 . S
C2586 C2584 1.394 . S
C2586 C2587 1.369 1_455 S
C2586 C2590 1.532 1_455 S
C2587 C2586 1.369 1_655 S
C2587 C2588 1.410 . S
C2587 C2595 1.503 . S
C2588 C2587 1.410 . S
C2588 C2589 1.392 1_655 S
C2588 C2591 1.511 . S
C2589 C2585 1.376 . S
C2589 C2588 1.392 1_455 S
C2589 H2601 0.929 . S
C2590 C2586 1.532 1_655 S
C2590 H2602 0.955 . S
C2590 H2603 0.963 1_655 S
C2590 H2604 0.962 1_655 S
C2591 C2588 1.511 . S
C2591 H2605 0.961 . S
C2591 H2606 0.961 . S
C2591 H2607 0.961 . S
C2592 C2593 1.370 . S
C2592 C2594 1.363 . S
C2592 H2608 0.931 . S
C2593 C2592 1.370 . S
C2593 C2597 1.408 . S
C2594 C2592 1.363 . S
C2594 C2595 1.370 . S
C2594 C2598 1.524 . S
C2595 C2587 1.503 . S
C2595 C2594 1.370 . S
C2595 C2596 1.403 . S
C2596 C2595 1.403 . S
C2596 C2597 1.404 . S
C2596 C2599 1.539 . S
C2597 C2593 1.408 . S
C2597 C2596 1.404 . S
C2597 H2609 0.930 . S
C2598 C2594 1.524 . S
C2598 H2610 0.956 . S
C2598 H2611 0.961 . S
C2598 H2612 0.961 . S
C2599 C2596 1.539 . S
C2599 H2613 0.958 . S
C2599 H2614 0.961 . S
C2599 H2615 0.960 . S
H2600 C2584 0.931 . S
H2601 C2589 0.929 . S
H2602 C2590 0.955 . S
H2603 C2590 0.963 1_455 S
H2604 C2590 0.962 1_455 S
H2605 C2591 0.961 . S
H2606 C2591 0.961 . S
H2607 C2591 0.961 . S
H2608 C2592 0.931 . S
H2609 C2597 0.930 . S
H2610 C2598 0.956 . S
H2611 C2598 0.961 . S
H2612 C2598 0.961 . S
H2613 C2599 0.958 . S
H2614 C2599 0.961 . S
H2615 C2599 0.960 . S
C2616 C2617 1.391 . S
C2616 C2618 1.394 . S
C2616 H2632 0.931 . S
C2617 C2616 1.391 . S
C2617 C2621 1.376 . S
C2618 C2616 1.394 . S
C2618 C2619 1.369 . S
C2618 C2622 1.531 . S
C2619 C2618 1.369 . S
C2619 C2620 1.410 . S
C2619 C2627 1.503 . S
C2620 C2619 1.410 . S
C2620 C2621 1.392 . S
C2620 C2623 1.511 . S
C2621 C2617 1.376 . S
C2621 C2620 1.392 . S
C2621 H2633 0.929 . S
C2622 C2618 1.531 . S
C2622 H2634 0.960 . S
C2622 H2635 0.962 . S
C2622 H2636 0.960 . S
C2623 C2620 1.511 . S
C2623 H2637 0.961 . S
C2623 H2638 0.961 . S
C2623 H2639 0.961 . S
C2624 C2625 1.370 . S
C2624 C2626 1.363 . S
C2624 H2640 0.931 . S
C2625 C2624 1.370 . S
C2625 C2629 1.408 . S
C2626 C2624 1.363 . S
C2626 C2627 1.370 . S
C2626 C2630 1.524 . S
C2627 C2619 1.503 . S
C2627 C2626 1.370 . S
C2627 C2628 1.403 . S
C2628 C2627 1.403 . S
C2628 C2629 1.404 . S
C2628 C2631 1.539 . S
C2629 C2625 1.408 . S
C2629 C2628 1.404 . S
C2629 H2641 0.930 . S
C2630 C2626 1.524 . S
C2630 H2642 0.956 . S
C2630 H2643 0.961 . S
C2630 H2644 0.961 . S
C2631 C2628 1.539 . S
C2631 H2645 0.958 . S
C2631 H2646 0.961 . S
C2631 H2647 0.960 . S
H2632 C2616 0.931 . S
H2633 C2621 0.929 . S
H2634 C2622 0.960 . S
H2635 C2622 0.962 . S
H2636 C2622 0.960 . S
H2637 C2623 0.961 . S
H2638 C2623 0.961 . S
H2639 C2623 0.961 . S
H2640 C2624 0.931 . S
H2641 C2629 0.930 . S
H2642 C2630 0.956 . S
H2643 C2630 0.961 . S
H2644 C2630 0.961 . S
H2645 C2631 0.958 . S
H2646 C2631 0.961 . S
H2647 C2631 0.960 . S
C2648 C2649 1.391 . S
C2648 C2650 1.394 . S
C2648 H2664 0.931 . S
C2649 C2648 1.391 . S
C2649 C2653 1.376 . S
C2650 C2648 1.394 . S
C2650 C2651 1.369 . S
C2650 C2654 1.531 . S
C2651 C2650 1.369 . S
C2651 C2652 1.410 . S
C2651 C2659 1.503 . S
C2652 C2651 1.410 . S
C2652 C2653 1.392 . S
C2652 C2655 1.511 . S
C2653 C2649 1.376 . S
C2653 C2652 1.392 . S
C2653 H2665 0.929 . S
C2654 C2650 1.531 . S
C2654 H2666 0.960 . S
C2654 H2667 0.962 . S
C2654 H2668 0.960 . S
C2655 C2652 1.511 . S
C2655 H2669 0.961 . S
C2655 H2670 0.961 . S
C2655 H2671 0.961 . S
C2656 C2657 1.370 . S
C2656 C2658 1.363 . S
C2656 H2672 0.931 . S
C2657 C2656 1.370 . S
C2657 C2661 1.408 . S
C2658 C2656 1.363 . S
C2658 C2659 1.370 . S
C2658 C2662 1.524 . S
C2659 C2651 1.503 . S
C2659 C2658 1.370 . S
C2659 C2660 1.403 . S
C2660 C2659 1.403 . S
C2660 C2661 1.404 . S
C2660 C2663 1.539 . S
C2661 C2657 1.408 . S
C2661 C2660 1.404 . S
C2661 H2673 0.930 . S
C2662 C2658 1.524 . S
C2662 H2674 0.956 . S
C2662 H2675 0.961 . S
C2662 H2676 0.961 . S
C2663 C2660 1.539 . S
C2663 H2677 0.958 . S
C2663 H2678 0.961 . S
C2663 H2679 0.960 . S
H2664 C2648 0.931 . S
H2665 C2653 0.929 . S
H2666 C2654 0.960 . S
H2667 C2654 0.962 . S
H2668 C2654 0.960 . S
H2669 C2655 0.961 . S
H2670 C2655 0.961 . S
H2671 C2655 0.961 . S
H2672 C2656 0.931 . S
H2673 C2661 0.930 . S
H2674 C2662 0.956 . S
H2675 C2662 0.961 . S
H2676 C2662 0.961 . S
H2677 C2663 0.958 . S
H2678 C2663 0.961 . S
H2679 C2663 0.960 . S
C2680 C2681 1.391 . S
C2680 C2682 1.394 . S
C2680 H2696 0.931 . S
C2681 C2680 1.391 . S
C2681 C2685 1.376 . S
C2682 C2680 1.394 . S
C2682 C2683 1.369 . S
C2682 C2686 1.531 . S
C2683 C2682 1.369 . S
C2683 C2684 1.410 . S
C2683 C2691 1.503 . S
C2684 C2683 1.410 . S
C2684 C2685 1.392 . S
C2684 C2687 1.505 1_455 S
C2685 C2681 1.376 . S
C2685 C2684 1.392 . S
C2685 H2697 0.929 . S
C2686 C2682 1.531 . S
C2686 H2698 0.960 . S
C2686 H2699 0.962 . S
C2686 H2700 0.960 . S
C2687 C2684 1.505 1_655 S
C2687 H2701 0.971 . S
C2687 H2702 0.960 . S
C2687 H2703 0.958 1_655 S
C2688 C2689 1.370 . S
C2688 C2690 1.363 . S
C2688 H2704 0.931 . S
C2689 C2688 1.370 . S
C2689 C2693 1.408 . S
C2690 C2688 1.363 . S
C2690 C2691 1.370 . S
C2690 C2694 1.524 . S
C2691 C2683 1.503 . S
C2691 C2690 1.370 . S
C2691 C2692 1.403 . S
C2692 C2691 1.403 . S
C2692 C2693 1.404 . S
C2692 C2695 1.539 . S
C2693 C2689 1.408 . S
C2693 C2692 1.404 . S
C2693 H2705 0.930 . S
C2694 C2690 1.524 . S
C2694 H2706 0.956 . S
C2694 H2707 0.961 . S
C2694 H2708 0.961 . S
C2695 C2692 1.539 . S
C2695 H2709 0.958 . S
C2695 H2710 0.961 . S
C2695 H2711 0.960 . S
H2696 C2680 0.931 . S
H2697 C2685 0.929 . S
H2698 C2686 0.960 . S
H2699 C2686 0.962 . S
H2700 C2686 0.960 . S
H2701 C2687 0.971 . S
H2702 C2687 0.960 . S
H2703 C2687 0.958 1_455 S
H2704 C2688 0.931 . S
H2705 C2693 0.930 . S
H2706 C2694 0.956 . S
H2707 C2694 0.961 . S
H2708 C2694 0.961 . S
H2709 C2695 0.958 . S
H2710 C2695 0.961 . S
H2711 C2695 0.960 . S
C2712 C2713 1.391 . S
C2712 C2714 1.394 . S
C2712 H2728 0.931 . S
C2713 C2712 1.391 . S
C2713 C2717 1.376 . S
C2714 C2712 1.394 . S
C2714 C2715 1.369 . S
C2714 C2718 1.531 . S
C2715 C2714 1.369 . S
C2715 C2716 1.410 . S
C2715 C2723 1.503 . S
C2716 C2715 1.410 . S
C2716 C2717 1.392 . S
C2716 C2719 1.511 . S
C2717 C2713 1.376 . S
C2717 C2716 1.392 . S
C2717 H2729 0.929 . S
C2718 C2714 1.531 . S
C2718 H2730 0.960 . S
C2718 H2731 0.962 . S
C2718 H2732 0.960 . S
C2719 C2716 1.511 . S
C2719 H2733 0.961 . S
C2719 H2734 0.961 . S
C2719 H2735 0.961 . S
C2720 C2721 1.370 . S
C2720 C2722 1.363 . S
C2720 H2736 0.931 . S
C2721 C2720 1.370 . S
C2721 C2725 1.408 . S
C2722 C2720 1.363 . S
C2722 C2723 1.370 . S
C2722 C2726 1.524 . S
C2723 C2715 1.503 . S
C2723 C2722 1.370 . S
C2723 C2724 1.403 . S
C2724 C2723 1.403 . S
C2724 C2725 1.404 . S
C2724 C2727 1.539 . S
C2725 C2721 1.408 . S
C2725 C2724 1.404 . S
C2725 H2737 0.930 . S
C2726 C2722 1.524 . S
C2726 H2738 0.956 . S
C2726 H2739 0.961 . S
C2726 H2740 0.961 . S
C2727 C2724 1.539 . S
C2727 H2741 0.958 . S
C2727 H2742 0.961 . S
C2727 H2743 0.960 . S
H2728 C2712 0.931 . S
H2729 C2717 0.929 . S
H2730 C2718 0.960 . S
H2731 C2718 0.962 . S
H2732 C2718 0.960 . S
H2733 C2719 0.961 . S
H2734 C2719 0.961 . S
H2735 C2719 0.961 . S
H2736 C2720 0.931 . S
H2737 C2725 0.930 . S
H2738 C2726 0.956 . S
H2739 C2726 0.961 . S
H2740 C2726 0.961 . S
H2741 C2727 0.958 . S
H2742 C2727 0.961 . S
H2743 C2727 0.960 . S
C2744 C2745 1.391 . S
C2744 C2746 1.394 . S
C2744 H2760 0.931 . S
C2745 C2744 1.391 . S
C2745 C2749 1.376 . S
C2746 C2744 1.394 . S
C2746 C2747 1.369 . S
C2746 C2750 1.531 . S
C2747 C2746 1.369 . S
C2747 C2748 1.410 . S
C2747 C2755 1.503 . S
C2748 C2747 1.410 . S
C2748 C2749 1.392 . S
C2748 C2751 1.511 . S
C2749 C2745 1.376 . S
C2749 C2748 1.392 . S
C2749 H2761 0.929 . S
C2750 C2746 1.531 . S
C2750 H2762 0.960 . S
C2750 H2763 0.962 . S
C2750 H2764 0.960 . S
C2751 C2748 1.511 . S
C2751 H2765 0.961 . S
C2751 H2766 0.961 . S
C2751 H2767 0.961 . S
C2752 C2753 1.370 . S
C2752 C2754 1.363 . S
C2752 H2768 0.931 . S
C2753 C2752 1.370 . S
C2753 C2757 1.408 . S
C2754 C2752 1.363 . S
C2754 C2755 1.370 . S
C2754 C2758 1.524 . S
C2755 C2747 1.503 . S
C2755 C2754 1.370 . S
C2755 C2756 1.403 . S
C2756 C2755 1.403 . S
C2756 C2757 1.404 . S
C2756 C2759 1.539 . S
C2757 C2753 1.408 . S
C2757 C2756 1.404 . S
C2757 H2769 0.930 . S
C2758 C2754 1.524 . S
C2758 H2770 0.956 . S
C2758 H2771 0.961 . S
C2758 H2772 0.961 . S
C2759 C2756 1.539 . S
C2759 H2773 0.958 . S
C2759 H2774 0.961 . S
C2759 H2775 0.960 . S
H2760 C2744 0.931 . S
H2761 C2749 0.929 . S
H2762 C2750 0.960 . S
H2763 C2750 0.962 . S
H2764 C2750 0.960 . S
H2765 C2751 0.961 . S
H2766 C2751 0.961 . S
H2767 C2751 0.961 . S
H2768 C2752 0.931 . S
H2769 C2757 0.930 . S
H2770 C2758 0.956 . S
H2771 C2758 0.961 . S
H2772 C2758 0.961 . S
H2773 C2759 0.958 . S
H2774 C2759 0.961 . S
H2775 C2759 0.960 . S
C2776 C2777 1.391 . S
C2776 C2778 1.391 1_554 S
C2776 H2792 0.931 . S
C2777 C2776 1.391 . S
C2777 C2781 1.376 . S
C2778 C2776 1.391 1_556 S
C2778 C2779 1.371 . S
C2778 C2782 1.531 . S
C2779 C2778 1.371 . S
C2779 C2780 1.410 . S
C2779 C2787 1.503 . S
C2780 C2779 1.410 . S
C2780 C2781 1.392 1_556 S
C2780 C2783 1.511 . S
C2781 C2777 1.376 . S
C2781 C2780 1.392 1_554 S
C2781 H2793 0.929 . S
C2782 C2778 1.531 . S
C2782 H2794 0.960 . S
C2782 H2795 0.962 . S
C2782 H2796 0.960 1_556 S
C2783 C2780 1.511 . S
C2783 H2797 0.961 . S
C2783 H2798 0.961 . S
C2783 H2799 0.961 . S
C2784 C2785 1.370 . S
C2784 C2786 1.363 . S
C2784 H2800 0.931 . S
C2785 C2784 1.370 . S
C2785 C2789 1.408 . S
C2786 C2784 1.363 . S
C2786 C2787 1.370 . S
C2786 C2790 1.524 . S
C2787 C2779 1.503 . S
C2787 C2786 1.370 . S
C2787 C2788 1.403 . S
C2788 C2787 1.403 . S
C2788 C2789 1.404 . S
C2788 C2791 1.539 . S
C2789 C2785 1.408 . S
C2789 C2788 1.404 . S
C2789 H2801 0.930 . S
C2790 C2786 1.524 . S
C2790 H2802 0.956 . S
C2790 H2803 0.961 . S
C2790 H2804 0.961 . S
C2791 C2788 1.539 . S
C2791 H2805 0.958 . S
C2791 H2806 0.961 . S
C2791 H2807 0.960 . S
H2792 C2776 0.931 . S
H2793 C2781 0.929 . S
H2794 C2782 0.960 . S
H2795 C2782 0.962 . S
H2796 C2782 0.960 1_554 S
H2797 C2783 0.961 . S
H2798 C2783 0.961 . S
H2799 C2783 0.961 . S
H2800 C2784 0.931 . S
H2801 C2789 0.930 . S
H2802 C2790 0.956 . S
H2803 C2790 0.961 . S
H2804 C2790 0.961 . S
H2805 C2791 0.958 . S
H2806 C2791 0.961 . S
H2807 C2791 0.960 . S
C2808 C2809 1.391 . S
C2808 C2810 1.394 . S
C2808 H2824 0.931 . S
C2809 C2808 1.391 . S
C2809 C2813 1.376 . S
C2810 C2808 1.394 . S
C2810 C2811 1.369 . S
C2810 C2814 1.531 . S
C2811 C2810 1.369 . S
C2811 C2812 1.410 . S
C2811 C2819 1.503 . S
C2812 C2811 1.410 . S
C2812 C2813 1.392 . S
C2812 C2815 1.511 . S
C2813 C2809 1.376 . S
C2813 C2812 1.392 . S
C2813 H2825 0.929 . S
C2814 C2810 1.531 . S
C2814 H2826 0.960 . S
C2814 H2827 0.962 . S
C2814 H2828 0.960 . S
C2815 C2812 1.511 . S
C2815 H2829 0.961 . S
C2815 H2830 0.961 . S
C2815 H2831 0.961 . S
C2816 C2817 1.370 . S
C2816 C2818 1.363 . S
C2816 H2832 0.931 . S
C2817 C2816 1.370 . S
C2817 C2821 1.408 . S
C2818 C2816 1.363 . S
C2818 C2819 1.370 . S
C2818 C2822 1.524 . S
C2819 C2811 1.503 . S
C2819 C2818 1.370 . S
C2819 C2820 1.403 . S
C2820 C2819 1.403 . S
C2820 C2821 1.404 . S
C2820 C2823 1.539 . S
C2821 C2817 1.408 . S
C2821 C2820 1.404 . S
C2821 H2833 0.930 . S
C2822 C2818 1.524 . S
C2822 H2834 0.956 . S
C2822 H2835 0.961 . S
C2822 H2836 0.961 . S
C2823 C2820 1.539 . S
C2823 H2837 0.958 . S
C2823 H2838 0.961 . S
C2823 H2839 0.960 . S
H2824 C2808 0.931 . S
H2825 C2813 0.929 . S
H2826 C2814 0.960 . S
H2827 C2814 0.962 . S
H2828 C2814 0.960 . S
H2829 C2815 0.961 . S
H2830 C2815 0.961 . S
H2831 C2815 0.961 . S
H2832 C2816 0.931 . S
H2833 C2821 0.930 . S
H2834 C2822 0.956 . S
H2835 C2822 0.961 . S
H2836 C2822 0.961 . S
H2837 C2823 0.958 . S
H2838 C2823 0.961 . S
H2839 C2823 0.960 . S
C2840 C2841 1.391 . S
C2840 C2842 1.394 . S
C2840 H2856 0.931 . S
C2841 C2840 1.391 . S
C2841 C2845 1.376 . S
C2842 C2840 1.394 . S
C2842 C2843 1.369 . S
C2842 C2846 1.531 . S
C2843 C2842 1.369 . S
C2843 C2844 1.410 . S
C2843 C2851 1.503 . S
C2844 C2843 1.410 . S
C2844 C2845 1.392 . S
C2844 C2847 1.511 . S
C2845 C2841 1.376 . S
C2845 C2844 1.392 . S
C2845 H2857 0.929 . S
C2846 C2842 1.531 . S
C2846 H2858 0.960 . S
C2846 H2859 0.962 . S
C2846 H2860 0.960 . S
C2847 C2844 1.511 . S
C2847 H2861 0.961 . S
C2847 H2862 0.961 . S
C2847 H2863 0.961 . S
C2848 C2849 1.370 . S
C2848 C2850 1.363 . S
C2848 H2864 0.931 . S
C2849 C2848 1.370 . S
C2849 C2853 1.408 . S
C2850 C2848 1.363 . S
C2850 C2851 1.370 . S
C2850 C2854 1.524 . S
C2851 C2843 1.503 . S
C2851 C2850 1.370 . S
C2851 C2852 1.403 . S
C2852 C2851 1.403 . S
C2852 C2853 1.404 . S
C2852 C2855 1.539 . S
C2853 C2849 1.408 . S
C2853 C2852 1.404 . S
C2853 H2865 0.930 . S
C2854 C2850 1.524 . S
C2854 H2866 0.956 . S
C2854 H2867 0.961 . S
C2854 H2868 0.961 . S
C2855 C2852 1.539 . S
C2855 H2869 0.958 . S
C2855 H2870 0.961 . S
C2855 H2871 0.960 . S
H2856 C2840 0.931 . S
H2857 C2845 0.929 . S
H2858 C2846 0.960 . S
H2859 C2846 0.962 . S
H2860 C2846 0.960 . S
H2861 C2847 0.961 . S
H2862 C2847 0.961 . S
H2863 C2847 0.961 . S
H2864 C2848 0.931 . S
H2865 C2853 0.930 . S
H2866 C2854 0.956 . S
H2867 C2854 0.961 . S
H2868 C2854 0.961 . S
H2869 C2855 0.958 . S
H2870 C2855 0.961 . S
H2871 C2855 0.960 . S
C2872 C2873 1.391 . S
C2872 C2874 1.394 . S
C2872 H2888 0.931 . S
C2873 C2872 1.391 . S
C2873 C2877 1.376 . S
C2874 C2872 1.394 . S
C2874 C2875 1.369 . S
C2874 C2878 1.531 . S
C2875 C2874 1.369 . S
C2875 C2876 1.410 . S
C2875 C2883 1.503 . S
C2876 C2875 1.410 . S
C2876 C2877 1.392 . S
C2876 C2879 1.511 . S
C2877 C2873 1.376 . S
C2877 C2876 1.392 . S
C2877 H2889 0.929 . S
C2878 C2874 1.531 . S
C2878 H2890 0.960 . S
C2878 H2891 0.962 . S
C2878 H2892 0.960 . S
C2879 C2876 1.511 . S
C2879 H2893 0.961 . S
C2879 H2894 0.961 . S
C2879 H2895 0.961 . S
C2880 C2881 1.370 . S
C2880 C2882 1.363 . S
C2880 H2896 0.931 . S
C2881 C2880 1.370 . S
C2881 C2885 1.408 . S
C2882 C2880 1.363 . S
C2882 C2883 1.370 . S
C2882 C2886 1.524 . S
C2883 C2875 1.503 . S
C2883 C2882 1.370 . S
C2883 C2884 1.403 . S
C2884 C2883 1.403 . S
C2884 C2885 1.404 . S
C2884 C2887 1.539 . S
C2885 C2881 1.408 . S
C2885 C2884 1.404 . S
C2885 H2897 0.930 . S
C2886 C2882 1.524 . S
C2886 H2898 0.956 . S
C2886 H2899 0.961 . S
C2886 H2900 0.961 . S
C2887 C2884 1.539 . S
C2887 H2901 0.958 . S
C2887 H2902 0.961 . S
C2887 H2903 0.960 . S
H2888 C2872 0.931 . S
H2889 C2877 0.929 . S
H2890 C2878 0.960 . S
H2891 C2878 0.962 . S
H2892 C2878 0.960 . S
H2893 C2879 0.961 . S
H2894 C2879 0.961 . S
H2895 C2879 0.961 . S
H2896 C2880 0.931 . S
H2897 C2885 0.930 . S
H2898 C2886 0.956 . S
H2899 C2886 0.961 . S
H2900 C2886 0.961 . S
H2901 C2887 0.958 . S
H2902 C2887 0.961 . S
H2903 C2887 0.960 . S
C2904 C2905 1.391 . S
C2904 C2906 1.394 . S
C2904 H2920 0.931 . S
C2905 C2904 1.391 . S
C2905 C2909 1.376 . S
C2906 C2904 1.394 . S
C2906 C2907 1.369 . S
C2906 C2910 1.531 . S
C2907 C2906 1.369 . S
C2907 C2908 1.410 . S
C2907 C2915 1.503 . S
C2908 C2907 1.410 . S
C2908 C2909 1.392 . S
C2908 C2911 1.511 . S
C2909 C2905 1.376 . S
C2909 C2908 1.392 . S
C2909 H2921 0.929 . S
C2910 C2906 1.531 . S
C2910 H2922 0.960 . S
C2910 H2923 0.962 . S
C2910 H2924 0.960 . S
C2911 C2908 1.511 . S
C2911 H2925 0.961 . S
C2911 H2926 0.961 . S
C2911 H2927 0.961 . S
C2912 C2913 1.370 . S
C2912 C2914 1.363 . S
C2912 H2928 0.931 . S
C2913 C2912 1.370 . S
C2913 C2917 1.408 . S
C2914 C2912 1.363 . S
C2914 C2915 1.370 . S
C2914 C2918 1.524 . S
C2915 C2907 1.503 . S
C2915 C2914 1.370 . S
C2915 C2916 1.403 . S
C2916 C2915 1.403 . S
C2916 C2917 1.404 . S
C2916 C2919 1.539 . S
C2917 C2913 1.408 . S
C2917 C2916 1.404 . S
C2917 H2929 0.930 . S
C2918 C2914 1.524 . S
C2918 H2930 0.956 . S
C2918 H2931 0.961 . S
C2918 H2932 0.961 . S
C2919 C2916 1.539 . S
C2919 H2933 0.958 . S
C2919 H2934 0.961 . S
C2919 H2935 0.960 . S
H2920 C2904 0.931 . S
H2921 C2909 0.929 . S
H2922 C2910 0.960 . S
H2923 C2910 0.962 . S
H2924 C2910 0.960 . S
H2925 C2911 0.961 . S
H2926 C2911 0.961 . S
H2927 C2911 0.961 . S
H2928 C2912 0.931 . S
H2929 C2917 0.930 . S
H2930 C2918 0.956 . S
H2931 C2918 0.961 . S
H2932 C2918 0.961 . S
H2933 C2919 0.958 . S
H2934 C2919 0.961 . S
H2935 C2919 0.960 . S
C2936 C2937 1.391 . S
C2936 C2938 1.394 . S
C2936 H2952 0.931 . S
C2937 C2936 1.391 . S
C2937 C2941 1.376 . S
C2938 C2936 1.394 . S
C2938 C2939 1.369 . S
C2938 C2942 1.531 . S
C2939 C2938 1.369 . S
C2939 C2940 1.410 . S
C2939 C2947 1.503 . S
C2940 C2939 1.410 . S
C2940 C2941 1.392 . S
C2940 C2943 1.511 . S
C2941 C2937 1.376 . S
C2941 C2940 1.392 . S
C2941 H2953 0.929 . S
C2942 C2938 1.531 . S
C2942 H2954 0.960 . S
C2942 H2955 0.962 . S
C2942 H2956 0.960 . S
C2943 C2940 1.511 . S
C2943 H2957 0.961 . S
C2943 H2958 0.961 . S
C2943 H2959 0.961 . S
C2944 C2945 1.370 . S
C2944 C2946 1.363 . S
C2944 H2960 0.931 . S
C2945 C2944 1.370 . S
C2945 C2949 1.408 . S
C2946 C2944 1.363 . S
C2946 C2947 1.370 . S
C2946 C2950 1.524 . S
C2947 C2939 1.503 . S
C2947 C2946 1.370 . S
C2947 C2948 1.403 . S
C2948 C2947 1.403 . S
C2948 C2949 1.404 . S
C2948 C2951 1.539 . S
C2949 C2945 1.408 . S
C2949 C2948 1.404 . S
C2949 H2961 0.930 . S
C2950 C2946 1.524 . S
C2950 H2962 0.956 . S
C2950 H2963 0.961 . S
C2950 H2964 0.961 . S
C2951 C2948 1.539 . S
C2951 H2965 0.958 . S
C2951 H2966 0.961 . S
C2951 H2967 0.960 . S
H2952 C2936 0.931 . S
H2953 C2941 0.929 . S
H2954 C2942 0.960 . S
H2955 C2942 0.962 . S
H2956 C2942 0.960 . S
H2957 C2943 0.961 . S
H2958 C2943 0.961 . S
H2959 C2943 0.961 . S
H2960 C2944 0.931 . S
H2961 C2949 0.930 . S
H2962 C2950 0.956 . S
H2963 C2950 0.961 . S
H2964 C2950 0.961 . S
H2965 C2951 0.958 . S
H2966 C2951 0.961 . S
H2967 C2951 0.960 . S
C2968 C2969 1.391 . S
C2968 C2970 1.394 . S
C2968 H2984 0.931 . S
C2969 C2968 1.391 . S
C2969 C2973 1.376 . S
C2970 C2968 1.394 . S
C2970 C2971 1.369 . S
C2970 C2974 1.531 . S
C2971 C2970 1.369 . S
C2971 C2972 1.410 . S
C2971 C2979 1.503 . S
C2972 C2971 1.410 . S
C2972 C2973 1.392 . S
C2972 C2975 1.511 . S
C2973 C2969 1.376 . S
C2973 C2972 1.392 . S
C2973 H2985 0.929 . S
C2974 C2970 1.531 . S
C2974 H2986 0.960 . S
C2974 H2987 0.962 . S
C2974 H2988 0.960 . S
C2975 C2972 1.511 . S
C2975 H2989 0.961 . S
C2975 H2990 0.961 . S
C2975 H2991 0.961 . S
C2976 C2977 1.370 . S
C2976 C2978 1.363 . S
C2976 H2992 0.931 . S
C2977 C2976 1.370 . S
C2977 C2981 1.408 . S
C2978 C2976 1.363 . S
C2978 C2979 1.370 . S
C2978 C2982 1.524 . S
C2979 C2971 1.503 . S
C2979 C2978 1.370 . S
C2979 C2980 1.403 . S
C2980 C2979 1.403 . S
C2980 C2981 1.404 . S
C2980 C2983 1.539 . S
C2981 C2977 1.408 . S
C2981 C2980 1.404 . S
C2981 H2993 0.930 . S
C2982 C2978 1.524 . S
C2982 H2994 0.956 . S
C2982 H2995 0.961 . S
C2982 H2996 0.961 . S
C2983 C2980 1.539 . S
C2983 H2997 0.958 . S
C2983 H2998 0.961 . S
C2983 H2999 0.960 . S
H2984 C2968 0.931 . S
H2985 C2973 0.929 . S
H2986 C2974 0.960 . S
H2987 C2974 0.962 . S
H2988 C2974 0.960 . S
H2989 C2975 0.961 . S
H2990 C2975 0.961 . S
H2991 C2975 0.961 . S
H2992 C2976 0.931 . S
H2993 C2981 0.930 . S
H2994 C2982 0.956 . S
H2995 C2982 0.961 . S
H2996 C2982 0.961 . S
H2997 C2983 0.958 . S
H2998 C2983 0.961 . S
H2999 C2983 0.960 . S
C3000 C3001 1.391 . S
C3000 C3002 1.394 . S
C3000 H3016 0.931 . S
C3001 C3000 1.391 . S
C3001 C3005 1.376 . S
C3002 C3000 1.394 . S
C3002 C3003 1.369 . S
C3002 C3006 1.531 . S
C3003 C3002 1.369 . S
C3003 C3004 1.410 . S
C3003 C3011 1.503 . S
C3004 C3003 1.410 . S
C3004 C3005 1.392 . S
C3004 C3007 1.511 . S
C3005 C3001 1.376 . S
C3005 C3004 1.392 . S
C3005 H3017 0.929 . S
C3006 C3002 1.531 . S
C3006 H3018 0.960 . S
C3006 H3019 0.962 . S
C3006 H3020 0.960 . S
C3007 C3004 1.511 . S
C3007 H3021 0.961 . S
C3007 H3022 0.961 . S
C3007 H3023 0.961 . S
C3008 C3009 1.370 . S
C3008 C3010 1.363 . S
C3008 H3024 0.931 . S
C3009 C3008 1.370 . S
C3009 C3013 1.408 . S
C3010 C3008 1.363 . S
C3010 C3011 1.370 . S
C3010 C3014 1.524 . S
C3011 C3003 1.503 . S
C3011 C3010 1.370 . S
C3011 C3012 1.403 . S
C3012 C3011 1.403 . S
C3012 C3013 1.404 . S
C3012 C3015 1.539 . S
C3013 C3009 1.408 . S
C3013 C3012 1.404 . S
C3013 H3025 0.930 . S
C3014 C3010 1.524 . S
C3014 H3026 0.956 . S
C3014 H3027 0.961 . S
C3014 H3028 0.961 . S
C3015 C3012 1.539 . S
C3015 H3029 0.958 . S
C3015 H3030 0.961 . S
C3015 H3031 0.960 . S
H3016 C3000 0.931 . S
H3017 C3005 0.929 . S
H3018 C3006 0.960 . S
H3019 C3006 0.962 . S
H3020 C3006 0.960 . S
H3021 C3007 0.961 . S
H3022 C3007 0.961 . S
H3023 C3007 0.961 . S
H3024 C3008 0.931 . S
H3025 C3013 0.930 . S
H3026 C3014 0.956 . S
H3027 C3014 0.961 . S
H3028 C3014 0.961 . S
H3029 C3015 0.958 . S
H3030 C3015 0.961 . S
H3031 C3015 0.960 . S
C3032 C3033 1.391 . S
C3032 C3034 1.394 . S
C3032 H3048 0.931 . S
C3033 C3032 1.391 . S
C3033 C3037 1.376 . S
C3034 C3032 1.394 . S
C3034 C3035 1.369 . S
C3034 C3038 1.531 . S
C3035 C3034 1.369 . S
C3035 C3036 1.410 . S
C3035 C3043 1.503 . S
C3036 C3035 1.410 . S
C3036 C3037 1.392 . S
C3036 C3039 1.511 . S
C3037 C3033 1.376 . S
C3037 C3036 1.392 . S
C3037 H3049 0.929 . S
C3038 C3034 1.531 . S
C3038 H3050 0.960 . S
C3038 H3051 0.962 . S
C3038 H3052 0.960 . S
C3039 C3036 1.511 . S
C3039 H3053 0.961 . S
C3039 H3054 0.961 . S
C3039 H3055 0.961 . S
C3040 C3041 1.370 . S
C3040 C3042 1.363 . S
C3040 H3056 0.931 . S
C3041 C3040 1.370 . S
C3041 C3045 1.408 . S
C3042 C3040 1.363 . S
C3042 C3043 1.370 . S
C3042 C3046 1.524 . S
C3043 C3035 1.503 . S
C3043 C3042 1.370 . S
C3043 C3044 1.403 . S
C3044 C3043 1.403 . S
C3044 C3045 1.404 . S
C3044 C3047 1.539 . S
C3045 C3041 1.408 . S
C3045 C3044 1.404 . S
C3045 H3057 0.930 . S
C3046 C3042 1.524 . S
C3046 H3058 0.956 . S
C3046 H3059 0.961 . S
C3046 H3060 0.961 . S
C3047 C3044 1.539 . S
C3047 H3061 0.958 . S
C3047 H3062 0.961 . S
C3047 H3063 0.960 . S
H3048 C3032 0.931 . S
H3049 C3037 0.929 . S
H3050 C3038 0.960 . S
H3051 C3038 0.962 . S
H3052 C3038 0.960 . S
H3053 C3039 0.961 . S
H3054 C3039 0.961 . S
H3055 C3039 0.961 . S
H3056 C3040 0.931 . S
H3057 C3045 0.930 . S
H3058 C3046 0.956 . S
H3059 C3046 0.961 . S
H3060 C3046 0.961 . S
H3061 C3047 0.958 . S
H3062 C3047 0.961 . S
H3063 C3047 0.960 . S
C3064 C3065 1.392 1_565 S
C3064 C3066 1.394 . S
C3064 H3080 0.931 . S
C3065 C3064 1.392 1_545 S
C3065 C3069 1.376 1_545 S
C3066 C3064 1.394 . S
C3066 C3067 1.369 . S
C3066 C3070 1.531 . S
C3067 C3066 1.369 . S
C3067 C3068 1.410 . S
C3067 C3075 1.503 . S
C3068 C3067 1.410 . S
C3068 C3069 1.392 . S
C3068 C3071 1.511 . S
C3069 C3065 1.376 1_565 S
C3069 C3068 1.392 . S
C3069 H3081 0.925 . S
C3070 C3066 1.531 . S
C3070 H3082 0.960 . S
C3070 H3083 0.962 . S
C3070 H3084 0.960 . S
C3071 C3068 1.511 . S
C3071 H3085 0.961 . S
C3071 H3086 0.961 . S
C3071 H3087 0.961 . S
C3072 C3073 1.370 . S
C3072 C3074 1.363 . S
C3072 H3088 0.931 . S
C3073 C3072 1.370 . S
C3073 C3077 1.408 . S
C3074 C3072 1.363 . S
C3074 C3075 1.370 . S
C3074 C3078 1.524 . S
C3075 C3067 1.503 . S
C3075 C3074 1.370 . S
C3075 C3076 1.403 . S
C3076 C3075 1.403 . S
C3076 C3077 1.404 . S
C3076 C3079 1.539 . S
C3077 C3073 1.408 . S
C3077 C3076 1.404 . S
C3077 H3089 0.930 . S
C3078 C3074 1.524 . S
C3078 H3090 0.957 1_565 S
C3078 H3091 0.961 1_565 S
C3078 H3092 0.957 1_565 S
C3079 C3076 1.539 . S
C3079 H3093 0.958 . S
C3079 H3094 0.961 . S
C3079 H3095 0.960 . S
H3080 C3064 0.931 . S
H3081 C3069 0.925 . S
H3082 C3070 0.960 . S
H3083 C3070 0.962 . S
H3084 C3070 0.960 . S
H3085 C3071 0.961 . S
H3086 C3071 0.961 . S
H3087 C3071 0.961 . S
H3088 C3072 0.931 . S
H3089 C3077 0.930 . S
H3090 C3078 0.957 1_545 S
H3091 C3078 0.961 1_545 S
H3092 C3078 0.957 1_545 S
H3093 C3079 0.958 . S
H3094 C3079 0.961 . S
H3095 C3079 0.960 . S
C3096 C3097 1.391 . S
C3096 C3098 1.394 . S
C3096 H3112 0.931 . S
C3097 C3096 1.391 . S
C3097 C3101 1.376 1_554 S
C3098 C3096 1.394 . S
C3098 C3099 1.369 . S
C3098 C3102 1.531 1_565 S
C3099 C3098 1.369 . S
C3099 C3100 1.410 . S
C3099 C3107 1.503 . S
C3100 C3099 1.410 . S
C3100 C3101 1.392 1_554 S
C3100 C3103 1.511 1_554 S
C3101 C3097 1.376 1_556 S
C3101 C3100 1.392 1_556 S
C3101 H3113 0.929 . S
C3102 C3098 1.531 1_545 S
C3102 H3114 0.960 . S
C3102 H3115 0.962 . S
C3102 H3116 0.960 . S
C3103 C3100 1.511 1_556 S
C3103 H3117 0.961 . S
C3103 H3118 0.961 . S
C3103 H3119 0.938 1_556 S
C3104 C3105 1.370 . S
C3104 C3106 1.363 . S
C3104 H3120 0.934 . S
C3105 C3104 1.370 . S
C3105 C3109 1.408 1_545 S
C3106 C3104 1.363 . S
C3106 C3107 1.370 1_545 S
C3106 C3110 1.524 1_554 S
C3107 C3099 1.503 . S
C3107 C3106 1.370 1_565 S
C3107 C3108 1.403 . S
C3108 C3107 1.403 . S
C3108 C3109 1.404 . S
C3108 C3111 1.539 . S
C3109 C3105 1.408 1_565 S
C3109 C3108 1.404 . S
C3109 H3121 0.930 . S
C3110 C3106 1.524 1_556 S
C3110 H3122 0.956 . S
C3110 H3123 0.961 . S
C3110 H3124 0.961 . S
C3111 C3108 1.539 . S
C3111 H3125 0.958 . S
C3111 H3126 0.961 . S
C3111 H3127 0.960 . S
H3112 C3096 0.931 . S
H3113 C3101 0.929 . S
H3114 C3102 0.960 . S
H3115 C3102 0.962 . S
H3116 C3102 0.960 . S
H3117 C3103 0.961 . S
H3118 C3103 0.961 . S
H3119 C3103 0.938 1_554 S
H3120 C3104 0.934 . S
H3121 C3109 0.930 . S
H3122 C3110 0.956 . S
H3123 C3110 0.961 . S
H3124 C3110 0.961 . S
H3125 C3111 0.958 . S
H3126 C3111 0.961 . S
H3127 C3111 0.960 . S
C3128 C3129 1.391 . S
C3128 C3130 1.394 . S
C3128 H3144 0.931 . S
C3129 C3128 1.391 . S
C3129 C3133 1.376 . S
C3130 C3128 1.394 . S
C3130 C3131 1.369 . S
C3130 C3134 1.531 . S
C3131 C3130 1.369 . S
C3131 C3132 1.410 . S
C3131 C3139 1.503 . S
C3132 C3131 1.410 . S
C3132 C3133 1.392 . S
C3132 C3135 1.511 . S
C3133 C3129 1.376 . S
C3133 C3132 1.392 . S
C3133 H3145 0.929 . S
C3134 C3130 1.531 . S
C3134 H3146 0.960 . S
C3134 H3147 0.962 . S
C3134 H3148 0.960 . S
C3135 C3132 1.511 . S
C3135 H3149 0.961 . S
C3135 H3150 0.961 . S
C3135 H3151 0.961 . S
C3136 C3137 1.370 . S
C3136 C3138 1.363 . S
C3136 H3152 0.931 . S
C3137 C3136 1.370 . S
C3137 C3141 1.408 . S
C3138 C3136 1.363 . S
C3138 C3139 1.370 . S
C3138 C3142 1.524 . S
C3139 C3131 1.503 . S
C3139 C3138 1.370 . S
C3139 C3140 1.403 . S
C3140 C3139 1.403 . S
C3140 C3141 1.404 . S
C3140 C3143 1.539 . S
C3141 C3137 1.408 . S
C3141 C3140 1.404 . S
C3141 H3153 0.930 . S
C3142 C3138 1.524 . S
C3142 H3154 0.956 . S
C3142 H3155 0.961 . S
C3142 H3156 0.961 . S
C3143 C3140 1.539 . S
C3143 H3157 0.958 . S
C3143 H3158 0.961 . S
C3143 H3159 0.960 . S
H3144 C3128 0.931 . S
H3145 C3133 0.929 . S
H3146 C3134 0.960 . S
H3147 C3134 0.962 . S
H3148 C3134 0.960 . S
H3149 C3135 0.961 . S
H3150 C3135 0.961 . S
H3151 C3135 0.961 . S
H3152 C3136 0.931 . S
H3153 C3141 0.930 . S
H3154 C3142 0.956 . S
H3155 C3142 0.961 . S
H3156 C3142 0.961 . S
H3157 C3143 0.958 . S
H3158 C3143 0.961 . S
H3159 C3143 0.960 . S
C3160 C3161 1.391 . S
C3160 C3162 1.394 . S
C3160 H3176 0.931 . S
C3161 C3160 1.391 . S
C3161 C3165 1.376 . S
C3162 C3160 1.394 . S
C3162 C3163 1.369 . S
C3162 C3166 1.531 . S
C3163 C3162 1.369 . S
C3163 C3164 1.410 . S
C3163 C3171 1.503 . S
C3164 C3163 1.410 . S
C3164 C3165 1.392 . S
C3164 C3167 1.511 . S
C3165 C3161 1.376 . S
C3165 C3164 1.392 . S
C3165 H3177 0.929 . S
C3166 C3162 1.531 . S
C3166 H3178 0.960 . S
C3166 H3179 0.962 . S
C3166 H3180 0.960 . S
C3167 C3164 1.511 . S
C3167 H3181 0.961 . S
C3167 H3182 0.961 . S
C3167 H3183 0.961 . S
C3168 C3169 1.370 . S
C3168 C3170 1.363 . S
C3168 H3184 0.931 . S
C3169 C3168 1.370 . S
C3169 C3173 1.408 . S
C3170 C3168 1.363 . S
C3170 C3171 1.370 . S
C3170 C3174 1.524 . S
C3171 C3163 1.503 . S
C3171 C3170 1.370 . S
C3171 C3172 1.403 . S
C3172 C3171 1.403 . S
C3172 C3173 1.404 . S
C3172 C3175 1.539 . S
C3173 C3169 1.408 . S
C3173 C3172 1.404 . S
C3173 H3185 0.930 . S
C3174 C3170 1.524 . S
C3174 H3186 0.956 . S
C3174 H3187 0.961 . S
C3174 H3188 0.961 . S
C3175 C3172 1.539 . S
C3175 H3189 0.958 1_554 S
C3175 H3190 0.961 1_554 S
C3175 H3191 0.963 . S
H3176 C3160 0.931 . S
H3177 C3165 0.929 . S
H3178 C3166 0.960 . S
H3179 C3166 0.962 . S
H3180 C3166 0.960 . S
H3181 C3167 0.961 . S
H3182 C3167 0.961 . S
H3183 C3167 0.961 . S
H3184 C3168 0.931 . S
H3185 C3173 0.930 . S
H3186 C3174 0.956 . S
H3187 C3174 0.961 . S
H3188 C3174 0.961 . S
H3189 C3175 0.958 1_556 S
H3190 C3175 0.961 1_556 S
H3191 C3175 0.963 . S
C3192 C3193 1.391 . S
C3192 C3194 1.394 . S
C3192 H3208 0.931 . S
C3193 C3192 1.391 . S
C3193 C3197 1.376 . S
C3194 C3192 1.394 . S
C3194 C3195 1.369 . S
C3194 C3198 1.531 . S
C3195 C3194 1.369 . S
C3195 C3196 1.410 . S
C3195 C3203 1.503 . S
C3196 C3195 1.410 . S
C3196 C3197 1.392 . S
C3196 C3199 1.511 . S
C3197 C3193 1.376 . S
C3197 C3196 1.392 . S
C3197 H3209 0.929 . S
C3198 C3194 1.531 . S
C3198 H3210 0.960 . S
C3198 H3211 0.962 . S
C3198 H3212 0.960 . S
C3199 C3196 1.511 . S
C3199 H3213 0.961 . S
C3199 H3214 0.961 . S
C3199 H3215 0.961 . S
C3200 C3201 1.370 . S
C3200 C3202 1.363 . S
C3200 H3216 0.931 . S
C3201 C3200 1.370 . S
C3201 C3205 1.408 . S
C3202 C3200 1.363 . S
C3202 C3203 1.370 . S
C3202 C3206 1.524 . S
C3203 C3195 1.503 . S
C3203 C3202 1.370 . S
C3203 C3204 1.403 . S
C3204 C3203 1.403 . S
C3204 C3205 1.404 . S
C3204 C3207 1.539 . S
C3205 C3201 1.408 . S
C3205 C3204 1.404 . S
C3205 H3217 0.930 . S
C3206 C3202 1.524 . S
C3206 H3218 0.956 . S
C3206 H3219 0.961 . S
C3206 H3220 0.961 . S
C3207 C3204 1.539 . S
C3207 H3221 0.958 . S
C3207 H3222 0.961 . S
C3207 H3223 0.960 . S
H3208 C3192 0.931 . S
H3209 C3197 0.929 . S
H3210 C3198 0.960 . S
H3211 C3198 0.962 . S
H3212 C3198 0.960 . S
H3213 C3199 0.961 . S
H3214 C3199 0.961 . S
H3215 C3199 0.961 . S
H3216 C3200 0.931 . S
H3217 C3205 0.930 . S
H3218 C3206 0.956 . S
H3219 C3206 0.961 . S
H3220 C3206 0.961 . S
H3221 C3207 0.958 . S
H3222 C3207 0.961 . S
H3223 C3207 0.960 . S
C3224 C3225 1.391 . S
C3224 C3226 1.394 . S
C3224 H3240 0.931 . S
C3225 C3224 1.391 . S
C3225 C3229 1.376 . S
C3226 C3224 1.394 . S
C3226 C3227 1.369 . S
C3226 C3230 1.531 . S
C3227 C3226 1.369 . S
C3227 C3228 1.410 . S
C3227 C3235 1.503 . S
C3228 C3227 1.410 . S
C3228 C3229 1.392 . S
C3228 C3231 1.511 . S
C3229 C3225 1.376 . S
C3229 C3228 1.392 . S
C3229 H3241 0.929 . S
C3230 C3226 1.531 . S
C3230 H3242 0.960 . S
C3230 H3243 0.962 . S
C3230 H3244 0.960 . S
C3231 C3228 1.511 . S
C3231 H3245 0.961 . S
C3231 H3246 0.961 . S
C3231 H3247 0.961 . S
C3232 C3233 1.370 . S
C3232 C3234 1.363 . S
C3232 H3248 0.931 . S
C3233 C3232 1.370 . S
C3233 C3237 1.408 . S
C3234 C3232 1.363 . S
C3234 C3235 1.370 . S
C3234 C3238 1.524 . S
C3235 C3227 1.503 . S
C3235 C3234 1.370 . S
C3235 C3236 1.403 . S
C3236 C3235 1.403 . S
C3236 C3237 1.404 . S
C3236 C3239 1.539 . S
C3237 C3233 1.408 . S
C3237 C3236 1.404 . S
C3237 H3249 0.930 . S
C3238 C3234 1.524 . S
C3238 H3250 0.956 . S
C3238 H3251 0.961 . S
C3238 H3252 0.961 . S
C3239 C3236 1.539 . S
C3239 H3253 0.958 . S
C3239 H3254 0.961 . S
C3239 H3255 0.960 . S
H3240 C3224 0.931 . S
H3241 C3229 0.929 . S
H3242 C3230 0.960 . S
H3243 C3230 0.962 . S
H3244 C3230 0.960 . S
H3245 C3231 0.961 . S
H3246 C3231 0.961 . S
H3247 C3231 0.961 . S
H3248 C3232 0.931 . S
H3249 C3237 0.930 . S
H3250 C3238 0.956 . S
H3251 C3238 0.961 . S
H3252 C3238 0.961 . S
H3253 C3239 0.958 . S
H3254 C3239 0.961 . S
H3255 C3239 0.960 . S
C3256 C3257 1.391 . S
C3256 C3258 1.394 . S
C3256 H3272 0.931 . S
C3257 C3256 1.391 . S
C3257 C3261 1.376 . S
C3258 C3256 1.394 . S
C3258 C3259 1.369 . S
C3258 C3262 1.531 . S
C3259 C3258 1.369 . S
C3259 C3260 1.410 . S
C3259 C3267 1.503 . S
C3260 C3259 1.410 . S
C3260 C3261 1.392 . S
C3260 C3263 1.511 . S
C3261 C3257 1.376 . S
C3261 C3260 1.392 . S
C3261 H3273 0.929 . S
C3262 C3258 1.531 . S
C3262 H3274 0.960 . S
C3262 H3275 0.962 . S
C3262 H3276 0.960 . S
C3263 C3260 1.511 . S
C3263 H3277 0.961 . S
C3263 H3278 0.961 . S
C3263 H3279 0.961 . S
C3264 C3265 1.370 . S
C3264 C3266 1.363 . S
C3264 H3280 0.931 . S
C3265 C3264 1.370 . S
C3265 C3269 1.408 . S
C3266 C3264 1.363 . S
C3266 C3267 1.370 . S
C3266 C3270 1.524 . S
C3267 C3259 1.503 . S
C3267 C3266 1.370 . S
C3267 C3268 1.403 . S
C3268 C3267 1.403 . S
C3268 C3269 1.404 . S
C3268 C3271 1.539 . S
C3269 C3265 1.408 . S
C3269 C3268 1.404 . S
C3269 H3281 0.930 . S
C3270 C3266 1.524 . S
C3270 H3282 0.956 . S
C3270 H3283 0.961 . S
C3270 H3284 0.961 . S
C3271 C3268 1.539 . S
C3271 H3285 0.958 . S
C3271 H3286 0.961 . S
C3271 H3287 0.960 . S
H3272 C3256 0.931 . S
H3273 C3261 0.929 . S
H3274 C3262 0.960 . S
H3275 C3262 0.962 . S
H3276 C3262 0.960 . S
H3277 C3263 0.961 . S
H3278 C3263 0.961 . S
H3279 C3263 0.961 . S
H3280 C3264 0.931 . S
H3281 C3269 0.930 . S
H3282 C3270 0.956 . S
H3283 C3270 0.961 . S
H3284 C3270 0.961 . S
H3285 C3271 0.958 . S
H3286 C3271 0.961 . S
H3287 C3271 0.960 . S
C3288 C3289 1.391 . S
C3288 C3290 1.394 . S
C3288 H3304 0.931 . S
C3289 C3288 1.391 . S
C3289 C3293 1.376 . S
C3290 C3288 1.394 . S
C3290 C3291 1.369 . S
C3290 C3294 1.531 . S
C3291 C3290 1.369 . S
C3291 C3292 1.410 . S
C3291 C3299 1.503 . S
C3292 C3291 1.410 . S
C3292 C3293 1.392 . S
C3292 C3295 1.511 . S
C3293 C3289 1.376 . S
C3293 C3292 1.392 . S
C3293 H3305 0.929 . S
C3294 C3290 1.531 . S
C3294 H3306 0.960 . S
C3294 H3307 0.962 . S
C3294 H3308 0.960 . S
C3295 C3292 1.511 . S
C3295 H3309 0.961 . S
C3295 H3310 0.961 . S
C3295 H3311 0.961 . S
C3296 C3297 1.370 . S
C3296 C3298 1.363 . S
C3296 H3312 0.931 . S
C3297 C3296 1.370 . S
C3297 C3301 1.408 . S
C3298 C3296 1.363 . S
C3298 C3299 1.370 . S
C3298 C3302 1.524 . S
C3299 C3291 1.503 . S
C3299 C3298 1.370 . S
C3299 C3300 1.403 . S
C3300 C3299 1.403 . S
C3300 C3301 1.404 . S
C3300 C3303 1.539 . S
C3301 C3297 1.408 . S
C3301 C3300 1.404 . S
C3301 H3313 0.930 . S
C3302 C3298 1.524 . S
C3302 H3314 0.956 . S
C3302 H3315 0.961 . S
C3302 H3316 0.961 . S
C3303 C3300 1.539 . S
C3303 H3317 0.958 . S
C3303 H3318 0.961 . S
C3303 H3319 0.960 . S
H3304 C3288 0.931 . S
H3305 C3293 0.929 . S
H3306 C3294 0.960 . S
H3307 C3294 0.962 . S
H3308 C3294 0.960 . S
H3309 C3295 0.961 . S
H3310 C3295 0.961 . S
H3311 C3295 0.961 . S
H3312 C3296 0.931 . S
H3313 C3301 0.930 . S
H3314 C3302 0.956 . S
H3315 C3302 0.961 . S
H3316 C3302 0.961 . S
H3317 C3303 0.958 . S
H3318 C3303 0.961 . S
H3319 C3303 0.960 . S
C3320 C3321 1.391 . S
C3320 C3322 1.394 . S
C3320 H3336 0.931 . S
C3321 C3320 1.391 . S
C3321 C3325 1.376 . S
C3322 C3320 1.394 . S
C3322 C3323 1.369 . S
C3322 C3326 1.531 . S
C3323 C3322 1.369 . S
C3323 C3324 1.410 . S
C3323 C3331 1.503 . S
C3324 C3323 1.410 . S
C3324 C3325 1.392 . S
C3324 C3327 1.511 . S
C3325 C3321 1.376 . S
C3325 C3324 1.392 . S
C3325 H3337 0.929 . S
C3326 C3322 1.531 . S
C3326 H3338 0.960 . S
C3326 H3339 0.962 . S
C3326 H3340 0.960 . S
C3327 C3324 1.511 . S
C3327 H3341 0.961 . S
C3327 H3342 0.961 . S
C3327 H3343 0.961 . S
C3328 C3329 1.370 . S
C3328 C3330 1.363 . S
C3328 H3344 0.931 . S
C3329 C3328 1.370 . S
C3329 C3333 1.408 . S
C3330 C3328 1.363 . S
C3330 C3331 1.370 . S
C3330 C3334 1.524 . S
C3331 C3323 1.503 . S
C3331 C3330 1.370 . S
C3331 C3332 1.403 . S
C3332 C3331 1.403 . S
C3332 C3333 1.404 . S
C3332 C3335 1.539 . S
C3333 C3329 1.408 . S
C3333 C3332 1.404 . S
C3333 H3345 0.930 . S
C3334 C3330 1.524 . S
C3334 H3346 0.956 . S
C3334 H3347 0.961 . S
C3334 H3348 0.961 . S
C3335 C3332 1.539 . S
C3335 H3349 0.958 . S
C3335 H3350 0.961 . S
C3335 H3351 0.960 . S
H3336 C3320 0.931 . S
H3337 C3325 0.929 . S
H3338 C3326 0.960 . S
H3339 C3326 0.962 . S
H3340 C3326 0.960 . S
H3341 C3327 0.961 . S
H3342 C3327 0.961 . S
H3343 C3327 0.961 . S
H3344 C3328 0.931 . S
H3345 C3333 0.930 . S
H3346 C3334 0.956 . S
H3347 C3334 0.961 . S
H3348 C3334 0.961 . S
H3349 C3335 0.958 . S
H3350 C3335 0.961 . S
H3351 C3335 0.960 . S
C3352 C3353 1.391 . S
C3352 C3354 1.394 . S
C3352 H3368 0.931 . S
C3353 C3352 1.391 . S
C3353 C3357 1.376 . S
C3354 C3352 1.394 . S
C3354 C3355 1.369 . S
C3354 C3358 1.531 . S
C3355 C3354 1.369 . S
C3355 C3356 1.410 . S
C3355 C3363 1.503 . S
C3356 C3355 1.410 . S
C3356 C3357 1.392 . S
C3356 C3359 1.511 . S
C3357 C3353 1.376 . S
C3357 C3356 1.392 . S
C3357 H3369 0.929 . S
C3358 C3354 1.531 . S
C3358 H3370 0.960 . S
C3358 H3371 0.962 . S
C3358 H3372 0.960 . S
C3359 C3356 1.511 . S
C3359 H3373 0.961 . S
C3359 H3374 0.961 . S
C3359 H3375 0.961 . S
C3360 C3361 1.370 . S
C3360 C3362 1.363 . S
C3360 H3376 0.931 . S
C3361 C3360 1.370 . S
C3361 C3365 1.408 . S
C3362 C3360 1.363 . S
C3362 C3363 1.370 . S
C3362 C3366 1.524 . S
C3363 C3355 1.503 . S
C3363 C3362 1.370 . S
C3363 C3364 1.403 . S
C3364 C3363 1.403 . S
C3364 C3365 1.404 . S
C3364 C3367 1.539 . S
C3365 C3361 1.408 . S
C3365 C3364 1.404 . S
C3365 H3377 0.930 . S
C3366 C3362 1.524 . S
C3366 H3378 0.956 . S
C3366 H3379 0.961 . S
C3366 H3380 0.961 . S
C3367 C3364 1.539 . S
C3367 H3381 0.958 . S
C3367 H3382 0.961 . S
C3367 H3383 0.960 . S
H3368 C3352 0.931 . S
H3369 C3357 0.929 . S
H3370 C3358 0.960 . S
H3371 C3358 0.962 . S
H3372 C3358 0.960 . S
H3373 C3359 0.961 . S
H3374 C3359 0.961 . S
H3375 C3359 0.961 . S
H3376 C3360 0.931 . S
H3377 C3365 0.930 . S
H3378 C3366 0.956 . S
H3379 C3366 0.961 . S
H3380 C3366 0.961 . S
H3381 C3367 0.958 . S
H3382 C3367 0.961 . S
H3383 C3367 0.960 . S
C3384 C3385 1.391 . S
C3384 C3386 1.394 . S
C3384 H3400 0.931 . S
C3385 C3384 1.391 . S
C3385 C3389 1.376 . S
C3386 C3384 1.394 . S
C3386 C3387 1.369 . S
C3386 C3390 1.531 . S
C3387 C3386 1.369 . S
C3387 C3388 1.410 . S
C3387 C3395 1.503 . S
C3388 C3387 1.410 . S
C3388 C3389 1.392 . S
C3388 C3391 1.511 . S
C3389 C3385 1.376 . S
C3389 C3388 1.392 . S
C3389 H3401 0.929 . S
C3390 C3386 1.531 . S
C3390 H3402 0.960 . S
C3390 H3403 0.962 . S
C3390 H3404 0.960 . S
C3391 C3388 1.511 . S
C3391 H3405 0.961 . S
C3391 H3406 0.961 . S
C3391 H3407 0.961 . S
C3392 C3393 1.370 . S
C3392 C3394 1.363 . S
C3392 H3408 0.931 . S
C3393 C3392 1.370 . S
C3393 C3397 1.408 1_556 S
C3394 C3392 1.363 . S
C3394 C3395 1.370 . S
C3394 C3398 1.524 . S
C3395 C3387 1.503 . S
C3395 C3394 1.370 . S
C3395 C3396 1.403 . S
C3396 C3395 1.403 . S
C3396 C3397 1.404 1_556 S
C3396 C3399 1.539 1_556 S
C3397 C3393 1.408 1_554 S
C3397 C3396 1.404 1_554 S
C3397 H3409 0.930 . S
C3398 C3394 1.524 . S
C3398 H3410 0.956 . S
C3398 H3411 0.961 . S
C3398 H3412 0.961 . S
C3399 C3396 1.539 1_554 S
C3399 H3413 0.958 . S
C3399 H3414 0.961 . S
C3399 H3415 0.960 1_554 S
H3400 C3384 0.931 . S
H3401 C3389 0.929 . S
H3402 C3390 0.960 . S
H3403 C3390 0.962 . S
H3404 C3390 0.960 . S
H3405 C3391 0.961 . S
H3406 C3391 0.961 . S
H3407 C3391 0.961 . S
H3408 C3392 0.931 . S
H3409 C3397 0.930 . S
H3410 C3398 0.956 . S
H3411 C3398 0.961 . S
H3412 C3398 0.961 . S
H3413 C3399 0.958 . S
H3414 C3399 0.961 . S
H3415 C3399 0.960 1_556 S
C3416 C3417 1.391 . S
C3416 C3418 1.394 . S
C3416 H3432 0.931 . S
C3417 C3416 1.391 . S
C3417 C3421 1.376 . S
C3418 C3416 1.394 . S
C3418 C3419 1.369 . S
C3418 C3422 1.531 . S
C3419 C3418 1.369 . S
C3419 C3420 1.410 . S
C3419 C3427 1.503 . S
C3420 C3419 1.410 . S
C3420 C3421 1.392 . S
C3420 C3423 1.511 . S
C3421 C3417 1.376 . S
C3421 C3420 1.392 . S
C3421 H3433 0.929 . S
C3422 C3418 1.531 . S
C3422 H3434 0.960 . S
C3422 H3435 0.962 . S
C3422 H3436 0.960 . S
C3423 C3420 1.511 . S
C3423 H3437 0.961 . S
C3423 H3438 0.961 . S
C3423 H3439 0.961 . S
C3424 C3425 1.370 . S
C3424 C3426 1.363 . S
C3424 H3440 0.931 . S
C3425 C3424 1.370 . S
C3425 C3429 1.408 . S
C3426 C3424 1.363 . S
C3426 C3427 1.370 . S
C3426 C3430 1.524 . S
C3427 C3419 1.503 . S
C3427 C3426 1.370 . S
C3427 C3428 1.403 . S
C3428 C3427 1.403 . S
C3428 C3429 1.404 . S
C3428 C3431 1.539 . S
C3429 C3425 1.408 . S
C3429 C3428 1.404 . S
C3429 H3441 0.930 . S
C3430 C3426 1.524 . S
C3430 H3442 0.956 . S
C3430 H3443 0.961 . S
C3430 H3444 0.961 . S
C3431 C3428 1.539 . S
C3431 H3445 0.958 . S
C3431 H3446 0.961 . S
C3431 H3447 0.960 . S
H3432 C3416 0.931 . S
H3433 C3421 0.929 . S
H3434 C3422 0.960 . S
H3435 C3422 0.962 . S
H3436 C3422 0.960 . S
H3437 C3423 0.961 . S
H3438 C3423 0.961 . S
H3439 C3423 0.961 . S
H3440 C3424 0.931 . S
H3441 C3429 0.930 . S
H3442 C3430 0.956 . S
H3443 C3430 0.961 . S
H3444 C3430 0.961 . S
H3445 C3431 0.958 . S
H3446 C3431 0.961 . S
H3447 C3431 0.960 . S
C3448 C3449 1.391 . S
C3448 C3450 1.394 . S
C3448 H3464 0.931 . S
C3449 C3448 1.391 . S
C3449 C3453 1.376 . S
C3450 C3448 1.394 . S
C3450 C3451 1.369 . S
C3450 C3454 1.531 . S
C3451 C3450 1.369 . S
C3451 C3452 1.410 . S
C3451 C3459 1.503 . S
C3452 C3451 1.410 . S
C3452 C3453 1.392 . S
C3452 C3455 1.511 . S
C3453 C3449 1.376 . S
C3453 C3452 1.392 . S
C3453 H3465 0.929 . S
C3454 C3450 1.531 . S
C3454 H3466 0.960 . S
C3454 H3467 0.962 . S
C3454 H3468 0.960 . S
C3455 C3452 1.511 . S
C3455 H3469 0.961 . S
C3455 H3470 0.961 . S
C3455 H3471 0.961 . S
C3456 C3457 1.370 . S
C3456 C3458 1.363 . S
C3456 H3472 0.931 . S
C3457 C3456 1.370 . S
C3457 C3461 1.408 . S
C3458 C3456 1.363 . S
C3458 C3459 1.370 . S
C3458 C3462 1.524 . S
C3459 C3451 1.503 . S
C3459 C3458 1.370 . S
C3459 C3460 1.403 . S
C3460 C3459 1.403 . S
C3460 C3461 1.404 . S
C3460 C3463 1.539 . S
C3461 C3457 1.408 . S
C3461 C3460 1.404 . S
C3461 H3473 0.930 . S
C3462 C3458 1.524 . S
C3462 H3474 0.956 . S
C3462 H3475 0.961 . S
C3462 H3476 0.961 . S
C3463 C3460 1.539 . S
C3463 H3477 0.958 1_455 S
C3463 H3478 0.961 . S
C3463 H3479 0.960 . S
H3464 C3448 0.931 . S
H3465 C3453 0.929 . S
H3466 C3454 0.960 . S
H3467 C3454 0.962 . S
H3468 C3454 0.960 . S
H3469 C3455 0.961 . S
H3470 C3455 0.961 . S
H3471 C3455 0.961 . S
H3472 C3456 0.931 . S
H3473 C3461 0.930 . S
H3474 C3462 0.956 . S
H3475 C3462 0.961 . S
H3476 C3462 0.961 . S
H3477 C3463 0.958 1_655 S
H3478 C3463 0.961 . S
H3479 C3463 0.960 . S
C3480 C3481 1.391 . S
C3480 C3482 1.394 . S
C3480 H3496 0.931 . S
C3481 C3480 1.391 . S
C3481 C3485 1.376 . S
C3482 C3480 1.394 . S
C3482 C3483 1.369 . S
C3482 C3486 1.531 . S
C3483 C3482 1.369 . S
C3483 C3484 1.410 . S
C3483 C3491 1.503 . S
C3484 C3483 1.410 . S
C3484 C3485 1.392 . S
C3484 C3487 1.511 . S
C3485 C3481 1.376 . S
C3485 C3484 1.392 . S
C3485 H3497 0.929 . S
C3486 C3482 1.531 . S
C3486 H3498 0.960 . S
C3486 H3499 0.962 . S
C3486 H3500 0.960 . S
C3487 C3484 1.511 . S
C3487 H3501 0.961 . S
C3487 H3502 0.961 . S
C3487 H3503 0.961 . S
C3488 C3489 1.370 . S
C3488 C3490 1.363 . S
C3488 H3504 0.931 . S
C3489 C3488 1.370 . S
C3489 C3493 1.408 . S
C3490 C3488 1.363 . S
C3490 C3491 1.370 . S
C3490 C3494 1.524 . S
C3491 C3483 1.503 . S
C3491 C3490 1.370 . S
C3491 C3492 1.403 . S
C3492 C3491 1.403 . S
C3492 C3493 1.404 . S
C3492 C3495 1.539 . S
C3493 C3489 1.408 . S
C3493 C3492 1.404 . S
C3493 H3505 0.930 . S
C3494 C3490 1.524 . S
C3494 H3506 0.956 . S
C3494 H3507 0.961 . S
C3494 H3508 0.961 . S
C3495 C3492 1.539 . S
C3495 H3509 0.958 . S
C3495 H3510 0.961 . S
C3495 H3511 0.960 . S
H3496 C3480 0.931 . S
H3497 C3485 0.929 . S
H3498 C3486 0.960 . S
H3499 C3486 0.962 . S
H3500 C3486 0.960 . S
H3501 C3487 0.961 . S
H3502 C3487 0.961 . S
H3503 C3487 0.961 . S
H3504 C3488 0.931 . S
H3505 C3493 0.930 . S
H3506 C3494 0.956 . S
H3507 C3494 0.961 . S
H3508 C3494 0.961 . S
H3509 C3495 0.958 . S
H3510 C3495 0.961 . S
H3511 C3495 0.960 . S
C3512 C3513 1.391 . S
C3512 C3514 1.394 . S
C3512 H3528 0.931 . S
C3513 C3512 1.391 . S
C3513 C3517 1.376 . S
C3514 C3512 1.394 . S
C3514 C3515 1.369 . S
C3514 C3518 1.531 . S
C3515 C3514 1.369 . S
C3515 C3516 1.410 . S
C3515 C3523 1.503 . S
C3516 C3515 1.410 . S
C3516 C3517 1.392 . S
C3516 C3519 1.511 . S
C3517 C3513 1.376 . S
C3517 C3516 1.392 . S
C3517 H3529 0.929 . S
C3518 C3514 1.531 . S
C3518 H3530 0.960 . S
C3518 H3531 0.962 . S
C3518 H3532 0.960 . S
C3519 C3516 1.511 . S
C3519 H3533 0.961 . S
C3519 H3534 0.961 . S
C3519 H3535 0.961 . S
C3520 C3521 1.370 . S
C3520 C3522 1.363 . S
C3520 H3536 0.931 . S
C3521 C3520 1.370 . S
C3521 C3525 1.408 . S
C3522 C3520 1.363 . S
C3522 C3523 1.370 . S
C3522 C3526 1.524 . S
C3523 C3515 1.503 . S
C3523 C3522 1.370 . S
C3523 C3524 1.403 . S
C3524 C3523 1.403 . S
C3524 C3525 1.404 . S
C3524 C3527 1.539 . S
C3525 C3521 1.408 . S
C3525 C3524 1.404 . S
C3525 H3537 0.930 . S
C3526 C3522 1.524 . S
C3526 H3538 0.956 . S
C3526 H3539 0.961 . S
C3526 H3540 0.961 . S
C3527 C3524 1.539 . S
C3527 H3541 0.958 . S
C3527 H3542 0.961 . S
C3527 H3543 0.960 . S
H3528 C3512 0.931 . S
H3529 C3517 0.929 . S
H3530 C3518 0.960 . S
H3531 C3518 0.962 . S
H3532 C3518 0.960 . S
H3533 C3519 0.961 . S
H3534 C3519 0.961 . S
H3535 C3519 0.961 . S
H3536 C3520 0.931 . S
H3537 C3525 0.930 . S
H3538 C3526 0.956 . S
H3539 C3526 0.961 . S
H3540 C3526 0.961 . S
H3541 C3527 0.958 . S
H3542 C3527 0.961 . S
H3543 C3527 0.960 . S
C3544 C3545 1.391 . S
C3544 C3546 1.394 . S
C3544 H3560 0.931 . S
C3545 C3544 1.391 . S
C3545 C3549 1.376 . S
C3546 C3544 1.394 . S
C3546 C3547 1.369 . S
C3546 C3550 1.531 . S
C3547 C3546 1.369 . S
C3547 C3548 1.410 . S
C3547 C3555 1.503 . S
C3548 C3547 1.410 . S
C3548 C3549 1.392 . S
C3548 C3551 1.511 . S
C3549 C3545 1.376 . S
C3549 C3548 1.392 . S
C3549 H3561 0.929 . S
C3550 C3546 1.531 . S
C3550 H3562 0.960 . S
C3550 H3563 0.962 . S
C3550 H3564 0.960 . S
C3551 C3548 1.511 . S
C3551 H3565 0.961 . S
C3551 H3566 0.961 . S
C3551 H3567 0.961 . S
C3552 C3553 1.370 . S
C3552 C3554 1.363 . S
C3552 H3568 0.931 . S
C3553 C3552 1.370 . S
C3553 C3557 1.408 . S
C3554 C3552 1.363 . S
C3554 C3555 1.370 . S
C3554 C3558 1.524 . S
C3555 C3547 1.503 . S
C3555 C3554 1.370 . S
C3555 C3556 1.403 . S
C3556 C3555 1.403 . S
C3556 C3557 1.404 . S
C3556 C3559 1.539 . S
C3557 C3553 1.408 . S
C3557 C3556 1.404 . S
C3557 H3569 0.930 . S
C3558 C3554 1.524 . S
C3558 H3570 0.956 . S
C3558 H3571 0.961 . S
C3558 H3572 0.961 . S
C3559 C3556 1.539 . S
C3559 H3573 0.958 . S
C3559 H3574 0.961 . S
C3559 H3575 0.960 . S
H3560 C3544 0.931 . S
H3561 C3549 0.929 . S
H3562 C3550 0.960 . S
H3563 C3550 0.962 . S
H3564 C3550 0.960 . S
H3565 C3551 0.961 . S
H3566 C3551 0.961 . S
H3567 C3551 0.961 . S
H3568 C3552 0.931 . S
H3569 C3557 0.930 . S
H3570 C3558 0.956 . S
H3571 C3558 0.961 . S
H3572 C3558 0.961 . S
H3573 C3559 0.958 . S
H3574 C3559 0.961 . S
H3575 C3559 0.960 . S
C3576 C3577 1.391 . S
C3576 C3578 1.394 . S
C3576 H3592 0.931 . S
C3577 C3576 1.391 . S
C3577 C3581 1.376 . S
C3578 C3576 1.394 . S
C3578 C3579 1.369 . S
C3578 C3582 1.531 1_655 S
C3579 C3578 1.369 . S
C3579 C3580 1.410 . S
C3579 C3587 1.503 1_655 S
C3580 C3579 1.410 . S
C3580 C3581 1.392 . S
C3580 C3583 1.511 . S
C3581 C3577 1.376 . S
C3581 C3580 1.392 . S
C3581 H3593 0.929 . S
C3582 C3578 1.531 1_455 S
C3582 H3594 0.960 . S
C3582 H3595 0.962 . S
C3582 H3596 0.960 . S
C3583 C3580 1.511 . S
C3583 H3597 0.961 . S
C3583 H3598 0.961 . S
C3583 H3599 0.961 . S
C3584 C3585 1.370 . S
C3584 C3586 1.363 . S
C3584 H3600 0.931 . S
C3585 C3584 1.370 . S
C3585 C3589 1.408 . S
C3586 C3584 1.363 . S
C3586 C3587 1.370 . S
C3586 C3590 1.524 1_455 S
C3587 C3579 1.503 1_455 S
C3587 C3586 1.370 . S
C3587 C3588 1.403 . S
C3588 C3587 1.403 . S
C3588 C3589 1.404 . S
C3588 C3591 1.539 . S
C3589 C3585 1.408 . S
C3589 C3588 1.404 . S
C3589 H3601 0.930 . S
C3590 C3586 1.524 1_655 S
C3590 H3602 0.956 1_655 S
C3590 H3603 0.961 . S
C3590 H3604 0.961 1_655 S
C3591 C3588 1.539 . S
C3591 H3605 0.958 . S
C3591 H3606 0.963 . S
C3591 H3607 0.960 1_455 S
H3592 C3576 0.931 . S
H3593 C3581 0.929 . S
H3594 C3582 0.960 . S
H3595 C3582 0.962 . S
H3596 C3582 0.960 . S
H3597 C3583 0.961 . S
H3598 C3583 0.961 . S
H3599 C3583 0.961 . S
H3600 C3584 0.931 . S
H3601 C3589 0.930 . S
H3602 C3590 0.956 1_455 S
H3603 C3590 0.961 . S
H3604 C3590 0.961 1_455 S
H3605 C3591 0.958 . S
H3606 C3591 0.963 . S
H3607 C3591 0.960 1_655 S
C3608 C3609 1.391 . S
C3608 C3610 1.394 . S
C3608 H3624 0.931 . S
C3609 C3608 1.391 . S
C3609 C3613 1.376 . S
C3610 C3608 1.394 . S
C3610 C3611 1.369 . S
C3610 C3614 1.531 . S
C3611 C3610 1.369 . S
C3611 C3612 1.410 . S
C3611 C3619 1.503 . S
C3612 C3611 1.410 . S
C3612 C3613 1.392 . S
C3612 C3615 1.511 . S
C3613 C3609 1.376 . S
C3613 C3612 1.392 . S
C3613 H3625 0.929 . S
C3614 C3610 1.531 . S
C3614 H3626 0.960 . S
C3614 H3627 0.962 . S
C3614 H3628 0.960 . S
C3615 C3612 1.511 . S
C3615 H3629 0.961 . S
C3615 H3630 0.961 . S
C3615 H3631 0.961 . S
C3616 C3617 1.370 . S
C3616 C3618 1.363 . S
C3616 H3632 0.931 . S
C3617 C3616 1.370 . S
C3617 C3621 1.408 . S
C3618 C3616 1.363 . S
C3618 C3619 1.370 . S
C3618 C3622 1.524 . S
C3619 C3611 1.503 . S
C3619 C3618 1.370 . S
C3619 C3620 1.403 . S
C3620 C3619 1.403 . S
C3620 C3621 1.404 . S
C3620 C3623 1.539 . S
C3621 C3617 1.408 . S
C3621 C3620 1.404 . S
C3621 H3633 0.930 . S
C3622 C3618 1.524 . S
C3622 H3634 0.956 . S
C3622 H3635 0.961 . S
C3622 H3636 0.961 . S
C3623 C3620 1.539 . S
C3623 H3637 0.958 . S
C3623 H3638 0.961 . S
C3623 H3639 0.960 . S
H3624 C3608 0.931 . S
H3625 C3613 0.929 . S
H3626 C3614 0.960 . S
H3627 C3614 0.962 . S
H3628 C3614 0.960 . S
H3629 C3615 0.961 . S
H3630 C3615 0.961 . S
H3631 C3615 0.961 . S
H3632 C3616 0.931 . S
H3633 C3621 0.930 . S
H3634 C3622 0.956 . S
H3635 C3622 0.961 . S
H3636 C3622 0.961 . S
H3637 C3623 0.958 . S
H3638 C3623 0.961 . S
H3639 C3623 0.960 . S
C3640 C3641 1.391 . S
C3640 C3642 1.394 . S
C3640 H3656 0.931 . S
C3641 C3640 1.391 . S
C3641 C3645 1.376 . S
C3642 C3640 1.394 . S
C3642 C3643 1.369 . S
C3642 C3646 1.531 . S
C3643 C3642 1.369 . S
C3643 C3644 1.410 . S
C3643 C3651 1.503 . S
C3644 C3643 1.410 . S
C3644 C3645 1.392 . S
C3644 C3647 1.511 . S
C3645 C3641 1.376 . S
C3645 C3644 1.392 . S
C3645 H3657 0.929 . S
C3646 C3642 1.531 . S
C3646 H3658 0.960 . S
C3646 H3659 0.962 . S
C3646 H3660 0.960 . S
C3647 C3644 1.511 . S
C3647 H3661 0.961 . S
C3647 H3662 0.961 . S
C3647 H3663 0.961 . S
C3648 C3649 1.370 . S
C3648 C3650 1.363 . S
C3648 H3664 0.931 . S
C3649 C3648 1.370 . S
C3649 C3653 1.408 . S
C3650 C3648 1.363 . S
C3650 C3651 1.370 . S
C3650 C3654 1.524 . S
C3651 C3643 1.503 . S
C3651 C3650 1.370 . S
C3651 C3652 1.403 . S
C3652 C3651 1.403 . S
C3652 C3653 1.404 . S
C3652 C3655 1.539 . S
C3653 C3649 1.408 . S
C3653 C3652 1.404 . S
C3653 H3665 0.930 . S
C3654 C3650 1.524 . S
C3654 H3666 0.956 . S
C3654 H3667 0.961 . S
C3654 H3668 0.961 . S
C3655 C3652 1.539 . S
C3655 H3669 0.958 . S
C3655 H3670 0.961 . S
C3655 H3671 0.960 . S
H3656 C3640 0.931 . S
H3657 C3645 0.929 . S
H3658 C3646 0.960 . S
H3659 C3646 0.962 . S
H3660 C3646 0.960 . S
H3661 C3647 0.961 . S
H3662 C3647 0.961 . S
H3663 C3647 0.961 . S
H3664 C3648 0.931 . S
H3665 C3653 0.930 . S
H3666 C3654 0.956 . S
H3667 C3654 0.961 . S
H3668 C3654 0.961 . S
H3669 C3655 0.958 . S
H3670 C3655 0.961 . S
H3671 C3655 0.960 . S
C3672 C3673 1.391 . S
C3672 C3674 1.394 . S
C3672 H3688 0.931 . S
C3673 C3672 1.391 . S
C3673 C3677 1.376 . S
C3674 C3672 1.394 . S
C3674 C3675 1.369 . S
C3674 C3678 1.531 . S
C3675 C3674 1.369 . S
C3675 C3676 1.410 . S
C3675 C3683 1.503 . S
C3676 C3675 1.410 . S
C3676 C3677 1.392 . S
C3676 C3679 1.511 . S
C3677 C3673 1.376 . S
C3677 C3676 1.392 . S
C3677 H3689 0.929 . S
C3678 C3674 1.531 . S
C3678 H3690 0.960 . S
C3678 H3691 0.962 . S
C3678 H3692 0.960 . S
C3679 C3676 1.511 . S
C3679 H3693 0.961 . S
C3679 H3694 0.961 . S
C3679 H3695 0.961 . S
C3680 C3681 1.370 . S
C3680 C3682 1.363 . S
C3680 H3696 0.931 . S
C3681 C3680 1.370 . S
C3681 C3685 1.408 . S
C3682 C3680 1.363 . S
C3682 C3683 1.370 . S
C3682 C3686 1.524 . S
C3683 C3675 1.503 . S
C3683 C3682 1.370 . S
C3683 C3684 1.403 . S
C3684 C3683 1.403 . S
C3684 C3685 1.404 . S
C3684 C3687 1.539 . S
C3685 C3681 1.408 . S
C3685 C3684 1.404 . S
C3685 H3697 0.930 . S
C3686 C3682 1.524 . S
C3686 H3698 0.956 . S
C3686 H3699 0.961 . S
C3686 H3700 0.961 . S
C3687 C3684 1.539 . S
C3687 H3701 0.958 . S
C3687 H3702 0.961 . S
C3687 H3703 0.960 . S
H3688 C3672 0.931 . S
H3689 C3677 0.929 . S
H3690 C3678 0.960 . S
H3691 C3678 0.962 . S
H3692 C3678 0.960 . S
H3693 C3679 0.961 . S
H3694 C3679 0.961 . S
H3695 C3679 0.961 . S
H3696 C3680 0.931 . S
H3697 C3685 0.930 . S
H3698 C3686 0.956 . S
H3699 C3686 0.961 . S
H3700 C3686 0.961 . S
H3701 C3687 0.958 . S
H3702 C3687 0.961 . S
H3703 C3687 0.960 . S
C3704 C3705 1.391 . S
C3704 C3706 1.394 . S
C3704 H3720 0.931 . S
C3705 C3704 1.391 . S
C3705 C3709 1.376 . S
C3706 C3704 1.394 . S
C3706 C3707 1.369 . S
C3706 C3710 1.531 . S
C3707 C3706 1.369 . S
C3707 C3708 1.410 . S
C3707 C3715 1.503 . S
C3708 C3707 1.410 . S
C3708 C3709 1.392 . S
C3708 C3711 1.511 1_655 S
C3709 C3705 1.376 . S
C3709 C3708 1.392 . S
C3709 H3721 0.929 . S
C3710 C3706 1.531 . S
C3710 H3722 0.960 . S
C3710 H3723 0.962 . S
C3710 H3724 0.960 . S
C3711 C3708 1.511 1_455 S
C3711 H3725 0.961 . S
C3711 H3726 0.961 . S
C3711 H3727 0.961 1_455 S
C3712 C3713 1.370 . S
C3712 C3714 1.363 . S
C3712 H3728 0.931 . S
C3713 C3712 1.370 . S
C3713 C3717 1.408 1_455 S
C3714 C3712 1.363 . S
C3714 C3715 1.371 1_455 S
C3714 C3718 1.524 . S
C3715 C3707 1.503 . S
C3715 C3714 1.371 1_655 S
C3715 C3716 1.403 . S
C3716 C3715 1.403 . S
C3716 C3717 1.404 . S
C3716 C3719 1.539 . S
C3717 C3713 1.408 1_655 S
C3717 C3716 1.404 . S
C3717 H3729 0.930 . S
C3718 C3714 1.524 . S
C3718 H3730 0.956 1_455 S
C3718 H3731 0.961 . S
C3718 H3732 0.961 . S
C3719 C3716 1.539 . S
C3719 H3733 0.958 . S
C3719 H3734 0.961 . S
C3719 H3735 0.960 . S
H3720 C3704 0.931 . S
H3721 C3709 0.929 . S
H3722 C3710 0.960 . S
H3723 C3710 0.962 . S
H3724 C3710 0.960 . S
H3725 C3711 0.961 . S
H3726 C3711 0.961 . S
H3727 C3711 0.961 1_655 S
H3728 C3712 0.931 . S
H3729 C3717 0.930 . S
H3730 C3718 0.956 1_655 S
H3731 C3718 0.961 . S
H3732 C3718 0.961 . S
H3733 C3719 0.958 . S
H3734 C3719 0.961 . S
H3735 C3719 0.960 . S
C3736 C3737 1.391 . S
C3736 C3738 1.394 . S
C3736 H3752 0.931 . S
C3737 C3736 1.391 . S
C3737 C3741 1.376 . S
C3738 C3736 1.394 . S
C3738 C3739 1.369 . S
C3738 C3742 1.531 . S
C3739 C3738 1.369 . S
C3739 C3740 1.410 . S
C3739 C3747 1.503 . S
C3740 C3739 1.410 . S
C3740 C3741 1.392 . S
C3740 C3743 1.511 . S
C3741 C3737 1.376 . S
C3741 C3740 1.392 . S
C3741 H3753 0.929 . S
C3742 C3738 1.531 . S
C3742 H3754 0.960 . S
C3742 H3755 0.962 . S
C3742 H3756 0.960 . S
C3743 C3740 1.511 . S
C3743 H3757 0.961 . S
C3743 H3758 0.961 . S
C3743 H3759 0.961 . S
C3744 C3745 1.370 . S
C3744 C3746 1.363 . S
C3744 H3760 0.931 . S
C3745 C3744 1.370 . S
C3745 C3749 1.408 . S
C3746 C3744 1.363 . S
C3746 C3747 1.370 . S
C3746 C3750 1.524 . S
C3747 C3739 1.503 . S
C3747 C3746 1.370 . S
C3747 C3748 1.403 . S
C3748 C3747 1.403 . S
C3748 C3749 1.404 . S
C3748 C3751 1.539 . S
C3749 C3745 1.408 . S
C3749 C3748 1.404 . S
C3749 H3761 0.930 . S
C3750 C3746 1.524 . S
C3750 H3762 0.956 . S
C3750 H3763 0.961 . S
C3750 H3764 0.961 . S
C3751 C3748 1.539 . S
C3751 H3765 0.958 . S
C3751 H3766 0.961 . S
C3751 H3767 0.960 . S
H3752 C3736 0.931 . S
H3753 C3741 0.929 . S
H3754 C3742 0.960 . S
H3755 C3742 0.962 . S
H3756 C3742 0.960 . S
H3757 C3743 0.961 . S
H3758 C3743 0.961 . S
H3759 C3743 0.961 . S
H3760 C3744 0.931 . S
H3761 C3749 0.930 . S
H3762 C3750 0.956 . S
H3763 C3750 0.961 . S
H3764 C3750 0.961 . S
H3765 C3751 0.958 . S
H3766 C3751 0.961 . S
H3767 C3751 0.960 . S
C3768 C3769 1.391 . S
C3768 C3770 1.394 . S
C3768 H3784 0.931 . S
C3769 C3768 1.391 . S
C3769 C3773 1.376 . S
C3770 C3768 1.394 . S
C3770 C3771 1.369 . S
C3770 C3774 1.531 . S
C3771 C3770 1.369 . S
C3771 C3772 1.410 . S
C3771 C3779 1.503 . S
C3772 C3771 1.410 . S
C3772 C3773 1.392 . S
C3772 C3775 1.511 . S
C3773 C3769 1.376 . S
C3773 C3772 1.392 . S
C3773 H3785 0.929 . S
C3774 C3770 1.531 . S
C3774 H3786 0.960 . S
C3774 H3787 0.962 . S
C3774 H3788 0.960 . S
C3775 C3772 1.511 . S
C3775 H3789 0.961 . S
C3775 H3790 0.961 . S
C3775 H3791 0.961 . S
C3776 C3777 1.370 . S
C3776 C3778 1.363 . S
C3776 H3792 0.931 . S
C3777 C3776 1.370 . S
C3777 C3781 1.408 . S
C3778 C3776 1.363 . S
C3778 C3779 1.370 . S
C3778 C3782 1.524 . S
C3779 C3771 1.503 . S
C3779 C3778 1.370 . S
C3779 C3780 1.403 . S
C3780 C3779 1.403 . S
C3780 C3781 1.404 . S
C3780 C3783 1.539 . S
C3781 C3777 1.408 . S
C3781 C3780 1.404 . S
C3781 H3793 0.930 . S
C3782 C3778 1.524 . S
C3782 H3794 0.956 . S
C3782 H3795 0.961 . S
C3782 H3796 0.961 . S
C3783 C3780 1.539 . S
C3783 H3797 0.958 . S
C3783 H3798 0.961 . S
C3783 H3799 0.960 . S
H3784 C3768 0.931 . S
H3785 C3773 0.929 . S
H3786 C3774 0.960 . S
H3787 C3774 0.962 . S
H3788 C3774 0.960 . S
H3789 C3775 0.961 . S
H3790 C3775 0.961 . S
H3791 C3775 0.961 . S
H3792 C3776 0.931 . S
H3793 C3781 0.930 . S
H3794 C3782 0.956 . S
H3795 C3782 0.961 . S
H3796 C3782 0.961 . S
H3797 C3783 0.958 . S
H3798 C3783 0.961 . S
H3799 C3783 0.960 . S
C3800 C3801 1.391 . S
C3800 C3802 1.394 . S
C3800 H3816 0.931 . S
C3801 C3800 1.391 . S
C3801 C3805 1.376 . S
C3802 C3800 1.394 . S
C3802 C3803 1.369 . S
C3802 C3806 1.531 . S
C3803 C3802 1.369 . S
C3803 C3804 1.410 . S
C3803 C3811 1.503 . S
C3804 C3803 1.410 . S
C3804 C3805 1.392 . S
C3804 C3807 1.511 . S
C3805 C3801 1.376 . S
C3805 C3804 1.392 . S
C3805 H3817 0.929 . S
C3806 C3802 1.531 . S
C3806 H3818 0.960 . S
C3806 H3819 0.962 . S
C3806 H3820 0.960 . S
C3807 C3804 1.511 . S
C3807 H3821 0.961 . S
C3807 H3822 0.961 . S
C3807 H3823 0.961 . S
C3808 C3809 1.370 1_565 S
C3808 C3810 1.363 . S
C3808 H3824 0.931 . S
C3809 C3808 1.370 1_545 S
C3809 C3813 1.408 . S
C3810 C3808 1.363 . S
C3810 C3811 1.370 . S
C3810 C3814 1.524 . S
C3811 C3803 1.503 . S
C3811 C3810 1.370 . S
C3811 C3812 1.403 . S
C3812 C3811 1.403 . S
C3812 C3813 1.404 1_565 S
C3812 C3815 1.539 . S
C3813 C3809 1.408 . S
C3813 C3812 1.404 1_545 S
C3813 H3825 0.930 . S
C3814 C3810 1.524 . S
C3814 H3826 0.956 . S
C3814 H3827 0.961 . S
C3814 H3828 0.961 . S
C3815 C3812 1.539 . S
C3815 H3829 0.958 1_565 S
C3815 H3830 0.961 1_565 S
C3815 H3831 0.960 . S
H3816 C3800 0.931 . S
H3817 C3805 0.929 . S
H3818 C3806 0.960 . S
H3819 C3806 0.962 . S
H3820 C3806 0.960 . S
H3821 C3807 0.961 . S
H3822 C3807 0.961 . S
H3823 C3807 0.961 . S
H3824 C3808 0.931 . S
H3825 C3813 0.930 . S
H3826 C3814 0.956 . S
H3827 C3814 0.961 . S
H3828 C3814 0.961 . S
H3829 C3815 0.958 1_545 S
H3830 C3815 0.961 1_545 S
H3831 C3815 0.960 . S
C3832 C3833 1.391 . S
C3832 C3834 1.394 . S
C3832 H3848 0.931 . S
C3833 C3832 1.391 . S
C3833 C3837 1.376 . S
C3834 C3832 1.394 . S
C3834 C3835 1.369 . S
C3834 C3838 1.531 . S
C3835 C3834 1.369 . S
C3835 C3836 1.410 . S
C3835 C3843 1.503 . S
C3836 C3835 1.410 . S
C3836 C3837 1.392 . S
C3836 C3839 1.511 . S
C3837 C3833 1.376 . S
C3837 C3836 1.392 . S
C3837 H3849 0.929 . S
C3838 C3834 1.531 . S
C3838 H3850 0.960 . S
C3838 H3851 0.962 . S
C3838 H3852 0.960 . S
C3839 C3836 1.511 . S
C3839 H3853 0.961 . S
C3839 H3854 0.961 . S
C3839 H3855 0.961 . S
C3840 C3841 1.370 . S
C3840 C3842 1.363 . S
C3840 H3856 0.931 . S
C3841 C3840 1.370 . S
C3841 C3845 1.408 . S
C3842 C3840 1.363 . S
C3842 C3843 1.370 . S
C3842 C3846 1.524 . S
C3843 C3835 1.503 . S
C3843 C3842 1.370 . S
C3843 C3844 1.403 . S
C3844 C3843 1.403 . S
C3844 C3845 1.404 . S
C3844 C3847 1.539 . S
C3845 C3841 1.408 . S
C3845 C3844 1.404 . S
C3845 H3857 0.930 . S
C3846 C3842 1.524 . S
C3846 H3858 0.956 . S
C3846 H3859 0.961 . S
C3846 H3860 0.961 . S
C3847 C3844 1.539 . S
C3847 H3861 0.958 . S
C3847 H3862 0.961 . S
C3847 H3863 0.960 . S
H3848 C3832 0.931 . S
H3849 C3837 0.929 . S
H3850 C3838 0.960 . S
H3851 C3838 0.962 . S
H3852 C3838 0.960 . S
H3853 C3839 0.961 . S
H3854 C3839 0.961 . S
H3855 C3839 0.961 . S
H3856 C3840 0.931 . S
H3857 C3845 0.930 . S
H3858 C3846 0.956 . S
H3859 C3846 0.961 . S
H3860 C3846 0.961 . S
H3861 C3847 0.958 . S
H3862 C3847 0.961 . S
H3863 C3847 0.960 . S
C3864 C3865 1.391 . S
C3864 C3866 1.394 . S
C3864 H3880 0.931 . S
C3865 C3864 1.391 . S
C3865 C3869 1.376 . S
C3866 C3864 1.394 . S
C3866 C3867 1.369 . S
C3866 C3870 1.531 . S
C3867 C3866 1.369 . S
C3867 C3868 1.410 . S
C3867 C3875 1.503 . S
C3868 C3867 1.410 . S
C3868 C3869 1.392 . S
C3868 C3871 1.511 . S
C3869 C3865 1.376 . S
C3869 C3868 1.392 . S
C3869 H3881 0.929 . S
C3870 C3866 1.531 . S
C3870 H3882 0.960 . S
C3870 H3883 0.962 . S
C3870 H3884 0.960 . S
C3871 C3868 1.511 . S
C3871 H3885 0.961 . S
C3871 H3886 0.961 . S
C3871 H3887 0.961 . S
C3872 C3873 1.370 . S
C3872 C3874 1.363 . S
C3872 H3888 0.931 . S
C3873 C3872 1.370 . S
C3873 C3877 1.408 . S
C3874 C3872 1.363 . S
C3874 C3875 1.370 . S
C3874 C3878 1.524 . S
C3875 C3867 1.503 . S
C3875 C3874 1.370 . S
C3875 C3876 1.403 . S
C3876 C3875 1.403 . S
C3876 C3877 1.404 . S
C3876 C3879 1.539 . S
C3877 C3873 1.408 . S
C3877 C3876 1.404 . S
C3877 H3889 0.930 . S
C3878 C3874 1.524 . S
C3878 H3890 0.956 . S
C3878 H3891 0.961 . S
C3878 H3892 0.961 . S
C3879 C3876 1.539 . S
C3879 H3893 0.958 . S
C3879 H3894 0.961 1_554 S
C3879 H3895 0.960 . S
H3880 C3864 0.931 . S
H3881 C3869 0.929 . S
H3882 C3870 0.960 . S
H3883 C3870 0.962 . S
H3884 C3870 0.960 . S
H3885 C3871 0.961 . S
H3886 C3871 0.961 . S
H3887 C3871 0.961 . S
H3888 C3872 0.931 . S
H3889 C3877 0.930 . S
H3890 C3878 0.956 . S
H3891 C3878 0.961 . S
H3892 C3878 0.961 . S
H3893 C3879 0.958 . S
H3894 C3879 0.961 1_556 S
H3895 C3879 0.960 . S
C3896 C3897 1.391 . S
C3896 C3898 1.394 . S
C3896 H3912 0.931 . S
C3897 C3896 1.391 . S
C3897 C3901 1.376 . S
C3898 C3896 1.394 . S
C3898 C3899 1.369 . S
C3898 C3902 1.531 . S
C3899 C3898 1.369 . S
C3899 C3900 1.410 . S
C3899 C3907 1.503 . S
C3900 C3899 1.410 . S
C3900 C3901 1.392 . S
C3900 C3903 1.511 . S
C3901 C3897 1.376 . S
C3901 C3900 1.392 . S
C3901 H3913 0.929 . S
C3902 C3898 1.531 . S
C3902 H3914 0.960 . S
C3902 H3915 0.962 . S
C3902 H3916 0.960 . S
C3903 C3900 1.511 . S
C3903 H3917 0.961 . S
C3903 H3918 0.961 . S
C3903 H3919 0.961 . S
C3904 C3905 1.370 . S
C3904 C3906 1.363 . S
C3904 H3920 0.931 . S
C3905 C3904 1.370 . S
C3905 C3909 1.408 . S
C3906 C3904 1.363 . S
C3906 C3907 1.370 . S
C3906 C3910 1.524 . S
C3907 C3899 1.503 . S
C3907 C3906 1.370 . S
C3907 C3908 1.403 . S
C3908 C3907 1.403 . S
C3908 C3909 1.404 . S
C3908 C3911 1.539 . S
C3909 C3905 1.408 . S
C3909 C3908 1.404 . S
C3909 H3921 0.930 . S
C3910 C3906 1.524 . S
C3910 H3922 0.956 . S
C3910 H3923 0.961 . S
C3910 H3924 0.961 . S
C3911 C3908 1.539 . S
C3911 H3925 0.958 . S
C3911 H3926 0.961 . S
C3911 H3927 0.960 . S
H3912 C3896 0.931 . S
H3913 C3901 0.929 . S
H3914 C3902 0.960 . S
H3915 C3902 0.962 . S
H3916 C3902 0.960 . S
H3917 C3903 0.961 . S
H3918 C3903 0.961 . S
H3919 C3903 0.961 . S
H3920 C3904 0.931 . S
H3921 C3909 0.930 . S
H3922 C3910 0.956 . S
H3923 C3910 0.961 . S
H3924 C3910 0.961 . S
H3925 C3911 0.958 . S
H3926 C3911 0.961 . S
H3927 C3911 0.960 . S
C3928 C3929 1.391 . S
C3928 C3930 1.394 . S
C3928 H3944 0.931 . S
C3929 C3928 1.391 . S
C3929 C3933 1.376 . S
C3930 C3928 1.394 . S
C3930 C3931 1.369 . S
C3930 C3934 1.531 . S
C3931 C3930 1.369 . S
C3931 C3932 1.410 . S
C3931 C3939 1.503 . S
C3932 C3931 1.410 . S
C3932 C3933 1.392 . S
C3932 C3935 1.511 . S
C3933 C3929 1.376 . S
C3933 C3932 1.392 . S
C3933 H3945 0.929 . S
C3934 C3930 1.531 . S
C3934 H3946 0.960 . S
C3934 H3947 0.962 . S
C3934 H3948 0.960 . S
C3935 C3932 1.511 . S
C3935 H3949 0.961 . S
C3935 H3950 0.961 . S
C3935 H3951 0.961 . S
C3936 C3937 1.370 1_556 S
C3936 C3938 1.363 . S
C3936 H3952 0.931 . S
C3937 C3936 1.370 1_554 S
C3937 C3941 1.408 . S
C3938 C3936 1.363 . S
C3938 C3939 1.370 1_556 S
C3938 C3942 1.524 . S
C3939 C3931 1.503 . S
C3939 C3938 1.370 1_554 S
C3939 C3940 1.403 . S
C3940 C3939 1.403 . S
C3940 C3941 1.404 . S
C3940 C3943 1.539 . S
C3941 C3937 1.408 . S
C3941 C3940 1.404 . S
C3941 H3953 0.930 . S
C3942 C3938 1.524 . S
C3942 H3954 0.956 . S
C3942 H3955 0.961 . S
C3942 H3956 0.961 . S
C3943 C3940 1.539 . S
C3943 H3957 0.958 . S
C3943 H3958 0.961 . S
C3943 H3959 0.960 . S
H3944 C3928 0.931 . S
H3945 C3933 0.929 . S
H3946 C3934 0.960 . S
H3947 C3934 0.962 . S
H3948 C3934 0.960 . S
H3949 C3935 0.961 . S
H3950 C3935 0.961 . S
H3951 C3935 0.961 . S
H3952 C3936 0.931 . S
H3953 C3941 0.930 . S
H3954 C3942 0.956 . S
H3955 C3942 0.961 . S
H3956 C3942 0.961 . S
H3957 C3943 0.958 . S
H3958 C3943 0.961 . S
H3959 C3943 0.960 . S
C3960 C3961 1.391 . S
C3960 C3962 1.394 . S
C3960 H3976 0.931 . S
C3961 C3960 1.391 . S
C3961 C3965 1.376 . S
C3962 C3960 1.394 . S
C3962 C3963 1.369 . S
C3962 C3966 1.531 . S
C3963 C3962 1.369 . S
C3963 C3964 1.410 . S
C3963 C3971 1.503 . S
C3964 C3963 1.410 . S
C3964 C3965 1.392 . S
C3964 C3967 1.511 . S
C3965 C3961 1.376 . S
C3965 C3964 1.392 . S
C3965 H3977 0.929 . S
C3966 C3962 1.531 . S
C3966 H3978 0.960 . S
C3966 H3979 0.962 . S
C3966 H3980 0.960 . S
C3967 C3964 1.511 . S
C3967 H3981 0.961 . S
C3967 H3982 0.961 . S
C3967 H3983 0.961 . S
C3968 C3969 1.370 . S
C3968 C3970 1.363 . S
C3968 H3984 0.931 . S
C3969 C3968 1.370 . S
C3969 C3973 1.408 . S
C3970 C3968 1.363 . S
C3970 C3971 1.370 . S
C3970 C3974 1.524 . S
C3971 C3963 1.503 . S
C3971 C3970 1.370 . S
C3971 C3972 1.403 . S
C3972 C3971 1.403 . S
C3972 C3973 1.404 . S
C3972 C3975 1.539 . S
C3973 C3969 1.408 . S
C3973 C3972 1.404 . S
C3973 H3985 0.930 . S
C3974 C3970 1.524 . S
C3974 H3986 0.956 . S
C3974 H3987 0.961 . S
C3974 H3988 0.961 . S
C3975 C3972 1.539 . S
C3975 H3989 0.958 . S
C3975 H3990 0.961 . S
C3975 H3991 0.960 . S
H3976 C3960 0.931 . S
H3977 C3965 0.929 . S
H3978 C3966 0.960 . S
H3979 C3966 0.962 . S
H3980 C3966 0.960 . S
H3981 C3967 0.961 . S
H3982 C3967 0.961 . S
H3983 C3967 0.961 . S
H3984 C3968 0.931 . S
H3985 C3973 0.930 . S
H3986 C3974 0.956 . S
H3987 C3974 0.961 . S
H3988 C3974 0.961 . S
H3989 C3975 0.958 . S
H3990 C3975 0.961 . S
H3991 C3975 0.960 . S
C3992 C3993 1.391 . S
C3992 C3994 1.394 . S
C3992 H4008 0.931 . S
C3993 C3992 1.391 . S
C3993 C3997 1.376 . S
C3994 C3992 1.394 . S
C3994 C3995 1.369 . S
C3994 C3998 1.531 . S
C3995 C3994 1.369 . S
C3995 C3996 1.410 . S
C3995 C4003 1.503 . S
C3996 C3995 1.410 . S
C3996 C3997 1.392 . S
C3996 C3999 1.511 . S
C3997 C3993 1.376 . S
C3997 C3996 1.392 . S
C3997 H4009 0.929 . S
C3998 C3994 1.531 . S
C3998 H4010 0.960 . S
C3998 H4011 0.962 . S
C3998 H4012 0.960 . S
C3999 C3996 1.511 . S
C3999 H4013 0.961 . S
C3999 H4014 0.961 . S
C3999 H4015 0.961 . S
C4000 C4001 1.370 . S
C4000 C4002 1.363 . S
C4000 H4016 0.931 . S
C4001 C4000 1.370 . S
C4001 C4005 1.408 . S
C4002 C4000 1.363 . S
C4002 C4003 1.370 . S
C4002 C4006 1.524 . S
C4003 C3995 1.503 . S
C4003 C4002 1.370 . S
C4003 C4004 1.403 . S
C4004 C4003 1.403 . S
C4004 C4005 1.404 . S
C4004 C4007 1.539 . S
C4005 C4001 1.408 . S
C4005 C4004 1.404 . S
C4005 H4017 0.930 . S
C4006 C4002 1.524 . S
C4006 H4018 0.956 . S
C4006 H4019 0.961 . S
C4006 H4020 0.961 . S
C4007 C4004 1.539 . S
C4007 H4021 0.958 . S
C4007 H4022 0.961 . S
C4007 H4023 0.960 . S
H4008 C3992 0.931 . S
H4009 C3997 0.929 . S
H4010 C3998 0.960 . S
H4011 C3998 0.962 . S
H4012 C3998 0.960 . S
H4013 C3999 0.961 . S
H4014 C3999 0.961 . S
H4015 C3999 0.961 . S
H4016 C4000 0.931 . S
H4017 C4005 0.930 . S
H4018 C4006 0.956 . S
H4019 C4006 0.961 . S
H4020 C4006 0.961 . S
H4021 C4007 0.958 . S
H4022 C4007 0.961 . S
H4023 C4007 0.960 . S
C953 C101 2.190 . S
C961 C343 2.198 . S
C985 C57 1.796 . S
C993 C354 1.826 . S
C1017 C73 1.722 . S
C1025 C423 1.745 . S
C1057 C436 1.164 . S
C1049 C78 1.108 . S
C1081 C21 2.583 . S
C1089 C492 2.597 . S
C1121 C543 2.152 . S
C1113 C31 2.135 . S
C1153 C572 2.443 . S
C1145 C49 2.443 . S
C1177 C0 2.381 . S
C1185 C623 2.421 . S
C1217 C314 1.185 . S
C1209 C218 1.195 . S
C1241 C229 0.893 . S
C1249 C356 0.955 . S
C1281 C394 1.026 . S
C1273 C257 1.034 . S
C1313 C463 1.712 . S
C1305 C164 1.572 . S
C1337 C216 0.643 . S
C1345 C497 0.581 . S
C1377 C514 1.391 . S
C1369 C231 1.377 . S
C1409 C577 0.419 . S
C1401 C255 0.498 . S
C1441 C594 2.078 . S
C1433 C166 2.107 . S
C1473 C316 1.595 . S
C1465 C143 1.601 . S
C1497 C265 1.611 . S
C1505 C655 1.587 . S
C1537 C676 1.385 . S
C1529 C299 1.406 . S
C1569 C735 0.460 1_655 S
C1561 C291 0.641 . S
C1593 C104 0.899 . S
C1601 C596 0.941 . S
C1625 C117 1.326 . S
C1633 C396 1.343 . S
C1657 C304 0.957 . S
C1665 C754 0.917 . S
C1697 C823 0.856 . S
C1689 C278 0.813 . S
C1729 C332 2.164 . S
C1721 C60 2.205 . S
C1761 C815 1.737 . S
C1753 C96 1.738 . S
C1785 C88 1.654 . S
C1793 C412 1.641 . S
C1817 C65 1.093 . S
C1825 C777 1.098 . S
C1857 C503 2.459 . S
C1849 C10 2.469 . S
C1881 C44 2.032 . S
C1889 C692 2.096 . S
C1921 C583 2.345 1_556 S
C1913 C34 2.296 . S
C1953 C852 2.366 . S
C1945 C13 2.392 1_655 S
C1985 C335 1.163 . S
C1977 C138 1.165 . S
C2017 C817 0.884 . S
C2009 C296 0.865 . S
C2041 C112 0.948 . S
C2049 C415 0.950 . S
C2073 C270 1.589 . S
C2081 C772 1.595 . S
C2105 C140 0.534 . S
C2113 C476 0.546 . S
C2145 C695 1.316 . S
C2137 C294 1.294 . S
C2169 C114 0.366 . S
C2177 C556 0.319 . S
C2201 C268 1.986 . S
C2209 C855 1.989 . S
C2233 C169 1.780 . S
C2241 C337 1.632 . S
C2265 C161 1.559 . S
C2273 C634 1.542 . S
C2297 C234 1.595 . S
C2305 C537 1.431 . S
C2329 C226 0.421 . S
C2337 C714 0.357 . S
C2369 C857 0.931 . S
C2361 C247 1.012 . S
C2393 C195 1.384 . S
C2401 C417 1.330 . S
C2433 C455 0.839 . S
C2425 C239 0.782 . S
C2465 C372 0.832 . S
C2457 C187 0.827 . S
C2489 C75 2.195 . S
C2497 C903 2.197 . S
C2529 C794 1.831 . S
C2521 C83 1.767 . S
C2553 C99 1.679 . S
C2561 C943 1.743 . S
C2585 C52 1.140 . S
C2593 C756 1.144 . S
C2617 C47 2.588 . S
C2625 C652 2.578 . S
C2657 C703 2.148 . S
C2649 C5 2.134 . S
C2689 C732 2.439 . S
C2681 C23 2.444 . S
C2721 C863 2.415 . S
C2713 C26 2.340 . S
C2753 C874 1.196 . S
C2745 C244 1.167 . S
C2777 C177 0.983 . S
C2785 C796 0.922 . S
C2817 C914 1.027 . S
C2809 C192 1.034 . S
C2849 C783 1.712 . S
C2841 C203 1.632 . S
C2881 C657 0.582 . S
C2873 C242 0.682 . S
C2905 C179 1.370 . S
C2913 C674 1.394 . S
C2945 C737 0.416 . S
C2937 C190 0.407 . S
C2969 C205 2.111 . S
C2977 C834 2.070 . S
C3009 C876 1.599 . S
C3001 C286 1.614 . S
C3033 C122 1.572 . S
C3041 C495 1.590 . S
C3073 C516 1.392 . S
C3065 C130 1.380 . S
C3105 C575 0.495 . S
C3097 C148 0.451 . S
C3137 C836 0.911 . S
C3129 C273 0.974 . S
C3161 C260 1.365 . S
C3169 C916 1.335 . S
C3201 C434 0.920 . S
C3193 C135 0.899 . S
C3233 C383 0.849 . S
C3225 C109 0.809 . S
C3257 C86 2.199 . S
C3265 C892 2.157 . S
C3297 C375 1.730 . S
C3289 C70 1.733 . S
C3321 C62 1.655 . S
C3329 C932 1.641 . S
C3353 C91 1.086 . S
C3361 C457 1.095 . S
C3385 C36 2.470 . S
C3393 C663 2.467 1_556 S
C3425 C532 2.092 . S
C3417 C18 2.021 . S
C3449 C8 2.263 . S
C3457 C743 2.338 . S
C3481 C39 2.394 . S
C3489 C612 2.367 . S
C3521 C895 1.165 . S
C3513 C307 1.170 . S
C3545 C153 0.910 . S
C3553 C377 0.843 . S
C3585 C935 0.950 . S
C3577 C281 0.965 . S
C3609 C127 1.578 . S
C3617 C452 1.590 . S
C3641 C309 0.507 . S
C3649 C636 0.563 . S
C3681 C535 1.318 . S
C3673 C151 1.305 . S
C3705 C283 0.369 . S
C3713 C716 0.316 . S
C3745 C615 1.986 . S
C3737 C125 1.949 . S
C3777 C897 1.636 . S
C3769 C221 1.797 . S
C3809 C474 1.525 . S
C3801 C200 1.566 . S
C3833 C208 1.582 . S
C3841 C697 1.428 . S
C3873 C554 0.429 . S
C3865 C174 0.436 . S
C3897 C182 1.001 . S
C3905 C617 0.966 . S
C3929 C156 1.385 . S
C3937 C937 1.333 . S
C3969 C775 0.822 . S
C3961 C213 0.834 . S
C4001 C812 0.812 . S
C3993 C252 0.803 . S
