# Generated by pormake.
# Topology csq, (4,8)-cn, num edge types: 1
# Building blocks:
#     Node 0, Type 0, BuildingBlock: KOZSID_clean_sbu_0, # of connection points: 4
#     Node 1, Type 0, BuildingBlock: KOZSID_clean_sbu_0, # of connection points: 4
#     Node 2, Type 0, BuildingBlock: KOZSID_clean_sbu_0, # of connection points: 4
#     Node 3, Type 0, BuildingBlock: KOZSID_clean_sbu_0, # of connection points: 4
#     Node 4, Type 0, BuildingBlock: KOZSID_clean_sbu_0, # of connection points: 4
#     Node 5, Type 0, BuildingBlock: KOZSID_clean_sbu_0, # of connection points: 4
#     Node 6, Type 1, BuildingBlock: TAGTUT_clean_sbu_1, # of connection points: 8
#     Node 7, Type 1, BuildingBlock: TAGTUT_clean_sbu_1, # of connection points: 8
#     Node 8, Type 1, BuildingBlock: TAGTUT_clean_sbu_1, # of connection points: 8
#     Edge 9, Type (0, 1), None
#     Edge 10, Type (0, 1), None
#     Edge 11, Type (0, 1), None
#     Edge 12, Type (0, 1), None
#     Edge 13, Type (0, 1), None
#     Edge 14, Type (0, 1), None
#     Edge 15, Type (0, 1), None
#     Edge 16, Type (0, 1), None
#     Edge 17, Type (0, 1), None
#     Edge 18, Type (0, 1), None
#     Edge 19, Type (0, 1), None
#     Edge 20, Type (0, 1), None
#     Edge 21, Type (0, 1), None
#     Edge 22, Type (0, 1), None
#     Edge 23, Type (0, 1), None
#     Edge 24, Type (0, 1), None
#     Edge 25, Type (0, 1), None
#     Edge 26, Type (0, 1), None
#     Edge 27, Type (0, 1), None
#     Edge 28, Type (0, 1), None
#     Edge 29, Type (0, 1), None
#     Edge 30, Type (0, 1), None
#     Edge 31, Type (0, 1), None
#     Edge 32, Type (0, 1), None
# Relax obj value: 0.048
# Max RMSD: 0.132
# Mean RMSD: 0.041
data_MOF--net-csq--node1-KOZSID_clean_sbu_0--node2-TAGTUT_clean_sbu_1--edge1-none
_symmetry_space_group_name_H-M    P1
_symmetry_Int_Tables_number       1
_symmetry_cell_setting            triclinic
loop_
_symmetry_equiv_pos_as_xyz
'x, y, z'
_cell_length_a     29.634743
_cell_length_b     29.439462
_cell_length_c     11.11947
_cell_angle_alpha  85.507002
_cell_angle_beta   102.19692
_cell_angle_gamma 119.7095
loop_
_atom_site_label
_atom_site_type_symbol
_atom_site_fract_x
_atom_site_fract_y
_atom_site_fract_z
_atom_type_partial_charge
C0 C 0.35764 0.53333 0.51639 0.0
C1 C 0.3863 0.58191 0.5766 0.0
C2 C 0.36218 0.61007 0.52395 0.0
C3 C 0.32076 0.57674 0.43534 0.0
N4 N 0.31771 0.53 0.42763 0.0
Co5 Co 0.26164 0.46896 0.32232 0.0
N6 N 0.24544 0.5152 0.20813 0.0
C7 C 0.2533 0.56199 0.2416 0.0
C8 C 0.22887 0.58152 0.15512 0.0
C9 C 0.20888 0.54833 0.0556 0.0
C10 C 0.21432 0.50512 0.09511 0.0
N11 N 0.20563 0.40801 0.21429 0.0
C12 C 0.18052 0.40714 0.09639 0.0
C13 C 0.14757 0.35563 0.05205 0.0
C14 C 0.15078 0.32392 0.14672 0.0
C15 C 0.18567 0.35728 0.24337 0.0
N16 N 0.27788 0.42368 0.44276 0.0
C17 C 0.2474 0.37187 0.45289 0.0
C18 C 0.27017 0.35187 0.54658 0.0
C19 C 0.31784 0.39389 0.59764 0.0
C20 C 0.32147 0.43712 0.53197 0.0
N21 N 0.2087 0.46495 0.41533 0.0
C22 C 0.13718 0.47951 0.52195 0.0
C23 C 0.12304 0.45792 0.40267 0.0
C24 C 0.15862 0.45117 0.35204 0.0
C25 C 0.18678 0.4892 0.59158 0.0
C26 C 0.22167 0.48106 0.53692 0.0
N27 N 0.31368 0.47261 0.22531 0.0
C28 C 0.34325 0.4265 0.11618 0.0
C29 C 0.37666 0.47221 0.06128 0.0
C30 C 0.37878 0.51868 0.09376 0.0
C31 C 0.34673 0.518 0.17411 0.0
C32 C 0.31318 0.42761 0.198 0.0
H33 H 0.34809 0.55407 0.19363 0.0
H34 H 0.28868 0.39124 0.23738 0.0
H35 H 0.1457 0.43713 0.25848 0.0
H36 H 0.25997 0.49012 0.5918 0.0
C37 C 0.28724 0.58895 0.35011 0.0
C38 C 0.36696 0.49016 0.55211 0.0
C39 C 0.17501 0.45221 0.04289 0.0
C40 C 0.20462 0.3427 0.3577 0.0
H41 H 0.42002 0.59477 0.65228 0.0
H42 H 0.37378 0.65 0.54645 0.0
H43 H 0.22298 0.61377 0.16805 0.0
H44 H 0.1844 0.55074 0.97114 0.0
H45 H 0.12182 0.34192 0.96279 0.0
H46 H 0.13019 0.28158 0.14491 0.0
H47 H 0.25554 0.31125 0.57016 0.0
H48 H 0.34683 0.39253 0.67231 0.0
H49 H 0.08479 0.44796 0.34502 0.0
H50 H 0.19954 0.50505 0.68489 0.0
H51 H 0.34088 0.38973 0.09748 0.0
H52 H 0.40425 0.55513 0.05499 0.0
C53 C 0.90263 0.27341 0.0923 0.0
C54 C 0.93865 0.25693 0.08401 0.0
C55 C 0.9186 0.20679 0.12381 0.0
C56 C 0.87213 0.19522 0.15685 0.0
N57 N 0.86074 0.23453 0.13571 0.0
Co58 Co 0.79929 0.23524 0.17901 0.0
N59 N 0.787 0.17732 0.29715 0.0
C60 C 0.81617 0.15297 0.32197 0.0
C61 C 0.80836 0.12404 0.42537 0.0
C62 C 0.77104 0.12937 0.46729 0.0
C63 C 0.75605 0.15982 0.38367 0.0
N64 N 0.73498 0.23311 0.21489 0.0
C65 C 0.69936 0.19988 0.28442 0.0
C66 C 0.65724 0.20969 0.27075 0.0
C67 C 0.66523 0.24793 0.1863 0.0
C68 C 0.71206 0.26039 0.15431 0.0
N69 N 0.81679 0.29796 0.07539 0.0
C70 C 0.78637 0.32058 0.03927 0.0
C71 C 0.81266 0.36874 0.98985 0.0
C72 C 0.86345 0.37811 0.9999 0.0
C73 C 0.86562 0.33505 0.05589 0.0
N74 N 0.75224 0.18534 0.03732 0.0
C75 C 0.6686 0.11215 0.86258 0.0
C76 C 0.69136 0.16542 0.83966 0.0
C77 C 0.73395 0.20132 0.9271 0.0
C78 C 0.6928 0.09602 0.96484 0.0
C79 C 0.73399 0.13274 0.05032 0.0
N80 N 0.84583 0.28488 0.31476 0.0
C81 C 0.88078 0.36948 0.41036 0.0
C82 C 0.92768 0.36906 0.463 0.0
C83 C 0.93253 0.32577 0.44064 0.0
C84 C 0.8906 0.28353 0.37163 0.0
C85 C 0.84011 0.32674 0.33642 0.0
H86 H 0.89588 0.25078 0.36101 0.0
H87 H 0.80486 0.3283 0.29447 0.0
H88 H 0.74977 0.24162 0.9049 0.0
H89 H 0.74816 0.11678 0.12865 0.0
C90 C 0.85136 0.15939 0.2473 0.0
C91 C 0.91324 0.32829 0.07894 0.0
C92 C 0.70462 0.15974 0.36715 0.0
C93 C 0.73742 0.29994 0.07442 0.0
H94 H 0.97782 0.27985 0.06321 0.0
H95 H 0.9393 0.18453 0.14286 0.0
H96 H 0.82773 0.10195 0.46616 0.0
H97 H 0.75634 0.11132 0.54924 0.0
H98 H 0.62419 0.19143 0.31733 0.0
H99 H 0.64011 0.26496 0.15268 0.0
H100 H 0.79779 0.3954 0.95746 0.0
H101 H 0.89525 0.41304 0.97062 0.0
H102 H 0.6742 0.17947 0.76004 0.0
H103 H 0.67701 0.0548 0.98436 0.0
H104 H 0.87495 0.40144 0.42963 0.0
H105 H 0.96776 0.3232 0.48172 0.0
C106 C 0.608 0.73365 0.19935 0.0
C107 C 0.65686 0.73626 0.24627 0.0
C108 C 0.69355 0.77621 0.19074 0.0
C109 C 0.66579 0.79545 0.11085 0.0
N110 N 0.61344 0.77084 0.11222 0.0
Co111 Co 0.56013 0.78421 0.99205 0.0
N112 N 0.6159 0.84834 0.92421 0.0
C113 C 0.66867 0.86639 0.95829 0.0
C114 C 0.6991 0.91558 0.92038 0.0
C115 C 0.66396 0.93074 0.86044 0.0
C116 C 0.61294 0.8889 0.8602 0.0
N117 N 0.50718 0.79689 0.87039 0.0
C118 C 0.51241 0.84033 0.8054 0.0
C119 C 0.46368 0.82989 0.73233 0.0
C120 C 0.42702 0.78069 0.75816 0.0
C121 C 0.45464 0.76295 0.84415 0.0
N122 N 0.50434 0.72199 0.06549 0.0
C123 C 0.45163 0.70354 0.0293 0.0
C124 C 0.42181 0.66237 0.09599 0.0
C125 C 0.45753 0.65321 0.17858 0.0
C126 C 0.50759 0.6885 0.15598 0.0
N127 N 0.56204 0.8307 0.10916 0.0
C128 C 0.57495 0.92427 0.18472 0.0
C129 C 0.52427 0.88347 0.1384 0.0
C130 C 0.51855 0.83628 0.1041 0.0
C131 C 0.61822 0.91585 0.20242 0.0
C132 C 0.61046 0.86802 0.16888 0.0
N133 N 0.55909 0.73772 0.87162 0.0
C134 C 0.52681 0.647 0.83149 0.0
C135 C 0.57761 0.65843 0.82137 0.0
C136 C 0.6153 0.7105 0.81047 0.0
C137 C 0.60439 0.74967 0.83204 0.0
C138 C 0.51799 0.68756 0.85179 0.0
H139 H 0.63434 0.789 0.82333 0.0
H140 H 0.47884 0.67698 0.86051 0.0
H141 H 0.47928 0.80569 0.0677 0.0
H142 H 0.64458 0.86306 0.18439 0.0
C143 C 0.68841 0.83902 0.03956 0.0
C144 C 0.55709 0.69058 0.22819 0.0
C145 C 0.56305 0.89068 0.80511 0.0
C146 C 0.43159 0.72225 0.92363 0.0
H147 H 0.66571 0.71073 0.30971 0.0
H148 H 0.73553 0.78924 0.20574 0.0
H149 H 0.74187 0.93925 0.94205 0.0
H150 H 0.67604 0.9699 0.82842 0.0
H151 H 0.45437 0.85496 0.66831 0.0
H152 H 0.38452 0.76187 0.72528 0.0
H153 H 0.37904 0.64082 0.08424 0.0
H154 H 0.44751 0.62368 0.24755 0.0
H155 H 0.48929 0.88713 0.13362 0.0
H156 H 0.65755 0.94542 0.24649 0.0
H157 H 0.49469 0.60711 0.8301 0.0
H158 H 0.65387 0.7211 0.79286 0.0
C159 C 0.86859 0.60605 0.33563 0.0
C160 C 0.90466 0.65804 0.3717 0.0
C161 C 0.90348 0.68774 0.27096 0.0
C162 C 0.86667 0.65289 0.17866 0.0
N163 N 0.8433 0.60314 0.21591 0.0
Co164 Co 0.78604 0.54127 0.10958 0.0
N165 N 0.7742 0.58572 0.97656 0.0
C166 C 0.80747 0.63667 0.96306 0.0
C167 C 0.78855 0.65682 0.86173 0.0
C168 C 0.74034 0.6159 0.8085 0.0
C169 C 0.73259 0.57309 0.88067 0.0
N170 N 0.72888 0.47972 0.00573 0.0
C171 C 0.69086 0.47692 0.91001 0.0
C172 C 0.65842 0.42628 0.86185 0.0
C173 C 0.6767 0.39602 0.93118 0.0
C174 C 0.71908 0.42999 0.01707 0.0
N175 N 0.79749 0.49575 0.24041 0.0
C176 C 0.77565 0.4433 0.23177 0.0
C177 C 0.78704 0.42159 0.33927 0.0
C178 C 0.82025 0.46305 0.41955 0.0
C179 C 0.82759 0.50794 0.35561 0.0
N180 N 0.7339 0.54344 0.18999 0.0
C181 C 0.66811 0.55136 0.32611 0.0
C182 C 0.66079 0.50228 0.29723 0.0
C183 C 0.69479 0.49927 0.23078 0.0
C184 C 0.70735 0.59582 0.28144 0.0
C185 C 0.7387 0.59093 0.21159 0.0
N186 N 0.83892 0.54044 0.02914 0.0
C187 C 0.86742 0.52553 0.85363 0.0
C188 C 0.91737 0.53915 0.92675 0.0
C189 C 0.92762 0.55637 0.04839 0.0
C190 C 0.88804 0.55483 0.09799 0.0
C191 C 0.82888 0.52743 0.90646 0.0
H192 H 0.89777 0.56454 0.19365 0.0
H193 H 0.79079 0.51724 0.8488 0.0
H194 H 0.68976 0.46142 0.21337 0.0
H195 H 0.76735 0.6261 0.17652 0.0
C196 C 0.84993 0.66564 0.05935 0.0
C197 C 0.86999 0.56063 0.40196 0.0
C198 C 0.68492 0.5213 0.85898 0.0
C199 C 0.74221 0.41535 0.12391 0.0
H200 H 0.93112 0.67319 0.45962 0.0
H201 H 0.92695 0.72978 0.26571 0.0
H202 H 0.80625 0.69705 0.83357 0.0
H203 H 0.71355 0.61743 0.72753 0.0
H204 H 0.62469 0.41285 0.78592 0.0
H205 H 0.6591 0.35389 0.92481 0.0
H206 H 0.7729 0.38057 0.35719 0.0
H207 H 0.83934 0.46094 0.51265 0.0
H208 H 0.62995 0.46677 0.32794 0.0
H209 H 0.71303 0.63429 0.29793 0.0
H210 H 0.85758 0.51183 0.75911 0.0
H211 H 0.96571 0.56823 0.10916 0.0
C212 C 0.31865 0.89216 0.23969 0.0
C213 C 0.31611 0.93815 0.23611 0.0
C214 C 0.26653 0.92659 0.17339 0.0
C215 C 0.24147 0.87442 0.14143 0.0
N216 N 0.27168 0.85181 0.18109 0.0
Co217 Co 0.25249 0.77925 0.13233 0.0
N218 N 0.17955 0.76144 0.03998 0.0
C219 C 0.1576 0.7922 0.03966 0.0
C220 C 0.10361 0.76629 0.00389 0.0
C221 C 0.09012 0.7158 0.98061 0.0
C222 C 0.13707 0.71366 0.99836 0.0
N223 N 0.23674 0.70987 0.07188 0.0
C224 C 0.19442 0.67429 0.99039 0.0
C225 C 0.21052 0.64915 0.92281 0.0
C226 C 0.26279 0.66507 0.97363 0.0
C227 C 0.27556 0.69918 0.06845 0.0
N228 N 0.32264 0.79369 0.23734 0.0
C229 C 0.34167 0.75987 0.25072 0.0
C230 C 0.38883 0.77777 0.33364 0.0
C231 C 0.40053 0.82577 0.37516 0.0
C232 C 0.35996 0.83517 0.31456 0.0
N233 N 0.2197 0.74853 0.27391 0.0
C234 C 0.12747 0.68242 0.3574 0.0
C235 C 0.16018 0.66362 0.33569 0.0
C236 C 0.20763 0.69812 0.29949 0.0
C237 C 0.14635 0.73627 0.35714 0.0
C238 C 0.19337 0.76897 0.31707 0.0
N239 N 0.28314 0.80874 0.98613 0.0
C240 C 0.34927 0.82709 0.86976 0.0
C241 C 0.33074 0.85489 0.78713 0.0
C242 C 0.28257 0.85141 0.79254 0.0
C243 C 0.25904 0.82748 0.89262 0.0
C244 C 0.32802 0.80889 0.97318 0.0
H245 H 0.22362 0.82807 0.8964 0.0
H246 H 0.3512 0.79871 0.04395 0.0
H247 H 0.23217 0.68297 0.28244 0.0
H248 H 0.20561 0.80987 0.31284 0.0
C249 C 0.18863 0.84436 0.08209 0.0
C250 C 0.36354 0.88733 0.3151 0.0
C251 C 0.1398 0.66597 0.97085 0.0
C252 C 0.32085 0.71853 0.16361 0.0
H253 H 0.34638 0.97579 0.27805 0.0
H254 H 0.25037 0.95289 0.15536 0.0
H255 H 0.07694 0.78168 0.00062 0.0
H256 H 0.04978 0.68418 0.95591 0.0
H257 H 0.18683 0.62129 0.84664 0.0
H258 H 0.28713 0.65064 0.94992 0.0
H259 H 0.41386 0.75997 0.35436 0.0
H260 H 0.43684 0.85247 0.43593 0.0
H261 H 0.14952 0.62285 0.34771 0.0
H262 H 0.12433 0.75276 0.38444 0.0
H263 H 0.38663 0.82897 0.86903 0.0
H264 H 0.26654 0.87217 0.72918 0.0
C265 C 0.51328 0.17188 0.46301 0.0
C266 C 0.56062 0.17945 0.53699 0.0
C267 C 0.59875 0.22812 0.51247 0.0
C268 C 0.57236 0.24749 0.42674 0.0
N269 N 0.5195 0.21534 0.40076 0.0
Co270 Co 0.46593 0.22462 0.27426 0.0
N271 N 0.52256 0.28372 0.2008 0.0
C272 C 0.57527 0.30139 0.23442 0.0
C273 C 0.60492 0.34439 0.1728 0.0
C274 C 0.5695 0.35625 0.09888 0.0
C275 C 0.51968 0.3203 0.12274 0.0
N276 N 0.41206 0.23437 0.15002 0.0
C277 C 0.41887 0.27436 0.07236 0.0
C278 C 0.3694 0.26826 0.01297 0.0
C279 C 0.33152 0.22467 0.05674 0.0
C280 C 0.35879 0.20637 0.14103 0.0
N281 N 0.41012 0.16409 0.3475 0.0
C282 C 0.35734 0.14543 0.31857 0.0
C283 C 0.32937 0.10248 0.38329 0.0
C284 C 0.36648 0.09126 0.45209 0.0
C285 C 0.41506 0.12757 0.42254 0.0
N286 N 0.46708 0.27669 0.38319 0.0
C287 C 0.46033 0.36154 0.46707 0.0
C288 C 0.41648 0.31123 0.44873 0.0
C289 C 0.42084 0.26987 0.40895 0.0
C290 C 0.50868 0.36769 0.45096 0.0
C291 C 0.51138 0.32493 0.41228 0.0
N292 N 0.46349 0.17333 0.16236 0.0
C293 C 0.41178 0.09955 0.01739 0.0
C294 C 0.45624 0.09515 0.01433 0.0
C295 C 0.50474 0.1306 0.08712 0.0
C296 C 0.50762 0.16973 0.15855 0.0
C297 C 0.41607 0.13797 0.09224 0.0
H298 H 0.5457 0.19671 0.21042 0.0
H299 H 0.38018 0.13801 0.0922 0.0
H300 H 0.38571 0.23299 0.3982 0.0
H301 H 0.54966 0.33222 0.40421 0.0
C302 C 0.59618 0.2853 0.34311 0.0
C303 C 0.46331 0.12241 0.44698 0.0
C304 C 0.47087 0.32263 0.07156 0.0
C305 C 0.33563 0.16619 0.22148 0.0
H306 H 0.56748 0.15167 0.59647 0.0
H307 H 0.6412 0.24464 0.54263 0.0
H308 H 0.64752 0.36693 0.18815 0.0
H309 H 0.57993 0.38915 0.0388 0.0
H310 H 0.35973 0.29355 0.95086 0.0
H311 H 0.28919 0.21024 0.03582 0.0
H312 H 0.28684 0.08013 0.376 0.0
H313 H 0.3577 0.05839 0.51182 0.0
H314 H 0.37868 0.30346 0.46606 0.0
H315 H 0.54479 0.40499 0.47129 0.0
H316 H 0.37351 0.07325 0.96197 0.0
H317 H 0.54058 0.12943 0.08549 0.0
C318 C 0.9576 0.36495 0.03915 0.0
C319 C 0.12604 0.44431 0.98878 0.0
C320 C 0.09708 0.62433 0.89908 0.0
Mg321 Mg 0.01973 0.39855 0.83612 0.0
O322 O 0.01245 0.45802 0.85205 0.0
Mg323 Mg 0.04618 0.4977 0.0057 0.0
Mg324 Mg 0.03027 0.51259 0.73221 0.0
O325 O 0.04429 0.56545 0.60735 0.0
Mg326 Mg 0.02816 0.61836 0.6289 0.0
Mg327 Mg 1.00353 0.52015 0.45596 0.0
C328 C 0.96514 0.40445 0.56591 0.0
C329 C 0.1005 0.49494 0.56005 0.0
O330 O 0.98133 0.41392 0.07392 0.0
O331 O 0.96971 0.35011 0.9524 0.0
O332 O 0.10984 0.47335 0.02318 0.0
O333 O 0.09639 0.40864 0.90685 0.0
O334 O 0.98522 0.38315 0.6483 0.0
O335 O 0.96923 0.44927 0.58268 0.0
C336 C 0.95695 0.52801 0.89339 0.0
O337 O 0.96332 0.52666 0.78318 0.0
O338 O 0.98512 0.5192 0.98424 0.0
O339 O 0.05303 0.59919 0.36722 0.0
O340 O 0.07581 0.66388 0.50369 0.0
O341 O 0.93148 0.53394 0.43559 0.0
C342 C 0.08013 0.64741 0.40605 0.0
O343 O 0.94889 0.60338 0.54122 0.0
O344 O 0.06622 0.63709 0.82288 0.0
C345 C 0.91725 0.56554 0.46454 0.0
O346 O 0.09369 0.57838 0.88924 0.0
O347 O 0.09606 0.497 0.67251 0.0
O348 O 0.07076 0.50356 0.47153 0.0
C349 C 0.45255 0.05822 0.92417 0.0
C350 C 0.37111 0.90209 0.74194 0.0
C351 C 0.56445 0.93265 0.73542 0.0
Mg352 Mg 0.41435 0.01041 0.65651 0.0
O353 O 0.48466 0.02135 0.70557 0.0
Mg354 Mg 0.50133 0.98297 0.84553 0.0
Mg355 Mg 0.51345 0.00555 0.58301 0.0
O356 O 0.54177 0.99232 0.45903 0.0
Mg357 Mg 0.61221 0.00934 0.51911 0.0
Mg358 Mg 0.52504 0.03312 0.32073 0.0
C359 C 0.46126 0.07499 0.45168 0.0
C360 C 0.41081 0.93104 0.36122 0.0
O361 O 0.47954 0.03396 0.95332 0.0
O362 O 0.42451 0.05448 0.81605 0.0
O363 O 0.41794 0.91953 0.80441 0.0
O364 O 0.35821 0.93054 0.66775 0.0
O365 O 0.41857 0.03496 0.46839 0.0
O366 O 0.50346 0.07125 0.46199 0.0
C367 C 0.61409 0.07428 0.80413 0.0
O368 O 0.59739 0.06928 0.68707 0.0
O369 O 0.58437 0.04589 0.87782 0.0
O370 O 0.5489 0.98578 0.21719 0.0
O371 O 0.60846 0.97378 0.36176 0.0
O372 O 0.61413 0.10386 0.34323 0.0
C373 C 0.58044 0.96693 0.25345 0.0
O374 O 0.66833 0.08908 0.48964 0.0
O375 O 0.60375 0.95909 0.68079 0.0
C376 C 0.66128 0.11784 0.40421 0.0
O377 O 0.52501 0.94194 0.71211 0.0
O378 O 0.43054 0.93734 0.47743 0.0
O379 O 0.43697 0.96405 0.2862 0.0
C380 C 0.55697 0.65384 0.31534 0.0
C381 C 0.63344 0.55729 0.39445 0.0
C382 C 0.45784 0.4039 0.52588 0.0
Mg383 Mg 0.61374 0.62314 0.56083 0.0
O384 O 0.54366 0.56795 0.55818 0.0
Mg385 Mg 0.50709 0.52321 0.40318 0.0
Mg386 Mg 0.52732 0.51131 0.68906 0.0
O387 O 0.50702 0.4558 0.8134 0.0
Mg388 Mg 0.43248 0.41325 0.78956 0.0
Mg389 Mg 0.53865 0.497 0.97073 0.0
C390 C 0.59143 0.61674 0.8271 0.0
C391 C 0.63684 0.51714 0.84371 0.0
O392 O 0.52206 0.60446 0.2965 0.0
O393 O 0.59399 0.66922 0.41288 0.0
O394 O 0.58332 0.531 0.35732 0.0
O395 O 0.65434 0.59314 0.47839 0.0
O396 O 0.62652 0.62322 0.76632 0.0
O397 O 0.55407 0.57063 0.84289 0.0
C398 C 0.4146 0.49789 0.54946 0.0
O399 O 0.44352 0.49627 0.64995 0.0
O400 O 0.43159 0.51167 0.44891 0.0
O401 O 0.51304 0.41237 0.05143 0.0
O402 O 0.43902 0.35966 0.91801 0.0
O403 O 0.46148 0.49211 0.0196 0.0
C404 C 0.47398 0.36626 0.01424 0.0
O405 O 0.39004 0.44107 0.88228 0.0
O406 O 0.42446 0.3883 0.59871 0.0
C407 C 0.41125 0.47058 0.97989 0.0
O408 O 0.49813 0.45059 0.53438 0.0
O409 O 0.61404 0.52484 0.73853 0.0
O410 O 0.61405 0.50316 0.936 0.0
loop_
_geom_bond_atom_site_label_1
_geom_bond_atom_site_label_2
_geom_bond_distance
_geom_bond_site_symmetry_2
_ccdc_geom_bond_type
C0 C1 1.443 . S
C0 N4 1.376 . S
C0 C38 1.389 . S
C1 C0 1.443 . S
C1 C2 1.340 . S
C1 H41 0.951 . S
C2 C1 1.340 . S
C2 C3 1.439 . S
C2 H42 0.950 . S
C3 C2 1.439 . S
C3 N4 1.374 . S
C3 C37 1.395 . S
N4 C0 1.376 . S
N4 C3 1.374 . S
N4 Co5 2.008 . S
Co5 N4 2.008 . S
Co5 N6 1.995 . S
Co5 N11 2.008 . S
Co5 N16 1.995 . S
Co5 N21 2.282 . S
Co5 N27 2.282 . S
N6 Co5 1.995 . S
N6 C7 1.376 . S
N6 C10 1.383 . S
C7 N6 1.376 . S
C7 C8 1.446 . S
C7 C37 1.391 . S
C8 C7 1.446 . S
C8 C9 1.339 . S
C8 H43 0.949 . S
C9 C8 1.339 . S
C9 C10 1.439 . S
C9 H44 0.950 . S
C10 N6 1.383 . S
C10 C9 1.439 . S
C10 C39 1.392 . S
N11 Co5 2.008 . S
N11 C12 1.376 . S
N11 C15 1.374 . S
C12 N11 1.376 . S
C12 C13 1.443 . S
C12 C39 1.389 . S
C13 C12 1.443 . S
C13 C14 1.340 . S
C13 H45 0.951 . S
C14 C13 1.340 . S
C14 C15 1.439 . S
C14 H46 0.950 . S
C15 N11 1.374 . S
C15 C14 1.439 . S
C15 C40 1.395 . S
N16 Co5 1.995 . S
N16 C17 1.376 . S
N16 C20 1.383 . S
C17 N16 1.376 . S
C17 C18 1.446 . S
C17 C40 1.391 . S
C18 C17 1.446 . S
C18 C19 1.339 . S
C18 H47 0.949 . S
C19 C18 1.339 . S
C19 C20 1.439 . S
C19 H48 0.950 . S
C20 N16 1.383 . S
C20 C19 1.439 . S
C20 C38 1.392 . S
N21 Co5 2.282 . S
N21 C24 1.332 . S
N21 C26 1.332 . S
C22 C23 1.386 . S
C22 C25 1.388 . S
C23 C22 1.386 . S
C23 C24 1.382 . S
C23 H49 0.950 . S
C24 N21 1.332 . S
C24 C23 1.382 . S
C24 H35 0.952 . S
C25 C22 1.388 . S
C25 C26 1.382 . S
C25 H50 0.950 . S
C26 N21 1.332 . S
C26 C25 1.382 . S
C26 H36 0.948 . S
N27 Co5 2.282 . S
N27 C31 1.332 . S
N27 C32 1.332 . S
C28 C29 1.388 . S
C28 C32 1.382 . S
C28 H51 0.950 . S
C29 C28 1.388 . S
C29 C30 1.386 . S
C30 C29 1.386 . S
C30 C31 1.382 . S
C30 H52 0.950 . S
C31 N27 1.332 . S
C31 C30 1.382 . S
C31 H33 0.952 . S
C32 N27 1.332 . S
C32 C28 1.382 . S
C32 H34 0.948 . S
H33 C31 0.952 . S
H34 C32 0.948 . S
H35 C24 0.952 . S
H36 C26 0.948 . S
C37 C3 1.395 . S
C37 C7 1.391 . S
C38 C0 1.389 . S
C38 C20 1.392 . S
C39 C10 1.392 . S
C39 C12 1.389 . S
C40 C15 1.395 . S
C40 C17 1.391 . S
H41 C1 0.951 . S
H42 C2 0.950 . S
H43 C8 0.949 . S
H44 C9 0.950 . S
H45 C13 0.951 . S
H46 C14 0.950 . S
H47 C18 0.949 . S
H48 C19 0.950 . S
H49 C23 0.950 . S
H50 C25 0.950 . S
H51 C28 0.950 . S
H52 C30 0.950 . S
C53 C54 1.443 . S
C53 N57 1.376 . S
C53 C91 1.389 . S
C54 C53 1.443 . S
C54 C55 1.340 . S
C54 H94 0.951 . S
C55 C54 1.340 . S
C55 C56 1.439 . S
C55 H95 0.950 . S
C56 C55 1.439 . S
C56 N57 1.374 . S
C56 C90 1.395 . S
N57 C53 1.376 . S
N57 C56 1.374 . S
N57 Co58 2.008 . S
Co58 N57 2.008 . S
Co58 N59 1.995 . S
Co58 N64 2.008 . S
Co58 N69 1.995 . S
Co58 N74 2.282 . S
Co58 N80 2.282 . S
N59 Co58 1.995 . S
N59 C60 1.376 . S
N59 C63 1.383 . S
C60 N59 1.376 . S
C60 C61 1.446 . S
C60 C90 1.391 . S
C61 C60 1.446 . S
C61 C62 1.339 . S
C61 H96 0.949 . S
C62 C61 1.339 . S
C62 C63 1.439 . S
C62 H97 0.950 . S
C63 N59 1.383 . S
C63 C62 1.439 . S
C63 C92 1.392 . S
N64 Co58 2.008 . S
N64 C65 1.376 . S
N64 C68 1.374 . S
C65 N64 1.376 . S
C65 C66 1.443 . S
C65 C92 1.389 . S
C66 C65 1.443 . S
C66 C67 1.340 . S
C66 H98 0.951 . S
C67 C66 1.340 . S
C67 C68 1.439 . S
C67 H99 0.950 . S
C68 N64 1.374 . S
C68 C67 1.439 . S
C68 C93 1.395 . S
N69 Co58 1.995 . S
N69 C70 1.376 . S
N69 C73 1.383 . S
C70 N69 1.376 . S
C70 C71 1.446 . S
C70 C93 1.391 . S
C71 C70 1.446 . S
C71 C72 1.341 . S
C71 H100 0.949 1_554 S
C72 C71 1.341 . S
C72 C73 1.441 . S
C72 H101 0.946 1_554 S
C73 N69 1.383 . S
C73 C72 1.441 . S
C73 C91 1.392 . S
N74 Co58 2.282 . S
N74 C77 1.332 1_554 S
N74 C79 1.332 . S
C75 C76 1.386 . S
C75 C78 1.388 . S
C76 C75 1.386 . S
C76 C77 1.382 . S
C76 H102 0.950 . S
C77 N74 1.332 1_556 S
C77 C76 1.382 . S
C77 H88 0.952 . S
C78 C75 1.388 . S
C78 C79 1.382 1_556 S
C78 H103 0.950 . S
C79 N74 1.332 . S
C79 C78 1.382 1_554 S
C79 H89 0.948 . S
N80 Co58 2.282 . S
N80 C84 1.332 . S
N80 C85 1.332 . S
C81 C82 1.388 . S
C81 C85 1.382 . S
C81 H104 0.950 . S
C82 C81 1.388 . S
C82 C83 1.386 . S
C83 C82 1.386 . S
C83 C84 1.382 . S
C83 H105 0.950 . S
C84 N80 1.332 . S
C84 C83 1.382 . S
C84 H86 0.952 . S
C85 N80 1.332 . S
C85 C81 1.382 . S
C85 H87 0.948 . S
H86 C84 0.952 . S
H87 C85 0.948 . S
H88 C77 0.952 . S
H89 C79 0.948 . S
C90 C56 1.395 . S
C90 C60 1.391 . S
C91 C53 1.389 . S
C91 C73 1.392 . S
C92 C63 1.392 . S
C92 C65 1.389 . S
C93 C68 1.395 . S
C93 C70 1.391 . S
H94 C54 0.951 . S
H95 C55 0.950 . S
H96 C61 0.949 . S
H97 C62 0.950 . S
H98 C66 0.951 . S
H99 C67 0.950 . S
H100 C71 0.949 1_556 S
H101 C72 0.946 1_556 S
H102 C76 0.950 . S
H103 C78 0.950 . S
H104 C81 0.950 . S
H105 C83 0.950 . S
C106 C107 1.443 . S
C106 N110 1.376 . S
C106 C144 1.389 . S
C107 C106 1.443 . S
C107 C108 1.340 . S
C107 H147 0.951 . S
C108 C107 1.340 . S
C108 C109 1.439 . S
C108 H148 0.950 . S
C109 C108 1.439 . S
C109 N110 1.374 . S
C109 C143 1.395 . S
N110 C106 1.376 . S
N110 C109 1.374 . S
N110 Co111 2.008 . S
Co111 N110 2.008 . S
Co111 N112 1.995 1_554 S
Co111 N117 2.008 1_554 S
Co111 N122 1.995 . S
Co111 N127 2.282 . S
Co111 N133 2.282 1_554 S
N112 Co111 1.995 1_556 S
N112 C113 1.376 . S
N112 C116 1.383 . S
C113 N112 1.376 . S
C113 C114 1.446 . S
C113 C143 1.391 1_556 S
C114 C113 1.446 . S
C114 C115 1.339 . S
C114 H149 0.949 . S
C115 C114 1.339 . S
C115 C116 1.439 . S
C115 H150 0.950 . S
C116 N112 1.383 . S
C116 C115 1.439 . S
C116 C145 1.392 . S
N117 Co111 2.008 1_556 S
N117 C118 1.376 . S
N117 C121 1.374 . S
C118 N117 1.376 . S
C118 C119 1.443 . S
C118 C145 1.389 . S
C119 C118 1.443 . S
C119 C120 1.340 . S
C119 H151 0.951 . S
C120 C119 1.340 . S
C120 C121 1.439 . S
C120 H152 0.950 . S
C121 N117 1.374 . S
C121 C120 1.439 . S
C121 C146 1.395 . S
N122 Co111 1.995 . S
N122 C123 1.376 . S
N122 C126 1.383 . S
C123 N122 1.376 . S
C123 C124 1.446 . S
C123 C146 1.391 1_554 S
C124 C123 1.446 . S
C124 C125 1.339 . S
C124 H153 0.949 . S
C125 C124 1.339 . S
C125 C126 1.439 . S
C125 H154 0.950 . S
C126 N122 1.383 . S
C126 C125 1.439 . S
C126 C144 1.392 . S
N127 Co111 2.282 . S
N127 C130 1.332 . S
N127 C132 1.332 . S
C128 C129 1.386 . S
C128 C131 1.388 . S
C129 C128 1.386 . S
C129 C130 1.382 . S
C129 H155 0.950 . S
C130 N127 1.332 . S
C130 C129 1.382 . S
C130 H141 0.952 . S
C131 C128 1.388 . S
C131 C132 1.382 . S
C131 H156 0.950 . S
C132 N127 1.332 . S
C132 C131 1.382 . S
C132 H142 0.948 . S
N133 Co111 2.282 1_556 S
N133 C137 1.332 . S
N133 C138 1.332 . S
C134 C135 1.388 . S
C134 C138 1.382 . S
C134 H157 0.950 . S
C135 C134 1.388 . S
C135 C136 1.386 . S
C136 C135 1.386 . S
C136 C137 1.382 . S
C136 H158 0.950 . S
C137 N133 1.332 . S
C137 C136 1.382 . S
C137 H139 0.952 . S
C138 N133 1.332 . S
C138 C134 1.382 . S
C138 H140 0.948 . S
H139 C137 0.952 . S
H140 C138 0.948 . S
H141 C130 0.952 . S
H142 C132 0.948 . S
C143 C109 1.395 . S
C143 C113 1.391 1_554 S
C144 C106 1.389 . S
C144 C126 1.392 . S
C145 C116 1.392 . S
C145 C118 1.389 . S
C146 C121 1.395 . S
C146 C123 1.391 1_556 S
H147 C107 0.951 . S
H148 C108 0.950 . S
H149 C114 0.949 . S
H150 C115 0.950 . S
H151 C119 0.951 . S
H152 C120 0.950 . S
H153 C124 0.949 . S
H154 C125 0.950 . S
H155 C129 0.950 . S
H156 C131 0.950 . S
H157 C134 0.950 . S
H158 C136 0.950 . S
C159 C160 1.443 . S
C159 N163 1.376 . S
C159 C197 1.389 . S
C160 C159 1.443 . S
C160 C161 1.340 . S
C160 H200 0.951 . S
C161 C160 1.340 . S
C161 C162 1.439 . S
C161 H201 0.950 . S
C162 C161 1.439 . S
C162 N163 1.374 . S
C162 C196 1.395 . S
N163 C159 1.376 . S
N163 C162 1.374 . S
N163 Co164 2.008 . S
Co164 N163 2.008 . S
Co164 N165 1.995 . S
Co164 N170 2.008 . S
Co164 N175 1.995 . S
Co164 N180 2.282 . S
Co164 N186 2.282 1_554 S
N165 Co164 1.995 . S
N165 C166 1.376 . S
N165 C169 1.383 1_554 S
C166 N165 1.376 . S
C166 C167 1.446 1_554 S
C166 C196 1.391 . S
C167 C166 1.446 1_556 S
C167 C168 1.339 . S
C167 H202 0.949 . S
C168 C167 1.339 . S
C168 C169 1.439 . S
C168 H203 0.950 . S
C169 N165 1.383 1_556 S
C169 C168 1.439 . S
C169 C198 1.392 . S
N170 Co164 2.008 . S
N170 C171 1.376 1_554 S
N170 C174 1.374 . S
C171 N170 1.376 1_556 S
C171 C172 1.443 . S
C171 C198 1.389 . S
C172 C171 1.443 . S
C172 C173 1.340 . S
C172 H204 0.951 . S
C173 C172 1.340 . S
C173 C174 1.439 1_556 S
C173 H205 0.950 . S
C174 N170 1.374 . S
C174 C173 1.439 1_554 S
C174 C199 1.395 . S
N175 Co164 1.995 . S
N175 C176 1.376 . S
N175 C179 1.383 . S
C176 N175 1.376 . S
C176 C177 1.446 . S
C176 C199 1.391 . S
C177 C176 1.446 . S
C177 C178 1.339 . S
C177 H206 0.949 . S
C178 C177 1.339 . S
C178 C179 1.439 . S
C178 H207 0.950 . S
C179 N175 1.383 . S
C179 C178 1.439 . S
C179 C197 1.392 . S
N180 Co164 2.282 . S
N180 C183 1.332 . S
N180 C185 1.332 . S
C181 C182 1.386 . S
C181 C184 1.388 . S
C182 C181 1.386 . S
C182 C183 1.382 . S
C182 H208 0.950 . S
C183 N180 1.332 . S
C183 C182 1.382 . S
C183 H194 0.952 . S
C184 C181 1.388 . S
C184 C185 1.382 . S
C184 H209 0.950 . S
C185 N180 1.332 . S
C185 C184 1.382 . S
C185 H195 0.948 . S
N186 Co164 2.282 1_556 S
N186 C190 1.332 . S
N186 C191 1.332 . S
C187 C188 1.388 . S
C187 C191 1.382 . S
C187 H210 0.950 . S
C188 C187 1.388 . S
C188 C189 1.386 . S
C189 C188 1.386 . S
C189 C190 1.382 . S
C189 H211 0.950 . S
C190 N186 1.332 . S
C190 C189 1.382 . S
C190 H192 0.952 . S
C191 N186 1.332 . S
C191 C187 1.382 . S
C191 H193 0.948 1_556 S
H192 C190 0.952 . S
H193 C191 0.948 1_554 S
H194 C183 0.952 . S
H195 C185 0.948 . S
C196 C162 1.395 . S
C196 C166 1.391 . S
C197 C159 1.389 . S
C197 C179 1.392 . S
C198 C169 1.392 . S
C198 C171 1.389 . S
C199 C174 1.395 . S
C199 C176 1.391 . S
H200 C160 0.951 . S
H201 C161 0.950 . S
H202 C167 0.949 . S
H203 C168 0.950 . S
H204 C172 0.951 . S
H205 C173 0.950 . S
H206 C177 0.949 . S
H207 C178 0.950 . S
H208 C182 0.950 . S
H209 C184 0.950 . S
H210 C187 0.950 . S
H211 C189 0.950 . S
C212 C213 1.443 . S
C212 N216 1.376 . S
C212 C250 1.389 . S
C213 C212 1.443 . S
C213 C214 1.340 . S
C213 H253 0.951 . S
C214 C213 1.340 . S
C214 C215 1.439 . S
C214 H254 0.950 . S
C215 C214 1.439 . S
C215 N216 1.374 . S
C215 C249 1.395 . S
N216 C212 1.376 . S
N216 C215 1.374 . S
N216 Co217 2.008 . S
Co217 N216 2.008 . S
Co217 N218 1.995 1_554 S
Co217 N223 2.008 . S
Co217 N228 1.995 . S
Co217 N233 2.282 . S
Co217 N239 2.282 1_554 S
N218 Co217 1.995 1_556 S
N218 C219 1.376 . S
N218 C222 1.383 . S
C219 N218 1.376 . S
C219 C220 1.446 . S
C219 C249 1.391 1_556 S
C220 C219 1.446 . S
C220 C221 1.339 . S
C220 H255 0.949 . S
C221 C220 1.339 . S
C221 C222 1.439 . S
C221 H256 0.950 . S
C222 N218 1.383 . S
C222 C221 1.439 . S
C222 C251 1.392 . S
N223 Co217 2.008 . S
N223 C224 1.376 1_554 S
N223 C227 1.374 . S
C224 N223 1.376 1_556 S
C224 C225 1.443 . S
C224 C251 1.389 . S
C225 C224 1.443 . S
C225 C226 1.340 1_556 S
C225 H257 0.951 . S
C226 C225 1.340 1_554 S
C226 C227 1.439 . S
C226 H258 0.950 . S
C227 N223 1.374 . S
C227 C226 1.439 . S
C227 C252 1.395 . S
N228 Co217 1.995 . S
N228 C229 1.376 . S
N228 C232 1.383 . S
C229 N228 1.376 . S
C229 C230 1.446 . S
C229 C252 1.391 . S
C230 C229 1.446 . S
C230 C231 1.339 . S
C230 H259 0.949 . S
C231 C230 1.339 . S
C231 C232 1.439 . S
C231 H260 0.950 . S
C232 N228 1.383 . S
C232 C231 1.439 . S
C232 C250 1.392 . S
N233 Co217 2.282 . S
N233 C236 1.332 . S
N233 C238 1.332 . S
C234 C235 1.386 . S
C234 C237 1.388 . S
C235 C234 1.386 . S
C235 C236 1.382 . S
C235 H261 0.950 . S
C236 N233 1.332 . S
C236 C235 1.382 . S
C236 H247 0.952 . S
C237 C234 1.388 . S
C237 C238 1.382 . S
C237 H262 0.950 . S
C238 N233 1.332 . S
C238 C237 1.382 . S
C238 H248 0.948 . S
N239 Co217 2.282 1_556 S
N239 C243 1.332 . S
N239 C244 1.332 . S
C240 C241 1.388 . S
C240 C244 1.382 . S
C240 H263 0.950 . S
C241 C240 1.388 . S
C241 C242 1.386 . S
C242 C241 1.386 . S
C242 C243 1.382 . S
C242 H264 0.950 . S
C243 N239 1.332 . S
C243 C242 1.382 . S
C243 H245 0.952 . S
C244 N239 1.332 . S
C244 C240 1.382 . S
C244 H246 0.948 1_556 S
H245 C243 0.952 . S
H246 C244 0.948 1_554 S
H247 C236 0.952 . S
H248 C238 0.948 . S
C249 C215 1.395 . S
C249 C219 1.391 1_554 S
C250 C212 1.389 . S
C250 C232 1.392 . S
C251 C222 1.392 . S
C251 C224 1.389 . S
C252 C227 1.395 . S
C252 C229 1.391 . S
H253 C213 0.951 . S
H254 C214 0.950 . S
H255 C220 0.949 . S
H256 C221 0.950 . S
H257 C225 0.951 . S
H258 C226 0.950 . S
H259 C230 0.949 . S
H260 C231 0.950 . S
H261 C235 0.950 . S
H262 C237 0.950 . S
H263 C240 0.950 . S
H264 C242 0.950 . S
C265 C266 1.443 . S
C265 N269 1.376 . S
C265 C303 1.389 . S
C266 C265 1.443 . S
C266 C267 1.340 . S
C266 H306 0.951 . S
C267 C266 1.340 . S
C267 C268 1.439 . S
C267 H307 0.950 . S
C268 C267 1.439 . S
C268 N269 1.374 . S
C268 C302 1.395 . S
N269 C265 1.376 . S
N269 C268 1.374 . S
N269 Co270 2.008 . S
Co270 N269 2.008 . S
Co270 N271 1.995 . S
Co270 N276 2.008 . S
Co270 N281 1.995 . S
Co270 N286 2.282 . S
Co270 N292 2.282 . S
N271 Co270 1.995 . S
N271 C272 1.376 . S
N271 C275 1.383 . S
C272 N271 1.376 . S
C272 C273 1.446 . S
C272 C302 1.391 . S
C273 C272 1.446 . S
C273 C274 1.339 . S
C273 H308 0.949 . S
C274 C273 1.339 . S
C274 C275 1.439 . S
C274 H309 0.950 . S
C275 N271 1.383 . S
C275 C274 1.439 . S
C275 C304 1.392 . S
N276 Co270 2.008 . S
N276 C277 1.376 . S
N276 C280 1.374 . S
C277 N276 1.376 . S
C277 C278 1.443 . S
C277 C304 1.389 . S
C278 C277 1.443 . S
C278 C279 1.340 . S
C278 H310 0.951 1_554 S
C279 C278 1.340 . S
C279 C280 1.439 . S
C279 H311 0.950 . S
C280 N276 1.374 . S
C280 C279 1.439 . S
C280 C305 1.395 . S
N281 Co270 1.995 . S
N281 C282 1.376 . S
N281 C285 1.383 . S
C282 N281 1.376 . S
C282 C283 1.446 . S
C282 C305 1.391 . S
C283 C282 1.446 . S
C283 C284 1.339 . S
C283 H312 0.949 . S
C284 C283 1.339 . S
C284 C285 1.439 . S
C284 H313 0.950 . S
C285 N281 1.383 . S
C285 C284 1.439 . S
C285 C303 1.392 . S
N286 Co270 2.282 . S
N286 C289 1.332 . S
N286 C291 1.332 . S
C287 C288 1.386 . S
C287 C290 1.388 . S
C288 C287 1.386 . S
C288 C289 1.382 . S
C288 H314 0.950 . S
C289 N286 1.332 . S
C289 C288 1.382 . S
C289 H300 0.952 . S
C290 C287 1.388 . S
C290 C291 1.382 . S
C290 H315 0.950 . S
C291 N286 1.332 . S
C291 C290 1.382 . S
C291 H301 0.948 . S
N292 Co270 2.282 . S
N292 C296 1.332 . S
N292 C297 1.332 . S
C293 C294 1.388 1_554 S
C293 C297 1.382 . S
C293 H316 0.950 1_554 S
C294 C293 1.388 1_556 S
C294 C295 1.386 1_556 S
C295 C294 1.386 1_554 S
C295 C296 1.382 . S
C295 H317 0.951 1_554 S
C296 N292 1.332 . S
C296 C295 1.382 . S
C296 H298 0.952 . S
C297 N292 1.332 . S
C297 C293 1.382 . S
C297 H299 0.948 . S
H298 C296 0.952 . S
H299 C297 0.948 . S
H300 C289 0.952 . S
H301 C291 0.948 . S
C302 C268 1.395 . S
C302 C272 1.391 . S
C303 C265 1.389 . S
C303 C285 1.392 . S
C304 C275 1.392 . S
C304 C277 1.389 . S
C305 C280 1.395 . S
C305 C282 1.391 . S
H306 C266 0.951 . S
H307 C267 0.950 . S
H308 C273 0.949 . S
H309 C274 0.950 . S
H310 C278 0.951 1_556 S
H311 C279 0.950 . S
H312 C283 0.949 . S
H313 C284 0.950 . S
H314 C288 0.950 . S
H315 C290 0.950 . S
H316 C293 0.950 1_556 S
H317 C295 0.951 1_556 S
C318 O330 1.241 . S
C318 O331 1.280 1_554 S
C319 O332 1.277 . S
C319 O333 1.245 1_554 S
C320 O344 1.247 . S
C320 O346 1.289 . S
Mg321 O322 1.926 . S
Mg321 O331 1.984 1_455 S
Mg321 O333 1.988 . S
Mg321 O334 2.061 1_455 S
O322 Mg321 1.926 . S
O322 Mg323 1.986 1_556 S
O322 Mg324 1.917 . S
Mg323 O322 1.986 1_554 S
Mg323 O330 2.042 1_455 S
Mg323 O332 2.041 . S
Mg323 O338 2.038 1_454 S
Mg323 O346 2.238 1_554 S
Mg324 O322 1.917 . S
Mg324 O325 1.917 . S
Mg324 O335 2.106 1_455 S
Mg324 O337 2.079 1_455 S
Mg324 O346 2.106 . S
Mg324 O347 2.079 . S
O325 Mg324 1.917 . S
O325 Mg326 1.926 . S
O325 Mg327 1.986 . S
Mg326 O325 1.926 . S
Mg326 O340 1.984 . S
Mg326 O343 1.988 1_455 S
Mg326 O344 2.061 . S
Mg327 O325 1.986 . S
Mg327 O335 2.238 1_455 S
Mg327 O339 2.042 . S
Mg327 O341 2.041 1_455 S
Mg327 O348 2.038 . S
C328 O334 1.247 . S
C328 O335 1.289 . S
C329 O347 1.245 . S
C329 O348 1.274 . S
O330 C318 1.241 . S
O330 Mg323 2.042 1_655 S
O331 C318 1.280 1_556 S
O331 Mg321 1.984 1_655 S
O332 C319 1.277 . S
O332 Mg323 2.041 . S
O333 C319 1.245 1_556 S
O333 Mg321 1.988 . S
O334 Mg321 2.061 1_655 S
O334 C328 1.247 . S
O335 Mg324 2.106 1_655 S
O335 Mg327 2.238 1_655 S
O335 C328 1.289 . S
C336 O337 1.245 . S
C336 O338 1.274 . S
O337 Mg324 2.079 1_655 S
O337 C336 1.245 . S
O338 Mg323 2.038 1_656 S
O338 C336 1.274 . S
O339 Mg327 2.042 . S
O339 C342 1.241 . S
O340 Mg326 1.984 . S
O340 C342 1.280 . S
O341 Mg327 2.041 1_655 S
O341 C345 1.277 . S
C342 O339 1.241 . S
C342 O340 1.280 . S
O343 Mg326 1.988 1_655 S
O343 C345 1.245 . S
O344 C320 1.247 . S
O344 Mg326 2.061 . S
C345 O341 1.277 . S
C345 O343 1.245 . S
O346 C320 1.289 . S
O346 Mg323 2.238 1_556 S
O346 Mg324 2.106 . S
O347 Mg324 2.079 . S
O347 C329 1.245 . S
O348 Mg327 2.038 . S
O348 C329 1.274 . S
C349 O361 1.241 . S
C349 O362 1.280 . S
C350 O363 1.277 . S
C350 O364 1.245 . S
C351 O375 1.247 . S
C351 O377 1.289 . S
Mg352 O353 1.926 . S
Mg352 O362 1.984 . S
Mg352 O364 1.988 1_545 S
Mg352 O365 2.061 . S
O353 Mg352 1.926 . S
O353 Mg354 1.986 1_545 S
O353 Mg355 1.917 . S
Mg354 O353 1.986 1_565 S
Mg354 O361 2.042 1_565 S
Mg354 O363 2.041 . S
Mg354 O369 2.038 1_565 S
Mg354 O377 2.238 . S
Mg355 O353 1.917 . S
Mg355 O356 1.917 1_545 S
Mg355 O366 2.106 . S
Mg355 O368 2.079 . S
Mg355 O377 2.106 1_545 S
Mg355 O378 2.079 1_545 S
O356 Mg355 1.917 1_565 S
O356 Mg357 1.926 . S
O356 Mg358 1.986 1_565 S
Mg357 O356 1.926 . S
Mg357 O371 1.984 . S
Mg357 O374 1.988 1_565 S
Mg357 O375 2.061 . S
Mg358 O356 1.986 1_545 S
Mg358 O366 2.238 . S
Mg358 O370 2.042 1_545 S
Mg358 O372 2.041 . S
Mg358 O379 2.038 1_545 S
C359 O365 1.247 . S
C359 O366 1.289 . S
C360 O378 1.245 . S
C360 O379 1.274 . S
O361 C349 1.241 . S
O361 Mg354 2.042 1_545 S
O362 C349 1.280 . S
O362 Mg352 1.984 . S
O363 C350 1.277 . S
O363 Mg354 2.041 . S
O364 C350 1.245 . S
O364 Mg352 1.988 1_565 S
O365 Mg352 2.061 . S
O365 C359 1.247 . S
O366 Mg355 2.106 . S
O366 Mg358 2.238 . S
O366 C359 1.289 . S
C367 O368 1.245 . S
C367 O369 1.274 . S
O368 Mg355 2.079 . S
O368 C367 1.245 . S
O369 Mg354 2.038 1_545 S
O369 C367 1.274 . S
O370 Mg358 2.042 1_565 S
O370 C373 1.241 . S
O371 Mg357 1.984 . S
O371 C373 1.280 . S
O372 Mg358 2.041 . S
O372 C376 1.277 . S
C373 O370 1.241 . S
C373 O371 1.280 . S
O374 Mg357 1.988 1_545 S
O374 C376 1.245 . S
O375 C351 1.247 . S
O375 Mg357 2.061 . S
C376 O372 1.277 . S
C376 O374 1.245 . S
O377 C351 1.289 . S
O377 Mg354 2.238 . S
O377 Mg355 2.106 1_565 S
O378 Mg355 2.079 1_565 S
O378 C360 1.245 . S
O379 Mg358 2.038 1_565 S
O379 C360 1.274 . S
C380 O392 1.241 . S
C380 O393 1.280 . S
C381 O394 1.277 . S
C381 O395 1.245 . S
C382 O406 1.247 . S
C382 O408 1.289 . S
Mg383 O384 1.926 . S
Mg383 O393 1.984 . S
Mg383 O395 1.988 . S
Mg383 O396 2.061 . S
O384 Mg383 1.926 . S
O384 Mg385 1.986 . S
O384 Mg386 1.917 . S
Mg385 O384 1.986 . S
Mg385 O392 2.042 . S
Mg385 O394 2.041 . S
Mg385 O400 2.038 . S
Mg385 O408 2.238 . S
Mg386 O384 1.917 . S
Mg386 O387 1.917 . S
Mg386 O397 2.106 . S
Mg386 O399 2.079 . S
Mg386 O408 2.106 . S
Mg386 O409 2.079 . S
O387 Mg386 1.917 . S
O387 Mg388 1.926 . S
O387 Mg389 1.986 . S
Mg388 O387 1.926 . S
Mg388 O402 1.984 . S
Mg388 O405 1.988 . S
Mg388 O406 2.061 . S
Mg389 O387 1.986 . S
Mg389 O397 2.238 . S
Mg389 O401 2.042 1_556 S
Mg389 O403 2.041 . S
Mg389 O410 2.038 . S
C390 O396 1.247 . S
C390 O397 1.289 . S
C391 O409 1.245 . S
C391 O410 1.274 . S
O392 C380 1.241 . S
O392 Mg385 2.042 . S
O393 C380 1.280 . S
O393 Mg383 1.984 . S
O394 C381 1.277 . S
O394 Mg385 2.041 . S
O395 C381 1.245 . S
O395 Mg383 1.988 . S
O396 Mg383 2.061 . S
O396 C390 1.247 . S
O397 Mg386 2.106 . S
O397 Mg389 2.238 . S
O397 C390 1.289 . S
C398 O399 1.245 . S
C398 O400 1.274 . S
O399 Mg386 2.079 . S
O399 C398 1.245 . S
O400 Mg385 2.038 . S
O400 C398 1.274 . S
O401 Mg389 2.042 1_554 S
O401 C404 1.241 . S
O402 Mg388 1.984 . S
O402 C404 1.280 1_556 S
O403 Mg389 2.041 . S
O403 C407 1.277 . S
C404 O401 1.241 . S
C404 O402 1.280 1_554 S
O405 Mg388 1.988 . S
O405 C407 1.245 . S
O406 C382 1.247 . S
O406 Mg388 2.061 . S
C407 O403 1.277 . S
C407 O405 1.245 . S
O408 C382 1.289 . S
O408 Mg385 2.238 . S
O408 Mg386 2.106 . S
O409 Mg386 2.079 . S
O409 C391 1.245 . S
O410 Mg389 2.038 . S
O410 C391 1.274 . S
C22 C329 2.305 . S
C92 C376 1.997 . S
C380 C144 2.096 . S
C345 C197 1.645 . S
C250 C360 2.561 . S
C382 C287 1.332 . S
C351 C145 2.125 . S
C198 C391 1.925 . S
C320 C251 2.090 . S
C294 C349 1.202 . S
C29 C407 1.980 1_554 S
C318 C91 2.106 . S
C336 C188 2.030 . S
C350 C241 1.043 . S
C404 C304 1.859 . S
C319 C39 1.298 . S
C367 C75 1.765 . S
C135 C390 1.088 . S
C359 C303 1.795 . S
C398 C38 1.696 . S
C328 C82 1.294 . S
C373 C128 0.935 . S
C181 C381 1.613 . S
C234 C342 1.030 . S
