# Generated by pormake.
# Topology gar, (4,6)-cn, num edge types: 1
# Building blocks:
#     Node 0, Type 0, BuildingBlock: NAHDIM_clean_sbu_0, # of connection points: 4
#     Node 1, Type 0, BuildingBlock: NAHDIM_clean_sbu_0, # of connection points: 4
#     Node 2, Type 0, BuildingBlock: NAHDIM_clean_sbu_0, # of connection points: 4
#     Node 3, Type 0, BuildingBlock: NAHDIM_clean_sbu_0, # of connection points: 4
#     Node 4, Type 0, BuildingBlock: NAHDIM_clean_sbu_0, # of connection points: 4
#     Node 5, Type 0, BuildingBlock: NAHDIM_clean_sbu_0, # of connection points: 4
#     Node 6, Type 0, BuildingBlock: NAHDIM_clean_sbu_0, # of connection points: 4
#     Node 7, Type 0, BuildingBlock: NAHDIM_clean_sbu_0, # of connection points: 4
#     Node 8, Type 0, BuildingBlock: NAHDIM_clean_sbu_0, # of connection points: 4
#     Node 9, Type 0, BuildingBlock: NAHDIM_clean_sbu_0, # of connection points: 4
#     Node 10, Type 0, BuildingBlock: NAHDIM_clean_sbu_0, # of connection points: 4
#     Node 11, Type 0, BuildingBlock: NAHDIM_clean_sbu_0, # of connection points: 4
#     Node 12, Type 0, BuildingBlock: NAHDIM_clean_sbu_0, # of connection points: 4
#     Node 13, Type 0, BuildingBlock: NAHDIM_clean_sbu_0, # of connection points: 4
#     Node 14, Type 0, BuildingBlock: NAHDIM_clean_sbu_0, # of connection points: 4
#     Node 15, Type 0, BuildingBlock: NAHDIM_clean_sbu_0, # of connection points: 4
#     Node 16, Type 0, BuildingBlock: NAHDIM_clean_sbu_0, # of connection points: 4
#     Node 17, Type 0, BuildingBlock: NAHDIM_clean_sbu_0, # of connection points: 4
#     Node 18, Type 0, BuildingBlock: NAHDIM_clean_sbu_0, # of connection points: 4
#     Node 19, Type 0, BuildingBlock: NAHDIM_clean_sbu_0, # of connection points: 4
#     Node 20, Type 0, BuildingBlock: NAHDIM_clean_sbu_0, # of connection points: 4
#     Node 21, Type 0, BuildingBlock: NAHDIM_clean_sbu_0, # of connection points: 4
#     Node 22, Type 0, BuildingBlock: NAHDIM_clean_sbu_0, # of connection points: 4
#     Node 23, Type 0, BuildingBlock: NAHDIM_clean_sbu_0, # of connection points: 4
#     Node 24, Type 1, BuildingBlock: CUKXOW_clean_sbu_0, # of connection points: 6
#     Node 25, Type 1, BuildingBlock: CUKXOW_clean_sbu_0, # of connection points: 6
#     Node 26, Type 1, BuildingBlock: CUKXOW_clean_sbu_0, # of connection points: 6
#     Node 27, Type 1, BuildingBlock: CUKXOW_clean_sbu_0, # of connection points: 6
#     Node 28, Type 1, BuildingBlock: CUKXOW_clean_sbu_0, # of connection points: 6
#     Node 29, Type 1, BuildingBlock: CUKXOW_clean_sbu_0, # of connection points: 6
#     Node 30, Type 1, BuildingBlock: CUKXOW_clean_sbu_0, # of connection points: 6
#     Node 31, Type 1, BuildingBlock: CUKXOW_clean_sbu_0, # of connection points: 6
#     Node 32, Type 1, BuildingBlock: CUKXOW_clean_sbu_0, # of connection points: 6
#     Node 33, Type 1, BuildingBlock: CUKXOW_clean_sbu_0, # of connection points: 6
#     Node 34, Type 1, BuildingBlock: CUKXOW_clean_sbu_0, # of connection points: 6
#     Node 35, Type 1, BuildingBlock: CUKXOW_clean_sbu_0, # of connection points: 6
#     Node 36, Type 1, BuildingBlock: CUKXOW_clean_sbu_0, # of connection points: 6
#     Node 37, Type 1, BuildingBlock: CUKXOW_clean_sbu_0, # of connection points: 6
#     Node 38, Type 1, BuildingBlock: CUKXOW_clean_sbu_0, # of connection points: 6
#     Node 39, Type 1, BuildingBlock: CUKXOW_clean_sbu_0, # of connection points: 6
#     Edge 40, Type (0, 1), BuildingBlock: UVAHIK_clean_linker_0, # of connection points: 2
#     Edge 41, Type (0, 1), BuildingBlock: UVAHIK_clean_linker_0, # of connection points: 2
#     Edge 42, Type (0, 1), BuildingBlock: UVAHIK_clean_linker_0, # of connection points: 2
#     Edge 43, Type (0, 1), BuildingBlock: UVAHIK_clean_linker_0, # of connection points: 2
#     Edge 44, Type (0, 1), BuildingBlock: UVAHIK_clean_linker_0, # of connection points: 2
#     Edge 45, Type (0, 1), BuildingBlock: UVAHIK_clean_linker_0, # of connection points: 2
#     Edge 46, Type (0, 1), BuildingBlock: UVAHIK_clean_linker_0, # of connection points: 2
#     Edge 47, Type (0, 1), BuildingBlock: UVAHIK_clean_linker_0, # of connection points: 2
#     Edge 48, Type (0, 1), BuildingBlock: UVAHIK_clean_linker_0, # of connection points: 2
#     Edge 49, Type (0, 1), BuildingBlock: UVAHIK_clean_linker_0, # of connection points: 2
#     Edge 50, Type (0, 1), BuildingBlock: UVAHIK_clean_linker_0, # of connection points: 2
#     Edge 51, Type (0, 1), BuildingBlock: UVAHIK_clean_linker_0, # of connection points: 2
#     Edge 52, Type (0, 1), BuildingBlock: UVAHIK_clean_linker_0, # of connection points: 2
#     Edge 53, Type (0, 1), BuildingBlock: UVAHIK_clean_linker_0, # of connection points: 2
#     Edge 54, Type (0, 1), BuildingBlock: UVAHIK_clean_linker_0, # of connection points: 2
#     Edge 55, Type (0, 1), BuildingBlock: UVAHIK_clean_linker_0, # of connection points: 2
#     Edge 56, Type (0, 1), BuildingBlock: UVAHIK_clean_linker_0, # of connection points: 2
#     Edge 57, Type (0, 1), BuildingBlock: UVAHIK_clean_linker_0, # of connection points: 2
#     Edge 58, Type (0, 1), BuildingBlock: UVAHIK_clean_linker_0, # of connection points: 2
#     Edge 59, Type (0, 1), BuildingBlock: UVAHIK_clean_linker_0, # of connection points: 2
#     Edge 60, Type (0, 1), BuildingBlock: UVAHIK_clean_linker_0, # of connection points: 2
#     Edge 61, Type (0, 1), BuildingBlock: UVAHIK_clean_linker_0, # of connection points: 2
#     Edge 62, Type (0, 1), BuildingBlock: UVAHIK_clean_linker_0, # of connection points: 2
#     Edge 63, Type (0, 1), BuildingBlock: UVAHIK_clean_linker_0, # of connection points: 2
#     Edge 64, Type (0, 1), BuildingBlock: UVAHIK_clean_linker_0, # of connection points: 2
#     Edge 65, Type (0, 1), BuildingBlock: UVAHIK_clean_linker_0, # of connection points: 2
#     Edge 66, Type (0, 1), BuildingBlock: UVAHIK_clean_linker_0, # of connection points: 2
#     Edge 67, Type (0, 1), BuildingBlock: UVAHIK_clean_linker_0, # of connection points: 2
#     Edge 68, Type (0, 1), BuildingBlock: UVAHIK_clean_linker_0, # of connection points: 2
#     Edge 69, Type (0, 1), BuildingBlock: UVAHIK_clean_linker_0, # of connection points: 2
#     Edge 70, Type (0, 1), BuildingBlock: UVAHIK_clean_linker_0, # of connection points: 2
#     Edge 71, Type (0, 1), BuildingBlock: UVAHIK_clean_linker_0, # of connection points: 2
#     Edge 72, Type (0, 1), BuildingBlock: UVAHIK_clean_linker_0, # of connection points: 2
#     Edge 73, Type (0, 1), BuildingBlock: UVAHIK_clean_linker_0, # of connection points: 2
#     Edge 74, Type (0, 1), BuildingBlock: UVAHIK_clean_linker_0, # of connection points: 2
#     Edge 75, Type (0, 1), BuildingBlock: UVAHIK_clean_linker_0, # of connection points: 2
#     Edge 76, Type (0, 1), BuildingBlock: UVAHIK_clean_linker_0, # of connection points: 2
#     Edge 77, Type (0, 1), BuildingBlock: UVAHIK_clean_linker_0, # of connection points: 2
#     Edge 78, Type (0, 1), BuildingBlock: UVAHIK_clean_linker_0, # of connection points: 2
#     Edge 79, Type (0, 1), BuildingBlock: UVAHIK_clean_linker_0, # of connection points: 2
#     Edge 80, Type (0, 1), BuildingBlock: UVAHIK_clean_linker_0, # of connection points: 2
#     Edge 81, Type (0, 1), BuildingBlock: UVAHIK_clean_linker_0, # of connection points: 2
#     Edge 82, Type (0, 1), BuildingBlock: UVAHIK_clean_linker_0, # of connection points: 2
#     Edge 83, Type (0, 1), BuildingBlock: UVAHIK_clean_linker_0, # of connection points: 2
#     Edge 84, Type (0, 1), BuildingBlock: UVAHIK_clean_linker_0, # of connection points: 2
#     Edge 85, Type (0, 1), BuildingBlock: UVAHIK_clean_linker_0, # of connection points: 2
#     Edge 86, Type (0, 1), BuildingBlock: UVAHIK_clean_linker_0, # of connection points: 2
#     Edge 87, Type (0, 1), BuildingBlock: UVAHIK_clean_linker_0, # of connection points: 2
#     Edge 88, Type (0, 1), BuildingBlock: UVAHIK_clean_linker_0, # of connection points: 2
#     Edge 89, Type (0, 1), BuildingBlock: UVAHIK_clean_linker_0, # of connection points: 2
#     Edge 90, Type (0, 1), BuildingBlock: UVAHIK_clean_linker_0, # of connection points: 2
#     Edge 91, Type (0, 1), BuildingBlock: UVAHIK_clean_linker_0, # of connection points: 2
#     Edge 92, Type (0, 1), BuildingBlock: UVAHIK_clean_linker_0, # of connection points: 2
#     Edge 93, Type (0, 1), BuildingBlock: UVAHIK_clean_linker_0, # of connection points: 2
#     Edge 94, Type (0, 1), BuildingBlock: UVAHIK_clean_linker_0, # of connection points: 2
#     Edge 95, Type (0, 1), BuildingBlock: UVAHIK_clean_linker_0, # of connection points: 2
#     Edge 96, Type (0, 1), BuildingBlock: UVAHIK_clean_linker_0, # of connection points: 2
#     Edge 97, Type (0, 1), BuildingBlock: UVAHIK_clean_linker_0, # of connection points: 2
#     Edge 98, Type (0, 1), BuildingBlock: UVAHIK_clean_linker_0, # of connection points: 2
#     Edge 99, Type (0, 1), BuildingBlock: UVAHIK_clean_linker_0, # of connection points: 2
#     Edge 100, Type (0, 1), BuildingBlock: UVAHIK_clean_linker_0, # of connection points: 2
#     Edge 101, Type (0, 1), BuildingBlock: UVAHIK_clean_linker_0, # of connection points: 2
#     Edge 102, Type (0, 1), BuildingBlock: UVAHIK_clean_linker_0, # of connection points: 2
#     Edge 103, Type (0, 1), BuildingBlock: UVAHIK_clean_linker_0, # of connection points: 2
#     Edge 104, Type (0, 1), BuildingBlock: UVAHIK_clean_linker_0, # of connection points: 2
#     Edge 105, Type (0, 1), BuildingBlock: UVAHIK_clean_linker_0, # of connection points: 2
#     Edge 106, Type (0, 1), BuildingBlock: UVAHIK_clean_linker_0, # of connection points: 2
#     Edge 107, Type (0, 1), BuildingBlock: UVAHIK_clean_linker_0, # of connection points: 2
#     Edge 108, Type (0, 1), BuildingBlock: UVAHIK_clean_linker_0, # of connection points: 2
#     Edge 109, Type (0, 1), BuildingBlock: UVAHIK_clean_linker_0, # of connection points: 2
#     Edge 110, Type (0, 1), BuildingBlock: UVAHIK_clean_linker_0, # of connection points: 2
#     Edge 111, Type (0, 1), BuildingBlock: UVAHIK_clean_linker_0, # of connection points: 2
#     Edge 112, Type (0, 1), BuildingBlock: UVAHIK_clean_linker_0, # of connection points: 2
#     Edge 113, Type (0, 1), BuildingBlock: UVAHIK_clean_linker_0, # of connection points: 2
#     Edge 114, Type (0, 1), BuildingBlock: UVAHIK_clean_linker_0, # of connection points: 2
#     Edge 115, Type (0, 1), BuildingBlock: UVAHIK_clean_linker_0, # of connection points: 2
#     Edge 116, Type (0, 1), BuildingBlock: UVAHIK_clean_linker_0, # of connection points: 2
#     Edge 117, Type (0, 1), BuildingBlock: UVAHIK_clean_linker_0, # of connection points: 2
#     Edge 118, Type (0, 1), BuildingBlock: UVAHIK_clean_linker_0, # of connection points: 2
#     Edge 119, Type (0, 1), BuildingBlock: UVAHIK_clean_linker_0, # of connection points: 2
#     Edge 120, Type (0, 1), BuildingBlock: UVAHIK_clean_linker_0, # of connection points: 2
#     Edge 121, Type (0, 1), BuildingBlock: UVAHIK_clean_linker_0, # of connection points: 2
#     Edge 122, Type (0, 1), BuildingBlock: UVAHIK_clean_linker_0, # of connection points: 2
#     Edge 123, Type (0, 1), BuildingBlock: UVAHIK_clean_linker_0, # of connection points: 2
#     Edge 124, Type (0, 1), BuildingBlock: UVAHIK_clean_linker_0, # of connection points: 2
#     Edge 125, Type (0, 1), BuildingBlock: UVAHIK_clean_linker_0, # of connection points: 2
#     Edge 126, Type (0, 1), BuildingBlock: UVAHIK_clean_linker_0, # of connection points: 2
#     Edge 127, Type (0, 1), BuildingBlock: UVAHIK_clean_linker_0, # of connection points: 2
#     Edge 128, Type (0, 1), BuildingBlock: UVAHIK_clean_linker_0, # of connection points: 2
#     Edge 129, Type (0, 1), BuildingBlock: UVAHIK_clean_linker_0, # of connection points: 2
#     Edge 130, Type (0, 1), BuildingBlock: UVAHIK_clean_linker_0, # of connection points: 2
#     Edge 131, Type (0, 1), BuildingBlock: UVAHIK_clean_linker_0, # of connection points: 2
#     Edge 132, Type (0, 1), BuildingBlock: UVAHIK_clean_linker_0, # of connection points: 2
#     Edge 133, Type (0, 1), BuildingBlock: UVAHIK_clean_linker_0, # of connection points: 2
#     Edge 134, Type (0, 1), BuildingBlock: UVAHIK_clean_linker_0, # of connection points: 2
#     Edge 135, Type (0, 1), BuildingBlock: UVAHIK_clean_linker_0, # of connection points: 2
# Relax obj value: 0.115
# Max RMSD: 0.220
# Mean RMSD: 0.151
data_MOF--net-gar--node1-NAHDIM_clean_sbu_0--node2-CUKXOW_clean_sbu_0--edge1-UVAHIK_clean_linker_0
_symmetry_space_group_name_H-M    P1
_symmetry_Int_Tables_number       1
_symmetry_cell_setting            triclinic
loop_
_symmetry_equiv_pos_as_xyz
'x, y, z'
_cell_length_a     72.009097
_cell_length_b     69.069642
_cell_length_c     68.194357
_cell_angle_alpha  93.623193
_cell_angle_beta   95.924416
_cell_angle_gamma 99.972155
loop_
_atom_site_label
_atom_site_type_symbol
_atom_site_fract_x
_atom_site_fract_y
_atom_site_fract_z
_atom_type_partial_charge
C0 C 0.04644 0.28227 0.37456 0.0
O1 O 0.03908 0.29817 0.37762 0.0
O2 O 0.02087 0.2458 0.41971 0.0
Zn3 Zn 0.02251 0.26873 0.40317 0.0
O4 O 0.02832 0.29412 0.42032 0.0
C5 C 0.98452 0.25223 0.38508 0.0
O6 O 0.98712 0.23687 0.39472 0.0
O7 O 0.04187 0.2676 0.38449 0.0
C8 C 0.018 0.29633 0.43401 0.0
O9 O 0.00443 0.28173 0.43675 0.0
C10 C 0.03194 0.24486 0.43521 0.0
O11 O 0.04596 0.25962 0.44107 0.0
O12 O 0.99757 0.26739 0.38674 0.0
C13 C 0.96379 0.78037 0.64879 0.0
O14 O 0.96408 0.76254 0.64103 0.0
O15 O 0.98453 0.76684 0.60555 0.0
Zn16 Zn 0.99215 0.7921 0.62279 0.0
O17 O 0.99392 0.8149 0.6059 0.0
C18 C 0.0194 0.7782 0.64915 0.0
O19 O 0.005 0.76384 0.64991 0.0
O20 O 0.97402 0.79508 0.64262 0.0
C21 C 0.00812 0.82892 0.60867 0.0
O22 O 0.02177 0.82846 0.62289 0.0
C23 C 0.9957 0.76356 0.59298 0.0
O24 O 0.01086 0.7769 0.59177 0.0
O25 O 0.01737 0.79195 0.63806 0.0
C26 C 0.54516 0.77599 0.8861 0.0
O27 O 0.53511 0.78998 0.88355 0.0
O28 O 0.51364 0.74474 0.93071 0.0
Zn29 Zn 0.5196 0.76741 0.91406 0.0
O30 O 0.52532 0.79321 0.93053 0.0
C31 C 0.49048 0.75096 0.88341 0.0
O32 O 0.49781 0.73512 0.88652 0.0
O33 O 0.54147 0.76418 0.89929 0.0
C34 C 0.51169 0.80065 0.93632 0.0
O35 O 0.49419 0.79126 0.93127 0.0
C36 C 0.51089 0.74644 0.9488 0.0
O37 O 0.51251 0.76406 0.95793 0.0
O38 O 0.49739 0.76695 0.89386 0.0
C39 C 0.45822 0.27244 0.14047 0.0
O40 O 0.46653 0.25695 0.13996 0.0
O41 O 0.47372 0.2601 0.08986 0.0
Zn42 Zn 0.48118 0.28333 0.10988 0.0
O43 O 0.48578 0.30826 0.09647 0.0
C44 C 0.52141 0.28737 0.12264 0.0
O45 O 0.52339 0.29635 0.10637 0.0
O46 O 0.46161 0.28525 0.12813 0.0
C47 C 0.49356 0.32418 0.1066 0.0
O48 O 0.49807 0.32394 0.12574 0.0
C49 C 0.48354 0.25937 0.07548 0.0
O50 O 0.49736 0.27413 0.07392 0.0
O51 O 0.50488 0.28046 0.12673 0.0
C52 C 0.95234 0.75626 0.16777 0.0
O53 O 0.95036 0.74418 0.15173 0.0
O54 O 0.99076 0.74191 0.14284 0.0
Zn55 Zn 0.99048 0.76837 0.15702 0.0
O56 O 0.9892 0.78856 0.13703 0.0
C57 C 0.02126 0.76365 0.18571 0.0
O58 O 0.0108 0.74608 0.18586 0.0
O59 O 0.96822 0.76759 0.17298 0.0
C60 C 0.00438 0.79769 0.13143 0.0
O61 O 0.02077 0.79365 0.13868 0.0
C62 C 0.98239 0.73655 0.12552 0.0
O63 O 0.97243 0.74831 0.1165 0.0
O64 O 0.01511 0.77607 0.17494 0.0
C65 C 0.56075 0.79834 0.35586 0.0
O66 O 0.56279 0.80841 0.37318 0.0
O67 O 0.52064 0.76649 0.3823 0.0
Zn68 Zn 0.52183 0.78861 0.36423 0.0
O69 O 0.52388 0.81435 0.38078 0.0
C70 C 0.487 0.76883 0.33898 0.0
O71 O 0.49214 0.75221 0.34367 0.0
O72 O 0.54441 0.78887 0.34888 0.0
C73 C 0.51749 0.82852 0.37305 0.0
O74 O 0.5107 0.82632 0.35425 0.0
C75 C 0.50578 0.76062 0.39043 0.0
O76 O 0.49097 0.76919 0.38703 0.0
O77 O 0.49755 0.78512 0.34557 0.0
C78 C 0.45482 0.25504 0.66699 0.0
O79 O 0.45291 0.24578 0.64926 0.0
O80 O 0.49211 0.23941 0.64293 0.0
Zn81 Zn 0.49356 0.26538 0.65882 0.0
O82 O 0.4932 0.28726 0.64043 0.0
C83 C 0.52439 0.25692 0.68574 0.0
O84 O 0.51452 0.2389 0.68288 0.0
O85 O 0.47111 0.26432 0.67437 0.0
C86 C 0.50788 0.30028 0.63962 0.0
O87 O 0.52365 0.29932 0.65075 0.0
C88 C 0.50127 0.23854 0.62803 0.0
O89 O 0.51132 0.25481 0.62295 0.0
O90 O 0.51795 0.27071 0.67737 0.0
C91 C 0.06214 0.29604 0.85539 0.0
O92 O 0.06421 0.30418 0.87361 0.0
O93 O 0.02119 0.26502 0.87948 0.0
Zn94 Zn 0.02269 0.28784 0.86217 0.0
O95 O 0.02491 0.31315 0.87965 0.0
C96 C 0.98959 0.26938 0.83374 0.0
O97 O 0.99593 0.25282 0.83591 0.0
O98 O 0.04558 0.28837 0.84727 0.0
C99 C 0.00956 0.31821 0.88394 0.0
O100 O 0.99333 0.30688 0.877 0.0
C101 C 0.00595 0.25709 0.88588 0.0
O102 O 0.9902 0.26368 0.88096 0.0
O103 O -0.00114 0.28527 0.84291 0.0
C104 C 0.37689 0.11038 0.23707 0.0
O105 O 0.39195 0.11217 0.22751 0.0
O106 O 0.40081 0.07105 0.22186 0.0
Zn107 Zn 0.38556 0.07154 0.24515 0.0
O108 O 0.4019 0.07273 0.27122 0.0
C109 C 0.36415 0.03288 0.22954 0.0
O110 O 0.37503 0.03506 0.21523 0.0
O111 O 0.37187 0.09462 0.24534 0.0
C112 C 0.41018 0.05846 0.27551 0.0
O113 O 0.40873 0.04338 0.26234 0.0
C114 C 0.41884 0.07407 0.22332 0.0
O115 O 0.42864 0.07861 0.24083 0.0
O116 O 0.36604 0.04654 0.24339 0.0
C117 C 0.29902 0.1329 0.5319 0.0
O118 O 0.29476 0.14666 0.54392 0.0
O119 O 0.27116 0.16839 0.52432 0.0
Zn120 Zn 0.27149 0.14578 0.50455 0.0
O121 O 0.27647 0.15745 0.47906 0.0
C122 C 0.23959 0.12071 0.51592 0.0
O123 O 0.25087 0.12237 0.53259 0.0
O124 O 0.291 0.13 0.51419 0.0
C125 C 0.26622 0.17027 0.47517 0.0
O126 O 0.25329 0.17311 0.48677 0.0
C127 C 0.28265 0.18467 0.52495 0.0
O128 O 0.29593 0.18659 0.513 0.0
O129 O 0.24566 0.12913 0.50121 0.0
C130 C 0.16992 0.97324 0.79149 0.0
O131 O 0.17421 0.9857 0.80735 0.0
O132 O 0.12073 0.99339 0.75898 0.0
Zn133 Zn 0.14088 0.99632 0.78198 0.0
O134 O 0.1275 0.99426 0.80634 0.0
C135 C 0.16291 0.02925 0.7667 0.0
O136 O 0.15881 0.01741 0.75039 0.0
O137 O 0.15625 0.97505 0.77882 0.0
C138 C 0.1149 0.00499 0.80727 0.0
O139 O 0.11236 0.01664 0.79309 0.0
C140 C 0.11173 0.97678 0.75121 0.0
O141 O 0.11612 0.96051 0.75786 0.0
O142 O 0.15712 0.0232 0.78261 0.0
C143 C 0.18465 0.91102 0.01838 0.0
O144 O 0.17973 0.89245 0.01144 0.0
O145 O 0.22472 0.88544 0.04706 0.0
Zn146 Zn 0.22286 0.90163 0.02339 0.0
O147 O 0.21984 0.88489 0.99734 0.0
C148 C 0.25906 0.92564 0.03993 0.0
O149 O 0.25409 0.91949 0.0568 0.0
O150 O 0.20201 0.91787 0.02435 0.0
C151 C 0.223 0.86732 0.99571 0.0
O152 O 0.22719 0.85866 0.01176 0.0
C153 C 0.21182 0.87233 0.05212 0.0
O154 O 0.19524 0.86814 0.0413 0.0
O155 O 0.24781 0.92026 0.02416 0.0
C156 C 0.20195 0.41674 0.99658 0.0
O157 O 0.19639 0.39788 0.99846 0.0
O158 O 0.23301 0.40036 0.03953 0.0
Zn159 Zn 0.23719 0.40754 0.01206 0.0
O160 O 0.23325 0.38298 0.99387 0.0
C161 C 0.27704 0.41826 0.02464 0.0
O162 O 0.2728 0.40558 0.03778 0.0
O163 O 0.21917 0.42459 0.00184 0.0
C164 C 0.2395 0.36752 0.99834 0.0
O165 O 0.24932 0.36737 0.01565 0.0
C166 C 0.22138 0.38513 0.04268 0.0
O167 O 0.2106 0.37461 0.02767 0.0
O168 O 0.26395 0.42165 0.01206 0.0
C169 C 0.83286 0.1502 0.003 0.0
O170 O 0.83784 0.16924 0.00792 0.0
O171 O 0.79777 0.17513 0.02693 0.0
Zn172 Zn 0.79472 0.15903 0.00065 0.0
O173 O 0.79424 0.17656 0.97808 0.0
C174 C 0.76483 0.13039 0.01236 0.0
O175 O 0.77723 0.13088 0.02801 0.0
O176 O 0.81533 0.14272 -0.00074 0.0
C177 C 0.78718 0.16845 0.96106 0.0
O178 O 0.78134 0.14924 0.95896 0.0
C179 C 0.7845 0.18441 0.03032 0.0
O180 O 0.77038 0.18387 0.01634 0.0
O181 O 0.76935 0.14094 0.99839 0.0
C182 C 0.12895 0.45376 0.2869 0.0
O183 O 0.11468 0.45171 0.2976 0.0
O184 O 0.1015 0.48731 0.24735 0.0
Zn185 Zn 0.11623 0.4899 0.2745 0.0
O186 O 0.10007 0.49056 0.29695 0.0
C187 C 0.14038 0.5269 0.29167 0.0
O188 O 0.1334 0.5226 0.30825 0.0
O189 O 0.13161 0.4683 0.27637 0.0
C190 C 0.08692 0.50068 0.29722 0.0
O191 O 0.08295 0.51059 0.28199 0.0
C192 C 0.08398 0.48084 0.24187 0.0
O193 O 0.07273 0.47429 0.25492 0.0
O194 O 0.13494 0.51529 0.27616 0.0
C195 C 0.70051 0.91512 0.50032 0.0
O196 O 0.69664 0.89587 0.49651 0.0
O197 O 0.73076 0.89804 0.54743 0.0
Zn198 Zn 0.73466 0.9066 0.52044 0.0
O199 O 0.73155 0.88227 0.50216 0.0
C200 C 0.77422 0.92141 0.53373 0.0
O201 O 0.77079 0.91067 0.54861 0.0
O202 O 0.71586 0.92302 0.51084 0.0
C203 C 0.74268 0.86996 0.50408 0.0
O204 O 0.75722 0.87358 0.51793 0.0
C205 C 0.71898 0.88239 0.54894 0.0
O206 O 0.70843 0.87339 0.53299 0.0
O207 O 0.76087 0.92197 0.52019 0.0
C208 C 0.85603 0.08548 0.25881 0.0
O209 O 0.86313 0.0799 0.27561 0.0
O210 O 0.89131 0.05738 0.22004 0.0
Zn211 Zn 0.87729 0.05786 0.24398 0.0
O212 O 0.89633 0.06498 0.26825 0.0
C213 C 0.87003 0.01696 0.25136 0.0
O214 O 0.88862 0.02026 0.25509 0.0
O215 O 0.86006 0.07789 0.24266 0.0
C216 C 0.91362 0.06316 0.26862 0.0
O217 O 0.91973 0.05643 0.25248 0.0
C218 C 0.89909 0.07318 0.21337 0.0
O219 O 0.89707 0.09026 0.22169 0.0
O220 O 0.8618 0.03096 0.24606 0.0
C221 C 0.33103 0.65261 0.50483 0.0
O222 O 0.33663 0.67176 0.50847 0.0
O223 O 0.29737 0.67914 0.52966 0.0
Zn224 Zn 0.29367 0.66313 0.50322 0.0
O225 O 0.29467 0.68046 0.48029 0.0
C226 C 0.25303 0.65368 0.49687 0.0
O227 O 0.25526 0.67241 0.49345 0.0
O228 O 0.31335 0.6456 0.50214 0.0
C229 C 0.28667 0.67284 0.46339 0.0
O230 O 0.27878 0.65408 0.46141 0.0
C231 C 0.29352 0.69639 0.53179 0.0
O232 O 0.28809 0.70493 0.51605 0.0
O233 O 0.26763 0.64608 0.50125 0.0
C234 C 0.35662 0.58359 0.76328 0.0
O235 O 0.36509 0.5788 0.7798 0.0
O236 O 0.38915 0.55525 0.72215 0.0
Zn237 Zn 0.37589 0.55464 0.74669 0.0
O238 O 0.39581 0.56072 0.77012 0.0
C239 C 0.36509 0.51234 0.74047 0.0
O240 O 0.37932 0.51443 0.72972 0.0
O241 O 0.35895 0.57494 0.74694 0.0
C242 C 0.41168 0.55504 0.77014 0.0
O243 O 0.41529 0.54514 0.75432 0.0
C244 C 0.39496 0.57122 0.7146 0.0
O245 O 0.39135 0.58788 0.72235 0.0
O246 O 0.36069 0.5276 0.74887 0.0
C247 C 0.62809 0.9523 0.78436 0.0
O248 O 0.61316 0.94855 0.79401 0.0
O249 O 0.59691 0.98381 0.74952 0.0
Zn250 Zn 0.61416 0.98847 0.77532 0.0
O251 O 0.59999 0.98823 0.79938 0.0
C252 C 0.6368 0.02013 0.75913 0.0
O253 O 0.6317 0.00801 0.7431 0.0
O254 O 0.63102 0.96813 0.77573 0.0
C255 C 0.59139 0.00229 0.80354 0.0
O256 O 0.59137 0.01654 0.79165 0.0
C257 C 0.57911 0.98329 0.74655 0.0
O258 O 0.56947 0.9851 0.7617 0.0
O259 O 0.63099 0.01498 0.77534 0.0
C260 C 0.80181 0.63254 0.03066 0.0
O261 O 0.79741 0.64514 0.04386 0.0
O262 O 0.77584 0.66987 0.02643 0.0
Zn263 Zn 0.7749 0.64826 0.00517 0.0
O264 O 0.77969 0.66159 0.98045 0.0
C265 C 0.74257 0.62487 0.01717 0.0
O266 O 0.75412 0.62668 0.03368 0.0
O267 O 0.79403 0.63131 0.0129 0.0
C268 C 0.77041 0.67549 0.97808 0.0
O269 O 0.75807 0.67838 0.99037 0.0
C270 C 0.7879 0.68583 0.02795 0.0
O271 O 0.8011 0.68803 0.01591 0.0
O272 O 0.74862 0.63249 0.00205 0.0
C273 C 0.86333 0.59415 0.72558 0.0
O274 O 0.85842 0.57971 0.71153 0.0
O275 O 0.90539 0.56751 0.71907 0.0
Zn276 Zn 0.88939 0.5696 0.74155 0.0
O277 O 0.90522 0.57276 0.76819 0.0
C278 C 0.86132 0.53398 0.72645 0.0
O279 O 0.86486 0.53884 0.70871 0.0
O280 O 0.87624 0.593 0.73943 0.0
C281 C 0.92193 0.56913 0.77152 0.0
O282 O 0.93056 0.5636 0.75665 0.0
C283 C 0.9101 0.55128 0.71355 0.0
O284 O 0.90483 0.53559 0.72297 0.0
O285 O 0.86981 0.54487 0.74158 0.0
C286 C 0.6806 0.41278 0.52035 0.0
O287 O 0.67565 0.39367 0.52126 0.0
O288 O 0.71864 0.38691 0.54299 0.0
Zn289 Zn 0.71824 0.40316 0.51937 0.0
O290 O 0.71451 0.38531 0.49403 0.0
C291 C 0.75524 0.42565 0.53614 0.0
O292 O 0.75026 0.41933 0.55294 0.0
O293 O 0.69794 0.42004 0.51951 0.0
C294 C 0.71974 0.3928 0.47849 0.0
O295 O 0.72633 0.41184 0.47934 0.0
C296 C 0.72919 0.37392 0.54359 0.0
O297 O 0.73862 0.37099 0.5285 0.0
O298 O 0.74379 0.4209 0.52042 0.0
C299 C 0.65805 0.4635 0.29409 0.0
O300 O 0.64169 0.459 0.30116 0.0
O301 O 0.62693 0.49757 0.26653 0.0
Zn302 Zn 0.64607 0.50082 0.29069 0.0
O303 O 0.63155 0.49773 0.31428 0.0
C304 C 0.66806 0.53366 0.27602 0.0
O305 O 0.66566 0.52087 0.26045 0.0
O306 O 0.66315 0.48078 0.2889 0.0
C307 C 0.61787 0.50709 0.31494 0.0
O308 O 0.61463 0.51866 0.30089 0.0
C309 C 0.61817 0.48139 0.25751 0.0
O310 O 0.62178 0.46462 0.26358 0.0
O311 O 0.66126 0.52827 0.29169 0.0
Tb312 Tb 0.0121 0.05096 0.00684 0.0
C313 C 0.01278 0.01672 0.97491 0.0
Tb314 Tb 0.00271 0.0077 0.01814 0.0
O315 O 0.04177 0.04872 0.0041 0.0
O316 O 0.02615 0.03113 0.02262 0.0
O317 O 0.00973 0.03502 0.978 0.0
C318 C 0.00315 0.97117 0.02849 0.0
O319 O 0.01258 0.00419 0.98896 0.0
C320 C 0.97357 0.0249 0.00951 0.0
C321 C 0.00226 0.0424 0.05026 0.0
O322 O 0.99144 0.9759 0.01457 0.0
O323 O 0.01454 0.98695 0.03651 0.0
O324 O 0.97342 0.01086 0.02132 0.0
O325 O 0.98888 0.02718 0.00182 0.0
O326 O 0.00377 0.02361 0.04689 0.0
O327 O 0.00395 0.05527 0.03657 0.0
C328 C 0.01003 0.08726 0.99638 0.0
O329 O 0.99606 0.07244 0.99459 0.0
O330 O 0.02524 0.08173 0.0043 0.0
C331 C 0.04154 0.03395 0.01499 0.0
Tb332 Tb 0.26189 0.80084 0.26094 0.0
C333 C 0.29416 0.7758 0.26601 0.0
Tb334 Tb 0.25037 0.75574 0.26065 0.0
O335 O 0.27403 0.80282 0.29199 0.0
O336 O 0.25132 0.78049 0.2808 0.0
O337 O 0.28968 0.79268 0.2605 0.0
C338 C 0.2437 0.71821 0.26932 0.0
O339 O 0.28116 0.76027 0.26863 0.0
C340 C 0.24859 0.76992 0.22593 0.0
C341 C 0.21812 0.78065 0.25588 0.0
O342 O 0.2415 0.73325 0.2806 0.0
O343 O 0.24973 0.72427 0.25308 0.0
O344 O 0.23782 0.75385 0.22983 0.0
O345 O 0.26069 0.77611 0.24067 0.0
O346 O 0.22275 0.76399 0.26181 0.0
O347 O 0.23103 0.79608 0.25273 0.0
C348 C 0.26846 0.83833 0.25214 0.0
O349 O 0.26141 0.83216 0.26787 0.0
O350 O 0.27173 0.82339 0.2414 0.0
C351 C 0.26316 0.78674 0.29571 0.0
Tb352 Tb 0.5192 0.02224 0.50476 0.0
C353 C 0.51041 0.01233 0.54746 0.0
Tb354 Tb 0.4797 0.02502 0.51564 0.0
O355 O 0.53151 0.04823 0.52491 0.0
O356 O 0.50391 0.04513 0.51053 0.0
O357 O 0.5219 0.01061 0.53365 0.0
C358 C 0.45099 0.03564 0.53269 0.0
O359 O 0.49395 0.01847 0.54382 0.0
C360 C 0.48299 0.9916 0.49731 0.0
C361 C 0.48839 0.03452 0.47322 0.0
O362 O 0.4686 0.04422 0.53647 0.0
O363 O 0.44951 0.02114 0.51924 0.0
O364 O 0.46738 0.99866 0.49581 0.0
O365 O 0.49497 0.00228 0.50996 0.0
O366 O 0.47843 0.03865 0.48778 0.0
O367 O 0.50369 0.02626 0.47625 0.0
C368 C 0.54813 0.01174 0.48799 0.0
O369 O 0.54743 0.02948 0.49499 0.0
O370 O 0.53267 -1e-05 0.49061 0.0
C371 C 0.51599 0.0555 0.52337 0.0
Tb372 Tb 0.26115 0.27647 0.78407 0.0
C373 C 0.27432 0.31373 0.76268 0.0
Tb374 Tb 0.25631 0.2725 0.73916 0.0
O375 O 0.29206 0.2797 0.78534 0.0
O376 O 0.27433 0.26333 0.76176 0.0
O377 O 0.2666 0.30756 0.77855 0.0
C378 C 0.26298 0.27313 0.70154 0.0
O379 O 0.274 0.30164 0.74668 0.0
C380 C 0.22614 0.27778 0.7556 0.0
C381 C 0.24382 0.23439 0.76038 0.0
O382 O 0.24992 0.28095 0.70909 0.0
O383 O 0.27191 0.26466 0.71501 0.0
O384 O 0.22543 0.26793 0.73857 0.0
O385 O 0.24308 0.28559 0.76158 0.0
O386 O 0.24798 0.24141 0.74335 0.0
O387 O 0.24702 0.24559 0.77743 0.0
C388 C 0.25443 0.27588 0.82169 0.0
O389 O 0.24174 0.27065 0.80653 0.0
O390 O 0.27083 0.28172 0.8157 0.0
C391 C 0.29133 0.27045 0.76805 0.0
Tb392 Tb -0.00122 0.03851 0.49923 0.0
C393 C 0.96504 0.02002 0.52163 0.0
Tb394 Tb 0.00741 0.03258 0.54343 0.0
O395 O 0.99302 0.00638 0.49237 0.0
O396 O 0.0126 0.01967 0.5162 0.0
O397 O 0.96984 0.02875 0.50561 0.0
C398 C 0.01182 0.01632 0.57759 0.0
O399 O 0.97745 0.01907 0.53724 0.0
C400 C 0.00263 0.06799 0.53557 0.0
C401 C 0.04077 0.05119 0.52123 0.0
O402 O 0.01145 0.03485 0.57579 0.0
O403 O 0.00981 0.00702 0.56019 0.0
O404 O 0.01316 0.06442 0.55109 0.0
O405 O 0.99412 0.05194 0.52654 0.0
O406 O 0.03606 0.04006 0.53576 0.0
O407 O 0.02799 0.05467 0.50695 0.0
C408 C 0.99486 0.05207 0.46358 0.0
O409 O 0.00494 0.03892 0.46851 0.0
O410 O 0.98691 0.05754 0.4787 0.0
C411 C 0.0043 0.00343 0.50758 0.0
Tb412 Tb 0.28117 0.77836 0.77367 0.0
C413 C 0.25391 0.78555 0.805 0.0
Tb414 Tb 0.23894 0.77512 0.75912 0.0
O415 O 0.28415 0.80977 0.78218 0.0
O416 O 0.26402 0.79607 0.7588 0.0
O417 O 0.27031 0.78003 0.80223 0.0
C418 C 0.20326 0.78004 0.75042 0.0
O419 O 0.24067 0.78651 0.79014 0.0
C420 C 0.25075 0.74184 0.76366 0.0
C421 C 0.26644 0.76973 0.72736 0.0
O422 O 0.20845 0.76572 0.75975 0.0
O423 O 0.21816 0.79161 0.74596 0.0
O424 O 0.23706 0.74374 0.75039 0.0
O425 O 0.25605 0.75774 0.77437 0.0
O426 O 0.24947 0.77357 0.73042 0.0
O427 O 0.28015 0.76969 0.74201 0.0
C428 C 0.31565 0.7699 0.78197 0.0
O429 O 0.31208 0.78721 0.77844 0.0
O430 O 0.29985 0.75747 0.78105 0.0
C431 C 0.26994 0.81189 0.76962 0.0
Tb432 Tb 0.48898 0.02055 0.0169 0.0
C433 C 0.51783 0.99214 0.021 0.0
Tb434 Tb 0.5313 0.03851 0.01991 0.0
O435 O 0.49023 0.00451 0.98851 0.0
O436 O 0.50843 0.03139 0.99708 0.0
O437 O 0.50067 0.99487 0.02454 0.0
C438 C 0.56832 0.04813 0.01656 0.0
O439 O 0.53109 0.00669 0.01672 0.0
C440 C 0.5153 0.04246 0.05229 0.0
C441 C 0.50209 0.06674 0.01459 0.0
O442 O 0.5611 0.04123 0.0319 0.0
O443 O 0.55469 0.04966 0.00306 0.0
O444 O 0.52958 0.05498 0.0479 0.0
O445 O 0.51185 0.02781 0.03967 0.0
O446 O 0.51957 0.06426 0.01188 0.0
O447 O 0.48883 0.05218 0.01877 0.0
C448 C 0.45244 0.01068 0.02222 0.0
O449 O 0.45879 0.0156 0.00577 0.0
O450 O 0.46667 0.01129 0.0357 0.0
C451 C 0.50466 0.01693 0.98421 0.0
Tb452 Tb 0.23889 0.28282 0.26542 0.0
C453 C 0.26548 0.27625 0.30273 0.0
Tb454 Tb 0.28172 0.29636 0.26563 0.0
O455 O 0.242 0.25194 0.2618 0.0
O456 O 0.26071 0.27381 0.25044 0.0
O457 O 0.24809 0.27843 0.29582 0.0
C458 C 0.31868 0.29659 0.26482 0.0
O459 O 0.28047 0.28136 0.29304 0.0
C460 C 0.26323 0.32324 0.27819 0.0
C461 C 0.25476 0.30325 0.22866 0.0
O462 O 0.31072 0.31207 0.2648 0.0
O463 O 0.30583 0.28107 0.26546 0.0
O464 O 0.27883 0.32738 0.27009 0.0
O465 O 0.26002 0.30516 0.28067 0.0
O466 O 0.27209 0.30039 0.23499 0.0
O467 O 0.24012 0.29874 0.23888 0.0
C468 C 0.20175 0.28168 0.26582 0.0
O469 O 0.20974 0.26647 0.26282 0.0
O470 O 0.21467 0.29747 0.26853 0.0
C471 C 0.25747 0.2558 0.25345 0.0
Tb472 Tb 0.5039 0.53524 -0.00035 0.0
C473 C 0.47026 0.51486 0.02168 0.0
Tb474 Tb 0.5112 0.53182 0.04481 0.0
O475 O 0.50207 0.50336 0.99395 0.0
O476 O 0.51882 0.51878 0.0187 0.0
O477 O 0.47524 0.5231 0.00546 0.0
C478 C 0.51705 0.5183 0.08026 0.0
O479 O 0.48213 0.51568 0.03811 0.0
C480 C 0.50271 0.56543 0.03509 0.0
C481 C 0.54406 0.55273 0.02298 0.0
O482 O 0.51081 0.50744 0.06391 0.0
O483 O 0.5199 0.53671 0.07665 0.0
O484 O 0.51129 0.5632 0.05225 0.0
O485 O 0.49691 0.54878 0.02585 0.0
O486 O 0.53979 0.54116 0.03733 0.0
O487 O 0.53121 0.55497 0.00822 0.0
C488 C 0.49834 0.5461 0.96298 0.0
O489 O 0.51217 0.53766 0.96973 0.0
O490 O 0.48764 0.54834 0.97681 0.0
C491 C 0.51252 0.50189 0.01027 0.0
Tb492 Tb 0.76968 0.27096 0.27083 0.0
C493 C 0.74085 0.28086 0.29963 0.0
Tb494 Tb 0.72754 0.26742 0.25386 0.0
O495 O 0.77353 0.30299 0.27707 0.0
O496 O 0.75289 0.28825 0.25486 0.0
O497 O 0.75735 0.27501 0.29825 0.0
C498 C 0.69331 0.27332 0.23976 0.0
O499 O 0.72805 0.28076 0.28404 0.0
C500 C 0.73887 0.23413 0.26054 0.0
C501 C 0.75693 0.25901 0.22499 0.0
O502 O 0.6967 0.26283 0.25443 0.0
O503 O 0.7091 0.28037 0.2331 0.0
O504 O 0.72501 0.23551 0.24725 0.0
O505 O 0.74418 0.25052 0.27036 0.0
O506 O 0.74045 0.26474 0.22659 0.0
O507 O 0.76945 0.25832 0.24054 0.0
C508 C 0.80398 0.26387 0.28282 0.0
O509 O 0.80051 0.27739 0.2713 0.0
O510 O 0.78816 0.25445 0.28772 0.0
C511 C 0.759 0.30461 0.26471 0.0
Tb512 Tb 0.98361 0.52268 0.5084 0.0
C513 C 0.01161 0.49311 0.50559 0.0
Tb514 Tb 0.02659 0.53954 0.51016 0.0
O515 O 0.98197 0.51094 0.47756 0.0
O516 O 0.00249 0.53538 0.48889 0.0
O517 O 0.99495 0.49575 0.51095 0.0
C518 C 0.06239 0.55169 0.50321 0.0
O519 O 0.02506 0.50797 0.50224 0.0
C520 C 0.01272 0.53872 0.54419 0.0
C521 C -0.00169 0.56901 0.51324 0.0
O522 O 0.05715 0.53994 0.51656 0.0
O523 O 0.04748 0.55644 0.49374 0.0
O524 O 0.02742 0.55136 0.54094 0.0
O525 O 0.0079 0.5264 0.52941 0.0
O526 O 0.01509 0.56653 0.50814 0.0
O527 O 0.98483 0.55405 0.51608 0.0
C528 C 0.94766 0.51228 0.51555 0.0
O529 O 0.95312 0.52032 0.49993 0.0
O530 O 0.96245 0.51005 0.52717 0.0
C531 C 0.99714 0.52285 0.47425 0.0
Tb532 Tb 0.75967 0.78137 0.28527 0.0
C533 C 0.77247 0.81881 0.26374 0.0
Tb534 Tb 0.75555 0.77687 0.24029 0.0
O535 O 0.79066 0.7857 0.28668 0.0
O536 O 0.77331 0.76824 0.26341 0.0
O537 O 0.76574 0.81243 0.28004 0.0
C538 C 0.76363 0.77704 0.2031 0.0
O539 O 0.77173 0.80688 0.24749 0.0
C540 C 0.72499 0.78189 0.25595 0.0
C541 C 0.74297 0.73904 0.26188 0.0
O542 O 0.74921 0.78335 0.2095 0.0
O543 O 0.77313 0.77031 0.21748 0.0
O544 O 0.72462 0.77185 0.23907 0.0
O545 O 0.74182 0.78992 0.26217 0.0
O546 O 0.74756 0.74579 0.24487 0.0
O547 O 0.74562 0.7505 0.27872 0.0
C548 C 0.75178 0.78083 0.32251 0.0
O549 O 0.76869 0.78293 0.31705 0.0
O550 O 0.73939 0.77935 0.30707 0.0
C551 C 0.79019 0.77586 0.26972 0.0
Tb552 Tb 0.76342 0.29887 0.76099 0.0
C553 C 0.79732 0.2743 0.75859 0.0
Tb554 Tb 0.75435 0.25412 0.75127 0.0
O555 O 0.75658 0.29701 0.79139 0.0
O556 O 0.76564 0.27367 0.7765 0.0
O557 O 0.79194 0.29183 0.75949 0.0
C558 C 0.74224 0.21522 0.75021 0.0
O559 O 0.78502 0.25739 0.75675 0.0
C560 C 0.75902 0.27562 0.72119 0.0
C561 C 0.72094 0.2779 0.75648 0.0
O562 O 0.73857 0.22628 0.73616 0.0
O563 O 0.75289 0.22601 0.76474 0.0
O564 O 0.76332 0.25814 0.72175 0.0
O565 O 0.75123 0.27935 0.73628 0.0
O566 O 0.72703 0.26092 0.75836 0.0
O567 O 0.73268 0.29456 0.75441 0.0
C568 C 0.77465 0.33693 0.75602 0.0
O569 O 0.76827 0.33012 0.77184 0.0
O570 O 0.77481 0.32234 0.74316 0.0
C571 C 0.75845 0.27862 0.79174 0.0
Tb572 Tb 0.73772 0.77449 0.76805 0.0
C573 C 0.76733 0.7778 0.80678 0.0
Tb574 Tb 0.78022 0.79091 0.76592 0.0
O575 O 0.73928 0.74888 0.74768 0.0
O576 O 0.76284 0.76315 0.76643 0.0
O577 O 0.74926 0.77482 0.79891 0.0
C578 C 0.81663 0.79184 0.76224 0.0
O579 O 0.78185 0.78341 0.79657 0.0
C580 C 0.75867 0.81741 0.77001 0.0
C581 C 0.75029 0.79036 0.72884 0.0
O582 O 0.81016 0.80479 0.77308 0.0
O583 O 0.80266 0.77874 0.75345 0.0
O584 O 0.77426 0.82062 0.76169 0.0
O585 O 0.75707 0.8009 0.77704 0.0
O586 O 0.76796 0.7885 0.73499 0.0
O587 O 0.73655 0.78821 0.74044 0.0
C588 C 0.70212 0.76819 0.77653 0.0
O589 O 0.71036 0.78381 0.76907 0.0
O590 O 0.71388 0.75604 0.77907 0.0
C591 C 0.75738 0.75 0.75252 0.0
Tb592 Tb 0.50641 0.55014 0.50591 0.0
C593 C 0.50897 0.51442 0.47638 0.0
Tb594 Tb 0.49845 0.50775 0.51996 0.0
O595 O 0.53626 0.54873 0.50339 0.0
O596 O 0.52134 0.53183 0.52291 0.0
O597 O 0.50528 0.53262 0.47808 0.0
C598 C 0.50044 0.47277 0.53379 0.0
O599 O 0.50884 0.50285 0.49128 0.0
C600 C 0.46845 0.52338 0.51003 0.0
C601 C 0.49649 0.54383 0.54965 0.0
O602 O 0.51017 0.4896 0.54142 0.0
O603 O 0.48947 0.47552 0.51822 0.0
O604 O 0.46876 0.50995 0.52248 0.0
O605 O 0.4838 0.52574 0.50244 0.0
O606 O 0.49937 0.52538 0.54766 0.0
O607 O 0.49712 0.55557 0.53495 0.0
C608 C 0.504 0.58575 0.49384 0.0
O609 O 0.49114 0.57 0.4896 0.0
O610 O 0.51824 0.58149 0.50496 0.0
C611 C 0.53668 0.5347 0.51515 0.0
Tb612 Tb 0.02628 0.53089 0.00183 0.0
C613 C 0.01766 0.51785 0.04373 0.0
Tb614 Tb 0.98611 0.52922 0.01245 0.0
O615 O 0.03636 0.55811 0.02119 0.0
O616 O 0.00858 0.55152 0.00749 0.0
O617 O 0.02875 0.5167 0.02943 0.0
C618 C 0.95616 0.53701 0.02922 0.0
O619 O 0.00097 0.52356 0.04066 0.0
C620 C 0.99224 0.49702 0.99389 0.0
C621 C 0.9945 0.5416 0.97031 0.0
O622 O 0.95566 0.52357 0.01491 0.0
O623 O 0.97351 0.54606 0.03408 0.0
O624 O 0.97569 0.50217 0.99324 0.0
O625 O 0.0037 0.50842 0.00648 0.0
O626 O 0.98342 0.54288 0.98459 0.0
O627 O 0.01128 0.53605 0.97349 0.0
C628 C 0.05679 0.52389 0.98553 0.0
O629 O 0.05696 0.53615 0.00078 0.0
O630 O 0.03943 0.5156 0.97942 0.0
C631 C 0.01976 0.56312 0.02006 0.0
C632 C 0.02311 0.23512 0.90612 0.0
C633 C 0.00595 0.24058 0.89874 0.0
C634 C 0.0231 0.21951 0.91821 0.0
C635 C 0.99306 0.17419 0.92996 0.0
H636 H 0.02933 0.17849 0.97689 0.0
C637 C 0.99152 0.11095 0.98116 0.0
C638 C 0.00909 0.10647 0.98845 0.0
C639 C 0.99065 0.1283 0.9719 0.0
C640 C 0.01923 0.17696 0.96373 0.0
H641 H 0.97534 0.23391 0.89834 0.0
H642 H 0.97535 0.20657 0.91934 0.0
H643 H 0.02888 0.20671 0.95714 0.0
H644 H 0.0395 0.11673 0.99226 0.0
H645 H 0.03811 0.14682 0.97567 0.0
H646 H 0.98369 0.14436 0.93611 0.0
C647 C 0.98879 0.21436 0.91571 0.0
C648 C 0.01896 0.19315 0.95244 0.0
C649 C 0.9888 0.23008 0.90376 0.0
C650 C 0.02576 0.1199 0.98684 0.0
C651 C 0.02493 0.13718 0.9774 0.0
C652 C 0.99342 0.15796 0.94113 0.0
C653 C 0.00594 0.2089 0.92306 0.0
C654 C 0.00592 0.19192 0.93539 0.0
C655 C 0.00737 0.14147 0.96953 0.0
C656 C 0.00655 0.15909 0.95813 0.0
H657 H 0.03657 0.24291 0.90256 0.0
H658 H 0.03653 0.21551 0.92348 0.0
H659 H 0.98302 0.1727 0.91674 0.0
H660 H 0.97843 0.10087 0.98234 0.0
H661 H 0.97686 0.13129 0.96642 0.0
C662 C 0.04784 0.75418 0.20756 0.0
C663 C 0.04069 0.76825 0.1964 0.0
C664 C 0.06669 0.75782 0.21627 0.0
C665 C 0.11327 0.78703 0.2104 0.0
H666 H 0.12818 0.76934 0.26155 0.0
C667 C 0.19191 0.7981 0.2435 0.0
C668 C 0.1977 0.7817 0.25185 0.0
C669 C 0.17263 0.79843 0.23855 0.0
C670 C 0.12425 0.77426 0.2472 0.0
H671 H 0.04756 0.79751 0.18624 0.0
H672 H 0.0804 0.80389 0.20157 0.0
H673 H 0.09455 0.76644 0.24981 0.0
H674 H 0.18765 0.75296 0.26194 0.0
H675 H 0.15418 0.75348 0.25315 0.0
H676 H 0.14291 0.79448 0.20758 0.0
C677 C 0.0715 0.78993 0.20336 0.0
C678 C 0.10498 0.77261 0.24047 0.0
C679 C 0.05264 0.7863 0.19467 0.0
C680 C 0.18374 0.76586 0.25554 0.0
C681 C 0.1645 0.7662 0.25062 0.0
C682 C 0.13252 0.78867 0.21712 0.0
C683 C 0.07883 0.77561 0.21401 0.0
C684 C 0.09926 0.77873 0.22188 0.0
C685 C 0.1587 0.78239 0.24187 0.0
C686 C 0.13825 0.78206 0.23547 0.0
H687 H 0.03903 0.74012 0.20919 0.0
H688 H 0.07192 0.74638 0.22419 0.0
H689 H 0.10936 0.79163 0.19589 0.0
H690 H 0.20226 0.81058 0.24046 0.0
H691 H 0.16863 0.81123 0.23203 0.0
C692 C 0.50493 0.85981 0.37794 0.0
C693 C 0.51604 0.84648 0.38539 0.0
C694 C 0.5022 0.87595 0.38998 0.0
C695 C 0.52161 0.90845 0.43455 0.0
H696 H 0.46953 0.91561 0.43621 0.0
C697 C 0.50123 0.96467 0.49122 0.0
C698 C 0.48674 0.97484 0.48489 0.0
C699 C 0.50519 0.94914 0.47914 0.0
C700 C 0.48419 0.91407 0.43572 0.0
H701 H 0.53359 0.84006 0.41112 0.0
H702 H 0.52901 0.86854 0.4321 0.0
H703 H 0.47634 0.8889 0.41465 0.0
H704 H 0.465 0.97693 0.46113 0.0
H705 H 0.4721 0.95013 0.43977 0.0
H706 H 0.52955 0.93386 0.45529 0.0
C707 C 0.52235 0.86636 0.41695 0.0
C708 C 0.48806 0.8987 0.42341 0.0
C709 C 0.5249 0.85004 0.40496 0.0
C710 C 0.47615 0.96917 0.46638 0.0
C711 C 0.48021 0.95377 0.4542 0.0
C712 C 0.51776 0.92402 0.44672 0.0
C713 C 0.5107 0.87927 0.40966 0.0
C714 C 0.50679 0.89572 0.4227 0.0
C715 C 0.49478 0.94352 0.46042 0.0
C716 C 0.49898 0.92701 0.44748 0.0
H717 H 0.49791 0.85752 0.36293 0.0
H718 H 0.49332 0.8858 0.38393 0.0
H719 H 0.53619 0.90657 0.43415 0.0
H720 H 0.50946 0.96869 0.50557 0.0
H721 H 0.51627 0.9414 0.4846 0.0
C722 C 0.4396 0.26705 0.69576 0.0
C723 C 0.43808 0.25529 0.67788 0.0
C724 C 0.42366 0.26779 0.70567 0.0
C725 C 0.37108 0.25813 0.69756 0.0
H726 H 0.37568 0.26134 0.75488 0.0
C727 C 0.30615 0.25388 0.74162 0.0
C728 C 0.30796 0.26775 0.75797 0.0
C729 C 0.32191 0.25171 0.73186 0.0
C730 C 0.37421 0.2606 0.73887 0.0
H731 H 0.41865 0.2348 0.65657 0.0
H732 H 0.39093 0.2358 0.67405 0.0
H733 H 0.40338 0.25846 0.73792 0.0
H734 H 0.32761 0.28993 0.77726 0.0
H735 H 0.35521 0.28607 0.76034 0.0
H736 H 0.34184 0.26018 0.69858 0.0
C737 C 0.40437 0.24476 0.68023 0.0
C738 C 0.39009 0.25899 0.72913 0.0
C739 C 0.4203 0.24409 0.67027 0.0
C740 C 0.32585 0.27912 0.76467 0.0
C741 C 0.34164 0.27686 0.75502 0.0
C742 C 0.35517 0.25964 0.70731 0.0
C743 C 0.40582 0.25671 0.698 0.0
C744 C 0.38877 0.25786 0.70835 0.0
C745 C 0.33983 0.2632 0.73845 0.0
C746 C 0.35659 0.26102 0.72807 0.0
H747 H 0.45307 0.27593 0.70199 0.0
H748 H 0.42526 0.27737 0.71916 0.0
H749 H 0.3696 0.25761 0.68156 0.0
H750 H 0.2926 0.24457 0.73648 0.0
H751 H 0.32012 0.24085 0.71932 0.0
C752 C 0.02475 0.8613 0.59938 0.0
C753 C 0.00906 0.84578 0.59633 0.0
C754 C 0.02536 0.87757 0.58819 0.0
C755 C 0.00419 0.89485 0.54232 0.0
H756 H 0.02061 0.9464 0.5707 0.0
C757 C 0.9921 0.96761 0.50955 0.0
C758 C 0.00639 0.98423 0.51467 0.0
C759 C 0.99343 0.94993 0.51805 0.0
C760 C 0.0162 0.93214 0.56248 0.0
H761 H 0.98185 0.83497 0.57888 0.0
H762 H 0.98282 0.86352 0.55952 0.0
H763 H 0.02103 0.91704 0.58838 0.0
H764 H 0.03377 0.99532 0.53151 0.0
H765 H 0.03628 0.96446 0.54612 0.0
H766 H -0.00085 0.91008 0.51644 0.0
C767 C 0.99475 0.86298 0.57041 0.0
C768 C 0.01647 0.91529 0.57263 0.0
C769 C 0.99414 0.8467 0.5816 0.0
C770 C 0.02244 0.98272 0.52758 0.0
C771 C 0.02382 0.9651 0.536 0.0
C772 C 0.00389 0.91175 0.53215 0.0
C773 C 0.01028 0.87867 0.57373 0.0
C774 C 0.01044 0.89647 0.56268 0.0
C775 C 0.00915 0.94864 0.53168 0.0
C776 C 0.00986 0.93058 0.54215 0.0
H777 H 0.03653 0.86098 0.61053 0.0
H778 H 0.03765 0.88931 0.59088 0.0
H779 H -0.00034 0.88052 0.53423 0.0
H780 H 0.97959 0.9685 0.4996 0.0
H781 H 0.98184 0.93754 0.51453 0.0
C782 C 0.46378 0.73202 0.85958 0.0
C783 C 0.47425 0.7502 0.86814 0.0
C784 C 0.4478 0.73141 0.84591 0.0
C785 C 0.42365 0.76129 0.81227 0.0
H786 H 0.37724 0.73031 0.82592 0.0
C787 C 0.35054 0.7803 0.79021 0.0
C788 C 0.33459 0.76518 0.78686 0.0
C789 C 0.36839 0.77598 0.79614 0.0
C790 C 0.39007 0.73869 0.82153 0.0
H791 H 0.47671 0.78199 0.86852 0.0
H792 H 0.4489 0.78089 0.84463 0.0
H793 H 0.4076 0.72702 0.84337 0.0
H794 H 0.32467 0.73364 0.78606 0.0
H795 H 0.35597 0.72596 0.79605 0.0
H796 H 0.40613 0.77328 0.7907 0.0
C797 C 0.45305 0.76713 0.84846 0.0
C798 C 0.40747 0.73681 0.83158 0.0
C799 C 0.46885 0.76775 0.86227 0.0
C800 C 0.3368 0.74557 0.78877 0.0
C801 C 0.35468 0.74121 0.79454 0.0
C802 C 0.40626 0.76304 0.80208 0.0
C803 C 0.44221 0.74897 0.84037 0.0
C804 C 0.42433 0.74856 0.82747 0.0
C805 C 0.37063 0.75641 0.79865 0.0
C806 C 0.38923 0.75224 0.80706 0.0
H807 H 0.46765 0.71825 0.86379 0.0
H808 H 0.43969 0.71722 0.83982 0.0
H809 H 0.43651 0.7703 0.80865 0.0
H810 H 0.34915 0.79553 0.78882 0.0
H811 H 0.38027 0.78809 0.79949 0.0
C812 C 0.46513 0.22629 0.06217 0.0
C813 C 0.48123 0.24107 0.06241 0.0
C814 C 0.46418 0.20793 0.05194 0.0
C815 C 0.48861 0.17974 0.01711 0.0
H816 H 0.47089 0.13663 0.04821 0.0
C817 C 0.51115 0.10319 0.0121 0.0
C818 C 0.49725 0.08665 0.01405 0.0
C819 C 0.50684 0.12216 0.01383 0.0
C820 C 0.4756 0.14845 0.03915 0.0
H821 H 0.50846 0.24866 0.05122 0.0
H822 H 0.50714 0.21648 0.03402 0.0
H823 H 0.46705 0.16977 0.05856 0.0
H824 H 0.46761 0.07698 0.01805 0.0
H825 H 0.46023 0.10997 0.02108 0.0
H826 H 0.49801 0.15822 0.99826 0.0
C827 C 0.49505 0.21909 0.04133 0.0
C828 C 0.47332 0.16749 0.04503 0.0
C829 C 0.49587 0.23754 0.05132 0.0
C830 C 0.47874 0.08939 0.01672 0.0
C831 C 0.47448 0.10829 0.01848 0.0
C832 C 0.49105 0.16064 0.01131 0.0
C833 C 0.47944 0.20387 0.04201 0.0
C834 C 0.48002 0.18343 0.03426 0.0
C835 C 0.48859 0.12488 0.01756 0.0
C836 C 0.48475 0.14487 0.02243 0.0
H837 H 0.45351 0.2287 0.07035 0.0
H838 H 0.45174 0.1967 0.05235 0.0
H839 H 0.49371 0.19164 0.00832 0.0
H840 H 0.52552 0.10159 0.00997 0.0
H841 H 0.51802 0.13473 0.01319 0.0
C842 C 0.06318 0.26284 0.35239 0.0
C843 C 0.05943 0.28118 0.35934 0.0
C844 C 0.0756 0.26171 0.33815 0.0
C845 C 0.1014 0.29062 0.30179 0.0
H846 H 0.13646 0.25449 0.31084 0.0
C847 C 0.17537 0.29823 0.27467 0.0
C848 C 0.18184 0.28086 0.26916 0.0
C849 C 0.15753 0.29723 0.28123 0.0
C850 C 0.12654 0.26438 0.30785 0.0
H851 H 0.06546 0.31269 0.35666 0.0
H852 H 0.08778 0.31084 0.33236 0.0
H853 H 0.11107 0.2548 0.33153 0.0
H854 H 0.17442 0.24901 0.26466 0.0
H855 H 0.14318 0.24725 0.27616 0.0
H856 H 0.11772 0.30082 0.27866 0.0
C857 C 0.08076 0.29726 0.3375 0.0
C858 C 0.11195 0.26456 0.31971 0.0
C859 C 0.0681 0.29835 0.35156 0.0
C860 C 0.16976 0.26259 0.26897 0.0
C861 C 0.15195 0.26158 0.2756 0.0
C862 C 0.11617 0.29056 0.29001 0.0
C863 C 0.08479 0.27893 0.33076 0.0
C864 C 0.09934 0.27784 0.31702 0.0
C865 C 0.14596 0.27885 0.28243 0.0
C866 C 0.129 0.27758 0.29311 0.0
H867 H 0.05646 0.24931 0.3579 0.0
H868 H 0.07807 0.24732 0.33301 0.0
H869 H 0.09174 0.30081 0.29911 0.0
H870 H 0.18447 0.31251 0.27488 0.0
H871 H 0.15333 0.31077 0.28653 0.0
C872 C 0.91853 0.08934 0.18841 0.0
C873 C 0.91141 0.07226 0.1974 0.0
C874 C 0.93065 0.08845 0.17374 0.0
C875 C 0.96378 0.05878 0.15495 0.0
H876 H 0.95316 0.08139 0.10531 0.0
C877 C 0.99285 0.03508 0.0837 0.0
C878 C 0.99681 0.04881 0.06966 0.0
C879 C 0.98516 0.04029 0.10081 0.0
C880 C 0.95661 0.07534 0.11922 0.0
H881 H 0.91145 0.04089 0.19809 0.0
H882 H 0.93259 0.0394 0.1726 0.0
H883 H 0.93411 0.08612 0.13218 0.0
H884 H 0.99673 0.07917 0.06318 0.0
H885 H 0.98365 0.08835 0.09326 0.0
H886 H 0.98616 0.04785 0.14203 0.0
C887 C 0.92889 0.05348 0.17695 0.0
C888 C 0.94563 0.078 0.13458 0.0
C889 C 0.91664 0.05431 0.19143 0.0
C890 C 0.99377 0.06818 0.07362 0.0
C891 C 0.98613 0.07341 0.0908 0.0
C892 C 0.97486 0.05625 0.13966 0.0
C893 C 0.93605 0.07052 0.16798 0.0
C894 C 0.94884 0.06937 0.15242 0.0
C895 C 0.98132 0.0594 0.10438 0.0
C896 C 0.97113 0.06412 0.12145 0.0
H897 H 0.91477 0.10339 0.1927 0.0
H898 H 0.93602 0.10182 0.1671 0.0
H899 H 0.96677 0.05225 0.16869 0.0
H900 H 0.99496 0.02001 0.08116 0.0
H901 H 0.98143 0.02902 0.11078 0.0
C902 C 0.29698 0.70345 0.44636 0.0
C903 C 0.28511 0.68504 0.44642 0.0
C904 C 0.29524 0.71488 0.43025 0.0
C905 C 0.27363 0.71141 0.37752 0.0
H906 H 0.28223 0.76846 0.38605 0.0
C907 C 0.25109 0.76135 0.31807 0.0
C908 C 0.26547 0.77647 0.31389 0.0
C909 C 0.25383 0.75063 0.3345 0.0
C910 C 0.27989 0.75254 0.38348 0.0
H911 H 0.26185 0.66436 0.42986 0.0
H912 H 0.25826 0.68447 0.4023 0.0
H913 H 0.28635 0.74879 0.41417 0.0
H914 H 0.29354 0.79308 0.32413 0.0
H915 H 0.29811 0.77471 0.35333 0.0
H916 H 0.2665 0.71529 0.34689 0.0
C917 C 0.26941 0.68991 0.41424 0.0
C918 C 0.28236 0.74123 0.39956 0.0
C919 C 0.27138 0.67838 0.43016 0.0
C920 C 0.28227 0.7814 0.32698 0.0
C921 C 0.28488 0.77091 0.34364 0.0
C922 C 0.27085 0.72271 0.36154 0.0
C923 C 0.28137 0.70829 0.41397 0.0
C924 C 0.27921 0.72048 0.39682 0.0
C925 C 0.27081 0.75521 0.34736 0.0
C926 C 0.27392 0.74336 0.36437 0.0
H927 H 0.30775 0.70894 0.45867 0.0
H928 H 0.30492 0.72878 0.4305 0.0
H929 H 0.27152 0.69555 0.37464 0.0
H930 H 0.23772 0.75781 0.30863 0.0
H931 H 0.24262 0.73882 0.33724 0.0
C932 C 0.58022 0.98011 0.70995 0.0
C933 C 0.56981 0.98247 0.72602 0.0
C934 C 0.5721 0.98096 0.6906 0.0
C935 C 0.53514 0.00191 0.66266 0.0
H936 H 0.54531 0.96827 0.6188 0.0
C937 C 0.50364 0.0077 0.58237 0.0
C938 C 0.51586 0.00684 0.56765 0.0
C939 C 0.50894 0.00308 0.60156 0.0
C940 C 0.54247 0.97789 0.63087 0.0
H941 H 0.54248 0.98695 0.73427 0.0
H942 H 0.52826 0.98837 0.70038 0.0
H943 H 0.55648 0.96261 0.65261 0.0
H944 H 0.54321 0.00027 0.56159 0.0
H945 H 0.55254 0.99246 0.59512 0.0
H946 H 0.52147 0.01744 0.64096 0.0
C947 C 0.54279 0.98606 0.70284 0.0
C948 C 0.54883 0.97461 0.65024 0.0
C949 C 0.5509 0.98512 0.72224 0.0
C950 C 0.53342 0.00103 0.57253 0.0
C951 C 0.53873 0.99643 0.59174 0.0
C952 C 0.52882 0.00521 0.64329 0.0
C953 C 0.55339 0.98424 0.68683 0.0
C954 C 0.54541 0.98672 0.66635 0.0
C955 C 0.5266 0.99751 0.60653 0.0
C956 C 0.53257 0.99337 0.62715 0.0
H957 H 0.59483 0.97803 0.71232 0.0
H958 H 0.58074 0.97972 0.67865 0.0
H959 H 0.53253 0.0117 0.6747 0.0
H960 H 0.48997 0.01203 0.57915 0.0
H961 H 0.49915 0.0038 0.61251 0.0
C962 C 0.22667 0.35115 0.96494 0.0
C963 C 0.23612 0.35017 0.98381 0.0
C964 C 0.22476 0.33554 0.95052 0.0
C965 C 0.21794 0.29942 0.9225 0.0
H966 H 0.26526 0.28109 0.9175 0.0
C967 C 0.23276 0.2678 0.84743 0.0
C968 C 0.25071 0.27596 0.84244 0.0
C969 C 0.22892 0.26928 0.86708 0.0
C970 C 0.2519 0.286 0.91868 0.0
H971 H 0.24993 0.33155 0.00279 0.0
H972 H 0.24639 0.30404 0.97752 0.0
H973 H 0.26094 0.29851 0.94826 0.0
H974 H 0.27897 0.29126 0.85386 0.0
H975 H 0.27216 0.29469 0.88787 0.0
H976 H 0.20965 0.2888 0.8923 0.0
C977 C 0.24076 0.31707 0.97382 0.0
C978 C 0.24929 0.29574 0.93647 0.0
C979 C 0.24277 0.33281 0.98829 0.0
C980 C 0.26499 0.28489 0.85738 0.0
C981 C 0.26111 0.28661 0.87694 0.0
C982 C 0.22067 0.29 0.90461 0.0
C983 C 0.2321 0.31846 0.95463 0.0
C984 C 0.23269 0.30353 0.93818 0.0
C985 C 0.2429 0.2792 0.882 0.0
C986 C 0.23811 0.28416 0.90217 0.0
H987 H 0.22129 0.36427 0.96102 0.0
H988 H 0.21835 0.33737 0.93584 0.0
H989 H 0.20473 0.30471 0.92355 0.0
H990 H 0.22159 0.26064 0.8361 0.0
H991 H 0.21484 0.26315 0.87048 0.0
C992 C 0.92014 0.07554 0.30435 0.0
C993 C 0.92626 0.06703 0.28746 0.0
C994 C 0.93136 0.07765 0.32258 0.0
C995 C 0.96638 0.05418 0.34948 0.0
H996 H 0.97099 0.09892 0.38813 0.0
C997 C 0.0014 0.05175 0.42843 0.0
C998 C 0.9916 0.05835 0.44351 0.0
C999 C 0.99696 0.056 0.40895 0.0
C1000 C 0.96976 0.08628 0.37753 0.0
H1001 H 0.94931 0.05486 0.27626 0.0
H1002 H 0.96885 0.05845 0.30821 0.0
H1003 H 0.95661 0.10069 0.35438 0.0
H1004 H 0.97013 0.0753 0.45042 0.0
H1005 H 0.9619 0.08228 0.41632 0.0
H1006 H 0.97865 0.03937 0.37263 0.0
C1007 C 0.95532 0.06337 0.3073 0.0
C1008 C 0.96159 0.08734 0.35821 0.0
C1009 C 0.94416 0.06138 0.28902 0.0
C1010 C 0.97785 0.07 0.439 0.0
C1011 C 0.97327 0.07412 0.41948 0.0
C1012 C 0.97441 0.05307 0.36879 0.0
C1013 C 0.94887 0.07121 0.32432 0.0
C1014 C 0.95951 0.07115 0.3441 0.0
C1015 C 0.98247 0.06679 0.40415 0.0
C1016 C 0.97589 0.06897 0.38315 0.0
H1017 H 0.90646 0.08014 0.30362 0.0
H1018 H 0.92593 0.08357 0.33548 0.0
H1019 H 0.96472 0.04136 0.33901 0.0
H1020 H 0.01222 0.04289 0.43161 0.0
H1021 H 0.00459 0.05047 0.39758 0.0
C1022 C 0.29548 0.69527 0.56861 0.0
C1023 C 0.29335 0.7059 0.55187 0.0
C1024 C 0.29381 0.70365 0.58741 0.0
C1025 C 0.27366 0.74335 0.61216 0.0
H1026 H 0.30344 0.73051 0.65858 0.0
C1027 C 0.2553 0.75979 0.69144 0.0
C1028 C 0.27026 0.76485 0.70684 0.0
C1029 C 0.25885 0.75398 0.67235 0.0
C1030 C 0.29515 0.7345 0.6458 0.0
H1031 H 0.28841 0.73395 0.54186 0.0
H1032 H 0.286 0.74878 0.57471 0.0
H1033 H 0.30922 0.71847 0.62593 0.0
H1034 H 0.30078 0.76842 0.71407 0.0
H1035 H 0.30702 0.75887 0.68078 0.0
H1036 H 0.25993 0.75982 0.63204 0.0
C1037 C 0.2885 0.73376 0.57327 0.0
C1038 C 0.29829 0.72733 0.62702 0.0
C1039 C 0.29003 0.72531 0.55444 0.0
C1040 C 0.28889 0.76445 0.70261 0.0
C1041 C 0.29246 0.75884 0.6835 0.0
C1042 C 0.27062 0.75066 0.63095 0.0
C1043 C 0.29013 0.72295 0.58999 0.0
C1044 C 0.28746 0.73148 0.60995 0.0
C1045 C 0.27748 0.75326 0.66815 0.0
C1046 C 0.2812 0.74618 0.64804 0.0
H1047 H 0.29794 0.68024 0.56718 0.0
H1048 H 0.29487 0.69473 0.59984 0.0
H1049 H 0.26488 0.7467 0.59941 0.0
H1050 H 0.24076 0.7598 0.69421 0.0
H1051 H 0.24691 0.74953 0.66103 0.0
C1052 C 0.58609 0.99112 0.83711 0.0
C1053 C 0.58198 0.00296 0.82181 0.0
C1054 C 0.5778 0.9924 0.8547 0.0
C1055 C 0.55293 0.02527 0.88387 0.0
H1056 H 0.54031 0.97883 0.91231 0.0
C1057 C 0.52768 0.03062 0.96132 0.0
C1058 C 0.51388 0.01519 0.96601 0.0
C1059 C 0.53632 0.02891 0.944 0.0
C1060 C 0.54353 0.99194 0.90448 0.0
H1061 H 0.56555 0.02501 0.8127 0.0
H1062 H 0.55054 0.02673 0.84299 0.0
H1063 H 0.55369 0.97596 0.88122 0.0
H1064 H 0.498 0.98602 0.95619 0.0
H1065 H 0.51244 0.98327 0.92561 0.0
H1066 H 0.54196 0.04108 0.90662 0.0
C1067 C 0.56064 0.0169 0.84176 0.0
C1068 C 0.55152 0.99034 0.88673 0.0
C1069 C 0.56913 0.01582 0.8243 0.0
C1070 C 0.5087 0.9981 0.95298 0.0
C1071 C 0.51714 0.99647 0.93553 0.0
C1072 C 0.54473 0.02682 0.90147 0.0
C1073 C 0.56499 0.00536 0.85731 0.0
C1074 C 0.55636 0.00699 0.87618 0.0
C1075 C 0.5311 0.01184 0.93079 0.0
C1076 C 0.53994 0.01019 0.91206 0.0
H1077 H 0.59604 0.98115 0.83569 0.0
H1078 H 0.58176 0.9835 0.8664 0.0
H1079 H 0.55673 0.03851 0.87639 0.0
H1080 H 0.53167 0.0441 0.97091 0.0
H1081 H 0.54717 0.04096 0.94106 0.0
C1082 C 0.21366 0.35825 0.06494 0.0
C1083 C 0.22233 0.37764 0.06246 0.0
C1084 C 0.21656 0.35027 0.08307 0.0
C1085 C 0.21793 0.33963 0.12548 0.0
H1086 H 0.26851 0.35251 0.15406 0.0
C1087 C 0.23397 0.31763 0.20427 0.0
C1088 C 0.25125 0.31133 0.20938 0.0
C1089 C 0.23044 0.32549 0.18625 0.0
C1090 C 0.25437 0.34859 0.14615 0.0
H1091 H 0.24006 0.40422 0.07727 0.0
H1092 H 0.24465 0.39049 0.10907 0.0
H1093 H 0.26183 0.36677 0.12293 0.0
H1094 H 0.27838 0.30833 0.19956 0.0
H1095 H 0.27204 0.32176 0.16776 0.0
H1096 H 0.21062 0.32097 0.14836 0.0
C1097 C 0.23606 0.38125 0.09686 0.0
C1098 C 0.25045 0.35701 0.12847 0.0
C1099 C 0.23328 0.38917 0.07869 0.0
C1100 C 0.26495 0.31309 0.19605 0.0
C1101 C 0.26135 0.32087 0.1779 0.0
C1102 C 0.22188 0.33112 0.14309 0.0
C1103 C 0.22805 0.36158 0.09913 0.0
C1104 C 0.23216 0.35271 0.11799 0.0
C1105 C 0.24403 0.32715 0.17282 0.0
C1106 C 0.24011 0.33561 0.1537 0.0
H1107 H 0.20522 0.34894 0.05268 0.0
H1108 H 0.21033 0.33502 0.08425 0.0
H1109 H 0.20365 0.33611 0.11786 0.0
H1110 H 0.22317 0.31672 0.21429 0.0
H1111 H 0.21713 0.33057 0.183 0.0
C1112 C 0.1757 0.94445 0.02307 0.0
C1113 C 0.17022 0.92394 0.01883 0.0
C1114 C 0.16208 0.95666 0.02299 0.0
C1115 C 0.11175 0.95741 0.00449 0.0
H1116 H 0.11848 0.0031 0.04234 0.0
C1117 C 0.05179 0.00112 0.0154 0.0
C1118 C 0.0565 0.02175 0.01666 0.0
C1119 C 0.06592 0.98957 0.01594 0.0
C1120 C 0.1165 0.99049 0.03157 0.0
H1121 H 0.14605 0.90016 0.01157 0.0
H1122 H 0.12232 0.92131 0.01193 0.0
H1123 H 0.14246 0.98204 0.04306 0.0
H1124 H 0.07973 0.04659 0.01894 0.0
H1125 H 0.10466 0.0264 0.02014 0.0
H1126 H 0.08563 0.96571 0.99326 0.0
C1127 C 0.13716 0.92809 0.01483 0.0
C1128 C 0.13026 0.97842 0.03193 0.0
C1129 C 0.15078 0.9159 0.01476 0.0
C1130 C 0.07572 0.03068 0.01825 0.0
C1131 C 0.08995 0.01914 0.019 0.0
C1132 C 0.09794 0.96937 0.00425 0.0
C1133 C 0.14261 0.94866 0.01881 0.0
C1134 C 0.12805 0.96167 0.01842 0.0
C1135 C 0.08518 0.99843 0.01773 0.0
C1136 C 0.10012 0.98601 0.01783 0.0
H1137 H 0.19056 0.95114 0.02619 0.0
H1138 H 0.16687 0.97243 0.02585 0.0
H1139 H 0.10972 0.94493 0.99356 0.0
H1140 H 0.0372 0.9938 0.01314 0.0
H1141 H 0.06176 0.97367 0.01489 0.0
C1142 C 0.70941 0.61652 5e-05 0.0
C1143 C 0.72236 0.61594 0.01681 0.0
C1144 C 0.69004 0.60966 0.00036 0.0
C1145 C 0.65439 0.60046 0.0353 0.0
H1146 H 0.62275 0.57119 0.98986 0.0
C1147 C 0.57767 0.56097 0.03867 0.0
C1148 C 0.56409 0.56203 0.02262 0.0
C1149 C 0.59682 0.56846 0.03787 0.0
C1150 C 0.63138 0.57957 0.00256 0.0
H1151 H 0.72525 0.607 0.04674 0.0
H1152 H 0.69149 0.59471 0.04714 0.0
H1153 H 0.65674 0.58138 0.98842 0.0
H1154 H 0.55989 0.57227 0.99331 0.0
H1155 H 0.59343 0.58541 0.99197 0.0
H1156 H 0.62906 0.59848 0.0495 0.0
C1157 C 0.69626 0.60087 0.03392 0.0
C1158 C 0.65083 0.58538 0.00176 0.0
C1159 C 0.71562 0.60777 0.03364 0.0
C1160 C 0.57001 0.57118 0.00592 0.0
C1161 C 0.58921 0.57859 0.00508 0.0
C1162 C 0.63497 0.59461 0.03612 0.0
C1163 C 0.68323 0.60202 0.0174 0.0
C1164 C 0.66256 0.59581 0.01816 0.0
C1165 C 0.60282 0.57712 0.02097 0.0
C1166 C 0.62328 0.58404 0.0198 0.0
H1167 H 0.71415 0.62277 0.98686 0.0
H1168 H 0.68035 0.61091 0.98745 0.0
H1169 H 0.66297 0.60884 0.04804 0.0
H1170 H 0.5736 0.55406 0.05178 0.0
H1171 H 0.60701 0.56697 0.05027 0.0
C1172 C 0.66161 0.42818 0.29017 0.0
C1173 C 0.66974 0.44826 0.29088 0.0
C1174 C 0.67232 0.41371 0.28608 0.0
C1175 C 0.72005 0.40331 0.28942 0.0
H1176 H 0.69948 0.36226 0.24754 0.0
C1177 C 0.7608 0.341 0.26938 0.0
C1178 C 0.74983 0.32209 0.26477 0.0
C1179 C 0.75205 0.35754 0.27089 0.0
C1180 C 0.70536 0.37346 0.25943 0.0
H1181 H 0.69556 0.46895 0.28836 0.0
H1182 H 0.71445 0.44349 0.28172 0.0
H1183 H 0.68207 0.38875 0.25429 0.0
H1184 H 0.72127 0.30562 0.25928 0.0
H1185 H 0.7059 0.33396 0.26202 0.0
H1186 H 0.74291 0.38766 0.29524 0.0
C1187 C 0.69973 0.43907 0.28412 0.0
C1188 C 0.69541 0.38866 0.26321 0.0
C1189 C 0.68892 0.45358 0.28786 0.0
C1190 C 0.73005 0.31999 0.26184 0.0
C1191 C 0.72127 0.33637 0.26358 0.0
C1192 C 0.72989 0.38791 0.28586 0.0
C1193 C 0.69144 0.41902 0.28297 0.0
C1194 C 0.70256 0.40358 0.27836 0.0
C1195 C 0.73213 0.35539 0.26818 0.0
C1196 C 0.72254 0.37264 0.27098 0.0
H1197 H 0.64685 0.42363 0.29237 0.0
H1198 H 0.66567 0.39832 0.28543 0.0
H1199 H 0.72578 0.41464 0.30125 0.0
H1200 H 0.77614 0.34299 0.27188 0.0
H1201 H 0.76091 0.37196 0.27425 0.0
C1202 C 0.78851 0.43912 0.55148 0.0
C1203 C 0.77445 0.4371 0.53521 0.0
C1204 C 0.80701 0.44879 0.55009 0.0
C1205 C 0.83951 0.46273 0.51269 0.0
H1206 H 0.87052 0.49515 0.5567 0.0
C1207 C 0.91304 0.50717 0.50424 0.0
C1208 C 0.92776 0.50578 0.51896 0.0
C1209 C 0.89418 0.50004 0.50688 0.0
C1210 C 0.86205 0.48602 0.54434 0.0
H1211 H 0.7686 0.44434 0.50496 0.0
H1212 H 0.80067 0.46158 0.50268 0.0
H1213 H 0.83764 0.48071 0.56006 0.0
H1214 H 0.93445 0.49645 0.5482 0.0
H1215 H 0.90137 0.48394 0.55286 0.0
H1216 H 0.86385 0.46808 0.49696 0.0
C1217 C 0.79757 0.45526 0.51637 0.0
C1218 C 0.84323 0.47773 0.54626 0.0
C1219 C 0.77914 0.44548 0.51772 0.0
C1220 C 0.92331 0.49763 0.53661 0.0
C1221 C 0.90441 0.49058 0.53931 0.0
C1222 C 0.85823 0.47111 0.51075 0.0
C1223 C 0.81182 0.45676 0.53242 0.0
C1224 C 0.83174 0.46597 0.53044 0.0
C1225 C 0.88967 0.49146 0.52434 0.0
C1226 C 0.86972 0.48283 0.52653 0.0
H1227 H 0.78536 0.43279 0.56516 0.0
H1228 H 0.81765 0.44949 0.56267 0.0
H1229 H 0.83124 0.4534 0.50035 0.0
H1230 H 0.9161 0.51348 0.49053 0.0
H1231 H 0.88311 0.50117 0.49521 0.0
C1232 C 0.35034 0.12485 0.24949 0.0
C1233 C 0.36586 0.12654 0.2384 0.0
C1234 C 0.33992 0.14003 0.25094 0.0
C1235 C 0.32798 0.18284 0.22623 0.0
H1236 H 0.31136 0.19639 0.27681 0.0
C1237 C 0.28545 0.24599 0.23902 0.0
C1238 C 0.27043 0.24179 0.25058 0.0
C1239 C 0.29821 0.23298 0.2373 0.0
C1240 C 0.31576 0.19268 0.26254 0.0
H1241 H 0.38256 0.14556 0.22005 0.0
H1242 H 0.3643 0.17216 0.22263 0.0
H1243 H 0.33177 0.17189 0.27439 0.0
H1244 H 0.25653 0.22053 0.26886 0.0
H1245 H 0.27848 0.19768 0.2656 0.0
H1246 H 0.31172 0.20352 0.21437 0.0
C1247 C 0.36017 0.15898 0.2301 0.0
C1248 C 0.32747 0.17864 0.26116 0.0
C1249 C 0.37068 0.14378 0.22871 0.0
C1250 C 0.26806 0.22417 0.25994 0.0
C1251 C 0.28075 0.21119 0.25822 0.0
C1252 C 0.31623 0.19691 0.22762 0.0
C1253 C 0.34472 0.15729 0.24131 0.0
C1254 C 0.33345 0.1733 0.24293 0.0
C1255 C 0.2961 0.21552 0.24707 0.0
C1256 C 0.30972 0.20172 0.24573 0.0
H1257 H 0.34619 0.11176 0.2571 0.0
H1258 H 0.32791 0.13812 0.25942 0.0
H1259 H 0.33225 0.17895 0.21195 0.0
H1260 H 0.28744 0.25942 0.2315 0.0
H1261 H 0.30993 0.23677 0.22867 0.0
C1262 C 0.31428 0.10331 0.52818 0.0
C1263 C 0.3132 0.12108 0.53881 0.0
C1264 C 0.32822 0.09253 0.53421 0.0
C1265 C 0.37621 0.09994 0.55711 0.0
H1266 H 0.36724 0.04286 0.55608 0.0
C1267 C 0.43825 0.05841 0.55541 0.0
C1268 C 0.435 0.04255 0.54085 0.0
C1269 C 0.42305 0.06643 0.56147 0.0
C1270 C 0.36999 0.0588 0.55643 0.0
H1271 H 0.32547 0.14129 0.56435 0.0
H1272 H 0.35025 0.1226 0.57455 0.0
H1273 H 0.34037 0.0602 0.55467 0.0
H1274 H 0.41352 0.02191 0.52189 0.0
H1275 H 0.38706 0.03621 0.53185 0.0
H1276 H 0.40561 0.09866 0.55737 0.0
C1277 C 0.34016 0.11699 0.56171 0.0
C1278 C 0.35463 0.06869 0.55572 0.0
C1279 C 0.32601 0.12764 0.55586 0.0
C1280 C 0.41635 0.03417 0.53314 0.0
C1281 C 0.40118 0.04228 0.53902 0.0
C1282 C 0.39156 0.09006 0.55755 0.0
C1283 C 0.34146 0.09944 0.55082 0.0
C1284 C 0.3576 0.08928 0.5554 0.0
C1285 C 0.40438 0.05883 0.5529 0.0
C1286 C 0.38857 0.06932 0.5565 0.0
H1287 H 0.3045 0.09784 0.51507 0.0
H1288 H 0.3291 0.07916 0.52541 0.0
H1289 H 0.37885 0.11583 0.55672 0.0
H1290 H 0.45256 0.065 0.56168 0.0
H1291 H 0.42598 0.07895 0.57243 0.0
C1292 C 0.67899 0.56839 0.29099 0.0
C1293 C 0.67726 0.55437 0.27475 0.0
C1294 C 0.68657 0.58819 0.28933 0.0
C1295 C 0.71541 0.62144 0.25896 0.0
H1296 H 0.69029 0.66099 0.28235 0.0
C1297 C 0.73379 0.70441 0.2458 0.0
C1298 C 0.73522 0.7178 0.26254 0.0
C1299 C 0.7267 0.68433 0.24677 0.0
C1300 C 0.69757 0.65014 0.27589 0.0
H1301 H 0.68253 0.55008 0.24415 0.0
H1302 H 0.69558 0.58461 0.24123 0.0
H1303 H 0.67855 0.6262 0.28544 0.0
H1304 H 0.7302 0.72053 0.29338 0.0
H1305 H 0.71804 0.6857 0.29503 0.0
H1306 H 0.73443 0.64548 0.24938 0.0
C1307 C 0.69125 0.58029 0.2553 0.0
C1308 C 0.69087 0.6302 0.2777 0.0
C1309 C 0.68367 0.5605 0.25696 0.0
C1310 C 0.72931 0.71068 0.28018 0.0
C1311 C 0.7222 0.69069 0.28111 0.0
C1312 C 0.72211 0.64143 0.25713 0.0
C1313 C 0.69258 0.59441 0.27139 0.0
C1314 C 0.69977 0.61561 0.26936 0.0
C1315 C 0.72082 0.67727 0.26445 0.0
C1316 C 0.71333 0.656 0.26568 0.0
H1317 H 0.67426 0.56415 0.30493 0.0
H1318 H 0.68769 0.59864 0.30211 0.0
H1319 H 0.7227 0.61058 0.25253 0.0
H1320 H 0.73819 0.70938 0.23198 0.0
H1321 H 0.72565 0.67437 0.23362 0.0
C1322 C 0.84348 0.511 0.74777 0.0
C1323 C 0.84892 0.5151 0.72904 0.0
C1324 C 0.83308 0.49259 0.75068 0.0
C1325 C 0.80444 0.44655 0.72434 0.0
H1326 H 0.82036 0.42349 0.77226 0.0
C1327 C 0.78595 0.36333 0.73454 0.0
C1328 C 0.78091 0.35787 0.75302 0.0
C1329 C 0.79236 0.38311 0.7317 0.0
C1330 C 0.81556 0.42982 0.75894 0.0
H1331 H 0.84725 0.5033 0.69855 0.0
H1332 H 0.82947 0.47101 0.70372 0.0
H1333 H 0.83481 0.457 0.767 0.0
H1334 H 0.77827 0.36864 0.78295 0.0
H1335 H 0.78963 0.40331 0.77804 0.0
H1336 H 0.78555 0.41902 0.7161 0.0
C1337 C 0.83295 0.48212 0.71611 0.0
C1338 C 0.82382 0.44906 0.75592 0.0
C1339 C 0.84324 0.50061 0.71315 0.0
C1340 C 0.78215 0.3725 0.76857 0.0
C1341 C 0.7887 0.39229 0.76578 0.0
C1342 C 0.79626 0.42723 0.72731 0.0
C1343 C 0.82802 0.47778 0.73499 0.0
C1344 C 0.81846 0.45764 0.73853 0.0
C1345 C 0.79398 0.39778 0.74734 0.0
C1346 C 0.80184 0.41862 0.74459 0.0
H1347 H 0.84746 0.52193 0.76028 0.0
H1348 H 0.82918 0.48992 0.76532 0.0
H1349 H 0.79977 0.45279 0.71092 0.0
H1350 H 0.78506 0.3523 0.72229 0.0
H1351 H 0.79652 0.38685 0.7174 0.0
C1352 C 0.02032 0.82649 0.1152 0.0
C1353 C 0.00371 0.81326 0.11758 0.0
C1354 C 0.01966 0.84177 0.10283 0.0
C1355 C 0.98605 0.87081 0.07921 0.0
H1356 H 0.0291 0.89039 0.05166 0.0
C1357 C 0.98735 0.93613 0.02974 0.0
C1358 C 0.00314 0.95125 0.03499 0.0
C1359 C 0.98691 0.9177 0.0373 0.0
C1360 C 0.01697 0.88503 0.05925 0.0
H1361 H 0.97347 0.80526 0.10836 0.0
H1362 H 0.97238 0.83157 0.08627 0.0
H1363 H 0.029 0.86068 0.06921 0.0
H1364 H 0.03111 0.95893 0.05152 0.0
H1365 H 0.03051 0.92663 0.0644 0.0
H1366 H 0.97405 0.89521 0.06907 0.0
C1367 C 0.98586 0.8305 0.09437 0.0
C1368 C 0.01694 0.86809 0.06942 0.0
C1369 C 0.98649 0.81534 0.10696 0.0
C1370 C 0.01874 0.9475 0.04731 0.0
C1371 C 0.01844 0.92901 0.05458 0.0
C1372 C 0.98599 0.8876 0.0688 0.0
C1373 C 0.00241 0.84406 0.09231 0.0
C1374 C 0.00166 0.86099 0.07991 0.0
C1375 C 0.00241 0.91404 0.0499 0.0
C1376 C 0.00161 0.89508 0.05906 0.0
H1377 H 0.03381 0.82535 0.12326 0.0
H1378 H 0.03264 0.8521 0.10196 0.0
H1379 H 0.97416 0.86601 0.08732 0.0
H1380 H 0.97515 0.93871 0.02027 0.0
H1381 H 0.97442 0.90636 0.03342 0.0
C1382 C 0.95955 0.2517 0.81362 0.0
C1383 C 0.97102 0.26941 0.8221 0.0
C1384 C 0.94144 0.25168 0.80391 0.0
C1385 C 0.91058 0.28414 0.78127 0.0
H1386 H 0.86968 0.24439 0.79416 0.0
C1387 C 0.8314 0.29088 0.76703 0.0
C1388 C 0.81788 0.27357 0.7617 0.0
C1389 C 0.85056 0.28992 0.7719 0.0
C1390 C 0.88094 0.25541 0.7901 0.0
H1391 H 0.97263 0.30109 0.82651 0.0
H1392 H 0.94111 0.30103 0.80972 0.0
H1393 H 0.90226 0.24338 0.80702 0.0
H1394 H 0.81416 0.24173 0.75639 0.0
H1395 H 0.84753 0.24013 0.76457 0.0
H1396 H 0.88917 0.29633 0.76457 0.0
C1397 C 0.94613 0.28715 0.8104 0.0
C1398 C 0.89965 0.25483 0.7975 0.0
C1399 C 0.96419 0.28717 0.82015 0.0
C1400 C 0.82412 0.25536 0.7606 0.0
C1401 C 0.84327 0.25442 0.76541 0.0
C1402 C 0.89184 0.28471 0.77383 0.0
C1403 C 0.93443 0.26939 0.80239 0.0
C1404 C 0.91469 0.2693 0.79335 0.0
C1405 C 0.85669 0.27164 0.77149 0.0
C1406 C 0.87676 0.27046 0.77833 0.0
H1407 H 0.96438 0.23777 0.8148 0.0
H1408 H 0.93288 0.23778 0.79768 0.0
H1409 H 0.92186 0.29536 0.77757 0.0
H1410 H 0.82714 0.30516 0.76807 0.0
H1411 H 0.86046 0.30347 0.77668 0.0
C1412 C 0.50991 0.21866 0.59948 0.0
C1413 C 0.50111 0.21939 0.61691 0.0
C1414 C 0.51023 0.20057 0.58924 0.0
C1415 C 0.49941 0.16086 0.56497 0.0
H1416 H 0.51305 0.11844 0.59488 0.0
C1417 C 0.49745 0.08239 0.5288 0.0
C1418 C 0.51327 0.07372 0.53425 0.0
C1419 C 0.49501 0.09979 0.53903 0.0
C1420 C 0.50926 0.13016 0.58633 0.0
H1421 H 0.48562 0.20168 0.63717 0.0
H1422 H 0.48626 0.17009 0.61928 0.0
H1423 H 0.51051 0.14972 0.61228 0.0
H1424 H 0.53888 0.07624 0.55463 0.0
H1425 H 0.53468 0.1067 0.57251 0.0
H1426 H 0.49845 0.14141 0.53901 0.0
C1427 C 0.49297 0.18353 0.61362 0.0
C1428 C 0.50763 0.148 0.5963 0.0
C1429 C 0.49252 0.20163 0.62379 0.0
C1430 C 0.52656 0.08265 0.55015 0.0
C1431 C 0.52407 0.09999 0.56045 0.0
C1432 C 0.5009 0.14297 0.55501 0.0
C1433 C 0.50189 0.1828 0.59626 0.0
C1434 C 0.50284 0.16359 0.58571 0.0
C1435 C 0.50832 0.10879 0.55495 0.0
C1436 C 0.506 0.12749 0.56558 0.0
H1437 H 0.51665 0.23206 0.59377 0.0
H1438 H 0.51738 0.20048 0.57602 0.0
H1439 H 0.49554 0.17255 0.55643 0.0
H1440 H 0.48702 0.0758 0.51655 0.0
H1441 H 0.48265 0.10613 0.53457 0.0
C1442 C 0.57567 0.78527 0.32733 0.0
C1443 C 0.5774 0.79749 0.34495 0.0
C1444 C 0.59153 0.78398 0.31742 0.0
C1445 C 0.63986 0.81008 0.31225 0.0
H1446 H 0.64734 0.75849 0.29233 0.0
C1447 C 0.70961 0.79774 0.28241 0.0
C1448 C 0.70812 0.7842 0.26584 0.0
C1449 C 0.69364 0.79959 0.29195 0.0
C1450 C 0.64536 0.77304 0.29757 0.0
H1451 H 0.59715 0.81815 0.36582 0.0
H1452 H 0.6248 0.81588 0.34853 0.0
H1453 H 0.61943 0.76144 0.3089 0.0
H1454 H 0.68879 0.7623 0.24593 0.0
H1455 H 0.66081 0.76579 0.26226 0.0
H1456 H 0.66573 0.82171 0.30084 0.0
C1457 C 0.61115 0.80738 0.34232 0.0
C1458 C 0.62935 0.77472 0.30708 0.0
C1459 C 0.59531 0.8086 0.35228 0.0
C1460 C 0.69035 0.77278 0.25876 0.0
C1461 C 0.67436 0.77468 0.26822 0.0
C1462 C 0.65584 0.80841 0.30266 0.0
C1463 C 0.60947 0.79496 0.32484 0.0
C1464 C 0.62642 0.79325 0.31455 0.0
C1465 C 0.67581 0.78805 0.285 0.0
C1466 C 0.6588 0.78987 0.29521 0.0
H1467 H 0.56208 0.77654 0.32124 0.0
H1468 H 0.58972 0.77447 0.30385 0.0
H1469 H 0.63788 0.82459 0.31761 0.0
H1470 H 0.72313 0.80688 0.28805 0.0
H1471 H 0.69534 0.80987 0.30495 0.0
C1472 C 0.04113 0.2253 0.46324 0.0
C1473 C 0.02865 0.22733 0.44657 0.0
C1474 C 0.03784 0.20855 0.47379 0.0
C1475 C 0.01233 0.15701 0.46822 0.0
H1476 H 0.01993 0.16121 0.52557 0.0
C1477 C 0.99021 0.09055 0.51255 0.0
C1478 C 0.00389 0.08734 0.52755 0.0
C1479 C 0.99247 0.10827 0.50356 0.0
C1480 C 0.01786 0.15983 0.50955 0.0
H1481 H 0.00276 0.21357 0.42807 0.0
H1482 H 0.99695 0.18465 0.44654 0.0
H1483 H 0.02586 0.19097 0.50792 0.0
H1484 H 0.03012 0.10026 0.54574 0.0
H1485 H 0.03407 0.13132 0.5301 0.0
H1486 H 0.00435 0.12591 0.46981 0.0
C1487 C 0.00946 0.19576 0.45129 0.0
C1488 C 0.02131 0.17683 0.49945 0.0
C1489 C 0.01276 0.21241 0.44076 0.0
C1490 C 0.01938 0.10243 0.53415 0.0
C1491 C 0.02162 0.12019 0.52524 0.0
C1492 C 0.00883 0.14005 0.47829 0.0
C1493 C 0.022 0.19357 0.46785 0.0
C1494 C 0.01856 0.17559 0.47867 0.0
C1495 C 0.00837 0.12314 0.5096 0.0
C1496 C 0.01157 0.14128 0.49905 0.0
H1497 H 0.0535 0.23655 0.46808 0.0
H1498 H 0.04786 0.20719 0.48638 0.0
H1499 H 0.01041 0.15552 0.45219 0.0
H1500 H 0.97788 0.07928 0.50765 0.0
H1501 H 0.98184 0.1103 0.49179 0.0
C1502 C 0.53609 0.27583 0.1536 0.0
C1503 C 0.53814 0.28628 0.13668 0.0
C1504 C 0.55184 0.27525 0.16717 0.0
C1505 C 0.60022 0.30167 0.18414 0.0
H1506 H 0.60864 0.25145 0.20227 0.0
C1507 C 0.67327 0.28879 0.21591 0.0
C1508 C 0.67458 0.27649 0.23139 0.0
C1509 C 0.65561 0.29115 0.20702 0.0
C1510 C 0.60631 0.26565 0.19767 0.0
H1511 H 0.55827 0.30428 0.1207 0.0
H1512 H 0.58577 0.30317 0.14435 0.0
H1513 H 0.57951 0.2531 0.18125 0.0
H1514 H 0.65865 0.25744 0.25022 0.0
H1515 H 0.62751 0.2616 0.23463 0.0
H1516 H 0.62713 0.31418 0.20026 0.0
C1517 C 0.57195 0.2956 0.1472 0.0
C1518 C 0.58967 0.26658 0.18559 0.0
C1519 C 0.55623 0.2961 0.13358 0.0
C1520 C 0.65794 0.26694 0.23823 0.0
C1521 C 0.64019 0.26927 0.22927 0.0
C1522 C 0.61681 0.30076 0.19627 0.0
C1523 C 0.5699 0.28521 0.16414 0.0
C1524 C 0.58668 0.28452 0.17836 0.0
C1525 C 0.63887 0.28125 0.21344 0.0
C1526 C 0.62023 0.28266 0.20278 0.0
H1527 H 0.52231 0.26813 0.15642 0.0
H1528 H 0.54986 0.26722 0.18016 0.0
H1529 H 0.59808 0.31577 0.17909 0.0
H1530 H 0.68593 0.29634 0.2104 0.0
H1531 H 0.65508 0.30023 0.19467 0.0
C1532 C 0.53399 0.83042 0.95281 0.0
C1533 C 0.51553 0.81926 0.94914 0.0
C1534 C 0.53752 0.84821 0.96464 0.0
C1535 C 0.51788 0.87703 0.00214 0.0
H1536 H 0.5442 0.92246 0.9793 0.0
C1537 C 0.50691 0.9558 0.02109 0.0
C1538 C 0.5216 0.97177 0.01972 0.0
C1539 C 0.50946 0.9365 0.01678 0.0
C1540 C 0.53725 0.90992 0.98621 0.0
H1541 H 0.48639 0.81774 0.95535 0.0
H1542 H 0.49256 0.84881 0.97595 0.0
H1543 H 0.54243 0.88964 0.96327 0.0
H1544 H 0.55101 0.97992 0.01428 0.0
H1545 H 0.55554 0.94615 0.00709 0.0
H1546 H 0.51232 0.89736 0.02485 0.0
C1547 C 0.50431 0.84373 0.96979 0.0
C1548 C 0.53617 0.8911 0.97695 0.0
C1549 C 0.50075 0.82603 0.95784 0.0
C1550 C 0.53932 0.96796 0.01526 0.0
C1551 C 0.5419 0.94861 0.01104 0.0
C1552 C 0.51908 0.89585 0.0115 0.0
C1553 C 0.52269 0.85506 0.97316 0.0
C1554 C 0.52602 0.87456 0.98451 0.0
C1555 C 0.5268 0.93271 0.01112 0.0
C1556 C 0.52828 0.91256 0.0033 0.0
H1557 H 0.5457 0.82554 0.94635 0.0
H1558 H 0.55183 0.85664 0.96708 0.0
H1559 H 0.51023 0.86445 0.00844 0.0
H1560 H 0.49309 0.95817 0.02455 0.0
H1561 H 0.49744 0.92466 0.01679 0.0
C1562 C 0.94058 0.76725 0.67171 0.0
C1563 C 0.95248 0.78331 0.66524 0.0
C1564 C 0.92997 0.77005 0.68733 0.0
C1565 C 0.90917 0.80812 0.71247 0.0
H1566 H 0.89788 0.76768 0.74863 0.0
C1567 C 0.85001 0.80966 0.76262 0.0
C1568 C 0.83652 0.79218 0.75907 0.0
C1569 C 0.86812 0.81031 0.75665 0.0
C1570 C 0.90107 0.7792 0.73877 0.0
H1571 H 0.96298 0.81484 0.67039 0.0
H1572 H 0.94454 0.81966 0.69773 0.0
H1573 H 0.9225 0.76564 0.7269 0.0
H1574 H 0.8315 0.76141 0.74798 0.0
H1575 H 0.86299 0.76245 0.73776 0.0
H1576 H 0.88723 0.82124 0.7238 0.0
C1577 C 0.94323 0.80496 0.69057 0.0
C1578 C 0.91505 0.77797 0.72625 0.0
C1579 C 0.95379 0.80217 0.6749 0.0
C1580 C 0.84168 0.77509 0.75075 0.0
C1581 C 0.85976 0.77565 0.74507 0.0
C1582 C 0.89525 0.80938 0.72505 0.0
C1583 C 0.93111 0.78894 0.69687 0.0
C1584 C 0.91872 0.79201 0.71243 0.0
C1585 C 0.87297 0.79339 0.74739 0.0
C1586 C 0.89057 0.79452 0.73776 0.0
H1587 H 0.93927 0.75253 0.66459 0.0
H1588 H 0.9205 0.75745 0.69156 0.0
H1589 H 0.91156 0.8191 0.70191 0.0
H1590 H 0.84628 0.823 0.76905 0.0
H1591 H 0.87809 0.82414 0.75864 0.0
C1592 C 0.08895 0.01604 0.82415 0.0
C1593 C 0.10294 0.0042 0.82366 0.0
C1594 C 0.07758 0.01547 0.83953 0.0
C1595 C 0.06049 0.98566 0.87923 0.0
H1596 H 0.05242 0.03591 0.90216 0.0
C1597 C 0.02969 0.99626 0.95376 0.0
C1598 C 0.01854 0.01095 0.95555 0.0
C1599 C 0.03803 0.99335 0.93643 0.0
C1600 C 0.05423 0.02171 0.89573 0.0
H1601 H 0.11582 0.98227 0.8388 0.0
H1602 H 0.09601 0.98146 0.86589 0.0
H1603 H 0.07126 0.03513 0.87469 0.0
H1604 H 0.00608 0.03296 0.94012 0.0
H1605 H 0.02019 0.02754 0.90977 0.0
H1606 H 0.04351 0.9723 0.90052 0.0
C1607 C 0.09376 0.99103 0.85422 0.0
C1608 C 0.0651 0.02128 0.88 0.0
C1609 C 0.10518 0.99161 0.8388 0.0
C1610 C 0.01482 0.02171 0.93926 0.0
C1611 C 0.02299 0.01868 0.92192 0.0
C1612 C 0.04954 0.98609 0.89501 0.0
C1613 C 0.07993 0.00308 0.85481 0.0
C1614 C 0.06834 0.00327 0.87155 0.0
C1615 C 0.03525 0.005 0.92057 0.0
C1616 C 0.04627 0.00414 0.90339 0.0
H1617 H 0.08674 0.0258 0.81265 0.0
H1618 H 0.06686 0.02472 0.83942 0.0
H1619 H 0.06262 0.97154 0.87289 0.0
H1620 H 0.0329 0.98782 0.96614 0.0
H1621 H 0.04746 0.98275 0.9359 0.0
C1622 C 0.74308 0.34841 0.56181 0.0
C1623 C 0.73199 0.36328 0.56157 0.0
C1624 C 0.74656 0.33901 0.57902 0.0
C1625 C 0.74792 0.34591 0.63319 0.0
H1626 H 0.74528 0.28925 0.63074 0.0
C1627 C 0.74882 0.30295 0.70303 0.0
C1628 C 0.7582 0.28675 0.70343 0.0
C1629 C 0.74676 0.31273 0.68584 0.0
C1630 C 0.74638 0.30512 0.63167 0.0
H1631 H 0.71566 0.37977 0.57919 0.0
H1632 H 0.7217 0.36329 0.60922 0.0
H1633 H 0.7389 0.30511 0.60045 0.0
H1634 H 0.77322 0.26834 0.68639 0.0
H1635 H 0.76989 0.28559 0.65633 0.0
H1636 H 0.75547 0.34598 0.66438 0.0
C1637 C 0.72784 0.35904 0.59613 0.0
C1638 C 0.74265 0.3142 0.6143 0.0
C1639 C 0.72427 0.36838 0.57887 0.0
C1640 C 0.76587 0.28076 0.68645 0.0
C1641 C 0.76384 0.29056 0.66921 0.0
C1642 C 0.75173 0.33685 0.65055 0.0
C1643 C 0.73912 0.34432 0.59643 0.0
C1644 C 0.74326 0.33468 0.61487 0.0
C1645 C 0.75407 0.30654 0.66864 0.0
C1646 C 0.75089 0.31632 0.65004 0.0
H1647 H 0.74927 0.34414 0.54875 0.0
H1648 H 0.75544 0.32786 0.57881 0.0
H1649 H 0.74883 0.36177 0.63409 0.0
H1650 H 0.74262 0.30781 0.71587 0.0
H1651 H 0.73893 0.32477 0.68589 0.0
C1652 C 0.4182 0.0718 0.31098 0.0
C1653 C 0.42039 0.05828 0.29547 0.0
C1654 C 0.42677 0.07075 0.33014 0.0
C1655 C 0.46508 0.05218 0.35874 0.0
H1656 H 0.43289 0.05162 0.40098 0.0
C1657 C 0.48838 0.02996 0.43651 0.0
C1658 C 0.4822 0.03917 0.45297 0.0
C1659 C 0.48173 0.03351 0.41732 0.0
C1660 C 0.44222 0.05211 0.38948 0.0
H1661 H 0.43379 0.03348 0.28776 0.0
H1662 H 0.44896 0.03184 0.32121 0.0
H1663 H 0.42005 0.05608 0.36746 0.0
H1664 H 0.46466 0.05981 0.46224 0.0
H1665 H 0.45356 0.06653 0.42884 0.0
H1666 H 0.48734 0.04848 0.38071 0.0
C1667 C 0.44055 0.04319 0.31852 0.0
C1668 C 0.43481 0.0546 0.37024 0.0
C1669 C 0.43179 0.04407 0.2994 0.0
C1670 C 0.46957 0.05235 0.44985 0.0
C1671 C 0.46311 0.0561 0.43067 0.0
C1672 C 0.47258 0.04993 0.37804 0.0
C1673 C 0.4379 0.05633 0.33413 0.0
C1674 C 0.44611 0.05451 0.35465 0.0
C1675 C 0.46891 0.04654 0.41412 0.0
C1676 C 0.46121 0.04971 0.39366 0.0
H1677 H 0.40951 0.08293 0.30844 0.0
H1678 H 0.42463 0.08117 0.34187 0.0
H1679 H 0.47415 0.05225 0.34702 0.0
H1680 H 0.49798 0.01958 0.43842 0.0
H1681 H 0.48629 0.02561 0.405 0.0
C1682 C 0.77161 0.69951 0.05463 0.0
C1683 C 0.78618 0.70208 0.04234 0.0
C1684 C 0.76972 0.71468 0.06826 0.0
C1685 C 0.76328 0.75094 0.09085 0.0
H1686 H 0.80886 0.77339 0.12581 0.0
C1687 C 0.75742 0.78468 0.16799 0.0
C1688 C 0.76842 0.777 0.18272 0.0
C1689 C 0.76127 0.78308 0.14834 0.0
C1690 C 0.79601 0.76739 0.1161 0.0
H1691 H 0.80997 0.72274 0.03438 0.0
H1692 H 0.80668 0.74939 0.05848 0.0
H1693 H 0.81146 0.75527 0.0947 0.0
H1694 H 0.79266 0.76272 0.18893 0.0
H1695 H 0.799 0.75928 0.15478 0.0
H1696 H 0.7477 0.76135 0.11296 0.0
C1697 C 0.79678 0.73555 0.0575 0.0
C1698 C 0.79752 0.7572 0.09816 0.0
C1699 C 0.79868 0.72029 0.04377 0.0
C1700 C 0.78388 0.76863 0.17777 0.0
C1701 C 0.78766 0.76692 0.15819 0.0
C1702 C 0.76176 0.76092 0.10885 0.0
C1703 C 0.7823 0.73284 0.06993 0.0
C1704 C 0.78109 0.74795 0.0859 0.0
C1705 C 0.77613 0.77368 0.14315 0.0
C1706 C 0.77806 0.7683 0.12215 0.0
H1707 H 0.76173 0.68567 0.05392 0.0
H1708 H 0.7587 0.71191 0.07794 0.0
H1709 H 0.7504 0.74437 0.08142 0.0
H1710 H 0.74555 0.79144 0.17156 0.0
H1711 H 0.75228 0.78866 0.13714 0.0
C1712 C 0.08897 0.95839 0.72311 0.0
C1713 C 0.09637 0.97599 0.73494 0.0
C1714 C 0.07503 0.95815 0.70716 0.0
C1715 C 0.03966 0.98634 0.68602 0.0
H1716 H 0.05231 0.96742 0.63522 0.0
C1717 C 0.01902 0.01939 0.61421 0.0
C1718 C 0.01545 0.00752 0.59633 0.0
C1719 C 0.02425 0.01146 0.63181 0.0
C1720 C 0.04824 0.97234 0.64928 0.0
H1721 H 0.09446 0.00691 0.73985 0.0
H1722 H 0.07026 0.00646 0.71216 0.0
H1723 H 0.07013 0.96049 0.6655 0.0
H1724 H 0.01349 0.97795 0.58272 0.0
H1725 H 0.02261 0.96393 0.61358 0.0
H1726 H 0.01826 -0.00115 0.6698 0.0
C1727 C 0.07512 0.99284 0.7152 0.0
C1728 C 0.05847 0.96837 0.66663 0.0
C1729 C 0.08915 0.99314 0.73094 0.0
C1730 C 0.01636 0.98739 0.59637 0.0
C1731 C 0.0216 0.97942 0.614 0.0
C1732 C 0.02937 0.99023 0.66869 0.0
C1733 C 0.06809 0.97542 0.70299 0.0
C1734 C 0.05477 0.97601 0.68511 0.0
C1735 C 0.02596 0.99147 0.63185 0.0
C1736 C 0.03407 0.98396 0.65012 0.0
H1737 H 0.09424 0.94494 0.72589 0.0
H1738 H 0.06981 0.94453 0.69796 0.0
H1739 H 0.03631 0.9921 0.70012 0.0
H1740 H 0.01839 0.03497 0.61452 0.0
H1741 H 0.0278 0.02123 0.64523 0.0
C1742 C 0.71276 0.35979 0.45877 0.0
C1743 C 0.71986 0.38018 0.4601 0.0
C1744 C 0.71399 0.34785 0.44173 0.0
C1745 C 0.74204 0.34621 0.39976 0.0
H1746 H 0.70018 0.30595 0.37551 0.0
C1747 C 0.75111 0.29169 0.33553 0.0
C1748 C 0.73711 0.28919 0.31913 0.0
C1749 C 0.74834 0.30127 0.35338 0.0
C1750 C 0.71198 0.31715 0.38211 0.0
H1751 H 0.73343 0.40406 0.44434 0.0
H1752 H 0.73556 0.38329 0.41477 0.0
H1753 H 0.69633 0.32614 0.40514 0.0
H1754 H 0.70891 0.29428 0.30897 0.0
H1755 H 0.70412 0.31094 0.34015 0.0
H1756 H 0.75763 0.33749 0.3767 0.0
C1757 C 0.72921 0.37649 0.42695 0.0
C1758 C 0.70982 0.3286 0.39915 0.0
C1759 C 0.72787 0.38841 0.44388 0.0
C1760 C 0.72001 0.29591 0.32127 0.0
C1761 C 0.7172 0.3054 0.33918 0.0
C1762 C 0.74425 0.33469 0.38287 0.0
C1763 C 0.72248 0.35605 0.42575 0.0
C1764 C 0.72479 0.34339 0.40804 0.0
C1765 C 0.73148 0.3085 0.35532 0.0
C1766 C 0.72922 0.32011 0.37377 0.0
H1767 H 0.7065 0.35298 0.47101 0.0
H1768 H 0.70876 0.33214 0.44128 0.0
H1769 H 0.75391 0.35733 0.40639 0.0
H1770 H 0.76445 0.28668 0.33448 0.0
H1771 H 0.75951 0.3032 0.36564 0.0
C1772 C 0.41841 0.06857 0.18657 0.0
C1773 C 0.42863 0.07145 0.20554 0.0
C1774 C 0.42755 0.06547 0.16983 0.0
C1775 C 0.47532 0.07159 0.15262 0.0
H1776 H 0.44939 0.03443 0.10931 0.0
C1777 C 0.5065 0.06436 0.07877 0.0
C1778 C 0.50467 0.04543 0.06922 0.0
C1779 C 0.49679 0.06742 0.09506 0.0
C1780 C 0.45691 0.04472 0.12135 0.0
H1781 H 0.45647 0.07324 0.22182 0.0
H1782 H 0.47233 0.06741 0.19274 0.0
H1783 H 0.43362 0.03972 0.13861 0.0
H1784 H 0.49148 0.01478 0.06916 0.0
H1785 H 0.47467 0.01999 0.09789 0.0
H1786 H 0.49885 0.0761 0.13571 0.0
C1787 C 0.45732 0.06796 0.19069 0.0
C1788 C 0.44776 0.04797 0.13805 0.0
C1789 C 0.4482 0.07122 0.20741 0.0
C1790 C 0.49291 0.02957 0.07615 0.0
C1791 C 0.48328 0.03259 0.09258 0.0
C1792 C 0.4845 0.06825 0.136 0.0
C1793 C 0.44711 0.06502 0.17168 0.0
C1794 C 0.45683 0.06149 0.15389 0.0
C1795 C 0.48519 0.05156 0.10231 0.0
C1796 C 0.4754 0.05484 0.1201 0.0
H1797 H 0.40332 0.06874 0.18461 0.0
H1798 H 0.4193 0.0636 0.15543 0.0
H1799 H 0.48268 0.08227 0.1644 0.0
H1800 H 0.51536 0.07687 0.07358 0.0
H1801 H 0.49831 0.08228 0.10188 0.0
C1802 C 0.77236 0.70915 0.9668 0.0
C1803 C 0.77465 0.68954 0.96315 0.0
C1804 C 0.77584 0.7226 0.95265 0.0
C1805 C 0.7696 0.74333 0.91598 0.0
H1806 H 0.80421 0.73836 0.87681 0.0
C1807 C 0.75604 0.76704 0.83835 0.0
C1808 C 0.77122 0.77361 0.82762 0.0
C1809 C 0.75939 0.76088 0.85721 0.0
C1810 C 0.79475 0.74029 0.88784 0.0
H1811 H 0.78285 0.6686 0.94224 0.0
H1812 H 0.78786 0.69174 0.91688 0.0
H1813 H 0.80586 0.71977 0.90589 0.0
H1814 H 0.80193 0.77989 0.82875 0.0
H1815 H 0.8078 0.76941 0.86203 0.0
H1816 H 0.7587 0.76405 0.89816 0.0
C1817 C 0.784 0.69701 0.93091 0.0
C1818 C 0.79547 0.72935 0.90436 0.0
C1819 C 0.78094 0.68366 0.94532 0.0
C1820 C 0.78991 0.77479 0.83659 0.0
C1821 C 0.79328 0.76869 0.8556 0.0
C1822 C 0.76909 0.75447 0.89967 0.0
C1823 C 0.78122 0.7166 0.9343 0.0
C1824 C 0.78246 0.73023 0.91828 0.0
C1825 C 0.77801 0.7613 0.86595 0.0
C1826 C 0.78114 0.7525 0.88502 0.0
H1827 H 0.76793 0.71415 0.98067 0.0
H1828 H 0.77407 0.73765 0.95604 0.0
H1829 H 0.75923 0.74435 0.92623 0.0
H1830 H 0.74145 0.76595 0.83197 0.0
H1831 H 0.74726 0.75496 0.86456 0.0
C1832 C 0.86679 0.14544 0.00737 0.0
C1833 C 0.84744 0.1375 0.00216 0.0
C1834 C 0.88047 0.13332 0.00705 0.0
C1835 C 0.88563 0.08115 0.00904 0.0
H1836 H 0.93474 0.09925 0.99144 0.0
C1837 C 0.94764 0.03931 0.02286 0.0
C1838 C 0.95918 0.03768 0.0077 0.0
C1839 C 0.93411 0.05155 0.02152 0.0
C1840 C 0.92103 0.09391 0.99624 0.0
H1841 H 0.82734 0.11064 0.99216 0.0
H1842 H 0.85118 0.08961 0.9914 0.0
H1843 H 0.91084 0.12042 0.98973 0.0
H1844 H 0.96531 0.04694 0.97898 0.0
H1845 H 0.94162 0.06848 0.97656 0.0
H1846 H 0.89564 0.05455 0.01528 0.0
C1847 C 0.85578 0.10513 0.99604 0.0
C1848 C 0.90741 0.10614 0.99548 0.0
C1849 C 0.84211 0.11723 0.99638 0.0
C1850 C 0.95682 0.0483 0.99104 0.0
C1851 C 0.94326 0.0606 0.98968 0.0
C1852 C 0.89922 0.06896 0.00981 0.0
C1853 C 0.87512 0.11299 0.00152 0.0
C1854 C 0.88956 0.09992 0.00192 0.0
C1855 C 0.93172 0.06233 0.00491 0.0
C1856 C 0.91713 0.07521 0.00353 0.0
H1857 H 0.87139 0.16099 0.01192 0.0
H1858 H 0.8952 0.13983 0.01158 0.0
H1859 H 0.87213 0.07597 0.01434 0.0
H1860 H 0.94926 0.03132 0.03593 0.0
H1861 H 0.92568 0.05276 0.03366 0.0
C1862 C 0.31108 0.42579 0.03918 0.0
C1863 C 0.29685 0.42827 0.02433 0.0
C1864 C 0.32983 0.43518 0.03883 0.0
C1865 C 0.36294 0.45699 0.00541 0.0
H1866 H 0.39199 0.48339 0.05369 0.0
C1867 C 0.43656 0.50599 0.00599 0.0
C1868 C 0.45043 0.50473 0.0217 0.0
C1869 C 0.41779 0.49659 0.00619 0.0
C1870 C 0.38416 0.47588 0.04013 0.0
H1871 H 0.29109 0.44252 0.99745 0.0
H1872 H 0.32385 0.4589 0.99688 0.0
H1873 H 0.35925 0.46703 0.05433 0.0
H1874 H 0.45552 0.49227 0.04979 0.0
H1875 H 0.4229 0.47565 0.04996 0.0
H1876 H 0.38787 0.46566 0.99123 0.0
C1877 C 0.3205 0.4496 0.0087 0.0
C1878 C 0.36541 0.46654 0.04051 0.0
C1879 C 0.30174 0.44031 0.00911 0.0
C1880 C 0.44516 0.49371 0.03753 0.0
C1881 C 0.42643 0.48424 0.03768 0.0
C1882 C 0.38173 0.46625 0.00505 0.0
C1883 C 0.33472 0.44714 0.02357 0.0
C1884 C 0.35462 0.45702 0.02315 0.0
C1885 C 0.41251 0.48564 0.02207 0.0
C1886 C 0.39254 0.4758 0.02241 0.0
H1887 H 0.30777 0.4166 0.05109 0.0
H1888 H 0.34055 0.43287 0.05037 0.0
H1889 H 0.35502 0.44953 0.99187 0.0
H1890 H 0.44011 0.51441 0.9936 0.0
H1891 H 0.40735 0.49816 0.99406 0.0
C1892 C 0.3443 0.6104 0.78148 0.0
C1893 C 0.34495 0.59921 0.7637 0.0
C1894 C 0.33363 0.62545 0.78185 0.0
C1895 C 0.2936 0.64276 0.75492 0.0
H1896 H 0.31599 0.69345 0.7828 0.0
C1897 C 0.259 0.71166 0.74747 0.0
C1898 C 0.26021 0.72463 0.7644 0.0
C1899 C 0.26885 0.69593 0.74778 0.0
C1900 C 0.30942 0.67931 0.77519 0.0
H1901 H 0.33475 0.59492 0.73238 0.0
H1902 H 0.31604 0.62119 0.73308 0.0
H1903 H 0.33416 0.66676 0.78261 0.0
H1904 H 0.2718 0.73102 0.79515 0.0
H1905 H 0.2889 0.70339 0.79585 0.0
H1906 H 0.26882 0.6552 0.74759 0.0
C1907 C 0.32375 0.61823 0.74673 0.0
C1908 C 0.31985 0.66404 0.77505 0.0
C1909 C 0.33454 0.60327 0.74632 0.0
C1910 C 0.27092 0.72134 0.78183 0.0
C1911 C 0.28074 0.70559 0.78218 0.0
C1912 C 0.28312 0.65798 0.75515 0.0
C1913 C 0.32326 0.62953 0.76448 0.0
C1914 C 0.31208 0.64564 0.76485 0.0
C1915 C 0.27997 0.6928 0.7651 0.0
C1916 C 0.29093 0.67646 0.76522 0.0
H1917 H 0.35216 0.60764 0.79513 0.0
H1918 H 0.33335 0.63379 0.79578 0.0
H1919 H 0.28716 0.62864 0.74716 0.0
H1920 H 0.25084 0.71397 0.73383 0.0
H1921 H 0.26812 0.68653 0.73429 0.0
C1922 C 0.23074 0.62355 0.50416 0.0
C1923 C 0.23374 0.64178 0.49586 0.0
C1924 C 0.21236 0.61281 0.50393 0.0
C1925 C 0.16197 0.6193 0.49815 0.0
H1926 H 0.15158 0.5621 0.49245 0.0
C1927 C 0.08587 0.57493 0.48768 0.0
C1928 C 0.08214 0.55986 0.50038 0.0
C1929 C 0.10452 0.58393 0.48614 0.0
C1930 C 0.15433 0.57807 0.49414 0.0
H1931 H 0.21991 0.66271 0.48018 0.0
H1932 H 0.18801 0.64377 0.47918 0.0
H1933 H 0.18389 0.57978 0.49131 0.0
H1934 H 0.09486 0.54184 0.52087 0.0
H1935 H 0.12762 0.55746 0.51798 0.0
H1936 H 0.13236 0.61755 0.50065 0.0
C1937 C 0.19972 0.63799 0.48645 0.0
C1938 C 0.17283 0.58823 0.49358 0.0
C1939 C 0.21805 0.64882 0.4869 0.0
C1940 C 0.09739 0.55345 0.51099 0.0
C1941 C 0.1161 0.56233 0.50928 0.0
C1942 C 0.14349 0.60917 0.49847 0.0
C1943 C 0.19658 0.61996 0.4952 0.0
C1944 C 0.1769 0.60899 0.49559 0.0
C1945 C 0.11981 0.5779 0.49711 0.0
C1946 C 0.13947 0.58846 0.49649 0.0
H1947 H 0.24256 0.61777 0.51124 0.0
H1948 H 0.21051 0.59913 0.51103 0.0
H1949 H 0.16458 0.63525 0.50023 0.0
H1950 H 0.07435 0.58011 0.47929 0.0
H1951 H 0.10699 0.59575 0.47648 0.0
C1952 C 0.65664 0.94186 0.77195 0.0
C1953 C 0.64138 0.93824 0.78331 0.0
C1954 C 0.66921 0.92866 0.7708 0.0
C1955 C 0.6738 0.87707 0.77813 0.0
H1956 H 0.72755 0.89755 0.77871 0.0
C1957 C 0.73079 0.82752 0.78394 0.0
C1958 C 0.74526 0.83113 0.77164 0.0
C1959 C 0.71795 0.84042 0.78543 0.0
C1960 C 0.71256 0.8916 0.77832 0.0
H1961 H 0.62739 0.91789 0.80244 0.0
H1962 H 0.64953 0.89494 0.80066 0.0
H1963 H 0.70549 0.92036 0.78158 0.0
H1964 H 0.75787 0.85098 0.75134 0.0
H1965 H 0.73547 0.87365 0.75396 0.0
H1966 H 0.68096 0.84829 0.77499 0.0
C1967 C 0.6516 0.90788 0.79241 0.0
C1968 C 0.69991 0.90467 0.77996 0.0
C1969 C 0.63898 0.92109 0.79352 0.0
C1970 C 0.74684 0.84793 0.76097 0.0
C1971 C 0.73406 0.8609 0.76253 0.0
C1972 C 0.68648 0.86399 0.77656 0.0
C1973 C 0.66688 0.91153 0.78104 0.0
C1974 C 0.68036 0.89757 0.77978 0.0
C1975 C 0.71947 0.85728 0.77477 0.0
C1976 C 0.70599 0.87113 0.77655 0.0
H1977 H 0.65887 0.95487 0.7638 0.0
H1978 H 0.68063 0.93177 0.76165 0.0
H1979 H 0.65881 0.87111 0.77766 0.0
H1980 H 0.72949 0.81484 0.79259 0.0
H1981 H 0.70705 0.83737 0.7952 0.0
C1982 C 0.66878 0.91881 0.48394 0.0
C1983 C 0.68712 0.92748 0.49258 0.0
C1984 C 0.65578 0.93057 0.47764 0.0
C1985 C 0.64565 0.97995 0.48864 0.0
H1986 H 0.60546 0.96338 0.44541 0.0
C1987 C 0.58185 0.01866 0.48113 0.0
C1988 C 0.56466 0.00537 0.48048 0.0
C1989 C 0.59826 0.01187 0.47684 0.0
C1990 C 0.61669 0.96826 0.45743 0.0
H1991 H 0.70661 0.95523 0.50037 0.0
H1992 H 0.684 0.97575 0.48908 0.0
H1993 H 0.63238 0.94612 0.44881 0.0
H1994 H 0.55062 0.97497 0.47345 0.0
H1995 H 0.57927 0.96304 0.46618 0.0
H1996 H 0.62971 0.00154 0.49775 0.0
C1997 C 0.67952 0.95988 0.48758 0.0
C1998 C 0.63204 0.95836 0.45943 0.0
C1999 C 0.69247 0.94812 0.49403 0.0
C2000 C 0.56378 0.98548 0.47416 0.0
C2001 C 0.58015 0.97869 0.46983 0.0
C2002 C 0.63039 0.98988 0.48659 0.0
C2003 C 0.6609 0.95126 0.4797 0.0
C2004 C 0.64636 0.96368 0.47545 0.0
C2005 C 0.59769 0.9917 0.4718 0.0
C2006 C 0.61544 0.98372 0.47137 0.0
H2007 H 0.66426 0.90294 0.48258 0.0
H2008 H 0.64147 0.92345 0.47192 0.0
H2009 H 0.65628 0.98429 0.5013 0.0
H2010 H 0.5828 0.03412 0.48582 0.0
H2011 H 0.61156 0.02224 0.47825 0.0
C2012 C 0.34197 0.48976 0.75761 0.0
C2013 C 0.35496 0.49241 0.74353 0.0
C2014 C 0.33311 0.47081 0.76109 0.0
C2015 C 0.33847 0.41844 0.75416 0.0
H2016 H 0.28549 0.40741 0.76314 0.0
C2017 C 0.29537 0.33993 0.74771 0.0
C2018 C 0.28357 0.33456 0.7624 0.0
C2019 C 0.30418 0.35946 0.74708 0.0
C2020 C 0.30036 0.41035 0.76091 0.0
H2021 H 0.36843 0.47727 0.72171 0.0
H2022 H 0.35271 0.44435 0.72741 0.0
H2023 H 0.30039 0.4411 0.75829 0.0
H2024 H 0.27174 0.34556 0.78795 0.0
H2025 H 0.28711 0.37999 0.78667 0.0
H2026 H 0.33829 0.38764 0.75626 0.0
C2027 C 0.34969 0.45684 0.73615 0.0
C2028 C 0.30891 0.42963 0.75814 0.0
C2029 C 0.35862 0.47575 0.73277 0.0
C2030 C 0.28077 0.34924 0.77648 0.0
C2031 C 0.28947 0.36892 0.77569 0.0
C2032 C 0.3299 0.39921 0.75678 0.0
C2033 C 0.33699 0.4541 0.75051 0.0
C2034 C 0.32801 0.43385 0.75445 0.0
C2035 C 0.30134 0.37418 0.76102 0.0
C2036 C 0.3107 0.3949 0.75991 0.0
H2037 H 0.33888 0.5023 0.76621 0.0
H2038 H 0.32355 0.46925 0.77238 0.0
H2039 H 0.35333 0.42122 0.75187 0.0
H2040 H 0.2979 0.32901 0.73667 0.0
H2041 H 0.31306 0.3631 0.73545 0.0
C2042 C 0.16341 0.54842 0.27377 0.0
C2043 C 0.15416 0.54528 0.29077 0.0
C2044 C 0.1758 0.56606 0.27239 0.0
C2045 C 0.20355 0.61079 0.30163 0.0
H2046 H 0.19859 0.63379 0.25135 0.0
C2047 C 0.23072 0.69289 0.29118 0.0
C2048 C 0.238 0.69748 0.27338 0.0
C2049 C 0.22321 0.6734 0.29415 0.0
C2050 C 0.20042 0.62743 0.26539 0.0
H2051 H 0.15101 0.55804 0.31985 0.0
H2052 H 0.17235 0.5891 0.31726 0.0
H2053 H 0.18007 0.60159 0.25499 0.0
H2054 H 0.24412 0.68539 0.24518 0.0
H2055 H 0.23109 0.65125 0.25039 0.0
H2056 H 0.2236 0.63703 0.31211 0.0
C2057 C 0.17025 0.57776 0.30512 0.0
C2058 C 0.18978 0.60895 0.26749 0.0
C2059 C 0.15792 0.56001 0.30656 0.0
C2060 C 0.23848 0.68221 0.25898 0.0
C2061 C 0.23093 0.66272 0.26193 0.0
C2062 C 0.21418 0.62936 0.29954 0.0
C2063 C 0.17913 0.58109 0.2879 0.0
C2064 C 0.19112 0.60044 0.28566 0.0
C2065 C 0.2228 0.65816 0.27935 0.0
C2066 C 0.21263 0.63792 0.28141 0.0
H2067 H 0.16101 0.53727 0.26143 0.0
H2068 H 0.18269 0.56797 0.25908 0.0
H2069 H 0.2051 0.60453 0.31575 0.0
H2070 H 0.23026 0.70444 0.30254 0.0
H2071 H 0.21694 0.6704 0.30766 0.0
C2072 C 0.52165 0.73758 0.41042 0.0
C2073 C 0.50494 0.74384 0.40297 0.0
C2074 C 0.52081 0.72146 0.42192 0.0
C2075 C 0.49008 0.67578 0.43002 0.0
H2076 H 0.5226 0.67805 0.47941 0.0
C2077 C 0.48597 0.60879 0.47671 0.0
C2078 C 0.50312 0.60499 0.48599 0.0
C2079 C 0.48536 0.62658 0.46816 0.0
C2080 C 0.51358 0.67704 0.46553 0.0
H2081 H 0.47424 0.73814 0.40175 0.0
H2082 H 0.47278 0.7097 0.42152 0.0
H2083 H 0.52342 0.70743 0.46122 0.0
H2084 H 0.53303 0.61671 0.4939 0.0
H2085 H 0.53223 0.64741 0.47837 0.0
H2086 H 0.48075 0.6453 0.43371 0.0
C2087 C 0.48651 0.71738 0.41854 0.0
C2088 C 0.51401 0.69393 0.45518 0.0
C2089 C 0.48737 0.7337 0.40731 0.0
C2090 C 0.51959 0.61936 0.4869 0.0
C2091 C 0.51907 0.63702 0.47809 0.0
C2092 C 0.48985 0.65882 0.44019 0.0
C2093 C 0.50322 0.7111 0.42592 0.0
C2094 C 0.50232 0.69343 0.43729 0.0
C2095 C 0.50198 0.64082 0.46843 0.0
C2096 C 0.50166 0.65917 0.45806 0.0
H2097 H 0.53541 0.74513 0.40737 0.0
H2098 H 0.53389 0.71682 0.42731 0.0
H2099 H 0.48108 0.67494 0.41613 0.0
H2100 H 0.47302 0.59797 0.47596 0.0
H2101 H 0.47185 0.6291 0.46128 0.0
C2102 C 0.55436 0.27999 0.69969 0.0
C2103 C 0.54346 0.26085 0.69726 0.0
C2104 C 0.5729 0.28343 0.70925 0.0
C2105 C 0.60698 0.2614 0.74168 0.0
H2106 H 0.64469 0.29456 0.71595 0.0
C2107 C 0.6873 0.26006 0.75494 0.0
C2108 C 0.70022 0.27777 0.75451 0.0
C2109 C 0.66778 0.25946 0.75083 0.0
C2110 C 0.63434 0.28554 0.72356 0.0
H2111 H 0.54332 0.23043 0.70353 0.0
H2112 H 0.5757 0.23638 0.71997 0.0
H2113 H 0.61128 0.29085 0.70349 0.0
H2114 H 0.70259 0.30897 0.75041 0.0
H2115 H 0.66854 0.30795 0.74346 0.0
H2116 H 0.63018 0.25578 0.76149 0.0
C2117 C 0.56986 0.24879 0.71469 0.0
C2118 C 0.61514 0.2834 0.7164 0.0
C2119 C 0.55131 0.24535 0.70515 0.0
C2120 C 0.69309 0.29504 0.75074 0.0
C2121 C 0.67356 0.29444 0.74663 0.0
C2122 C 0.62621 0.26354 0.74885 0.0
C2123 C 0.58099 0.26781 0.71659 0.0
C2124 C 0.60124 0.27113 0.72521 0.0
C2125 C 0.66069 0.27656 0.74621 0.0
C2126 C 0.64013 0.27545 0.73972 0.0
H2127 H 0.54871 0.2923 0.6939 0.0
H2128 H 0.58097 0.29831 0.71073 0.0
H2129 H 0.59661 0.25207 0.74899 0.0
H2130 H 0.69227 0.24646 0.75781 0.0
H2131 H 0.6583 0.24541 0.75047 0.0
C2132 C 0.9925 0.34291 0.89891 0.0
C2133 C 0.00969 0.33657 0.89645 0.0
C2134 C 0.99227 0.36006 0.91074 0.0
C2135 C 0.02237 0.40663 0.93325 0.0
H2136 H 0.98009 0.40744 0.96404 0.0
C2137 C 0.01395 0.47342 0.9865 0.0
C2138 C 0.99598 0.47884 0.98377 0.0
C2139 C 0.01716 0.45599 0.97688 0.0
C2140 C 0.99196 0.40744 0.95548 0.0
H2141 H 0.04018 0.34334 0.90446 0.0
H2142 H 0.03975 0.37327 0.92551 0.0
H2143 H 0.98309 0.37693 0.94576 0.0
H2144 H 0.96734 0.47041 0.96893 0.0
H2145 H 0.97283 0.43988 0.95246 0.0
H2146 H 0.03118 0.43728 0.94321 0.0
C2147 C 0.02646 0.36505 0.91803 0.0
C2148 C 0.99366 0.38999 0.94494 0.0
C2149 C 0.0267 0.34786 0.90605 0.0
C2150 C 0.98131 0.46656 0.97135 0.0
C2151 C 0.98443 0.44906 0.96198 0.0
C2152 C 0.02075 0.4241 0.944 0.0
C2153 C 0.0092 0.37128 0.92059 0.0
C2154 C 0.00861 0.38946 0.93329 0.0
C2155 C 0.00235 0.44356 0.96469 0.0
C2156 C 0.00528 0.42475 0.95484 0.0
H2157 H 0.97915 0.33468 0.8916 0.0
H2158 H 0.97876 0.36463 0.91195 0.0
H2159 H 0.034 0.40678 0.92435 0.0
H2160 H 0.02545 0.48256 0.99617 0.0
H2161 H 0.03108 0.45202 0.97928 0.0
C2162 C 0.93762 0.77107 0.19553 0.0
C2163 C 0.936 0.75727 0.17911 0.0
C2164 C 0.92197 0.77252 0.20573 0.0
C2165 C 0.86951 0.76077 0.1996 0.0
H2166 H 0.87554 0.76972 0.2568 0.0
C2167 C 0.80545 0.75833 0.24442 0.0
C2168 C 0.80695 0.77312 0.25989 0.0
C2169 C 0.82124 0.75606 0.23477 0.0
C2170 C 0.87366 0.76741 0.24081 0.0
H2171 H 0.91672 0.73391 0.16076 0.0
H2172 H 0.88953 0.73626 0.17869 0.0
H2173 H 0.90303 0.76619 0.23968 0.0
H2174 H 0.8261 0.79683 0.27776 0.0
H2175 H 0.85376 0.79288 0.26095 0.0
H2176 H 0.84014 0.76199 0.20074 0.0
C2177 C 0.90282 0.7462 0.1835 0.0
C2178 C 0.88941 0.76539 0.23099 0.0
C2179 C 0.91845 0.74477 0.17329 0.0
C2180 C 0.82459 0.78532 0.26585 0.0
C2181 C 0.84041 0.783 0.25627 0.0
C2182 C 0.85375 0.76275 0.20942 0.0
C2183 C 0.90434 0.76018 0.19976 0.0
C2184 C 0.88754 0.76208 0.21026 0.0
C2185 C 0.8389 0.76841 0.24054 0.0
C2186 C 0.85565 0.76613 0.23014 0.0
H2187 H 0.95092 0.78097 0.20038 0.0
H2188 H 0.9236 0.7836 0.21805 0.0
H2189 H 0.86761 0.75856 0.18361 0.0
H2190 H 0.7921 0.74843 0.23985 0.0
H2191 H 0.81967 0.74446 0.22294 0.0
C2192 C 0.51021 0.35912 0.10687 0.0
C2193 C 0.49822 0.34251 0.09677 0.0
C2194 C 0.51486 0.37633 0.09736 0.0
C2195 C 0.51437 0.39497 0.04742 0.0
H2196 H 0.51463 0.44525 0.07623 0.0
C2197 C 0.50372 0.46548 0.01052 0.0
C2198 C 0.51501 0.48334 0.01867 0.0
C2199 C 0.50481 0.44811 0.0196 0.0
C2200 C 0.5149 0.43135 0.06809 0.0
H2201 H 0.48158 0.33086 0.06886 0.0
H2202 H 0.48917 0.36098 0.05248 0.0
H2203 H 0.51019 0.41523 0.09338 0.0
H2204 H 0.53721 0.49704 0.04175 0.0
H2205 H 0.53876 0.46668 0.05801 0.0
H2206 H 0.51826 0.41117 0.02193 0.0
C2207 C 0.49543 0.36063 0.06756 0.0
C2208 C 0.51239 0.41414 0.07791 0.0
C2209 C 0.49093 0.34341 0.07701 0.0
C2210 C 0.52807 0.48346 0.03546 0.0
C2211 C 0.52899 0.46615 0.04471 0.0
C2212 C 0.51669 0.41217 0.03757 0.0
C2213 C 0.50748 0.37728 0.0776 0.0
C2214 C 0.51178 0.39571 0.0676 0.0
C2215 C 0.51715 0.44839 0.03702 0.0
C2216 C 0.51668 0.43046 0.04777 0.0
H2217 H 0.51617 0.3588 0.12207 0.0
H2218 H 0.52436 0.38881 0.10543 0.0
H2219 H 0.51439 0.38106 0.03916 0.0
H2220 H 0.49361 0.46503 0.99751 0.0
H2221 H 0.49544 0.43462 0.01347 0.0
C2222 C 0.95086 0.23696 0.37304 0.0
C2223 C 0.9666 0.25199 0.3724 0.0
C2224 C 0.93375 0.23713 0.36144 0.0
C2225 C 0.90768 0.2713 0.33562 0.0
H2226 H 0.87524 0.22321 0.31136 0.0
C2227 C 0.83913 0.2731 0.28556 0.0
C2228 C 0.82296 0.26052 0.29011 0.0
C2229 C 0.85715 0.27091 0.29368 0.0
C2230 C 0.88416 0.23673 0.31812 0.0
H2231 H 0.97699 0.2786 0.35862 0.0
H2232 H 0.94731 0.27867 0.3381 0.0
H2233 H 0.90609 0.22161 0.32922 0.0
H2234 H 0.81274 0.23529 0.30591 0.0
H2235 H 0.84434 0.23145 0.32023 0.0
H2236 H 0.88579 0.2864 0.32459 0.0
C2237 C 0.948 0.26701 0.3479 0.0
C2238 C 0.90177 0.23582 0.32838 0.0
C2239 C 0.96504 0.26693 0.35961 0.0
C2240 C 0.82505 0.24523 0.30228 0.0
C2241 C 0.8431 0.24296 0.31035 0.0
C2242 C 0.89018 0.27221 0.32528 0.0
C2243 C 0.93209 0.25226 0.34886 0.0
C2244 C 0.91367 0.25311 0.33734 0.0
C2245 C 0.85928 0.25603 0.30642 0.0
C2246 C 0.8782 0.25494 0.31652 0.0
H2247 H 0.95164 0.22526 0.38278 0.0
H2248 H 0.92169 0.22568 0.3627 0.0
H2249 H 0.91632 0.28484 0.34268 0.0
H2250 H 0.83784 0.28493 0.27608 0.0
H2251 H 0.86942 0.28101 0.29021 0.0
C2252 C 0.97646 0.73004 0.58235 0.0
C2253 C 0.99252 0.74446 0.58098 0.0
C2254 C 0.97426 0.71146 0.57214 0.0
C2255 C 0.99249 0.68341 0.53226 0.0
H2256 H 0.97751 0.63894 0.56273 0.0
C2257 C 0.00857 0.60567 0.51426 0.0
C2258 C 0.99481 0.5893 0.51708 0.0
C2259 C 0.00593 0.62479 0.51954 0.0
C2260 C 0.98141 0.65117 0.55388 0.0
H2261 H 0.01857 0.75093 0.56732 0.0
H2262 H 0.01494 0.71846 0.54985 0.0
H2263 H 0.97695 0.67215 0.57649 0.0
H2264 H 0.96713 0.58027 0.527 0.0
H2265 H 0.96255 0.61362 0.53611 0.0
H2266 H 0.99751 0.66232 0.50991 0.0
C2267 C 0.00387 0.72155 0.55856 0.0
C2268 C 0.98106 0.67022 0.56175 0.0
C2269 C 0.00603 0.74014 0.5687 0.0
C2270 C 0.97807 0.59252 0.52468 0.0
C2271 C 0.97546 0.61162 0.53001 0.0
C2272 C 0.99291 0.66433 0.52441 0.0
C2273 C 0.98812 0.70689 0.56041 0.0
C2274 C 0.98685 0.68659 0.55117 0.0
C2275 C 0.9895 0.62793 0.5278 0.0
C2276 C 0.98761 0.64804 0.53526 0.0
H2277 H 0.96572 0.73297 0.59158 0.0
H2278 H 0.96182 0.70058 0.57364 0.0
H2279 H 0.99677 0.69569 0.52361 0.0
H2280 H 0.02162 0.60374 0.50842 0.0
H2281 H 0.01708 0.63706 0.51784 0.0
C2282 C 0.56516 0.78746 0.85977 0.0
C2283 C 0.56004 0.77354 0.8733 0.0
C2284 C 0.57912 0.78504 0.84753 0.0
C2285 C 0.61983 0.75986 0.84392 0.0
H2286 H 0.61534 0.77384 0.78964 0.0
C2287 C 0.6766 0.74923 0.79327 0.0
C2288 C 0.68333 0.76587 0.78354 0.0
C2289 C 0.65988 0.74815 0.80214 0.0
C2290 C 0.61677 0.76992 0.80478 0.0
H2291 H 0.56528 0.74599 0.88442 0.0
H2292 H 0.58943 0.74163 0.86288 0.0
H2293 H 0.58934 0.77594 0.80959 0.0
H2294 H 0.67763 0.79403 0.77458 0.0
H2295 H 0.64839 0.79218 0.79014 0.0
H2296 H 0.64729 0.75404 0.83921 0.0
C2297 C 0.58291 0.7546 0.86196 0.0
C2298 C 0.60195 0.77118 0.81622 0.0
C2299 C 0.56903 0.75707 0.87426 0.0
C2300 C 0.67267 0.78101 0.78198 0.0
C2301 C 0.65592 0.77991 0.79081 0.0
C2302 C 0.63458 0.75852 0.83247 0.0
C2303 C 0.58817 0.7686 0.84852 0.0
C2304 C 0.60342 0.76636 0.83598 0.0
C2305 C 0.64962 0.76369 0.80138 0.0
C2306 C 0.63328 0.76372 0.81286 0.0
H2307 H 0.5585 0.80033 0.8587 0.0
H2308 H 0.58305 0.79625 0.83755 0.0
H2309 H 0.62156 0.75636 0.85918 0.0
H2310 H 0.68457 0.73734 0.79459 0.0
H2311 H 0.6552 0.73535 0.80997 0.0
C2312 C 0.41122 0.58798 0.68777 0.0
C2313 C 0.4068 0.57113 0.69813 0.0
C2314 C 0.42291 0.58792 0.67261 0.0
C2315 C 0.45985 0.5632 0.65468 0.0
H2316 H 0.44338 0.57911 0.60317 0.0
C2317 C 0.48928 0.53853 0.5842 0.0
C2318 C 0.49069 0.55091 0.56864 0.0
C2319 C 0.48148 0.54396 0.60115 0.0
C2320 C 0.44843 0.57501 0.61756 0.0
H2321 H 0.41119 0.54104 0.70075 0.0
H2322 H 0.43163 0.54104 0.67444 0.0
H2323 H 0.42468 0.58304 0.63055 0.0
H2324 H 0.48578 0.57919 0.55913 0.0
H2325 H 0.47249 0.58883 0.58897 0.0
H2326 H 0.4835 0.55504 0.6418 0.0
C2327 C 0.42612 0.55429 0.67808 0.0
C2328 C 0.43766 0.5772 0.63321 0.0
C2329 C 0.41428 0.55425 0.69303 0.0
C2330 C 0.48488 0.56927 0.57082 0.0
C2331 C 0.47712 0.57474 0.58786 0.0
C2332 C 0.4707 0.56119 0.63911 0.0
C2333 C 0.43059 0.57112 0.66775 0.0
C2334 C 0.44302 0.57085 0.65177 0.0
C2335 C 0.47497 0.56196 0.60305 0.0
C2336 C 0.46487 0.56658 0.62022 0.0
H2337 H 0.40567 0.6012 0.69137 0.0
H2338 H 0.42618 0.6011 0.66488 0.0
H2339 H 0.46447 0.55852 0.66895 0.0
H2340 H 0.49358 0.52426 0.58306 0.0
H2341 H 0.47983 0.5336 0.6124 0.0
C2342 C 0.77592 0.17126 0.92557 0.0
C2343 C 0.7847 0.1804 0.944 0.0
C2344 C 0.77301 0.18242 0.90954 0.0
C2345 C 0.76957 0.23304 0.89681 0.0
H2346 H 0.77687 0.21251 0.84447 0.0
C2347 C 0.76796 0.27847 0.82797 0.0
C2348 C 0.75942 0.26829 0.80994 0.0
C2349 C 0.77053 0.26824 0.84484 0.0
C2350 C 0.77455 0.21835 0.85895 0.0
H2351 H 0.79742 0.2085 0.95999 0.0
H2352 H 0.79256 0.228 0.93185 0.0
H2353 H 0.78309 0.19387 0.87279 0.0
H2354 H 0.74514 0.24007 0.7958 0.0
H2355 H 0.74984 0.222 0.825 0.0
H2356 H 0.76111 0.25761 0.88287 0.0
C2357 C 0.78769 0.21219 0.92991 0.0
C2358 C 0.77813 0.20767 0.8752 0.0
C2359 C 0.7906 0.201 0.94599 0.0
C2360 C 0.75262 0.24798 0.80925 0.0
C2361 C 0.75517 0.23773 0.82604 0.0
C2362 C 0.76603 0.24378 0.88052 0.0
C2363 C 0.77883 0.20303 0.91149 0.0
C2364 C 0.77557 0.2148 0.89433 0.0
C2365 C 0.7645 0.24767 0.84395 0.0
C2366 C 0.76836 0.23648 0.86139 0.0
H2367 H 0.7711 0.15544 0.92353 0.0
H2368 H 0.76588 0.1749 0.89567 0.0
H2369 H 0.76722 0.23885 0.9113 0.0
H2370 H 0.77326 0.2942 0.82886 0.0
H2371 H 0.7778 0.27633 0.85838 0.0
C2372 C 0.08888 0.48529 0.20658 0.0
C2373 C 0.07638 0.48189 0.22102 0.0
C2374 C 0.08206 0.48762 0.18713 0.0
C2375 C 0.0382 0.48022 0.15148 0.0
H2376 H 0.06853 0.52001 0.12467 0.0
C2377 C 0.01116 0.50973 0.078 0.0
C2378 C 0.0238 0.51198 0.06355 0.0
C2379 C 0.01717 0.50486 0.09693 0.0
C2380 C 0.06 0.50871 0.13189 0.0
H2381 H 0.04683 0.47786 0.22627 0.0
H2382 H 0.0349 0.48243 0.19234 0.0
H2383 H 0.07954 0.51379 0.15822 0.0
H2384 H 0.05262 0.51069 0.05763 0.0
H2385 H 0.0631 0.50237 0.0907 0.0
H2386 H 0.01843 0.47559 0.12512 0.0
C2387 C 0.04998 0.48294 0.19598 0.0
C2388 C 0.06632 0.50508 0.15112 0.0
C2389 C 0.05682 0.4804 0.21546 0.0
C2390 C 0.04251 0.50907 0.06839 0.0
C2391 C 0.04856 0.5044 0.08737 0.0
C2392 C 0.03178 0.484 0.13226 0.0
C2393 C 0.06256 0.48685 0.18163 0.0
C2394 C 0.05558 0.4907 0.16115 0.0
C2395 C 0.03599 0.50236 0.10187 0.0
C2396 C 0.04267 0.49823 0.12224 0.0
H2397 H 0.10403 0.48628 0.21032 0.0
H2398 H 0.09213 0.4901 0.17641 0.0
H2399 H 0.02967 0.46888 0.15864 0.0
H2400 H 0.99664 0.51184 0.07477 0.0
H2401 H 0.00721 0.50354 0.10785 0.0
C2402 C 0.75503 0.8434 0.48573 0.0
C2403 C 0.73972 0.85237 0.49002 0.0
C2404 C 0.75265 0.82866 0.47022 0.0
C2405 C 0.72247 0.81497 0.42326 0.0
H2406 H 0.75406 0.77528 0.41786 0.0
C2407 C 0.72845 0.77956 0.34706 0.0
C2408 C 0.74734 0.78112 0.34302 0.0
C2409 C 0.72435 0.78183 0.36653 0.0
C2410 C 0.74504 0.78621 0.41922 0.0
H2411 H 0.70953 0.85169 0.48307 0.0
H2412 H 0.70521 0.82552 0.45647 0.0
H2413 H 0.75215 0.79083 0.45065 0.0
H2414 H 0.77666 0.78504 0.35591 0.0
H2415 H 0.76956 0.78942 0.38994 0.0
H2416 H 0.71596 0.81105 0.39191 0.0
C2417 C 0.71921 0.83032 0.4645 0.0
C2418 C 0.74398 0.79513 0.43794 0.0
C2419 C 0.72167 0.84527 0.47973 0.0
C2420 C 0.76198 0.78389 0.35871 0.0
C2421 C 0.75789 0.78618 0.37818 0.0
C2422 C 0.72345 0.806 0.40464 0.0
C2423 C 0.73484 0.82246 0.45898 0.0
C2424 C 0.7332 0.81012 0.44006 0.0
C2425 C 0.73908 0.78574 0.38224 0.0
C2426 C 0.73525 0.79204 0.40233 0.0
H2427 H 0.76908 0.84858 0.49352 0.0
H2428 H 0.76505 0.82307 0.46629 0.0
H2429 H 0.71428 0.82668 0.42421 0.0
H2430 H 0.71691 0.77723 0.33515 0.0
H2431 H 0.70971 0.78121 0.36925 0.0
C2432 C 0.44233 0.55098 0.78903 0.0
C2433 C 0.42533 0.55843 0.78828 0.0
C2434 C 0.45446 0.55288 0.80669 0.0
C2435 C 0.4645 0.57905 0.85705 0.0
H2436 H 0.48098 0.5309 0.87189 0.0
C2437 C 0.47983 0.56154 0.93753 0.0
C2438 C 0.49462 0.55133 0.94256 0.0
C2439 C 0.47524 0.56527 0.91792 0.0
C2440 C 0.47684 0.5446 0.86784 0.0
H2441 H 0.40809 0.57442 0.80527 0.0
H2442 H 0.42903 0.57746 0.83603 0.0
H2443 H 0.46591 0.53234 0.83851 0.0
H2444 H 0.51672 0.53761 0.93139 0.0
H2445 H 0.5086 0.54402 0.89692 0.0
H2446 H 0.47474 0.59098 0.88671 0.0
C2447 C 0.43316 0.57036 0.82297 0.0
C2448 C 0.46821 0.54544 0.84869 0.0
C2449 C 0.42106 0.56846 0.80535 0.0
C2450 C 0.50519 0.54545 0.92781 0.0
C2451 C 0.50051 0.54906 0.90813 0.0
C2452 C 0.47307 0.57818 0.87622 0.0
C2453 C 0.44985 0.56231 0.82394 0.0
C2454 C 0.46148 0.56249 0.84325 0.0
C2455 C 0.48531 0.55877 0.90296 0.0
C2456 C 0.47887 0.56077 0.88195 0.0
H2457 H 0.44609 0.54329 0.7761 0.0
H2458 H 0.46733 0.54673 0.80692 0.0
H2459 H 0.45979 0.59253 0.85318 0.0
H2460 H 0.47151 0.56628 0.94868 0.0
H2461 H 0.46329 0.57256 0.91437 0.0
C2462 C 0.79803 0.19341 0.06586 0.0
C2463 C 0.78407 0.19438 0.05012 0.0
C2464 C 0.79677 0.20174 0.08482 0.0
C2465 C 0.77327 0.23728 0.11181 0.0
H2466 H 0.78268 0.20665 0.15633 0.0
C2467 C 0.74914 0.25448 0.18807 0.0
C2468 C 0.76142 0.25281 0.20506 0.0
C2469 C 0.75317 0.24831 0.16931 0.0
C2470 C 0.78025 0.21552 0.14411 0.0
H2471 H 0.75806 0.20525 0.04192 0.0
H2472 H 0.75581 0.21959 0.07489 0.0
H2473 H 0.78782 0.19452 0.12332 0.0
H2474 H 0.78761 0.24328 0.21555 0.0
H2475 H 0.79468 0.23266 0.1828 0.0
H2476 H 0.76548 0.25815 0.13256 0.0
C2477 C 0.76785 0.21259 0.07259 0.0
C2478 C 0.78322 0.20858 0.12518 0.0
C2479 C 0.76908 0.20425 0.05368 0.0
C2480 C 0.77785 0.24484 0.2028 0.0
C2481 C 0.78185 0.23862 0.18403 0.0
C2482 C 0.7703 0.24421 0.13073 0.0
C2483 C 0.78156 0.21128 0.08845 0.0
C2484 C 0.77957 0.21927 0.10876 0.0
C2485 C 0.76955 0.24026 0.16706 0.0
C2486 C 0.77357 0.23332 0.14708 0.0
H2487 H 0.80978 0.18594 0.06362 0.0
H2488 H 0.8077 0.20068 0.09666 0.0
H2489 H 0.77063 0.24604 0.09955 0.0
H2490 H 0.73632 0.26048 0.18923 0.0
H2491 H 0.74325 0.24952 0.15658 0.0
C2492 C 0.08569 0.49877 0.33355 0.0
C2493 C 0.077 0.5022 0.31502 0.0
C2494 C 0.07677 0.50109 0.35057 0.0
C2495 C 0.03764 0.52342 0.36949 0.0
H2496 H 0.04614 0.49131 0.41304 0.0
C2497 C 0.99499 0.51772 0.43759 0.0
C2498 C 0.00623 0.52181 0.45595 0.0
C2499 C 0.00344 0.51586 0.42016 0.0
C2500 C 0.04373 0.50042 0.40099 0.0
H2501 H 0.05197 0.51025 0.29965 0.0
H2502 H 0.03589 0.51332 0.32913 0.0
H2503 H 0.06053 0.48608 0.3828 0.0
H2504 H 0.03487 0.52618 0.47068 0.0
H2505 H 0.0497 0.52264 0.44026 0.0
H2506 H 0.02014 0.53712 0.38768 0.0
C2507 C 0.04992 0.50956 0.33075 0.0
C2508 C 0.05207 0.49755 0.38367 0.0
C2509 C 0.05905 0.50764 0.31378 0.0
C2510 C 0.02599 0.52371 0.45668 0.0
C2511 C 0.03442 0.5214 0.43932 0.0
C2512 C 0.02898 0.52598 0.38667 0.0
C2513 C 0.05873 0.5065 0.34945 0.0
C2514 C 0.0493 0.50913 0.36771 0.0
C2515 C 0.02321 0.51749 0.42092 0.0
C2516 C 0.0321 0.51462 0.40261 0.0
H2517 H 0.09964 0.49477 0.33499 0.0
H2518 H 0.08427 0.49902 0.36465 0.0
H2519 H 0.03542 0.53293 0.35777 0.0
H2520 H 0.97968 0.51601 0.43673 0.0
H2521 H 0.99451 0.51269 0.40614 0.0
C2522 C 0.7301 0.88267 0.5849 0.0
C2523 C 0.71938 0.87281 0.56766 0.0
C2524 C 0.73239 0.8728 0.60197 0.0
C2525 C 0.74599 0.84525 0.63048 0.0
H2526 H 0.7055 0.80723 0.64683 0.0
C2527 C 0.75958 0.79827 0.69541 0.0
C2528 C 0.74594 0.79656 0.7088 0.0
C2529 C 0.75586 0.80581 0.67716 0.0
C2530 C 0.71694 0.81787 0.6425 0.0
H2531 H 0.7021 0.84507 0.55497 0.0
H2532 H 0.70637 0.82776 0.58462 0.0
H2533 H 0.69921 0.82516 0.61796 0.0
H2534 H 0.71748 0.80098 0.71333 0.0
H2535 H 0.7112 0.81442 0.68187 0.0
H2536 H 0.76352 0.83857 0.65545 0.0
C2537 C 0.71281 0.84319 0.58507 0.0
C2538 C 0.71338 0.828 0.62585 0.0
C2539 C 0.7104 0.85311 0.56805 0.0
C2540 C 0.72831 0.802 0.70335 0.0
C2541 C 0.72464 0.80963 0.68521 0.0
C2542 C 0.74952 0.83522 0.6472 0.0
C2543 C 0.72412 0.85282 0.60211 0.0
C2544 C 0.72783 0.84192 0.61973 0.0
C2545 C 0.73845 0.81188 0.67202 0.0
C2546 C 0.735 0.82152 0.65349 0.0
H2547 H 0.73709 0.8979 0.5851 0.0
H2548 H 0.74083 0.88078 0.615 0.0
H2549 H 0.75755 0.8556 0.62596 0.0
H2550 H 0.77326 0.7941 0.69912 0.0
H2551 H 0.76668 0.80707 0.66717 0.0
C2552 C 0.64698 0.41777 0.52121 0.0
C2553 C 0.66615 0.42572 0.52012 0.0
C2554 C 0.63332 0.42991 0.52081 0.0
C2555 C 0.62762 0.48203 0.52888 0.0
H2556 H 0.57843 0.46309 0.49874 0.0
C2557 C 0.57071 0.53147 0.5152 0.0
C2558 C 0.55186 0.52277 0.51684 0.0
C2559 C 0.58504 0.52007 0.5158 0.0
C2560 C 0.59203 0.46853 0.5074 0.0
H2561 H 0.68596 0.45275 0.51777 0.0
H2562 H 0.66209 0.47388 0.51686 0.0
H2563 H 0.6026 0.44238 0.49943 0.0
H2564 H 0.53319 0.49519 0.51885 0.0
H2565 H 0.55795 0.47537 0.52074 0.0
H2566 H 0.61697 0.50822 0.53681 0.0
C2567 C 0.65765 0.45828 0.51828 0.0
C2568 C 0.60589 0.45664 0.50781 0.0
C2569 C 0.67133 0.44613 0.51869 0.0
C2570 C 0.5476 0.50246 0.5187 0.0
C2571 C 0.56182 0.49103 0.51923 0.0
C2572 C 0.61373 0.49395 0.52846 0.0
C2573 C 0.63846 0.45032 0.51928 0.0
C2574 C 0.62383 0.46318 0.51864 0.0
C2575 C 0.58073 0.49966 0.51773 0.0
C2576 C 0.59572 0.48728 0.51781 0.0
H2577 H 0.64249 0.40213 0.5224 0.0
H2578 H 0.61872 0.42332 0.52191 0.0
H2579 H 0.6412 0.48745 0.53757 0.0
H2580 H 0.57435 0.5471 0.51341 0.0
H2581 H 0.59941 0.52715 0.51431 0.0
C2582 C 0.21258 0.10207 0.53124 0.0
C2583 C 0.21954 0.11099 0.51486 0.0
C2584 C 0.19327 0.09444 0.53084 0.0
C2585 C 0.14701 0.10078 0.50723 0.0
H2586 H 0.12864 0.05137 0.52878 0.0
C2587 C 0.06716 0.06783 0.50355 0.0
C2588 C 0.06108 0.05888 0.52028 0.0
C2589 C 0.08649 0.07394 0.50225 0.0
C2590 C 0.13356 0.06531 0.52291 0.0
H2591 H 0.21182 0.11826 0.48494 0.0
H2592 H 0.17812 0.10489 0.48428 0.0
H2593 H 0.16258 0.06166 0.52731 0.0
H2594 H 0.07049 0.04992 0.54906 0.0
H2595 H 0.10409 0.06091 0.54692 0.0
H2596 H 0.11807 0.10463 0.50312 0.0
C2597 C 0.18758 0.10402 0.49749 0.0
C2598 C 0.15298 0.07115 0.52202 0.0
C2599 C 0.2069 0.11156 0.49784 0.0
C2600 C 0.07469 0.05661 0.53587 0.0
C2601 C 0.09398 0.06278 0.5346 0.0
C2602 C 0.1276 0.09499 0.50819 0.0
C2603 C 0.18055 0.09565 0.51409 0.0
C2604 C 0.1599 0.08899 0.51426 0.0
C2605 C 0.10011 0.0713 0.51768 0.0
C2606 C 0.12067 0.07725 0.51617 0.0
H2607 H 0.22197 0.10138 0.54455 0.0
H2608 H 0.18821 0.0882 0.5439 0.0
H2609 H 0.15198 0.11476 0.50144 0.0
H2610 H 0.05703 0.06976 0.49126 0.0
H2611 H 0.09078 0.08032 0.48895 0.0
C2612 C 0.17633 0.94428 0.77105 0.0
C2613 C 0.18074 0.95719 0.78833 0.0
C2614 C 0.1864 0.92901 0.76803 0.0
C2615 C 0.23136 0.91279 0.78424 0.0
H2616 H 0.20387 0.86112 0.76309 0.0
C2617 C 0.26471 0.84297 0.78675 0.0
C2618 C 0.2606 0.82921 0.77017 0.0
C2619 C 0.25539 0.85903 0.78791 0.0
C2620 C 0.21177 0.87553 0.76876 0.0
H2621 H 0.19919 0.9642 0.81599 0.0
H2622 H 0.21662 0.93737 0.81085 0.0
H2623 H 0.18668 0.88829 0.76742 0.0
H2624 H 0.24425 0.82178 0.74141 0.0
H2625 H 0.22765 0.84982 0.74348 0.0
H2626 H 0.25641 0.89996 0.78579 0.0
C2627 C 0.20554 0.93924 0.79949 0.0
C2628 C 0.20194 0.89109 0.77125 0.0
C2629 C 0.19548 0.95455 0.8025 0.0
C2630 C 0.2473 0.83196 0.75455 0.0
C2631 C 0.23788 0.84801 0.75573 0.0
C2632 C 0.24118 0.89723 0.78178 0.0
C2633 C 0.20109 0.92628 0.78224 0.0
C2634 C 0.2116 0.90987 0.77914 0.0
C2635 C 0.24178 0.86166 0.77248 0.0
C2636 C 0.23148 0.8784 0.77415 0.0
H2637 H 0.16509 0.94595 0.75978 0.0
H2638 H 0.18278 0.91945 0.75447 0.0
H2639 H 0.23927 0.92716 0.79003 0.0
H2640 H 0.27489 0.84113 0.79904 0.0
H2641 H 0.25853 0.86913 0.80112 0.0
C2642 C 0.29174 0.94098 0.05575 0.0
C2643 C 0.27814 0.93742 0.03898 0.0
C2644 C 0.31021 0.95077 0.05441 0.0
C2645 C 0.34395 0.96127 0.01766 0.0
H2646 H 0.37308 0.99816 0.05954 0.0
C2647 C 0.41824 0.00365 0.00878 0.0
C2648 C 0.43229 0.00455 0.02484 0.0
C2649 C 0.39918 0.99692 0.0109 0.0
C2650 C 0.36515 0.98777 0.04779 0.0
H2651 H 0.27307 0.94207 0.00786 0.0
H2652 H 0.30513 0.95938 0.00562 0.0
H2653 H 0.34004 0.98404 0.06251 0.0
H2654 H 0.43753 -0.00036 0.05583 0.0
H2655 H 0.40415 0.9877 0.05955 0.0
H2656 H 0.36901 0.96486 0.00299 0.0
C2657 C 0.30166 0.95425 0.01971 0.0
C2658 C 0.34624 0.97968 0.0495 0.0
C2659 C 0.28324 0.94442 0.02102 0.0
C2660 C 0.42694 -0.00095 0.04321 0.0
C2661 C 0.40784 0.99233 0.04535 0.0
C2662 C 0.3628 0.96937 0.01595 0.0
C2663 C 0.31546 0.95724 0.03629 0.0
C2664 C 0.33543 0.96631 0.03444 0.0
C2665 C 0.39378 0.99096 0.02914 0.0
C2666 C 0.37363 0.9827 0.03099 0.0
H2667 H 0.28828 0.93576 0.06981 0.0
H2668 H 0.32053 0.95268 0.06743 0.0
H2669 H 0.33618 0.95071 0.00598 0.0
H2670 H 0.422 0.00792 0.99449 0.0
H2671 H 0.38866 0.99634 0.99822 0.0
C2672 C 0.85906 0.62687 0.74057 0.0
C2673 C 0.8532 0.61106 0.726 0.0
C2674 C 0.84887 0.64227 0.74183 0.0
C2675 C 0.81309 0.66621 0.71446 0.0
H2676 H 0.80525 0.68466 0.76733 0.0
C2677 C 0.76173 0.72025 0.73159 0.0
C2678 C 0.76857 0.73493 0.74708 0.0
C2679 C 0.77209 0.70533 0.72756 0.0
C2680 C 0.80746 0.67982 0.75247 0.0
H2681 H 0.83234 0.59933 0.70095 0.0
H2682 H 0.81438 0.62614 0.70332 0.0
H2683 H 0.82338 0.65845 0.76298 0.0
H2684 H 0.79158 0.74565 0.77041 0.0
H2685 H 0.80972 0.72006 0.76315 0.0
H2686 H 0.79694 0.68765 0.70405 0.0
C2687 C 0.82697 0.6267 0.71366 0.0
C2688 C 0.81789 0.66481 0.74997 0.0
C2689 C 0.83722 0.61128 0.71236 0.0
C2690 C 0.78603 0.73466 0.75822 0.0
C2691 C 0.79633 0.71985 0.75422 0.0
C2692 C 0.80256 0.68127 0.71697 0.0
C2693 C 0.83252 0.64221 0.7286 0.0
C2694 C 0.82102 0.65795 0.73097 0.0
C2695 C 0.78935 0.70483 0.73908 0.0
C2696 C 0.79983 0.68837 0.73604 0.0
H2697 H 0.87141 0.62727 0.75121 0.0
H2698 H 0.85377 0.6542 0.75326 0.0
H2699 H 0.81534 0.66133 0.69962 0.0
H2700 H 0.74827 0.72013 0.72283 0.0
H2701 H 0.76632 0.69388 0.71586 0.0
C2702 C 0.81753 0.60368 0.02399 0.0
C2703 C 0.81597 0.62024 0.03633 0.0
C2704 C 0.83145 0.59252 0.02899 0.0
C2705 C 0.87886 0.59819 0.05348 0.0
H2706 H 0.87009 0.54102 0.04735 0.0
C2707 C 0.94163 0.55767 0.05238 0.0
C2708 C 0.93945 0.54283 0.03688 0.0
C2709 C 0.92585 0.56499 0.0579 0.0
C2710 C 0.87279 0.55699 0.04909 0.0
H2711 H 0.82742 0.63787 0.06378 0.0
H2712 H 0.85212 0.61857 0.07221 0.0
H2713 H 0.84309 0.55817 0.04609 0.0
H2714 H 0.91922 0.52322 0.01563 0.0
H2715 H 0.89181 0.53636 0.02466 0.0
H2716 H 0.90841 0.59728 0.05507 0.0
C2717 C 0.84243 0.61419 0.05881 0.0
C2718 C 0.85734 0.56676 0.04846 0.0
C2719 C 0.82831 0.62519 0.05397 0.0
C2720 C 0.92123 0.53469 0.02765 0.0
C2721 C 0.9055 0.54213 0.03298 0.0
C2722 C 0.8943 0.58846 0.05382 0.0
C2723 C 0.8442 0.59787 0.04626 0.0
C2724 C 0.86027 0.58744 0.05011 0.0
C2725 C 0.90767 0.55774 0.04781 0.0
C2726 C 0.89145 0.56775 0.05103 0.0
H2727 H 0.80813 0.59946 0.01038 0.0
H2728 H 0.8327 0.58013 0.01895 0.0
H2729 H 0.88148 0.61417 0.05461 0.0
H2730 H 0.95558 0.56407 0.05981 0.0
H2731 H 0.92799 0.57674 0.06963 0.0
C2732 C 0.17827 0.05688 0.74838 0.0
C2733 C 0.17291 0.04981 0.76623 0.0
C2734 C 0.18665 0.07662 0.74768 0.0
C2735 C 0.19044 0.12555 0.77426 0.0
H2736 H 0.23188 0.1408 0.74308 0.0
C2737 C 0.23116 0.20542 0.77847 0.0
C2738 C 0.23591 0.21314 0.76068 0.0
C2739 C 0.22373 0.18541 0.7789 0.0
C2740 C 0.22017 0.13678 0.75167 0.0
H2741 H 0.17263 0.05781 0.79747 0.0
H2742 H 0.18742 0.09217 0.79628 0.0
H2743 H 0.21892 0.1059 0.74455 0.0
H2744 H 0.23652 0.2058 0.72936 0.0
H2745 H 0.22338 0.17086 0.73013 0.0
H2746 H 0.19163 0.15638 0.78137 0.0
C2747 C 0.18487 0.08253 0.78275 0.0
C2748 C 0.21276 0.11679 0.75254 0.0
C2749 C 0.1765 0.0628 0.78345 0.0
C2750 C 0.23305 0.20036 0.74332 0.0
C2751 C 0.22563 0.1803 0.74378 0.0
C2752 C 0.19783 0.14551 0.7734 0.0
C2753 C 0.18984 0.08973 0.76481 0.0
C2754 C 0.19784 0.11095 0.7639 0.0
C2755 C 0.22085 0.17262 0.76158 0.0
C2756 C 0.21282 0.15137 0.76215 0.0
H2757 H 0.17569 0.04728 0.73483 0.0
H2758 H 0.19015 0.08173 0.73359 0.0
H2759 H 0.1787 0.12158 0.78283 0.0
H2760 H 0.23319 0.21479 0.79214 0.0
H2761 H 0.22045 0.17993 0.79291 0.0
C2762 C 0.33929 0.01169 0.24579 0.0
C2763 C 0.35065 0.01422 0.23024 0.0
C2764 C 0.32746 0.99365 0.24717 0.0
C2765 C 0.30515 0.94621 0.21894 0.0
H2766 H 0.30674 0.92616 0.27082 0.0
C2767 C 0.28249 0.86394 0.2311 0.0
C2768 C 0.27372 0.85911 0.24803 0.0
C2769 C 0.28915 0.88363 0.22809 0.0
C2770 C 0.30583 0.93165 0.25628 0.0
H2771 H 0.35805 -6e-05 0.20362 0.0
H2772 H 0.33759 0.9684 0.20618 0.0
H2773 H 0.32339 0.95923 0.26707 0.0
H2774 H 0.26423 0.87094 0.27465 0.0
H2775 H 0.27568 0.90541 0.26931 0.0
H2776 H 0.28787 0.91838 0.20813 0.0
C2777 C 0.33767 0.98043 0.21719 0.0
C2778 C 0.3154 0.95063 0.25413 0.0
C2779 C 0.34949 0.99849 0.2158 0.0
C2780 C 0.27105 0.87429 0.26153 0.0
C2781 C 0.2777 0.894 0.25852 0.0
C2782 C 0.29555 0.92719 0.2211 0.0
C2783 C 0.32672 0.97772 0.23305 0.0
C2784 C 0.31537 0.95806 0.23541 0.0
C2785 C 0.28715 0.89887 0.24195 0.0
C2786 C 0.29598 0.91961 0.23977 0.0
H2787 H 0.33974 0.02356 0.2571 0.0
H2788 H 0.31899 0.99213 0.25941 0.0
H2789 H 0.30462 0.95161 0.20436 0.0
H2790 H 0.2847 0.85247 0.22046 0.0
H2791 H 0.29653 0.88683 0.21528 0.0
C2792 C 0.491 0.31706 0.61341 0.0
C2793 C 0.50708 0.31679 0.62691 0.0
C2794 C 0.49012 0.33308 0.60198 0.0
C2795 C 0.50924 0.38576 0.60266 0.0
H2796 H 0.49281 0.37968 0.54628 0.0
C2797 C 0.5163 0.45274 0.55693 0.0
C2798 C 0.5015 0.45382 0.54221 0.0
C2799 C 0.51693 0.43534 0.56607 0.0
C2800 C 0.4972 0.38163 0.56206 0.0
H2801 H 0.53499 0.33298 0.63871 0.0
H2802 H 0.53335 0.36093 0.61894 0.0
H2803 H 0.49372 0.35042 0.56456 0.0
H2804 H 0.47597 0.43753 0.52507 0.0
H2805 H 0.47671 0.40707 0.54146 0.0
H2806 H 0.51238 0.41681 0.60047 0.0
C2807 C 0.5214 0.34879 0.61725 0.0
C2808 C 0.49776 0.36487 0.57249 0.0
C2809 C 0.52236 0.33273 0.62852 0.0
C2810 C 0.48754 0.43702 0.53639 0.0
C2811 C 0.48804 0.41958 0.54573 0.0
C2812 C 0.50851 0.40246 0.59232 0.0
C2813 C 0.50522 0.34923 0.604 0.0
C2814 C 0.50399 0.36681 0.59286 0.0
C2815 C 0.50261 0.41864 0.56091 0.0
C2816 C 0.50272 0.40065 0.57184 0.0
H2817 H 0.47901 0.30497 0.61178 0.0
H2818 H 0.47744 0.33308 0.59195 0.0
H2819 H 0.51374 0.3877 0.61842 0.0
H2820 H 0.52738 0.46543 0.56151 0.0
H2821 H 0.52865 0.43503 0.5773 0.0
C2822 C 0.46348 0.7865 0.32148 0.0
C2823 C 0.46823 0.76882 0.32782 0.0
C2824 C 0.44525 0.78694 0.31248 0.0
C2825 C 0.40044 0.75522 0.28877 0.0
H2826 H 0.3783 0.80007 0.30525 0.0
C2827 C 0.31992 0.75677 0.27566 0.0
C2828 C 0.3145 0.77448 0.27021 0.0
C2829 C 0.33904 0.75586 0.28082 0.0
C2830 C 0.38435 0.78757 0.30028 0.0
H2831 H 0.45768 0.73761 0.32916 0.0
H2832 H 0.42574 0.73846 0.31379 0.0
H2833 H 0.41096 0.79881 0.31752 0.0
H2834 H 0.32509 0.80502 0.26549 0.0
H2835 H 0.35838 0.80338 0.27446 0.0
H2836 H 0.37354 0.74384 0.27186 0.0
C2837 C 0.43619 0.75194 0.3155 0.0
C2838 C 0.40311 0.78685 0.30729 0.0
C2839 C 0.45449 0.75147 0.3244 0.0
C2840 C 0.3287 0.79114 0.26965 0.0
C2841 C 0.3478 0.79025 0.2749 0.0
C2842 C 0.3816 0.75591 0.28183 0.0
C2843 C 0.43125 0.76976 0.30972 0.0
C2844 C 0.41141 0.77066 0.30167 0.0
C2845 C 0.35317 0.77266 0.28075 0.0
C2846 C 0.37334 0.77208 0.28754 0.0
H2847 H 0.47377 0.8001 0.32373 0.0
H2848 H 0.44209 0.80084 0.30783 0.0
H2849 H 0.40644 0.74265 0.28393 0.0
H2850 H 0.30938 0.74364 0.27627 0.0
H2851 H 0.3427 0.74214 0.28544 0.0
C2852 C -0.00156 0.70727 0.12296 0.0
C2853 C 0.98451 0.71762 0.11536 0.0
C2854 C 0.00109 0.68987 0.11292 0.0
C2855 C 0.99123 0.66233 0.06333 0.0
H2856 H 0.00671 0.6201 0.09226 0.0
C2857 C 0.99794 0.58686 0.02544 0.0
C2858 C 0.01491 0.58022 0.03109 0.0
C2859 C 0.99333 0.6031 0.0359 0.0
C2860 C 0.00247 0.63183 0.08401 0.0
H2861 H 0.96205 0.71754 0.09158 0.0
H2862 H 0.96625 0.68686 0.07438 0.0
H2863 H -0.00032 0.64908 0.11033 0.0
H2864 H 0.0403 0.58509 0.05208 0.0
H2865 H 0.03218 0.61344 0.07051 0.0
H2866 H 0.99378 0.64481 0.037 0.0
C2867 C 0.97551 0.69244 0.0878 0.0
C2868 C -0.00149 0.64848 0.09434 0.0
C2869 C 0.97301 0.70998 0.09773 0.0
C2870 C 0.02715 0.58997 0.04743 0.0
C2871 C 0.02245 0.60608 0.05802 0.0
C2872 C 0.99497 0.64556 0.05301 0.0
C2873 C 0.98972 0.68225 0.09516 0.0
C2874 C 0.99303 0.66406 0.08414 0.0
C2875 C 0.00554 0.61285 0.05231 0.0
C2876 C 0.00082 0.63025 0.06325 0.0
H2877 H 0.00762 0.71283 0.13645 0.0
H2878 H 0.01239 0.68268 0.11889 0.0
H2879 H 0.98738 0.67413 0.05495 0.0
H2880 H 0.98827 0.57958 0.01287 0.0
H2881 H 0.98015 0.60793 0.03127 0.0
C2882 C 0.09718 0.30445 0.85335 0.0
C2883 C 0.07897 0.29512 0.84477 0.0
C2884 C 0.11314 0.30306 0.84363 0.0
C2885 C 0.13013 0.27194 0.806 0.0
H2886 H 0.16958 0.31763 0.80451 0.0
C2887 C 0.19134 0.27021 0.75803 0.0
C2888 C 0.20951 0.28016 0.76588 0.0
C2889 C 0.17553 0.27227 0.76771 0.0
C2890 C 0.15882 0.30466 0.80501 0.0
H2891 H 0.06326 0.27721 0.8191 0.0
H2892 H 0.09111 0.27482 0.80216 0.0
H2893 H 0.14176 0.32093 0.8212 0.0
H2894 H 0.22545 0.30023 0.78987 0.0
H2895 H 0.19792 0.30349 0.80712 0.0
H2896 H 0.14719 0.25559 0.79003 0.0
C2897 C 0.09305 0.28306 0.81649 0.0
C2898 C 0.14286 0.30657 0.81454 0.0
C2899 C 0.07708 0.28454 0.82615 0.0
C2900 C 0.2116 0.29231 0.78355 0.0
C2901 C 0.19579 0.2943 0.79332 0.0
C2902 C 0.14612 0.27 0.79657 0.0
C2903 C 0.11127 0.29223 0.82516 0.0
C2904 C 0.12829 0.29024 0.81508 0.0
C2905 C 0.17754 0.28429 0.78553 0.0
C2906 C 0.16065 0.28635 0.79587 0.0
H2907 H 0.09915 0.31271 0.86767 0.0
H2908 H 0.127 0.31014 0.85078 0.0
H2909 H 0.11931 0.259 0.80645 0.0
H2910 H 0.18933 0.26081 0.74436 0.0
H2911 H 0.16168 0.2646 0.76109 0.0
C2912 C 0.50308 0.73014 0.97947 0.0
C2913 C 0.50586 0.72862 0.95937 0.0
C2914 C 0.49875 0.71317 0.98945 0.0
C2915 C 0.48185 0.65921 0.98108 0.0
H2916 H 0.51231 0.65719 0.031 0.0
C2917 C 0.49982 0.58763 0.00819 0.0
C2918 C 0.49948 0.58438 0.02817 0.0
C2919 C 0.49701 0.60562 0.00147 0.0
C2920 C 0.50341 0.65764 0.01728 0.0
H2921 H 0.50593 0.70815 0.93388 0.0
H2922 H 0.49869 0.67869 0.95132 0.0
H2923 H 0.51366 0.68845 0.01595 0.0
H2924 H 0.49675 0.59748 0.05719 0.0
H2925 H 0.49202 0.62938 0.0455 0.0
H2926 H 0.47226 0.62822 0.982 0.0
C2927 C 0.49956 0.69293 0.95932 0.0
C2928 C 0.50416 0.67552 0.00866 0.0
C2929 C 0.50389 0.70984 0.94937 0.0
C2930 C 0.49681 0.59963 0.0416 0.0
C2931 C 0.49411 0.61779 0.03493 0.0
C2932 C 0.48114 0.64135 0.98965 0.0
C2933 C 0.49706 0.69441 0.97949 0.0
C2934 C 0.49387 0.67633 0.99016 0.0
C2935 C 0.49411 0.62089 0.01476 0.0
C2936 C 0.49238 0.64028 0.00751 0.0
H2937 H 0.5044 0.74442 0.98754 0.0
H2938 H 0.49678 0.71473 0.00497 0.0
H2939 H 0.47344 0.65949 0.96701 0.0
H2940 H 0.50315 0.57662 0.99793 0.0
H2941 H 0.49778 0.60782 0.98596 0.0
C2942 C 0.03966 0.7641 0.67453 0.0
C2943 C 0.03757 0.77878 0.66154 0.0
C2944 C 0.05678 0.76483 0.68644 0.0
C2945 C 0.10102 0.79866 0.70698 0.0
H2946 H 0.12142 0.75046 0.71081 0.0
C2947 C 0.17951 0.7971 0.73288 0.0
C2948 C 0.18352 0.78175 0.74418 0.0
C2949 C 0.16085 0.79757 0.72527 0.0
C2950 C 0.11578 0.76399 0.71018 0.0
H2951 H 0.05178 0.80574 0.65084 0.0
H2952 H 0.08173 0.80682 0.67139 0.0
H2953 H 0.09038 0.74943 0.69247 0.0
H2954 H 0.17134 0.7554 0.7573 0.0
H2955 H 0.13867 0.75628 0.74415 0.0
H2956 H 0.12666 0.81327 0.72438 0.0
C2957 C 0.07004 0.79493 0.67261 0.0
C2958 C 0.098 0.7634 0.69966 0.0
C2959 C 0.05293 0.79421 0.66072 0.0
C2960 C 0.16858 0.76732 0.74849 0.0
C2961 C 0.14993 0.76778 0.74089 0.0
C2962 C 0.11883 0.79926 0.7175 0.0
C2963 C 0.07216 0.78024 0.68558 0.0
C2964 C 0.09053 0.78075 0.69775 0.0
C2965 C 0.14592 0.78267 0.72887 0.0
C2966 C 0.12647 0.78196 0.71903 0.0
H2967 H 0.02806 0.75208 0.67558 0.0
H2968 H 0.05794 0.75341 0.69644 0.0
H2969 H 0.09548 0.81223 0.70603 0.0
H2970 H 0.19084 0.80841 0.72941 0.0
H2971 H 0.15822 0.80914 0.71592 0.0
C2972 C 0.00779 0.31845 0.45967 0.0
C2973 C 0.02013 0.31561 0.44551 0.0
C2974 C 0.0086 0.33712 0.4692 0.0
C2975 C 0.03808 0.38692 0.47982 0.0
H2976 H 0.98935 0.40343 0.48063 0.0
C2977 C 0.02971 0.46851 0.49188 0.0
C2978 C 0.0149 0.47268 0.50242 0.0
C2979 C 0.0317 0.44899 0.48742 0.0
C2980 C 0.00307 0.39899 0.48086 0.0
H2981 H 0.04357 0.32991 0.4309 0.0
H2982 H 0.04485 0.36252 0.44745 0.0
H2983 H 0.99054 0.36982 0.46875 0.0
H2984 H 0.99118 0.45974 0.51743 0.0
H2985 H 0.99487 0.42581 0.50996 0.0
H2986 H 0.0506 0.41628 0.4917 0.0
C2987 C 0.03464 0.3503 0.45126 0.0
C2988 C 0.00374 0.3797 0.47404 0.0
C2989 C 0.03382 0.33163 0.4417 0.0
C2990 C 0.0026 0.45702 0.50906 0.0
C2991 C 0.00466 0.43755 0.50472 0.0
C2992 C 0.03741 0.40626 0.48672 0.0
C2993 C 0.02178 0.35332 0.46481 0.0
C2994 C 0.02124 0.37349 0.47329 0.0
C2995 C 0.01897 0.43329 0.49349 0.0
C2996 C 0.01988 0.41254 0.48718 0.0
H2997 H 0.99718 0.30638 0.46306 0.0
H2998 H -0.00131 0.33894 0.47981 0.0
H2999 H 0.05177 0.38248 0.47958 0.0
H3000 H 0.03938 0.48025 0.48648 0.0
H3001 H 0.04276 0.4462 0.47857 0.0
C3002 C 0.43931 0.26068 0.16761 0.0
C3003 C 0.44636 0.27595 0.15624 0.0
C3004 C 0.42827 0.26426 0.18269 0.0
C3005 C 0.39866 0.29962 0.19868 0.0
H3006 H 0.40011 0.27264 0.24686 0.0
C3007 C 0.34975 0.31351 0.25614 0.0
C3008 C 0.33807 0.29613 0.26023 0.0
C3009 C 0.36637 0.31257 0.24756 0.0
C3010 C 0.39967 0.28033 0.23351 0.0
H3011 H 0.44803 0.30708 0.15216 0.0
H3012 H 0.42933 0.31344 0.17869 0.0
H3013 H 0.42243 0.26792 0.223 0.0
H3014 H 0.33526 0.26438 0.26032 0.0
H3015 H 0.36431 0.26272 0.24525 0.0
H3016 H 0.37585 0.31186 0.20901 0.0
C3017 C 0.43175 0.29856 0.17566 0.0
C3018 C 0.41232 0.27754 0.21979 0.0
C3019 C 0.44252 0.29492 0.16045 0.0
C3020 C 0.34404 0.27798 0.25723 0.0
C3021 C 0.3607 0.27705 0.2487 0.0
C3022 C 0.38622 0.30255 0.21244 0.0
C3023 C 0.4243 0.28324 0.18682 0.0
C3024 C 0.41177 0.28696 0.20208 0.0
C3025 C 0.37155 0.29425 0.243 0.0
C3026 C 0.38642 0.29277 0.22986 0.0
H3027 H 0.44209 0.24591 0.1647 0.0
H3028 H 0.42253 0.25205 0.19079 0.0
H3029 H 0.39751 0.30678 0.18505 0.0
H3030 H 0.34548 0.32769 0.25845 0.0
H3031 H 0.37466 0.32607 0.24353 0.0
C3032 C 0.59062 0.5154 0.33163 0.0
C3033 C 0.60534 0.50453 0.33081 0.0
C3034 C 0.57854 0.51288 0.34638 0.0
C3035 C 0.5758 0.4958 0.3962 0.0
H3036 H 0.52245 0.4983 0.38439 0.0
C3037 C 0.52607 0.49235 0.45726 0.0
C3038 C 0.51558 0.50773 0.45773 0.0
C3039 C 0.53502 0.48823 0.44064 0.0
C3040 C 0.53731 0.49756 0.38791 0.0
H3041 H 0.61883 0.48232 0.34473 0.0
H3042 H 0.59761 0.47782 0.37044 0.0
H3043 H 0.54245 0.49841 0.3576 0.0
H3044 H 0.50532 0.53002 0.44069 0.0
H3045 H 0.52087 0.5228 0.41177 0.0
H3046 H 0.57074 0.49536 0.42655 0.0
C3047 C 0.59556 0.48846 0.35979 0.0
C3048 C 0.54879 0.49769 0.37259 0.0
C3049 C 0.60768 0.49101 0.34503 0.0
C3050 C 0.51334 0.51812 0.44083 0.0
C3051 C 0.52217 0.5139 0.42419 0.0
C3052 C 0.56431 0.4956 0.41151 0.0
C3053 C 0.58084 0.49938 0.36062 0.0
C3054 C 0.56826 0.49725 0.37661 0.0
C3055 C 0.53354 0.49929 0.42412 0.0
C3056 C 0.54503 0.4969 0.40758 0.0
H3057 H 0.58844 0.52597 0.32093 0.0
H3058 H 0.56759 0.5218 0.3468 0.0
H3059 H 0.59078 0.49566 0.39985 0.0
H3060 H 0.52814 0.48412 0.47006 0.0
H3061 H 0.54353 0.47675 0.44092 0.0
C3062 C 0.23341 0.86648 0.08158 0.0
C3063 C 0.21565 0.86184 0.07 0.0
C3064 C 0.2371 0.85664 0.09845 0.0
C3065 C 0.21322 0.82712 0.1351 0.0
H3066 H 0.2622 0.81155 0.14631 0.0
C3067 C 0.22775 0.77589 0.19629 0.0
C3068 C 0.24534 0.78043 0.20808 0.0
C3069 C 0.2243 0.78599 0.17957 0.0
C3070 C 0.24853 0.81601 0.14353 0.0
H3071 H 0.18786 0.84312 0.06711 0.0
H3072 H 0.19437 0.82582 0.09645 0.0
H3073 H 0.25574 0.82868 0.11686 0.0
H3074 H 0.27336 0.79852 0.21134 0.0
H3075 H 0.26726 0.81659 0.18231 0.0
H3076 H 0.20599 0.81443 0.16175 0.0
C3077 C 0.20537 0.83726 0.0926 0.0
C3078 C 0.24482 0.82582 0.12663 0.0
C3079 C 0.20167 0.84711 0.07571 0.0
C3080 C 0.25955 0.79504 0.2027 0.0
C3081 C 0.25611 0.80518 0.18594 0.0
C3082 C 0.21693 0.81731 0.15199 0.0
C3083 C 0.22314 0.84191 0.10418 0.0
C3084 C 0.2271 0.83147 0.12218 0.0
C3085 C 0.2384 0.80083 0.17421 0.0
C3086 C 0.23461 0.81158 0.1564 0.0
H3087 H 0.24449 0.87779 0.07767 0.0
H3088 H 0.25084 0.86078 0.10716 0.0
H3089 H 0.19954 0.83155 0.13232 0.0
H3090 H 0.21656 0.76462 0.20009 0.0
H3091 H 0.21062 0.78203 0.17071 0.0
C3092 C 0.94863 0.56397 0.79622 0.0
C3093 C 0.93083 0.56953 0.79217 0.0
C3094 C 0.9563 0.5629 0.81574 0.0
C3095 C 0.94149 0.55617 0.86531 0.0
H3096 H 0.99511 0.57272 0.88327 0.0
C3097 C 0.9711 0.55412 0.94675 0.0
C3098 C 0.98817 0.54698 0.95033 0.0
C3099 C 0.96469 0.55836 0.92773 0.0
C3100 C 0.98012 0.56787 0.87842 0.0
H3101 H 0.90748 0.57905 0.80552 0.0
H3102 H 0.92094 0.57735 0.83948 0.0
H3103 H 0.98299 0.57765 0.8495 0.0
H3104 H 0.01201 0.53897 0.9367 0.0
H3105 H 0.0007 0.54615 0.90351 0.0
H3106 H 0.93859 0.54615 0.89404 0.0
C3107 C 0.92882 0.5735 0.82757 0.0
C3108 C 0.97318 0.57071 0.85909 0.0
C3109 C 0.92117 0.57458 0.80808 0.0
C3110 C -0.00117 0.5445 0.9345 0.0
C3111 C 0.9924 0.54872 0.91546 0.0
C3112 C 0.94841 0.55331 0.88459 0.0
C3113 C 0.94634 0.56736 0.83163 0.0
C3114 C 0.95378 0.56486 0.8523 0.0
C3115 C 0.97516 0.55553 0.91181 0.0
C3116 C 0.96782 0.55908 0.89139 0.0
H3117 H 0.95645 0.55998 0.78431 0.0
H3118 H 0.96976 0.55797 0.81835 0.0
H3119 H 0.92652 0.55116 0.86044 0.0
H3120 H 0.96257 0.55631 0.9586 0.0
H3121 H 0.9515 0.56388 0.9255 0.0
C3122 C 0.29329 0.21943 0.53998 0.0
C3123 C 0.28064 0.20133 0.53871 0.0
C3124 C 0.29158 0.23484 0.55362 0.0
C3125 C 0.29338 0.25591 0.59457 0.0
H3126 H 0.24439 0.26081 0.61119 0.0
C3127 C 0.28175 0.2644 0.67494 0.0
C3128 C 0.26709 0.27349 0.68093 0.0
C3129 C 0.28494 0.26326 0.65515 0.0
C3130 C 0.25823 0.26016 0.60658 0.0
H3131 H 0.25588 0.18542 0.55015 0.0
H3132 H 0.25316 0.21191 0.57403 0.0
H3133 H 0.24596 0.24463 0.57889 0.0
H3134 H 0.24497 0.28962 0.6714 0.0
H3135 H 0.25056 0.28769 0.63656 0.0
H3136 H 0.30562 0.27095 0.62251 0.0
C3137 C 0.2642 0.21447 0.56435 0.0
C3138 C 0.25911 0.25065 0.58813 0.0
C3139 C 0.26592 0.19914 0.55081 0.0
C3140 C 0.25624 0.28233 0.66702 0.0
C3141 C 0.25945 0.28124 0.64714 0.0
C3142 C 0.29252 0.26559 0.61295 0.0
C3143 C 0.27714 0.2324 0.56611 0.0
C3144 C 0.2766 0.24735 0.5825 0.0
C3145 C 0.27356 0.27127 0.64093 0.0
C3146 C 0.27487 0.2667 0.61964 0.0
H3147 H 0.30469 0.2216 0.53071 0.0
H3148 H 0.30171 0.24852 0.55461 0.0
H3149 H 0.3071 0.25371 0.59064 0.0
H3150 H 0.2904 0.25758 0.68544 0.0
H3151 H 0.29569 0.25515 0.6509 0.0
C3152 C 0.59846 0.49955 0.23565 0.0
C3153 C 0.60381 0.48165 0.24045 0.0
C3154 C 0.58512 0.50007 0.21946 0.0
C3155 C 0.56592 0.47431 0.17152 0.0
H3156 H 0.52936 0.50933 0.17381 0.0
C3157 C 0.52113 0.49071 0.10132 0.0
C3158 C 0.52178 0.51095 0.09956 0.0
C3159 C 0.52733 0.48403 0.11937 0.0
C3160 C 0.53946 0.49945 0.17295 0.0
H3161 H 0.59916 0.45019 0.23216 0.0
H3162 H 0.57585 0.45117 0.2036 0.0
H3163 H 0.54758 0.50313 0.20422 0.0
H3164 H 0.52869 0.54002 0.11519 0.0
H3165 H 0.53955 0.52848 0.1466 0.0
H3166 H 0.55836 0.47127 0.14015 0.0
C3167 C 0.58206 0.46477 0.21245 0.0
C3168 C 0.54988 0.49591 0.19033 0.0
C3169 C 0.59536 0.46422 0.2288 0.0
C3170 C 0.52804 0.52434 0.1162 0.0
C3171 C 0.53412 0.51769 0.13422 0.0
C3172 C 0.5555 0.47788 0.1541 0.0
C3173 C 0.57685 0.48273 0.20762 0.0
C3174 C 0.56366 0.48383 0.18972 0.0
C3175 C 0.53413 0.49751 0.13594 0.0
C3176 C 0.54262 0.49101 0.15458 0.0
H3177 H 0.60466 0.51325 0.24433 0.0
H3178 H 0.58165 0.51419 0.21591 0.0
H3179 H 0.57652 0.46502 0.17058 0.0
H3180 H 0.51632 0.48014 0.08864 0.0
H3181 H 0.52707 0.46839 0.12029 0.0
C3182 C 0.22508 0.83743 0.97367 0.0
C3183 C 0.22402 0.85758 0.97594 0.0
C3184 C 0.22753 0.82862 0.95528 0.0
C3185 C 0.24754 0.84045 0.90949 0.0
H3186 H 0.21721 0.79054 0.88695 0.0
C3187 C 0.26553 0.79745 0.84041 0.0
C3188 C 0.25038 0.79163 0.82531 0.0
C3189 C 0.26225 0.80456 0.85919 0.0
C3190 C 0.22579 0.80447 0.8931 0.0
H3191 H 0.22437 0.88417 0.96054 0.0
H3192 H 0.22889 0.86882 0.92857 0.0
H3193 H 0.21102 0.80502 0.91885 0.0
H3194 H 0.21985 0.78817 0.81827 0.0
H3195 H 0.21414 0.80023 0.85114 0.0
H3196 H 0.26237 0.8399 0.88384 0.0
C3197 C 0.22782 0.85987 0.94103 0.0
C3198 C 0.22231 0.81269 0.91136 0.0
C3199 C 0.2251 0.86861 0.95932 0.0
C3200 C 0.23184 0.79257 0.82956 0.0
C3201 C 0.22854 0.79938 0.84841 0.0
C3202 C 0.25121 0.83209 0.8914 0.0
C3203 C 0.22925 0.83983 0.93886 0.0
C3204 C 0.23305 0.83085 0.91965 0.0
C3205 C 0.24373 0.80569 0.86334 0.0
C3206 C 0.24029 0.81408 0.88295 0.0
H3207 H 0.22428 0.82851 0.98617 0.0
H3208 H 0.22865 0.81316 0.95405 0.0
H3209 H 0.25615 0.85437 0.91563 0.0
H3210 H 0.27999 0.797 0.8376 0.0
H3211 H 0.27421 0.80921 0.87048 0.0
C3212 C 0.93006 0.56708 0.68885 0.0
C3213 C 0.92098 0.54993 0.69641 0.0
C3214 C 0.94019 0.56574 0.67255 0.0
C3215 C 0.94349 0.53351 0.62891 0.0
H3216 H 0.99431 0.56384 0.63044 0.0
C3217 C 0.9905 0.523 0.56677 0.0
C3218 C 0.00237 0.53977 0.56162 0.0
C3219 C 0.98061 0.5241 0.58329 0.0
C3220 C 0.98002 0.55549 0.6296 0.0
H3221 H 0.91529 0.51794 0.69274 0.0
H3222 H 0.93277 0.51566 0.66408 0.0
H3223 H 0.97685 0.56627 0.65901 0.0
H3224 H 0.01319 0.57084 0.56938 0.0
H3225 H 0.99558 0.573 0.59788 0.0
H3226 H 0.94635 0.52307 0.59938 0.0
C3227 C 0.93208 0.53011 0.67083 0.0
C3228 C 0.97007 0.55684 0.64603 0.0
C3229 C 0.92218 0.53143 0.6873 0.0
C3230 C 0.00422 0.55766 0.57319 0.0
C3231 C 0.99419 0.55884 0.58957 0.0
C3232 C 0.95333 0.53234 0.61237 0.0
C3233 C 0.94121 0.54725 0.66332 0.0
C3234 C 0.95173 0.54584 0.64586 0.0
C3235 C 0.98229 0.54206 0.5949 0.0
C3236 C 0.97176 0.54329 0.6125 0.0
H3237 H 0.92941 0.58155 0.69557 0.0
H3238 H 0.947 0.57919 0.66697 0.0
H3239 H 0.92927 0.52504 0.62831 0.0
H3240 H 0.98909 0.50897 0.5582 0.0
H3241 H 0.97188 0.51078 0.5871 0.0
C3242 C 0.26612 0.20244 0.4611 0.0
C3243 C 0.26983 0.18319 0.45919 0.0
C3244 C 0.26889 0.21479 0.4459 0.0
C3245 C 0.26173 0.23212 0.40746 0.0
H3246 H 0.29908 0.22902 0.37086 0.0
C3247 C 0.25216 0.25913 0.33055 0.0
C3248 C 0.2681 0.26805 0.32205 0.0
C3249 C 0.25435 0.25063 0.3484 0.0
C3250 C 0.28876 0.23031 0.38113 0.0
H3251 H 0.27985 0.16179 0.44031 0.0
H3252 H 0.28369 0.18297 0.41309 0.0
H3253 H 0.30041 0.2112 0.40058 0.0
H3254 H 0.29887 0.27525 0.3257 0.0
H3255 H 0.30268 0.26076 0.35733 0.0
H3256 H 0.25038 0.25158 0.38842 0.0
C3257 C 0.2792 0.18881 0.42656 0.0
C3258 C 0.28935 0.21986 0.39801 0.0
C3259 C 0.27684 0.17659 0.44203 0.0
C3260 C 0.28632 0.26845 0.33189 0.0
C3261 C 0.2885 0.26007 0.34994 0.0
C3262 C 0.26133 0.24274 0.39081 0.0
C3263 C 0.27496 0.20797 0.42821 0.0
C3264 C 0.27559 0.22034 0.41117 0.0
C3265 C 0.27251 0.25103 0.35835 0.0
C3266 C 0.27451 0.24156 0.37717 0.0
H3267 H 0.26111 0.20802 0.47442 0.0
H3268 H 0.26603 0.22962 0.44797 0.0
H3269 H 0.25073 0.23269 0.41705 0.0
H3270 H 0.23793 0.25833 0.32325 0.0
H3271 H 0.24173 0.24337 0.35418 0.0
C3272 C 0.36467 0.64687 0.50824 0.0
C3273 C 0.34513 0.63933 0.5041 0.0
C3274 C 0.37794 0.63429 0.50791 0.0
C3275 C 0.38212 0.58196 0.51152 0.0
H3276 H 0.43033 0.59796 0.49125 0.0
C3277 C 0.44328 0.53866 0.52397 0.0
C3278 C 0.45419 0.53632 0.50838 0.0
C3279 C 0.43001 0.55121 0.52284 0.0
C3280 C 0.41687 0.59318 0.4968 0.0
H3281 H 0.32424 0.61262 0.49602 0.0
H3282 H 0.34735 0.59075 0.49519 0.0
H3283 H 0.407 0.61975 0.48983 0.0
H3284 H 0.45941 0.54462 0.47912 0.0
H3285 H 0.43616 0.56666 0.47702 0.0
H3286 H 0.39179 0.55528 0.51817 0.0
C3287 C 0.35244 0.60636 0.49903 0.0
C3288 C 0.40357 0.60578 0.49621 0.0
C3289 C 0.33918 0.61893 0.4994 0.0
C3290 C 0.45144 0.54654 0.4915 0.0
C3291 C 0.43813 0.55912 0.49033 0.0
C3292 C 0.39538 0.56938 0.5121 0.0
C3293 C 0.37199 0.61385 0.50339 0.0
C3294 C 0.38605 0.60035 0.50363 0.0
C3295 C 0.42724 0.5616 0.506 0.0
C3296 C 0.41297 0.57486 0.50485 0.0
H3297 H 0.36975 0.6625 0.51195 0.0
H3298 H 0.39285 0.64055 0.51159 0.0
H3299 H 0.36888 0.57737 0.51757 0.0
H3300 H 0.44523 0.53103 0.53723 0.0
H3301 H 0.42212 0.553 0.53532 0.0
C3302 C 0.79736 0.94294 0.51589 0.0
C3303 C 0.79353 0.93227 0.53234 0.0
C3304 C 0.81571 0.95278 0.51429 0.0
C3305 C 0.86569 0.95298 0.53243 0.0
H3306 H 0.87426 0.00537 0.51384 0.0
C3307 C 0.93993 0.00057 0.53876 0.0
C3308 C 0.94504 0.01077 0.52236 0.0
C3309 C 0.92126 0.99123 0.53939 0.0
C3310 C 0.87205 0.99066 0.51883 0.0
H3311 H 0.80589 0.92377 0.56015 0.0
H3312 H 0.83788 0.94115 0.55747 0.0
H3313 H 0.84189 0.98869 0.51635 0.0
H3314 H 0.93445 0.01929 0.49382 0.0
H3315 H 0.90171 0.00285 0.49495 0.0
H3316 H 0.89581 0.95497 0.53504 0.0
C3317 C 0.82674 0.94165 0.54566 0.0
C3318 C 0.85354 0.98111 0.52028 0.0
C3319 C 0.80839 0.9318 0.54726 0.0
C3320 C 0.93098 0.01159 0.50668 0.0
C3321 C 0.91223 0.00225 0.50735 0.0
C3322 C 0.88416 0.96252 0.53102 0.0
C3323 C 0.83061 0.95216 0.52911 0.0
C3324 C 0.85019 0.96223 0.52723 0.0
C3325 C 0.90724 0.99185 0.52365 0.0
C3326 C 0.88754 0.98151 0.52435 0.0
H3327 H 0.78623 0.94356 0.50411 0.0
H3328 H 0.81829 0.96057 0.50126 0.0
H3329 H 0.86354 0.93828 0.53745 0.0
H3330 H 0.95035 -0.00036 0.55114 0.0
H3331 H 0.91778 0.98359 0.55229 0.0
C3332 C 0.83382 0.10456 0.24109 0.0
C3333 C 0.84361 0.10043 0.25879 0.0
C3334 C 0.82201 0.11862 0.24121 0.0
C3335 C 0.79617 0.14585 0.27477 0.0
H3336 H 0.79482 0.18067 0.23242 0.0
C3337 C 0.76071 0.21479 0.27794 0.0
C3338 C 0.74954 0.21783 0.26072 0.0
C3339 C 0.77172 0.20001 0.27775 0.0
C3340 C 0.79493 0.17092 0.24425 0.0
H3341 H 0.84888 0.10799 0.29049 0.0
H3342 H 0.82868 0.13279 0.29065 0.0
H3343 H 0.8152 0.15593 0.23195 0.0
H3344 H 0.74073 0.20778 0.22989 0.0
H3345 H 0.75997 0.18187 0.22951 0.0
H3346 H 0.77614 0.16116 0.28722 0.0
C3347 C 0.82974 0.12487 0.27671 0.0
C3348 C 0.80656 0.15671 0.24397 0.0
C3349 C 0.84143 0.11072 0.2766 0.0
C3350 C 0.74922 0.20565 0.24338 0.0
C3351 C 0.76034 0.19098 0.24312 0.0
C3352 C 0.78466 0.16017 0.27513 0.0
C3353 C 0.81983 0.12896 0.25904 0.0
C3354 C 0.80733 0.14399 0.25923 0.0
C3355 C 0.77179 0.18809 0.26027 0.0
C3356 C 0.78392 0.17283 0.25987 0.0
H3357 H 0.83515 0.09681 0.22713 0.0
H3358 H 0.81438 0.12119 0.22737 0.0
H3359 H 0.79615 0.13608 0.28659 0.0
H3360 H 0.76094 0.22387 0.29154 0.0
H3361 H 0.78049 0.19818 0.29116 0.0
C3362 C 0.73994 0.1082 0.0276 0.0
C3363 C 0.74537 0.11889 0.01163 0.0
C3364 C 0.72121 0.09849 0.02753 0.0
C3365 C 0.67627 0.08002 0.99505 0.0
H3366 H 0.65333 0.08661 0.04346 0.0
C3367 C 0.59512 0.06241 0.99827 0.0
C3368 C 0.58877 0.05396 0.01511 0.0
C3369 C 0.61453 0.06873 0.99738 0.0
C3370 C 0.65957 0.08436 0.0299 0.0
H3371 H 0.73551 0.12729 0.98278 0.0
H3372 H 0.70283 0.1105 0.98275 0.0
H3373 H 0.68674 0.10017 0.04272 0.0
H3374 H 0.59756 0.04492 0.04395 0.0
H3375 H 0.63143 0.0557 0.04232 0.0
H3376 H 0.64898 0.06436 0.98219 0.0
C3377 C 0.71307 0.10947 0.99525 0.0
C3378 C 0.67874 0.09213 0.02948 0.0
C3379 C 0.7318 0.11919 0.99533 0.0
C3380 C 0.6021 0.05152 0.03084 0.0
C3381 C 0.62148 0.05779 0.02995 0.0
C3382 C 0.65707 0.07221 0.99547 0.0
C3383 C 0.7075 0.09924 0.01148 0.0
C3384 C 0.6873 0.09015 0.01203 0.0
C3385 C 0.62792 0.06668 0.0133 0.0
C3386 C 0.64847 0.07437 0.01289 0.0
H3387 H 0.75006 0.10758 0.04034 0.0
H3388 H 0.71743 0.09049 0.04012 0.0
H3389 H 0.68251 0.07804 0.98144 0.0
H3390 H 0.58509 0.06444 0.98594 0.0
H3391 H 0.61899 0.07569 0.98443 0.0
C3392 C 0.1581 0.4428 0.2767 0.0
C3393 C 0.14238 0.43975 0.28749 0.0
C3394 C 0.17117 0.43007 0.27755 0.0
C3395 C 0.17726 0.38009 0.28877 0.0
H3396 H 0.2308 0.40281 0.29228 0.0
C3397 C 0.23597 0.3324 0.29423 0.0
C3398 C 0.25037 0.33708 0.28202 0.0
C3399 C 0.22298 0.34497 0.29674 0.0
C3400 C 0.2159 0.39622 0.29116 0.0
H3401 H 0.12796 0.42075 0.30749 0.0
H3402 H 0.15092 0.39843 0.30897 0.0
H3403 H 0.20745 0.42441 0.29307 0.0
H3404 H 0.26299 0.35874 0.26337 0.0
H3405 H 0.24035 0.38073 0.2677 0.0
H3406 H 0.18574 0.35187 0.28655 0.0
C3407 C 0.15302 0.41068 0.29979 0.0
C3408 C 0.20253 0.4086 0.29162 0.0
C3409 C 0.13992 0.4235 0.29899 0.0
C3410 C 0.25201 0.35483 0.27289 0.0
C3411 C 0.23907 0.36742 0.27543 0.0
C3412 C 0.19067 0.36768 0.28828 0.0
C3413 C 0.16887 0.41395 0.28919 0.0
C3414 C 0.18304 0.40068 0.29012 0.0
C3415 C 0.2243 0.36256 0.28724 0.0
C3416 C 0.21012 0.37563 0.28917 0.0
H3417 H 0.16041 0.45511 0.26761 0.0
H3418 H 0.18304 0.43279 0.26893 0.0
H3419 H 0.16234 0.37355 0.28743 0.0
H3420 H 0.23463 0.3189 0.30166 0.0
H3421 H 0.21192 0.34093 0.30614 0.0
C3422 C 0.19451 0.44673 0.981 0.0
C3423 C 0.18826 0.4287 0.98876 0.0
C3424 C 0.18147 0.45826 0.97411 0.0
C3425 C 0.12932 0.45715 0.96219 0.0
H3426 H 0.14357 0.51334 0.97662 0.0
C3427 C 0.072 0.50481 0.96156 0.0
C3428 C 0.07368 0.51783 0.97853 0.0
C3429 C 0.08753 0.4966 0.95675 0.0
C3430 C 0.13932 0.49767 0.97252 0.0
H3431 H 0.16356 0.40844 0.99524 0.0
H3432 H 0.14094 0.42886 0.98426 0.0
H3433 H 0.16741 0.49259 0.98033 0.0
H3434 H 0.09296 0.53348 0.00317 0.0
H3435 H 0.11972 0.5186 0.99549 0.0
H3436 H 0.10091 0.46188 0.95622 0.0
C3437 C 0.15577 0.43391 0.98272 0.0
C3438 C 0.1531 0.48576 0.97435 0.0
C3439 C 0.16876 0.42225 0.98924 0.0
C3440 C 0.09133 0.52346 0.98998 0.0
C3441 C 0.10675 0.515 0.98542 0.0
C3442 C 0.11547 0.46899 0.96078 0.0
C3443 C 0.16194 0.45215 0.97518 0.0
C3444 C 0.14812 0.46522 0.96992 0.0
C3445 C 0.1049 0.50098 0.96909 0.0
C3446 C 0.12016 0.4893 0.96664 0.0
H3447 H 0.20948 0.45193 0.98024 0.0
H3448 H 0.18673 0.47202 0.9681 0.0
H3449 H 0.12506 0.4415 0.95803 0.0
H3450 H 0.05851 0.50041 0.9524 0.0
H3451 H 0.08569 0.48624 0.9438 0.0
C3452 C 0.83903 0.99334 0.24895 0.0
C3453 C 0.85888 0.99724 0.25352 0.0
C3454 C 0.82859 0.97467 0.25097 0.0
C3455 C 0.83106 0.92893 0.27575 0.0
H3456 H 0.79166 0.90502 0.23389 0.0
C3457 C 0.78354 0.85295 0.28048 0.0
C3458 C 0.78089 0.8399 0.26334 0.0
C3459 C 0.79195 0.87274 0.28 0.0
C3460 C 0.80264 0.91149 0.24569 0.0
H3461 H 0.8833 0.98458 0.26388 0.0
H3462 H 0.86511 0.95204 0.26726 0.0
H3463 H 0.80875 0.9384 0.23173 0.0
H3464 H 0.78486 0.83753 0.23218 0.0
H3465 H 0.79951 0.87187 0.23142 0.0
H3466 H 0.82527 0.90181 0.28944 0.0
C3467 C 0.85759 0.96347 0.26233 0.0
C3468 C 0.8123 0.93069 0.24455 0.0
C3469 C 0.86803 0.9821 0.26025 0.0
C3470 C 0.78664 0.84714 0.24568 0.0
C3471 C 0.79494 0.86689 0.24519 0.0
C3472 C 0.82134 0.90976 0.27693 0.0
C3473 C 0.83775 0.95952 0.25768 0.0
C3474 C 0.82678 0.93954 0.25945 0.0
C3475 C 0.79776 0.87991 0.26234 0.0
C3476 C 0.80719 0.90074 0.26178 0.0
H3477 H 0.83154 0.0047 0.24378 0.0
H3478 H 0.8133 0.97214 0.24745 0.0
H3479 H 0.84199 0.93544 0.28758 0.0
H3480 H 0.77927 0.84788 0.29432 0.0
H3481 H 0.7938 0.88247 0.29342 0.0
C3482 C 0.65211 0.04674 0.73975 0.0
C3483 C 0.64887 0.03959 0.75817 0.0
C3484 C 0.66319 0.06527 0.73871 0.0
C3485 C 0.70053 0.10272 0.76624 0.0
H3486 H 0.68036 0.1387 0.73196 0.0
C3487 C 0.73484 0.18504 0.76822 0.0
C3488 C 0.73392 0.19424 0.75048 0.0
C3489 C 0.72548 0.16564 0.76887 0.0
C3490 C 0.68641 0.12875 0.74134 0.0
H3491 H 0.65498 0.04611 0.78996 0.0
H3492 H 0.67457 0.07848 0.7881 0.0
H3493 H 0.66214 0.10582 0.73365 0.0
H3494 H 0.72324 0.19035 0.71936 0.0
H3495 H 0.70747 0.15624 0.72024 0.0
H3496 H 0.72494 0.12547 0.77373 0.0
C3497 C 0.66847 0.0697 0.7745 0.0
C3498 C 0.67589 0.10994 0.74237 0.0
C3499 C 0.65718 0.05125 0.77554 0.0
C3500 C 0.72405 0.18358 0.73325 0.0
C3501 C 0.71489 0.1641 0.73383 0.0
C3502 C 0.71118 0.12148 0.76504 0.0
C3503 C 0.67145 0.07694 0.75606 0.0
C3504 C 0.68281 0.09678 0.75488 0.0
C3505 C 0.71518 0.15499 0.75172 0.0
C3506 C 0.70421 0.13477 0.75263 0.0
H3507 H 0.64592 0.03812 0.72609 0.0
H3508 H 0.66539 0.07044 0.72431 0.0
H3509 H 0.70626 0.09275 0.77586 0.0
H3510 H 0.74228 0.19304 0.78175 0.0
H3511 H 0.72583 0.15924 0.78297 0.0
loop_
_geom_bond_atom_site_label_1
_geom_bond_atom_site_label_2
_geom_bond_distance
_geom_bond_site_symmetry_2
_ccdc_geom_bond_type
C0 O1 1.160 . S
C0 O7 1.185 . S
O1 C0 1.160 . S
O2 Zn3 1.899 . S
O2 C10 1.284 . S
Zn3 O2 1.899 . S
Zn3 O4 2.032 . S
Zn3 O7 2.086 . S
Zn3 O12 1.977 1_455 S
O4 Zn3 2.032 . S
O4 C8 1.278 . S
C5 O6 1.203 . S
C5 O12 1.267 . S
O6 C5 1.203 . S
O7 C0 1.185 . S
O7 Zn3 2.086 . S
C8 O4 1.278 . S
C8 O9 1.164 1_455 S
O9 C8 1.164 1_655 S
C10 O2 1.284 . S
C10 O11 1.273 . S
O11 C10 1.273 . S
O12 Zn3 1.977 1_655 S
O12 C5 1.267 . S
C13 O14 1.160 . S
C13 O20 1.185 . S
O14 C13 1.160 . S
O15 Zn16 1.899 . S
O15 C23 1.284 . S
Zn16 O15 1.899 . S
Zn16 O17 2.032 . S
Zn16 O20 2.086 . S
Zn16 O25 1.977 1_655 S
O17 Zn16 2.032 . S
O17 C21 1.278 1_655 S
C18 O19 1.203 . S
C18 O25 1.267 . S
O19 C18 1.203 . S
O20 C13 1.185 . S
O20 Zn16 2.086 . S
C21 O17 1.278 1_455 S
C21 O22 1.211 . S
O22 C21 1.211 . S
C23 O15 1.284 . S
C23 O24 1.273 1_655 S
O24 C23 1.273 1_455 S
O25 Zn16 1.977 1_455 S
O25 C18 1.267 . S
C26 O27 1.160 . S
C26 O33 1.185 . S
O27 C26 1.160 . S
O28 Zn29 1.899 . S
O28 C36 1.284 . S
Zn29 O28 1.899 . S
Zn29 O30 2.032 . S
Zn29 O33 2.086 . S
Zn29 O38 1.977 . S
O30 Zn29 2.032 . S
O30 C34 1.278 . S
C31 O32 1.203 . S
C31 O38 1.267 . S
O32 C31 1.203 . S
O33 C26 1.185 . S
O33 Zn29 2.086 . S
C34 O30 1.278 . S
C34 O35 1.211 . S
O35 C34 1.211 . S
C36 O28 1.284 . S
C36 O37 1.273 . S
O37 C36 1.273 . S
O38 Zn29 1.977 . S
O38 C31 1.267 . S
C39 O40 1.160 . S
C39 O46 1.185 . S
O40 C39 1.160 . S
O41 Zn42 1.899 . S
O41 C49 1.284 . S
Zn42 O41 1.899 . S
Zn42 O43 2.032 . S
Zn42 O46 2.086 . S
Zn42 O51 1.977 . S
O43 Zn42 2.032 . S
O43 C47 1.278 . S
C44 O45 1.203 . S
C44 O51 1.267 . S
O45 C44 1.203 . S
O46 C39 1.185 . S
O46 Zn42 2.086 . S
C47 O43 1.278 . S
C47 O48 1.211 . S
O48 C47 1.211 . S
C49 O41 1.284 . S
C49 O50 1.273 . S
O50 C49 1.273 . S
O51 Zn42 1.977 . S
O51 C44 1.267 . S
C52 O53 1.160 . S
C52 O59 1.185 . S
O53 C52 1.160 . S
O54 Zn55 1.899 . S
O54 C62 1.284 . S
Zn55 O54 1.899 . S
Zn55 O56 2.032 1_455 S
Zn55 O59 2.086 1_455 S
Zn55 O64 1.977 . S
O56 Zn55 2.032 1_655 S
O56 C60 1.278 1_655 S
C57 O58 1.203 . S
C57 O64 1.267 . S
O58 C57 1.203 . S
O59 C52 1.185 . S
O59 Zn55 2.086 1_655 S
C60 O56 1.278 1_455 S
C60 O61 1.211 . S
O61 C60 1.211 . S
C62 O54 1.284 . S
C62 O63 1.273 . S
O63 C62 1.273 . S
O64 Zn55 1.977 . S
O64 C57 1.267 . S
C65 O66 1.160 . S
C65 O72 1.185 . S
O66 C65 1.160 . S
O67 Zn68 1.899 . S
O67 C75 1.284 . S
Zn68 O67 1.899 . S
Zn68 O69 2.032 . S
Zn68 O72 2.086 . S
Zn68 O77 1.977 . S
O69 Zn68 2.032 . S
O69 C73 1.278 . S
C70 O71 1.203 . S
C70 O77 1.267 . S
O71 C70 1.203 . S
O72 C65 1.185 . S
O72 Zn68 2.086 . S
C73 O69 1.278 . S
C73 O74 1.211 . S
O74 C73 1.211 . S
C75 O67 1.284 . S
C75 O76 1.273 . S
O76 C75 1.273 . S
O77 Zn68 1.977 . S
O77 C70 1.267 . S
C78 O79 1.160 . S
C78 O85 1.185 . S
O79 C78 1.160 . S
O80 Zn81 1.899 . S
O80 C88 1.284 . S
Zn81 O80 1.899 . S
Zn81 O82 2.032 . S
Zn81 O85 2.086 . S
Zn81 O90 1.977 . S
O82 Zn81 2.032 . S
O82 C86 1.278 . S
C83 O84 1.203 . S
C83 O90 1.267 . S
O84 C83 1.203 . S
O85 C78 1.185 . S
O85 Zn81 2.086 . S
C86 O82 1.278 . S
C86 O87 1.211 . S
O87 C86 1.211 . S
C88 O80 1.284 . S
C88 O89 1.273 . S
O89 C88 1.273 . S
O90 Zn81 1.977 . S
O90 C83 1.267 . S
C91 O92 1.160 . S
C91 O98 1.185 . S
O92 C91 1.160 . S
O93 Zn94 1.899 . S
O93 C101 1.284 . S
Zn94 O93 1.899 . S
Zn94 O95 2.032 . S
Zn94 O98 2.086 . S
Zn94 O103 1.977 1_455 S
O95 Zn94 2.032 . S
O95 C99 1.278 . S
C96 O97 1.203 . S
C96 O103 1.267 . S
O97 C96 1.203 . S
O98 C91 1.185 . S
O98 Zn94 2.086 . S
C99 O95 1.278 . S
C99 O100 1.211 1_455 S
O100 C99 1.211 1_655 S
C101 O93 1.284 . S
C101 O102 1.273 . S
O102 C101 1.273 . S
O103 Zn94 1.977 1_655 S
O103 C96 1.267 . S
C104 O105 1.160 . S
C104 O111 1.185 . S
O105 C104 1.160 . S
O106 Zn107 1.899 . S
O106 C114 1.284 . S
Zn107 O106 1.899 . S
Zn107 O108 2.032 . S
Zn107 O111 2.086 . S
Zn107 O116 1.977 . S
O108 Zn107 2.032 . S
O108 C112 1.278 . S
C109 O110 1.203 . S
C109 O116 1.267 . S
O110 C109 1.203 . S
O111 C104 1.185 . S
O111 Zn107 2.086 . S
C112 O108 1.278 . S
C112 O113 1.211 . S
O113 C112 1.211 . S
C114 O106 1.284 . S
C114 O115 1.273 . S
O115 C114 1.273 . S
O116 Zn107 1.977 . S
O116 C109 1.267 . S
C117 O118 1.160 . S
C117 O124 1.185 . S
O118 C117 1.160 . S
O119 Zn120 1.899 . S
O119 C127 1.284 . S
Zn120 O119 1.899 . S
Zn120 O121 2.032 . S
Zn120 O124 2.086 . S
Zn120 O129 1.977 . S
O121 Zn120 2.032 . S
O121 C125 1.278 . S
C122 O123 1.203 . S
C122 O129 1.267 . S
O123 C122 1.203 . S
O124 C117 1.185 . S
O124 Zn120 2.086 . S
C125 O121 1.278 . S
C125 O126 1.211 . S
O126 C125 1.211 . S
C127 O119 1.284 . S
C127 O128 1.273 . S
O128 C127 1.273 . S
O129 Zn120 1.977 . S
O129 C122 1.267 . S
C130 O131 1.160 . S
C130 O137 1.185 . S
O131 C130 1.160 . S
O132 Zn133 1.899 . S
O132 C140 1.284 . S
Zn133 O132 1.899 . S
Zn133 O134 2.032 . S
Zn133 O137 2.086 . S
Zn133 O142 1.977 1_565 S
O134 Zn133 2.032 . S
O134 C138 1.278 1_565 S
C135 O136 1.203 . S
C135 O142 1.267 . S
O136 C135 1.203 . S
O137 C130 1.185 . S
O137 Zn133 2.086 . S
C138 O134 1.278 1_545 S
C138 O139 1.211 . S
O139 C138 1.211 . S
C140 O132 1.284 . S
C140 O141 1.273 1_565 S
O141 C140 1.273 1_545 S
O142 Zn133 1.977 1_545 S
O142 C135 1.267 . S
C143 O144 1.160 . S
C143 O150 1.185 . S
O144 C143 1.160 . S
O145 Zn146 1.899 . S
O145 C153 1.284 . S
Zn146 O145 1.899 . S
Zn146 O147 2.032 . S
Zn146 O150 2.086 . S
Zn146 O155 1.977 . S
O147 Zn146 2.032 . S
O147 C151 1.278 1_554 S
C148 O149 1.203 . S
C148 O155 1.267 . S
O149 C148 1.203 . S
O150 C143 1.185 . S
O150 Zn146 2.086 . S
C151 O147 1.278 1_556 S
C151 O152 1.213 . S
O152 C151 1.213 . S
C153 O145 1.284 . S
C153 O154 1.273 . S
O154 C153 1.273 . S
O155 Zn146 1.977 . S
O155 C148 1.267 . S
C156 O157 1.160 . S
C156 O163 1.185 . S
O157 C156 1.160 . S
O158 Zn159 1.899 . S
O158 C166 1.284 . S
Zn159 O158 1.899 . S
Zn159 O160 2.032 . S
Zn159 O163 2.086 . S
Zn159 O168 1.977 . S
O160 Zn159 2.032 . S
O160 C164 1.278 1_554 S
C161 O162 1.203 . S
C161 O168 1.267 . S
O162 C161 1.203 . S
O163 C156 1.185 . S
O163 Zn159 2.086 . S
C164 O160 1.278 1_556 S
C164 O165 1.211 . S
O165 C164 1.211 . S
C166 O158 1.284 . S
C166 O167 1.273 . S
O167 C166 1.273 . S
O168 Zn159 1.977 . S
O168 C161 1.267 . S
C169 O170 1.160 . S
C169 O176 1.185 1_554 S
O170 C169 1.160 . S
O171 Zn172 1.899 . S
O171 C179 1.284 . S
Zn172 O171 1.899 . S
Zn172 O173 2.032 1_554 S
Zn172 O176 2.086 1_554 S
Zn172 O181 1.977 1_554 S
O173 Zn172 2.032 1_556 S
O173 C177 1.278 . S
C174 O175 1.201 . S
C174 O181 1.268 1_554 S
O175 C174 1.201 . S
O176 C169 1.185 1_556 S
O176 Zn172 2.086 1_556 S
C177 O173 1.278 . S
C177 O178 1.211 . S
O178 C177 1.211 . S
C179 O171 1.284 . S
C179 O180 1.273 . S
O180 C179 1.273 . S
O181 Zn172 1.977 1_556 S
O181 C174 1.268 1_556 S
C182 O183 1.160 . S
C182 O189 1.185 . S
O183 C182 1.160 . S
O184 Zn185 1.899 . S
O184 C192 1.284 . S
Zn185 O184 1.899 . S
Zn185 O186 2.032 . S
Zn185 O189 2.086 . S
Zn185 O194 1.977 . S
O186 Zn185 2.032 . S
O186 C190 1.278 . S
C187 O188 1.203 . S
C187 O194 1.267 . S
O188 C187 1.203 . S
O189 C182 1.185 . S
O189 Zn185 2.086 . S
C190 O186 1.278 . S
C190 O191 1.211 . S
O191 C190 1.211 . S
C192 O184 1.284 . S
C192 O193 1.273 . S
O193 C192 1.273 . S
O194 Zn185 1.977 . S
O194 C187 1.267 . S
C195 O196 1.160 . S
C195 O202 1.185 . S
O196 C195 1.160 . S
O197 Zn198 1.899 . S
O197 C205 1.284 . S
Zn198 O197 1.899 . S
Zn198 O199 2.032 . S
Zn198 O202 2.086 . S
Zn198 O207 1.977 . S
O199 Zn198 2.032 . S
O199 C203 1.278 . S
C200 O201 1.203 . S
C200 O207 1.267 . S
O201 C200 1.203 . S
O202 C195 1.185 . S
O202 Zn198 2.086 . S
C203 O199 1.278 . S
C203 O204 1.211 . S
O204 C203 1.211 . S
C205 O197 1.284 . S
C205 O206 1.273 . S
O206 C205 1.273 . S
O207 Zn198 1.977 . S
O207 C200 1.267 . S
C208 O209 1.160 . S
C208 O215 1.185 . S
O209 C208 1.160 . S
O210 Zn211 1.899 . S
O210 C218 1.284 . S
Zn211 O210 1.899 . S
Zn211 O212 2.032 . S
Zn211 O215 2.086 . S
Zn211 O220 1.977 . S
O212 Zn211 2.032 . S
O212 C216 1.278 . S
C213 O214 1.203 . S
C213 O220 1.267 . S
O214 C213 1.203 . S
O215 C208 1.185 . S
O215 Zn211 2.086 . S
C216 O212 1.278 . S
C216 O217 1.211 . S
O217 C216 1.211 . S
C218 O210 1.284 . S
C218 O219 1.273 . S
O219 C218 1.273 . S
O220 Zn211 1.977 . S
O220 C213 1.267 . S
C221 O222 1.160 . S
C221 O228 1.185 . S
O222 C221 1.160 . S
O223 Zn224 1.899 . S
O223 C231 1.284 . S
Zn224 O223 1.899 . S
Zn224 O225 2.032 . S
Zn224 O228 2.086 . S
Zn224 O233 1.977 . S
O225 Zn224 2.032 . S
O225 C229 1.278 . S
C226 O227 1.203 . S
C226 O233 1.267 . S
O227 C226 1.203 . S
O228 C221 1.185 . S
O228 Zn224 2.086 . S
C229 O225 1.278 . S
C229 O230 1.211 . S
O230 C229 1.211 . S
C231 O223 1.284 . S
C231 O232 1.273 . S
O232 C231 1.273 . S
O233 Zn224 1.977 . S
O233 C226 1.267 . S
C234 O235 1.160 . S
C234 O241 1.185 . S
O235 C234 1.160 . S
O236 Zn237 1.899 . S
O236 C244 1.284 . S
Zn237 O236 1.899 . S
Zn237 O238 2.032 . S
Zn237 O241 2.086 . S
Zn237 O246 1.977 . S
O238 Zn237 2.032 . S
O238 C242 1.278 . S
C239 O240 1.203 . S
C239 O246 1.267 . S
O240 C239 1.203 . S
O241 C234 1.185 . S
O241 Zn237 2.086 . S
C242 O238 1.278 . S
C242 O243 1.211 . S
O243 C242 1.211 . S
C244 O236 1.284 . S
C244 O245 1.273 . S
O245 C244 1.273 . S
O246 Zn237 1.977 . S
O246 C239 1.267 . S
C247 O248 1.160 . S
C247 O254 1.185 . S
O248 C247 1.160 . S
O249 Zn250 1.899 . S
O249 C257 1.284 . S
Zn250 O249 1.899 . S
Zn250 O251 2.032 . S
Zn250 O254 2.086 1_545 S
Zn250 O259 1.977 . S
O251 Zn250 2.032 . S
O251 C255 1.278 . S
C252 O253 1.203 . S
C252 O259 1.267 . S
O253 C252 1.203 . S
O254 C247 1.185 . S
O254 Zn250 2.086 1_565 S
C255 O251 1.278 . S
C255 O256 1.211 . S
O256 C255 1.211 . S
C257 O249 1.284 . S
C257 O258 1.273 . S
O258 C257 1.273 . S
O259 Zn250 1.977 . S
O259 C252 1.267 . S
C260 O261 1.160 . S
C260 O267 1.185 . S
O261 C260 1.160 . S
O262 Zn263 1.899 . S
O262 C270 1.284 . S
Zn263 O262 1.899 . S
Zn263 O264 2.032 1_554 S
Zn263 O267 2.086 . S
Zn263 O272 1.979 . S
O264 Zn263 2.032 1_556 S
O264 C268 1.278 . S
C265 O266 1.203 . S
C265 O272 1.272 . S
O266 C265 1.203 . S
O267 C260 1.185 . S
O267 Zn263 2.086 . S
C268 O264 1.278 . S
C268 O269 1.211 . S
O269 C268 1.211 . S
C270 O262 1.284 . S
C270 O271 1.273 . S
O271 C270 1.273 . S
O272 Zn263 1.979 . S
O272 C265 1.272 . S
C273 O274 1.160 . S
C273 O280 1.185 . S
O274 C273 1.160 . S
O275 Zn276 1.899 . S
O275 C283 1.284 . S
Zn276 O275 1.899 . S
Zn276 O277 2.032 . S
Zn276 O280 2.086 . S
Zn276 O285 1.977 . S
O277 Zn276 2.032 . S
O277 C281 1.278 . S
C278 O279 1.203 . S
C278 O285 1.267 . S
O279 C278 1.203 . S
O280 C273 1.185 . S
O280 Zn276 2.086 . S
C281 O277 1.278 . S
C281 O282 1.211 . S
O282 C281 1.211 . S
C283 O275 1.284 . S
C283 O284 1.273 . S
O284 C283 1.273 . S
O285 Zn276 1.977 . S
O285 C278 1.267 . S
C286 O287 1.160 . S
C286 O293 1.185 . S
O287 C286 1.160 . S
O288 Zn289 1.899 . S
O288 C296 1.284 . S
Zn289 O288 1.899 . S
Zn289 O290 2.032 . S
Zn289 O293 2.086 . S
Zn289 O298 1.977 . S
O290 Zn289 2.032 . S
O290 C294 1.278 . S
C291 O292 1.203 . S
C291 O298 1.267 . S
O292 C291 1.203 . S
O293 C286 1.185 . S
O293 Zn289 2.086 . S
C294 O290 1.278 . S
C294 O295 1.211 . S
O295 C294 1.211 . S
C296 O288 1.284 . S
C296 O297 1.273 . S
O297 C296 1.273 . S
O298 Zn289 1.977 . S
O298 C291 1.267 . S
C299 O300 1.160 . S
C299 O306 1.185 . S
O300 C299 1.160 . S
O301 Zn302 1.899 . S
O301 C309 1.284 . S
Zn302 O301 1.899 . S
Zn302 O303 2.032 . S
Zn302 O306 2.086 . S
Zn302 O311 1.977 . S
O303 Zn302 2.032 . S
O303 C307 1.278 . S
C304 O305 1.203 . S
C304 O311 1.267 . S
O305 C304 1.203 . S
O306 C299 1.185 . S
O306 Zn302 2.086 . S
C307 O303 1.278 . S
C307 O308 1.211 . S
O308 C307 1.211 . S
C309 O301 1.284 . S
C309 O310 1.273 . S
O310 C309 1.273 . S
O311 Zn302 1.977 . S
O311 C304 1.267 . S
Tb312 O315 2.453 . S
Tb312 O316 2.596 . S
Tb312 O317 2.374 1_554 S
Tb312 O325 2.343 1_455 S
Tb312 O327 2.353 . S
Tb312 O329 2.427 . S
Tb312 O330 2.513 1_554 S
C313 O317 1.251 . S
C313 O319 1.234 1_455 S
Tb314 O316 2.342 1_665 S
Tb314 O319 2.371 1_564 S
Tb314 O322 2.439 . S
Tb314 O323 2.515 . S
Tb314 O324 2.451 1_564 S
Tb314 O325 2.593 1_565 S
Tb314 O326 2.372 1_565 S
O315 Tb312 2.453 . S
O315 C331 1.245 . S
O316 Tb312 2.596 . S
O316 Tb314 2.342 1_445 S
O316 C331 1.259 . S
O317 Tb312 2.374 1_556 S
O317 C313 1.251 . S
C318 O322 1.274 1_455 S
C318 O323 1.246 1_455 S
O319 C313 1.234 1_655 S
O319 Tb314 2.371 1_546 S
C320 O324 1.244 . S
C320 O325 1.260 1_556 S
C321 O326 1.250 . S
C321 O327 1.263 1_655 S
O322 Tb314 2.439 . S
O322 C318 1.274 1_655 S
O323 Tb314 2.515 . S
O323 C318 1.246 1_655 S
O324 Tb314 2.451 1_546 S
O324 C320 1.244 . S
O325 Tb312 2.343 1_655 S
O325 Tb314 2.593 1_545 S
O325 C320 1.260 1_554 S
O326 Tb314 2.372 1_545 S
O326 C321 1.250 . S
O327 Tb312 2.353 . S
O327 C321 1.263 1_455 S
C328 O329 1.275 1_556 S
C328 O330 1.246 . S
O329 Tb312 2.427 . S
O329 C328 1.275 1_554 S
O330 Tb312 2.513 1_556 S
O330 C328 1.246 . S
C331 O315 1.245 . S
C331 O316 1.259 . S
Tb332 O335 2.453 . S
Tb332 O336 2.596 . S
Tb332 O337 2.374 . S
Tb332 O345 2.343 . S
Tb332 O347 2.353 . S
Tb332 O349 2.427 . S
Tb332 O350 2.513 . S
C333 O337 1.251 . S
C333 O339 1.263 . S
Tb334 O336 2.343 . S
Tb334 O339 2.353 . S
Tb334 O342 2.427 . S
Tb334 O343 2.513 . S
Tb334 O344 2.453 . S
Tb334 O345 2.596 . S
Tb334 O346 2.374 . S
O335 Tb332 2.453 . S
O335 C351 1.245 . S
O336 Tb332 2.596 . S
O336 Tb334 2.343 . S
O336 C351 1.259 . S
O337 Tb332 2.374 . S
O337 C333 1.251 . S
C338 O342 1.275 . S
C338 O343 1.246 . S
O339 C333 1.263 . S
O339 Tb334 2.353 . S
C340 O344 1.245 . S
C340 O345 1.259 . S
C341 O346 1.250 . S
C341 O347 1.263 . S
O342 Tb334 2.427 . S
O342 C338 1.275 . S
O343 Tb334 2.513 . S
O343 C338 1.246 . S
O344 Tb334 2.453 . S
O344 C340 1.245 . S
O345 Tb332 2.343 . S
O345 Tb334 2.596 . S
O345 C340 1.259 . S
O346 Tb334 2.374 . S
O346 C341 1.250 . S
O347 Tb332 2.353 . S
O347 C341 1.263 . S
C348 O349 1.275 . S
C348 O350 1.246 . S
O349 Tb332 2.427 . S
O349 C348 1.275 . S
O350 Tb332 2.513 . S
O350 C348 1.246 . S
C351 O335 1.245 . S
C351 O336 1.259 . S
Tb352 O355 2.453 . S
Tb352 O356 2.596 . S
Tb352 O357 2.374 . S
Tb352 O365 2.343 . S
Tb352 O367 2.353 . S
Tb352 O369 2.427 . S
Tb352 O370 2.513 . S
C353 O357 1.251 . S
C353 O359 1.263 . S
Tb354 O356 2.343 . S
Tb354 O359 2.353 . S
Tb354 O362 2.427 . S
Tb354 O363 2.513 . S
Tb354 O364 2.453 1_545 S
Tb354 O365 2.596 . S
Tb354 O366 2.374 . S
O355 Tb352 2.453 . S
O355 C371 1.245 . S
O356 Tb352 2.596 . S
O356 Tb354 2.343 . S
O356 C371 1.259 . S
O357 Tb352 2.374 . S
O357 C353 1.251 . S
C358 O362 1.275 . S
C358 O363 1.246 . S
O359 C353 1.263 . S
O359 Tb354 2.353 . S
C360 O364 1.245 . S
C360 O365 1.259 1_565 S
C361 O366 1.250 . S
C361 O367 1.263 . S
O362 Tb354 2.427 . S
O362 C358 1.275 . S
O363 Tb354 2.513 . S
O363 C358 1.246 . S
O364 Tb354 2.453 1_565 S
O364 C360 1.245 . S
O365 Tb352 2.343 . S
O365 Tb354 2.596 . S
O365 C360 1.259 1_545 S
O366 Tb354 2.374 . S
O366 C361 1.250 . S
O367 Tb352 2.353 . S
O367 C361 1.263 . S
C368 O369 1.275 . S
C368 O370 1.246 . S
O369 Tb352 2.427 . S
O369 C368 1.275 . S
O370 Tb352 2.513 . S
O370 C368 1.246 . S
C371 O355 1.245 . S
C371 O356 1.259 . S
Tb372 O375 2.453 . S
Tb372 O376 2.596 . S
Tb372 O377 2.374 . S
Tb372 O385 2.343 . S
Tb372 O387 2.353 . S
Tb372 O389 2.427 . S
Tb372 O390 2.513 . S
C373 O377 1.251 . S
C373 O379 1.263 . S
Tb374 O376 2.343 . S
Tb374 O379 2.353 . S
Tb374 O382 2.427 . S
Tb374 O383 2.513 . S
Tb374 O384 2.453 . S
Tb374 O385 2.596 . S
Tb374 O386 2.374 . S
O375 Tb372 2.453 . S
O375 C391 1.245 . S
O376 Tb372 2.596 . S
O376 Tb374 2.343 . S
O376 C391 1.259 . S
O377 Tb372 2.374 . S
O377 C373 1.251 . S
C378 O382 1.275 . S
C378 O383 1.246 . S
O379 C373 1.263 . S
O379 Tb374 2.353 . S
C380 O384 1.245 . S
C380 O385 1.259 . S
C381 O386 1.250 . S
C381 O387 1.263 . S
O382 Tb374 2.427 . S
O382 C378 1.275 . S
O383 Tb374 2.513 . S
O383 C378 1.246 . S
O384 Tb374 2.453 . S
O384 C380 1.245 . S
O385 Tb372 2.343 . S
O385 Tb374 2.596 . S
O385 C380 1.259 . S
O386 Tb374 2.374 . S
O386 C381 1.250 . S
O387 Tb372 2.353 . S
O387 C381 1.263 . S
C388 O389 1.275 . S
C388 O390 1.246 . S
O389 Tb372 2.427 . S
O389 C388 1.275 . S
O390 Tb372 2.513 . S
O390 C388 1.246 . S
C391 O375 1.245 . S
C391 O376 1.259 . S
Tb392 O395 2.453 1_545 S
Tb392 O396 2.596 . S
Tb392 O397 2.374 1_455 S
Tb392 O405 2.343 . S
Tb392 O407 2.353 . S
Tb392 O409 2.427 . S
Tb392 O410 2.513 1_455 S
C393 O397 1.251 . S
C393 O399 1.263 . S
Tb394 O396 2.343 . S
Tb394 O399 2.353 1_455 S
Tb394 O402 2.427 . S
Tb394 O403 2.513 . S
Tb394 O404 2.453 . S
Tb394 O405 2.596 . S
Tb394 O406 2.374 . S
O395 Tb392 2.453 1_565 S
O395 C411 1.245 . S
O396 Tb392 2.596 . S
O396 Tb394 2.343 . S
O396 C411 1.259 1_545 S
O397 Tb392 2.374 1_655 S
O397 C393 1.251 . S
C398 O402 1.275 . S
C398 O403 1.246 . S
O399 C393 1.263 . S
O399 Tb394 2.353 1_655 S
C400 O404 1.245 . S
C400 O405 1.259 . S
C401 O406 1.250 . S
C401 O407 1.263 . S
O402 Tb394 2.427 . S
O402 C398 1.275 . S
O403 Tb394 2.513 . S
O403 C398 1.246 . S
O404 Tb394 2.453 . S
O404 C400 1.245 . S
O405 Tb392 2.343 . S
O405 Tb394 2.596 . S
O405 C400 1.259 . S
O406 Tb394 2.374 . S
O406 C401 1.250 . S
O407 Tb392 2.353 . S
O407 C401 1.263 . S
C408 O409 1.275 1_655 S
C408 O410 1.246 . S
O409 Tb392 2.427 . S
O409 C408 1.275 1_455 S
O410 Tb392 2.513 1_655 S
O410 C408 1.246 . S
C411 O395 1.245 . S
C411 O396 1.259 1_565 S
Tb412 O415 2.453 . S
Tb412 O416 2.596 . S
Tb412 O417 2.374 . S
Tb412 O425 2.343 . S
Tb412 O427 2.353 . S
Tb412 O429 2.427 . S
Tb412 O430 2.513 . S
C413 O417 1.251 . S
C413 O419 1.263 . S
Tb414 O416 2.343 . S
Tb414 O419 2.353 . S
Tb414 O422 2.427 . S
Tb414 O423 2.513 . S
Tb414 O424 2.453 . S
Tb414 O425 2.596 . S
Tb414 O426 2.374 . S
O415 Tb412 2.453 . S
O415 C431 1.245 . S
O416 Tb412 2.596 . S
O416 Tb414 2.343 . S
O416 C431 1.259 . S
O417 Tb412 2.374 . S
O417 C413 1.251 . S
C418 O422 1.275 . S
C418 O423 1.246 . S
O419 C413 1.263 . S
O419 Tb414 2.353 . S
C420 O424 1.245 . S
C420 O425 1.259 . S
C421 O426 1.250 . S
C421 O427 1.263 . S
O422 Tb414 2.427 . S
O422 C418 1.275 . S
O423 Tb414 2.513 . S
O423 C418 1.246 . S
O424 Tb414 2.453 . S
O424 C420 1.245 . S
O425 Tb412 2.343 . S
O425 Tb414 2.596 . S
O425 C420 1.259 . S
O426 Tb414 2.374 . S
O426 C421 1.250 . S
O427 Tb412 2.353 . S
O427 C421 1.263 . S
C428 O429 1.275 . S
C428 O430 1.246 . S
O429 Tb412 2.427 . S
O429 C428 1.275 . S
O430 Tb412 2.513 . S
O430 C428 1.246 . S
C431 O415 1.245 . S
C431 O416 1.259 . S
Tb432 O435 2.459 . S
Tb432 O436 2.598 1_556 S
Tb432 O437 2.374 1_545 S
Tb432 O445 2.336 1_556 S
Tb432 O447 2.351 1_556 S
Tb432 O449 2.423 1_556 S
Tb432 O450 2.476 1_546 S
C433 O437 1.244 1_554 S
C433 O439 1.263 . S
Tb434 O436 2.353 . S
Tb434 O439 2.353 1_545 S
Tb434 O442 2.427 . S
Tb434 O443 2.513 . S
Tb434 O444 2.453 . S
Tb434 O445 2.596 . S
Tb434 O446 2.374 . S
O435 Tb432 2.459 . S
O435 C451 1.245 . S
O436 Tb432 2.598 1_554 S
O436 Tb434 2.353 . S
O436 C451 1.249 1_554 S
O437 Tb432 2.374 1_565 S
O437 C433 1.244 1_556 S
C438 O442 1.275 . S
C438 O443 1.246 . S
O439 C433 1.263 . S
O439 Tb434 2.353 1_565 S
C440 O444 1.245 . S
C440 O445 1.259 . S
C441 O446 1.250 . S
C441 O447 1.263 . S
O442 Tb434 2.427 . S
O442 C438 1.275 . S
O443 Tb434 2.513 . S
O443 C438 1.246 . S
O444 Tb434 2.453 . S
O444 C440 1.245 . S
O445 Tb432 2.336 1_554 S
O445 Tb434 2.596 . S
O445 C440 1.259 . S
O446 Tb434 2.374 . S
O446 C441 1.250 . S
O447 Tb432 2.351 1_554 S
O447 C441 1.263 . S
C448 O449 1.275 . S
C448 O450 1.203 1_545 S
O449 Tb432 2.423 1_554 S
O449 C448 1.275 . S
O450 Tb432 2.476 1_564 S
O450 C448 1.203 1_565 S
C451 O435 1.245 . S
C451 O436 1.249 1_556 S
Tb452 O455 2.453 . S
Tb452 O456 2.596 . S
Tb452 O457 2.374 . S
Tb452 O465 2.343 . S
Tb452 O467 2.353 . S
Tb452 O469 2.427 . S
Tb452 O470 2.513 . S
C453 O457 1.251 . S
C453 O459 1.263 . S
Tb454 O456 2.343 . S
Tb454 O459 2.353 . S
Tb454 O462 2.427 . S
Tb454 O463 2.513 . S
Tb454 O464 2.453 . S
Tb454 O465 2.596 . S
Tb454 O466 2.374 . S
O455 Tb452 2.453 . S
O455 C471 1.245 . S
O456 Tb452 2.596 . S
O456 Tb454 2.343 . S
O456 C471 1.259 . S
O457 Tb452 2.374 . S
O457 C453 1.251 . S
C458 O462 1.275 . S
C458 O463 1.246 . S
O459 C453 1.263 . S
O459 Tb454 2.353 . S
C460 O464 1.245 . S
C460 O465 1.259 . S
C461 O466 1.250 . S
C461 O467 1.263 . S
O462 Tb454 2.427 . S
O462 C458 1.275 . S
O463 Tb454 2.513 . S
O463 C458 1.246 . S
O464 Tb454 2.453 . S
O464 C460 1.245 . S
O465 Tb452 2.343 . S
O465 Tb454 2.596 . S
O465 C460 1.259 . S
O466 Tb454 2.374 . S
O466 C461 1.250 . S
O467 Tb452 2.353 . S
O467 C461 1.263 . S
C468 O469 1.275 . S
C468 O470 1.246 . S
O469 Tb452 2.427 . S
O469 C468 1.275 . S
O470 Tb452 2.513 . S
O470 C468 1.246 . S
C471 O455 1.245 . S
C471 O456 1.259 . S
Tb472 O475 2.453 1_556 S
Tb472 O476 2.596 1_556 S
Tb472 O477 2.374 1_556 S
Tb472 O485 2.343 1_556 S
Tb472 O487 2.353 . S
Tb472 O489 2.427 . S
Tb472 O490 2.513 . S
C473 O477 1.251 . S
C473 O479 1.263 . S
Tb474 O476 2.343 . S
Tb474 O479 2.353 . S
Tb474 O482 2.427 . S
Tb474 O483 2.513 . S
Tb474 O484 2.453 . S
Tb474 O485 2.596 . S
Tb474 O486 2.374 . S
O475 Tb472 2.453 1_554 S
O475 C491 1.245 . S
O476 Tb472 2.596 1_554 S
O476 Tb474 2.343 . S
O476 C491 1.259 . S
O477 Tb472 2.374 1_554 S
O477 C473 1.251 . S
C478 O482 1.275 . S
C478 O483 1.246 . S
O479 C473 1.263 . S
O479 Tb474 2.353 . S
C480 O484 1.245 . S
C480 O485 1.259 . S
C481 O486 1.250 . S
C481 O487 1.263 1_554 S
O482 Tb474 2.427 . S
O482 C478 1.275 . S
O483 Tb474 2.513 . S
O483 C478 1.246 . S
O484 Tb474 2.453 . S
O484 C480 1.245 . S
O485 Tb472 2.343 1_554 S
O485 Tb474 2.596 . S
O485 C480 1.259 . S
O486 Tb474 2.374 . S
O486 C481 1.250 . S
O487 Tb472 2.353 . S
O487 C481 1.263 1_556 S
C488 O489 1.275 . S
C488 O490 1.246 . S
O489 Tb472 2.427 . S
O489 C488 1.275 . S
O490 Tb472 2.513 . S
O490 C488 1.246 . S
C491 O475 1.245 . S
C491 O476 1.259 . S
Tb492 O495 2.453 . S
Tb492 O496 2.596 . S
Tb492 O497 2.374 . S
Tb492 O505 2.343 . S
Tb492 O507 2.353 . S
Tb492 O509 2.427 . S
Tb492 O510 2.513 . S
C493 O497 1.251 . S
C493 O499 1.263 . S
Tb494 O496 2.343 . S
Tb494 O499 2.353 . S
Tb494 O502 2.427 . S
Tb494 O503 2.513 . S
Tb494 O504 2.453 . S
Tb494 O505 2.596 . S
Tb494 O506 2.374 . S
O495 Tb492 2.453 . S
O495 C511 1.245 . S
O496 Tb492 2.596 . S
O496 Tb494 2.343 . S
O496 C511 1.259 . S
O497 Tb492 2.374 . S
O497 C493 1.251 . S
C498 O502 1.275 . S
C498 O503 1.246 . S
O499 C493 1.263 . S
O499 Tb494 2.353 . S
C500 O504 1.245 . S
C500 O505 1.259 . S
C501 O506 1.250 . S
C501 O507 1.263 . S
O502 Tb494 2.427 . S
O502 C498 1.275 . S
O503 Tb494 2.513 . S
O503 C498 1.246 . S
O504 Tb494 2.453 . S
O504 C500 1.245 . S
O505 Tb492 2.343 . S
O505 Tb494 2.596 . S
O505 C500 1.259 . S
O506 Tb494 2.374 . S
O506 C501 1.250 . S
O507 Tb492 2.353 . S
O507 C501 1.263 . S
C508 O509 1.275 . S
C508 O510 1.246 . S
O509 Tb492 2.427 . S
O509 C508 1.275 . S
O510 Tb492 2.513 . S
O510 C508 1.246 . S
C511 O495 1.245 . S
C511 O496 1.259 . S
Tb512 O515 2.453 1_655 S
Tb512 O516 2.596 1_655 S
Tb512 O517 2.374 . S
Tb512 O525 2.343 . S
Tb512 O527 2.353 . S
Tb512 O529 2.427 . S
Tb512 O530 2.513 . S
C513 O517 1.251 1_455 S
C513 O519 1.263 . S
Tb514 O516 2.343 . S
Tb514 O519 2.353 . S
Tb514 O522 2.427 . S
Tb514 O523 2.513 . S
Tb514 O524 2.453 . S
Tb514 O525 2.596 1_455 S
Tb514 O526 2.374 . S
O515 Tb512 2.453 1_455 S
O515 C531 1.245 . S
O516 Tb512 2.596 1_455 S
O516 Tb514 2.343 . S
O516 C531 1.259 . S
O517 Tb512 2.374 . S
O517 C513 1.251 1_655 S
C518 O522 1.275 . S
C518 O523 1.246 . S
O519 C513 1.263 . S
O519 Tb514 2.353 . S
C520 O524 1.263 . S
C520 O525 1.259 1_455 S
C521 O526 1.250 . S
C521 O527 1.263 1_455 S
O522 Tb514 2.427 . S
O522 C518 1.275 . S
O523 Tb514 2.513 . S
O523 C518 1.246 . S
O524 Tb514 2.453 . S
O524 C520 1.263 . S
O525 Tb512 2.343 . S
O525 Tb514 2.596 1_655 S
O525 C520 1.259 1_655 S
O526 Tb514 2.374 . S
O526 C521 1.250 . S
O527 Tb512 2.353 . S
O527 C521 1.263 1_655 S
C528 O529 1.275 . S
C528 O530 1.246 . S
O529 Tb512 2.427 . S
O529 C528 1.275 . S
O530 Tb512 2.513 . S
O530 C528 1.246 . S
C531 O515 1.245 . S
C531 O516 1.259 . S
Tb532 O535 2.453 . S
Tb532 O536 2.596 . S
Tb532 O537 2.374 . S
Tb532 O545 2.343 . S
Tb532 O547 2.353 . S
Tb532 O549 2.427 . S
Tb532 O550 2.513 . S
C533 O537 1.251 . S
C533 O539 1.263 . S
Tb534 O536 2.343 . S
Tb534 O539 2.353 . S
Tb534 O542 2.427 . S
Tb534 O543 2.513 . S
Tb534 O544 2.453 . S
Tb534 O545 2.596 . S
Tb534 O546 2.374 . S
O535 Tb532 2.453 . S
O535 C551 1.245 . S
O536 Tb532 2.596 . S
O536 Tb534 2.343 . S
O536 C551 1.259 . S
O537 Tb532 2.374 . S
O537 C533 1.251 . S
C538 O542 1.275 . S
C538 O543 1.246 . S
O539 C533 1.263 . S
O539 Tb534 2.353 . S
C540 O544 1.245 . S
C540 O545 1.259 . S
C541 O546 1.250 . S
C541 O547 1.263 . S
O542 Tb534 2.427 . S
O542 C538 1.275 . S
O543 Tb534 2.513 . S
O543 C538 1.246 . S
O544 Tb534 2.453 . S
O544 C540 1.245 . S
O545 Tb532 2.343 . S
O545 Tb534 2.596 . S
O545 C540 1.259 . S
O546 Tb534 2.374 . S
O546 C541 1.250 . S
O547 Tb532 2.353 . S
O547 C541 1.263 . S
C548 O549 1.275 . S
C548 O550 1.246 . S
O549 Tb532 2.427 . S
O549 C548 1.275 . S
O550 Tb532 2.513 . S
O550 C548 1.246 . S
C551 O535 1.245 . S
C551 O536 1.259 . S
Tb552 O555 2.453 . S
Tb552 O556 2.596 . S
Tb552 O557 2.374 . S
Tb552 O565 2.343 . S
Tb552 O567 2.353 . S
Tb552 O569 2.427 . S
Tb552 O570 2.513 . S
C553 O557 1.251 . S
C553 O559 1.263 . S
Tb554 O556 2.343 . S
Tb554 O559 2.353 . S
Tb554 O562 2.427 . S
Tb554 O563 2.513 . S
Tb554 O564 2.453 . S
Tb554 O565 2.596 . S
Tb554 O566 2.374 . S
O555 Tb552 2.453 . S
O555 C571 1.245 . S
O556 Tb552 2.596 . S
O556 Tb554 2.343 . S
O556 C571 1.259 . S
O557 Tb552 2.374 . S
O557 C553 1.251 . S
C558 O562 1.275 . S
C558 O563 1.246 . S
O559 C553 1.263 . S
O559 Tb554 2.353 . S
C560 O564 1.245 . S
C560 O565 1.259 . S
C561 O566 1.250 . S
C561 O567 1.263 . S
O562 Tb554 2.427 . S
O562 C558 1.275 . S
O563 Tb554 2.513 . S
O563 C558 1.246 . S
O564 Tb554 2.453 . S
O564 C560 1.245 . S
O565 Tb552 2.343 . S
O565 Tb554 2.596 . S
O565 C560 1.259 . S
O566 Tb554 2.374 . S
O566 C561 1.250 . S
O567 Tb552 2.353 . S
O567 C561 1.263 . S
C568 O569 1.275 . S
C568 O570 1.246 . S
O569 Tb552 2.427 . S
O569 C568 1.275 . S
O570 Tb552 2.513 . S
O570 C568 1.246 . S
C571 O555 1.245 . S
C571 O556 1.259 . S
Tb572 O575 2.453 . S
Tb572 O576 2.596 . S
Tb572 O577 2.374 . S
Tb572 O585 2.343 . S
Tb572 O587 2.353 . S
Tb572 O589 2.427 . S
Tb572 O590 2.513 . S
C573 O577 1.251 . S
C573 O579 1.263 . S
Tb574 O576 2.343 . S
Tb574 O579 2.353 . S
Tb574 O582 2.427 . S
Tb574 O583 2.513 . S
Tb574 O584 2.453 . S
Tb574 O585 2.596 . S
Tb574 O586 2.374 . S
O575 Tb572 2.453 . S
O575 C591 1.245 . S
O576 Tb572 2.596 . S
O576 Tb574 2.343 . S
O576 C591 1.259 . S
O577 Tb572 2.374 . S
O577 C573 1.251 . S
C578 O582 1.275 . S
C578 O583 1.246 . S
O579 C573 1.263 . S
O579 Tb574 2.353 . S
C580 O584 1.245 . S
C580 O585 1.259 . S
C581 O586 1.250 . S
C581 O587 1.263 . S
O582 Tb574 2.427 . S
O582 C578 1.275 . S
O583 Tb574 2.513 . S
O583 C578 1.246 . S
O584 Tb574 2.453 . S
O584 C580 1.245 . S
O585 Tb572 2.343 . S
O585 Tb574 2.596 . S
O585 C580 1.259 . S
O586 Tb574 2.374 . S
O586 C581 1.250 . S
O587 Tb572 2.353 . S
O587 C581 1.263 . S
C588 O589 1.275 . S
C588 O590 1.246 . S
O589 Tb572 2.427 . S
O589 C588 1.275 . S
O590 Tb572 2.513 . S
O590 C588 1.246 . S
C591 O575 1.245 . S
C591 O576 1.259 . S
Tb592 O595 2.453 . S
Tb592 O596 2.596 . S
Tb592 O597 2.374 . S
Tb592 O605 2.343 . S
Tb592 O607 2.353 . S
Tb592 O609 2.427 . S
Tb592 O610 2.513 . S
C593 O597 1.251 . S
C593 O599 1.263 . S
Tb594 O596 2.343 . S
Tb594 O599 2.353 . S
Tb594 O602 2.427 . S
Tb594 O603 2.513 . S
Tb594 O604 2.453 . S
Tb594 O605 2.596 . S
Tb594 O606 2.374 . S
O595 Tb592 2.453 . S
O595 C611 1.245 . S
O596 Tb592 2.596 . S
O596 Tb594 2.343 . S
O596 C611 1.259 . S
O597 Tb592 2.374 . S
O597 C593 1.251 . S
C598 O602 1.275 . S
C598 O603 1.246 . S
O599 C593 1.263 . S
O599 Tb594 2.353 . S
C600 O604 1.245 . S
C600 O605 1.259 . S
C601 O606 1.250 . S
C601 O607 1.263 . S
O602 Tb594 2.427 . S
O602 C598 1.275 . S
O603 Tb594 2.513 . S
O603 C598 1.246 . S
O604 Tb594 2.453 . S
O604 C600 1.245 . S
O605 Tb592 2.343 . S
O605 Tb594 2.596 . S
O605 C600 1.259 . S
O606 Tb594 2.374 . S
O606 C601 1.250 . S
O607 Tb592 2.353 . S
O607 C601 1.263 . S
C608 O609 1.275 . S
C608 O610 1.246 . S
O609 Tb592 2.427 . S
O609 C608 1.275 . S
O610 Tb592 2.513 . S
O610 C608 1.246 . S
C611 O595 1.245 . S
C611 O596 1.259 . S
Tb612 O615 2.453 . S
Tb612 O616 2.596 . S
Tb612 O617 2.374 . S
Tb612 O625 2.343 . S
Tb612 O627 2.353 1_554 S
Tb612 O629 2.427 1_554 S
Tb612 O630 2.513 . S
C613 O617 1.251 . S
C613 O619 1.263 . S
Tb614 O616 2.343 1_655 S
Tb614 O619 2.353 1_655 S
Tb614 O622 2.427 . S
Tb614 O623 2.513 . S
Tb614 O624 2.453 . S
Tb614 O625 2.596 1_655 S
Tb614 O626 2.374 1_554 S
O615 Tb612 2.453 . S
O615 C631 1.245 . S
O616 Tb612 2.596 . S
O616 Tb614 2.343 1_455 S
O616 C631 1.259 . S
O617 Tb612 2.374 . S
O617 C613 1.251 . S
C618 O622 1.275 . S
C618 O623 1.246 . S
O619 C613 1.263 . S
O619 Tb614 2.353 1_455 S
C620 O624 1.227 1_456 S
C620 O625 1.254 1_556 S
C621 O626 1.250 1_455 S
C621 O627 1.263 . S
O622 Tb614 2.427 . S
O622 C618 1.275 . S
O623 Tb614 2.513 . S
O623 C618 1.246 . S
O624 Tb614 2.453 . S
O624 C620 1.227 1_654 S
O625 Tb612 2.343 . S
O625 Tb614 2.596 1_455 S
O625 C620 1.254 1_554 S
O626 Tb614 2.374 1_556 S
O626 C621 1.250 1_655 S
O627 Tb612 2.353 1_556 S
O627 C621 1.263 . S
C628 O629 1.275 . S
C628 O630 1.246 1_556 S
O629 Tb612 2.427 1_556 S
O629 C628 1.275 . S
O630 Tb612 2.513 . S
O630 C628 1.246 1_554 S
C631 O615 1.245 . S
C631 O616 1.259 . S
C632 C633 1.349 . S
C632 C634 1.327 . S
C632 H657 0.950 . S
C633 C632 1.349 . S
C633 C649 1.349 1_455 S
C634 C632 1.327 . S
C634 C653 1.429 . S
C634 H658 0.950 . S
C635 C652 1.574 . S
C635 C654 1.368 1_655 S
C635 H659 0.949 . S
H636 C640 0.949 . S
C637 C638 1.357 1_655 S
C637 C639 1.338 . S
C637 H660 0.931 1_556 S
C638 C637 1.357 1_455 S
C638 C650 1.349 . S
C639 C637 1.338 . S
C639 C655 1.429 1_655 S
C639 H661 0.950 . S
C640 H636 0.949 . S
C640 C648 1.574 . S
C640 C656 1.368 . S
H641 C649 0.950 . S
H642 C647 0.950 . S
H643 C648 0.949 . S
H644 C650 0.950 . S
H645 C651 0.950 . S
H646 C652 0.949 . S
C647 H642 0.950 . S
C647 C649 1.327 . S
C647 C653 1.429 1_655 S
C648 C640 1.574 . S
C648 H643 0.949 . S
C648 C654 1.368 . S
C649 C633 1.349 1_655 S
C649 H641 0.950 . S
C649 C647 1.327 . S
C650 C638 1.349 . S
C650 H644 0.950 . S
C650 C651 1.327 . S
C651 H645 0.950 . S
C651 C650 1.327 . S
C651 C655 1.429 . S
C652 C635 1.574 . S
C652 H646 0.949 . S
C652 C656 1.368 1_655 S
C653 C634 1.429 . S
C653 C647 1.429 1_455 S
C653 C654 1.523 . S
C654 C635 1.368 1_455 S
C654 C648 1.368 . S
C654 C653 1.523 . S
C655 C639 1.429 1_455 S
C655 C651 1.429 . S
C655 C656 1.523 . S
C656 C640 1.368 . S
C656 C652 1.368 1_455 S
C656 C655 1.523 . S
H657 C632 0.950 . S
H658 C634 0.950 . S
H659 C635 0.949 . S
H660 C637 0.931 1_554 S
H661 C639 0.950 . S
C662 C663 1.349 . S
C662 C664 1.327 . S
C662 H687 0.950 . S
C663 C662 1.349 . S
C663 C679 1.349 . S
C664 C662 1.327 . S
C664 C683 1.429 . S
C664 H688 0.950 . S
C665 C682 1.574 . S
C665 C684 1.368 . S
C665 H689 0.949 . S
H666 C670 0.949 . S
C667 C668 1.349 . S
C667 C669 1.327 . S
C667 H690 0.950 . S
C668 C667 1.349 . S
C668 C680 1.349 . S
C669 C667 1.327 . S
C669 C685 1.429 . S
C669 H691 0.950 . S
C670 H666 0.949 . S
C670 C678 1.574 . S
C670 C686 1.368 . S
H671 C679 0.950 . S
H672 C677 0.950 . S
H673 C678 0.949 . S
H674 C680 0.950 . S
H675 C681 0.950 . S
H676 C682 0.949 . S
C677 H672 0.950 . S
C677 C679 1.327 . S
C677 C683 1.429 . S
C678 C670 1.574 . S
C678 H673 0.949 . S
C678 C684 1.368 . S
C679 C663 1.349 . S
C679 H671 0.950 . S
C679 C677 1.327 . S
C680 C668 1.349 . S
C680 H674 0.950 . S
C680 C681 1.327 . S
C681 H675 0.950 . S
C681 C680 1.327 . S
C681 C685 1.429 . S
C682 C665 1.574 . S
C682 H676 0.949 . S
C682 C686 1.368 . S
C683 C664 1.429 . S
C683 C677 1.429 . S
C683 C684 1.523 . S
C684 C665 1.368 . S
C684 C678 1.368 . S
C684 C683 1.523 . S
C685 C669 1.429 . S
C685 C681 1.429 . S
C685 C686 1.523 . S
C686 C670 1.368 . S
C686 C682 1.368 . S
C686 C685 1.523 . S
H687 C662 0.950 . S
H688 C664 0.950 . S
H689 C665 0.949 . S
H690 C667 0.950 . S
H691 C669 0.950 . S
C692 C693 1.349 . S
C692 C694 1.327 . S
C692 H717 0.950 . S
C693 C692 1.349 . S
C693 C709 1.349 . S
C694 C692 1.327 . S
C694 C713 1.429 . S
C694 H718 0.950 . S
C695 C712 1.574 . S
C695 C714 1.368 . S
C695 H719 0.949 . S
H696 C700 0.949 . S
C697 C698 1.349 . S
C697 C699 1.327 . S
C697 H720 0.950 . S
C698 C697 1.349 . S
C698 C710 1.349 . S
C699 C697 1.327 . S
C699 C715 1.429 . S
C699 H721 0.950 . S
C700 H696 0.949 . S
C700 C708 1.574 . S
C700 C716 1.368 . S
H701 C709 0.950 . S
H702 C707 0.950 . S
H703 C708 0.949 . S
H704 C710 0.950 . S
H705 C711 0.950 . S
H706 C712 0.949 . S
C707 H702 0.950 . S
C707 C709 1.327 . S
C707 C713 1.429 . S
C708 C700 1.574 . S
C708 H703 0.949 . S
C708 C714 1.368 . S
C709 C693 1.349 . S
C709 H701 0.950 . S
C709 C707 1.327 . S
C710 C698 1.349 . S
C710 H704 0.950 . S
C710 C711 1.327 . S
C711 H705 0.950 . S
C711 C710 1.327 . S
C711 C715 1.429 . S
C712 C695 1.574 . S
C712 H706 0.949 . S
C712 C716 1.368 . S
C713 C694 1.429 . S
C713 C707 1.429 . S
C713 C714 1.523 . S
C714 C695 1.368 . S
C714 C708 1.368 . S
C714 C713 1.523 . S
C715 C699 1.429 . S
C715 C711 1.429 . S
C715 C716 1.523 . S
C716 C700 1.368 . S
C716 C712 1.368 . S
C716 C715 1.523 . S
H717 C692 0.950 . S
H718 C694 0.950 . S
H719 C695 0.949 . S
H720 C697 0.950 . S
H721 C699 0.950 . S
C722 C723 1.349 . S
C722 C724 1.327 . S
C722 H747 0.950 . S
C723 C722 1.349 . S
C723 C739 1.349 . S
C724 C722 1.327 . S
C724 C743 1.429 . S
C724 H748 0.950 . S
C725 C742 1.574 . S
C725 C744 1.368 . S
C725 H749 0.949 . S
H726 C730 0.949 . S
C727 C728 1.349 . S
C727 C729 1.327 . S
C727 H750 0.950 . S
C728 C727 1.349 . S
C728 C740 1.349 . S
C729 C727 1.327 . S
C729 C745 1.429 . S
C729 H751 0.950 . S
C730 H726 0.949 . S
C730 C738 1.574 . S
C730 C746 1.368 . S
H731 C739 0.950 . S
H732 C737 0.950 . S
H733 C738 0.949 . S
H734 C740 0.950 . S
H735 C741 0.950 . S
H736 C742 0.949 . S
C737 H732 0.950 . S
C737 C739 1.327 . S
C737 C743 1.429 . S
C738 C730 1.574 . S
C738 H733 0.949 . S
C738 C744 1.368 . S
C739 C723 1.349 . S
C739 H731 0.950 . S
C739 C737 1.327 . S
C740 C728 1.349 . S
C740 H734 0.950 . S
C740 C741 1.327 . S
C741 H735 0.950 . S
C741 C740 1.327 . S
C741 C745 1.429 . S
C742 C725 1.574 . S
C742 H736 0.949 . S
C742 C746 1.368 . S
C743 C724 1.429 . S
C743 C737 1.429 . S
C743 C744 1.523 . S
C744 C725 1.368 . S
C744 C738 1.368 . S
C744 C743 1.523 . S
C745 C729 1.429 . S
C745 C741 1.429 . S
C745 C746 1.523 . S
C746 C730 1.368 . S
C746 C742 1.368 . S
C746 C745 1.523 . S
H747 C722 0.950 . S
H748 C724 0.950 . S
H749 C725 0.949 . S
H750 C727 0.950 . S
H751 C729 0.950 . S
C752 C753 1.349 . S
C752 C754 1.327 . S
C752 H777 0.950 . S
C753 C752 1.349 . S
C753 C769 1.349 1_455 S
C754 C752 1.327 . S
C754 C773 1.429 . S
C754 H778 0.950 . S
C755 C772 1.574 . S
C755 C774 1.368 1_655 S
C755 H779 0.949 . S
H756 C760 0.949 . S
C757 C758 1.349 1_655 S
C757 C759 1.327 . S
C757 H780 0.950 . S
C758 C757 1.349 1_455 S
C758 C770 1.349 . S
C759 C757 1.327 . S
C759 C775 1.429 1_655 S
C759 H781 0.950 . S
C760 H756 0.949 . S
C760 C768 1.574 . S
C760 C776 1.368 . S
H761 C769 0.950 . S
H762 C767 0.950 . S
H763 C768 0.949 . S
H764 C770 0.950 . S
H765 C771 0.950 . S
H766 C772 0.949 . S
C767 H762 0.950 . S
C767 C769 1.327 . S
C767 C773 1.429 1_655 S
C768 C760 1.574 . S
C768 H763 0.949 . S
C768 C774 1.368 . S
C769 C753 1.349 1_655 S
C769 H761 0.950 . S
C769 C767 1.327 . S
C770 C758 1.349 . S
C770 H764 0.950 . S
C770 C771 1.327 . S
C771 H765 0.950 . S
C771 C770 1.327 . S
C771 C775 1.429 . S
C772 C755 1.574 . S
C772 H766 0.949 . S
C772 C776 1.368 1_655 S
C773 C754 1.429 . S
C773 C767 1.429 1_455 S
C773 C774 1.523 . S
C774 C755 1.368 1_455 S
C774 C768 1.368 . S
C774 C773 1.523 . S
C775 C759 1.429 1_455 S
C775 C771 1.429 . S
C775 C776 1.523 . S
C776 C760 1.368 . S
C776 C772 1.368 1_455 S
C776 C775 1.523 . S
H777 C752 0.950 . S
H778 C754 0.950 . S
H779 C755 0.949 . S
H780 C757 0.950 . S
H781 C759 0.950 . S
C782 C783 1.349 . S
C782 C784 1.327 . S
C782 H807 0.950 . S
C783 C782 1.349 . S
C783 C799 1.349 . S
C784 C782 1.327 . S
C784 C803 1.429 . S
C784 H808 0.950 . S
C785 C802 1.574 . S
C785 C804 1.368 . S
C785 H809 0.949 . S
H786 C790 0.949 . S
C787 C788 1.349 . S
C787 C789 1.327 . S
C787 H810 0.950 . S
C788 C787 1.349 . S
C788 C800 1.349 . S
C789 C787 1.327 . S
C789 C805 1.429 . S
C789 H811 0.950 . S
C790 H786 0.949 . S
C790 C798 1.574 . S
C790 C806 1.368 . S
H791 C799 0.950 . S
H792 C797 0.950 . S
H793 C798 0.949 . S
H794 C800 0.950 . S
H795 C801 0.950 . S
H796 C802 0.949 . S
C797 H792 0.950 . S
C797 C799 1.327 . S
C797 C803 1.429 . S
C798 C790 1.574 . S
C798 H793 0.949 . S
C798 C804 1.368 . S
C799 C783 1.349 . S
C799 H791 0.950 . S
C799 C797 1.327 . S
C800 C788 1.349 . S
C800 H794 0.950 . S
C800 C801 1.327 . S
C801 H795 0.950 . S
C801 C800 1.327 . S
C801 C805 1.429 . S
C802 C785 1.574 . S
C802 H796 0.949 . S
C802 C806 1.368 . S
C803 C784 1.429 . S
C803 C797 1.429 . S
C803 C804 1.523 . S
C804 C785 1.368 . S
C804 C798 1.368 . S
C804 C803 1.523 . S
C805 C789 1.429 . S
C805 C801 1.429 . S
C805 C806 1.523 . S
C806 C790 1.368 . S
C806 C802 1.368 . S
C806 C805 1.523 . S
H807 C782 0.950 . S
H808 C784 0.950 . S
H809 C785 0.949 . S
H810 C787 0.950 . S
H811 C789 0.950 . S
C812 C813 1.349 . S
C812 C814 1.327 . S
C812 H837 0.950 . S
C813 C812 1.349 . S
C813 C829 1.349 . S
C814 C812 1.327 . S
C814 C833 1.429 . S
C814 H838 0.950 . S
C815 C832 1.574 . S
C815 C834 1.368 . S
C815 H839 0.949 . S
H816 C820 0.949 . S
C817 C818 1.349 . S
C817 C819 1.327 . S
C817 H840 0.950 . S
C818 C817 1.349 . S
C818 C830 1.349 . S
C819 C817 1.327 . S
C819 C835 1.429 . S
C819 H841 0.950 . S
C820 H816 0.949 . S
C820 C828 1.574 . S
C820 C836 1.368 . S
H821 C829 0.950 . S
H822 C827 0.950 . S
H823 C828 0.949 . S
H824 C830 0.950 . S
H825 C831 0.950 . S
H826 C832 0.949 . S
C827 H822 0.950 . S
C827 C829 1.327 . S
C827 C833 1.429 . S
C828 C820 1.574 . S
C828 H823 0.949 . S
C828 C834 1.368 . S
C829 C813 1.349 . S
C829 H821 0.950 . S
C829 C827 1.327 . S
C830 C818 1.349 . S
C830 H824 0.950 . S
C830 C831 1.327 . S
C831 H825 0.950 . S
C831 C830 1.327 . S
C831 C835 1.429 . S
C832 C815 1.574 . S
C832 H826 0.949 . S
C832 C836 1.368 . S
C833 C814 1.429 . S
C833 C827 1.429 . S
C833 C834 1.523 . S
C834 C815 1.368 . S
C834 C828 1.368 . S
C834 C833 1.523 . S
C835 C819 1.429 . S
C835 C831 1.429 . S
C835 C836 1.523 . S
C836 C820 1.368 . S
C836 C832 1.368 . S
C836 C835 1.523 . S
H837 C812 0.950 . S
H838 C814 0.950 . S
H839 C815 0.949 . S
H840 C817 0.950 . S
H841 C819 0.950 . S
C842 C843 1.349 . S
C842 C844 1.327 . S
C842 H867 0.950 . S
C843 C842 1.349 . S
C843 C859 1.349 . S
C844 C842 1.327 . S
C844 C863 1.429 . S
C844 H868 0.950 . S
C845 C862 1.574 . S
C845 C864 1.368 . S
C845 H869 0.949 . S
H846 C850 0.949 . S
C847 C848 1.349 . S
C847 C849 1.327 . S
C847 H870 0.950 . S
C848 C847 1.349 . S
C848 C860 1.349 . S
C849 C847 1.327 . S
C849 C865 1.429 . S
C849 H871 0.950 . S
C850 H846 0.949 . S
C850 C858 1.574 . S
C850 C866 1.368 . S
H851 C859 0.950 . S
H852 C857 0.950 . S
H853 C858 0.949 . S
H854 C860 0.950 . S
H855 C861 0.950 . S
H856 C862 0.949 . S
C857 H852 0.950 . S
C857 C859 1.327 . S
C857 C863 1.429 . S
C858 C850 1.574 . S
C858 H853 0.949 . S
C858 C864 1.368 . S
C859 C843 1.349 . S
C859 H851 0.950 . S
C859 C857 1.327 . S
C860 C848 1.349 . S
C860 H854 0.950 . S
C860 C861 1.327 . S
C861 H855 0.950 . S
C861 C860 1.327 . S
C861 C865 1.429 . S
C862 C845 1.574 . S
C862 H856 0.949 . S
C862 C866 1.368 . S
C863 C844 1.429 . S
C863 C857 1.429 . S
C863 C864 1.523 . S
C864 C845 1.368 . S
C864 C858 1.368 . S
C864 C863 1.523 . S
C865 C849 1.429 . S
C865 C861 1.429 . S
C865 C866 1.523 . S
C866 C850 1.368 . S
C866 C862 1.368 . S
C866 C865 1.523 . S
H867 C842 0.950 . S
H868 C844 0.950 . S
H869 C845 0.949 . S
H870 C847 0.950 . S
H871 C849 0.950 . S
C872 C873 1.349 . S
C872 C874 1.327 . S
C872 H897 0.950 . S
C873 C872 1.349 . S
C873 C889 1.349 . S
C874 C872 1.327 . S
C874 C893 1.429 . S
C874 H898 0.950 . S
C875 C892 1.574 . S
C875 C894 1.368 . S
C875 H899 0.949 . S
H876 C880 0.949 . S
C877 C878 1.349 . S
C877 C879 1.327 . S
C877 H900 0.950 . S
C878 C877 1.349 . S
C878 C890 1.349 . S
C879 C877 1.327 . S
C879 C895 1.429 . S
C879 H901 0.950 . S
C880 H876 0.949 . S
C880 C888 1.574 . S
C880 C896 1.368 . S
H881 C889 0.950 . S
H882 C887 0.950 . S
H883 C888 0.949 . S
H884 C890 0.950 1_455 S
H885 C891 0.950 . S
H886 C892 0.949 . S
C887 H882 0.950 . S
C887 C889 1.327 . S
C887 C893 1.429 . S
C888 C880 1.574 . S
C888 H883 0.949 . S
C888 C894 1.368 . S
C889 C873 1.349 . S
C889 H881 0.950 . S
C889 C887 1.327 . S
C890 C878 1.349 . S
C890 H884 0.950 1_655 S
C890 C891 1.327 . S
C891 H885 0.950 . S
C891 C890 1.327 . S
C891 C895 1.429 . S
C892 C875 1.574 . S
C892 H886 0.949 . S
C892 C896 1.368 . S
C893 C874 1.429 . S
C893 C887 1.429 . S
C893 C894 1.523 . S
C894 C875 1.368 . S
C894 C888 1.368 . S
C894 C893 1.523 . S
C895 C879 1.429 . S
C895 C891 1.429 . S
C895 C896 1.523 . S
C896 C880 1.368 . S
C896 C892 1.368 . S
C896 C895 1.523 . S
H897 C872 0.950 . S
H898 C874 0.950 . S
H899 C875 0.949 . S
H900 C877 0.950 . S
H901 C879 0.950 . S
C902 C903 1.349 . S
C902 C904 1.327 . S
C902 H927 0.950 . S
C903 C902 1.349 . S
C903 C919 1.349 . S
C904 C902 1.327 . S
C904 C923 1.429 . S
C904 H928 0.950 . S
C905 C922 1.574 . S
C905 C924 1.368 . S
C905 H929 0.949 . S
H906 C910 0.949 . S
C907 C908 1.349 . S
C907 C909 1.327 . S
C907 H930 0.950 . S
C908 C907 1.349 . S
C908 C920 1.349 . S
C909 C907 1.327 . S
C909 C925 1.429 . S
C909 H931 0.950 . S
C910 H906 0.949 . S
C910 C918 1.574 . S
C910 C926 1.368 . S
H911 C919 0.950 . S
H912 C917 0.950 . S
H913 C918 0.949 . S
H914 C920 0.950 . S
H915 C921 0.950 . S
H916 C922 0.949 . S
C917 H912 0.950 . S
C917 C919 1.327 . S
C917 C923 1.429 . S
C918 C910 1.574 . S
C918 H913 0.949 . S
C918 C924 1.368 . S
C919 C903 1.349 . S
C919 H911 0.950 . S
C919 C917 1.327 . S
C920 C908 1.349 . S
C920 H914 0.950 . S
C920 C921 1.327 . S
C921 H915 0.950 . S
C921 C920 1.327 . S
C921 C925 1.429 . S
C922 C905 1.574 . S
C922 H916 0.949 . S
C922 C926 1.368 . S
C923 C904 1.429 . S
C923 C917 1.429 . S
C923 C924 1.523 . S
C924 C905 1.368 . S
C924 C918 1.368 . S
C924 C923 1.523 . S
C925 C909 1.429 . S
C925 C921 1.429 . S
C925 C926 1.523 . S
C926 C910 1.368 . S
C926 C922 1.368 . S
C926 C925 1.523 . S
H927 C902 0.950 . S
H928 C904 0.950 . S
H929 C905 0.949 . S
H930 C907 0.950 . S
H931 C909 0.950 . S
C932 C933 1.349 . S
C932 C934 1.327 . S
C932 H957 0.950 1_545 S
C933 C932 1.349 . S
C933 C949 1.349 . S
C934 C932 1.327 . S
C934 C953 1.429 . S
C934 H958 0.940 1_545 S
C935 C952 1.574 . S
C935 C954 1.368 . S
C935 H959 0.949 . S
H936 C940 0.949 . S
C937 C938 1.349 . S
C937 C939 1.327 . S
C937 H960 0.950 . S
C938 C937 1.349 . S
C938 C950 1.349 . S
C939 C937 1.327 . S
C939 C955 1.429 . S
C939 H961 0.950 . S
C940 H936 0.949 . S
C940 C948 1.574 . S
C940 C956 1.368 . S
H941 C949 0.950 . S
H942 C947 0.950 . S
H943 C948 0.949 . S
H944 C950 0.950 . S
H945 C951 0.950 . S
H946 C952 0.949 . S
C947 H942 0.950 . S
C947 C949 1.327 . S
C947 C953 1.429 . S
C948 C940 1.574 . S
C948 H943 0.949 . S
C948 C954 1.368 . S
C949 C933 1.349 . S
C949 H941 0.950 . S
C949 C947 1.327 . S
C950 C938 1.349 . S
C950 H944 0.950 . S
C950 C951 1.327 . S
C951 H945 0.950 . S
C951 C950 1.327 . S
C951 C955 1.429 . S
C952 C935 1.574 . S
C952 H946 0.949 . S
C952 C956 1.368 . S
C953 C934 1.429 . S
C953 C947 1.429 . S
C953 C954 1.523 . S
C954 C935 1.368 . S
C954 C948 1.368 . S
C954 C953 1.523 . S
C955 C939 1.429 . S
C955 C951 1.429 . S
C955 C956 1.523 . S
C956 C940 1.368 . S
C956 C952 1.368 . S
C956 C955 1.523 . S
H957 C932 0.950 1_565 S
H958 C934 0.940 1_565 S
H959 C935 0.949 . S
H960 C937 0.950 . S
H961 C939 0.950 . S
C962 C963 1.349 . S
C962 C964 1.327 . S
C962 H987 0.950 . S
C963 C962 1.349 . S
C963 C979 1.349 . S
C964 C962 1.327 . S
C964 C983 1.429 . S
C964 H988 0.950 . S
C965 C982 1.574 . S
C965 C984 1.368 . S
C965 H989 0.949 . S
H966 C970 0.949 . S
C967 C968 1.349 . S
C967 C969 1.327 . S
C967 H990 0.950 . S
C968 C967 1.349 . S
C968 C980 1.349 . S
C969 C967 1.327 . S
C969 C985 1.429 . S
C969 H991 0.950 . S
C970 H966 0.949 . S
C970 C978 1.574 . S
C970 C986 1.368 . S
H971 C979 0.950 . S
H972 C977 0.950 . S
H973 C978 0.949 . S
H974 C980 0.950 . S
H975 C981 0.950 . S
H976 C982 0.949 . S
C977 H972 0.950 . S
C977 C979 1.327 . S
C977 C983 1.429 . S
C978 C970 1.574 . S
C978 H973 0.949 . S
C978 C984 1.368 . S
C979 C963 1.349 . S
C979 H971 0.950 . S
C979 C977 1.327 . S
C980 C968 1.349 . S
C980 H974 0.950 . S
C980 C981 1.327 . S
C981 H975 0.950 . S
C981 C980 1.327 . S
C981 C985 1.429 . S
C982 C965 1.574 . S
C982 H976 0.949 . S
C982 C986 1.368 . S
C983 C964 1.429 . S
C983 C977 1.429 . S
C983 C984 1.523 . S
C984 C965 1.368 . S
C984 C978 1.368 . S
C984 C983 1.523 . S
C985 C969 1.429 . S
C985 C981 1.429 . S
C985 C986 1.523 . S
C986 C970 1.368 . S
C986 C982 1.368 . S
C986 C985 1.523 . S
H987 C962 0.950 . S
H988 C964 0.950 . S
H989 C965 0.949 . S
H990 C967 0.950 . S
H991 C969 0.950 . S
C992 C993 1.349 . S
C992 C994 1.327 . S
C992 H1017 0.950 . S
C993 C992 1.349 . S
C993 C1009 1.349 . S
C994 C992 1.327 . S
C994 C1013 1.429 . S
C994 H1018 0.950 . S
C995 C1012 1.574 . S
C995 C1014 1.368 . S
C995 H1019 0.949 . S
H996 C1000 0.949 . S
C997 C998 1.349 . S
C997 C999 1.327 . S
C997 H1020 0.950 . S
C998 C997 1.349 . S
C998 C1010 1.349 . S
C999 C997 1.327 . S
C999 C1015 1.429 . S
C999 H1021 0.950 . S
C1000 H996 0.949 . S
C1000 C1008 1.574 . S
C1000 C1016 1.368 . S
H1001 C1009 0.950 . S
H1002 C1007 0.950 . S
H1003 C1008 0.949 . S
H1004 C1010 0.950 . S
H1005 C1011 0.950 . S
H1006 C1012 0.949 . S
C1007 H1002 0.950 . S
C1007 C1009 1.327 . S
C1007 C1013 1.429 . S
C1008 C1000 1.574 . S
C1008 H1003 0.949 . S
C1008 C1014 1.368 . S
C1009 C993 1.349 . S
C1009 H1001 0.950 . S
C1009 C1007 1.327 . S
C1010 C998 1.349 . S
C1010 H1004 0.950 . S
C1010 C1011 1.327 . S
C1011 H1005 0.950 . S
C1011 C1010 1.327 . S
C1011 C1015 1.429 . S
C1012 C995 1.574 . S
C1012 H1006 0.949 . S
C1012 C1016 1.368 . S
C1013 C994 1.429 . S
C1013 C1007 1.429 . S
C1013 C1014 1.523 . S
C1014 C995 1.368 . S
C1014 C1008 1.368 . S
C1014 C1013 1.523 . S
C1015 C999 1.429 . S
C1015 C1011 1.429 . S
C1015 C1016 1.523 . S
C1016 C1000 1.368 . S
C1016 C1012 1.368 . S
C1016 C1015 1.523 . S
H1017 C992 0.950 . S
H1018 C994 0.950 . S
H1019 C995 0.949 . S
H1020 C997 0.950 . S
H1021 C999 0.950 . S
C1022 C1023 1.349 . S
C1022 C1024 1.327 . S
C1022 H1047 0.950 . S
C1023 C1022 1.349 . S
C1023 C1039 1.349 . S
C1024 C1022 1.327 . S
C1024 C1043 1.429 . S
C1024 H1048 0.950 . S
C1025 C1042 1.574 . S
C1025 C1044 1.368 . S
C1025 H1049 0.949 . S
H1026 C1030 0.949 . S
C1027 C1028 1.349 . S
C1027 C1029 1.327 . S
C1027 H1050 0.950 . S
C1028 C1027 1.349 . S
C1028 C1040 1.349 . S
C1029 C1027 1.327 . S
C1029 C1045 1.429 . S
C1029 H1051 0.950 . S
C1030 H1026 0.949 . S
C1030 C1038 1.574 . S
C1030 C1046 1.368 . S
H1031 C1039 0.950 . S
H1032 C1037 0.950 . S
H1033 C1038 0.949 . S
H1034 C1040 0.950 . S
H1035 C1041 0.950 . S
H1036 C1042 0.949 . S
C1037 H1032 0.950 . S
C1037 C1039 1.327 . S
C1037 C1043 1.429 . S
C1038 C1030 1.574 . S
C1038 H1033 0.949 . S
C1038 C1044 1.368 . S
C1039 C1023 1.349 . S
C1039 H1031 0.950 . S
C1039 C1037 1.327 . S
C1040 C1028 1.349 . S
C1040 H1034 0.950 . S
C1040 C1041 1.327 . S
C1041 H1035 0.950 . S
C1041 C1040 1.327 . S
C1041 C1045 1.429 . S
C1042 C1025 1.574 . S
C1042 H1036 0.949 . S
C1042 C1046 1.368 . S
C1043 C1024 1.429 . S
C1043 C1037 1.429 . S
C1043 C1044 1.523 . S
C1044 C1025 1.368 . S
C1044 C1038 1.368 . S
C1044 C1043 1.523 . S
C1045 C1029 1.429 . S
C1045 C1041 1.429 . S
C1045 C1046 1.523 . S
C1046 C1030 1.368 . S
C1046 C1042 1.368 . S
C1046 C1045 1.523 . S
H1047 C1022 0.950 . S
H1048 C1024 0.950 . S
H1049 C1025 0.949 . S
H1050 C1027 0.950 . S
H1051 C1029 0.950 . S
C1052 C1053 1.349 . S
C1052 C1054 1.327 . S
C1052 H1077 0.950 1_545 S
C1053 C1052 1.349 . S
C1053 C1069 1.349 . S
C1054 C1052 1.327 . S
C1054 C1073 1.429 . S
C1054 H1078 0.950 1_545 S
C1055 C1072 1.574 . S
C1055 C1074 1.368 . S
C1055 H1079 0.949 . S
H1056 C1060 0.949 . S
C1057 C1058 1.349 . S
C1057 C1059 1.327 . S
C1057 H1080 0.950 . S
C1058 C1057 1.349 . S
C1058 C1070 1.349 . S
C1059 C1057 1.327 . S
C1059 C1075 1.429 . S
C1059 H1081 0.950 . S
C1060 H1056 0.949 . S
C1060 C1068 1.574 . S
C1060 C1076 1.368 . S
H1061 C1069 0.950 . S
H1062 C1067 0.950 . S
H1063 C1068 0.949 1_565 S
H1064 C1070 0.950 . S
H1065 C1071 0.950 . S
H1066 C1072 0.949 . S
C1067 H1062 0.950 . S
C1067 C1069 1.327 . S
C1067 C1073 1.429 . S
C1068 C1060 1.574 . S
C1068 H1063 0.949 1_545 S
C1068 C1074 1.368 . S
C1069 C1053 1.349 . S
C1069 H1061 0.950 . S
C1069 C1067 1.327 . S
C1070 C1058 1.349 . S
C1070 H1064 0.950 . S
C1070 C1071 1.327 . S
C1071 H1065 0.950 . S
C1071 C1070 1.327 . S
C1071 C1075 1.429 . S
C1072 C1055 1.574 . S
C1072 H1066 0.949 . S
C1072 C1076 1.368 . S
C1073 C1054 1.429 . S
C1073 C1067 1.429 . S
C1073 C1074 1.523 . S
C1074 C1055 1.368 . S
C1074 C1068 1.368 . S
C1074 C1073 1.523 . S
C1075 C1059 1.429 . S
C1075 C1071 1.429 . S
C1075 C1076 1.523 . S
C1076 C1060 1.368 . S
C1076 C1072 1.368 . S
C1076 C1075 1.523 . S
H1077 C1052 0.950 1_565 S
H1078 C1054 0.950 1_565 S
H1079 C1055 0.949 . S
H1080 C1057 0.950 . S
H1081 C1059 0.950 . S
C1082 C1083 1.349 . S
C1082 C1084 1.327 . S
C1082 H1107 0.950 . S
C1083 C1082 1.349 . S
C1083 C1099 1.349 . S
C1084 C1082 1.327 . S
C1084 C1103 1.429 . S
C1084 H1108 0.950 . S
C1085 C1102 1.574 . S
C1085 C1104 1.368 . S
C1085 H1109 0.949 . S
H1086 C1090 0.949 . S
C1087 C1088 1.349 . S
C1087 C1089 1.327 . S
C1087 H1110 0.950 . S
C1088 C1087 1.349 . S
C1088 C1100 1.349 . S
C1089 C1087 1.327 . S
C1089 C1105 1.429 . S
C1089 H1111 0.950 . S
C1090 H1086 0.949 . S
C1090 C1098 1.574 . S
C1090 C1106 1.368 . S
H1091 C1099 0.950 . S
H1092 C1097 0.950 . S
H1093 C1098 0.949 . S
H1094 C1100 0.950 . S
H1095 C1101 0.950 . S
H1096 C1102 0.949 . S
C1097 H1092 0.950 . S
C1097 C1099 1.327 . S
C1097 C1103 1.429 . S
C1098 C1090 1.574 . S
C1098 H1093 0.949 . S
C1098 C1104 1.368 . S
C1099 C1083 1.349 . S
C1099 H1091 0.950 . S
C1099 C1097 1.327 . S
C1100 C1088 1.349 . S
C1100 H1094 0.950 . S
C1100 C1101 1.327 . S
C1101 H1095 0.950 . S
C1101 C1100 1.327 . S
C1101 C1105 1.429 . S
C1102 C1085 1.574 . S
C1102 H1096 0.949 . S
C1102 C1106 1.368 . S
C1103 C1084 1.429 . S
C1103 C1097 1.429 . S
C1103 C1104 1.523 . S
C1104 C1085 1.368 . S
C1104 C1098 1.368 . S
C1104 C1103 1.523 . S
C1105 C1089 1.429 . S
C1105 C1101 1.429 . S
C1105 C1106 1.523 . S
C1106 C1090 1.368 . S
C1106 C1102 1.368 . S
C1106 C1105 1.523 . S
H1107 C1082 0.950 . S
H1108 C1084 0.950 . S
H1109 C1085 0.949 . S
H1110 C1087 0.950 . S
H1111 C1089 0.950 . S
C1112 C1113 1.349 . S
C1112 C1114 1.327 . S
C1112 H1137 0.950 . S
C1113 C1112 1.349 . S
C1113 C1129 1.349 . S
C1114 C1112 1.327 . S
C1114 C1133 1.429 . S
C1114 H1138 0.950 . S
C1115 C1132 1.574 . S
C1115 C1134 1.368 . S
C1115 H1139 0.949 1_554 S
H1116 C1120 0.949 . S
C1117 C1118 1.349 1_565 S
C1117 C1119 1.327 . S
C1117 H1140 0.950 1_554 S
C1118 C1117 1.349 1_545 S
C1118 C1130 1.349 . S
C1119 C1117 1.327 . S
C1119 C1135 1.429 . S
C1119 H1141 0.950 1_554 S
C1120 H1116 0.949 . S
C1120 C1128 1.574 . S
C1120 C1136 1.368 . S
H1121 C1129 0.952 . S
H1122 C1127 0.950 1_556 S
H1123 C1128 0.949 . S
H1124 C1130 0.950 . S
H1125 C1131 0.956 . S
H1126 C1132 0.949 1_556 S
C1127 H1122 0.950 1_554 S
C1127 C1129 1.327 . S
C1127 C1133 1.429 . S
C1128 C1120 1.574 . S
C1128 H1123 0.949 . S
C1128 C1134 1.368 . S
C1129 C1113 1.349 . S
C1129 H1121 0.952 . S
C1129 C1127 1.327 . S
C1130 C1118 1.349 . S
C1130 H1124 0.950 . S
C1130 C1131 1.354 . S
C1131 H1125 0.956 . S
C1131 C1130 1.354 . S
C1131 C1135 1.398 1_545 S
C1132 C1115 1.574 . S
C1132 H1126 0.949 1_554 S
C1132 C1136 1.368 . S
C1133 C1114 1.429 . S
C1133 C1127 1.429 . S
C1133 C1134 1.523 . S
C1134 C1115 1.368 . S
C1134 C1128 1.368 . S
C1134 C1133 1.523 . S
C1135 C1119 1.429 . S
C1135 C1131 1.398 1_565 S
C1135 C1136 1.523 . S
C1136 C1120 1.368 . S
C1136 C1132 1.368 . S
C1136 C1135 1.523 . S
H1137 C1112 0.950 . S
H1138 C1114 0.950 . S
H1139 C1115 0.949 1_556 S
H1140 C1117 0.950 1_556 S
H1141 C1119 0.950 1_556 S
C1142 C1143 1.349 1_556 S
C1142 C1144 1.327 . S
C1142 H1167 0.950 . S
C1143 C1142 1.349 1_554 S
C1143 C1159 1.349 . S
C1144 C1142 1.327 . S
C1144 C1163 1.429 1_556 S
C1144 H1168 0.950 . S
C1145 C1162 1.574 . S
C1145 C1164 1.368 . S
C1145 H1169 0.949 . S
H1146 C1150 0.949 . S
C1147 C1148 1.349 . S
C1147 C1149 1.327 . S
C1147 H1170 0.950 . S
C1148 C1147 1.349 . S
C1148 C1160 1.349 1_554 S
C1149 C1147 1.327 . S
C1149 C1165 1.429 . S
C1149 H1171 0.950 . S
C1150 H1146 0.949 . S
C1150 C1158 1.574 . S
C1150 C1166 1.368 1_556 S
H1151 C1159 0.950 . S
H1152 C1157 0.950 . S
H1153 C1158 0.949 . S
H1154 C1160 0.950 . S
H1155 C1161 0.950 . S
H1156 C1162 0.949 . S
C1157 H1152 0.950 . S
C1157 C1159 1.327 . S
C1157 C1163 1.429 . S
C1158 C1150 1.574 . S
C1158 H1153 0.949 . S
C1158 C1164 1.368 1_556 S
C1159 C1143 1.349 . S
C1159 H1151 0.950 . S
C1159 C1157 1.327 . S
C1160 C1148 1.349 1_556 S
C1160 H1154 0.950 . S
C1160 C1161 1.327 . S
C1161 H1155 0.950 . S
C1161 C1160 1.327 . S
C1161 C1165 1.429 1_556 S
C1162 C1145 1.574 . S
C1162 H1156 0.949 . S
C1162 C1166 1.368 . S
C1163 C1144 1.429 1_554 S
C1163 C1157 1.429 . S
C1163 C1164 1.523 . S
C1164 C1145 1.368 . S
C1164 C1158 1.368 1_554 S
C1164 C1163 1.523 . S
C1165 C1149 1.429 . S
C1165 C1161 1.429 1_554 S
C1165 C1166 1.523 . S
C1166 C1150 1.368 1_554 S
C1166 C1162 1.368 . S
C1166 C1165 1.523 . S
H1167 C1142 0.950 . S
H1168 C1144 0.950 . S
H1169 C1145 0.949 . S
H1170 C1147 0.950 . S
H1171 C1149 0.950 . S
C1172 C1173 1.349 . S
C1172 C1174 1.327 . S
C1172 H1197 0.950 . S
C1173 C1172 1.349 . S
C1173 C1189 1.349 . S
C1174 C1172 1.327 . S
C1174 C1193 1.429 . S
C1174 H1198 0.950 . S
C1175 C1192 1.574 . S
C1175 C1194 1.368 . S
C1175 H1199 0.949 . S
H1176 C1180 0.949 . S
C1177 C1178 1.349 . S
C1177 C1179 1.327 . S
C1177 H1200 0.950 . S
C1178 C1177 1.349 . S
C1178 C1190 1.349 . S
C1179 C1177 1.327 . S
C1179 C1195 1.429 . S
C1179 H1201 0.950 . S
C1180 H1176 0.949 . S
C1180 C1188 1.574 . S
C1180 C1196 1.368 . S
H1181 C1189 0.950 . S
H1182 C1187 0.950 . S
H1183 C1188 0.949 . S
H1184 C1190 0.950 . S
H1185 C1191 0.950 . S
H1186 C1192 0.949 . S
C1187 H1182 0.950 . S
C1187 C1189 1.327 . S
C1187 C1193 1.429 . S
C1188 C1180 1.574 . S
C1188 H1183 0.949 . S
C1188 C1194 1.368 . S
C1189 C1173 1.349 . S
C1189 H1181 0.950 . S
C1189 C1187 1.327 . S
C1190 C1178 1.349 . S
C1190 H1184 0.950 . S
C1190 C1191 1.327 . S
C1191 H1185 0.950 . S
C1191 C1190 1.327 . S
C1191 C1195 1.429 . S
C1192 C1175 1.574 . S
C1192 H1186 0.949 . S
C1192 C1196 1.368 . S
C1193 C1174 1.429 . S
C1193 C1187 1.429 . S
C1193 C1194 1.523 . S
C1194 C1175 1.368 . S
C1194 C1188 1.368 . S
C1194 C1193 1.523 . S
C1195 C1179 1.429 . S
C1195 C1191 1.429 . S
C1195 C1196 1.523 . S
C1196 C1180 1.368 . S
C1196 C1192 1.368 . S
C1196 C1195 1.523 . S
H1197 C1172 0.950 . S
H1198 C1174 0.950 . S
H1199 C1175 0.949 . S
H1200 C1177 0.950 . S
H1201 C1179 0.950 . S
C1202 C1203 1.349 . S
C1202 C1204 1.327 . S
C1202 H1227 0.950 . S
C1203 C1202 1.349 . S
C1203 C1219 1.349 . S
C1204 C1202 1.327 . S
C1204 C1223 1.429 . S
C1204 H1228 0.950 . S
C1205 C1222 1.574 . S
C1205 C1224 1.368 . S
C1205 H1229 0.949 . S
H1206 C1210 0.949 . S
C1207 C1208 1.349 . S
C1207 C1209 1.327 . S
C1207 H1230 0.950 . S
C1208 C1207 1.349 . S
C1208 C1220 1.349 . S
C1209 C1207 1.327 . S
C1209 C1225 1.429 . S
C1209 H1231 0.950 . S
C1210 H1206 0.949 . S
C1210 C1218 1.574 . S
C1210 C1226 1.368 . S
H1211 C1219 0.950 . S
H1212 C1217 0.950 . S
H1213 C1218 0.949 . S
H1214 C1220 0.950 . S
H1215 C1221 0.950 . S
H1216 C1222 0.949 . S
C1217 H1212 0.950 . S
C1217 C1219 1.327 . S
C1217 C1223 1.429 . S
C1218 C1210 1.574 . S
C1218 H1213 0.949 . S
C1218 C1224 1.368 . S
C1219 C1203 1.349 . S
C1219 H1211 0.950 . S
C1219 C1217 1.327 . S
C1220 C1208 1.349 . S
C1220 H1214 0.950 . S
C1220 C1221 1.327 . S
C1221 H1215 0.950 . S
C1221 C1220 1.327 . S
C1221 C1225 1.429 . S
C1222 C1205 1.574 . S
C1222 H1216 0.949 . S
C1222 C1226 1.368 . S
C1223 C1204 1.429 . S
C1223 C1217 1.429 . S
C1223 C1224 1.523 . S
C1224 C1205 1.368 . S
C1224 C1218 1.368 . S
C1224 C1223 1.523 . S
C1225 C1209 1.429 . S
C1225 C1221 1.429 . S
C1225 C1226 1.523 . S
C1226 C1210 1.368 . S
C1226 C1222 1.368 . S
C1226 C1225 1.523 . S
H1227 C1202 0.950 . S
H1228 C1204 0.950 . S
H1229 C1205 0.949 . S
H1230 C1207 0.950 . S
H1231 C1209 0.950 . S
C1232 C1233 1.349 . S
C1232 C1234 1.327 . S
C1232 H1257 0.950 . S
C1233 C1232 1.349 . S
C1233 C1249 1.349 . S
C1234 C1232 1.327 . S
C1234 C1253 1.429 . S
C1234 H1258 0.950 . S
C1235 C1252 1.574 . S
C1235 C1254 1.368 . S
C1235 H1259 0.949 . S
H1236 C1240 0.949 . S
C1237 C1238 1.349 . S
C1237 C1239 1.327 . S
C1237 H1260 0.950 . S
C1238 C1237 1.349 . S
C1238 C1250 1.349 . S
C1239 C1237 1.327 . S
C1239 C1255 1.429 . S
C1239 H1261 0.950 . S
C1240 H1236 0.949 . S
C1240 C1248 1.574 . S
C1240 C1256 1.368 . S
H1241 C1249 0.950 . S
H1242 C1247 0.950 . S
H1243 C1248 0.949 . S
H1244 C1250 0.950 . S
H1245 C1251 0.950 . S
H1246 C1252 0.949 . S
C1247 H1242 0.950 . S
C1247 C1249 1.327 . S
C1247 C1253 1.429 . S
C1248 C1240 1.574 . S
C1248 H1243 0.949 . S
C1248 C1254 1.368 . S
C1249 C1233 1.349 . S
C1249 H1241 0.950 . S
C1249 C1247 1.327 . S
C1250 C1238 1.349 . S
C1250 H1244 0.950 . S
C1250 C1251 1.327 . S
C1251 H1245 0.950 . S
C1251 C1250 1.327 . S
C1251 C1255 1.429 . S
C1252 C1235 1.574 . S
C1252 H1246 0.949 . S
C1252 C1256 1.368 . S
C1253 C1234 1.429 . S
C1253 C1247 1.429 . S
C1253 C1254 1.523 . S
C1254 C1235 1.368 . S
C1254 C1248 1.368 . S
C1254 C1253 1.523 . S
C1255 C1239 1.429 . S
C1255 C1251 1.429 . S
C1255 C1256 1.523 . S
C1256 C1240 1.368 . S
C1256 C1252 1.368 . S
C1256 C1255 1.523 . S
H1257 C1232 0.950 . S
H1258 C1234 0.950 . S
H1259 C1235 0.949 . S
H1260 C1237 0.950 . S
H1261 C1239 0.950 . S
C1262 C1263 1.349 . S
C1262 C1264 1.327 . S
C1262 H1287 0.950 . S
C1263 C1262 1.349 . S
C1263 C1279 1.349 . S
C1264 C1262 1.327 . S
C1264 C1283 1.429 . S
C1264 H1288 0.950 . S
C1265 C1282 1.574 . S
C1265 C1284 1.368 . S
C1265 H1289 0.949 . S
H1266 C1270 0.949 . S
C1267 C1268 1.349 . S
C1267 C1269 1.327 . S
C1267 H1290 0.950 . S
C1268 C1267 1.349 . S
C1268 C1280 1.349 . S
C1269 C1267 1.327 . S
C1269 C1285 1.429 . S
C1269 H1291 0.950 . S
C1270 H1266 0.949 . S
C1270 C1278 1.574 . S
C1270 C1286 1.368 . S
H1271 C1279 0.950 . S
H1272 C1277 0.950 . S
H1273 C1278 0.949 . S
H1274 C1280 0.950 . S
H1275 C1281 0.950 . S
H1276 C1282 0.949 . S
C1277 H1272 0.950 . S
C1277 C1279 1.327 . S
C1277 C1283 1.429 . S
C1278 C1270 1.574 . S
C1278 H1273 0.949 . S
C1278 C1284 1.368 . S
C1279 C1263 1.349 . S
C1279 H1271 0.950 . S
C1279 C1277 1.327 . S
C1280 C1268 1.349 . S
C1280 H1274 0.950 . S
C1280 C1281 1.327 . S
C1281 H1275 0.950 . S
C1281 C1280 1.327 . S
C1281 C1285 1.429 . S
C1282 C1265 1.574 . S
C1282 H1276 0.949 . S
C1282 C1286 1.368 . S
C1283 C1264 1.429 . S
C1283 C1277 1.429 . S
C1283 C1284 1.523 . S
C1284 C1265 1.368 . S
C1284 C1278 1.368 . S
C1284 C1283 1.523 . S
C1285 C1269 1.429 . S
C1285 C1281 1.429 . S
C1285 C1286 1.523 . S
C1286 C1270 1.368 . S
C1286 C1282 1.368 . S
C1286 C1285 1.523 . S
H1287 C1262 0.950 . S
H1288 C1264 0.950 . S
H1289 C1265 0.949 . S
H1290 C1267 0.950 . S
H1291 C1269 0.950 . S
C1292 C1293 1.349 . S
C1292 C1294 1.327 . S
C1292 H1317 0.950 . S
C1293 C1292 1.349 . S
C1293 C1309 1.349 . S
C1294 C1292 1.327 . S
C1294 C1313 1.429 . S
C1294 H1318 0.950 . S
C1295 C1312 1.574 . S
C1295 C1314 1.368 . S
C1295 H1319 0.949 . S
H1296 C1300 0.949 . S
C1297 C1298 1.349 . S
C1297 C1299 1.327 . S
C1297 H1320 0.950 . S
C1298 C1297 1.349 . S
C1298 C1310 1.349 . S
C1299 C1297 1.327 . S
C1299 C1315 1.429 . S
C1299 H1321 0.950 . S
C1300 H1296 0.949 . S
C1300 C1308 1.574 . S
C1300 C1316 1.368 . S
H1301 C1309 0.950 . S
H1302 C1307 0.950 . S
H1303 C1308 0.949 . S
H1304 C1310 0.950 . S
H1305 C1311 0.950 . S
H1306 C1312 0.949 . S
C1307 H1302 0.950 . S
C1307 C1309 1.327 . S
C1307 C1313 1.429 . S
C1308 C1300 1.574 . S
C1308 H1303 0.949 . S
C1308 C1314 1.368 . S
C1309 C1293 1.349 . S
C1309 H1301 0.950 . S
C1309 C1307 1.327 . S
C1310 C1298 1.349 . S
C1310 H1304 0.950 . S
C1310 C1311 1.327 . S
C1311 H1305 0.950 . S
C1311 C1310 1.327 . S
C1311 C1315 1.429 . S
C1312 C1295 1.574 . S
C1312 H1306 0.949 . S
C1312 C1316 1.368 . S
C1313 C1294 1.429 . S
C1313 C1307 1.429 . S
C1313 C1314 1.523 . S
C1314 C1295 1.368 . S
C1314 C1308 1.368 . S
C1314 C1313 1.523 . S
C1315 C1299 1.429 . S
C1315 C1311 1.429 . S
C1315 C1316 1.523 . S
C1316 C1300 1.368 . S
C1316 C1312 1.368 . S
C1316 C1315 1.523 . S
H1317 C1292 0.950 . S
H1318 C1294 0.950 . S
H1319 C1295 0.949 . S
H1320 C1297 0.950 . S
H1321 C1299 0.950 . S
C1322 C1323 1.349 . S
C1322 C1324 1.327 . S
C1322 H1347 0.950 . S
C1323 C1322 1.349 . S
C1323 C1339 1.349 . S
C1324 C1322 1.327 . S
C1324 C1343 1.429 . S
C1324 H1348 0.950 . S
C1325 C1342 1.574 . S
C1325 C1344 1.368 . S
C1325 H1349 0.949 . S
H1326 C1330 0.949 . S
C1327 C1328 1.349 . S
C1327 C1329 1.327 . S
C1327 H1350 0.950 . S
C1328 C1327 1.349 . S
C1328 C1340 1.349 . S
C1329 C1327 1.327 . S
C1329 C1345 1.429 . S
C1329 H1351 0.950 . S
C1330 H1326 0.949 . S
C1330 C1338 1.574 . S
C1330 C1346 1.368 . S
H1331 C1339 0.950 . S
H1332 C1337 0.950 . S
H1333 C1338 0.949 . S
H1334 C1340 0.950 . S
H1335 C1341 0.950 . S
H1336 C1342 0.949 . S
C1337 H1332 0.950 . S
C1337 C1339 1.327 . S
C1337 C1343 1.429 . S
C1338 C1330 1.574 . S
C1338 H1333 0.949 . S
C1338 C1344 1.368 . S
C1339 C1323 1.349 . S
C1339 H1331 0.950 . S
C1339 C1337 1.327 . S
C1340 C1328 1.349 . S
C1340 H1334 0.950 . S
C1340 C1341 1.327 . S
C1341 H1335 0.950 . S
C1341 C1340 1.327 . S
C1341 C1345 1.429 . S
C1342 C1325 1.574 . S
C1342 H1336 0.949 . S
C1342 C1346 1.368 . S
C1343 C1324 1.429 . S
C1343 C1337 1.429 . S
C1343 C1344 1.523 . S
C1344 C1325 1.368 . S
C1344 C1338 1.368 . S
C1344 C1343 1.523 . S
C1345 C1329 1.429 . S
C1345 C1341 1.429 . S
C1345 C1346 1.523 . S
C1346 C1330 1.368 . S
C1346 C1342 1.368 . S
C1346 C1345 1.523 . S
H1347 C1322 0.950 . S
H1348 C1324 0.950 . S
H1349 C1325 0.949 . S
H1350 C1327 0.950 . S
H1351 C1329 0.950 . S
C1352 C1353 1.349 . S
C1352 C1354 1.327 . S
C1352 H1377 0.950 . S
C1353 C1352 1.349 . S
C1353 C1369 1.349 1_455 S
C1354 C1352 1.327 . S
C1354 C1373 1.429 . S
C1354 H1378 0.950 . S
C1355 C1372 1.574 . S
C1355 C1374 1.368 1_655 S
C1355 H1379 0.949 . S
H1356 C1360 0.949 . S
C1357 C1358 1.349 1_655 S
C1357 C1359 1.327 . S
C1357 H1380 0.950 . S
C1358 C1357 1.349 1_455 S
C1358 C1370 1.349 . S
C1359 C1357 1.327 . S
C1359 C1375 1.429 1_655 S
C1359 H1381 0.950 . S
C1360 H1356 0.949 . S
C1360 C1368 1.574 . S
C1360 C1376 1.368 . S
H1361 C1369 0.950 . S
H1362 C1367 0.950 . S
H1363 C1368 0.949 . S
H1364 C1370 0.950 . S
H1365 C1371 0.950 . S
H1366 C1372 0.949 . S
C1367 H1362 0.950 . S
C1367 C1369 1.327 . S
C1367 C1373 1.429 1_655 S
C1368 C1360 1.574 . S
C1368 H1363 0.949 . S
C1368 C1374 1.368 . S
C1369 C1353 1.349 1_655 S
C1369 H1361 0.950 . S
C1369 C1367 1.327 . S
C1370 C1358 1.349 . S
C1370 H1364 0.950 . S
C1370 C1371 1.327 . S
C1371 H1365 0.950 . S
C1371 C1370 1.327 . S
C1371 C1375 1.429 . S
C1372 C1355 1.574 . S
C1372 H1366 0.949 . S
C1372 C1376 1.368 1_655 S
C1373 C1354 1.429 . S
C1373 C1367 1.429 1_455 S
C1373 C1374 1.523 . S
C1374 C1355 1.368 1_455 S
C1374 C1368 1.368 . S
C1374 C1373 1.523 . S
C1375 C1359 1.429 1_455 S
C1375 C1371 1.429 . S
C1375 C1376 1.523 . S
C1376 C1360 1.368 . S
C1376 C1372 1.368 1_455 S
C1376 C1375 1.523 . S
H1377 C1352 0.950 . S
H1378 C1354 0.950 . S
H1379 C1355 0.949 . S
H1380 C1357 0.950 . S
H1381 C1359 0.950 . S
C1382 C1383 1.349 . S
C1382 C1384 1.327 . S
C1382 H1407 0.950 . S
C1383 C1382 1.349 . S
C1383 C1399 1.349 . S
C1384 C1382 1.327 . S
C1384 C1403 1.429 . S
C1384 H1408 0.950 . S
C1385 C1402 1.574 . S
C1385 C1404 1.368 . S
C1385 H1409 0.949 . S
H1386 C1390 0.949 . S
C1387 C1388 1.349 . S
C1387 C1389 1.327 . S
C1387 H1410 0.950 . S
C1388 C1387 1.349 . S
C1388 C1400 1.349 . S
C1389 C1387 1.327 . S
C1389 C1405 1.429 . S
C1389 H1411 0.950 . S
C1390 H1386 0.949 . S
C1390 C1398 1.574 . S
C1390 C1406 1.368 . S
H1391 C1399 0.950 . S
H1392 C1397 0.950 . S
H1393 C1398 0.949 . S
H1394 C1400 0.950 . S
H1395 C1401 0.950 . S
H1396 C1402 0.949 . S
C1397 H1392 0.950 . S
C1397 C1399 1.327 . S
C1397 C1403 1.429 . S
C1398 C1390 1.574 . S
C1398 H1393 0.949 . S
C1398 C1404 1.368 . S
C1399 C1383 1.349 . S
C1399 H1391 0.950 . S
C1399 C1397 1.327 . S
C1400 C1388 1.349 . S
C1400 H1394 0.950 . S
C1400 C1401 1.327 . S
C1401 H1395 0.950 . S
C1401 C1400 1.327 . S
C1401 C1405 1.429 . S
C1402 C1385 1.574 . S
C1402 H1396 0.949 . S
C1402 C1406 1.368 . S
C1403 C1384 1.429 . S
C1403 C1397 1.429 . S
C1403 C1404 1.523 . S
C1404 C1385 1.368 . S
C1404 C1398 1.368 . S
C1404 C1403 1.523 . S
C1405 C1389 1.429 . S
C1405 C1401 1.429 . S
C1405 C1406 1.523 . S
C1406 C1390 1.368 . S
C1406 C1402 1.368 . S
C1406 C1405 1.523 . S
H1407 C1382 0.950 . S
H1408 C1384 0.950 . S
H1409 C1385 0.949 . S
H1410 C1387 0.950 . S
H1411 C1389 0.950 . S
C1412 C1413 1.349 . S
C1412 C1414 1.327 . S
C1412 H1437 0.950 . S
C1413 C1412 1.349 . S
C1413 C1429 1.349 . S
C1414 C1412 1.327 . S
C1414 C1433 1.429 . S
C1414 H1438 0.950 . S
C1415 C1432 1.574 . S
C1415 C1434 1.368 . S
C1415 H1439 0.949 . S
H1416 C1420 0.949 . S
C1417 C1418 1.349 . S
C1417 C1419 1.327 . S
C1417 H1440 0.950 . S
C1418 C1417 1.349 . S
C1418 C1430 1.349 . S
C1419 C1417 1.327 . S
C1419 C1435 1.429 . S
C1419 H1441 0.950 . S
C1420 H1416 0.949 . S
C1420 C1428 1.574 . S
C1420 C1436 1.368 . S
H1421 C1429 0.950 . S
H1422 C1427 0.950 . S
H1423 C1428 0.949 . S
H1424 C1430 0.950 . S
H1425 C1431 0.950 . S
H1426 C1432 0.949 . S
C1427 H1422 0.950 . S
C1427 C1429 1.327 . S
C1427 C1433 1.429 . S
C1428 C1420 1.574 . S
C1428 H1423 0.949 . S
C1428 C1434 1.368 . S
C1429 C1413 1.349 . S
C1429 H1421 0.950 . S
C1429 C1427 1.327 . S
C1430 C1418 1.349 . S
C1430 H1424 0.950 . S
C1430 C1431 1.327 . S
C1431 H1425 0.950 . S
C1431 C1430 1.327 . S
C1431 C1435 1.429 . S
C1432 C1415 1.574 . S
C1432 H1426 0.949 . S
C1432 C1436 1.368 . S
C1433 C1414 1.429 . S
C1433 C1427 1.429 . S
C1433 C1434 1.523 . S
C1434 C1415 1.368 . S
C1434 C1428 1.368 . S
C1434 C1433 1.523 . S
C1435 C1419 1.429 . S
C1435 C1431 1.429 . S
C1435 C1436 1.523 . S
C1436 C1420 1.368 . S
C1436 C1432 1.368 . S
C1436 C1435 1.523 . S
H1437 C1412 0.950 . S
H1438 C1414 0.950 . S
H1439 C1415 0.949 . S
H1440 C1417 0.950 . S
H1441 C1419 0.950 . S
C1442 C1443 1.349 . S
C1442 C1444 1.327 . S
C1442 H1467 0.950 . S
C1443 C1442 1.349 . S
C1443 C1459 1.349 . S
C1444 C1442 1.327 . S
C1444 C1463 1.429 . S
C1444 H1468 0.950 . S
C1445 C1462 1.574 . S
C1445 C1464 1.368 . S
C1445 H1469 0.949 . S
H1446 C1450 0.949 . S
C1447 C1448 1.349 . S
C1447 C1449 1.327 . S
C1447 H1470 0.950 . S
C1448 C1447 1.349 . S
C1448 C1460 1.349 . S
C1449 C1447 1.327 . S
C1449 C1465 1.429 . S
C1449 H1471 0.950 . S
C1450 H1446 0.949 . S
C1450 C1458 1.574 . S
C1450 C1466 1.368 . S
H1451 C1459 0.950 . S
H1452 C1457 0.950 . S
H1453 C1458 0.949 . S
H1454 C1460 0.950 . S
H1455 C1461 0.950 . S
H1456 C1462 0.949 . S
C1457 H1452 0.950 . S
C1457 C1459 1.327 . S
C1457 C1463 1.429 . S
C1458 C1450 1.574 . S
C1458 H1453 0.949 . S
C1458 C1464 1.368 . S
C1459 C1443 1.349 . S
C1459 H1451 0.950 . S
C1459 C1457 1.327 . S
C1460 C1448 1.349 . S
C1460 H1454 0.950 . S
C1460 C1461 1.327 . S
C1461 H1455 0.950 . S
C1461 C1460 1.327 . S
C1461 C1465 1.429 . S
C1462 C1445 1.574 . S
C1462 H1456 0.949 . S
C1462 C1466 1.368 . S
C1463 C1444 1.429 . S
C1463 C1457 1.429 . S
C1463 C1464 1.523 . S
C1464 C1445 1.368 . S
C1464 C1458 1.368 . S
C1464 C1463 1.523 . S
C1465 C1449 1.429 . S
C1465 C1461 1.429 . S
C1465 C1466 1.523 . S
C1466 C1450 1.368 . S
C1466 C1462 1.368 . S
C1466 C1465 1.523 . S
H1467 C1442 0.950 . S
H1468 C1444 0.950 . S
H1469 C1445 0.949 . S
H1470 C1447 0.950 . S
H1471 C1449 0.950 . S
C1472 C1473 1.349 1_655 S
C1472 C1474 1.327 . S
C1472 H1497 0.950 . S
C1473 C1472 1.349 1_455 S
C1473 C1489 1.349 . S
C1474 C1472 1.327 . S
C1474 C1493 1.429 1_655 S
C1474 H1498 0.950 . S
C1475 C1492 1.574 . S
C1475 C1494 1.368 . S
C1475 H1499 0.949 . S
H1476 C1480 0.949 . S
C1477 C1478 1.349 . S
C1477 C1479 1.327 . S
C1477 H1500 0.950 . S
C1478 C1477 1.349 . S
C1478 C1490 1.349 1_455 S
C1479 C1477 1.327 . S
C1479 C1495 1.429 . S
C1479 H1501 0.950 . S
C1480 H1476 0.949 . S
C1480 C1488 1.574 . S
C1480 C1496 1.368 1_655 S
H1481 C1489 0.950 . S
H1482 C1487 0.950 . S
H1483 C1488 0.949 . S
H1484 C1490 0.950 . S
H1485 C1491 0.950 . S
H1486 C1492 0.949 . S
C1487 H1482 0.950 . S
C1487 C1489 1.327 . S
C1487 C1493 1.429 . S
C1488 C1480 1.574 . S
C1488 H1483 0.949 . S
C1488 C1494 1.368 1_655 S
C1489 C1473 1.349 . S
C1489 H1481 0.950 . S
C1489 C1487 1.327 . S
C1490 C1478 1.349 1_655 S
C1490 H1484 0.950 . S
C1490 C1491 1.327 . S
C1491 H1485 0.950 . S
C1491 C1490 1.327 . S
C1491 C1495 1.429 1_655 S
C1492 C1475 1.574 . S
C1492 H1486 0.949 . S
C1492 C1496 1.368 . S
C1493 C1474 1.429 1_455 S
C1493 C1487 1.429 . S
C1493 C1494 1.523 . S
C1494 C1475 1.368 . S
C1494 C1488 1.368 1_455 S
C1494 C1493 1.523 . S
C1495 C1479 1.429 . S
C1495 C1491 1.429 1_455 S
C1495 C1496 1.523 . S
C1496 C1480 1.368 1_455 S
C1496 C1492 1.368 . S
C1496 C1495 1.523 . S
H1497 C1472 0.950 . S
H1498 C1474 0.950 . S
H1499 C1475 0.949 . S
H1500 C1477 0.950 . S
H1501 C1479 0.950 . S
C1502 C1503 1.349 . S
C1502 C1504 1.327 . S
C1502 H1527 0.950 . S
C1503 C1502 1.349 . S
C1503 C1519 1.349 . S
C1504 C1502 1.327 . S
C1504 C1523 1.429 . S
C1504 H1528 0.950 . S
C1505 C1522 1.574 . S
C1505 C1524 1.368 . S
C1505 H1529 0.949 . S
H1506 C1510 0.949 . S
C1507 C1508 1.349 . S
C1507 C1509 1.327 . S
C1507 H1530 0.950 . S
C1508 C1507 1.349 . S
C1508 C1520 1.349 . S
C1509 C1507 1.327 . S
C1509 C1525 1.429 . S
C1509 H1531 0.950 . S
C1510 H1506 0.949 . S
C1510 C1518 1.574 . S
C1510 C1526 1.368 . S
H1511 C1519 0.950 . S
H1512 C1517 0.950 . S
H1513 C1518 0.949 . S
H1514 C1520 0.950 . S
H1515 C1521 0.950 . S
H1516 C1522 0.949 . S
C1517 H1512 0.950 . S
C1517 C1519 1.327 . S
C1517 C1523 1.429 . S
C1518 C1510 1.574 . S
C1518 H1513 0.949 . S
C1518 C1524 1.368 . S
C1519 C1503 1.349 . S
C1519 H1511 0.950 . S
C1519 C1517 1.327 . S
C1520 C1508 1.349 . S
C1520 H1514 0.950 . S
C1520 C1521 1.327 . S
C1521 H1515 0.950 . S
C1521 C1520 1.327 . S
C1521 C1525 1.429 . S
C1522 C1505 1.574 . S
C1522 H1516 0.949 . S
C1522 C1526 1.368 . S
C1523 C1504 1.429 . S
C1523 C1517 1.429 . S
C1523 C1524 1.523 . S
C1524 C1505 1.368 . S
C1524 C1518 1.368 . S
C1524 C1523 1.523 . S
C1525 C1509 1.429 . S
C1525 C1521 1.429 . S
C1525 C1526 1.523 . S
C1526 C1510 1.368 . S
C1526 C1522 1.368 . S
C1526 C1525 1.523 . S
H1527 C1502 0.950 . S
H1528 C1504 0.950 . S
H1529 C1505 0.949 . S
H1530 C1507 0.950 . S
H1531 C1509 0.950 . S
C1532 C1533 1.349 . S
C1532 C1534 1.327 . S
C1532 H1557 0.950 . S
C1533 C1532 1.349 . S
C1533 C1549 1.349 . S
C1534 C1532 1.327 . S
C1534 C1553 1.429 . S
C1534 H1558 0.950 . S
C1535 C1552 1.574 . S
C1535 C1554 1.368 . S
C1535 H1559 0.949 . S
H1536 C1540 0.949 . S
C1537 C1538 1.349 . S
C1537 C1539 1.327 . S
C1537 H1560 0.950 . S
C1538 C1537 1.349 . S
C1538 C1550 1.349 1_556 S
C1539 C1537 1.327 . S
C1539 C1555 1.429 . S
C1539 H1561 0.950 . S
C1540 H1536 0.949 . S
C1540 C1548 1.574 . S
C1540 C1556 1.368 . S
H1541 C1549 0.950 . S
H1542 C1547 0.950 . S
H1543 C1548 0.949 . S
H1544 C1550 0.950 . S
H1545 C1551 0.950 . S
H1546 C1552 0.949 . S
C1547 H1542 0.950 . S
C1547 C1549 1.327 . S
C1547 C1553 1.429 . S
C1548 C1540 1.574 . S
C1548 H1543 0.949 . S
C1548 C1554 1.368 . S
C1549 C1533 1.349 . S
C1549 H1541 0.950 . S
C1549 C1547 1.327 . S
C1550 C1538 1.349 1_554 S
C1550 H1544 0.950 . S
C1550 C1551 1.327 1_554 S
C1551 H1545 0.950 . S
C1551 C1550 1.327 1_556 S
C1551 C1555 1.429 . S
C1552 C1535 1.574 . S
C1552 H1546 0.949 . S
C1552 C1556 1.368 . S
C1553 C1534 1.429 . S
C1553 C1547 1.429 . S
C1553 C1554 1.523 . S
C1554 C1535 1.368 . S
C1554 C1548 1.368 . S
C1554 C1553 1.523 . S
C1555 C1539 1.429 . S
C1555 C1551 1.429 . S
C1555 C1556 1.523 . S
C1556 C1540 1.368 . S
C1556 C1552 1.368 . S
C1556 C1555 1.523 . S
H1557 C1532 0.950 . S
H1558 C1534 0.950 . S
H1559 C1535 0.949 . S
H1560 C1537 0.950 . S
H1561 C1539 0.950 . S
C1562 C1563 1.349 . S
C1562 C1564 1.327 . S
C1562 H1587 0.950 . S
C1563 C1562 1.349 . S
C1563 C1579 1.349 . S
C1564 C1562 1.327 . S
C1564 C1583 1.429 . S
C1564 H1588 0.950 . S
C1565 C1582 1.574 . S
C1565 C1584 1.368 . S
C1565 H1589 0.949 . S
H1566 C1570 0.949 . S
C1567 C1568 1.349 . S
C1567 C1569 1.327 . S
C1567 H1590 0.950 . S
C1568 C1567 1.349 . S
C1568 C1580 1.349 . S
C1569 C1567 1.327 . S
C1569 C1585 1.429 . S
C1569 H1591 0.950 . S
C1570 H1566 0.949 . S
C1570 C1578 1.574 . S
C1570 C1586 1.368 . S
H1571 C1579 0.950 . S
H1572 C1577 0.950 . S
H1573 C1578 0.949 . S
H1574 C1580 0.950 . S
H1575 C1581 0.950 . S
H1576 C1582 0.949 . S
C1577 H1572 0.950 . S
C1577 C1579 1.327 . S
C1577 C1583 1.429 . S
C1578 C1570 1.574 . S
C1578 H1573 0.949 . S
C1578 C1584 1.368 . S
C1579 C1563 1.349 . S
C1579 H1571 0.950 . S
C1579 C1577 1.327 . S
C1580 C1568 1.349 . S
C1580 H1574 0.950 . S
C1580 C1581 1.327 . S
C1581 H1575 0.950 . S
C1581 C1580 1.327 . S
C1581 C1585 1.429 . S
C1582 C1565 1.574 . S
C1582 H1576 0.949 . S
C1582 C1586 1.368 . S
C1583 C1564 1.429 . S
C1583 C1577 1.429 . S
C1583 C1584 1.523 . S
C1584 C1565 1.368 . S
C1584 C1578 1.368 . S
C1584 C1583 1.523 . S
C1585 C1569 1.429 . S
C1585 C1581 1.429 . S
C1585 C1586 1.523 . S
C1586 C1570 1.368 . S
C1586 C1582 1.368 . S
C1586 C1585 1.523 . S
H1587 C1562 0.950 . S
H1588 C1564 0.950 . S
H1589 C1565 0.949 . S
H1590 C1567 0.950 . S
H1591 C1569 0.950 . S
C1592 C1593 1.349 1_545 S
C1592 C1594 1.327 . S
C1592 H1617 0.950 . S
C1593 C1592 1.349 1_565 S
C1593 C1609 1.349 . S
C1594 C1592 1.327 . S
C1594 C1613 1.429 . S
C1594 H1618 0.950 . S
C1595 C1612 1.574 . S
C1595 C1614 1.368 1_565 S
C1595 H1619 0.949 . S
H1596 C1600 0.949 . S
C1597 C1598 1.349 1_565 S
C1597 C1599 1.327 . S
C1597 H1620 0.950 . S
C1598 C1597 1.349 1_545 S
C1598 C1610 1.349 . S
C1599 C1597 1.327 . S
C1599 C1615 1.429 1_565 S
C1599 H1621 0.950 . S
C1600 H1596 0.949 . S
C1600 C1608 1.574 . S
C1600 C1616 1.368 . S
H1601 C1609 0.950 . S
H1602 C1607 0.950 . S
H1603 C1608 0.949 . S
H1604 C1610 0.950 . S
H1605 C1611 0.950 . S
H1606 C1612 0.949 . S
C1607 H1602 0.950 . S
C1607 C1609 1.327 . S
C1607 C1613 1.429 1_565 S
C1608 C1600 1.574 . S
C1608 H1603 0.949 . S
C1608 C1614 1.368 . S
C1609 C1593 1.349 . S
C1609 H1601 0.950 . S
C1609 C1607 1.327 . S
C1610 C1598 1.349 . S
C1610 H1604 0.950 . S
C1610 C1611 1.327 . S
C1611 H1605 0.950 . S
C1611 C1610 1.327 . S
C1611 C1615 1.429 . S
C1612 C1595 1.574 . S
C1612 H1606 0.949 . S
C1612 C1616 1.368 1_565 S
C1613 C1594 1.429 . S
C1613 C1607 1.429 1_545 S
C1613 C1614 1.523 . S
C1614 C1595 1.368 1_545 S
C1614 C1608 1.368 . S
C1614 C1613 1.523 . S
C1615 C1599 1.429 1_545 S
C1615 C1611 1.429 . S
C1615 C1616 1.523 . S
C1616 C1600 1.368 . S
C1616 C1612 1.368 1_545 S
C1616 C1615 1.523 . S
H1617 C1592 0.950 . S
H1618 C1594 0.950 . S
H1619 C1595 0.949 . S
H1620 C1597 0.950 . S
H1621 C1599 0.950 . S
C1622 C1623 1.349 . S
C1622 C1624 1.327 . S
C1622 H1647 0.950 . S
C1623 C1622 1.349 . S
C1623 C1639 1.349 . S
C1624 C1622 1.327 . S
C1624 C1643 1.429 . S
C1624 H1648 0.950 . S
C1625 C1642 1.574 . S
C1625 C1644 1.368 . S
C1625 H1649 0.949 . S
H1626 C1630 0.949 . S
C1627 C1628 1.349 . S
C1627 C1629 1.327 . S
C1627 H1650 0.950 . S
C1628 C1627 1.349 . S
C1628 C1640 1.349 . S
C1629 C1627 1.327 . S
C1629 C1645 1.429 . S
C1629 H1651 0.950 . S
C1630 H1626 0.949 . S
C1630 C1638 1.574 . S
C1630 C1646 1.368 . S
H1631 C1639 0.950 . S
H1632 C1637 0.950 . S
H1633 C1638 0.949 . S
H1634 C1640 0.950 . S
H1635 C1641 0.950 . S
H1636 C1642 0.949 . S
C1637 H1632 0.950 . S
C1637 C1639 1.327 . S
C1637 C1643 1.429 . S
C1638 C1630 1.574 . S
C1638 H1633 0.949 . S
C1638 C1644 1.368 . S
C1639 C1623 1.349 . S
C1639 H1631 0.950 . S
C1639 C1637 1.327 . S
C1640 C1628 1.349 . S
C1640 H1634 0.950 . S
C1640 C1641 1.327 . S
C1641 H1635 0.950 . S
C1641 C1640 1.327 . S
C1641 C1645 1.429 . S
C1642 C1625 1.574 . S
C1642 H1636 0.949 . S
C1642 C1646 1.368 . S
C1643 C1624 1.429 . S
C1643 C1637 1.429 . S
C1643 C1644 1.523 . S
C1644 C1625 1.368 . S
C1644 C1638 1.368 . S
C1644 C1643 1.523 . S
C1645 C1629 1.429 . S
C1645 C1641 1.429 . S
C1645 C1646 1.523 . S
C1646 C1630 1.368 . S
C1646 C1642 1.368 . S
C1646 C1645 1.523 . S
H1647 C1622 0.950 . S
H1648 C1624 0.950 . S
H1649 C1625 0.949 . S
H1650 C1627 0.950 . S
H1651 C1629 0.950 . S
C1652 C1653 1.349 . S
C1652 C1654 1.327 . S
C1652 H1677 0.950 . S
C1653 C1652 1.349 . S
C1653 C1669 1.349 . S
C1654 C1652 1.327 . S
C1654 C1673 1.429 . S
C1654 H1678 0.950 . S
C1655 C1672 1.574 . S
C1655 C1674 1.368 . S
C1655 H1679 0.949 . S
H1656 C1660 0.949 . S
C1657 C1658 1.349 . S
C1657 C1659 1.327 . S
C1657 H1680 0.950 . S
C1658 C1657 1.349 . S
C1658 C1670 1.349 . S
C1659 C1657 1.327 . S
C1659 C1675 1.429 . S
C1659 H1681 0.950 . S
C1660 H1656 0.949 . S
C1660 C1668 1.574 . S
C1660 C1676 1.368 . S
H1661 C1669 0.950 . S
H1662 C1667 0.950 . S
H1663 C1668 0.949 . S
H1664 C1670 0.950 . S
H1665 C1671 0.950 . S
H1666 C1672 0.949 . S
C1667 H1662 0.950 . S
C1667 C1669 1.327 . S
C1667 C1673 1.429 . S
C1668 C1660 1.574 . S
C1668 H1663 0.949 . S
C1668 C1674 1.368 . S
C1669 C1653 1.349 . S
C1669 H1661 0.950 . S
C1669 C1667 1.327 . S
C1670 C1658 1.349 . S
C1670 H1664 0.950 . S
C1670 C1671 1.327 . S
C1671 H1665 0.950 . S
C1671 C1670 1.327 . S
C1671 C1675 1.429 . S
C1672 C1655 1.574 . S
C1672 H1666 0.949 . S
C1672 C1676 1.368 . S
C1673 C1654 1.429 . S
C1673 C1667 1.429 . S
C1673 C1674 1.523 . S
C1674 C1655 1.368 . S
C1674 C1668 1.368 . S
C1674 C1673 1.523 . S
C1675 C1659 1.429 . S
C1675 C1671 1.429 . S
C1675 C1676 1.523 . S
C1676 C1660 1.368 . S
C1676 C1672 1.368 . S
C1676 C1675 1.523 . S
H1677 C1652 0.950 . S
H1678 C1654 0.950 . S
H1679 C1655 0.949 . S
H1680 C1657 0.950 . S
H1681 C1659 0.950 . S
C1682 C1683 1.349 . S
C1682 C1684 1.327 . S
C1682 H1707 0.950 . S
C1683 C1682 1.349 . S
C1683 C1699 1.349 . S
C1684 C1682 1.327 . S
C1684 C1703 1.429 . S
C1684 H1708 0.950 . S
C1685 C1702 1.574 . S
C1685 C1704 1.368 . S
C1685 H1709 0.949 . S
H1686 C1690 0.949 . S
C1687 C1688 1.349 . S
C1687 C1689 1.327 . S
C1687 H1710 0.950 . S
C1688 C1687 1.349 . S
C1688 C1700 1.349 . S
C1689 C1687 1.327 . S
C1689 C1705 1.429 . S
C1689 H1711 0.950 . S
C1690 H1686 0.949 . S
C1690 C1698 1.574 . S
C1690 C1706 1.368 . S
H1691 C1699 0.950 . S
H1692 C1697 0.950 . S
H1693 C1698 0.949 . S
H1694 C1700 0.950 . S
H1695 C1701 0.950 . S
H1696 C1702 0.949 . S
C1697 H1692 0.950 . S
C1697 C1699 1.327 . S
C1697 C1703 1.429 . S
C1698 C1690 1.574 . S
C1698 H1693 0.949 . S
C1698 C1704 1.368 . S
C1699 C1683 1.349 . S
C1699 H1691 0.950 . S
C1699 C1697 1.327 . S
C1700 C1688 1.349 . S
C1700 H1694 0.950 . S
C1700 C1701 1.327 . S
C1701 H1695 0.950 . S
C1701 C1700 1.327 . S
C1701 C1705 1.429 . S
C1702 C1685 1.574 . S
C1702 H1696 0.949 . S
C1702 C1706 1.368 . S
C1703 C1684 1.429 . S
C1703 C1697 1.429 . S
C1703 C1704 1.523 . S
C1704 C1685 1.368 . S
C1704 C1698 1.368 . S
C1704 C1703 1.523 . S
C1705 C1689 1.429 . S
C1705 C1701 1.429 . S
C1705 C1706 1.523 . S
C1706 C1690 1.368 . S
C1706 C1702 1.368 . S
C1706 C1705 1.523 . S
H1707 C1682 0.950 . S
H1708 C1684 0.950 . S
H1709 C1685 0.949 . S
H1710 C1687 0.950 . S
H1711 C1689 0.950 . S
C1712 C1713 1.349 . S
C1712 C1714 1.327 . S
C1712 H1737 0.950 . S
C1713 C1712 1.349 . S
C1713 C1729 1.349 1_565 S
C1714 C1712 1.327 . S
C1714 C1733 1.429 1_565 S
C1714 H1738 0.950 . S
C1715 C1732 1.574 . S
C1715 C1734 1.368 . S
C1715 H1739 0.949 . S
H1716 C1720 0.949 . S
C1717 C1718 1.349 . S
C1717 C1719 1.327 . S
C1717 H1740 0.950 . S
C1718 C1717 1.349 . S
C1718 C1730 1.349 . S
C1719 C1717 1.327 . S
C1719 C1735 1.429 . S
C1719 H1741 0.950 . S
C1720 H1716 0.949 . S
C1720 C1728 1.574 . S
C1720 C1736 1.368 1_565 S
H1721 C1729 0.950 . S
H1722 C1727 0.950 . S
H1723 C1728 0.949 . S
H1724 C1730 0.950 1_565 S
H1725 C1731 0.950 1_565 S
H1726 C1732 0.949 . S
C1727 H1722 0.950 . S
C1727 C1729 1.327 . S
C1727 C1733 1.429 . S
C1728 C1720 1.574 . S
C1728 H1723 0.949 . S
C1728 C1734 1.368 1_565 S
C1729 C1713 1.349 1_545 S
C1729 H1721 0.950 . S
C1729 C1727 1.327 . S
C1730 C1718 1.349 . S
C1730 H1724 0.950 1_545 S
C1730 C1731 1.327 . S
C1731 H1725 0.950 1_545 S
C1731 C1730 1.327 . S
C1731 C1735 1.429 . S
C1732 C1715 1.574 . S
C1732 H1726 0.949 . S
C1732 C1736 1.368 . S
C1733 C1714 1.429 1_545 S
C1733 C1727 1.429 . S
C1733 C1734 1.523 . S
C1734 C1715 1.368 . S
C1734 C1728 1.368 1_545 S
C1734 C1733 1.523 . S
C1735 C1719 1.429 . S
C1735 C1731 1.429 . S
C1735 C1736 1.523 . S
C1736 C1720 1.368 1_545 S
C1736 C1732 1.368 . S
C1736 C1735 1.523 . S
H1737 C1712 0.950 . S
H1738 C1714 0.950 . S
H1739 C1715 0.949 . S
H1740 C1717 0.950 . S
H1741 C1719 0.950 . S
C1742 C1743 1.349 . S
C1742 C1744 1.327 . S
C1742 H1767 0.950 . S
C1743 C1742 1.349 . S
C1743 C1759 1.349 . S
C1744 C1742 1.327 . S
C1744 C1763 1.429 . S
C1744 H1768 0.950 . S
C1745 C1762 1.574 . S
C1745 C1764 1.368 . S
C1745 H1769 0.949 . S
H1746 C1750 0.949 . S
C1747 C1748 1.349 . S
C1747 C1749 1.327 . S
C1747 H1770 0.950 . S
C1748 C1747 1.349 . S
C1748 C1760 1.349 . S
C1749 C1747 1.327 . S
C1749 C1765 1.429 . S
C1749 H1771 0.950 . S
C1750 H1746 0.949 . S
C1750 C1758 1.574 . S
C1750 C1766 1.368 . S
H1751 C1759 0.950 . S
H1752 C1757 0.950 . S
H1753 C1758 0.949 . S
H1754 C1760 0.950 . S
H1755 C1761 0.950 . S
H1756 C1762 0.949 . S
C1757 H1752 0.950 . S
C1757 C1759 1.327 . S
C1757 C1763 1.429 . S
C1758 C1750 1.574 . S
C1758 H1753 0.949 . S
C1758 C1764 1.368 . S
C1759 C1743 1.349 . S
C1759 H1751 0.950 . S
C1759 C1757 1.327 . S
C1760 C1748 1.349 . S
C1760 H1754 0.950 . S
C1760 C1761 1.327 . S
C1761 H1755 0.950 . S
C1761 C1760 1.327 . S
C1761 C1765 1.429 . S
C1762 C1745 1.574 . S
C1762 H1756 0.949 . S
C1762 C1766 1.368 . S
C1763 C1744 1.429 . S
C1763 C1757 1.429 . S
C1763 C1764 1.523 . S
C1764 C1745 1.368 . S
C1764 C1758 1.368 . S
C1764 C1763 1.523 . S
C1765 C1749 1.429 . S
C1765 C1761 1.429 . S
C1765 C1766 1.523 . S
C1766 C1750 1.368 . S
C1766 C1762 1.368 . S
C1766 C1765 1.523 . S
H1767 C1742 0.950 . S
H1768 C1744 0.950 . S
H1769 C1745 0.949 . S
H1770 C1747 0.950 . S
H1771 C1749 0.950 . S
C1772 C1773 1.349 . S
C1772 C1774 1.327 . S
C1772 H1797 0.950 . S
C1773 C1772 1.349 . S
C1773 C1789 1.349 . S
C1774 C1772 1.327 . S
C1774 C1793 1.429 . S
C1774 H1798 0.950 . S
C1775 C1792 1.574 . S
C1775 C1794 1.368 . S
C1775 H1799 0.949 . S
H1776 C1780 0.949 . S
C1777 C1778 1.349 . S
C1777 C1779 1.327 . S
C1777 H1800 0.950 . S
C1778 C1777 1.349 . S
C1778 C1790 1.349 . S
C1779 C1777 1.327 . S
C1779 C1795 1.429 . S
C1779 H1801 0.950 . S
C1780 H1776 0.949 . S
C1780 C1788 1.574 . S
C1780 C1796 1.368 . S
H1781 C1789 0.950 . S
H1782 C1787 0.950 . S
H1783 C1788 0.949 . S
H1784 C1790 0.950 1_565 S
H1785 C1791 0.972 . S
H1786 C1792 0.949 . S
C1787 H1782 0.950 . S
C1787 C1789 1.327 . S
C1787 C1793 1.429 . S
C1788 C1780 1.574 . S
C1788 H1783 0.949 . S
C1788 C1794 1.368 . S
C1789 C1773 1.349 . S
C1789 H1781 0.950 . S
C1789 C1787 1.327 . S
C1790 C1778 1.349 . S
C1790 H1784 0.950 1_545 S
C1790 C1791 1.327 . S
C1791 H1785 0.972 . S
C1791 C1790 1.327 . S
C1791 C1795 1.429 . S
C1792 C1775 1.574 . S
C1792 H1786 0.949 . S
C1792 C1796 1.368 . S
C1793 C1774 1.429 . S
C1793 C1787 1.429 . S
C1793 C1794 1.523 . S
C1794 C1775 1.368 . S
C1794 C1788 1.368 . S
C1794 C1793 1.523 . S
C1795 C1779 1.429 . S
C1795 C1791 1.429 . S
C1795 C1796 1.523 . S
C1796 C1780 1.368 . S
C1796 C1792 1.368 . S
C1796 C1795 1.523 . S
H1797 C1772 0.950 . S
H1798 C1774 0.950 . S
H1799 C1775 0.949 . S
H1800 C1777 0.950 . S
H1801 C1779 0.950 . S
C1802 C1803 1.349 . S
C1802 C1804 1.327 . S
C1802 H1827 0.950 . S
C1803 C1802 1.349 . S
C1803 C1819 1.349 . S
C1804 C1802 1.327 . S
C1804 C1823 1.429 . S
C1804 H1828 0.950 . S
C1805 C1822 1.574 . S
C1805 C1824 1.368 . S
C1805 H1829 0.949 . S
H1806 C1810 0.949 . S
C1807 C1808 1.349 . S
C1807 C1809 1.327 . S
C1807 H1830 0.950 . S
C1808 C1807 1.349 . S
C1808 C1820 1.349 . S
C1809 C1807 1.327 . S
C1809 C1825 1.429 . S
C1809 H1831 0.950 . S
C1810 H1806 0.949 . S
C1810 C1818 1.574 . S
C1810 C1826 1.368 . S
H1811 C1819 0.950 . S
H1812 C1817 0.950 . S
H1813 C1818 0.949 . S
H1814 C1820 0.950 . S
H1815 C1821 0.950 . S
H1816 C1822 0.949 . S
C1817 H1812 0.950 . S
C1817 C1819 1.327 . S
C1817 C1823 1.429 . S
C1818 C1810 1.574 . S
C1818 H1813 0.949 . S
C1818 C1824 1.368 . S
C1819 C1803 1.349 . S
C1819 H1811 0.950 . S
C1819 C1817 1.327 . S
C1820 C1808 1.349 . S
C1820 H1814 0.950 . S
C1820 C1821 1.327 . S
C1821 H1815 0.950 . S
C1821 C1820 1.327 . S
C1821 C1825 1.429 . S
C1822 C1805 1.574 . S
C1822 H1816 0.949 . S
C1822 C1826 1.368 . S
C1823 C1804 1.429 . S
C1823 C1817 1.429 . S
C1823 C1824 1.523 . S
C1824 C1805 1.368 . S
C1824 C1818 1.368 . S
C1824 C1823 1.523 . S
C1825 C1809 1.429 . S
C1825 C1821 1.429 . S
C1825 C1826 1.523 . S
C1826 C1810 1.368 . S
C1826 C1822 1.368 . S
C1826 C1825 1.523 . S
H1827 C1802 0.950 . S
H1828 C1804 0.950 . S
H1829 C1805 0.949 . S
H1830 C1807 0.950 . S
H1831 C1809 0.950 . S
C1832 C1833 1.375 . S
C1832 C1834 1.327 . S
C1832 H1857 0.950 . S
C1833 C1832 1.375 . S
C1833 C1849 1.324 1_556 S
C1834 C1832 1.327 . S
C1834 C1853 1.449 . S
C1834 H1858 0.950 . S
C1835 C1852 1.574 . S
C1835 C1854 1.348 1_554 S
C1835 H1859 0.949 . S
H1836 C1840 0.949 . S
C1837 C1838 1.339 1_554 S
C1837 C1839 1.327 . S
C1837 H1860 0.950 . S
C1838 C1837 1.339 1_556 S
C1838 C1850 1.358 . S
C1839 C1837 1.327 . S
C1839 C1855 1.416 1_554 S
C1839 H1861 0.950 . S
C1840 H1836 0.949 . S
C1840 C1848 1.574 . S
C1840 C1856 1.385 . S
H1841 C1849 0.950 . S
H1842 C1847 0.950 . S
H1843 C1848 0.949 . S
H1844 C1850 0.950 . S
H1845 C1851 0.950 . S
H1846 C1852 0.949 . S
C1847 H1842 0.950 . S
C1847 C1849 1.327 . S
C1847 C1853 1.407 1_554 S
C1848 C1840 1.574 . S
C1848 H1843 0.949 . S
C1848 C1854 1.390 . S
C1849 C1833 1.324 1_554 S
C1849 H1841 0.950 . S
C1849 C1847 1.327 . S
C1850 C1838 1.358 . S
C1850 H1844 0.950 . S
C1850 C1851 1.327 . S
C1851 H1845 0.950 . S
C1851 C1850 1.327 . S
C1851 C1855 1.442 . S
C1852 C1835 1.574 . S
C1852 H1846 0.949 . S
C1852 C1856 1.351 1_554 S
C1853 C1834 1.449 . S
C1853 C1847 1.407 1_556 S
C1853 C1854 1.523 . S
C1854 C1835 1.348 1_556 S
C1854 C1848 1.390 . S
C1854 C1853 1.523 . S
C1855 C1839 1.416 1_556 S
C1855 C1851 1.442 . S
C1855 C1856 1.523 . S
C1856 C1840 1.385 . S
C1856 C1852 1.351 1_556 S
C1856 C1855 1.523 . S
H1857 C1832 0.950 . S
H1858 C1834 0.950 . S
H1859 C1835 0.949 . S
H1860 C1837 0.950 . S
H1861 C1839 0.950 . S
C1862 C1863 1.349 . S
C1862 C1864 1.327 . S
C1862 H1887 0.950 . S
C1863 C1862 1.349 . S
C1863 C1879 1.349 . S
C1864 C1862 1.327 . S
C1864 C1883 1.429 . S
C1864 H1888 0.950 . S
C1865 C1882 1.574 . S
C1865 C1884 1.368 . S
C1865 H1889 0.949 1_554 S
H1866 C1870 0.949 . S
C1867 C1868 1.349 . S
C1867 C1869 1.327 . S
C1867 H1890 0.950 1_554 S
C1868 C1867 1.349 . S
C1868 C1880 1.349 . S
C1869 C1867 1.327 . S
C1869 C1885 1.429 . S
C1869 H1891 0.950 1_554 S
C1870 H1866 0.949 . S
C1870 C1878 1.574 . S
C1870 C1886 1.368 . S
H1871 C1879 0.950 1_556 S
H1872 C1877 0.950 1_556 S
H1873 C1878 0.949 . S
H1874 C1880 0.950 . S
H1875 C1881 0.950 . S
H1876 C1882 0.949 1_556 S
C1877 H1872 0.950 1_554 S
C1877 C1879 1.327 . S
C1877 C1883 1.429 . S
C1878 C1870 1.574 . S
C1878 H1873 0.949 . S
C1878 C1884 1.368 . S
C1879 C1863 1.349 . S
C1879 H1871 0.950 1_554 S
C1879 C1877 1.327 . S
C1880 C1868 1.349 . S
C1880 H1874 0.950 . S
C1880 C1881 1.327 . S
C1881 H1875 0.950 . S
C1881 C1880 1.327 . S
C1881 C1885 1.429 . S
C1882 C1865 1.574 . S
C1882 H1876 0.949 1_554 S
C1882 C1886 1.368 . S
C1883 C1864 1.429 . S
C1883 C1877 1.429 . S
C1883 C1884 1.523 . S
C1884 C1865 1.368 . S
C1884 C1878 1.368 . S
C1884 C1883 1.523 . S
C1885 C1869 1.429 . S
C1885 C1881 1.429 . S
C1885 C1886 1.523 . S
C1886 C1870 1.368 . S
C1886 C1882 1.368 . S
C1886 C1885 1.523 . S
H1887 C1862 0.950 . S
H1888 C1864 0.950 . S
H1889 C1865 0.949 1_556 S
H1890 C1867 0.950 1_556 S
H1891 C1869 0.950 1_556 S
C1892 C1893 1.349 . S
C1892 C1894 1.327 . S
C1892 H1917 0.950 . S
C1893 C1892 1.349 . S
C1893 C1909 1.349 . S
C1894 C1892 1.327 . S
C1894 C1913 1.429 . S
C1894 H1918 0.950 . S
C1895 C1912 1.574 . S
C1895 C1914 1.368 . S
C1895 H1919 0.949 . S
H1896 C1900 0.949 . S
C1897 C1898 1.349 . S
C1897 C1899 1.327 . S
C1897 H1920 0.950 . S
C1898 C1897 1.349 . S
C1898 C1910 1.349 . S
C1899 C1897 1.327 . S
C1899 C1915 1.429 . S
C1899 H1921 0.950 . S
C1900 H1896 0.949 . S
C1900 C1908 1.574 . S
C1900 C1916 1.368 . S
H1901 C1909 0.950 . S
H1902 C1907 0.950 . S
H1903 C1908 0.949 . S
H1904 C1910 0.950 . S
H1905 C1911 0.950 . S
H1906 C1912 0.949 . S
C1907 H1902 0.950 . S
C1907 C1909 1.327 . S
C1907 C1913 1.429 . S
C1908 C1900 1.574 . S
C1908 H1903 0.949 . S
C1908 C1914 1.368 . S
C1909 C1893 1.349 . S
C1909 H1901 0.950 . S
C1909 C1907 1.327 . S
C1910 C1898 1.349 . S
C1910 H1904 0.950 . S
C1910 C1911 1.327 . S
C1911 H1905 0.950 . S
C1911 C1910 1.327 . S
C1911 C1915 1.429 . S
C1912 C1895 1.574 . S
C1912 H1906 0.949 . S
C1912 C1916 1.368 . S
C1913 C1894 1.429 . S
C1913 C1907 1.429 . S
C1913 C1914 1.523 . S
C1914 C1895 1.368 . S
C1914 C1908 1.368 . S
C1914 C1913 1.523 . S
C1915 C1899 1.429 . S
C1915 C1911 1.429 . S
C1915 C1916 1.523 . S
C1916 C1900 1.368 . S
C1916 C1912 1.368 . S
C1916 C1915 1.523 . S
H1917 C1892 0.950 . S
H1918 C1894 0.950 . S
H1919 C1895 0.949 . S
H1920 C1897 0.950 . S
H1921 C1899 0.950 . S
C1922 C1923 1.349 . S
C1922 C1924 1.327 . S
C1922 H1947 0.950 . S
C1923 C1922 1.349 . S
C1923 C1939 1.349 . S
C1924 C1922 1.327 . S
C1924 C1943 1.429 . S
C1924 H1948 0.950 . S
C1925 C1942 1.574 . S
C1925 C1944 1.368 . S
C1925 H1949 0.949 . S
H1926 C1930 0.949 . S
C1927 C1928 1.349 . S
C1927 C1929 1.327 . S
C1927 H1950 0.950 . S
C1928 C1927 1.349 . S
C1928 C1940 1.349 . S
C1929 C1927 1.327 . S
C1929 C1945 1.429 . S
C1929 H1951 0.950 . S
C1930 H1926 0.949 . S
C1930 C1938 1.574 . S
C1930 C1946 1.368 . S
H1931 C1939 0.950 . S
H1932 C1937 0.950 . S
H1933 C1938 0.949 . S
H1934 C1940 0.950 . S
H1935 C1941 0.950 . S
H1936 C1942 0.949 . S
C1937 H1932 0.950 . S
C1937 C1939 1.327 . S
C1937 C1943 1.429 . S
C1938 C1930 1.574 . S
C1938 H1933 0.949 . S
C1938 C1944 1.368 . S
C1939 C1923 1.349 . S
C1939 H1931 0.950 . S
C1939 C1937 1.327 . S
C1940 C1928 1.349 . S
C1940 H1934 0.950 . S
C1940 C1941 1.327 . S
C1941 H1935 0.950 . S
C1941 C1940 1.327 . S
C1941 C1945 1.429 . S
C1942 C1925 1.574 . S
C1942 H1936 0.949 . S
C1942 C1946 1.368 . S
C1943 C1924 1.429 . S
C1943 C1937 1.429 . S
C1943 C1944 1.523 . S
C1944 C1925 1.368 . S
C1944 C1938 1.368 . S
C1944 C1943 1.523 . S
C1945 C1929 1.429 . S
C1945 C1941 1.429 . S
C1945 C1946 1.523 . S
C1946 C1930 1.368 . S
C1946 C1942 1.368 . S
C1946 C1945 1.523 . S
H1947 C1922 0.950 . S
H1948 C1924 0.950 . S
H1949 C1925 0.949 . S
H1950 C1927 0.950 . S
H1951 C1929 0.950 . S
C1952 C1953 1.349 . S
C1952 C1954 1.327 . S
C1952 H1977 0.950 . S
C1953 C1952 1.349 . S
C1953 C1969 1.349 . S
C1954 C1952 1.327 . S
C1954 C1973 1.429 . S
C1954 H1978 0.950 . S
C1955 C1972 1.574 . S
C1955 C1974 1.368 . S
C1955 H1979 0.949 . S
H1956 C1960 0.949 . S
C1957 C1958 1.349 . S
C1957 C1959 1.327 . S
C1957 H1980 0.950 . S
C1958 C1957 1.349 . S
C1958 C1970 1.349 . S
C1959 C1957 1.327 . S
C1959 C1975 1.429 . S
C1959 H1981 0.950 . S
C1960 H1956 0.949 . S
C1960 C1968 1.574 . S
C1960 C1976 1.368 . S
H1961 C1969 0.950 . S
H1962 C1967 0.950 . S
H1963 C1968 0.949 . S
H1964 C1970 0.950 . S
H1965 C1971 0.950 . S
H1966 C1972 0.949 . S
C1967 H1962 0.950 . S
C1967 C1969 1.327 . S
C1967 C1973 1.429 . S
C1968 C1960 1.574 . S
C1968 H1963 0.949 . S
C1968 C1974 1.368 . S
C1969 C1953 1.349 . S
C1969 H1961 0.950 . S
C1969 C1967 1.327 . S
C1970 C1958 1.349 . S
C1970 H1964 0.950 . S
C1970 C1971 1.327 . S
C1971 H1965 0.950 . S
C1971 C1970 1.327 . S
C1971 C1975 1.429 . S
C1972 C1955 1.574 . S
C1972 H1966 0.949 . S
C1972 C1976 1.368 . S
C1973 C1954 1.429 . S
C1973 C1967 1.429 . S
C1973 C1974 1.523 . S
C1974 C1955 1.368 . S
C1974 C1968 1.368 . S
C1974 C1973 1.523 . S
C1975 C1959 1.429 . S
C1975 C1971 1.429 . S
C1975 C1976 1.523 . S
C1976 C1960 1.368 . S
C1976 C1972 1.368 . S
C1976 C1975 1.523 . S
H1977 C1952 0.950 . S
H1978 C1954 0.950 . S
H1979 C1955 0.949 . S
H1980 C1957 0.950 . S
H1981 C1959 0.950 . S
C1982 C1983 1.349 . S
C1982 C1984 1.327 . S
C1982 H2007 0.950 . S
C1983 C1982 1.349 . S
C1983 C1999 1.349 . S
C1984 C1982 1.327 . S
C1984 C2003 1.429 . S
C1984 H2008 0.950 . S
C1985 C2002 1.574 . S
C1985 C2004 1.368 . S
C1985 H2009 0.949 . S
H1986 C1990 0.949 . S
C1987 C1988 1.349 . S
C1987 C1989 1.327 . S
C1987 H2010 0.950 . S
C1988 C1987 1.349 . S
C1988 C2000 1.349 1_545 S
C1989 C1987 1.327 . S
C1989 C2005 1.429 1_545 S
C1989 H2011 0.950 . S
C1990 H1986 0.949 . S
C1990 C1998 1.574 . S
C1990 C2006 1.368 . S
H1991 C1999 0.950 . S
H1992 C1997 0.950 . S
H1993 C1998 0.949 . S
H1994 C2000 0.950 . S
H1995 C2001 0.950 . S
H1996 C2002 0.949 . S
C1997 H1992 0.950 . S
C1997 C1999 1.327 . S
C1997 C2003 1.429 . S
C1998 C1990 1.574 . S
C1998 H1993 0.949 . S
C1998 C2004 1.368 . S
C1999 C1983 1.349 . S
C1999 H1991 0.950 . S
C1999 C1997 1.327 . S
C2000 C1988 1.349 1_565 S
C2000 H1994 0.950 . S
C2000 C2001 1.327 . S
C2001 H1995 0.950 . S
C2001 C2000 1.327 . S
C2001 C2005 1.429 . S
C2002 C1985 1.574 . S
C2002 H1996 0.949 . S
C2002 C2006 1.368 . S
C2003 C1984 1.429 . S
C2003 C1997 1.429 . S
C2003 C2004 1.523 . S
C2004 C1985 1.368 . S
C2004 C1998 1.368 . S
C2004 C2003 1.523 . S
C2005 C1989 1.429 1_565 S
C2005 C2001 1.429 . S
C2005 C2006 1.523 . S
C2006 C1990 1.368 . S
C2006 C2002 1.368 . S
C2006 C2005 1.523 . S
H2007 C1982 0.950 . S
H2008 C1984 0.950 . S
H2009 C1985 0.949 . S
H2010 C1987 0.950 . S
H2011 C1989 0.950 . S
C2012 C2013 1.349 . S
C2012 C2014 1.327 . S
C2012 H2037 0.950 . S
C2013 C2012 1.349 . S
C2013 C2029 1.349 . S
C2014 C2012 1.327 . S
C2014 C2033 1.429 . S
C2014 H2038 0.950 . S
C2015 C2032 1.574 . S
C2015 C2034 1.368 . S
C2015 H2039 0.949 . S
H2016 C2020 0.949 . S
C2017 C2018 1.349 . S
C2017 C2019 1.327 . S
C2017 H2040 0.950 . S
C2018 C2017 1.349 . S
C2018 C2030 1.349 . S
C2019 C2017 1.327 . S
C2019 C2035 1.429 . S
C2019 H2041 0.950 . S
C2020 H2016 0.949 . S
C2020 C2028 1.574 . S
C2020 C2036 1.368 . S
H2021 C2029 0.950 . S
H2022 C2027 0.950 . S
H2023 C2028 0.949 . S
H2024 C2030 0.950 . S
H2025 C2031 0.950 . S
H2026 C2032 0.949 . S
C2027 H2022 0.950 . S
C2027 C2029 1.327 . S
C2027 C2033 1.429 . S
C2028 C2020 1.574 . S
C2028 H2023 0.949 . S
C2028 C2034 1.368 . S
C2029 C2013 1.349 . S
C2029 H2021 0.950 . S
C2029 C2027 1.327 . S
C2030 C2018 1.349 . S
C2030 H2024 0.950 . S
C2030 C2031 1.327 . S
C2031 H2025 0.950 . S
C2031 C2030 1.327 . S
C2031 C2035 1.429 . S
C2032 C2015 1.574 . S
C2032 H2026 0.949 . S
C2032 C2036 1.368 . S
C2033 C2014 1.429 . S
C2033 C2027 1.429 . S
C2033 C2034 1.523 . S
C2034 C2015 1.368 . S
C2034 C2028 1.368 . S
C2034 C2033 1.523 . S
C2035 C2019 1.429 . S
C2035 C2031 1.429 . S
C2035 C2036 1.523 . S
C2036 C2020 1.368 . S
C2036 C2032 1.368 . S
C2036 C2035 1.523 . S
H2037 C2012 0.950 . S
H2038 C2014 0.950 . S
H2039 C2015 0.949 . S
H2040 C2017 0.950 . S
H2041 C2019 0.950 . S
C2042 C2043 1.349 . S
C2042 C2044 1.327 . S
C2042 H2067 0.950 . S
C2043 C2042 1.349 . S
C2043 C2059 1.349 . S
C2044 C2042 1.327 . S
C2044 C2063 1.429 . S
C2044 H2068 0.950 . S
C2045 C2062 1.574 . S
C2045 C2064 1.368 . S
C2045 H2069 0.949 . S
H2046 C2050 0.949 . S
C2047 C2048 1.349 . S
C2047 C2049 1.327 . S
C2047 H2070 0.950 . S
C2048 C2047 1.349 . S
C2048 C2060 1.349 . S
C2049 C2047 1.327 . S
C2049 C2065 1.429 . S
C2049 H2071 0.950 . S
C2050 H2046 0.949 . S
C2050 C2058 1.574 . S
C2050 C2066 1.368 . S
H2051 C2059 0.950 . S
H2052 C2057 0.950 . S
H2053 C2058 0.949 . S
H2054 C2060 0.950 . S
H2055 C2061 0.950 . S
H2056 C2062 0.949 . S
C2057 H2052 0.950 . S
C2057 C2059 1.327 . S
C2057 C2063 1.429 . S
C2058 C2050 1.574 . S
C2058 H2053 0.949 . S
C2058 C2064 1.368 . S
C2059 C2043 1.349 . S
C2059 H2051 0.950 . S
C2059 C2057 1.327 . S
C2060 C2048 1.349 . S
C2060 H2054 0.950 . S
C2060 C2061 1.327 . S
C2061 H2055 0.950 . S
C2061 C2060 1.327 . S
C2061 C2065 1.429 . S
C2062 C2045 1.574 . S
C2062 H2056 0.949 . S
C2062 C2066 1.368 . S
C2063 C2044 1.429 . S
C2063 C2057 1.429 . S
C2063 C2064 1.523 . S
C2064 C2045 1.368 . S
C2064 C2058 1.368 . S
C2064 C2063 1.523 . S
C2065 C2049 1.429 . S
C2065 C2061 1.429 . S
C2065 C2066 1.523 . S
C2066 C2050 1.368 . S
C2066 C2062 1.368 . S
C2066 C2065 1.523 . S
H2067 C2042 0.950 . S
H2068 C2044 0.950 . S
H2069 C2045 0.949 . S
H2070 C2047 0.950 . S
H2071 C2049 0.950 . S
C2072 C2073 1.349 . S
C2072 C2074 1.327 . S
C2072 H2097 0.950 . S
C2073 C2072 1.349 . S
C2073 C2089 1.349 . S
C2074 C2072 1.327 . S
C2074 C2093 1.429 . S
C2074 H2098 0.950 . S
C2075 C2092 1.574 . S
C2075 C2094 1.368 . S
C2075 H2099 0.949 . S
H2076 C2080 0.949 . S
C2077 C2078 1.349 . S
C2077 C2079 1.327 . S
C2077 H2100 0.950 . S
C2078 C2077 1.349 . S
C2078 C2090 1.349 . S
C2079 C2077 1.327 . S
C2079 C2095 1.429 . S
C2079 H2101 0.950 . S
C2080 H2076 0.949 . S
C2080 C2088 1.574 . S
C2080 C2096 1.368 . S
H2081 C2089 0.950 . S
H2082 C2087 0.950 . S
H2083 C2088 0.949 . S
H2084 C2090 0.950 . S
H2085 C2091 0.950 . S
H2086 C2092 0.949 . S
C2087 H2082 0.950 . S
C2087 C2089 1.327 . S
C2087 C2093 1.429 . S
C2088 C2080 1.574 . S
C2088 H2083 0.949 . S
C2088 C2094 1.368 . S
C2089 C2073 1.349 . S
C2089 H2081 0.950 . S
C2089 C2087 1.327 . S
C2090 C2078 1.349 . S
C2090 H2084 0.950 . S
C2090 C2091 1.327 . S
C2091 H2085 0.950 . S
C2091 C2090 1.327 . S
C2091 C2095 1.429 . S
C2092 C2075 1.574 . S
C2092 H2086 0.949 . S
C2092 C2096 1.368 . S
C2093 C2074 1.429 . S
C2093 C2087 1.429 . S
C2093 C2094 1.523 . S
C2094 C2075 1.368 . S
C2094 C2088 1.368 . S
C2094 C2093 1.523 . S
C2095 C2079 1.429 . S
C2095 C2091 1.429 . S
C2095 C2096 1.523 . S
C2096 C2080 1.368 . S
C2096 C2092 1.368 . S
C2096 C2095 1.523 . S
H2097 C2072 0.950 . S
H2098 C2074 0.950 . S
H2099 C2075 0.949 . S
H2100 C2077 0.950 . S
H2101 C2079 0.950 . S
C2102 C2103 1.349 . S
C2102 C2104 1.327 . S
C2102 H2127 0.950 . S
C2103 C2102 1.349 . S
C2103 C2119 1.349 . S
C2104 C2102 1.327 . S
C2104 C2123 1.429 . S
C2104 H2128 0.950 . S
C2105 C2122 1.574 . S
C2105 C2124 1.368 . S
C2105 H2129 0.949 . S
H2106 C2110 0.949 . S
C2107 C2108 1.349 . S
C2107 C2109 1.327 . S
C2107 H2130 0.950 . S
C2108 C2107 1.349 . S
C2108 C2120 1.349 . S
C2109 C2107 1.327 . S
C2109 C2125 1.429 . S
C2109 H2131 0.950 . S
C2110 H2106 0.949 . S
C2110 C2118 1.574 . S
C2110 C2126 1.368 . S
H2111 C2119 0.950 . S
H2112 C2117 0.950 . S
H2113 C2118 0.949 . S
H2114 C2120 0.950 . S
H2115 C2121 0.950 . S
H2116 C2122 0.949 . S
C2117 H2112 0.950 . S
C2117 C2119 1.327 . S
C2117 C2123 1.429 . S
C2118 C2110 1.574 . S
C2118 H2113 0.949 . S
C2118 C2124 1.368 . S
C2119 C2103 1.349 . S
C2119 H2111 0.950 . S
C2119 C2117 1.327 . S
C2120 C2108 1.349 . S
C2120 H2114 0.950 . S
C2120 C2121 1.327 . S
C2121 H2115 0.950 . S
C2121 C2120 1.327 . S
C2121 C2125 1.429 . S
C2122 C2105 1.574 . S
C2122 H2116 0.949 . S
C2122 C2126 1.368 . S
C2123 C2104 1.429 . S
C2123 C2117 1.429 . S
C2123 C2124 1.523 . S
C2124 C2105 1.368 . S
C2124 C2118 1.368 . S
C2124 C2123 1.523 . S
C2125 C2109 1.429 . S
C2125 C2121 1.429 . S
C2125 C2126 1.523 . S
C2126 C2110 1.368 . S
C2126 C2122 1.368 . S
C2126 C2125 1.523 . S
H2127 C2102 0.950 . S
H2128 C2104 0.950 . S
H2129 C2105 0.949 . S
H2130 C2107 0.950 . S
H2131 C2109 0.950 . S
C2132 C2133 1.333 1_655 S
C2132 C2134 1.332 . S
C2132 H2157 0.961 . S
C2133 C2132 1.333 1_455 S
C2133 C2149 1.349 . S
C2134 C2132 1.332 . S
C2134 C2153 1.429 1_655 S
C2134 H2158 0.950 . S
C2135 C2152 1.574 . S
C2135 C2154 1.368 . S
C2135 H2159 0.949 . S
H2136 C2140 0.949 . S
C2137 C2138 1.349 . S
C2137 C2139 1.327 . S
C2137 H2160 0.950 1_556 S
C2138 C2137 1.349 . S
C2138 C2150 1.349 1_455 S
C2139 C2137 1.327 . S
C2139 C2155 1.429 . S
C2139 H2161 0.950 . S
C2140 H2136 0.949 . S
C2140 C2148 1.574 . S
C2140 C2156 1.368 1_655 S
H2141 C2149 0.950 . S
H2142 C2147 0.950 . S
H2143 C2148 0.949 . S
H2144 C2150 0.950 . S
H2145 C2151 0.950 . S
H2146 C2152 0.949 . S
C2147 H2142 0.950 . S
C2147 C2149 1.327 . S
C2147 C2153 1.429 . S
C2148 C2140 1.574 . S
C2148 H2143 0.949 . S
C2148 C2154 1.368 1_655 S
C2149 C2133 1.349 . S
C2149 H2141 0.950 . S
C2149 C2147 1.327 . S
C2150 C2138 1.349 1_655 S
C2150 H2144 0.950 . S
C2150 C2151 1.327 . S
C2151 H2145 0.950 . S
C2151 C2150 1.327 . S
C2151 C2155 1.429 1_655 S
C2152 C2135 1.574 . S
C2152 H2146 0.949 . S
C2152 C2156 1.368 . S
C2153 C2134 1.429 1_455 S
C2153 C2147 1.429 . S
C2153 C2154 1.523 . S
C2154 C2135 1.368 . S
C2154 C2148 1.368 1_455 S
C2154 C2153 1.523 . S
C2155 C2139 1.429 . S
C2155 C2151 1.429 1_455 S
C2155 C2156 1.523 . S
C2156 C2140 1.368 1_455 S
C2156 C2152 1.368 . S
C2156 C2155 1.523 . S
H2157 C2132 0.961 . S
H2158 C2134 0.950 . S
H2159 C2135 0.949 . S
H2160 C2137 0.950 1_554 S
H2161 C2139 0.950 . S
C2162 C2163 1.349 . S
C2162 C2164 1.327 . S
C2162 H2187 0.950 . S
C2163 C2162 1.349 . S
C2163 C2179 1.349 . S
C2164 C2162 1.327 . S
C2164 C2183 1.429 . S
C2164 H2188 0.950 . S
C2165 C2182 1.574 . S
C2165 C2184 1.368 . S
C2165 H2189 0.949 . S
H2166 C2170 0.949 . S
C2167 C2168 1.349 . S
C2167 C2169 1.327 . S
C2167 H2190 0.950 . S
C2168 C2167 1.349 . S
C2168 C2180 1.349 . S
C2169 C2167 1.327 . S
C2169 C2185 1.429 . S
C2169 H2191 0.950 . S
C2170 H2166 0.949 . S
C2170 C2178 1.574 . S
C2170 C2186 1.368 . S
H2171 C2179 0.950 . S
H2172 C2177 0.950 . S
H2173 C2178 0.949 . S
H2174 C2180 0.950 . S
H2175 C2181 0.950 . S
H2176 C2182 0.949 . S
C2177 H2172 0.950 . S
C2177 C2179 1.327 . S
C2177 C2183 1.429 . S
C2178 C2170 1.574 . S
C2178 H2173 0.949 . S
C2178 C2184 1.368 . S
C2179 C2163 1.349 . S
C2179 H2171 0.950 . S
C2179 C2177 1.327 . S
C2180 C2168 1.349 . S
C2180 H2174 0.950 . S
C2180 C2181 1.327 . S
C2181 H2175 0.950 . S
C2181 C2180 1.327 . S
C2181 C2185 1.429 . S
C2182 C2165 1.574 . S
C2182 H2176 0.949 . S
C2182 C2186 1.368 . S
C2183 C2164 1.429 . S
C2183 C2177 1.429 . S
C2183 C2184 1.523 . S
C2184 C2165 1.368 . S
C2184 C2178 1.368 . S
C2184 C2183 1.523 . S
C2185 C2169 1.429 . S
C2185 C2181 1.429 . S
C2185 C2186 1.523 . S
C2186 C2170 1.368 . S
C2186 C2182 1.368 . S
C2186 C2185 1.523 . S
H2187 C2162 0.950 . S
H2188 C2164 0.950 . S
H2189 C2165 0.949 . S
H2190 C2167 0.950 . S
H2191 C2169 0.950 . S
C2192 C2193 1.349 . S
C2192 C2194 1.327 . S
C2192 H2217 0.950 . S
C2193 C2192 1.349 . S
C2193 C2209 1.349 . S
C2194 C2192 1.327 . S
C2194 C2213 1.429 . S
C2194 H2218 0.950 . S
C2195 C2212 1.574 . S
C2195 C2214 1.368 . S
C2195 H2219 0.949 . S
H2196 C2200 0.949 . S
C2197 C2198 1.349 . S
C2197 C2199 1.327 . S
C2197 H2220 0.950 . S
C2198 C2197 1.349 . S
C2198 C2210 1.349 . S
C2199 C2197 1.327 . S
C2199 C2215 1.429 . S
C2199 H2221 0.950 . S
C2200 H2196 0.949 . S
C2200 C2208 1.574 . S
C2200 C2216 1.368 . S
H2201 C2209 0.950 . S
H2202 C2207 0.950 . S
H2203 C2208 0.949 . S
H2204 C2210 0.950 . S
H2205 C2211 0.950 . S
H2206 C2212 0.949 . S
C2207 H2202 0.950 . S
C2207 C2209 1.327 . S
C2207 C2213 1.429 . S
C2208 C2200 1.574 . S
C2208 H2203 0.949 . S
C2208 C2214 1.368 . S
C2209 C2193 1.349 . S
C2209 H2201 0.950 . S
C2209 C2207 1.327 . S
C2210 C2198 1.349 . S
C2210 H2204 0.950 . S
C2210 C2211 1.327 . S
C2211 H2205 0.950 . S
C2211 C2210 1.327 . S
C2211 C2215 1.429 . S
C2212 C2195 1.574 . S
C2212 H2206 0.949 . S
C2212 C2216 1.368 . S
C2213 C2194 1.429 . S
C2213 C2207 1.429 . S
C2213 C2214 1.523 . S
C2214 C2195 1.368 . S
C2214 C2208 1.368 . S
C2214 C2213 1.523 . S
C2215 C2199 1.429 . S
C2215 C2211 1.429 . S
C2215 C2216 1.523 . S
C2216 C2200 1.368 . S
C2216 C2212 1.368 . S
C2216 C2215 1.523 . S
H2217 C2192 0.950 . S
H2218 C2194 0.950 . S
H2219 C2195 0.949 . S
H2220 C2197 0.950 . S
H2221 C2199 0.950 . S
C2222 C2223 1.349 . S
C2222 C2224 1.327 . S
C2222 H2247 0.950 . S
C2223 C2222 1.349 . S
C2223 C2239 1.349 . S
C2224 C2222 1.327 . S
C2224 C2243 1.429 . S
C2224 H2248 0.950 . S
C2225 C2242 1.574 . S
C2225 C2244 1.368 . S
C2225 H2249 0.949 . S
H2226 C2230 0.949 . S
C2227 C2228 1.349 . S
C2227 C2229 1.327 . S
C2227 H2250 0.950 . S
C2228 C2227 1.349 . S
C2228 C2240 1.349 . S
C2229 C2227 1.327 . S
C2229 C2245 1.429 . S
C2229 H2251 0.950 . S
C2230 H2226 0.949 . S
C2230 C2238 1.574 . S
C2230 C2246 1.368 . S
H2231 C2239 0.950 . S
H2232 C2237 0.950 . S
H2233 C2238 0.949 . S
H2234 C2240 0.950 . S
H2235 C2241 0.950 . S
H2236 C2242 0.949 . S
C2237 H2232 0.950 . S
C2237 C2239 1.327 . S
C2237 C2243 1.429 . S
C2238 C2230 1.574 . S
C2238 H2233 0.949 . S
C2238 C2244 1.368 . S
C2239 C2223 1.349 . S
C2239 H2231 0.950 . S
C2239 C2237 1.327 . S
C2240 C2228 1.349 . S
C2240 H2234 0.950 . S
C2240 C2241 1.327 . S
C2241 H2235 0.950 . S
C2241 C2240 1.327 . S
C2241 C2245 1.429 . S
C2242 C2225 1.574 . S
C2242 H2236 0.949 . S
C2242 C2246 1.368 . S
C2243 C2224 1.429 . S
C2243 C2237 1.429 . S
C2243 C2244 1.523 . S
C2244 C2225 1.368 . S
C2244 C2238 1.368 . S
C2244 C2243 1.523 . S
C2245 C2229 1.429 . S
C2245 C2241 1.429 . S
C2245 C2246 1.523 . S
C2246 C2230 1.368 . S
C2246 C2242 1.368 . S
C2246 C2245 1.523 . S
H2247 C2222 0.950 . S
H2248 C2224 0.950 . S
H2249 C2225 0.949 . S
H2250 C2227 0.950 . S
H2251 C2229 0.950 . S
C2252 C2253 1.349 . S
C2252 C2254 1.327 . S
C2252 H2277 0.950 . S
C2253 C2252 1.349 . S
C2253 C2269 1.349 1_655 S
C2254 C2252 1.327 . S
C2254 C2273 1.429 . S
C2254 H2278 0.950 . S
C2255 C2272 1.574 . S
C2255 C2274 1.356 1_455 S
C2255 H2279 0.949 . S
H2256 C2260 0.949 . S
C2257 C2258 1.349 . S
C2257 C2259 1.327 . S
C2257 H2280 0.950 . S
C2258 C2257 1.349 . S
C2258 C2270 1.349 1_455 S
C2259 C2257 1.327 . S
C2259 C2275 1.429 . S
C2259 H2281 0.950 . S
C2260 H2256 0.949 . S
C2260 C2268 1.574 . S
C2260 C2276 1.368 1_655 S
H2261 C2269 0.950 . S
H2262 C2267 0.950 . S
H2263 C2268 0.949 . S
H2264 C2270 0.950 . S
H2265 C2271 0.950 . S
H2266 C2272 0.949 . S
C2267 H2262 0.950 . S
C2267 C2269 1.327 . S
C2267 C2273 1.429 1_455 S
C2268 C2260 1.574 . S
C2268 H2263 0.949 . S
C2268 C2274 1.377 . S
C2269 C2253 1.349 1_455 S
C2269 H2261 0.950 . S
C2269 C2267 1.327 . S
C2270 C2258 1.349 1_655 S
C2270 H2264 0.950 . S
C2270 C2271 1.327 . S
C2271 H2265 0.950 . S
C2271 C2270 1.327 . S
C2271 C2275 1.429 1_655 S
C2272 C2255 1.574 . S
C2272 H2266 0.949 . S
C2272 C2276 1.368 . S
C2273 C2254 1.429 . S
C2273 C2267 1.429 1_655 S
C2273 C2274 1.528 . S
C2274 C2255 1.356 1_655 S
C2274 C2268 1.377 . S
C2274 C2273 1.528 . S
C2275 C2259 1.429 . S
C2275 C2271 1.429 1_455 S
C2275 C2276 1.523 . S
C2276 C2260 1.368 1_455 S
C2276 C2272 1.368 . S
C2276 C2275 1.523 . S
H2277 C2252 0.950 . S
H2278 C2254 0.950 . S
H2279 C2255 0.949 . S
H2280 C2257 0.950 . S
H2281 C2259 0.950 . S
C2282 C2283 1.349 . S
C2282 C2284 1.327 . S
C2282 H2307 0.950 . S
C2283 C2282 1.349 . S
C2283 C2299 1.349 . S
C2284 C2282 1.327 . S
C2284 C2303 1.429 . S
C2284 H2308 0.950 . S
C2285 C2302 1.574 . S
C2285 C2304 1.368 . S
C2285 H2309 0.949 . S
H2286 C2290 0.949 . S
C2287 C2288 1.349 . S
C2287 C2289 1.327 . S
C2287 H2310 0.950 . S
C2288 C2287 1.349 . S
C2288 C2300 1.349 . S
C2289 C2287 1.327 . S
C2289 C2305 1.429 . S
C2289 H2311 0.950 . S
C2290 H2286 0.949 . S
C2290 C2298 1.574 . S
C2290 C2306 1.368 . S
H2291 C2299 0.950 . S
H2292 C2297 0.950 . S
H2293 C2298 0.949 . S
H2294 C2300 0.950 . S
H2295 C2301 0.950 . S
H2296 C2302 0.949 . S
C2297 H2292 0.950 . S
C2297 C2299 1.327 . S
C2297 C2303 1.429 . S
C2298 C2290 1.574 . S
C2298 H2293 0.949 . S
C2298 C2304 1.368 . S
C2299 C2283 1.349 . S
C2299 H2291 0.950 . S
C2299 C2297 1.327 . S
C2300 C2288 1.349 . S
C2300 H2294 0.950 . S
C2300 C2301 1.327 . S
C2301 H2295 0.950 . S
C2301 C2300 1.327 . S
C2301 C2305 1.429 . S
C2302 C2285 1.574 . S
C2302 H2296 0.949 . S
C2302 C2306 1.368 . S
C2303 C2284 1.429 . S
C2303 C2297 1.429 . S
C2303 C2304 1.523 . S
C2304 C2285 1.368 . S
C2304 C2298 1.368 . S
C2304 C2303 1.523 . S
C2305 C2289 1.429 . S
C2305 C2301 1.429 . S
C2305 C2306 1.523 . S
C2306 C2290 1.368 . S
C2306 C2302 1.368 . S
C2306 C2305 1.523 . S
H2307 C2282 0.950 . S
H2308 C2284 0.950 . S
H2309 C2285 0.949 . S
H2310 C2287 0.950 . S
H2311 C2289 0.950 . S
C2312 C2313 1.349 . S
C2312 C2314 1.327 . S
C2312 H2337 0.950 . S
C2313 C2312 1.349 . S
C2313 C2329 1.349 . S
C2314 C2312 1.327 . S
C2314 C2333 1.429 . S
C2314 H2338 0.950 . S
C2315 C2332 1.574 . S
C2315 C2334 1.368 . S
C2315 H2339 0.949 . S
H2316 C2320 0.949 . S
C2317 C2318 1.349 . S
C2317 C2319 1.327 . S
C2317 H2340 0.950 . S
C2318 C2317 1.349 . S
C2318 C2330 1.349 . S
C2319 C2317 1.327 . S
C2319 C2335 1.429 . S
C2319 H2341 0.950 . S
C2320 H2316 0.949 . S
C2320 C2328 1.574 . S
C2320 C2336 1.368 . S
H2321 C2329 0.950 . S
H2322 C2327 0.950 . S
H2323 C2328 0.949 . S
H2324 C2330 0.950 . S
H2325 C2331 0.950 . S
H2326 C2332 0.949 . S
C2327 H2322 0.950 . S
C2327 C2329 1.327 . S
C2327 C2333 1.429 . S
C2328 C2320 1.574 . S
C2328 H2323 0.949 . S
C2328 C2334 1.368 . S
C2329 C2313 1.349 . S
C2329 H2321 0.950 . S
C2329 C2327 1.327 . S
C2330 C2318 1.349 . S
C2330 H2324 0.950 . S
C2330 C2331 1.327 . S
C2331 H2325 0.950 . S
C2331 C2330 1.327 . S
C2331 C2335 1.429 . S
C2332 C2315 1.574 . S
C2332 H2326 0.949 . S
C2332 C2336 1.368 . S
C2333 C2314 1.429 . S
C2333 C2327 1.429 . S
C2333 C2334 1.523 . S
C2334 C2315 1.368 . S
C2334 C2328 1.368 . S
C2334 C2333 1.523 . S
C2335 C2319 1.429 . S
C2335 C2331 1.429 . S
C2335 C2336 1.523 . S
C2336 C2320 1.368 . S
C2336 C2332 1.368 . S
C2336 C2335 1.523 . S
H2337 C2312 0.950 . S
H2338 C2314 0.950 . S
H2339 C2315 0.949 . S
H2340 C2317 0.950 . S
H2341 C2319 0.950 . S
C2342 C2343 1.349 . S
C2342 C2344 1.327 . S
C2342 H2367 0.950 . S
C2343 C2342 1.349 . S
C2343 C2359 1.349 . S
C2344 C2342 1.327 . S
C2344 C2363 1.429 . S
C2344 H2368 0.950 . S
C2345 C2362 1.574 . S
C2345 C2364 1.368 . S
C2345 H2369 0.949 . S
H2346 C2350 0.949 . S
C2347 C2348 1.349 . S
C2347 C2349 1.327 . S
C2347 H2370 0.950 . S
C2348 C2347 1.349 . S
C2348 C2360 1.349 . S
C2349 C2347 1.327 . S
C2349 C2365 1.429 . S
C2349 H2371 0.950 . S
C2350 H2346 0.949 . S
C2350 C2358 1.574 . S
C2350 C2366 1.368 . S
H2351 C2359 0.950 . S
H2352 C2357 0.950 . S
H2353 C2358 0.949 . S
H2354 C2360 0.950 . S
H2355 C2361 0.950 . S
H2356 C2362 0.949 . S
C2357 H2352 0.950 . S
C2357 C2359 1.327 . S
C2357 C2363 1.429 . S
C2358 C2350 1.574 . S
C2358 H2353 0.949 . S
C2358 C2364 1.368 . S
C2359 C2343 1.349 . S
C2359 H2351 0.950 . S
C2359 C2357 1.327 . S
C2360 C2348 1.349 . S
C2360 H2354 0.950 . S
C2360 C2361 1.327 . S
C2361 H2355 0.950 . S
C2361 C2360 1.327 . S
C2361 C2365 1.429 . S
C2362 C2345 1.574 . S
C2362 H2356 0.949 . S
C2362 C2366 1.368 . S
C2363 C2344 1.429 . S
C2363 C2357 1.429 . S
C2363 C2364 1.523 . S
C2364 C2345 1.368 . S
C2364 C2358 1.368 . S
C2364 C2363 1.523 . S
C2365 C2349 1.429 . S
C2365 C2361 1.429 . S
C2365 C2366 1.523 . S
C2366 C2350 1.368 . S
C2366 C2362 1.368 . S
C2366 C2365 1.523 . S
H2367 C2342 0.950 . S
H2368 C2344 0.950 . S
H2369 C2345 0.949 . S
H2370 C2347 0.950 . S
H2371 C2349 0.950 . S
C2372 C2373 1.349 . S
C2372 C2374 1.327 . S
C2372 H2397 0.950 . S
C2373 C2372 1.349 . S
C2373 C2389 1.349 . S
C2374 C2372 1.327 . S
C2374 C2393 1.429 . S
C2374 H2398 0.950 . S
C2375 C2392 1.574 . S
C2375 C2394 1.368 . S
C2375 H2399 0.949 . S
H2376 C2380 0.949 . S
C2377 C2378 1.349 . S
C2377 C2379 1.327 . S
C2377 H2400 0.950 . S
C2378 C2377 1.349 . S
C2378 C2390 1.349 . S
C2379 C2377 1.327 . S
C2379 C2395 1.429 . S
C2379 H2401 0.950 . S
C2380 H2376 0.949 . S
C2380 C2388 1.574 . S
C2380 C2396 1.368 . S
H2381 C2389 0.950 . S
H2382 C2387 0.950 . S
H2383 C2388 0.949 . S
H2384 C2390 0.950 . S
H2385 C2391 0.950 . S
H2386 C2392 0.949 . S
C2387 H2382 0.950 . S
C2387 C2389 1.327 . S
C2387 C2393 1.429 . S
C2388 C2380 1.574 . S
C2388 H2383 0.949 . S
C2388 C2394 1.368 . S
C2389 C2373 1.349 . S
C2389 H2381 0.950 . S
C2389 C2387 1.327 . S
C2390 C2378 1.349 . S
C2390 H2384 0.950 . S
C2390 C2391 1.327 . S
C2391 H2385 0.950 . S
C2391 C2390 1.327 . S
C2391 C2395 1.429 . S
C2392 C2375 1.574 . S
C2392 H2386 0.949 . S
C2392 C2396 1.368 . S
C2393 C2374 1.429 . S
C2393 C2387 1.429 . S
C2393 C2394 1.523 . S
C2394 C2375 1.368 . S
C2394 C2388 1.368 . S
C2394 C2393 1.523 . S
C2395 C2379 1.429 . S
C2395 C2391 1.429 . S
C2395 C2396 1.523 . S
C2396 C2380 1.368 . S
C2396 C2392 1.368 . S
C2396 C2395 1.523 . S
H2397 C2372 0.950 . S
H2398 C2374 0.950 . S
H2399 C2375 0.949 . S
H2400 C2377 0.950 . S
H2401 C2379 0.950 . S
C2402 C2403 1.349 . S
C2402 C2404 1.327 . S
C2402 H2427 0.950 . S
C2403 C2402 1.349 . S
C2403 C2419 1.349 . S
C2404 C2402 1.327 . S
C2404 C2423 1.429 . S
C2404 H2428 0.950 . S
C2405 C2422 1.574 . S
C2405 C2424 1.368 . S
C2405 H2429 0.949 . S
H2406 C2410 0.949 . S
C2407 C2408 1.349 . S
C2407 C2409 1.327 . S
C2407 H2430 0.950 . S
C2408 C2407 1.349 . S
C2408 C2420 1.349 . S
C2409 C2407 1.327 . S
C2409 C2425 1.429 . S
C2409 H2431 0.950 . S
C2410 H2406 0.949 . S
C2410 C2418 1.574 . S
C2410 C2426 1.368 . S
H2411 C2419 0.950 . S
H2412 C2417 0.950 . S
H2413 C2418 0.949 . S
H2414 C2420 0.950 . S
H2415 C2421 0.950 . S
H2416 C2422 0.949 . S
C2417 H2412 0.950 . S
C2417 C2419 1.327 . S
C2417 C2423 1.429 . S
C2418 C2410 1.574 . S
C2418 H2413 0.949 . S
C2418 C2424 1.368 . S
C2419 C2403 1.349 . S
C2419 H2411 0.950 . S
C2419 C2417 1.327 . S
C2420 C2408 1.349 . S
C2420 H2414 0.950 . S
C2420 C2421 1.327 . S
C2421 H2415 0.950 . S
C2421 C2420 1.327 . S
C2421 C2425 1.429 . S
C2422 C2405 1.574 . S
C2422 H2416 0.949 . S
C2422 C2426 1.368 . S
C2423 C2404 1.429 . S
C2423 C2417 1.429 . S
C2423 C2424 1.523 . S
C2424 C2405 1.368 . S
C2424 C2418 1.368 . S
C2424 C2423 1.523 . S
C2425 C2409 1.429 . S
C2425 C2421 1.429 . S
C2425 C2426 1.523 . S
C2426 C2410 1.368 . S
C2426 C2422 1.368 . S
C2426 C2425 1.523 . S
H2427 C2402 0.950 . S
H2428 C2404 0.950 . S
H2429 C2405 0.949 . S
H2430 C2407 0.950 . S
H2431 C2409 0.950 . S
C2432 C2433 1.349 . S
C2432 C2434 1.327 . S
C2432 H2457 0.950 . S
C2433 C2432 1.349 . S
C2433 C2449 1.349 . S
C2434 C2432 1.327 . S
C2434 C2453 1.429 . S
C2434 H2458 0.950 . S
C2435 C2452 1.574 . S
C2435 C2454 1.368 . S
C2435 H2459 0.949 . S
H2436 C2440 0.949 . S
C2437 C2438 1.349 . S
C2437 C2439 1.327 . S
C2437 H2460 0.950 . S
C2438 C2437 1.349 . S
C2438 C2450 1.349 . S
C2439 C2437 1.327 . S
C2439 C2455 1.429 . S
C2439 H2461 0.950 . S
C2440 H2436 0.949 . S
C2440 C2448 1.574 . S
C2440 C2456 1.368 . S
H2441 C2449 0.950 . S
H2442 C2447 0.950 . S
H2443 C2448 0.949 . S
H2444 C2450 0.950 . S
H2445 C2451 0.950 . S
H2446 C2452 0.949 . S
C2447 H2442 0.950 . S
C2447 C2449 1.327 . S
C2447 C2453 1.429 . S
C2448 C2440 1.574 . S
C2448 H2443 0.949 . S
C2448 C2454 1.368 . S
C2449 C2433 1.349 . S
C2449 H2441 0.950 . S
C2449 C2447 1.327 . S
C2450 C2438 1.349 . S
C2450 H2444 0.950 . S
C2450 C2451 1.327 . S
C2451 H2445 0.950 . S
C2451 C2450 1.327 . S
C2451 C2455 1.429 . S
C2452 C2435 1.574 . S
C2452 H2446 0.949 . S
C2452 C2456 1.368 . S
C2453 C2434 1.429 . S
C2453 C2447 1.429 . S
C2453 C2454 1.523 . S
C2454 C2435 1.368 . S
C2454 C2448 1.368 . S
C2454 C2453 1.523 . S
C2455 C2439 1.429 . S
C2455 C2451 1.429 . S
C2455 C2456 1.523 . S
C2456 C2440 1.368 . S
C2456 C2452 1.368 . S
C2456 C2455 1.523 . S
H2457 C2432 0.950 . S
H2458 C2434 0.950 . S
H2459 C2435 0.949 . S
H2460 C2437 0.950 . S
H2461 C2439 0.950 . S
C2462 C2463 1.349 . S
C2462 C2464 1.327 . S
C2462 H2487 0.950 . S
C2463 C2462 1.349 . S
C2463 C2479 1.349 . S
C2464 C2462 1.327 . S
C2464 C2483 1.429 . S
C2464 H2488 0.950 . S
C2465 C2482 1.574 . S
C2465 C2484 1.368 . S
C2465 H2489 0.949 . S
H2466 C2470 0.949 . S
C2467 C2468 1.349 . S
C2467 C2469 1.327 . S
C2467 H2490 0.950 . S
C2468 C2467 1.349 . S
C2468 C2480 1.349 . S
C2469 C2467 1.327 . S
C2469 C2485 1.429 . S
C2469 H2491 0.950 . S
C2470 H2466 0.949 . S
C2470 C2478 1.574 . S
C2470 C2486 1.368 . S
H2471 C2479 0.950 . S
H2472 C2477 0.950 . S
H2473 C2478 0.949 . S
H2474 C2480 0.950 . S
H2475 C2481 0.950 . S
H2476 C2482 0.949 . S
C2477 H2472 0.950 . S
C2477 C2479 1.327 . S
C2477 C2483 1.429 . S
C2478 C2470 1.574 . S
C2478 H2473 0.949 . S
C2478 C2484 1.368 . S
C2479 C2463 1.349 . S
C2479 H2471 0.950 . S
C2479 C2477 1.327 . S
C2480 C2468 1.349 . S
C2480 H2474 0.950 . S
C2480 C2481 1.327 . S
C2481 H2475 0.950 . S
C2481 C2480 1.327 . S
C2481 C2485 1.429 . S
C2482 C2465 1.574 . S
C2482 H2476 0.949 . S
C2482 C2486 1.368 . S
C2483 C2464 1.429 . S
C2483 C2477 1.429 . S
C2483 C2484 1.523 . S
C2484 C2465 1.368 . S
C2484 C2478 1.368 . S
C2484 C2483 1.523 . S
C2485 C2469 1.429 . S
C2485 C2481 1.429 . S
C2485 C2486 1.523 . S
C2486 C2470 1.368 . S
C2486 C2482 1.368 . S
C2486 C2485 1.523 . S
H2487 C2462 0.950 . S
H2488 C2464 0.950 . S
H2489 C2465 0.949 . S
H2490 C2467 0.950 . S
H2491 C2469 0.950 . S
C2492 C2493 1.349 . S
C2492 C2494 1.327 . S
C2492 H2517 0.950 . S
C2493 C2492 1.349 . S
C2493 C2509 1.349 . S
C2494 C2492 1.327 . S
C2494 C2513 1.429 . S
C2494 H2518 0.950 . S
C2495 C2512 1.574 . S
C2495 C2514 1.368 . S
C2495 H2519 0.949 . S
H2496 C2500 0.949 . S
C2497 C2498 1.349 . S
C2497 C2499 1.327 . S
C2497 H2520 0.950 . S
C2498 C2497 1.349 . S
C2498 C2510 1.349 . S
C2499 C2497 1.327 . S
C2499 C2515 1.429 . S
C2499 H2521 0.950 . S
C2500 H2496 0.949 . S
C2500 C2508 1.574 . S
C2500 C2516 1.368 . S
H2501 C2509 0.950 . S
H2502 C2507 0.950 . S
H2503 C2508 0.949 . S
H2504 C2510 0.950 . S
H2505 C2511 0.950 . S
H2506 C2512 0.949 . S
C2507 H2502 0.950 . S
C2507 C2509 1.327 . S
C2507 C2513 1.429 . S
C2508 C2500 1.574 . S
C2508 H2503 0.949 . S
C2508 C2514 1.368 . S
C2509 C2493 1.349 . S
C2509 H2501 0.950 . S
C2509 C2507 1.327 . S
C2510 C2498 1.349 . S
C2510 H2504 0.950 . S
C2510 C2511 1.327 . S
C2511 H2505 0.950 . S
C2511 C2510 1.327 . S
C2511 C2515 1.429 . S
C2512 C2495 1.574 . S
C2512 H2506 0.949 . S
C2512 C2516 1.368 . S
C2513 C2494 1.429 . S
C2513 C2507 1.429 . S
C2513 C2514 1.523 . S
C2514 C2495 1.368 . S
C2514 C2508 1.368 . S
C2514 C2513 1.523 . S
C2515 C2499 1.429 . S
C2515 C2511 1.429 . S
C2515 C2516 1.523 . S
C2516 C2500 1.368 . S
C2516 C2512 1.368 . S
C2516 C2515 1.523 . S
H2517 C2492 0.950 . S
H2518 C2494 0.950 . S
H2519 C2495 0.949 . S
H2520 C2497 0.950 . S
H2521 C2499 0.950 . S
C2522 C2523 1.349 . S
C2522 C2524 1.327 . S
C2522 H2547 0.950 . S
C2523 C2522 1.349 . S
C2523 C2539 1.349 . S
C2524 C2522 1.327 . S
C2524 C2543 1.429 . S
C2524 H2548 0.950 . S
C2525 C2542 1.574 . S
C2525 C2544 1.368 . S
C2525 H2549 0.949 . S
H2526 C2530 0.949 . S
C2527 C2528 1.349 . S
C2527 C2529 1.327 . S
C2527 H2550 0.950 . S
C2528 C2527 1.349 . S
C2528 C2540 1.349 . S
C2529 C2527 1.327 . S
C2529 C2545 1.429 . S
C2529 H2551 0.950 . S
C2530 H2526 0.949 . S
C2530 C2538 1.574 . S
C2530 C2546 1.368 . S
H2531 C2539 0.950 . S
H2532 C2537 0.950 . S
H2533 C2538 0.949 . S
H2534 C2540 0.950 . S
H2535 C2541 0.950 . S
H2536 C2542 0.949 . S
C2537 H2532 0.950 . S
C2537 C2539 1.327 . S
C2537 C2543 1.429 . S
C2538 C2530 1.574 . S
C2538 H2533 0.949 . S
C2538 C2544 1.368 . S
C2539 C2523 1.349 . S
C2539 H2531 0.950 . S
C2539 C2537 1.327 . S
C2540 C2528 1.349 . S
C2540 H2534 0.950 . S
C2540 C2541 1.327 . S
C2541 H2535 0.950 . S
C2541 C2540 1.327 . S
C2541 C2545 1.429 . S
C2542 C2525 1.574 . S
C2542 H2536 0.949 . S
C2542 C2546 1.368 . S
C2543 C2524 1.429 . S
C2543 C2537 1.429 . S
C2543 C2544 1.523 . S
C2544 C2525 1.368 . S
C2544 C2538 1.368 . S
C2544 C2543 1.523 . S
C2545 C2529 1.429 . S
C2545 C2541 1.429 . S
C2545 C2546 1.523 . S
C2546 C2530 1.368 . S
C2546 C2542 1.368 . S
C2546 C2545 1.523 . S
H2547 C2522 0.950 . S
H2548 C2524 0.950 . S
H2549 C2525 0.949 . S
H2550 C2527 0.950 . S
H2551 C2529 0.950 . S
C2552 C2553 1.349 . S
C2552 C2554 1.327 . S
C2552 H2577 0.950 . S
C2553 C2552 1.349 . S
C2553 C2569 1.349 . S
C2554 C2552 1.327 . S
C2554 C2573 1.429 . S
C2554 H2578 0.950 . S
C2555 C2572 1.574 . S
C2555 C2574 1.368 . S
C2555 H2579 0.949 . S
H2556 C2560 0.949 . S
C2557 C2558 1.349 . S
C2557 C2559 1.327 . S
C2557 H2580 0.950 . S
C2558 C2557 1.349 . S
C2558 C2570 1.349 . S
C2559 C2557 1.327 . S
C2559 C2575 1.429 . S
C2559 H2581 0.950 . S
C2560 H2556 0.949 . S
C2560 C2568 1.574 . S
C2560 C2576 1.368 . S
H2561 C2569 0.950 . S
H2562 C2567 0.950 . S
H2563 C2568 0.949 . S
H2564 C2570 0.950 . S
H2565 C2571 0.950 . S
H2566 C2572 0.949 . S
C2567 H2562 0.950 . S
C2567 C2569 1.327 . S
C2567 C2573 1.429 . S
C2568 C2560 1.574 . S
C2568 H2563 0.949 . S
C2568 C2574 1.368 . S
C2569 C2553 1.349 . S
C2569 H2561 0.950 . S
C2569 C2567 1.327 . S
C2570 C2558 1.349 . S
C2570 H2564 0.950 . S
C2570 C2571 1.327 . S
C2571 H2565 0.950 . S
C2571 C2570 1.327 . S
C2571 C2575 1.429 . S
C2572 C2555 1.574 . S
C2572 H2566 0.949 . S
C2572 C2576 1.368 . S
C2573 C2554 1.429 . S
C2573 C2567 1.429 . S
C2573 C2574 1.523 . S
C2574 C2555 1.368 . S
C2574 C2568 1.368 . S
C2574 C2573 1.523 . S
C2575 C2559 1.429 . S
C2575 C2571 1.429 . S
C2575 C2576 1.523 . S
C2576 C2560 1.368 . S
C2576 C2572 1.368 . S
C2576 C2575 1.523 . S
H2577 C2552 0.950 . S
H2578 C2554 0.950 . S
H2579 C2555 0.949 . S
H2580 C2557 0.950 . S
H2581 C2559 0.950 . S
C2582 C2583 1.349 . S
C2582 C2584 1.327 . S
C2582 H2607 0.950 . S
C2583 C2582 1.349 . S
C2583 C2599 1.349 . S
C2584 C2582 1.327 . S
C2584 C2603 1.429 . S
C2584 H2608 0.950 . S
C2585 C2602 1.574 . S
C2585 C2604 1.368 . S
C2585 H2609 0.949 . S
H2586 C2590 0.949 . S
C2587 C2588 1.349 . S
C2587 C2589 1.327 . S
C2587 H2610 0.950 . S
C2588 C2587 1.349 . S
C2588 C2600 1.349 . S
C2589 C2587 1.327 . S
C2589 C2605 1.429 . S
C2589 H2611 0.950 . S
C2590 H2586 0.949 . S
C2590 C2598 1.574 . S
C2590 C2606 1.368 . S
H2591 C2599 0.950 . S
H2592 C2597 0.950 . S
H2593 C2598 0.949 . S
H2594 C2600 0.950 . S
H2595 C2601 0.950 . S
H2596 C2602 0.949 . S
C2597 H2592 0.950 . S
C2597 C2599 1.327 . S
C2597 C2603 1.429 . S
C2598 C2590 1.574 . S
C2598 H2593 0.949 . S
C2598 C2604 1.368 . S
C2599 C2583 1.349 . S
C2599 H2591 0.950 . S
C2599 C2597 1.327 . S
C2600 C2588 1.349 . S
C2600 H2594 0.950 . S
C2600 C2601 1.327 . S
C2601 H2595 0.950 . S
C2601 C2600 1.327 . S
C2601 C2605 1.429 . S
C2602 C2585 1.574 . S
C2602 H2596 0.949 . S
C2602 C2606 1.368 . S
C2603 C2584 1.429 . S
C2603 C2597 1.429 . S
C2603 C2604 1.523 . S
C2604 C2585 1.368 . S
C2604 C2598 1.368 . S
C2604 C2603 1.523 . S
C2605 C2589 1.429 . S
C2605 C2601 1.429 . S
C2605 C2606 1.523 . S
C2606 C2590 1.368 . S
C2606 C2602 1.368 . S
C2606 C2605 1.523 . S
H2607 C2582 0.950 . S
H2608 C2584 0.950 . S
H2609 C2585 0.949 . S
H2610 C2587 0.950 . S
H2611 C2589 0.950 . S
C2612 C2613 1.349 . S
C2612 C2614 1.327 . S
C2612 H2637 0.950 . S
C2613 C2612 1.349 . S
C2613 C2629 1.349 . S
C2614 C2612 1.327 . S
C2614 C2633 1.429 . S
C2614 H2638 0.950 . S
C2615 C2632 1.574 . S
C2615 C2634 1.368 . S
C2615 H2639 0.949 . S
H2616 C2620 0.949 . S
C2617 C2618 1.349 . S
C2617 C2619 1.327 . S
C2617 H2640 0.950 . S
C2618 C2617 1.349 . S
C2618 C2630 1.349 . S
C2619 C2617 1.327 . S
C2619 C2635 1.429 . S
C2619 H2641 0.950 . S
C2620 H2616 0.949 . S
C2620 C2628 1.574 . S
C2620 C2636 1.368 . S
H2621 C2629 0.950 . S
H2622 C2627 0.950 . S
H2623 C2628 0.949 . S
H2624 C2630 0.950 . S
H2625 C2631 0.950 . S
H2626 C2632 0.949 . S
C2627 H2622 0.950 . S
C2627 C2629 1.327 . S
C2627 C2633 1.429 . S
C2628 C2620 1.574 . S
C2628 H2623 0.949 . S
C2628 C2634 1.368 . S
C2629 C2613 1.349 . S
C2629 H2621 0.950 . S
C2629 C2627 1.327 . S
C2630 C2618 1.349 . S
C2630 H2624 0.950 . S
C2630 C2631 1.327 . S
C2631 H2625 0.950 . S
C2631 C2630 1.327 . S
C2631 C2635 1.429 . S
C2632 C2615 1.574 . S
C2632 H2626 0.949 . S
C2632 C2636 1.368 . S
C2633 C2614 1.429 . S
C2633 C2627 1.429 . S
C2633 C2634 1.523 . S
C2634 C2615 1.368 . S
C2634 C2628 1.368 . S
C2634 C2633 1.523 . S
C2635 C2619 1.429 . S
C2635 C2631 1.429 . S
C2635 C2636 1.523 . S
C2636 C2620 1.368 . S
C2636 C2632 1.368 . S
C2636 C2635 1.523 . S
H2637 C2612 0.950 . S
H2638 C2614 0.950 . S
H2639 C2615 0.949 . S
H2640 C2617 0.950 . S
H2641 C2619 0.950 . S
C2642 C2643 1.349 . S
C2642 C2644 1.327 . S
C2642 H2667 0.950 . S
C2643 C2642 1.349 . S
C2643 C2659 1.349 . S
C2644 C2642 1.327 . S
C2644 C2663 1.429 . S
C2644 H2668 0.950 . S
C2645 C2662 1.574 . S
C2645 C2664 1.368 . S
C2645 H2669 0.949 . S
H2646 C2650 0.949 . S
C2647 C2648 1.349 . S
C2647 C2649 1.327 . S
C2647 H2670 0.950 1_554 S
C2648 C2647 1.349 . S
C2648 C2660 1.349 1_545 S
C2649 C2647 1.327 . S
C2649 C2665 1.429 1_545 S
C2649 H2671 0.929 1_554 S
C2650 H2646 0.949 . S
C2650 C2658 1.574 . S
C2650 C2666 1.368 . S
H2651 C2659 0.950 . S
H2652 C2657 0.950 . S
H2653 C2658 0.949 . S
H2654 C2660 0.950 . S
H2655 C2661 0.950 . S
H2656 C2662 0.949 . S
C2657 H2652 0.950 . S
C2657 C2659 1.327 . S
C2657 C2663 1.429 . S
C2658 C2650 1.574 . S
C2658 H2653 0.949 . S
C2658 C2664 1.368 . S
C2659 C2643 1.349 . S
C2659 H2651 0.950 . S
C2659 C2657 1.327 . S
C2660 C2648 1.349 1_565 S
C2660 H2654 0.950 . S
C2660 C2661 1.327 . S
C2661 H2655 0.950 . S
C2661 C2660 1.327 . S
C2661 C2665 1.429 . S
C2662 C2645 1.574 . S
C2662 H2656 0.949 . S
C2662 C2666 1.368 . S
C2663 C2644 1.429 . S
C2663 C2657 1.429 . S
C2663 C2664 1.523 . S
C2664 C2645 1.368 . S
C2664 C2658 1.368 . S
C2664 C2663 1.523 . S
C2665 C2649 1.429 1_565 S
C2665 C2661 1.429 . S
C2665 C2666 1.523 . S
C2666 C2650 1.368 . S
C2666 C2662 1.368 . S
C2666 C2665 1.523 . S
H2667 C2642 0.950 . S
H2668 C2644 0.950 . S
H2669 C2645 0.949 . S
H2670 C2647 0.950 1_556 S
H2671 C2649 0.929 1_556 S
C2672 C2673 1.349 . S
C2672 C2674 1.327 . S
C2672 H2697 0.950 . S
C2673 C2672 1.349 . S
C2673 C2689 1.349 . S
C2674 C2672 1.327 . S
C2674 C2693 1.429 . S
C2674 H2698 0.950 . S
C2675 C2692 1.574 . S
C2675 C2694 1.368 . S
C2675 H2699 0.949 . S
H2676 C2680 0.949 . S
C2677 C2678 1.349 . S
C2677 C2679 1.327 . S
C2677 H2700 0.950 . S
C2678 C2677 1.349 . S
C2678 C2690 1.349 . S
C2679 C2677 1.327 . S
C2679 C2695 1.429 . S
C2679 H2701 0.950 . S
C2680 H2676 0.949 . S
C2680 C2688 1.574 . S
C2680 C2696 1.368 . S
H2681 C2689 0.950 . S
H2682 C2687 0.950 . S
H2683 C2688 0.949 . S
H2684 C2690 0.950 . S
H2685 C2691 0.950 . S
H2686 C2692 0.949 . S
C2687 H2682 0.950 . S
C2687 C2689 1.327 . S
C2687 C2693 1.429 . S
C2688 C2680 1.574 . S
C2688 H2683 0.949 . S
C2688 C2694 1.368 . S
C2689 C2673 1.349 . S
C2689 H2681 0.950 . S
C2689 C2687 1.327 . S
C2690 C2678 1.349 . S
C2690 H2684 0.950 . S
C2690 C2691 1.327 . S
C2691 H2685 0.950 . S
C2691 C2690 1.327 . S
C2691 C2695 1.429 . S
C2692 C2675 1.574 . S
C2692 H2686 0.949 . S
C2692 C2696 1.368 . S
C2693 C2674 1.429 . S
C2693 C2687 1.429 . S
C2693 C2694 1.523 . S
C2694 C2675 1.368 . S
C2694 C2688 1.368 . S
C2694 C2693 1.523 . S
C2695 C2679 1.429 . S
C2695 C2691 1.429 . S
C2695 C2696 1.523 . S
C2696 C2680 1.368 . S
C2696 C2692 1.368 . S
C2696 C2695 1.523 . S
H2697 C2672 0.950 . S
H2698 C2674 0.950 . S
H2699 C2675 0.949 . S
H2700 C2677 0.950 . S
H2701 C2679 0.950 . S
C2702 C2703 1.349 . S
C2702 C2704 1.327 . S
C2702 H2727 0.950 . S
C2703 C2702 1.349 . S
C2703 C2719 1.349 1_554 S
C2704 C2702 1.327 . S
C2704 C2723 1.429 . S
C2704 H2728 0.950 . S
C2705 C2722 1.574 1_556 S
C2705 C2724 1.368 1_556 S
C2705 H2729 0.949 . S
H2706 C2710 0.949 . S
C2707 C2708 1.349 . S
C2707 C2709 1.327 . S
C2707 H2730 0.950 . S
C2708 C2707 1.349 . S
C2708 C2720 1.349 . S
C2709 C2707 1.327 . S
C2709 C2725 1.429 . S
C2709 H2731 0.950 1_554 S
C2710 H2706 0.949 . S
C2710 C2718 1.574 . S
C2710 C2726 1.368 . S
H2711 C2719 0.950 . S
H2712 C2717 0.950 . S
H2713 C2718 0.949 . S
H2714 C2720 0.950 . S
H2715 C2721 0.950 . S
H2716 C2722 0.949 1_556 S
C2717 H2712 0.950 . S
C2717 C2719 1.327 . S
C2717 C2723 1.429 1_556 S
C2718 C2710 1.574 . S
C2718 H2713 0.949 . S
C2718 C2724 1.368 . S
C2719 C2703 1.349 1_556 S
C2719 H2711 0.950 . S
C2719 C2717 1.327 . S
C2720 C2708 1.349 . S
C2720 H2714 0.950 . S
C2720 C2721 1.327 . S
C2721 H2715 0.950 . S
C2721 C2720 1.327 . S
C2721 C2725 1.429 . S
C2722 C2705 1.574 1_554 S
C2722 H2716 0.949 1_554 S
C2722 C2726 1.368 . S
C2723 C2704 1.429 . S
C2723 C2717 1.429 1_554 S
C2723 C2724 1.523 . S
C2724 C2705 1.368 1_554 S
C2724 C2718 1.368 . S
C2724 C2723 1.523 . S
C2725 C2709 1.429 . S
C2725 C2721 1.429 . S
C2725 C2726 1.523 . S
C2726 C2710 1.368 . S
C2726 C2722 1.368 . S
C2726 C2725 1.523 . S
H2727 C2702 0.950 . S
H2728 C2704 0.950 . S
H2729 C2705 0.949 . S
H2730 C2707 0.950 . S
H2731 C2709 0.950 1_556 S
C2732 C2733 1.349 . S
C2732 C2734 1.327 . S
C2732 H2757 0.950 . S
C2733 C2732 1.349 . S
C2733 C2749 1.349 . S
C2734 C2732 1.327 . S
C2734 C2753 1.429 . S
C2734 H2758 0.950 . S
C2735 C2752 1.574 . S
C2735 C2754 1.368 . S
C2735 H2759 0.949 . S
H2736 C2740 0.949 . S
C2737 C2738 1.349 . S
C2737 C2739 1.327 . S
C2737 H2760 0.950 . S
C2738 C2737 1.349 . S
C2738 C2750 1.349 . S
C2739 C2737 1.327 . S
C2739 C2755 1.429 . S
C2739 H2761 0.950 . S
C2740 H2736 0.949 . S
C2740 C2748 1.574 . S
C2740 C2756 1.368 . S
H2741 C2749 0.950 . S
H2742 C2747 0.950 . S
H2743 C2748 0.949 . S
H2744 C2750 0.950 . S
H2745 C2751 0.950 . S
H2746 C2752 0.949 . S
C2747 H2742 0.950 . S
C2747 C2749 1.327 . S
C2747 C2753 1.429 . S
C2748 C2740 1.574 . S
C2748 H2743 0.949 . S
C2748 C2754 1.368 . S
C2749 C2733 1.349 . S
C2749 H2741 0.950 . S
C2749 C2747 1.327 . S
C2750 C2738 1.349 . S
C2750 H2744 0.950 . S
C2750 C2751 1.327 . S
C2751 H2745 0.950 . S
C2751 C2750 1.327 . S
C2751 C2755 1.429 . S
C2752 C2735 1.574 . S
C2752 H2746 0.949 . S
C2752 C2756 1.368 . S
C2753 C2734 1.429 . S
C2753 C2747 1.429 . S
C2753 C2754 1.523 . S
C2754 C2735 1.368 . S
C2754 C2748 1.368 . S
C2754 C2753 1.523 . S
C2755 C2739 1.429 . S
C2755 C2751 1.429 . S
C2755 C2756 1.523 . S
C2756 C2740 1.368 . S
C2756 C2752 1.368 . S
C2756 C2755 1.523 . S
H2757 C2732 0.950 . S
H2758 C2734 0.950 . S
H2759 C2735 0.949 . S
H2760 C2737 0.950 . S
H2761 C2739 0.950 . S
C2762 C2763 1.349 . S
C2762 C2764 1.327 . S
C2762 H2787 0.950 1_565 S
C2763 C2762 1.349 . S
C2763 C2779 1.349 . S
C2764 C2762 1.327 . S
C2764 C2783 1.429 . S
C2764 H2788 0.950 . S
C2765 C2782 1.574 . S
C2765 C2784 1.368 . S
C2765 H2789 0.949 . S
H2766 C2770 0.949 . S
C2767 C2768 1.349 . S
C2767 C2769 1.327 . S
C2767 H2790 0.950 . S
C2768 C2767 1.349 . S
C2768 C2780 1.349 . S
C2769 C2767 1.327 . S
C2769 C2785 1.429 . S
C2769 H2791 0.950 . S
C2770 H2766 0.949 . S
C2770 C2778 1.574 . S
C2770 C2786 1.368 . S
H2771 C2779 0.950 . S
H2772 C2777 0.950 . S
H2773 C2778 0.949 . S
H2774 C2780 0.950 . S
H2775 C2781 0.950 . S
H2776 C2782 0.949 . S
C2777 H2772 0.950 . S
C2777 C2779 1.327 . S
C2777 C2783 1.429 . S
C2778 C2770 1.574 . S
C2778 H2773 0.949 . S
C2778 C2784 1.368 . S
C2779 C2763 1.349 . S
C2779 H2771 0.950 . S
C2779 C2777 1.327 . S
C2780 C2768 1.349 . S
C2780 H2774 0.950 . S
C2780 C2781 1.327 . S
C2781 H2775 0.950 . S
C2781 C2780 1.327 . S
C2781 C2785 1.429 . S
C2782 C2765 1.574 . S
C2782 H2776 0.949 . S
C2782 C2786 1.368 . S
C2783 C2764 1.429 . S
C2783 C2777 1.429 . S
C2783 C2784 1.523 . S
C2784 C2765 1.368 . S
C2784 C2778 1.368 . S
C2784 C2783 1.523 . S
C2785 C2769 1.429 . S
C2785 C2781 1.429 . S
C2785 C2786 1.523 . S
C2786 C2770 1.368 . S
C2786 C2782 1.368 . S
C2786 C2785 1.523 . S
H2787 C2762 0.950 1_545 S
H2788 C2764 0.950 . S
H2789 C2765 0.949 . S
H2790 C2767 0.950 . S
H2791 C2769 0.950 . S
C2792 C2793 1.349 . S
C2792 C2794 1.327 . S
C2792 H2817 0.950 . S
C2793 C2792 1.349 . S
C2793 C2809 1.349 . S
C2794 C2792 1.327 . S
C2794 C2813 1.429 . S
C2794 H2818 0.950 . S
C2795 C2812 1.574 . S
C2795 C2814 1.368 . S
C2795 H2819 0.949 . S
H2796 C2800 0.949 . S
C2797 C2798 1.349 . S
C2797 C2799 1.327 . S
C2797 H2820 0.950 . S
C2798 C2797 1.349 . S
C2798 C2810 1.349 . S
C2799 C2797 1.327 . S
C2799 C2815 1.429 . S
C2799 H2821 0.950 . S
C2800 H2796 0.949 . S
C2800 C2808 1.574 . S
C2800 C2816 1.368 . S
H2801 C2809 0.950 . S
H2802 C2807 0.950 . S
H2803 C2808 0.949 . S
H2804 C2810 0.950 . S
H2805 C2811 0.950 . S
H2806 C2812 0.949 . S
C2807 H2802 0.950 . S
C2807 C2809 1.327 . S
C2807 C2813 1.429 . S
C2808 C2800 1.574 . S
C2808 H2803 0.949 . S
C2808 C2814 1.368 . S
C2809 C2793 1.349 . S
C2809 H2801 0.950 . S
C2809 C2807 1.327 . S
C2810 C2798 1.349 . S
C2810 H2804 0.950 . S
C2810 C2811 1.327 . S
C2811 H2805 0.950 . S
C2811 C2810 1.327 . S
C2811 C2815 1.429 . S
C2812 C2795 1.574 . S
C2812 H2806 0.949 . S
C2812 C2816 1.368 . S
C2813 C2794 1.429 . S
C2813 C2807 1.429 . S
C2813 C2814 1.523 . S
C2814 C2795 1.368 . S
C2814 C2808 1.368 . S
C2814 C2813 1.523 . S
C2815 C2799 1.429 . S
C2815 C2811 1.429 . S
C2815 C2816 1.523 . S
C2816 C2800 1.368 . S
C2816 C2812 1.368 . S
C2816 C2815 1.523 . S
H2817 C2792 0.950 . S
H2818 C2794 0.950 . S
H2819 C2795 0.949 . S
H2820 C2797 0.950 . S
H2821 C2799 0.950 . S
C2822 C2823 1.349 . S
C2822 C2824 1.327 . S
C2822 H2847 0.950 . S
C2823 C2822 1.349 . S
C2823 C2839 1.349 . S
C2824 C2822 1.327 . S
C2824 C2843 1.429 . S
C2824 H2848 0.950 . S
C2825 C2842 1.574 . S
C2825 C2844 1.368 . S
C2825 H2849 0.949 . S
H2826 C2830 0.949 . S
C2827 C2828 1.349 . S
C2827 C2829 1.327 . S
C2827 H2850 0.950 . S
C2828 C2827 1.349 . S
C2828 C2840 1.349 . S
C2829 C2827 1.327 . S
C2829 C2845 1.429 . S
C2829 H2851 0.950 . S
C2830 H2826 0.949 . S
C2830 C2838 1.574 . S
C2830 C2846 1.368 . S
H2831 C2839 0.950 . S
H2832 C2837 0.950 . S
H2833 C2838 0.949 . S
H2834 C2840 0.950 . S
H2835 C2841 0.950 . S
H2836 C2842 0.949 . S
C2837 H2832 0.950 . S
C2837 C2839 1.327 . S
C2837 C2843 1.429 . S
C2838 C2830 1.574 . S
C2838 H2833 0.949 . S
C2838 C2844 1.368 . S
C2839 C2823 1.349 . S
C2839 H2831 0.950 . S
C2839 C2837 1.327 . S
C2840 C2828 1.349 . S
C2840 H2834 0.950 . S
C2840 C2841 1.327 . S
C2841 H2835 0.950 . S
C2841 C2840 1.327 . S
C2841 C2845 1.429 . S
C2842 C2825 1.574 . S
C2842 H2836 0.949 . S
C2842 C2846 1.368 . S
C2843 C2824 1.429 . S
C2843 C2837 1.429 . S
C2843 C2844 1.523 . S
C2844 C2825 1.368 . S
C2844 C2838 1.368 . S
C2844 C2843 1.523 . S
C2845 C2829 1.429 . S
C2845 C2841 1.429 . S
C2845 C2846 1.523 . S
C2846 C2830 1.368 . S
C2846 C2842 1.368 . S
C2846 C2845 1.523 . S
H2847 C2822 0.950 . S
H2848 C2824 0.950 . S
H2849 C2825 0.949 . S
H2850 C2827 0.950 . S
H2851 C2829 0.950 . S
C2852 C2853 1.349 1_655 S
C2852 C2854 1.327 . S
C2852 H2877 0.950 . S
C2853 C2852 1.349 1_455 S
C2853 C2869 1.349 . S
C2854 C2852 1.327 . S
C2854 C2873 1.429 1_655 S
C2854 H2878 0.950 . S
C2855 C2872 1.574 . S
C2855 C2874 1.368 . S
C2855 H2879 0.949 . S
H2856 C2860 0.952 . S
C2857 C2858 1.349 . S
C2857 C2859 1.327 . S
C2857 H2880 0.950 . S
C2858 C2857 1.349 . S
C2858 C2870 1.349 . S
C2859 C2857 1.327 . S
C2859 C2875 1.429 . S
C2859 H2881 0.950 . S
C2860 H2856 0.952 . S
C2860 C2868 1.577 . S
C2860 C2876 1.362 1_655 S
H2861 C2869 0.950 . S
H2862 C2867 0.950 . S
H2863 C2868 0.949 . S
H2864 C2870 0.950 1_655 S
H2865 C2871 0.950 1_655 S
H2866 C2872 0.949 . S
C2867 H2862 0.950 . S
C2867 C2869 1.327 . S
C2867 C2873 1.429 . S
C2868 C2860 1.577 . S
C2868 H2863 0.949 . S
C2868 C2874 1.368 1_655 S
C2869 C2853 1.349 . S
C2869 H2861 0.950 . S
C2869 C2867 1.327 . S
C2870 C2858 1.349 . S
C2870 H2864 0.950 1_455 S
C2870 C2871 1.327 . S
C2871 H2865 0.950 1_455 S
C2871 C2870 1.327 . S
C2871 C2875 1.429 . S
C2872 C2855 1.574 . S
C2872 H2866 0.949 . S
C2872 C2876 1.368 . S
C2873 C2854 1.429 1_455 S
C2873 C2867 1.429 . S
C2873 C2874 1.523 . S
C2874 C2855 1.368 . S
C2874 C2868 1.368 1_455 S
C2874 C2873 1.523 . S
C2875 C2859 1.429 . S
C2875 C2871 1.429 . S
C2875 C2876 1.523 . S
C2876 C2860 1.362 1_455 S
C2876 C2872 1.368 . S
C2876 C2875 1.523 . S
H2877 C2852 0.950 . S
H2878 C2854 0.950 . S
H2879 C2855 0.949 . S
H2880 C2857 0.950 . S
H2881 C2859 0.950 . S
C2882 C2883 1.349 . S
C2882 C2884 1.327 . S
C2882 H2907 0.950 . S
C2883 C2882 1.349 . S
C2883 C2899 1.349 . S
C2884 C2882 1.327 . S
C2884 C2903 1.429 . S
C2884 H2908 0.950 . S
C2885 C2902 1.574 . S
C2885 C2904 1.368 . S
C2885 H2909 0.949 . S
H2886 C2890 0.949 . S
C2887 C2888 1.349 . S
C2887 C2889 1.327 . S
C2887 H2910 0.950 . S
C2888 C2887 1.349 . S
C2888 C2900 1.349 . S
C2889 C2887 1.327 . S
C2889 C2905 1.429 . S
C2889 H2911 0.950 . S
C2890 H2886 0.949 . S
C2890 C2898 1.574 . S
C2890 C2906 1.368 . S
H2891 C2899 0.950 . S
H2892 C2897 0.950 . S
H2893 C2898 0.949 . S
H2894 C2900 0.950 . S
H2895 C2901 0.950 . S
H2896 C2902 0.949 . S
C2897 H2892 0.950 . S
C2897 C2899 1.327 . S
C2897 C2903 1.429 . S
C2898 C2890 1.574 . S
C2898 H2893 0.949 . S
C2898 C2904 1.368 . S
C2899 C2883 1.349 . S
C2899 H2891 0.950 . S
C2899 C2897 1.327 . S
C2900 C2888 1.349 . S
C2900 H2894 0.950 . S
C2900 C2901 1.327 . S
C2901 H2895 0.950 . S
C2901 C2900 1.327 . S
C2901 C2905 1.429 . S
C2902 C2885 1.574 . S
C2902 H2896 0.949 . S
C2902 C2906 1.368 . S
C2903 C2884 1.429 . S
C2903 C2897 1.429 . S
C2903 C2904 1.523 . S
C2904 C2885 1.368 . S
C2904 C2898 1.368 . S
C2904 C2903 1.523 . S
C2905 C2889 1.429 . S
C2905 C2901 1.429 . S
C2905 C2906 1.523 . S
C2906 C2890 1.368 . S
C2906 C2902 1.368 . S
C2906 C2905 1.523 . S
H2907 C2882 0.950 . S
H2908 C2884 0.950 . S
H2909 C2885 0.949 . S
H2910 C2887 0.950 . S
H2911 C2889 0.950 . S
C2912 C2913 1.349 . S
C2912 C2914 1.327 . S
C2912 H2937 0.950 . S
C2913 C2912 1.349 . S
C2913 C2929 1.349 . S
C2914 C2912 1.327 . S
C2914 C2933 1.429 . S
C2914 H2938 0.950 . S
C2915 C2932 1.574 . S
C2915 C2934 1.368 . S
C2915 H2939 0.949 . S
H2916 C2920 0.949 . S
C2917 C2918 1.349 . S
C2917 C2919 1.327 . S
C2917 H2940 0.950 . S
C2918 C2917 1.349 . S
C2918 C2930 1.349 . S
C2919 C2917 1.327 . S
C2919 C2935 1.429 . S
C2919 H2941 0.950 . S
C2920 H2916 0.949 . S
C2920 C2928 1.574 . S
C2920 C2936 1.368 . S
H2921 C2929 0.950 . S
H2922 C2927 0.950 . S
H2923 C2928 0.949 . S
H2924 C2930 0.950 1_554 S
H2925 C2931 0.950 . S
H2926 C2932 0.949 . S
C2927 H2922 0.950 . S
C2927 C2929 1.327 . S
C2927 C2933 1.429 . S
C2928 C2920 1.574 . S
C2928 H2923 0.949 . S
C2928 C2934 1.368 . S
C2929 C2913 1.349 . S
C2929 H2921 0.950 . S
C2929 C2927 1.327 . S
C2930 C2918 1.349 . S
C2930 H2924 0.950 1_556 S
C2930 C2931 1.327 . S
C2931 H2925 0.950 . S
C2931 C2930 1.327 . S
C2931 C2935 1.429 . S
C2932 C2915 1.574 . S
C2932 H2926 0.949 . S
C2932 C2936 1.368 . S
C2933 C2914 1.429 . S
C2933 C2927 1.429 . S
C2933 C2934 1.523 . S
C2934 C2915 1.368 . S
C2934 C2928 1.368 . S
C2934 C2933 1.523 . S
C2935 C2919 1.429 . S
C2935 C2931 1.429 . S
C2935 C2936 1.523 . S
C2936 C2920 1.368 . S
C2936 C2932 1.368 . S
C2936 C2935 1.523 . S
H2937 C2912 0.950 . S
H2938 C2914 0.950 . S
H2939 C2915 0.949 . S
H2940 C2917 0.950 . S
H2941 C2919 0.950 . S
C2942 C2943 1.349 . S
C2942 C2944 1.327 . S
C2942 H2967 0.950 . S
C2943 C2942 1.349 . S
C2943 C2959 1.349 . S
C2944 C2942 1.327 . S
C2944 C2963 1.429 . S
C2944 H2968 0.950 . S
C2945 C2962 1.574 . S
C2945 C2964 1.368 . S
C2945 H2969 0.949 . S
H2946 C2950 0.949 . S
C2947 C2948 1.349 . S
C2947 C2949 1.327 . S
C2947 H2970 0.950 . S
C2948 C2947 1.349 . S
C2948 C2960 1.349 . S
C2949 C2947 1.327 . S
C2949 C2965 1.429 . S
C2949 H2971 0.950 . S
C2950 H2946 0.949 . S
C2950 C2958 1.574 . S
C2950 C2966 1.368 . S
H2951 C2959 0.950 . S
H2952 C2957 0.950 . S
H2953 C2958 0.949 . S
H2954 C2960 0.950 . S
H2955 C2961 0.950 . S
H2956 C2962 0.949 . S
C2957 H2952 0.950 . S
C2957 C2959 1.327 . S
C2957 C2963 1.429 . S
C2958 C2950 1.574 . S
C2958 H2953 0.949 . S
C2958 C2964 1.368 . S
C2959 C2943 1.349 . S
C2959 H2951 0.950 . S
C2959 C2957 1.327 . S
C2960 C2948 1.349 . S
C2960 H2954 0.950 . S
C2960 C2961 1.327 . S
C2961 H2955 0.950 . S
C2961 C2960 1.327 . S
C2961 C2965 1.429 . S
C2962 C2945 1.574 . S
C2962 H2956 0.949 . S
C2962 C2966 1.368 . S
C2963 C2944 1.429 . S
C2963 C2957 1.429 . S
C2963 C2964 1.523 . S
C2964 C2945 1.368 . S
C2964 C2958 1.368 . S
C2964 C2963 1.523 . S
C2965 C2949 1.429 . S
C2965 C2961 1.429 . S
C2965 C2966 1.523 . S
C2966 C2950 1.368 . S
C2966 C2962 1.368 . S
C2966 C2965 1.523 . S
H2967 C2942 0.950 . S
H2968 C2944 0.950 . S
H2969 C2945 0.949 . S
H2970 C2947 0.950 . S
H2971 C2949 0.950 . S
C2972 C2973 1.349 . S
C2972 C2974 1.327 . S
C2972 H2997 0.962 . S
C2973 C2972 1.349 . S
C2973 C2989 1.349 . S
C2974 C2972 1.327 . S
C2974 C2993 1.429 . S
C2974 H2998 0.904 1_455 S
C2975 C2992 1.574 . S
C2975 C2994 1.368 . S
C2975 H2999 0.949 . S
H2976 C2980 0.949 1_655 S
C2977 C2978 1.349 . S
C2977 C2979 1.327 . S
C2977 H3000 0.950 . S
C2978 C2977 1.349 . S
C2978 C2990 1.349 . S
C2979 C2977 1.327 . S
C2979 C2995 1.429 . S
C2979 H3001 0.950 . S
C2980 H2976 0.949 1_455 S
C2980 C2988 1.574 . S
C2980 C2996 1.368 . S
H2981 C2989 0.950 . S
H2982 C2987 0.950 . S
H2983 C2988 0.949 1_655 S
H2984 C2990 0.950 1_655 S
H2985 C2991 0.950 1_655 S
H2986 C2992 0.949 . S
C2987 H2982 0.950 . S
C2987 C2989 1.327 . S
C2987 C2993 1.429 . S
C2988 C2980 1.574 . S
C2988 H2983 0.949 1_455 S
C2988 C2994 1.368 . S
C2989 C2973 1.349 . S
C2989 H2981 0.950 . S
C2989 C2987 1.327 . S
C2990 C2978 1.349 . S
C2990 H2984 0.950 1_455 S
C2990 C2991 1.327 . S
C2991 H2985 0.950 1_455 S
C2991 C2990 1.327 . S
C2991 C2995 1.429 . S
C2992 C2975 1.574 . S
C2992 H2986 0.949 . S
C2992 C2996 1.368 . S
C2993 C2974 1.429 . S
C2993 C2987 1.429 . S
C2993 C2994 1.523 . S
C2994 C2975 1.368 . S
C2994 C2988 1.368 . S
C2994 C2993 1.523 . S
C2995 C2979 1.429 . S
C2995 C2991 1.429 . S
C2995 C2996 1.523 . S
C2996 C2980 1.368 . S
C2996 C2992 1.368 . S
C2996 C2995 1.523 . S
H2997 C2972 0.962 . S
H2998 C2974 0.904 1_655 S
H2999 C2975 0.949 . S
H3000 C2977 0.950 . S
H3001 C2979 0.950 . S
C3002 C3003 1.349 . S
C3002 C3004 1.327 . S
C3002 H3027 0.950 . S
C3003 C3002 1.349 . S
C3003 C3019 1.349 . S
C3004 C3002 1.327 . S
C3004 C3023 1.429 . S
C3004 H3028 0.950 . S
C3005 C3022 1.574 . S
C3005 C3024 1.368 . S
C3005 H3029 0.949 . S
H3006 C3010 0.949 . S
C3007 C3008 1.349 . S
C3007 C3009 1.327 . S
C3007 H3030 0.950 . S
C3008 C3007 1.349 . S
C3008 C3020 1.349 . S
C3009 C3007 1.327 . S
C3009 C3025 1.429 . S
C3009 H3031 0.950 . S
C3010 H3006 0.949 . S
C3010 C3018 1.574 . S
C3010 C3026 1.368 . S
H3011 C3019 0.950 . S
H3012 C3017 0.950 . S
H3013 C3018 0.949 . S
H3014 C3020 0.950 . S
H3015 C3021 0.950 . S
H3016 C3022 0.949 . S
C3017 H3012 0.950 . S
C3017 C3019 1.327 . S
C3017 C3023 1.429 . S
C3018 C3010 1.574 . S
C3018 H3013 0.949 . S
C3018 C3024 1.368 . S
C3019 C3003 1.349 . S
C3019 H3011 0.950 . S
C3019 C3017 1.327 . S
C3020 C3008 1.349 . S
C3020 H3014 0.950 . S
C3020 C3021 1.327 . S
C3021 H3015 0.950 . S
C3021 C3020 1.327 . S
C3021 C3025 1.429 . S
C3022 C3005 1.574 . S
C3022 H3016 0.949 . S
C3022 C3026 1.368 . S
C3023 C3004 1.429 . S
C3023 C3017 1.429 . S
C3023 C3024 1.523 . S
C3024 C3005 1.368 . S
C3024 C3018 1.368 . S
C3024 C3023 1.523 . S
C3025 C3009 1.429 . S
C3025 C3021 1.429 . S
C3025 C3026 1.523 . S
C3026 C3010 1.368 . S
C3026 C3022 1.368 . S
C3026 C3025 1.523 . S
H3027 C3002 0.950 . S
H3028 C3004 0.950 . S
H3029 C3005 0.949 . S
H3030 C3007 0.950 . S
H3031 C3009 0.950 . S
C3032 C3033 1.349 . S
C3032 C3034 1.327 . S
C3032 H3057 0.950 . S
C3033 C3032 1.349 . S
C3033 C3049 1.349 . S
C3034 C3032 1.327 . S
C3034 C3053 1.429 . S
C3034 H3058 0.950 . S
C3035 C3052 1.574 . S
C3035 C3054 1.368 . S
C3035 H3059 0.949 . S
H3036 C3040 0.949 . S
C3037 C3038 1.349 . S
C3037 C3039 1.327 . S
C3037 H3060 0.950 . S
C3038 C3037 1.349 . S
C3038 C3050 1.349 . S
C3039 C3037 1.327 . S
C3039 C3055 1.429 . S
C3039 H3061 0.950 . S
C3040 H3036 0.949 . S
C3040 C3048 1.574 . S
C3040 C3056 1.368 . S
H3041 C3049 0.950 . S
H3042 C3047 0.950 . S
H3043 C3048 0.949 . S
H3044 C3050 0.950 . S
H3045 C3051 0.950 . S
H3046 C3052 0.949 . S
C3047 H3042 0.950 . S
C3047 C3049 1.327 . S
C3047 C3053 1.429 . S
C3048 C3040 1.574 . S
C3048 H3043 0.949 . S
C3048 C3054 1.368 . S
C3049 C3033 1.349 . S
C3049 H3041 0.950 . S
C3049 C3047 1.327 . S
C3050 C3038 1.349 . S
C3050 H3044 0.950 . S
C3050 C3051 1.327 . S
C3051 H3045 0.950 . S
C3051 C3050 1.327 . S
C3051 C3055 1.429 . S
C3052 C3035 1.574 . S
C3052 H3046 0.949 . S
C3052 C3056 1.368 . S
C3053 C3034 1.429 . S
C3053 C3047 1.429 . S
C3053 C3054 1.523 . S
C3054 C3035 1.368 . S
C3054 C3048 1.368 . S
C3054 C3053 1.523 . S
C3055 C3039 1.429 . S
C3055 C3051 1.429 . S
C3055 C3056 1.523 . S
C3056 C3040 1.368 . S
C3056 C3052 1.368 . S
C3056 C3055 1.523 . S
H3057 C3032 0.950 . S
H3058 C3034 0.950 . S
H3059 C3035 0.949 . S
H3060 C3037 0.950 . S
H3061 C3039 0.950 . S
C3062 C3063 1.349 . S
C3062 C3064 1.327 . S
C3062 H3087 0.950 . S
C3063 C3062 1.349 . S
C3063 C3079 1.349 . S
C3064 C3062 1.327 . S
C3064 C3083 1.429 . S
C3064 H3088 0.950 . S
C3065 C3082 1.574 . S
C3065 C3084 1.368 . S
C3065 H3089 0.949 . S
H3066 C3070 0.949 . S
C3067 C3068 1.349 . S
C3067 C3069 1.327 . S
C3067 H3090 0.950 . S
C3068 C3067 1.349 . S
C3068 C3080 1.349 . S
C3069 C3067 1.327 . S
C3069 C3085 1.429 . S
C3069 H3091 0.950 . S
C3070 H3066 0.949 . S
C3070 C3078 1.574 . S
C3070 C3086 1.368 . S
H3071 C3079 0.950 . S
H3072 C3077 0.950 . S
H3073 C3078 0.949 . S
H3074 C3080 0.950 . S
H3075 C3081 0.950 . S
H3076 C3082 0.949 . S
C3077 H3072 0.950 . S
C3077 C3079 1.327 . S
C3077 C3083 1.429 . S
C3078 C3070 1.574 . S
C3078 H3073 0.949 . S
C3078 C3084 1.368 . S
C3079 C3063 1.349 . S
C3079 H3071 0.950 . S
C3079 C3077 1.327 . S
C3080 C3068 1.349 . S
C3080 H3074 0.950 . S
C3080 C3081 1.327 . S
C3081 H3075 0.950 . S
C3081 C3080 1.327 . S
C3081 C3085 1.429 . S
C3082 C3065 1.574 . S
C3082 H3076 0.949 . S
C3082 C3086 1.368 . S
C3083 C3064 1.429 . S
C3083 C3077 1.429 . S
C3083 C3084 1.523 . S
C3084 C3065 1.368 . S
C3084 C3078 1.368 . S
C3084 C3083 1.523 . S
C3085 C3069 1.429 . S
C3085 C3081 1.429 . S
C3085 C3086 1.523 . S
C3086 C3070 1.368 . S
C3086 C3082 1.368 . S
C3086 C3085 1.523 . S
H3087 C3062 0.950 . S
H3088 C3064 0.950 . S
H3089 C3065 0.949 . S
H3090 C3067 0.950 . S
H3091 C3069 0.950 . S
C3092 C3093 1.349 . S
C3092 C3094 1.327 . S
C3092 H3117 0.950 . S
C3093 C3092 1.349 . S
C3093 C3109 1.349 . S
C3094 C3092 1.327 . S
C3094 C3113 1.429 . S
C3094 H3118 0.950 . S
C3095 C3112 1.574 . S
C3095 C3114 1.368 . S
C3095 H3119 0.949 . S
H3096 C3100 0.949 . S
C3097 C3098 1.349 . S
C3097 C3099 1.327 . S
C3097 H3120 0.950 . S
C3098 C3097 1.349 . S
C3098 C3110 1.349 1_655 S
C3099 C3097 1.327 . S
C3099 C3115 1.429 . S
C3099 H3121 0.950 . S
C3100 H3096 0.949 . S
C3100 C3108 1.574 . S
C3100 C3116 1.368 . S
H3101 C3109 0.950 . S
H3102 C3107 0.950 . S
H3103 C3108 0.949 . S
H3104 C3110 0.950 . S
H3105 C3111 0.950 1_455 S
H3106 C3112 0.949 . S
C3107 H3102 0.950 . S
C3107 C3109 1.327 . S
C3107 C3113 1.429 . S
C3108 C3100 1.574 . S
C3108 H3103 0.949 . S
C3108 C3114 1.368 . S
C3109 C3093 1.349 . S
C3109 H3101 0.950 . S
C3109 C3107 1.327 . S
C3110 C3098 1.349 1_455 S
C3110 H3104 0.950 . S
C3110 C3111 1.327 1_455 S
C3111 H3105 0.950 1_655 S
C3111 C3110 1.327 1_655 S
C3111 C3115 1.429 . S
C3112 C3095 1.574 . S
C3112 H3106 0.949 . S
C3112 C3116 1.368 . S
C3113 C3094 1.429 . S
C3113 C3107 1.429 . S
C3113 C3114 1.523 . S
C3114 C3095 1.368 . S
C3114 C3108 1.368 . S
C3114 C3113 1.523 . S
C3115 C3099 1.429 . S
C3115 C3111 1.429 . S
C3115 C3116 1.523 . S
C3116 C3100 1.368 . S
C3116 C3112 1.368 . S
C3116 C3115 1.523 . S
H3117 C3092 0.950 . S
H3118 C3094 0.950 . S
H3119 C3095 0.949 . S
H3120 C3097 0.950 . S
H3121 C3099 0.950 . S
C3122 C3123 1.349 . S
C3122 C3124 1.327 . S
C3122 H3147 0.950 . S
C3123 C3122 1.349 . S
C3123 C3139 1.349 . S
C3124 C3122 1.327 . S
C3124 C3143 1.429 . S
C3124 H3148 0.950 . S
C3125 C3142 1.574 . S
C3125 C3144 1.368 . S
C3125 H3149 0.949 . S
H3126 C3130 0.949 . S
C3127 C3128 1.349 . S
C3127 C3129 1.327 . S
C3127 H3150 0.950 . S
C3128 C3127 1.349 . S
C3128 C3140 1.349 . S
C3129 C3127 1.327 . S
C3129 C3145 1.429 . S
C3129 H3151 0.950 . S
C3130 H3126 0.949 . S
C3130 C3138 1.574 . S
C3130 C3146 1.368 . S
H3131 C3139 0.950 . S
H3132 C3137 0.950 . S
H3133 C3138 0.949 . S
H3134 C3140 0.950 . S
H3135 C3141 0.950 . S
H3136 C3142 0.949 . S
C3137 H3132 0.950 . S
C3137 C3139 1.327 . S
C3137 C3143 1.429 . S
C3138 C3130 1.574 . S
C3138 H3133 0.949 . S
C3138 C3144 1.368 . S
C3139 C3123 1.349 . S
C3139 H3131 0.950 . S
C3139 C3137 1.327 . S
C3140 C3128 1.349 . S
C3140 H3134 0.950 . S
C3140 C3141 1.327 . S
C3141 H3135 0.950 . S
C3141 C3140 1.327 . S
C3141 C3145 1.429 . S
C3142 C3125 1.574 . S
C3142 H3136 0.949 . S
C3142 C3146 1.368 . S
C3143 C3124 1.429 . S
C3143 C3137 1.429 . S
C3143 C3144 1.523 . S
C3144 C3125 1.368 . S
C3144 C3138 1.368 . S
C3144 C3143 1.523 . S
C3145 C3129 1.429 . S
C3145 C3141 1.429 . S
C3145 C3146 1.523 . S
C3146 C3130 1.368 . S
C3146 C3142 1.368 . S
C3146 C3145 1.523 . S
H3147 C3122 0.950 . S
H3148 C3124 0.950 . S
H3149 C3125 0.949 . S
H3150 C3127 0.950 . S
H3151 C3129 0.950 . S
C3152 C3153 1.349 . S
C3152 C3154 1.327 . S
C3152 H3177 0.950 . S
C3153 C3152 1.349 . S
C3153 C3169 1.349 . S
C3154 C3152 1.327 . S
C3154 C3173 1.429 . S
C3154 H3178 0.950 . S
C3155 C3172 1.574 . S
C3155 C3174 1.368 . S
C3155 H3179 0.949 . S
H3156 C3160 0.949 . S
C3157 C3158 1.349 . S
C3157 C3159 1.327 . S
C3157 H3180 0.950 . S
C3158 C3157 1.349 . S
C3158 C3170 1.349 . S
C3159 C3157 1.327 . S
C3159 C3175 1.429 . S
C3159 H3181 0.950 . S
C3160 H3156 0.949 . S
C3160 C3168 1.574 . S
C3160 C3176 1.368 . S
H3161 C3169 0.950 . S
H3162 C3167 0.950 . S
H3163 C3168 0.949 . S
H3164 C3170 0.950 . S
H3165 C3171 0.950 . S
H3166 C3172 0.949 . S
C3167 H3162 0.950 . S
C3167 C3169 1.327 . S
C3167 C3173 1.429 . S
C3168 C3160 1.574 . S
C3168 H3163 0.949 . S
C3168 C3174 1.368 . S
C3169 C3153 1.349 . S
C3169 H3161 0.950 . S
C3169 C3167 1.327 . S
C3170 C3158 1.349 . S
C3170 H3164 0.950 . S
C3170 C3171 1.327 . S
C3171 H3165 0.950 . S
C3171 C3170 1.327 . S
C3171 C3175 1.429 . S
C3172 C3155 1.574 . S
C3172 H3166 0.949 . S
C3172 C3176 1.368 . S
C3173 C3154 1.429 . S
C3173 C3167 1.429 . S
C3173 C3174 1.523 . S
C3174 C3155 1.368 . S
C3174 C3168 1.368 . S
C3174 C3173 1.523 . S
C3175 C3159 1.429 . S
C3175 C3171 1.429 . S
C3175 C3176 1.523 . S
C3176 C3160 1.368 . S
C3176 C3172 1.368 . S
C3176 C3175 1.523 . S
H3177 C3152 0.950 . S
H3178 C3154 0.950 . S
H3179 C3155 0.949 . S
H3180 C3157 0.950 . S
H3181 C3159 0.950 . S
C3182 C3183 1.349 . S
C3182 C3184 1.327 . S
C3182 H3207 0.950 . S
C3183 C3182 1.349 . S
C3183 C3199 1.349 . S
C3184 C3182 1.327 . S
C3184 C3203 1.429 . S
C3184 H3208 0.950 . S
C3185 C3202 1.574 . S
C3185 C3204 1.368 . S
C3185 H3209 0.949 . S
H3186 C3190 0.949 . S
C3187 C3188 1.349 . S
C3187 C3189 1.327 . S
C3187 H3210 0.950 . S
C3188 C3187 1.349 . S
C3188 C3200 1.349 . S
C3189 C3187 1.327 . S
C3189 C3205 1.429 . S
C3189 H3211 0.950 . S
C3190 H3186 0.949 . S
C3190 C3198 1.574 . S
C3190 C3206 1.368 . S
H3191 C3199 0.950 . S
H3192 C3197 0.950 . S
H3193 C3198 0.949 . S
H3194 C3200 0.950 . S
H3195 C3201 0.950 . S
H3196 C3202 0.949 . S
C3197 H3192 0.950 . S
C3197 C3199 1.327 . S
C3197 C3203 1.429 . S
C3198 C3190 1.574 . S
C3198 H3193 0.949 . S
C3198 C3204 1.368 . S
C3199 C3183 1.349 . S
C3199 H3191 0.950 . S
C3199 C3197 1.327 . S
C3200 C3188 1.349 . S
C3200 H3194 0.950 . S
C3200 C3201 1.327 . S
C3201 H3195 0.950 . S
C3201 C3200 1.327 . S
C3201 C3205 1.429 . S
C3202 C3185 1.574 . S
C3202 H3196 0.949 . S
C3202 C3206 1.368 . S
C3203 C3184 1.429 . S
C3203 C3197 1.429 . S
C3203 C3204 1.523 . S
C3204 C3185 1.368 . S
C3204 C3198 1.368 . S
C3204 C3203 1.523 . S
C3205 C3189 1.429 . S
C3205 C3201 1.429 . S
C3205 C3206 1.523 . S
C3206 C3190 1.368 . S
C3206 C3202 1.368 . S
C3206 C3205 1.523 . S
H3207 C3182 0.950 . S
H3208 C3184 0.950 . S
H3209 C3185 0.949 . S
H3210 C3187 0.950 . S
H3211 C3189 0.950 . S
C3212 C3213 1.349 . S
C3212 C3214 1.327 . S
C3212 H3237 0.950 . S
C3213 C3212 1.349 . S
C3213 C3229 1.349 . S
C3214 C3212 1.327 . S
C3214 C3233 1.429 . S
C3214 H3238 0.950 . S
C3215 C3232 1.574 . S
C3215 C3234 1.368 . S
C3215 H3239 0.949 . S
H3216 C3220 0.949 . S
C3217 C3218 1.349 . S
C3217 C3219 1.327 . S
C3217 H3240 0.950 . S
C3218 C3217 1.349 . S
C3218 C3230 1.349 . S
C3219 C3217 1.327 . S
C3219 C3235 1.429 . S
C3219 H3241 0.950 . S
C3220 H3216 0.949 . S
C3220 C3228 1.574 . S
C3220 C3236 1.368 . S
H3221 C3229 0.950 . S
H3222 C3227 0.950 . S
H3223 C3228 0.949 . S
H3224 C3230 0.950 1_455 S
H3225 C3231 0.950 . S
H3226 C3232 0.949 . S
C3227 H3222 0.950 . S
C3227 C3229 1.327 . S
C3227 C3233 1.429 . S
C3228 C3220 1.574 . S
C3228 H3223 0.949 . S
C3228 C3234 1.368 . S
C3229 C3213 1.349 . S
C3229 H3221 0.950 . S
C3229 C3227 1.327 . S
C3230 C3218 1.349 . S
C3230 H3224 0.950 1_655 S
C3230 C3231 1.327 . S
C3231 H3225 0.950 . S
C3231 C3230 1.327 . S
C3231 C3235 1.429 . S
C3232 C3215 1.574 . S
C3232 H3226 0.949 . S
C3232 C3236 1.368 . S
C3233 C3214 1.429 . S
C3233 C3227 1.429 . S
C3233 C3234 1.523 . S
C3234 C3215 1.368 . S
C3234 C3228 1.368 . S
C3234 C3233 1.523 . S
C3235 C3219 1.429 . S
C3235 C3231 1.429 . S
C3235 C3236 1.523 . S
C3236 C3220 1.368 . S
C3236 C3232 1.368 . S
C3236 C3235 1.523 . S
H3237 C3212 0.950 . S
H3238 C3214 0.950 . S
H3239 C3215 0.949 . S
H3240 C3217 0.950 . S
H3241 C3219 0.950 . S
C3242 C3243 1.349 . S
C3242 C3244 1.327 . S
C3242 H3267 0.950 . S
C3243 C3242 1.349 . S
C3243 C3259 1.349 . S
C3244 C3242 1.327 . S
C3244 C3263 1.429 . S
C3244 H3268 0.950 . S
C3245 C3262 1.574 . S
C3245 C3264 1.368 . S
C3245 H3269 0.949 . S
H3246 C3250 0.949 . S
C3247 C3248 1.349 . S
C3247 C3249 1.327 . S
C3247 H3270 0.950 . S
C3248 C3247 1.349 . S
C3248 C3260 1.349 . S
C3249 C3247 1.327 . S
C3249 C3265 1.429 . S
C3249 H3271 0.950 . S
C3250 H3246 0.949 . S
C3250 C3258 1.574 . S
C3250 C3266 1.368 . S
H3251 C3259 0.950 . S
H3252 C3257 0.950 . S
H3253 C3258 0.949 . S
H3254 C3260 0.950 . S
H3255 C3261 0.950 . S
H3256 C3262 0.949 . S
C3257 H3252 0.950 . S
C3257 C3259 1.327 . S
C3257 C3263 1.429 . S
C3258 C3250 1.574 . S
C3258 H3253 0.949 . S
C3258 C3264 1.368 . S
C3259 C3243 1.349 . S
C3259 H3251 0.950 . S
C3259 C3257 1.327 . S
C3260 C3248 1.349 . S
C3260 H3254 0.950 . S
C3260 C3261 1.327 . S
C3261 H3255 0.950 . S
C3261 C3260 1.327 . S
C3261 C3265 1.429 . S
C3262 C3245 1.574 . S
C3262 H3256 0.949 . S
C3262 C3266 1.368 . S
C3263 C3244 1.429 . S
C3263 C3257 1.429 . S
C3263 C3264 1.523 . S
C3264 C3245 1.368 . S
C3264 C3258 1.368 . S
C3264 C3263 1.523 . S
C3265 C3249 1.429 . S
C3265 C3261 1.429 . S
C3265 C3266 1.523 . S
C3266 C3250 1.368 . S
C3266 C3262 1.368 . S
C3266 C3265 1.523 . S
H3267 C3242 0.950 . S
H3268 C3244 0.950 . S
H3269 C3245 0.949 . S
H3270 C3247 0.950 . S
H3271 C3249 0.950 . S
C3272 C3273 1.349 . S
C3272 C3274 1.327 . S
C3272 H3297 0.950 . S
C3273 C3272 1.349 . S
C3273 C3289 1.349 . S
C3274 C3272 1.327 . S
C3274 C3293 1.429 . S
C3274 H3298 0.950 . S
C3275 C3292 1.574 . S
C3275 C3294 1.368 . S
C3275 H3299 0.949 . S
H3276 C3280 0.949 . S
C3277 C3278 1.349 . S
C3277 C3279 1.327 . S
C3277 H3300 0.950 . S
C3278 C3277 1.349 . S
C3278 C3290 1.349 . S
C3279 C3277 1.327 . S
C3279 C3295 1.429 . S
C3279 H3301 0.950 . S
C3280 H3276 0.949 . S
C3280 C3288 1.574 . S
C3280 C3296 1.368 . S
H3281 C3289 0.950 . S
H3282 C3287 0.950 . S
H3283 C3288 0.949 . S
H3284 C3290 0.950 . S
H3285 C3291 0.950 . S
H3286 C3292 0.949 . S
C3287 H3282 0.950 . S
C3287 C3289 1.327 . S
C3287 C3293 1.429 . S
C3288 C3280 1.574 . S
C3288 H3283 0.949 . S
C3288 C3294 1.368 . S
C3289 C3273 1.349 . S
C3289 H3281 0.950 . S
C3289 C3287 1.327 . S
C3290 C3278 1.349 . S
C3290 H3284 0.950 . S
C3290 C3291 1.327 . S
C3291 H3285 0.950 . S
C3291 C3290 1.327 . S
C3291 C3295 1.429 . S
C3292 C3275 1.574 . S
C3292 H3286 0.949 . S
C3292 C3296 1.368 . S
C3293 C3274 1.429 . S
C3293 C3287 1.429 . S
C3293 C3294 1.523 . S
C3294 C3275 1.368 . S
C3294 C3288 1.368 . S
C3294 C3293 1.523 . S
C3295 C3279 1.429 . S
C3295 C3291 1.429 . S
C3295 C3296 1.523 . S
C3296 C3280 1.368 . S
C3296 C3292 1.368 . S
C3296 C3295 1.523 . S
H3297 C3272 0.950 . S
H3298 C3274 0.950 . S
H3299 C3275 0.949 . S
H3300 C3277 0.950 . S
H3301 C3279 0.950 . S
C3302 C3303 1.349 . S
C3302 C3304 1.327 . S
C3302 H3327 0.950 . S
C3303 C3302 1.349 . S
C3303 C3319 1.349 . S
C3304 C3302 1.327 . S
C3304 C3323 1.429 . S
C3304 H3328 0.950 . S
C3305 C3322 1.574 . S
C3305 C3324 1.368 . S
C3305 H3329 0.949 . S
H3306 C3310 0.949 . S
C3307 C3308 1.349 1_565 S
C3307 C3309 1.327 . S
C3307 H3330 0.950 . S
C3308 C3307 1.349 1_545 S
C3308 C3320 1.349 . S
C3309 C3307 1.327 . S
C3309 C3325 1.429 . S
C3309 H3331 0.950 . S
C3310 H3306 0.949 . S
C3310 C3318 1.574 . S
C3310 C3326 1.368 . S
H3311 C3319 0.950 . S
H3312 C3317 0.950 . S
H3313 C3318 0.949 . S
H3314 C3320 0.950 . S
H3315 C3321 0.950 . S
H3316 C3322 0.949 . S
C3317 H3312 0.950 . S
C3317 C3319 1.327 . S
C3317 C3323 1.429 . S
C3318 C3310 1.574 . S
C3318 H3313 0.949 . S
C3318 C3324 1.368 . S
C3319 C3303 1.349 . S
C3319 H3311 0.950 . S
C3319 C3317 1.327 . S
C3320 C3308 1.349 . S
C3320 H3314 0.950 . S
C3320 C3321 1.327 1_545 S
C3321 H3315 0.950 . S
C3321 C3320 1.327 1_565 S
C3321 C3325 1.429 . S
C3322 C3305 1.574 . S
C3322 H3316 0.949 . S
C3322 C3326 1.368 . S
C3323 C3304 1.429 . S
C3323 C3317 1.429 . S
C3323 C3324 1.523 . S
C3324 C3305 1.368 . S
C3324 C3318 1.368 . S
C3324 C3323 1.523 . S
C3325 C3309 1.429 . S
C3325 C3321 1.429 . S
C3325 C3326 1.523 . S
C3326 C3310 1.368 . S
C3326 C3322 1.368 . S
C3326 C3325 1.523 . S
H3327 C3302 0.950 . S
H3328 C3304 0.950 . S
H3329 C3305 0.949 . S
H3330 C3307 0.950 . S
H3331 C3309 0.950 . S
C3332 C3333 1.349 . S
C3332 C3334 1.327 . S
C3332 H3357 0.950 . S
C3333 C3332 1.349 . S
C3333 C3349 1.349 . S
C3334 C3332 1.327 . S
C3334 C3353 1.429 . S
C3334 H3358 0.950 . S
C3335 C3352 1.574 . S
C3335 C3354 1.368 . S
C3335 H3359 0.949 . S
H3336 C3340 0.949 . S
C3337 C3338 1.349 . S
C3337 C3339 1.327 . S
C3337 H3360 0.950 . S
C3338 C3337 1.349 . S
C3338 C3350 1.349 . S
C3339 C3337 1.327 . S
C3339 C3355 1.429 . S
C3339 H3361 0.950 . S
C3340 H3336 0.949 . S
C3340 C3348 1.574 . S
C3340 C3356 1.368 . S
H3341 C3349 0.950 . S
H3342 C3347 0.950 . S
H3343 C3348 0.949 . S
H3344 C3350 0.950 . S
H3345 C3351 0.950 . S
H3346 C3352 0.949 . S
C3347 H3342 0.950 . S
C3347 C3349 1.327 . S
C3347 C3353 1.429 . S
C3348 C3340 1.574 . S
C3348 H3343 0.949 . S
C3348 C3354 1.368 . S
C3349 C3333 1.349 . S
C3349 H3341 0.950 . S
C3349 C3347 1.327 . S
C3350 C3338 1.349 . S
C3350 H3344 0.950 . S
C3350 C3351 1.327 . S
C3351 H3345 0.950 . S
C3351 C3350 1.327 . S
C3351 C3355 1.429 . S
C3352 C3335 1.574 . S
C3352 H3346 0.949 . S
C3352 C3356 1.368 . S
C3353 C3334 1.429 . S
C3353 C3347 1.429 . S
C3353 C3354 1.523 . S
C3354 C3335 1.368 . S
C3354 C3348 1.368 . S
C3354 C3353 1.523 . S
C3355 C3339 1.429 . S
C3355 C3351 1.429 . S
C3355 C3356 1.523 . S
C3356 C3340 1.368 . S
C3356 C3352 1.368 . S
C3356 C3355 1.523 . S
H3357 C3332 0.950 . S
H3358 C3334 0.950 . S
H3359 C3335 0.949 . S
H3360 C3337 0.950 . S
H3361 C3339 0.950 . S
C3362 C3363 1.349 1_554 S
C3362 C3364 1.327 . S
C3362 H3387 0.950 . S
C3363 C3362 1.349 1_556 S
C3363 C3379 1.349 . S
C3364 C3362 1.327 . S
C3364 C3383 1.429 . S
C3364 H3388 0.950 . S
C3365 C3382 1.574 . S
C3365 C3384 1.368 1_556 S
C3365 H3389 0.949 . S
H3366 C3370 0.949 . S
C3367 C3368 1.349 1_556 S
C3367 C3369 1.327 . S
C3367 H3390 0.950 . S
C3368 C3367 1.349 1_554 S
C3368 C3380 1.349 . S
C3369 C3367 1.327 . S
C3369 C3385 1.429 1_556 S
C3369 H3391 0.950 . S
C3370 H3366 0.949 . S
C3370 C3378 1.574 . S
C3370 C3386 1.368 . S
H3371 C3379 0.950 . S
H3372 C3377 0.950 . S
H3373 C3378 0.949 . S
H3374 C3380 0.950 . S
H3375 C3381 0.950 . S
H3376 C3382 0.949 . S
C3377 H3372 0.950 . S
C3377 C3379 1.327 . S
C3377 C3383 1.429 1_556 S
C3378 C3370 1.574 . S
C3378 H3373 0.949 . S
C3378 C3384 1.368 . S
C3379 C3363 1.349 . S
C3379 H3371 0.950 . S
C3379 C3377 1.327 . S
C3380 C3368 1.349 . S
C3380 H3374 0.950 . S
C3380 C3381 1.327 . S
C3381 H3375 0.950 . S
C3381 C3380 1.327 . S
C3381 C3385 1.429 . S
C3382 C3365 1.574 . S
C3382 H3376 0.949 . S
C3382 C3386 1.368 1_556 S
C3383 C3364 1.429 . S
C3383 C3377 1.429 1_554 S
C3383 C3384 1.523 . S
C3384 C3365 1.368 1_554 S
C3384 C3378 1.368 . S
C3384 C3383 1.523 . S
C3385 C3369 1.429 1_554 S
C3385 C3381 1.429 . S
C3385 C3386 1.523 . S
C3386 C3370 1.368 . S
C3386 C3382 1.368 1_554 S
C3386 C3385 1.523 . S
H3387 C3362 0.950 . S
H3388 C3364 0.950 . S
H3389 C3365 0.949 . S
H3390 C3367 0.950 . S
H3391 C3369 0.950 . S
C3392 C3393 1.349 . S
C3392 C3394 1.327 . S
C3392 H3417 0.950 . S
C3393 C3392 1.349 . S
C3393 C3409 1.349 . S
C3394 C3392 1.327 . S
C3394 C3413 1.429 . S
C3394 H3418 0.950 . S
C3395 C3412 1.574 . S
C3395 C3414 1.368 . S
C3395 H3419 0.949 . S
H3396 C3400 0.949 . S
C3397 C3398 1.349 . S
C3397 C3399 1.327 . S
C3397 H3420 0.950 . S
C3398 C3397 1.349 . S
C3398 C3410 1.349 . S
C3399 C3397 1.327 . S
C3399 C3415 1.429 . S
C3399 H3421 0.950 . S
C3400 H3396 0.949 . S
C3400 C3408 1.574 . S
C3400 C3416 1.368 . S
H3401 C3409 0.950 . S
H3402 C3407 0.950 . S
H3403 C3408 0.949 . S
H3404 C3410 0.950 . S
H3405 C3411 0.950 . S
H3406 C3412 0.949 . S
C3407 H3402 0.950 . S
C3407 C3409 1.327 . S
C3407 C3413 1.429 . S
C3408 C3400 1.574 . S
C3408 H3403 0.949 . S
C3408 C3414 1.368 . S
C3409 C3393 1.349 . S
C3409 H3401 0.950 . S
C3409 C3407 1.327 . S
C3410 C3398 1.349 . S
C3410 H3404 0.950 . S
C3410 C3411 1.327 . S
C3411 H3405 0.950 . S
C3411 C3410 1.327 . S
C3411 C3415 1.429 . S
C3412 C3395 1.574 . S
C3412 H3406 0.949 . S
C3412 C3416 1.368 . S
C3413 C3394 1.429 . S
C3413 C3407 1.429 . S
C3413 C3414 1.523 . S
C3414 C3395 1.368 . S
C3414 C3408 1.368 . S
C3414 C3413 1.523 . S
C3415 C3399 1.429 . S
C3415 C3411 1.429 . S
C3415 C3416 1.523 . S
C3416 C3400 1.368 . S
C3416 C3412 1.368 . S
C3416 C3415 1.523 . S
H3417 C3392 0.950 . S
H3418 C3394 0.950 . S
H3419 C3395 0.949 . S
H3420 C3397 0.950 . S
H3421 C3399 0.950 . S
C3422 C3423 1.349 . S
C3422 C3424 1.327 . S
C3422 H3447 0.950 . S
C3423 C3422 1.349 . S
C3423 C3439 1.349 . S
C3424 C3422 1.327 . S
C3424 C3443 1.429 . S
C3424 H3448 0.950 . S
C3425 C3442 1.574 . S
C3425 C3444 1.368 . S
C3425 H3449 0.949 . S
H3426 C3430 0.949 . S
C3427 C3428 1.349 . S
C3427 C3429 1.327 . S
C3427 H3450 0.950 . S
C3428 C3427 1.349 . S
C3428 C3440 1.349 . S
C3429 C3427 1.327 . S
C3429 C3445 1.429 1_556 S
C3429 H3451 0.950 . S
C3430 H3426 0.949 . S
C3430 C3438 1.574 . S
C3430 C3446 1.368 . S
H3431 C3439 0.950 . S
H3432 C3437 0.950 . S
H3433 C3438 0.949 . S
H3434 C3440 0.950 . S
H3435 C3441 0.950 . S
H3436 C3442 0.949 . S
C3437 H3432 0.950 . S
C3437 C3439 1.327 . S
C3437 C3443 1.429 . S
C3438 C3430 1.574 . S
C3438 H3433 0.949 . S
C3438 C3444 1.368 . S
C3439 C3423 1.349 . S
C3439 H3431 0.950 . S
C3439 C3437 1.327 . S
C3440 C3428 1.349 . S
C3440 H3434 0.950 . S
C3440 C3441 1.327 1_556 S
C3441 H3435 0.950 . S
C3441 C3440 1.327 1_554 S
C3441 C3445 1.429 . S
C3442 C3425 1.574 . S
C3442 H3436 0.949 . S
C3442 C3446 1.368 . S
C3443 C3424 1.429 . S
C3443 C3437 1.429 . S
C3443 C3444 1.523 . S
C3444 C3425 1.368 . S
C3444 C3438 1.368 . S
C3444 C3443 1.523 . S
C3445 C3429 1.429 1_554 S
C3445 C3441 1.429 . S
C3445 C3446 1.523 . S
C3446 C3430 1.368 . S
C3446 C3442 1.368 . S
C3446 C3445 1.523 . S
H3447 C3422 0.950 . S
H3448 C3424 0.950 . S
H3449 C3425 0.949 . S
H3450 C3427 0.950 . S
H3451 C3429 0.950 . S
C3452 C3453 1.349 . S
C3452 C3454 1.327 . S
C3452 H3477 0.950 1_565 S
C3453 C3452 1.349 . S
C3453 C3469 1.349 . S
C3454 C3452 1.327 . S
C3454 C3473 1.429 . S
C3454 H3478 0.950 . S
C3455 C3472 1.574 . S
C3455 C3474 1.368 . S
C3455 H3479 0.949 . S
H3456 C3460 0.949 . S
C3457 C3458 1.349 . S
C3457 C3459 1.327 . S
C3457 H3480 0.950 . S
C3458 C3457 1.349 . S
C3458 C3470 1.349 . S
C3459 C3457 1.327 . S
C3459 C3475 1.429 . S
C3459 H3481 0.950 . S
C3460 H3456 0.949 . S
C3460 C3468 1.574 . S
C3460 C3476 1.368 . S
H3461 C3469 0.950 . S
H3462 C3467 0.950 . S
H3463 C3468 0.949 . S
H3464 C3470 0.950 . S
H3465 C3471 0.950 . S
H3466 C3472 0.949 . S
C3467 H3462 0.950 . S
C3467 C3469 1.327 . S
C3467 C3473 1.429 . S
C3468 C3460 1.574 . S
C3468 H3463 0.949 . S
C3468 C3474 1.368 . S
C3469 C3453 1.349 . S
C3469 H3461 0.950 . S
C3469 C3467 1.327 . S
C3470 C3458 1.349 . S
C3470 H3464 0.950 . S
C3470 C3471 1.327 . S
C3471 H3465 0.950 . S
C3471 C3470 1.327 . S
C3471 C3475 1.429 . S
C3472 C3455 1.574 . S
C3472 H3466 0.949 . S
C3472 C3476 1.368 . S
C3473 C3454 1.429 . S
C3473 C3467 1.429 . S
C3473 C3474 1.523 . S
C3474 C3455 1.368 . S
C3474 C3468 1.368 . S
C3474 C3473 1.523 . S
C3475 C3459 1.429 . S
C3475 C3471 1.429 . S
C3475 C3476 1.523 . S
C3476 C3460 1.368 . S
C3476 C3472 1.368 . S
C3476 C3475 1.523 . S
H3477 C3452 0.950 1_545 S
H3478 C3454 0.950 . S
H3479 C3455 0.949 . S
H3480 C3457 0.950 . S
H3481 C3459 0.950 . S
C3482 C3483 1.349 . S
C3482 C3484 1.327 . S
C3482 H3507 0.950 . S
C3483 C3482 1.349 . S
C3483 C3499 1.349 . S
C3484 C3482 1.327 . S
C3484 C3503 1.429 . S
C3484 H3508 0.950 . S
C3485 C3502 1.574 . S
C3485 C3504 1.368 . S
C3485 H3509 0.949 . S
H3486 C3490 0.949 . S
C3487 C3488 1.349 . S
C3487 C3489 1.327 . S
C3487 H3510 0.950 . S
C3488 C3487 1.349 . S
C3488 C3500 1.349 . S
C3489 C3487 1.327 . S
C3489 C3505 1.429 . S
C3489 H3511 0.950 . S
C3490 H3486 0.949 . S
C3490 C3498 1.574 . S
C3490 C3506 1.368 . S
H3491 C3499 0.950 . S
H3492 C3497 0.950 . S
H3493 C3498 0.949 . S
H3494 C3500 0.950 . S
H3495 C3501 0.950 . S
H3496 C3502 0.949 . S
C3497 H3492 0.950 . S
C3497 C3499 1.327 . S
C3497 C3503 1.429 . S
C3498 C3490 1.574 . S
C3498 H3493 0.949 . S
C3498 C3504 1.368 . S
C3499 C3483 1.349 . S
C3499 H3491 0.950 . S
C3499 C3497 1.327 . S
C3500 C3488 1.349 . S
C3500 H3494 0.950 . S
C3500 C3501 1.327 . S
C3501 H3495 0.950 . S
C3501 C3500 1.327 . S
C3501 C3505 1.429 . S
C3502 C3485 1.574 . S
C3502 H3496 0.949 . S
C3502 C3506 1.368 . S
C3503 C3484 1.429 . S
C3503 C3497 1.429 . S
C3503 C3504 1.523 . S
C3504 C3485 1.368 . S
C3504 C3498 1.368 . S
C3504 C3503 1.523 . S
C3505 C3489 1.429 . S
C3505 C3501 1.429 . S
C3505 C3506 1.523 . S
C3506 C3490 1.368 . S
C3506 C3502 1.368 . S
C3506 C3505 1.523 . S
H3507 C3482 0.950 . S
H3508 C3484 0.950 . S
H3509 C3485 0.949 . S
H3510 C3487 0.950 . S
H3511 C3489 0.950 . S
C633 C101 1.191 . S
C638 C328 1.164 . S
C663 C57 1.185 . S
C668 C341 1.206 . S
C693 C73 1.264 . S
C698 C360 1.289 . S
C728 C391 1.926 . S
C723 C78 1.941 . S
C753 C21 1.828 . S
C758 C411 1.821 . S
C788 C428 0.743 . S
C783 C31 0.744 . S
C818 C441 1.472 . S
C813 C49 1.477 . S
C843 C0 0.851 . S
C848 C468 0.852 . S
C878 C321 1.100 . S
C873 C218 1.110 . S
C903 C229 1.314 . S
C908 C351 1.330 . S
C938 C353 1.688 . S
C933 C257 1.725 . S
C968 C388 0.765 . S
C963 C164 0.763 . S
C993 C216 1.005 . S
C998 C408 1.041 . S
C1028 C421 1.767 . S
C1023 C231 1.771 . S
C1058 C451 1.143 . S
C1053 C255 1.135 . S
C1088 C461 1.124 . S
C1083 C166 1.145 . S
C1118 C331 1.527 . S
C1113 C143 1.535 . S
C1143 C265 1.822 . S
C1148 C481 1.858 . S
C1178 C511 1.499 . S
C1173 C299 1.480 . S
C1208 C528 1.125 . S
C1203 C291 1.116 . S
C1233 C104 1.879 . S
C1238 C471 1.859 . S
C1263 C117 1.101 . S
C1268 C358 1.100 . S
C1293 C304 1.809 . S
C1298 C541 1.849 . S
C1328 C568 0.762 . S
C1323 C278 0.762 . S
C1358 C318 1.105 . S
C1353 C60 1.119 . S
C1388 C553 1.124 . S
C1383 C96 1.115 . S
C1413 C88 1.213 . S
C1418 C371 1.195 . S
C1443 C65 1.831 . S
C1448 C540 1.841 . S
C1478 C400 1.730 . S
C1473 C10 1.764 . S
C1503 C44 0.674 . S
C1508 C498 0.666 . S
C1538 C433 1.419 1_556 S
C1533 C34 1.375 . S
C1568 C578 0.784 . S
C1563 C13 0.788 . S
C1598 C313 1.020 . S
C1593 C138 1.008 1_565 S
C1628 C560 1.229 . S
C1623 C296 1.252 . S
C1653 C112 1.577 . S
C1658 C361 1.606 . S
C1683 C270 0.656 . S
C1688 C538 0.660 . S
C1713 C140 0.938 . S
C1718 C398 0.930 . S
C1748 C493 1.702 . S
C1743 C294 1.633 . S
C1773 C114 1.078 . S
C1778 C440 1.058 . S
C1803 C268 1.046 . S
C1808 C573 1.052 . S
C1833 C169 1.452 1_556 S
C1838 C320 1.454 . S
C1863 C161 1.767 . S
C1868 C473 1.785 . S
C1893 C234 1.447 . S
C1898 C420 1.431 . S
C1923 C226 1.015 . S
C1928 C518 1.029 . S
C1958 C580 1.793 . S
C1953 C247 1.783 . S
C1983 C195 1.065 . S
C1988 C368 1.043 . S
C2018 C373 1.769 . S
C2013 C239 1.754 . S
C2048 C338 0.677 . S
C2043 C187 0.677 . S
C2073 C75 1.191 . S
C2078 C608 1.165 . S
C2108 C561 1.206 . S
C2103 C83 1.184 . S
C2133 C99 1.264 . S
C2138 C620 1.312 . S
C2163 C52 1.941 . S
C2168 C551 1.926 . S
C2193 C47 1.827 . S
C2198 C491 1.821 . S
C2228 C508 0.743 . S
C2223 C5 0.744 . S
C2258 C521 1.472 . S
C2253 C23 1.477 . S
C2288 C588 0.852 . S
C2283 C26 0.851 . S
C2318 C601 1.100 . S
C2313 C244 1.110 . S
C2343 C177 1.314 . S
C2348 C571 1.335 . S
C2378 C613 1.688 . S
C2373 C192 1.726 . S
C2408 C548 0.765 . S
C2403 C203 0.763 . S
C2438 C488 1.041 . S
C2433 C242 1.005 . S
C2463 C179 1.771 . S
C2468 C501 1.761 . S
C2498 C531 1.143 . S
C2493 C190 1.135 . S
C2523 C205 1.145 . S
C2528 C581 1.124 . S
C2558 C611 1.527 . S
C2553 C286 1.535 . S
C2583 C122 1.821 . S
C2588 C401 1.858 . S
C2618 C431 1.498 . S
C2613 C130 1.485 . S
C2648 C448 1.125 . S
C2643 C148 1.116 . S
C2678 C591 1.859 . S
C2673 C273 1.879 . S
C2703 C260 1.101 . S
C2708 C618 1.100 . S
C2738 C381 1.848 . S
C2733 C135 1.803 . S
C2768 C348 0.762 . S
C2763 C109 0.762 1_565 S
C2793 C86 1.119 . S
C2798 C598 1.105 . S
C2828 C333 1.124 . S
C2823 C70 1.115 . S
C2853 C62 1.213 . S
C2858 C631 1.195 . S
C2883 C91 1.831 . S
C2888 C380 1.841 . S
C2913 C36 1.764 . S
C2918 C480 1.730 1_556 S
C2948 C418 0.666 . S
C2943 C18 0.672 . S
C2973 C8 1.375 . S
C2978 C513 1.419 . S
C3003 C39 0.785 . S
C3008 C458 0.784 . S
C3038 C593 1.020 . S
C3033 C307 1.007 . S
C3063 C153 1.252 . S
C3068 C340 1.229 . S
C3098 C621 1.606 1_655 S
C3093 C281 1.577 . S
C3123 C127 0.656 . S
C3128 C378 0.660 . S
C3153 C309 0.938 . S
C3158 C478 0.934 . S
C3188 C413 1.702 . S
C3183 C151 1.633 . S
C3213 C283 1.077 . S
C3218 C520 1.042 1_655 S
C3248 C453 1.052 . S
C3243 C125 1.046 . S
C3278 C600 1.453 . S
C3273 C221 1.459 . S
C3308 C393 1.785 . S
C3303 C200 1.767 . S
C3333 C208 1.447 . S
C3338 C500 1.431 . S
C3368 C438 1.029 . S
C3363 C174 1.015 1_556 S
C3393 C182 1.783 . S
C3398 C460 1.793 . S
C3423 C156 1.065 . S
C3428 C628 1.043 . S
C3458 C533 1.769 . S
C3453 C213 1.754 1_565 S
C3488 C558 0.677 . S
C3483 C252 0.677 . S
