# Generated by pormake.
# Topology sit, (3,6)-cn, num edge types: 1
# Building blocks:
#     Node 0, Type 0, BuildingBlock: WUSLED_clean_sbu_0, # of connection points: 3
#     Node 1, Type 0, BuildingBlock: WUSLED_clean_sbu_0, # of connection points: 3
#     Node 2, Type 0, BuildingBlock: WUSLED_clean_sbu_0, # of connection points: 3
#     Node 3, Type 0, BuildingBlock: WUSLED_clean_sbu_0, # of connection points: 3
#     Node 4, Type 1, BuildingBlock: MIDCAF_clean_sbu_0, # of connection points: 6
#     Node 5, Type 1, BuildingBlock: MIDCAF_clean_sbu_0, # of connection points: 6
#     Edge 6, Type (0, 1), BuildingBlock: MIFKUJ_clean_linker_0, # of connection points: 2
#     Edge 7, Type (0, 1), BuildingBlock: MIFKUJ_clean_linker_0, # of connection points: 2
#     Edge 8, Type (0, 1), BuildingBlock: MIFKUJ_clean_linker_0, # of connection points: 2
#     Edge 9, Type (0, 1), BuildingBlock: MIFKUJ_clean_linker_0, # of connection points: 2
#     Edge 10, Type (0, 1), BuildingBlock: MIFKUJ_clean_linker_0, # of connection points: 2
#     Edge 11, Type (0, 1), BuildingBlock: MIFKUJ_clean_linker_0, # of connection points: 2
#     Edge 12, Type (0, 1), BuildingBlock: MIFKUJ_clean_linker_0, # of connection points: 2
#     Edge 13, Type (0, 1), BuildingBlock: MIFKUJ_clean_linker_0, # of connection points: 2
#     Edge 14, Type (0, 1), BuildingBlock: MIFKUJ_clean_linker_0, # of connection points: 2
#     Edge 15, Type (0, 1), BuildingBlock: MIFKUJ_clean_linker_0, # of connection points: 2
#     Edge 16, Type (0, 1), BuildingBlock: MIFKUJ_clean_linker_0, # of connection points: 2
#     Edge 17, Type (0, 1), BuildingBlock: MIFKUJ_clean_linker_0, # of connection points: 2
# Relax obj value: 0.107
# Max RMSD: 0.192
# Mean RMSD: 0.103
data_MOF--net-sit--node1-WUSLED_clean_sbu_0--node2-MIDCAF_clean_sbu_0--edge1-MIFKUJ_clean_linker_0
_symmetry_space_group_name_H-M    P1
_symmetry_Int_Tables_number       1
_symmetry_cell_setting            triclinic
loop_
_symmetry_equiv_pos_as_xyz
'x, y, z'
_cell_length_a     36.818135
_cell_length_b     50.970548
_cell_length_c     56.479475
_cell_angle_alpha  90.225373
_cell_angle_beta   88.903619
_cell_angle_gamma 84.540689
loop_
_atom_site_label
_atom_site_type_symbol
_atom_site_fract_x
_atom_site_fract_y
_atom_site_fract_z
_atom_type_partial_charge
C0 C 0.98442 0.33495 0.03526 0.0
C1 C 0.99364 0.35336 0.01831 0.0
C2 C 0.92987 0.37048 0.01561 0.0
C3 C 0.96664 0.37091 0.00854 0.0
C4 C 0.92081 0.35229 0.03294 0.0
C5 C 0.94792 0.33459 0.04265 0.0
U6 U 0.08424 0.31348 0.03985 0.0
O7 O 0.11805 0.29943 0.06981 0.0
O8 O 0.11504 0.2743 0.03841 0.0
C9 C 0.12618 0.27596 0.06031 0.0
C10 C 0.01306 0.31623 0.04502 0.0
C11 C 0.11932 0.25362 0.07568 0.0
C12 C 0.07728 0.22677 0.09584 0.0
C13 C 0.08359 0.24755 0.08063 0.0
C14 C 0.14239 0.21771 0.10113 0.0
C15 C 0.10659 0.21169 0.10645 0.0
C16 C 0.14865 0.23849 0.0859 0.0
C17 C 0.14384 0.35982 0.00411 0.0
C18 C 0.20871 0.35462 0.99431 0.0
C19 C 0.17208 0.39475 0.98378 0.0
C20 C 0.14134 0.3849 0.9939 0.0
C21 C 0.2061 0.37968 0.98364 0.0
C22 C 0.17772 0.34471 0.00444 0.0
C23 C 0.11019 0.35009 0.01356 0.0
O24 O 0.03136 0.30099 0.0292 0.0
O25 O 0.03422 0.32643 0.06035 0.0
O26 O 0.10407 0.35273 0.03648 0.0
O27 O 0.10139 0.32757 0.005 0.0
H28 H 0.02177 0.35404 0.01253 0.0
H29 H 0.97458 0.38491 0.9955 0.0
H30 H 0.89269 0.35135 0.03861 0.0
H31 H 0.94038 0.32053 0.05577 0.0
H32 H 0.04941 0.22251 0.09927 0.0
H33 H 0.06058 0.25902 0.07285 0.0
H34 H 0.16557 0.2068 0.10921 0.0
H35 H 0.17641 0.24295 0.08233 0.0
H36 H 0.23449 0.34246 0.99437 0.0
H37 H 0.16921 0.41427 0.97613 0.0
H38 H 0.11539 0.39687 0.99357 0.0
H39 H 0.1801 0.32527 0.01226 0.0
C40 C 0.94237 0.70472 0.03321 0.0
C41 C 0.95366 0.67953 0.02413 0.0
C42 C 0.89194 0.67439 0.01136 0.0
C43 C 0.92872 0.66448 0.01341 0.0
C44 C 0.88063 0.69958 0.02075 0.0
C45 C 0.90569 0.71463 0.03155 0.0
U46 U 0.04076 0.71473 0.03889 0.0
O47 O 0.07115 0.74977 0.03644 0.0
O48 O 0.07428 0.72564 0.0686 0.0
C49 C 0.08319 0.7472 0.05816 0.0
C50 C 0.9695 0.72094 0.04308 0.0
C51 C 0.07971 0.77124 0.0729 0.0
C52 C 0.04407 0.80961 0.08994 0.0
C53 C 0.04634 0.78679 0.07581 0.0
C54 C 0.1084 0.80142 0.09838 0.0
C55 C 0.07513 0.81723 0.10141 0.0
C56 C 0.11062 0.77872 0.08426 0.0
C57 C 0.10325 0.66066 0.00492 0.0
C58 C 0.16721 0.64514 0.00969 0.0
C59 C 0.13591 0.63407 0.97418 0.0
C60 C 0.10398 0.64805 0.98281 0.0
C61 C 0.1679 0.63236 0.98751 0.0
C62 C 0.13511 0.65927 0.01832 0.0
C63 C 0.06834 0.67394 0.01369 0.0
O64 O 0.99051 0.70927 0.05925 0.0
O65 O 0.98779 0.73339 0.02717 0.0
O66 O 0.05824 0.69702 0.00441 0.0
O67 O 0.06156 0.6729 0.03659 0.0
H68 H 0.98195 0.67158 0.02511 0.0
H69 H 0.93829 0.64506 0.00673 0.0
H70 H 0.85262 0.70794 0.01923 0.0
H71 H 0.89658 0.73414 0.03826 0.0
H72 H 0.01809 0.82139 0.0917 0.0
H73 H 0.02214 0.7813 0.06716 0.0
H74 H 0.13269 0.8063 0.10726 0.0
H75 H 0.13657 0.7669 0.0823 0.0
H76 H 0.19152 0.6444 0.02025 0.0
H77 H 0.13534 0.62416 0.9572 0.0
H78 H 0.07958 0.64875 0.9723 0.0
H79 H 0.13512 0.6689 0.03544 0.0
C80 C 0.48958 0.80586 0.51321 0.0
C81 C 0.49778 0.82202 0.49416 0.0
C82 C 0.43301 0.83338 0.48758 0.0
C83 C 0.46981 0.83554 0.48141 0.0
C84 C 0.42496 0.817 0.50665 0.0
C85 C 0.45303 0.80337 0.51934 0.0
U86 U 0.58734 0.8023 0.53159 0.0
O87 O 0.61332 0.79564 0.56605 0.0
O88 O 0.62892 0.76884 0.53629 0.0
C89 C 0.63183 0.77356 0.55905 0.0
C90 C 0.51914 0.79263 0.52724 0.0
C91 C 0.62882 0.75085 0.57471 0.0
C92 C 0.5927 0.7193 0.59406 0.0
C93 C 0.59529 0.7404 0.57849 0.0
C94 C 0.65723 0.71871 0.60192 0.0
C95 C 0.6236 0.70835 0.60614 0.0
C96 C 0.65977 0.73976 0.58637 0.0
C97 C 0.64045 0.85683 0.50286 0.0
C98 C 0.70369 0.86489 0.50876 0.0
C99 C 0.66614 0.8926 0.48224 0.0
C100 C 0.63675 0.87803 0.48715 0.0
C101 C 0.69997 0.88632 0.49301 0.0
C102 C 0.67405 0.85026 0.5137 0.0
C103 C 0.60855 0.84226 0.50746 0.0
O104 O 0.54613 0.78023 0.51483 0.0
O105 O 0.53031 0.80692 0.54459 0.0
O106 O 0.59399 0.8446 0.52887 0.0
O107 O 0.6102 0.81814 0.49893 0.0
H108 H 0.52589 0.82434 0.48924 0.0
H109 H 0.47707 0.84762 0.46665 0.0
H110 H 0.39697 0.81517 0.51212 0.0
H111 H 0.44622 0.79118 0.53415 0.0
H112 H 0.56632 0.71201 0.59707 0.0
H113 H 0.57108 0.74877 0.56962 0.0
H114 H 0.68167 0.71051 0.61062 0.0
H115 H 0.6859 0.74752 0.58357 0.0
H116 H 0.72933 0.85962 0.51741 0.0
H117 H 0.66247 0.90856 0.46964 0.0
H118 H 0.61102 0.88328 0.47857 0.0
H119 H 0.6773 0.83391 0.52592 0.0
C120 C 0.4274 0.21471 0.52184 0.0
C121 C 0.43977 0.1963 0.50426 0.0
C122 C 0.37754 0.18585 0.49784 0.0
C123 C 0.41511 0.18204 0.49237 0.0
C124 C 0.36525 0.20434 0.51552 0.0
C125 C 0.39004 0.21868 0.52742 0.0
U126 U 0.52534 0.22379 0.53301 0.0
O127 O 0.55495 0.25896 0.53695 0.0
O128 O 0.55522 0.23 0.56569 0.0
C129 C 0.56438 0.25312 0.5588 0.0
C130 C 0.45382 0.22913 0.53456 0.0
C131 C 0.55887 0.2746 0.57648 0.0
C132 C 0.52844 0.31631 0.59082 0.0
C133 C 0.53169 0.29569 0.57418 0.0
C134 C 0.57896 0.29472 0.61241 0.0
C135 C 0.55209 0.31605 0.61012 0.0
C136 C 0.58231 0.27427 0.59575 0.0
C137 C 0.59452 0.17648 0.49748 0.0
C138 C 0.65744 0.1616 0.50646 0.0
C139 C 0.63526 0.15649 0.46676 0.0
C140 C 0.60097 0.16813 0.474 0.0
C141 C 0.66386 0.1528 0.48295 0.0
C142 C 0.62308 0.17339 0.51366 0.0
C143 C 0.55745 0.18737 0.50466 0.0
O144 O 0.47355 0.21494 0.54987 0.0
O145 O 0.47329 0.24373 0.52112 0.0
O146 O 0.54752 0.21153 0.49774 0.0
O147 O 0.54706 0.1827 0.52652 0.0
H148 H 0.46861 0.19282 0.49986 0.0
H149 H 0.42559 0.16767 0.47915 0.0
H150 H 0.33647 0.20789 0.52002 0.0
H151 H 0.38006 0.23279 0.54098 0.0
H152 H 0.50727 0.33235 0.58869 0.0
H153 H 0.51315 0.29634 0.55949 0.0
H154 H 0.59796 0.29408 0.62685 0.0
H155 H 0.60359 0.25827 0.59778 0.0
H156 H 0.67874 0.15891 0.51943 0.0
H157 H 0.63938 0.15049 0.44842 0.0
H158 H 0.5793 0.17043 0.46123 0.0
H159 H 0.61872 0.17975 0.53191 0.0
Zn160 Zn 0.06601 0.06108 0.35229 0.0
Zn161 Zn 0.0593 0.96182 0.34827 0.0
Zn162 Zn 0.0663 0.0114 0.35085 0.0
C163 C 0.06289 0.97719 0.30194 0.0
C164 C -0.00097 0.9806 0.37365 0.0
O165 O 0.11682 0.02009 0.36957 0.0
O166 O 0.11679 0.06265 0.36193 0.0
C167 C 0.0595 0.0503 0.30529 0.0
O168 O 0.06649 0.99932 0.31245 0.0
O169 O 0.05902 0.95679 0.31389 0.0
O170 O 0.0127 0.95904 0.36489 0.0
O171 O 0.01512 1.0018 0.3704 0.0
O172 O 0.05432 0.06972 0.31923 0.0
O173 O 0.06658 0.02682 0.31358 0.0
O174 O 0.01692 0.02918 0.3708 0.0
O175 O 0.02756 0.07072 0.37634 0.0
C176 C 0.00772 0.05223 0.37983 0.0
O177 O 0.11542 0.99213 0.36884 0.0
O178 O 0.10407 0.9505 0.36551 0.0
C179 C 0.13214 0.04181 0.37061 0.0
C180 C 0.12422 0.96743 0.37278 0.0
Zn181 Zn 0.55682 0.56593 0.85668 0.0
Zn182 Zn 0.59634 0.46313 0.85345 0.0
Zn183 Zn 0.57537 0.51517 0.85342 0.0
C184 C 0.58885 0.47989 0.80595 0.0
C185 C 0.52655 0.47124 0.87507 0.0
O186 O 0.61599 0.53357 0.87488 0.0
O187 O 0.59053 0.57395 0.88229 0.0
C188 C 0.57899 0.55448 0.80946 0.0
O189 O 0.58062 0.50266 0.81571 0.0
O190 O 0.59711 0.45979 0.81845 0.0
O191 O 0.55236 0.45334 0.87174 0.0
O192 O 0.53019 0.49516 0.86887 0.0
O193 O 0.57228 0.5735 0.82376 0.0
O194 O 0.57867 0.53054 0.81671 0.0
O195 O 0.52025 0.52257 0.87028 0.0
O196 O 0.50434 0.56504 0.86485 0.0
C197 C 0.49659 0.54284 0.87216 0.0
O198 O 0.62601 0.50626 0.87438 0.0
O199 O 0.64328 0.4637 0.86974 0.0
C200 C 0.61631 0.55616 0.88522 0.0
C201 C 0.64864 0.48588 0.87827 0.0
H202 H 0.14511 0.16309 0.11148 0.0
H203 H 0.13598 0.12976 0.14156 0.0
H204 H 0.04329 0.17865 0.17015 0.0
H205 H 0.05297 0.21235 0.14076 0.0
H206 H 0.08741 0.16188 0.2043 0.0
H207 H 0.03397 0.12197 0.13785 0.0
H208 H 0.03211 0.10399 0.09735 0.0
H209 H 0.1207 0.04598 0.11282 0.0
H210 H 0.12344 0.06387 0.15334 0.0
H211 H 0.00799 0.08075 0.28226 0.0
H212 H 0.01503 0.10126 0.24365 0.0
H213 H 0.11814 0.05487 0.23252 0.0
H214 H 0.11119 0.03437 0.27151 0.0
H215 H 0.07299 0.06751 0.18887 0.0
H216 H 0.12628 0.10832 0.25537 0.0
H217 H 0.12578 0.12561 0.29622 0.0
H218 H 0.03573 0.18215 0.28012 0.0
H219 H 0.03528 0.16484 0.23926 0.0
C220 C 0.1228 0.16677 0.12419 0.0
C221 C 0.09982 0.19049 0.12368 0.0
C222 C 0.11737 0.14754 0.14123 0.0
C223 C 0.08877 0.15157 0.15805 0.0
C224 C 0.0655 0.17503 0.15734 0.0
C225 C 0.0709 0.19423 0.14036 0.0
C226 C 0.08418 0.13222 0.17732 0.0
C227 C 0.0839 0.14133 0.20081 0.0
C228 C 0.08067 0.10516 0.17292 0.0
C229 C 0.0792 0.09447 0.14854 0.0
C230 C 0.0533 0.10555 0.13255 0.0
C231 C 0.05204 0.09534 0.1096 0.0
C232 C 0.07635 0.07392 0.10249 0.0
C233 C 0.10193 0.06262 0.11833 0.0
C234 C 0.10334 0.07277 0.1413 0.0
C235 C 0.03145 0.07415 0.27116 0.0
C236 C 0.0589 0.05581 0.2797 0.0
C237 C 0.03548 0.08591 0.24914 0.0
C238 C 0.06728 0.0798 0.23536 0.0
C239 C 0.09329 0.05972 0.24284 0.0
C240 C 0.08919 0.04785 0.265 0.0
C241 C 0.07558 0.09746 0.21555 0.0
C242 C 0.07673 0.08805 0.19216 0.0
C243 C 0.0799 0.12433 0.21991 0.0
C244 C 0.08054 0.13512 0.24433 0.0
C245 C 0.1062 0.1243 0.26059 0.0
C246 C 0.1061 0.13412 0.28374 0.0
C247 C 0.08069 0.15493 0.29078 0.0
C248 C 0.05538 0.16601 0.27465 0.0
C249 C 0.0553 0.15621 0.25149 0.0
H250 H 0.08065 0.1625 0.30871 0.0
H251 H 0.07531 0.06602 0.08472 0.0
H252 H 0.02004 0.83516 0.13255 0.0
H253 H 0.01868 0.87233 0.16007 0.0
H254 H 0.1241 0.89026 0.13364 0.0
H255 H 0.12544 0.85336 0.10574 0.0
H256 H 0.12229 0.88774 0.18127 0.0
H257 H 0.0485 0.93152 0.12221 0.0
H258 H 0.99833 0.93736 0.09384 0.0
H259 H 0.91985 0.93453 0.15077 0.0
H260 H 0.96955 0.9283 0.17946 0.0
H261 H 0.11507 0.9869 0.26874 0.0
H262 H 0.11798 0.97094 0.22753 0.0
H263 H 0.01162 0.94297 0.23685 0.0
H264 H 0.00834 0.95967 0.27741 0.0
H265 H 0.01989 0.95754 0.19248 0.0
H266 H 0.09167 0.90393 0.24909 0.0
H267 H 0.14007 0.89591 0.27854 0.0
H268 H 0.22034 0.91512 0.2269 0.0
H269 H 0.17228 0.92357 0.19723 0.0
C270 C 0.04261 0.84731 0.13219 0.0
C271 C 0.07293 0.84111 0.11695 0.0
C272 C 0.0418 0.8686 0.14798 0.0
C273 C 0.07119 0.88424 0.14884 0.0
C274 C 0.10113 0.87847 0.13333 0.0
C275 C 0.10192 0.85724 0.11748 0.0
C276 C 0.07177 0.90528 0.16715 0.0
C277 C 0.10033 0.9034 0.18335 0.0
C278 C 0.04283 0.92545 0.17017 0.0
C279 C 0.01281 0.92927 0.15297 0.0
C280 C 0.02056 0.93195 0.12867 0.0
C281 C 0.9922 0.93537 0.11253 0.0
C282 C 0.95593 0.93627 0.1205 0.0
C283 C 0.94796 0.93382 0.14463 0.0
C284 C 0.97622 0.93039 0.16084 0.0
C285 C 0.09167 0.97857 0.2615 0.0
C286 C 0.0613 0.97477 0.27602 0.0
C287 C 0.09352 0.96907 0.2381 0.0
C288 C 0.06529 0.95526 0.22919 0.0
C289 C 0.03375 0.9535 0.24321 0.0
C290 C 0.03188 0.96304 0.26641 0.0
C291 C 0.06994 0.93957 0.20686 0.0
C292 C 0.04233 0.94232 0.18997 0.0
C293 C 0.0995 0.91994 0.20332 0.0
C294 C 0.12839 0.91469 0.22107 0.0
C295 C 0.11963 0.90659 0.24408 0.0
C296 C 0.14698 0.90196 0.2608 0.0
C297 C 0.18324 0.90509 0.25462 0.0
C298 C 0.19223 0.91278 0.23168 0.0
C299 C 0.16496 0.91749 0.21491 0.0
H300 H 0.20439 0.90149 0.26759 0.0
H301 H 0.93401 0.93892 0.10798 0.0
H302 H 0.65561 0.70297 0.64934 0.0
H303 H 0.65054 0.66817 0.67833 0.0
H304 H 0.57948 0.63019 0.63207 0.0
H305 H 0.58456 0.6651 0.60276 0.0
H306 H 0.55289 0.63214 0.6765 0.0
H307 H 0.66709 0.60327 0.64016 0.0
H308 H 0.72914 0.60711 0.62419 0.0
H309 H 0.7644 0.62781 0.69325 0.0
H310 H 0.70243 0.62448 0.70959 0.0
H311 H 0.55262 0.53584 0.7681 0.0
H312 H 0.56356 0.55205 0.72786 0.0
H313 H 0.63622 0.60555 0.75597 0.0
H314 H 0.6262 0.58877 0.79569 0.0
H315 H 0.66171 0.58619 0.71407 0.0
H316 H 0.54462 0.62426 0.74734 0.0
H317 H 0.48241 0.62134 0.76351 0.0
H318 H 0.45317 0.58306 0.6997 0.0
H319 H 0.5154 0.58551 0.68329 0.0
C320 C 0.63934 0.68703 0.64511 0.0
C321 C 0.62071 0.68677 0.62361 0.0
C322 C 0.63646 0.6671 0.66174 0.0
C323 C 0.61513 0.64627 0.65724 0.0
C324 C 0.59623 0.64599 0.63588 0.0
C325 C 0.59905 0.66601 0.6192 0.0
C326 C 0.61159 0.62556 0.67542 0.0
C327 C 0.57667 0.6216 0.68432 0.0
C328 C 0.64256 0.61187 0.68577 0.0
C329 C 0.68001 0.61374 0.67607 0.0
C330 C 0.68801 0.6088 0.65192 0.0
C331 C 0.72319 0.61087 0.6428 0.0
C332 C 0.75068 0.61773 0.65769 0.0
C333 C 0.74308 0.62249 0.68174 0.0
C334 C 0.70794 0.62047 0.69095 0.0
C335 C 0.57202 0.5502 0.76542 0.0
C336 C 0.58897 0.56076 0.78485 0.0
C337 C 0.57784 0.55979 0.74253 0.0
C338 C 0.60049 0.58023 0.7389 0.0
C339 C 0.61875 0.58976 0.75825 0.0
C340 C 0.61289 0.58024 0.78096 0.0
C341 C 0.60317 0.59361 0.71566 0.0
C342 C 0.63793 0.5962 0.7058 0.0
C343 C 0.57209 0.60604 0.70444 0.0
C344 C 0.5347 0.60478 0.71422 0.0
C345 C 0.52496 0.61508 0.73684 0.0
C346 C 0.48971 0.61353 0.74603 0.0
C347 C 0.46388 0.60195 0.73267 0.0
C348 C 0.47323 0.59197 0.71005 0.0
C349 C 0.50847 0.59344 0.70079 0.0
H350 H 0.43661 0.60076 0.73982 0.0
H351 H 0.7779 0.61933 0.6506 0.0
H352 H 0.54216 0.36928 0.60184 0.0
H353 H 0.54233 0.40518 0.63088 0.0
H354 H 0.55713 0.34824 0.687 0.0
H355 H 0.55612 0.31243 0.65826 0.0
H356 H 0.50959 0.38889 0.70057 0.0
H357 H 0.62925 0.3765 0.66272 0.0
H358 H 0.6724 0.37457 0.62867 0.0
H359 H 0.63674 0.45479 0.61152 0.0
H360 H 0.59301 0.45707 0.64533 0.0
H361 H 0.63914 0.45421 0.77661 0.0
H362 H 0.62785 0.43551 0.73784 0.0
H363 H 0.51921 0.47563 0.73925 0.0
H364 H 0.53029 0.4938 0.77849 0.0
H365 H 0.60729 0.44928 0.69353 0.0
H366 H 0.46181 0.43111 0.72125 0.0
H367 H 0.42346 0.43052 0.75757 0.0
H368 H 0.51817 0.40616 0.79809 0.0
H369 H 0.55693 0.40627 0.76196 0.0
C370 C 0.54484 0.36445 0.62042 0.0
C371 C 0.54943 0.33799 0.62773 0.0
C372 C 0.54519 0.38498 0.63697 0.0
C373 C 0.55011 0.37941 0.6611 0.0
C374 C 0.55333 0.35304 0.66849 0.0
C375 C 0.55308 0.33257 0.652 0.0
C376 C 0.5537 0.40073 0.67871 0.0
C377 C 0.53062 0.40233 0.69884 0.0
C378 C 0.58129 0.4182 0.67661 0.0
C379 C 0.60756 0.41685 0.65634 0.0
C380 C 0.63041 0.39365 0.65156 0.0
C381 C 0.655 0.39251 0.63234 0.0
C382 C 0.65722 0.41451 0.61789 0.0
C383 C 0.63492 0.43774 0.62269 0.0
C384 C 0.61024 0.43898 0.64188 0.0
C385 C 0.61336 0.45981 0.7682 0.0
C386 C 0.58576 0.47572 0.78029 0.0
C387 C 0.60691 0.44914 0.74605 0.0
C388 C 0.57253 0.45389 0.73575 0.0
C389 C 0.54587 0.47157 0.74693 0.0
C390 C 0.55234 0.48222 0.76919 0.0
C391 C 0.5634 0.43725 0.71543 0.0
C392 C 0.58551 0.43641 0.69487 0.0
C393 C 0.5354 0.42007 0.71732 0.0
C394 C 0.51224 0.41902 0.73898 0.0
C395 C 0.47437 0.42551 0.7379 0.0
C396 C 0.45259 0.42527 0.75844 0.0
C397 C 0.46841 0.41843 0.78014 0.0
C398 C 0.50598 0.41155 0.78129 0.0
C399 C 0.52785 0.41169 0.76079 0.0
H400 H 0.45156 0.41845 0.79604 0.0
H401 H 0.67629 0.41359 0.60302 0.0
H402 H 0.2763 0.37732 0.9996 0.0
H403 H 0.32874 0.39566 0.98085 0.0
H404 H 0.26114 0.42465 0.92325 0.0
H405 H 0.20895 0.40577 0.94154 0.0
H406 H 0.32451 0.40248 0.90662 0.0
H407 H 0.28654 0.46739 0.9649 0.0
H408 H 0.26836 0.4852 0.00448 0.0
H409 H 0.37299 0.45651 0.03128 0.0
H410 H 0.39167 0.43827 0.9919 0.0
H411 H 0.45699 0.48573 0.8613 0.0
H412 H 0.4002 0.47284 0.87957 0.0
H413 H 0.46271 0.42848 0.93231 0.0
H414 H 0.51938 0.44102 0.91393 0.0
H415 H 0.39936 0.46189 0.95027 0.0
H416 H 0.43472 0.39577 0.88982 0.0
H417 H 0.45071 0.38067 0.84908 0.0
H418 H 0.34726 0.41555 0.82506 0.0
H419 H 0.3309 0.43125 0.86562 0.0
C420 C 0.27269 0.3874 0.98285 0.0
C421 C 0.23839 0.39019 0.97214 0.0
C422 C 0.30258 0.39814 0.97227 0.0
C423 C 0.29877 0.41188 0.95079 0.0
C424 C 0.26471 0.41428 0.93987 0.0
C425 C 0.23484 0.40362 0.95045 0.0
C426 C 0.33046 0.42324 0.93944 0.0
C427 C 0.34052 0.41577 0.91608 0.0
C428 C 0.35153 0.44051 0.95175 0.0
C429 C 0.34035 0.4512 0.97552 0.0
C430 C 0.30555 0.46466 0.97929 0.0
C431 C 0.29518 0.47489 0.00167 0.0
C432 C 0.31946 0.47191 0.0204 0.0
C433 C 0.35419 0.45876 0.01677 0.0
C434 C 0.3647 0.4485 0.99441 0.0
C435 C 0.45844 0.47336 0.87687 0.0
C436 C 0.49234 0.46442 0.88635 0.0
C437 C 0.42612 0.46598 0.88723 0.0
C438 C 0.42737 0.4497 0.90726 0.0
C439 C 0.46123 0.44114 0.91693 0.0
C440 C 0.4935 0.44817 0.90638 0.0
C441 C 0.39357 0.44071 0.91774 0.0
C442 C 0.38313 0.44869 0.94087 0.0
C443 C 0.37183 0.42426 0.90509 0.0
C444 C 0.38176 0.41493 0.8807 0.0
C445 C 0.41554 0.40046 0.87581 0.0
C446 C 0.42464 0.39175 0.85276 0.0
C447 C 0.40003 0.39718 0.83449 0.0
C448 C 0.3663 0.41138 0.83923 0.0
C449 C 0.3571 0.42018 0.86224 0.0
H450 H 0.40703 0.39029 0.81668 0.0
H451 H 0.31139 0.47985 0.03772 0.0
H452 H 0.82059 0.66868 0.02359 0.0
H453 H 0.77773 0.64344 0.00276 0.0
H454 H 0.86149 0.61862 0.95079 0.0
H455 H 0.90406 0.64462 0.97098 0.0
H456 H 0.80027 0.63329 0.92951 0.0
H457 H 0.83411 0.57549 0.99284 0.0
H458 H 0.8453 0.56205 0.03416 0.0
H459 H 0.73218 0.58228 0.05199 0.0
H460 H 0.7204 0.59618 0.01083 0.0
H461 H 0.68882 0.54269 0.87672 0.0
H462 H 0.73988 0.55711 0.89905 0.0
H463 H 0.66391 0.59769 0.949 0.0
H464 H 0.61286 0.58355 0.92656 0.0
H465 H 0.72616 0.57009 0.97034 0.0
H466 H 0.69573 0.6313 0.90589 0.0
H467 H 0.68663 0.64211 0.86376 0.0
H468 H 0.79724 0.61204 0.84745 0.0
H469 H 0.80685 0.60076 0.88945 0.0
C470 C 0.82985 0.65799 0.00765 0.0
C471 C 0.86583 0.65866 0.99902 0.0
C472 C 0.80543 0.64328 0.99591 0.0
C473 C 0.81651 0.62879 0.97537 0.0
C474 C 0.85235 0.6295 0.96667 0.0
C475 C 0.87675 0.64423 0.97836 0.0
C476 C 0.79027 0.61377 0.96248 0.0
C477 C 0.78452 0.61918 0.93841 0.0
C478 C 0.76953 0.59539 0.97401 0.0
C479 C 0.77646 0.58711 0.9988 0.0
C480 C 0.81168 0.57728 0.00562 0.0
C481 C 0.81812 0.56954 0.029 0.0
C482 C 0.78949 0.57137 0.0457 0.0
C483 C 0.75434 0.5809 0.03904 0.0
C484 C 0.74776 0.58869 0.01568 0.0
C485 C 0.68316 0.55423 0.89274 0.0
C486 C 0.64706 0.56198 0.90003 0.0
C487 C 0.71229 0.5625 0.90545 0.0
C488 C 0.70565 0.57852 0.92567 0.0
C489 C 0.66959 0.58527 0.9335 0.0
C490 C 0.64052 0.57731 0.92064 0.0
C491 C 0.73582 0.59011 0.93769 0.0
C492 C 0.74225 0.58406 0.96153 0.0
C493 C 0.75746 0.6077 0.92591 0.0
C494 C 0.75186 0.6149 0.90075 0.0
C495 C 0.71802 0.62682 0.89329 0.0
C496 C 0.71279 0.63307 0.86944 0.0
C497 C 0.7413 0.62769 0.85293 0.0
C498 C 0.77516 0.61615 0.86025 0.0
C499 C 0.78052 0.60984 0.88407 0.0
H500 H 0.7372 0.63253 0.83447 0.0
H501 H 0.79452 0.56536 0.0638 0.0
H502 H 0.8717 0.39954 0.03711 0.0
H503 H 0.82456 0.42912 0.0182 0.0
H504 H 0.87603 0.41141 0.94997 0.0
H505 H 0.92318 0.38216 0.96873 0.0
H506 H 0.85601 0.46245 0.95337 0.0
H507 H 0.79938 0.38234 0.9697 0.0
H508 H 0.7785 0.3473 0.99513 0.0
H509 H 0.71091 0.40504 0.03571 0.0
H510 H 0.73177 0.44047 0.01067 0.0
H511 H 0.71869 0.468 0.86841 0.0
H512 H 0.76832 0.46109 0.89648 0.0
H513 H 0.69856 0.49828 0.95163 0.0
H514 H 0.64877 0.50559 0.92323 0.0
H515 H 0.72557 0.44653 0.96153 0.0
H516 H 0.77922 0.52649 0.94217 0.0
H517 H 0.80238 0.56067 0.91671 0.0
H518 H 0.87368 0.50195 0.88003 0.0
H519 H 0.85186 0.46743 0.90573 0.0
C520 C 0.87283 0.40191 0.01807 0.0
C521 C 0.90116 0.38852 0.00441 0.0
C522 C 0.84594 0.41885 0.00729 0.0
C523 C 0.8466 0.4224 0.98262 0.0
C524 C 0.87505 0.40918 0.96904 0.0
C525 C 0.902 0.39244 0.97979 0.0
C526 C 0.81739 0.43926 0.97063 0.0
C527 C 0.82748 0.45894 0.95516 0.0
C528 C 0.78 0.43533 0.97347 0.0
C529 C 0.76749 0.41407 0.98853 0.0
C530 C 0.7803 0.38758 0.98418 0.0
C531 C 0.76843 0.36764 0.99849 0.0
C532 C 0.7435 0.37395 0.01708 0.0
C533 C 0.73029 0.40019 0.02134 0.0
C534 C 0.74212 0.42021 0.0071 0.0
C535 C 0.71441 0.4755 0.88632 0.0
C536 C 0.68014 0.48739 0.89371 0.0
C537 C 0.7428 0.47169 0.90233 0.0
C538 C 0.73722 0.47927 0.92614 0.0
C539 C 0.7035 0.49246 0.9333 0.0
C540 C 0.67518 0.49667 0.91711 0.0
C541 C 0.76435 0.46918 0.9438 0.0
C542 C 0.75394 0.45061 0.96028 0.0
C543 C 0.80145 0.47392 0.94174 0.0
C544 C 0.81373 0.49439 0.92573 0.0
C545 C 0.79967 0.52085 0.92857 0.0
C546 C 0.81268 0.5403 0.91418 0.0
C547 C 0.83916 0.53349 0.89662 0.0
C548 C 0.85308 0.5072 0.89359 0.0
C549 C 0.84064 0.48771 0.90818 0.0
H550 H 0.849 0.54861 0.88545 0.0
H551 H 0.73432 0.35849 0.02814 0.0
H552 H 0.19569 0.6323 0.94239 0.0
H553 H 0.24957 0.60634 0.92627 0.0
H554 H 0.27079 0.5722 0.99499 0.0
H555 H 0.2165 0.59827 0.01132 0.0
H556 H 0.33209 0.58662 0.97481 0.0
H557 H 0.23949 0.53437 0.95124 0.0
H558 H 0.18059 0.52477 0.9348 0.0
H559 H 0.21263 0.55362 0.86696 0.0
H560 H 0.27154 0.56373 0.88306 0.0
H561 H 0.48196 0.5165 0.91275 0.0
H562 H 0.42401 0.51986 0.93543 0.0
H563 H 0.37397 0.56998 0.88137 0.0
H564 H 0.43143 0.56638 0.85869 0.0
H565 H 0.32669 0.53563 0.90011 0.0
H566 H 0.41236 0.59677 0.92792 0.0
H567 H 0.47105 0.60654 0.94462 0.0
H568 H 0.45114 0.55916 0.00536 0.0
H569 H 0.3925 0.54885 0.98883 0.0
C570 C 0.21156 0.61908 0.95406 0.0
C571 C 0.20163 0.6172 0.9781 0.0
C572 C 0.24234 0.60418 0.9448 0.0
C573 C 0.26378 0.58686 0.9593 0.0
C574 C 0.25445 0.58527 0.98344 0.0
C575 C 0.22358 0.60029 0.99276 0.0
C576 C 0.29675 0.57146 0.94915 0.0
C577 C 0.3308 0.57488 0.95884 0.0
C578 C 0.29519 0.55612 0.92829 0.0
C579 C 0.25989 0.54992 0.91841 0.0
C580 C 0.23389 0.53882 0.93285 0.0
C581 C 0.20051 0.53326 0.92358 0.0
C582 C 0.19286 0.53861 0.89986 0.0
C583 C 0.21861 0.54947 0.88533 0.0
C584 C 0.25203 0.55507 0.89451 0.0
C585 C 0.45822 0.52759 0.90548 0.0
C586 C 0.46092 0.54109 0.88397 0.0
C587 C 0.42528 0.52961 0.91847 0.0
C588 C 0.39481 0.54536 0.91016 0.0
C589 C 0.39708 0.55764 0.88806 0.0
C590 C 0.42992 0.55571 0.87518 0.0
C591 C 0.36179 0.55178 0.92526 0.0
C592 C 0.32777 0.54667 0.9165 0.0
C593 C 0.36333 0.56541 0.94704 0.0
C594 C 0.39834 0.57181 0.95704 0.0
C595 C 0.42064 0.58831 0.94476 0.0
C596 C 0.45386 0.59396 0.9542 0.0
C597 C 0.46487 0.58342 0.97601 0.0
C598 C 0.44262 0.56727 0.98845 0.0
C599 C 0.4094 0.56152 0.97906 0.0
H600 H 0.4906 0.58781 0.98329 0.0
H601 H 0.16699 0.53431 0.89272 0.0
H602 H 0.77173 0.86812 0.48471 0.0
H603 H 0.82093 0.89326 0.4702 0.0
H604 H 0.74778 0.96448 0.47272 0.0
H605 H 0.69876 0.93972 0.48763 0.0
H606 H 0.78053 0.95789 0.43028 0.0
H607 H 0.81804 0.95768 0.51012 0.0
H608 H 0.83401 0.9386 0.54904 0.0
H609 H 0.9237 0.89022 0.51705 0.0
H610 H 0.90797 0.90873 0.47787 0.0
H611 H 0.97987 1.00508 0.41613 0.0
H612 H 0.92506 0.99951 0.44058 0.0
H613 H 0.88808 0.94792 0.38721 0.0
H614 H 0.94152 0.95431 0.36264 0.0
H615 H 0.90657 0.95573 0.46013 0.0
H616 H 0.79771 0.94738 0.38735 0.0
H617 H 0.77969 0.96812 0.34946 0.0
H618 H 0.82966 0.03757 0.36896 0.0
H619 H 0.84786 0.01722 0.40705 0.0
C620 C 0.76636 0.88925 0.48275 0.0
C621 C 0.73117 0.90184 0.48709 0.0
C622 C 0.79452 0.90361 0.47443 0.0
C623 C 0.78806 0.93083 0.47038 0.0
C624 C 0.75339 0.94356 0.47563 0.0
C625 C 0.72532 0.92929 0.48402 0.0
C626 C 0.81636 0.94543 0.45859 0.0
C627 C 0.80805 0.95761 0.43687 0.0
C628 C 0.85197 0.94563 0.46749 0.0
C629 C 0.86167 0.93449 0.49102 0.0
C630 C 0.84101 0.94283 0.51135 0.0
C631 C 0.85005 0.93214 0.53347 0.0
C632 C 0.87982 0.91318 0.53551 0.0
C633 C 0.90065 0.90491 0.51544 0.0
C634 C 0.89172 0.91553 0.49328 0.0
C635 C 0.95933 0.99329 0.4094 0.0
C636 C 0.96448 0.98053 0.38734 0.0
C637 C 0.92826 0.98989 0.42343 0.0
C638 C 0.90211 0.97354 0.41564 0.0
C639 C 0.90722 0.96116 0.39343 0.0
C640 C 0.93795 0.96467 0.37944 0.0
C641 C 0.87115 0.96723 0.43127 0.0
C642 C 0.87893 0.9565 0.4537 0.0
C643 C 0.83487 0.96852 0.42307 0.0
C644 C 0.82429 0.98078 0.40008 0.0
C645 C 0.80476 0.96712 0.38362 0.0
C646 C 0.7946 0.97876 0.36207 0.0
C647 C 0.80363 1.00412 0.35679 0.0
C648 C 0.82289 0.01787 0.37304 0.0
C649 C 0.83324 1.00627 0.39457 0.0
H650 H 0.79567 0.01313 0.34012 0.0
H651 H 0.88677 0.90493 0.55264 0.0
H652 H 0.37713 0.17369 0.45062 0.0
H653 H 0.33671 0.14611 0.43029 0.0
H654 H 0.27823 0.13556 0.49595 0.0
H655 H 0.3194 0.16254 0.51661 0.0
H656 H 0.29269 0.08955 0.47299 0.0
H657 H 0.24081 0.17576 0.45306 0.0
H658 H 0.24025 0.22127 0.43835 0.0
H659 H 0.27771 0.19213 0.36985 0.0
H660 H 0.279 0.14642 0.38424 0.0
H661 H 0.14074 0.03624 0.41794 0.0
H662 H 0.18522 0.0575 0.44122 0.0
H663 H 0.24169 0.07659 0.37677 0.0
H664 H 0.19606 0.05653 0.35362 0.0
H665 H 0.22635 0.11898 0.40079 0.0
H666 H 0.28102 0.0327 0.42173 0.0
H667 H 0.28154 0.98762 0.43674 0.0
H668 H 0.23751 0.01718 0.50376 0.0
H669 H 0.23678 0.06272 0.48895 0.0
C670 C 0.35575 0.16544 0.46078 0.0
C671 C 0.35156 0.17029 0.48526 0.0
C672 C 0.33243 0.14987 0.44908 0.0
C673 C 0.30419 0.13895 0.46154 0.0
C674 C 0.29977 0.14385 0.48596 0.0
C675 C 0.32311 0.15945 0.4977 0.0
C676 C 0.28004 0.12183 0.44914 0.0
C677 C 0.27776 0.0961 0.45738 0.0
C678 C 0.26107 0.13018 0.42854 0.0
C679 C 0.26032 0.15766 0.4198 0.0
C680 C 0.24922 0.17905 0.43491 0.0
C681 C 0.24872 0.20489 0.42662 0.0
C682 C 0.25902 0.20959 0.4032 0.0
C683 C 0.26978 0.18846 0.388 0.0
C684 C 0.27036 0.16258 0.39621 0.0
C685 C 0.16366 0.04392 0.40889 0.0
C686 C 0.16538 0.0445 0.38406 0.0
C687 C 0.18903 0.05624 0.42219 0.0
C688 C 0.21689 0.06887 0.41081 0.0
C689 C 0.22035 0.06725 0.38601 0.0
C690 C 0.19463 0.05543 0.37277 0.0
C691 C 0.23963 0.08632 0.42425 0.0
C692 C 0.24139 0.1123 0.41632 0.0
C693 C 0.25798 0.07824 0.44517 0.0
C694 C 0.25845 0.05102 0.45415 0.0
C695 C 0.27119 0.02957 0.4396 0.0
C696 C 0.27153 1.00391 0.44812 0.0
C697 C 0.25921 0.99942 0.4712 0.0
C698 C 0.24689 0.02067 0.48587 0.0
C699 C 0.2466 0.04642 0.47744 0.0
H700 H 0.2593 0.97954 0.47783 0.0
H701 H 0.2586 0.22961 0.39681 0.0
H702 H 0.43144 0.88392 0.47089 0.0
H703 H 0.38272 0.90881 0.44947 0.0
H704 H 0.31785 0.84281 0.45392 0.0
H705 H 0.3672 0.81726 0.47444 0.0
H706 H 0.31453 0.8654 0.4101 0.0
H707 H 0.29322 0.89807 0.49265 0.0
H708 H 0.31541 0.91625 0.52973 0.0
H709 H 0.35781 0.97923 0.49082 0.0
H710 H 0.33625 0.96116 0.45355 0.0
H711 H 0.13582 0.92064 0.39508 0.0
H712 H 0.19132 0.90115 0.41303 0.0
H713 H 0.24378 0.97162 0.39846 0.0
H714 H 0.18787 0.9913 0.37969 0.0
H715 H 0.2564 0.94868 0.4452 0.0
H716 H 0.26429 0.92203 0.36337 0.0
H717 H 0.24097 0.90388 0.32673 0.0
H718 H 0.22884 0.83052 0.36176 0.0
H719 H 0.25155 0.84837 0.39873 0.0
C720 C 0.40704 0.87451 0.46706 0.0
C721 C 0.40327 0.84855 0.47447 0.0
C722 C 0.37901 0.88891 0.45503 0.0
C723 C 0.34642 0.87782 0.45038 0.0
C724 C 0.34273 0.8518 0.45739 0.0
C725 C 0.37083 0.83731 0.46934 0.0
C726 C 0.31584 0.89345 0.43861 0.0
C727 C 0.302 0.88374 0.41767 0.0
C728 C 0.29997 0.91764 0.44817 0.0
C729 C 0.31285 0.92848 0.47047 0.0
C730 C 0.30725 0.91581 0.49208 0.0
C731 C 0.31977 0.92605 0.5131 0.0
C732 C 0.33791 0.94893 0.51264 0.0
C733 C 0.34367 0.96156 0.49117 0.0
C734 C 0.33126 0.95136 0.47011 0.0
C735 C 0.15902 0.93219 0.39568 0.0
C736 C 0.15736 0.95761 0.38583 0.0
C737 C 0.19078 0.92093 0.40598 0.0
C738 C 0.22183 0.93472 0.40673 0.0
C739 C 0.22006 0.9606 0.39794 0.0
C740 C 0.18805 0.97193 0.3874 0.0
C741 C 0.2561 0.92142 0.4162 0.0
C742 C 0.27011 0.93117 0.43699 0.0
C743 C 0.27259 0.89756 0.40619 0.0
C744 C 0.25942 0.88661 0.38387 0.0
C745 C 0.25644 0.90208 0.36331 0.0
C746 C 0.24335 0.89184 0.34247 0.0
C747 C 0.23337 0.86608 0.34192 0.0
C748 C 0.23657 0.85048 0.3622 0.0
C749 C 0.24959 0.86064 0.3831 0.0
H750 H 0.22322 0.85819 0.32578 0.0
H751 H 0.34757 0.95683 0.52893 0.0
H752 H 0.6781 0.11059 0.45287 0.0
H753 H 0.7373 0.09102 0.43822 0.0
H754 H 0.79109 0.14495 0.48147 0.0
H755 H 0.73178 0.16556 0.49535 0.0
H756 H 0.81925 0.14321 0.43832 0.0
H757 H 0.7939 0.07685 0.49563 0.0
H758 H 0.75613 0.0452 0.51481 0.0
H759 H 0.74957 1.00429 0.44862 0.0
H760 H 0.78721 0.03568 0.42915 0.0
H761 H 0.99749 0.08207 0.41959 0.0
H762 H 0.93958 0.0961 0.44001 0.0
H763 H 0.88279 0.05087 0.39056 0.0
H764 H 0.94081 0.03641 0.37026 0.0
H765 H 0.85753 0.0472 0.43859 0.0
H766 H 0.88293 0.11316 0.38115 0.0
H767 H 0.92072 0.14463 0.36182 0.0
H768 H 0.92548 0.18695 0.42741 0.0
H769 H 0.88815 0.15547 0.44722 0.0
C770 C 0.70248 0.11843 0.4592 0.0
C771 C 0.7001 0.13979 0.4752 0.0
C772 C 0.7364 0.10692 0.45106 0.0
C773 C 0.76874 0.11626 0.45897 0.0
C774 C 0.76651 0.13733 0.4752 0.0
C775 C 0.73256 0.14896 0.48326 0.0
C776 C 0.80474 0.10505 0.44927 0.0
C777 C 0.82777 0.12225 0.43871 0.0
C778 C 0.81559 0.07763 0.44917 0.0
C779 C 0.79333 0.05858 0.46095 0.0
C780 C 0.78436 0.06109 0.4852 0.0
C781 C 0.76304 0.04317 0.49614 0.0
C782 C 0.75054 0.02268 0.48298 0.0
C783 C 0.75947 0.02001 0.45887 0.0
C784 C 0.78092 0.0378 0.44789 0.0
C785 C 0.97266 0.07476 0.41336 0.0
C786 C 0.9735 0.05794 0.39358 0.0
C787 C 0.93968 0.08279 0.425 0.0
C788 C 0.90691 0.07447 0.41678 0.0
C789 C 0.90782 0.05711 0.39738 0.0
C790 C 0.94089 0.04895 0.38578 0.0
C791 C 0.87158 0.08534 0.42747 0.0
C792 C 0.84881 0.06812 0.4382 0.0
C793 C 0.86085 0.11275 0.42763 0.0
C794 C 0.88307 0.13181 0.41572 0.0
C795 C 0.89228 0.12905 0.3915 0.0
C796 C 0.91358 0.14691 0.38045 0.0
C797 C 0.92558 0.16773 0.3934 0.0
C798 C 0.91622 0.17079 0.41741 0.0
C799 C 0.89497 0.15295 0.42855 0.0
H800 H 0.94206 0.18154 0.38481 0.0
H801 H 0.73385 0.00895 0.49147 0.0
loop_
_geom_bond_atom_site_label_1
_geom_bond_atom_site_label_2
_geom_bond_distance
_geom_bond_site_symmetry_2
_ccdc_geom_bond_type
C0 C1 1.264 . S
C0 C5 1.479 1_456 S
C0 C10 1.465 1_556 S
C1 C0 1.264 . S
C1 C3 1.339 1_455 S
C1 H28 0.931 . S
C2 C3 1.395 . S
C2 C4 1.320 . S
C3 C1 1.339 1_655 S
C3 C2 1.395 . S
C3 H29 0.929 . S
C4 C2 1.320 . S
C4 C5 1.405 1_556 S
C4 H30 0.930 . S
C5 C0 1.479 1_654 S
C5 C4 1.405 1_554 S
C5 H31 0.931 . S
U6 O7 2.454 . S
U6 O8 2.458 . S
U6 C9 2.984 . S
U6 C10 2.847 . S
U6 C23 2.882 . S
U6 O24 2.441 . S
U6 O25 2.420 . S
U6 O26 2.455 . S
U6 O27 2.449 . S
O7 U6 2.454 . S
O7 C9 1.353 . S
O8 U6 2.458 . S
O8 C9 1.286 . S
C9 U6 2.984 . S
C9 O7 1.353 . S
C9 O8 1.286 . S
C9 C11 1.363 . S
C10 C0 1.465 1_554 S
C10 U6 2.847 . S
C10 O24 1.249 . S
C10 O25 1.202 . S
C11 C9 1.363 . S
C11 C13 1.408 . S
C11 C16 1.342 . S
C12 C13 1.310 . S
C12 C15 1.461 . S
C12 H32 0.932 . S
C13 C11 1.408 . S
C13 C12 1.310 . S
C13 H33 0.930 . S
C14 C15 1.474 . S
C14 C16 1.285 . S
C14 H34 0.929 . S
C15 C12 1.461 . S
C15 C14 1.474 . S
C16 C11 1.342 . S
C16 C14 1.285 . S
C16 H35 0.930 . S
C17 C20 1.413 1_554 S
C17 C22 1.249 . S
C17 C23 1.433 . S
C18 C21 1.260 . S
C18 C22 1.477 1_556 S
C18 H36 0.923 1_556 S
C19 C20 1.384 . S
C19 C21 1.479 . S
C19 H37 0.929 . S
C20 C17 1.413 1_556 S
C20 C19 1.384 . S
C20 H38 0.928 . S
C21 C18 1.260 . S
C21 C19 1.479 . S
C22 C17 1.249 . S
C22 C18 1.477 1_554 S
C22 H39 0.932 . S
C23 U6 2.882 . S
C23 C17 1.433 . S
C23 O26 1.301 . S
C23 O27 1.282 . S
O24 U6 2.441 . S
O24 C10 1.249 . S
O25 U6 2.420 . S
O25 C10 1.202 . S
O26 U6 2.455 . S
O26 C23 1.301 . S
O27 U6 2.449 . S
O27 C23 1.282 . S
H28 C1 0.931 . S
H29 C3 0.929 . S
H30 C4 0.930 . S
H31 C5 0.931 . S
H32 C12 0.932 . S
H33 C13 0.930 . S
H34 C14 0.929 . S
H35 C16 0.930 . S
H36 C18 0.923 1_554 S
H37 C19 0.929 . S
H38 C20 0.928 . S
H39 C22 0.932 . S
C40 C41 1.264 . S
C40 C45 1.479 . S
C40 C50 1.465 . S
C41 C40 1.264 . S
C41 C43 1.339 . S
C41 H68 0.931 . S
C42 C43 1.395 . S
C42 C44 1.320 . S
C43 C41 1.339 . S
C43 C42 1.395 . S
C43 H69 0.929 . S
C44 C42 1.320 . S
C44 C45 1.405 . S
C44 H70 0.939 . S
C45 C40 1.479 . S
C45 C44 1.405 . S
C45 H71 0.931 1_556 S
U46 O47 2.454 1_455 S
U46 O48 2.458 . S
U46 C49 2.984 . S
U46 C50 2.847 1_454 S
U46 C63 2.882 1_554 S
U46 O64 2.441 1_455 S
U46 O65 2.420 1_454 S
U46 O66 2.455 . S
U46 O67 2.449 1_554 S
O47 U46 2.454 1_655 S
O47 C49 1.352 1_655 S
O48 U46 2.458 . S
O48 C49 1.287 . S
C49 U46 2.984 . S
C49 O47 1.352 1_455 S
C49 O48 1.287 . S
C49 C51 1.363 . S
C50 C40 1.465 . S
C50 U46 2.847 1_656 S
C50 O64 1.249 1_556 S
C50 O65 1.202 . S
C51 C49 1.363 . S
C51 C53 1.404 1_455 S
C51 C56 1.346 . S
C52 C53 1.310 . S
C52 C55 1.436 1_655 S
C52 H72 0.932 . S
C53 C51 1.404 1_655 S
C53 C52 1.310 . S
C53 H73 0.930 . S
C54 C55 1.496 . S
C54 C56 1.285 . S
C54 H74 0.929 . S
C55 C52 1.436 1_455 S
C55 C54 1.496 . S
C56 C51 1.346 . S
C56 C54 1.285 . S
C56 H75 0.930 . S
C57 C60 1.424 . S
C57 C62 1.245 . S
C57 C63 1.428 . S
C58 C61 1.260 . S
C58 C62 1.477 . S
C58 H76 0.932 . S
C59 C60 1.384 . S
C59 C61 1.479 . S
C59 H77 0.929 . S
C60 C57 1.424 . S
C60 C59 1.384 . S
C60 H78 0.928 . S
C61 C58 1.260 . S
C61 C59 1.479 . S
C62 C57 1.245 . S
C62 C58 1.477 . S
C62 H79 0.932 1_556 S
C63 U46 2.882 1_556 S
C63 C57 1.428 . S
C63 O66 1.301 1_556 S
C63 O67 1.282 . S
O64 U46 2.441 1_655 S
O64 C50 1.249 1_554 S
O65 U46 2.420 1_656 S
O65 C50 1.202 . S
O66 U46 2.455 . S
O66 C63 1.301 1_554 S
O67 U46 2.449 1_556 S
O67 C63 1.282 . S
H68 C41 0.931 . S
H69 C43 0.929 . S
H70 C44 0.939 . S
H71 C45 0.931 1_554 S
H72 C52 0.932 . S
H73 C53 0.930 . S
H74 C54 0.929 . S
H75 C56 0.930 . S
H76 C58 0.932 . S
H77 C59 0.929 . S
H78 C60 0.928 . S
H79 C62 0.932 1_554 S
C80 C81 1.264 . S
C80 C85 1.479 . S
C80 C90 1.465 . S
C81 C80 1.264 . S
C81 C83 1.339 . S
C81 H108 0.931 . S
C82 C83 1.395 . S
C82 C84 1.320 . S
C83 C81 1.339 . S
C83 C82 1.395 . S
C83 H109 0.929 . S
C84 C82 1.320 . S
C84 C85 1.405 . S
C84 H110 0.930 . S
C85 C80 1.479 . S
C85 C84 1.405 . S
C85 H111 0.931 . S
U86 O87 2.454 . S
U86 O88 2.458 . S
U86 C89 2.984 . S
U86 C90 2.847 . S
U86 C103 2.882 . S
U86 O104 2.441 . S
U86 O105 2.420 . S
U86 O106 2.455 . S
U86 O107 2.449 . S
O87 U86 2.454 . S
O87 C89 1.353 . S
O88 U86 2.458 . S
O88 C89 1.286 . S
C89 U86 2.984 . S
C89 O87 1.353 . S
C89 O88 1.286 . S
C89 C91 1.363 . S
C90 C80 1.465 . S
C90 U86 2.847 . S
C90 O104 1.249 . S
C90 O105 1.202 . S
C91 C89 1.363 . S
C91 C93 1.408 . S
C91 C96 1.342 . S
C92 C93 1.310 . S
C92 C95 1.461 . S
C92 H112 0.932 . S
C93 C91 1.408 . S
C93 C92 1.310 . S
C93 H113 0.930 . S
C94 C95 1.474 . S
C94 C96 1.285 . S
C94 H114 0.929 . S
C95 C92 1.461 . S
C95 C94 1.474 . S
C96 C91 1.342 . S
C96 C94 1.285 . S
C96 H115 0.930 . S
C97 C100 1.424 . S
C97 C102 1.245 . S
C97 C103 1.428 . S
C98 C101 1.260 . S
C98 C102 1.477 . S
C98 H116 0.932 . S
C99 C100 1.384 . S
C99 C101 1.479 . S
C99 H117 0.929 . S
C100 C97 1.424 . S
C100 C99 1.384 . S
C100 H118 0.928 . S
C101 C98 1.260 . S
C101 C99 1.479 . S
C102 C97 1.245 . S
C102 C98 1.477 . S
C102 H119 0.932 . S
C103 U86 2.882 . S
C103 C97 1.428 . S
C103 O106 1.301 . S
C103 O107 1.282 . S
O104 U86 2.441 . S
O104 C90 1.249 . S
O105 U86 2.420 . S
O105 C90 1.202 . S
O106 U86 2.455 . S
O106 C103 1.301 . S
O107 U86 2.449 . S
O107 C103 1.282 . S
H108 C81 0.931 . S
H109 C83 0.929 . S
H110 C84 0.930 . S
H111 C85 0.931 . S
H112 C92 0.932 . S
H113 C93 0.930 . S
H114 C94 0.929 . S
H115 C96 0.930 . S
H116 C98 0.932 . S
H117 C99 0.929 . S
H118 C100 0.928 . S
H119 C102 0.932 . S
C120 C121 1.264 . S
C120 C125 1.479 . S
C120 C130 1.465 . S
C121 C120 1.264 . S
C121 C123 1.339 . S
C121 H148 0.931 . S
C122 C123 1.395 . S
C122 C124 1.320 . S
C123 C121 1.339 . S
C123 C122 1.395 . S
C123 H149 0.929 . S
C124 C122 1.320 . S
C124 C125 1.405 . S
C124 H150 0.930 . S
C125 C120 1.479 . S
C125 C124 1.405 . S
C125 H151 0.931 . S
U126 O127 2.454 . S
U126 O128 2.458 . S
U126 C129 2.984 . S
U126 C130 2.847 . S
U126 C143 2.882 . S
U126 O144 2.441 . S
U126 O145 2.420 . S
U126 O146 2.455 . S
U126 O147 2.449 . S
O127 U126 2.454 . S
O127 C129 1.353 . S
O128 U126 2.458 . S
O128 C129 1.286 . S
C129 U126 2.984 . S
C129 O127 1.353 . S
C129 O128 1.286 . S
C129 C131 1.363 . S
C130 C120 1.465 . S
C130 U126 2.847 . S
C130 O144 1.249 . S
C130 O145 1.202 . S
C131 C129 1.363 . S
C131 C133 1.408 . S
C131 C136 1.342 . S
C132 C133 1.310 . S
C132 C135 1.461 . S
C132 H152 0.932 . S
C133 C131 1.408 . S
C133 C132 1.310 . S
C133 H153 0.930 . S
C134 C135 1.474 . S
C134 C136 1.285 . S
C134 H154 0.929 . S
C135 C132 1.461 . S
C135 C134 1.474 . S
C136 C131 1.342 . S
C136 C134 1.285 . S
C136 H155 0.930 . S
C137 C140 1.424 . S
C137 C142 1.245 . S
C137 C143 1.428 . S
C138 C141 1.260 . S
C138 C142 1.477 . S
C138 H156 0.932 . S
C139 C140 1.384 . S
C139 C141 1.479 . S
C139 H157 0.929 . S
C140 C137 1.424 . S
C140 C139 1.384 . S
C140 H158 0.928 . S
C141 C138 1.260 . S
C141 C139 1.479 . S
C142 C137 1.245 . S
C142 C138 1.477 . S
C142 H159 0.932 . S
C143 U126 2.882 . S
C143 C137 1.428 . S
C143 O146 1.301 . S
C143 O147 1.282 . S
O144 U126 2.441 . S
O144 C130 1.249 . S
O145 U126 2.420 . S
O145 C130 1.202 . S
O146 U126 2.455 . S
O146 C143 1.301 . S
O147 U126 2.449 . S
O147 C143 1.282 . S
H148 C121 0.931 . S
H149 C123 0.929 . S
H150 C124 0.930 . S
H151 C125 0.931 . S
H152 C132 0.932 . S
H153 C133 0.930 . S
H154 C134 0.929 . S
H155 C136 0.930 . S
H156 C138 0.932 . S
H157 C139 0.929 . S
H158 C140 0.928 . S
H159 C142 0.932 . S
Zn160 O166 1.920 . S
Zn160 O172 1.898 . S
Zn160 O175 1.905 . S
Zn161 O169 1.905 . S
Zn161 O170 1.898 . S
Zn161 O178 1.920 . S
Zn162 O165 2.080 . S
Zn162 O168 2.114 1_545 S
Zn162 O171 2.120 1_545 S
Zn162 O173 2.120 . S
Zn162 O174 2.114 . S
Zn162 O177 2.080 1_545 S
C163 O168 1.166 . S
C163 O169 1.182 . S
C164 O170 1.167 . S
C164 O171 1.299 . S
O165 Zn162 2.080 . S
O165 C179 1.305 . S
O166 Zn160 1.920 . S
O166 C179 1.234 . S
C167 O172 1.167 . S
C167 O173 1.299 . S
O168 Zn162 2.114 1_565 S
O168 C163 1.166 . S
O169 Zn161 1.905 . S
O169 C163 1.182 . S
O170 Zn161 1.898 . S
O170 C164 1.167 . S
O171 Zn162 2.120 1_565 S
O171 C164 1.299 . S
O172 Zn160 1.898 . S
O172 C167 1.167 . S
O173 Zn162 2.120 . S
O173 C167 1.299 . S
O174 Zn162 2.114 . S
O174 C176 1.166 . S
O175 Zn160 1.905 . S
O175 C176 1.182 . S
C176 O174 1.166 . S
C176 O175 1.182 . S
O177 Zn162 2.080 1_565 S
O177 C180 1.305 . S
O178 Zn161 1.920 . S
O178 C180 1.234 . S
C179 O165 1.305 . S
C179 O166 1.234 . S
C180 O177 1.305 . S
C180 O178 1.234 . S
Zn181 O187 1.920 . S
Zn181 O193 1.898 . S
Zn181 O196 1.905 . S
Zn182 O190 1.905 . S
Zn182 O191 1.898 . S
Zn182 O199 1.920 . S
Zn183 O186 2.080 . S
Zn183 O189 2.114 . S
Zn183 O192 2.120 . S
Zn183 O194 2.120 . S
Zn183 O195 2.114 . S
Zn183 O198 2.080 . S
C184 O189 1.166 . S
C184 O190 1.182 . S
C185 O191 1.167 . S
C185 O192 1.299 . S
O186 Zn183 2.080 . S
O186 C200 1.305 . S
O187 Zn181 1.920 . S
O187 C200 1.234 . S
C188 O193 1.167 . S
C188 O194 1.299 . S
O189 Zn183 2.114 . S
O189 C184 1.166 . S
O190 Zn182 1.905 . S
O190 C184 1.182 . S
O191 Zn182 1.898 . S
O191 C185 1.167 . S
O192 Zn183 2.120 . S
O192 C185 1.299 . S
O193 Zn181 1.898 . S
O193 C188 1.167 . S
O194 Zn183 2.120 . S
O194 C188 1.299 . S
O195 Zn183 2.114 . S
O195 C197 1.166 . S
O196 Zn181 1.905 . S
O196 C197 1.182 . S
C197 O195 1.166 . S
C197 O196 1.182 . S
O198 Zn183 2.080 . S
O198 C201 1.305 . S
O199 Zn182 1.920 . S
O199 C201 1.234 . S
C200 O186 1.305 . S
C200 O187 1.234 . S
C201 O198 1.305 . S
C201 O199 1.234 . S
H202 C220 0.951 . S
H203 C222 0.951 . S
H204 C224 0.950 . S
H205 C225 0.950 . S
H206 C227 0.950 . S
H207 C230 0.950 . S
H208 C231 0.950 . S
H209 C233 0.950 . S
H210 C234 0.950 . S
H211 C235 0.951 . S
H212 C237 0.951 . S
H213 C239 0.950 . S
H214 C240 0.950 . S
H215 C242 0.950 . S
H216 C245 0.950 . S
H217 C246 0.950 . S
H218 C248 0.950 . S
H219 C249 0.950 . S
C220 H202 0.951 . S
C220 C221 1.366 . S
C220 C222 1.388 . S
C221 C220 1.366 . S
C221 C225 1.385 . S
C222 H203 0.951 . S
C222 C220 1.388 . S
C222 C223 1.366 . S
C223 C222 1.366 . S
C223 C224 1.414 . S
C223 C226 1.499 . S
C224 H204 0.950 . S
C224 C223 1.414 . S
C224 C225 1.374 . S
C225 H205 0.950 . S
C225 C221 1.385 . S
C225 C224 1.374 . S
C226 C223 1.499 . S
C226 C227 1.373 . S
C226 C228 1.389 . S
C227 H206 0.950 . S
C227 C226 1.373 . S
C227 C243 1.377 . S
C228 C226 1.389 . S
C228 C229 1.524 . S
C228 C242 1.377 . S
C229 C228 1.524 . S
C229 C230 1.397 . S
C229 C234 1.363 . S
C230 H207 0.950 . S
C230 C229 1.397 . S
C230 C231 1.334 . S
C231 H208 0.950 . S
C231 C230 1.334 . S
C231 C232 1.287 . S
C232 C231 1.287 . S
C232 C233 1.524 . S
C232 H251 0.913 . S
C233 H209 0.950 . S
C233 C232 1.524 . S
C233 C234 1.415 . S
C234 H210 0.950 . S
C234 C229 1.363 . S
C234 C233 1.415 . S
C235 H211 0.951 . S
C235 C236 1.366 . S
C235 C237 1.388 . S
C236 C235 1.366 . S
C236 C240 1.385 . S
C237 H212 0.951 . S
C237 C235 1.388 . S
C237 C238 1.366 . S
C238 C237 1.366 . S
C238 C239 1.414 . S
C238 C241 1.499 . S
C239 H213 0.950 . S
C239 C238 1.414 . S
C239 C240 1.374 . S
C240 H214 0.950 . S
C240 C236 1.385 . S
C240 C239 1.374 . S
C241 C238 1.499 . S
C241 C242 1.373 . S
C241 C243 1.389 . S
C242 H215 0.950 . S
C242 C228 1.377 . S
C242 C241 1.373 . S
C243 C227 1.377 . S
C243 C241 1.389 . S
C243 C244 1.524 . S
C244 C243 1.524 . S
C244 C245 1.397 . S
C244 C249 1.363 . S
C245 H216 0.950 . S
C245 C244 1.397 . S
C245 C246 1.334 . S
C246 H217 0.950 . S
C246 C245 1.334 . S
C246 C247 1.287 . S
C247 C246 1.287 . S
C247 C248 1.524 . S
C247 H250 0.999 . S
C248 H218 0.950 . S
C248 C247 1.524 . S
C248 C249 1.415 . S
C249 H219 0.950 . S
C249 C244 1.363 . S
C249 C248 1.415 . S
H250 C247 0.999 . S
H251 C232 0.913 . S
H252 C270 0.951 . S
H253 C272 0.951 . S
H254 C274 0.950 . S
H255 C275 0.950 . S
H256 C277 0.950 . S
H257 C280 0.950 . S
H258 C281 0.950 . S
H259 C283 0.950 . S
H260 C284 0.950 . S
H261 C285 0.951 . S
H262 C287 0.951 . S
H263 C289 0.950 . S
H264 C290 0.950 . S
H265 C292 0.950 . S
H266 C295 0.950 . S
H267 C296 0.950 . S
H268 C298 0.950 . S
H269 C299 0.950 . S
C270 H252 0.951 . S
C270 C271 1.366 1_655 S
C270 C272 1.388 . S
C271 C270 1.366 1_455 S
C271 C275 1.385 . S
C272 H253 0.951 . S
C272 C270 1.388 . S
C272 C273 1.366 1_655 S
C273 C272 1.366 1_455 S
C273 C274 1.414 . S
C273 C276 1.499 . S
C274 H254 0.950 . S
C274 C273 1.414 . S
C274 C275 1.374 . S
C275 H255 0.950 . S
C275 C271 1.385 . S
C275 C274 1.374 . S
C276 C273 1.499 . S
C276 C277 1.373 . S
C276 C278 1.389 1_455 S
C277 H256 0.950 . S
C277 C276 1.373 . S
C277 C293 1.377 . S
C278 C276 1.389 1_655 S
C278 C279 1.524 . S
C278 C292 1.377 . S
C279 C278 1.524 . S
C279 C280 1.397 . S
C279 C284 1.363 . S
C280 H257 0.950 . S
C280 C279 1.397 . S
C280 C281 1.334 . S
C281 H258 0.950 . S
C281 C280 1.334 . S
C281 C282 1.287 . S
C282 C281 1.287 . S
C282 C283 1.524 . S
C282 H301 0.913 . S
C283 H259 0.950 . S
C283 C282 1.524 . S
C283 C284 1.415 . S
C284 H260 0.950 . S
C284 C279 1.363 . S
C284 C283 1.415 . S
C285 H261 0.951 . S
C285 C286 1.366 . S
C285 C287 1.388 . S
C286 C285 1.366 . S
C286 C290 1.385 . S
C287 H262 0.951 . S
C287 C285 1.388 . S
C287 C288 1.366 . S
C288 C287 1.366 . S
C288 C289 1.414 . S
C288 C291 1.499 . S
C289 H263 0.950 . S
C289 C288 1.414 . S
C289 C290 1.374 . S
C290 H264 0.950 . S
C290 C286 1.385 . S
C290 C289 1.374 . S
C291 C288 1.499 . S
C291 C292 1.373 1_455 S
C291 C293 1.389 . S
C292 H265 0.950 . S
C292 C278 1.377 . S
C292 C291 1.373 1_655 S
C293 C277 1.377 . S
C293 C291 1.389 . S
C293 C294 1.524 . S
C294 C293 1.524 . S
C294 C295 1.397 . S
C294 C299 1.363 . S
C295 H266 0.950 . S
C295 C294 1.397 . S
C295 C296 1.334 . S
C296 H267 0.950 . S
C296 C295 1.334 . S
C296 C297 1.287 . S
C297 C296 1.287 . S
C297 C298 1.524 . S
C297 H300 0.999 . S
C298 H268 0.950 . S
C298 C297 1.524 . S
C298 C299 1.415 . S
C299 H269 0.950 . S
C299 C294 1.363 . S
C299 C298 1.415 . S
H300 C297 0.999 . S
H301 C282 0.913 . S
H302 C320 0.951 . S
H303 C322 0.951 . S
H304 C324 0.950 . S
H305 C325 0.950 . S
H306 C327 0.950 . S
H307 C330 0.950 . S
H308 C331 0.950 . S
H309 C333 0.950 . S
H310 C334 0.950 . S
H311 C335 0.951 . S
H312 C337 0.951 . S
H313 C339 0.950 . S
H314 C340 0.950 . S
H315 C342 0.950 . S
H316 C345 0.950 . S
H317 C346 0.950 . S
H318 C348 0.950 . S
H319 C349 0.950 . S
C320 H302 0.951 . S
C320 C321 1.366 . S
C320 C322 1.388 . S
C321 C320 1.366 . S
C321 C325 1.385 . S
C322 H303 0.951 . S
C322 C320 1.388 . S
C322 C323 1.366 . S
C323 C322 1.366 . S
C323 C324 1.414 . S
C323 C326 1.499 . S
C324 H304 0.950 . S
C324 C323 1.414 . S
C324 C325 1.374 . S
C325 H305 0.950 . S
C325 C321 1.385 . S
C325 C324 1.374 . S
C326 C323 1.499 . S
C326 C327 1.373 . S
C326 C328 1.389 . S
C327 H306 0.950 . S
C327 C326 1.373 . S
C327 C343 1.377 . S
C328 C326 1.389 . S
C328 C329 1.524 . S
C328 C342 1.377 . S
C329 C328 1.524 . S
C329 C330 1.397 . S
C329 C334 1.363 . S
C330 H307 0.950 . S
C330 C329 1.397 . S
C330 C331 1.334 . S
C331 H308 0.950 . S
C331 C330 1.334 . S
C331 C332 1.287 . S
C332 C331 1.287 . S
C332 C333 1.524 . S
C332 H351 0.913 . S
C333 H309 0.950 . S
C333 C332 1.524 . S
C333 C334 1.415 . S
C334 H310 0.950 . S
C334 C329 1.363 . S
C334 C333 1.415 . S
C335 H311 0.951 . S
C335 C336 1.366 . S
C335 C337 1.388 . S
C336 C335 1.366 . S
C336 C340 1.385 . S
C337 H312 0.951 . S
C337 C335 1.388 . S
C337 C338 1.366 . S
C338 C337 1.366 . S
C338 C339 1.414 . S
C338 C341 1.499 . S
C339 H313 0.950 . S
C339 C338 1.414 . S
C339 C340 1.374 . S
C340 H314 0.950 . S
C340 C336 1.385 . S
C340 C339 1.374 . S
C341 C338 1.499 . S
C341 C342 1.373 . S
C341 C343 1.389 . S
C342 H315 0.950 . S
C342 C328 1.377 . S
C342 C341 1.373 . S
C343 C327 1.377 . S
C343 C341 1.389 . S
C343 C344 1.524 . S
C344 C343 1.524 . S
C344 C345 1.397 . S
C344 C349 1.363 . S
C345 H316 0.950 . S
C345 C344 1.397 . S
C345 C346 1.334 . S
C346 H317 0.950 . S
C346 C345 1.334 . S
C346 C347 1.287 . S
C347 C346 1.287 . S
C347 C348 1.524 . S
C347 H350 0.999 . S
C348 H318 0.950 . S
C348 C347 1.524 . S
C348 C349 1.415 . S
C349 H319 0.950 . S
C349 C344 1.363 . S
C349 C348 1.415 . S
H350 C347 0.999 . S
H351 C332 0.913 . S
H352 C370 0.951 . S
H353 C372 0.951 . S
H354 C374 0.950 . S
H355 C375 0.950 . S
H356 C377 0.950 . S
H357 C380 0.950 . S
H358 C381 0.950 . S
H359 C383 0.950 . S
H360 C384 0.950 . S
H361 C385 0.951 . S
H362 C387 0.951 . S
H363 C389 0.950 . S
H364 C390 0.950 . S
H365 C392 0.950 . S
H366 C395 0.950 . S
H367 C396 0.950 . S
H368 C398 0.950 . S
H369 C399 0.950 . S
C370 H352 0.951 . S
C370 C371 1.366 . S
C370 C372 1.388 . S
C371 C370 1.366 . S
C371 C375 1.385 . S
C372 H353 0.951 . S
C372 C370 1.388 . S
C372 C373 1.366 . S
C373 C372 1.366 . S
C373 C374 1.414 . S
C373 C376 1.499 . S
C374 H354 0.950 . S
C374 C373 1.414 . S
C374 C375 1.374 . S
C375 H355 0.950 . S
C375 C371 1.385 . S
C375 C374 1.374 . S
C376 C373 1.499 . S
C376 C377 1.373 . S
C376 C378 1.389 . S
C377 H356 0.950 . S
C377 C376 1.373 . S
C377 C393 1.377 . S
C378 C376 1.389 . S
C378 C379 1.524 . S
C378 C392 1.377 . S
C379 C378 1.524 . S
C379 C380 1.397 . S
C379 C384 1.363 . S
C380 H357 0.950 . S
C380 C379 1.397 . S
C380 C381 1.334 . S
C381 H358 0.950 . S
C381 C380 1.334 . S
C381 C382 1.287 . S
C382 C381 1.287 . S
C382 C383 1.524 . S
C382 H401 0.913 . S
C383 H359 0.950 . S
C383 C382 1.524 . S
C383 C384 1.415 . S
C384 H360 0.950 . S
C384 C379 1.363 . S
C384 C383 1.415 . S
C385 H361 0.951 . S
C385 C386 1.366 . S
C385 C387 1.388 . S
C386 C385 1.366 . S
C386 C390 1.385 . S
C387 H362 0.951 . S
C387 C385 1.388 . S
C387 C388 1.366 . S
C388 C387 1.366 . S
C388 C389 1.414 . S
C388 C391 1.499 . S
C389 H363 0.950 . S
C389 C388 1.414 . S
C389 C390 1.374 . S
C390 H364 0.950 . S
C390 C386 1.385 . S
C390 C389 1.374 . S
C391 C388 1.499 . S
C391 C392 1.373 . S
C391 C393 1.389 . S
C392 H365 0.950 . S
C392 C378 1.377 . S
C392 C391 1.373 . S
C393 C377 1.377 . S
C393 C391 1.389 . S
C393 C394 1.524 . S
C394 C393 1.524 . S
C394 C395 1.397 . S
C394 C399 1.363 . S
C395 H366 0.950 . S
C395 C394 1.397 . S
C395 C396 1.334 . S
C396 H367 0.950 . S
C396 C395 1.334 . S
C396 C397 1.287 . S
C397 C396 1.287 . S
C397 C398 1.524 . S
C397 H400 0.999 . S
C398 H368 0.950 . S
C398 C397 1.524 . S
C398 C399 1.415 . S
C399 H369 0.950 . S
C399 C394 1.363 . S
C399 C398 1.415 . S
H400 C397 0.999 . S
H401 C382 0.913 . S
H402 C420 0.951 . S
H403 C422 0.951 . S
H404 C424 0.950 . S
H405 C425 0.950 . S
H406 C427 0.950 . S
H407 C430 0.950 . S
H408 C431 0.950 . S
H409 C433 0.950 . S
H410 C434 0.950 . S
H411 C435 0.951 . S
H412 C437 0.951 . S
H413 C439 0.950 . S
H414 C440 0.950 . S
H415 C442 0.950 . S
H416 C445 0.950 . S
H417 C446 0.950 . S
H418 C448 0.950 . S
H419 C449 0.950 . S
C420 H402 0.951 . S
C420 C421 1.366 . S
C420 C422 1.388 . S
C421 C420 1.366 . S
C421 C425 1.385 . S
C422 H403 0.951 . S
C422 C420 1.388 . S
C422 C423 1.366 . S
C423 C422 1.366 . S
C423 C424 1.414 . S
C423 C426 1.499 . S
C424 H404 0.950 . S
C424 C423 1.414 . S
C424 C425 1.374 . S
C425 H405 0.950 . S
C425 C421 1.385 . S
C425 C424 1.374 . S
C426 C423 1.499 . S
C426 C427 1.373 . S
C426 C428 1.389 . S
C427 H406 0.950 . S
C427 C426 1.373 . S
C427 C443 1.377 . S
C428 C426 1.389 . S
C428 C429 1.524 . S
C428 C442 1.377 . S
C429 C428 1.524 . S
C429 C430 1.397 . S
C429 C434 1.363 1_556 S
C430 H407 0.950 . S
C430 C429 1.397 . S
C430 C431 1.334 1_556 S
C431 H408 0.950 . S
C431 C430 1.334 1_554 S
C431 C432 1.287 . S
C432 C431 1.287 . S
C432 C433 1.524 . S
C432 H451 0.913 . S
C433 H409 0.950 . S
C433 C432 1.524 . S
C433 C434 1.415 . S
C434 H410 0.950 . S
C434 C429 1.363 1_554 S
C434 C433 1.415 . S
C435 H411 0.951 . S
C435 C436 1.366 . S
C435 C437 1.388 . S
C436 C435 1.366 . S
C436 C440 1.385 . S
C437 H412 0.951 . S
C437 C435 1.388 . S
C437 C438 1.366 . S
C438 C437 1.366 . S
C438 C439 1.414 . S
C438 C441 1.499 . S
C439 H413 0.950 . S
C439 C438 1.414 . S
C439 C440 1.374 . S
C440 H414 0.950 . S
C440 C436 1.385 . S
C440 C439 1.374 . S
C441 C438 1.499 . S
C441 C442 1.373 . S
C441 C443 1.389 . S
C442 H415 0.950 . S
C442 C428 1.377 . S
C442 C441 1.373 . S
C443 C427 1.377 . S
C443 C441 1.389 . S
C443 C444 1.524 . S
C444 C443 1.524 . S
C444 C445 1.397 . S
C444 C449 1.363 . S
C445 H416 0.950 . S
C445 C444 1.397 . S
C445 C446 1.334 . S
C446 H417 0.950 . S
C446 C445 1.334 . S
C446 C447 1.287 . S
C447 C446 1.287 . S
C447 C448 1.524 . S
C447 H450 0.999 . S
C448 H418 0.950 . S
C448 C447 1.524 . S
C448 C449 1.415 . S
C449 H419 0.950 . S
C449 C444 1.363 . S
C449 C448 1.415 . S
H450 C447 0.999 . S
H451 C432 0.913 . S
H452 C470 0.951 . S
H453 C472 0.951 . S
H454 C474 0.950 . S
H455 C475 0.950 . S
H456 C477 0.950 . S
H457 C480 0.950 . S
H458 C481 0.950 . S
H459 C483 0.950 . S
H460 C484 0.950 . S
H461 C485 0.951 . S
H462 C487 0.951 . S
H463 C489 0.950 . S
H464 C490 0.950 . S
H465 C492 0.950 . S
H466 C495 0.950 . S
H467 C496 0.950 . S
H468 C498 0.950 . S
H469 C499 0.950 . S
C470 H452 0.951 . S
C470 C471 1.366 . S
C470 C472 1.388 . S
C471 C470 1.366 . S
C471 C475 1.385 . S
C472 H453 0.951 . S
C472 C470 1.388 . S
C472 C473 1.366 . S
C473 C472 1.366 . S
C473 C474 1.414 . S
C473 C476 1.499 . S
C474 H454 0.950 . S
C474 C473 1.414 . S
C474 C475 1.374 . S
C475 H455 0.950 . S
C475 C471 1.385 . S
C475 C474 1.374 . S
C476 C473 1.499 . S
C476 C477 1.373 . S
C476 C478 1.389 . S
C477 H456 0.950 . S
C477 C476 1.373 . S
C477 C493 1.377 . S
C478 C476 1.389 . S
C478 C479 1.524 . S
C478 C492 1.377 . S
C479 C478 1.524 . S
C479 C480 1.397 . S
C479 C484 1.363 1_556 S
C480 H457 0.950 . S
C480 C479 1.397 . S
C480 C481 1.334 1_556 S
C481 H458 0.950 . S
C481 C480 1.334 1_554 S
C481 C482 1.287 . S
C482 C481 1.287 . S
C482 C483 1.524 . S
C482 H501 0.913 . S
C483 H459 0.950 . S
C483 C482 1.524 . S
C483 C484 1.415 . S
C484 H460 0.950 . S
C484 C479 1.363 1_554 S
C484 C483 1.415 . S
C485 H461 0.951 . S
C485 C486 1.366 . S
C485 C487 1.388 . S
C486 C485 1.366 . S
C486 C490 1.385 . S
C487 H462 0.951 . S
C487 C485 1.388 . S
C487 C488 1.366 . S
C488 C487 1.366 . S
C488 C489 1.414 . S
C488 C491 1.499 . S
C489 H463 0.950 . S
C489 C488 1.414 . S
C489 C490 1.374 . S
C490 H464 0.950 . S
C490 C486 1.385 . S
C490 C489 1.374 . S
C491 C488 1.499 . S
C491 C492 1.373 . S
C491 C493 1.389 . S
C492 H465 0.950 . S
C492 C478 1.377 . S
C492 C491 1.373 . S
C493 C477 1.377 . S
C493 C491 1.389 . S
C493 C494 1.524 . S
C494 C493 1.524 . S
C494 C495 1.397 . S
C494 C499 1.363 . S
C495 H466 0.950 . S
C495 C494 1.397 . S
C495 C496 1.334 . S
C496 H467 0.950 . S
C496 C495 1.334 . S
C496 C497 1.287 . S
C497 C496 1.287 . S
C497 C498 1.524 . S
C497 H500 0.999 . S
C498 H468 0.950 . S
C498 C497 1.524 . S
C498 C499 1.415 . S
C499 H469 0.950 . S
C499 C494 1.363 . S
C499 C498 1.415 . S
H500 C497 0.999 . S
H501 C482 0.913 . S
H502 C520 0.951 . S
H503 C522 0.951 . S
H504 C524 0.950 . S
H505 C525 0.950 . S
H506 C527 0.950 . S
H507 C530 0.950 . S
H508 C531 0.950 . S
H509 C533 0.977 . S
H510 C534 0.950 . S
H511 C535 0.951 . S
H512 C537 0.951 . S
H513 C539 0.950 . S
H514 C540 0.950 . S
H515 C542 0.950 . S
H516 C545 0.950 . S
H517 C546 0.950 . S
H518 C548 0.950 . S
H519 C549 0.950 . S
C520 H502 0.951 . S
C520 C521 1.366 . S
C520 C522 1.388 . S
C521 C520 1.366 . S
C521 C525 1.385 . S
C522 H503 0.951 . S
C522 C520 1.388 . S
C522 C523 1.366 . S
C523 C522 1.366 . S
C523 C524 1.414 . S
C523 C526 1.499 . S
C524 H504 0.950 . S
C524 C523 1.414 . S
C524 C525 1.374 . S
C525 H505 0.950 . S
C525 C521 1.385 . S
C525 C524 1.374 . S
C526 C523 1.499 . S
C526 C527 1.373 . S
C526 C528 1.389 . S
C527 H506 0.950 . S
C527 C526 1.373 . S
C527 C543 1.377 . S
C528 C526 1.389 . S
C528 C529 1.524 . S
C528 C542 1.377 . S
C529 C528 1.524 . S
C529 C530 1.397 . S
C529 C534 1.363 . S
C530 H507 0.950 . S
C530 C529 1.397 . S
C530 C531 1.334 . S
C531 H508 0.950 . S
C531 C530 1.334 . S
C531 C532 1.287 . S
C532 C531 1.287 . S
C532 C533 1.518 1_556 S
C532 H551 0.913 1_556 S
C533 H509 0.977 . S
C533 C532 1.518 1_554 S
C533 C534 1.390 1_554 S
C534 H510 0.950 . S
C534 C529 1.363 . S
C534 C533 1.390 1_556 S
C535 H511 0.951 . S
C535 C536 1.366 . S
C535 C537 1.388 . S
C536 C535 1.366 . S
C536 C540 1.385 . S
C537 H512 0.951 . S
C537 C535 1.388 . S
C537 C538 1.366 . S
C538 C537 1.366 . S
C538 C539 1.414 . S
C538 C541 1.499 . S
C539 H513 0.950 . S
C539 C538 1.414 . S
C539 C540 1.374 . S
C540 H514 0.950 . S
C540 C536 1.385 . S
C540 C539 1.374 . S
C541 C538 1.499 . S
C541 C542 1.373 . S
C541 C543 1.389 . S
C542 H515 0.950 . S
C542 C528 1.377 . S
C542 C541 1.373 . S
C543 C527 1.377 . S
C543 C541 1.389 . S
C543 C544 1.524 . S
C544 C543 1.524 . S
C544 C545 1.397 . S
C544 C549 1.363 . S
C545 H516 0.950 . S
C545 C544 1.397 . S
C545 C546 1.334 . S
C546 H517 0.950 . S
C546 C545 1.334 . S
C546 C547 1.287 . S
C547 C546 1.287 . S
C547 C548 1.524 . S
C547 H550 0.999 . S
C548 H518 0.950 . S
C548 C547 1.524 . S
C548 C549 1.415 . S
C549 H519 0.950 . S
C549 C544 1.363 . S
C549 C548 1.415 . S
H550 C547 0.999 . S
H551 C532 0.913 1_554 S
H552 C570 0.951 . S
H553 C572 0.951 . S
H554 C574 0.950 . S
H555 C575 0.950 . S
H556 C577 0.950 . S
H557 C580 0.950 . S
H558 C581 0.950 . S
H559 C583 0.950 . S
H560 C584 0.950 . S
H561 C585 0.951 . S
H562 C587 0.951 . S
H563 C589 0.950 . S
H564 C590 0.950 . S
H565 C592 0.950 . S
H566 C595 0.950 . S
H567 C596 0.950 . S
H568 C598 0.950 . S
H569 C599 0.950 . S
C570 H552 0.951 . S
C570 C571 1.366 . S
C570 C572 1.388 . S
C571 C570 1.366 . S
C571 C575 1.385 . S
C572 H553 0.951 . S
C572 C570 1.388 . S
C572 C573 1.366 . S
C573 C572 1.366 . S
C573 C574 1.414 . S
C573 C576 1.499 . S
C574 H554 0.950 . S
C574 C573 1.414 . S
C574 C575 1.374 . S
C575 H555 0.950 . S
C575 C571 1.385 . S
C575 C574 1.374 . S
C576 C573 1.499 . S
C576 C577 1.373 . S
C576 C578 1.389 . S
C577 H556 0.950 . S
C577 C576 1.373 . S
C577 C593 1.377 . S
C578 C576 1.389 . S
C578 C579 1.524 . S
C578 C592 1.377 . S
C579 C578 1.524 . S
C579 C580 1.397 . S
C579 C584 1.363 . S
C580 H557 0.950 . S
C580 C579 1.397 . S
C580 C581 1.334 . S
C581 H558 0.950 . S
C581 C580 1.334 . S
C581 C582 1.287 . S
C582 C581 1.287 . S
C582 C583 1.524 . S
C582 H601 0.913 . S
C583 H559 0.950 . S
C583 C582 1.524 . S
C583 C584 1.415 . S
C584 H560 0.950 . S
C584 C579 1.363 . S
C584 C583 1.415 . S
C585 H561 0.951 . S
C585 C586 1.366 . S
C585 C587 1.388 . S
C586 C585 1.366 . S
C586 C590 1.385 . S
C587 H562 0.951 . S
C587 C585 1.388 . S
C587 C588 1.366 . S
C588 C587 1.366 . S
C588 C589 1.414 . S
C588 C591 1.499 . S
C589 H563 0.950 . S
C589 C588 1.414 . S
C589 C590 1.374 . S
C590 H564 0.950 . S
C590 C586 1.385 . S
C590 C589 1.374 . S
C591 C588 1.499 . S
C591 C592 1.373 . S
C591 C593 1.389 . S
C592 H565 0.950 . S
C592 C578 1.377 . S
C592 C591 1.373 . S
C593 C577 1.377 . S
C593 C591 1.389 . S
C593 C594 1.524 . S
C594 C593 1.524 . S
C594 C595 1.397 . S
C594 C599 1.363 . S
C595 H566 0.950 . S
C595 C594 1.397 . S
C595 C596 1.334 . S
C596 H567 0.950 . S
C596 C595 1.334 . S
C596 C597 1.287 . S
C597 C596 1.287 . S
C597 C598 1.524 . S
C597 H600 0.999 . S
C598 H568 0.950 . S
C598 C597 1.524 . S
C598 C599 1.415 . S
C599 H569 0.950 . S
C599 C594 1.363 . S
C599 C598 1.415 . S
H600 C597 0.999 . S
H601 C582 0.913 . S
H602 C620 0.951 . S
H603 C622 0.951 . S
H604 C624 0.950 . S
H605 C625 0.950 . S
H606 C627 0.950 . S
H607 C630 0.950 . S
H608 C631 0.950 . S
H609 C633 0.950 1_455 S
H610 C634 0.950 . S
H611 C635 0.951 . S
H612 C637 0.951 . S
H613 C639 0.950 1_455 S
H614 C640 0.950 . S
H615 C642 0.950 . S
H616 C645 0.950 . S
H617 C646 0.950 . S
H618 C648 0.950 . S
H619 C649 0.950 . S
C620 H602 0.951 . S
C620 C621 1.366 . S
C620 C622 1.388 . S
C621 C620 1.366 . S
C621 C625 1.385 . S
C622 H603 0.951 . S
C622 C620 1.388 . S
C622 C623 1.366 . S
C623 C622 1.366 . S
C623 C624 1.414 . S
C623 C626 1.499 . S
C624 H604 0.950 . S
C624 C623 1.414 . S
C624 C625 1.374 . S
C625 H605 0.950 . S
C625 C621 1.385 . S
C625 C624 1.374 . S
C626 C623 1.499 . S
C626 C627 1.373 . S
C626 C628 1.389 . S
C627 H606 0.950 . S
C627 C626 1.373 . S
C627 C643 1.377 . S
C628 C626 1.389 . S
C628 C629 1.524 . S
C628 C642 1.377 . S
C629 C628 1.524 . S
C629 C630 1.397 . S
C629 C634 1.363 . S
C630 H607 0.950 . S
C630 C629 1.397 . S
C630 C631 1.334 . S
C631 H608 0.950 . S
C631 C630 1.334 . S
C631 C632 1.287 . S
C632 C631 1.287 . S
C632 C633 1.524 . S
C632 H651 0.913 . S
C633 H609 0.950 1_655 S
C633 C632 1.524 . S
C633 C634 1.415 . S
C634 H610 0.950 . S
C634 C629 1.363 . S
C634 C633 1.415 . S
C635 H611 0.951 . S
C635 C636 1.366 1_655 S
C635 C637 1.388 . S
C636 C635 1.366 1_455 S
C636 C640 1.385 . S
C637 H612 0.951 . S
C637 C635 1.388 . S
C637 C638 1.366 . S
C638 C637 1.366 . S
C638 C639 1.414 . S
C638 C641 1.499 . S
C639 H613 0.950 1_655 S
C639 C638 1.414 . S
C639 C640 1.374 1_655 S
C640 H614 0.950 . S
C640 C636 1.385 . S
C640 C639 1.374 1_455 S
C641 C638 1.499 . S
C641 C642 1.373 . S
C641 C643 1.389 . S
C642 H615 0.950 . S
C642 C628 1.377 . S
C642 C641 1.373 . S
C643 C627 1.377 . S
C643 C641 1.389 . S
C643 C644 1.524 . S
C644 C643 1.524 . S
C644 C645 1.397 . S
C644 C649 1.363 . S
C645 H616 0.950 . S
C645 C644 1.397 . S
C645 C646 1.334 . S
C646 H617 0.950 . S
C646 C645 1.334 . S
C646 C647 1.287 . S
C647 C646 1.287 . S
C647 C648 1.524 . S
C647 H650 0.999 . S
C648 H618 0.950 . S
C648 C647 1.524 . S
C648 C649 1.415 . S
C649 H619 0.950 . S
C649 C644 1.363 . S
C649 C648 1.415 . S
H650 C647 0.999 . S
H651 C632 0.913 . S
H652 C670 0.951 . S
H653 C672 0.951 . S
H654 C674 0.950 . S
H655 C675 0.950 . S
H656 C677 0.950 . S
H657 C680 0.950 . S
H658 C681 0.950 . S
H659 C683 0.950 . S
H660 C684 0.950 . S
H661 C685 0.951 . S
H662 C687 0.951 . S
H663 C689 0.950 . S
H664 C690 0.950 . S
H665 C692 0.950 . S
H666 C695 0.950 . S
H667 C696 0.950 . S
H668 C698 0.950 . S
H669 C699 0.950 . S
C670 H652 0.951 . S
C670 C671 1.366 . S
C670 C672 1.388 . S
C671 C670 1.366 . S
C671 C675 1.385 . S
C672 H653 0.951 . S
C672 C670 1.388 . S
C672 C673 1.366 . S
C673 C672 1.366 . S
C673 C674 1.414 . S
C673 C676 1.499 . S
C674 H654 0.950 . S
C674 C673 1.414 . S
C674 C675 1.374 . S
C675 H655 0.950 . S
C675 C671 1.385 . S
C675 C674 1.374 . S
C676 C673 1.499 . S
C676 C677 1.373 . S
C676 C678 1.389 . S
C677 H656 0.950 . S
C677 C676 1.373 . S
C677 C693 1.377 . S
C678 C676 1.389 . S
C678 C679 1.524 . S
C678 C692 1.377 . S
C679 C678 1.524 . S
C679 C680 1.397 . S
C679 C684 1.363 . S
C680 H657 0.950 . S
C680 C679 1.397 . S
C680 C681 1.334 . S
C681 H658 0.950 . S
C681 C680 1.334 . S
C681 C682 1.287 . S
C682 C681 1.287 . S
C682 C683 1.524 . S
C682 H701 0.913 . S
C683 H659 0.950 . S
C683 C682 1.524 . S
C683 C684 1.415 . S
C684 H660 0.950 . S
C684 C679 1.363 . S
C684 C683 1.415 . S
C685 H661 0.951 . S
C685 C686 1.366 . S
C685 C687 1.388 . S
C686 C685 1.366 . S
C686 C690 1.385 . S
C687 H662 0.951 . S
C687 C685 1.388 . S
C687 C688 1.366 . S
C688 C687 1.366 . S
C688 C689 1.414 . S
C688 C691 1.499 . S
C689 H663 0.950 . S
C689 C688 1.414 . S
C689 C690 1.374 . S
C690 H664 0.950 . S
C690 C686 1.385 . S
C690 C689 1.374 . S
C691 C688 1.499 . S
C691 C692 1.373 . S
C691 C693 1.389 . S
C692 H665 0.950 . S
C692 C678 1.377 . S
C692 C691 1.373 . S
C693 C677 1.377 . S
C693 C691 1.389 . S
C693 C694 1.524 . S
C694 C693 1.524 . S
C694 C695 1.397 . S
C694 C699 1.363 . S
C695 H666 0.950 . S
C695 C694 1.397 . S
C695 C696 1.334 . S
C696 H667 0.950 . S
C696 C695 1.334 . S
C696 C697 1.287 . S
C697 C696 1.287 . S
C697 C698 1.524 . S
C697 H700 0.999 1_545 S
C698 H668 0.950 . S
C698 C697 1.524 . S
C698 C699 1.415 . S
C699 H669 0.950 . S
C699 C694 1.363 . S
C699 C698 1.415 . S
H700 C697 0.999 1_565 S
H701 C682 0.913 . S
H702 C720 0.951 . S
H703 C722 0.951 . S
H704 C724 0.950 . S
H705 C725 0.950 . S
H706 C727 0.950 . S
H707 C730 0.950 . S
H708 C731 0.950 . S
H709 C733 0.950 . S
H710 C734 0.950 . S
H711 C735 0.951 . S
H712 C737 0.951 . S
H713 C739 0.950 . S
H714 C740 0.950 . S
H715 C742 0.950 . S
H716 C745 0.950 . S
H717 C746 0.950 . S
H718 C748 0.950 . S
H719 C749 0.950 . S
C720 H702 0.951 . S
C720 C721 1.366 . S
C720 C722 1.388 . S
C721 C720 1.366 . S
C721 C725 1.385 . S
C722 H703 0.951 . S
C722 C720 1.388 . S
C722 C723 1.366 . S
C723 C722 1.366 . S
C723 C724 1.414 . S
C723 C726 1.499 . S
C724 H704 0.950 . S
C724 C723 1.414 . S
C724 C725 1.374 . S
C725 H705 0.950 . S
C725 C721 1.385 . S
C725 C724 1.374 . S
C726 C723 1.499 . S
C726 C727 1.373 . S
C726 C728 1.389 . S
C727 H706 0.950 . S
C727 C726 1.373 . S
C727 C743 1.377 . S
C728 C726 1.389 . S
C728 C729 1.524 . S
C728 C742 1.377 . S
C729 C728 1.524 . S
C729 C730 1.397 . S
C729 C734 1.363 . S
C730 H707 0.950 . S
C730 C729 1.397 . S
C730 C731 1.334 . S
C731 H708 0.950 . S
C731 C730 1.334 . S
C731 C732 1.287 . S
C732 C731 1.287 . S
C732 C733 1.524 . S
C732 H751 0.913 . S
C733 H709 0.950 . S
C733 C732 1.524 . S
C733 C734 1.415 . S
C734 H710 0.950 . S
C734 C729 1.363 . S
C734 C733 1.415 . S
C735 H711 0.951 . S
C735 C736 1.366 . S
C735 C737 1.388 . S
C736 C735 1.366 . S
C736 C740 1.385 . S
C737 H712 0.951 . S
C737 C735 1.388 . S
C737 C738 1.366 . S
C738 C737 1.366 . S
C738 C739 1.414 . S
C738 C741 1.499 . S
C739 H713 0.950 . S
C739 C738 1.414 . S
C739 C740 1.374 . S
C740 H714 0.950 . S
C740 C736 1.385 . S
C740 C739 1.374 . S
C741 C738 1.499 . S
C741 C742 1.373 . S
C741 C743 1.389 . S
C742 H715 0.950 . S
C742 C728 1.377 . S
C742 C741 1.373 . S
C743 C727 1.377 . S
C743 C741 1.389 . S
C743 C744 1.524 . S
C744 C743 1.524 . S
C744 C745 1.397 . S
C744 C749 1.363 . S
C745 H716 0.950 . S
C745 C744 1.397 . S
C745 C746 1.334 . S
C746 H717 0.950 . S
C746 C745 1.334 . S
C746 C747 1.287 . S
C747 C746 1.287 . S
C747 C748 1.524 . S
C747 H750 0.999 . S
C748 H718 0.950 . S
C748 C747 1.524 . S
C748 C749 1.415 . S
C749 H719 0.950 . S
C749 C744 1.363 . S
C749 C748 1.415 . S
H750 C747 0.999 . S
H751 C732 0.913 . S
H752 C770 0.951 . S
H753 C772 0.951 . S
H754 C774 0.950 . S
H755 C775 0.950 . S
H756 C777 0.950 . S
H757 C780 0.950 . S
H758 C781 0.950 . S
H759 C783 0.950 . S
H760 C784 0.950 . S
H761 C785 0.951 . S
H762 C787 0.951 . S
H763 C789 0.950 . S
H764 C790 0.950 . S
H765 C792 0.950 . S
H766 C795 0.950 . S
H767 C796 0.950 . S
H768 C798 0.950 . S
H769 C799 0.950 . S
C770 H752 0.951 . S
C770 C771 1.366 . S
C770 C772 1.388 . S
C771 C770 1.366 . S
C771 C775 1.385 . S
C772 H753 0.951 . S
C772 C770 1.388 . S
C772 C773 1.366 . S
C773 C772 1.366 . S
C773 C774 1.414 . S
C773 C776 1.499 . S
C774 H754 0.950 . S
C774 C773 1.414 . S
C774 C775 1.374 . S
C775 H755 0.950 . S
C775 C771 1.385 . S
C775 C774 1.374 . S
C776 C773 1.499 . S
C776 C777 1.373 . S
C776 C778 1.389 . S
C777 H756 0.950 . S
C777 C776 1.373 . S
C777 C793 1.377 . S
C778 C776 1.389 . S
C778 C779 1.524 . S
C778 C792 1.377 . S
C779 C778 1.524 . S
C779 C780 1.397 . S
C779 C784 1.363 . S
C780 H757 0.950 . S
C780 C779 1.397 . S
C780 C781 1.334 . S
C781 H758 0.950 . S
C781 C780 1.334 . S
C781 C782 1.287 . S
C782 C781 1.287 . S
C782 C783 1.524 . S
C782 H801 0.913 . S
C783 H759 0.950 . S
C783 C782 1.524 . S
C783 C784 1.415 . S
C784 H760 0.950 . S
C784 C779 1.363 . S
C784 C783 1.415 . S
C785 H761 0.951 . S
C785 C786 1.366 . S
C785 C787 1.388 . S
C786 C785 1.366 . S
C786 C790 1.385 . S
C787 H762 0.951 . S
C787 C785 1.388 . S
C787 C788 1.366 . S
C788 C787 1.366 . S
C788 C789 1.414 . S
C788 C791 1.499 . S
C789 H763 0.950 . S
C789 C788 1.414 . S
C789 C790 1.374 . S
C790 H764 0.950 . S
C790 C786 1.385 . S
C790 C789 1.374 . S
C791 C788 1.499 . S
C791 C792 1.373 . S
C791 C793 1.389 . S
C792 H765 0.950 . S
C792 C778 1.377 . S
C792 C791 1.373 . S
C793 C777 1.377 . S
C793 C791 1.389 . S
C793 C794 1.524 . S
C794 C793 1.524 . S
C794 C795 1.397 . S
C794 C799 1.363 . S
C795 H766 0.950 . S
C795 C794 1.397 . S
C795 C796 1.334 . S
C796 H767 0.950 . S
C796 C795 1.334 . S
C796 C797 1.287 . S
C797 C796 1.287 . S
C797 C798 1.524 . S
C797 H800 0.999 . S
C798 H768 0.950 . S
C798 C797 1.524 . S
C798 C799 1.415 . S
C799 H769 0.950 . S
C799 C794 1.363 . S
C799 C798 1.415 . S
H800 C797 0.999 . S
H801 C782 0.913 . S
C236 C167 1.438 . S
C221 C15 1.533 . S
C286 C163 1.436 . S
C271 C55 1.533 . S
C336 C188 1.439 . S
C321 C95 1.533 . S
C371 C135 1.529 . S
C386 C184 1.435 . S
C421 C21 1.064 . S
C436 C185 0.982 . S
C486 C200 0.997 . S
C471 C42 1.118 . S
C521 C2 1.726 . S
C536 C201 1.611 . S
C586 C197 1.642 . S
C571 C61 1.780 . S
C636 C164 0.982 . S
C621 C101 1.065 . S
C671 C122 1.117 . S
C686 C179 0.994 . S
C736 C180 1.613 . S
C721 C82 1.727 . S
C786 C176 1.642 1_655 S
C771 C141 1.780 . S
