# Generated by pormake.
# Topology rtl, (3,6)-cn, num edge types: 1
# Building blocks:
#     Node 0, Type 0, BuildingBlock: WUSLED_clean_sbu_0, # of connection points: 3
#     Node 1, Type 0, BuildingBlock: WUSLED_clean_sbu_0, # of connection points: 3
#     Node 2, Type 0, BuildingBlock: WUSLED_clean_sbu_0, # of connection points: 3
#     Node 3, Type 0, BuildingBlock: WUSLED_clean_sbu_0, # of connection points: 3
#     Node 4, Type 1, BuildingBlock: VOLQOD_clean_sbu_1, # of connection points: 6
#     Node 5, Type 1, BuildingBlock: VOLQOD_clean_sbu_1, # of connection points: 6
#     Edge 6, Type (0, 1), BuildingBlock: XUDNAN_clean_linker_2, # of connection points: 2
#     Edge 7, Type (0, 1), BuildingBlock: XUDNAN_clean_linker_2, # of connection points: 2
#     Edge 8, Type (0, 1), BuildingBlock: XUDNAN_clean_linker_2, # of connection points: 2
#     Edge 9, Type (0, 1), BuildingBlock: XUDNAN_clean_linker_2, # of connection points: 2
#     Edge 10, Type (0, 1), BuildingBlock: XUDNAN_clean_linker_2, # of connection points: 2
#     Edge 11, Type (0, 1), BuildingBlock: XUDNAN_clean_linker_2, # of connection points: 2
#     Edge 12, Type (0, 1), BuildingBlock: XUDNAN_clean_linker_2, # of connection points: 2
#     Edge 13, Type (0, 1), BuildingBlock: XUDNAN_clean_linker_2, # of connection points: 2
#     Edge 14, Type (0, 1), BuildingBlock: XUDNAN_clean_linker_2, # of connection points: 2
#     Edge 15, Type (0, 1), BuildingBlock: XUDNAN_clean_linker_2, # of connection points: 2
#     Edge 16, Type (0, 1), BuildingBlock: XUDNAN_clean_linker_2, # of connection points: 2
#     Edge 17, Type (0, 1), BuildingBlock: XUDNAN_clean_linker_2, # of connection points: 2
# Relax obj value: 0.076
# Max RMSD: 0.155
# Mean RMSD: 0.086
data_MOF--net-rtl--node1-WUSLED_clean_sbu_0--node2-VOLQOD_clean_sbu_1--edge1-XUDNAN_clean_linker_2
_symmetry_space_group_name_H-M    P1
_symmetry_Int_Tables_number       1
_symmetry_cell_setting            triclinic
loop_
_symmetry_equiv_pos_as_xyz
'x, y, z'
_cell_length_a     48.017088
_cell_length_b     41.838072
_cell_length_c     30.890528
_cell_angle_alpha  90.308189
_cell_angle_beta   90.520951
_cell_angle_gamma 89.911967
loop_
_atom_site_label
_atom_site_type_symbol
_atom_site_fract_x
_atom_site_fract_y
_atom_site_fract_z
_atom_type_partial_charge
C0 C 0.14181 0.79004 0.12869 0.0
C1 C 0.12176 0.81202 0.11418 0.0
C2 C 0.11555 0.83151 0.18777 0.0
C3 C 0.10879 0.8326 0.14343 0.0
C4 C 0.13467 0.80841 0.20252 0.0
C5 C 0.14784 0.7879 0.17307 0.0
U6 U 0.15479 0.76925 0.01224 0.0
O7 O 0.19365 0.76686 0.9753 0.0
O8 O 0.1668 0.72458 0.97933 0.0
C9 C 0.19096 0.73616 0.96722 0.0
C10 C 0.1578 0.77142 0.09702 0.0
C11 C 0.21559 0.71684 0.97822 0.0
C12 C 0.24409 0.68878 0.03114 0.0
C13 C 0.21963 0.70518 0.0203 0.0
C14 C 0.26066 0.69538 0.95787 0.0
C15 C 0.26508 0.68402 1.0002 0.0
C16 C 0.23612 0.71164 0.94703 0.0
C17 C 0.10686 0.81155 0.92987 0.0
C18 C 0.07959 0.84595 0.88288 0.0
C19 C 0.10872 0.80457 0.85178 0.0
C20 C 0.11717 0.79537 0.89345 0.0
C21 C 0.09005 0.83022 0.8461 0.0
C22 C 0.08794 0.83669 0.92432 0.0
C23 C 0.116 0.80347 0.97392 0.0
O24 O 0.14371 0.74936 0.07573 0.0
O25 O 0.17349 0.78886 0.0718 0.0
O26 O 0.14033 0.81505 0.98572 0.0
O27 O 0.11223 0.7737 0.98595 0.0
H28 H 0.11682 0.81395 0.07999 0.0
H29 H 0.0939 0.84991 0.13124 0.0
H30 H 0.14037 0.8072 0.23648 0.0
H31 H 0.16334 0.77111 0.18475 0.0
H32 H 0.24659 0.67996 0.06384 0.0
H33 H 0.20404 0.70915 0.04491 0.0
H34 H 0.27649 0.69257 0.9334 0.0
H35 H 0.23344 0.72077 0.9145 0.0
H36 H 0.06486 0.86545 0.87964 0.0
H37 H 0.11726 0.79215 0.82405 0.0
H38 H 0.13193 0.77595 0.89725 0.0
H39 H 0.07976 0.84938 0.95213 0.0
C40 C 0.66665 0.70253 0.65117 0.0
C41 C 0.67034 0.67065 0.6644 0.0
C42 C 0.63109 0.67528 0.7134 0.0
C43 C 0.65276 0.6572 0.69521 0.0
C44 C 0.62793 0.7074 0.70114 0.0
C45 C 0.6456 0.72091 0.67056 0.0
U46 U 0.68524 0.71042 0.53223 0.0
O47 O 0.69488 0.75224 0.49258 0.0
O48 O 0.72584 0.71388 0.49978 0.0
C49 C 0.72044 0.74262 0.48487 0.0
C50 C 0.68403 0.71662 0.61671 0.0
C51 C 0.74237 0.7667 0.49153 0.0
C52 C 0.76085 0.81337 0.52898 0.0
C53 C 0.74098 0.78907 0.52548 0.0
C54 C 0.78434 0.79242 0.46575 0.0
C55 C 0.78253 0.81554 0.49881 0.0
C56 C 0.76435 0.76828 0.4621 0.0
C57 C 0.64292 0.66275 0.44858 0.0
C58 C 0.65506 0.6375 0.38011 0.0
C59 C 0.60953 0.66147 0.38894 0.0
C60 C 0.61656 0.67015 0.43136 0.0
C61 C 0.62861 0.64484 0.36284 0.0
C62 C 0.66218 0.64641 0.42249 0.0
C63 C 0.64963 0.67198 0.49376 0.0
O64 O 0.70114 0.69705 0.59663 0.0
O65 O 0.6711 0.73632 0.59023 0.0
O66 O 0.64362 0.70165 0.50435 0.0
O67 O 0.67371 0.66227 0.50957 0.0
H68 H 0.68647 0.65581 0.65046 0.0
H69 H 0.65562 0.63234 0.70381 0.0
H70 H 0.6117 0.72209 0.71512 0.0
H71 H 0.64249 0.74566 0.66154 0.0
H72 H 0.75915 0.8306 0.55512 0.0
H73 H 0.72426 0.78811 0.54876 0.0
H74 H 0.80065 0.79363 0.44183 0.0
H75 H 0.76572 0.75123 0.43567 0.0
H76 H 0.67013 0.6243 0.36121 0.0
H77 H 0.58913 0.66796 0.37655 0.0
H78 H 0.60134 0.68271 0.45078 0.0
H79 H 0.68267 0.64025 0.43479 0.0
C80 C 0.85828 0.22592 0.13774 0.0
C81 C 0.85268 0.19537 0.15434 0.0
C82 C 0.89258 0.19933 0.20329 0.0
C83 C 0.86968 0.1822 0.18659 0.0
C84 C 0.89777 0.23019 0.18751 0.0
C85 C 0.88076 0.24338 0.15523 0.0
U86 U 0.84157 0.23697 0.01767 0.0
O87 O 0.80185 0.23462 0.98207 0.0
O88 O 0.82616 0.27901 0.982 0.0
C89 C 0.80249 0.26504 0.97166 0.0
C90 C 0.84074 0.23945 0.10253 0.0
C91 C 0.77718 0.28323 0.98202 0.0
C92 C 0.74015 0.29695 0.03183 0.0
C93 C 0.76507 0.28099 0.02305 0.0
C94 C 0.73972 0.31855 0.95918 0.0
C95 C 0.72704 0.31563 0.99983 0.0
C96 C 0.76456 0.30237 0.95033 0.0
C97 C 0.88871 0.19616 0.93475 0.0
C98 C 0.87526 0.18164 0.86124 0.0
C99 C 0.92394 0.18097 0.88257 0.0
C100 C 0.91668 0.19098 0.92423 0.0
C101 C 0.90328 0.17576 0.85067 0.0
C102 C 0.86806 0.19188 0.90281 0.0
C103 C 0.88141 0.20476 0.97947 0.0
O104 O 0.85228 0.26169 0.07866 0.0
O105 O 0.82612 0.21878 0.07956 0.0
O106 O 0.85865 0.19145 0.99431 0.0
O107 O 0.88368 0.23517 0.9898 0.0
H108 H 0.83534 0.18138 0.14207 0.0
H109 H 0.86522 0.15827 0.19774 0.0
H110 H 0.91494 0.24424 0.20022 0.0
H111 H 0.88537 0.2672 0.14377 0.0
H112 H 0.73107 0.2946 0.06363 0.0
H113 H 0.77468 0.26651 0.04807 0.0
H114 H 0.73 0.33257 0.9338 0.0
H115 H 0.77369 0.30439 0.91851 0.0
H116 H 0.85876 0.17753 0.83775 0.0
H117 H 0.94574 0.17727 0.87541 0.0
H118 H 0.93291 0.19433 0.94842 0.0
H119 H 0.84631 0.19584 0.91025 0.0
C120 C 0.35454 0.29223 0.39872 0.0
C121 C 0.3766 0.31183 0.41249 0.0
C122 C 0.38057 0.33365 0.3401 0.0
C123 C 0.38952 0.33229 0.38348 0.0
C124 C 0.35922 0.31302 0.32586 0.0
C125 C 0.34615 0.29252 0.35513 0.0
U126 U 0.34265 0.27768 0.51555 0.0
O127 O 0.30469 0.27354 0.55433 0.0
O128 O 0.33551 0.23463 0.55438 0.0
C129 C 0.31102 0.24463 0.5676 0.0
C130 C 0.33908 0.27398 0.43107 0.0
C131 C 0.2883 0.22128 0.56577 0.0
C132 C 0.26005 0.18183 0.5277 0.0
C133 C 0.2818 0.20414 0.52784 0.0
C134 C 0.25109 0.1941 0.60308 0.0
C135 C 0.24459 0.17642 0.56549 0.0
C136 C 0.27276 0.21623 0.60319 0.0
C137 C 0.38624 0.32715 0.59396 0.0
C138 C 0.38 0.32257 0.67156 0.0
C139 C 0.4133 0.36039 0.64314 0.0
C140 C 0.40637 0.35081 0.60101 0.0
C141 C 0.40015 0.34643 0.6789 0.0
C142 C 0.37308 0.31303 0.62939 0.0
C143 C 0.37878 0.31773 0.54959 0.0
O144 O 0.35426 0.25417 0.45437 0.0
O145 O 0.32213 0.29148 0.45453 0.0
O146 O 0.35366 0.32625 0.53698 0.0
O147 O 0.38509 0.28817 0.5389 0.0
H148 H 0.3833 0.31199 0.44608 0.0
H149 H 0.40616 0.34759 0.39522 0.0
H150 H 0.35186 0.31372 0.29262 0.0
H151 H 0.32901 0.27768 0.34408 0.0
H152 H 0.25563 0.16849 0.49829 0.0
H153 H 0.29359 0.2079 0.49858 0.0
H154 H 0.23925 0.19108 0.63245 0.0
H155 H 0.27738 0.22948 0.63263 0.0
H156 H 0.36929 0.31162 0.69837 0.0
H157 H 0.42917 0.37849 0.64772 0.0
H158 H 0.41673 0.36188 0.57392 0.0
H159 H 0.35736 0.29479 0.62438 0.0
O160 O 0.93954 0.99641 0.50021 0.0
Zn161 Zn 0.96908 0.03014 0.50502 0.0
O162 O 0.00579 0.01042 0.51025 0.0
Zn163 Zn 0.02062 0.0187 0.56817 0.0
Zn164 Zn 0.00318 0.96387 0.50052 0.0
Zn165 Zn 0.03019 0.02989 0.46764 0.0
O166 O 0.05774 0.04048 0.56511 0.0
O167 O 0.06454 0.04947 0.49525 0.0
O168 O 0.96034 0.05691 0.55753 0.0
O169 O 0.99501 0.04676 0.60345 0.0
O170 O 0.02748 0.97779 0.59986 0.0
O171 O 0.01949 0.93939 0.55147 0.0
O172 O 0.02362 0.95068 0.44573 0.0
O173 O 0.96629 0.05914 0.45318 0.0
O174 O 0.04237 0.99661 0.42499 0.0
O175 O 0.01024 0.06344 0.43253 0.0
C176 C 0.93981 0.96606 0.49658 0.0
C177 C 0.07257 0.05135 0.5346 0.0
C178 C 0.02729 0.94836 0.58919 0.0
C179 C 0.9721 0.06068 0.5943 0.0
C180 C 0.03833 0.96678 0.41946 0.0
C181 C 0.9847 0.07128 0.42884 0.0
O182 O 0.96265 0.95048 0.49544 0.0
O183 O 0.56328 0.47652 0.01331 0.0
Zn184 Zn 0.53985 0.51686 0.01517 0.0
O185 O 0.50028 0.50663 0.02321 0.0
Zn186 Zn 0.47849 0.52157 0.97354 0.0
Zn187 Zn 0.4956 0.46041 0.02959 0.0
Zn188 Zn 0.48663 0.52786 0.07501 0.0
O189 O 0.4461 0.54943 0.99196 0.0
O190 O 0.45529 0.55822 0.06153 0.0
O191 O 0.54554 0.54238 0.96037 0.0
O192 O 0.50254 0.54775 0.9342 0.0
O193 O 0.46369 0.48431 0.93867 0.0
O194 O 0.47442 0.44205 0.97874 0.0
O195 O 0.47542 0.44882 0.08463 0.0
O196 O 0.55453 0.54337 0.06551 0.0
O197 O 0.47118 0.49611 0.11662 0.0
O198 O 0.51725 0.55114 0.10625 0.0
C199 C 0.55772 0.44747 0.02202 0.0
C200 C 0.44047 0.56309 0.02781 0.0
C201 C 0.46342 0.45423 0.94496 0.0
C202 C 0.52855 0.55344 0.93221 0.0
C203 C 0.46757 0.466 0.11645 0.0
C204 C 0.54309 0.55506 0.09915 0.0
O205 O 0.53298 0.43865 0.03051 0.0
H206 H 0.20453 0.16486 0.50285 0.0
H207 H 0.23275 0.13418 0.62999 0.0
H208 H 0.1926 0.09782 0.6346 0.0
H209 H 0.13273 0.16508 0.52463 0.0
H210 H 0.12203 0.14973 0.47245 0.0
H211 H 0.15384 0.17219 0.47769 0.0
H212 H 0.18145 0.12525 0.44369 0.0
H213 H 0.14967 0.1027 0.43804 0.0
H214 H 0.17895 0.08596 0.46701 0.0
H215 H 0.14799 0.06801 0.62815 0.0
H216 H 0.10272 0.04385 0.60912 0.0
H217 H 0.10403 0.09173 0.48473 0.0
C218 C 0.20257 0.15004 0.53128 0.0
C219 C 0.22169 0.15259 0.56622 0.0
C220 C 0.21812 0.13308 0.60314 0.0
C221 C 0.19548 0.11219 0.60596 0.0
C222 C 0.17672 0.11078 0.57142 0.0
C223 C 0.18012 0.12887 0.53456 0.0
C224 C 0.15646 0.12329 0.50258 0.0
C225 C 0.14031 0.15443 0.49384 0.0
C226 C 0.16728 0.10841 0.46033 0.0
C227 C 0.13902 0.09968 0.52762 0.0
C228 C 0.15114 0.09285 0.56724 0.0
C229 C 0.13842 0.07287 0.59701 0.0
C230 C 0.11263 0.05939 0.58597 0.0
C231 C 0.09987 0.0658 0.54538 0.0
C232 C 0.1134 0.0861 0.51579 0.0
H233 H 0.29619 0.64153 0.95203 0.0
H234 H 0.29484 0.69124 0.0758 0.0
H235 H 0.33942 0.66584 0.096 0.0
H236 H 0.32603 0.56817 0.99051 0.0
H237 H 0.34724 0.56199 0.94334 0.0
H238 H 0.31493 0.58368 0.93881 0.0
H239 H 0.34111 0.63175 0.90584 0.0
H240 H 0.37352 0.61023 0.91034 0.0
H241 H 0.37007 0.64915 0.93504 0.0
H242 H 0.38408 0.63526 0.10288 0.0
H243 H 0.42582 0.6013 0.09615 0.0
H244 H 0.39902 0.57269 0.96695 0.0
C245 C 0.30533 0.64728 0.98327 0.0
C246 C 0.29183 0.6683 0.0124 0.0
C247 C 0.30443 0.6748 0.0532 0.0
C248 C 0.32989 0.66068 0.06487 0.0
C249 C 0.34261 0.6402 0.03535 0.0
C250 C 0.3308 0.6335 0.99539 0.0
C251 C 0.34885 0.61069 0.96963 0.0
C252 C 0.33333 0.57927 0.96003 0.0
C253 C 0.35899 0.6264 0.92773 0.0
C254 C 0.37266 0.60562 1.0014 0.0
C255 C 0.3686 0.62284 0.0391 0.0
C256 C 0.38753 0.62171 0.07347 0.0
C257 C 0.41119 0.60231 0.0693 0.0
C258 C 0.41581 0.58433 0.03098 0.0
C259 C 0.39625 0.58625 0.99656 0.0
H260 H 0.83941 0.81357 0.48919 0.0
H261 H 0.77056 0.87871 0.51181 0.0
H262 H 0.80323 0.92423 0.51235 0.0
H263 H 0.88926 0.85452 0.55741 0.0
H264 H 0.9182 0.84681 0.52208 0.0
H265 H 0.88937 0.81935 0.52342 0.0
H266 H 0.88266 0.82538 0.44052 0.0
H267 H 0.9114 0.85297 0.43896 0.0
H268 H 0.87779 0.86464 0.41788 0.0
H269 H 0.84298 0.96262 0.50894 0.0
H270 H 0.8876 0.99139 0.50596 0.0
H271 H 0.931 0.90132 0.48624 0.0
C272 C 0.83122 0.83743 0.49412 0.0
C273 C 0.80245 0.84262 0.50055 0.0
C274 C 0.79256 0.87415 0.50738 0.0
C275 C 0.81092 0.90017 0.50742 0.0
C276 C 0.83911 0.89424 0.50075 0.0
C277 C 0.84928 0.86367 0.49452 0.0
C278 C 0.8806 0.86387 0.48878 0.0
C279 C 0.89521 0.84502 0.52509 0.0
C280 C 0.88857 0.85095 0.44386 0.0
C281 C 0.88642 0.89936 0.49268 0.0
C282 C 0.86216 0.91642 0.49934 0.0
C283 C 0.86214 0.94953 0.50384 0.0
C284 C 0.88764 0.96565 0.50198 0.0
C285 C 0.91291 0.94867 0.4959 0.0
C286 C 0.91212 0.91505 0.49093 0.0
H287 H 0.71015 0.3767 0.97953 0.0
H288 H 0.68199 0.28879 0.03877 0.0
H289 H 0.63594 0.31321 0.05146 0.0
H290 H 0.67368 0.43055 0.05164 0.0
H291 H 0.66537 0.45893 0.00975 0.0
H292 H 0.69629 0.4347 0.00575 0.0
H293 H 0.67987 0.4141 0.9305 0.0
H294 H 0.64889 0.43823 0.9343 0.0
H295 H 0.64605 0.39579 0.92497 0.0
H296 H 0.59265 0.34623 0.05547 0.0
H297 H 0.55523 0.38655 0.05338 0.0
H298 H 0.61149 0.45367 0.99262 0.0
C299 C 0.69426 0.3626 0.9951 0.0
C300 C 0.69966 0.33086 0.00828 0.0
C301 C 0.67842 0.31327 0.02892 0.0
C302 C 0.65216 0.32687 0.03604 0.0
C303 C 0.6475 0.35814 0.02255 0.0
C304 C 0.66796 0.37589 0.00275 0.0
C305 C 0.65748 0.40907 0.99158 0.0
C306 C 0.6742 0.43483 0.01616 0.0
C307 C 0.65811 0.41461 0.94242 0.0
C308 C 0.62786 0.40707 0.0079 0.0
C309 C 0.62256 0.37744 0.0255 0.0
C310 C 0.59657 0.36959 0.04195 0.0
C311 C 0.57542 0.39267 0.0405 0.0
C312 C 0.58037 0.42336 0.02292 0.0
C313 C 0.60704 0.43054 0.0065 0.0
H314 H 0.09236 0.82311 0.26841 0.0
H315 H 0.11394 0.89563 0.17458 0.0
H316 H 0.09626 0.93752 0.22356 0.0
H317 H 0.02833 0.86079 0.30383 0.0
H318 H 0.03291 0.84957 0.3597 0.0
H319 H 0.04731 0.82495 0.3174 0.0
H320 H 0.09619 0.82957 0.35305 0.0
H321 H 0.08194 0.85422 0.39544 0.0
H322 H 0.11065 0.86859 0.36382 0.0
H323 H 0.07793 0.97154 0.28252 0.0
H324 H 0.0578 0.99625 0.34749 0.0
H325 H 0.04629 0.90224 0.40365 0.0
C326 C 0.09335 0.84783 0.25833 0.0
C327 C 0.10438 0.85617 0.21762 0.0
C328 C 0.10522 0.88872 0.20536 0.0
C329 C 0.09538 0.91268 0.23304 0.0
C330 C 0.08458 0.90373 0.27282 0.0
C331 C 0.0833 0.87215 0.28548 0.0
C332 C 0.07032 0.86927 0.32993 0.0
C333 C 0.0431 0.85 0.32755 0.0
C334 C 0.09102 0.85454 0.36248 0.0
C335 C 0.06475 0.90419 0.34025 0.0
C336 C 0.07331 0.92356 0.30684 0.0
C337 C 0.07102 0.95666 0.30886 0.0
C338 C 0.05961 0.97046 0.34604 0.0
C339 C 0.05041 0.95122 0.38073 0.0
C340 C 0.05296 0.91758 0.3776 0.0
H341 H 0.64274 0.63525 0.78168 0.0
H342 H 0.5744 0.68127 0.71327 0.0
H343 H 0.54092 0.65543 0.76208 0.0
H344 H 0.60845 0.56041 0.79956 0.0
H345 H 0.62325 0.55479 0.85282 0.0
H346 H 0.64195 0.57735 0.81302 0.0
H347 H 0.64475 0.62557 0.86588 0.0
H348 H 0.6261 0.60314 0.90587 0.0
H349 H 0.61318 0.64154 0.88865 0.0
H350 H 0.51481 0.62335 0.81648 0.0
H351 H 0.49775 0.58892 0.87499 0.0
H352 H 0.58305 0.56411 0.90902 0.0
C353 C 0.62073 0.63982 0.77694 0.0
C354 C 0.61117 0.66035 0.74373 0.0
C355 C 0.58221 0.66598 0.73884 0.0
C356 C 0.56303 0.65126 0.76623 0.0
C357 C 0.57312 0.63109 0.79849 0.0
C358 C 0.60128 0.62548 0.80417 0.0
C359 C 0.6066 0.60283 0.8415 0.0
C360 C 0.62091 0.57202 0.82577 0.0
C361 C 0.62367 0.61926 0.87761 0.0
C362 C 0.57702 0.59644 0.85571 0.0
C363 C 0.55805 0.6129 0.83035 0.0
C364 C 0.52947 0.61044 0.83669 0.0
C365 C 0.51999 0.59073 0.86999 0.0
C366 C 0.53903 0.57381 0.89676 0.0
C367 C 0.56794 0.57682 0.88935 0.0
H368 H 0.87801 0.16305 0.27352 0.0
H369 H 0.94959 0.20193 0.20711 0.0
H370 H 0.98091 0.17562 0.25983 0.0
H371 H 0.90647 0.16912 0.38279 0.0
H372 H 0.89115 0.132 0.39981 0.0
H373 H 0.87434 0.15547 0.35839 0.0
H374 H 0.87497 0.10664 0.30641 0.0
H375 H 0.89177 0.08303 0.34764 0.0
H376 H 0.90757 0.08694 0.29522 0.0
H377 H 0.00447 0.14262 0.31723 0.0
H378 H 0.01859 0.10597 0.37579 0.0
H379 H 0.93156 0.08837 0.40439 0.0
C380 C 0.90027 0.16608 0.27005 0.0
C381 C 0.91133 0.18466 0.23621 0.0
C382 C 0.9406 0.18824 0.23313 0.0
C383 C 0.95857 0.17325 0.26278 0.0
C384 C 0.94696 0.15486 0.29545 0.0
C385 C 0.91849 0.15131 0.29936 0.0
C386 C 0.91137 0.12952 0.33663 0.0
C387 C 0.89486 0.14762 0.37147 0.0
C388 C 0.89549 0.09977 0.3205 0.0
C389 C 0.9403 0.12097 0.35268 0.0
C390 C 0.96054 0.13592 0.3286 0.0
C391 C 0.98881 0.13095 0.33652 0.0
C392 C 0.99661 0.11003 0.36983 0.0
C393 C 0.97621 0.0943 0.39485 0.0
C394 C 0.9477 0.10014 0.38616 0.0
H395 H 0.40911 0.40753 0.70852 0.0
H396 H 0.40801 0.30864 0.75028 0.0
H397 H 0.4214 0.32577 0.82424 0.0
H398 H 0.46896 0.43063 0.76919 0.0
H399 H 0.45606 0.47005 0.78176 0.0
H400 H 0.44476 0.45009 0.73294 0.0
H401 H 0.3933 0.45706 0.75589 0.0
H402 H 0.40446 0.47698 0.80489 0.0
H403 H 0.38232 0.44232 0.80775 0.0
H404 H 0.43739 0.35347 0.89255 0.0
H405 H 0.45467 0.38959 0.95018 0.0
H406 H 0.44536 0.47032 0.86336 0.0
C407 C 0.41171 0.38945 0.73318 0.0
C408 C 0.40748 0.35673 0.72363 0.0
C409 C 0.41079 0.33387 0.75698 0.0
C410 C 0.41849 0.34336 0.79903 0.0
C411 C 0.42267 0.37579 0.80722 0.0
C412 C 0.41933 0.39848 0.77526 0.0
C413 C 0.42585 0.43169 0.79214 0.0
C414 C 0.45037 0.44647 0.76755 0.0
C415 C 0.39994 0.45328 0.79005 0.0
C416 C 0.43382 0.42408 0.83846 0.0
C417 C 0.43173 0.39174 0.84658 0.0
C418 C 0.43891 0.37888 0.88666 0.0
C419 C 0.44874 0.39961 0.91918 0.0
C420 C 0.4513 0.43284 0.91142 0.0
C421 C 0.44342 0.44512 0.87056 0.0
H422 H 0.57805 0.62184 0.33477 0.0
H423 H 0.66119 0.64415 0.2899 0.0
H424 H 0.64813 0.6252 0.2166 0.0
H425 H 0.56838 0.55119 0.27378 0.0
H426 H 0.53203 0.55848 0.26249 0.0
H427 H 0.54783 0.57453 0.31095 0.0
H428 H 0.53194 0.63152 0.28917 0.0
H429 H 0.51603 0.61561 0.24062 0.0
H430 H 0.5415 0.64707 0.23706 0.0
H431 H 0.62624 0.60154 0.14865 0.0
H432 H 0.59715 0.57594 0.0918 0.0
H433 H 0.5281 0.57179 0.1814 0.0
C434 C 0.59344 0.62333 0.30946 0.0
C435 C 0.62067 0.63452 0.31824 0.0
C436 C 0.64029 0.63529 0.2842 0.0
C437 C 0.63302 0.6248 0.24236 0.0
C438 C 0.60599 0.61383 0.23498 0.0
C439 C 0.58649 0.61321 0.26758 0.0
C440 C 0.55901 0.59982 0.2516 0.0
C441 C 0.55138 0.56919 0.27616 0.0
C442 C 0.53575 0.62501 0.2548 0.0
C443 C 0.56615 0.59265 0.20497 0.0
C444 C 0.59332 0.60088 0.1959 0.0
C445 C 0.60485 0.59527 0.15529 0.0
C446 C 0.58818 0.58069 0.12323 0.0
C447 C 0.56028 0.57203 0.13199 0.0
C448 C 0.54921 0.57844 0.17338 0.0
H449 H 0.94318 0.13096 0.83038 0.0
H450 H 0.88038 0.19233 0.77197 0.0
H451 H 0.89136 0.16982 0.70013 0.0
H452 H 0.99332 0.13771 0.74326 0.0
H453 H 0.00469 0.0968 0.74819 0.0
H454 H 0.99198 0.11799 0.79495 0.0
H455 H 0.95547 0.07346 0.80717 0.0
H456 H 0.96795 0.05223 0.76035 0.0
H457 H 0.93167 0.06294 0.76394 0.0
H458 H 0.90794 0.13915 0.63504 0.0
H459 H 0.93028 0.10417 0.58091 0.0
H460 H 0.98376 0.0647 0.68145 0.0
C461 C 0.93201 0.14013 0.80248 0.0
C462 C 0.91081 0.16341 0.80701 0.0
C463 C 0.89638 0.17417 0.76956 0.0
C464 C 0.9026 0.16168 0.72853 0.0
C465 C 0.92344 0.13861 0.72538 0.0
C466 C 0.93808 0.12812 0.76128 0.0
C467 C 0.9594 0.10297 0.74912 0.0
C468 C 0.9891 0.11457 0.75949 0.0
C469 C 0.95324 0.07101 0.77147 0.0
C470 C 0.9543 0.10078 0.70076 0.0
C471 C 0.93342 0.12146 0.68774 0.0
C472 C 0.92446 0.12303 0.6448 0.0
C473 C 0.93723 0.10298 0.61432 0.0
C474 C 0.95886 0.08176 0.62686 0.0
C475 C 0.96748 0.08084 0.67072 0.0
H476 H 0.39922 0.32596 0.25644 0.0
H477 H 0.38842 0.39663 0.35833 0.0
H478 H 0.4091 0.43779 0.31185 0.0
H479 H 0.46531 0.35472 0.21994 0.0
H480 H 0.45822 0.34716 0.16341 0.0
H481 H 0.44182 0.32311 0.20406 0.0
H482 H 0.39327 0.33744 0.17235 0.0
H483 H 0.40954 0.36148 0.13152 0.0
H484 H 0.38362 0.37886 0.16636 0.0
H485 H 0.43098 0.47108 0.25565 0.0
H486 H 0.45346 0.49506 0.19249 0.0
H487 H 0.45098 0.40321 0.1261 0.0
C488 C 0.40104 0.35017 0.2687 0.0
C489 C 0.39238 0.35812 0.31105 0.0
C490 C 0.39528 0.38997 0.32621 0.0
C491 C 0.40686 0.41354 0.3 0.0
C492 C 0.41547 0.40491 0.25868 0.0
C493 C 0.41276 0.37407 0.24298 0.0
C494 C 0.4243 0.37126 0.19755 0.0
C495 C 0.44887 0.34766 0.19618 0.0
C496 C 0.40131 0.3617 0.16503 0.0
C497 C 0.4339 0.40533 0.19035 0.0
C498 C 0.42847 0.42427 0.22605 0.0
C499 C 0.43534 0.45654 0.22743 0.0
C500 C 0.44812 0.46993 0.19129 0.0
C501 C 0.45404 0.45107 0.15421 0.0
C502 C 0.44681 0.41828 0.15391 0.0
H503 H 0.08616 0.89181 0.81779 0.0
H504 H 0.07516 0.7936 0.77535 0.0
H505 H 0.05915 0.81271 0.7035 0.0
H506 H 0.02601 0.92332 0.76664 0.0
H507 H 0.04215 0.96068 0.75259 0.0
H508 H 0.05416 0.93901 0.79936 0.0
H509 H 0.10435 0.93862 0.76904 0.0
H510 H 0.09249 0.96039 0.7222 0.0
H511 H 0.11046 0.92285 0.71553 0.0
H512 H 0.04222 0.84341 0.63701 0.0
H513 H 0.02689 0.88261 0.58192 0.0
H514 H 0.04889 0.96004 0.6699 0.0
C515 C 0.08036 0.87427 0.79343 0.0
C516 C 0.08177 0.84122 0.80219 0.0
C517 C 0.07443 0.81905 0.76919 0.0
C518 C 0.06521 0.82968 0.72839 0.0
C519 C 0.06367 0.86253 0.72113 0.0
C520 C 0.07121 0.88443 0.75275 0.0
C521 C 0.06728 0.91839 0.73739 0.0
C522 C 0.04614 0.93639 0.76567 0.0
C523 C 0.09531 0.93609 0.73595 0.0
C524 C 0.05585 0.91228 0.69238 0.0
C525 C 0.05403 0.87997 0.68334 0.0
C526 C 0.04369 0.86876 0.64373 0.0
C527 C 0.03501 0.89121 0.61266 0.0
C528 C 0.03663 0.92445 0.6215 0.0
C529 C 0.04729 0.93487 0.66196 0.0
loop_
_geom_bond_atom_site_label_1
_geom_bond_atom_site_label_2
_geom_bond_distance
_geom_bond_site_symmetry_2
_ccdc_geom_bond_type
C0 C1 1.264 . S
C0 C5 1.479 . S
C0 C10 1.465 . S
C1 C0 1.264 . S
C1 C3 1.339 . S
C1 H28 0.931 . S
C2 C3 1.395 . S
C2 C4 1.320 . S
C3 C1 1.339 . S
C3 C2 1.395 . S
C3 H29 0.929 . S
C4 C2 1.320 . S
C4 C5 1.405 . S
C4 H30 0.930 . S
C5 C0 1.479 . S
C5 C4 1.405 . S
C5 H31 0.931 . S
U6 O7 2.454 . S
U6 O8 2.458 1_554 S
U6 C9 2.984 . S
U6 C10 2.847 . S
U6 C23 2.882 1_554 S
U6 O24 2.441 . S
U6 O25 2.420 . S
U6 O26 2.455 1_554 S
U6 O27 2.449 1_554 S
O7 U6 2.454 . S
O7 C9 1.353 . S
O8 U6 2.458 1_556 S
O8 C9 1.286 1_556 S
C9 U6 2.984 . S
C9 O7 1.353 . S
C9 O8 1.286 1_554 S
C9 C11 1.363 . S
C10 C0 1.465 . S
C10 U6 2.847 . S
C10 O24 1.249 . S
C10 O25 1.202 . S
C11 C9 1.363 . S
C11 C13 1.408 . S
C11 C16 1.342 1_554 S
C12 C13 1.310 . S
C12 C15 1.461 . S
C12 H32 0.932 . S
C13 C11 1.408 . S
C13 C12 1.310 . S
C13 H33 0.930 . S
C14 C15 1.474 1_556 S
C14 C16 1.285 . S
C14 H34 0.929 . S
C15 C12 1.461 . S
C15 C14 1.474 1_554 S
C16 C11 1.342 1_556 S
C16 C14 1.285 . S
C16 H35 0.930 . S
C17 C20 1.424 . S
C17 C22 1.245 . S
C17 C23 1.428 . S
C18 C21 1.260 . S
C18 C22 1.477 . S
C18 H36 0.932 . S
C19 C20 1.384 . S
C19 C21 1.479 . S
C19 H37 0.929 . S
C20 C17 1.424 . S
C20 C19 1.384 . S
C20 H38 0.928 . S
C21 C18 1.260 . S
C21 C19 1.479 . S
C22 C17 1.245 . S
C22 C18 1.477 . S
C22 H39 0.932 . S
C23 U6 2.882 1_556 S
C23 C17 1.428 . S
C23 O26 1.301 . S
C23 O27 1.282 . S
O24 U6 2.441 . S
O24 C10 1.249 . S
O25 U6 2.420 . S
O25 C10 1.202 . S
O26 U6 2.455 1_556 S
O26 C23 1.301 . S
O27 U6 2.449 1_556 S
O27 C23 1.282 . S
H28 C1 0.931 . S
H29 C3 0.929 . S
H30 C4 0.930 . S
H31 C5 0.931 . S
H32 C12 0.932 . S
H33 C13 0.930 . S
H34 C14 0.929 . S
H35 C16 0.930 . S
H36 C18 0.932 . S
H37 C19 0.929 . S
H38 C20 0.928 . S
H39 C22 0.932 . S
C40 C41 1.264 . S
C40 C45 1.479 . S
C40 C50 1.465 . S
C41 C40 1.264 . S
C41 C43 1.339 . S
C41 H68 0.931 . S
C42 C43 1.395 . S
C42 C44 1.320 . S
C43 C41 1.339 . S
C43 C42 1.395 . S
C43 H69 0.929 . S
C44 C42 1.320 . S
C44 C45 1.405 . S
C44 H70 0.930 . S
C45 C40 1.479 . S
C45 C44 1.405 . S
C45 H71 0.931 . S
U46 O47 2.454 . S
U46 O48 2.458 . S
U46 C49 2.984 . S
U46 C50 2.847 . S
U46 C63 2.882 . S
U46 O64 2.441 . S
U46 O65 2.420 . S
U46 O66 2.455 . S
U46 O67 2.449 . S
O47 U46 2.454 . S
O47 C49 1.353 . S
O48 U46 2.458 . S
O48 C49 1.286 . S
C49 U46 2.984 . S
C49 O47 1.353 . S
C49 O48 1.286 . S
C49 C51 1.363 . S
C50 C40 1.465 . S
C50 U46 2.847 . S
C50 O64 1.249 . S
C50 O65 1.202 . S
C51 C49 1.363 . S
C51 C53 1.408 . S
C51 C56 1.342 . S
C52 C53 1.310 . S
C52 C55 1.461 . S
C52 H72 0.932 . S
C53 C51 1.408 . S
C53 C52 1.310 . S
C53 H73 0.930 . S
C54 C55 1.474 . S
C54 C56 1.285 . S
C54 H74 0.929 . S
C55 C52 1.461 . S
C55 C54 1.474 . S
C56 C51 1.342 . S
C56 C54 1.285 . S
C56 H75 0.930 . S
C57 C60 1.424 . S
C57 C62 1.245 . S
C57 C63 1.428 . S
C58 C61 1.260 . S
C58 C62 1.477 . S
C58 H76 0.932 . S
C59 C60 1.384 . S
C59 C61 1.479 . S
C59 H77 0.929 . S
C60 C57 1.424 . S
C60 C59 1.384 . S
C60 H78 0.928 . S
C61 C58 1.260 . S
C61 C59 1.479 . S
C62 C57 1.245 . S
C62 C58 1.477 . S
C62 H79 0.932 . S
C63 U46 2.882 . S
C63 C57 1.428 . S
C63 O66 1.301 . S
C63 O67 1.282 . S
O64 U46 2.441 . S
O64 C50 1.249 . S
O65 U46 2.420 . S
O65 C50 1.202 . S
O66 U46 2.455 . S
O66 C63 1.301 . S
O67 U46 2.449 . S
O67 C63 1.282 . S
H68 C41 0.931 . S
H69 C43 0.929 . S
H70 C44 0.930 . S
H71 C45 0.931 . S
H72 C52 0.932 . S
H73 C53 0.930 . S
H74 C54 0.929 . S
H75 C56 0.930 . S
H76 C58 0.932 . S
H77 C59 0.929 . S
H78 C60 0.928 . S
H79 C62 0.932 . S
C80 C81 1.264 . S
C80 C85 1.479 . S
C80 C90 1.465 . S
C81 C80 1.264 . S
C81 C83 1.339 . S
C81 H108 0.931 . S
C82 C83 1.395 . S
C82 C84 1.320 . S
C83 C81 1.339 . S
C83 C82 1.395 . S
C83 H109 0.929 . S
C84 C82 1.320 . S
C84 C85 1.405 . S
C84 H110 0.930 . S
C85 C80 1.479 . S
C85 C84 1.405 . S
C85 H111 0.931 . S
U86 O87 2.454 . S
U86 O88 2.458 1_554 S
U86 C89 2.984 . S
U86 C90 2.847 . S
U86 C103 2.882 1_554 S
U86 O104 2.441 . S
U86 O105 2.420 . S
U86 O106 2.455 1_554 S
U86 O107 2.449 1_554 S
O87 U86 2.454 . S
O87 C89 1.353 . S
O88 U86 2.458 1_556 S
O88 C89 1.286 1_556 S
C89 U86 2.984 . S
C89 O87 1.353 . S
C89 O88 1.286 1_554 S
C89 C91 1.363 . S
C90 C80 1.465 . S
C90 U86 2.847 . S
C90 O104 1.249 . S
C90 O105 1.202 . S
C91 C89 1.363 . S
C91 C93 1.408 . S
C91 C96 1.342 1_554 S
C92 C93 1.310 . S
C92 C95 1.461 . S
C92 H112 0.932 . S
C93 C91 1.408 . S
C93 C92 1.310 . S
C93 H113 0.930 . S
C94 C95 1.474 1_556 S
C94 C96 1.285 . S
C94 H114 0.929 . S
C95 C92 1.461 . S
C95 C94 1.474 1_554 S
C96 C91 1.342 1_556 S
C96 C94 1.285 . S
C96 H115 0.930 . S
C97 C100 1.424 . S
C97 C102 1.245 . S
C97 C103 1.428 . S
C98 C101 1.260 . S
C98 C102 1.477 . S
C98 H116 0.932 . S
C99 C100 1.384 . S
C99 C101 1.479 . S
C99 H117 0.929 . S
C100 C97 1.424 . S
C100 C99 1.384 . S
C100 H118 0.928 . S
C101 C98 1.260 . S
C101 C99 1.479 . S
C102 C97 1.245 . S
C102 C98 1.477 . S
C102 H119 0.932 . S
C103 U86 2.882 1_556 S
C103 C97 1.428 . S
C103 O106 1.301 . S
C103 O107 1.282 . S
O104 U86 2.441 . S
O104 C90 1.249 . S
O105 U86 2.420 . S
O105 C90 1.202 . S
O106 U86 2.455 1_556 S
O106 C103 1.301 . S
O107 U86 2.449 1_556 S
O107 C103 1.282 . S
H108 C81 0.931 . S
H109 C83 0.929 . S
H110 C84 0.930 . S
H111 C85 0.931 . S
H112 C92 0.932 . S
H113 C93 0.930 . S
H114 C94 0.929 . S
H115 C96 0.930 . S
H116 C98 0.932 . S
H117 C99 0.929 . S
H118 C100 0.928 . S
H119 C102 0.932 . S
C120 C121 1.264 . S
C120 C125 1.479 . S
C120 C130 1.465 . S
C121 C120 1.264 . S
C121 C123 1.339 . S
C121 H148 0.931 . S
C122 C123 1.395 . S
C122 C124 1.320 . S
C123 C121 1.339 . S
C123 C122 1.395 . S
C123 H149 0.929 . S
C124 C122 1.320 . S
C124 C125 1.405 . S
C124 H150 0.930 . S
C125 C120 1.479 . S
C125 C124 1.405 . S
C125 H151 0.931 . S
U126 O127 2.454 . S
U126 O128 2.458 . S
U126 C129 2.984 . S
U126 C130 2.847 . S
U126 C143 2.882 . S
U126 O144 2.441 . S
U126 O145 2.420 . S
U126 O146 2.455 . S
U126 O147 2.449 . S
O127 U126 2.454 . S
O127 C129 1.353 . S
O128 U126 2.458 . S
O128 C129 1.286 . S
C129 U126 2.984 . S
C129 O127 1.353 . S
C129 O128 1.286 . S
C129 C131 1.363 . S
C130 C120 1.465 . S
C130 U126 2.847 . S
C130 O144 1.249 . S
C130 O145 1.202 . S
C131 C129 1.363 . S
C131 C133 1.408 . S
C131 C136 1.342 . S
C132 C133 1.310 . S
C132 C135 1.461 . S
C132 H152 0.932 . S
C133 C131 1.408 . S
C133 C132 1.310 . S
C133 H153 0.930 . S
C134 C135 1.474 . S
C134 C136 1.285 . S
C134 H154 0.929 . S
C135 C132 1.461 . S
C135 C134 1.474 . S
C136 C131 1.342 . S
C136 C134 1.285 . S
C136 H155 0.930 . S
C137 C140 1.424 . S
C137 C142 1.245 . S
C137 C143 1.428 . S
C138 C141 1.260 . S
C138 C142 1.477 . S
C138 H156 0.932 . S
C139 C140 1.384 . S
C139 C141 1.479 . S
C139 H157 0.929 . S
C140 C137 1.424 . S
C140 C139 1.384 . S
C140 H158 0.928 . S
C141 C138 1.260 . S
C141 C139 1.479 . S
C142 C137 1.245 . S
C142 C138 1.477 . S
C142 H159 0.932 . S
C143 U126 2.882 . S
C143 C137 1.428 . S
C143 O146 1.301 . S
C143 O147 1.282 . S
O144 U126 2.441 . S
O144 C130 1.249 . S
O145 U126 2.420 . S
O145 C130 1.202 . S
O146 U126 2.455 . S
O146 C143 1.301 . S
O147 U126 2.449 . S
O147 C143 1.282 . S
H148 C121 0.931 . S
H149 C123 0.929 . S
H150 C124 0.930 . S
H151 C125 0.931 . S
H152 C132 0.932 . S
H153 C133 0.930 . S
H154 C134 0.929 . S
H155 C136 0.930 . S
H156 C138 0.932 . S
H157 C139 0.929 . S
H158 C140 0.928 . S
H159 C142 0.932 . S
O160 Zn161 1.953 1_565 S
O160 C176 1.225 . S
Zn161 O160 1.953 1_545 S
Zn161 O162 1.949 1_655 S
Zn161 O168 1.919 . S
Zn161 O173 1.924 . S
O162 Zn161 1.949 1_455 S
O162 Zn163 1.923 . S
O162 Zn164 1.950 1_445 S
O162 Zn165 1.945 . S
Zn163 O162 1.923 . S
Zn163 O166 1.933 . S
Zn163 O169 1.941 . S
Zn163 O170 1.965 1_545 S
Zn164 O162 1.950 1_665 S
Zn164 O171 1.938 1_655 S
Zn164 O172 1.906 1_655 S
Zn164 O182 1.953 . S
Zn165 O162 1.945 . S
Zn165 O167 1.932 . S
Zn165 O174 1.977 1_545 S
Zn165 O175 1.910 1_455 S
O166 Zn163 1.933 . S
O166 C177 1.226 . S
O167 Zn165 1.932 . S
O167 C177 1.307 . S
O168 Zn161 1.919 . S
O168 C179 1.253 . S
O169 Zn163 1.941 . S
O169 C179 1.283 1_455 S
O170 Zn163 1.965 1_565 S
O170 C178 1.303 . S
O171 Zn164 1.938 1_455 S
O171 C178 1.247 . S
O172 Zn164 1.906 1_455 S
O172 C180 1.304 . S
O173 Zn161 1.924 . S
O173 C181 1.311 . S
O174 Zn165 1.977 1_565 S
O174 C180 1.272 . S
O175 Zn165 1.910 1_655 S
O175 C181 1.231 . S
C176 O160 1.225 . S
C176 O182 1.298 . S
C177 O166 1.226 . S
C177 O167 1.307 . S
C178 O170 1.303 . S
C178 O171 1.247 . S
C179 O168 1.253 . S
C179 O169 1.283 1_655 S
C180 O172 1.304 . S
C180 O174 1.272 . S
C181 O173 1.311 . S
C181 O175 1.231 . S
O182 Zn164 1.953 . S
O182 C176 1.298 . S
O183 Zn184 1.953 . S
O183 C199 1.225 . S
Zn184 O183 1.953 . S
Zn184 O185 1.949 . S
Zn184 O191 1.919 1_554 S
Zn184 O196 1.924 . S
O185 Zn184 1.949 . S
O185 Zn186 1.923 1_554 S
O185 Zn187 1.950 . S
O185 Zn188 1.945 . S
Zn186 O185 1.923 1_556 S
Zn186 O189 1.933 . S
Zn186 O192 1.941 . S
Zn186 O193 1.965 . S
Zn187 O185 1.950 . S
Zn187 O194 1.938 1_554 S
Zn187 O195 1.906 . S
Zn187 O205 1.953 . S
Zn188 O185 1.945 . S
Zn188 O190 1.932 . S
Zn188 O197 1.977 . S
Zn188 O198 1.910 . S
O189 Zn186 1.933 . S
O189 C200 1.226 1_556 S
O190 Zn188 1.932 . S
O190 C200 1.307 . S
O191 Zn184 1.919 1_556 S
O191 C202 1.253 . S
O192 Zn186 1.941 . S
O192 C202 1.283 . S
O193 Zn186 1.965 . S
O193 C201 1.303 . S
O194 Zn187 1.938 1_556 S
O194 C201 1.247 . S
O195 Zn187 1.906 . S
O195 C203 1.304 . S
O196 Zn184 1.924 . S
O196 C204 1.311 . S
O197 Zn188 1.977 . S
O197 C203 1.272 . S
O198 Zn188 1.910 . S
O198 C204 1.231 . S
C199 O183 1.225 . S
C199 O205 1.298 . S
C200 O189 1.226 1_554 S
C200 O190 1.307 . S
C201 O193 1.303 . S
C201 O194 1.247 . S
C202 O191 1.253 . S
C202 O192 1.283 . S
C203 O195 1.304 . S
C203 O197 1.272 . S
C204 O196 1.311 . S
C204 O198 1.231 . S
O205 Zn187 1.953 . S
O205 C199 1.298 . S
H206 C218 0.930 . S
H207 C220 0.930 . S
H208 C221 0.930 . S
H209 C225 0.959 . S
H210 C225 0.959 . S
H211 C225 0.961 . S
H212 C226 0.960 . S
H213 C226 0.961 . S
H214 C226 0.959 . S
H215 C229 0.929 . S
H216 C230 0.931 . S
H217 C232 0.930 . S
C218 H206 0.930 . S
C218 C219 1.399 . S
C218 C223 1.399 . S
C219 C218 1.399 . S
C219 C220 1.376 . S
C220 H207 0.930 . S
C220 C219 1.376 . S
C220 C221 1.388 . S
C221 H208 0.930 . S
C221 C220 1.388 . S
C221 C222 1.390 . S
C222 C221 1.390 . S
C222 C223 1.394 . S
C222 C228 1.465 . S
C223 C218 1.399 . S
C223 C222 1.394 . S
C223 C224 1.516 . S
C224 C223 1.516 . S
C224 C225 1.502 . S
C224 C226 1.561 . S
C224 C227 1.526 . S
C225 H209 0.959 . S
C225 H210 0.959 . S
C225 H211 0.961 . S
C225 C224 1.502 . S
C226 H212 0.960 . S
C226 H213 0.961 . S
C226 H214 0.959 . S
C226 C224 1.561 . S
C227 C224 1.526 . S
C227 C228 1.396 . S
C227 C232 1.390 . S
C228 C222 1.465 . S
C228 C227 1.396 . S
C228 C229 1.399 . S
C229 H215 0.929 . S
C229 C228 1.399 . S
C229 C230 1.385 . S
C230 H216 0.931 . S
C230 C229 1.385 . S
C230 C231 1.389 . S
C231 C230 1.389 . S
C231 C232 1.387 . S
C232 H217 0.930 . S
C232 C227 1.390 . S
C232 C231 1.387 . S
H233 C245 0.930 . S
H234 C247 0.930 . S
H235 C248 0.930 . S
H236 C252 0.959 . S
H237 C252 0.959 . S
H238 C252 0.961 . S
H239 C253 0.960 . S
H240 C253 0.961 . S
H241 C253 0.959 . S
H242 C256 0.929 . S
H243 C257 0.931 . S
H244 C259 0.930 . S
C245 H233 0.930 . S
C245 C246 1.399 1_556 S
C245 C250 1.399 . S
C246 C245 1.399 1_554 S
C246 C247 1.376 . S
C247 H234 0.930 . S
C247 C246 1.376 . S
C247 C248 1.388 . S
C248 H235 0.930 . S
C248 C247 1.388 . S
C248 C249 1.390 . S
C249 C248 1.390 . S
C249 C250 1.394 1_554 S
C249 C255 1.465 . S
C250 C245 1.399 . S
C250 C249 1.394 1_556 S
C250 C251 1.516 . S
C251 C250 1.516 . S
C251 C252 1.502 . S
C251 C253 1.561 . S
C251 C254 1.526 . S
C252 H236 0.959 . S
C252 H237 0.959 . S
C252 H238 0.961 . S
C252 C251 1.502 . S
C253 H239 0.960 . S
C253 H240 0.961 . S
C253 H241 0.959 . S
C253 C251 1.561 . S
C254 C251 1.526 . S
C254 C255 1.396 1_556 S
C254 C259 1.390 . S
C255 C249 1.465 . S
C255 C254 1.396 1_554 S
C255 C256 1.399 . S
C256 H242 0.929 . S
C256 C255 1.399 . S
C256 C257 1.385 . S
C257 H243 0.931 . S
C257 C256 1.385 . S
C257 C258 1.389 . S
C258 C257 1.389 . S
C258 C259 1.387 1_554 S
C259 H244 0.930 . S
C259 C254 1.390 . S
C259 C258 1.387 1_556 S
H260 C272 0.930 . S
H261 C274 0.930 . S
H262 C275 0.930 . S
H263 C279 0.959 . S
H264 C279 0.959 . S
H265 C279 0.961 . S
H266 C280 0.960 . S
H267 C280 0.961 . S
H268 C280 0.959 . S
H269 C283 0.929 . S
H270 C284 0.931 . S
H271 C286 0.930 . S
C272 H260 0.930 . S
C272 C273 1.399 . S
C272 C277 1.399 . S
C273 C272 1.399 . S
C273 C274 1.376 . S
C274 H261 0.930 . S
C274 C273 1.376 . S
C274 C275 1.388 . S
C275 H262 0.930 . S
C275 C274 1.388 . S
C275 C276 1.390 . S
C276 C275 1.390 . S
C276 C277 1.394 . S
C276 C282 1.465 . S
C277 C272 1.399 . S
C277 C276 1.394 . S
C277 C278 1.516 . S
C278 C277 1.516 . S
C278 C279 1.502 . S
C278 C280 1.561 . S
C278 C281 1.526 . S
C279 H263 0.959 . S
C279 H264 0.959 . S
C279 H265 0.961 . S
C279 C278 1.502 . S
C280 H266 0.960 . S
C280 H267 0.961 . S
C280 H268 0.959 . S
C280 C278 1.561 . S
C281 C278 1.526 . S
C281 C282 1.396 . S
C281 C286 1.390 . S
C282 C276 1.465 . S
C282 C281 1.396 . S
C282 C283 1.399 . S
C283 H269 0.929 . S
C283 C282 1.399 . S
C283 C284 1.385 . S
C284 H270 0.931 . S
C284 C283 1.385 . S
C284 C285 1.389 . S
C285 C284 1.389 . S
C285 C286 1.387 . S
C286 H271 0.930 . S
C286 C281 1.390 . S
C286 C285 1.387 . S
H287 C299 0.930 . S
H288 C301 0.930 . S
H289 C302 0.930 . S
H290 C306 0.959 . S
H291 C306 0.959 . S
H292 C306 0.961 . S
H293 C307 0.960 . S
H294 C307 0.961 . S
H295 C307 0.959 . S
H296 C310 0.929 . S
H297 C311 0.931 . S
H298 C313 0.930 . S
C299 H287 0.930 . S
C299 C300 1.399 1_556 S
C299 C304 1.399 . S
C300 C299 1.399 1_554 S
C300 C301 1.376 . S
C301 H288 0.930 . S
C301 C300 1.376 . S
C301 C302 1.388 . S
C302 H289 0.930 . S
C302 C301 1.388 . S
C302 C303 1.390 . S
C303 C302 1.390 . S
C303 C304 1.394 1_554 S
C303 C309 1.465 . S
C304 C299 1.399 . S
C304 C303 1.394 1_556 S
C304 C305 1.516 . S
C305 C304 1.516 . S
C305 C306 1.502 . S
C305 C307 1.561 . S
C305 C308 1.526 . S
C306 H290 0.959 . S
C306 H291 0.959 . S
C306 H292 0.961 . S
C306 C305 1.502 . S
C307 H293 0.960 . S
C307 H294 0.961 . S
C307 H295 0.959 . S
C307 C305 1.561 . S
C308 C305 1.526 . S
C308 C309 1.396 1_556 S
C308 C313 1.390 . S
C309 C303 1.465 . S
C309 C308 1.396 1_554 S
C309 C310 1.399 . S
C310 H296 0.929 . S
C310 C309 1.399 . S
C310 C311 1.385 . S
C311 H297 0.931 . S
C311 C310 1.385 . S
C311 C312 1.389 . S
C312 C311 1.389 . S
C312 C313 1.387 1_554 S
C313 H298 0.930 . S
C313 C308 1.390 . S
C313 C312 1.387 1_556 S
H314 C326 0.930 . S
H315 C328 0.930 . S
H316 C329 0.930 . S
H317 C333 0.959 . S
H318 C333 0.959 . S
H319 C333 0.961 . S
H320 C334 0.960 . S
H321 C334 0.961 . S
H322 C334 0.959 . S
H323 C337 0.929 . S
H324 C338 0.931 . S
H325 C340 0.930 . S
C326 H314 0.930 . S
C326 C327 1.399 . S
C326 C331 1.399 . S
C327 C326 1.399 . S
C327 C328 1.376 . S
C328 H315 0.930 . S
C328 C327 1.376 . S
C328 C329 1.388 . S
C329 H316 0.930 . S
C329 C328 1.388 . S
C329 C330 1.390 . S
C330 C329 1.390 . S
C330 C331 1.394 . S
C330 C336 1.465 . S
C331 C326 1.399 . S
C331 C330 1.394 . S
C331 C332 1.516 . S
C332 C331 1.516 . S
C332 C333 1.502 . S
C332 C334 1.561 . S
C332 C335 1.526 . S
C333 H317 0.959 . S
C333 H318 0.959 . S
C333 H319 0.961 . S
C333 C332 1.502 . S
C334 H320 0.960 . S
C334 H321 0.961 . S
C334 H322 0.959 . S
C334 C332 1.561 . S
C335 C332 1.526 . S
C335 C336 1.396 . S
C335 C340 1.390 . S
C336 C330 1.465 . S
C336 C335 1.396 . S
C336 C337 1.399 . S
C337 H323 0.929 . S
C337 C336 1.399 . S
C337 C338 1.385 . S
C338 H324 0.931 . S
C338 C337 1.385 . S
C338 C339 1.389 . S
C339 C338 1.389 . S
C339 C340 1.387 . S
C340 H325 0.930 . S
C340 C335 1.390 . S
C340 C339 1.387 . S
H341 C353 0.930 . S
H342 C355 0.930 . S
H343 C356 0.930 . S
H344 C360 0.959 . S
H345 C360 0.959 . S
H346 C360 0.961 . S
H347 C361 0.960 . S
H348 C361 0.961 . S
H349 C361 0.959 . S
H350 C364 0.929 . S
H351 C365 0.931 . S
H352 C367 0.930 . S
C353 H341 0.930 . S
C353 C354 1.399 . S
C353 C358 1.399 . S
C354 C353 1.399 . S
C354 C355 1.376 . S
C355 H342 0.930 . S
C355 C354 1.376 . S
C355 C356 1.388 . S
C356 H343 0.930 . S
C356 C355 1.388 . S
C356 C357 1.390 . S
C357 C356 1.390 . S
C357 C358 1.394 . S
C357 C363 1.465 . S
C358 C353 1.399 . S
C358 C357 1.394 . S
C358 C359 1.516 . S
C359 C358 1.516 . S
C359 C360 1.502 . S
C359 C361 1.561 . S
C359 C362 1.526 . S
C360 H344 0.959 . S
C360 H345 0.959 . S
C360 H346 0.961 . S
C360 C359 1.502 . S
C361 H347 0.960 . S
C361 H348 0.961 . S
C361 H349 0.959 . S
C361 C359 1.561 . S
C362 C359 1.526 . S
C362 C363 1.396 . S
C362 C367 1.390 . S
C363 C357 1.465 . S
C363 C362 1.396 . S
C363 C364 1.399 . S
C364 H350 0.929 . S
C364 C363 1.399 . S
C364 C365 1.385 . S
C365 H351 0.931 . S
C365 C364 1.385 . S
C365 C366 1.389 . S
C366 C365 1.389 . S
C366 C367 1.387 . S
C367 H352 0.930 . S
C367 C362 1.390 . S
C367 C366 1.387 . S
H368 C380 0.930 . S
H369 C382 0.930 . S
H370 C383 0.930 . S
H371 C387 0.959 . S
H372 C387 0.959 . S
H373 C387 0.961 . S
H374 C388 0.960 . S
H375 C388 0.961 . S
H376 C388 0.959 . S
H377 C391 0.929 . S
H378 C392 0.931 . S
H379 C394 0.930 . S
C380 H368 0.930 . S
C380 C381 1.399 . S
C380 C385 1.399 . S
C381 C380 1.399 . S
C381 C382 1.376 . S
C382 H369 0.930 . S
C382 C381 1.376 . S
C382 C383 1.388 . S
C383 H370 0.930 . S
C383 C382 1.388 . S
C383 C384 1.390 . S
C384 C383 1.390 . S
C384 C385 1.394 . S
C384 C390 1.465 . S
C385 C380 1.399 . S
C385 C384 1.394 . S
C385 C386 1.516 . S
C386 C385 1.516 . S
C386 C387 1.502 . S
C386 C388 1.561 . S
C386 C389 1.526 . S
C387 H371 0.959 . S
C387 H372 0.959 . S
C387 H373 0.961 . S
C387 C386 1.502 . S
C388 H374 0.960 . S
C388 H375 0.961 . S
C388 H376 0.959 . S
C388 C386 1.561 . S
C389 C386 1.526 . S
C389 C390 1.396 . S
C389 C394 1.390 . S
C390 C384 1.465 . S
C390 C389 1.396 . S
C390 C391 1.399 . S
C391 H377 0.929 . S
C391 C390 1.399 . S
C391 C392 1.385 . S
C392 H378 0.931 . S
C392 C391 1.385 . S
C392 C393 1.389 . S
C393 C392 1.389 . S
C393 C394 1.387 . S
C394 H379 0.930 . S
C394 C389 1.390 . S
C394 C393 1.387 . S
H395 C407 0.930 . S
H396 C409 0.930 . S
H397 C410 0.930 . S
H398 C414 0.959 . S
H399 C414 0.959 . S
H400 C414 0.961 . S
H401 C415 0.960 . S
H402 C415 0.961 . S
H403 C415 0.959 . S
H404 C418 0.929 . S
H405 C419 0.931 . S
H406 C421 0.930 . S
C407 H395 0.930 . S
C407 C408 1.399 . S
C407 C412 1.399 . S
C408 C407 1.399 . S
C408 C409 1.376 . S
C409 H396 0.930 . S
C409 C408 1.376 . S
C409 C410 1.388 . S
C410 H397 0.930 . S
C410 C409 1.388 . S
C410 C411 1.390 . S
C411 C410 1.390 . S
C411 C412 1.394 . S
C411 C417 1.465 . S
C412 C407 1.399 . S
C412 C411 1.394 . S
C412 C413 1.516 . S
C413 C412 1.516 . S
C413 C414 1.502 . S
C413 C415 1.561 . S
C413 C416 1.526 . S
C414 H398 0.959 . S
C414 H399 0.959 . S
C414 H400 0.961 . S
C414 C413 1.502 . S
C415 H401 0.960 . S
C415 H402 0.961 . S
C415 H403 0.959 . S
C415 C413 1.561 . S
C416 C413 1.526 . S
C416 C417 1.396 . S
C416 C421 1.390 . S
C417 C411 1.465 . S
C417 C416 1.396 . S
C417 C418 1.399 . S
C418 H404 0.929 . S
C418 C417 1.399 . S
C418 C419 1.385 . S
C419 H405 0.931 . S
C419 C418 1.385 . S
C419 C420 1.389 . S
C420 C419 1.389 . S
C420 C421 1.387 . S
C421 H406 0.930 . S
C421 C416 1.390 . S
C421 C420 1.387 . S
H422 C434 0.930 . S
H423 C436 0.930 . S
H424 C437 0.930 . S
H425 C441 0.959 . S
H426 C441 0.959 . S
H427 C441 0.961 . S
H428 C442 0.960 . S
H429 C442 0.961 . S
H430 C442 0.959 . S
H431 C445 0.929 . S
H432 C446 0.931 . S
H433 C448 0.930 . S
C434 H422 0.930 . S
C434 C435 1.399 . S
C434 C439 1.399 . S
C435 C434 1.399 . S
C435 C436 1.376 . S
C436 H423 0.930 . S
C436 C435 1.376 . S
C436 C437 1.388 . S
C437 H424 0.930 . S
C437 C436 1.388 . S
C437 C438 1.390 . S
C438 C437 1.390 . S
C438 C439 1.394 . S
C438 C444 1.465 . S
C439 C434 1.399 . S
C439 C438 1.394 . S
C439 C440 1.516 . S
C440 C439 1.516 . S
C440 C441 1.502 . S
C440 C442 1.561 . S
C440 C443 1.526 . S
C441 H425 0.959 . S
C441 H426 0.959 . S
C441 H427 0.961 . S
C441 C440 1.502 . S
C442 H428 0.960 . S
C442 H429 0.961 . S
C442 H430 0.959 . S
C442 C440 1.561 . S
C443 C440 1.526 . S
C443 C444 1.396 . S
C443 C448 1.390 . S
C444 C438 1.465 . S
C444 C443 1.396 . S
C444 C445 1.399 . S
C445 H431 0.929 . S
C445 C444 1.399 . S
C445 C446 1.385 . S
C446 H432 0.931 . S
C446 C445 1.385 . S
C446 C447 1.389 . S
C447 C446 1.389 . S
C447 C448 1.387 . S
C448 H433 0.930 . S
C448 C443 1.390 . S
C448 C447 1.387 . S
H449 C461 0.930 . S
H450 C463 0.930 . S
H451 C464 0.930 . S
H452 C468 0.959 . S
H453 C468 0.959 . S
H454 C468 0.961 . S
H455 C469 0.960 . S
H456 C469 0.961 . S
H457 C469 0.959 . S
H458 C472 0.929 . S
H459 C473 0.931 . S
H460 C475 0.939 . S
C461 H449 0.930 . S
C461 C462 1.399 . S
C461 C466 1.399 . S
C462 C461 1.399 . S
C462 C463 1.376 . S
C463 H450 0.930 . S
C463 C462 1.376 . S
C463 C464 1.388 . S
C464 H451 0.930 . S
C464 C463 1.388 . S
C464 C465 1.390 . S
C465 C464 1.390 . S
C465 C466 1.394 . S
C465 C471 1.465 . S
C466 C461 1.399 . S
C466 C465 1.394 . S
C466 C467 1.516 . S
C467 C466 1.516 . S
C467 C468 1.502 1_655 S
C467 C469 1.561 . S
C467 C470 1.526 . S
C468 H452 0.959 . S
C468 H453 0.959 . S
C468 H454 0.961 . S
C468 C467 1.502 1_455 S
C469 H455 0.960 . S
C469 H456 0.961 . S
C469 H457 0.959 . S
C469 C467 1.561 . S
C470 C467 1.526 . S
C470 C471 1.396 . S
C470 C475 1.390 . S
C471 C465 1.465 . S
C471 C470 1.396 . S
C471 C472 1.399 . S
C472 H458 0.929 . S
C472 C471 1.399 . S
C472 C473 1.385 . S
C473 H459 0.931 . S
C473 C472 1.385 . S
C473 C474 1.389 . S
C474 C473 1.389 . S
C474 C475 1.387 . S
C475 H460 0.939 . S
C475 C470 1.390 . S
C475 C474 1.387 . S
H476 C488 0.930 . S
H477 C490 0.930 . S
H478 C491 0.930 . S
H479 C495 0.959 . S
H480 C495 0.959 . S
H481 C495 0.961 . S
H482 C496 0.960 . S
H483 C496 0.961 . S
H484 C496 0.959 . S
H485 C499 0.929 . S
H486 C500 0.931 . S
H487 C502 0.930 . S
C488 H476 0.930 . S
C488 C489 1.399 . S
C488 C493 1.399 . S
C489 C488 1.399 . S
C489 C490 1.376 . S
C490 H477 0.930 . S
C490 C489 1.376 . S
C490 C491 1.388 . S
C491 H478 0.930 . S
C491 C490 1.388 . S
C491 C492 1.390 . S
C492 C491 1.390 . S
C492 C493 1.394 . S
C492 C498 1.465 . S
C493 C488 1.399 . S
C493 C492 1.394 . S
C493 C494 1.516 . S
C494 C493 1.516 . S
C494 C495 1.502 . S
C494 C496 1.561 . S
C494 C497 1.526 . S
C495 H479 0.959 . S
C495 H480 0.959 . S
C495 H481 0.961 . S
C495 C494 1.502 . S
C496 H482 0.960 . S
C496 H483 0.961 . S
C496 H484 0.959 . S
C496 C494 1.561 . S
C497 C494 1.526 . S
C497 C498 1.396 . S
C497 C502 1.390 . S
C498 C492 1.465 . S
C498 C497 1.396 . S
C498 C499 1.399 . S
C499 H485 0.929 . S
C499 C498 1.399 . S
C499 C500 1.385 . S
C500 H486 0.931 . S
C500 C499 1.385 . S
C500 C501 1.389 . S
C501 C500 1.389 . S
C501 C502 1.387 . S
C502 H487 0.930 . S
C502 C497 1.390 . S
C502 C501 1.387 . S
H503 C515 0.930 . S
H504 C517 0.930 . S
H505 C518 0.930 . S
H506 C522 0.959 . S
H507 C522 0.959 . S
H508 C522 0.961 . S
H509 C523 0.960 . S
H510 C523 0.961 . S
H511 C523 0.959 . S
H512 C526 0.929 . S
H513 C527 0.931 . S
H514 C529 0.930 . S
C515 H503 0.930 . S
C515 C516 1.399 . S
C515 C520 1.399 . S
C516 C515 1.399 . S
C516 C517 1.376 . S
C517 H504 0.930 . S
C517 C516 1.376 . S
C517 C518 1.388 . S
C518 H505 0.930 . S
C518 C517 1.388 . S
C518 C519 1.390 . S
C519 C518 1.390 . S
C519 C520 1.394 . S
C519 C525 1.465 . S
C520 C515 1.399 . S
C520 C519 1.394 . S
C520 C521 1.516 . S
C521 C520 1.516 . S
C521 C522 1.502 . S
C521 C523 1.561 . S
C521 C524 1.526 . S
C522 H506 0.959 . S
C522 H507 0.959 . S
C522 H508 0.961 . S
C522 C521 1.502 . S
C523 H509 0.960 . S
C523 H510 0.961 . S
C523 H511 0.959 . S
C523 C521 1.561 . S
C524 C521 1.526 . S
C524 C525 1.396 . S
C524 C529 1.390 . S
C525 C519 1.465 . S
C525 C524 1.396 . S
C525 C526 1.399 . S
C526 H512 0.929 . S
C526 C525 1.399 . S
C526 C527 1.385 . S
C527 H513 0.931 . S
C527 C526 1.385 . S
C527 C528 1.389 . S
C528 C527 1.389 . S
C528 C529 1.387 . S
C529 H514 0.930 . S
C529 C524 1.390 . S
C529 C528 1.387 . S
C231 C177 1.675 . S
C219 C135 1.675 . S
C246 C15 1.630 . S
C258 C200 1.695 . S
C273 C55 1.694 . S
C285 C176 1.698 . S
C300 C95 1.646 . S
C312 C199 1.708 . S
C339 C180 1.669 . S
C327 C2 1.568 . S
C366 C202 1.674 . S
C354 C42 1.691 . S
C381 C82 1.676 . S
C393 C181 1.602 . S
C408 C141 1.583 . S
C420 C201 1.596 . S
C447 C204 1.637 . S
C435 C61 1.774 . S
C474 C179 1.691 . S
C462 C101 1.633 . S
C501 C203 1.689 . S
C489 C122 1.602 . S
C516 C21 1.597 . S
C528 C178 1.679 . S
