# Generated by pormake.
# Topology gar, (4,6)-cn, num edge types: 1
# Building blocks:
#     Node 0, Type 0, BuildingBlock: UXUYUI_clean_sbu_0, # of connection points: 4
#     Node 1, Type 0, BuildingBlock: UXUYUI_clean_sbu_0, # of connection points: 4
#     Node 2, Type 0, BuildingBlock: UXUYUI_clean_sbu_0, # of connection points: 4
#     Node 3, Type 0, BuildingBlock: UXUYUI_clean_sbu_0, # of connection points: 4
#     Node 4, Type 0, BuildingBlock: UXUYUI_clean_sbu_0, # of connection points: 4
#     Node 5, Type 0, BuildingBlock: UXUYUI_clean_sbu_0, # of connection points: 4
#     Node 6, Type 0, BuildingBlock: UXUYUI_clean_sbu_0, # of connection points: 4
#     Node 7, Type 0, BuildingBlock: UXUYUI_clean_sbu_0, # of connection points: 4
#     Node 8, Type 0, BuildingBlock: UXUYUI_clean_sbu_0, # of connection points: 4
#     Node 9, Type 0, BuildingBlock: UXUYUI_clean_sbu_0, # of connection points: 4
#     Node 10, Type 0, BuildingBlock: UXUYUI_clean_sbu_0, # of connection points: 4
#     Node 11, Type 0, BuildingBlock: UXUYUI_clean_sbu_0, # of connection points: 4
#     Node 12, Type 0, BuildingBlock: UXUYUI_clean_sbu_0, # of connection points: 4
#     Node 13, Type 0, BuildingBlock: UXUYUI_clean_sbu_0, # of connection points: 4
#     Node 14, Type 0, BuildingBlock: UXUYUI_clean_sbu_0, # of connection points: 4
#     Node 15, Type 0, BuildingBlock: UXUYUI_clean_sbu_0, # of connection points: 4
#     Node 16, Type 0, BuildingBlock: UXUYUI_clean_sbu_0, # of connection points: 4
#     Node 17, Type 0, BuildingBlock: UXUYUI_clean_sbu_0, # of connection points: 4
#     Node 18, Type 0, BuildingBlock: UXUYUI_clean_sbu_0, # of connection points: 4
#     Node 19, Type 0, BuildingBlock: UXUYUI_clean_sbu_0, # of connection points: 4
#     Node 20, Type 0, BuildingBlock: UXUYUI_clean_sbu_0, # of connection points: 4
#     Node 21, Type 0, BuildingBlock: UXUYUI_clean_sbu_0, # of connection points: 4
#     Node 22, Type 0, BuildingBlock: UXUYUI_clean_sbu_0, # of connection points: 4
#     Node 23, Type 0, BuildingBlock: UXUYUI_clean_sbu_0, # of connection points: 4
#     Node 24, Type 1, BuildingBlock: MIFKUJ_clean_sbu_0, # of connection points: 6
#     Node 25, Type 1, BuildingBlock: MIFKUJ_clean_sbu_0, # of connection points: 6
#     Node 26, Type 1, BuildingBlock: MIFKUJ_clean_sbu_0, # of connection points: 6
#     Node 27, Type 1, BuildingBlock: MIFKUJ_clean_sbu_0, # of connection points: 6
#     Node 28, Type 1, BuildingBlock: MIFKUJ_clean_sbu_0, # of connection points: 6
#     Node 29, Type 1, BuildingBlock: MIFKUJ_clean_sbu_0, # of connection points: 6
#     Node 30, Type 1, BuildingBlock: MIFKUJ_clean_sbu_0, # of connection points: 6
#     Node 31, Type 1, BuildingBlock: MIFKUJ_clean_sbu_0, # of connection points: 6
#     Node 32, Type 1, BuildingBlock: MIFKUJ_clean_sbu_0, # of connection points: 6
#     Node 33, Type 1, BuildingBlock: MIFKUJ_clean_sbu_0, # of connection points: 6
#     Node 34, Type 1, BuildingBlock: MIFKUJ_clean_sbu_0, # of connection points: 6
#     Node 35, Type 1, BuildingBlock: MIFKUJ_clean_sbu_0, # of connection points: 6
#     Node 36, Type 1, BuildingBlock: MIFKUJ_clean_sbu_0, # of connection points: 6
#     Node 37, Type 1, BuildingBlock: MIFKUJ_clean_sbu_0, # of connection points: 6
#     Node 38, Type 1, BuildingBlock: MIFKUJ_clean_sbu_0, # of connection points: 6
#     Node 39, Type 1, BuildingBlock: MIFKUJ_clean_sbu_0, # of connection points: 6
#     Edge 40, Type (0, 1), BuildingBlock: XIVTED_clean_linker_0, # of connection points: 2
#     Edge 41, Type (0, 1), BuildingBlock: XIVTED_clean_linker_0, # of connection points: 2
#     Edge 42, Type (0, 1), BuildingBlock: XIVTED_clean_linker_0, # of connection points: 2
#     Edge 43, Type (0, 1), BuildingBlock: XIVTED_clean_linker_0, # of connection points: 2
#     Edge 44, Type (0, 1), BuildingBlock: XIVTED_clean_linker_0, # of connection points: 2
#     Edge 45, Type (0, 1), BuildingBlock: XIVTED_clean_linker_0, # of connection points: 2
#     Edge 46, Type (0, 1), BuildingBlock: XIVTED_clean_linker_0, # of connection points: 2
#     Edge 47, Type (0, 1), BuildingBlock: XIVTED_clean_linker_0, # of connection points: 2
#     Edge 48, Type (0, 1), BuildingBlock: XIVTED_clean_linker_0, # of connection points: 2
#     Edge 49, Type (0, 1), BuildingBlock: XIVTED_clean_linker_0, # of connection points: 2
#     Edge 50, Type (0, 1), BuildingBlock: XIVTED_clean_linker_0, # of connection points: 2
#     Edge 51, Type (0, 1), BuildingBlock: XIVTED_clean_linker_0, # of connection points: 2
#     Edge 52, Type (0, 1), BuildingBlock: XIVTED_clean_linker_0, # of connection points: 2
#     Edge 53, Type (0, 1), BuildingBlock: XIVTED_clean_linker_0, # of connection points: 2
#     Edge 54, Type (0, 1), BuildingBlock: XIVTED_clean_linker_0, # of connection points: 2
#     Edge 55, Type (0, 1), BuildingBlock: XIVTED_clean_linker_0, # of connection points: 2
#     Edge 56, Type (0, 1), BuildingBlock: XIVTED_clean_linker_0, # of connection points: 2
#     Edge 57, Type (0, 1), BuildingBlock: XIVTED_clean_linker_0, # of connection points: 2
#     Edge 58, Type (0, 1), BuildingBlock: XIVTED_clean_linker_0, # of connection points: 2
#     Edge 59, Type (0, 1), BuildingBlock: XIVTED_clean_linker_0, # of connection points: 2
#     Edge 60, Type (0, 1), BuildingBlock: XIVTED_clean_linker_0, # of connection points: 2
#     Edge 61, Type (0, 1), BuildingBlock: XIVTED_clean_linker_0, # of connection points: 2
#     Edge 62, Type (0, 1), BuildingBlock: XIVTED_clean_linker_0, # of connection points: 2
#     Edge 63, Type (0, 1), BuildingBlock: XIVTED_clean_linker_0, # of connection points: 2
#     Edge 64, Type (0, 1), BuildingBlock: XIVTED_clean_linker_0, # of connection points: 2
#     Edge 65, Type (0, 1), BuildingBlock: XIVTED_clean_linker_0, # of connection points: 2
#     Edge 66, Type (0, 1), BuildingBlock: XIVTED_clean_linker_0, # of connection points: 2
#     Edge 67, Type (0, 1), BuildingBlock: XIVTED_clean_linker_0, # of connection points: 2
#     Edge 68, Type (0, 1), BuildingBlock: XIVTED_clean_linker_0, # of connection points: 2
#     Edge 69, Type (0, 1), BuildingBlock: XIVTED_clean_linker_0, # of connection points: 2
#     Edge 70, Type (0, 1), BuildingBlock: XIVTED_clean_linker_0, # of connection points: 2
#     Edge 71, Type (0, 1), BuildingBlock: XIVTED_clean_linker_0, # of connection points: 2
#     Edge 72, Type (0, 1), BuildingBlock: XIVTED_clean_linker_0, # of connection points: 2
#     Edge 73, Type (0, 1), BuildingBlock: XIVTED_clean_linker_0, # of connection points: 2
#     Edge 74, Type (0, 1), BuildingBlock: XIVTED_clean_linker_0, # of connection points: 2
#     Edge 75, Type (0, 1), BuildingBlock: XIVTED_clean_linker_0, # of connection points: 2
#     Edge 76, Type (0, 1), BuildingBlock: XIVTED_clean_linker_0, # of connection points: 2
#     Edge 77, Type (0, 1), BuildingBlock: XIVTED_clean_linker_0, # of connection points: 2
#     Edge 78, Type (0, 1), BuildingBlock: XIVTED_clean_linker_0, # of connection points: 2
#     Edge 79, Type (0, 1), BuildingBlock: XIVTED_clean_linker_0, # of connection points: 2
#     Edge 80, Type (0, 1), BuildingBlock: XIVTED_clean_linker_0, # of connection points: 2
#     Edge 81, Type (0, 1), BuildingBlock: XIVTED_clean_linker_0, # of connection points: 2
#     Edge 82, Type (0, 1), BuildingBlock: XIVTED_clean_linker_0, # of connection points: 2
#     Edge 83, Type (0, 1), BuildingBlock: XIVTED_clean_linker_0, # of connection points: 2
#     Edge 84, Type (0, 1), BuildingBlock: XIVTED_clean_linker_0, # of connection points: 2
#     Edge 85, Type (0, 1), BuildingBlock: XIVTED_clean_linker_0, # of connection points: 2
#     Edge 86, Type (0, 1), BuildingBlock: XIVTED_clean_linker_0, # of connection points: 2
#     Edge 87, Type (0, 1), BuildingBlock: XIVTED_clean_linker_0, # of connection points: 2
#     Edge 88, Type (0, 1), BuildingBlock: XIVTED_clean_linker_0, # of connection points: 2
#     Edge 89, Type (0, 1), BuildingBlock: XIVTED_clean_linker_0, # of connection points: 2
#     Edge 90, Type (0, 1), BuildingBlock: XIVTED_clean_linker_0, # of connection points: 2
#     Edge 91, Type (0, 1), BuildingBlock: XIVTED_clean_linker_0, # of connection points: 2
#     Edge 92, Type (0, 1), BuildingBlock: XIVTED_clean_linker_0, # of connection points: 2
#     Edge 93, Type (0, 1), BuildingBlock: XIVTED_clean_linker_0, # of connection points: 2
#     Edge 94, Type (0, 1), BuildingBlock: XIVTED_clean_linker_0, # of connection points: 2
#     Edge 95, Type (0, 1), BuildingBlock: XIVTED_clean_linker_0, # of connection points: 2
#     Edge 96, Type (0, 1), BuildingBlock: XIVTED_clean_linker_0, # of connection points: 2
#     Edge 97, Type (0, 1), BuildingBlock: XIVTED_clean_linker_0, # of connection points: 2
#     Edge 98, Type (0, 1), BuildingBlock: XIVTED_clean_linker_0, # of connection points: 2
#     Edge 99, Type (0, 1), BuildingBlock: XIVTED_clean_linker_0, # of connection points: 2
#     Edge 100, Type (0, 1), BuildingBlock: XIVTED_clean_linker_0, # of connection points: 2
#     Edge 101, Type (0, 1), BuildingBlock: XIVTED_clean_linker_0, # of connection points: 2
#     Edge 102, Type (0, 1), BuildingBlock: XIVTED_clean_linker_0, # of connection points: 2
#     Edge 103, Type (0, 1), BuildingBlock: XIVTED_clean_linker_0, # of connection points: 2
#     Edge 104, Type (0, 1), BuildingBlock: XIVTED_clean_linker_0, # of connection points: 2
#     Edge 105, Type (0, 1), BuildingBlock: XIVTED_clean_linker_0, # of connection points: 2
#     Edge 106, Type (0, 1), BuildingBlock: XIVTED_clean_linker_0, # of connection points: 2
#     Edge 107, Type (0, 1), BuildingBlock: XIVTED_clean_linker_0, # of connection points: 2
#     Edge 108, Type (0, 1), BuildingBlock: XIVTED_clean_linker_0, # of connection points: 2
#     Edge 109, Type (0, 1), BuildingBlock: XIVTED_clean_linker_0, # of connection points: 2
#     Edge 110, Type (0, 1), BuildingBlock: XIVTED_clean_linker_0, # of connection points: 2
#     Edge 111, Type (0, 1), BuildingBlock: XIVTED_clean_linker_0, # of connection points: 2
#     Edge 112, Type (0, 1), BuildingBlock: XIVTED_clean_linker_0, # of connection points: 2
#     Edge 113, Type (0, 1), BuildingBlock: XIVTED_clean_linker_0, # of connection points: 2
#     Edge 114, Type (0, 1), BuildingBlock: XIVTED_clean_linker_0, # of connection points: 2
#     Edge 115, Type (0, 1), BuildingBlock: XIVTED_clean_linker_0, # of connection points: 2
#     Edge 116, Type (0, 1), BuildingBlock: XIVTED_clean_linker_0, # of connection points: 2
#     Edge 117, Type (0, 1), BuildingBlock: XIVTED_clean_linker_0, # of connection points: 2
#     Edge 118, Type (0, 1), BuildingBlock: XIVTED_clean_linker_0, # of connection points: 2
#     Edge 119, Type (0, 1), BuildingBlock: XIVTED_clean_linker_0, # of connection points: 2
#     Edge 120, Type (0, 1), BuildingBlock: XIVTED_clean_linker_0, # of connection points: 2
#     Edge 121, Type (0, 1), BuildingBlock: XIVTED_clean_linker_0, # of connection points: 2
#     Edge 122, Type (0, 1), BuildingBlock: XIVTED_clean_linker_0, # of connection points: 2
#     Edge 123, Type (0, 1), BuildingBlock: XIVTED_clean_linker_0, # of connection points: 2
#     Edge 124, Type (0, 1), BuildingBlock: XIVTED_clean_linker_0, # of connection points: 2
#     Edge 125, Type (0, 1), BuildingBlock: XIVTED_clean_linker_0, # of connection points: 2
#     Edge 126, Type (0, 1), BuildingBlock: XIVTED_clean_linker_0, # of connection points: 2
#     Edge 127, Type (0, 1), BuildingBlock: XIVTED_clean_linker_0, # of connection points: 2
#     Edge 128, Type (0, 1), BuildingBlock: XIVTED_clean_linker_0, # of connection points: 2
#     Edge 129, Type (0, 1), BuildingBlock: XIVTED_clean_linker_0, # of connection points: 2
#     Edge 130, Type (0, 1), BuildingBlock: XIVTED_clean_linker_0, # of connection points: 2
#     Edge 131, Type (0, 1), BuildingBlock: XIVTED_clean_linker_0, # of connection points: 2
#     Edge 132, Type (0, 1), BuildingBlock: XIVTED_clean_linker_0, # of connection points: 2
#     Edge 133, Type (0, 1), BuildingBlock: XIVTED_clean_linker_0, # of connection points: 2
#     Edge 134, Type (0, 1), BuildingBlock: XIVTED_clean_linker_0, # of connection points: 2
#     Edge 135, Type (0, 1), BuildingBlock: XIVTED_clean_linker_0, # of connection points: 2
# Relax obj value: 0.129
# Max RMSD: 0.265
# Mean RMSD: 0.181
data_MOF--net-gar--node1-UXUYUI_clean_sbu_0--node2-MIFKUJ_clean_sbu_0--edge1-XIVTED_clean_linker_0
_symmetry_space_group_name_H-M    P1
_symmetry_Int_Tables_number       1
_symmetry_cell_setting            triclinic
loop_
_symmetry_equiv_pos_as_xyz
'x, y, z'
_cell_length_a     68.927499
_cell_length_b     68.9449
_cell_length_c     66.788056
_cell_angle_alpha  94.39906
_cell_angle_beta   94.406925
_cell_angle_gamma 98.574565
loop_
_atom_site_label
_atom_site_type_symbol
_atom_site_fract_x
_atom_site_fract_y
_atom_site_fract_z
_atom_type_partial_charge
Li0 Li 0.00133 0.26996 0.37886 0.0
Li1 Li 0.02143 0.28688 0.4084 0.0
Li2 Li 0.03596 0.26913 0.38163 0.0
Li3 Li 0.01568 0.25161 0.40469 0.0
C4 C 0.01456 0.30453 0.36766 0.0
N5 N 0.9957 0.32767 0.34304 0.0
C6 C 0.00691 0.32067 0.37606 0.0
C7 C 0.01272 0.30024 0.34675 0.0
C8 C 0.99741 0.33218 0.36335 0.0
C9 C 0.00309 0.31208 0.33455 0.0
C10 C 0.98254 0.25823 0.41731 0.0
C11 C 0.97227 0.2443 0.44757 0.0
N12 N 0.95607 0.23377 0.43675 0.0
C13 C 0.9658 0.24724 0.40649 0.0
C14 C 0.98581 0.25676 0.43803 0.0
C15 C 0.95258 0.23499 0.4166 0.0
C16 C 0.97213 0.25906 0.34526 0.0
N17 N 0.97805 0.27126 0.36229 0.0
C18 C 0.94797 0.28449 0.36009 0.0
C19 C 0.96655 0.28404 0.36962 0.0
C20 C 0.94107 0.27154 0.34293 0.0
C21 C 0.95358 0.25904 0.33518 0.0
H22 H 0.98144 0.2488 0.33999 0.0
H23 H 0.97157 0.29336 0.38337 0.0
C24 C 0.03864 0.32508 0.42654 0.0
N25 N 0.02387 0.30968 0.42689 0.0
C26 C 0.03886 0.34245 0.4389 0.0
C27 C 0.00892 0.32754 0.45187 0.0
C28 C 0.00928 0.31055 0.43933 0.0
C29 C 0.02359 0.34393 0.45146 0.0
H30 H 0.04984 0.32412 0.41619 0.0
H31 H 0.99752 0.29829 0.43903 0.0
C32 C 0.02235 0.23492 0.36171 0.0
N33 N 0.0406 0.21224 0.33534 0.0
C34 C 0.03062 0.21895 0.36831 0.0
C35 C 0.02326 0.23929 0.34168 0.0
C36 C 0.03979 0.20767 0.35474 0.0
C37 C 0.03259 0.22767 0.32859 0.0
C38 C 0.05459 0.27993 0.42518 0.0
C39 C 0.0719 0.29019 0.41912 0.0
C40 C 0.05079 0.2818 0.44545 0.0
C41 C 0.08515 0.30215 0.43347 0.0
C42 C 0.06438 0.29396 0.45932 0.0
N43 N 0.08114 0.30379 0.4531 0.0
C44 C 0.06346 0.27911 0.35244 0.0
C45 C 0.07037 0.25466 0.37386 0.0
C46 C 0.08064 0.27766 0.34293 0.0
N47 N 0.05877 0.26773 0.36764 0.0
C48 C 0.08758 0.25268 0.36477 0.0
C49 C 0.09307 0.26444 0.34924 0.0
H50 H 0.05404 0.2895 0.34791 0.0
H51 H 0.06627 0.24586 0.38604 0.0
C52 C 0.998 0.21315 0.40988 0.0
N53 N 0.01166 0.22842 0.41835 0.0
C54 C 0.99497 0.1956 0.4191 0.0
C55 C 0.01982 0.21001 0.4458 0.0
C56 C 0.02245 0.22724 0.43598 0.0
C57 C 0.00611 0.19383 0.43719 0.0
H58 H 0.98965 0.21455 0.39582 0.0
H59 H 0.03333 0.23954 0.44226 0.0
O60 O 0.02358 0.29286 0.37987 0.0
O61 O 0.99592 0.26997 0.40761 0.0
O62 O 0.01367 0.24639 0.37487 0.0
O63 O 0.04131 0.26833 0.41133 0.0
H64 H 0.0081 0.32416 0.39221 0.0
H65 H 0.01842 0.28773 0.34001 0.0
H66 H 0.99134 0.34465 0.36963 0.0
H67 H 0.00144 0.30885 0.31835 0.0
H68 H 0.97469 0.24293 0.46356 0.0
H69 H 0.96312 0.24794 0.39043 0.0
H70 H 0.99886 0.26487 0.44659 0.0
H71 H 0.9396 0.22636 0.4084 0.0
H72 H 0.93884 0.29446 0.36644 0.0
H73 H 0.94869 0.24866 0.32213 0.0
H74 H 0.0503 0.35485 0.43794 0.0
H75 H 0.99697 0.32801 0.46144 0.0
H76 H 0.03021 0.21545 0.3838 0.0
H77 H 0.01706 0.25167 0.33637 0.0
H78 H 0.04635 0.19533 0.35966 0.0
H79 H 0.03352 0.23097 0.31309 0.0
H80 H 0.07503 0.28908 0.4035 0.0
H81 H 0.03731 0.27426 0.45036 0.0
H82 H 0.09858 0.31021 0.42898 0.0
H83 H 0.06156 0.29564 0.47502 0.0
H84 H 0.08444 0.28719 0.3312 0.0
H85 H 0.09654 0.24211 0.36995 0.0
H86 H 0.98418 0.18348 0.41205 0.0
H87 H 0.02891 0.20911 0.45956 0.0
Li88 Li 0.0 0.77108 0.63489 0.0
Li89 Li 0.01937 0.75612 0.66007 0.0
Li90 Li 0.99671 0.7359 0.63292 0.0
Li91 Li 0.98328 0.75202 0.66128 0.0
C92 C 0.03229 0.76415 0.61726 0.0
N93 N 0.05518 0.78409 0.59085 0.0
C94 C 0.05162 0.77296 0.62357 0.0
C95 C 0.0247 0.76529 0.59744 0.0
C96 C 0.06293 0.78301 0.61001 0.0
C97 C 0.03647 0.7755 0.58434 0.0
C98 C 0.00746 0.79059 0.6809 0.0
C99 C 0.00682 0.80069 0.71624 0.0
N100 N 0.01681 0.81868 0.71344 0.0
C101 C 0.01743 0.80932 0.67834 0.0
C102 C 0.00186 0.78635 0.69997 0.0
C103 C 0.02215 0.82325 0.69498 0.0
C104 C 0.9836 0.79523 0.60804 0.0
N105 N 8e-05 0.79345 0.61986 0.0
C106 C 0.01707 0.8233 0.60952 0.0
C107 C 0.01662 0.80708 0.62083 0.0
C108 C 0.00028 0.82557 0.59716 0.0
C109 C 0.98338 0.81123 0.59648 0.0
H110 H 0.97063 0.7842 0.60759 0.0
H111 H 0.02953 0.80531 0.63034 0.0
C112 C 0.05199 0.74162 0.67786 0.0
N113 N 0.04439 0.75839 0.67491 0.0
C114 C 0.07116 0.74264 0.68676 0.0
C115 C 0.07426 0.77816 0.68951 0.0
C116 C 0.05501 0.77645 0.6807 0.0
C117 C 0.08267 0.76111 0.69232 0.0
H118 H 0.04337 0.72746 0.6727 0.0
H119 H 0.04889 0.78954 0.67766 0.0
C120 C 0.96172 0.74008 0.61848 0.0
N121 N 0.93549 0.71496 0.59134 0.0
C122 C 0.94655 0.7272 0.62537 0.0
C123 C 0.96344 0.74032 0.59778 0.0
C124 C 0.93346 0.71459 0.61141 0.0
C125 C 0.95007 0.72746 0.5843 0.0
C126 C 0.00134 0.72255 0.67965 0.0
C127 C 0.99527 0.70226 0.67963 0.0
C128 C 0.00851 0.73367 0.69778 0.0
C129 C 0.9961 0.69355 0.69783 0.0
C130 C 0.00915 0.72443 0.71566 0.0
N131 N 0.00294 0.70472 0.71532 0.0
C132 C 0.00298 0.71144 0.59859 0.0
C133 C 0.98122 0.69639 0.62071 0.0
C134 C 0.00148 0.6937 0.58658 0.0
N135 N 0.99311 0.71236 0.61541 0.0
C136 C 0.97951 0.6783 0.60932 0.0
C137 C 0.98999 0.67678 0.59221 0.0
H138 H 0.01248 0.72428 0.59481 0.0
H139 H 0.97338 0.69764 0.63405 0.0
C140 C 0.95384 0.76688 0.68216 0.0
N141 N 0.96196 0.75041 0.67785 0.0
C142 C 0.93695 0.76583 0.69257 0.0
C143 C 0.9373 0.73098 0.69416 0.0
C144 C 0.95417 0.7327 0.68377 0.0
C145 C 0.92824 0.74761 0.69835 0.0
H146 H 0.96018 0.78071 0.67696 0.0
H147 H 0.96055 0.71973 0.67971 0.0
O148 O 0.02094 0.75438 0.63041 0.0
O149 O 0.00249 0.77686 0.66465 0.0
O150 O 0.97497 0.7522 0.63195 0.0
O151 O 0.00058 0.73129 0.66193 0.0
H152 H 0.05784 0.77206 0.63875 0.0
H153 H 0.00977 0.75865 0.5923 0.0
H154 H 0.07788 0.78996 0.61472 0.0
H155 H 0.0307 0.77665 0.56903 0.0
H156 H 0.00263 0.79754 0.73107 0.0
H157 H 0.02164 0.81304 0.66371 0.0
H158 H 0.99356 0.77224 0.70224 0.0
H159 H 0.03003 0.83772 0.69321 0.0
H160 H 0.03031 0.83413 0.61075 0.0
H161 H 0.97017 0.81231 0.58703 0.0
H162 H 0.07721 0.72916 0.6884 0.0
H163 H 0.08265 0.79268 0.69363 0.0
H164 H 0.94499 0.7268 0.64131 0.0
H165 H 0.97506 0.7502 0.59218 0.0
H166 H 0.92172 0.70447 0.61653 0.0
H167 H 0.95131 0.7274 0.56825 0.0
H168 H 0.98993 0.69333 0.66574 0.0
H169 H 0.01389 0.7492 0.69801 0.0
H170 H 0.99134 0.6779 0.69803 0.0
H171 H 0.01467 0.7329 0.72978 0.0
H172 H 0.00997 0.69301 0.57363 0.0
H173 H 0.97043 0.66554 0.61405 0.0
H174 H 0.93028 0.77895 0.69523 0.0
H175 H 0.93112 0.71666 0.69842 0.0
Li176 Li 0.5041 0.76343 0.87754 0.0
Li177 Li 0.52609 0.78289 0.90446 0.0
Li178 Li 0.53889 0.76575 0.87597 0.0
Li179 Li 0.52351 0.74769 0.90203 0.0
C180 C 0.51232 0.79806 0.86422 0.0
N181 N 0.48815 0.81823 0.84153 0.0
C182 C 0.50365 0.81306 0.8735 0.0
C183 C 0.5088 0.7934 0.84339 0.0
C184 C 0.49147 0.82308 0.86176 0.0
C185 C 0.4965 0.80373 0.83219 0.0
C186 C 0.49152 0.75248 0.91908 0.0
C187 C 0.48662 0.74017 0.95147 0.0
N188 N 0.46997 0.72823 0.94321 0.0
C189 C 0.47436 0.74008 0.91091 0.0
C190 C 0.49769 0.75256 0.93953 0.0
C191 C 0.46367 0.72795 0.92337 0.0
C192 C 0.47286 0.75113 0.84599 0.0
N193 N 0.47895 0.76253 0.86351 0.0
C194 C 0.44782 0.77363 0.86417 0.0
C195 C 0.46697 0.77378 0.87256 0.0
C196 C 0.44089 0.76171 0.84632 0.0
C197 C 0.45375 0.75057 0.83701 0.0
H198 H 0.48269 0.74224 0.83921 0.0
H199 H 0.47226 0.78266 0.88651 0.0
C200 C 0.54226 0.82208 0.9202 0.0
N201 N 0.52855 0.80615 0.92221 0.0
C202 C 0.54263 0.8396 0.93232 0.0
C203 C 0.51483 0.8239 0.94826 0.0
C204 C 0.51506 0.80672 0.93594 0.0
C205 C 0.52854 0.84071 0.94631 0.0
H206 H 0.55252 0.82133 0.9088 0.0
H207 H 0.50405 0.79404 0.93691 0.0
C208 C 0.52636 0.73002 0.85845 0.0
N209 N 0.54323 0.70778 0.83044 0.0
C210 C 0.53586 0.71457 0.8644 0.0
C211 C 0.52531 0.73407 0.83824 0.0
C212 C 0.54431 0.7035 0.85 0.0
C213 C 0.53398 0.72269 0.82432 0.0
C214 C 0.56199 0.77941 0.9172 0.0
C215 C 0.57772 0.79017 0.90884 0.0
C216 C 0.56043 0.78199 0.93796 0.0
C217 C 0.59162 0.80339 0.92141 0.0
C218 C 0.57462 0.79539 0.95 0.0
N219 N 0.58979 0.80572 0.94155 0.0
C220 C 0.56223 0.78054 0.84557 0.0
C221 C 0.57298 0.754 0.86159 0.0
C222 C 0.57847 0.78209 0.83417 0.0
N223 N 0.55989 0.76672 0.85901 0.0
C224 C 0.58928 0.75487 0.85035 0.0
C225 C 0.59232 0.76924 0.83663 0.0
H226 H 0.55178 0.79068 0.84407 0.0
H227 H 0.57099 0.74349 0.87275 0.0
C228 C 0.50952 0.70962 0.91311 0.0
N229 N 0.5237 0.72566 0.9174 0.0
C230 C 0.50886 0.69386 0.92511 0.0
C231 C 0.53766 0.71129 0.9454 0.0
C232 C 0.53772 0.72671 0.93305 0.0
C233 C 0.52306 0.6946 0.94153 0.0
H234 H 0.49863 0.70916 0.90045 0.0
H235 H 0.54888 0.73957 0.93604 0.0
O236 O 0.52392 0.78776 0.87551 0.0
O237 O 0.50243 0.76419 0.90706 0.0
O238 O 0.51824 0.74118 0.87237 0.0
O239 O 0.54809 0.76655 0.90512 0.0
H240 H 0.50612 0.8168 0.88961 0.0
H241 H 0.51529 0.78174 0.836 0.0
H242 H 0.48458 0.83466 0.86875 0.0
H243 H 0.49354 0.80019 0.81608 0.0
H244 H 0.4913 0.73998 0.96727 0.0
H245 H 0.46947 0.73962 0.89509 0.0
H246 H 0.51108 0.76185 0.94605 0.0
H247 H 0.4504 0.71823 0.91723 0.0
H248 H 0.43848 0.78263 0.87169 0.0
H249 H 0.44889 0.74105 0.82333 0.0
H250 H 0.55325 0.85235 0.93016 0.0
H251 H 0.50378 0.82413 0.95893 0.0
H252 H 0.53686 0.71127 0.87999 0.0
H253 H 0.5181 0.74603 0.83342 0.0
H254 H 0.55179 0.69156 0.8544 0.0
H255 H 0.53341 0.72575 0.80866 0.0
H256 H 0.57913 0.78846 0.89282 0.0
H257 H 0.54821 0.77401 0.94465 0.0
H258 H 0.60384 0.81185 0.91513 0.0
H259 H 0.57351 0.79763 0.96606 0.0
H260 H 0.58032 0.79338 0.82375 0.0
H261 H 0.59981 0.74495 0.85298 0.0
H262 H 0.49755 0.68113 0.92139 0.0
H263 H 0.54881 0.71253 0.95797 0.0
Li264 Li 0.50722 0.26916 0.13145 0.0
Li265 Li 0.522 0.25306 0.15894 0.0
Li266 Li 0.50251 0.23394 0.13001 0.0
Li267 Li 0.48704 0.25253 0.15537 0.0
C268 C 0.54083 0.26271 0.1199 0.0
N269 N 0.56668 0.28645 0.09913 0.0
C270 C 0.55732 0.2746 0.13023 0.0
C271 C 0.53752 0.26286 0.09899 0.0
C272 C 0.57022 0.28649 0.11945 0.0
C273 C 0.55075 0.27499 0.08877 0.0
C274 C 0.49931 0.28787 0.17324 0.0
C275 C 0.48866 0.29674 0.2058 0.0
N276 N 0.47994 0.3112 0.19781 0.0
C277 C 0.49029 0.30284 0.16536 0.0
C278 C 0.49856 0.28482 0.19363 0.0
C279 C 0.48057 0.31448 0.17803 0.0
C280 C 0.50024 0.292 0.09864 0.0
N281 N 0.51077 0.29166 0.11663 0.0
C282 C 0.52609 0.32491 0.11545 0.0
C283 C 0.52371 0.30754 0.12502 0.0
C284 C 0.5151 0.32587 0.09706 0.0
C285 C 0.5023 0.30903 0.08844 0.0
H286 H 0.48993 0.27923 0.09242 0.0
H287 H 0.53185 0.3068 0.13937 0.0
C288 C 0.55723 0.24076 0.17298 0.0
N289 N 0.54518 0.2543 0.17663 0.0
C290 C 0.57557 0.24245 0.1839 0.0
C291 C 0.56874 0.27196 0.2022 0.0
C292 C 0.55043 0.26959 0.19104 0.0
C293 C 0.5817 0.25846 0.19842 0.0
H294 H 0.5529 0.2291 0.161 0.0
H295 H 0.54076 0.28039 0.19331 0.0
C296 C 0.46911 0.23937 0.11181 0.0
N297 N 0.44332 0.2142 0.08429 0.0
C298 C 0.45175 0.22923 0.11788 0.0
C299 C 0.47334 0.23673 0.09173 0.0
C300 C 0.43889 0.21659 0.10374 0.0
C301 C 0.46013 0.22392 0.07806 0.0
C302 C 0.50957 0.2189 0.17209 0.0
C303 C 0.51719 0.2023 0.16483 0.0
C304 C 0.51147 0.22451 0.19279 0.0
C305 C 0.52673 0.19165 0.17845 0.0
C306 C 0.52114 0.2135 0.20591 0.0
N307 N 0.52851 0.19744 0.19852 0.0
C308 C 0.51486 0.20867 0.10033 0.0
C309 C 0.48547 0.19517 0.11375 0.0
C310 C 0.51479 0.19126 0.08825 0.0
N311 N 0.50041 0.21028 0.1128 0.0
C312 C 0.48476 0.17746 0.10183 0.0
C313 C 0.49975 0.17527 0.0891 0.0
H314 H 0.52674 0.22076 0.1001 0.0
H315 H 0.47436 0.19673 0.12409 0.0
C316 C 0.45168 0.26592 0.16194 0.0
N317 N 0.46397 0.25384 0.16902 0.0
C318 C 0.43433 0.26765 0.17088 0.0
C319 C 0.44257 0.24446 0.1943 0.0
C320 C 0.45985 0.24323 0.18492 0.0
C321 C 0.42943 0.25666 0.18714 0.0
H322 H 0.45533 0.27413 0.14922 0.0
H323 H 0.46983 0.23363 0.19014 0.0
O324 O 0.52775 0.25133 0.13023 0.0
O325 O 0.50853 0.27604 0.16099 0.0
O326 O 0.482 0.25164 0.12548 0.0
O327 O 0.50041 0.22967 0.15899 0.0
H328 H 0.56005 0.27483 0.1464 0.0
H329 H 0.52469 0.25397 0.09079 0.0
H330 H 0.58299 0.29581 0.12726 0.0
H331 H 0.54829 0.27535 0.07262 0.0
H332 H 0.48786 0.29447 0.22158 0.0
H333 H 0.49053 0.30529 0.14957 0.0
H334 H 0.50534 0.27321 0.19995 0.0
H335 H 0.47343 0.32605 0.17211 0.0
H336 H 0.5362 0.33755 0.12251 0.0
H337 H 0.49338 0.30929 0.07441 0.0
H338 H 0.58526 0.23194 0.18027 0.0
H339 H 0.57293 0.28449 0.21329 0.0
H340 H 0.44829 0.23095 0.13338 0.0
H341 H 0.48685 0.24421 0.08683 0.0
H342 H 0.42543 0.20861 0.10824 0.0
H343 H 0.46329 0.22163 0.06251 0.0
H344 H 0.51591 0.19777 0.14886 0.0
H345 H 0.50576 0.23738 0.19865 0.0
H346 H 0.53278 0.17882 0.17304 0.0
H347 H 0.52283 0.21775 0.22195 0.0
H348 H 0.52655 0.19023 0.07855 0.0
H349 H 0.47307 0.16538 0.10316 0.0
H350 H 0.42481 0.27745 0.16502 0.0
H351 H 0.43926 0.23553 0.20662 0.0
Li352 Li 0.01536 0.78801 0.1288 0.0
Li353 Li 0.03338 0.77416 0.15729 0.0
Li354 Li 0.01353 0.75281 0.131 0.0
Li355 Li 0.99819 0.77052 0.1558 0.0
C356 C 0.04675 0.76244 0.1149 0.0
N357 N 0.06495 0.74017 0.08815 0.0
C358 C 0.06065 0.75123 0.12207 0.0
C359 C 0.04216 0.76245 0.09416 0.0
C360 C 0.06967 0.74003 0.10829 0.0
C361 C 0.05152 0.75106 0.08087 0.0
C362 C 0.02957 0.80978 0.17067 0.0
C363 C 0.04645 0.82213 0.20317 0.0
N364 N 0.05594 0.83778 0.19472 0.0
C365 C 0.03946 0.82602 0.16233 0.0
C366 C 0.03304 0.80784 0.19128 0.0
C367 C 0.05273 0.84001 0.17474 0.0
C368 C 0.99914 0.819 0.11389 0.0
N369 N 0.01488 0.80937 0.11268 0.0
C370 C 0.02951 0.83234 0.09106 0.0
C371 C 0.02985 0.81549 0.10141 0.0
C372 C 0.0137 0.84297 0.09254 0.0
C373 C 0.99823 0.83589 0.10387 0.0
H374 H 0.9875 0.81374 0.12303 0.0
H375 H 0.0423 0.80765 0.10095 0.0
C376 C 0.05833 0.76299 0.18767 0.0
N377 N 0.05727 0.7767 0.17425 0.0
C378 C 0.07578 0.76269 0.19951 0.0
C379 C 0.09089 0.79081 0.18367 0.0
C380 C 0.07304 0.79055 0.17207 0.0
C381 C 0.09247 0.77648 0.19734 0.0
H382 H 0.04579 0.75185 0.18879 0.0
H383 H 0.0719 0.80104 0.16097 0.0
C384 C 0.9804 0.75811 0.10929 0.0
N385 N 0.95815 0.73878 0.07543 0.0
C386 C 0.96811 0.74029 0.11065 0.0
C387 C 0.98135 0.76612 0.09071 0.0
C388 C 0.957 0.73073 0.09335 0.0
C389 C 0.96998 0.75612 0.07377 0.0
C390 C 0.00373 0.73949 0.17271 0.0
C391 C 0.99064 0.72262 0.165 0.0
C392 C 0.00476 0.74575 0.19324 0.0
C393 C 0.97885 0.71226 0.17798 0.0
C394 C 0.99268 0.73502 0.20571 0.0
N395 N 0.98009 0.71864 0.19789 0.0
C396 C 0.02203 0.7149 0.12719 0.0
C397 C 0.00755 0.72304 0.09628 0.0
C398 C 0.02296 0.69597 0.11887 0.0
N399 N 0.01386 0.72783 0.11611 0.0
C400 C 0.00807 0.70413 0.08731 0.0
C401 C 0.01548 0.69017 0.09881 0.0
H402 H 0.02776 0.71929 0.14266 0.0
H403 H 0.00207 0.7338 0.08737 0.0
C404 C 0.978 0.78504 0.1875 0.0
N405 N 0.97645 0.77086 0.17192 0.0
C406 C 0.96289 0.78541 0.20022 0.0
C407 C 0.94471 0.75665 0.1805 0.0
C408 C 0.96016 0.7569 0.16813 0.0
C409 C 0.94596 0.77105 0.19682 0.0
H410 H 0.99101 0.79606 0.19013 0.0
H411 H 0.95921 0.74582 0.15564 0.0
O412 O 0.03739 0.77306 0.12816 0.0
O413 O 0.01671 0.79579 0.15871 0.0
O414 O 0.99117 0.76788 0.1261 0.0
O415 O 0.01514 0.75007 0.16017 0.0
H416 H 0.06427 0.75103 0.13811 0.0
H417 H 0.03128 0.77091 0.08841 0.0
H418 H 0.08038 0.73118 0.11361 0.0
H419 H 0.04803 0.7508 0.06477 0.0
H420 H 0.04938 0.82073 0.2191 0.0
H421 H 0.037 0.82778 0.14644 0.0
H422 H 0.02571 0.79526 0.19796 0.0
H423 H 0.06051 0.85262 0.16847 0.0
H424 H 0.04185 0.83745 0.0827 0.0
H425 H 0.98569 0.84353 0.10525 0.0
H426 H 0.07631 0.75149 0.20997 0.0
H427 H 0.10349 0.80154 0.18135 0.0
H428 H 0.96738 0.73373 0.12479 0.0
H429 H 0.99079 0.77986 0.08933 0.0
H430 H 0.94752 0.71687 0.09416 0.0
H431 H 0.97059 0.76213 0.0593 0.0
H432 H 0.98936 0.7177 0.14913 0.0
H433 H 0.01456 0.75894 0.19943 0.0
H434 H 0.96861 0.69923 0.1722 0.0
H435 H 0.99325 0.73978 0.22158 0.0
H436 H 0.0294 0.68594 0.12813 0.0
H437 H 0.00229 0.70035 0.07174 0.0
H438 H 0.96453 0.7967 0.21269 0.0
H439 H 0.9318 0.7455 0.17713 0.0
Li440 Li 0.50554 0.76936 0.4023 0.0
Li441 Li 0.48661 0.74694 0.37532 0.0
Li442 Li 0.50465 0.73461 0.40363 0.0
Li443 Li 0.52192 0.75082 0.37751 0.0
C444 C 0.47115 0.75932 0.41597 0.0
N445 N 0.44988 0.78168 0.43941 0.0
C446 C 0.45541 0.76724 0.40709 0.0
C447 C 0.47599 0.76267 0.43679 0.0
C448 C 0.44485 0.77852 0.4192 0.0
C449 C 0.46509 0.77406 0.44837 0.0
C450 C 0.51606 0.78279 0.36112 0.0
C451 C 0.52877 0.78877 0.32912 0.0
N452 N 0.54006 0.80563 0.3378 0.0
C453 C 0.52779 0.80017 0.36972 0.0
C454 C 0.51652 0.77704 0.34064 0.0
C455 C 0.5398 0.81153 0.35767 0.0
C456 C 0.517 0.80068 0.434 0.0
N457 N 0.50538 0.79418 0.41671 0.0
C458 C 0.4918 0.82408 0.41724 0.0
C459 C 0.49288 0.8054 0.40832 0.0
C460 C 0.50387 0.83145 0.4349 0.0
C461 C 0.51644 0.8194 0.44345 0.0
H462 H 0.52691 0.7915 0.44026 0.0
H463 H 0.48386 0.79982 0.39452 0.0
C464 C 0.44725 0.73017 0.36032 0.0
N465 N 0.46308 0.74377 0.35772 0.0
C466 C 0.42944 0.72963 0.34857 0.0
C467 C 0.44478 0.75684 0.33158 0.0
C468 C 0.46221 0.75683 0.34358 0.0
C469 C 0.42798 0.7434 0.33428 0.0
H470 H 0.44825 0.72021 0.37197 0.0
H471 H 0.47485 0.76772 0.34207 0.0
C472 C 0.54025 0.74861 0.42108 0.0
N473 N 0.56369 0.73301 0.4491 0.0
C474 C 0.5562 0.73993 0.4151 0.0
C475 C 0.5363 0.7495 0.44132 0.0
C476 C 0.56786 0.7321 0.4295 0.0
C477 C 0.54829 0.74147 0.45524 0.0
C478 C 0.49112 0.71152 0.36251 0.0
C479 C 0.48082 0.69565 0.37105 0.0
C480 C 0.48816 0.71299 0.34176 0.0
C481 C 0.46769 0.68149 0.35867 0.0
C482 C 0.47488 0.69856 0.32991 0.0
N483 N 0.46501 0.68324 0.33853 0.0
C484 C 0.49096 0.71047 0.43389 0.0
C485 C 0.51831 0.70136 0.41809 0.0
C486 C 0.49028 0.69427 0.44532 0.0
N487 N 0.50478 0.71361 0.42055 0.0
C488 C 0.51835 0.68516 0.42939 0.0
C489 C 0.50402 0.6813 0.44301 0.0
H490 H 0.48015 0.72023 0.4353 0.0
H491 H 0.52881 0.70395 0.40699 0.0
C492 C 0.55986 0.76575 0.36625 0.0
N493 N 0.54399 0.75136 0.36199 0.0
C494 C 0.57573 0.76654 0.35435 0.0
C495 C 0.55868 0.73754 0.33413 0.0
C496 C 0.54318 0.73733 0.34639 0.0
C497 C 0.57526 0.75227 0.33804 0.0
H498 H 0.56015 0.77664 0.37887 0.0
H499 H 0.53046 0.72599 0.34342 0.0
O500 O 0.48196 0.74861 0.40432 0.0
O501 O 0.5045 0.77124 0.37275 0.0
O502 O 0.52851 0.75612 0.40717 0.0
O503 O 0.50384 0.72568 0.3744 0.0
H504 H 0.45153 0.76491 0.39099 0.0
H505 H 0.48819 0.75674 0.44389 0.0
H506 H 0.4327 0.78482 0.41251 0.0
H507 H 0.46875 0.77688 0.46447 0.0
H508 H 0.52939 0.78442 0.3133 0.0
H509 H 0.52782 0.80476 0.38557 0.0
H510 H 0.50778 0.76347 0.3338 0.0
H511 H 0.549 0.82498 0.36414 0.0
H512 H 0.48169 0.83272 0.41027 0.0
H513 H 0.52616 0.82459 0.45691 0.0
H514 H 0.41675 0.71919 0.3513 0.0
H515 H 0.44433 0.7676 0.32063 0.0
H516 H 0.55942 0.73906 0.39949 0.0
H517 H 0.52397 0.7561 0.44617 0.0
H518 H 0.5802 0.72525 0.42508 0.0
H519 H 0.54533 0.74193 0.47093 0.0
H520 H 0.48281 0.6943 0.38706 0.0
H521 H 0.49578 0.72534 0.33493 0.0
H522 H 0.45959 0.66915 0.36508 0.0
H523 H 0.47235 0.69958 0.31386 0.0
H524 H 0.47898 0.69176 0.45565 0.0
H525 H 0.52894 0.6753 0.42687 0.0
H526 H 0.58834 0.77798 0.3581 0.0
H527 H 0.5576 0.72635 0.32162 0.0
Li528 Li 0.5193 0.28829 0.63237 0.0
Li529 Li 0.53692 0.27531 0.65938 0.0
Li530 Li 0.51692 0.25333 0.63337 0.0
Li531 Li 0.5017 0.27221 0.65781 0.0
C532 C 0.5456 0.27011 0.61083 0.0
N533 N 0.55535 0.26572 0.57156 0.0
C534 C 0.56517 0.26975 0.6069 0.0
C535 C 0.53098 0.26824 0.59478 0.0
C536 C 0.56981 0.26752 0.58694 0.0
C537 C 0.53621 0.26603 0.57503 0.0
C538 C 0.53299 0.31476 0.66545 0.0
C539 C 0.53894 0.34851 0.67983 0.0
N540 N 0.55703 0.35087 0.67271 0.0
C541 C 0.55167 0.31751 0.65832 0.0
C542 C 0.52658 0.33037 0.67633 0.0
C543 C 0.56359 0.33588 0.66213 0.0
C544 C 0.50305 0.31692 0.61136 0.0
N545 N 0.51997 0.30958 0.61575 0.0
C546 C 0.53847 0.33494 0.59949 0.0
C547 C 0.53743 0.31799 0.60974 0.0
C548 C 0.52139 0.34332 0.59539 0.0
C549 C 0.5034 0.33385 0.60103 0.0
H550 H 0.48941 0.30999 0.61649 0.0
H551 H 0.55069 0.31193 0.61345 0.0
C552 C 0.57339 0.26566 0.66958 0.0
N553 N 0.56053 0.27717 0.67642 0.0
C554 C 0.59083 0.26467 0.68116 0.0
C555 C 0.5816 0.28756 0.70665 0.0
C556 C 0.56428 0.28816 0.69449 0.0
C557 C 0.59503 0.2755 0.7001 0.0
H558 H 0.56993 0.25704 0.65518 0.0
H559 H 0.55369 0.2971 0.69961 0.0
C560 C 0.47733 0.2562 0.62381 0.0
N561 N 0.44177 0.23143 0.61532 0.0
C562 C 0.47415 0.2382 0.63228 0.0
C563 C 0.46242 0.26159 0.61101 0.0
C564 C 0.45608 0.22588 0.62781 0.0
C565 C 0.44454 0.24887 0.60691 0.0
C566 C 0.51895 0.24762 0.68258 0.0
C567 C 0.51995 0.22848 0.68763 0.0
C568 C 0.51896 0.26269 0.69784 0.0
C569 C 0.52095 0.22472 0.70792 0.0
C570 C 0.51998 0.25833 0.71794 0.0
N571 N 0.52095 0.23959 0.72252 0.0
C572 C 0.52845 0.2171 0.6279 0.0
C573 C 0.50523 0.22197 0.60139 0.0
C574 C 0.52895 0.19804 0.61963 0.0
N575 N 0.51649 0.22847 0.61892 0.0
C576 C 0.50526 0.2029 0.59257 0.0
C577 C 0.517 0.19056 0.60193 0.0
H578 H 0.53742 0.22282 0.64168 0.0
H579 H 0.49597 0.23142 0.59448 0.0
C580 C 0.47397 0.2901 0.67797 0.0
N581 N 0.47979 0.27244 0.67345 0.0
C582 C 0.45805 0.29134 0.68946 0.0
C583 C 0.45435 0.25613 0.69139 0.0
C584 C 0.47047 0.25561 0.68002 0.0
C585 C 0.44786 0.27417 0.69621 0.0
H586 H 0.48172 0.30324 0.67261 0.0
H587 H 0.47548 0.24175 0.67636 0.0
O588 O 0.54093 0.27224 0.63034 0.0
O589 O 0.52091 0.29697 0.66183 0.0
O590 O 0.49486 0.26862 0.62792 0.0
O591 O 0.51801 0.25145 0.66276 0.0
H592 H 0.57665 0.27119 0.61917 0.0
H593 H 0.51576 0.26851 0.59747 0.0
H594 H 0.5849 0.26723 0.58368 0.0
H595 H 0.52505 0.26456 0.56247 0.0
H596 H 0.53414 0.36072 0.68821 0.0
H597 H 0.55696 0.30566 0.6499 0.0
H598 H 0.51219 0.32849 0.682 0.0
H599 H 0.57805 0.33821 0.65666 0.0
H600 H 0.5526 0.34168 0.59524 0.0
H601 H 0.48994 0.33996 0.59835 0.0
H602 H 0.60092 0.25549 0.67529 0.0
H603 H 0.58421 0.29605 0.72119 0.0
H604 H 0.4855 0.23371 0.64216 0.0
H605 H 0.46466 0.27548 0.60432 0.0
H606 H 0.45343 0.21191 0.63426 0.0
H607 H 0.43287 0.25286 0.59703 0.0
H608 H 0.51994 0.21665 0.67599 0.0
H609 H 0.51816 0.27759 0.69425 0.0
H610 H 0.52173 0.20997 0.71205 0.0
H611 H 0.52 0.26984 0.72989 0.0
H612 H 0.53851 0.18919 0.62714 0.0
H613 H 0.49574 0.19768 0.57898 0.0
H614 H 0.45385 0.30563 0.69306 0.0
H615 H 0.44685 0.24247 0.696 0.0
Li616 Li 0.00629 0.26651 0.90346 0.0
Li617 Li 0.987 0.2426 0.87801 0.0
Li618 Li 0.00564 0.23203 0.90687 0.0
Li619 Li 0.02222 0.24676 0.87945 0.0
C620 C 0.97248 0.25747 0.91834 0.0
N621 N 0.95188 0.28132 0.94089 0.0
C622 C 0.95683 0.26528 0.90912 0.0
C623 C 0.97759 0.26173 0.93905 0.0
C624 C 0.9466 0.27731 0.92079 0.0
C625 C 0.96702 0.27385 0.95018 0.0
C626 C 0.01546 0.27737 0.86091 0.0
C627 C 0.02739 0.28102 0.82816 0.0
N628 N 0.03841 0.29854 0.83541 0.0
C629 C 0.02691 0.2954 0.86803 0.0
C630 C 0.01567 0.27012 0.8408 0.0
C631 C 0.03839 0.30589 0.8549 0.0
C632 C 0.01803 0.29875 0.93399 0.0
N633 N 0.0064 0.29193 0.91679 0.0
C634 C 0.99309 0.32197 0.91648 0.0
C635 C 0.99404 0.30307 0.90801 0.0
C636 C 0.00509 0.3296 0.93411 0.0
C637 C 0.01757 0.31765 0.94301 0.0
H638 H 0.02781 0.28961 0.94058 0.0
H639 H 0.98497 0.29723 0.89432 0.0
C640 C 0.94749 0.22545 0.86721 0.0
N641 N 0.96292 0.23767 0.86127 0.0
C642 C 0.92898 0.22329 0.85649 0.0
C643 C 0.9428 0.24575 0.83335 0.0
C644 C 0.961 0.24757 0.84459 0.0
C645 C 0.92641 0.23383 0.83954 0.0
H646 H 0.94942 0.21794 0.88068 0.0
H647 H 0.9734 0.25748 0.84044 0.0
C648 C 0.04138 0.24645 0.92291 0.0
N649 N 0.06526 0.23162 0.95115 0.0
C650 C 0.05707 0.23735 0.91692 0.0
C651 C 0.03791 0.24813 0.94327 0.0
C652 C 0.06896 0.22993 0.93143 0.0
C653 C 0.05012 0.24049 0.95731 0.0
C654 C 0.99161 0.20696 0.86687 0.0
C655 C 0.981 0.1919 0.87632 0.0
C656 C 0.98876 0.20721 0.84595 0.0
C657 C 0.96768 0.17736 0.86465 0.0
C658 C 0.97527 0.19243 0.83482 0.0
N659 N 0.9651 0.17793 0.84432 0.0
C660 C 0.99229 0.20954 0.93844 0.0
C661 C 0.019 0.1991 0.92252 0.0
C662 C 0.99122 0.19359 0.95023 0.0
N663 N 0.00593 0.21188 0.92483 0.0
C664 C 0.01858 0.18307 0.93411 0.0
C665 C 0.00432 0.17996 0.94793 0.0
H666 H 0.98181 0.21967 0.9397 0.0
H667 H 0.02936 0.20104 0.91119 0.0
C668 C 0.05962 0.26143 0.86697 0.0
N669 N 0.04413 0.24651 0.86378 0.0
C670 C 0.07557 0.26159 0.85526 0.0
C671 C 0.05944 0.23088 0.83744 0.0
C672 C 0.0438 0.23135 0.84945 0.0
C673 C 0.07563 0.24612 0.84028 0.0
H674 H 0.05956 0.27319 0.87865 0.0
H675 H 0.0314 0.21958 0.84735 0.0
O676 O 0.98299 0.24605 0.90711 0.0
O677 O 0.00439 0.2667 0.87363 0.0
O678 O 0.0294 0.25356 0.9089 0.0
O679 O 0.00443 0.22156 0.87807 0.0
H680 H 0.95279 0.26232 0.89309 0.0
H681 H 0.98977 0.25596 0.94639 0.0
H682 H 0.93452 0.28353 0.91383 0.0
H683 H 0.9709 0.27737 0.96618 0.0
H684 H 0.0278 0.27551 0.81262 0.0
H685 H 0.02713 0.30116 0.88358 0.0
H686 H 0.00717 0.25603 0.83511 0.0
H687 H 0.04737 0.31984 0.86023 0.0
H688 H 0.98307 0.33053 0.90926 0.0
H689 H 0.02725 0.32304 0.95645 0.0
H690 H 0.91672 0.21388 0.86169 0.0
H691 H 0.94138 0.25438 0.82058 0.0
H692 H 0.05992 0.23586 0.90122 0.0
H693 H 0.02576 0.25502 0.94814 0.0
H694 H 0.0811 0.22277 0.927 0.0
H695 H 0.04752 0.24156 0.9731 0.0
H696 H 0.98289 0.19152 0.89249 0.0
H697 H 0.99661 0.21891 0.83841 0.0
H698 H 0.95934 0.16566 0.87177 0.0
H699 H 0.97282 0.19252 0.81863 0.0
H700 H 0.98001 0.19172 0.96073 0.0
H701 H 0.0287 0.17271 0.93158 0.0
H702 H 0.08789 0.27347 0.85819 0.0
H703 H 0.0588 0.21874 0.82598 0.0
Li704 Li 0.40004 0.02424 0.28654 0.0
Li705 Li 0.37444 0.00103 0.26574 0.0
Li706 Li 0.40043 0.02174 0.25049 0.0
Li707 Li 0.37387 0.03552 0.26569 0.0
C708 C 0.41604 0.99034 0.2607 0.0
N709 N 0.44221 0.96941 0.24261 0.0
C710 C 0.4094 0.97173 0.25063 0.0
C711 C 0.43604 0.99824 0.2617 0.0
C712 C 0.42286 0.96139 0.24157 0.0
C713 C 0.44901 0.98746 0.25241 0.0
C714 C 0.35964 0.00792 0.30028 0.0
C715 C 0.32847 0.9884 0.30487 0.0
N716 N 0.3365 0.98281 0.32233 0.0
C717 C 0.36757 0.00202 0.31831 0.0
C718 C 0.3399 0.00113 0.29353 0.0
C719 C 0.35563 0.98931 0.32923 0.0
C720 C 0.41592 0.04193 0.32606 0.0
N721 N 0.41642 0.02737 0.31124 0.0
C722 C 0.43982 0.0135 0.33162 0.0
C723 C 0.42807 0.01333 0.31373 0.0
C724 C 0.43947 0.02814 0.3473 0.0
C725 C 0.42757 0.04271 0.3443 0.0
H726 H 0.40614 0.05263 0.32392 0.0
H727 H 0.42787 0.00162 0.30203 0.0
C728 C 0.34673 0.96938 0.24719 0.0
N729 N 0.35958 0.97544 0.2637 0.0
C730 C 0.33655 0.95018 0.24468 0.0
C731 C 0.35282 0.94392 0.27641 0.0
C732 C 0.36285 0.96319 0.27818 0.0
C733 C 0.33966 0.93717 0.25936 0.0
H734 H 0.34469 0.97934 0.23575 0.0
H735 H 0.37353 0.9683 0.29091 0.0
C736 C 0.41426 0.06079 0.28035 0.0
N737 N 0.43794 0.09007 0.30546 0.0
C738 C 0.40605 0.07594 0.28996 0.0
C739 C 0.43451 0.06056 0.28342 0.0
C740 C 0.41828 0.09062 0.30261 0.0
C741 C 0.44623 0.07548 0.29622 0.0
C742 C 0.36008 0.02352 0.22848 0.0
C743 C 0.36836 0.035 0.21402 0.0
C744 C 0.33969 0.0207 0.22956 0.0
C745 C 0.35607 0.04361 0.20092 0.0
C746 C 0.32791 0.02961 0.21622 0.0
N747 N 0.33627 0.04079 0.2023 0.0
C748 C 0.41425 0.00565 0.21593 0.0
C749 C 0.43196 0.03696 0.22824 0.0
C750 C 0.42752 0.00348 0.20153 0.0
N751 N 0.41703 0.02191 0.22924 0.0
C752 C 0.44533 0.03566 0.21368 0.0
C753 C 0.44346 0.01856 0.20027 0.0
H754 H 0.40211 0.99399 0.21703 0.0
H755 H 0.43365 0.04983 0.2389 0.0
C756 C 0.33999 0.0524 0.27282 0.0
N757 N 0.35683 0.05465 0.26338 0.0
C758 C 0.32674 0.0657 0.27074 0.0
C759 C 0.34852 0.08351 0.24937 0.0
C760 C 0.36133 0.0698 0.25182 0.0
C761 C 0.33097 0.08159 0.25898 0.0
H762 H 0.33679 0.04024 0.28191 0.0
H763 H 0.37487 0.0712 0.2445 0.0
O764 O 0.40305 0.00084 0.26942 0.0
O765 O 0.37114 0.02024 0.28929 0.0
O766 O 0.40254 0.04624 0.268 0.0
O767 O 0.37191 0.01535 0.24175 0.0
H768 H 0.39399 0.96539 0.24963 0.0
H769 H 0.44142 0.01266 0.26936 0.0
H770 H 0.4179 0.94701 0.23365 0.0
H771 H 0.46448 0.99347 0.25293 0.0
H772 H 0.31324 0.9829 0.29973 0.0
H773 H 0.38278 0.00711 0.32379 0.0
H774 H 0.33359 0.0053 0.27947 0.0
H775 H 0.36159 0.98458 0.34318 0.0
H776 H 0.44884 0.00203 0.33332 0.0
H777 H 0.42669 0.05407 0.35618 0.0
H778 H 0.32649 0.94549 0.23134 0.0
H779 H 0.35585 0.93422 0.28787 0.0
H780 H 0.3904 0.07629 0.28782 0.0
H781 H 0.44108 0.04888 0.27617 0.0
H782 H 0.41213 0.10241 0.3102 0.0
H783 H 0.46191 0.07543 0.29883 0.0
H784 H 0.38412 0.03739 0.21304 0.0
H785 H 0.33308 0.012 0.2408 0.0
H786 H 0.36227 0.05262 0.1897 0.0
H787 H 0.31213 0.0277 0.21699 0.0
H788 H 0.4255 0.98985 0.19191 0.0
H789 H 0.45699 0.04793 0.21304 0.0
H790 H 0.31331 0.06351 0.27824 0.0
H791 H 0.35253 0.09569 0.24043 0.0
Li792 Li 0.26829 0.14611 0.52293 0.0
Li793 Li 0.28243 0.12027 0.50409 0.0
Li794 Li 0.26726 0.14609 0.48573 0.0
Li795 Li 0.24707 0.1191 0.50007 0.0
C796 C 0.30528 0.16505 0.51145 0.0
N797 N 0.33475 0.19671 0.5227 0.0
C798 C 0.32323 0.16214 0.52106 0.0
C799 C 0.3025 0.18404 0.5072 0.0
C800 C 0.33789 0.17834 0.52674 0.0
C801 C 0.31752 0.19986 0.51309 0.0
C802 C 0.26993 0.10416 0.53763 0.0
C803 C 0.27576 0.0713 0.54337 0.0
N804 N 0.2834 0.07784 0.56249 0.0
C805 C 0.27768 0.11051 0.5574 0.0
C806 C 0.26879 0.08436 0.5306 0.0
C807 C 0.28447 0.09699 0.56971 0.0
C808 C 0.25342 0.16619 0.55558 0.0
N809 N 0.27016 0.16155 0.54818 0.0
C810 C 0.28926 0.17578 0.57854 0.0
C811 C 0.28789 0.16625 0.55918 0.0
C812 C 0.27219 0.18042 0.58677 0.0
C813 C 0.25412 0.17582 0.57489 0.0
H814 H 0.23942 0.16189 0.54671 0.0
H815 H 0.30087 0.16186 0.5533 0.0
C816 C 0.30637 0.09289 0.48948 0.0
N817 N 0.30332 0.10491 0.50565 0.0
C818 C 0.32111 0.08101 0.49094 0.0
C819 C 0.32924 0.09411 0.52567 0.0
C820 C 0.31457 0.1059 0.52343 0.0
C821 C 0.33275 0.08141 0.50929 0.0
H822 H 0.29735 0.09251 0.47543 0.0
H823 H 0.31196 0.11568 0.53603 0.0
C824 C 0.23666 0.1642 0.50187 0.0
N825 N 0.21903 0.19748 0.49897 0.0
C826 C 0.21726 0.1626 0.49335 0.0
C827 C 0.24696 0.1827 0.50924 0.0
C828 C 0.20864 0.1796 0.49192 0.0
C829 C 0.23783 0.19935 0.50756 0.0
C830 C 0.25409 0.10324 0.46466 0.0
C831 C 0.24393 0.10897 0.44774 0.0
C832 C 0.25266 0.08326 0.46767 0.0
C833 C 0.23222 0.09462 0.43428 0.0
C834 C 0.24079 0.06935 0.45389 0.0
N835 N 0.23088 0.07527 0.43763 0.0
C836 C 0.28629 0.16959 0.45726 0.0
C837 C 0.25143 0.16555 0.45409 0.0
C838 C 0.28712 0.18084 0.44066 0.0
N839 N 0.26861 0.16225 0.46363 0.0
C840 C 0.25156 0.17661 0.43746 0.0
C841 C 0.26956 0.18429 0.43039 0.0
H842 H 0.29975 0.16648 0.46488 0.0
H843 H 0.23756 0.15916 0.45907 0.0
C844 C 0.21779 0.08875 0.51006 0.0
N845 N 0.22209 0.10244 0.49679 0.0
C846 C 0.19909 0.07742 0.50878 0.0
C847 C 0.18962 0.09434 0.48008 0.0
C848 C 0.20853 0.10526 0.48184 0.0
C849 C 0.18461 0.08039 0.49384 0.0
H850 H 0.22866 0.08702 0.52203 0.0
H851 H 0.21229 0.1163 0.47155 0.0
O852 O 0.29081 0.1493 0.50571 0.0
O853 O 0.26344 0.11727 0.52527 0.0
O854 O 0.24533 0.14767 0.50333 0.0
O855 O 0.26536 0.11711 0.47819 0.0
H856 H 0.3258 0.14756 0.52421 0.0
H857 H 0.28902 0.18654 0.49917 0.0
H858 H 0.35178 0.1763 0.53434 0.0
H859 H 0.31552 0.21462 0.50993 0.0
H860 H 0.2751 0.05597 0.53806 0.0
H861 H 0.27849 0.1257 0.56319 0.0
H862 H 0.26273 0.07915 0.51542 0.0
H863 H 0.29059 0.10173 0.58501 0.0
H864 H 0.30351 0.17913 0.58714 0.0
H865 H 0.24056 0.17887 0.58075 0.0
H866 H 0.32346 0.0718 0.47776 0.0
H867 H 0.33752 0.09479 0.54021 0.0
H868 H 0.20895 0.1484 0.4878 0.0
H869 H 0.26171 0.18417 0.51646 0.0
H870 H 0.19369 0.17858 0.48522 0.0
H871 H 0.24566 0.21375 0.51319 0.0
H872 H 0.24495 0.12434 0.44508 0.0
H873 H 0.26061 0.07853 0.48053 0.0
H874 H 0.22418 0.09887 0.4212 0.0
H875 H 0.23947 0.05385 0.45611 0.0
H876 H 0.30131 0.18623 0.43556 0.0
H877 H 0.23766 0.179 0.43011 0.0
H878 H 0.19577 0.06706 0.51989 0.0
H879 H 0.17893 0.097 0.46825 0.0
Li880 Li 0.15461 0.02712 0.78805 0.0
Li881 Li 0.12765 0.00642 0.80215 0.0
Li882 Li 0.15203 0.99079 0.78279 0.0
Li883 Li 0.12645 0.00664 0.76562 0.0
C884 C 0.1743 0.01295 0.82042 0.0
N885 N 0.20987 0.02333 0.84357 0.0
C886 C 0.17468 0.01756 0.84121 0.0
C887 C 0.192 0.01353 0.81144 0.0
C888 C 0.19282 0.02279 0.85265 0.0
C889 C 0.20983 0.01882 0.82338 0.0
C890 C 0.11533 0.04084 0.79639 0.0
C891 C 0.08402 0.04956 0.80435 0.0
N892 N 0.09351 0.06386 0.81838 0.0
C893 C 0.12479 0.05574 0.81074 0.0
C894 C 0.0948 0.03782 0.79301 0.0
C895 C 0.11349 0.06718 0.82176 0.0
C896 C 0.17136 0.06045 0.77203 0.0
N897 N 0.17175 0.0517 0.78955 0.0
C898 C 0.19543 0.07843 0.80547 0.0
C899 C 0.18327 0.0604 0.80624 0.0
C900 C 0.19547 0.08779 0.78746 0.0
C901 C 0.18303 0.07855 0.77066 0.0
H902 H 0.16181 0.05335 0.7591 0.0
H903 H 0.18301 0.05347 0.82019 0.0
C904 C 0.09588 0.99097 0.82445 0.0
N905 N 0.11204 0.005 0.8247 0.0
C906 C 0.08408 0.99057 0.84057 0.0
C907 C 0.10607 0.01871 0.85721 0.0
C908 C 0.11738 0.0186 0.84075 0.0
C909 C 0.08903 0.00466 0.85723 0.0
H910 H 0.09205 0.9801 0.81172 0.0
H911 H 0.1304 0.02948 0.84071 0.0
C912 C 0.16802 0.00684 0.74892 0.0
N913 N 0.1942 -0.00023 0.72089 0.0
C914 C 0.16151 0.99485 0.73113 0.0
C915 C 0.18778 0.01556 0.75226 0.0
C916 C 0.17499 0.99135 0.71721 0.0
C917 C 0.2008 0.01172 0.73796 0.0
C918 C 0.10669 0.97098 0.77236 0.0
C919 C 0.10838 0.95195 0.76463 0.0
C920 C 0.08842 0.97746 0.77045 0.0
C921 C 0.09176 0.93976 0.75493 0.0
C922 C 0.07216 0.96485 0.76065 0.0
N923 N 0.07415 0.94642 0.75314 0.0
C924 C 0.17903 0.96521 0.79528 0.0
C925 C 0.1636 0.95771 0.76209 0.0
C926 C 0.1896 0.94953 0.79288 0.0
N927 N 0.16654 0.96919 0.77988 0.0
C928 C 0.17359 0.94167 0.75916 0.0
C929 C 0.18685 0.93748 0.77466 0.0
H930 H 0.18058 0.97394 0.80958 0.0
H931 H 0.15318 0.96078 0.75028 0.0
C932 C 0.10667 0.0252 0.73641 0.0
N933 N 0.11075 0.00725 0.7409 0.0
C934 C 0.09677 0.02739 0.71787 0.0
C935 C 0.09485 0.99243 0.70913 0.0
C936 C 0.10512 0.99099 0.72769 0.0
C937 C 0.09083 0.01087 0.70395 0.0
H938 H 0.11157 0.03794 0.74706 0.0
H939 H 0.10904 0.97698 0.73128 0.0
O940 O 0.15667 0.00809 0.80895 0.0
O941 O 0.12612 0.0293 0.78568 0.0
O942 O 0.155 0.0105 0.76268 0.0
O943 O 0.12285 0.98318 0.78174 0.0
H944 H 0.16114 0.01707 0.84846 0.0
H945 H 0.19195 0.00978 0.79544 0.0
H946 H 0.19333 0.02643 0.86875 0.0
H947 H 0.22364 0.01933 0.8166 0.0
H948 H 0.06812 0.04732 0.80197 0.0
H949 H 0.14067 0.05827 0.81355 0.0
H950 H 0.08726 0.02654 0.78176 0.0
H951 H 0.12061 0.07866 0.83304 0.0
H952 H 0.20477 0.08486 0.81881 0.0
H953 H 0.18201 0.08533 0.7566 0.0
H954 H 0.07105 0.97952 0.8398 0.0
H955 H 0.11077 0.02962 0.86987 0.0
H956 H 0.14624 0.98816 0.72819 0.0
H957 H 0.193 0.02533 0.76565 0.0
H958 H 0.17017 0.98195 0.70347 0.0
H959 H 0.21614 0.01832 0.7404 0.0
H960 H 0.12234 0.9466 0.76616 0.0
H961 H 0.08687 0.99213 0.77637 0.0
H962 H 0.09286 0.92501 0.74884 0.0
H963 H 0.05796 0.96972 0.75898 0.0
H964 H 0.19934 0.94646 0.80535 0.0
H965 H 0.17095 0.9326 0.74495 0.0
H966 H 0.09395 0.04185 0.71437 0.0
H967 H 0.0908 0.97943 0.69862 0.0
Li968 Li 0.23243 0.89234 0.01528 0.0
Li969 Li 0.24361 0.86561 0.03261 0.0
Li970 Li 0.26682 0.89 0.01797 0.0
Li971 Li 0.24392 0.86477 0.99659 0.0
C972 C 0.24266 0.90714 0.05258 0.0
N973 N 0.22496 0.93296 0.07606 0.0
C974 C 0.2301 0.90008 0.06675 0.0
C975 C 0.2463 0.92733 0.05041 0.0
C976 C 0.22129 0.91338 0.07849 0.0
C977 C 0.23716 0.94014 0.06239 0.0
C978 C 0.20642 0.853 0.99952 0.0
C979 C 0.19175 0.8218 0.98185 0.0
N980 N 0.17831 0.83093 0.97178 0.0
C981 C 0.19247 0.86208 0.98898 0.0
C982 C 0.20606 0.83269 0.99595 0.0
C983 C 0.17837 0.85066 0.97503 0.0
C984 C 0.21686 0.92673 0.00549 0.0
N985 N 0.21381 0.91027 0.0155 0.0
C986 C 0.18478 0.91995 0.028 0.0
C987 C 0.19809 0.9066 0.02651 0.0
C988 C 0.18767 0.93727 0.01804 0.0
C989 C 0.20397 0.94052 0.00662 0.0
H990 H 0.22942 0.92928 0.9968 0.0
H991 H 0.19599 0.89332 0.03424 0.0
C992 C 0.25387 0.85408 0.07094 0.0
N993 N 0.24079 0.84949 0.05437 0.0
C994 C 0.25428 0.84115 0.08599 0.0
C995 C 0.22719 0.81942 0.06702 0.0
C996 C 0.2273 0.8328 0.05236 0.0
C997 C 0.24106 0.82335 0.08395 0.0
H998 H 0.26442 0.8675 0.07212 0.0
H999 H 0.21706 0.82954 0.03905 0.0
C1000 C 0.26348 0.90402 0.98294 0.0
N1001 N 0.29231 0.92516 0.96323 0.0
C1002 C 0.27158 0.89486 0.96688 0.0
C1003 C 0.26999 0.92396 0.98891 0.0
C1004 C 0.28613 0.9058 0.95711 0.0
C1005 C 0.28461 0.93438 0.97879 0.0
C1006 C 0.27458 0.84868 0.02717 0.0
C1007 C 0.29111 0.85609 0.04053 0.0
C1008 C 0.26689 0.82863 0.02596 0.0
C1009 C 0.29965 0.84329 0.05248 0.0
C1010 C 0.27582 0.81634 0.03821 0.0
N1011 N 0.29188 0.82386 0.0511 0.0
C1012 C 0.29926 0.92 0.03294 0.0
C1013 C 0.30582 0.89552 0.00856 0.0
C1014 C 0.31887 0.92921 0.03426 0.0
N1015 N 0.29319 0.90348 0.02023 0.0
C1016 C 0.32552 0.90414 0.00949 0.0
C1017 C 0.33231 0.92114 0.02257 0.0
H1018 H 0.28895 0.92591 0.04217 0.0
H1019 H 0.30054 0.88234 0.99862 0.0
C1020 C 0.22917 0.84988 0.95605 0.0
N1021 N 0.24176 0.84791 0.97222 0.0
C1022 C 0.22894 0.83797 0.93807 0.0
C1023 C 0.25462 0.82239 0.95377 0.0
C1024 C 0.25431 0.8345 0.97137 0.0
C1025 C 0.24203 0.82422 0.93672 0.0
H1026 H 0.21964 0.86097 0.95698 0.0
H1027 H 0.26452 0.83354 0.9842 0.0
O1028 O 0.25106 0.8943 0.04063 0.0
O1029 O 0.22042 0.86394 0.01315 0.0
O1030 O 0.24952 0.89345 0.99299 0.0
O1031 O 0.26567 0.86107 0.01572 0.0
H1032 H 0.227 0.88449 0.06852 0.0
H1033 H 0.25575 0.93301 0.0393 0.0
H1034 H 0.21147 0.90813 0.08945 0.0
H1035 H 0.2397 0.95578 0.06074 0.0
H1036 H 0.1914 0.8061 0.97883 0.0
H1037 H 0.19259 0.87778 0.99141 0.0
H1038 H 0.21696 0.82546 0.00366 0.0
H1039 H 0.16751 0.85749 0.96675 0.0
H1040 H 0.17226 0.91661 0.03667 0.0
H1041 H 0.20693 0.95372 0.99885 0.0
H1042 H 0.26496 0.84498 0.09897 0.0
H1043 H 0.2168 0.80585 0.06477 0.0
H1044 H 0.26682 0.87944 0.96209 0.0
H1045 H 0.26416 0.93122 0.00154 0.0
H1046 H 0.29258 0.89888 0.9447 0.0
H1047 H 0.28991 0.94977 0.98338 0.0
H1048 H 0.29712 0.87158 0.04191 0.0
H1049 H 0.25391 0.82269 0.01596 0.0
H1050 H 0.31239 0.84884 0.06295 0.0
H1051 H 0.26991 0.80084 0.03755 0.0
H1052 H 0.32358 0.94217 0.0447 0.0
H1053 H 0.33534 0.89757 6e-05 0.0
H1054 H 0.21921 0.84005 0.92516 0.0
H1055 H 0.26487 0.81192 0.95342 0.0
Li1056 Li 0.24434 0.39708 0.032 0.0
Li1057 Li 0.25851 0.37213 0.04995 0.0
Li1058 Li 0.2795 0.39934 0.03695 0.0
Li1059 Li 0.2606 0.37251 0.01423 0.0
C1060 C 0.27226 0.41346 0.07223 0.0
N1061 N 0.29726 0.43879 0.1003 0.0
C1062 C 0.28121 0.40622 0.08899 0.0
C1063 C 0.27603 0.43358 0.06975 0.0
C1064 C 0.29378 0.41927 0.10302 0.0
C1065 C 0.28873 0.44614 0.08409 0.0
C1066 C 0.22332 0.35503 0.03662 0.0
C1067 C 0.21214 0.32218 0.0454 0.0
N1068 N 0.19782 0.32907 0.05551 0.0
C1069 C 0.2085 0.36178 0.04711 0.0
C1070 C 0.22517 0.33507 0.03572 0.0
C1071 C 0.19574 0.34842 0.05654 0.0
C1072 C 0.20729 0.40312 0.01579 0.0
N1073 N 0.22264 0.41124 0.02931 0.0
C1074 C 0.20653 0.43882 0.0376 0.0
C1075 C 0.22259 0.42875 0.04015 0.0
C1076 C 0.19032 0.43059 0.02399 0.0
C1077 C 0.19087 0.41255 0.01293 0.0
H1078 H 0.20779 0.38922 0.0073 0.0
H1079 H 0.23494 0.43485 0.05084 0.0
C1080 C 0.26469 0.34023 0.07357 0.0
N1081 N 0.25533 0.35615 0.07203 0.0
C1082 C 0.26266 0.32913 0.09017 0.0
C1083 C 0.2414 0.35102 0.10325 0.0
C1084 C 0.24372 0.36158 0.08635 0.0
C1085 C 0.2511 0.33466 0.10542 0.0
H1086 H 0.274 0.33633 0.0621 0.0
H1087 H 0.2365 0.37434 0.08476 0.0
C1088 C 0.25434 0.4124 0.99933 0.0
N1089 N 0.23358 0.43463 0.97535 0.0
C1090 C 0.2427 0.4035 0.98205 0.0
C1091 C 0.25541 0.43261 0.00441 0.0
C1092 C 0.23234 0.415 0.97011 0.0
C1093 C 0.24479 0.44359 0.99211 0.0
C1094 C 0.29315 0.35978 0.02471 0.0
C1095 C 0.31018 0.36866 0.01688 0.0
C1096 C 0.28701 0.3395 0.0207 0.0
C1097 C 0.32078 0.35707 0.00514 0.0
C1098 C 0.29799 0.32843 0.00886 0.0
N1099 N 0.3145 0.33737 0.0014 0.0
C1100 C 0.31795 0.41216 0.05534 0.0
C1101 C 0.30832 0.43129 0.02939 0.0
C1102 C 0.33687 0.42308 0.05764 0.0
N1103 N 0.30422 0.41631 0.04126 0.0
C1104 C 0.32703 0.44265 0.03124 0.0
C1105 C 0.3417 0.43835 0.04525 0.0
H1106 H 0.31436 0.39998 0.06437 0.0
H1107 H 0.2973 0.434 0.01801 0.0
C1108 C 0.24821 0.34115 0.98295 0.0
N1109 N 0.26112 0.35785 0.98896 0.0
C1110 C 0.24835 0.33165 0.9637 0.0
C1111 C 0.27515 0.35666 0.95737 0.0
C1112 C 0.27455 0.36559 0.97671 0.0
C1113 C 0.26175 0.33961 0.95052 0.0
H1114 H 0.2375 0.33547 0.99288 0.0
H1115 H 0.28454 0.37897 0.98187 0.0
O1116 O 0.26016 0.40087 0.05814 0.0
O1117 O 0.23627 0.36796 0.02771 0.0
O1118 O 0.26416 0.4013 0.01153 0.0
O1119 O 0.28233 0.37094 0.03587 0.0
H1120 H 0.27868 0.39068 0.09106 0.0
H1121 H 0.26956 0.4394 0.05667 0.0
H1122 H 0.30085 0.41386 0.11603 0.0
H1123 H 0.29188 0.46172 0.08228 0.0
H1124 H 0.21348 0.30672 0.04494 0.0
H1125 H 0.20701 0.37721 0.0482 0.0
H1126 H 0.23674 0.32963 0.02795 0.0
H1127 H 0.18424 0.35345 0.06478 0.0
H1128 H 0.20655 0.45259 0.04657 0.0
H1129 H 0.17872 0.4058 0.00219 0.0
H1130 H 0.27059 0.31678 0.09139 0.0
H1131 H 0.23222 0.35569 0.11457 0.0
H1132 H 0.24143 0.38785 0.97802 0.0
H1133 H 0.26401 0.43969 0.01794 0.0
H1134 H 0.22323 0.40829 0.95674 0.0
H1135 H 0.24538 0.45921 0.99594 0.0
H1136 H 0.31507 0.38434 0.01962 0.0
H1137 H 0.27369 0.33243 0.02633 0.0
H1138 H 0.33394 0.36376 0.99893 0.0
H1139 H 0.29332 0.31275 0.00553 0.0
H1140 H 0.34772 0.41934 0.06869 0.0
H1141 H 0.33022 0.45405 0.02115 0.0
H1142 H 0.23761 0.31868 0.95891 0.0
H1143 H 0.28583 0.36318 0.94777 0.0
Li1144 Li 0.78037 0.14387 0.04711 0.0
Li1145 Li 0.79141 0.11565 0.02897 0.0
Li1146 Li 0.77554 0.13929 0.01066 0.0
Li1147 Li 0.75701 0.11579 0.03051 0.0
C1148 C 0.81623 0.15776 0.03614 0.0
N1149 N 0.84716 0.18515 0.05436 0.0
C1150 C 0.83336 0.15162 0.0443 0.0
C1151 C 0.81483 0.17783 0.0373 0.0
C1152 C 0.84884 0.1657 0.05342 0.0
C1153 C 0.83062 0.19145 0.04657 0.0
C1154 C 0.76595 0.10579 0.06643 0.0
C1155 C 0.74711 0.07563 0.07491 0.0
N1156 N 0.74171 0.08551 0.09148 0.0
C1157 C 0.7603 0.11562 0.08359 0.0
C1158 C 0.7594 0.0856 0.0621 0.0
C1159 C 0.74802 0.10511 0.09605 0.0
C1160 C 0.76742 0.17105 0.07348 0.0
N1161 N 0.7838 0.16312 0.06972 0.0
C1162 C 0.80208 0.18272 0.09802 0.0
C1163 C 0.80086 0.16833 0.08184 0.0
C1164 C 0.78537 0.19134 0.10219 0.0
C1165 C 0.76783 0.18509 0.0897 0.0
H1166 H 0.75384 0.16618 0.06408 0.0
H1167 H 0.81353 0.16137 0.07898 0.0
C1168 C 0.82535 0.10238 0.01504 0.0
N1169 N 0.81105 0.09894 0.02783 0.0
C1170 C 0.83902 0.08949 0.01286 0.0
C1171 C 0.82302 0.06979 0.03706 0.0
C1172 C 0.80976 0.08314 0.03888 0.0
C1173 C 0.83792 0.07283 0.02387 0.0
H1174 H 0.82598 0.11507 0.00639 0.0
H1175 H 0.79823 0.08071 0.04888 0.0
C1176 C 0.74508 0.15568 0.01992 0.0
N1177 N 0.72355 0.17884 0.99801 0.0
C1178 C 0.72789 0.14714 0.00806 0.0
C1179 C 0.75126 0.17599 0.02074 0.0
C1180 C 0.71721 0.15912 0.99708 0.0
C1181 C 0.74019 0.18745 0.00951 0.0
C1182 C 0.77763 0.09693 0.99402 0.0
C1183 C 0.78827 0.10332 0.97812 0.0
C1184 C 0.77541 0.07709 0.99778 0.0
C1185 C 0.79656 0.08971 0.96625 0.0
C1186 C 0.78398 0.06395 0.98559 0.0
N1187 N 0.79429 0.07048 0.97021 0.0
C1188 C 0.78439 0.16996 0.98484 0.0
C1189 C 0.75921 0.14368 0.97204 0.0
C1190 C 0.78154 0.17973 0.96755 0.0
N1191 N 0.77322 0.15233 0.98676 0.0
C1192 C 0.75597 0.15284 0.95445 0.0
C1193 C 0.76721 0.17112 0.95207 0.0
H1194 H 0.79546 0.17647 0.99671 0.0
H1195 H 0.75045 0.12972 0.97409 0.0
C1196 C 0.71992 0.10924 0.04489 0.0
N1197 N 0.73155 0.10148 0.0319 0.0
C1198 C 0.70034 0.10065 0.04524 0.0
C1199 C 0.70523 0.07594 0.01917 0.0
C1200 C 0.72473 0.08507 0.01928 0.0
C1201 C 0.69267 0.08398 0.032 0.0
H1202 H 0.72575 0.12246 0.05457 0.0
H1203 H 0.73421 0.07947 0.00885 0.0
O1204 O 0.80101 0.1442 0.02696 0.0
O1205 O 0.77769 0.11591 0.05385 0.0
O1206 O 0.75605 0.14415 0.03034 0.0
O1207 O 0.7698 0.11012 0.00612 0.0
H1208 H 0.83467 0.13616 0.0437 0.0
H1209 H 0.80155 0.18284 0.03147 0.0
H1210 H 0.86217 0.16116 0.05979 0.0
H1211 H 0.82968 0.20701 0.04767 0.0
H1212 H 0.74177 0.06005 0.07163 0.0
H1213 H 0.76528 0.1312 0.08725 0.0
H1214 H 0.7634 0.0778 0.04874 0.0
H1215 H 0.74347 0.11255 0.10935 0.0
H1216 H 0.81597 0.187 0.1071 0.0
H1217 H 0.75432 0.19059 0.0926 0.0
H1218 H 0.85042 0.09268 0.00277 0.0
H1219 H 0.82137 0.05705 0.04567 0.0
H1220 H 0.72299 0.13142 0.00713 0.0
H1221 H 0.76459 0.1828 0.02977 0.0
H1222 H 0.70394 0.15271 0.98775 0.0
H1223 H 0.74487 0.20317 0.00989 0.0
H1224 H 0.79032 0.11865 0.97514 0.0
H1225 H 0.76748 0.07195 0.01021 0.0
H1226 H 0.8049 0.09445 0.95395 0.0
H1227 H 0.78253 0.04859 0.98843 0.0
H1228 H 0.79068 0.19368 0.96614 0.0
H1229 H 0.74468 0.14578 0.94292 0.0
H1230 H 0.69118 0.10721 0.05545 0.0
H1231 H 0.6998 0.06329 0.00852 0.0
Li1232 Li 0.14501 0.51794 0.27085 0.0
Li1233 Li 0.11942 0.49709 0.28645 0.0
Li1234 Li 0.14675 0.48443 0.27282 0.0
Li1235 Li 0.12109 0.49392 0.25005 0.0
C1236 C 0.15906 0.49712 0.30994 0.0
N1237 N 0.18196 0.48042 0.33754 0.0
C1238 C 0.15022 0.48573 0.32417 0.0
C1239 C 0.17956 0.50017 0.30986 0.0
C1240 C 0.16205 0.47739 0.33798 0.0
C1241 C 0.19088 0.49154 0.32389 0.0
C1242 C 0.09695 0.51952 0.26412 0.0
C1243 C 0.06233 0.50627 0.25965 0.0
N1244 N 0.05803 0.52479 0.25837 0.0
C1245 C 0.0922 0.5384 0.26274 0.0
C1246 C 0.08191 0.50329 0.26254 0.0
C1247 C 0.07243 0.54076 0.25984 0.0
C1248 C 0.15175 0.55559 0.25777 0.0
N1249 N 0.15824 0.54411 0.27168 0.0
C1250 C 0.18267 0.57062 0.2864 0.0
C1251 C 0.17336 0.55115 0.28586 0.0
C1252 C 0.17609 0.58292 0.27239 0.0
C1253 C 0.16048 0.57518 0.25787 0.0
H1254 H 0.13968 0.5495 0.24668 0.0
H1255 H 0.17807 0.5417 0.29684 0.0
C1256 C 0.09219 0.48044 0.31278 0.0
N1257 N 0.10159 0.49733 0.30649 0.0
C1258 C 0.07848 0.48126 0.32706 0.0
C1259 C 0.08419 0.51678 0.32766 0.0
C1260 C 0.09797 0.51528 0.31367 0.0
C1261 C 0.07428 0.49964 0.33469 0.0
H1262 H 0.0954 0.46637 0.30673 0.0
H1263 H 0.10563 0.52844 0.30825 0.0
C1264 C 0.16334 0.51062 0.2388 0.0
N1265 N 0.19004 0.53484 0.21935 0.0
C1266 C 0.15857 0.51482 0.21905 0.0
C1267 C 0.18189 0.51839 0.24848 0.0
C1268 C 0.17222 0.52717 0.20951 0.0
C1269 C 0.19512 0.53071 0.23846 0.0
C1270 C 0.11557 0.45438 0.25818 0.0
C1271 C 0.12777 0.45067 0.24298 0.0
C1272 C 0.10084 0.43946 0.26251 0.0
C1273 C 0.12497 0.43207 0.23236 0.0
C1274 C 0.09849 0.42107 0.25152 0.0
N1275 N 0.11051 0.41778 0.2368 0.0
C1276 C 0.15967 0.45055 0.28778 0.0
C1277 C 0.1812 0.46793 0.26694 0.0
C1278 C 0.17238 0.43673 0.29018 0.0
N1279 N 0.16428 0.46574 0.27627 0.0
C1280 C 0.19432 0.45453 0.26896 0.0
C1281 C 0.18991 0.43853 0.28054 0.0
H1282 H 0.14603 0.4491 0.29491 0.0
H1283 H 0.18444 0.48 0.25776 0.0
C1284 C 0.10575 0.50826 0.21643 0.0
N1285 N 0.1053 0.49097 0.22497 0.0
C1286 C 0.09507 0.50905 0.19807 0.0
C1287 C 0.08285 0.47429 0.19781 0.0
C1288 C 0.09382 0.47418 0.21632 0.0
C1289 C 0.08369 0.49186 0.18832 0.0
H1290 H 0.1146 0.52148 0.22391 0.0
H1291 H 0.09313 0.46071 0.22364 0.0
O1292 O 0.14767 0.50503 0.29601 0.0
O1293 O 0.11627 0.51702 0.26695 0.0
O1294 O 0.15005 0.49871 0.24848 0.0
O1295 O 0.11807 0.47238 0.26903 0.0
H1296 H 0.13439 0.48318 0.32445 0.0
H1297 H 0.18667 0.50884 0.29889 0.0
H1298 H 0.1554 0.46845 0.34901 0.0
H1299 H 0.20675 0.49363 0.32387 0.0
H1300 H 0.05055 0.49387 0.25841 0.0
H1301 H 0.10369 0.55109 0.26391 0.0
H1302 H 0.0853 0.48856 0.26354 0.0
H1303 H 0.06854 0.5553 0.25875 0.0
H1304 H 0.19451 0.57615 0.29797 0.0
H1305 H 0.1551 0.58419 0.24674 0.0
H1306 H 0.0715 0.46766 0.33225 0.0
H1307 H 0.08122 0.53126 0.33273 0.0
H1308 H 0.14459 0.50846 0.21105 0.0
H1309 H 0.1859 0.51523 0.26372 0.0
H1310 H 0.16867 0.5306 0.19426 0.0
H1311 H 0.20941 0.53703 0.2459 0.0
H1312 H 0.13924 0.46197 0.23934 0.0
H1313 H 0.0913 0.44209 0.27423 0.0
H1314 H 0.13429 0.429 0.22057 0.0
H1315 H 0.08713 0.40939 0.25469 0.0
H1316 H 0.16824 0.42446 0.29899 0.0
H1317 H 0.20774 0.45661 0.26142 0.0
H1318 H 0.09577 0.52302 0.19154 0.0
H1319 H 0.07419 0.46074 0.1908 0.0
Li1320 Li 0.74195 0.89672 0.53231 0.0
Li1321 Li 0.75673 0.87388 0.55073 0.0
Li1322 Li 0.77783 0.90083 0.53465 0.0
Li1323 Li 0.75691 0.87153 0.51465 0.0
C1324 C 0.75416 0.91894 0.56654 0.0
N1325 N 0.74089 0.95096 0.58532 0.0
C1326 C 0.73635 0.91643 0.57544 0.0
C1327 C 0.76527 0.93772 0.56729 0.0
C1328 C 0.72987 0.93281 0.58481 0.0
C1329 C 0.7583 0.95372 0.57685 0.0
C1330 C 0.72281 0.85337 0.53928 0.0
C1331 C 0.7154 0.81938 0.5463 0.0
N1332 N 0.70175 0.82421 0.55867 0.0
C1333 C 0.70866 0.85798 0.55203 0.0
C1334 C 0.72616 0.83389 0.53633 0.0
C1335 C 0.69818 0.84303 0.56169 0.0
C1336 C 0.7021 0.90088 0.52457 0.0
N1337 N 0.72038 0.91143 0.52924 0.0
C1338 C 0.70718 0.94166 0.52908 0.0
C1339 C 0.72323 0.93149 0.53098 0.0
C1340 C 0.68805 0.93105 0.52531 0.0
C1341 C 0.68565 0.9104 0.52271 0.0
H1342 H 0.70025 0.88501 0.5223 0.0
H1343 H 0.73795 0.93962 0.53398 0.0
C1344 C 0.76813 0.84481 0.5751 0.0
N1345 N 0.7562 0.85878 0.57378 0.0
C1346 C 0.76793 0.83328 0.59142 0.0
C1347 C 0.74314 0.85065 0.60479 0.0
C1348 C 0.744 0.86201 0.58833 0.0
C1349 C 0.75525 0.8361 0.60651 0.0
H1350 H 0.77787 0.84263 0.56351 0.0
H1351 H 0.73481 0.8733 0.58714 0.0
C1352 C 0.75016 0.9097 0.4969 0.0
N1353 N 0.72959 0.9299 0.47055 0.0
C1354 C 0.73426 0.89967 0.48408 0.0
C1355 C 0.75567 0.92998 0.4963 0.0
C1356 C 0.72403 0.91015 0.47087 0.0
C1357 C 0.74507 0.93993 0.48287 0.0
C1358 C 0.79137 0.86034 0.52539 0.0
C1359 C 0.80931 0.86861 0.51886 0.0
C1360 C 0.78511 0.84004 0.52187 0.0
C1361 C 0.82054 0.85645 0.50866 0.0
C1362 C 0.79674 0.82839 0.5116 0.0
N1363 N 0.81406 0.83677 0.50524 0.0
C1364 C 0.81419 0.92299 0.55251 0.0
C1365 C 0.80745 0.92396 0.51727 0.0
C1366 C 0.83285 0.93408 0.55197 0.0
N1367 N 0.80206 0.91805 0.53526 0.0
C1368 C 0.82593 0.93494 0.51602 0.0
C1369 C 0.83905 0.93984 0.53345 0.0
H1370 H 0.80956 0.91787 0.56656 0.0
H1371 H 0.79761 0.91955 0.50376 0.0
C1372 C 0.73953 0.84213 0.48365 0.0
N1373 N 0.75581 0.85552 0.48991 0.0
C1374 C 0.73795 0.83169 0.46468 0.0
C1375 C 0.77005 0.84882 0.45908 0.0
C1376 C 0.7709 0.85908 0.47806 0.0
C1377 C 0.75328 0.83512 0.45206 0.0
H1378 H 0.72748 0.84 0.4931 0.0
H1379 H 0.78338 0.87029 0.48313 0.0
O1380 O 0.76081 0.9031 0.5573 0.0
O1381 O 0.73351 0.86787 0.52996 0.0
O1382 O 0.76003 0.89978 0.51028 0.0
O1383 O 0.78005 0.87206 0.5352 0.0
H1384 H 0.72742 0.90208 0.57477 0.0
H1385 H 0.77905 0.93996 0.56045 0.0
H1386 H 0.71603 0.9311 0.5916 0.0
H1387 H 0.76671 0.96835 0.57748 0.0
H1388 H 0.71793 0.80427 0.54422 0.0
H1389 H 0.70603 0.87299 0.55477 0.0
H1390 H 0.73702 0.83002 0.52655 0.0
H1391 H 0.68729 0.84643 0.5717 0.0
H1392 H 0.70966 0.9576 0.53111 0.0
H1393 H 0.67118 0.90169 0.5193 0.0
H1394 H 0.77748 0.82218 0.59214 0.0
H1395 H 0.73337 0.8535 0.61625 0.0
H1396 H 0.7297 0.884 0.4845 0.0
H1397 H 0.76783 0.93799 0.50629 0.0
H1398 H 0.71162 0.90261 0.46093 0.0
H1399 H 0.74909 0.95564 0.4823 0.0
H1400 H 0.81454 0.88422 0.52158 0.0
H1401 H 0.77134 0.83335 0.52686 0.0
H1402 H 0.83441 0.86268 0.50345 0.0
H1403 H 0.79199 0.81268 0.50865 0.0
H1404 H 0.8426 0.93739 0.5657 0.0
H1405 H 0.83006 0.93923 0.50148 0.0
H1406 H 0.72474 0.82129 0.45978 0.0
H1407 H 0.782 0.85219 0.44966 0.0
Li1408 Li 0.89803 0.01802 0.26863 0.0
Li1409 Li 0.86975 0.99707 0.24728 0.0
Li1410 Li 0.89799 0.01782 0.23259 0.0
Li1411 Li 0.87412 0.03305 0.24876 0.0
C1412 C 0.90956 0.98311 0.25896 0.0
N1413 N 0.93168 0.95981 0.28009 0.0
C1414 C 0.90076 0.96485 0.26431 0.0
C1415 C 0.92968 0.98939 0.26417 0.0
C1416 C 0.91218 0.95331 0.27503 0.0
C1417 C 0.94059 0.97745 0.27491 0.0
C1418 C 0.86041 0.02612 0.28459 0.0
C1419 C 0.83138 0.03222 0.30047 0.0
N1420 N 0.84211 0.04821 0.31145 0.0
C1421 C 0.87115 0.04262 0.29601 0.0
C1422 C 0.84036 0.02086 0.2868 0.0
C1423 C 0.86164 0.05359 0.30952 0.0
C1424 C 0.92573 0.03451 0.30195 0.0
N1425 N 0.9124 0.01859 0.29435 0.0
C1426 C 0.9175 0.00253 0.32438 0.0
C1427 C 0.90797 0.00289 0.30525 0.0
C1428 C 0.93127 0.01877 0.33264 0.0
C1429 C 0.93536 0.03494 0.32121 0.0
H1430 H 0.92856 0.04706 0.29325 0.0
H1431 H 0.8968 0.99073 0.29915 0.0
C1432 C 0.84805 0.96004 0.22991 0.0
N1433 N 0.85225 0.97297 0.24665 0.0
C1434 C 0.83673 0.94156 0.23096 0.0
C1435 C 0.83403 0.9504 0.26626 0.0
C1436 C 0.84535 0.9686 0.26454 0.0
C1437 C 0.8299 0.93642 0.24945 0.0
H1438 H 0.85397 0.96385 0.21594 0.0
H1439 H 0.84922 0.97902 0.27768 0.0
C1440 C 0.91865 0.05132 0.24476 0.0
N1441 N 0.95006 0.07078 0.22712 0.0
C1442 C 0.91548 0.06455 0.23044 0.0
C1443 C 0.93782 0.04806 0.25014 0.0
C1444 C 0.93155 0.07424 0.2217 0.0
C1445 C 0.9535 0.05801 0.24103 0.0
C1446 C 0.85356 0.02018 0.214 0.0
C1447 C 0.8565 0.0378 0.20479 0.0
C1448 C 0.83469 0.00918 0.21281 0.0
C1449 C 0.84045 0.04422 0.1947 0.0
C1450 C 0.81902 0.01608 0.20254 0.0
N1451 N 0.8222 0.03332 0.19379 0.0
C1452 C 0.9295 0.00702 0.21133 0.0
C1453 C 0.91161 0.029 0.19505 0.0
C1454 C 0.94213 0.00703 0.19593 0.0
N1455 N 0.91465 0.01797 0.2107 0.0
C1456 C 0.92402 0.02963 0.17944 0.0
C1457 C 0.93949 0.01848 0.17972 0.0
H1458 H 0.93156 0.99821 0.22375 0.0
H1459 H 0.89963 0.03745 0.19473 0.0
C1460 C 0.86857 0.07316 0.25228 0.0
N1461 N 0.8589 0.05434 0.24988 0.0
C1462 C 0.85806 0.08897 0.2526 0.0
C1463 C 0.82776 0.06585 0.24924 0.0
C1464 C 0.83887 0.05046 0.24875 0.0
C1465 C 0.83737 0.08541 0.25086 0.0
H1466 H 0.88447 0.07592 0.25401 0.0
H1467 H 0.83149 0.03539 0.24733 0.0
O1468 O 0.89853 0.99472 0.24866 0.0
O1469 O 0.86936 0.0155 0.27091 0.0
O1470 O 0.90306 0.04135 0.25319 0.0
O1471 O 0.86905 0.01366 0.22406 0.0
H1472 H 0.88529 0.95961 0.26029 0.0
H1473 H 0.93676 0.00344 0.26018 0.0
H1474 H 0.90553 0.9392 0.27934 0.0
H1475 H 0.95613 0.98222 0.27917 0.0
H1476 H 0.81586 0.02837 0.30229 0.0
H1477 H 0.8866 0.04708 0.29424 0.0
H1478 H 0.83176 0.00829 0.27786 0.0
H1479 H 0.86975 0.06644 0.3184 0.0
H1480 H 0.91364 0.98999 0.33291 0.0
H1481 H 0.94579 0.0478 0.32718 0.0
H1482 H 0.83406 0.93115 0.21769 0.0
H1483 H 0.82889 0.94717 0.28074 0.0
H1484 H 0.90075 0.06702 0.22577 0.0
H1485 H 0.94059 0.03786 0.26112 0.0
H1486 H 0.92928 0.0844 0.2105 0.0
H1487 H 0.96839 0.05555 0.245 0.0
H1488 H 0.87091 0.04665 0.2058 0.0
H1489 H 0.83212 0.99555 0.21987 0.0
H1490 H 0.84248 0.05792 0.18768 0.0
H1491 H 0.80433 0.00776 0.20157 0.0
H1492 H 0.95391 0.99825 0.19676 0.0
H1493 H 0.92128 0.03843 0.16707 0.0
H1494 H 0.86604 0.10386 0.25433 0.0
H1495 H 0.81183 0.06247 0.24788 0.0
Li1496 Li 0.27956 0.64853 0.53688 0.0
Li1497 Li 0.28902 0.62252 0.51357 0.0
Li1498 Li 0.27402 0.65047 0.50078 0.0
Li1499 Li 0.2553 0.62529 0.51697 0.0
C1500 C 0.31876 0.65382 0.52601 0.0
N1501 N 0.35679 0.65793 0.54399 0.0
C1502 C 0.32256 0.64543 0.54403 0.0
C1503 C 0.33429 0.66432 0.51716 0.0
C1504 C 0.34189 0.64767 0.55287 0.0
C1505 C 0.35342 0.66624 0.52648 0.0
C1506 C 0.26616 0.60206 0.54398 0.0
C1507 C 0.25648 0.56688 0.53776 0.0
N1508 N 0.24769 0.56671 0.55531 0.0
C1509 C 0.25706 0.60152 0.56197 0.0
C1510 C 0.26589 0.5846 0.53178 0.0
C1511 C 0.24779 0.58351 0.56742 0.0
C1512 C 0.26934 0.6606 0.57408 0.0
N1513 N 0.28412 0.66421 0.56194 0.0
C1514 C 0.2993 0.69221 0.58405 0.0
C1515 C 0.29904 0.67959 0.56655 0.0
C1516 C 0.28392 0.68903 0.59664 0.0
C1517 C 0.26902 0.67274 0.59164 0.0
H1518 H 0.25732 0.64873 0.56962 0.0
H1519 H 0.31024 0.68264 0.55625 0.0
C1520 C 0.31204 0.60005 0.4903 0.0
N1521 N 0.30751 0.60512 0.50925 0.0
C1522 C 0.32511 0.58666 0.48717 0.0
C1523 C 0.32874 0.58426 0.52315 0.0
C1524 C 0.31553 0.59754 0.52555 0.0
C1525 C 0.33363 0.57851 0.50374 0.0
H1526 H 0.30534 0.60628 0.47761 0.0
H1527 H 0.31159 0.60175 0.54044 0.0
C1528 C 0.25454 0.67362 0.52489 0.0
N1529 N 0.25247 0.71329 0.5319 0.0
C1530 C 0.23659 0.6798 0.52844 0.0
C1531 C 0.27142 0.68767 0.52485 0.0
C1532 C 0.23585 0.69991 0.53196 0.0
C1533 C 0.27008 0.70763 0.52844 0.0
C1534 C 0.25449 0.61185 0.47743 0.0
C1535 C 0.238 0.62001 0.4709 0.0
C1536 C 0.2567 0.59301 0.46954 0.0
C1537 C 0.22387 0.60911 0.45662 0.0
C1538 C 0.24226 0.5826 0.45525 0.0
N1539 N 0.22628 0.59079 0.44916 0.0
C1540 C 0.28999 0.6739 0.47111 0.0
C1541 C 0.25635 0.67493 0.47551 0.0
C1542 C 0.28977 0.68746 0.4566 0.0
N1543 N 0.27343 0.66799 0.48022 0.0
C1544 C 0.25551 0.68859 0.46127 0.0
C1545 C 0.27236 0.69505 0.45154 0.0
H1546 H 0.30336 0.66811 0.47515 0.0
H1547 H 0.2434 0.67006 0.48304 0.0
C1548 C 0.21681 0.62086 0.52745 0.0
N1549 N 0.22939 0.61095 0.51763 0.0
C1550 C 0.19711 0.6126 0.52762 0.0
C1551 C 0.20382 0.58351 0.5085 0.0
C1552 C 0.22344 0.59239 0.50868 0.0
C1553 C 0.19029 0.59385 0.51767 0.0
H1554 H 0.22206 0.63533 0.53496 0.0
H1555 H 0.23376 0.58456 0.50136 0.0
O1556 O 0.3 0.6517 0.51691 0.0
O1557 O 0.27508 0.61959 0.53821 0.0
O1558 O 0.25543 0.65391 0.52158 0.0
O1559 O 0.26839 0.62218 0.49153 0.0
H1560 H 0.31074 0.63735 0.55119 0.0
H1561 H 0.3316 0.67091 0.50322 0.0
H1562 H 0.34504 0.64125 0.56681 0.0
H1563 H 0.36559 0.67431 0.51978 0.0
H1564 H 0.25607 0.55328 0.52839 0.0
H1565 H 0.25717 0.61484 0.57166 0.0
H1566 H 0.27253 0.58474 0.51762 0.0
H1567 H 0.24067 0.58289 0.58129 0.0
H1568 H 0.31092 0.70475 0.58721 0.0
H1569 H 0.25701 0.66957 0.60102 0.0
H1570 H 0.32831 0.58256 0.47193 0.0
H1571 H 0.33522 0.57876 0.53643 0.0
H1572 H 0.22333 0.66921 0.52843 0.0
H1573 H 0.28545 0.6833 0.52207 0.0
H1574 H 0.22206 0.70487 0.53473 0.0
H1575 H 0.28304 0.71862 0.52847 0.0
H1576 H 0.23596 0.63446 0.47705 0.0
H1577 H 0.26935 0.58645 0.47452 0.0
H1578 H 0.21096 0.61519 0.45153 0.0
H1579 H 0.24374 0.56798 0.44906 0.0
H1580 H 0.30303 0.69175 0.44928 0.0
H1581 H 0.24185 0.69421 0.45813 0.0
H1582 H 0.18727 0.62089 0.53528 0.0
H1583 H 0.19917 0.56903 0.50065 0.0
Li1584 Li 0.37049 0.49277 0.74897 0.0
Li1585 Li 0.39648 0.51368 0.77167 0.0
Li1586 Li 0.37041 0.52799 0.75084 0.0
Li1587 Li 0.39726 0.51516 0.73471 0.0
C1588 C 0.35422 0.49918 0.78334 0.0
N1589 N 0.32768 0.47523 0.80323 0.0
C1590 C 0.36092 0.48873 0.79892 0.0
C1591 C 0.33399 0.49768 0.77812 0.0
C1592 C 0.34728 0.47665 0.80873 0.0
C1593 C 0.32082 0.48543 0.78828 0.0
C1594 C 0.41635 0.48437 0.75429 0.0
C1595 C 0.45171 0.48843 0.76061 0.0
N1596 N 0.45059 0.46865 0.76137 0.0
C1597 C 0.41555 0.46405 0.75499 0.0
C1598 C 0.43457 0.49664 0.75702 0.0
C1599 C 0.43303 0.4564 0.75863 0.0
C1600 C 0.33806 0.46223 0.73428 0.0
N1601 N 0.35461 0.46746 0.74716 0.0
C1602 C 0.34865 0.43701 0.7621 0.0
C1603 C 0.36018 0.45516 0.76068 0.0
C1604 C 0.33113 0.43139 0.74947 0.0
C1605 C 0.32602 0.44412 0.73517 0.0
H1606 H 0.33396 0.47223 0.72361 0.0
H1607 H 0.37338 0.45972 0.77078 0.0
C1608 C 0.41449 0.53301 0.80859 0.0
N1609 N 0.41139 0.51545 0.79721 0.0
C1610 C 0.42389 0.53465 0.82808 0.0
C1611 C 0.42702 0.50016 0.82366 0.0
C1612 C 0.41747 0.49917 0.80431 0.0
C1613 C 0.43009 0.51801 0.83592 0.0
H1614 H 0.4093 0.54566 0.80266 0.0
H1615 H 0.41427 0.48521 0.79529 0.0
C1616 C 0.35405 0.5146 0.71323 0.0
N1617 N 0.32512 0.52598 0.68772 0.0
C1618 C 0.35868 0.52187 0.69493 0.0
C1619 C 0.33464 0.51284 0.7184 0.0
C1620 C 0.34387 0.52761 0.68227 0.0
C1621 C 0.32025 0.51876 0.70536 0.0
C1622 C 0.41393 0.55257 0.75392 0.0
C1623 C 0.41004 0.56779 0.7423 0.0
C1624 C 0.43271 0.55338 0.7638 0.0
C1625 C 0.42515 0.58323 0.7402 0.0
C1626 C 0.44743 0.56907 0.76136 0.0
N1627 N 0.44339 0.58353 0.74968 0.0
C1628 C 0.34355 0.55085 0.76715 0.0
C1629 C 0.35328 0.55962 0.73539 0.0
C1630 C 0.33137 0.56535 0.76782 0.0
N1631 N 0.35412 0.54821 0.75106 0.0
C1632 C 0.34135 0.5743 0.73544 0.0
C1633 C 0.33014 0.57734 0.7518 0.0
H1634 H 0.34457 0.54169 0.7795 0.0
H1635 H 0.36188 0.55732 0.7228 0.0
C1636 C 0.42548 0.50468 0.70802 0.0
N1637 N 0.41406 0.51848 0.71308 0.0
C1638 C 0.43727 0.50689 0.69198 0.0
C1639 C 0.42475 0.53703 0.68598 0.0
C1640 C 0.41353 0.53445 0.7024 0.0
C1641 C 0.43682 0.52313 0.68063 0.0
H1642 H 0.42513 0.49166 0.71604 0.0
H1643 H 0.40391 0.54491 0.70623 0.0
O1644 O 0.36741 0.51068 0.7732 0.0
O1645 O 0.39934 0.49216 0.75109 0.0
O1646 O 0.36843 0.50915 0.72595 0.0
O1647 O 0.39924 0.53739 0.75626 0.0
H1648 H 0.37648 0.48971 0.80322 0.0
H1649 H 0.32848 0.50587 0.76636 0.0
H1650 H 0.35229 0.46835 0.82068 0.0
H1651 H 0.30513 0.48405 0.78429 0.0
H1652 H 0.46591 0.49779 0.76274 0.0
H1653 H 0.40162 0.45427 0.75268 0.0
H1654 H 0.43547 0.51228 0.75608 0.0
H1655 H 0.43262 0.44071 0.75926 0.0
H1656 H 0.3534 0.42753 0.77308 0.0
H1657 H 0.31262 0.4404 0.72518 0.0
H1658 H 0.42608 0.54872 0.83699 0.0
H1659 H 0.43121 0.4869 0.82924 0.0
H1660 H 0.37351 0.52301 0.69048 0.0
H1661 H 0.33077 0.50715 0.73241 0.0
H1662 H 0.34728 0.53334 0.66811 0.0
H1663 H 0.3052 0.51762 0.70927 0.0
H1664 H 0.39556 0.56763 0.73483 0.0
H1665 H 0.43589 0.54216 0.77345 0.0
H1666 H 0.42236 0.59499 0.73107 0.0
H1667 H 0.46204 0.56981 0.76886 0.0
H1668 H 0.3229 0.567 0.78066 0.0
H1669 H 0.34119 0.58337 0.72292 0.0
H1670 H 0.44604 0.49562 0.68799 0.0
H1671 H 0.42387 0.54964 0.67741 0.0
Li1672 Li 0.62678 0.9916 0.78345 0.0
Li1673 Li 0.65209 0.0127 0.76796 0.0
Li1674 Li 0.62578 0.98816 0.74741 0.0
Li1675 Li 0.65286 0.97689 0.76746 0.0
C1676 C 0.61059 0.02212 0.77437 0.0
N1677 N 0.58498 0.04192 0.79471 0.0
C1678 C 0.61781 0.03914 0.78707 0.0
C1679 C 0.59035 0.01525 0.77186 0.0
C1680 C 0.60461 0.04893 0.79725 0.0
C1681 C 0.57765 0.02544 0.78233 0.0
C1682 C 0.67434 0.00171 0.80083 0.0
C1683 C 0.70958 0.00628 0.79948 0.0
N1684 N 0.71203 0.01107 0.81975 0.0
C1685 C 0.6772 0.00663 0.82165 0.0
C1686 C 0.69064 0.00151 0.78965 0.0
C1687 C 0.69638 0.01134 0.83093 0.0
C1688 C 0.59348 0.97852 0.8038 0.0
N1689 N 0.6106 0.99138 0.80526 0.0
C1690 C 0.6032 0.00622 0.83671 0.0
C1691 C 0.61574 0.00497 0.82135 0.0
C1692 C 0.5852 0.99334 0.83546 0.0
C1693 C 0.58047 0.97929 0.81874 0.0
H1694 H 0.58973 0.9679 0.79085 0.0
H1695 H 0.62941 0.01509 0.82204 0.0
C1696 C 0.66387 0.04607 0.74929 0.0
N1697 N 0.66657 0.03813 0.7671 0.0
C1698 C 0.6729 0.06514 0.74696 0.0
C1699 C 0.68762 0.0674 0.78129 0.0
C1700 C 0.67815 0.04831 0.78301 0.0
C1701 C 0.68484 0.0761 0.76315 0.0
H1702 H 0.65445 0.03761 0.73696 0.0
H1703 H 0.6797 0.04187 0.79717 0.0
C1704 C 0.61253 0.95132 0.75431 0.0
N1705 N 0.58916 0.92053 0.73086 0.0
C1706 C 0.62072 0.93519 0.74677 0.0
C1707 C 0.59243 0.95176 0.74998 0.0
C1708 C 0.60866 0.91978 0.73493 0.0
C1709 C 0.58087 0.93606 0.73808 0.0
C1710 C 0.66686 0.99242 0.73003 0.0
C1711 C 0.66114 0.97921 0.71293 0.0
C1712 C 0.68517 0.00457 0.73157 0.0
C1713 C 0.67396 0.97813 0.69781 0.0
C1714 C 0.69756 0.00307 0.71611 0.0
N1715 N 0.69175 0.98998 0.6997 0.0
C1716 C 0.60166 0.00258 0.71935 0.0
C1717 C 0.60601 0.97003 0.70878 0.0
C1718 C 0.59016 0.00373 0.70156 0.0
N1719 N 0.60938 0.98597 0.72266 0.0
C1720 C 0.59448 0.97053 0.69069 0.0
C1721 C 0.58666 0.98769 0.68683 0.0
H1722 H 0.60474 0.01518 0.73037 0.0
H1723 H 0.61253 0.95707 0.71154 0.0
C1724 C 0.6758 0.95326 0.78844 0.0
N1725 N 0.67052 0.95808 0.76964 0.0
C1726 C 0.68969 0.94069 0.7913 0.0
C1727 C 0.69189 0.93759 0.7553 0.0
C1728 C 0.67807 0.95034 0.75317 0.0
C1729 C 0.69805 0.93275 0.7746 0.0
H1730 H 0.66946 0.95948 0.8013 0.0
H1731 H 0.67336 0.95397 0.73836 0.0
O1732 O 0.6233 0.01206 0.76466 0.0
O1733 O 0.65564 0.99716 0.79155 0.0
O1734 O 0.62408 0.96644 0.76611 0.0
O1735 O 0.65437 0.99386 0.74487 0.0
H1736 H 0.63344 0.0446 0.78922 0.0
H1737 H 0.58456 0.00205 0.76212 0.0
H1738 H 0.60999 0.06206 0.80722 0.0
H1739 H 0.56196 0.02021 0.78067 0.0
H1740 H 0.72232 0.00614 0.791 0.0
H1741 H 0.66473 0.00683 0.83053 0.0
H1742 H 0.68869 0.99755 0.77359 0.0
H1743 H 0.69881 0.01521 0.84703 0.0
H1744 H 0.60762 0.01709 0.84944 0.0
H1745 H 0.56669 0.96922 0.81697 0.0
H1746 H 0.67046 0.07132 0.73272 0.0
H1747 H 0.69644 0.07553 0.79423 0.0
H1748 H 0.6362 0.93454 0.75007 0.0
H1749 H 0.58589 0.96425 0.75542 0.0
H1750 H 0.61481 0.90721 0.72898 0.0
H1751 H 0.56534 0.93627 0.73449 0.0
H1752 H 0.64711 0.96965 0.71151 0.0
H1753 H 0.68977 0.01514 0.7445 0.0
H1754 H 0.66976 0.96786 0.68457 0.0
H1755 H 0.71177 0.01235 0.71715 0.0
H1756 H 0.58426 0.01718 0.69927 0.0
H1757 H 0.5923 0.95792 0.67959 0.0
H1758 H 0.69405 0.93751 0.80647 0.0
H1759 H 0.6975 0.93144 0.74192 0.0
Li1760 Li 0.76747 0.64719 0.02391 0.0
Li1761 Li 0.78165 0.62168 0.00487 0.0
Li1762 Li 0.76512 0.64629 0.98662 0.0
Li1763 Li 0.74633 0.61913 0.00248 0.0
C1764 C 0.80203 0.66822 0.00999 0.0
N1765 N 0.82771 0.70327 0.01799 0.0
C1766 C 0.82094 0.66841 0.01929 0.0
C1767 C 0.79627 0.68584 0.00455 0.0
C1768 C 0.83368 0.68629 0.02327 0.0
C1769 C 0.80944 0.70341 0.00878 0.0
C1770 C 0.77342 0.60716 0.03931 0.0
C1771 C 0.78205 0.57566 0.04664 0.0
N1772 N 0.79298 0.58434 0.06368 0.0
C1773 C 0.78465 0.61577 0.05693 0.0
C1774 C 0.77199 0.58693 0.03416 0.0
C1775 C 0.79445 0.60398 0.06905 0.0
C1776 C 0.7522 0.65757 0.05932 0.0
N1777 N 0.768 0.66285 0.04884 0.0
C1778 C 0.78206 0.68738 0.07535 0.0
C1779 C 0.78276 0.67755 0.05637 0.0
C1780 C 0.76614 0.68186 0.08671 0.0
C1781 C 0.75097 0.66687 0.07837 0.0
H1782 H 0.74068 0.64583 0.05294 0.0
H1783 H 0.79527 0.68147 0.04795 0.0
C1784 C 0.80281 0.59221 0.99029 0.0
N1785 N 0.80286 0.60672 0.00527 0.0
C1786 C 0.81771 0.58053 0.99051 0.0
C1787 C 0.83252 0.59896 0.02155 0.0
C1788 C 0.81735 0.61032 0.0207 0.0
C1789 C 0.83286 0.58383 0.00629 0.0
H1790 H 0.79118 0.58967 0.97817 0.0
H1791 H 0.81705 0.62193 0.03244 0.0
C1792 C 0.733 0.66238 0.00465 0.0
N1793 N 0.71077 0.69258 0.00429 0.0
C1794 C 0.71316 0.65857 0.99724 0.0
C1795 C 0.74146 0.6815 0.01214 0.0
C1796 C 0.70219 0.67405 0.9971 0.0
C1797 C 0.73 0.69658 0.01177 0.0
C1798 C 0.75167 0.60366 0.96643 0.0
C1799 C 0.74258 0.60945 0.94892 0.0
C1800 C 0.74852 0.58385 0.97035 0.0
C1801 C 0.73031 0.59533 0.93569 0.0
C1802 C 0.73612 0.57019 0.95676 0.0
N1803 N 0.72734 0.57617 0.93986 0.0
C1804 C 0.78261 0.66697 0.95587 0.0
C1805 C 0.74832 0.6672 0.95641 0.0
C1806 C 0.78319 0.67806 0.93918 0.0
N1807 N 0.76535 0.66184 0.96413 0.0
C1808 C 0.74822 0.67829 0.93979 0.0
C1809 C 0.76579 0.68378 0.93083 0.0
H1810 H 0.79591 0.66232 0.96218 0.0
H1811 H 0.73473 0.66264 0.96295 0.0
C1812 C 0.71877 0.59065 0.01699 0.0
N1813 N 0.72183 0.60185 0.00132 0.0
C1814 C 0.70065 0.5788 0.01788 0.0
C1815 C 0.68922 0.58984 0.98623 0.0
C1816 C 0.70756 0.6016 0.98601 0.0
C1817 C 0.68549 0.57851 0.00252 0.0
H1818 H 0.73024 0.59129 0.0291 0.0
H1819 H 0.71025 0.6109 0.97388 0.0
O1820 O 0.78942 0.6508 0.00594 0.0
O1821 O 0.76395 0.6185 0.0271 0.0
O1822 O 0.7439 0.64734 0.00492 0.0
O1823 O 0.76359 0.6173 0.97966 0.0
H1824 H 0.82573 0.65492 0.02345 0.0
H1825 H 0.78185 0.68599 0.99708 0.0
H1826 H 0.84832 0.68666 0.03054 0.0
H1827 H 0.80515 0.71715 0.00469 0.0
H1828 H 0.78119 0.56001 0.04277 0.0
H1829 H 0.78595 0.63141 0.06113 0.0
H1830 H 0.76337 0.58005 0.02056 0.0
H1831 H 0.80328 0.61045 0.08268 0.0
H1832 H 0.79417 0.69871 0.08134 0.0
H1833 H 0.73835 0.66229 0.08655 0.0
H1834 H 0.81727 0.56892 0.97853 0.0
H1835 H 0.84403 0.60224 0.03385 0.0
H1836 H 0.70632 0.64384 0.99154 0.0
H1837 H 0.75663 0.68468 0.01836 0.0
H1838 H 0.68685 0.67133 0.99129 0.0
H1839 H 0.73637 0.71145 0.01749 0.0
H1840 H 0.74492 0.62469 0.94562 0.0
H1841 H 0.75541 0.57913 0.98385 0.0
H1842 H 0.72312 0.59962 0.92212 0.0
H1843 H 0.73344 0.55484 0.95966 0.0
H1844 H 0.79701 0.68168 0.93261 0.0
H1845 H 0.73448 0.68251 0.93403 0.0
H1846 H 0.69843 0.57019 0.03065 0.0
H1847 H 0.67783 0.59026 0.97422 0.0
Li1848 Li 0.8686 0.50833 0.77082 0.0
Li1849 Li 0.89481 0.53108 0.79106 0.0
Li1850 Li 0.86766 0.54291 0.77201 0.0
Li1851 Li 0.89355 0.52977 0.755 0.0
C1852 C 0.85514 0.51447 0.80633 0.0
N1853 N 0.8329 0.48882 0.82862 0.0
C1854 C 0.86371 0.5081 0.82381 0.0
C1855 C 0.83522 0.50788 0.80026 0.0
C1856 C 0.85222 0.49512 0.83486 0.0
C1857 C 0.82424 0.49488 0.81171 0.0
C1858 C 0.90897 0.49799 0.7617 0.0
C1859 C 0.94072 0.4946 0.75014 0.0
N1860 N 0.93242 0.47787 0.7386 0.0
C1861 C 0.90077 0.48074 0.74976 0.0
C1862 C 0.92913 0.50495 0.76196 0.0
C1863 C 0.91288 0.47078 0.7382 0.0
C1864 C 0.83902 0.47632 0.75508 0.0
N1865 N 0.85398 0.48265 0.76962 0.0
C1866 C 0.84908 0.45178 0.78387 0.0
C1867 C 0.85929 0.47079 0.78373 0.0
C1868 C 0.83351 0.44472 0.76904 0.0
C1869 C 0.82853 0.45729 0.75449 0.0
H1870 H 0.83537 0.48597 0.74383 0.0
H1871 H 0.87143 0.47619 0.79497 0.0
C1872 C 0.91199 0.54687 0.83088 0.0
N1873 N 0.91219 0.53329 0.81502 0.0
C1874 C 0.92452 0.5469 0.84841 0.0
C1875 C 0.93707 0.51904 0.83286 0.0
C1876 C 0.92441 0.51957 0.81576 0.0
C1877 C 0.93704 0.53262 0.84959 0.0
H1878 H 0.90183 0.55737 0.83009 0.0
H1879 H 0.924 0.50865 0.80324 0.0
C1880 C 0.85228 0.53152 0.73502 0.0
N1881 N 0.82712 0.54912 0.71062 0.0
C1882 C 0.85973 0.54356 0.72058 0.0
C1883 C 0.83203 0.52833 0.73697 0.0
C1884 C 0.84676 0.55232 0.70839 0.0
C1885 C 0.81956 0.53741 0.72453 0.0
C1886 C 0.90779 0.56803 0.78647 0.0
C1887 C 0.89932 0.58274 0.79654 0.0
C1888 C 0.92804 0.56785 0.78984 0.0
C1889 C 0.91128 0.59707 0.80982 0.0
C1890 C 0.93948 0.58241 0.80327 0.0
N1891 N 0.93094 0.5966 0.8129 0.0
C1892 C 0.83348 0.55917 0.7805 0.0
C1893 C 0.85418 0.57722 0.75942 0.0
C1894 C 0.81958 0.57182 0.77826 0.0
N1895 N 0.85023 0.56192 0.77092 0.0
C1896 C 0.84074 0.59031 0.75686 0.0
C1897 C 0.82303 0.5876 0.76619 0.0
H1898 H 0.83071 0.54694 0.78956 0.0
H1899 H 0.86765 0.57905 0.75199 0.0
C1900 C 0.90508 0.51691 0.71738 0.0
N1901 N 0.90948 0.53101 0.7331 0.0
C1902 C 0.91802 0.51572 0.70242 0.0
C1903 C 0.93929 0.54411 0.71969 0.0
C1904 C 0.92596 0.54471 0.73433 0.0
C1905 C 0.93552 0.52929 0.70363 0.0
H1906 H 0.89181 0.50623 0.71682 0.0
H1907 H 0.92904 0.55578 0.74696 0.0
O1908 O 0.86622 0.52698 0.79517 0.0
O1909 O 0.89728 0.50822 0.77279 0.0
O1910 O 0.86478 0.52321 0.74743 0.0
O1911 O 0.89631 0.55384 0.77345 0.0
H1912 H 0.87908 0.51299 0.82874 0.0
H1913 H 0.82841 0.51236 0.7866 0.0
H1914 H 0.85867 0.49003 0.84838 0.0
H1915 H 0.80887 0.48951 0.80707 0.0
H1916 H 0.95629 0.49991 0.75006 0.0
H1917 H 0.88521 0.4752 0.74921 0.0
H1918 H 0.93568 0.51841 0.77091 0.0
H1919 H 0.90672 0.45746 0.72882 0.0
H1920 H 0.85331 0.44278 0.79554 0.0
H1921 H 0.81692 0.45239 0.74253 0.0
H1922 H 0.92389 0.55745 0.86113 0.0
H1923 H 0.94656 0.50786 0.83312 0.0
H1924 H 0.87537 0.54628 0.71896 0.0
H1925 H 0.82605 0.51922 0.74821 0.0
H1926 H 0.85232 0.56175 0.69722 0.0
H1927 H 0.80388 0.53522 0.72599 0.0
H1928 H 0.88368 0.58305 0.79424 0.0
H1929 H 0.93479 0.55637 0.78247 0.0
H1930 H 0.90492 0.60852 0.81774 0.0
H1931 H 0.95514 0.58237 0.80613 0.0
H1932 H 0.8061 0.56898 0.78559 0.0
H1933 H 0.84424 0.60245 0.74772 0.0
H1934 H 0.91437 0.50429 0.69008 0.0
H1935 H 0.95263 0.55482 0.72123 0.0
Li1936 Li 0.74627 0.37219 0.53175 0.0
Li1937 Li 0.73099 0.39685 0.51457 0.0
Li1938 Li 0.74444 0.37059 0.49569 0.0
Li1939 Li 0.76603 0.39809 0.51526 0.0
C1940 C 0.70804 0.35613 0.50038 0.0
N1941 N 0.68039 0.33254 0.47333 0.0
C1942 C 0.69316 0.36423 0.49014 0.0
C1943 C 0.70883 0.33601 0.49689 0.0
C1944 C 0.67931 0.35206 0.47653 0.0
C1945 C 0.69473 0.32434 0.48314 0.0
C1946 C 0.74369 0.41408 0.55134 0.0
C1947 C 0.73739 0.44695 0.56046 0.0
N1948 N 0.7281 0.44033 0.57644 0.0
C1949 C 0.73416 0.40762 0.5679 0.0
C1950 C 0.74543 0.43392 0.54763 0.0
C1951 C 0.72636 0.42112 0.58041 0.0
C1952 C 0.75951 0.3629 0.57029 0.0
N1953 N 0.74615 0.35685 0.55417 0.0
C1954 C 0.73538 0.32673 0.56827 0.0
C1955 C 0.73395 0.33934 0.55304 0.0
C1956 C 0.74942 0.3323 0.5849 0.0
C1957 C 0.76138 0.35081 0.58593 0.0
H1958 H 0.76904 0.37692 0.57072 0.0
H1959 H 0.7235 0.3349 0.54003 0.0
C1960 C 0.70946 0.42723 0.50349 0.0
N1961 N 0.71065 0.41272 0.51598 0.0
C1962 C 0.69557 0.43988 0.50587 0.0
C1963 C 0.68434 0.42227 0.53378 0.0
C1964 C 0.69817 0.40976 0.53061 0.0
C1965 C 0.68291 0.43771 0.5214 0.0
H1966 H 0.7194 0.4291 0.4918 0.0
H1967 H 0.69936 0.39798 0.54022 0.0
C1968 C 0.7793 0.35937 0.52554 0.0
N1969 N 0.80147 0.33885 0.55013 0.0
C1970 C 0.79618 0.36915 0.53713 0.0
C1971 C 0.77375 0.33911 0.52644 0.0
C1972 C 0.80719 0.35852 0.54944 0.0
C1973 C 0.78512 0.32902 0.53898 0.0
C1974 C 0.75801 0.4111 0.47991 0.0
C1975 C 0.76589 0.40318 0.46302 0.0
C1976 C 0.76194 0.43139 0.48528 0.0
C1977 C 0.77774 0.41571 0.45185 0.0
C1978 C 0.77389 0.44342 0.47374 0.0
N1979 N 0.78148 0.4354 0.45741 0.0
C1980 C 0.72975 0.35416 0.45544 0.0
C1981 C 0.75501 0.33966 0.47175 0.0
C1982 C 0.72961 0.34149 0.43799 0.0
N1983 N 0.74243 0.35305 0.47181 0.0
C1984 C 0.75531 0.32672 0.45479 0.0
C1985 C 0.74276 0.32773 0.43745 0.0
H1986 H 0.72004 0.36512 0.4558 0.0
H1987 H 0.76518 0.33928 0.48474 0.0
C1988 C 0.79642 0.42842 0.53226 0.0
N1989 N 0.79096 0.41447 0.51654 0.0
C1990 C 0.81536 0.43928 0.53443 0.0
C1991 C 0.82252 0.42152 0.50392 0.0
C1992 C 0.80352 0.41085 0.50247 0.0
C1993 C 0.82874 0.43571 0.52026 0.0
H1994 H 0.78632 0.43069 0.54348 0.0
H1995 H 0.79897 0.39926 0.49046 0.0
O1996 O 0.72189 0.36785 0.51356 0.0
O1997 O 0.75115 0.40102 0.53874 0.0
O1998 O 0.76803 0.36961 0.51374 0.0
O1999 O 0.74657 0.39904 0.49118 0.0
H2000 H 0.69236 0.37977 0.49255 0.0
H2001 H 0.72045 0.32954 0.5044 0.0
H2002 H 0.66774 0.35814 0.46847 0.0
H2003 H 0.69526 0.30879 0.48018 0.0
H2004 H 0.73849 0.46231 0.55767 0.0
H2005 H 0.73259 0.3923 0.57094 0.0
H2006 H 0.75267 0.43914 0.53483 0.0
H2007 H 0.71886 0.41631 0.59322 0.0
H2008 H 0.72598 0.31254 0.56671 0.0
H2009 H 0.77215 0.3559 0.59862 0.0
H2010 H 0.69477 0.45118 0.49558 0.0
H2011 H 0.6752 0.42005 0.54614 0.0
H2012 H 0.80067 0.38481 0.53683 0.0
H2013 H 0.76051 0.33133 0.51793 0.0
H2014 H 0.82024 0.36593 0.55853 0.0
H2015 H 0.78087 0.3134 0.53997 0.0
H2016 H 0.76305 0.38751 0.45868 0.0
H2017 H 0.75602 0.43775 0.49834 0.0
H2018 H 0.78401 0.40978 0.4388 0.0
H2019 H 0.77717 0.45913 0.4778 0.0
H2020 H 0.71986 0.34294 0.42487 0.0
H2021 H 0.76552 0.31621 0.45517 0.0
H2022 H 0.81961 0.45011 0.54724 0.0
H2023 H 0.83252 0.41808 0.4929 0.0
Li2024 Li 0.62795 0.50833 0.30253 0.0
Li2025 Li 0.6568 0.52778 0.28805 0.0
Li2026 Li 0.6308 0.50745 0.26632 0.0
Li2027 Li 0.65409 0.49256 0.2857 0.0
C2028 C 0.61637 0.54011 0.2745 0.0
N2029 N 0.59167 0.55861 0.25056 0.0
C2030 C 0.62424 0.55403 0.26198 0.0
C2031 C 0.59596 0.53567 0.27497 0.0
C2032 C 0.6115 0.56319 0.24995 0.0
C2033 C 0.58372 0.54518 0.26273 0.0
C2034 C 0.66905 0.52288 0.32528 0.0
C2035 C 0.70123 0.5402 0.33787 0.0
N2036 N 0.69325 0.54844 0.35381 0.0
C2037 C 0.66118 0.53146 0.34183 0.0
C2038 C 0.68925 0.5272 0.32332 0.0
C2039 C 0.67366 0.54436 0.35608 0.0
C2040 C 0.60802 0.49122 0.33388 0.0
N2041 N 0.61125 0.5077 0.32391 0.0
C2042 C 0.59192 0.52433 0.34572 0.0
C2043 C 0.60341 0.52405 0.32939 0.0
C2044 C 0.58849 0.5076 0.35651 0.0
C2045 C 0.59653 0.4908 0.35025 0.0
H2046 H 0.61458 0.47848 0.32924 0.0
H2047 H 0.60637 0.53701 0.32128 0.0
C2048 C 0.68606 0.55557 0.27524 0.0
N2049 N 0.67375 0.5525 0.29002 0.0
C2050 C 0.69738 0.57397 0.27443 0.0
C2051 C 0.68344 0.58575 0.30431 0.0
C2052 C 0.67226 0.56709 0.30446 0.0
C2053 C 0.69593 0.58944 0.2889 0.0
H2054 H 0.6866 0.54393 0.26362 0.0
H2055 H 0.66195 0.56441 0.31573 0.0
C2056 C 0.60843 0.47353 0.27253 0.0
N2057 N 0.57535 0.45088 0.25203 0.0
C2058 C 0.60995 0.46247 0.25443 0.0
C2059 C 0.59006 0.47305 0.2802 0.0
C2060 C 0.59306 0.45114 0.24429 0.0
C2061 C 0.57352 0.4615 0.26962 0.0
C2062 C 0.67216 0.50051 0.25431 0.0
C2063 C 0.66536 0.48734 0.23739 0.0
C2064 C 0.69208 0.50318 0.26144 0.0
C2065 C 0.67859 0.47702 0.22792 0.0
C2066 C 0.70483 0.49254 0.25158 0.0
N2067 N 0.69788 0.47979 0.23517 0.0
C2068 C 0.62769 0.51581 0.22627 0.0
C2069 C 0.59675 0.50208 0.23626 0.0
C2070 C 0.61937 0.51709 0.20684 0.0
N2071 N 0.61651 0.50792 0.2404 0.0
C2072 C 0.58779 0.50296 0.21689 0.0
C2073 C 0.59923 0.51026 0.20177 0.0
H2074 H 0.64317 0.52121 0.23012 0.0
H2075 H 0.58788 0.49677 0.24791 0.0
C2076 C 0.68435 0.47276 0.30147 0.0
N2077 N 0.66916 0.47136 0.28692 0.0
C2078 C 0.69639 0.45816 0.302 0.0
C2079 C 0.6768 0.44079 0.27272 0.0
C2080 C 0.66508 0.45565 0.27284 0.0
C2081 C 0.69276 0.44197 0.28739 0.0
H2082 H 0.68726 0.48531 0.31256 0.0
H2083 H 0.65292 0.45478 0.26148 0.0
O2084 O 0.62857 0.53058 0.28594 0.0
O2085 O 0.65703 0.51037 0.31105 0.0
O2086 O 0.62482 0.48452 0.28286 0.0
O2087 O 0.65935 0.51044 0.26408 0.0
H2088 H 0.64002 0.55753 0.26139 0.0
H2089 H 0.58966 0.52478 0.28445 0.0
H2090 H 0.61736 0.57391 0.24008 0.0
H2091 H 0.56789 0.54181 0.26282 0.0
H2092 H 0.71686 0.54377 0.33646 0.0
H2093 H 0.64562 0.52826 0.34366 0.0
H2094 H 0.69558 0.5208 0.31055 0.0
H2095 H 0.66776 0.55115 0.36894 0.0
H2096 H 0.58588 0.53753 0.34991 0.0
H2097 H 0.59447 0.4777 0.35829 0.0
H2098 H 0.70687 0.57617 0.26235 0.0
H2099 H 0.68167 0.59738 0.31556 0.0
H2100 H 0.62393 0.46291 0.24807 0.0
H2101 H 0.58854 0.48158 0.29409 0.0
H2102 H 0.59402 0.44261 0.23021 0.0
H2103 H 0.55922 0.46102 0.27537 0.0
H2104 H 0.64997 0.48487 0.23179 0.0
H2105 H 0.69759 0.51319 0.27459 0.0
H2106 H 0.6735 0.46671 0.21489 0.0
H2107 H 0.72024 0.49437 0.25702 0.0
H2108 H 0.62867 0.52343 0.1959 0.0
H2109 H 0.57219 0.49763 0.21374 0.0
H2110 H 0.70859 0.4597 0.31354 0.0
H2111 H 0.67327 0.42841 0.26137 0.0
Zn2112 Zn 0.03613 0.01237 0.02654 0.0
Zn2113 Zn 0.99294 0.0094 0.01109 0.0
C2114 C 0.03213 0.97805 0.04536 0.0
O2115 O 0.04154 0.99156 0.0591 0.0
C2116 C 0.99076 0.04482 0.99402 0.0
O2117 O 0.97956 0.03179 0.98103 0.0
O2118 O 0.06577 0.01456 0.03282 0.0
O2119 O 0.03138 0.02054 0.99845 0.0
O2120 O 0.0068 0.99672 0.98894 0.0
C2121 C 0.07698 0.01505 0.01851 0.0
O2122 O 0.06965 0.01751 0.00032 0.0
O2123 O 0.02748 0.98305 0.02789 0.0
C2124 C 0.95139 0.99965 0.01774 0.0
O2125 O 0.95831 0.9943 0.03499 0.0
O2126 O 0.96325 0.00433 0.00459 0.0
O2127 O 0.99778 0.00311 0.03989 0.0
O2128 O 0.02329 0.02614 0.04886 0.0
O2129 O 0.99938 0.03892 0.00942 0.0
C2130 C 0.02174 0.00836 0.9847 0.0
C2131 C 0.00775 0.01551 0.05326 0.0
Zn2132 Zn 0.25694 0.76239 0.28876 0.0
Zn2133 Zn 0.26219 0.75646 0.24557 0.0
C2134 C 0.23164 0.7265 0.28897 0.0
O2135 O 0.22128 0.73893 0.29735 0.0
C2136 C 0.28499 0.79348 0.24214 0.0
O2137 O 0.29381 0.78208 0.23037 0.0
O2138 O 0.25538 0.76659 0.31876 0.0
O2139 O 0.28542 0.76866 0.28338 0.0
O2140 O 0.28298 0.74369 0.26035 0.0
C2141 C 0.2706 0.77065 0.33125 0.0
O2142 O 0.28789 0.77555 0.3245 0.0
O2143 O 0.24846 0.73305 0.28351 0.0
C2144 C 0.24761 0.74695 0.20339 0.0
O2145 O 0.23083 0.74098 0.21074 0.0
O2146 O 0.26307 0.75204 0.21541 0.0
O2147 O 0.23384 0.75019 0.25114 0.0
O2148 O 0.2364 0.77545 0.27377 0.0
O2149 O 0.27046 0.78581 0.25101 0.0
C2150 C 0.29316 0.75525 0.27434 0.0
C2151 C 0.22623 0.7639 0.25978 0.0
Zn2152 Zn 0.49041 0.01328 0.52509 0.0
Zn2153 Zn 0.53145 0.00769 0.51257 0.0
C2154 C 0.49957 0.04836 0.5498 0.0
O2155 O 0.49106 0.03604 0.56173 0.0
C2156 C 0.52037 0.97297 0.4881 0.0
O2157 O 0.52975 0.98501 0.47645 0.0
O2158 O 0.46177 0.01373 0.52955 0.0
O2159 O 0.49149 0.00611 0.49552 0.0
O2160 O 0.52021 0.02359 0.49156 0.0
C2161 C 0.44756 0.00822 0.51605 0.0
O2162 O 0.45086 0.99897 0.49902 0.0
O2163 O 0.50197 0.04193 0.53194 0.0
C2164 C 0.56527 0.99312 0.52256 0.0
O2165 O 0.5522 0.98556 0.53426 0.0
O2166 O 0.56024 0.00512 0.51027 0.0
O2167 O 0.53034 0.01708 0.54157 0.0
O2168 O 0.50302 0.99751 0.54545 0.0
O2169 O 0.5181 0.97941 0.50599 0.0
C2170 C 0.50276 0.01614 0.48461 0.0
C2171 C 0.52004 0.00612 0.55248 0.0
Zn2172 Zn 0.28308 0.25855 0.76741 0.0
Zn2173 Zn 0.24045 0.26166 0.76932 0.0
C2174 C 0.28095 0.23478 0.73163 0.0
O2175 O 0.29115 0.22602 0.74464 0.0
C2176 C 0.2442 0.28572 0.80547 0.0
O2177 O 0.23474 0.29558 0.79291 0.0
O2178 O 0.31272 0.26065 0.76795 0.0
O2179 O 0.27822 0.28604 0.77531 0.0
O2180 O 0.25225 0.284 0.75365 0.0
C2181 C 0.31986 0.2739 0.75714 0.0
O2182 O 0.30795 0.28474 0.74869 0.0
O2183 O 0.27449 0.25033 0.73782 0.0
C2184 C 0.20226 0.2463 0.77736 0.0
O2185 O 0.2126 0.23336 0.78437 0.0
O2186 O 0.21094 0.26044 0.76859 0.0
O2187 O 0.24531 0.23397 0.76167 0.0
O2188 O 0.27148 0.2364 0.78324 0.0
O2189 O 0.24905 0.26946 0.79893 0.0
C2190 C 0.26741 0.29422 0.76337 0.0
C2191 C 0.25628 0.22604 0.77372 0.0
Zn2192 Zn 0.01771 0.99048 0.52321 0.0
Zn2193 Zn 0.00643 0.03106 0.51297 0.0
C2194 C 0.0413 0.00465 0.55959 0.0
O2195 O 0.05486 -0.00023 0.54823 0.0
C2196 C 0.98075 0.02421 0.47834 0.0
O2197 O 0.97119 0.03325 0.49154 0.0
O2198 O 0.01905 0.96181 0.52628 0.0
O2199 O 0.98942 0.9908 0.5132 0.0
O2200 O 0.9868 0.01827 0.53088 0.0
C2201 C 0.00594 0.95445 0.53713 0.0
O2202 O 0.99382 0.9657 0.54427 0.0
O2203 O 0.02357 0.00287 0.55195 0.0
C2204 C 0.01344 0.06628 0.49686 0.0
O2205 O 0.02395 0.05476 0.48734 0.0
O2206 O 0.00393 0.05972 0.51117 0.0
O2207 O 0.03558 0.03167 0.51928 0.0
O2208 O 0.03898 0.00213 0.50646 0.0
O2209 O 0.99737 0.01964 0.48419 0.0
C2210 C 0.97915 0.00111 0.52333 0.0
C2211 C 0.04587 0.02026 0.51065 0.0
Zn2212 Zn 0.26157 0.78019 0.76185 0.0
Zn2213 Zn 0.26384 0.73754 0.76773 0.0
C2214 C 0.22633 0.77395 0.73769 0.0
O2215 O 0.23842 0.78528 0.72763 0.0
C2216 C 0.29906 0.74242 0.79219 0.0
O2217 O 0.28659 0.73237 0.80293 0.0
O2218 O 0.25988 0.80941 0.76211 0.0
O2219 O 0.26999 0.77586 0.79031 0.0
O2220 O 0.249 0.74853 0.7901 0.0
C2221 C 0.24633 0.81361 0.77285 0.0
O2222 O 0.23752 0.79993 0.78317 0.0
O2223 O 0.23302 0.76815 0.7541 0.0
C2224 C 0.26709 0.69843 0.7525 0.0
O2225 O 0.27037 0.70773 0.73636 0.0
O2226 O 0.26256 0.70793 0.76813 0.0
O2227 O 0.25676 0.74292 0.73903 0.0
O2228 O 0.27734 0.7707 0.73979 0.0
O2229 O 0.29275 0.74732 0.77521 0.0
C2230 C 0.25846 0.76426 0.79951 0.0
C2231 C 0.26834 0.75487 0.73019 0.0
Zn2232 Zn 0.51157 0.01063 0.99814 0.0
Zn2233 Zn 0.5125 0.00168 0.04094 0.0
C2234 C 0.54841 0.03464 0.00391 0.0
O2235 O 0.53752 0.04603 0.99482 0.0
C2236 C 0.47645 0.97622 0.03911 0.0
O2237 O 0.48882 0.96554 0.04705 0.0
O2238 O 0.51153 0.01329 0.96812 0.0
O2239 O 0.50256 0.98211 0.00167 0.0
O2240 O 0.52631 0.9823 0.02544 0.0
C2241 C 0.50773 0.99821 0.9554 0.0
O2242 O 0.5007 0.98114 0.96154 0.0
O2243 O 0.54048 0.01754 0.00745 0.0
C2244 C 0.52313 0.01119 0.08422 0.0
O2245 O 0.53182 0.02824 0.07934 0.0
O2246 O 0.51592 0.99784 0.07036 0.0
O2247 O 0.51921 0.03068 0.03841 0.0
O2248 O 0.49805 0.03136 0.01215 0.0
O2249 O 0.48311 0.99335 0.03448 0.0
C2250 C 0.51521 0.9733 0.01051 0.0
C2251 C 0.50787 0.03989 0.02815 0.0
Zn2252 Zn 0.26253 0.23926 0.25771 0.0
Zn2253 Zn 0.25991 0.28096 0.27887 0.0
C2254 C 0.29536 0.24577 0.23719 0.0
O2255 O 0.28104 0.2375 0.22371 0.0
C2256 C 0.22707 0.27403 0.29957 0.0
O2257 O 0.24132 0.28224 0.31317 0.0
O2258 O 0.26036 0.21 0.24982 0.0
O2259 O 0.25501 0.24085 0.28637 0.0
O2260 O 0.27541 0.2672 0.29902 0.0
C2261 C 0.26883 0.20158 0.26355 0.0
O2262 O 0.27706 0.21217 0.28002 0.0
O2263 O 0.29145 0.24894 0.25537 0.0
C2264 C 0.25125 0.31769 0.27421 0.0
O2265 O 0.24172 0.30638 0.25877 0.0
O2266 O 0.26169 0.31008 0.2871 0.0
O2267 O 0.26674 0.28002 0.24991 0.0
O2268 O 0.24742 0.25287 0.23726 0.0
O2269 O 0.23105 0.27105 0.28139 0.0
C2270 C 0.26625 0.25014 0.30108 0.0
C2271 C 0.25581 0.27025 0.23524 0.0
Zn2272 Zn 0.51702 0.49005 0.02329 0.0
Zn2273 Zn 0.50752 0.53154 0.01624 0.0
C2274 C 0.54323 0.49887 0.05761 0.0
O2275 O 0.55294 0.4896 0.04473 0.0
C2276 C 0.48229 0.52631 0.98143 0.0
O2277 O 0.47272 0.53506 0.99483 0.0
O2278 O 0.51859 0.46129 0.0258 0.0
O2279 O 0.48826 0.49066 0.01632 0.0
O2280 O 0.48673 0.51901 0.0331 0.0
C2281 C 0.5088 0.4552 0.0401 0.0
O2282 O 0.49879 0.4673 0.04953 0.0
O2283 O 0.52606 0.5021 0.05185 0.0
C2284 C 0.5206 0.56932 0.00653 0.0
O2285 O 0.53327 0.55896 0.99901 0.0
O2286 O 0.50704 0.56076 0.01614 0.0
O2287 O 0.53605 0.52941 0.02363 0.0
O2288 O 0.53688 0.5019 0.00509 0.0
O2289 O 0.49897 0.52179 0.98708 0.0
C2290 C 0.4788 0.50155 0.02679 0.0
C2291 C 0.54543 0.5187 0.01284 0.0
Zn2292 Zn 0.76226 0.28451 0.26644 0.0
Zn2293 Zn 0.76285 0.24131 0.26743 0.0
C2294 C 0.72541 0.28394 0.24537 0.0
O2295 O 0.73669 0.29733 0.23673 0.0
C2296 C 0.79872 0.24567 0.29096 0.0
O2297 O 0.78695 0.23406 0.30105 0.0
O2298 O 0.76392 0.3142 0.26892 0.0
O2299 O 0.77002 0.277 0.29396 0.0
O2300 O 0.74821 0.24998 0.29111 0.0
C2301 C 0.75647 0.32138 0.28413 0.0
O2302 O 0.75025 0.30965 0.29768 0.0
O2303 O 0.73317 0.27506 0.25915 0.0
C2304 C 0.77382 0.20682 0.25128 0.0
O2305 O 0.78161 0.22039 0.24023 0.0
O2306 O 0.763 0.21177 0.26482 0.0
O2307 O 0.75473 0.24885 0.23972 0.0
O2308 O 0.77705 0.27547 0.24343 0.0
O2309 O 0.79175 0.2517 0.2748 0.0
C2310 C 0.75795 0.26478 0.3019 0.0
C2311 C 0.76724 0.26104 0.23223 0.0
Zn2312 Zn 0.0094 0.51539 0.49838 0.0
Zn2313 Zn 0.01075 0.50896 0.54185 0.0
C2314 C 0.04624 0.53899 0.49887 0.0
O2315 O 0.03447 0.54957 0.48978 0.0
C2316 C 0.97302 0.48754 0.54244 0.0
O2317 O 0.98379 0.47831 0.55445 0.0
O2318 O 0.00593 0.51742 0.46851 0.0
O2319 O 0.00135 0.48693 0.50321 0.0
O2320 O 0.02353 0.48736 0.52878 0.0
C2321 C 0.0002 0.50283 0.45552 0.0
O2322 O 0.99359 0.48561 0.46162 0.0
O2323 O 0.03888 0.52253 0.5046 0.0
C2324 C 0.00443 0.52254 0.58013 0.0
O2325 O 0.99652 0.53418 0.56836 0.0
O2326 O 0.01277 0.50895 0.57223 0.0
O2327 O 0.02048 0.53693 0.53674 0.0
O2328 O 0.99704 0.53678 0.51268 0.0
O2329 O 0.98141 0.50209 0.53406 0.0
C2330 C 0.01307 0.47815 0.51349 0.0
C2331 C 0.00821 0.5459 0.52753 0.0
Zn2332 Zn 0.78225 0.76037 0.26733 0.0
Zn2333 Zn 0.7395 0.76557 0.26832 0.0
C2334 C 0.77812 0.73663 0.23111 0.0
O2335 O 0.7863 0.72607 0.24394 0.0
C2336 C 0.73943 0.78673 0.30555 0.0
O2337 O 0.72904 0.79606 0.29328 0.0
O2338 O 0.81163 0.76025 0.26881 0.0
O2339 O 0.77852 0.78815 0.27585 0.0
O2340 O 0.75294 0.78817 0.25416 0.0
C2341 C 0.82157 0.77505 0.26212 0.0
O2342 O 0.8125 0.78947 0.25655 0.0
O2343 O 0.77423 0.75337 0.23747 0.0
C2344 C 0.70008 0.75022 0.27272 0.0
O2345 O 0.70926 0.73591 0.27839 0.0
O2346 O 0.70996 0.76511 0.26612 0.0
O2347 O 0.7436 0.7378 0.26008 0.0
O2348 O 0.76889 0.73835 0.28228 0.0
O2349 O 0.74687 0.7722 0.2983 0.0
C2350 C 0.76851 0.79733 0.26412 0.0
C2351 C 0.75344 0.72897 0.27232 0.0
Zn2352 Zn 0.7567 0.25571 0.79012 0.0
Zn2353 Zn 0.76756 0.2633 0.7485 0.0
C2354 C 0.73237 0.21995 0.77694 0.0
O2355 O 0.72028 0.22961 0.78647 0.0
C2356 C 0.7664 0.30473 0.75243 0.0
O2357 O 0.75149 0.29952 0.73864 0.0
O2358 O 0.75374 0.25012 0.8191 0.0
O2359 O 0.78537 0.26594 0.78945 0.0
O2360 O 0.78731 0.24799 0.76136 0.0
C2361 C 0.76346 0.23648 0.82358 0.0
O2362 O 0.77406 0.22942 0.81007 0.0
O2363 O 0.74984 0.22841 0.7755 0.0
C2364 C 0.75796 0.2565 0.7053 0.0
O2365 O 0.74233 0.24521 0.71034 0.0
O2366 O 0.77126 0.26435 0.71899 0.0
O2367 O 0.73839 0.25553 0.75032 0.0
O2368 O 0.73667 0.27192 0.77956 0.0
O2369 O 0.77518 0.29151 0.75961 0.0
C2370 C 0.79499 0.25553 0.77865 0.0
C2371 C 0.72872 0.26481 0.76222 0.0
Zn2372 Zn 0.75669 0.73851 0.75894 0.0
Zn2373 Zn 0.76411 0.78011 0.77701 0.0
C2374 C 0.791 0.73687 0.74051 0.0
O2375 O 0.77693 0.72871 0.72672 0.0
C2376 C 0.72822 0.78267 0.79324 0.0
O2377 O 0.74108 0.79271 0.80719 0.0
O2378 O 0.75047 0.70933 0.75 0.0
O2379 O 0.75005 0.74153 0.78777 0.0
O2380 O 0.77542 0.7642 0.79811 0.0
C2381 C 0.74438 0.69651 0.76173 0.0
O2382 O 0.7377 0.70231 0.77872 0.0
O2383 O 0.78628 0.7435 0.75748 0.0
C2384 C 0.77434 0.82232 0.77397 0.0
O2385 O 0.77864 0.81694 0.75576 0.0
O2386 O 0.77024 0.80923 0.78606 0.0
O2387 O 0.77106 0.77699 0.74825 0.0
O2388 O 0.7452 0.75476 0.73828 0.0
O2389 O 0.7344 0.7747 0.77763 0.0
C2390 C 0.76298 0.74959 0.80169 0.0
C2391 C 0.7578 0.76917 0.73453 0.0
Zn2392 Zn 0.53306 0.51228 0.52908 0.0
Zn2393 Zn 0.49136 0.51194 0.50826 0.0
C2394 C 0.52864 0.47885 0.54888 0.0
O2395 O 0.53664 0.49317 0.56249 0.0
C2396 C 0.49277 0.54615 0.48917 0.0
O2397 O 0.48361 0.53236 0.47558 0.0
O2398 O 0.5619 0.51442 0.53875 0.0
O2399 O 0.53236 0.5193 0.50029 0.0
O2400 O 0.50643 0.49794 0.48828 0.0
C2401 C 0.57609 0.52008 0.52842 0.0
O2402 O 0.57261 0.52891 0.51208 0.0
O2403 O 0.52407 0.48313 0.53108 0.0
C2404 C 0.45249 0.51655 0.5112 0.0
O2405 O 0.46175 0.52615 0.52776 0.0
O2406 O 0.46222 0.50772 0.49897 0.0
O2407 O 0.49233 0.50554 0.53734 0.0
O2408 O 0.51849 0.52674 0.54911 0.0
O2409 O 0.49919 0.54121 0.50611 0.0
C2410 C 0.52288 0.50806 0.48569 0.0
C2411 C 0.50167 0.51731 0.55164 0.0
Zn2412 Zn 0.99186 0.51317 0.02222 0.0
Zn2413 Zn 0.03319 0.50621 0.01079 0.0
C2414 C 0.99972 0.54796 0.04667 0.0
O2415 O 0.99027 0.53537 0.05774 0.0
C2416 C 0.02201 0.47147 0.98614 0.0
O2417 O 0.03195 0.48329 0.97471 0.0
O2418 O 0.96263 0.51363 0.02374 0.0
O2419 O 0.99453 0.50468 0.99311 0.0
O2420 O 0.02307 0.52266 0.98975 0.0
C2421 C 0.9557 0.52314 0.00997 0.0
O2422 O 0.96744 0.53029 0.99683 0.0
O2423 O 0.00334 0.54186 0.0291 0.0
C2424 C 0.06595 0.4899 0.02054 0.0
O2425 O 0.05242 0.48223 0.03171 0.0
O2426 O 0.06184 0.50297 0.00912 0.0
O2427 O 0.03161 0.51575 0.03955 0.0
O2428 O 0.00333 0.49799 0.04398 0.0
O2429 O 0.01934 0.47807 0.00388 0.0
C2430 C 0.00577 0.5151 0.9825 0.0
C2431 C 0.02075 0.50569 0.05075 0.0
H2432 H 0.97019 0.15577 0.9527 0.0
H2433 H 0.02114 0.07469 0.0076 0.0
H2434 H 0.03313 0.16227 0.96669 0.0
H2435 H 0.96486 0.06272 0.97236 0.0
H2436 H 0.02443 0.10915 0.99919 0.0
H2437 H 0.96663 0.12402 0.96694 0.0
C2438 C 0.98325 0.15067 0.95908 0.0
C2439 C 0.002 0.16165 0.95844 0.0
C2440 C 0.01134 0.09894 0.99345 0.0
C2441 C 0.99802 0.12517 0.97457 0.0
C2442 C 0.00943 0.07937 0.99829 0.0
C2443 C 0.99278 0.06587 0.99052 0.0
C2444 C 0.99631 0.10499 0.98112 0.0
C2445 C 0.97804 0.0726 0.97848 0.0
C2446 C 0.98121 0.13246 0.96705 0.0
C2447 C 0.01842 0.15414 0.96669 0.0
N2448 N 0.98014 0.09166 0.97419 0.0
N2449 N 0.01607 0.1363 0.97438 0.0
H2450 H 0.10811 0.74304 0.20266 0.0
H2451 H 0.20787 0.79649 0.26541 0.0
H2452 H 0.12064 0.80608 0.21648 0.0
H2453 H 0.19819 0.73635 0.23895 0.0
H2454 H 0.17458 0.80001 0.25156 0.0
H2455 H 0.13973 0.74009 0.21996 0.0
C2456 C 0.11746 0.75628 0.20953 0.0
C2457 C 0.11167 0.77484 0.2082 0.0
C2458 C 0.17979 0.78605 0.2489 0.0
C2459 C 0.14819 0.77157 0.22786 0.0
C2460 C 0.19869 0.78401 0.25687 0.0
C2461 C 0.20582 0.76615 0.25319 0.0
C2462 C 0.16797 0.77004 0.23742 0.0
C2463 C 0.19338 0.75045 0.24199 0.0
C2464 C 0.1356 0.75459 0.21929 0.0
C2465 C 0.12461 0.79151 0.21704 0.0
N2466 N 0.17512 0.75278 0.23451 0.0
N2467 N 0.14231 0.78949 0.22654 0.0
H2468 H 0.50585 0.84556 0.47489 0.0
H2469 H 0.51421 0.95764 0.44912 0.0
H2470 H 0.50247 0.86421 0.41465 0.0
H2471 H 0.51279 0.94086 0.50998 0.0
H2472 H 0.50801 0.92304 0.43653 0.0
H2473 H 0.50717 0.8799 0.48842 0.0
C2474 C 0.50536 0.85685 0.46452 0.0
C2475 C 0.50402 0.85198 0.44359 0.0
C2476 C 0.50889 0.92683 0.45265 0.0
C2477 C 0.50539 0.89117 0.45894 0.0
C2478 C 0.51243 0.94662 0.45985 0.0
C2479 C 0.51417 0.9521 0.48063 0.0
C2480 C 0.50728 0.91229 0.46631 0.0
C2481 C 0.51155 0.93722 0.49383 0.0
C2482 C 0.50598 0.8764 0.47225 0.0
C2483 C 0.50321 0.86717 0.43086 0.0
N2484 N 0.50845 0.91793 0.48645 0.0
N2485 N 0.504 0.88602 0.43873 0.0
H2486 H 0.43589 0.25262 0.72747 0.0
H2487 H 0.3393 0.3028 0.7374 0.0
H2488 H 0.41937 0.29758 0.69087 0.0
H2489 H 0.34723 0.24932 0.76448 0.0
H2490 H 0.37152 0.30397 0.72471 0.0
H2491 H 0.40596 0.25359 0.74483 0.0
C2492 C 0.42602 0.26268 0.72304 0.0
C2493 C 0.43023 0.27502 0.7076 0.0
C2494 C 0.36632 0.29201 0.73352 0.0
C2495 C 0.39617 0.27641 0.7277 0.0
C2496 C 0.3479 0.29136 0.74084 0.0
C2497 C 0.34045 0.27581 0.75185 0.0
C2498 C 0.37747 0.277 0.73715 0.0
C2499 C 0.35239 0.26153 0.756 0.0
C2500 C 0.40901 0.26329 0.73306 0.0
C2501 C 0.41702 0.288 0.70284 0.0
N2502 N 0.3703 0.26237 0.74848 0.0
N2503 N 0.40064 0.28832 0.71282 0.0
H2504 H 0.97057 0.84742 0.59178 0.0
H2505 H 0.03284 0.92889 0.53298 0.0
H2506 H 0.02975 0.8439 0.57647 0.0
H2507 H 0.97596 0.93354 0.55418 0.0
H2508 H 0.03088 0.89606 0.54533 0.0
H2509 H 0.97113 0.87725 0.57441 0.0
C2510 C 0.98362 0.85279 0.58456 0.0
C2511 C 0.00017 0.84316 0.58567 0.0
C2512 C 0.0188 0.90426 0.54713 0.0
C2513 C 0.00104 0.87762 0.56596 0.0
C2514 C 0.01989 0.92294 0.54004 0.0
C2515 C 0.00463 0.93401 0.54273 0.0
C2516 C 0.00229 0.89665 0.55684 0.0
C2517 C 0.98818 0.92562 0.55197 0.0
C2518 C 0.98398 0.86993 0.57475 0.0
C2519 C 0.01677 0.85103 0.57626 0.0
N2520 N 0.98749 0.90752 0.55875 0.0
N2521 N 0.01682 0.86785 0.56687 0.0
H2522 H 0.4084 0.75833 0.86738 0.0
H2523 H 0.33068 0.7555 0.77137 0.0
H2524 H 0.42587 0.76139 0.80687 0.0
H2525 H 0.31522 0.74024 0.83022 0.0
H2526 H 0.36558 0.76142 0.78431 0.0
H2527 H 0.37408 0.75544 0.85418 0.0
C2528 C 0.40501 0.75857 0.8513 0.0
C2529 C 0.42002 0.76017 0.83821 0.0
C2530 C 0.3545 0.75682 0.79435 0.0
C2531 C 0.38062 0.75663 0.82291 0.0
C2532 C 0.33461 0.75353 0.78702 0.0
C2533 C 0.32006 0.74726 0.79972 0.0
C2534 C 0.35976 0.754 0.81455 0.0
C2535 C 0.32595 0.7449 0.81984 0.0
C2536 C 0.38538 0.75678 0.84375 0.0
C2537 C 0.41472 0.76003 0.81746 0.0
N2538 N 0.34531 0.74827 0.82661 0.0
N2539 N 0.39542 0.75831 0.81043 0.0
H2540 H 0.46953 0.14963 0.06756 0.0
H2541 H 0.53557 0.06521 0.05203 0.0
H2542 H 0.53188 0.15699 0.08543 0.0
H2543 H 0.47844 0.06177 0.01944 0.0
H2544 H 0.53366 0.09869 0.06509 0.0
H2545 H 0.47152 0.11716 0.05059 0.0
C2546 C 0.48362 0.14444 0.06785 0.0
C2547 C 0.50058 0.15603 0.07789 0.0
C2548 C 0.52156 0.09073 0.05499 0.0
C2549 C 0.50293 0.11907 0.05863 0.0
C2550 C 0.52261 0.07155 0.04757 0.0
C2551 C 0.50707 0.06066 0.03473 0.0
C2552 C 0.50472 0.0991 0.04979 0.0
C2553 C 0.49074 0.06971 0.0293 0.0
C2554 C 0.48476 0.12601 0.05808 0.0
C2555 C 0.51849 0.1487 0.07768 0.0
N2556 N 0.48987 0.0884 0.03704 0.0
N2557 N 0.51915 0.13067 0.06835 0.0
H2558 H 0.10145 0.26593 0.3096 0.0
H2559 H 0.21673 0.26856 0.33724 0.0
H2560 H 0.12838 0.26135 0.36923 0.0
H2561 H 0.19168 0.26879 0.27605 0.0
H2562 H 0.18382 0.26412 0.34849 0.0
H2563 H 0.13368 0.2658 0.29635 0.0
C2564 C 0.1141 0.26487 0.31989 0.0
C2565 C 0.11218 0.26363 0.34057 0.0
C2566 C 0.1854 0.26501 0.33256 0.0
C2567 C 0.14897 0.26334 0.32551 0.0
C2568 C 0.20424 0.26757 0.32613 0.0
C2569 C 0.20693 0.26922 0.30571 0.0
C2570 C 0.169 0.2643 0.31854 0.0
C2571 C 0.1902 0.26759 0.29195 0.0
C2572 C 0.13244 0.26466 0.31229 0.0
C2573 C 0.12903 0.26205 0.35315 0.0
N2574 N 0.17188 0.26543 0.29865 0.0
N2575 N 0.14665 0.26203 0.34544 0.0
H2576 H 0.95149 0.98657 0.16035 0.0
H2577 H 0.01239 0.04729 0.08173 0.0
H2578 H 0.95659 0.04972 0.16058 0.0
H2579 H 0.98856 0.9855 0.07158 0.0
H2580 H 0.99795 0.04843 0.11436 0.0
H2581 H 0.97111 0.98603 0.13142 0.0
C2582 C 0.95693 0.00035 0.15445 0.0
C2583 C 0.9523 0.01821 0.16283 0.0
C2584 C 0.99607 0.03462 0.10501 0.0
C2585 C 0.97475 0.01769 0.12963 0.0
C2586 C 0.0044 0.03394 0.08652 0.0
C2587 C 0.00149 0.01633 0.07393 0.0
C2588 C 0.98512 0.01747 0.11098 0.0
C2589 C 0.99094 0.99945 0.08073 0.0
C2590 C 0.96803 2e-05 0.13786 0.0
C2591 C 0.9596 0.03561 0.15441 0.0
N2592 N 0.98314 0.00044 0.09876 0.0
N2593 N 0.97046 0.03493 0.13824 0.0
H2594 H 0.30099 0.72541 0.44428 0.0
H2595 H 0.23799 0.75439 0.34863 0.0
H2596 H 0.24191 0.69731 0.42326 0.0
H2597 H 0.3006 0.77359 0.36129 0.0
H2598 H 0.23763 0.73887 0.38023 0.0
H2599 H 0.2997 0.74767 0.41757 0.0
C2600 C 0.28776 0.72388 0.43408 0.0
C2601 C 0.27159 0.70931 0.43598 0.0
C2602 C 0.25141 0.74669 0.37622 0.0
C2603 C 0.2699 0.73503 0.40564 0.0
C2604 C 0.25161 0.75568 0.35822 0.0
C2605 C 0.26942 0.76505 0.35212 0.0
C2606 C 0.26912 0.74706 0.38823 0.0
C2607 C 0.28657 0.76633 0.36527 0.0
C2608 C 0.28698 0.73672 0.41894 0.0
C2609 C 0.25467 0.70839 0.42258 0.0
N2610 N 0.28604 0.75721 0.3826 0.0
N2611 N 0.25432 0.721 0.40795 0.0
H2612 H 0.55767 0.9609 0.6648 0.0
H2613 H 0.55083 0.02944 0.57415 0.0
H2614 H 0.59144 0.01877 0.66403 0.0
H2615 H 0.50841 0.97722 0.57739 0.0
H2616 H 0.56633 0.02459 0.60682 0.0
H2617 H 0.54011 0.9652 0.63234 0.0
C2618 C 0.5614 0.97446 0.65779 0.0
C2619 C 0.57593 0.98956 0.66716 0.0
C2620 C 0.55357 0.01419 0.60053 0.0
C2621 C 0.55599 0.99457 0.63029 0.0
C2622 C 0.5447 0.01694 0.58181 0.0
C2623 C 0.52832 0.00367 0.57301 0.0
C2624 C 0.54618 0.99793 0.61061 0.0
C2625 C 0.52098 0.98782 0.58371 0.0
C2626 C 0.5513 0.97695 0.63938 0.0
C2627 C 0.58014 0.00687 0.65752 0.0
N2628 N 0.53007 0.98529 0.60197 0.0
N2629 N 0.57027 0.00886 0.63966 0.0
H2630 H 0.25772 0.30057 0.93622 0.0
H2631 H 0.2447 0.32336 0.82111 0.0
H2632 H 0.26363 0.35918 0.91658 0.0
H2633 H 0.25406 0.26615 0.83828 0.0
H2634 H 0.2504 0.33625 0.85638 0.0
H2635 H 0.25504 0.28708 0.90082 0.0
C2636 C 0.2585 0.31058 0.92447 0.0
C2637 C 0.26094 0.33103 0.92935 0.0
C2638 C 0.25133 0.32089 0.85249 0.0
C2639 C 0.25785 0.31575 0.88896 0.0
C2640 C 0.248 0.3135 0.83233 0.0
C2641 C 0.24881 0.29363 0.82677 0.0
C2642 C 0.25527 0.30831 0.86733 0.0
C2643 C 0.25333 0.28158 0.84195 0.0
C2644 C 0.25709 0.30289 0.90431 0.0
C2645 C 0.26201 0.34334 0.91355 0.0
N2646 N 0.25622 0.28907 0.86161 0.0
N2647 N 0.26033 0.33551 0.89411 0.0
H2648 H 0.94899 0.99042 0.35022 0.0
H2649 H 0.95238 0.04237 0.4608 0.0
H2650 H 0.93356 0.04823 0.36273 0.0
H2651 H 0.99254 0.00189 0.4467 0.0
H2652 H 0.94141 0.04099 0.42515 0.0
H2653 H 0.96177 0.99108 0.38575 0.0
C2654 C 0.94839 0.00326 0.36044 0.0
C2655 C 0.94026 0.01932 0.35359 0.0
C2656 C 0.95262 0.03239 0.42983 0.0
C2657 C 0.95447 0.02001 0.39403 0.0
C2658 C 0.9588 0.03303 0.45022 0.0
C2659 C 0.97342 0.02221 0.45677 0.0
C2660 C 0.96083 0.0206 0.41578 0.0
C2661 C 0.98126 0.01048 0.44228 0.0
C2662 C 0.95572 0.00364 0.38061 0.0
C2663 C 0.93987 0.03563 0.36737 0.0
N2664 N 0.97478 0.00989 0.4224 0.0
N2665 N 0.94668 0.03547 0.38696 0.0
H2666 H 0.3139 0.70719 0.62459 0.0
H2667 H 0.23998 0.73734 0.70164 0.0
H2668 H 0.25131 0.70268 0.60925 0.0
H2669 H 0.30185 0.76104 0.71033 0.0
H2670 H 0.24425 0.72494 0.66739 0.0
H2671 H 0.31061 0.7275 0.65562 0.0
C2672 C 0.29953 0.71065 0.62761 0.0
C2673 C 0.28278 0.70286 0.61453 0.0
C2674 C 0.25689 0.73308 0.67661 0.0
C2675 C 0.27893 0.72588 0.64992 0.0
C2676 C 0.25445 0.74012 0.69617 0.0
C2677 C 0.27061 0.75012 0.70874 0.0
C2678 C 0.27575 0.73562 0.66968 0.0
C2679 C 0.28903 0.75344 0.70098 0.0
C2680 C 0.29767 0.72223 0.64531 0.0
C2681 C 0.26453 0.70784 0.61919 0.0
N2682 N 0.29121 0.74588 0.68197 0.0
N2683 N 0.26307 0.71881 0.63658 0.0
H2684 H 0.5626 0.96279 0.85089 0.0
H2685 H 0.52654 0.03017 0.93854 0.0
H2686 H 0.57652 0.02627 0.85675 0.0
H2687 H 0.5062 0.96773 0.92637 0.0
H2688 H 0.54339 0.02959 0.90762 0.0
H2689 H 0.5407 0.96471 0.87765 0.0
C2690 C 0.56092 0.97717 0.85765 0.0
C2691 C 0.57152 0.99439 0.85154 0.0
C2692 C 0.53503 0.01607 0.9116 0.0
C2693 C 0.54658 0.99667 0.88255 0.0
C2694 C 0.52533 0.01641 0.92922 0.0
C2695 C 0.51507 0.99894 0.93517 0.0
C2696 C 0.53457 0.99812 0.89996 0.0
C2697 C 0.51402 0.98154 0.92248 0.0
C2698 C 0.54844 0.97824 0.87302 0.0
C2699 C 0.56895 0.01257 0.86118 0.0
N2700 N 0.52384 0.98154 0.90562 0.0
N2701 N 0.55683 0.01322 0.87627 0.0
H2702 H 0.24613 0.29473 0.10907 0.0
H2703 H 0.26701 0.30856 0.22863 0.0
H2704 H 0.25416 0.35093 0.14429 0.0
H2705 H 0.24068 0.25249 0.19756 0.0
H2706 H 0.2646 0.32363 0.19708 0.0
H2707 H 0.24612 0.27829 0.14048 0.0
C2708 C 0.24785 0.30359 0.12339 0.0
C2709 C 0.25012 0.32423 0.12407 0.0
C2710 C 0.25924 0.30805 0.1971 0.0
C2711 C 0.25022 0.30559 0.1599 0.0
C2712 C 0.26064 0.29937 0.21516 0.0
C2713 C 0.25394 0.27919 0.21583 0.0
C2714 C 0.25134 0.2965 0.17932 0.0
C2715 C 0.24592 0.26811 0.19776 0.0
C2716 C 0.24773 0.29421 0.14126 0.0
C2717 C 0.25214 0.33499 0.14301 0.0
N2718 N 0.24495 0.27689 0.18017 0.0
N2719 N 0.25228 0.32557 0.16012 0.0
H2720 H 0.17443 0.9585 0.98813 0.0
H2721 H 0.094 0.00056 0.05169 0.0
H2722 H 0.16863 0.94882 0.05065 0.0
H2723 H 0.10411 0.01398 0.9909 0.0
H2724 H 0.12313 0.98412 0.05289 0.0
H2725 H 0.15041 0.98101 0.98994 0.0
C2726 C 0.16829 0.96126 0.00233 0.0
C2727 C 0.17355 0.95162 0.01923 0.0
C2728 C 0.11912 0.9909 0.03939 0.0
C2729 C 0.14566 0.97726 0.02133 0.0
C2730 C 0.10254 0.0004 0.03874 0.0
C2731 C 0.09646 0.0085 0.02108 0.0
C2732 C 0.12962 0.98943 0.02225 0.0
C2733 C 0.1081 0.00779 0.00477 0.0
C2734 C 0.15447 0.97408 0.00333 0.0
C2735 C 0.16478 0.9556 0.03711 0.0
N2736 N 0.12395 0.99822 0.00567 0.0
N2737 N 0.15119 0.96801 0.03765 0.0
H2738 H 0.66519 0.5773 0.03595 0.0
H2739 H 0.56887 0.50671 0.98411 0.0
H2740 H 0.6602 0.55528 0.97322 0.0
H2741 H 0.57018 0.54582 0.03802 0.0
H2742 H 0.60379 0.51973 0.98151 0.0
H2743 H 0.63182 0.56082 0.03871 0.0
C2744 C 0.65715 0.56879 0.0228 0.0
C2745 C 0.6655 0.56766 0.00433 0.0
C2746 C 0.59636 0.52536 0.9939 0.0
C2747 C 0.6271 0.54887 0.00733 0.0
C2748 C 0.57652 0.5179 0.99544 0.0
C2749 C 0.56661 0.5253 0.01122 0.0
C2750 C 0.6063 0.54001 0.00846 0.0
C2751 C 0.57717 0.53982 0.02548 0.0
C2752 C 0.63802 0.5595 0.02434 0.0
C2753 C 0.65422 0.55666 0.98769 0.0
N2754 N 0.5964 0.54664 0.02378 0.0
N2755 N 0.63555 0.54766 0.98958 0.0
H2756 H 0.70709 0.42493 0.32001 0.0
H2757 H 0.75566 0.34619 0.25388 0.0
H2758 H 0.707 0.42312 0.25527 0.0
H2759 H 0.74615 0.34253 0.31669 0.0
H2760 H 0.7429 0.37756 0.25505 0.0
H2761 H 0.72624 0.39783 0.31987 0.0
C2762 C 0.71127 0.41897 0.30578 0.0
C2763 C 0.70529 0.42621 0.2876 0.0
C2764 C 0.74382 0.36997 0.26862 0.0
C2765 C 0.72712 0.39505 0.28731 0.0
C2766 C 0.75123 0.35215 0.268 0.0
C2767 C 0.75182 0.34167 0.28518 0.0
C2768 C 0.73708 0.37738 0.28657 0.0
C2769 C 0.74578 0.35003 0.30304 0.0
C2770 C 0.72213 0.40343 0.30569 0.0
C2771 C 0.711 0.41777 0.26959 0.0
N2772 N 0.73856 0.36731 0.30323 0.0
N2773 N 0.72153 0.40259 0.26989 0.0
H2774 H 0.85182 0.45254 0.49249 0.0
H2775 H 0.95023 0.4646 0.56563 0.0
H2776 H 0.85297 0.4408 0.55507 0.0
H2777 H 0.94692 0.49593 0.51225 0.0
H2778 H 0.91483 0.45352 0.56041 0.0
H2779 H 0.88693 0.46659 0.49788 0.0
C2780 C 0.85945 0.45302 0.50736 0.0
C2781 C 0.8495 0.44554 0.52338 0.0
C2782 C 0.9218 0.46289 0.54987 0.0
C2783 C 0.88949 0.46133 0.52956 0.0
C2784 C 0.94204 0.46915 0.55277 0.0
C2785 C 0.95152 0.48117 0.53932 0.0
C2786 C 0.91092 0.46844 0.53322 0.0
C2787 C 0.94013 0.4867 0.523 0.0
C2788 C 0.8794 0.4611 0.51044 0.0
C2789 C 0.86001 0.44659 0.54237 0.0
N2790 N 0.92039 0.48015 0.52029 0.0
N2791 N 0.87945 0.45417 0.54488 0.0
H2792 H 0.32034 0.10068 0.22603 0.0
H2793 H 0.27007 0.17652 0.29253 0.0
H2794 H 0.31132 0.09686 0.28896 0.0
H2795 H 0.2743 0.17981 0.22878 0.0
H2796 H 0.28113 0.14459 0.28998 0.0
H2797 H 0.30046 0.12732 0.22531 0.0
C2798 C 0.31412 0.10536 0.23966 0.0
C2799 C 0.31766 0.09661 0.25763 0.0
C2800 C 0.2794 0.15207 0.27643 0.0
C2801 C 0.29476 0.12689 0.25684 0.0
C2802 C 0.27303 0.17028 0.27789 0.0
C2803 C 0.27145 0.18079 0.26087 0.0
C2804 C 0.28467 0.14445 0.25786 0.0
C2805 C 0.27533 0.17208 0.24223 0.0
C2806 C 0.30264 0.12045 0.23919 0.0
C2807 C 0.3089 0.10301 0.27471 0.0
N2808 N 0.28214 0.1545 0.24127 0.0
N2809 N 0.29804 0.11783 0.27392 0.0
H2810 H 0.33311 0.04396 0.49156 0.0
H2811 H 0.43874 0.03488 0.54518 0.0
H2812 H 0.3686 0.09007 0.53179 0.0
H2813 H 0.41355 0.99935 0.4907 0.0
H2814 H 0.40967 0.05123 0.54483 0.0
H2815 H 0.3596 0.02411 0.49479 0.0
C2816 C 0.34643 0.04999 0.50101 0.0
C2817 C 0.34853 0.06885 0.51136 0.0
C2818 C 0.41043 0.03973 0.53305 0.0
C2819 C 0.3787 0.04588 0.5155 0.0
C2820 C 0.42697 0.03027 0.53331 0.0
C2821 C 0.42869 0.01581 0.51783 0.0
C2822 C 0.3954 0.03464 0.51731 0.0
C2823 C 0.41292 0.0105 0.50286 0.0
C2824 C 0.36148 0.03855 0.50295 0.0
C2825 C 0.36604 0.07557 0.52376 0.0
N2826 N 0.39697 0.01999 0.5029 0.0
N2827 N 0.38039 0.06411 0.52547 0.0
H2828 H 0.71642 0.61639 0.31852 0.0
H2829 H 0.72914 0.70279 0.24566 0.0
H2830 H 0.6985 0.6085 0.25471 0.0
H2831 H 0.7626 0.70719 0.3036 0.0
H2832 H 0.7165 0.66855 0.24971 0.0
H2833 H 0.73212 0.65013 0.3145 0.0
C2834 C 0.71584 0.62174 0.30369 0.0
C2835 C 0.70621 0.60961 0.28691 0.0
C2836 C 0.7267 0.67692 0.26152 0.0
C2837 C 0.72398 0.64804 0.28224 0.0
C2838 C 0.73389 0.69651 0.25924 0.0
C2839 C 0.7469 0.70786 0.27435 0.0
C2840 C 0.73231 0.6686 0.27918 0.0
C2841 C 0.75263 0.69891 0.29157 0.0
C2842 C 0.72488 0.64091 0.30139 0.0
C2843 C 0.70598 0.61722 0.26801 0.0
N2844 N 0.74514 0.6798 0.29362 0.0
N2845 N 0.7146 0.63595 0.26623 0.0
H2846 H 0.84878 0.41147 0.77774 0.0
H2847 H 0.7507 0.33695 0.74126 0.0
H2848 H 0.79408 0.43107 0.75893 0.0
H2849 H 0.80061 0.32038 0.77519 0.0
H2850 H 0.76618 0.37146 0.74704 0.0
H2851 H 0.83137 0.37791 0.77625 0.0
C2852 C 0.83306 0.40881 0.77351 0.0
C2853 C 0.82292 0.42423 0.76848 0.0
C2854 C 0.77364 0.36027 0.75338 0.0
C2855 C 0.80293 0.38559 0.76634 0.0
C2856 C 0.76482 0.34058 0.75008 0.0
C2857 C 0.77444 0.32575 0.75762 0.0
C2858 C 0.7923 0.36512 0.7641 0.0
C2859 C 0.79268 0.3313 0.76902 0.0
C2860 C 0.82314 0.38957 0.77258 0.0
C2861 C 0.80261 0.41966 0.76264 0.0
N2862 N 0.8011 0.35052 0.77173 0.0
N2863 N 0.7933 0.40074 0.76163 0.0
H2864 H 0.02408 0.85269 0.05512 0.0
H2865 H 0.02543 0.96706 0.08251 0.0
H2866 H 0.00437 0.87697 0.11008 0.0
H2867 H 0.02634 0.94315 0.02104 0.0
H2868 H 0.01884 0.93379 0.09278 0.0
H2869 H 0.02628 0.88529 0.04213 0.0
C2870 C 0.02013 0.86484 0.06439 0.0
C2871 C 0.01403 0.86212 0.08371 0.0
C2872 C 0.02033 0.93573 0.07701 0.0
C2873 C 0.01656 0.89928 0.06903 0.0
C2874 C 0.02418 0.95474 0.07114 0.0
C2875 C 0.02657 0.95781 0.05092 0.0
C2876 C 0.01918 0.91956 0.06263 0.0
C2877 C 0.02456 0.94134 0.03678 0.0
C2878 C 0.02127 0.88336 0.05693 0.0
C2879 C 0.00894 0.8783 0.09503 0.0
N2880 N 0.02122 0.92283 0.04295 0.0
N2881 N 0.01048 0.89618 0.08759 0.0
H2882 H 0.91481 0.23174 0.79898 0.0
H2883 H 0.81026 0.26175 0.81778 0.0
H2884 H 0.89272 0.23693 0.85757 0.0
H2885 H 0.82323 0.23922 0.75899 0.0
H2886 H 0.84154 0.2544 0.83208 0.0
H2887 H 0.88232 0.23564 0.78344 0.0
C2888 C 0.90309 0.23354 0.80854 0.0
C2889 C 0.90646 0.23401 0.82959 0.0
C2890 C 0.83757 0.25098 0.81606 0.0
C2891 C 0.86948 0.23864 0.812 0.0
C2892 C 0.81974 0.2553 0.80783 0.0
C2893 C 0.81414 0.25116 0.78711 0.0
C2894 C 0.85014 0.24268 0.80351 0.0
C2895 C 0.82699 0.24265 0.77504 0.0
C2896 C 0.88457 0.23569 0.79967 0.0
C2897 C 0.89074 0.23624 0.84128 0.0
N2898 N 0.84451 0.23879 0.7834 0.0
N2899 N 0.87302 0.23866 0.83234 0.0
H2900 H 0.51612 0.15843 0.62347 0.0
H2901 H 0.50926 0.0798 0.52749 0.0
H2902 H 0.51568 0.17508 0.56245 0.0
H2903 H 0.50182 0.06491 0.58834 0.0
H2904 H 0.5151 0.11484 0.53986 0.0
H2905 H 0.5143 0.12417 0.61067 0.0
C2906 C 0.51583 0.1549 0.60735 0.0
C2907 C 0.51613 0.16969 0.59402 0.0
C2908 C 0.51229 0.10386 0.55047 0.0
C2909 C 0.51373 0.13026 0.57917 0.0
C2910 C 0.50905 0.08388 0.54345 0.0
C2911 C 0.50492 0.06944 0.5569 0.0
C2912 C 0.51151 0.10932 0.57108 0.0
C2913 C 0.50478 0.07554 0.5774 0.0
C2914 C 0.51466 0.13528 0.60003 0.0
C2915 C 0.5153 0.16413 0.57325 0.0
N2916 N 0.50796 0.09497 0.58382 0.0
N2917 N 0.51414 0.14483 0.56644 0.0
H2918 H 0.59788 0.78398 0.32427 0.0
H2919 H 0.67345 0.71864 0.27931 0.0
H2920 H 0.59126 0.72066 0.32335 0.0
H2921 H 0.68003 0.78166 0.27717 0.0
H2922 H 0.64152 0.71906 0.29246 0.0
H2923 H 0.62657 0.78354 0.30484 0.0
C2924 C 0.60245 0.77 0.31998 0.0
C2925 C 0.59218 0.75233 0.32554 0.0
C2926 C 0.64979 0.73281 0.28892 0.0
C2927 C 0.62485 0.75171 0.30315 0.0
C2928 C 0.66803 0.73256 0.28136 0.0
C2929 C 0.67946 0.75016 0.27729 0.0
C2930 C 0.64298 0.75083 0.29271 0.0
C2931 C 0.67166 0.76775 0.2801 0.0
C2932 C 0.61873 0.76975 0.30876 0.0
C2933 C 0.59856 0.73462 0.31926 0.0
N2934 N 0.65398 0.76768 0.28791 0.0
N2935 N 0.61451 0.73479 0.30853 0.0
H2936 H 0.00476 0.15743 0.41774 0.0
H2937 H 0.99892 0.09761 0.51541 0.0
H2938 H 0.00434 0.18689 0.47707 0.0
H2939 H 0.0226 0.07828 0.46063 0.0
H2940 H 0.99522 0.12894 0.50115 0.0
H2941 H 0.00481 0.1263 0.43273 0.0
C2942 C 0.0044 0.1573 0.43392 0.0
C2943 C 0.00459 0.17475 0.44619 0.0
C2944 C 0.00123 0.11777 0.49237 0.0
C2945 C 0.0049 0.13919 0.46349 0.0
C2946 C 0.00332 0.09996 0.50045 0.0
C2947 C 0.01119 0.08541 0.48923 0.0
C2948 C 0.00669 0.12073 0.47285 0.0
C2949 C 0.01663 0.08913 0.46991 0.0
C2950 C 0.00461 0.13956 0.44248 0.0
C2951 C 0.00441 0.17375 0.46712 0.0
N2952 N 0.01419 0.10634 0.46233 0.0
N2953 N 0.00458 0.15622 0.47516 0.0
H2954 H 0.60309 0.23194 0.21471 0.0
H2955 H 0.70389 0.30646 0.22379 0.0
H2956 H 0.60706 0.29314 0.20346 0.0
H2957 H 0.69814 0.25292 0.25386 0.0
H2958 H 0.66858 0.30044 0.21421 0.0
H2959 H 0.63801 0.23804 0.22755 0.0
C2960 C 0.61127 0.24667 0.21509 0.0
C2961 C 0.60218 0.26207 0.20804 0.0
C2962 C 0.67499 0.29002 0.22296 0.0
C2963 C 0.642 0.26907 0.22244 0.0
C2964 C 0.69519 0.29338 0.22835 0.0
C2965 C 0.70398 0.28013 0.2396 0.0
C2966 C 0.66343 0.27314 0.22861 0.0
C2967 C 0.69193 0.26351 0.24519 0.0
C2968 C 0.63114 0.25015 0.22246 0.0
C2969 C 0.6134 0.28089 0.20895 0.0
N2970 N 0.67223 0.26039 0.23951 0.0
N2971 N 0.63275 0.28381 0.21582 0.0
H2972 H 0.55834 0.86798 0.96618 0.0
H2973 H 0.48744 0.94697 0.98768 0.0
H2974 H 0.4953 0.85657 0.95207 0.0
H2975 H 0.5465 0.9534 0.01661 0.0
H2976 H 0.49069 0.9141 0.9736 0.0
H2977 H 0.55512 0.89981 0.98375 0.0
C2978 C 0.54385 0.87216 0.96684 0.0
C2979 C 0.52705 0.85963 0.95772 0.0
C2980 C 0.50293 0.92261 0.98313 0.0
C2981 C 0.52328 0.89584 0.97764 0.0
C2982 C 0.5011 0.94141 0.99112 0.0
C2983 C 0.51678 0.95293 0.00322 0.0
C2984 C 0.52067 0.91532 0.98703 0.0
C2985 C 0.53407 0.94494 0.00735 0.0
C2986 C 0.54201 0.89022 0.97694 0.0
C2987 C 0.50861 0.86566 0.95911 0.0
N2988 N 0.53565 0.92664 0.99908 0.0
N2989 N 0.50724 0.88336 0.96875 0.0
H2990 H 0.91544 0.77219 0.72734 0.0
H2991 H 0.80499 0.71595 0.71034 0.0
H2992 H 0.8968 0.71853 0.68862 0.0
H2993 H 0.82416 0.75996 0.76024 0.0
H2994 H 0.83877 0.71798 0.70174 0.0
H2995 H 0.88238 0.76922 0.73929 0.0
C2996 C 0.90445 0.75975 0.72144 0.0
C2997 C 0.9089 0.74556 0.70698 0.0
C2998 C 0.83569 0.72716 0.71465 0.0
C2999 C 0.8712 0.74214 0.72049 0.0
C3000 C 0.81635 0.72607 0.71953 0.0
C3001 C 0.81174 0.73786 0.736 0.0
C3002 C 0.85066 0.74031 0.72614 0.0
C3003 C 0.82712 0.75059 0.74743 0.0
C3004 C 0.88565 0.75803 0.72834 0.0
C3005 C 0.89416 0.72968 0.69996 0.0
N3006 N 0.84595 0.7516 0.74219 0.0
N3007 N 0.87599 0.72849 0.70667 0.0
H3008 H 0.06945 0.973 0.87424 0.0
H3009 H 0.04222 0.03869 0.96791 0.0
H3010 H 0.08004 0.0366 0.87973 0.0
H3011 H 0.01669 0.97755 0.95499 0.0
H3012 H 0.05642 0.03781 0.93564 0.0
H3013 H 0.05025 0.97382 0.90356 0.0
C3014 C 0.06761 0.98714 0.88144 0.0
C3015 C 0.0766 0.00477 0.87454 0.0
C3016 C 0.04757 0.02459 0.93971 0.0
C3017 C 0.05484 0.00575 0.90831 0.0
C3018 C 0.03949 0.02507 0.95817 0.0
C3019 C 0.02836 0.00812 0.96417 0.0
C3020 C 0.04482 0.00693 0.92718 0.0
C3021 C 0.02516 0.99094 0.95089 0.0
C3022 C 0.05668 0.98757 0.89823 0.0
C3023 C 0.07384 0.02262 0.88471 0.0
N3024 N 0.03358 0.9907 0.93307 0.0
N3025 N 0.06335 0.02263 0.90112 0.0
H3026 H 0.78356 0.3259 0.60561 0.0
H3027 H 0.72828 0.24962 0.67476 0.0
H3028 H 0.72051 0.30774 0.60074 0.0
H3029 H 0.78796 0.27939 0.68945 0.0
H3030 H 0.72693 0.26579 0.64351 0.0
H3031 H 0.78679 0.30455 0.63283 0.0
C3032 C 0.77038 0.3175 0.61028 0.0
C3033 C 0.75169 0.31883 0.60097 0.0
C3034 C 0.74039 0.26861 0.65348 0.0
C3035 C 0.75539 0.294 0.63183 0.0
C3036 C 0.74123 0.25929 0.67127 0.0
C3037 C 0.75819 0.26334 0.68487 0.0
C3038 C 0.75665 0.282 0.64921 0.0
C3039 C 0.77451 0.27598 0.6795 0.0
C3040 C 0.77227 0.30519 0.62572 0.0
C3041 C 0.73522 0.30712 0.60733 0.0
N3042 N 0.77329 0.28499 0.66216 0.0
N3043 N 0.73745 0.29528 0.62241 0.0
H3044 H 0.4627 0.05802 0.37185 0.0
H3045 H 0.47556 0.98993 0.46134 0.0
H3046 H 0.44066 0.99577 0.36781 0.0
H3047 H 0.51349 0.04551 0.46004 0.0
H3048 H 0.4614 0.99308 0.42753 0.0
H3049 H 0.48011 0.05521 0.40485 0.0
C3050 C 0.46155 0.04381 0.37791 0.0
C3051 C 0.45032 0.02708 0.3671 0.0
C3052 C 0.47291 0.00457 0.4345 0.0
C3053 C 0.47002 0.02378 0.40454 0.0
C3054 C 0.48096 0.00281 0.45385 0.0
C3055 C 0.49564 0.01754 0.46349 0.0
C3056 C 0.47932 0.02134 0.42472 0.0
C3057 C 0.50222 0.03381 0.45303 0.0
C3058 C 0.47158 0.04219 0.3966 0.0
C3059 C 0.44936 0.00898 0.3755 0.0
N3060 N 0.49384 0.03541 0.4342 0.0
N3061 N 0.45899 0.00785 0.39373 0.0
H3062 H 0.77515 0.72093 0.10101 0.0
H3063 H 0.77324 0.6984 0.21595 0.0
H3064 H 0.75675 0.66312 0.12001 0.0
H3065 H 0.77337 0.75712 0.19774 0.0
H3066 H 0.76852 0.68548 0.18064 0.0
H3067 H 0.77607 0.73487 0.1361 0.0
C3068 C 0.77126 0.7112 0.11255 0.0
C3069 C 0.76587 0.69084 0.1076 0.0
C3070 C 0.76944 0.70118 0.18431 0.0
C3071 C 0.76695 0.70663 0.14763 0.0
C3072 C 0.7722 0.70858 0.20448 0.0
C3073 C 0.7738 0.72887 0.20975 0.0
C3074 C 0.76856 0.71417 0.16919 0.0
C3075 C 0.77218 0.74137 0.19427 0.0
C3076 C 0.77167 0.71917 0.13251 0.0
C3077 C 0.76079 0.67892 0.12309 0.0
N3078 N 0.76986 0.73383 0.17462 0.0
N3079 N 0.76161 0.68696 0.14239 0.0
H3080 H 0.1037 0.03717 0.67754 0.0
H3081 H 0.0177 0.99802 0.59031 0.0
H3082 H 0.05732 0.98929 0.6841 0.0
H3083 H 0.07674 0.02197 0.57843 0.0
H3084 H 0.02822 0.00194 0.6266 0.0
H3085 H 0.08996 0.03877 0.64284 0.0
C3086 C 0.09045 0.0272 0.67175 0.0
C3087 C 0.08165 0.01301 0.68361 0.0
C3088 C 0.03875 0.00655 0.61601 0.0
C3089 C 0.06587 0.01485 0.64411 0.0
C3090 C 0.03275 0.00447 0.59538 0.0
C3091 C 0.04643 0.0096 0.58142 0.0
C3092 C 0.05843 0.01418 0.62265 0.0
C3093 C 0.06579 0.01772 0.58873 0.0
C3094 C 0.08271 0.02806 0.65197 0.0
C3095 C 0.06462 0.00031 0.67534 0.0
N3096 N 0.07123 0.01975 0.60885 0.0
N3097 N 0.05724 0.00153 0.65607 0.0
H3098 H 0.77649 0.31915 0.42245 0.0
H3099 H 0.7238 0.25849 0.32083 0.0
H3100 H 0.71329 0.30848 0.40938 0.0
H3101 H 0.7859 0.28081 0.33146 0.0
H3102 H 0.71939 0.27128 0.3554 0.0
H3103 H 0.77979 0.29982 0.39134 0.0
C3104 C 0.76324 0.31253 0.41315 0.0
C3105 C 0.74456 0.31543 0.41861 0.0
C3106 C 0.734 0.2731 0.3502 0.0
C3107 C 0.74831 0.29345 0.38251 0.0
C3108 C 0.73653 0.26566 0.33061 0.0
C3109 C 0.75521 0.26875 0.32337 0.0
C3110 C 0.75033 0.28341 0.36251 0.0
C3111 C 0.77122 0.2783 0.33645 0.0
C3112 C 0.76516 0.30157 0.39526 0.0
C3113 C 0.72798 0.30679 0.40565 0.0
N3114 N 0.76839 0.28536 0.35532 0.0
N3115 N 0.73024 0.29622 0.38812 0.0
H3116 H 0.48325 0.03348 0.20309 0.0
H3117 H 0.50005 0.97999 0.09763 0.0
H3118 H 0.43689 0.99859 0.16251 0.0
H3119 H 0.53148 0.03812 0.11751 0.0
H3120 H 0.4831 0.98028 0.12832 0.0
H3121 H 0.50628 0.0299 0.17737 0.0
C3122 C 0.47781 0.02511 0.18888 0.0
C3123 C 0.45792 0.01636 0.18509 0.0
C3124 C 0.49397 0.99281 0.12608 0.0
C3125 C 0.4845 0.01155 0.15616 0.0
C3126 C 0.50376 0.99265 0.10863 0.0
C3127 C 0.51689 0.00927 0.10476 0.0
C3128 C 0.4975 0.00957 0.13987 0.0
C3129 C 0.52124 0.02512 0.11975 0.0
C3130 C 0.49107 0.02293 0.17435 0.0
C3131 C 0.45204 0.00527 0.16649 0.0
N3132 N 0.51134 0.02501 0.13662 0.0
N3133 N 0.46527 0.00314 0.15281 0.0
H3134 H 0.79375 0.71363 0.92084 0.0
H3135 H 0.73426 0.7238 0.81537 0.0
H3136 H 0.73777 0.67884 0.89875 0.0
H3137 H 0.79183 0.75719 0.83362 0.0
H3138 H 0.73498 0.7088 0.84704 0.0
H3139 H 0.7932 0.73092 0.89009 0.0
C3140 C 0.78137 0.70958 0.90954 0.0
C3141 C 0.76574 0.69476 0.91247 0.0
C3142 C 0.74749 0.71941 0.84423 0.0
C3143 C 0.76497 0.71463 0.87737 0.0
C3144 C 0.74711 0.728 0.82606 0.0
C3145 C 0.76312 0.74164 0.82168 0.0
C3146 C 0.76401 0.72441 0.85832 0.0
C3147 C 0.7792 0.7467 0.83634 0.0
C3148 C 0.78103 0.71954 0.89205 0.0
C3149 C 0.74999 0.69035 0.8974 0.0
N3150 N 0.77929 0.73799 0.854 0.0
N3151 N 0.75004 0.7002 0.88057 0.0
H3152 H 0.85438 0.05314 0.05341 0.0
H3153 H 0.9332 0.01491 0.98583 0.0
H3154 H 0.85452 0.06064 0.9898 0.0
H3155 H 0.92416 0.99736 0.04552 0.0
H3156 H 0.90325 0.02993 0.986 0.0
H3157 H 0.87889 0.03133 0.05014 0.0
C3158 C 0.85935 0.05004 0.03868 0.0
C3159 C 0.85237 0.0589 0.02188 0.0
C3160 C 0.90766 0.02252 0.99893 0.0
C3161 C 0.88085 0.03409 0.01812 0.0
C3162 C 0.92473 0.01386 0.99881 0.0
C3163 C 0.93137 0.00506 0.0158 0.0
C3164 C 0.89725 0.02253 0.01621 0.0
C3165 C 0.91974 0.00413 0.03216 0.0
C3166 C 0.87345 0.03761 0.03684 0.0
C3167 C 0.85974 0.05452 0.00327 0.0
N3168 N 0.90343 0.01302 0.03208 0.0
N3169 N 0.87368 0.04257 0.00193 0.0
H3170 H 0.37529 0.42184 0.04738 0.0
H3171 H 0.44964 0.52142 0.04013 0.0
H3172 H 0.35503 0.47784 0.0435 0.0
H3173 H 0.46232 0.46302 0.02422 0.0
H3174 H 0.41623 0.50677 0.04691 0.0
H3175 H 0.40889 0.43797 0.04513 0.0
C3176 C 0.37794 0.4376 0.04636 0.0
C3177 C 0.36231 0.4485 0.04561 0.0
C3178 C 0.42642 0.49725 0.04199 0.0
C3179 C 0.40082 0.46706 0.0427 0.0
C3180 C 0.44545 0.50557 0.03817 0.0
C3181 C 0.45875 0.49343 0.03152 0.0
C3182 C 0.42088 0.47668 0.03944 0.0
C3183 C 0.45256 0.47298 0.02919 0.0
C3184 C 0.39713 0.44678 0.04488 0.0
C3185 C 0.36665 0.46886 0.04393 0.0
N3186 N 0.43415 0.46529 0.03319 0.0
N3187 N 0.38552 0.47751 0.0425 0.0
H3188 H 0.30774 0.58886 0.72037 0.0
H3189 H 0.27464 0.67867 0.78576 0.0
H3190 H 0.32375 0.60195 0.78429 0.0
H3191 H 0.2706 0.67233 0.72072 0.0
H3192 H 0.28728 0.64726 0.78614 0.0
H3193 H 0.28915 0.61634 0.72095 0.0
C3194 C 0.30739 0.5975 0.73454 0.0
C3195 C 0.31759 0.59317 0.75226 0.0
C3196 C 0.2834 0.65266 0.7718 0.0
C3197 C 0.29599 0.62457 0.75306 0.0
C3198 C 0.27606 0.67051 0.77157 0.0
C3199 C 0.2717 0.6782 0.75318 0.0
C3200 C 0.28625 0.6424 0.75351 0.0
C3201 C 0.27394 0.66705 0.73525 0.0
C3202 C 0.29664 0.61313 0.73487 0.0
C3203 C 0.31607 0.60462 0.77026 0.0
N3204 N 0.28115 0.6498 0.73587 0.0
N3205 N 0.3056 0.61986 0.77018 0.0
H3206 H 0.15929 0.61329 0.50967 0.0
H3207 H 0.07584 0.51991 0.5138 0.0
H3208 H 0.17281 0.55588 0.52153 0.0
H3209 H 0.06515 0.57522 0.49237 0.0
H3210 H 0.11112 0.53305 0.51926 0.0
H3211 H 0.12436 0.59988 0.50612 0.0
C3212 C 0.15489 0.59787 0.51172 0.0
C3213 C 0.169 0.5857 0.51599 0.0
C3214 C 0.10101 0.54226 0.51336 0.0
C3215 C 0.1289 0.57012 0.51164 0.0
C3216 C 0.08089 0.5348 0.51028 0.0
C3217 C 0.06754 0.54647 0.50256 0.0
C3218 C 0.10773 0.56155 0.50883 0.0
C3219 C 0.07489 0.56565 0.49827 0.0
C3220 C 0.13493 0.59017 0.50953 0.0
C3221 C 0.16242 0.56574 0.51808 0.0
N3222 N 0.09444 0.57257 0.50148 0.0
N3223 N 0.14281 0.55855 0.51592 0.0
H3224 H 0.73078 0.93034 0.75402 0.0
H3225 H 0.75663 0.83588 0.8065 0.0
H3226 H 0.69911 0.90428 0.80114 0.0
H3227 H 0.77913 0.85369 0.75103 0.0
H3228 H 0.74112 0.86544 0.8093 0.0
H3229 H 0.7534 0.90637 0.75685 0.0
C3230 C 0.72856 0.91961 0.76497 0.0
C3231 C 0.7128 0.91921 0.77717 0.0
C3232 C 0.74969 0.86302 0.79667 0.0
C3233 C 0.73894 0.89196 0.78074 0.0
C3234 C 0.75869 0.8462 0.79512 0.0
C3235 C 0.76895 0.84211 0.77831 0.0
C3236 C 0.751 0.87589 0.78136 0.0
C3237 C 0.77116 0.85611 0.76411 0.0
C3238 C 0.74159 0.90603 0.76668 0.0
C3239 C 0.71105 0.90528 0.79148 0.0
N3240 N 0.76204 0.87225 0.76582 0.0
N3241 N 0.72386 0.89214 0.79276 0.0
H3242 H 0.65467 0.9214 0.54388 0.0
H3243 H 0.59588 0.00195 0.49848 0.0
H3244 H 0.68167 0.96393 0.50623 0.0
H3245 H 0.57892 0.96863 0.54822 0.0
H3246 H 0.62676 0.9879 0.49921 0.0
H3247 H 0.62572 0.93773 0.54336 0.0
C3248 C 0.65444 0.93415 0.53539 0.0
C3249 C 0.67054 0.94125 0.52499 0.0
C3250 C 0.61626 0.98383 0.51 0.0
C3251 C 0.63737 0.96023 0.52442 0.0
C3252 C 0.59868 0.99184 0.50961 0.0
C3253 C 0.58471 0.98636 0.52321 0.0
C3254 C 0.61969 0.97019 0.52399 0.0
C3255 C 0.5891 0.9732 0.53731 0.0
C3256 C 0.63795 0.94359 0.53521 0.0
C3257 C 0.66957 0.95806 0.51452 0.0
N3258 N 0.60607 0.96552 0.53722 0.0
N3259 N 0.65317 0.96695 0.51439 0.0
H3260 H 0.32193 0.41527 0.78431 0.0
H3261 H 0.25975 0.31481 0.73068 0.0
H3262 H 0.3108 0.40446 0.71962 0.0
H3263 H 0.28746 0.32184 0.7915 0.0
H3264 H 0.27248 0.3496 0.72711 0.0
H3265 H 0.30334 0.38298 0.78783 0.0
C3266 C 0.3156 0.40609 0.77081 0.0
C3267 C 0.3183 0.41245 0.75162 0.0
C3268 C 0.27558 0.3435 0.74126 0.0
C3269 C 0.29667 0.37544 0.75559 0.0
C3270 C 0.26825 0.32375 0.74334 0.0
C3271 C 0.27274 0.31547 0.76134 0.0
C3272 C 0.28716 0.35498 0.75743 0.0
C3273 C 0.28387 0.3276 0.77727 0.0
C3274 C 0.30489 0.38767 0.77285 0.0
C3275 C 0.30915 0.40013 0.73471 0.0
N3276 N 0.29071 0.34669 0.77492 0.0
N3277 N 0.29887 0.38211 0.73707 0.0
H3278 H 0.21518 0.59902 0.277 0.0
H3279 H 0.19367 0.7094 0.29101 0.0
H3280 H 0.15683 0.61462 0.27051 0.0
H3281 H 0.25099 0.69555 0.27915 0.0
H3282 H 0.1803 0.67442 0.28593 0.0
H3283 H 0.22908 0.63412 0.28014 0.0
C3284 C 0.20533 0.60985 0.27622 0.0
C3285 C 0.18485 0.60396 0.27349 0.0
C3286 C 0.19579 0.67902 0.28436 0.0
C3287 C 0.20055 0.64395 0.27714 0.0
C3288 C 0.20346 0.69899 0.28735 0.0
C3289 C 0.22349 0.70537 0.28556 0.0
C3290 C 0.20827 0.66528 0.27978 0.0
C3291 C 0.23545 0.69123 0.28066 0.0
C3292 C 0.21324 0.62982 0.2779 0.0
C3293 C 0.17271 0.61853 0.27241 0.0
N3294 N 0.22768 0.67179 0.27806 0.0
N3295 N 0.18074 0.63786 0.27437 0.0
H3296 H 0.53356 0.66544 0.46276 0.0
H3297 H 0.46765 0.56163 0.46417 0.0
H3298 H 0.47087 0.6552 0.44635 0.0
H3299 H 0.52066 0.57784 0.50435 0.0
H3300 H 0.47 0.59556 0.45563 0.0
H3301 H 0.53064 0.63323 0.47666 0.0
C3302 C 0.51918 0.65648 0.46226 0.0
C3303 C 0.50243 0.66294 0.45337 0.0
C3304 C 0.48107 0.59178 0.46642 0.0
C3305 C 0.49906 0.62621 0.46895 0.0
C3306 C 0.47982 0.57239 0.47121 0.0
C3307 C 0.49406 0.56695 0.4849 0.0
C3308 C 0.4969 0.60585 0.47505 0.0
C3309 C 0.50938 0.58151 0.49373 0.0
C3310 C 0.51753 0.6382 0.47026 0.0
C3311 C 0.48414 0.65086 0.4532 0.0
N3312 N 0.51057 0.60034 0.48845 0.0
N3313 N 0.48298 0.63299 0.46063 0.0
H3314 H 0.62021 0.30482 0.72358 0.0
H3315 H 0.70357 0.23811 0.73721 0.0
H3316 H 0.61139 0.24238 0.70574 0.0
H3317 H 0.70658 0.29326 0.77337 0.0
H3318 H 0.66987 0.24024 0.72494 0.0
H3319 H 0.65176 0.30179 0.74183 0.0
C3320 C 0.62477 0.29045 0.72369 0.0
C3321 C 0.61329 0.27388 0.71279 0.0
C3322 C 0.67777 0.25183 0.73569 0.0
C3323 C 0.64935 0.27041 0.73339 0.0
C3324 C 0.69706 0.25067 0.74262 0.0
C3325 C 0.70786 0.26561 0.75621 0.0
C3326 C 0.66925 0.26824 0.74207 0.0
C3327 C 0.69866 0.28144 0.76291 0.0
C3328 C 0.64278 0.28876 0.73406 0.0
C3329 C 0.61998 0.25566 0.71342 0.0
N3330 N 0.67989 0.2825 0.75554 0.0
N3331 N 0.63762 0.25447 0.72333 0.0
H3332 H 0.00672 0.34411 0.97392 0.0
H3333 H 0.01654 0.45593 0.94721 0.0
H3334 H 0.00392 0.36214 0.91342 0.0
H3335 H 0.01349 0.43955 0.00809 0.0
H3336 H 0.01019 0.42127 0.93481 0.0
H3337 H 0.00808 0.37855 0.98707 0.0
C3338 C 0.00637 0.35528 0.96341 0.0
C3339 C 0.00521 0.3502 0.94253 0.0
C3340 C 0.01073 0.42516 0.95088 0.0
C3341 C 0.00664 0.38954 0.95744 0.0
C3342 C 0.01437 0.44499 0.95798 0.0
C3343 C 0.01568 0.4506 0.97871 0.0
C3344 C 0.00862 0.41072 0.96462 0.0
C3345 C 0.01256 0.43582 0.99197 0.0
C3346 C 0.00701 0.3749 0.97092 0.0
C3347 C 0.00455 0.36527 0.92961 0.0
N3348 N 0.00939 0.41649 0.98471 0.0
N3349 N 0.00537 0.3842 0.93727 0.0
H3350 H 0.92335 0.73987 0.21139 0.0
H3351 H 0.84819 0.80639 0.25478 0.0
H3352 H 0.93089 0.80318 0.21177 0.0
H3353 H 0.8417 0.74359 0.25865 0.0
H3354 H 0.88024 0.80564 0.24199 0.0
H3355 H 0.89489 0.74093 0.23099 0.0
C3356 C 0.91905 0.75399 0.21562 0.0
C3357 C 0.92945 0.77146 0.20979 0.0
C3358 C 0.87196 0.79203 0.24583 0.0
C3359 C 0.89701 0.77278 0.23236 0.0
C3360 C 0.85364 0.79245 0.25317 0.0
C3361 C 0.8422 0.775 0.25761 0.0
C3362 C 0.87883 0.77396 0.24264 0.0
C3363 C 0.85006 0.75739 0.25539 0.0
C3364 C 0.90289 0.75459 0.22694 0.0
C3365 C 0.92343 0.78936 0.21603 0.0
N3366 N 0.86781 0.75727 0.24779 0.0
N3367 N 0.90755 0.78954 0.22682 0.0
H3368 H 0.51795 0.33276 0.05727 0.0
H3369 H 0.49617 0.44242 0.07496 0.0
H3370 H 0.51331 0.36187 0.11585 0.0
H3371 H 0.5238 0.4237 0.02246 0.0
H3372 H 0.49862 0.411 0.08826 0.0
H3373 H 0.51698 0.36425 0.04247 0.0
C3374 C 0.51681 0.34578 0.06699 0.0
C3375 C 0.51576 0.34477 0.08781 0.0
C3376 C 0.50419 0.41373 0.07384 0.0
C3377 C 0.51443 0.38051 0.07105 0.0
C3378 C 0.50269 0.43165 0.06614 0.0
C3379 C 0.50981 0.43572 0.04755 0.0
C3380 C 0.51267 0.39955 0.06282 0.0
C3381 C 0.51817 0.42116 0.03688 0.0
C3382 C 0.51635 0.36369 0.05857 0.0
C3383 C 0.51439 0.36204 0.09977 0.0
N3384 N 0.5193 0.4036 0.04465 0.0
N3385 N 0.5136 0.37913 0.0912 0.0
H3386 H 0.92639 0.26842 0.30308 0.0
H3387 H 0.81501 0.24438 0.32904 0.0
H3388 H 0.90847 0.27025 0.36361 0.0
H3389 H 0.82989 0.25996 0.27013 0.0
H3390 H 0.84968 0.25224 0.34137 0.0
H3391 H 0.89154 0.26375 0.28995 0.0
C3392 C 0.91514 0.26793 0.31357 0.0
C3393 C 0.92031 0.2698 0.33445 0.0
C3394 C 0.8454 0.25406 0.32577 0.0
C3395 C 0.88064 0.26438 0.31963 0.0
C3396 C 0.82561 0.2495 0.3187 0.0
C3397 C 0.81961 0.25145 0.29852 0.0
C3398 C 0.85942 0.26039 0.31252 0.0
C3399 C 0.83395 0.2583 0.28582 0.0
C3400 C 0.89531 0.26537 0.30609 0.0
C3401 C 0.90518 0.26915 0.34741 0.0
N3402 N 0.85328 0.26237 0.29299 0.0
N3403 N 0.88607 0.26636 0.33979 0.0
H3404 H 0.98462 0.66599 0.55145 0.0
H3405 H 0.02632 0.56623 0.56214 0.0
H3406 H 0.99737 0.64363 0.60879 0.0
H3407 H 0.98491 0.5712 0.51156 0.0
H3408 H 0.02066 0.59789 0.57715 0.0
H3409 H 0.98861 0.63403 0.53438 0.0
C3410 C 0.98811 0.6543 0.5604 0.0
C3411 C 0.99061 0.65733 0.58153 0.0
C3412 C 0.01282 0.59207 0.56276 0.0
C3413 C 0.99556 0.62127 0.56225 0.0
C3414 C 0.0161 0.57402 0.55408 0.0
C3415 C 0.00588 0.56591 0.53563 0.0
C3416 C 0.99954 0.60239 0.55278 0.0
C3417 C 0.99296 0.57686 0.52588 0.0
C3418 C 0.99032 0.63616 0.55069 0.0
C3419 C 0.99513 0.64181 0.59249 0.0
N3420 N 0.99016 0.59465 0.53457 0.0
N3421 N 0.99767 0.62452 0.58272 0.0
H3422 H 0.61653 0.80353 0.83254 0.0
H3423 H 0.69816 0.7532 0.77792 0.0
H3424 H 0.61008 0.74076 0.81754 0.0
H3425 H 0.71027 0.80844 0.81498 0.0
H3426 H 0.66344 0.75017 0.78542 0.0
H3427 H 0.64852 0.80733 0.81867 0.0
C3428 C 0.6217 0.79058 0.82601 0.0
C3429 C 0.61069 0.77179 0.82628 0.0
C3430 C 0.67374 0.76299 0.79174 0.0
C3431 C 0.64736 0.77603 0.81055 0.0
C3432 C 0.69345 0.76476 0.78741 0.0
C3433 C 0.70705 0.781 0.796 0.0
C3434 C 0.66766 0.77778 0.80437 0.0
C3435 C 0.70029 0.79556 0.80825 0.0
C3436 C 0.64002 0.79274 0.81825 0.0
C3437 C 0.61824 0.75548 0.81783 0.0
N3438 N 0.68108 0.79361 0.81205 0.0
N3439 N 0.63617 0.75796 0.81035 0.0
H3440 H 0.47593 0.52134 0.67714 0.0
H3441 H 0.46366 0.50494 0.55888 0.0
H3442 H 0.4222 0.52798 0.64265 0.0
H3443 H 0.51939 0.53385 0.58882 0.0
H3444 H 0.44866 0.50847 0.59048 0.0
H3445 H 0.49281 0.5216 0.64592 0.0
C3446 C 0.46777 0.52298 0.66302 0.0
C3447 C 0.44768 0.52467 0.66239 0.0
C3448 C 0.46415 0.51415 0.5901 0.0
C3449 C 0.46666 0.52459 0.62689 0.0
C3450 C 0.47277 0.51215 0.57206 0.0
C3451 C 0.4928 0.51938 0.57107 0.0
C3452 C 0.47567 0.52294 0.60754 0.0
C3453 C 0.50386 0.52825 0.58885 0.0
C3454 C 0.47739 0.52321 0.64531 0.0
C3455 C 0.43772 0.52678 0.64377 0.0
N3456 N 0.49518 0.52963 0.60648 0.0
N3457 N 0.44724 0.52641 0.62672 0.0
H3458 H 0.76351 0.15395 0.91358 0.0
H3459 H 0.75173 0.25155 0.85942 0.0
H3460 H 0.76497 0.21003 0.94759 0.0
H3461 H 0.77219 0.20072 0.83144 0.0
H3462 H 0.75093 0.23566 0.89125 0.0
H3463 H 0.76056 0.16997 0.88241 0.0
C3464 C 0.76301 0.16963 0.91447 0.0
C3465 C 0.76456 0.18071 0.93317 0.0
C3466 C 0.75556 0.22807 0.87807 0.0
C3467 C 0.76133 0.19918 0.89755 0.0
C3468 C 0.75595 0.23707 0.85996 0.0
C3469 C 0.76217 0.22748 0.84286 0.0
C3470 C 0.76105 0.20929 0.87881 0.0
C3471 C 0.76749 0.20875 0.8443 0.0
C3472 C 0.76147 0.17879 0.89669 0.0
C3473 C 0.76405 0.20103 0.93344 0.0
N3474 N 0.76676 0.20027 0.86191 0.0
N3475 N 0.76248 0.20966 0.91585 0.0
H3476 H 0.04615 0.4744 0.17335 0.0
H3477 H 0.05657 0.52238 0.06868 0.0
H3478 H 0.09826 0.51045 0.15699 0.0
H3479 H 0.00391 0.48378 0.07989 0.0
H3480 H 0.07114 0.5182 0.10176 0.0
H3481 H 0.02977 0.47714 0.13983 0.0
C3482 C 0.05416 0.48278 0.1627 0.0
C3483 C 0.07352 0.49241 0.16804 0.0
C3484 C 0.05639 0.51058 0.09713 0.0
C3485 C 0.05494 0.49567 0.12996 0.0
C3486 C 0.04798 0.513 0.07813 0.0
C3487 C 0.02894 0.50339 0.07141 0.0
C3488 C 0.0458 0.49842 0.10974 0.0
C3489 C 0.01862 0.49147 0.08449 0.0
C3490 C 0.04479 0.48441 0.14366 0.0
C3491 C 0.08319 0.50313 0.15373 0.0
N3492 N 0.02722 0.48928 0.1031 0.0
N3493 N 0.0738 0.50449 0.13545 0.0
H3494 H 0.78057 0.81814 0.43174 0.0
H3495 H 0.71735 0.8097 0.32587 0.0
H3496 H 0.72124 0.83115 0.42461 0.0
H3497 H 0.76585 0.77739 0.33503 0.0
H3498 H 0.7204 0.8199 0.36181 0.0
H3499 H 0.77719 0.80499 0.39618 0.0
C3500 C 0.76682 0.81812 0.42272 0.0
C3501 C 0.75115 0.82572 0.43112 0.0
C3502 C 0.73035 0.81052 0.35602 0.0
C3503 C 0.74728 0.81093 0.39057 0.0
C3504 C 0.7287 0.80477 0.33545 0.0
C3505 C 0.74141 0.79271 0.32743 0.0
C3506 C 0.74501 0.80442 0.36873 0.0
C3507 C 0.75574 0.78667 0.34063 0.0
C3508 C 0.76488 0.81055 0.4025 0.0
C3509 C 0.73361 0.82525 0.41882 0.0
N3510 N 0.75727 0.79272 0.36068 0.0
N3511 N 0.73223 0.81816 0.39915 0.0
H3512 H 0.46155 0.50156 0.851 0.0
H3513 H 0.44774 0.53576 0.96553 0.0
H3514 H 0.41775 0.53631 0.86928 0.0
H3515 H 0.49851 0.51068 0.94849 0.0
H3516 H 0.43535 0.53336 0.93024 0.0
H3517 H 0.47429 0.50242 0.88645 0.0
C3518 C 0.45463 0.50937 0.86246 0.0
C3519 C 0.43861 0.51896 0.85716 0.0
C3520 C 0.44919 0.52834 0.93415 0.0
C3521 C 0.45304 0.51993 0.89765 0.0
C3522 C 0.45628 0.52964 0.95437 0.0
C3523 C 0.47427 0.52348 0.96002 0.0
C3524 C 0.46008 0.52076 0.91932 0.0
C3525 C 0.48459 0.51563 0.94481 0.0
C3526 C 0.46194 0.50991 0.88266 0.0
C3527 C 0.4303 0.52897 0.8726 0.0
N3528 N 0.47736 0.51452 0.92511 0.0
N3529 N 0.43756 0.52912 0.8921 0.0
H3530 H 0.76446 0.22235 0.10594 0.0
H3531 H 0.80358 0.25956 0.21941 0.0
H3532 H 0.8072 0.19419 0.13908 0.0
H3533 H 0.74185 0.25101 0.19875 0.0
H3534 H 0.81065 0.24579 0.18608 0.0
H3535 H 0.76174 0.24311 0.13657 0.0
C3536 C 0.77335 0.22049 0.11953 0.0
C3537 C 0.78573 0.20601 0.11989 0.0
C3538 C 0.79565 0.24736 0.18881 0.0
C3539 C 0.78327 0.2305 0.15468 0.0
C3540 C 0.79164 0.25531 0.20764 0.0
C3541 C 0.77214 0.25638 0.21161 0.0
C3542 C 0.78007 0.24104 0.17386 0.0
C3543 C 0.75707 0.25038 0.19613 0.0
C3544 C 0.77189 0.23252 0.13692 0.0
C3545 C 0.79748 0.20507 0.13789 0.0
N3546 N 0.76135 0.24298 0.17785 0.0
N3547 N 0.79588 0.21708 0.1546 0.0
H3548 H 0.03993 0.47458 0.33877 0.0
H3549 H 0.01812 0.53523 0.43913 0.0
H3550 H 0.07621 0.52794 0.3663 0.0
H3551 H 0.99475 0.47367 0.42431 0.0
H3552 H 0.0331 0.53564 0.40725 0.0
H3553 H 0.01791 0.47663 0.36567 0.0
C3554 C 0.0433 0.48673 0.3504 0.0
C3555 C 0.0601 0.50105 0.35025 0.0
C3556 C 0.02447 0.52211 0.41087 0.0
C3557 C 0.03464 0.50369 0.38069 0.0
C3558 C 0.01581 0.52187 0.42902 0.0
C3559 C 0.00547 0.50427 0.43459 0.0
C3560 C 0.02276 0.50466 0.39815 0.0
C3561 C 0.00282 0.4875 0.42075 0.0
C3562 C 0.03062 0.48795 0.36563 0.0
C3563 C 0.06337 0.51669 0.3655 0.0
N3564 N 0.01164 0.48803 0.40324 0.0
N3565 N 0.05081 0.51755 0.38009 0.0
H3566 H 0.72335 0.81841 0.62421 0.0
H3567 H 0.78819 0.79064 0.71848 0.0
H3568 H 0.78689 0.82722 0.62928 0.0
H3569 H 0.72696 0.76549 0.70502 0.0
H3570 H 0.78749 0.80539 0.68648 0.0
H3571 H 0.72375 0.8003 0.65444 0.0
C3572 C 0.73737 0.81651 0.63168 0.0
C3573 C 0.75512 0.82437 0.62426 0.0
C3574 C 0.77422 0.79655 0.69042 0.0
C3575 C 0.75568 0.80375 0.65878 0.0
C3576 C 0.77458 0.78816 0.70873 0.0
C3577 C 0.75757 0.77689 0.71447 0.0
C3578 C 0.75664 0.79392 0.67777 0.0
C3579 C 0.74041 0.77405 0.70115 0.0
C3580 C 0.73758 0.80608 0.64882 0.0
C3581 C 0.77286 0.82129 0.63437 0.0
N3582 N 0.74031 0.7827 0.68347 0.0
N3583 N 0.77269 0.81137 0.65119 0.0
H3584 H 0.64599 0.42942 0.53472 0.0
H3585 H 0.61028 0.52894 0.51014 0.0
H3586 H 0.68623 0.47726 0.5155 0.0
H3587 H 0.58402 0.49211 0.55345 0.0
H3588 H 0.63798 0.51037 0.51063 0.0
H3589 H 0.6224 0.45183 0.54001 0.0
C3590 C 0.65005 0.44465 0.5318 0.0
C3591 C 0.6683 0.45134 0.52465 0.0
C3592 C 0.62629 0.50662 0.52027 0.0
C3593 C 0.64088 0.47706 0.53023 0.0
C3594 C 0.6105 0.51722 0.52003 0.0
C3595 C 0.5947 0.51198 0.53163 0.0
C3596 C 0.62605 0.49046 0.53188 0.0
C3597 C 0.59581 0.49666 0.54418 0.0
C3598 C 0.63647 0.45745 0.53478 0.0
C3599 C 0.67227 0.47124 0.52065 0.0
N3600 N 0.61102 0.48623 0.5437 0.0
N3601 N 0.65862 0.48334 0.52332 0.0
H3602 H 0.1717 0.04145 0.49881 0.0
H3603 H 0.06133 0.0588 0.50983 0.0
H3604 H 0.1507 0.09616 0.48894 0.0
H3605 H 0.07651 0.00035 0.5018 0.0
H3606 H 0.09467 0.07257 0.50373 0.0
H3607 H 0.13762 0.02586 0.50126 0.0
C3608 C 0.15992 0.05014 0.49705 0.0
C3609 C 0.16405 0.07014 0.49368 0.0
C3610 C 0.09075 0.05672 0.50317 0.0
C3611 C 0.12518 0.05248 0.49657 0.0
C3612 C 0.07168 0.04882 0.50674 0.0
C3613 C 0.06609 0.02836 0.50635 0.0
C3614 C 0.10456 0.04416 0.49945 0.0
C3615 C 0.08019 0.0162 0.50219 0.0
C3616 C 0.1405 0.04122 0.49835 0.0
C3617 C 0.14822 0.08066 0.49133 0.0
N3618 N 0.09887 0.0243 0.49906 0.0
N3619 N 0.12955 0.07176 0.493 0.0
H3620 H 0.22605 0.93514 0.78277 0.0
H3621 H 0.20893 0.81918 0.77763 0.0
H3622 H 0.17014 0.89989 0.7616 0.0
H3623 H 0.26534 0.85029 0.76561 0.0
H3624 H 0.19511 0.84961 0.77632 0.0
H3625 H 0.24156 0.90518 0.78067 0.0
C3626 C 0.2171 0.92111 0.7776 0.0
C3627 C 0.1968 0.91992 0.77235 0.0
C3628 C 0.2105 0.84981 0.77391 0.0
C3629 C 0.21429 0.88584 0.7702 0.0
C3630 C 0.21846 0.83248 0.77479 0.0
C3631 C 0.23835 0.83226 0.77182 0.0
C3632 C 0.22257 0.86723 0.77043 0.0
C3633 C 0.24993 0.84989 0.76796 0.0
C3634 C 0.22595 0.90412 0.7763 0.0
C3635 C 0.18584 0.90146 0.76565 0.0
N3636 N 0.24191 0.86681 0.76761 0.0
N3637 N 0.19468 0.88511 0.76501 0.0
H3638 H 0.34855 0.96023 0.02449 0.0
H3639 H 0.45905 0.9385 0.04189 0.0
H3640 H 0.36418 0.90195 0.02514 0.0
H3641 H 0.4455 0.99565 0.02899 0.0
H3642 H 0.42405 0.92539 0.03748 0.0
H3643 H 0.3837 0.97407 0.02796 0.0
C3644 C 0.35937 0.95037 0.02541 0.0
C3645 C 0.35345 0.92991 0.02447 0.0
C3646 C 0.42868 0.94079 0.03554 0.0
C3647 C 0.39356 0.94559 0.0284 0.0
C3648 C 0.4487 0.94832 0.03811 0.0
C3649 C 0.45522 0.96822 0.03583 0.0
C3650 C 0.41497 0.95326 0.03082 0.0
C3651 C 0.4411 0.9802 0.03085 0.0
C3652 C 0.3794 0.95826 0.02726 0.0
C3653 C 0.36807 0.91779 0.02554 0.0
N3654 N 0.42159 0.97255 0.0286 0.0
N3655 N 0.38741 0.92581 0.02752 0.0
H3656 H 0.81253 0.60498 0.73208 0.0
H3657 H 0.7399 0.6673 0.78732 0.0
H3658 H 0.79986 0.60123 0.79413 0.0
H3659 H 0.76255 0.68068 0.73061 0.0
H3660 H 0.75614 0.63817 0.78671 0.0
H3661 H 0.78953 0.62855 0.72862 0.0
C3662 C 0.80496 0.6091 0.74499 0.0
C3663 C 0.80835 0.6012 0.7635 0.0
C3664 C 0.75733 0.64734 0.77426 0.0
C3665 C 0.78166 0.62788 0.75946 0.0
C3666 C 0.74793 0.66392 0.77452 0.0
C3667 C 0.7501 0.67666 0.75914 0.0
C3668 C 0.76895 0.64342 0.75851 0.0
C3669 C 0.76063 0.67141 0.7429 0.0
C3670 C 0.7917 0.62243 0.74294 0.0
C3671 C 0.79767 0.60674 0.77952 0.0
N3672 N 0.76988 0.65532 0.74313 0.0
N3673 N 0.7849 0.61979 0.77715 0.0
H3674 H 0.85195 0.57167 0.97429 0.0
H3675 H 0.9309 0.52327 0.04045 0.0
H3676 H 0.85127 0.56918 0.03862 0.0
H3677 H 0.93464 0.53422 0.97801 0.0
H3678 H 0.8992 0.53565 0.03947 0.0
H3679 H 0.87973 0.5536 0.97483 0.0
C3680 C 0.8575 0.56714 0.98852 0.0
C3681 C 0.84927 0.57205 0.00645 0.0
C3682 C 0.90691 0.53514 0.02596 0.0
C3683 C 0.88141 0.55149 0.00723 0.0
C3684 C 0.92491 0.52797 0.02649 0.0
C3685 C 0.93546 0.52788 0.00934 0.0
C3686 C 0.89944 0.54208 0.00812 0.0
C3687 C 0.9271 0.53423 0.99165 0.0
C3688 C 0.87348 0.5569 0.98884 0.0
C3689 C 0.85734 0.56599 0.02448 0.0
N3690 N 0.90968 0.54113 0.99154 0.0
N3691 N 0.87301 0.55609 0.02443 0.0
H3692 H 0.21382 0.10134 0.75496 0.0
H3693 H 0.2612 0.20716 0.80799 0.0
H3694 H 0.20586 0.11876 0.81697 0.0
H3695 H 0.23933 0.19709 0.74522 0.0
H3696 H 0.24896 0.17238 0.81219 0.0
H3697 H 0.23128 0.13431 0.752 0.0
C3698 C 0.21568 0.11202 0.76798 0.0
C3699 C 0.20792 0.10723 0.78615 0.0
C3700 C 0.24706 0.17783 0.7975 0.0
C3701 C 0.22855 0.14489 0.78293 0.0
C3702 C 0.25412 0.19754 0.79507 0.0
C3703 C 0.25113 0.20491 0.77627 0.0
C3704 C 0.23745 0.16544 0.78087 0.0
C3705 C 0.24176 0.19197 0.76 0.0
C3706 C 0.2258 0.13081 0.76628 0.0
C3707 C 0.21157 0.12163 0.80268 0.0
N3708 N 0.23529 0.17285 0.76266 0.0
N3709 N 0.22157 0.13985 0.80065 0.0
H3710 H 0.33667 0.91219 0.22521 0.0
H3711 H 0.27634 0.82046 0.27115 0.0
H3712 H 0.32122 0.9148 0.28665 0.0
H3713 H 0.30935 0.81517 0.21915 0.0
H3714 H 0.28857 0.85596 0.27523 0.0
H3715 H 0.32223 0.8774 0.22074 0.0
C3716 C 0.33005 0.90546 0.2377 0.0
C3717 C 0.33012 0.91634 0.25633 0.0
C3718 C 0.2931 0.84698 0.26295 0.0
C3719 C 0.31371 0.87655 0.25137 0.0
C3720 C 0.28609 0.82678 0.26057 0.0
C3721 C 0.2919 0.81488 0.24482 0.0
C3722 C 0.30574 0.8553 0.24931 0.0
C3723 C 0.30459 0.82378 0.23157 0.0
C3724 C 0.32195 0.88559 0.23519 0.0
C3725 C 0.32159 0.90685 0.2721 0.0
N3726 N 0.31103 0.84346 0.23407 0.0
N3727 N 0.31367 0.88746 0.26925 0.0
H3728 H 0.54883 0.37577 0.60631 0.0
H3729 H 0.50819 0.44496 0.52759 0.0
H3730 H 0.49686 0.35514 0.56565 0.0
H3731 H 0.54471 0.46595 0.58269 0.0
H3732 H 0.50622 0.41112 0.53776 0.0
H3733 H 0.55046 0.40813 0.59375 0.0
C3734 C 0.53787 0.378 0.59454 0.0
C3735 C 0.52273 0.36272 0.58696 0.0
C3736 C 0.51459 0.42323 0.54755 0.0
C3737 C 0.52435 0.39994 0.57265 0.0
C3738 C 0.51575 0.44248 0.54177 0.0
C3739 C 0.52659 0.4583 0.55433 0.0
C3740 C 0.52462 0.41991 0.5658 0.0
C3741 C 0.5361 0.45428 0.57254 0.0
C3742 C 0.5387 0.39654 0.58749 0.0
C3743 C 0.50871 0.36659 0.57197 0.0
N3744 N 0.53497 0.43554 0.57764 0.0
N3745 N 0.50986 0.38486 0.56523 0.0
H3746 H 0.41263 0.77685 0.32816 0.0
H3747 H 0.31191 0.72309 0.26765 0.0
H3748 H 0.39944 0.71365 0.31612 0.0
H3749 H 0.32107 0.78269 0.29558 0.0
H3750 H 0.34549 0.71979 0.28073 0.0
H3751 H 0.38067 0.77965 0.31145 0.0
C3752 C 0.40308 0.76354 0.32178 0.0
C3753 C 0.40875 0.74498 0.32347 0.0
C3754 C 0.3401 0.73358 0.28388 0.0
C3755 C 0.37189 0.74808 0.3045 0.0
C3756 C 0.32103 0.73551 0.27636 0.0
C3757 C 0.31368 0.75315 0.28065 0.0
C3758 C 0.35189 0.74951 0.29549 0.0
C3759 C 0.32606 0.76876 0.29205 0.0
C3760 C 0.38475 0.76515 0.31237 0.0
C3761 C 0.39557 0.72823 0.31525 0.0
N3762 N 0.34452 0.76657 0.29905 0.0
N3763 N 0.37771 0.73016 0.30609 0.0
H3764 H 0.02263 0.67609 0.06066 0.0
H3765 H 0.99859 0.56358 0.08504 0.0
H3766 H 0.0062 0.65688 0.11789 0.0
H3767 H 0.01196 0.58007 0.02599 0.0
H3768 H 0.00385 0.59812 0.0975 0.0
H3769 H 0.02062 0.64149 0.04765 0.0
C3770 C 0.0186 0.66464 0.07048 0.0
C3771 C 0.01469 0.66943 0.09045 0.0
C3772 C 0.00572 0.59428 0.08182 0.0
C3773 C 0.01254 0.62994 0.07575 0.0
C3774 C 0.00273 0.57449 0.07468 0.0
C3775 C 0.00469 0.56892 0.0544 0.0
C3776 C 0.01063 0.60876 0.0686 0.0
C3777 C 0.01027 0.58375 0.04174 0.0
C3778 C 0.01757 0.64492 0.06308 0.0
C3779 C 0.00972 0.65398 0.10253 0.0
N3780 N 0.01292 0.60306 0.04902 0.0
N3781 N 0.00878 0.63501 0.09499 0.0
H3782 H 0.09302 0.2142 0.82938 0.0
H3783 H 0.17941 0.27572 0.77613 0.0
H3784 H 0.09734 0.27661 0.82368 0.0
H3785 H 0.17834 0.21551 0.79014 0.0
H3786 H 0.14695 0.27534 0.78895 0.0
H3787 H 0.12191 0.21354 0.81062 0.0
C3788 C 0.09992 0.22775 0.82399 0.0
C3789 C 0.09276 0.24551 0.82818 0.0
C3790 C 0.15376 0.26217 0.78902 0.0
C3791 C 0.1261 0.2449 0.80685 0.0
C3792 C 0.17222 0.26234 0.78159 0.0
C3793 C 0.18164 0.24567 0.78223 0.0
C3794 C 0.14469 0.24517 0.79699 0.0
C3795 C 0.1717 0.22876 0.78954 0.0
C3796 C 0.1165 0.22738 0.81337 0.0
C3797 C 0.10252 0.26265 0.82105 0.0
N3798 N 0.15384 0.22898 0.79672 0.0
N3799 N 0.11874 0.26193 0.81078 0.0
H3800 H 0.55473 0.67871 0.95616 0.0
H3801 H 0.49059 0.59153 0.00592 0.0
H3802 H 0.49143 0.67229 0.9557 0.0
H3803 H 0.55191 0.5937 0.99571 0.0
H3804 H 0.49129 0.62395 0.99281 0.0
H3805 H 0.55451 0.65036 0.97582 0.0
C3806 C 0.54078 0.67146 0.96038 0.0
C3807 C 0.52306 0.67783 0.95418 0.0
C3808 C 0.50462 0.61738 0.99367 0.0
C3809 C 0.52268 0.64513 0.97654 0.0
C3810 C 0.50426 0.59898 0.00126 0.0
C3811 C 0.52117 0.5899 0.00171 0.0
C3812 C 0.52205 0.62671 0.98668 0.0
C3813 C 0.53847 0.60009 0.99541 0.0
C3814 C 0.54066 0.65519 0.97152 0.0
C3815 C 0.50541 0.66767 0.95989 0.0
N3816 N 0.53843 0.61788 0.98807 0.0
N3817 N 0.50565 0.65176 0.9707 0.0
H3818 H 0.11355 0.78548 0.68027 0.0
H3819 H 0.1961 0.75265 0.75526 0.0
H3820 H 0.09983 0.74002 0.72022 0.0
H3821 H 0.20822 0.78626 0.70445 0.0
H3822 H 0.16075 0.74873 0.74438 0.0
H3823 H 0.14837 0.78751 0.69118 0.0
C3824 C 0.11788 0.77604 0.6915 0.0
C3825 C 0.10378 0.76266 0.69946 0.0
C3826 C 0.17122 0.75684 0.73559 0.0
C3827 C 0.14374 0.7647 0.71186 0.0
C3828 C 0.19136 0.75906 0.74177 0.0
C3829 C 0.20512 0.76987 0.7308 0.0
C3830 C 0.1649 0.76565 0.71848 0.0
C3831 C 0.19818 0.77788 0.71345 0.0
C3832 C 0.13779 0.77707 0.69759 0.0
C3833 C 0.11027 0.75049 0.71367 0.0
N3834 N 0.1786 0.77571 0.70793 0.0
N3835 N 0.12982 0.75186 0.71951 0.0
H3836 H 0.99053 0.36076 0.45457 0.0
H3837 H 0.04311 0.45734 0.52305 0.0
H3838 H 0.05273 0.37039 0.47366 0.0
H3839 H 0.98635 0.45201 0.48922 0.0
H3840 H 0.0458 0.42371 0.50964 0.0
H3841 H 0.98768 0.39237 0.47197 0.0
C3842 C 0.00358 0.36944 0.46265 0.0
C3843 C 0.02189 0.36289 0.46272 0.0
C3844 C 0.03275 0.42994 0.50528 0.0
C3845 C 0.01878 0.39937 0.48249 0.0
C3846 C 0.03116 0.44904 0.51299 0.0
C3847 C 0.01453 0.45749 0.50712 0.0
C3848 C 0.0175 0.41925 0.49187 0.0
C3849 C 0.9995 0.44615 0.494 0.0
C3850 C 0.00196 0.38758 0.47246 0.0
C3851 C 0.03836 0.37498 0.47311 0.0
N3852 N 0.00136 0.42765 0.48683 0.0
N3853 N 0.03643 0.39269 0.48262 0.0
H3854 H 0.42134 0.25679 0.22699 0.0
H3855 H 0.30547 0.24995 0.19922 0.0
H3856 H 0.39364 0.25744 0.16688 0.0
H3857 H 0.33091 0.25222 0.2606 0.0
H3858 H 0.33829 0.25455 0.18782 0.0
H3859 H 0.38905 0.25641 0.24024 0.0
C3860 C 0.40851 0.25688 0.21659 0.0
C3861 C 0.41024 0.25717 0.19577 0.0
C3862 C 0.33682 0.25416 0.20381 0.0
C3863 C 0.37337 0.25688 0.21083 0.0
C3864 C 0.31803 0.25151 0.21035 0.0
C3865 C 0.31546 0.25052 0.23088 0.0
C3866 C 0.35333 0.25566 0.21785 0.0
C3867 C 0.33228 0.25288 0.24462 0.0
C3868 C 0.39012 0.25678 0.22418 0.0
C3869 C 0.39315 0.25751 0.18304 0.0
N3870 N 0.35057 0.25515 0.23783 0.0
N3871 N 0.3755 0.25728 0.19076 0.0
H3872 H 0.59129 0.53748 0.38643 0.0
H3873 H 0.51178 0.48146 0.45225 0.0
H3874 H 0.5607 0.47873 0.36834 0.0
H3875 H 0.55223 0.53429 0.4736 0.0
H3876 H 0.52663 0.48139 0.41991 0.0
H3877 H 0.57399 0.53785 0.41689 0.0
C3878 C 0.58077 0.52471 0.38876 0.0
C3879 C 0.57744 0.50806 0.37477 0.0
C3880 C 0.53219 0.49297 0.43172 0.0
C3881 C 0.55767 0.50828 0.40989 0.0
C3882 C 0.52369 0.49306 0.45012 0.0
C3883 C 0.53086 0.50782 0.46571 0.0
C3884 C 0.54777 0.50788 0.42887 0.0
C3885 C 0.54633 0.52249 0.46213 0.0
C3886 C 0.57099 0.52487 0.40626 0.0
C3887 C 0.56386 0.4918 0.37883 0.0
N3888 N 0.55422 0.52214 0.44415 0.0
N3889 N 0.55445 0.49231 0.39602 0.0
H3890 H 0.21035 0.80053 0.09902 0.0
H3891 H 0.27914 0.76224 0.18378 0.0
H3892 H 0.27388 0.81296 0.10355 0.0
H3893 H 0.21599 0.74509 0.17549 0.0
H3894 H 0.27784 0.77787 0.15224 0.0
H3895 H 0.21231 0.77768 0.125 0.0
C3896 C 0.22472 0.79833 0.10533 0.0
C3897 C 0.24198 0.80888 0.09923 0.0
C3898 C 0.26429 0.77044 0.15716 0.0
C3899 C 0.24432 0.78283 0.12917 0.0
C3900 C 0.26504 0.76142 0.17514 0.0
C3901 C 0.24761 0.75257 0.18246 0.0
C3902 C 0.24598 0.77075 0.14649 0.0
C3903 C 0.22978 0.75189 0.17055 0.0
C3904 C 0.22583 0.7853 0.12022 0.0
C3905 C 0.26018 0.80552 0.10811 0.0
N3906 N 0.22939 0.76114 0.15331 0.0
N3907 N 0.26087 0.79291 0.12272 0.0
H3908 H 0.96011 0.56182 0.87515 0.0
H3909 H 0.98055 0.48837 0.95775 0.0
H3910 H 0.94089 0.499 0.86722 0.0
H3911 H 0.01437 0.54653 0.95996 0.0
H3912 H 0.96536 0.49279 0.9247 0.0
H3913 H 0.97931 0.5576 0.90671 0.0
C3914 C 0.95996 0.54718 0.88004 0.0
C3915 C 0.94897 0.53073 0.86855 0.0
C3916 C 0.97622 0.50457 0.93224 0.0
C3917 C 0.97076 0.52582 0.90436 0.0
C3918 C 0.98488 0.50205 0.95114 0.0
C3919 C 0.99865 0.51715 0.96156 0.0
C3920 C 0.98109 0.52247 0.92376 0.0
C3921 C 0.00385 0.53453 0.95229 0.0
C3922 C 0.97101 0.54477 0.89791 0.0
C3923 C 0.94935 0.51207 0.87545 0.0
N3924 N 0.99485 0.53685 0.93393 0.0
N3925 N 0.95996 0.51016 0.89291 0.0
H3926 H 0.29283 0.16956 0.61943 0.0
H3927 H 0.26164 0.24916 0.69955 0.0
H3928 H 0.2534 0.20988 0.6027 0.0
H3929 H 0.29388 0.20244 0.71482 0.0
H3930 H 0.25882 0.2361 0.66396 0.0
H3931 H 0.2942 0.18283 0.65441 0.0
C3932 C 0.28458 0.18136 0.6231 0.0
C3933 C 0.27311 0.18873 0.60807 0.0
C3934 C 0.26643 0.22871 0.67517 0.0
C3935 C 0.27438 0.20388 0.64834 0.0
C3936 C 0.26804 0.23614 0.69545 0.0
C3937 C 0.27807 0.22693 0.71019 0.0
C3938 C 0.27501 0.21204 0.66966 0.0
C3939 C 0.28607 0.21011 0.70404 0.0
C3940 C 0.28523 0.18883 0.64314 0.0
C3941 C 0.26236 0.20372 0.61384 0.0
N3942 N 0.28443 0.2033 0.6843 0.0
N3943 N 0.26331 0.21088 0.63353 0.0
H3944 H 0.56268 0.51855 0.18835 0.0
H3945 H 0.58112 0.49889 0.07213 0.0
H3946 H 0.61588 0.50175 0.16696 0.0
H3947 H 0.52491 0.50961 0.09112 0.0
H3948 H 0.59471 0.50328 0.10712 0.0
H3949 H 0.54896 0.51789 0.15325 0.0
C3950 C 0.57147 0.5147 0.17633 0.0
C3951 C 0.59052 0.51027 0.18068 0.0
C3952 C 0.57941 0.50477 0.10372 0.0
C3953 C 0.57501 0.50974 0.14055 0.0
C3954 C 0.57163 0.50229 0.08369 0.0
C3955 C 0.55179 0.50371 0.0787 0.0
C3956 C 0.56729 0.50862 0.11904 0.0
C3957 C 0.54028 0.50836 0.09433 0.0
C3958 C 0.56367 0.51445 0.15631 0.0
C3959 C 0.60129 0.50563 0.16444 0.0
N3960 N 0.54817 0.51051 0.11387 0.0
N3961 N 0.59339 0.50547 0.14519 0.0
H3962 H 0.21235 0.80512 0.90896 0.0
H3963 H 0.28632 0.7847 0.82701 0.0
H3964 H 0.27566 0.81773 0.9202 0.0
H3965 H 0.22575 0.75633 0.82043 0.0
H3966 H 0.28214 0.79716 0.86125 0.0
H3967 H 0.21615 0.78768 0.87632 0.0
C3968 C 0.22701 0.80416 0.90459 0.0
C3969 C 0.24371 0.81286 0.91731 0.0
C3970 C 0.26977 0.78806 0.85247 0.0
C3971 C 0.24814 0.79304 0.88019 0.0
C3972 C 0.27215 0.78097 0.8329 0.0
C3973 C 0.25633 0.76957 0.82092 0.0
C3974 C 0.2513 0.78404 0.86006 0.0
C3975 C 0.23832 0.76503 0.82929 0.0
C3976 C 0.22917 0.7941 0.88607 0.0
C3977 C 0.26237 0.81105 0.91102 0.0
N3978 N 0.23618 0.77253 0.84833 0.0
N3979 N 0.26406 0.80149 0.89288 0.0
H3980 H 0.94749 0.49632 0.68599 0.0
H3981 H 0.0016 0.55561 0.60341 0.0
H3982 H 0.95583 0.55962 0.68597 0.0
H3983 H 0.99864 0.49286 0.60518 0.0
H3984 H 0.98881 0.55757 0.63637 0.0
H3985 H 0.96917 0.49474 0.65875 0.0
C3986 C 0.95391 0.50988 0.68028 0.0
C3987 C 0.94964 0.52812 0.68809 0.0
C3988 C 0.99122 0.54338 0.62978 0.0
C3989 C 0.97462 0.52644 0.65713 0.0
C3990 C 0.99858 0.54228 0.61099 0.0
C3991 C 0.00098 0.52403 0.60159 0.0
C3992 C 0.98582 0.52603 0.63908 0.0
C3993 C 0.99698 0.5072 0.61201 0.0
C3994 C 0.96643 0.50898 0.66487 0.0
C3995 C 0.95873 0.54525 0.68047 0.0
N3996 N 0.98922 0.50855 0.63011 0.0
N3997 N 0.97061 0.54396 0.6653 0.0
H3998 H 0.29431 0.21773 0.42274 0.0
H3999 H 0.24506 0.21592 0.31 0.0
H4000 H 0.24551 0.17488 0.39552 0.0
H4001 H 0.28933 0.26382 0.33667 0.0
H4002 H 0.24629 0.20061 0.34138 0.0
H4003 H 0.29406 0.23458 0.3916 0.0
C4004 C 0.28359 0.21185 0.41024 0.0
C4005 C 0.26982 0.19492 0.41181 0.0
C4006 C 0.25575 0.21449 0.34051 0.0
C4007 C 0.26944 0.2141 0.37626 0.0
C4008 C 0.25508 0.2233 0.3225 0.0
C4009 C 0.26713 0.24126 0.32061 0.0
C4010 C 0.26862 0.22355 0.35699 0.0
C4011 C 0.27977 0.25 0.33745 0.0
C4012 C 0.28339 0.22153 0.39253 0.0
C4013 C 0.25618 0.18804 0.39518 0.0
N4014 N 0.28023 0.24102 0.35497 0.0
N4015 N 0.25638 0.19762 0.37818 0.0
H4016 H 0.33765 0.5462 0.52438 0.0
H4017 H 0.43523 0.52453 0.47512 0.0
H4018 H 0.36213 0.57863 0.47696 0.0
H4019 H 0.42346 0.51461 0.53628 0.0
H4020 H 0.40304 0.5357 0.46989 0.0
H4021 H 0.36389 0.52609 0.52301 0.0
C4022 C 0.34847 0.54907 0.51361 0.0
C4023 C 0.3479 0.5645 0.5011 0.0
C4024 C 0.40737 0.53062 0.48428 0.0
C4025 C 0.3777 0.54112 0.49916 0.0
C4026 C 0.42557 0.52409 0.48719 0.0
C4027 C 0.43184 0.51869 0.50615 0.0
C4028 C 0.39542 0.53138 0.50036 0.0
C4029 C 0.41907 0.51871 0.52146 0.0
C4030 C 0.36334 0.53747 0.51275 0.0
C4031 C 0.36195 0.56697 0.48694 0.0
N4032 N 0.40148 0.52506 0.51827 0.0
N4033 N 0.37642 0.55554 0.48649 0.0
H4034 H 0.86373 0.93147 0.50516 0.0
H4035 H 0.95298 0.01637 0.54706 0.0
H4036 H 0.86101 0.97032 0.55835 0.0
H4037 H 0.95772 0.96768 0.50397 0.0
H4038 H 0.9185 0.0021 0.54982 0.0
H4039 H 0.8974 0.94718 0.50267 0.0
C4040 C 0.87018 0.94345 0.51624 0.0
C4041 C 0.8595 0.94967 0.53192 0.0
C4042 C 0.92716 0.9946 0.53979 0.0
C4043 C 0.89828 0.96765 0.5293 0.0
C4044 C 0.94679 0.00275 0.53816 0.0
C4045 C 0.95826 0.99321 0.52527 0.0
C4046 C 0.91898 0.97694 0.52828 0.0
C4047 C 0.9495 0.97557 0.51413 0.0
C4048 C 0.88948 0.95233 0.5149 0.0
C4049 C 0.86878 0.96502 0.54608 0.0
N4050 N 0.93043 0.96808 0.51586 0.0
N4051 N 0.88766 0.97356 0.54441 0.0
H4052 H 0.80523 0.09141 0.2712 0.0
H4053 H 0.79507 0.19236 0.22257 0.0
H4054 H 0.84359 0.11722 0.22902 0.0
H4055 H 0.76676 0.17638 0.27572 0.0
H4056 H 0.80875 0.16182 0.22154 0.0
H4057 H 0.78729 0.11965 0.27019 0.0
C4058 C 0.80979 0.10295 0.26165 0.0
C4059 C 0.826 0.10206 0.25027 0.0
C4060 C 0.79948 0.1649 0.2334 0.0
C4061 C 0.80555 0.1342 0.24896 0.0
C4062 C 0.79157 0.18234 0.23397 0.0
C4063 C 0.77988 0.18707 0.24939 0.0
C4064 C 0.79572 0.15193 0.24833 0.0
C4065 C 0.77574 0.17336 0.2636 0.0
C4066 C 0.79961 0.11906 0.26115 0.0
C4067 C 0.83136 0.11744 0.23824 0.0
N4068 N 0.78378 0.15642 0.26281 0.0
N4069 N 0.82116 0.13282 0.23789 0.0
H4070 H 0.6749 0.04529 0.02852 0.0
H4071 H 0.56739 0.07235 0.0056 0.0
H4072 H 0.66194 0.10473 0.03134 0.0
H4073 H 0.57723 0.01342 0.01604 0.0
H4074 H 0.60232 0.08416 0.01436 0.0
H4075 H 0.63947 0.0329 0.02335 0.0
C4076 C 0.6646 0.05571 0.02815 0.0
C4077 C 0.67136 0.07606 0.03038 0.0
C4078 C 0.59687 0.06865 0.01485 0.0
C4079 C 0.63096 0.06205 0.02442 0.0
C4080 C 0.57692 0.06188 0.00976 0.0
C4081 C 0.56943 0.04185 0.00997 0.0
C4082 C 0.60952 0.05529 0.02 0.0
C4083 C 0.58243 0.02899 0.01566 0.0
C4084 C 0.64441 0.04864 0.0253 0.0
C4085 C 0.65739 0.08893 0.02995 0.0
N4086 N 0.60192 0.03591 0.02031 0.0
N4087 N 0.63789 0.0817 0.02687 0.0
H4088 H 0.20066 0.41888 0.31304 0.0
H4089 H 0.24696 0.34151 0.24457 0.0
H4090 H 0.2086 0.42305 0.24993 0.0
H4091 H 0.24813 0.34046 0.30911 0.0
H4092 H 0.2358 0.37338 0.24729 0.0
H4093 H 0.22007 0.39181 0.31299 0.0
C4094 C 0.20656 0.41419 0.29922 0.0
C4095 C 0.20289 0.4232 0.28143 0.0
C4096 C 0.23873 0.36642 0.26095 0.0
C4097 C 0.22518 0.39241 0.28132 0.0
C4098 C 0.24515 0.34823 0.25939 0.0
C4099 C 0.24834 0.3384 0.27664 0.0
C4100 C 0.23503 0.37469 0.27988 0.0
C4101 C 0.24587 0.3477 0.29548 0.0
C4102 C 0.21776 0.39886 0.29925 0.0
C4103 C 0.21117 0.41673 0.26406 0.0
N4104 N 0.23899 0.36524 0.2966 0.0
N4105 N 0.22174 0.40166 0.26442 0.0
H4106 H 0.1878 0.46959 0.01991 0.0
H4107 H 0.07352 0.45583 0.03481 0.0
H4108 H 0.15218 0.41328 0.02411 0.0
H4109 H 0.10098 0.50551 0.00604 0.0
H4110 H 0.10386 0.44194 0.03473 0.0
H4111 H 0.15767 0.48483 0.01811 0.0
C4112 C 0.17365 0.46046 0.02042 0.0
C4113 C 0.17244 0.44014 0.02214 0.0
C4114 C 0.1033 0.45586 0.02838 0.0
C4115 C 0.13818 0.45742 0.02026 0.0
C4116 C 0.08599 0.4639 0.02851 0.0
C4117 C 0.0847 0.4819 0.02042 0.0
C4118 C 0.11969 0.46595 0.02034 0.0
C4119 C 0.10136 0.49157 0.01237 0.0
C4120 C 0.15652 0.46913 0.01928 0.0
C4121 C 0.15378 0.42894 0.0226 0.0
N4122 N 0.11829 0.48351 0.01264 0.0
N4123 N 0.13744 0.43775 0.02184 0.0
H4124 H 0.83573 0.91384 0.28046 0.0
H4125 H 0.75613 0.82086 0.23559 0.0
H4126 H 0.80119 0.91286 0.22357 0.0
H4127 H 0.79727 0.82172 0.28788 0.0
H4128 H 0.7701 0.85522 0.23186 0.0
H4129 H 0.81941 0.88078 0.28437 0.0
C4130 C 0.82454 0.90673 0.26885 0.0
C4131 C 0.81973 0.91623 0.25173 0.0
C4132 C 0.77598 0.84784 0.24416 0.0
C4133 C 0.80109 0.87799 0.25597 0.0
C4134 C 0.76797 0.82829 0.24635 0.0
C4135 C 0.77559 0.81837 0.26202 0.0
C4136 C 0.79158 0.8575 0.25784 0.0
C4137 C 0.79097 0.82868 0.27549 0.0
C4138 C 0.81531 0.88774 0.27102 0.0
C4139 C 0.80543 0.90603 0.23696 0.0
N4140 N 0.79843 0.8476 0.27307 0.0
N4141 N 0.79657 0.88744 0.23943 0.0
H4142 H 0.72237 0.09475 0.77517 0.0
H4143 H 0.69511 0.20126 0.76603 0.0
H4144 H 0.6664 0.10474 0.74773 0.0
H4145 H 0.75543 0.19109 0.77266 0.0
H4146 H 0.68433 0.16583 0.75919 0.0
H4147 H 0.73502 0.12988 0.77471 0.0
C4148 C 0.71281 0.10433 0.76894 0.0
C4149 C 0.6933 0.09689 0.76156 0.0
C4150 C 0.69995 0.17134 0.76186 0.0
C4151 C 0.70758 0.13694 0.76105 0.0
C4152 C 0.70609 0.19154 0.7658 0.0
C4153 C 0.72615 0.19902 0.77002 0.0
C4154 C 0.71395 0.1585 0.76256 0.0
C4155 C 0.73981 0.18585 0.76943 0.0
C4156 C 0.72006 0.12431 0.76855 0.0
C4157 C 0.68157 0.10986 0.75346 0.0
N4158 N 0.73344 0.16614 0.76611 0.0
N4159 N 0.68882 0.12929 0.75364 0.0
loop_
_geom_bond_atom_site_label_1
_geom_bond_atom_site_label_2
_geom_bond_distance
_geom_bond_site_symmetry_2
_ccdc_geom_bond_type
Li0 N17 1.990 . S
Li0 O60 1.956 1_655 S
Li0 O61 1.970 . S
Li0 O62 1.961 1_655 S
Li1 N25 1.990 . S
Li1 O60 1.970 . S
Li1 O61 1.956 1_455 S
Li1 O63 1.961 . S
Li2 N47 1.990 . S
Li2 O60 1.961 . S
Li2 O62 1.956 . S
Li2 O63 1.970 . S
Li3 N53 1.990 . S
Li3 O61 1.961 1_455 S
Li3 O62 1.970 . S
Li3 O63 1.956 . S
C4 C6 1.348 . S
C4 C7 1.356 . S
C4 O60 1.325 . S
N5 C8 1.314 . S
N5 C9 1.279 . S
C6 C4 1.348 . S
C6 C8 1.353 . S
C6 H64 0.929 . S
C7 C4 1.356 . S
C7 C9 1.358 . S
C7 H65 0.930 . S
C8 N5 1.314 . S
C8 C6 1.353 . S
C8 H66 0.930 . S
C9 N5 1.279 . S
C9 C7 1.358 . S
C9 H67 0.930 . S
C10 C13 1.348 . S
C10 C14 1.356 . S
C10 O61 1.325 . S
C11 N12 1.279 . S
C11 C14 1.358 . S
C11 H68 0.930 . S
N12 C11 1.279 . S
N12 C15 1.314 . S
C13 C10 1.348 . S
C13 C15 1.353 . S
C13 H69 0.929 . S
C14 C10 1.356 . S
C14 C11 1.358 . S
C14 H70 0.930 . S
C15 N12 1.314 . S
C15 C13 1.353 . S
C15 H71 0.930 . S
C16 N17 1.314 . S
C16 C21 1.353 . S
C16 H22 0.930 . S
N17 Li0 1.990 . S
N17 C16 1.314 . S
N17 C19 1.279 . S
C18 C19 1.358 . S
C18 C20 1.356 . S
C18 H72 0.930 . S
C19 N17 1.279 . S
C19 C18 1.358 . S
C19 H23 0.930 . S
C20 C18 1.356 . S
C20 C21 1.348 . S
C21 C16 1.353 . S
C21 C20 1.348 . S
C21 H73 0.929 . S
H22 C16 0.930 . S
H23 C19 0.930 . S
C24 N25 1.314 . S
C24 C26 1.353 . S
C24 H30 0.930 . S
N25 Li1 1.990 . S
N25 C24 1.314 . S
N25 C28 1.279 . S
C26 C24 1.353 . S
C26 C29 1.348 . S
C26 H74 0.929 . S
C27 C28 1.358 . S
C27 C29 1.356 . S
C27 H75 0.930 1_455 S
C28 N25 1.279 . S
C28 C27 1.358 . S
C28 H31 0.930 1_455 S
C29 C26 1.348 . S
C29 C27 1.356 . S
H30 C24 0.930 . S
H31 C28 0.930 1_655 S
C32 C34 1.348 . S
C32 C35 1.356 . S
C32 O62 1.325 . S
N33 C36 1.314 . S
N33 C37 1.279 . S
C34 C32 1.348 . S
C34 C36 1.353 . S
C34 H76 0.929 . S
C35 C32 1.356 . S
C35 C37 1.358 . S
C35 H77 0.930 . S
C36 N33 1.314 . S
C36 C34 1.353 . S
C36 H78 0.930 . S
C37 N33 1.279 . S
C37 C35 1.358 . S
C37 H79 0.930 . S
C38 C39 1.348 . S
C38 C40 1.356 . S
C38 O63 1.325 . S
C39 C38 1.348 . S
C39 C41 1.353 . S
C39 H80 0.929 . S
C40 C38 1.356 . S
C40 C42 1.358 . S
C40 H81 0.930 . S
C41 C39 1.353 . S
C41 N43 1.314 . S
C41 H82 0.930 . S
C42 C40 1.358 . S
C42 N43 1.279 . S
C42 H83 0.930 . S
N43 C41 1.314 . S
N43 C42 1.279 . S
C44 C46 1.353 . S
C44 N47 1.314 . S
C44 H50 0.930 . S
C45 N47 1.279 . S
C45 C48 1.358 . S
C45 H51 0.930 . S
C46 C44 1.353 . S
C46 C49 1.348 . S
C46 H84 0.929 . S
N47 Li2 1.990 . S
N47 C44 1.314 . S
N47 C45 1.279 . S
C48 C45 1.358 . S
C48 C49 1.356 . S
C48 H85 0.930 . S
C49 C46 1.348 . S
C49 C48 1.356 . S
H50 C44 0.930 . S
H51 C45 0.930 . S
C52 N53 1.345 . S
C52 C54 1.353 1_455 S
C52 H58 0.897 1_455 S
N53 Li3 1.990 . S
N53 C52 1.345 . S
N53 C56 1.279 . S
C54 C52 1.353 1_655 S
C54 C57 1.348 1_655 S
C54 H86 0.929 . S
C55 C56 1.358 . S
C55 C57 1.356 . S
C55 H87 0.930 . S
C56 N53 1.279 . S
C56 C55 1.358 . S
C56 H59 0.930 . S
C57 C54 1.348 1_455 S
C57 C55 1.356 . S
H58 C52 0.897 1_655 S
H59 C56 0.930 . S
O60 Li0 1.956 1_455 S
O60 Li1 1.970 . S
O60 Li2 1.961 . S
O60 C4 1.325 . S
O61 Li0 1.970 . S
O61 Li1 1.956 1_655 S
O61 Li3 1.961 1_655 S
O61 C10 1.325 . S
O62 Li0 1.961 1_455 S
O62 Li2 1.956 . S
O62 Li3 1.970 . S
O62 C32 1.325 . S
O63 Li1 1.961 . S
O63 Li2 1.970 . S
O63 Li3 1.956 . S
O63 C38 1.325 . S
H64 C6 0.929 . S
H65 C7 0.930 . S
H66 C8 0.930 . S
H67 C9 0.930 . S
H68 C11 0.930 . S
H69 C13 0.929 . S
H70 C14 0.930 . S
H71 C15 0.930 . S
H72 C18 0.930 . S
H73 C21 0.929 . S
H74 C26 0.929 . S
H75 C27 0.930 1_655 S
H76 C34 0.929 . S
H77 C35 0.930 . S
H78 C36 0.930 . S
H79 C37 0.930 . S
H80 C39 0.929 . S
H81 C40 0.930 . S
H82 C41 0.930 . S
H83 C42 0.930 . S
H84 C46 0.929 . S
H85 C48 0.930 . S
H86 C54 0.929 . S
H87 C55 0.930 . S
Li88 N105 1.990 . S
Li88 O148 1.956 . S
Li88 O149 1.970 . S
Li88 O150 1.961 1_455 S
Li89 N113 1.990 . S
Li89 O148 1.970 . S
Li89 O149 1.956 . S
Li89 O151 1.961 . S
Li90 N135 1.995 1_455 S
Li90 O148 1.961 . S
Li90 O150 1.956 1_455 S
Li90 O151 1.970 . S
Li91 N141 1.990 . S
Li91 O149 1.961 1_655 S
Li91 O150 1.970 . S
Li91 O151 1.956 1_655 S
C92 C94 1.348 . S
C92 C95 1.356 . S
C92 O148 1.325 . S
N93 C96 1.314 . S
N93 C97 1.279 . S
C94 C92 1.348 . S
C94 C96 1.353 . S
C94 H152 0.929 . S
C95 C92 1.356 . S
C95 C97 1.358 . S
C95 H153 0.930 . S
C96 N93 1.314 . S
C96 C94 1.353 . S
C96 H154 0.930 . S
C97 N93 1.279 . S
C97 C95 1.358 . S
C97 H155 0.930 . S
C98 C101 1.348 . S
C98 C102 1.356 . S
C98 O149 1.325 . S
C99 N100 1.279 . S
C99 C102 1.358 . S
C99 H156 0.930 . S
N100 C99 1.279 . S
N100 C103 1.314 . S
C101 C98 1.348 . S
C101 C103 1.353 . S
C101 H157 0.929 . S
C102 C98 1.356 . S
C102 C99 1.358 . S
C102 H158 0.930 . S
C103 N100 1.314 . S
C103 C101 1.353 . S
C103 H159 0.930 . S
C104 N105 1.314 1_655 S
C104 C109 1.353 . S
C104 H110 0.930 . S
N105 Li88 1.990 . S
N105 C104 1.314 1_455 S
N105 C107 1.279 . S
C106 C107 1.358 . S
C106 C108 1.356 . S
C106 H160 0.930 . S
C107 N105 1.279 . S
C107 C106 1.358 . S
C107 H111 0.930 . S
C108 C106 1.356 . S
C108 C109 1.348 1_455 S
C109 C104 1.353 . S
C109 C108 1.348 1_655 S
C109 H161 0.929 . S
H110 C104 0.930 . S
H111 C107 0.930 . S
C112 N113 1.314 . S
C112 C114 1.353 . S
C112 H118 0.930 . S
N113 Li89 1.990 . S
N113 C112 1.314 . S
N113 C116 1.279 . S
C114 C112 1.353 . S
C114 C117 1.348 . S
C114 H162 0.929 . S
C115 C116 1.358 . S
C115 C117 1.356 . S
C115 H163 0.930 . S
C116 N113 1.279 . S
C116 C115 1.358 . S
C116 H119 0.930 . S
C117 C114 1.348 . S
C117 C115 1.356 . S
H118 C112 0.930 . S
H119 C116 0.930 . S
C120 C122 1.348 . S
C120 C123 1.356 . S
C120 O150 1.325 . S
N121 C124 1.314 . S
N121 C125 1.279 . S
C122 C120 1.348 . S
C122 C124 1.353 . S
C122 H164 0.929 . S
C123 C120 1.356 . S
C123 C125 1.358 . S
C123 H165 0.930 . S
C124 N121 1.314 . S
C124 C122 1.353 . S
C124 H166 0.930 . S
C125 N121 1.279 . S
C125 C123 1.358 . S
C125 H167 0.930 . S
C126 C127 1.348 1_455 S
C126 C128 1.356 . S
C126 O151 1.325 . S
C127 C126 1.348 1_655 S
C127 C129 1.353 . S
C127 H168 0.929 . S
C128 C126 1.356 . S
C128 C130 1.358 . S
C128 H169 0.930 . S
C129 C127 1.353 . S
C129 N131 1.304 1_655 S
C129 H170 0.930 . S
C130 C128 1.358 . S
C130 N131 1.290 . S
C130 H171 0.930 . S
N131 C129 1.304 1_455 S
N131 C130 1.290 . S
C132 C134 1.353 . S
C132 N135 1.264 1_455 S
C132 H138 0.930 . S
C133 N135 1.324 . S
C133 C136 1.358 . S
C133 H139 0.930 . S
C134 C132 1.353 . S
C134 C137 1.348 1_455 S
C134 H172 0.929 . S
N135 Li90 1.995 1_655 S
N135 C132 1.264 1_655 S
N135 C133 1.324 . S
C136 C133 1.358 . S
C136 C137 1.356 . S
C136 H173 0.930 . S
C137 C134 1.348 1_655 S
C137 C136 1.356 . S
H138 C132 0.930 . S
H139 C133 0.930 . S
C140 N141 1.314 . S
C140 C142 1.353 . S
C140 H146 0.930 . S
N141 Li91 1.990 . S
N141 C140 1.314 . S
N141 C144 1.279 . S
C142 C140 1.353 . S
C142 C145 1.348 . S
C142 H174 0.929 . S
C143 C144 1.358 . S
C143 C145 1.356 . S
C143 H175 0.930 . S
C144 N141 1.279 . S
C144 C143 1.358 . S
C144 H147 0.930 . S
C145 C142 1.348 . S
C145 C143 1.356 . S
H146 C140 0.930 . S
H147 C144 0.930 . S
O148 Li88 1.956 . S
O148 Li89 1.970 . S
O148 Li90 1.961 . S
O148 C92 1.325 . S
O149 Li88 1.970 . S
O149 Li89 1.956 . S
O149 Li91 1.961 1_455 S
O149 C98 1.325 . S
O150 Li88 1.961 1_655 S
O150 Li90 1.956 1_655 S
O150 Li91 1.970 . S
O150 C120 1.325 . S
O151 Li89 1.961 . S
O151 Li90 1.970 . S
O151 Li91 1.956 1_455 S
O151 C126 1.325 . S
H152 C94 0.929 . S
H153 C95 0.930 . S
H154 C96 0.930 . S
H155 C97 0.930 . S
H156 C99 0.930 . S
H157 C101 0.929 . S
H158 C102 0.930 . S
H159 C103 0.930 . S
H160 C106 0.930 . S
H161 C109 0.929 . S
H162 C114 0.929 . S
H163 C115 0.930 . S
H164 C122 0.929 . S
H165 C123 0.930 . S
H166 C124 0.930 . S
H167 C125 0.930 . S
H168 C127 0.929 . S
H169 C128 0.930 . S
H170 C129 0.930 . S
H171 C130 0.930 . S
H172 C134 0.929 . S
H173 C136 0.930 . S
H174 C142 0.929 . S
H175 C143 0.930 . S
Li176 N193 1.990 . S
Li176 O236 1.956 . S
Li176 O237 1.970 . S
Li176 O238 1.961 . S
Li177 N201 1.990 . S
Li177 O236 1.970 . S
Li177 O237 1.956 . S
Li177 O239 1.961 . S
Li178 N223 1.990 . S
Li178 O236 1.961 . S
Li178 O238 1.956 . S
Li178 O239 1.970 . S
Li179 N229 1.990 . S
Li179 O237 1.961 . S
Li179 O238 1.970 . S
Li179 O239 1.956 . S
C180 C182 1.348 . S
C180 C183 1.356 . S
C180 O236 1.325 . S
N181 C184 1.314 . S
N181 C185 1.279 . S
C182 C180 1.348 . S
C182 C184 1.353 . S
C182 H240 0.929 . S
C183 C180 1.356 . S
C183 C185 1.358 . S
C183 H241 0.930 . S
C184 N181 1.314 . S
C184 C182 1.353 . S
C184 H242 0.930 . S
C185 N181 1.279 . S
C185 C183 1.358 . S
C185 H243 0.930 . S
C186 C189 1.348 . S
C186 C190 1.356 . S
C186 O237 1.325 . S
C187 N188 1.279 . S
C187 C190 1.358 . S
C187 H244 0.930 . S
N188 C187 1.279 . S
N188 C191 1.314 . S
C189 C186 1.348 . S
C189 C191 1.353 . S
C189 H245 0.929 . S
C190 C186 1.356 . S
C190 C187 1.358 . S
C190 H246 0.930 . S
C191 N188 1.314 . S
C191 C189 1.353 . S
C191 H247 0.930 . S
C192 N193 1.314 . S
C192 C197 1.353 . S
C192 H198 0.930 . S
N193 Li176 1.990 . S
N193 C192 1.314 . S
N193 C195 1.279 . S
C194 C195 1.358 . S
C194 C196 1.356 . S
C194 H248 0.930 . S
C195 N193 1.279 . S
C195 C194 1.358 . S
C195 H199 0.930 . S
C196 C194 1.356 . S
C196 C197 1.348 . S
C197 C192 1.353 . S
C197 C196 1.348 . S
C197 H249 0.929 . S
H198 C192 0.930 . S
H199 C195 0.930 . S
C200 N201 1.314 . S
C200 C202 1.353 . S
C200 H206 0.930 . S
N201 Li177 1.990 . S
N201 C200 1.314 . S
N201 C204 1.279 . S
C202 C200 1.353 . S
C202 C205 1.348 . S
C202 H250 0.929 . S
C203 C204 1.358 . S
C203 C205 1.356 . S
C203 H251 0.930 . S
C204 N201 1.279 . S
C204 C203 1.358 . S
C204 H207 0.930 . S
C205 C202 1.348 . S
C205 C203 1.356 . S
H206 C200 0.930 . S
H207 C204 0.930 . S
C208 C210 1.348 . S
C208 C211 1.356 . S
C208 O238 1.325 . S
N209 C212 1.314 . S
N209 C213 1.279 . S
C210 C208 1.348 . S
C210 C212 1.353 . S
C210 H252 0.929 . S
C211 C208 1.356 . S
C211 C213 1.358 . S
C211 H253 0.930 . S
C212 N209 1.314 . S
C212 C210 1.353 . S
C212 H254 0.930 . S
C213 N209 1.279 . S
C213 C211 1.358 . S
C213 H255 0.930 . S
C214 C215 1.348 . S
C214 C216 1.356 . S
C214 O239 1.325 . S
C215 C214 1.348 . S
C215 C217 1.353 . S
C215 H256 0.929 . S
C216 C214 1.356 . S
C216 C218 1.358 . S
C216 H257 0.930 . S
C217 C215 1.353 . S
C217 N219 1.314 . S
C217 H258 0.930 . S
C218 C216 1.358 . S
C218 N219 1.279 . S
C218 H259 0.930 . S
N219 C217 1.314 . S
N219 C218 1.279 . S
C220 C222 1.353 . S
C220 N223 1.314 . S
C220 H226 0.930 . S
C221 N223 1.279 . S
C221 C224 1.358 . S
C221 H227 0.930 . S
C222 C220 1.353 . S
C222 C225 1.348 . S
C222 H260 0.929 . S
N223 Li178 1.990 . S
N223 C220 1.314 . S
N223 C221 1.279 . S
C224 C221 1.358 . S
C224 C225 1.356 . S
C224 H261 0.930 . S
C225 C222 1.348 . S
C225 C224 1.356 . S
H226 C220 0.930 . S
H227 C221 0.930 . S
C228 N229 1.314 . S
C228 C230 1.353 . S
C228 H234 0.930 . S
N229 Li179 1.990 . S
N229 C228 1.314 . S
N229 C232 1.279 . S
C230 C228 1.353 . S
C230 C233 1.348 . S
C230 H262 0.929 . S
C231 C232 1.358 . S
C231 C233 1.356 . S
C231 H263 0.930 . S
C232 N229 1.279 . S
C232 C231 1.358 . S
C232 H235 0.930 . S
C233 C230 1.348 . S
C233 C231 1.356 . S
H234 C228 0.930 . S
H235 C232 0.930 . S
O236 Li176 1.956 . S
O236 Li177 1.970 . S
O236 Li178 1.961 . S
O236 C180 1.325 . S
O237 Li176 1.970 . S
O237 Li177 1.956 . S
O237 Li179 1.961 . S
O237 C186 1.325 . S
O238 Li176 1.961 . S
O238 Li178 1.956 . S
O238 Li179 1.970 . S
O238 C208 1.325 . S
O239 Li177 1.961 . S
O239 Li178 1.970 . S
O239 Li179 1.956 . S
O239 C214 1.325 . S
H240 C182 0.929 . S
H241 C183 0.930 . S
H242 C184 0.930 . S
H243 C185 0.930 . S
H244 C187 0.930 . S
H245 C189 0.929 . S
H246 C190 0.930 . S
H247 C191 0.930 . S
H248 C194 0.930 . S
H249 C197 0.929 . S
H250 C202 0.929 . S
H251 C203 0.930 . S
H252 C210 0.929 . S
H253 C211 0.930 . S
H254 C212 0.930 . S
H255 C213 0.930 . S
H256 C215 0.929 . S
H257 C216 0.930 . S
H258 C217 0.930 . S
H259 C218 0.930 . S
H260 C222 0.929 . S
H261 C224 0.930 . S
H262 C230 0.929 . S
H263 C231 0.930 . S
Li264 N281 1.990 . S
Li264 O324 1.956 . S
Li264 O325 1.970 . S
Li264 O326 1.961 . S
Li265 N289 1.990 . S
Li265 O324 1.970 . S
Li265 O325 1.956 . S
Li265 O327 1.961 . S
Li266 N311 1.990 . S
Li266 O324 1.961 . S
Li266 O326 1.956 . S
Li266 O327 1.970 . S
Li267 N317 1.990 . S
Li267 O325 1.961 . S
Li267 O326 1.970 . S
Li267 O327 1.956 . S
C268 C270 1.348 . S
C268 C271 1.356 . S
C268 O324 1.325 . S
N269 C272 1.314 . S
N269 C273 1.279 . S
C270 C268 1.348 . S
C270 C272 1.353 . S
C270 H328 0.929 . S
C271 C268 1.356 . S
C271 C273 1.358 . S
C271 H329 0.930 . S
C272 N269 1.314 . S
C272 C270 1.353 . S
C272 H330 0.930 . S
C273 N269 1.279 . S
C273 C271 1.358 . S
C273 H331 0.930 . S
C274 C277 1.348 . S
C274 C278 1.356 . S
C274 O325 1.325 . S
C275 N276 1.279 . S
C275 C278 1.358 . S
C275 H332 0.930 . S
N276 C275 1.279 . S
N276 C279 1.314 . S
C277 C274 1.348 . S
C277 C279 1.353 . S
C277 H333 0.929 . S
C278 C274 1.356 . S
C278 C275 1.358 . S
C278 H334 0.930 . S
C279 N276 1.314 . S
C279 C277 1.353 . S
C279 H335 0.930 . S
C280 N281 1.314 . S
C280 C285 1.353 . S
C280 H286 0.930 . S
N281 Li264 1.990 . S
N281 C280 1.314 . S
N281 C283 1.279 . S
C282 C283 1.358 . S
C282 C284 1.356 . S
C282 H336 0.930 . S
C283 N281 1.279 . S
C283 C282 1.358 . S
C283 H287 0.930 . S
C284 C282 1.356 . S
C284 C285 1.348 . S
C285 C280 1.353 . S
C285 C284 1.348 . S
C285 H337 0.929 . S
H286 C280 0.930 . S
H287 C283 0.930 . S
C288 N289 1.314 . S
C288 C290 1.353 . S
C288 H294 0.930 . S
N289 Li265 1.990 . S
N289 C288 1.314 . S
N289 C292 1.279 . S
C290 C288 1.353 . S
C290 C293 1.348 . S
C290 H338 0.929 . S
C291 C292 1.358 . S
C291 C293 1.356 . S
C291 H339 0.930 . S
C292 N289 1.279 . S
C292 C291 1.358 . S
C292 H295 0.930 . S
C293 C290 1.348 . S
C293 C291 1.356 . S
H294 C288 0.930 . S
H295 C292 0.930 . S
C296 C298 1.348 . S
C296 C299 1.356 . S
C296 O326 1.325 . S
N297 C300 1.314 . S
N297 C301 1.279 . S
C298 C296 1.348 . S
C298 C300 1.353 . S
C298 H340 0.929 . S
C299 C296 1.356 . S
C299 C301 1.358 . S
C299 H341 0.930 . S
C300 N297 1.314 . S
C300 C298 1.353 . S
C300 H342 0.930 . S
C301 N297 1.279 . S
C301 C299 1.358 . S
C301 H343 0.930 . S
C302 C303 1.348 . S
C302 C304 1.356 . S
C302 O327 1.325 . S
C303 C302 1.348 . S
C303 C305 1.353 . S
C303 H344 0.929 . S
C304 C302 1.356 . S
C304 C306 1.358 . S
C304 H345 0.930 . S
C305 C303 1.353 . S
C305 N307 1.314 . S
C305 H346 0.930 . S
C306 C304 1.358 . S
C306 N307 1.279 . S
C306 H347 0.930 . S
N307 C305 1.314 . S
N307 C306 1.279 . S
C308 C310 1.353 . S
C308 N311 1.314 . S
C308 H314 0.930 . S
C309 N311 1.279 . S
C309 C312 1.358 . S
C309 H315 0.930 . S
C310 C308 1.353 . S
C310 C313 1.348 . S
C310 H348 0.929 . S
N311 Li266 1.990 . S
N311 C308 1.314 . S
N311 C309 1.279 . S
C312 C309 1.358 . S
C312 C313 1.356 . S
C312 H349 0.930 . S
C313 C310 1.348 . S
C313 C312 1.356 . S
H314 C308 0.930 . S
H315 C309 0.930 . S
C316 N317 1.314 . S
C316 C318 1.353 . S
C316 H322 0.930 . S
N317 Li267 1.990 . S
N317 C316 1.314 . S
N317 C320 1.279 . S
C318 C316 1.353 . S
C318 C321 1.348 . S
C318 H350 0.929 . S
C319 C320 1.358 . S
C319 C321 1.356 . S
C319 H351 0.930 . S
C320 N317 1.279 . S
C320 C319 1.358 . S
C320 H323 0.930 . S
C321 C318 1.348 . S
C321 C319 1.356 . S
H322 C316 0.930 . S
H323 C320 0.930 . S
O324 Li264 1.956 . S
O324 Li265 1.970 . S
O324 Li266 1.961 . S
O324 C268 1.325 . S
O325 Li264 1.970 . S
O325 Li265 1.956 . S
O325 Li267 1.961 . S
O325 C274 1.325 . S
O326 Li264 1.961 . S
O326 Li266 1.956 . S
O326 Li267 1.970 . S
O326 C296 1.325 . S
O327 Li265 1.961 . S
O327 Li266 1.970 . S
O327 Li267 1.956 . S
O327 C302 1.325 . S
H328 C270 0.929 . S
H329 C271 0.930 . S
H330 C272 0.930 . S
H331 C273 0.930 . S
H332 C275 0.930 . S
H333 C277 0.929 . S
H334 C278 0.930 . S
H335 C279 0.930 . S
H336 C282 0.930 . S
H337 C285 0.929 . S
H338 C290 0.929 . S
H339 C291 0.930 . S
H340 C298 0.929 . S
H341 C299 0.930 . S
H342 C300 0.930 . S
H343 C301 0.930 . S
H344 C303 0.929 . S
H345 C304 0.930 . S
H346 C305 0.930 . S
H347 C306 0.930 . S
H348 C310 0.929 . S
H349 C312 0.930 . S
H350 C318 0.929 . S
H351 C319 0.930 . S
Li352 N369 1.990 . S
Li352 O412 1.956 . S
Li352 O413 1.970 . S
Li352 O414 1.957 . S
Li353 N377 1.990 . S
Li353 O412 1.970 . S
Li353 O413 1.956 . S
Li353 O415 1.961 . S
Li354 N399 1.990 . S
Li354 O412 1.961 . S
Li354 O414 1.952 . S
Li354 O415 1.970 . S
Li355 N405 1.990 1_455 S
Li355 O413 1.961 . S
Li355 O414 1.970 . S
Li355 O415 1.956 . S
C356 C358 1.348 . S
C356 C359 1.356 . S
C356 O412 1.325 . S
N357 C360 1.314 . S
N357 C361 1.279 . S
C358 C356 1.348 . S
C358 C360 1.353 . S
C358 H416 0.929 . S
C359 C356 1.356 . S
C359 C361 1.358 . S
C359 H417 0.930 . S
C360 N357 1.314 . S
C360 C358 1.353 . S
C360 H418 0.930 . S
C361 N357 1.279 . S
C361 C359 1.358 . S
C361 H419 0.930 . S
C362 C365 1.348 . S
C362 C366 1.356 . S
C362 O413 1.325 . S
C363 N364 1.279 . S
C363 C366 1.358 . S
C363 H420 0.930 . S
N364 C363 1.279 . S
N364 C367 1.314 . S
C365 C362 1.348 . S
C365 C367 1.353 . S
C365 H421 0.929 . S
C366 C362 1.356 . S
C366 C363 1.358 . S
C366 H422 0.930 . S
C367 N364 1.314 . S
C367 C365 1.353 . S
C367 H423 0.930 . S
C368 N369 1.314 . S
C368 C373 1.353 . S
C368 H374 0.930 1_455 S
N369 Li352 1.990 . S
N369 C368 1.314 . S
N369 C371 1.279 . S
C370 C371 1.358 . S
C370 C372 1.356 . S
C370 H424 0.930 . S
C371 N369 1.279 . S
C371 C370 1.358 . S
C371 H375 0.930 . S
C372 C370 1.356 . S
C372 C373 1.348 . S
C373 C368 1.353 . S
C373 C372 1.348 . S
C373 H425 0.929 1_455 S
H374 C368 0.930 1_655 S
H375 C371 0.930 . S
C376 N377 1.314 . S
C376 C378 1.353 . S
C376 H382 0.930 . S
N377 Li353 1.990 . S
N377 C376 1.314 . S
N377 C380 1.279 . S
C378 C376 1.353 . S
C378 C381 1.348 . S
C378 H426 0.929 . S
C379 C380 1.358 . S
C379 C381 1.356 . S
C379 H427 0.930 . S
C380 N377 1.279 . S
C380 C379 1.358 . S
C380 H383 0.930 . S
C381 C378 1.348 . S
C381 C379 1.356 . S
H382 C376 0.930 . S
H383 C380 0.930 . S
C384 C386 1.348 . S
C384 C387 1.356 . S
C384 O414 1.329 1_655 S
N385 C388 1.314 . S
N385 C389 1.279 . S
C386 C384 1.348 . S
C386 C388 1.353 . S
C386 H428 0.929 . S
C387 C384 1.356 . S
C387 C389 1.358 . S
C387 H429 0.930 . S
C388 N385 1.314 . S
C388 C386 1.353 . S
C388 H430 0.930 . S
C389 N385 1.279 . S
C389 C387 1.358 . S
C389 H431 0.930 . S
C390 C391 1.348 . S
C390 C392 1.356 . S
C390 O415 1.325 . S
C391 C390 1.348 . S
C391 C393 1.353 . S
C391 H432 0.929 . S
C392 C390 1.356 . S
C392 C394 1.358 . S
C392 H433 0.930 . S
C393 C391 1.353 . S
C393 N395 1.314 . S
C393 H434 0.930 . S
C394 C392 1.358 . S
C394 N395 1.279 . S
C394 H435 0.930 . S
N395 C393 1.314 . S
N395 C394 1.279 . S
C396 C398 1.353 . S
C396 N399 1.314 . S
C396 H402 0.930 . S
C397 N399 1.292 . S
C397 C400 1.360 1_455 S
C397 H403 0.915 1_455 S
C398 C396 1.353 . S
C398 C401 1.348 . S
C398 H436 0.929 . S
N399 Li354 1.990 . S
N399 C396 1.314 . S
N399 C397 1.292 . S
C400 C397 1.360 1_655 S
C400 C401 1.356 1_655 S
C400 H437 0.930 . S
C401 C398 1.348 . S
C401 C400 1.356 1_455 S
H402 C396 0.930 . S
H403 C397 0.915 1_655 S
C404 N405 1.314 . S
C404 C406 1.353 . S
C404 H410 0.930 . S
N405 Li355 1.990 1_655 S
N405 C404 1.314 . S
N405 C408 1.279 . S
C406 C404 1.353 . S
C406 C409 1.348 . S
C406 H438 0.929 . S
C407 C408 1.358 . S
C407 C409 1.356 . S
C407 H439 0.930 . S
C408 N405 1.279 . S
C408 C407 1.358 . S
C408 H411 0.930 . S
C409 C406 1.348 . S
C409 C407 1.356 . S
H410 C404 0.930 . S
H411 C408 0.930 . S
O412 Li352 1.956 . S
O412 Li353 1.970 . S
O412 Li354 1.961 . S
O412 C356 1.325 . S
O413 Li352 1.970 . S
O413 Li353 1.956 . S
O413 Li355 1.961 . S
O413 C362 1.325 . S
O414 Li352 1.957 . S
O414 Li354 1.952 . S
O414 Li355 1.970 . S
O414 C384 1.329 1_455 S
O415 Li353 1.961 . S
O415 Li354 1.970 . S
O415 Li355 1.956 . S
O415 C390 1.325 . S
H416 C358 0.929 . S
H417 C359 0.930 . S
H418 C360 0.930 . S
H419 C361 0.930 . S
H420 C363 0.930 . S
H421 C365 0.929 . S
H422 C366 0.930 . S
H423 C367 0.930 . S
H424 C370 0.930 . S
H425 C373 0.929 1_655 S
H426 C378 0.929 . S
H427 C379 0.930 . S
H428 C386 0.929 . S
H429 C387 0.930 . S
H430 C388 0.930 . S
H431 C389 0.930 . S
H432 C391 0.929 . S
H433 C392 0.930 . S
H434 C393 0.930 . S
H435 C394 0.930 . S
H436 C398 0.929 . S
H437 C400 0.930 . S
H438 C406 0.929 . S
H439 C407 0.930 . S
Li440 N457 1.990 . S
Li440 O500 1.956 . S
Li440 O501 1.970 . S
Li440 O502 1.961 . S
Li441 N465 1.990 . S
Li441 O500 1.970 . S
Li441 O501 1.956 . S
Li441 O503 1.961 . S
Li442 N487 1.990 . S
Li442 O500 1.961 . S
Li442 O502 1.956 . S
Li442 O503 1.970 . S
Li443 N493 1.990 . S
Li443 O501 1.961 . S
Li443 O502 1.970 . S
Li443 O503 1.956 . S
C444 C446 1.348 . S
C444 C447 1.356 . S
C444 O500 1.325 . S
N445 C448 1.314 . S
N445 C449 1.279 . S
C446 C444 1.348 . S
C446 C448 1.353 . S
C446 H504 0.929 . S
C447 C444 1.356 . S
C447 C449 1.358 . S
C447 H505 0.930 . S
C448 N445 1.314 . S
C448 C446 1.353 . S
C448 H506 0.930 . S
C449 N445 1.279 . S
C449 C447 1.358 . S
C449 H507 0.930 . S
C450 C453 1.348 . S
C450 C454 1.356 . S
C450 O501 1.325 . S
C451 N452 1.279 . S
C451 C454 1.358 . S
C451 H508 0.930 . S
N452 C451 1.279 . S
N452 C455 1.314 . S
C453 C450 1.348 . S
C453 C455 1.353 . S
C453 H509 0.929 . S
C454 C450 1.356 . S
C454 C451 1.358 . S
C454 H510 0.930 . S
C455 N452 1.314 . S
C455 C453 1.353 . S
C455 H511 0.930 . S
C456 N457 1.314 . S
C456 C461 1.353 . S
C456 H462 0.930 . S
N457 Li440 1.990 . S
N457 C456 1.314 . S
N457 C459 1.279 . S
C458 C459 1.358 . S
C458 C460 1.356 . S
C458 H512 0.930 . S
C459 N457 1.279 . S
C459 C458 1.358 . S
C459 H463 0.930 . S
C460 C458 1.356 . S
C460 C461 1.348 . S
C461 C456 1.353 . S
C461 C460 1.348 . S
C461 H513 0.929 . S
H462 C456 0.930 . S
H463 C459 0.930 . S
C464 N465 1.314 . S
C464 C466 1.353 . S
C464 H470 0.930 . S
N465 Li441 1.990 . S
N465 C464 1.314 . S
N465 C468 1.279 . S
C466 C464 1.353 . S
C466 C469 1.348 . S
C466 H514 0.929 . S
C467 C468 1.358 . S
C467 C469 1.356 . S
C467 H515 0.930 . S
C468 N465 1.279 . S
C468 C467 1.358 . S
C468 H471 0.930 . S
C469 C466 1.348 . S
C469 C467 1.356 . S
H470 C464 0.930 . S
H471 C468 0.930 . S
C472 C474 1.348 . S
C472 C475 1.356 . S
C472 O502 1.325 . S
N473 C476 1.314 . S
N473 C477 1.279 . S
C474 C472 1.348 . S
C474 C476 1.353 . S
C474 H516 0.929 . S
C475 C472 1.356 . S
C475 C477 1.358 . S
C475 H517 0.930 . S
C476 N473 1.314 . S
C476 C474 1.353 . S
C476 H518 0.930 . S
C477 N473 1.279 . S
C477 C475 1.358 . S
C477 H519 0.930 . S
C478 C479 1.348 . S
C478 C480 1.356 . S
C478 O503 1.325 . S
C479 C478 1.348 . S
C479 C481 1.353 . S
C479 H520 0.929 . S
C480 C478 1.356 . S
C480 C482 1.358 . S
C480 H521 0.930 . S
C481 C479 1.353 . S
C481 N483 1.314 . S
C481 H522 0.930 . S
C482 C480 1.358 . S
C482 N483 1.279 . S
C482 H523 0.930 . S
N483 C481 1.314 . S
N483 C482 1.279 . S
C484 C486 1.353 . S
C484 N487 1.314 . S
C484 H490 0.930 . S
C485 N487 1.279 . S
C485 C488 1.358 . S
C485 H491 0.930 . S
C486 C484 1.353 . S
C486 C489 1.348 . S
C486 H524 0.929 . S
N487 Li442 1.990 . S
N487 C484 1.314 . S
N487 C485 1.279 . S
C488 C485 1.358 . S
C488 C489 1.356 . S
C488 H525 0.930 . S
C489 C486 1.348 . S
C489 C488 1.356 . S
H490 C484 0.930 . S
H491 C485 0.930 . S
C492 N493 1.314 . S
C492 C494 1.353 . S
C492 H498 0.930 . S
N493 Li443 1.990 . S
N493 C492 1.314 . S
N493 C496 1.279 . S
C494 C492 1.353 . S
C494 C497 1.348 . S
C494 H526 0.929 . S
C495 C496 1.358 . S
C495 C497 1.356 . S
C495 H527 0.930 . S
C496 N493 1.279 . S
C496 C495 1.358 . S
C496 H499 0.930 . S
C497 C494 1.348 . S
C497 C495 1.356 . S
H498 C492 0.930 . S
H499 C496 0.930 . S
O500 Li440 1.956 . S
O500 Li441 1.970 . S
O500 Li442 1.961 . S
O500 C444 1.325 . S
O501 Li440 1.970 . S
O501 Li441 1.956 . S
O501 Li443 1.961 . S
O501 C450 1.325 . S
O502 Li440 1.961 . S
O502 Li442 1.956 . S
O502 Li443 1.970 . S
O502 C472 1.325 . S
O503 Li441 1.961 . S
O503 Li442 1.970 . S
O503 Li443 1.956 . S
O503 C478 1.325 . S
H504 C446 0.929 . S
H505 C447 0.930 . S
H506 C448 0.930 . S
H507 C449 0.930 . S
H508 C451 0.930 . S
H509 C453 0.929 . S
H510 C454 0.930 . S
H511 C455 0.930 . S
H512 C458 0.930 . S
H513 C461 0.929 . S
H514 C466 0.929 . S
H515 C467 0.930 . S
H516 C474 0.929 . S
H517 C475 0.930 . S
H518 C476 0.930 . S
H519 C477 0.930 . S
H520 C479 0.929 . S
H521 C480 0.930 . S
H522 C481 0.930 . S
H523 C482 0.930 . S
H524 C486 0.929 . S
H525 C488 0.930 . S
H526 C494 0.929 . S
H527 C495 0.930 . S
Li528 N545 1.990 . S
Li528 O588 1.956 . S
Li528 O589 1.970 . S
Li528 O590 1.961 . S
Li529 N553 1.990 . S
Li529 O588 1.970 . S
Li529 O589 1.956 . S
Li529 O591 1.961 . S
Li530 N575 1.990 . S
Li530 O588 1.961 . S
Li530 O590 1.956 . S
Li530 O591 1.970 . S
Li531 N581 1.990 . S
Li531 O589 1.961 . S
Li531 O590 1.970 . S
Li531 O591 1.956 . S
C532 C534 1.348 . S
C532 C535 1.356 . S
C532 O588 1.325 . S
N533 C536 1.314 . S
N533 C537 1.279 . S
C534 C532 1.348 . S
C534 C536 1.353 . S
C534 H592 0.929 . S
C535 C532 1.356 . S
C535 C537 1.358 . S
C535 H593 0.930 . S
C536 N533 1.314 . S
C536 C534 1.353 . S
C536 H594 0.930 . S
C537 N533 1.279 . S
C537 C535 1.358 . S
C537 H595 0.930 . S
C538 C541 1.348 . S
C538 C542 1.356 . S
C538 O589 1.325 . S
C539 N540 1.279 . S
C539 C542 1.358 . S
C539 H596 0.930 . S
N540 C539 1.279 . S
N540 C543 1.314 . S
C541 C538 1.348 . S
C541 C543 1.353 . S
C541 H597 0.929 . S
C542 C538 1.356 . S
C542 C539 1.358 . S
C542 H598 0.930 . S
C543 N540 1.314 . S
C543 C541 1.353 . S
C543 H599 0.930 . S
C544 N545 1.314 . S
C544 C549 1.353 . S
C544 H550 0.930 . S
N545 Li528 1.990 . S
N545 C544 1.314 . S
N545 C547 1.279 . S
C546 C547 1.358 . S
C546 C548 1.356 . S
C546 H600 0.930 . S
C547 N545 1.279 . S
C547 C546 1.358 . S
C547 H551 0.930 . S
C548 C546 1.356 . S
C548 C549 1.348 . S
C549 C544 1.353 . S
C549 C548 1.348 . S
C549 H601 0.929 . S
H550 C544 0.930 . S
H551 C547 0.930 . S
C552 N553 1.314 . S
C552 C554 1.353 . S
C552 H558 0.930 . S
N553 Li529 1.990 . S
N553 C552 1.314 . S
N553 C556 1.279 . S
C554 C552 1.353 . S
C554 C557 1.348 . S
C554 H602 0.929 . S
C555 C556 1.358 . S
C555 C557 1.356 . S
C555 H603 0.930 . S
C556 N553 1.279 . S
C556 C555 1.358 . S
C556 H559 0.930 . S
C557 C554 1.348 . S
C557 C555 1.356 . S
H558 C552 0.930 . S
H559 C556 0.930 . S
C560 C562 1.348 . S
C560 C563 1.356 . S
C560 O590 1.325 . S
N561 C564 1.314 . S
N561 C565 1.279 . S
C562 C560 1.348 . S
C562 C564 1.353 . S
C562 H604 0.929 . S
C563 C560 1.356 . S
C563 C565 1.358 . S
C563 H605 0.930 . S
C564 N561 1.314 . S
C564 C562 1.353 . S
C564 H606 0.930 . S
C565 N561 1.279 . S
C565 C563 1.358 . S
C565 H607 0.930 . S
C566 C567 1.348 . S
C566 C568 1.356 . S
C566 O591 1.325 . S
C567 C566 1.348 . S
C567 C569 1.353 . S
C567 H608 0.929 . S
C568 C566 1.356 . S
C568 C570 1.358 . S
C568 H609 0.930 . S
C569 C567 1.353 . S
C569 N571 1.314 . S
C569 H610 0.930 . S
C570 C568 1.358 . S
C570 N571 1.279 . S
C570 H611 0.930 . S
N571 C569 1.314 . S
N571 C570 1.279 . S
C572 C574 1.353 . S
C572 N575 1.314 . S
C572 H578 0.930 . S
C573 N575 1.279 . S
C573 C576 1.358 . S
C573 H579 0.930 . S
C574 C572 1.353 . S
C574 C577 1.348 . S
C574 H612 0.929 . S
N575 Li530 1.990 . S
N575 C572 1.314 . S
N575 C573 1.279 . S
C576 C573 1.358 . S
C576 C577 1.356 . S
C576 H613 0.930 . S
C577 C574 1.348 . S
C577 C576 1.356 . S
H578 C572 0.930 . S
H579 C573 0.930 . S
C580 N581 1.314 . S
C580 C582 1.353 . S
C580 H586 0.930 . S
N581 Li531 1.990 . S
N581 C580 1.314 . S
N581 C584 1.279 . S
C582 C580 1.353 . S
C582 C585 1.348 . S
C582 H614 0.929 . S
C583 C584 1.358 . S
C583 C585 1.356 . S
C583 H615 0.930 . S
C584 N581 1.279 . S
C584 C583 1.358 . S
C584 H587 0.930 . S
C585 C582 1.348 . S
C585 C583 1.356 . S
H586 C580 0.930 . S
H587 C584 0.930 . S
O588 Li528 1.956 . S
O588 Li529 1.970 . S
O588 Li530 1.961 . S
O588 C532 1.325 . S
O589 Li528 1.970 . S
O589 Li529 1.956 . S
O589 Li531 1.961 . S
O589 C538 1.325 . S
O590 Li528 1.961 . S
O590 Li530 1.956 . S
O590 Li531 1.970 . S
O590 C560 1.325 . S
O591 Li529 1.961 . S
O591 Li530 1.970 . S
O591 Li531 1.956 . S
O591 C566 1.325 . S
H592 C534 0.929 . S
H593 C535 0.930 . S
H594 C536 0.930 . S
H595 C537 0.930 . S
H596 C539 0.930 . S
H597 C541 0.929 . S
H598 C542 0.930 . S
H599 C543 0.930 . S
H600 C546 0.930 . S
H601 C549 0.929 . S
H602 C554 0.929 . S
H603 C555 0.930 . S
H604 C562 0.929 . S
H605 C563 0.930 . S
H606 C564 0.930 . S
H607 C565 0.930 . S
H608 C567 0.929 . S
H609 C568 0.930 . S
H610 C569 0.930 . S
H611 C570 0.930 . S
H612 C574 0.929 . S
H613 C576 0.930 . S
H614 C582 0.929 . S
H615 C583 0.930 . S
Li616 N633 1.990 . S
Li616 O676 1.956 1_455 S
Li616 O677 1.970 . S
Li616 O678 1.961 . S
Li617 N641 1.990 . S
Li617 O676 1.970 . S
Li617 O677 1.956 1_655 S
Li617 O679 1.961 . S
Li618 N663 1.991 1_455 S
Li618 O676 1.954 1_455 S
Li618 O678 1.962 . S
Li618 O679 1.970 1_455 S
Li619 N669 1.990 . S
Li619 O677 1.961 . S
Li619 O678 1.970 . S
Li619 O679 1.956 1_455 S
C620 C622 1.348 . S
C620 C623 1.356 . S
C620 O676 1.325 . S
N621 C624 1.314 . S
N621 C625 1.279 . S
C622 C620 1.348 . S
C622 C624 1.353 . S
C622 H680 0.929 . S
C623 C620 1.356 . S
C623 C625 1.358 . S
C623 H681 0.930 . S
C624 N621 1.314 . S
C624 C622 1.353 . S
C624 H682 0.930 . S
C625 N621 1.279 . S
C625 C623 1.358 . S
C625 H683 0.930 . S
C626 C629 1.348 1_455 S
C626 C630 1.356 . S
C626 O677 1.325 . S
C627 N628 1.279 . S
C627 C630 1.358 . S
C627 H684 0.930 . S
N628 C627 1.279 . S
N628 C631 1.314 1_455 S
C629 C626 1.348 1_655 S
C629 C631 1.353 . S
C629 H685 0.929 . S
C630 C626 1.356 . S
C630 C627 1.358 . S
C630 H686 0.930 . S
C631 N628 1.314 1_655 S
C631 C629 1.353 . S
C631 H687 0.930 . S
C632 N633 1.314 . S
C632 C637 1.353 . S
C632 H638 0.930 . S
N633 Li616 1.990 . S
N633 C632 1.314 . S
N633 C635 1.279 1_455 S
C634 C635 1.358 . S
C634 C636 1.356 1_655 S
C634 H688 0.930 . S
C635 N633 1.279 1_655 S
C635 C634 1.358 . S
C635 H639 0.930 . S
C636 C634 1.356 1_455 S
C636 C637 1.348 . S
C637 C632 1.353 . S
C637 C636 1.348 . S
C637 H689 0.929 . S
H638 C632 0.930 . S
H639 C635 0.930 . S
C640 N641 1.314 . S
C640 C642 1.353 . S
C640 H646 0.930 . S
N641 Li617 1.990 . S
N641 C640 1.314 . S
N641 C644 1.279 . S
C642 C640 1.353 . S
C642 C645 1.348 . S
C642 H690 0.929 . S
C643 C644 1.358 . S
C643 C645 1.356 . S
C643 H691 0.930 . S
C644 N641 1.279 . S
C644 C643 1.358 . S
C644 H647 0.930 . S
C645 C642 1.348 . S
C645 C643 1.356 . S
H646 C640 0.930 . S
H647 C644 0.930 . S
C648 C650 1.348 . S
C648 C651 1.356 . S
C648 O678 1.325 . S
N649 C652 1.314 . S
N649 C653 1.279 . S
C650 C648 1.348 . S
C650 C652 1.353 . S
C650 H692 0.929 . S
C651 C648 1.356 . S
C651 C653 1.358 . S
C651 H693 0.930 . S
C652 N649 1.314 . S
C652 C650 1.353 . S
C652 H694 0.930 . S
C653 N649 1.279 . S
C653 C651 1.358 . S
C653 H695 0.930 . S
C654 C655 1.335 1_655 S
C654 C656 1.356 . S
C654 O679 1.325 . S
C655 C654 1.335 1_455 S
C655 C657 1.356 1_455 S
C655 H696 0.940 . S
C656 C654 1.356 . S
C656 C658 1.358 . S
C656 H697 0.930 . S
C657 C655 1.356 1_655 S
C657 N659 1.314 . S
C657 H698 0.930 1_655 S
C658 C656 1.358 . S
C658 N659 1.279 . S
C658 H699 0.930 . S
N659 C657 1.314 . S
N659 C658 1.279 . S
C660 C662 1.353 . S
C660 N663 1.322 . S
C660 H666 0.930 . S
C661 N663 1.272 1_455 S
C661 C664 1.358 . S
C661 H667 0.930 . S
C662 C660 1.353 . S
C662 C665 1.348 . S
C662 H700 0.929 . S
N663 Li618 1.991 1_655 S
N663 C660 1.322 . S
N663 C661 1.272 1_655 S
C664 C661 1.358 . S
C664 C665 1.356 1_455 S
C664 H701 0.930 . S
C665 C662 1.348 . S
C665 C664 1.356 1_655 S
H666 C660 0.930 . S
H667 C661 0.930 . S
C668 N669 1.314 . S
C668 C670 1.353 . S
C668 H674 0.930 . S
N669 Li619 1.990 . S
N669 C668 1.314 . S
N669 C672 1.279 . S
C670 C668 1.353 . S
C670 C673 1.348 . S
C670 H702 0.929 . S
C671 C672 1.358 . S
C671 C673 1.356 . S
C671 H703 0.930 . S
C672 N669 1.279 . S
C672 C671 1.358 . S
C672 H675 0.930 . S
C673 C670 1.348 . S
C673 C671 1.356 . S
H674 C668 0.930 . S
H675 C672 0.930 . S
O676 Li616 1.956 1_655 S
O676 Li617 1.970 . S
O676 Li618 1.954 1_655 S
O676 C620 1.325 . S
O677 Li616 1.970 . S
O677 Li617 1.956 1_455 S
O677 Li619 1.961 . S
O677 C626 1.325 . S
O678 Li616 1.961 . S
O678 Li618 1.962 . S
O678 Li619 1.970 . S
O678 C648 1.325 . S
O679 Li617 1.961 . S
O679 Li618 1.970 1_655 S
O679 Li619 1.956 1_655 S
O679 C654 1.325 . S
H680 C622 0.929 . S
H681 C623 0.930 . S
H682 C624 0.930 . S
H683 C625 0.930 . S
H684 C627 0.930 . S
H685 C629 0.929 . S
H686 C630 0.930 . S
H687 C631 0.930 . S
H688 C634 0.930 . S
H689 C637 0.929 . S
H690 C642 0.929 . S
H691 C643 0.930 . S
H692 C650 0.929 . S
H693 C651 0.930 . S
H694 C652 0.930 . S
H695 C653 0.930 . S
H696 C655 0.940 . S
H697 C656 0.930 . S
H698 C657 0.930 1_455 S
H699 C658 0.930 . S
H700 C662 0.929 . S
H701 C664 0.930 . S
H702 C670 0.929 . S
H703 C671 0.930 . S
Li704 N721 1.990 . S
Li704 O764 1.966 . S
Li704 O765 1.970 . S
Li704 O766 1.961 . S
Li705 N729 1.997 . S
Li705 O764 1.974 1_565 S
Li705 O765 1.950 1_565 S
Li705 O767 1.954 1_565 S
Li706 N751 1.990 . S
Li706 O764 1.972 . S
Li706 O766 1.956 . S
Li706 O767 1.970 . S
Li707 N757 1.990 . S
Li707 O765 1.961 . S
Li707 O766 1.970 . S
Li707 O767 1.956 . S
C708 C710 1.348 . S
C708 C711 1.356 . S
C708 O764 1.313 1_565 S
N709 C712 1.314 . S
N709 C713 1.279 . S
C710 C708 1.348 . S
C710 C712 1.353 . S
C710 H768 0.929 . S
C711 C708 1.356 . S
C711 C713 1.358 . S
C711 H769 0.930 1_565 S
C712 N709 1.314 . S
C712 C710 1.353 . S
C712 H770 0.930 . S
C713 N709 1.279 . S
C713 C711 1.358 . S
C713 H771 0.930 . S
C714 C717 1.348 . S
C714 C718 1.356 . S
C714 O765 1.325 . S
C715 N716 1.279 . S
C715 C718 1.358 . S
C715 H772 0.930 . S
N716 C715 1.279 . S
N716 C719 1.314 . S
C717 C714 1.348 . S
C717 C719 1.353 . S
C717 H773 0.929 . S
C718 C714 1.356 . S
C718 C715 1.358 . S
C718 H774 0.930 . S
C719 N716 1.314 . S
C719 C717 1.353 . S
C719 H775 0.930 . S
C720 N721 1.314 . S
C720 C725 1.353 . S
C720 H726 0.930 . S
N721 Li704 1.990 . S
N721 C720 1.314 . S
N721 C723 1.279 . S
C722 C723 1.358 . S
C722 C724 1.356 . S
C722 H776 0.930 . S
C723 N721 1.279 . S
C723 C722 1.358 . S
C723 H727 0.930 1_545 S
C724 C722 1.356 . S
C724 C725 1.348 . S
C725 C720 1.353 . S
C725 C724 1.348 . S
C725 H777 0.929 . S
H726 C720 0.930 . S
H727 C723 0.930 1_565 S
C728 N729 1.314 . S
C728 C730 1.353 . S
C728 H734 0.930 . S
N729 Li705 1.997 . S
N729 C728 1.314 . S
N729 C732 1.279 . S
C730 C728 1.353 . S
C730 C733 1.348 . S
C730 H778 0.929 . S
C731 C732 1.358 . S
C731 C733 1.356 . S
C731 H779 0.930 . S
C732 N729 1.279 . S
C732 C731 1.358 . S
C732 H735 0.930 . S
C733 C730 1.348 . S
C733 C731 1.356 . S
H734 C728 0.930 . S
H735 C732 0.930 . S
C736 C738 1.348 . S
C736 C739 1.356 . S
C736 O766 1.325 . S
N737 C740 1.314 . S
N737 C741 1.279 . S
C738 C736 1.348 . S
C738 C740 1.353 . S
C738 H780 0.929 . S
C739 C736 1.356 . S
C739 C741 1.358 . S
C739 H781 0.930 . S
C740 N737 1.314 . S
C740 C738 1.353 . S
C740 H782 0.930 . S
C741 N737 1.279 . S
C741 C739 1.358 . S
C741 H783 0.930 . S
C742 C743 1.348 . S
C742 C744 1.356 . S
C742 O767 1.325 . S
C743 C742 1.348 . S
C743 C745 1.353 . S
C743 H784 0.929 . S
C744 C742 1.356 . S
C744 C746 1.358 . S
C744 H785 0.930 . S
C745 C743 1.353 . S
C745 N747 1.314 . S
C745 H786 0.930 . S
C746 C744 1.358 . S
C746 N747 1.279 . S
C746 H787 0.930 . S
N747 C745 1.314 . S
N747 C746 1.279 . S
C748 C750 1.353 . S
C748 N751 1.314 . S
C748 H754 0.930 1_545 S
C749 N751 1.279 . S
C749 C752 1.358 . S
C749 H755 0.930 . S
C750 C748 1.353 . S
C750 C753 1.348 . S
C750 H788 0.929 1_545 S
N751 Li706 1.990 . S
N751 C748 1.314 . S
N751 C749 1.279 . S
C752 C749 1.358 . S
C752 C753 1.356 . S
C752 H789 0.930 . S
C753 C750 1.348 . S
C753 C752 1.356 . S
H754 C748 0.930 1_565 S
H755 C749 0.930 . S
C756 N757 1.314 . S
C756 C758 1.353 . S
C756 H762 0.930 . S
N757 Li707 1.990 . S
N757 C756 1.314 . S
N757 C760 1.279 . S
C758 C756 1.353 . S
C758 C761 1.348 . S
C758 H790 0.929 . S
C759 C760 1.358 . S
C759 C761 1.356 . S
C759 H791 0.930 . S
C760 N757 1.279 . S
C760 C759 1.358 . S
C760 H763 0.930 . S
C761 C758 1.348 . S
C761 C759 1.356 . S
H762 C756 0.930 . S
H763 C760 0.930 . S
O764 Li704 1.966 . S
O764 Li705 1.974 1_545 S
O764 Li706 1.972 . S
O764 C708 1.313 1_545 S
O765 Li704 1.970 . S
O765 Li705 1.950 1_545 S
O765 Li707 1.961 . S
O765 C714 1.325 . S
O766 Li704 1.961 . S
O766 Li706 1.956 . S
O766 Li707 1.970 . S
O766 C736 1.325 . S
O767 Li705 1.954 1_545 S
O767 Li706 1.970 . S
O767 Li707 1.956 . S
O767 C742 1.325 . S
H768 C710 0.929 . S
H769 C711 0.930 1_545 S
H770 C712 0.930 . S
H771 C713 0.930 . S
H772 C715 0.930 . S
H773 C717 0.929 . S
H774 C718 0.930 . S
H775 C719 0.930 . S
H776 C722 0.930 . S
H777 C725 0.929 . S
H778 C730 0.929 . S
H779 C731 0.930 . S
H780 C738 0.929 . S
H781 C739 0.930 . S
H782 C740 0.930 . S
H783 C741 0.930 . S
H784 C743 0.929 . S
H785 C744 0.930 . S
H786 C745 0.930 . S
H787 C746 0.930 . S
H788 C750 0.929 1_565 S
H789 C752 0.930 . S
H790 C758 0.929 . S
H791 C759 0.930 . S
Li792 N809 1.990 . S
Li792 O852 1.956 . S
Li792 O853 1.970 . S
Li792 O854 1.961 . S
Li793 N817 1.990 . S
Li793 O852 1.970 . S
Li793 O853 1.956 . S
Li793 O855 1.961 . S
Li794 N839 1.990 . S
Li794 O852 1.961 . S
Li794 O854 1.956 . S
Li794 O855 1.970 . S
Li795 N845 1.990 . S
Li795 O853 1.961 . S
Li795 O854 1.970 . S
Li795 O855 1.956 . S
C796 C798 1.348 . S
C796 C799 1.356 . S
C796 O852 1.325 . S
N797 C800 1.314 . S
N797 C801 1.279 . S
C798 C796 1.348 . S
C798 C800 1.353 . S
C798 H856 0.929 . S
C799 C796 1.356 . S
C799 C801 1.358 . S
C799 H857 0.930 . S
C800 N797 1.314 . S
C800 C798 1.353 . S
C800 H858 0.930 . S
C801 N797 1.279 . S
C801 C799 1.358 . S
C801 H859 0.930 . S
C802 C805 1.348 . S
C802 C806 1.356 . S
C802 O853 1.325 . S
C803 N804 1.279 . S
C803 C806 1.358 . S
C803 H860 0.930 . S
N804 C803 1.279 . S
N804 C807 1.314 . S
C805 C802 1.348 . S
C805 C807 1.353 . S
C805 H861 0.929 . S
C806 C802 1.356 . S
C806 C803 1.358 . S
C806 H862 0.930 . S
C807 N804 1.314 . S
C807 C805 1.353 . S
C807 H863 0.930 . S
C808 N809 1.314 . S
C808 C813 1.353 . S
C808 H814 0.930 . S
N809 Li792 1.990 . S
N809 C808 1.314 . S
N809 C811 1.279 . S
C810 C811 1.358 . S
C810 C812 1.356 . S
C810 H864 0.930 . S
C811 N809 1.279 . S
C811 C810 1.358 . S
C811 H815 0.930 . S
C812 C810 1.356 . S
C812 C813 1.348 . S
C813 C808 1.353 . S
C813 C812 1.348 . S
C813 H865 0.929 . S
H814 C808 0.930 . S
H815 C811 0.930 . S
C816 N817 1.314 . S
C816 C818 1.353 . S
C816 H822 0.930 . S
N817 Li793 1.990 . S
N817 C816 1.314 . S
N817 C820 1.279 . S
C818 C816 1.353 . S
C818 C821 1.348 . S
C818 H866 0.929 . S
C819 C820 1.358 . S
C819 C821 1.356 . S
C819 H867 0.930 . S
C820 N817 1.279 . S
C820 C819 1.358 . S
C820 H823 0.930 . S
C821 C818 1.348 . S
C821 C819 1.356 . S
H822 C816 0.930 . S
H823 C820 0.930 . S
C824 C826 1.348 . S
C824 C827 1.356 . S
C824 O854 1.325 . S
N825 C828 1.314 . S
N825 C829 1.279 . S
C826 C824 1.348 . S
C826 C828 1.353 . S
C826 H868 0.929 . S
C827 C824 1.356 . S
C827 C829 1.358 . S
C827 H869 0.930 . S
C828 N825 1.314 . S
C828 C826 1.353 . S
C828 H870 0.930 . S
C829 N825 1.279 . S
C829 C827 1.358 . S
C829 H871 0.930 . S
C830 C831 1.348 . S
C830 C832 1.356 . S
C830 O855 1.325 . S
C831 C830 1.348 . S
C831 C833 1.353 . S
C831 H872 0.929 . S
C832 C830 1.356 . S
C832 C834 1.358 . S
C832 H873 0.930 . S
C833 C831 1.353 . S
C833 N835 1.314 . S
C833 H874 0.930 . S
C834 C832 1.358 . S
C834 N835 1.279 . S
C834 H875 0.930 . S
N835 C833 1.314 . S
N835 C834 1.279 . S
C836 C838 1.353 . S
C836 N839 1.314 . S
C836 H842 0.930 . S
C837 N839 1.279 . S
C837 C840 1.358 . S
C837 H843 0.930 . S
C838 C836 1.353 . S
C838 C841 1.348 . S
C838 H876 0.929 . S
N839 Li794 1.990 . S
N839 C836 1.314 . S
N839 C837 1.279 . S
C840 C837 1.358 . S
C840 C841 1.356 . S
C840 H877 0.930 . S
C841 C838 1.348 . S
C841 C840 1.356 . S
H842 C836 0.930 . S
H843 C837 0.930 . S
C844 N845 1.314 . S
C844 C846 1.353 . S
C844 H850 0.930 . S
N845 Li795 1.990 . S
N845 C844 1.314 . S
N845 C848 1.279 . S
C846 C844 1.353 . S
C846 C849 1.348 . S
C846 H878 0.929 . S
C847 C848 1.358 . S
C847 C849 1.356 . S
C847 H879 0.930 . S
C848 N845 1.279 . S
C848 C847 1.358 . S
C848 H851 0.930 . S
C849 C846 1.348 . S
C849 C847 1.356 . S
H850 C844 0.930 . S
H851 C848 0.930 . S
O852 Li792 1.956 . S
O852 Li793 1.970 . S
O852 Li794 1.961 . S
O852 C796 1.325 . S
O853 Li792 1.970 . S
O853 Li793 1.956 . S
O853 Li795 1.961 . S
O853 C802 1.325 . S
O854 Li792 1.961 . S
O854 Li794 1.956 . S
O854 Li795 1.970 . S
O854 C824 1.325 . S
O855 Li793 1.961 . S
O855 Li794 1.970 . S
O855 Li795 1.956 . S
O855 C830 1.325 . S
H856 C798 0.929 . S
H857 C799 0.930 . S
H858 C800 0.930 . S
H859 C801 0.930 . S
H860 C803 0.930 . S
H861 C805 0.929 . S
H862 C806 0.930 . S
H863 C807 0.930 . S
H864 C810 0.930 . S
H865 C813 0.929 . S
H866 C818 0.929 . S
H867 C819 0.930 . S
H868 C826 0.929 . S
H869 C827 0.930 . S
H870 C828 0.930 . S
H871 C829 0.930 . S
H872 C831 0.929 . S
H873 C832 0.930 . S
H874 C833 0.930 . S
H875 C834 0.930 . S
H876 C838 0.929 . S
H877 C840 0.930 . S
H878 C846 0.929 . S
H879 C847 0.930 . S
Li880 N897 1.990 . S
Li880 O940 1.956 . S
Li880 O941 1.970 . S
Li880 O942 1.961 . S
Li881 N905 1.990 . S
Li881 O940 1.970 . S
Li881 O941 1.956 . S
Li881 O943 1.961 1_545 S
Li882 N927 1.990 . S
Li882 O940 1.961 1_565 S
Li882 O942 1.956 1_565 S
Li882 O943 1.970 . S
Li883 N933 1.989 . S
Li883 O941 1.961 . S
Li883 O942 1.970 . S
Li883 O943 1.956 1_545 S
C884 C886 1.348 . S
C884 C887 1.356 . S
C884 O940 1.325 . S
N885 C888 1.314 . S
N885 C889 1.279 . S
C886 C884 1.348 . S
C886 C888 1.353 . S
C886 H944 0.929 . S
C887 C884 1.356 . S
C887 C889 1.358 . S
C887 H945 0.930 . S
C888 N885 1.314 . S
C888 C886 1.353 . S
C888 H946 0.930 . S
C889 N885 1.279 . S
C889 C887 1.358 . S
C889 H947 0.930 . S
C890 C893 1.348 . S
C890 C894 1.356 . S
C890 O941 1.325 . S
C891 N892 1.279 . S
C891 C894 1.358 . S
C891 H948 0.930 . S
N892 C891 1.279 . S
N892 C895 1.314 . S
C893 C890 1.348 . S
C893 C895 1.353 . S
C893 H949 0.929 . S
C894 C890 1.356 . S
C894 C891 1.358 . S
C894 H950 0.930 . S
C895 N892 1.314 . S
C895 C893 1.353 . S
C895 H951 0.930 . S
C896 N897 1.314 . S
C896 C901 1.353 . S
C896 H902 0.930 . S
N897 Li880 1.990 . S
N897 C896 1.314 . S
N897 C899 1.279 . S
C898 C899 1.358 . S
C898 C900 1.356 . S
C898 H952 0.930 . S
C899 N897 1.279 . S
C899 C898 1.358 . S
C899 H903 0.930 . S
C900 C898 1.356 . S
C900 C901 1.348 . S
C901 C896 1.353 . S
C901 C900 1.348 . S
C901 H953 0.929 . S
H902 C896 0.930 . S
H903 C899 0.930 . S
C904 N905 1.314 1_565 S
C904 C906 1.353 . S
C904 H910 0.930 . S
N905 Li881 1.990 . S
N905 C904 1.314 1_545 S
N905 C908 1.279 . S
C906 C904 1.353 . S
C906 C909 1.348 1_565 S
C906 H954 0.929 . S
C907 C908 1.358 . S
C907 C909 1.356 . S
C907 H955 0.930 . S
C908 N905 1.279 . S
C908 C907 1.358 . S
C908 H911 0.930 . S
C909 C906 1.348 1_545 S
C909 C907 1.356 . S
H910 C904 0.930 . S
H911 C908 0.930 . S
C912 C914 1.353 . S
C912 C915 1.356 . S
C912 O942 1.325 . S
N913 C916 1.314 . S
N913 C917 1.279 . S
C914 C912 1.353 . S
C914 C916 1.353 . S
C914 H956 0.925 1_545 S
C915 C912 1.356 . S
C915 C917 1.358 . S
C915 H957 0.930 . S
C916 N913 1.314 . S
C916 C914 1.353 . S
C916 H958 0.930 1_545 S
C917 N913 1.279 . S
C917 C915 1.358 . S
C917 H959 0.930 . S
C918 C919 1.348 . S
C918 C920 1.356 . S
C918 O943 1.325 . S
C919 C918 1.348 . S
C919 C921 1.353 . S
C919 H960 0.929 . S
C920 C918 1.356 . S
C920 C922 1.358 . S
C920 H961 0.930 . S
C921 C919 1.353 . S
C921 N923 1.314 . S
C921 H962 0.930 . S
C922 C920 1.358 . S
C922 N923 1.279 . S
C922 H963 0.930 . S
N923 C921 1.314 . S
N923 C922 1.279 . S
C924 C926 1.353 . S
C924 N927 1.314 . S
C924 H930 0.930 . S
C925 N927 1.279 . S
C925 C928 1.358 . S
C925 H931 0.930 . S
C926 C924 1.353 . S
C926 C929 1.348 . S
C926 H964 0.929 . S
N927 Li882 1.990 . S
N927 C924 1.314 . S
N927 C925 1.279 . S
C928 C925 1.358 . S
C928 C929 1.356 . S
C928 H965 0.930 . S
C929 C926 1.348 . S
C929 C928 1.356 . S
H930 C924 0.930 . S
H931 C925 0.930 . S
C932 N933 1.342 . S
C932 C934 1.353 . S
C932 H938 0.930 . S
N933 Li883 1.989 . S
N933 C932 1.342 . S
N933 C936 1.255 1_545 S
C934 C932 1.353 . S
C934 C937 1.348 1_545 S
C934 H966 0.929 . S
C935 C936 1.358 . S
C935 C937 1.356 . S
C935 H967 0.930 . S
C936 N933 1.255 1_565 S
C936 C935 1.358 . S
C936 H939 0.930 . S
C937 C934 1.348 1_565 S
C937 C935 1.356 . S
H938 C932 0.930 . S
H939 C936 0.930 . S
O940 Li880 1.956 . S
O940 Li881 1.970 . S
O940 Li882 1.961 1_545 S
O940 C884 1.325 . S
O941 Li880 1.970 . S
O941 Li881 1.956 . S
O941 Li883 1.961 . S
O941 C890 1.325 . S
O942 Li880 1.961 . S
O942 Li882 1.956 1_545 S
O942 Li883 1.970 . S
O942 C912 1.325 . S
O943 Li881 1.961 1_565 S
O943 Li882 1.970 . S
O943 Li883 1.956 1_565 S
O943 C918 1.325 . S
H944 C886 0.929 . S
H945 C887 0.930 . S
H946 C888 0.930 . S
H947 C889 0.930 . S
H948 C891 0.930 . S
H949 C893 0.929 . S
H950 C894 0.930 . S
H951 C895 0.930 . S
H952 C898 0.930 . S
H953 C901 0.929 . S
H954 C906 0.929 . S
H955 C907 0.930 . S
H956 C914 0.925 1_565 S
H957 C915 0.930 . S
H958 C916 0.930 1_565 S
H959 C917 0.930 . S
H960 C919 0.929 . S
H961 C920 0.930 . S
H962 C921 0.930 . S
H963 C922 0.930 . S
H964 C926 0.929 . S
H965 C928 0.930 . S
H966 C934 0.929 . S
H967 C935 0.930 . S
Li968 N985 1.990 . S
Li968 O1028 1.956 . S
Li968 O1029 1.970 . S
Li968 O1030 1.961 1_554 S
Li969 N993 1.990 . S
Li969 O1028 1.970 . S
Li969 O1029 1.956 . S
Li969 O1031 1.961 . S
Li970 N1015 1.990 . S
Li970 O1028 1.961 . S
Li970 O1030 1.956 1_554 S
Li970 O1031 1.970 . S
Li971 N1021 1.990 . S
Li971 O1029 1.961 1_556 S
Li971 O1030 1.970 . S
Li971 O1031 1.956 1_556 S
C972 C974 1.348 . S
C972 C975 1.356 . S
C972 O1028 1.325 . S
N973 C976 1.314 . S
N973 C977 1.279 . S
C974 C972 1.348 . S
C974 C976 1.353 . S
C974 H1032 0.929 . S
C975 C972 1.356 . S
C975 C977 1.358 . S
C975 H1033 0.930 . S
C976 N973 1.314 . S
C976 C974 1.353 . S
C976 H1034 0.930 . S
C977 N973 1.279 . S
C977 C975 1.358 . S
C977 H1035 0.930 . S
C978 C981 1.348 . S
C978 C982 1.356 . S
C978 O1029 1.325 . S
C979 N980 1.279 . S
C979 C982 1.358 . S
C979 H1036 0.930 . S
N980 C979 1.279 . S
N980 C983 1.314 . S
C981 C978 1.348 . S
C981 C983 1.353 . S
C981 H1037 0.929 . S
C982 C978 1.356 . S
C982 C979 1.358 . S
C982 H1038 0.930 . S
C983 N980 1.314 . S
C983 C981 1.353 . S
C983 H1039 0.930 . S
C984 N985 1.314 . S
C984 C989 1.353 . S
C984 H990 0.930 1_554 S
N985 Li968 1.990 . S
N985 C984 1.314 . S
N985 C987 1.279 . S
C986 C987 1.358 . S
C986 C988 1.356 . S
C986 H1040 0.930 . S
C987 N985 1.279 . S
C987 C986 1.358 . S
C987 H991 0.930 . S
C988 C986 1.356 . S
C988 C989 1.349 . S
C989 C984 1.353 . S
C989 C988 1.349 . S
C989 H1041 0.928 1_554 S
H990 C984 0.930 1_556 S
H991 C987 0.930 . S
C992 N993 1.314 . S
C992 C994 1.353 . S
C992 H998 0.930 . S
N993 Li969 1.990 . S
N993 C992 1.314 . S
N993 C996 1.279 . S
C994 C992 1.353 . S
C994 C997 1.348 . S
C994 H1042 0.929 . S
C995 C996 1.358 . S
C995 C997 1.356 . S
C995 H1043 0.930 . S
C996 N993 1.279 . S
C996 C995 1.358 . S
C996 H999 0.930 . S
C997 C994 1.348 . S
C997 C995 1.356 . S
H998 C992 0.930 . S
H999 C996 0.930 . S
C1000 C1002 1.348 . S
C1000 C1003 1.356 . S
C1000 O1030 1.325 . S
N1001 C1004 1.314 . S
N1001 C1005 1.279 . S
C1002 C1000 1.348 . S
C1002 C1004 1.353 . S
C1002 H1044 0.929 . S
C1003 C1000 1.356 . S
C1003 C1005 1.358 . S
C1003 H1045 0.930 . S
C1004 N1001 1.314 . S
C1004 C1002 1.353 . S
C1004 H1046 0.930 . S
C1005 N1001 1.279 . S
C1005 C1003 1.358 . S
C1005 H1047 0.930 . S
C1006 C1007 1.348 . S
C1006 C1008 1.356 . S
C1006 O1031 1.325 . S
C1007 C1006 1.348 . S
C1007 C1009 1.353 . S
C1007 H1048 0.929 . S
C1008 C1006 1.356 . S
C1008 C1010 1.358 . S
C1008 H1049 0.930 . S
C1009 C1007 1.353 . S
C1009 N1011 1.314 . S
C1009 H1050 0.930 . S
C1010 C1008 1.358 . S
C1010 N1011 1.279 . S
C1010 H1051 0.930 . S
N1011 C1009 1.314 . S
N1011 C1010 1.279 . S
C1012 C1014 1.353 . S
C1012 N1015 1.314 . S
C1012 H1018 0.930 . S
C1013 N1015 1.279 . S
C1013 C1016 1.358 . S
C1013 H1019 0.930 1_554 S
C1014 C1012 1.353 . S
C1014 C1017 1.348 . S
C1014 H1052 0.929 . S
N1015 Li970 1.990 . S
N1015 C1012 1.314 . S
N1015 C1013 1.279 . S
C1016 C1013 1.358 . S
C1016 C1017 1.356 . S
C1016 H1053 0.930 1_554 S
C1017 C1014 1.348 . S
C1017 C1016 1.356 . S
H1018 C1012 0.930 . S
H1019 C1013 0.930 1_556 S
C1020 N1021 1.314 . S
C1020 C1022 1.353 . S
C1020 H1026 0.930 . S
N1021 Li971 1.990 . S
N1021 C1020 1.314 . S
N1021 C1024 1.279 . S
C1022 C1020 1.353 . S
C1022 C1025 1.348 . S
C1022 H1054 0.929 . S
C1023 C1024 1.358 . S
C1023 C1025 1.356 . S
C1023 H1055 0.930 . S
C1024 N1021 1.279 . S
C1024 C1023 1.358 . S
C1024 H1027 0.930 . S
C1025 C1022 1.348 . S
C1025 C1023 1.356 . S
H1026 C1020 0.930 . S
H1027 C1024 0.930 . S
O1028 Li968 1.956 . S
O1028 Li969 1.970 . S
O1028 Li970 1.961 . S
O1028 C972 1.325 . S
O1029 Li968 1.970 . S
O1029 Li969 1.956 . S
O1029 Li971 1.961 1_554 S
O1029 C978 1.325 . S
O1030 Li968 1.961 1_556 S
O1030 Li970 1.956 1_556 S
O1030 Li971 1.970 . S
O1030 C1000 1.325 . S
O1031 Li969 1.961 . S
O1031 Li970 1.970 . S
O1031 Li971 1.956 1_554 S
O1031 C1006 1.325 . S
H1032 C974 0.929 . S
H1033 C975 0.930 . S
H1034 C976 0.930 . S
H1035 C977 0.930 . S
H1036 C979 0.930 . S
H1037 C981 0.929 . S
H1038 C982 0.930 . S
H1039 C983 0.930 . S
H1040 C986 0.930 . S
H1041 C989 0.928 1_556 S
H1042 C994 0.929 . S
H1043 C995 0.930 . S
H1044 C1002 0.929 . S
H1045 C1003 0.930 . S
H1046 C1004 0.930 . S
H1047 C1005 0.930 . S
H1048 C1007 0.929 . S
H1049 C1008 0.930 . S
H1050 C1009 0.930 . S
H1051 C1010 0.930 . S
H1052 C1014 0.929 . S
H1053 C1016 0.930 1_556 S
H1054 C1022 0.929 . S
H1055 C1023 0.930 . S
Li1056 N1073 1.990 . S
Li1056 O1116 1.956 . S
Li1056 O1117 1.970 . S
Li1056 O1118 1.961 . S
Li1057 N1081 1.990 . S
Li1057 O1116 1.970 . S
Li1057 O1117 1.956 . S
Li1057 O1119 1.961 . S
Li1058 N1103 1.990 . S
Li1058 O1116 1.961 . S
Li1058 O1118 1.956 . S
Li1058 O1119 1.970 . S
Li1059 N1109 1.990 1_554 S
Li1059 O1117 1.961 . S
Li1059 O1118 1.970 . S
Li1059 O1119 1.956 . S
C1060 C1062 1.348 . S
C1060 C1063 1.356 . S
C1060 O1116 1.325 . S
N1061 C1064 1.314 . S
N1061 C1065 1.279 . S
C1062 C1060 1.348 . S
C1062 C1064 1.353 . S
C1062 H1120 0.929 . S
C1063 C1060 1.356 . S
C1063 C1065 1.358 . S
C1063 H1121 0.930 . S
C1064 N1061 1.314 . S
C1064 C1062 1.353 . S
C1064 H1122 0.930 . S
C1065 N1061 1.279 . S
C1065 C1063 1.358 . S
C1065 H1123 0.930 . S
C1066 C1069 1.348 . S
C1066 C1070 1.356 . S
C1066 O1117 1.325 . S
C1067 N1068 1.279 . S
C1067 C1070 1.358 . S
C1067 H1124 0.930 . S
N1068 C1067 1.279 . S
N1068 C1071 1.314 . S
C1069 C1066 1.348 . S
C1069 C1071 1.353 . S
C1069 H1125 0.929 . S
C1070 C1066 1.356 . S
C1070 C1067 1.358 . S
C1070 H1126 0.930 . S
C1071 N1068 1.314 . S
C1071 C1069 1.353 . S
C1071 H1127 0.930 . S
C1072 N1073 1.314 . S
C1072 C1077 1.353 . S
C1072 H1078 0.930 . S
N1073 Li1056 1.990 . S
N1073 C1072 1.314 . S
N1073 C1075 1.279 . S
C1074 C1075 1.358 . S
C1074 C1076 1.356 . S
C1074 H1128 0.930 . S
C1075 N1073 1.279 . S
C1075 C1074 1.358 . S
C1075 H1079 0.930 . S
C1076 C1074 1.356 . S
C1076 C1077 1.348 . S
C1077 C1072 1.353 . S
C1077 C1076 1.348 . S
C1077 H1129 0.929 . S
H1078 C1072 0.930 . S
H1079 C1075 0.930 . S
C1080 N1081 1.314 . S
C1080 C1082 1.353 . S
C1080 H1086 0.930 . S
N1081 Li1057 1.990 . S
N1081 C1080 1.314 . S
N1081 C1084 1.279 . S
C1082 C1080 1.353 . S
C1082 C1085 1.348 . S
C1082 H1130 0.929 . S
C1083 C1084 1.358 . S
C1083 C1085 1.356 . S
C1083 H1131 0.930 . S
C1084 N1081 1.279 . S
C1084 C1083 1.358 . S
C1084 H1087 0.930 . S
C1085 C1082 1.348 . S
C1085 C1083 1.356 . S
H1086 C1080 0.930 . S
H1087 C1084 0.930 . S
C1088 C1090 1.306 1_554 S
C1088 C1091 1.358 . S
C1088 O1118 1.363 . S
N1089 C1092 1.314 . S
N1089 C1093 1.279 . S
C1090 C1088 1.306 1_556 S
C1090 C1092 1.353 . S
C1090 H1132 0.929 . S
C1091 C1088 1.358 . S
C1091 C1093 1.358 1_554 S
C1091 H1133 0.930 . S
C1092 N1089 1.314 . S
C1092 C1090 1.353 . S
C1092 H1134 0.930 . S
C1093 N1089 1.279 . S
C1093 C1091 1.358 1_556 S
C1093 H1135 0.930 . S
C1094 C1095 1.348 . S
C1094 C1096 1.356 . S
C1094 O1119 1.325 . S
C1095 C1094 1.348 . S
C1095 C1097 1.353 . S
C1095 H1136 0.929 . S
C1096 C1094 1.356 . S
C1096 C1098 1.358 . S
C1096 H1137 0.930 . S
C1097 C1095 1.353 . S
C1097 N1099 1.314 . S
C1097 H1138 0.930 . S
C1098 C1096 1.358 . S
C1098 N1099 1.279 . S
C1098 H1139 0.930 . S
N1099 C1097 1.314 . S
N1099 C1098 1.279 . S
C1100 C1102 1.353 . S
C1100 N1103 1.314 . S
C1100 H1106 0.930 . S
C1101 N1103 1.279 . S
C1101 C1104 1.358 . S
C1101 H1107 0.930 . S
C1102 C1100 1.353 . S
C1102 C1105 1.348 . S
C1102 H1140 0.929 . S
N1103 Li1058 1.990 . S
N1103 C1100 1.314 . S
N1103 C1101 1.279 . S
C1104 C1101 1.358 . S
C1104 C1105 1.356 . S
C1104 H1141 0.930 . S
C1105 C1102 1.348 . S
C1105 C1104 1.356 . S
H1106 C1100 0.930 . S
H1107 C1101 0.930 . S
C1108 N1109 1.314 . S
C1108 C1110 1.353 . S
C1108 H1114 0.930 . S
N1109 Li1059 1.990 1_556 S
N1109 C1108 1.314 . S
N1109 C1112 1.279 . S
C1110 C1108 1.353 . S
C1110 C1113 1.348 . S
C1110 H1142 0.929 . S
C1111 C1112 1.358 . S
C1111 C1113 1.356 . S
C1111 H1143 0.930 . S
C1112 N1109 1.279 . S
C1112 C1111 1.358 . S
C1112 H1115 0.930 . S
C1113 C1110 1.348 . S
C1113 C1111 1.356 . S
H1114 C1108 0.930 . S
H1115 C1112 0.930 . S
O1116 Li1056 1.956 . S
O1116 Li1057 1.970 . S
O1116 Li1058 1.961 . S
O1116 C1060 1.325 . S
O1117 Li1056 1.970 . S
O1117 Li1057 1.956 . S
O1117 Li1059 1.961 . S
O1117 C1066 1.325 . S
O1118 Li1056 1.961 . S
O1118 Li1058 1.956 . S
O1118 Li1059 1.970 . S
O1118 C1088 1.363 . S
O1119 Li1057 1.961 . S
O1119 Li1058 1.970 . S
O1119 Li1059 1.956 . S
O1119 C1094 1.325 . S
H1120 C1062 0.929 . S
H1121 C1063 0.930 . S
H1122 C1064 0.930 . S
H1123 C1065 0.930 . S
H1124 C1067 0.930 . S
H1125 C1069 0.929 . S
H1126 C1070 0.930 . S
H1127 C1071 0.930 . S
H1128 C1074 0.930 . S
H1129 C1077 0.929 . S
H1130 C1082 0.929 . S
H1131 C1083 0.930 . S
H1132 C1090 0.929 . S
H1133 C1091 0.930 . S
H1134 C1092 0.930 . S
H1135 C1093 0.930 . S
H1136 C1095 0.929 . S
H1137 C1096 0.930 . S
H1138 C1097 0.930 . S
H1139 C1098 0.930 . S
H1140 C1102 0.929 . S
H1141 C1104 0.930 . S
H1142 C1110 0.929 . S
H1143 C1111 0.930 . S
Li1144 N1161 1.990 . S
Li1144 O1204 1.956 . S
Li1144 O1205 1.970 . S
Li1144 O1206 1.961 . S
Li1145 N1169 1.990 . S
Li1145 O1204 1.970 . S
Li1145 O1205 1.956 . S
Li1145 O1207 1.961 1_554 S
Li1146 N1191 1.990 1_554 S
Li1146 O1204 1.961 . S
Li1146 O1206 1.956 . S
Li1146 O1207 1.970 1_554 S
Li1147 N1197 1.990 . S
Li1147 O1205 1.961 . S
Li1147 O1206 1.970 . S
Li1147 O1207 1.956 1_554 S
C1148 C1150 1.348 . S
C1148 C1151 1.356 . S
C1148 O1204 1.325 . S
N1149 C1152 1.314 . S
N1149 C1153 1.279 . S
C1150 C1148 1.348 . S
C1150 C1152 1.353 . S
C1150 H1208 0.929 . S
C1151 C1148 1.356 . S
C1151 C1153 1.358 . S
C1151 H1209 0.930 . S
C1152 N1149 1.314 . S
C1152 C1150 1.353 . S
C1152 H1210 0.930 . S
C1153 N1149 1.279 . S
C1153 C1151 1.358 . S
C1153 H1211 0.930 . S
C1154 C1157 1.348 . S
C1154 C1158 1.356 . S
C1154 O1205 1.325 . S
C1155 N1156 1.279 . S
C1155 C1158 1.358 . S
C1155 H1212 0.930 . S
N1156 C1155 1.279 . S
N1156 C1159 1.314 . S
C1157 C1154 1.348 . S
C1157 C1159 1.353 . S
C1157 H1213 0.929 . S
C1158 C1154 1.356 . S
C1158 C1155 1.358 . S
C1158 H1214 0.930 . S
C1159 N1156 1.314 . S
C1159 C1157 1.353 . S
C1159 H1215 0.930 . S
C1160 N1161 1.314 . S
C1160 C1165 1.353 . S
C1160 H1166 0.930 . S
N1161 Li1144 1.990 . S
N1161 C1160 1.314 . S
N1161 C1163 1.279 . S
C1162 C1163 1.358 . S
C1162 C1164 1.356 . S
C1162 H1216 0.930 . S
C1163 N1161 1.279 . S
C1163 C1162 1.358 . S
C1163 H1167 0.930 . S
C1164 C1162 1.356 . S
C1164 C1165 1.348 . S
C1165 C1160 1.353 . S
C1165 C1164 1.348 . S
C1165 H1217 0.929 . S
H1166 C1160 0.930 . S
H1167 C1163 0.930 . S
C1168 N1169 1.314 . S
C1168 C1170 1.353 . S
C1168 H1174 0.930 1_554 S
N1169 Li1145 1.990 . S
N1169 C1168 1.314 . S
N1169 C1172 1.279 . S
C1170 C1168 1.353 . S
C1170 C1173 1.348 . S
C1170 H1218 0.929 1_554 S
C1171 C1172 1.358 . S
C1171 C1173 1.356 . S
C1171 H1219 0.930 . S
C1172 N1169 1.279 . S
C1172 C1171 1.358 . S
C1172 H1175 0.930 . S
C1173 C1170 1.348 . S
C1173 C1171 1.356 . S
H1174 C1168 0.930 1_556 S
H1175 C1172 0.930 . S
C1176 C1178 1.348 . S
C1176 C1179 1.356 . S
C1176 O1206 1.325 . S
N1177 C1180 1.314 . S
N1177 C1181 1.279 . S
C1178 C1176 1.348 . S
C1178 C1180 1.353 . S
C1178 H1220 0.929 . S
C1179 C1176 1.356 . S
C1179 C1181 1.358 . S
C1179 H1221 0.930 . S
C1180 N1177 1.314 . S
C1180 C1178 1.353 . S
C1180 H1222 0.930 . S
C1181 N1177 1.279 . S
C1181 C1179 1.358 . S
C1181 H1223 0.930 . S
C1182 C1183 1.348 . S
C1182 C1184 1.356 . S
C1182 O1207 1.325 . S
C1183 C1182 1.348 . S
C1183 C1185 1.353 . S
C1183 H1224 0.929 . S
C1184 C1182 1.356 . S
C1184 C1186 1.358 . S
C1184 H1225 0.930 . S
C1185 C1183 1.353 . S
C1185 N1187 1.314 . S
C1185 H1226 0.930 . S
C1186 C1184 1.358 . S
C1186 N1187 1.279 . S
C1186 H1227 0.930 . S
N1187 C1185 1.314 . S
N1187 C1186 1.279 . S
C1188 C1190 1.353 . S
C1188 N1191 1.314 . S
C1188 H1194 0.930 . S
C1189 N1191 1.279 . S
C1189 C1192 1.358 . S
C1189 H1195 0.930 . S
C1190 C1188 1.353 . S
C1190 C1193 1.348 . S
C1190 H1228 0.929 . S
N1191 Li1146 1.990 1_556 S
N1191 C1188 1.314 . S
N1191 C1189 1.279 . S
C1192 C1189 1.358 . S
C1192 C1193 1.356 . S
C1192 H1229 0.930 . S
C1193 C1190 1.348 . S
C1193 C1192 1.356 . S
H1194 C1188 0.930 . S
H1195 C1189 0.930 . S
C1196 N1197 1.314 . S
C1196 C1198 1.353 . S
C1196 H1202 0.930 . S
N1197 Li1147 1.990 . S
N1197 C1196 1.314 . S
N1197 C1200 1.258 1_554 S
C1198 C1196 1.353 . S
C1198 C1201 1.348 . S
C1198 H1230 0.929 . S
C1199 C1200 1.358 . S
C1199 C1201 1.356 1_556 S
C1199 H1231 0.930 . S
C1200 N1197 1.258 1_556 S
C1200 C1199 1.358 . S
C1200 H1203 0.956 . S
C1201 C1198 1.348 . S
C1201 C1199 1.356 1_554 S
H1202 C1196 0.930 . S
H1203 C1200 0.956 . S
O1204 Li1144 1.956 . S
O1204 Li1145 1.970 . S
O1204 Li1146 1.961 . S
O1204 C1148 1.325 . S
O1205 Li1144 1.970 . S
O1205 Li1145 1.956 . S
O1205 Li1147 1.961 . S
O1205 C1154 1.325 . S
O1206 Li1144 1.961 . S
O1206 Li1146 1.956 . S
O1206 Li1147 1.970 . S
O1206 C1176 1.325 . S
O1207 Li1145 1.961 1_556 S
O1207 Li1146 1.970 1_556 S
O1207 Li1147 1.956 1_556 S
O1207 C1182 1.325 . S
H1208 C1150 0.929 . S
H1209 C1151 0.930 . S
H1210 C1152 0.930 . S
H1211 C1153 0.930 . S
H1212 C1155 0.930 . S
H1213 C1157 0.929 . S
H1214 C1158 0.930 . S
H1215 C1159 0.930 . S
H1216 C1162 0.930 . S
H1217 C1165 0.929 . S
H1218 C1170 0.929 1_556 S
H1219 C1171 0.930 . S
H1220 C1178 0.929 . S
H1221 C1179 0.930 . S
H1222 C1180 0.930 . S
H1223 C1181 0.930 . S
H1224 C1183 0.929 . S
H1225 C1184 0.930 . S
H1226 C1185 0.930 . S
H1227 C1186 0.930 . S
H1228 C1190 0.929 . S
H1229 C1192 0.930 . S
H1230 C1198 0.929 . S
H1231 C1199 0.930 . S
Li1232 N1249 1.990 . S
Li1232 O1292 1.956 . S
Li1232 O1293 1.970 . S
Li1232 O1294 1.961 . S
Li1233 N1257 1.990 . S
Li1233 O1292 1.970 . S
Li1233 O1293 1.956 . S
Li1233 O1295 1.961 . S
Li1234 N1279 1.990 . S
Li1234 O1292 1.961 . S
Li1234 O1294 1.956 . S
Li1234 O1295 1.970 . S
Li1235 N1285 1.990 . S
Li1235 O1293 1.961 . S
Li1235 O1294 1.970 . S
Li1235 O1295 1.956 . S
C1236 C1238 1.348 . S
C1236 C1239 1.356 . S
C1236 O1292 1.325 . S
N1237 C1240 1.314 . S
N1237 C1241 1.279 . S
C1238 C1236 1.348 . S
C1238 C1240 1.353 . S
C1238 H1296 0.929 . S
C1239 C1236 1.356 . S
C1239 C1241 1.358 . S
C1239 H1297 0.930 . S
C1240 N1237 1.314 . S
C1240 C1238 1.353 . S
C1240 H1298 0.930 . S
C1241 N1237 1.279 . S
C1241 C1239 1.358 . S
C1241 H1299 0.930 . S
C1242 C1245 1.348 . S
C1242 C1246 1.356 . S
C1242 O1293 1.325 . S
C1243 N1244 1.279 . S
C1243 C1246 1.358 . S
C1243 H1300 0.930 . S
N1244 C1243 1.279 . S
N1244 C1247 1.314 . S
C1245 C1242 1.348 . S
C1245 C1247 1.353 . S
C1245 H1301 0.929 . S
C1246 C1242 1.356 . S
C1246 C1243 1.358 . S
C1246 H1302 0.930 . S
C1247 N1244 1.314 . S
C1247 C1245 1.353 . S
C1247 H1303 0.930 . S
C1248 N1249 1.314 . S
C1248 C1253 1.353 . S
C1248 H1254 0.930 . S
N1249 Li1232 1.990 . S
N1249 C1248 1.314 . S
N1249 C1251 1.279 . S
C1250 C1251 1.358 . S
C1250 C1252 1.356 . S
C1250 H1304 0.930 . S
C1251 N1249 1.279 . S
C1251 C1250 1.358 . S
C1251 H1255 0.930 . S
C1252 C1250 1.356 . S
C1252 C1253 1.348 . S
C1253 C1248 1.353 . S
C1253 C1252 1.348 . S
C1253 H1305 0.929 . S
H1254 C1248 0.930 . S
H1255 C1251 0.930 . S
C1256 N1257 1.314 . S
C1256 C1258 1.353 . S
C1256 H1262 0.930 . S
N1257 Li1233 1.990 . S
N1257 C1256 1.314 . S
N1257 C1260 1.279 . S
C1258 C1256 1.353 . S
C1258 C1261 1.348 . S
C1258 H1306 0.929 . S
C1259 C1260 1.358 . S
C1259 C1261 1.356 . S
C1259 H1307 0.930 . S
C1260 N1257 1.279 . S
C1260 C1259 1.358 . S
C1260 H1263 0.930 . S
C1261 C1258 1.348 . S
C1261 C1259 1.356 . S
H1262 C1256 0.930 . S
H1263 C1260 0.930 . S
C1264 C1266 1.348 . S
C1264 C1267 1.356 . S
C1264 O1294 1.325 . S
N1265 C1268 1.314 . S
N1265 C1269 1.279 . S
C1266 C1264 1.348 . S
C1266 C1268 1.353 . S
C1266 H1308 0.929 . S
C1267 C1264 1.356 . S
C1267 C1269 1.358 . S
C1267 H1309 0.930 . S
C1268 N1265 1.314 . S
C1268 C1266 1.353 . S
C1268 H1310 0.930 . S
C1269 N1265 1.279 . S
C1269 C1267 1.358 . S
C1269 H1311 0.930 . S
C1270 C1271 1.348 . S
C1270 C1272 1.356 . S
C1270 O1295 1.325 . S
C1271 C1270 1.348 . S
C1271 C1273 1.353 . S
C1271 H1312 0.929 . S
C1272 C1270 1.356 . S
C1272 C1274 1.358 . S
C1272 H1313 0.930 . S
C1273 C1271 1.353 . S
C1273 N1275 1.314 . S
C1273 H1314 0.930 . S
C1274 C1272 1.358 . S
C1274 N1275 1.279 . S
C1274 H1315 0.930 . S
N1275 C1273 1.314 . S
N1275 C1274 1.279 . S
C1276 C1278 1.353 . S
C1276 N1279 1.314 . S
C1276 H1282 0.930 . S
C1277 N1279 1.279 . S
C1277 C1280 1.358 . S
C1277 H1283 0.930 . S
C1278 C1276 1.353 . S
C1278 C1281 1.348 . S
C1278 H1316 0.929 . S
N1279 Li1234 1.990 . S
N1279 C1276 1.314 . S
N1279 C1277 1.279 . S
C1280 C1277 1.358 . S
C1280 C1281 1.356 . S
C1280 H1317 0.930 . S
C1281 C1278 1.348 . S
C1281 C1280 1.356 . S
H1282 C1276 0.930 . S
H1283 C1277 0.930 . S
C1284 N1285 1.314 . S
C1284 C1286 1.353 . S
C1284 H1290 0.930 . S
N1285 Li1235 1.990 . S
N1285 C1284 1.314 . S
N1285 C1288 1.279 . S
C1286 C1284 1.353 . S
C1286 C1289 1.348 . S
C1286 H1318 0.929 . S
C1287 C1288 1.358 . S
C1287 C1289 1.356 . S
C1287 H1319 0.930 . S
C1288 N1285 1.279 . S
C1288 C1287 1.358 . S
C1288 H1291 0.930 . S
C1289 C1286 1.348 . S
C1289 C1287 1.356 . S
H1290 C1284 0.930 . S
H1291 C1288 0.930 . S
O1292 Li1232 1.956 . S
O1292 Li1233 1.970 . S
O1292 Li1234 1.961 . S
O1292 C1236 1.325 . S
O1293 Li1232 1.970 . S
O1293 Li1233 1.956 . S
O1293 Li1235 1.961 . S
O1293 C1242 1.325 . S
O1294 Li1232 1.961 . S
O1294 Li1234 1.956 . S
O1294 Li1235 1.970 . S
O1294 C1264 1.325 . S
O1295 Li1233 1.961 . S
O1295 Li1234 1.970 . S
O1295 Li1235 1.956 . S
O1295 C1270 1.325 . S
H1296 C1238 0.929 . S
H1297 C1239 0.930 . S
H1298 C1240 0.930 . S
H1299 C1241 0.930 . S
H1300 C1243 0.930 . S
H1301 C1245 0.929 . S
H1302 C1246 0.930 . S
H1303 C1247 0.930 . S
H1304 C1250 0.930 . S
H1305 C1253 0.929 . S
H1306 C1258 0.929 . S
H1307 C1259 0.930 . S
H1308 C1266 0.929 . S
H1309 C1267 0.930 . S
H1310 C1268 0.930 . S
H1311 C1269 0.930 . S
H1312 C1271 0.929 . S
H1313 C1272 0.930 . S
H1314 C1273 0.930 . S
H1315 C1274 0.930 . S
H1316 C1278 0.929 . S
H1317 C1280 0.930 . S
H1318 C1286 0.929 . S
H1319 C1287 0.930 . S
Li1320 N1337 1.990 . S
Li1320 O1380 1.956 . S
Li1320 O1381 1.970 . S
Li1320 O1382 1.961 . S
Li1321 N1345 1.990 . S
Li1321 O1380 1.970 . S
Li1321 O1381 1.956 . S
Li1321 O1383 1.961 . S
Li1322 N1367 1.990 . S
Li1322 O1380 1.961 . S
Li1322 O1382 1.956 . S
Li1322 O1383 1.970 . S
Li1323 N1373 1.990 . S
Li1323 O1381 1.961 . S
Li1323 O1382 1.970 . S
Li1323 O1383 1.956 . S
C1324 C1326 1.348 . S
C1324 C1327 1.356 . S
C1324 O1380 1.325 . S
N1325 C1328 1.314 . S
N1325 C1329 1.279 . S
C1326 C1324 1.348 . S
C1326 C1328 1.353 . S
C1326 H1384 0.929 . S
C1327 C1324 1.356 . S
C1327 C1329 1.358 . S
C1327 H1385 0.930 . S
C1328 N1325 1.314 . S
C1328 C1326 1.353 . S
C1328 H1386 0.930 . S
C1329 N1325 1.279 . S
C1329 C1327 1.358 . S
C1329 H1387 0.930 . S
C1330 C1333 1.348 . S
C1330 C1334 1.356 . S
C1330 O1381 1.325 . S
C1331 N1332 1.279 . S
C1331 C1334 1.358 . S
C1331 H1388 0.930 . S
N1332 C1331 1.279 . S
N1332 C1335 1.314 . S
C1333 C1330 1.348 . S
C1333 C1335 1.353 . S
C1333 H1389 0.929 . S
C1334 C1330 1.356 . S
C1334 C1331 1.358 . S
C1334 H1390 0.930 . S
C1335 N1332 1.314 . S
C1335 C1333 1.353 . S
C1335 H1391 0.930 . S
C1336 N1337 1.314 . S
C1336 C1341 1.353 . S
C1336 H1342 0.930 . S
N1337 Li1320 1.990 . S
N1337 C1336 1.314 . S
N1337 C1339 1.279 . S
C1338 C1339 1.358 . S
C1338 C1340 1.356 . S
C1338 H1392 0.930 . S
C1339 N1337 1.279 . S
C1339 C1338 1.358 . S
C1339 H1343 0.930 . S
C1340 C1338 1.356 . S
C1340 C1341 1.348 . S
C1341 C1336 1.353 . S
C1341 C1340 1.348 . S
C1341 H1393 0.929 . S
H1342 C1336 0.930 . S
H1343 C1339 0.930 . S
C1344 N1345 1.314 . S
C1344 C1346 1.353 . S
C1344 H1350 0.930 . S
N1345 Li1321 1.990 . S
N1345 C1344 1.314 . S
N1345 C1348 1.279 . S
C1346 C1344 1.353 . S
C1346 C1349 1.348 . S
C1346 H1394 0.929 . S
C1347 C1348 1.358 . S
C1347 C1349 1.356 . S
C1347 H1395 0.930 . S
C1348 N1345 1.279 . S
C1348 C1347 1.358 . S
C1348 H1351 0.930 . S
C1349 C1346 1.348 . S
C1349 C1347 1.356 . S
H1350 C1344 0.930 . S
H1351 C1348 0.930 . S
C1352 C1354 1.348 . S
C1352 C1355 1.356 . S
C1352 O1382 1.325 . S
N1353 C1356 1.314 . S
N1353 C1357 1.279 . S
C1354 C1352 1.348 . S
C1354 C1356 1.353 . S
C1354 H1396 0.929 . S
C1355 C1352 1.356 . S
C1355 C1357 1.358 . S
C1355 H1397 0.930 . S
C1356 N1353 1.314 . S
C1356 C1354 1.353 . S
C1356 H1398 0.930 . S
C1357 N1353 1.279 . S
C1357 C1355 1.358 . S
C1357 H1399 0.930 . S
C1358 C1359 1.348 . S
C1358 C1360 1.356 . S
C1358 O1383 1.325 . S
C1359 C1358 1.348 . S
C1359 C1361 1.353 . S
C1359 H1400 0.929 . S
C1360 C1358 1.356 . S
C1360 C1362 1.358 . S
C1360 H1401 0.930 . S
C1361 C1359 1.353 . S
C1361 N1363 1.314 . S
C1361 H1402 0.930 . S
C1362 C1360 1.358 . S
C1362 N1363 1.279 . S
C1362 H1403 0.930 . S
N1363 C1361 1.314 . S
N1363 C1362 1.279 . S
C1364 C1366 1.353 . S
C1364 N1367 1.314 . S
C1364 H1370 0.930 . S
C1365 N1367 1.279 . S
C1365 C1368 1.358 . S
C1365 H1371 0.930 . S
C1366 C1364 1.353 . S
C1366 C1369 1.348 . S
C1366 H1404 0.929 . S
N1367 Li1322 1.990 . S
N1367 C1364 1.314 . S
N1367 C1365 1.279 . S
C1368 C1365 1.358 . S
C1368 C1369 1.356 . S
C1368 H1405 0.930 . S
C1369 C1366 1.348 . S
C1369 C1368 1.356 . S
H1370 C1364 0.930 . S
H1371 C1365 0.930 . S
C1372 N1373 1.314 . S
C1372 C1374 1.353 . S
C1372 H1378 0.930 . S
N1373 Li1323 1.990 . S
N1373 C1372 1.314 . S
N1373 C1376 1.279 . S
C1374 C1372 1.353 . S
C1374 C1377 1.348 . S
C1374 H1406 0.929 . S
C1375 C1376 1.358 . S
C1375 C1377 1.356 . S
C1375 H1407 0.930 . S
C1376 N1373 1.279 . S
C1376 C1375 1.358 . S
C1376 H1379 0.930 . S
C1377 C1374 1.348 . S
C1377 C1375 1.356 . S
H1378 C1372 0.930 . S
H1379 C1376 0.930 . S
O1380 Li1320 1.956 . S
O1380 Li1321 1.970 . S
O1380 Li1322 1.961 . S
O1380 C1324 1.325 . S
O1381 Li1320 1.970 . S
O1381 Li1321 1.956 . S
O1381 Li1323 1.961 . S
O1381 C1330 1.325 . S
O1382 Li1320 1.961 . S
O1382 Li1322 1.956 . S
O1382 Li1323 1.970 . S
O1382 C1352 1.325 . S
O1383 Li1321 1.961 . S
O1383 Li1322 1.970 . S
O1383 Li1323 1.956 . S
O1383 C1358 1.325 . S
H1384 C1326 0.929 . S
H1385 C1327 0.930 . S
H1386 C1328 0.930 . S
H1387 C1329 0.930 . S
H1388 C1331 0.930 . S
H1389 C1333 0.929 . S
H1390 C1334 0.930 . S
H1391 C1335 0.930 . S
H1392 C1338 0.930 . S
H1393 C1341 0.929 . S
H1394 C1346 0.929 . S
H1395 C1347 0.930 . S
H1396 C1354 0.929 . S
H1397 C1355 0.930 . S
H1398 C1356 0.930 . S
H1399 C1357 0.930 . S
H1400 C1359 0.929 . S
H1401 C1360 0.930 . S
H1402 C1361 0.930 . S
H1403 C1362 0.930 . S
H1404 C1366 0.929 . S
H1405 C1368 0.930 . S
H1406 C1374 0.929 . S
H1407 C1375 0.930 . S
Li1408 N1425 1.990 . S
Li1408 O1468 1.956 1_545 S
Li1408 O1469 1.970 . S
Li1408 O1470 1.961 . S
Li1409 N1433 1.990 . S
Li1409 O1468 1.970 . S
Li1409 O1469 1.956 1_565 S
Li1409 O1471 1.961 1_565 S
Li1410 N1455 1.990 . S
Li1410 O1468 1.961 1_545 S
Li1410 O1470 1.956 . S
Li1410 O1471 1.970 . S
Li1411 N1461 1.990 . S
Li1411 O1469 1.961 . S
Li1411 O1470 1.970 . S
Li1411 O1471 1.956 . S
C1412 C1414 1.348 . S
C1412 C1415 1.356 . S
C1412 O1468 1.325 . S
N1413 C1416 1.314 . S
N1413 C1417 1.279 . S
C1414 C1412 1.348 . S
C1414 C1416 1.353 . S
C1414 H1472 0.929 . S
C1415 C1412 1.356 . S
C1415 C1417 1.358 . S
C1415 H1473 0.930 . S
C1416 N1413 1.314 . S
C1416 C1414 1.353 . S
C1416 H1474 0.930 . S
C1417 N1413 1.279 . S
C1417 C1415 1.358 . S
C1417 H1475 0.930 . S
C1418 C1421 1.348 . S
C1418 C1422 1.356 . S
C1418 O1469 1.325 . S
C1419 N1420 1.279 . S
C1419 C1422 1.358 . S
C1419 H1476 0.930 . S
N1420 C1419 1.279 . S
N1420 C1423 1.314 . S
C1421 C1418 1.348 . S
C1421 C1423 1.353 . S
C1421 H1477 0.929 . S
C1422 C1418 1.356 . S
C1422 C1419 1.358 . S
C1422 H1478 0.930 . S
C1423 N1420 1.314 . S
C1423 C1421 1.353 . S
C1423 H1479 0.930 . S
C1424 N1425 1.314 . S
C1424 C1429 1.353 . S
C1424 H1430 0.930 . S
N1425 Li1408 1.990 . S
N1425 C1424 1.314 . S
N1425 C1427 1.279 . S
C1426 C1427 1.358 . S
C1426 C1428 1.356 . S
C1426 H1480 0.930 1_545 S
C1427 N1425 1.279 . S
C1427 C1426 1.358 . S
C1427 H1431 0.930 1_545 S
C1428 C1426 1.356 . S
C1428 C1429 1.348 . S
C1429 C1424 1.353 . S
C1429 C1428 1.348 . S
C1429 H1481 0.929 . S
H1430 C1424 0.930 . S
H1431 C1427 0.930 1_565 S
C1432 N1433 1.314 . S
C1432 C1434 1.353 . S
C1432 H1438 0.930 . S
N1433 Li1409 1.990 . S
N1433 C1432 1.314 . S
N1433 C1436 1.279 . S
C1434 C1432 1.353 . S
C1434 C1437 1.348 . S
C1434 H1482 0.929 . S
C1435 C1436 1.358 . S
C1435 C1437 1.356 . S
C1435 H1483 0.930 . S
C1436 N1433 1.279 . S
C1436 C1435 1.358 . S
C1436 H1439 0.930 . S
C1437 C1434 1.348 . S
C1437 C1435 1.356 . S
H1438 C1432 0.930 . S
H1439 C1436 0.930 . S
C1440 C1442 1.348 . S
C1440 C1443 1.356 . S
C1440 O1470 1.325 . S
N1441 C1444 1.314 . S
N1441 C1445 1.279 . S
C1442 C1440 1.348 . S
C1442 C1444 1.353 . S
C1442 H1484 0.929 . S
C1443 C1440 1.356 . S
C1443 C1445 1.358 . S
C1443 H1485 0.930 . S
C1444 N1441 1.314 . S
C1444 C1442 1.353 . S
C1444 H1486 0.930 . S
C1445 N1441 1.279 . S
C1445 C1443 1.358 . S
C1445 H1487 0.930 . S
C1446 C1447 1.348 . S
C1446 C1448 1.356 . S
C1446 O1471 1.325 . S
C1447 C1446 1.348 . S
C1447 C1449 1.353 . S
C1447 H1488 0.929 . S
C1448 C1446 1.356 . S
C1448 C1450 1.358 . S
C1448 H1489 0.930 . S
C1449 C1447 1.353 . S
C1449 N1451 1.314 . S
C1449 H1490 0.930 . S
C1450 C1448 1.358 . S
C1450 N1451 1.279 . S
C1450 H1491 0.930 1_545 S
N1451 C1449 1.314 . S
N1451 C1450 1.279 . S
C1452 C1454 1.350 1_545 S
C1452 N1455 1.325 . S
C1452 H1458 0.918 1_545 S
C1453 N1455 1.279 . S
C1453 C1456 1.358 . S
C1453 H1459 0.930 . S
C1454 C1452 1.350 1_565 S
C1454 C1457 1.311 1_565 S
C1454 H1492 0.969 . S
N1455 Li1410 1.990 . S
N1455 C1452 1.325 . S
N1455 C1453 1.279 . S
C1456 C1453 1.358 . S
C1456 C1457 1.356 . S
C1456 H1493 0.930 . S
C1457 C1454 1.311 1_545 S
C1457 C1456 1.356 . S
H1458 C1452 0.918 1_565 S
H1459 C1453 0.930 . S
C1460 N1461 1.314 . S
C1460 C1462 1.353 . S
C1460 H1466 0.930 . S
N1461 Li1411 1.990 . S
N1461 C1460 1.314 . S
N1461 C1464 1.279 . S
C1462 C1460 1.353 . S
C1462 C1465 1.348 . S
C1462 H1494 0.929 . S
C1463 C1464 1.358 . S
C1463 C1465 1.356 . S
C1463 H1495 0.930 . S
C1464 N1461 1.279 . S
C1464 C1463 1.358 . S
C1464 H1467 0.930 . S
C1465 C1462 1.348 . S
C1465 C1463 1.356 . S
H1466 C1460 0.930 . S
H1467 C1464 0.930 . S
O1468 Li1408 1.956 1_565 S
O1468 Li1409 1.970 . S
O1468 Li1410 1.961 1_565 S
O1468 C1412 1.325 . S
O1469 Li1408 1.970 . S
O1469 Li1409 1.956 1_545 S
O1469 Li1411 1.961 . S
O1469 C1418 1.325 . S
O1470 Li1408 1.961 . S
O1470 Li1410 1.956 . S
O1470 Li1411 1.970 . S
O1470 C1440 1.325 . S
O1471 Li1409 1.961 1_545 S
O1471 Li1410 1.970 . S
O1471 Li1411 1.956 . S
O1471 C1446 1.325 . S
H1472 C1414 0.929 . S
H1473 C1415 0.930 . S
H1474 C1416 0.930 . S
H1475 C1417 0.930 . S
H1476 C1419 0.930 . S
H1477 C1421 0.929 . S
H1478 C1422 0.930 . S
H1479 C1423 0.930 . S
H1480 C1426 0.930 1_565 S
H1481 C1429 0.929 . S
H1482 C1434 0.929 . S
H1483 C1435 0.930 . S
H1484 C1442 0.929 . S
H1485 C1443 0.930 . S
H1486 C1444 0.930 . S
H1487 C1445 0.930 . S
H1488 C1447 0.929 . S
H1489 C1448 0.930 . S
H1490 C1449 0.930 . S
H1491 C1450 0.930 1_565 S
H1492 C1454 0.969 . S
H1493 C1456 0.930 . S
H1494 C1462 0.929 . S
H1495 C1463 0.930 . S
Li1496 N1513 1.990 . S
Li1496 O1556 1.956 . S
Li1496 O1557 1.970 . S
Li1496 O1558 1.961 . S
Li1497 N1521 1.990 . S
Li1497 O1556 1.970 . S
Li1497 O1557 1.956 . S
Li1497 O1559 1.961 . S
Li1498 N1543 1.990 . S
Li1498 O1556 1.961 . S
Li1498 O1558 1.956 . S
Li1498 O1559 1.970 . S
Li1499 N1549 1.990 . S
Li1499 O1557 1.961 . S
Li1499 O1558 1.970 . S
Li1499 O1559 1.956 . S
C1500 C1502 1.348 . S
C1500 C1503 1.356 . S
C1500 O1556 1.325 . S
N1501 C1504 1.314 . S
N1501 C1505 1.279 . S
C1502 C1500 1.348 . S
C1502 C1504 1.353 . S
C1502 H1560 0.929 . S
C1503 C1500 1.356 . S
C1503 C1505 1.358 . S
C1503 H1561 0.930 . S
C1504 N1501 1.314 . S
C1504 C1502 1.353 . S
C1504 H1562 0.930 . S
C1505 N1501 1.279 . S
C1505 C1503 1.358 . S
C1505 H1563 0.930 . S
C1506 C1509 1.348 . S
C1506 C1510 1.356 . S
C1506 O1557 1.325 . S
C1507 N1508 1.279 . S
C1507 C1510 1.358 . S
C1507 H1564 0.930 . S
N1508 C1507 1.279 . S
N1508 C1511 1.314 . S
C1509 C1506 1.348 . S
C1509 C1511 1.353 . S
C1509 H1565 0.929 . S
C1510 C1506 1.356 . S
C1510 C1507 1.358 . S
C1510 H1566 0.930 . S
C1511 N1508 1.314 . S
C1511 C1509 1.353 . S
C1511 H1567 0.930 . S
C1512 N1513 1.314 . S
C1512 C1517 1.353 . S
C1512 H1518 0.930 . S
N1513 Li1496 1.990 . S
N1513 C1512 1.314 . S
N1513 C1515 1.279 . S
C1514 C1515 1.358 . S
C1514 C1516 1.356 . S
C1514 H1568 0.930 . S
C1515 N1513 1.279 . S
C1515 C1514 1.358 . S
C1515 H1519 0.930 . S
C1516 C1514 1.356 . S
C1516 C1517 1.348 . S
C1517 C1512 1.353 . S
C1517 C1516 1.348 . S
C1517 H1569 0.929 . S
H1518 C1512 0.930 . S
H1519 C1515 0.930 . S
C1520 N1521 1.314 . S
C1520 C1522 1.353 . S
C1520 H1526 0.930 . S
N1521 Li1497 1.990 . S
N1521 C1520 1.314 . S
N1521 C1524 1.279 . S
C1522 C1520 1.353 . S
C1522 C1525 1.348 . S
C1522 H1570 0.929 . S
C1523 C1524 1.358 . S
C1523 C1525 1.356 . S
C1523 H1571 0.930 . S
C1524 N1521 1.279 . S
C1524 C1523 1.358 . S
C1524 H1527 0.930 . S
C1525 C1522 1.348 . S
C1525 C1523 1.356 . S
H1526 C1520 0.930 . S
H1527 C1524 0.930 . S
C1528 C1530 1.348 . S
C1528 C1531 1.356 . S
C1528 O1558 1.325 . S
N1529 C1532 1.314 . S
N1529 C1533 1.279 . S
C1530 C1528 1.348 . S
C1530 C1532 1.353 . S
C1530 H1572 0.929 . S
C1531 C1528 1.356 . S
C1531 C1533 1.358 . S
C1531 H1573 0.930 . S
C1532 N1529 1.314 . S
C1532 C1530 1.353 . S
C1532 H1574 0.930 . S
C1533 N1529 1.279 . S
C1533 C1531 1.358 . S
C1533 H1575 0.930 . S
C1534 C1535 1.348 . S
C1534 C1536 1.356 . S
C1534 O1559 1.325 . S
C1535 C1534 1.348 . S
C1535 C1537 1.353 . S
C1535 H1576 0.929 . S
C1536 C1534 1.356 . S
C1536 C1538 1.358 . S
C1536 H1577 0.930 . S
C1537 C1535 1.353 . S
C1537 N1539 1.314 . S
C1537 H1578 0.930 . S
C1538 C1536 1.358 . S
C1538 N1539 1.279 . S
C1538 H1579 0.930 . S
N1539 C1537 1.314 . S
N1539 C1538 1.279 . S
C1540 C1542 1.353 . S
C1540 N1543 1.314 . S
C1540 H1546 0.930 . S
C1541 N1543 1.279 . S
C1541 C1544 1.358 . S
C1541 H1547 0.930 . S
C1542 C1540 1.353 . S
C1542 C1545 1.348 . S
C1542 H1580 0.929 . S
N1543 Li1498 1.990 . S
N1543 C1540 1.314 . S
N1543 C1541 1.279 . S
C1544 C1541 1.358 . S
C1544 C1545 1.356 . S
C1544 H1581 0.930 . S
C1545 C1542 1.348 . S
C1545 C1544 1.356 . S
H1546 C1540 0.930 . S
H1547 C1541 0.930 . S
C1548 N1549 1.314 . S
C1548 C1550 1.353 . S
C1548 H1554 0.930 . S
N1549 Li1499 1.990 . S
N1549 C1548 1.314 . S
N1549 C1552 1.279 . S
C1550 C1548 1.353 . S
C1550 C1553 1.348 . S
C1550 H1582 0.929 . S
C1551 C1552 1.358 . S
C1551 C1553 1.356 . S
C1551 H1583 0.930 . S
C1552 N1549 1.279 . S
C1552 C1551 1.358 . S
C1552 H1555 0.930 . S
C1553 C1550 1.348 . S
C1553 C1551 1.356 . S
H1554 C1548 0.930 . S
H1555 C1552 0.930 . S
O1556 Li1496 1.956 . S
O1556 Li1497 1.970 . S
O1556 Li1498 1.961 . S
O1556 C1500 1.325 . S
O1557 Li1496 1.970 . S
O1557 Li1497 1.956 . S
O1557 Li1499 1.961 . S
O1557 C1506 1.325 . S
O1558 Li1496 1.961 . S
O1558 Li1498 1.956 . S
O1558 Li1499 1.970 . S
O1558 C1528 1.325 . S
O1559 Li1497 1.961 . S
O1559 Li1498 1.970 . S
O1559 Li1499 1.956 . S
O1559 C1534 1.325 . S
H1560 C1502 0.929 . S
H1561 C1503 0.930 . S
H1562 C1504 0.930 . S
H1563 C1505 0.930 . S
H1564 C1507 0.930 . S
H1565 C1509 0.929 . S
H1566 C1510 0.930 . S
H1567 C1511 0.930 . S
H1568 C1514 0.930 . S
H1569 C1517 0.929 . S
H1570 C1522 0.929 . S
H1571 C1523 0.930 . S
H1572 C1530 0.929 . S
H1573 C1531 0.930 . S
H1574 C1532 0.930 . S
H1575 C1533 0.930 . S
H1576 C1535 0.929 . S
H1577 C1536 0.930 . S
H1578 C1537 0.930 . S
H1579 C1538 0.930 . S
H1580 C1542 0.929 . S
H1581 C1544 0.930 . S
H1582 C1550 0.929 . S
H1583 C1551 0.930 . S
Li1584 N1601 1.990 . S
Li1584 O1644 1.956 . S
Li1584 O1645 1.970 . S
Li1584 O1646 1.961 . S
Li1585 N1609 1.990 . S
Li1585 O1644 1.970 . S
Li1585 O1645 1.956 . S
Li1585 O1647 1.961 . S
Li1586 N1631 1.990 . S
Li1586 O1644 1.961 . S
Li1586 O1646 1.956 . S
Li1586 O1647 1.970 . S
Li1587 N1637 1.990 . S
Li1587 O1645 1.961 . S
Li1587 O1646 1.970 . S
Li1587 O1647 1.956 . S
C1588 C1590 1.348 . S
C1588 C1591 1.356 . S
C1588 O1644 1.325 . S
N1589 C1592 1.314 . S
N1589 C1593 1.279 . S
C1590 C1588 1.348 . S
C1590 C1592 1.353 . S
C1590 H1648 0.929 . S
C1591 C1588 1.356 . S
C1591 C1593 1.358 . S
C1591 H1649 0.930 . S
C1592 N1589 1.314 . S
C1592 C1590 1.353 . S
C1592 H1650 0.930 . S
C1593 N1589 1.279 . S
C1593 C1591 1.358 . S
C1593 H1651 0.930 . S
C1594 C1597 1.348 . S
C1594 C1598 1.356 . S
C1594 O1645 1.325 . S
C1595 N1596 1.279 . S
C1595 C1598 1.358 . S
C1595 H1652 0.930 . S
N1596 C1595 1.279 . S
N1596 C1599 1.314 . S
C1597 C1594 1.348 . S
C1597 C1599 1.353 . S
C1597 H1653 0.929 . S
C1598 C1594 1.356 . S
C1598 C1595 1.358 . S
C1598 H1654 0.930 . S
C1599 N1596 1.314 . S
C1599 C1597 1.353 . S
C1599 H1655 0.930 . S
C1600 N1601 1.314 . S
C1600 C1605 1.353 . S
C1600 H1606 0.930 . S
N1601 Li1584 1.990 . S
N1601 C1600 1.314 . S
N1601 C1603 1.279 . S
C1602 C1603 1.358 . S
C1602 C1604 1.356 . S
C1602 H1656 0.930 . S
C1603 N1601 1.279 . S
C1603 C1602 1.358 . S
C1603 H1607 0.930 . S
C1604 C1602 1.356 . S
C1604 C1605 1.348 . S
C1605 C1600 1.353 . S
C1605 C1604 1.348 . S
C1605 H1657 0.929 . S
H1606 C1600 0.930 . S
H1607 C1603 0.930 . S
C1608 N1609 1.314 . S
C1608 C1610 1.353 . S
C1608 H1614 0.930 . S
N1609 Li1585 1.990 . S
N1609 C1608 1.314 . S
N1609 C1612 1.279 . S
C1610 C1608 1.353 . S
C1610 C1613 1.348 . S
C1610 H1658 0.929 . S
C1611 C1612 1.358 . S
C1611 C1613 1.356 . S
C1611 H1659 0.930 . S
C1612 N1609 1.279 . S
C1612 C1611 1.358 . S
C1612 H1615 0.930 . S
C1613 C1610 1.348 . S
C1613 C1611 1.356 . S
H1614 C1608 0.930 . S
H1615 C1612 0.930 . S
C1616 C1618 1.348 . S
C1616 C1619 1.356 . S
C1616 O1646 1.325 . S
N1617 C1620 1.314 . S
N1617 C1621 1.279 . S
C1618 C1616 1.348 . S
C1618 C1620 1.353 . S
C1618 H1660 0.929 . S
C1619 C1616 1.356 . S
C1619 C1621 1.358 . S
C1619 H1661 0.930 . S
C1620 N1617 1.314 . S
C1620 C1618 1.353 . S
C1620 H1662 0.930 . S
C1621 N1617 1.279 . S
C1621 C1619 1.358 . S
C1621 H1663 0.930 . S
C1622 C1623 1.348 . S
C1622 C1624 1.356 . S
C1622 O1647 1.325 . S
C1623 C1622 1.348 . S
C1623 C1625 1.353 . S
C1623 H1664 0.929 . S
C1624 C1622 1.356 . S
C1624 C1626 1.358 . S
C1624 H1665 0.930 . S
C1625 C1623 1.353 . S
C1625 N1627 1.314 . S
C1625 H1666 0.930 . S
C1626 C1624 1.358 . S
C1626 N1627 1.279 . S
C1626 H1667 0.930 . S
N1627 C1625 1.314 . S
N1627 C1626 1.279 . S
C1628 C1630 1.353 . S
C1628 N1631 1.314 . S
C1628 H1634 0.930 . S
C1629 N1631 1.279 . S
C1629 C1632 1.358 . S
C1629 H1635 0.930 . S
C1630 C1628 1.353 . S
C1630 C1633 1.348 . S
C1630 H1668 0.929 . S
N1631 Li1586 1.990 . S
N1631 C1628 1.314 . S
N1631 C1629 1.279 . S
C1632 C1629 1.358 . S
C1632 C1633 1.356 . S
C1632 H1669 0.930 . S
C1633 C1630 1.348 . S
C1633 C1632 1.356 . S
H1634 C1628 0.930 . S
H1635 C1629 0.930 . S
C1636 N1637 1.314 . S
C1636 C1638 1.353 . S
C1636 H1642 0.930 . S
N1637 Li1587 1.990 . S
N1637 C1636 1.314 . S
N1637 C1640 1.279 . S
C1638 C1636 1.353 . S
C1638 C1641 1.348 . S
C1638 H1670 0.929 . S
C1639 C1640 1.358 . S
C1639 C1641 1.356 . S
C1639 H1671 0.930 . S
C1640 N1637 1.279 . S
C1640 C1639 1.358 . S
C1640 H1643 0.930 . S
C1641 C1638 1.348 . S
C1641 C1639 1.356 . S
H1642 C1636 0.930 . S
H1643 C1640 0.930 . S
O1644 Li1584 1.956 . S
O1644 Li1585 1.970 . S
O1644 Li1586 1.961 . S
O1644 C1588 1.325 . S
O1645 Li1584 1.970 . S
O1645 Li1585 1.956 . S
O1645 Li1587 1.961 . S
O1645 C1594 1.325 . S
O1646 Li1584 1.961 . S
O1646 Li1586 1.956 . S
O1646 Li1587 1.970 . S
O1646 C1616 1.325 . S
O1647 Li1585 1.961 . S
O1647 Li1586 1.970 . S
O1647 Li1587 1.956 . S
O1647 C1622 1.325 . S
H1648 C1590 0.929 . S
H1649 C1591 0.930 . S
H1650 C1592 0.930 . S
H1651 C1593 0.930 . S
H1652 C1595 0.930 . S
H1653 C1597 0.929 . S
H1654 C1598 0.930 . S
H1655 C1599 0.930 . S
H1656 C1602 0.930 . S
H1657 C1605 0.929 . S
H1658 C1610 0.929 . S
H1659 C1611 0.930 . S
H1660 C1618 0.929 . S
H1661 C1619 0.930 . S
H1662 C1620 0.930 . S
H1663 C1621 0.930 . S
H1664 C1623 0.929 . S
H1665 C1624 0.930 . S
H1666 C1625 0.930 . S
H1667 C1626 0.930 . S
H1668 C1630 0.929 . S
H1669 C1632 0.930 . S
H1670 C1638 0.929 . S
H1671 C1639 0.930 . S
Li1672 N1689 1.991 1_545 S
Li1672 O1732 1.954 . S
Li1672 O1733 1.971 . S
Li1672 O1734 1.963 1_545 S
Li1673 N1697 1.990 . S
Li1673 O1732 1.970 . S
Li1673 O1733 1.956 . S
Li1673 O1735 1.961 . S
Li1674 N1719 1.990 . S
Li1674 O1732 1.961 1_565 S
Li1674 O1734 1.956 . S
Li1674 O1735 1.970 1_565 S
Li1675 N1725 1.990 . S
Li1675 O1733 1.961 1_565 S
Li1675 O1734 1.970 . S
Li1675 O1735 1.956 1_565 S
C1676 C1678 1.348 . S
C1676 C1679 1.356 . S
C1676 O1732 1.325 . S
N1677 C1680 1.314 . S
N1677 C1681 1.279 . S
C1678 C1676 1.348 . S
C1678 C1680 1.353 . S
C1678 H1736 0.929 . S
C1679 C1676 1.356 . S
C1679 C1681 1.358 . S
C1679 H1737 0.930 . S
C1680 N1677 1.314 . S
C1680 C1678 1.353 . S
C1680 H1738 0.930 . S
C1681 N1677 1.279 . S
C1681 C1679 1.358 . S
C1681 H1739 0.930 . S
C1682 C1685 1.348 . S
C1682 C1686 1.356 . S
C1682 O1733 1.325 . S
C1683 N1684 1.279 . S
C1683 C1686 1.358 . S
C1683 H1740 0.930 . S
N1684 C1683 1.279 . S
N1684 C1687 1.314 . S
C1685 C1682 1.348 . S
C1685 C1687 1.353 . S
C1685 H1741 0.929 . S
C1686 C1682 1.356 . S
C1686 C1683 1.358 . S
C1686 H1742 0.929 1_545 S
C1687 N1684 1.314 . S
C1687 C1685 1.353 . S
C1687 H1743 0.930 . S
C1688 N1689 1.333 . S
C1688 C1693 1.353 . S
C1688 H1694 0.930 . S
N1689 Li1672 1.991 1_565 S
N1689 C1688 1.333 . S
N1689 C1691 1.262 1_565 S
C1690 C1691 1.358 . S
C1690 C1692 1.356 1_545 S
C1690 H1744 0.930 . S
C1691 N1689 1.262 1_545 S
C1691 C1690 1.358 . S
C1691 H1695 0.930 . S
C1692 C1690 1.356 1_565 S
C1692 C1693 1.348 . S
C1693 C1688 1.353 . S
C1693 C1692 1.348 . S
C1693 H1745 0.929 . S
H1694 C1688 0.930 . S
H1695 C1691 0.930 . S
C1696 N1697 1.314 . S
C1696 C1698 1.353 . S
C1696 H1702 0.930 . S
N1697 Li1673 1.990 . S
N1697 C1696 1.314 . S
N1697 C1700 1.279 . S
C1698 C1696 1.353 . S
C1698 C1701 1.348 . S
C1698 H1746 0.929 . S
C1699 C1700 1.358 . S
C1699 C1701 1.356 . S
C1699 H1747 0.930 . S
C1700 N1697 1.279 . S
C1700 C1699 1.358 . S
C1700 H1703 0.930 . S
C1701 C1698 1.348 . S
C1701 C1699 1.356 . S
H1702 C1696 0.930 . S
H1703 C1700 0.930 . S
C1704 C1706 1.348 . S
C1704 C1707 1.356 . S
C1704 O1734 1.325 . S
N1705 C1708 1.314 . S
N1705 C1709 1.279 . S
C1706 C1704 1.348 . S
C1706 C1708 1.353 . S
C1706 H1748 0.929 . S
C1707 C1704 1.356 . S
C1707 C1709 1.358 . S
C1707 H1749 0.930 . S
C1708 N1705 1.314 . S
C1708 C1706 1.353 . S
C1708 H1750 0.930 . S
C1709 N1705 1.279 . S
C1709 C1707 1.358 . S
C1709 H1751 0.930 . S
C1710 C1711 1.348 1_545 S
C1710 C1712 1.356 . S
C1710 O1735 1.325 . S
C1711 C1710 1.348 1_565 S
C1711 C1713 1.353 . S
C1711 H1752 0.929 . S
C1712 C1710 1.356 . S
C1712 C1714 1.358 . S
C1712 H1753 0.930 . S
C1713 C1711 1.353 . S
C1713 N1715 1.308 1_565 S
C1713 H1754 0.930 . S
C1714 C1712 1.358 . S
C1714 N1715 1.288 . S
C1714 H1755 0.930 . S
N1715 C1713 1.308 1_545 S
N1715 C1714 1.288 . S
C1716 C1718 1.353 . S
C1716 N1719 1.314 1_545 S
C1716 H1722 0.930 . S
C1717 N1719 1.279 . S
C1717 C1720 1.358 . S
C1717 H1723 0.930 . S
C1718 C1716 1.353 . S
C1718 C1721 1.348 1_545 S
C1718 H1756 0.929 . S
N1719 Li1674 1.990 . S
N1719 C1716 1.314 1_565 S
N1719 C1717 1.279 . S
C1720 C1717 1.358 . S
C1720 C1721 1.356 . S
C1720 H1757 0.930 . S
C1721 C1718 1.348 1_565 S
C1721 C1720 1.356 . S
H1722 C1716 0.930 . S
H1723 C1717 0.930 . S
C1724 N1725 1.314 . S
C1724 C1726 1.353 . S
C1724 H1730 0.930 . S
N1725 Li1675 1.990 . S
N1725 C1724 1.314 . S
N1725 C1728 1.279 . S
C1726 C1724 1.353 . S
C1726 C1729 1.348 . S
C1726 H1758 0.929 . S
C1727 C1728 1.358 . S
C1727 C1729 1.356 . S
C1727 H1759 0.930 . S
C1728 N1725 1.279 . S
C1728 C1727 1.358 . S
C1728 H1731 0.930 . S
C1729 C1726 1.348 . S
C1729 C1727 1.356 . S
H1730 C1724 0.930 . S
H1731 C1728 0.930 . S
O1732 Li1672 1.954 . S
O1732 Li1673 1.970 . S
O1732 Li1674 1.961 1_545 S
O1732 C1676 1.325 . S
O1733 Li1672 1.971 . S
O1733 Li1673 1.956 . S
O1733 Li1675 1.961 1_545 S
O1733 C1682 1.325 . S
O1734 Li1672 1.963 1_565 S
O1734 Li1674 1.956 . S
O1734 Li1675 1.970 . S
O1734 C1704 1.325 . S
O1735 Li1673 1.961 . S
O1735 Li1674 1.970 1_545 S
O1735 Li1675 1.956 1_545 S
O1735 C1710 1.325 . S
H1736 C1678 0.929 . S
H1737 C1679 0.930 . S
H1738 C1680 0.930 . S
H1739 C1681 0.930 . S
H1740 C1683 0.930 . S
H1741 C1685 0.929 . S
H1742 C1686 0.929 1_565 S
H1743 C1687 0.930 . S
H1744 C1690 0.930 . S
H1745 C1693 0.929 . S
H1746 C1698 0.929 . S
H1747 C1699 0.930 . S
H1748 C1706 0.929 . S
H1749 C1707 0.930 . S
H1750 C1708 0.930 . S
H1751 C1709 0.930 . S
H1752 C1711 0.929 . S
H1753 C1712 0.930 . S
H1754 C1713 0.930 . S
H1755 C1714 0.930 . S
H1756 C1718 0.929 . S
H1757 C1720 0.930 . S
H1758 C1726 0.929 . S
H1759 C1727 0.930 . S
Li1760 N1777 1.990 . S
Li1760 O1820 1.956 . S
Li1760 O1821 1.970 . S
Li1760 O1822 1.979 . S
Li1761 N1785 1.991 . S
Li1761 O1820 1.968 . S
Li1761 O1821 1.986 . S
Li1761 O1823 1.932 1_554 S
Li1762 N1807 1.990 . S
Li1762 O1820 1.961 1_556 S
Li1762 O1822 1.935 1_556 S
Li1762 O1823 1.970 . S
Li1763 N1813 1.990 . S
Li1763 O1821 1.961 1_556 S
Li1763 O1822 1.970 1_556 S
Li1763 O1823 1.956 . S
C1764 C1766 1.348 . S
C1764 C1767 1.363 . S
C1764 O1820 1.325 . S
N1765 C1768 1.314 . S
N1765 C1769 1.279 . S
C1766 C1764 1.348 . S
C1766 C1768 1.353 . S
C1766 H1824 0.929 . S
C1767 C1764 1.363 . S
C1767 C1769 1.358 . S
C1767 H1825 0.924 1_554 S
C1768 N1765 1.314 . S
C1768 C1766 1.353 . S
C1768 H1826 0.930 . S
C1769 N1765 1.279 . S
C1769 C1767 1.358 . S
C1769 H1827 0.929 1_554 S
C1770 C1773 1.348 . S
C1770 C1774 1.356 . S
C1770 O1821 1.325 . S
C1771 N1772 1.279 . S
C1771 C1774 1.358 . S
C1771 H1828 0.930 . S
N1772 C1771 1.279 . S
N1772 C1775 1.314 . S
C1773 C1770 1.348 . S
C1773 C1775 1.353 . S
C1773 H1829 0.929 . S
C1774 C1770 1.356 . S
C1774 C1771 1.358 . S
C1774 H1830 0.930 . S
C1775 N1772 1.314 . S
C1775 C1773 1.353 . S
C1775 H1831 0.930 . S
C1776 N1777 1.314 . S
C1776 C1781 1.353 . S
C1776 H1782 0.930 . S
N1777 Li1760 1.990 . S
N1777 C1776 1.314 . S
N1777 C1779 1.279 . S
C1778 C1779 1.358 . S
C1778 C1780 1.356 . S
C1778 H1832 0.930 . S
C1779 N1777 1.279 . S
C1779 C1778 1.358 . S
C1779 H1783 0.930 . S
C1780 C1778 1.356 . S
C1780 C1781 1.348 . S
C1781 C1776 1.353 . S
C1781 C1780 1.348 . S
C1781 H1833 0.929 . S
H1782 C1776 0.930 . S
H1783 C1779 0.930 . S
C1784 N1785 1.314 1_556 S
C1784 C1786 1.353 . S
C1784 H1790 0.930 . S
N1785 Li1761 1.991 . S
N1785 C1784 1.314 1_554 S
N1785 C1788 1.279 . S
C1786 C1784 1.353 . S
C1786 C1789 1.327 1_556 S
C1786 H1834 0.929 . S
C1787 C1788 1.358 . S
C1787 C1789 1.377 . S
C1787 H1835 0.930 . S
C1788 N1785 1.279 . S
C1788 C1787 1.358 . S
C1788 H1791 0.930 . S
C1789 C1786 1.327 1_554 S
C1789 C1787 1.377 . S
H1790 C1784 0.930 . S
H1791 C1788 0.930 . S
C1792 C1794 1.346 . S
C1792 C1795 1.357 1_556 S
C1792 O1822 1.325 1_556 S
N1793 C1796 1.314 . S
N1793 C1797 1.279 1_556 S
C1794 C1792 1.346 . S
C1794 C1796 1.353 . S
C1794 H1836 0.929 . S
C1795 C1792 1.357 1_554 S
C1795 C1797 1.358 . S
C1795 H1837 0.930 . S
C1796 N1793 1.314 . S
C1796 C1794 1.353 . S
C1796 H1838 0.930 . S
C1797 N1793 1.279 1_554 S
C1797 C1795 1.358 . S
C1797 H1839 0.930 . S
C1798 C1799 1.348 . S
C1798 C1800 1.356 . S
C1798 O1823 1.325 . S
C1799 C1798 1.348 . S
C1799 C1801 1.353 . S
C1799 H1840 0.929 . S
C1800 C1798 1.356 . S
C1800 C1802 1.358 . S
C1800 H1841 0.930 . S
C1801 C1799 1.353 . S
C1801 N1803 1.314 . S
C1801 H1842 0.930 . S
C1802 C1800 1.358 . S
C1802 N1803 1.279 . S
C1802 H1843 0.930 . S
N1803 C1801 1.314 . S
N1803 C1802 1.279 . S
C1804 C1806 1.353 . S
C1804 N1807 1.314 . S
C1804 H1810 0.930 . S
C1805 N1807 1.279 . S
C1805 C1808 1.358 . S
C1805 H1811 0.930 . S
C1806 C1804 1.353 . S
C1806 C1809 1.348 . S
C1806 H1844 0.929 . S
N1807 Li1762 1.990 . S
N1807 C1804 1.314 . S
N1807 C1805 1.279 . S
C1808 C1805 1.358 . S
C1808 C1809 1.356 . S
C1808 H1845 0.930 . S
C1809 C1806 1.348 . S
C1809 C1808 1.356 . S
H1810 C1804 0.930 . S
H1811 C1805 0.930 . S
C1812 N1813 1.314 1_554 S
C1812 C1814 1.353 . S
C1812 H1818 0.930 . S
N1813 Li1763 1.990 . S
N1813 C1812 1.314 1_556 S
N1813 C1816 1.279 . S
C1814 C1812 1.353 . S
C1814 C1817 1.348 1_554 S
C1814 H1846 0.929 . S
C1815 C1816 1.358 . S
C1815 C1817 1.356 . S
C1815 H1847 0.930 . S
C1816 N1813 1.279 . S
C1816 C1815 1.358 . S
C1816 H1819 0.930 . S
C1817 C1814 1.348 1_556 S
C1817 C1815 1.356 . S
H1818 C1812 0.930 . S
H1819 C1816 0.930 . S
O1820 Li1760 1.956 . S
O1820 Li1761 1.968 . S
O1820 Li1762 1.961 1_554 S
O1820 C1764 1.325 . S
O1821 Li1760 1.970 . S
O1821 Li1761 1.986 . S
O1821 Li1763 1.961 1_554 S
O1821 C1770 1.325 . S
O1822 Li1760 1.979 . S
O1822 Li1762 1.935 1_554 S
O1822 Li1763 1.970 1_554 S
O1822 C1792 1.325 1_554 S
O1823 Li1761 1.932 1_556 S
O1823 Li1762 1.970 . S
O1823 Li1763 1.956 . S
O1823 C1798 1.325 . S
H1824 C1766 0.929 . S
H1825 C1767 0.924 1_556 S
H1826 C1768 0.930 . S
H1827 C1769 0.929 1_556 S
H1828 C1771 0.930 . S
H1829 C1773 0.929 . S
H1830 C1774 0.930 . S
H1831 C1775 0.930 . S
H1832 C1778 0.930 . S
H1833 C1781 0.929 . S
H1834 C1786 0.929 . S
H1835 C1787 0.930 . S
H1836 C1794 0.929 . S
H1837 C1795 0.930 . S
H1838 C1796 0.930 . S
H1839 C1797 0.930 . S
H1840 C1799 0.929 . S
H1841 C1800 0.930 . S
H1842 C1801 0.930 . S
H1843 C1802 0.930 . S
H1844 C1806 0.929 . S
H1845 C1808 0.930 . S
H1846 C1814 0.929 . S
H1847 C1815 0.930 . S
Li1848 N1865 1.990 . S
Li1848 O1908 1.956 . S
Li1848 O1909 1.970 . S
Li1848 O1910 1.961 . S
Li1849 N1873 1.990 . S
Li1849 O1908 1.970 . S
Li1849 O1909 1.956 . S
Li1849 O1911 1.961 . S
Li1850 N1895 1.990 . S
Li1850 O1908 1.961 . S
Li1850 O1910 1.956 . S
Li1850 O1911 1.970 . S
Li1851 N1901 1.990 . S
Li1851 O1909 1.961 . S
Li1851 O1910 1.970 . S
Li1851 O1911 1.956 . S
C1852 C1854 1.348 . S
C1852 C1855 1.356 . S
C1852 O1908 1.325 . S
N1853 C1856 1.314 . S
N1853 C1857 1.279 . S
C1854 C1852 1.348 . S
C1854 C1856 1.353 . S
C1854 H1912 0.929 . S
C1855 C1852 1.356 . S
C1855 C1857 1.358 . S
C1855 H1913 0.930 . S
C1856 N1853 1.314 . S
C1856 C1854 1.353 . S
C1856 H1914 0.930 . S
C1857 N1853 1.279 . S
C1857 C1855 1.358 . S
C1857 H1915 0.930 . S
C1858 C1861 1.348 . S
C1858 C1862 1.356 . S
C1858 O1909 1.325 . S
C1859 N1860 1.279 . S
C1859 C1862 1.358 . S
C1859 H1916 0.930 . S
N1860 C1859 1.279 . S
N1860 C1863 1.314 . S
C1861 C1858 1.348 . S
C1861 C1863 1.353 . S
C1861 H1917 0.929 . S
C1862 C1858 1.356 . S
C1862 C1859 1.358 . S
C1862 H1918 0.930 . S
C1863 N1860 1.314 . S
C1863 C1861 1.353 . S
C1863 H1919 0.930 . S
C1864 N1865 1.314 . S
C1864 C1869 1.353 . S
C1864 H1870 0.930 . S
N1865 Li1848 1.990 . S
N1865 C1864 1.314 . S
N1865 C1867 1.279 . S
C1866 C1867 1.358 . S
C1866 C1868 1.356 . S
C1866 H1920 0.930 . S
C1867 N1865 1.279 . S
C1867 C1866 1.358 . S
C1867 H1871 0.930 . S
C1868 C1866 1.356 . S
C1868 C1869 1.348 . S
C1869 C1864 1.353 . S
C1869 C1868 1.348 . S
C1869 H1921 0.929 . S
H1870 C1864 0.930 . S
H1871 C1867 0.930 . S
C1872 N1873 1.314 . S
C1872 C1874 1.353 . S
C1872 H1878 0.930 . S
N1873 Li1849 1.990 . S
N1873 C1872 1.314 . S
N1873 C1876 1.279 . S
C1874 C1872 1.353 . S
C1874 C1877 1.348 . S
C1874 H1922 0.929 . S
C1875 C1876 1.358 . S
C1875 C1877 1.356 . S
C1875 H1923 0.930 . S
C1876 N1873 1.279 . S
C1876 C1875 1.358 . S
C1876 H1879 0.930 . S
C1877 C1874 1.348 . S
C1877 C1875 1.356 . S
H1878 C1872 0.930 . S
H1879 C1876 0.930 . S
C1880 C1882 1.348 . S
C1880 C1883 1.356 . S
C1880 O1910 1.325 . S
N1881 C1884 1.314 . S
N1881 C1885 1.279 . S
C1882 C1880 1.348 . S
C1882 C1884 1.353 . S
C1882 H1924 0.929 . S
C1883 C1880 1.356 . S
C1883 C1885 1.358 . S
C1883 H1925 0.930 . S
C1884 N1881 1.314 . S
C1884 C1882 1.353 . S
C1884 H1926 0.930 . S
C1885 N1881 1.279 . S
C1885 C1883 1.358 . S
C1885 H1927 0.930 . S
C1886 C1887 1.348 . S
C1886 C1888 1.356 . S
C1886 O1911 1.325 . S
C1887 C1886 1.348 . S
C1887 C1889 1.353 . S
C1887 H1928 0.929 . S
C1888 C1886 1.356 . S
C1888 C1890 1.358 . S
C1888 H1929 0.930 . S
C1889 C1887 1.353 . S
C1889 N1891 1.314 . S
C1889 H1930 0.930 . S
C1890 C1888 1.358 . S
C1890 N1891 1.279 . S
C1890 H1931 0.930 . S
N1891 C1889 1.314 . S
N1891 C1890 1.279 . S
C1892 C1894 1.353 . S
C1892 N1895 1.314 . S
C1892 H1898 0.930 . S
C1893 N1895 1.279 . S
C1893 C1896 1.358 . S
C1893 H1899 0.930 . S
C1894 C1892 1.353 . S
C1894 C1897 1.348 . S
C1894 H1932 0.929 . S
N1895 Li1850 1.990 . S
N1895 C1892 1.314 . S
N1895 C1893 1.279 . S
C1896 C1893 1.358 . S
C1896 C1897 1.356 . S
C1896 H1933 0.930 . S
C1897 C1894 1.348 . S
C1897 C1896 1.356 . S
H1898 C1892 0.930 . S
H1899 C1893 0.930 . S
C1900 N1901 1.314 . S
C1900 C1902 1.353 . S
C1900 H1906 0.930 . S
N1901 Li1851 1.990 . S
N1901 C1900 1.314 . S
N1901 C1904 1.279 . S
C1902 C1900 1.353 . S
C1902 C1905 1.348 . S
C1902 H1934 0.929 . S
C1903 C1904 1.358 . S
C1903 C1905 1.356 . S
C1903 H1935 0.930 . S
C1904 N1901 1.279 . S
C1904 C1903 1.358 . S
C1904 H1907 0.930 . S
C1905 C1902 1.348 . S
C1905 C1903 1.356 . S
H1906 C1900 0.930 . S
H1907 C1904 0.930 . S
O1908 Li1848 1.956 . S
O1908 Li1849 1.970 . S
O1908 Li1850 1.961 . S
O1908 C1852 1.325 . S
O1909 Li1848 1.970 . S
O1909 Li1849 1.956 . S
O1909 Li1851 1.961 . S
O1909 C1858 1.325 . S
O1910 Li1848 1.961 . S
O1910 Li1850 1.956 . S
O1910 Li1851 1.970 . S
O1910 C1880 1.325 . S
O1911 Li1849 1.961 . S
O1911 Li1850 1.970 . S
O1911 Li1851 1.956 . S
O1911 C1886 1.325 . S
H1912 C1854 0.929 . S
H1913 C1855 0.930 . S
H1914 C1856 0.930 . S
H1915 C1857 0.930 . S
H1916 C1859 0.930 . S
H1917 C1861 0.929 . S
H1918 C1862 0.930 . S
H1919 C1863 0.930 . S
H1920 C1866 0.930 . S
H1921 C1869 0.929 . S
H1922 C1874 0.929 . S
H1923 C1875 0.930 . S
H1924 C1882 0.929 . S
H1925 C1883 0.930 . S
H1926 C1884 0.930 . S
H1927 C1885 0.930 . S
H1928 C1887 0.929 . S
H1929 C1888 0.930 . S
H1930 C1889 0.930 . S
H1931 C1890 0.930 . S
H1932 C1894 0.929 . S
H1933 C1896 0.930 . S
H1934 C1902 0.929 . S
H1935 C1903 0.930 . S
Li1936 N1953 1.990 . S
Li1936 O1996 1.956 . S
Li1936 O1997 1.970 . S
Li1936 O1998 1.961 . S
Li1937 N1961 1.990 . S
Li1937 O1996 1.970 . S
Li1937 O1997 1.956 . S
Li1937 O1999 1.961 . S
Li1938 N1983 1.990 . S
Li1938 O1996 1.961 . S
Li1938 O1998 1.956 . S
Li1938 O1999 1.970 . S
Li1939 N1989 1.990 . S
Li1939 O1997 1.961 . S
Li1939 O1998 1.970 . S
Li1939 O1999 1.956 . S
C1940 C1942 1.348 . S
C1940 C1943 1.356 . S
C1940 O1996 1.325 . S
N1941 C1944 1.314 . S
N1941 C1945 1.279 . S
C1942 C1940 1.348 . S
C1942 C1944 1.353 . S
C1942 H2000 0.929 . S
C1943 C1940 1.356 . S
C1943 C1945 1.358 . S
C1943 H2001 0.930 . S
C1944 N1941 1.314 . S
C1944 C1942 1.353 . S
C1944 H2002 0.930 . S
C1945 N1941 1.279 . S
C1945 C1943 1.358 . S
C1945 H2003 0.930 . S
C1946 C1949 1.348 . S
C1946 C1950 1.356 . S
C1946 O1997 1.325 . S
C1947 N1948 1.279 . S
C1947 C1950 1.358 . S
C1947 H2004 0.930 . S
N1948 C1947 1.279 . S
N1948 C1951 1.314 . S
C1949 C1946 1.348 . S
C1949 C1951 1.353 . S
C1949 H2005 0.929 . S
C1950 C1946 1.356 . S
C1950 C1947 1.358 . S
C1950 H2006 0.930 . S
C1951 N1948 1.314 . S
C1951 C1949 1.353 . S
C1951 H2007 0.930 . S
C1952 N1953 1.314 . S
C1952 C1957 1.353 . S
C1952 H1958 0.930 . S
N1953 Li1936 1.990 . S
N1953 C1952 1.314 . S
N1953 C1955 1.279 . S
C1954 C1955 1.358 . S
C1954 C1956 1.356 . S
C1954 H2008 0.930 . S
C1955 N1953 1.279 . S
C1955 C1954 1.358 . S
C1955 H1959 0.930 . S
C1956 C1954 1.356 . S
C1956 C1957 1.348 . S
C1957 C1952 1.353 . S
C1957 C1956 1.348 . S
C1957 H2009 0.929 . S
H1958 C1952 0.930 . S
H1959 C1955 0.930 . S
C1960 N1961 1.314 . S
C1960 C1962 1.353 . S
C1960 H1966 0.930 . S
N1961 Li1937 1.990 . S
N1961 C1960 1.314 . S
N1961 C1964 1.279 . S
C1962 C1960 1.353 . S
C1962 C1965 1.348 . S
C1962 H2010 0.929 . S
C1963 C1964 1.358 . S
C1963 C1965 1.356 . S
C1963 H2011 0.930 . S
C1964 N1961 1.279 . S
C1964 C1963 1.358 . S
C1964 H1967 0.930 . S
C1965 C1962 1.348 . S
C1965 C1963 1.356 . S
H1966 C1960 0.930 . S
H1967 C1964 0.930 . S
C1968 C1970 1.348 . S
C1968 C1971 1.356 . S
C1968 O1998 1.325 . S
N1969 C1972 1.314 . S
N1969 C1973 1.279 . S
C1970 C1968 1.348 . S
C1970 C1972 1.353 . S
C1970 H2012 0.929 . S
C1971 C1968 1.356 . S
C1971 C1973 1.358 . S
C1971 H2013 0.930 . S
C1972 N1969 1.314 . S
C1972 C1970 1.353 . S
C1972 H2014 0.930 . S
C1973 N1969 1.279 . S
C1973 C1971 1.358 . S
C1973 H2015 0.930 . S
C1974 C1975 1.348 . S
C1974 C1976 1.356 . S
C1974 O1999 1.325 . S
C1975 C1974 1.348 . S
C1975 C1977 1.353 . S
C1975 H2016 0.929 . S
C1976 C1974 1.356 . S
C1976 C1978 1.358 . S
C1976 H2017 0.930 . S
C1977 C1975 1.353 . S
C1977 N1979 1.314 . S
C1977 H2018 0.930 . S
C1978 C1976 1.358 . S
C1978 N1979 1.279 . S
C1978 H2019 0.930 . S
N1979 C1977 1.314 . S
N1979 C1978 1.279 . S
C1980 C1982 1.353 . S
C1980 N1983 1.314 . S
C1980 H1986 0.930 . S
C1981 N1983 1.279 . S
C1981 C1984 1.358 . S
C1981 H1987 0.930 . S
C1982 C1980 1.353 . S
C1982 C1985 1.348 . S
C1982 H2020 0.929 . S
N1983 Li1938 1.990 . S
N1983 C1980 1.314 . S
N1983 C1981 1.279 . S
C1984 C1981 1.358 . S
C1984 C1985 1.356 . S
C1984 H2021 0.930 . S
C1985 C1982 1.348 . S
C1985 C1984 1.356 . S
H1986 C1980 0.930 . S
H1987 C1981 0.930 . S
C1988 N1989 1.314 . S
C1988 C1990 1.353 . S
C1988 H1994 0.930 . S
N1989 Li1939 1.990 . S
N1989 C1988 1.314 . S
N1989 C1992 1.279 . S
C1990 C1988 1.353 . S
C1990 C1993 1.348 . S
C1990 H2022 0.929 . S
C1991 C1992 1.358 . S
C1991 C1993 1.356 . S
C1991 H2023 0.930 . S
C1992 N1989 1.279 . S
C1992 C1991 1.358 . S
C1992 H1995 0.930 . S
C1993 C1990 1.348 . S
C1993 C1991 1.356 . S
H1994 C1988 0.930 . S
H1995 C1992 0.930 . S
O1996 Li1936 1.956 . S
O1996 Li1937 1.970 . S
O1996 Li1938 1.961 . S
O1996 C1940 1.325 . S
O1997 Li1936 1.970 . S
O1997 Li1937 1.956 . S
O1997 Li1939 1.961 . S
O1997 C1946 1.325 . S
O1998 Li1936 1.961 . S
O1998 Li1938 1.956 . S
O1998 Li1939 1.970 . S
O1998 C1968 1.325 . S
O1999 Li1937 1.961 . S
O1999 Li1938 1.970 . S
O1999 Li1939 1.956 . S
O1999 C1974 1.325 . S
H2000 C1942 0.929 . S
H2001 C1943 0.930 . S
H2002 C1944 0.930 . S
H2003 C1945 0.930 . S
H2004 C1947 0.930 . S
H2005 C1949 0.929 . S
H2006 C1950 0.930 . S
H2007 C1951 0.930 . S
H2008 C1954 0.930 . S
H2009 C1957 0.929 . S
H2010 C1962 0.929 . S
H2011 C1963 0.930 . S
H2012 C1970 0.929 . S
H2013 C1971 0.930 . S
H2014 C1972 0.930 . S
H2015 C1973 0.930 . S
H2016 C1975 0.929 . S
H2017 C1976 0.930 . S
H2018 C1977 0.930 . S
H2019 C1978 0.930 . S
H2020 C1982 0.929 . S
H2021 C1984 0.930 . S
H2022 C1990 0.929 . S
H2023 C1991 0.930 . S
Li2024 N2041 1.990 . S
Li2024 O2084 1.956 . S
Li2024 O2085 1.970 . S
Li2024 O2086 1.961 . S
Li2025 N2049 1.990 . S
Li2025 O2084 1.970 . S
Li2025 O2085 1.956 . S
Li2025 O2087 1.961 . S
Li2026 N2071 1.990 . S
Li2026 O2084 1.961 . S
Li2026 O2086 1.956 . S
Li2026 O2087 1.970 . S
Li2027 N2077 1.990 . S
Li2027 O2085 1.961 . S
Li2027 O2086 1.970 . S
Li2027 O2087 1.956 . S
C2028 C2030 1.348 . S
C2028 C2031 1.356 . S
C2028 O2084 1.325 . S
N2029 C2032 1.314 . S
N2029 C2033 1.279 . S
C2030 C2028 1.348 . S
C2030 C2032 1.353 . S
C2030 H2088 0.929 . S
C2031 C2028 1.356 . S
C2031 C2033 1.358 . S
C2031 H2089 0.930 . S
C2032 N2029 1.314 . S
C2032 C2030 1.353 . S
C2032 H2090 0.930 . S
C2033 N2029 1.279 . S
C2033 C2031 1.358 . S
C2033 H2091 0.930 . S
C2034 C2037 1.348 . S
C2034 C2038 1.356 . S
C2034 O2085 1.325 . S
C2035 N2036 1.279 . S
C2035 C2038 1.358 . S
C2035 H2092 0.930 . S
N2036 C2035 1.279 . S
N2036 C2039 1.314 . S
C2037 C2034 1.348 . S
C2037 C2039 1.353 . S
C2037 H2093 0.929 . S
C2038 C2034 1.356 . S
C2038 C2035 1.358 . S
C2038 H2094 0.930 . S
C2039 N2036 1.314 . S
C2039 C2037 1.353 . S
C2039 H2095 0.930 . S
C2040 N2041 1.314 . S
C2040 C2045 1.353 . S
C2040 H2046 0.930 . S
N2041 Li2024 1.990 . S
N2041 C2040 1.314 . S
N2041 C2043 1.279 . S
C2042 C2043 1.358 . S
C2042 C2044 1.356 . S
C2042 H2096 0.930 . S
C2043 N2041 1.279 . S
C2043 C2042 1.358 . S
C2043 H2047 0.930 . S
C2044 C2042 1.356 . S
C2044 C2045 1.348 . S
C2045 C2040 1.353 . S
C2045 C2044 1.348 . S
C2045 H2097 0.929 . S
H2046 C2040 0.930 . S
H2047 C2043 0.930 . S
C2048 N2049 1.314 . S
C2048 C2050 1.353 . S
C2048 H2054 0.930 . S
N2049 Li2025 1.990 . S
N2049 C2048 1.314 . S
N2049 C2052 1.279 . S
C2050 C2048 1.353 . S
C2050 C2053 1.348 . S
C2050 H2098 0.929 . S
C2051 C2052 1.358 . S
C2051 C2053 1.356 . S
C2051 H2099 0.930 . S
C2052 N2049 1.279 . S
C2052 C2051 1.358 . S
C2052 H2055 0.930 . S
C2053 C2050 1.348 . S
C2053 C2051 1.356 . S
H2054 C2048 0.930 . S
H2055 C2052 0.930 . S
C2056 C2058 1.348 . S
C2056 C2059 1.356 . S
C2056 O2086 1.325 . S
N2057 C2060 1.314 . S
N2057 C2061 1.279 . S
C2058 C2056 1.348 . S
C2058 C2060 1.353 . S
C2058 H2100 0.929 . S
C2059 C2056 1.356 . S
C2059 C2061 1.358 . S
C2059 H2101 0.930 . S
C2060 N2057 1.314 . S
C2060 C2058 1.353 . S
C2060 H2102 0.930 . S
C2061 N2057 1.279 . S
C2061 C2059 1.358 . S
C2061 H2103 0.930 . S
C2062 C2063 1.348 . S
C2062 C2064 1.356 . S
C2062 O2087 1.325 . S
C2063 C2062 1.348 . S
C2063 C2065 1.353 . S
C2063 H2104 0.929 . S
C2064 C2062 1.356 . S
C2064 C2066 1.358 . S
C2064 H2105 0.930 . S
C2065 C2063 1.353 . S
C2065 N2067 1.314 . S
C2065 H2106 0.930 . S
C2066 C2064 1.358 . S
C2066 N2067 1.279 . S
C2066 H2107 0.930 . S
N2067 C2065 1.314 . S
N2067 C2066 1.279 . S
C2068 C2070 1.353 . S
C2068 N2071 1.314 . S
C2068 H2074 0.930 . S
C2069 N2071 1.279 . S
C2069 C2072 1.358 . S
C2069 H2075 0.930 . S
C2070 C2068 1.353 . S
C2070 C2073 1.348 . S
C2070 H2108 0.929 . S
N2071 Li2026 1.990 . S
N2071 C2068 1.314 . S
N2071 C2069 1.279 . S
C2072 C2069 1.358 . S
C2072 C2073 1.356 . S
C2072 H2109 0.930 . S
C2073 C2070 1.348 . S
C2073 C2072 1.356 . S
H2074 C2068 0.930 . S
H2075 C2069 0.930 . S
C2076 N2077 1.314 . S
C2076 C2078 1.353 . S
C2076 H2082 0.930 . S
N2077 Li2027 1.990 . S
N2077 C2076 1.314 . S
N2077 C2080 1.279 . S
C2078 C2076 1.353 . S
C2078 C2081 1.348 . S
C2078 H2110 0.929 . S
C2079 C2080 1.358 . S
C2079 C2081 1.356 . S
C2079 H2111 0.930 . S
C2080 N2077 1.279 . S
C2080 C2079 1.358 . S
C2080 H2083 0.930 . S
C2081 C2078 1.348 . S
C2081 C2079 1.356 . S
H2082 C2076 0.930 . S
H2083 C2080 0.930 . S
O2084 Li2024 1.956 . S
O2084 Li2025 1.970 . S
O2084 Li2026 1.961 . S
O2084 C2028 1.325 . S
O2085 Li2024 1.970 . S
O2085 Li2025 1.956 . S
O2085 Li2027 1.961 . S
O2085 C2034 1.325 . S
O2086 Li2024 1.961 . S
O2086 Li2026 1.956 . S
O2086 Li2027 1.970 . S
O2086 C2056 1.325 . S
O2087 Li2025 1.961 . S
O2087 Li2026 1.970 . S
O2087 Li2027 1.956 . S
O2087 C2062 1.325 . S
H2088 C2030 0.929 . S
H2089 C2031 0.930 . S
H2090 C2032 0.930 . S
H2091 C2033 0.930 . S
H2092 C2035 0.930 . S
H2093 C2037 0.929 . S
H2094 C2038 0.930 . S
H2095 C2039 0.930 . S
H2096 C2042 0.930 . S
H2097 C2045 0.929 . S
H2098 C2050 0.929 . S
H2099 C2051 0.930 . S
H2100 C2058 0.929 . S
H2101 C2059 0.930 . S
H2102 C2060 0.930 . S
H2103 C2061 0.930 . S
H2104 C2063 0.929 . S
H2105 C2064 0.930 . S
H2106 C2065 0.930 . S
H2107 C2066 0.930 . S
H2108 C2070 0.929 . S
H2109 C2072 0.930 . S
H2110 C2078 0.929 . S
H2111 C2079 0.930 . S
Zn2112 O2118 1.969 . S
Zn2112 O2119 1.965 1_565 S
Zn2112 O2123 2.024 . S
Zn2112 O2128 1.969 1_565 S
Zn2113 O2120 1.969 1_654 S
Zn2113 O2126 1.969 1_554 S
Zn2113 O2127 1.965 . S
Zn2113 O2129 2.024 1_655 S
C2114 O2115 1.229 . S
C2114 O2123 1.058 . S
O2115 C2114 1.229 . S
C2116 O2117 1.229 1_454 S
C2116 O2129 1.058 . S
O2117 C2116 1.229 1_656 S
O2118 Zn2112 1.969 . S
O2118 C2121 1.267 . S
O2119 Zn2112 1.965 1_545 S
O2119 C2130 1.260 1_554 S
O2120 Zn2113 1.969 1_456 S
O2120 C2130 1.258 . S
C2121 O2118 1.267 . S
C2121 O2122 1.228 . S
O2122 C2121 1.228 . S
O2123 Zn2112 2.024 . S
O2123 C2114 1.058 . S
C2124 O2125 1.228 . S
C2124 O2126 1.267 1_554 S
O2125 C2124 1.228 . S
O2126 Zn2113 1.969 1_556 S
O2126 C2124 1.267 1_556 S
O2127 Zn2113 1.965 . S
O2127 C2131 1.260 1_655 S
O2128 Zn2112 1.969 1_545 S
O2128 C2131 1.258 . S
O2129 Zn2113 2.024 1_455 S
O2129 C2116 1.058 . S
C2130 O2119 1.260 1_556 S
C2130 O2120 1.258 . S
C2131 O2127 1.260 1_455 S
C2131 O2128 1.258 . S
Zn2132 O2138 1.969 . S
Zn2132 O2139 1.965 . S
Zn2132 O2143 2.024 . S
Zn2132 O2148 1.969 . S
Zn2133 O2140 1.969 . S
Zn2133 O2146 1.969 . S
Zn2133 O2147 1.965 . S
Zn2133 O2149 2.024 . S
C2134 O2135 1.229 . S
C2134 O2143 1.058 . S
O2135 C2134 1.229 . S
C2136 O2137 1.229 . S
C2136 O2149 1.058 . S
O2137 C2136 1.229 . S
O2138 Zn2132 1.969 . S
O2138 C2141 1.267 . S
O2139 Zn2132 1.965 . S
O2139 C2150 1.260 . S
O2140 Zn2133 1.969 . S
O2140 C2150 1.258 . S
C2141 O2138 1.267 . S
C2141 O2142 1.228 . S
O2142 C2141 1.228 . S
O2143 Zn2132 2.024 . S
O2143 C2134 1.058 . S
C2144 O2145 1.228 . S
C2144 O2146 1.267 . S
O2145 C2144 1.228 . S
O2146 Zn2133 1.969 . S
O2146 C2144 1.267 . S
O2147 Zn2133 1.965 . S
O2147 C2151 1.260 . S
O2148 Zn2132 1.969 . S
O2148 C2151 1.258 . S
O2149 Zn2133 2.024 . S
O2149 C2136 1.058 . S
C2150 O2139 1.260 . S
C2150 O2140 1.258 . S
C2151 O2147 1.260 . S
C2151 O2148 1.258 . S
Zn2152 O2158 1.969 . S
Zn2152 O2159 1.965 . S
Zn2152 O2163 2.024 . S
Zn2152 O2168 1.969 . S
Zn2153 O2160 1.974 . S
Zn2153 O2166 1.969 . S
Zn2153 O2167 1.965 1_565 S
Zn2153 O2169 2.024 . S
C2154 O2155 1.229 . S
C2154 O2163 1.058 . S
O2155 C2154 1.229 . S
C2156 O2157 1.229 . S
C2156 O2169 1.058 . S
O2157 C2156 1.229 . S
O2158 Zn2152 1.969 . S
O2158 C2161 1.267 . S
O2159 Zn2152 1.965 . S
O2159 C2170 1.260 . S
O2160 Zn2153 1.974 . S
O2160 C2170 1.251 1_565 S
C2161 O2158 1.267 . S
C2161 O2162 1.228 . S
O2162 C2161 1.228 . S
O2163 Zn2152 2.024 . S
O2163 C2154 1.058 . S
C2164 O2165 1.228 . S
C2164 O2166 1.267 . S
O2165 C2164 1.228 . S
O2166 Zn2153 1.969 . S
O2166 C2164 1.267 . S
O2167 Zn2153 1.965 1_545 S
O2167 C2171 1.260 . S
O2168 Zn2152 1.969 . S
O2168 C2171 1.258 . S
O2169 Zn2153 2.024 . S
O2169 C2156 1.058 . S
C2170 O2159 1.260 . S
C2170 O2160 1.251 1_545 S
C2171 O2167 1.260 . S
C2171 O2168 1.258 . S
Zn2172 O2178 1.969 . S
Zn2172 O2179 1.965 . S
Zn2172 O2183 2.024 . S
Zn2172 O2188 1.969 . S
Zn2173 O2180 1.969 . S
Zn2173 O2186 1.969 . S
Zn2173 O2187 1.965 . S
Zn2173 O2189 2.024 . S
C2174 O2175 1.229 . S
C2174 O2183 1.058 . S
O2175 C2174 1.229 . S
C2176 O2177 1.229 . S
C2176 O2189 1.058 . S
O2177 C2176 1.229 . S
O2178 Zn2172 1.969 . S
O2178 C2181 1.267 . S
O2179 Zn2172 1.965 . S
O2179 C2190 1.260 . S
O2180 Zn2173 1.969 . S
O2180 C2190 1.258 . S
C2181 O2178 1.267 . S
C2181 O2182 1.228 . S
O2182 C2181 1.228 . S
O2183 Zn2172 2.024 . S
O2183 C2174 1.058 . S
C2184 O2185 1.228 . S
C2184 O2186 1.267 . S
O2185 C2184 1.228 . S
O2186 Zn2173 1.969 . S
O2186 C2184 1.267 . S
O2187 Zn2173 1.965 . S
O2187 C2191 1.260 . S
O2188 Zn2172 1.969 . S
O2188 C2191 1.258 . S
O2189 Zn2173 2.024 . S
O2189 C2176 1.058 . S
C2190 O2179 1.260 . S
C2190 O2180 1.258 . S
C2191 O2187 1.260 . S
C2191 O2188 1.258 . S
Zn2192 O2198 1.969 . S
Zn2192 O2199 1.965 1_455 S
Zn2192 O2203 2.024 1_565 S
Zn2192 O2208 1.969 1_565 S
Zn2193 O2200 1.969 1_455 S
Zn2193 O2206 1.969 1_455 S
Zn2193 O2207 1.965 . S
Zn2193 O2209 2.024 . S
C2194 O2195 1.229 1_545 S
C2194 O2203 1.058 . S
O2195 C2194 1.229 1_565 S
C2196 O2197 1.229 . S
C2196 O2209 1.058 1_655 S
O2197 C2196 1.229 . S
O2198 Zn2192 1.969 . S
O2198 C2201 1.267 . S
O2199 Zn2192 1.965 1_655 S
O2199 C2210 1.272 . S
O2200 Zn2193 1.969 1_655 S
O2200 C2210 1.242 1_545 S
C2201 O2198 1.267 . S
C2201 O2202 1.228 . S
O2202 C2201 1.228 . S
O2203 Zn2192 2.024 1_545 S
O2203 C2194 1.058 . S
C2204 O2205 1.228 . S
C2204 O2206 1.267 1_455 S
O2205 C2204 1.228 . S
O2206 Zn2193 1.969 1_655 S
O2206 C2204 1.267 1_655 S
O2207 Zn2193 1.965 . S
O2207 C2211 1.260 . S
O2208 Zn2192 1.969 1_545 S
O2208 C2211 1.258 . S
O2209 Zn2193 2.024 . S
O2209 C2196 1.058 1_455 S
C2210 O2199 1.272 . S
C2210 O2200 1.242 1_565 S
C2211 O2207 1.260 . S
C2211 O2208 1.258 . S
Zn2212 O2218 1.969 . S
Zn2212 O2219 1.965 . S
Zn2212 O2223 2.024 . S
Zn2212 O2228 1.969 . S
Zn2213 O2220 1.969 . S
Zn2213 O2226 1.969 . S
Zn2213 O2227 1.965 . S
Zn2213 O2229 2.024 . S
C2214 O2215 1.229 . S
C2214 O2223 1.058 . S
O2215 C2214 1.229 . S
C2216 O2217 1.229 . S
C2216 O2229 1.058 . S
O2217 C2216 1.229 . S
O2218 Zn2212 1.969 . S
O2218 C2221 1.267 . S
O2219 Zn2212 1.965 . S
O2219 C2230 1.260 . S
O2220 Zn2213 1.969 . S
O2220 C2230 1.258 . S
C2221 O2218 1.267 . S
C2221 O2222 1.228 . S
O2222 C2221 1.228 . S
O2223 Zn2212 2.024 . S
O2223 C2214 1.058 . S
C2224 O2225 1.228 . S
C2224 O2226 1.267 . S
O2225 C2224 1.228 . S
O2226 Zn2213 1.969 . S
O2226 C2224 1.267 . S
O2227 Zn2213 1.965 . S
O2227 C2231 1.260 . S
O2228 Zn2212 1.969 . S
O2228 C2231 1.258 . S
O2229 Zn2213 2.024 . S
O2229 C2216 1.058 . S
C2230 O2219 1.260 . S
C2230 O2220 1.258 . S
C2231 O2227 1.260 . S
C2231 O2228 1.258 . S
Zn2232 O2238 1.963 1_554 S
Zn2232 O2239 1.964 1_545 S
Zn2232 O2243 2.027 . S
Zn2232 O2248 1.972 . S
Zn2233 O2240 1.985 . S
Zn2233 O2246 1.977 . S
Zn2233 O2247 1.949 1_565 S
Zn2233 O2249 2.018 1_565 S
C2234 O2235 1.229 . S
C2234 O2243 1.058 . S
O2235 C2234 1.229 . S
C2236 O2237 1.229 . S
C2236 O2249 1.058 1_565 S
O2237 C2236 1.229 . S
O2238 Zn2232 1.963 1_556 S
O2238 C2241 1.267 . S
O2239 Zn2232 1.964 1_565 S
O2239 C2250 1.267 . S
O2240 Zn2233 1.985 . S
O2240 C2250 1.258 . S
C2241 O2238 1.267 . S
C2241 O2242 1.228 . S
O2242 C2241 1.228 . S
O2243 Zn2232 2.027 . S
O2243 C2234 1.058 . S
C2244 O2245 1.228 . S
C2244 O2246 1.267 1_545 S
O2245 C2244 1.228 . S
O2246 Zn2233 1.977 . S
O2246 C2244 1.267 1_565 S
O2247 Zn2233 1.949 1_545 S
O2247 C2251 1.260 . S
O2248 Zn2232 1.972 . S
O2248 C2251 1.258 . S
O2249 Zn2233 2.018 1_545 S
O2249 C2236 1.058 1_545 S
C2250 O2239 1.267 . S
C2250 O2240 1.258 . S
C2251 O2247 1.260 . S
C2251 O2248 1.258 . S
Zn2252 O2258 1.969 . S
Zn2252 O2259 1.965 . S
Zn2252 O2263 2.024 . S
Zn2252 O2268 1.969 . S
Zn2253 O2260 1.969 . S
Zn2253 O2266 1.969 . S
Zn2253 O2267 1.965 . S
Zn2253 O2269 2.024 . S
C2254 O2255 1.229 . S
C2254 O2263 1.058 . S
O2255 C2254 1.229 . S
C2256 O2257 1.229 . S
C2256 O2269 1.058 . S
O2257 C2256 1.229 . S
O2258 Zn2252 1.969 . S
O2258 C2261 1.267 . S
O2259 Zn2252 1.965 . S
O2259 C2270 1.260 . S
O2260 Zn2253 1.969 . S
O2260 C2270 1.258 . S
C2261 O2258 1.267 . S
C2261 O2262 1.228 . S
O2262 C2261 1.228 . S
O2263 Zn2252 2.024 . S
O2263 C2254 1.058 . S
C2264 O2265 1.228 . S
C2264 O2266 1.267 . S
O2265 C2264 1.228 . S
O2266 Zn2253 1.969 . S
O2266 C2264 1.267 . S
O2267 Zn2253 1.965 . S
O2267 C2271 1.260 . S
O2268 Zn2252 1.969 . S
O2268 C2271 1.258 . S
O2269 Zn2253 2.024 . S
O2269 C2256 1.058 . S
C2270 O2259 1.260 . S
C2270 O2260 1.258 . S
C2271 O2267 1.260 . S
C2271 O2268 1.258 . S
Zn2272 O2278 1.969 . S
Zn2272 O2279 1.965 . S
Zn2272 O2283 2.024 . S
Zn2272 O2288 1.969 . S
Zn2273 O2280 1.969 1_556 S
Zn2273 O2286 1.969 1_556 S
Zn2273 O2287 1.965 1_556 S
Zn2273 O2289 2.024 . S
C2274 O2275 1.229 . S
C2274 O2283 1.058 . S
O2275 C2274 1.229 . S
C2276 O2277 1.229 . S
C2276 O2289 1.058 . S
O2277 C2276 1.229 . S
O2278 Zn2272 1.969 . S
O2278 C2281 1.267 . S
O2279 Zn2272 1.965 . S
O2279 C2290 1.260 . S
O2280 Zn2273 1.969 1_554 S
O2280 C2290 1.258 . S
C2281 O2278 1.267 . S
C2281 O2282 1.228 . S
O2282 C2281 1.228 . S
O2283 Zn2272 2.024 . S
O2283 C2274 1.058 . S
C2284 O2285 1.228 . S
C2284 O2286 1.267 1_556 S
O2285 C2284 1.228 . S
O2286 Zn2273 1.969 1_554 S
O2286 C2284 1.267 1_554 S
O2287 Zn2273 1.965 1_554 S
O2287 C2291 1.260 . S
O2288 Zn2272 1.969 . S
O2288 C2291 1.258 . S
O2289 Zn2273 2.024 . S
O2289 C2276 1.058 . S
C2290 O2279 1.260 . S
C2290 O2280 1.258 . S
C2291 O2287 1.260 . S
C2291 O2288 1.258 . S
Zn2292 O2298 1.969 . S
Zn2292 O2299 1.965 . S
Zn2292 O2303 2.024 . S
Zn2292 O2308 1.969 . S
Zn2293 O2300 1.969 . S
Zn2293 O2306 1.969 . S
Zn2293 O2307 1.965 . S
Zn2293 O2309 2.024 . S
C2294 O2295 1.229 . S
C2294 O2303 1.058 . S
O2295 C2294 1.229 . S
C2296 O2297 1.229 . S
C2296 O2309 1.058 . S
O2297 C2296 1.229 . S
O2298 Zn2292 1.969 . S
O2298 C2301 1.267 . S
O2299 Zn2292 1.965 . S
O2299 C2310 1.260 . S
O2300 Zn2293 1.969 . S
O2300 C2310 1.258 . S
C2301 O2298 1.267 . S
C2301 O2302 1.228 . S
O2302 C2301 1.228 . S
O2303 Zn2292 2.024 . S
O2303 C2294 1.058 . S
C2304 O2305 1.228 . S
C2304 O2306 1.267 . S
O2305 C2304 1.228 . S
O2306 Zn2293 1.969 . S
O2306 C2304 1.267 . S
O2307 Zn2293 1.965 . S
O2307 C2311 1.260 . S
O2308 Zn2292 1.969 . S
O2308 C2311 1.258 . S
O2309 Zn2293 2.024 . S
O2309 C2296 1.058 . S
C2310 O2299 1.260 . S
C2310 O2300 1.258 . S
C2311 O2307 1.260 . S
C2311 O2308 1.258 . S
Zn2312 O2318 1.969 . S
Zn2312 O2319 1.965 . S
Zn2312 O2323 2.024 . S
Zn2312 O2328 1.969 . S
Zn2313 O2320 1.964 1_655 S
Zn2313 O2326 1.969 . S
Zn2313 O2327 1.965 1_655 S
Zn2313 O2329 2.024 . S
C2314 O2315 1.229 . S
C2314 O2323 1.058 . S
O2315 C2314 1.229 . S
C2316 O2317 1.229 . S
C2316 O2329 1.058 . S
O2317 C2316 1.229 . S
O2318 Zn2312 1.969 . S
O2318 C2321 1.267 . S
O2319 Zn2312 1.965 . S
O2319 C2330 1.260 . S
O2320 Zn2313 1.964 1_455 S
O2320 C2330 1.264 . S
C2321 O2318 1.267 . S
C2321 O2322 1.228 . S
O2322 C2321 1.228 . S
O2323 Zn2312 2.024 . S
O2323 C2314 1.058 . S
C2324 O2325 1.228 . S
C2324 O2326 1.267 . S
O2325 C2324 1.228 . S
O2326 Zn2313 1.969 . S
O2326 C2324 1.267 . S
O2327 Zn2313 1.965 1_455 S
O2327 C2331 1.260 . S
O2328 Zn2312 1.969 . S
O2328 C2331 1.258 . S
O2329 Zn2313 2.024 . S
O2329 C2316 1.058 . S
C2330 O2319 1.260 . S
C2330 O2320 1.264 . S
C2331 O2327 1.260 . S
C2331 O2328 1.258 . S
Zn2332 O2338 1.969 . S
Zn2332 O2339 1.965 . S
Zn2332 O2343 2.024 . S
Zn2332 O2348 1.969 . S
Zn2333 O2340 1.969 . S
Zn2333 O2346 1.969 . S
Zn2333 O2347 1.965 . S
Zn2333 O2349 2.024 . S
C2334 O2335 1.229 . S
C2334 O2343 1.058 . S
O2335 C2334 1.229 . S
C2336 O2337 1.229 . S
C2336 O2349 1.058 . S
O2337 C2336 1.229 . S
O2338 Zn2332 1.969 . S
O2338 C2341 1.267 . S
O2339 Zn2332 1.965 . S
O2339 C2350 1.260 . S
O2340 Zn2333 1.969 . S
O2340 C2350 1.258 . S
C2341 O2338 1.267 . S
C2341 O2342 1.228 . S
O2342 C2341 1.228 . S
O2343 Zn2332 2.024 . S
O2343 C2334 1.058 . S
C2344 O2345 1.228 . S
C2344 O2346 1.267 . S
O2345 C2344 1.228 . S
O2346 Zn2333 1.969 . S
O2346 C2344 1.267 . S
O2347 Zn2333 1.965 . S
O2347 C2351 1.260 . S
O2348 Zn2332 1.969 . S
O2348 C2351 1.258 . S
O2349 Zn2333 2.024 . S
O2349 C2336 1.058 . S
C2350 O2339 1.260 . S
C2350 O2340 1.258 . S
C2351 O2347 1.260 . S
C2351 O2348 1.258 . S
Zn2352 O2358 1.969 . S
Zn2352 O2359 1.965 . S
Zn2352 O2363 2.024 . S
Zn2352 O2368 1.969 . S
Zn2353 O2360 1.969 . S
Zn2353 O2366 1.969 . S
Zn2353 O2367 1.965 . S
Zn2353 O2369 2.024 . S
C2354 O2355 1.229 . S
C2354 O2363 1.058 . S
O2355 C2354 1.229 . S
C2356 O2357 1.229 . S
C2356 O2369 1.058 . S
O2357 C2356 1.229 . S
O2358 Zn2352 1.969 . S
O2358 C2361 1.267 . S
O2359 Zn2352 1.965 . S
O2359 C2370 1.260 . S
O2360 Zn2353 1.969 . S
O2360 C2370 1.258 . S
C2361 O2358 1.267 . S
C2361 O2362 1.228 . S
O2362 C2361 1.228 . S
O2363 Zn2352 2.024 . S
O2363 C2354 1.058 . S
C2364 O2365 1.228 . S
C2364 O2366 1.267 . S
O2365 C2364 1.228 . S
O2366 Zn2353 1.969 . S
O2366 C2364 1.267 . S
O2367 Zn2353 1.965 . S
O2367 C2371 1.260 . S
O2368 Zn2352 1.969 . S
O2368 C2371 1.258 . S
O2369 Zn2353 2.024 . S
O2369 C2356 1.058 . S
C2370 O2359 1.260 . S
C2370 O2360 1.258 . S
C2371 O2367 1.260 . S
C2371 O2368 1.258 . S
Zn2372 O2378 1.969 . S
Zn2372 O2379 1.965 . S
Zn2372 O2383 2.024 . S
Zn2372 O2388 1.969 . S
Zn2373 O2380 1.969 . S
Zn2373 O2386 1.969 . S
Zn2373 O2387 1.965 . S
Zn2373 O2389 2.024 . S
C2374 O2375 1.229 . S
C2374 O2383 1.058 . S
O2375 C2374 1.229 . S
C2376 O2377 1.229 . S
C2376 O2389 1.058 . S
O2377 C2376 1.229 . S
O2378 Zn2372 1.969 . S
O2378 C2381 1.267 . S
O2379 Zn2372 1.965 . S
O2379 C2390 1.260 . S
O2380 Zn2373 1.969 . S
O2380 C2390 1.258 . S
C2381 O2378 1.267 . S
C2381 O2382 1.228 . S
O2382 C2381 1.228 . S
O2383 Zn2372 2.024 . S
O2383 C2374 1.058 . S
C2384 O2385 1.228 . S
C2384 O2386 1.267 . S
O2385 C2384 1.228 . S
O2386 Zn2373 1.969 . S
O2386 C2384 1.267 . S
O2387 Zn2373 1.965 . S
O2387 C2391 1.260 . S
O2388 Zn2372 1.969 . S
O2388 C2391 1.258 . S
O2389 Zn2373 2.024 . S
O2389 C2376 1.058 . S
C2390 O2379 1.260 . S
C2390 O2380 1.258 . S
C2391 O2387 1.260 . S
C2391 O2388 1.258 . S
Zn2392 O2398 1.969 . S
Zn2392 O2399 1.965 . S
Zn2392 O2403 2.024 . S
Zn2392 O2408 1.969 . S
Zn2393 O2400 1.969 . S
Zn2393 O2406 1.969 . S
Zn2393 O2407 1.965 . S
Zn2393 O2409 2.024 . S
C2394 O2395 1.229 . S
C2394 O2403 1.058 . S
O2395 C2394 1.229 . S
C2396 O2397 1.229 . S
C2396 O2409 1.058 . S
O2397 C2396 1.229 . S
O2398 Zn2392 1.969 . S
O2398 C2401 1.267 . S
O2399 Zn2392 1.965 . S
O2399 C2410 1.260 . S
O2400 Zn2393 1.969 . S
O2400 C2410 1.258 . S
C2401 O2398 1.267 . S
C2401 O2402 1.228 . S
O2402 C2401 1.228 . S
O2403 Zn2392 2.024 . S
O2403 C2394 1.058 . S
C2404 O2405 1.228 . S
C2404 O2406 1.267 . S
O2405 C2404 1.228 . S
O2406 Zn2393 1.969 . S
O2406 C2404 1.267 . S
O2407 Zn2393 1.965 . S
O2407 C2411 1.260 . S
O2408 Zn2392 1.969 . S
O2408 C2411 1.258 . S
O2409 Zn2393 2.024 . S
O2409 C2396 1.058 . S
C2410 O2399 1.260 . S
C2410 O2400 1.258 . S
C2411 O2407 1.260 . S
C2411 O2408 1.258 . S
Zn2412 O2418 1.969 . S
Zn2412 O2419 1.965 . S
Zn2412 O2423 2.024 1_655 S
Zn2412 O2428 1.969 1_655 S
Zn2413 O2420 1.969 1_554 S
Zn2413 O2426 1.969 . S
Zn2413 O2427 1.965 . S
Zn2413 O2429 2.024 . S
C2414 O2415 1.207 1_455 S
C2414 O2423 1.058 . S
O2415 C2414 1.207 1_655 S
C2416 O2417 1.223 1_554 S
C2416 O2429 1.065 . S
O2417 C2416 1.223 1_556 S
O2418 Zn2412 1.969 . S
O2418 C2421 1.267 . S
O2419 Zn2412 1.965 . S
O2419 C2430 1.260 1_654 S
O2420 Zn2413 1.969 1_556 S
O2420 C2430 1.258 . S
C2421 O2418 1.267 . S
C2421 O2422 1.228 . S
O2422 C2421 1.228 . S
O2423 Zn2412 2.024 1_455 S
O2423 C2414 1.058 . S
C2424 O2425 1.228 . S
C2424 O2426 1.267 . S
O2425 C2424 1.228 . S
O2426 Zn2413 1.969 . S
O2426 C2424 1.267 . S
O2427 Zn2413 1.965 . S
O2427 C2431 1.260 . S
O2428 Zn2412 1.969 1_455 S
O2428 C2431 1.258 . S
O2429 Zn2413 2.024 . S
O2429 C2416 1.065 . S
C2430 O2419 1.260 1_456 S
C2430 O2420 1.258 . S
C2431 O2427 1.260 . S
C2431 O2428 1.258 . S
H2432 C2438 0.930 . S
H2433 C2442 0.930 . S
H2434 C2447 0.929 . S
H2435 C2445 0.929 . S
H2436 C2440 0.929 . S
H2437 C2446 0.929 . S
C2438 H2432 0.930 . S
C2438 C2439 1.367 . S
C2438 C2446 1.378 . S
C2439 C2438 1.367 . S
C2439 C2447 1.433 1_655 S
C2440 H2436 0.929 . S
C2440 C2442 1.378 . S
C2440 C2444 1.350 1_554 S
C2441 C2444 1.463 . S
C2441 C2446 1.350 1_455 S
C2441 N2449 1.427 . S
C2442 H2433 0.930 . S
C2442 C2440 1.378 . S
C2442 C2443 1.367 . S
C2443 C2442 1.367 . S
C2443 C2445 1.433 1_554 S
C2444 C2440 1.350 1_556 S
C2444 C2441 1.463 . S
C2444 N2448 1.427 . S
C2445 H2435 0.929 . S
C2445 C2443 1.433 1_556 S
C2445 N2448 1.384 . S
C2446 H2437 0.929 . S
C2446 C2438 1.378 . S
C2446 C2441 1.350 1_655 S
C2447 H2434 0.929 . S
C2447 C2439 1.433 1_455 S
C2447 N2449 1.384 . S
N2448 C2444 1.427 . S
N2448 C2445 1.384 . S
N2449 C2441 1.427 . S
N2449 C2447 1.384 . S
H2450 C2456 0.930 . S
H2451 C2460 0.930 . S
H2452 C2465 0.929 . S
H2453 C2463 0.929 . S
H2454 C2458 0.929 . S
H2455 C2464 0.929 . S
C2456 H2450 0.930 . S
C2456 C2457 1.367 . S
C2456 C2464 1.378 . S
C2457 C2456 1.367 . S
C2457 C2465 1.433 . S
C2458 H2454 0.929 . S
C2458 C2460 1.378 . S
C2458 C2462 1.350 . S
C2459 C2462 1.463 . S
C2459 C2464 1.350 . S
C2459 N2467 1.427 . S
C2460 H2451 0.930 . S
C2460 C2458 1.378 . S
C2460 C2461 1.367 . S
C2461 C2460 1.367 . S
C2461 C2463 1.433 . S
C2462 C2458 1.350 . S
C2462 C2459 1.463 . S
C2462 N2466 1.427 . S
C2463 H2453 0.929 . S
C2463 C2461 1.433 . S
C2463 N2466 1.384 . S
C2464 H2455 0.929 . S
C2464 C2456 1.378 . S
C2464 C2459 1.350 . S
C2465 H2452 0.929 . S
C2465 C2457 1.433 . S
C2465 N2467 1.384 . S
N2466 C2462 1.427 . S
N2466 C2463 1.384 . S
N2467 C2459 1.427 . S
N2467 C2465 1.384 . S
H2468 C2474 0.930 . S
H2469 C2478 0.930 . S
H2470 C2483 0.929 . S
H2471 C2481 0.929 . S
H2472 C2476 0.929 . S
H2473 C2482 0.929 . S
C2474 H2468 0.930 . S
C2474 C2475 1.367 . S
C2474 C2482 1.378 . S
C2475 C2474 1.367 . S
C2475 C2483 1.433 . S
C2476 H2472 0.929 . S
C2476 C2478 1.378 . S
C2476 C2480 1.350 . S
C2477 C2480 1.463 . S
C2477 C2482 1.350 . S
C2477 N2485 1.427 . S
C2478 H2469 0.930 . S
C2478 C2476 1.378 . S
C2478 C2479 1.367 . S
C2479 C2478 1.367 . S
C2479 C2481 1.433 . S
C2480 C2476 1.350 . S
C2480 C2477 1.463 . S
C2480 N2484 1.427 . S
C2481 H2471 0.929 . S
C2481 C2479 1.433 . S
C2481 N2484 1.384 . S
C2482 H2473 0.929 . S
C2482 C2474 1.378 . S
C2482 C2477 1.350 . S
C2483 H2470 0.929 . S
C2483 C2475 1.433 . S
C2483 N2485 1.384 . S
N2484 C2480 1.427 . S
N2484 C2481 1.384 . S
N2485 C2477 1.427 . S
N2485 C2483 1.384 . S
H2486 C2492 0.930 . S
H2487 C2496 0.930 . S
H2488 C2501 0.929 . S
H2489 C2499 0.929 . S
H2490 C2494 0.929 . S
H2491 C2500 0.929 . S
C2492 H2486 0.930 . S
C2492 C2493 1.367 . S
C2492 C2500 1.378 . S
C2493 C2492 1.367 . S
C2493 C2501 1.433 . S
C2494 H2490 0.929 . S
C2494 C2496 1.378 . S
C2494 C2498 1.350 . S
C2495 C2498 1.463 . S
C2495 C2500 1.350 . S
C2495 N2503 1.427 . S
C2496 H2487 0.930 . S
C2496 C2494 1.378 . S
C2496 C2497 1.367 . S
C2497 C2496 1.367 . S
C2497 C2499 1.433 . S
C2498 C2494 1.350 . S
C2498 C2495 1.463 . S
C2498 N2502 1.427 . S
C2499 H2489 0.929 . S
C2499 C2497 1.433 . S
C2499 N2502 1.384 . S
C2500 H2491 0.929 . S
C2500 C2492 1.378 . S
C2500 C2495 1.350 . S
C2501 H2488 0.929 . S
C2501 C2493 1.433 . S
C2501 N2503 1.384 . S
N2502 C2498 1.427 . S
N2502 C2499 1.384 . S
N2503 C2495 1.427 . S
N2503 C2501 1.384 . S
H2504 C2510 0.930 . S
H2505 C2514 0.930 . S
H2506 C2519 0.929 . S
H2507 C2517 0.929 . S
H2508 C2512 0.929 . S
H2509 C2518 0.929 . S
C2510 H2504 0.930 . S
C2510 C2511 1.367 . S
C2510 C2518 1.378 . S
C2511 C2510 1.367 . S
C2511 C2519 1.433 . S
C2512 H2508 0.929 . S
C2512 C2514 1.378 . S
C2512 C2516 1.350 . S
C2513 C2516 1.463 . S
C2513 C2518 1.350 . S
C2513 N2521 1.427 . S
C2514 H2505 0.930 . S
C2514 C2512 1.378 . S
C2514 C2515 1.367 . S
C2515 C2514 1.367 . S
C2515 C2517 1.433 . S
C2516 C2512 1.350 . S
C2516 C2513 1.463 . S
C2516 N2520 1.427 . S
C2517 H2507 0.929 . S
C2517 C2515 1.433 . S
C2517 N2520 1.384 . S
C2518 H2509 0.929 . S
C2518 C2510 1.378 . S
C2518 C2513 1.350 . S
C2519 H2506 0.929 . S
C2519 C2511 1.433 . S
C2519 N2521 1.384 . S
N2520 C2516 1.427 . S
N2520 C2517 1.384 . S
N2521 C2513 1.427 . S
N2521 C2519 1.384 . S
H2522 C2528 0.930 . S
H2523 C2532 0.930 . S
H2524 C2537 0.929 . S
H2525 C2535 0.929 . S
H2526 C2530 0.929 . S
H2527 C2536 0.929 . S
C2528 H2522 0.930 . S
C2528 C2529 1.367 . S
C2528 C2536 1.378 . S
C2529 C2528 1.367 . S
C2529 C2537 1.433 . S
C2530 H2526 0.929 . S
C2530 C2532 1.378 . S
C2530 C2534 1.350 . S
C2531 C2534 1.463 . S
C2531 C2536 1.350 . S
C2531 N2539 1.427 . S
C2532 H2523 0.930 . S
C2532 C2530 1.378 . S
C2532 C2533 1.367 . S
C2533 C2532 1.367 . S
C2533 C2535 1.433 . S
C2534 C2530 1.350 . S
C2534 C2531 1.463 . S
C2534 N2538 1.427 . S
C2535 H2525 0.929 . S
C2535 C2533 1.433 . S
C2535 N2538 1.384 . S
C2536 H2527 0.929 . S
C2536 C2528 1.378 . S
C2536 C2531 1.350 . S
C2537 H2524 0.929 . S
C2537 C2529 1.433 . S
C2537 N2539 1.384 . S
N2538 C2534 1.427 . S
N2538 C2535 1.384 . S
N2539 C2531 1.427 . S
N2539 C2537 1.384 . S
H2540 C2546 0.930 . S
H2541 C2550 0.930 . S
H2542 C2555 0.929 . S
H2543 C2553 0.929 . S
H2544 C2548 0.929 . S
H2545 C2554 0.929 . S
C2546 H2540 0.930 . S
C2546 C2547 1.367 . S
C2546 C2554 1.378 . S
C2547 C2546 1.367 . S
C2547 C2555 1.433 . S
C2548 H2544 0.929 . S
C2548 C2550 1.378 . S
C2548 C2552 1.350 . S
C2549 C2552 1.463 . S
C2549 C2554 1.350 . S
C2549 N2557 1.427 . S
C2550 H2541 0.930 . S
C2550 C2548 1.378 . S
C2550 C2551 1.367 . S
C2551 C2550 1.367 . S
C2551 C2553 1.433 . S
C2552 C2548 1.350 . S
C2552 C2549 1.463 . S
C2552 N2556 1.427 . S
C2553 H2543 0.929 . S
C2553 C2551 1.433 . S
C2553 N2556 1.384 . S
C2554 H2545 0.929 . S
C2554 C2546 1.378 . S
C2554 C2549 1.350 . S
C2555 H2542 0.929 . S
C2555 C2547 1.433 . S
C2555 N2557 1.384 . S
N2556 C2552 1.427 . S
N2556 C2553 1.384 . S
N2557 C2549 1.427 . S
N2557 C2555 1.384 . S
H2558 C2564 0.930 . S
H2559 C2568 0.930 . S
H2560 C2573 0.929 . S
H2561 C2571 0.929 . S
H2562 C2566 0.929 . S
H2563 C2572 0.929 . S
C2564 H2558 0.930 . S
C2564 C2565 1.367 . S
C2564 C2572 1.378 . S
C2565 C2564 1.367 . S
C2565 C2573 1.433 . S
C2566 H2562 0.929 . S
C2566 C2568 1.378 . S
C2566 C2570 1.350 . S
C2567 C2570 1.463 . S
C2567 C2572 1.350 . S
C2567 N2575 1.427 . S
C2568 H2559 0.930 . S
C2568 C2566 1.378 . S
C2568 C2569 1.367 . S
C2569 C2568 1.367 . S
C2569 C2571 1.433 . S
C2570 C2566 1.350 . S
C2570 C2567 1.463 . S
C2570 N2574 1.427 . S
C2571 H2561 0.929 . S
C2571 C2569 1.433 . S
C2571 N2574 1.384 . S
C2572 H2563 0.929 . S
C2572 C2564 1.378 . S
C2572 C2567 1.350 . S
C2573 H2560 0.929 . S
C2573 C2565 1.433 . S
C2573 N2575 1.384 . S
N2574 C2570 1.427 . S
N2574 C2571 1.384 . S
N2575 C2567 1.427 . S
N2575 C2573 1.384 . S
H2576 C2582 0.930 . S
H2577 C2586 0.930 . S
H2578 C2591 0.929 . S
H2579 C2589 0.929 . S
H2580 C2584 0.932 1_455 S
H2581 C2590 0.929 . S
C2582 H2576 0.930 . S
C2582 C2583 1.367 . S
C2582 C2590 1.378 . S
C2583 C2582 1.367 . S
C2583 C2591 1.433 . S
C2584 H2580 0.932 1_655 S
C2584 C2586 1.381 1_655 S
C2584 C2588 1.343 . S
C2585 C2588 1.463 . S
C2585 C2590 1.350 . S
C2585 N2593 1.427 . S
C2586 H2577 0.930 . S
C2586 C2584 1.381 1_455 S
C2586 C2587 1.367 1_455 S
C2587 C2586 1.367 1_655 S
C2587 C2589 1.433 . S
C2588 C2584 1.343 . S
C2588 C2585 1.463 . S
C2588 N2592 1.427 . S
C2589 H2579 0.929 . S
C2589 C2587 1.433 . S
C2589 N2592 1.384 . S
C2590 H2581 0.929 . S
C2590 C2582 1.378 . S
C2590 C2585 1.350 . S
C2591 H2578 0.929 . S
C2591 C2583 1.433 . S
C2591 N2593 1.384 . S
N2592 C2588 1.427 . S
N2592 C2589 1.384 . S
N2593 C2585 1.427 . S
N2593 C2591 1.384 . S
H2594 C2600 0.930 . S
H2595 C2604 0.930 . S
H2596 C2609 0.929 . S
H2597 C2607 0.929 . S
H2598 C2602 0.929 . S
H2599 C2608 0.929 . S
C2600 H2594 0.930 . S
C2600 C2601 1.367 . S
C2600 C2608 1.378 . S
C2601 C2600 1.367 . S
C2601 C2609 1.433 . S
C2602 H2598 0.929 . S
C2602 C2604 1.378 . S
C2602 C2606 1.350 . S
C2603 C2606 1.463 . S
C2603 C2608 1.350 . S
C2603 N2611 1.427 . S
C2604 H2595 0.930 . S
C2604 C2602 1.378 . S
C2604 C2605 1.367 . S
C2605 C2604 1.367 . S
C2605 C2607 1.433 . S
C2606 C2602 1.350 . S
C2606 C2603 1.463 . S
C2606 N2610 1.427 . S
C2607 H2597 0.929 . S
C2607 C2605 1.433 . S
C2607 N2610 1.384 . S
C2608 H2599 0.929 . S
C2608 C2600 1.378 . S
C2608 C2603 1.350 . S
C2609 H2596 0.929 . S
C2609 C2601 1.433 . S
C2609 N2611 1.384 . S
N2610 C2606 1.427 . S
N2610 C2607 1.384 . S
N2611 C2603 1.427 . S
N2611 C2609 1.384 . S
H2612 C2618 0.930 . S
H2613 C2622 0.930 . S
H2614 C2627 0.929 . S
H2615 C2625 0.929 . S
H2616 C2620 0.929 . S
H2617 C2626 0.929 . S
C2618 H2612 0.930 . S
C2618 C2619 1.367 . S
C2618 C2626 1.378 . S
C2619 C2618 1.367 . S
C2619 C2627 1.433 1_565 S
C2620 H2616 0.929 . S
C2620 C2622 1.378 . S
C2620 C2624 1.350 1_545 S
C2621 C2624 1.463 . S
C2621 C2626 1.350 . S
C2621 N2629 1.427 1_565 S
C2622 H2613 0.930 . S
C2622 C2620 1.378 . S
C2622 C2623 1.367 . S
C2623 C2622 1.367 . S
C2623 C2625 1.433 1_545 S
C2624 C2620 1.350 1_565 S
C2624 C2621 1.463 . S
C2624 N2628 1.427 . S
C2625 H2615 0.929 . S
C2625 C2623 1.433 1_565 S
C2625 N2628 1.384 . S
C2626 H2617 0.929 . S
C2626 C2618 1.378 . S
C2626 C2621 1.350 . S
C2627 H2614 0.929 . S
C2627 C2619 1.433 1_545 S
C2627 N2629 1.384 . S
N2628 C2624 1.427 . S
N2628 C2625 1.384 . S
N2629 C2621 1.427 1_545 S
N2629 C2627 1.384 . S
H2630 C2636 0.930 . S
H2631 C2640 0.930 . S
H2632 C2645 0.929 . S
H2633 C2643 0.929 . S
H2634 C2638 0.929 . S
H2635 C2644 0.929 . S
C2636 H2630 0.930 . S
C2636 C2637 1.367 . S
C2636 C2644 1.378 . S
C2637 C2636 1.367 . S
C2637 C2645 1.433 . S
C2638 H2634 0.929 . S
C2638 C2640 1.378 . S
C2638 C2642 1.350 . S
C2639 C2642 1.463 . S
C2639 C2644 1.350 . S
C2639 N2647 1.427 . S
C2640 H2631 0.930 . S
C2640 C2638 1.378 . S
C2640 C2641 1.367 . S
C2641 C2640 1.367 . S
C2641 C2643 1.433 . S
C2642 C2638 1.350 . S
C2642 C2639 1.463 . S
C2642 N2646 1.427 . S
C2643 H2633 0.929 . S
C2643 C2641 1.433 . S
C2643 N2646 1.384 . S
C2644 H2635 0.929 . S
C2644 C2636 1.378 . S
C2644 C2639 1.350 . S
C2645 H2632 0.929 . S
C2645 C2637 1.433 . S
C2645 N2647 1.384 . S
N2646 C2642 1.427 . S
N2646 C2643 1.384 . S
N2647 C2639 1.427 . S
N2647 C2645 1.384 . S
H2648 C2654 0.930 . S
H2649 C2658 0.930 . S
H2650 C2663 0.929 . S
H2651 C2661 0.929 1_455 S
H2652 C2656 0.929 . S
H2653 C2662 0.929 1_565 S
C2654 H2648 0.930 . S
C2654 C2655 1.367 . S
C2654 C2662 1.378 . S
C2655 C2654 1.367 . S
C2655 C2663 1.433 . S
C2656 H2652 0.929 . S
C2656 C2658 1.378 . S
C2656 C2660 1.350 . S
C2657 C2660 1.463 . S
C2657 C2662 1.350 . S
C2657 N2665 1.427 . S
C2658 H2649 0.930 . S
C2658 C2656 1.378 . S
C2658 C2659 1.367 . S
C2659 C2658 1.367 . S
C2659 C2661 1.433 1_545 S
C2660 C2656 1.350 . S
C2660 C2657 1.463 . S
C2660 N2664 1.475 . S
C2661 H2651 0.929 1_655 S
C2661 C2659 1.433 1_565 S
C2661 N2664 1.369 1_565 S
C2662 H2653 0.929 1_545 S
C2662 C2654 1.378 . S
C2662 C2657 1.350 . S
C2663 H2650 0.929 . S
C2663 C2655 1.433 . S
C2663 N2665 1.384 . S
N2664 C2660 1.475 . S
N2664 C2661 1.369 1_545 S
N2665 C2657 1.427 . S
N2665 C2663 1.384 . S
H2666 C2672 0.930 . S
H2667 C2676 0.930 . S
H2668 C2681 0.929 . S
H2669 C2679 0.929 . S
H2670 C2674 0.929 . S
H2671 C2680 0.929 . S
C2672 H2666 0.930 . S
C2672 C2673 1.367 . S
C2672 C2680 1.378 . S
C2673 C2672 1.367 . S
C2673 C2681 1.433 . S
C2674 H2670 0.929 . S
C2674 C2676 1.378 . S
C2674 C2678 1.350 . S
C2675 C2678 1.463 . S
C2675 C2680 1.350 . S
C2675 N2683 1.427 . S
C2676 H2667 0.930 . S
C2676 C2674 1.378 . S
C2676 C2677 1.367 . S
C2677 C2676 1.367 . S
C2677 C2679 1.433 . S
C2678 C2674 1.350 . S
C2678 C2675 1.463 . S
C2678 N2682 1.427 . S
C2679 H2669 0.929 . S
C2679 C2677 1.433 . S
C2679 N2682 1.384 . S
C2680 H2671 0.929 . S
C2680 C2672 1.378 . S
C2680 C2675 1.350 . S
C2681 H2668 0.929 . S
C2681 C2673 1.433 . S
C2681 N2683 1.384 . S
N2682 C2678 1.427 . S
N2682 C2679 1.384 . S
N2683 C2675 1.427 . S
N2683 C2681 1.384 . S
H2684 C2690 0.929 1_565 S
H2685 C2694 0.930 . S
H2686 C2699 0.937 1_565 S
H2687 C2697 0.929 . S
H2688 C2692 0.929 . S
H2689 C2698 0.929 . S
C2690 H2684 0.929 1_545 S
C2690 C2691 1.367 1_545 S
C2690 C2698 1.379 . S
C2691 C2690 1.367 1_565 S
C2691 C2699 1.426 1_565 S
C2692 H2688 0.929 . S
C2692 C2694 1.378 . S
C2692 C2696 1.350 . S
C2693 C2696 1.463 . S
C2693 C2698 1.350 . S
C2693 N2701 1.427 . S
C2694 H2685 0.930 . S
C2694 C2692 1.378 . S
C2694 C2695 1.367 . S
C2695 C2694 1.367 . S
C2695 C2697 1.433 . S
C2696 C2692 1.350 . S
C2696 C2693 1.463 . S
C2696 N2700 1.427 . S
C2697 H2687 0.929 . S
C2697 C2695 1.433 . S
C2697 N2700 1.384 . S
C2698 H2689 0.929 . S
C2698 C2690 1.379 . S
C2698 C2693 1.350 . S
C2699 H2686 0.937 1_545 S
C2699 C2691 1.426 1_545 S
C2699 N2701 1.390 . S
N2700 C2696 1.427 . S
N2700 C2697 1.384 . S
N2701 C2693 1.427 . S
N2701 C2699 1.390 . S
H2702 C2708 0.930 . S
H2703 C2712 0.930 . S
H2704 C2717 0.929 . S
H2705 C2715 0.929 . S
H2706 C2710 0.929 . S
H2707 C2716 0.929 . S
C2708 H2702 0.930 . S
C2708 C2709 1.367 . S
C2708 C2716 1.378 . S
C2709 C2708 1.367 . S
C2709 C2717 1.433 . S
C2710 H2706 0.929 . S
C2710 C2712 1.378 . S
C2710 C2714 1.350 . S
C2711 C2714 1.463 . S
C2711 C2716 1.350 . S
C2711 N2719 1.427 . S
C2712 H2703 0.930 . S
C2712 C2710 1.378 . S
C2712 C2713 1.367 . S
C2713 C2712 1.367 . S
C2713 C2715 1.433 . S
C2714 C2710 1.350 . S
C2714 C2711 1.463 . S
C2714 N2718 1.427 . S
C2715 H2705 0.929 . S
C2715 C2713 1.433 . S
C2715 N2718 1.384 . S
C2716 H2707 0.929 . S
C2716 C2708 1.378 . S
C2716 C2711 1.350 . S
C2717 H2704 0.929 . S
C2717 C2709 1.433 . S
C2717 N2719 1.384 . S
N2718 C2714 1.427 . S
N2718 C2715 1.384 . S
N2719 C2711 1.427 . S
N2719 C2717 1.384 . S
H2720 C2726 0.930 1_556 S
H2721 C2730 0.930 . S
H2722 C2735 0.929 . S
H2723 C2733 0.929 . S
H2724 C2728 0.929 . S
H2725 C2734 0.929 1_556 S
C2726 H2720 0.930 1_554 S
C2726 C2727 1.367 . S
C2726 C2734 1.378 . S
C2727 C2726 1.367 . S
C2727 C2735 1.433 . S
C2728 H2724 0.929 . S
C2728 C2730 1.378 . S
C2728 C2732 1.350 . S
C2729 C2732 1.463 . S
C2729 C2734 1.350 . S
C2729 N2737 1.427 . S
C2730 H2721 0.930 . S
C2730 C2728 1.378 . S
C2730 C2731 1.367 . S
C2731 C2730 1.367 . S
C2731 C2733 1.433 . S
C2732 C2728 1.350 . S
C2732 C2729 1.463 . S
C2732 N2736 1.427 . S
C2733 H2723 0.929 . S
C2733 C2731 1.433 . S
C2733 N2736 1.384 . S
C2734 H2725 0.929 1_554 S
C2734 C2726 1.378 . S
C2734 C2729 1.350 . S
C2735 H2722 0.929 . S
C2735 C2727 1.433 . S
C2735 N2737 1.384 . S
N2736 C2732 1.427 . S
N2736 C2733 1.384 . S
N2737 C2729 1.427 . S
N2737 C2735 1.384 . S
H2738 C2744 0.930 . S
H2739 C2748 0.930 . S
H2740 C2753 0.929 . S
H2741 C2751 0.929 . S
H2742 C2746 0.929 . S
H2743 C2752 0.929 . S
C2744 H2738 0.930 . S
C2744 C2745 1.367 1_554 S
C2744 C2752 1.378 . S
C2745 C2744 1.367 1_556 S
C2745 C2753 1.433 . S
C2746 H2742 0.929 . S
C2746 C2748 1.378 . S
C2746 C2750 1.350 1_556 S
C2747 C2750 1.463 . S
C2747 C2752 1.350 . S
C2747 N2755 1.427 1_554 S
C2748 H2739 0.930 . S
C2748 C2746 1.378 . S
C2748 C2749 1.367 1_556 S
C2749 C2748 1.367 1_554 S
C2749 C2751 1.433 . S
C2750 C2746 1.350 1_554 S
C2750 C2747 1.463 . S
C2750 N2754 1.427 . S
C2751 H2741 0.929 . S
C2751 C2749 1.433 . S
C2751 N2754 1.384 . S
C2752 H2743 0.929 . S
C2752 C2744 1.378 . S
C2752 C2747 1.350 . S
C2753 H2740 0.929 . S
C2753 C2745 1.433 . S
C2753 N2755 1.384 . S
N2754 C2750 1.427 . S
N2754 C2751 1.384 . S
N2755 C2747 1.427 1_556 S
N2755 C2753 1.384 . S
H2756 C2762 0.930 . S
H2757 C2766 0.930 . S
H2758 C2771 0.929 . S
H2759 C2769 0.929 . S
H2760 C2764 0.929 . S
H2761 C2770 0.929 . S
C2762 H2756 0.930 . S
C2762 C2763 1.367 . S
C2762 C2770 1.378 . S
C2763 C2762 1.367 . S
C2763 C2771 1.433 . S
C2764 H2760 0.929 . S
C2764 C2766 1.378 . S
C2764 C2768 1.350 . S
C2765 C2768 1.463 . S
C2765 C2770 1.350 . S
C2765 N2773 1.427 . S
C2766 H2757 0.930 . S
C2766 C2764 1.378 . S
C2766 C2767 1.367 . S
C2767 C2766 1.367 . S
C2767 C2769 1.433 . S
C2768 C2764 1.350 . S
C2768 C2765 1.463 . S
C2768 N2772 1.427 . S
C2769 H2759 0.929 . S
C2769 C2767 1.433 . S
C2769 N2772 1.384 . S
C2770 H2761 0.929 . S
C2770 C2762 1.378 . S
C2770 C2765 1.350 . S
C2771 H2758 0.929 . S
C2771 C2763 1.433 . S
C2771 N2773 1.384 . S
N2772 C2768 1.427 . S
N2772 C2769 1.384 . S
N2773 C2765 1.427 . S
N2773 C2771 1.384 . S
H2774 C2780 0.930 . S
H2775 C2784 0.930 . S
H2776 C2789 0.929 . S
H2777 C2787 0.929 . S
H2778 C2782 0.929 . S
H2779 C2788 0.929 . S
C2780 H2774 0.930 . S
C2780 C2781 1.367 . S
C2780 C2788 1.378 . S
C2781 C2780 1.367 . S
C2781 C2789 1.433 . S
C2782 H2778 0.929 . S
C2782 C2784 1.378 . S
C2782 C2786 1.350 . S
C2783 C2786 1.463 . S
C2783 C2788 1.350 . S
C2783 N2791 1.427 . S
C2784 H2775 0.930 . S
C2784 C2782 1.378 . S
C2784 C2785 1.367 . S
C2785 C2784 1.367 . S
C2785 C2787 1.433 . S
C2786 C2782 1.350 . S
C2786 C2783 1.463 . S
C2786 N2790 1.427 . S
C2787 H2777 0.929 . S
C2787 C2785 1.433 . S
C2787 N2790 1.384 . S
C2788 H2779 0.929 . S
C2788 C2780 1.378 . S
C2788 C2783 1.350 . S
C2789 H2776 0.929 . S
C2789 C2781 1.433 . S
C2789 N2791 1.384 . S
N2790 C2786 1.427 . S
N2790 C2787 1.384 . S
N2791 C2783 1.427 . S
N2791 C2789 1.384 . S
H2792 C2798 0.930 . S
H2793 C2802 0.930 . S
H2794 C2807 0.929 . S
H2795 C2805 0.929 . S
H2796 C2800 0.929 . S
H2797 C2806 0.929 . S
C2798 H2792 0.930 . S
C2798 C2799 1.367 . S
C2798 C2806 1.378 . S
C2799 C2798 1.367 . S
C2799 C2807 1.433 . S
C2800 H2796 0.929 . S
C2800 C2802 1.378 . S
C2800 C2804 1.350 . S
C2801 C2804 1.463 . S
C2801 C2806 1.350 . S
C2801 N2809 1.427 . S
C2802 H2793 0.930 . S
C2802 C2800 1.378 . S
C2802 C2803 1.367 . S
C2803 C2802 1.367 . S
C2803 C2805 1.433 . S
C2804 C2800 1.350 . S
C2804 C2801 1.463 . S
C2804 N2808 1.427 . S
C2805 H2795 0.929 . S
C2805 C2803 1.433 . S
C2805 N2808 1.384 . S
C2806 H2797 0.929 . S
C2806 C2798 1.378 . S
C2806 C2801 1.350 . S
C2807 H2794 0.929 . S
C2807 C2799 1.433 . S
C2807 N2809 1.384 . S
N2808 C2804 1.427 . S
N2808 C2805 1.384 . S
N2809 C2801 1.427 . S
N2809 C2807 1.384 . S
H2810 C2816 0.930 . S
H2811 C2820 0.930 . S
H2812 C2825 0.929 . S
H2813 C2823 0.929 . S
H2814 C2818 0.929 . S
H2815 C2824 0.929 . S
C2816 H2810 0.930 . S
C2816 C2817 1.367 . S
C2816 C2824 1.378 . S
C2817 C2816 1.367 . S
C2817 C2825 1.433 . S
C2818 H2814 0.929 . S
C2818 C2820 1.378 . S
C2818 C2822 1.350 . S
C2819 C2822 1.463 . S
C2819 C2824 1.350 . S
C2819 N2827 1.427 . S
C2820 H2811 0.930 . S
C2820 C2818 1.378 . S
C2820 C2821 1.367 . S
C2821 C2820 1.367 . S
C2821 C2823 1.433 . S
C2822 C2818 1.350 . S
C2822 C2819 1.463 . S
C2822 N2826 1.427 . S
C2823 H2813 0.929 . S
C2823 C2821 1.433 . S
C2823 N2826 1.384 . S
C2824 H2815 0.929 . S
C2824 C2816 1.378 . S
C2824 C2819 1.350 . S
C2825 H2812 0.929 . S
C2825 C2817 1.433 . S
C2825 N2827 1.384 . S
N2826 C2822 1.427 . S
N2826 C2823 1.384 . S
N2827 C2819 1.427 . S
N2827 C2825 1.384 . S
H2828 C2834 0.930 . S
H2829 C2838 0.930 . S
H2830 C2843 0.929 . S
H2831 C2841 0.929 . S
H2832 C2836 0.929 . S
H2833 C2842 0.929 . S
C2834 H2828 0.930 . S
C2834 C2835 1.367 . S
C2834 C2842 1.378 . S
C2835 C2834 1.367 . S
C2835 C2843 1.433 . S
C2836 H2832 0.929 . S
C2836 C2838 1.378 . S
C2836 C2840 1.350 . S
C2837 C2840 1.463 . S
C2837 C2842 1.350 . S
C2837 N2845 1.427 . S
C2838 H2829 0.930 . S
C2838 C2836 1.378 . S
C2838 C2839 1.367 . S
C2839 C2838 1.367 . S
C2839 C2841 1.433 . S
C2840 C2836 1.350 . S
C2840 C2837 1.463 . S
C2840 N2844 1.427 . S
C2841 H2831 0.929 . S
C2841 C2839 1.433 . S
C2841 N2844 1.384 . S
C2842 H2833 0.929 . S
C2842 C2834 1.378 . S
C2842 C2837 1.350 . S
C2843 H2830 0.929 . S
C2843 C2835 1.433 . S
C2843 N2845 1.384 . S
N2844 C2840 1.427 . S
N2844 C2841 1.384 . S
N2845 C2837 1.427 . S
N2845 C2843 1.384 . S
H2846 C2852 0.930 . S
H2847 C2856 0.930 . S
H2848 C2861 0.929 . S
H2849 C2859 0.929 . S
H2850 C2854 0.929 . S
H2851 C2860 0.929 . S
C2852 H2846 0.930 . S
C2852 C2853 1.367 . S
C2852 C2860 1.378 . S
C2853 C2852 1.367 . S
C2853 C2861 1.433 . S
C2854 H2850 0.929 . S
C2854 C2856 1.378 . S
C2854 C2858 1.350 . S
C2855 C2858 1.463 . S
C2855 C2860 1.350 . S
C2855 N2863 1.427 . S
C2856 H2847 0.930 . S
C2856 C2854 1.378 . S
C2856 C2857 1.367 . S
C2857 C2856 1.367 . S
C2857 C2859 1.433 . S
C2858 C2854 1.350 . S
C2858 C2855 1.463 . S
C2858 N2862 1.427 . S
C2859 H2849 0.929 . S
C2859 C2857 1.433 . S
C2859 N2862 1.384 . S
C2860 H2851 0.929 . S
C2860 C2852 1.378 . S
C2860 C2855 1.350 . S
C2861 H2848 0.929 . S
C2861 C2853 1.433 . S
C2861 N2863 1.384 . S
N2862 C2858 1.427 . S
N2862 C2859 1.384 . S
N2863 C2855 1.427 . S
N2863 C2861 1.384 . S
H2864 C2870 0.930 . S
H2865 C2874 0.930 . S
H2866 C2879 0.929 . S
H2867 C2877 0.929 . S
H2868 C2872 0.929 . S
H2869 C2878 0.929 . S
C2870 H2864 0.930 . S
C2870 C2871 1.367 . S
C2870 C2878 1.378 . S
C2871 C2870 1.367 . S
C2871 C2879 1.433 . S
C2872 H2868 0.929 . S
C2872 C2874 1.378 . S
C2872 C2876 1.350 . S
C2873 C2876 1.463 . S
C2873 C2878 1.350 . S
C2873 N2881 1.427 . S
C2874 H2865 0.930 . S
C2874 C2872 1.378 . S
C2874 C2875 1.367 . S
C2875 C2874 1.367 . S
C2875 C2877 1.433 . S
C2876 C2872 1.350 . S
C2876 C2873 1.463 . S
C2876 N2880 1.427 . S
C2877 H2867 0.929 . S
C2877 C2875 1.433 . S
C2877 N2880 1.384 . S
C2878 H2869 0.929 . S
C2878 C2870 1.378 . S
C2878 C2873 1.350 . S
C2879 H2866 0.929 . S
C2879 C2871 1.433 . S
C2879 N2881 1.384 . S
N2880 C2876 1.427 . S
N2880 C2877 1.384 . S
N2881 C2873 1.427 . S
N2881 C2879 1.384 . S
H2882 C2888 0.930 . S
H2883 C2892 0.930 . S
H2884 C2897 0.929 . S
H2885 C2895 0.929 . S
H2886 C2890 0.929 . S
H2887 C2896 0.929 . S
C2888 H2882 0.930 . S
C2888 C2889 1.367 . S
C2888 C2896 1.378 . S
C2889 C2888 1.367 . S
C2889 C2897 1.433 . S
C2890 H2886 0.929 . S
C2890 C2892 1.378 . S
C2890 C2894 1.350 . S
C2891 C2894 1.463 . S
C2891 C2896 1.350 . S
C2891 N2899 1.427 . S
C2892 H2883 0.930 . S
C2892 C2890 1.378 . S
C2892 C2893 1.367 . S
C2893 C2892 1.367 . S
C2893 C2895 1.433 . S
C2894 C2890 1.350 . S
C2894 C2891 1.463 . S
C2894 N2898 1.427 . S
C2895 H2885 0.929 . S
C2895 C2893 1.433 . S
C2895 N2898 1.384 . S
C2896 H2887 0.929 . S
C2896 C2888 1.378 . S
C2896 C2891 1.350 . S
C2897 H2884 0.929 . S
C2897 C2889 1.433 . S
C2897 N2899 1.384 . S
N2898 C2894 1.427 . S
N2898 C2895 1.384 . S
N2899 C2891 1.427 . S
N2899 C2897 1.384 . S
H2900 C2906 0.930 . S
H2901 C2910 0.930 . S
H2902 C2915 0.929 . S
H2903 C2913 0.929 . S
H2904 C2908 0.929 . S
H2905 C2914 0.929 . S
C2906 H2900 0.930 . S
C2906 C2907 1.367 . S
C2906 C2914 1.378 . S
C2907 C2906 1.367 . S
C2907 C2915 1.433 . S
C2908 H2904 0.929 . S
C2908 C2910 1.378 . S
C2908 C2912 1.350 . S
C2909 C2912 1.463 . S
C2909 C2914 1.350 . S
C2909 N2917 1.427 . S
C2910 H2901 0.930 . S
C2910 C2908 1.378 . S
C2910 C2911 1.367 . S
C2911 C2910 1.367 . S
C2911 C2913 1.433 . S
C2912 C2908 1.350 . S
C2912 C2909 1.463 . S
C2912 N2916 1.427 . S
C2913 H2903 0.929 . S
C2913 C2911 1.433 . S
C2913 N2916 1.384 . S
C2914 H2905 0.929 . S
C2914 C2906 1.378 . S
C2914 C2909 1.350 . S
C2915 H2902 0.929 . S
C2915 C2907 1.433 . S
C2915 N2917 1.384 . S
N2916 C2912 1.427 . S
N2916 C2913 1.384 . S
N2917 C2909 1.427 . S
N2917 C2915 1.384 . S
H2918 C2924 0.930 . S
H2919 C2928 0.930 . S
H2920 C2933 0.929 . S
H2921 C2931 0.929 . S
H2922 C2926 0.929 . S
H2923 C2932 0.929 . S
C2924 H2918 0.930 . S
C2924 C2925 1.367 . S
C2924 C2932 1.378 . S
C2925 C2924 1.367 . S
C2925 C2933 1.433 . S
C2926 H2922 0.929 . S
C2926 C2928 1.378 . S
C2926 C2930 1.350 . S
C2927 C2930 1.463 . S
C2927 C2932 1.350 . S
C2927 N2935 1.427 . S
C2928 H2919 0.930 . S
C2928 C2926 1.378 . S
C2928 C2929 1.367 . S
C2929 C2928 1.367 . S
C2929 C2931 1.433 . S
C2930 C2926 1.350 . S
C2930 C2927 1.463 . S
C2930 N2934 1.427 . S
C2931 H2921 0.929 . S
C2931 C2929 1.433 . S
C2931 N2934 1.384 . S
C2932 H2923 0.929 . S
C2932 C2924 1.378 . S
C2932 C2927 1.350 . S
C2933 H2920 0.929 . S
C2933 C2925 1.433 . S
C2933 N2935 1.384 . S
N2934 C2930 1.427 . S
N2934 C2931 1.384 . S
N2935 C2927 1.427 . S
N2935 C2933 1.384 . S
H2936 C2942 0.930 . S
H2937 C2946 0.930 . S
H2938 C2951 0.929 . S
H2939 C2949 0.929 1_655 S
H2940 C2944 0.929 . S
H2941 C2950 0.929 . S
C2942 H2936 0.930 . S
C2942 C2943 1.367 . S
C2942 C2950 1.378 . S
C2943 C2942 1.367 . S
C2943 C2951 1.433 . S
C2944 H2940 0.929 . S
C2944 C2946 1.378 . S
C2944 C2948 1.350 . S
C2945 C2948 1.463 . S
C2945 C2950 1.350 . S
C2945 N2953 1.427 . S
C2946 H2937 0.930 . S
C2946 C2944 1.378 . S
C2946 C2947 1.367 . S
C2947 C2946 1.367 . S
C2947 C2949 1.433 . S
C2948 C2944 1.350 . S
C2948 C2945 1.463 . S
C2948 N2952 1.427 . S
C2949 H2939 0.929 1_455 S
C2949 C2947 1.433 . S
C2949 N2952 1.384 . S
C2950 H2941 0.929 . S
C2950 C2942 1.378 . S
C2950 C2945 1.350 . S
C2951 H2938 0.929 . S
C2951 C2943 1.433 . S
C2951 N2953 1.384 . S
N2952 C2948 1.427 . S
N2952 C2949 1.384 . S
N2953 C2945 1.427 . S
N2953 C2951 1.384 . S
H2954 C2960 0.930 . S
H2955 C2964 0.930 . S
H2956 C2969 0.929 . S
H2957 C2967 0.929 . S
H2958 C2962 0.929 . S
H2959 C2968 0.929 . S
C2960 H2954 0.930 . S
C2960 C2961 1.367 . S
C2960 C2968 1.378 . S
C2961 C2960 1.367 . S
C2961 C2969 1.433 . S
C2962 H2958 0.929 . S
C2962 C2964 1.378 . S
C2962 C2966 1.350 . S
C2963 C2966 1.463 . S
C2963 C2968 1.350 . S
C2963 N2971 1.427 . S
C2964 H2955 0.930 . S
C2964 C2962 1.378 . S
C2964 C2965 1.367 . S
C2965 C2964 1.367 . S
C2965 C2967 1.433 . S
C2966 C2962 1.350 . S
C2966 C2963 1.463 . S
C2966 N2970 1.427 . S
C2967 H2957 0.929 . S
C2967 C2965 1.433 . S
C2967 N2970 1.384 . S
C2968 H2959 0.929 . S
C2968 C2960 1.378 . S
C2968 C2963 1.350 . S
C2969 H2956 0.929 . S
C2969 C2961 1.433 . S
C2969 N2971 1.384 . S
N2970 C2966 1.427 . S
N2970 C2967 1.384 . S
N2971 C2963 1.427 . S
N2971 C2969 1.384 . S
H2972 C2978 0.930 . S
H2973 C2982 0.930 . S
H2974 C2987 0.929 . S
H2975 C2985 0.929 . S
H2976 C2980 0.929 . S
H2977 C2986 0.929 . S
C2978 H2972 0.930 . S
C2978 C2979 1.367 . S
C2978 C2986 1.378 . S
C2979 C2978 1.367 . S
C2979 C2987 1.433 . S
C2980 H2976 0.929 . S
C2980 C2982 1.378 . S
C2980 C2984 1.350 . S
C2981 C2984 1.463 . S
C2981 C2986 1.350 . S
C2981 N2989 1.427 . S
C2982 H2973 0.930 . S
C2982 C2980 1.378 . S
C2982 C2983 1.367 1_556 S
C2983 C2982 1.367 1_554 S
C2983 C2985 1.433 . S
C2984 C2980 1.350 . S
C2984 C2981 1.463 . S
C2984 N2988 1.458 . S
C2985 H2975 0.929 . S
C2985 C2983 1.433 . S
C2985 N2988 1.365 1_554 S
C2986 H2977 0.929 . S
C2986 C2978 1.378 . S
C2986 C2981 1.350 . S
C2987 H2974 0.929 . S
C2987 C2979 1.433 . S
C2987 N2989 1.384 . S
N2988 C2984 1.458 . S
N2988 C2985 1.365 1_556 S
N2989 C2981 1.427 . S
N2989 C2987 1.384 . S
H2990 C2996 0.930 . S
H2991 C3000 0.930 . S
H2992 C3005 0.929 . S
H2993 C3003 0.929 . S
H2994 C2998 0.929 . S
H2995 C3004 0.929 . S
C2996 H2990 0.930 . S
C2996 C2997 1.367 . S
C2996 C3004 1.378 . S
C2997 C2996 1.367 . S
C2997 C3005 1.433 . S
C2998 H2994 0.929 . S
C2998 C3000 1.378 . S
C2998 C3002 1.350 . S
C2999 C3002 1.463 . S
C2999 C3004 1.350 . S
C2999 N3007 1.427 . S
C3000 H2991 0.930 . S
C3000 C2998 1.378 . S
C3000 C3001 1.367 . S
C3001 C3000 1.367 . S
C3001 C3003 1.433 . S
C3002 C2998 1.350 . S
C3002 C2999 1.463 . S
C3002 N3006 1.427 . S
C3003 H2993 0.929 . S
C3003 C3001 1.433 . S
C3003 N3006 1.384 . S
C3004 H2995 0.929 . S
C3004 C2996 1.378 . S
C3004 C2999 1.350 . S
C3005 H2992 0.929 . S
C3005 C2997 1.433 . S
C3005 N3007 1.384 . S
N3006 C3002 1.427 . S
N3006 C3003 1.384 . S
N3007 C2999 1.427 . S
N3007 C3005 1.384 . S
H3008 C3014 0.930 . S
H3009 C3018 0.930 . S
H3010 C3023 0.929 . S
H3011 C3021 0.929 . S
H3012 C3016 0.929 . S
H3013 C3022 0.929 . S
C3014 H3008 0.930 . S
C3014 C3015 1.367 1_565 S
C3014 C3022 1.378 . S
C3015 C3014 1.367 1_545 S
C3015 C3023 1.433 . S
C3016 H3012 0.929 . S
C3016 C3018 1.378 . S
C3016 C3020 1.350 . S
C3017 C3020 1.463 . S
C3017 C3022 1.350 1_545 S
C3017 N3025 1.427 . S
C3018 H3009 0.930 . S
C3018 C3016 1.378 . S
C3018 C3019 1.367 . S
C3019 C3018 1.367 . S
C3019 C3021 1.433 1_545 S
C3020 C3016 1.350 . S
C3020 C3017 1.463 . S
C3020 N3024 1.427 1_545 S
C3021 H3011 0.929 . S
C3021 C3019 1.433 1_565 S
C3021 N3024 1.384 . S
C3022 H3013 0.929 . S
C3022 C3014 1.378 . S
C3022 C3017 1.350 1_565 S
C3023 H3010 0.929 . S
C3023 C3015 1.433 . S
C3023 N3025 1.384 . S
N3024 C3020 1.427 1_565 S
N3024 C3021 1.384 . S
N3025 C3017 1.427 . S
N3025 C3023 1.384 . S
H3026 C3032 0.930 . S
H3027 C3036 0.930 . S
H3028 C3041 0.929 . S
H3029 C3039 0.929 . S
H3030 C3034 0.929 . S
H3031 C3040 0.929 . S
C3032 H3026 0.930 . S
C3032 C3033 1.367 . S
C3032 C3040 1.378 . S
C3033 C3032 1.367 . S
C3033 C3041 1.433 . S
C3034 H3030 0.929 . S
C3034 C3036 1.378 . S
C3034 C3038 1.350 . S
C3035 C3038 1.463 . S
C3035 C3040 1.350 . S
C3035 N3043 1.427 . S
C3036 H3027 0.930 . S
C3036 C3034 1.378 . S
C3036 C3037 1.367 . S
C3037 C3036 1.367 . S
C3037 C3039 1.433 . S
C3038 C3034 1.350 . S
C3038 C3035 1.463 . S
C3038 N3042 1.427 . S
C3039 H3029 0.929 . S
C3039 C3037 1.433 . S
C3039 N3042 1.384 . S
C3040 H3031 0.929 . S
C3040 C3032 1.378 . S
C3040 C3035 1.350 . S
C3041 H3028 0.929 . S
C3041 C3033 1.433 . S
C3041 N3043 1.384 . S
N3042 C3038 1.427 . S
N3042 C3039 1.384 . S
N3043 C3035 1.427 . S
N3043 C3041 1.384 . S
H3044 C3050 0.930 . S
H3045 C3054 0.930 1_565 S
H3046 C3059 0.929 . S
H3047 C3057 0.929 . S
H3048 C3052 0.929 1_565 S
H3049 C3058 0.929 . S
C3050 H3044 0.930 . S
C3050 C3051 1.367 . S
C3050 C3058 1.378 . S
C3051 C3050 1.367 . S
C3051 C3059 1.433 . S
C3052 H3048 0.929 1_545 S
C3052 C3054 1.378 . S
C3052 C3056 1.350 . S
C3053 C3056 1.463 . S
C3053 C3058 1.350 . S
C3053 N3061 1.427 . S
C3054 H3045 0.930 1_545 S
C3054 C3052 1.378 . S
C3054 C3055 1.367 . S
C3055 C3054 1.367 . S
C3055 C3057 1.433 . S
C3056 C3052 1.350 . S
C3056 C3053 1.463 . S
C3056 N3060 1.427 . S
C3057 H3047 0.929 . S
C3057 C3055 1.433 . S
C3057 N3060 1.384 . S
C3058 H3049 0.929 . S
C3058 C3050 1.378 . S
C3058 C3053 1.350 . S
C3059 H3046 0.929 . S
C3059 C3051 1.433 . S
C3059 N3061 1.384 . S
N3060 C3056 1.427 . S
N3060 C3057 1.384 . S
N3061 C3053 1.427 . S
N3061 C3059 1.384 . S
H3062 C3068 0.930 . S
H3063 C3072 0.930 . S
H3064 C3077 0.929 . S
H3065 C3075 0.929 . S
H3066 C3070 0.929 . S
H3067 C3076 0.929 . S
C3068 H3062 0.930 . S
C3068 C3069 1.367 . S
C3068 C3076 1.378 . S
C3069 C3068 1.367 . S
C3069 C3077 1.433 . S
C3070 H3066 0.929 . S
C3070 C3072 1.378 . S
C3070 C3074 1.350 . S
C3071 C3074 1.463 . S
C3071 C3076 1.350 . S
C3071 N3079 1.427 . S
C3072 H3063 0.930 . S
C3072 C3070 1.378 . S
C3072 C3073 1.367 . S
C3073 C3072 1.367 . S
C3073 C3075 1.433 . S
C3074 C3070 1.350 . S
C3074 C3071 1.463 . S
C3074 N3078 1.427 . S
C3075 H3065 0.929 . S
C3075 C3073 1.433 . S
C3075 N3078 1.384 . S
C3076 H3067 0.929 . S
C3076 C3068 1.378 . S
C3076 C3071 1.350 . S
C3077 H3064 0.929 . S
C3077 C3069 1.433 . S
C3077 N3079 1.384 . S
N3078 C3074 1.427 . S
N3078 C3075 1.384 . S
N3079 C3071 1.427 . S
N3079 C3077 1.384 . S
H3080 C3086 0.930 . S
H3081 C3090 0.930 . S
H3082 C3095 0.929 . S
H3083 C3093 0.929 . S
H3084 C3088 0.929 . S
H3085 C3094 0.929 . S
C3086 H3080 0.930 . S
C3086 C3087 1.367 1_545 S
C3086 C3094 1.378 . S
C3087 C3086 1.367 1_565 S
C3087 C3095 1.433 . S
C3088 H3084 0.929 . S
C3088 C3090 1.378 . S
C3088 C3092 1.350 1_565 S
C3089 C3092 1.463 . S
C3089 C3094 1.350 . S
C3089 N3097 1.427 1_545 S
C3090 H3081 0.930 . S
C3090 C3088 1.378 . S
C3090 C3091 1.367 1_565 S
C3091 C3090 1.367 1_545 S
C3091 C3093 1.433 . S
C3092 C3088 1.350 1_545 S
C3092 C3089 1.463 . S
C3092 N3096 1.427 . S
C3093 H3083 0.929 . S
C3093 C3091 1.433 . S
C3093 N3096 1.384 . S
C3094 H3085 0.929 . S
C3094 C3086 1.378 . S
C3094 C3089 1.350 . S
C3095 H3082 0.929 . S
C3095 C3087 1.433 . S
C3095 N3097 1.384 . S
N3096 C3092 1.427 . S
N3096 C3093 1.384 . S
N3097 C3089 1.427 1_565 S
N3097 C3095 1.384 . S
H3098 C3104 0.930 . S
H3099 C3108 0.930 . S
H3100 C3113 0.929 . S
H3101 C3111 0.929 . S
H3102 C3106 0.929 . S
H3103 C3112 0.929 . S
C3104 H3098 0.930 . S
C3104 C3105 1.367 . S
C3104 C3112 1.378 . S
C3105 C3104 1.367 . S
C3105 C3113 1.433 . S
C3106 H3102 0.929 . S
C3106 C3108 1.378 . S
C3106 C3110 1.350 . S
C3107 C3110 1.463 . S
C3107 C3112 1.350 . S
C3107 N3115 1.427 . S
C3108 H3099 0.930 . S
C3108 C3106 1.378 . S
C3108 C3109 1.367 . S
C3109 C3108 1.367 . S
C3109 C3111 1.433 . S
C3110 C3106 1.350 . S
C3110 C3107 1.463 . S
C3110 N3114 1.427 . S
C3111 H3101 0.929 . S
C3111 C3109 1.433 . S
C3111 N3114 1.384 . S
C3112 H3103 0.929 . S
C3112 C3104 1.378 . S
C3112 C3107 1.350 . S
C3113 H3100 0.929 . S
C3113 C3105 1.433 . S
C3113 N3115 1.384 . S
N3114 C3110 1.427 . S
N3114 C3111 1.384 . S
N3115 C3107 1.427 . S
N3115 C3113 1.384 . S
H3116 C3122 0.930 . S
H3117 C3126 0.930 . S
H3118 C3131 0.929 1_565 S
H3119 C3129 0.929 . S
H3120 C3124 0.929 . S
H3121 C3130 0.929 . S
C3122 H3116 0.930 . S
C3122 C3123 1.367 . S
C3122 C3130 1.378 . S
C3123 C3122 1.367 . S
C3123 C3131 1.433 . S
C3124 H3120 0.929 . S
C3124 C3126 1.378 . S
C3124 C3128 1.350 1_565 S
C3125 C3128 1.463 . S
C3125 C3130 1.350 . S
C3125 N3133 1.427 1_545 S
C3126 H3117 0.930 . S
C3126 C3124 1.378 . S
C3126 C3127 1.395 . S
C3127 C3126 1.395 . S
C3127 C3129 1.397 1_565 S
C3128 C3124 1.350 1_545 S
C3128 C3125 1.463 . S
C3128 N3132 1.427 . S
C3129 H3119 0.929 . S
C3129 C3127 1.397 1_545 S
C3129 N3132 1.384 . S
C3130 H3121 0.929 . S
C3130 C3122 1.378 . S
C3130 C3125 1.350 . S
C3131 H3118 0.929 1_545 S
C3131 C3123 1.433 . S
C3131 N3133 1.384 1_545 S
N3132 C3128 1.427 . S
N3132 C3129 1.384 . S
N3133 C3125 1.427 1_565 S
N3133 C3131 1.384 1_565 S
H3134 C3140 0.930 . S
H3135 C3144 0.930 . S
H3136 C3149 0.929 . S
H3137 C3147 0.929 . S
H3138 C3142 0.929 . S
H3139 C3148 0.929 . S
C3140 H3134 0.930 . S
C3140 C3141 1.367 . S
C3140 C3148 1.378 . S
C3141 C3140 1.367 . S
C3141 C3149 1.433 . S
C3142 H3138 0.929 . S
C3142 C3144 1.378 . S
C3142 C3146 1.350 . S
C3143 C3146 1.463 . S
C3143 C3148 1.350 . S
C3143 N3151 1.427 . S
C3144 H3135 0.930 . S
C3144 C3142 1.378 . S
C3144 C3145 1.367 . S
C3145 C3144 1.367 . S
C3145 C3147 1.433 . S
C3146 C3142 1.350 . S
C3146 C3143 1.463 . S
C3146 N3150 1.427 . S
C3147 H3137 0.929 . S
C3147 C3145 1.433 . S
C3147 N3150 1.384 . S
C3148 H3139 0.929 . S
C3148 C3140 1.378 . S
C3148 C3143 1.350 . S
C3149 H3136 0.929 . S
C3149 C3141 1.433 . S
C3149 N3151 1.384 . S
N3150 C3146 1.427 . S
N3150 C3147 1.384 . S
N3151 C3143 1.427 . S
N3151 C3149 1.384 . S
H3152 C3158 0.930 . S
H3153 C3162 0.930 . S
H3154 C3167 0.964 . S
H3155 C3165 0.929 . S
H3156 C3160 0.929 . S
H3157 C3166 0.929 . S
C3158 H3152 0.930 . S
C3158 C3159 1.367 . S
C3158 C3166 1.378 . S
C3159 C3158 1.367 . S
C3159 C3167 1.390 1_554 S
C3160 H3156 0.929 . S
C3160 C3162 1.378 . S
C3160 C3164 1.350 1_556 S
C3161 C3164 1.463 . S
C3161 C3166 1.350 . S
C3161 N3169 1.427 1_554 S
C3162 H3153 0.930 . S
C3162 C3160 1.378 . S
C3162 C3163 1.367 1_556 S
C3163 C3162 1.367 1_554 S
C3163 C3165 1.433 . S
C3164 C3160 1.350 1_554 S
C3164 C3161 1.463 . S
C3164 N3168 1.427 . S
C3165 H3155 0.929 . S
C3165 C3163 1.433 . S
C3165 N3168 1.384 . S
C3166 H3157 0.929 . S
C3166 C3158 1.378 . S
C3166 C3161 1.350 . S
C3167 H3154 0.964 . S
C3167 C3159 1.390 1_556 S
C3167 N3169 1.392 . S
N3168 C3164 1.427 . S
N3168 C3165 1.384 . S
N3169 C3161 1.427 1_556 S
N3169 C3167 1.392 . S
H3170 C3176 0.930 . S
H3171 C3180 0.930 . S
H3172 C3185 0.929 . S
H3173 C3183 0.929 . S
H3174 C3178 0.929 . S
H3175 C3184 0.929 . S
C3176 H3170 0.930 . S
C3176 C3177 1.367 . S
C3176 C3184 1.378 . S
C3177 C3176 1.367 . S
C3177 C3185 1.433 . S
C3178 H3174 0.929 . S
C3178 C3180 1.378 . S
C3178 C3182 1.350 . S
C3179 C3182 1.463 . S
C3179 C3184 1.350 . S
C3179 N3187 1.427 . S
C3180 H3171 0.930 . S
C3180 C3178 1.378 . S
C3180 C3181 1.367 . S
C3181 C3180 1.367 . S
C3181 C3183 1.433 . S
C3182 C3178 1.350 . S
C3182 C3179 1.463 . S
C3182 N3186 1.427 . S
C3183 H3173 0.929 . S
C3183 C3181 1.433 . S
C3183 N3186 1.384 . S
C3184 H3175 0.929 . S
C3184 C3176 1.378 . S
C3184 C3179 1.350 . S
C3185 H3172 0.929 . S
C3185 C3177 1.433 . S
C3185 N3187 1.384 . S
N3186 C3182 1.427 . S
N3186 C3183 1.384 . S
N3187 C3179 1.427 . S
N3187 C3185 1.384 . S
H3188 C3194 0.930 . S
H3189 C3198 0.930 . S
H3190 C3203 0.929 . S
H3191 C3201 0.929 . S
H3192 C3196 0.929 . S
H3193 C3202 0.929 . S
C3194 H3188 0.930 . S
C3194 C3195 1.367 . S
C3194 C3202 1.378 . S
C3195 C3194 1.367 . S
C3195 C3203 1.433 . S
C3196 H3192 0.929 . S
C3196 C3198 1.378 . S
C3196 C3200 1.350 . S
C3197 C3200 1.463 . S
C3197 C3202 1.350 . S
C3197 N3205 1.427 . S
C3198 H3189 0.930 . S
C3198 C3196 1.378 . S
C3198 C3199 1.367 . S
C3199 C3198 1.367 . S
C3199 C3201 1.433 . S
C3200 C3196 1.350 . S
C3200 C3197 1.463 . S
C3200 N3204 1.427 . S
C3201 H3191 0.929 . S
C3201 C3199 1.433 . S
C3201 N3204 1.384 . S
C3202 H3193 0.929 . S
C3202 C3194 1.378 . S
C3202 C3197 1.350 . S
C3203 H3190 0.929 . S
C3203 C3195 1.433 . S
C3203 N3205 1.384 . S
N3204 C3200 1.427 . S
N3204 C3201 1.384 . S
N3205 C3197 1.427 . S
N3205 C3203 1.384 . S
H3206 C3212 0.930 . S
H3207 C3216 0.930 . S
H3208 C3221 0.929 . S
H3209 C3219 0.929 . S
H3210 C3214 0.929 . S
H3211 C3220 0.929 . S
C3212 H3206 0.930 . S
C3212 C3213 1.367 . S
C3212 C3220 1.378 . S
C3213 C3212 1.367 . S
C3213 C3221 1.433 . S
C3214 H3210 0.929 . S
C3214 C3216 1.378 . S
C3214 C3218 1.350 . S
C3215 C3218 1.463 . S
C3215 C3220 1.350 . S
C3215 N3223 1.427 . S
C3216 H3207 0.930 . S
C3216 C3214 1.378 . S
C3216 C3217 1.367 . S
C3217 C3216 1.367 . S
C3217 C3219 1.433 . S
C3218 C3214 1.350 . S
C3218 C3215 1.463 . S
C3218 N3222 1.427 . S
C3219 H3209 0.929 . S
C3219 C3217 1.433 . S
C3219 N3222 1.384 . S
C3220 H3211 0.929 . S
C3220 C3212 1.378 . S
C3220 C3215 1.350 . S
C3221 H3208 0.929 . S
C3221 C3213 1.433 . S
C3221 N3223 1.384 . S
N3222 C3218 1.427 . S
N3222 C3219 1.384 . S
N3223 C3215 1.427 . S
N3223 C3221 1.384 . S
H3224 C3230 0.930 . S
H3225 C3234 0.930 . S
H3226 C3239 0.929 . S
H3227 C3237 0.929 . S
H3228 C3232 0.929 . S
H3229 C3238 0.929 . S
C3230 H3224 0.930 . S
C3230 C3231 1.367 . S
C3230 C3238 1.378 . S
C3231 C3230 1.367 . S
C3231 C3239 1.433 . S
C3232 H3228 0.929 . S
C3232 C3234 1.378 . S
C3232 C3236 1.350 . S
C3233 C3236 1.463 . S
C3233 C3238 1.350 . S
C3233 N3241 1.427 . S
C3234 H3225 0.930 . S
C3234 C3232 1.378 . S
C3234 C3235 1.367 . S
C3235 C3234 1.367 . S
C3235 C3237 1.433 . S
C3236 C3232 1.350 . S
C3236 C3233 1.463 . S
C3236 N3240 1.427 . S
C3237 H3227 0.929 . S
C3237 C3235 1.433 . S
C3237 N3240 1.384 . S
C3238 H3229 0.929 . S
C3238 C3230 1.378 . S
C3238 C3233 1.350 . S
C3239 H3226 0.929 . S
C3239 C3231 1.433 . S
C3239 N3241 1.384 . S
N3240 C3236 1.427 . S
N3240 C3237 1.384 . S
N3241 C3233 1.427 . S
N3241 C3239 1.384 . S
H3242 C3248 0.930 . S
H3243 C3252 0.930 1_545 S
H3244 C3257 0.929 . S
H3245 C3255 0.929 . S
H3246 C3250 0.929 . S
H3247 C3256 0.929 . S
C3248 H3242 0.930 . S
C3248 C3249 1.367 . S
C3248 C3256 1.378 . S
C3249 C3248 1.367 . S
C3249 C3257 1.433 . S
C3250 H3246 0.929 . S
C3250 C3252 1.378 . S
C3250 C3254 1.350 . S
C3251 C3254 1.463 . S
C3251 C3256 1.350 . S
C3251 N3259 1.427 . S
C3252 H3243 0.930 1_565 S
C3252 C3250 1.378 . S
C3252 C3253 1.367 . S
C3253 C3252 1.367 . S
C3253 C3255 1.433 . S
C3254 C3250 1.350 . S
C3254 C3251 1.463 . S
C3254 N3258 1.427 . S
C3255 H3245 0.929 . S
C3255 C3253 1.433 . S
C3255 N3258 1.384 . S
C3256 H3247 0.929 . S
C3256 C3248 1.378 . S
C3256 C3251 1.350 . S
C3257 H3244 0.929 . S
C3257 C3249 1.433 . S
C3257 N3259 1.384 . S
N3258 C3254 1.427 . S
N3258 C3255 1.384 . S
N3259 C3251 1.427 . S
N3259 C3257 1.384 . S
H3260 C3266 0.930 . S
H3261 C3270 0.930 . S
H3262 C3275 0.929 . S
H3263 C3273 0.929 . S
H3264 C3268 0.929 . S
H3265 C3274 0.929 . S
C3266 H3260 0.930 . S
C3266 C3267 1.367 . S
C3266 C3274 1.378 . S
C3267 C3266 1.367 . S
C3267 C3275 1.433 . S
C3268 H3264 0.929 . S
C3268 C3270 1.378 . S
C3268 C3272 1.350 . S
C3269 C3272 1.463 . S
C3269 C3274 1.350 . S
C3269 N3277 1.427 . S
C3270 H3261 0.930 . S
C3270 C3268 1.378 . S
C3270 C3271 1.367 . S
C3271 C3270 1.367 . S
C3271 C3273 1.433 . S
C3272 C3268 1.350 . S
C3272 C3269 1.463 . S
C3272 N3276 1.427 . S
C3273 H3263 0.929 . S
C3273 C3271 1.433 . S
C3273 N3276 1.384 . S
C3274 H3265 0.929 . S
C3274 C3266 1.378 . S
C3274 C3269 1.350 . S
C3275 H3262 0.929 . S
C3275 C3267 1.433 . S
C3275 N3277 1.384 . S
N3276 C3272 1.427 . S
N3276 C3273 1.384 . S
N3277 C3269 1.427 . S
N3277 C3275 1.384 . S
H3278 C3284 0.930 . S
H3279 C3288 0.930 . S
H3280 C3293 0.929 . S
H3281 C3291 0.929 . S
H3282 C3286 0.929 . S
H3283 C3292 0.929 . S
C3284 H3278 0.930 . S
C3284 C3285 1.367 . S
C3284 C3292 1.378 . S
C3285 C3284 1.367 . S
C3285 C3293 1.433 . S
C3286 H3282 0.929 . S
C3286 C3288 1.378 . S
C3286 C3290 1.350 . S
C3287 C3290 1.463 . S
C3287 C3292 1.350 . S
C3287 N3295 1.427 . S
C3288 H3279 0.930 . S
C3288 C3286 1.378 . S
C3288 C3289 1.367 . S
C3289 C3288 1.367 . S
C3289 C3291 1.433 . S
C3290 C3286 1.350 . S
C3290 C3287 1.463 . S
C3290 N3294 1.427 . S
C3291 H3281 0.929 . S
C3291 C3289 1.433 . S
C3291 N3294 1.384 . S
C3292 H3283 0.929 . S
C3292 C3284 1.378 . S
C3292 C3287 1.350 . S
C3293 H3280 0.929 . S
C3293 C3285 1.433 . S
C3293 N3295 1.384 . S
N3294 C3290 1.427 . S
N3294 C3291 1.384 . S
N3295 C3287 1.427 . S
N3295 C3293 1.384 . S
H3296 C3302 0.930 . S
H3297 C3306 0.930 . S
H3298 C3311 0.929 . S
H3299 C3309 0.929 . S
H3300 C3304 0.929 . S
H3301 C3310 0.929 . S
C3302 H3296 0.930 . S
C3302 C3303 1.367 . S
C3302 C3310 1.378 . S
C3303 C3302 1.367 . S
C3303 C3311 1.433 . S
C3304 H3300 0.929 . S
C3304 C3306 1.378 . S
C3304 C3308 1.350 . S
C3305 C3308 1.463 . S
C3305 C3310 1.350 . S
C3305 N3313 1.427 . S
C3306 H3297 0.930 . S
C3306 C3304 1.378 . S
C3306 C3307 1.367 . S
C3307 C3306 1.367 . S
C3307 C3309 1.433 . S
C3308 C3304 1.350 . S
C3308 C3305 1.463 . S
C3308 N3312 1.427 . S
C3309 H3299 0.929 . S
C3309 C3307 1.433 . S
C3309 N3312 1.384 . S
C3310 H3301 0.929 . S
C3310 C3302 1.378 . S
C3310 C3305 1.350 . S
C3311 H3298 0.929 . S
C3311 C3303 1.433 . S
C3311 N3313 1.384 . S
N3312 C3308 1.427 . S
N3312 C3309 1.384 . S
N3313 C3305 1.427 . S
N3313 C3311 1.384 . S
H3314 C3320 0.930 . S
H3315 C3324 0.930 . S
H3316 C3329 0.929 . S
H3317 C3327 0.929 . S
H3318 C3322 0.929 . S
H3319 C3328 0.929 . S
C3320 H3314 0.930 . S
C3320 C3321 1.367 . S
C3320 C3328 1.378 . S
C3321 C3320 1.367 . S
C3321 C3329 1.433 . S
C3322 H3318 0.929 . S
C3322 C3324 1.378 . S
C3322 C3326 1.350 . S
C3323 C3326 1.463 . S
C3323 C3328 1.350 . S
C3323 N3331 1.427 . S
C3324 H3315 0.930 . S
C3324 C3322 1.378 . S
C3324 C3325 1.367 . S
C3325 C3324 1.367 . S
C3325 C3327 1.433 . S
C3326 C3322 1.350 . S
C3326 C3323 1.463 . S
C3326 N3330 1.427 . S
C3327 H3317 0.929 . S
C3327 C3325 1.433 . S
C3327 N3330 1.384 . S
C3328 H3319 0.929 . S
C3328 C3320 1.378 . S
C3328 C3323 1.350 . S
C3329 H3316 0.929 . S
C3329 C3321 1.433 . S
C3329 N3331 1.384 . S
N3330 C3326 1.427 . S
N3330 C3327 1.384 . S
N3331 C3323 1.427 . S
N3331 C3329 1.384 . S
H3332 C3338 0.930 . S
H3333 C3342 0.930 . S
H3334 C3347 0.937 . S
H3335 C3345 0.929 . S
H3336 C3340 0.929 . S
H3337 C3346 0.943 . S
C3338 H3332 0.930 . S
C3338 C3339 1.367 . S
C3338 C3346 1.378 . S
C3339 C3338 1.367 . S
C3339 C3347 1.420 1_455 S
C3340 H3336 0.929 . S
C3340 C3342 1.378 . S
C3340 C3344 1.350 1_655 S
C3341 C3344 1.463 . S
C3341 C3346 1.350 . S
C3341 N3349 1.427 1_455 S
C3342 H3333 0.930 . S
C3342 C3340 1.378 . S
C3342 C3343 1.367 1_655 S
C3343 C3342 1.367 1_455 S
C3343 C3345 1.433 1_556 S
C3344 C3340 1.350 1_455 S
C3344 C3341 1.463 . S
C3344 N3348 1.427 1_556 S
C3345 H3335 0.929 . S
C3345 C3343 1.433 1_554 S
C3345 N3348 1.384 . S
C3346 H3337 0.943 . S
C3346 C3338 1.378 . S
C3346 C3341 1.350 . S
C3347 H3334 0.937 . S
C3347 C3339 1.420 1_655 S
C3347 N3349 1.389 . S
N3348 C3344 1.427 1_554 S
N3348 C3345 1.384 . S
N3349 C3341 1.427 1_655 S
N3349 C3347 1.389 . S
H3350 C3356 0.930 . S
H3351 C3360 0.930 . S
H3352 C3365 0.929 . S
H3353 C3363 0.929 . S
H3354 C3358 0.929 . S
H3355 C3364 0.929 . S
C3356 H3350 0.930 . S
C3356 C3357 1.367 . S
C3356 C3364 1.378 . S
C3357 C3356 1.367 . S
C3357 C3365 1.433 . S
C3358 H3354 0.929 . S
C3358 C3360 1.378 . S
C3358 C3362 1.350 . S
C3359 C3362 1.463 . S
C3359 C3364 1.350 . S
C3359 N3367 1.427 . S
C3360 H3351 0.930 . S
C3360 C3358 1.378 . S
C3360 C3361 1.367 . S
C3361 C3360 1.367 . S
C3361 C3363 1.433 . S
C3362 C3358 1.350 . S
C3362 C3359 1.463 . S
C3362 N3366 1.427 . S
C3363 H3353 0.929 . S
C3363 C3361 1.433 . S
C3363 N3366 1.384 . S
C3364 H3355 0.929 . S
C3364 C3356 1.378 . S
C3364 C3359 1.350 . S
C3365 H3352 0.929 . S
C3365 C3357 1.433 . S
C3365 N3367 1.384 . S
N3366 C3362 1.427 . S
N3366 C3363 1.384 . S
N3367 C3359 1.427 . S
N3367 C3365 1.384 . S
H3368 C3374 0.930 . S
H3369 C3378 0.930 . S
H3370 C3383 0.929 . S
H3371 C3381 0.929 . S
H3372 C3376 0.929 . S
H3373 C3382 0.929 . S
C3374 H3368 0.930 . S
C3374 C3375 1.367 . S
C3374 C3382 1.378 . S
C3375 C3374 1.367 . S
C3375 C3383 1.433 . S
C3376 H3372 0.929 . S
C3376 C3378 1.378 . S
C3376 C3380 1.350 . S
C3377 C3380 1.463 . S
C3377 C3382 1.350 . S
C3377 N3385 1.427 . S
C3378 H3369 0.930 . S
C3378 C3376 1.378 . S
C3378 C3379 1.367 . S
C3379 C3378 1.367 . S
C3379 C3381 1.433 . S
C3380 C3376 1.350 . S
C3380 C3377 1.463 . S
C3380 N3384 1.427 . S
C3381 H3371 0.929 . S
C3381 C3379 1.433 . S
C3381 N3384 1.384 . S
C3382 H3373 0.929 . S
C3382 C3374 1.378 . S
C3382 C3377 1.350 . S
C3383 H3370 0.929 . S
C3383 C3375 1.433 . S
C3383 N3385 1.384 . S
N3384 C3380 1.427 . S
N3384 C3381 1.384 . S
N3385 C3377 1.427 . S
N3385 C3383 1.384 . S
H3386 C3392 0.930 . S
H3387 C3396 0.930 . S
H3388 C3401 0.929 . S
H3389 C3399 0.929 . S
H3390 C3394 0.929 . S
H3391 C3400 0.929 . S
C3392 H3386 0.930 . S
C3392 C3393 1.367 . S
C3392 C3400 1.378 . S
C3393 C3392 1.367 . S
C3393 C3401 1.433 . S
C3394 H3390 0.929 . S
C3394 C3396 1.378 . S
C3394 C3398 1.350 . S
C3395 C3398 1.463 . S
C3395 C3400 1.350 . S
C3395 N3403 1.427 . S
C3396 H3387 0.930 . S
C3396 C3394 1.378 . S
C3396 C3397 1.367 . S
C3397 C3396 1.367 . S
C3397 C3399 1.433 . S
C3398 C3394 1.350 . S
C3398 C3395 1.463 . S
C3398 N3402 1.427 . S
C3399 H3389 0.929 . S
C3399 C3397 1.433 . S
C3399 N3402 1.384 . S
C3400 H3391 0.929 . S
C3400 C3392 1.378 . S
C3400 C3395 1.350 . S
C3401 H3388 0.929 . S
C3401 C3393 1.433 . S
C3401 N3403 1.384 . S
N3402 C3398 1.427 . S
N3402 C3399 1.384 . S
N3403 C3395 1.427 . S
N3403 C3401 1.384 . S
H3404 C3410 0.930 . S
H3405 C3414 0.930 . S
H3406 C3419 0.929 . S
H3407 C3417 0.929 . S
H3408 C3412 0.929 . S
H3409 C3418 0.929 . S
C3410 H3404 0.930 . S
C3410 C3411 1.367 1_455 S
C3410 C3418 1.378 . S
C3411 C3410 1.367 1_655 S
C3411 C3419 1.433 . S
C3412 H3408 0.929 . S
C3412 C3414 1.378 . S
C3412 C3416 1.350 1_655 S
C3413 C3416 1.461 1_655 S
C3413 C3418 1.347 1_655 S
C3413 N3421 1.432 . S
C3414 H3405 0.930 . S
C3414 C3412 1.378 . S
C3414 C3415 1.367 1_655 S
C3415 C3414 1.367 1_455 S
C3415 C3417 1.433 . S
C3416 C3412 1.350 1_455 S
C3416 C3413 1.461 1_455 S
C3416 N3420 1.427 . S
C3417 H3407 0.929 . S
C3417 C3415 1.433 . S
C3417 N3420 1.384 . S
C3418 H3409 0.929 . S
C3418 C3410 1.378 . S
C3418 C3413 1.347 1_455 S
C3419 H3406 0.929 . S
C3419 C3411 1.433 . S
C3419 N3421 1.384 . S
N3420 C3416 1.427 . S
N3420 C3417 1.384 . S
N3421 C3413 1.432 . S
N3421 C3419 1.384 . S
H3422 C3428 0.930 . S
H3423 C3432 0.930 . S
H3424 C3437 0.929 . S
H3425 C3435 0.929 . S
H3426 C3430 0.929 . S
H3427 C3436 0.929 . S
C3428 H3422 0.930 . S
C3428 C3429 1.367 . S
C3428 C3436 1.378 . S
C3429 C3428 1.367 . S
C3429 C3437 1.433 . S
C3430 H3426 0.929 . S
C3430 C3432 1.378 . S
C3430 C3434 1.350 . S
C3431 C3434 1.463 . S
C3431 C3436 1.350 . S
C3431 N3439 1.427 . S
C3432 H3423 0.930 . S
C3432 C3430 1.378 . S
C3432 C3433 1.367 . S
C3433 C3432 1.367 . S
C3433 C3435 1.433 . S
C3434 C3430 1.350 . S
C3434 C3431 1.463 . S
C3434 N3438 1.427 . S
C3435 H3425 0.929 . S
C3435 C3433 1.433 . S
C3435 N3438 1.384 . S
C3436 H3427 0.929 . S
C3436 C3428 1.378 . S
C3436 C3431 1.350 . S
C3437 H3424 0.929 . S
C3437 C3429 1.433 . S
C3437 N3439 1.384 . S
N3438 C3434 1.427 . S
N3438 C3435 1.384 . S
N3439 C3431 1.427 . S
N3439 C3437 1.384 . S
H3440 C3446 0.930 . S
H3441 C3450 0.930 . S
H3442 C3455 0.929 . S
H3443 C3453 0.929 . S
H3444 C3448 0.929 . S
H3445 C3454 0.929 . S
C3446 H3440 0.930 . S
C3446 C3447 1.367 . S
C3446 C3454 1.378 . S
C3447 C3446 1.367 . S
C3447 C3455 1.433 . S
C3448 H3444 0.929 . S
C3448 C3450 1.378 . S
C3448 C3452 1.350 . S
C3449 C3452 1.463 . S
C3449 C3454 1.350 . S
C3449 N3457 1.427 . S
C3450 H3441 0.930 . S
C3450 C3448 1.378 . S
C3450 C3451 1.367 . S
C3451 C3450 1.367 . S
C3451 C3453 1.433 . S
C3452 C3448 1.350 . S
C3452 C3449 1.463 . S
C3452 N3456 1.427 . S
C3453 H3443 0.929 . S
C3453 C3451 1.433 . S
C3453 N3456 1.384 . S
C3454 H3445 0.929 . S
C3454 C3446 1.378 . S
C3454 C3449 1.350 . S
C3455 H3442 0.929 . S
C3455 C3447 1.433 . S
C3455 N3457 1.384 . S
N3456 C3452 1.427 . S
N3456 C3453 1.384 . S
N3457 C3449 1.427 . S
N3457 C3455 1.384 . S
H3458 C3464 0.930 . S
H3459 C3468 0.930 . S
H3460 C3473 0.929 . S
H3461 C3471 0.929 . S
H3462 C3466 0.929 . S
H3463 C3472 0.929 . S
C3464 H3458 0.930 . S
C3464 C3465 1.367 . S
C3464 C3472 1.378 . S
C3465 C3464 1.367 . S
C3465 C3473 1.433 . S
C3466 H3462 0.929 . S
C3466 C3468 1.378 . S
C3466 C3470 1.350 . S
C3467 C3470 1.463 . S
C3467 C3472 1.350 . S
C3467 N3475 1.427 . S
C3468 H3459 0.930 . S
C3468 C3466 1.378 . S
C3468 C3469 1.367 . S
C3469 C3468 1.367 . S
C3469 C3471 1.433 . S
C3470 C3466 1.350 . S
C3470 C3467 1.463 . S
C3470 N3474 1.427 . S
C3471 H3461 0.929 . S
C3471 C3469 1.433 . S
C3471 N3474 1.384 . S
C3472 H3463 0.929 . S
C3472 C3464 1.378 . S
C3472 C3467 1.350 . S
C3473 H3460 0.929 . S
C3473 C3465 1.433 . S
C3473 N3475 1.384 . S
N3474 C3470 1.427 . S
N3474 C3471 1.384 . S
N3475 C3467 1.427 . S
N3475 C3473 1.384 . S
H3476 C3482 0.930 . S
H3477 C3486 0.930 . S
H3478 C3491 0.929 . S
H3479 C3489 0.929 . S
H3480 C3484 0.929 . S
H3481 C3490 0.929 . S
C3482 H3476 0.930 . S
C3482 C3483 1.367 . S
C3482 C3490 1.378 . S
C3483 C3482 1.367 . S
C3483 C3491 1.433 . S
C3484 H3480 0.929 . S
C3484 C3486 1.378 . S
C3484 C3488 1.350 . S
C3485 C3488 1.463 . S
C3485 C3490 1.350 . S
C3485 N3493 1.427 . S
C3486 H3477 0.930 . S
C3486 C3484 1.378 . S
C3486 C3487 1.367 . S
C3487 C3486 1.367 . S
C3487 C3489 1.433 . S
C3488 C3484 1.350 . S
C3488 C3485 1.463 . S
C3488 N3492 1.427 . S
C3489 H3479 0.929 . S
C3489 C3487 1.433 . S
C3489 N3492 1.384 . S
C3490 H3481 0.929 . S
C3490 C3482 1.378 . S
C3490 C3485 1.350 . S
C3491 H3478 0.929 . S
C3491 C3483 1.433 . S
C3491 N3493 1.384 . S
N3492 C3488 1.427 . S
N3492 C3489 1.384 . S
N3493 C3485 1.427 . S
N3493 C3491 1.384 . S
H3494 C3500 0.930 . S
H3495 C3504 0.930 . S
H3496 C3509 0.929 . S
H3497 C3507 0.929 . S
H3498 C3502 0.929 . S
H3499 C3508 0.929 . S
C3500 H3494 0.930 . S
C3500 C3501 1.367 . S
C3500 C3508 1.378 . S
C3501 C3500 1.367 . S
C3501 C3509 1.433 . S
C3502 H3498 0.929 . S
C3502 C3504 1.378 . S
C3502 C3506 1.350 . S
C3503 C3506 1.463 . S
C3503 C3508 1.350 . S
C3503 N3511 1.427 . S
C3504 H3495 0.930 . S
C3504 C3502 1.378 . S
C3504 C3505 1.367 . S
C3505 C3504 1.367 . S
C3505 C3507 1.433 . S
C3506 C3502 1.350 . S
C3506 C3503 1.463 . S
C3506 N3510 1.427 . S
C3507 H3497 0.929 . S
C3507 C3505 1.433 . S
C3507 N3510 1.384 . S
C3508 H3499 0.929 . S
C3508 C3500 1.378 . S
C3508 C3503 1.350 . S
C3509 H3496 0.929 . S
C3509 C3501 1.433 . S
C3509 N3511 1.384 . S
N3510 C3506 1.427 . S
N3510 C3507 1.384 . S
N3511 C3503 1.427 . S
N3511 C3509 1.384 . S
H3512 C3518 0.930 . S
H3513 C3522 0.930 . S
H3514 C3527 0.929 . S
H3515 C3525 0.929 . S
H3516 C3520 0.929 . S
H3517 C3526 0.929 . S
C3518 H3512 0.930 . S
C3518 C3519 1.367 . S
C3518 C3526 1.378 . S
C3519 C3518 1.367 . S
C3519 C3527 1.433 . S
C3520 H3516 0.929 . S
C3520 C3522 1.378 . S
C3520 C3524 1.350 . S
C3521 C3524 1.463 . S
C3521 C3526 1.350 . S
C3521 N3529 1.427 . S
C3522 H3513 0.930 . S
C3522 C3520 1.378 . S
C3522 C3523 1.367 . S
C3523 C3522 1.367 . S
C3523 C3525 1.433 . S
C3524 C3520 1.350 . S
C3524 C3521 1.463 . S
C3524 N3528 1.427 . S
C3525 H3515 0.929 . S
C3525 C3523 1.433 . S
C3525 N3528 1.384 . S
C3526 H3517 0.929 . S
C3526 C3518 1.378 . S
C3526 C3521 1.350 . S
C3527 H3514 0.929 . S
C3527 C3519 1.433 . S
C3527 N3529 1.384 . S
N3528 C3524 1.427 . S
N3528 C3525 1.384 . S
N3529 C3521 1.427 . S
N3529 C3527 1.384 . S
H3530 C3536 0.930 . S
H3531 C3540 0.930 . S
H3532 C3545 0.929 . S
H3533 C3543 0.929 . S
H3534 C3538 0.929 . S
H3535 C3544 0.929 . S
C3536 H3530 0.930 . S
C3536 C3537 1.367 . S
C3536 C3544 1.378 . S
C3537 C3536 1.367 . S
C3537 C3545 1.433 . S
C3538 H3534 0.929 . S
C3538 C3540 1.378 . S
C3538 C3542 1.350 . S
C3539 C3542 1.463 . S
C3539 C3544 1.350 . S
C3539 N3547 1.427 . S
C3540 H3531 0.930 . S
C3540 C3538 1.378 . S
C3540 C3541 1.367 . S
C3541 C3540 1.367 . S
C3541 C3543 1.433 . S
C3542 C3538 1.350 . S
C3542 C3539 1.463 . S
C3542 N3546 1.427 . S
C3543 H3533 0.929 . S
C3543 C3541 1.433 . S
C3543 N3546 1.384 . S
C3544 H3535 0.929 . S
C3544 C3536 1.378 . S
C3544 C3539 1.350 . S
C3545 H3532 0.929 . S
C3545 C3537 1.433 . S
C3545 N3547 1.384 . S
N3546 C3542 1.427 . S
N3546 C3543 1.384 . S
N3547 C3539 1.427 . S
N3547 C3545 1.384 . S
H3548 C3554 0.930 . S
H3549 C3558 0.930 . S
H3550 C3563 0.929 . S
H3551 C3561 0.929 . S
H3552 C3556 0.929 . S
H3553 C3562 0.929 . S
C3554 H3548 0.930 . S
C3554 C3555 1.367 . S
C3554 C3562 1.378 . S
C3555 C3554 1.367 . S
C3555 C3563 1.433 . S
C3556 H3552 0.929 . S
C3556 C3558 1.378 . S
C3556 C3560 1.350 . S
C3557 C3560 1.463 . S
C3557 C3562 1.350 . S
C3557 N3565 1.427 . S
C3558 H3549 0.930 . S
C3558 C3556 1.378 . S
C3558 C3559 1.367 . S
C3559 C3558 1.367 . S
C3559 C3561 1.433 . S
C3560 C3556 1.350 . S
C3560 C3557 1.463 . S
C3560 N3564 1.427 . S
C3561 H3551 0.929 . S
C3561 C3559 1.433 . S
C3561 N3564 1.384 . S
C3562 H3553 0.929 . S
C3562 C3554 1.378 . S
C3562 C3557 1.350 . S
C3563 H3550 0.929 . S
C3563 C3555 1.433 . S
C3563 N3565 1.384 . S
N3564 C3560 1.427 . S
N3564 C3561 1.384 . S
N3565 C3557 1.427 . S
N3565 C3563 1.384 . S
H3566 C3572 0.930 . S
H3567 C3576 0.930 . S
H3568 C3581 0.929 . S
H3569 C3579 0.929 . S
H3570 C3574 0.929 . S
H3571 C3580 0.929 . S
C3572 H3566 0.930 . S
C3572 C3573 1.367 . S
C3572 C3580 1.378 . S
C3573 C3572 1.367 . S
C3573 C3581 1.433 . S
C3574 H3570 0.929 . S
C3574 C3576 1.378 . S
C3574 C3578 1.350 . S
C3575 C3578 1.463 . S
C3575 C3580 1.350 . S
C3575 N3583 1.427 . S
C3576 H3567 0.930 . S
C3576 C3574 1.378 . S
C3576 C3577 1.367 . S
C3577 C3576 1.367 . S
C3577 C3579 1.433 . S
C3578 C3574 1.350 . S
C3578 C3575 1.463 . S
C3578 N3582 1.427 . S
C3579 H3569 0.929 . S
C3579 C3577 1.433 . S
C3579 N3582 1.384 . S
C3580 H3571 0.929 . S
C3580 C3572 1.378 . S
C3580 C3575 1.350 . S
C3581 H3568 0.929 . S
C3581 C3573 1.433 . S
C3581 N3583 1.384 . S
N3582 C3578 1.427 . S
N3582 C3579 1.384 . S
N3583 C3575 1.427 . S
N3583 C3581 1.384 . S
H3584 C3590 0.930 . S
H3585 C3594 0.930 . S
H3586 C3599 0.929 . S
H3587 C3597 0.929 . S
H3588 C3592 0.929 . S
H3589 C3598 0.929 . S
C3590 H3584 0.930 . S
C3590 C3591 1.367 . S
C3590 C3598 1.378 . S
C3591 C3590 1.367 . S
C3591 C3599 1.433 . S
C3592 H3588 0.929 . S
C3592 C3594 1.378 . S
C3592 C3596 1.350 . S
C3593 C3596 1.463 . S
C3593 C3598 1.350 . S
C3593 N3601 1.427 . S
C3594 H3585 0.930 . S
C3594 C3592 1.378 . S
C3594 C3595 1.367 . S
C3595 C3594 1.367 . S
C3595 C3597 1.433 . S
C3596 C3592 1.350 . S
C3596 C3593 1.463 . S
C3596 N3600 1.427 . S
C3597 H3587 0.929 . S
C3597 C3595 1.433 . S
C3597 N3600 1.384 . S
C3598 H3589 0.929 . S
C3598 C3590 1.378 . S
C3598 C3593 1.350 . S
C3599 H3586 0.929 . S
C3599 C3591 1.433 . S
C3599 N3601 1.384 . S
N3600 C3596 1.427 . S
N3600 C3597 1.384 . S
N3601 C3593 1.427 . S
N3601 C3599 1.384 . S
H3602 C3608 0.930 . S
H3603 C3612 0.930 . S
H3604 C3617 0.929 . S
H3605 C3615 0.929 . S
H3606 C3610 0.929 . S
H3607 C3616 0.929 . S
C3608 H3602 0.930 . S
C3608 C3609 1.367 . S
C3608 C3616 1.378 . S
C3609 C3608 1.367 . S
C3609 C3617 1.433 . S
C3610 H3606 0.929 . S
C3610 C3612 1.378 . S
C3610 C3614 1.350 . S
C3611 C3614 1.463 . S
C3611 C3616 1.350 . S
C3611 N3619 1.427 . S
C3612 H3603 0.930 . S
C3612 C3610 1.378 . S
C3612 C3613 1.367 . S
C3613 C3612 1.367 . S
C3613 C3615 1.433 . S
C3614 C3610 1.350 . S
C3614 C3611 1.463 . S
C3614 N3618 1.427 . S
C3615 H3605 0.929 . S
C3615 C3613 1.433 . S
C3615 N3618 1.384 . S
C3616 H3607 0.929 . S
C3616 C3608 1.378 . S
C3616 C3611 1.350 . S
C3617 H3604 0.929 . S
C3617 C3609 1.433 . S
C3617 N3619 1.384 . S
N3618 C3614 1.427 . S
N3618 C3615 1.384 . S
N3619 C3611 1.427 . S
N3619 C3617 1.384 . S
H3620 C3626 0.930 . S
H3621 C3630 0.930 . S
H3622 C3635 0.929 . S
H3623 C3633 0.929 . S
H3624 C3628 0.929 . S
H3625 C3634 0.929 . S
C3626 H3620 0.930 . S
C3626 C3627 1.367 . S
C3626 C3634 1.378 . S
C3627 C3626 1.367 . S
C3627 C3635 1.433 . S
C3628 H3624 0.929 . S
C3628 C3630 1.378 . S
C3628 C3632 1.350 . S
C3629 C3632 1.463 . S
C3629 C3634 1.350 . S
C3629 N3637 1.427 . S
C3630 H3621 0.930 . S
C3630 C3628 1.378 . S
C3630 C3631 1.367 . S
C3631 C3630 1.367 . S
C3631 C3633 1.433 . S
C3632 C3628 1.350 . S
C3632 C3629 1.463 . S
C3632 N3636 1.427 . S
C3633 H3623 0.929 . S
C3633 C3631 1.433 . S
C3633 N3636 1.384 . S
C3634 H3625 0.929 . S
C3634 C3626 1.378 . S
C3634 C3629 1.350 . S
C3635 H3622 0.929 . S
C3635 C3627 1.433 . S
C3635 N3637 1.384 . S
N3636 C3632 1.427 . S
N3636 C3633 1.384 . S
N3637 C3629 1.427 . S
N3637 C3635 1.384 . S
H3638 C3644 0.930 . S
H3639 C3648 0.930 1_556 S
H3640 C3653 0.929 1_556 S
H3641 C3651 0.929 1_545 S
H3642 C3646 0.929 1_556 S
H3643 C3652 0.929 . S
C3644 H3638 0.930 . S
C3644 C3645 1.367 . S
C3644 C3652 1.378 . S
C3645 C3644 1.367 . S
C3645 C3653 1.433 . S
C3646 H3642 0.929 1_554 S
C3646 C3648 1.378 . S
C3646 C3650 1.350 . S
C3647 C3650 1.463 . S
C3647 C3652 1.350 . S
C3647 N3655 1.427 . S
C3648 H3639 0.930 1_554 S
C3648 C3646 1.378 . S
C3648 C3649 1.367 . S
C3649 C3648 1.367 . S
C3649 C3651 1.433 . S
C3650 C3646 1.350 . S
C3650 C3647 1.463 . S
C3650 N3654 1.427 . S
C3651 H3641 0.929 1_565 S
C3651 C3649 1.433 . S
C3651 N3654 1.384 . S
C3652 H3643 0.929 . S
C3652 C3644 1.378 . S
C3652 C3647 1.350 . S
C3653 H3640 0.929 1_554 S
C3653 C3645 1.433 . S
C3653 N3655 1.384 . S
N3654 C3650 1.427 . S
N3654 C3651 1.384 . S
N3655 C3647 1.427 . S
N3655 C3653 1.384 . S
H3656 C3662 0.930 . S
H3657 C3666 0.930 . S
H3658 C3671 0.929 . S
H3659 C3669 0.929 . S
H3660 C3664 0.929 . S
H3661 C3670 0.929 . S
C3662 H3656 0.930 . S
C3662 C3663 1.367 . S
C3662 C3670 1.378 . S
C3663 C3662 1.367 . S
C3663 C3671 1.433 . S
C3664 H3660 0.929 . S
C3664 C3666 1.378 . S
C3664 C3668 1.350 . S
C3665 C3668 1.463 . S
C3665 C3670 1.350 . S
C3665 N3673 1.427 . S
C3666 H3657 0.930 . S
C3666 C3664 1.378 . S
C3666 C3667 1.367 . S
C3667 C3666 1.367 . S
C3667 C3669 1.433 . S
C3668 C3664 1.350 . S
C3668 C3665 1.463 . S
C3668 N3672 1.427 . S
C3669 H3659 0.929 . S
C3669 C3667 1.433 . S
C3669 N3672 1.384 . S
C3670 H3661 0.929 . S
C3670 C3662 1.378 . S
C3670 C3665 1.350 . S
C3671 H3658 0.929 . S
C3671 C3663 1.433 . S
C3671 N3673 1.384 . S
N3672 C3668 1.427 . S
N3672 C3669 1.384 . S
N3673 C3665 1.427 . S
N3673 C3671 1.384 . S
H3674 C3680 0.930 . S
H3675 C3684 0.930 . S
H3676 C3689 0.929 . S
H3677 C3687 0.929 . S
H3678 C3682 0.929 . S
H3679 C3688 0.938 . S
C3680 H3674 0.930 . S
C3680 C3681 1.367 1_556 S
C3680 C3688 1.378 1_556 S
C3681 C3680 1.367 1_554 S
C3681 C3689 1.433 . S
C3682 H3678 0.929 . S
C3682 C3684 1.378 . S
C3682 C3686 1.350 . S
C3683 C3686 1.463 . S
C3683 C3688 1.350 . S
C3683 N3691 1.427 . S
C3684 H3675 0.930 . S
C3684 C3682 1.378 . S
C3684 C3685 1.367 . S
C3685 C3684 1.367 . S
C3685 C3687 1.433 . S
C3686 C3682 1.350 . S
C3686 C3683 1.463 . S
C3686 N3690 1.427 . S
C3687 H3677 0.929 . S
C3687 C3685 1.433 . S
C3687 N3690 1.384 . S
C3688 H3679 0.938 . S
C3688 C3680 1.378 1_554 S
C3688 C3683 1.350 . S
C3689 H3676 0.929 . S
C3689 C3681 1.433 . S
C3689 N3691 1.384 . S
N3690 C3686 1.427 . S
N3690 C3687 1.384 . S
N3691 C3683 1.427 . S
N3691 C3689 1.384 . S
H3692 C3698 0.930 . S
H3693 C3702 0.930 . S
H3694 C3707 0.929 . S
H3695 C3705 0.929 . S
H3696 C3700 0.929 . S
H3697 C3706 0.929 . S
C3698 H3692 0.930 . S
C3698 C3699 1.367 . S
C3698 C3706 1.378 . S
C3699 C3698 1.367 . S
C3699 C3707 1.433 . S
C3700 H3696 0.929 . S
C3700 C3702 1.378 . S
C3700 C3704 1.350 . S
C3701 C3704 1.463 . S
C3701 C3706 1.350 . S
C3701 N3709 1.427 . S
C3702 H3693 0.930 . S
C3702 C3700 1.378 . S
C3702 C3703 1.367 . S
C3703 C3702 1.367 . S
C3703 C3705 1.433 . S
C3704 C3700 1.350 . S
C3704 C3701 1.463 . S
C3704 N3708 1.427 . S
C3705 H3695 0.929 . S
C3705 C3703 1.433 . S
C3705 N3708 1.384 . S
C3706 H3697 0.929 . S
C3706 C3698 1.378 . S
C3706 C3701 1.350 . S
C3707 H3694 0.929 . S
C3707 C3699 1.433 . S
C3707 N3709 1.384 . S
N3708 C3704 1.427 . S
N3708 C3705 1.384 . S
N3709 C3701 1.427 . S
N3709 C3707 1.384 . S
H3710 C3716 0.930 . S
H3711 C3720 0.930 . S
H3712 C3725 0.929 . S
H3713 C3723 0.929 . S
H3714 C3718 0.929 . S
H3715 C3724 0.929 . S
C3716 H3710 0.930 . S
C3716 C3717 1.367 . S
C3716 C3724 1.378 . S
C3717 C3716 1.367 . S
C3717 C3725 1.433 . S
C3718 H3714 0.929 . S
C3718 C3720 1.378 . S
C3718 C3722 1.350 . S
C3719 C3722 1.463 . S
C3719 C3724 1.350 . S
C3719 N3727 1.427 . S
C3720 H3711 0.930 . S
C3720 C3718 1.378 . S
C3720 C3721 1.367 . S
C3721 C3720 1.367 . S
C3721 C3723 1.433 . S
C3722 C3718 1.350 . S
C3722 C3719 1.463 . S
C3722 N3726 1.427 . S
C3723 H3713 0.929 . S
C3723 C3721 1.433 . S
C3723 N3726 1.384 . S
C3724 H3715 0.929 . S
C3724 C3716 1.378 . S
C3724 C3719 1.350 . S
C3725 H3712 0.929 . S
C3725 C3717 1.433 . S
C3725 N3727 1.384 . S
N3726 C3722 1.427 . S
N3726 C3723 1.384 . S
N3727 C3719 1.427 . S
N3727 C3725 1.384 . S
H3728 C3734 0.930 . S
H3729 C3738 0.930 . S
H3730 C3743 0.929 . S
H3731 C3741 0.929 . S
H3732 C3736 0.929 . S
H3733 C3742 0.929 . S
C3734 H3728 0.930 . S
C3734 C3735 1.367 . S
C3734 C3742 1.378 . S
C3735 C3734 1.367 . S
C3735 C3743 1.433 . S
C3736 H3732 0.929 . S
C3736 C3738 1.378 . S
C3736 C3740 1.350 . S
C3737 C3740 1.463 . S
C3737 C3742 1.350 . S
C3737 N3745 1.427 . S
C3738 H3729 0.930 . S
C3738 C3736 1.378 . S
C3738 C3739 1.367 . S
C3739 C3738 1.367 . S
C3739 C3741 1.433 . S
C3740 C3736 1.350 . S
C3740 C3737 1.463 . S
C3740 N3744 1.427 . S
C3741 H3731 0.929 . S
C3741 C3739 1.433 . S
C3741 N3744 1.384 . S
C3742 H3733 0.929 . S
C3742 C3734 1.378 . S
C3742 C3737 1.350 . S
C3743 H3730 0.929 . S
C3743 C3735 1.433 . S
C3743 N3745 1.384 . S
N3744 C3740 1.427 . S
N3744 C3741 1.384 . S
N3745 C3737 1.427 . S
N3745 C3743 1.384 . S
H3746 C3752 0.930 . S
H3747 C3756 0.930 . S
H3748 C3761 0.929 . S
H3749 C3759 0.929 . S
H3750 C3754 0.929 . S
H3751 C3760 0.929 . S
C3752 H3746 0.930 . S
C3752 C3753 1.367 . S
C3752 C3760 1.378 . S
C3753 C3752 1.367 . S
C3753 C3761 1.433 . S
C3754 H3750 0.929 . S
C3754 C3756 1.378 . S
C3754 C3758 1.350 . S
C3755 C3758 1.463 . S
C3755 C3760 1.350 . S
C3755 N3763 1.427 . S
C3756 H3747 0.930 . S
C3756 C3754 1.378 . S
C3756 C3757 1.367 . S
C3757 C3756 1.367 . S
C3757 C3759 1.433 . S
C3758 C3754 1.350 . S
C3758 C3755 1.463 . S
C3758 N3762 1.427 . S
C3759 H3749 0.929 . S
C3759 C3757 1.433 . S
C3759 N3762 1.384 . S
C3760 H3751 0.929 . S
C3760 C3752 1.378 . S
C3760 C3755 1.350 . S
C3761 H3748 0.929 . S
C3761 C3753 1.433 . S
C3761 N3763 1.384 . S
N3762 C3758 1.427 . S
N3762 C3759 1.384 . S
N3763 C3755 1.427 . S
N3763 C3761 1.384 . S
H3764 C3770 0.930 . S
H3765 C3774 0.930 . S
H3766 C3779 0.929 . S
H3767 C3777 0.929 . S
H3768 C3772 0.929 . S
H3769 C3778 0.929 . S
C3770 H3764 0.930 . S
C3770 C3771 1.367 . S
C3770 C3778 1.378 . S
C3771 C3770 1.367 . S
C3771 C3779 1.433 . S
C3772 H3768 0.929 . S
C3772 C3774 1.378 . S
C3772 C3776 1.350 . S
C3773 C3776 1.463 . S
C3773 C3778 1.350 . S
C3773 N3781 1.427 . S
C3774 H3765 0.930 . S
C3774 C3772 1.378 . S
C3774 C3775 1.367 . S
C3775 C3774 1.367 . S
C3775 C3777 1.433 . S
C3776 C3772 1.350 . S
C3776 C3773 1.463 . S
C3776 N3780 1.427 . S
C3777 H3767 0.929 . S
C3777 C3775 1.433 . S
C3777 N3780 1.384 . S
C3778 H3769 0.929 . S
C3778 C3770 1.378 . S
C3778 C3773 1.350 . S
C3779 H3766 0.929 . S
C3779 C3771 1.433 . S
C3779 N3781 1.384 . S
N3780 C3776 1.427 . S
N3780 C3777 1.384 . S
N3781 C3773 1.427 . S
N3781 C3779 1.384 . S
H3782 C3788 0.930 . S
H3783 C3792 0.930 . S
H3784 C3797 0.929 . S
H3785 C3795 0.929 . S
H3786 C3790 0.929 . S
H3787 C3796 0.929 . S
C3788 H3782 0.930 . S
C3788 C3789 1.367 . S
C3788 C3796 1.378 . S
C3789 C3788 1.367 . S
C3789 C3797 1.433 . S
C3790 H3786 0.929 . S
C3790 C3792 1.378 . S
C3790 C3794 1.350 . S
C3791 C3794 1.463 . S
C3791 C3796 1.350 . S
C3791 N3799 1.427 . S
C3792 H3783 0.930 . S
C3792 C3790 1.378 . S
C3792 C3793 1.367 . S
C3793 C3792 1.367 . S
C3793 C3795 1.433 . S
C3794 C3790 1.350 . S
C3794 C3791 1.463 . S
C3794 N3798 1.427 . S
C3795 H3785 0.929 . S
C3795 C3793 1.433 . S
C3795 N3798 1.384 . S
C3796 H3787 0.929 . S
C3796 C3788 1.378 . S
C3796 C3791 1.350 . S
C3797 H3784 0.929 . S
C3797 C3789 1.433 . S
C3797 N3799 1.384 . S
N3798 C3794 1.427 . S
N3798 C3795 1.384 . S
N3799 C3791 1.427 . S
N3799 C3797 1.384 . S
H3800 C3806 0.930 . S
H3801 C3810 0.930 . S
H3802 C3815 0.929 . S
H3803 C3813 0.929 . S
H3804 C3808 0.929 1_554 S
H3805 C3814 0.929 . S
C3806 H3800 0.930 . S
C3806 C3807 1.367 . S
C3806 C3814 1.378 . S
C3807 C3806 1.367 . S
C3807 C3815 1.433 . S
C3808 H3804 0.929 1_556 S
C3808 C3810 1.378 1_556 S
C3808 C3812 1.350 . S
C3809 C3812 1.463 . S
C3809 C3814 1.350 . S
C3809 N3817 1.427 . S
C3810 H3801 0.930 . S
C3810 C3808 1.378 1_554 S
C3810 C3811 1.367 1_554 S
C3811 C3810 1.367 1_556 S
C3811 C3813 1.433 . S
C3812 C3808 1.350 . S
C3812 C3809 1.463 . S
C3812 N3816 1.427 . S
C3813 H3803 0.929 . S
C3813 C3811 1.433 . S
C3813 N3816 1.384 . S
C3814 H3805 0.929 . S
C3814 C3806 1.378 . S
C3814 C3809 1.350 . S
C3815 H3802 0.929 . S
C3815 C3807 1.433 . S
C3815 N3817 1.384 . S
N3816 C3812 1.427 . S
N3816 C3813 1.384 . S
N3817 C3809 1.427 . S
N3817 C3815 1.384 . S
H3818 C3824 0.930 . S
H3819 C3828 0.930 . S
H3820 C3833 0.929 . S
H3821 C3831 0.929 . S
H3822 C3826 0.929 . S
H3823 C3832 0.929 . S
C3824 H3818 0.930 . S
C3824 C3825 1.367 . S
C3824 C3832 1.378 . S
C3825 C3824 1.367 . S
C3825 C3833 1.433 . S
C3826 H3822 0.929 . S
C3826 C3828 1.378 . S
C3826 C3830 1.350 . S
C3827 C3830 1.463 . S
C3827 C3832 1.350 . S
C3827 N3835 1.427 . S
C3828 H3819 0.930 . S
C3828 C3826 1.378 . S
C3828 C3829 1.367 . S
C3829 C3828 1.367 . S
C3829 C3831 1.433 . S
C3830 C3826 1.350 . S
C3830 C3827 1.463 . S
C3830 N3834 1.427 . S
C3831 H3821 0.929 . S
C3831 C3829 1.433 . S
C3831 N3834 1.384 . S
C3832 H3823 0.929 . S
C3832 C3824 1.378 . S
C3832 C3827 1.350 . S
C3833 H3820 0.929 . S
C3833 C3825 1.433 . S
C3833 N3835 1.384 . S
N3834 C3830 1.427 . S
N3834 C3831 1.384 . S
N3835 C3827 1.427 . S
N3835 C3833 1.384 . S
H3836 C3842 0.930 1_655 S
H3837 C3846 0.930 . S
H3838 C3851 0.929 . S
H3839 C3849 0.897 1_655 S
H3840 C3844 0.929 . S
H3841 C3850 0.929 1_655 S
C3842 H3836 0.930 1_455 S
C3842 C3843 1.367 . S
C3842 C3850 1.378 . S
C3843 C3842 1.367 . S
C3843 C3851 1.433 . S
C3844 H3840 0.929 . S
C3844 C3846 1.378 . S
C3844 C3848 1.350 . S
C3845 C3848 1.463 . S
C3845 C3850 1.350 . S
C3845 N3853 1.427 . S
C3846 H3837 0.930 . S
C3846 C3844 1.378 . S
C3846 C3847 1.367 . S
C3847 C3846 1.367 . S
C3847 C3849 1.458 . S
C3848 C3844 1.350 . S
C3848 C3845 1.463 . S
C3848 N3852 1.427 . S
C3849 H3839 0.897 1_455 S
C3849 C3847 1.458 . S
C3849 N3852 1.393 . S
C3850 H3841 0.929 1_455 S
C3850 C3842 1.378 . S
C3850 C3845 1.350 . S
C3851 H3838 0.929 . S
C3851 C3843 1.433 . S
C3851 N3853 1.384 . S
N3852 C3848 1.427 . S
N3852 C3849 1.393 . S
N3853 C3845 1.427 . S
N3853 C3851 1.384 . S
H3854 C3860 0.930 . S
H3855 C3864 0.930 . S
H3856 C3869 0.929 . S
H3857 C3867 0.929 . S
H3858 C3862 0.929 . S
H3859 C3868 0.929 . S
C3860 H3854 0.930 . S
C3860 C3861 1.367 . S
C3860 C3868 1.378 . S
C3861 C3860 1.367 . S
C3861 C3869 1.433 . S
C3862 H3858 0.929 . S
C3862 C3864 1.378 . S
C3862 C3866 1.350 . S
C3863 C3866 1.463 . S
C3863 C3868 1.350 . S
C3863 N3871 1.427 . S
C3864 H3855 0.930 . S
C3864 C3862 1.378 . S
C3864 C3865 1.367 . S
C3865 C3864 1.367 . S
C3865 C3867 1.433 . S
C3866 C3862 1.350 . S
C3866 C3863 1.463 . S
C3866 N3870 1.427 . S
C3867 H3857 0.929 . S
C3867 C3865 1.433 . S
C3867 N3870 1.384 . S
C3868 H3859 0.929 . S
C3868 C3860 1.378 . S
C3868 C3863 1.350 . S
C3869 H3856 0.929 . S
C3869 C3861 1.433 . S
C3869 N3871 1.384 . S
N3870 C3866 1.427 . S
N3870 C3867 1.384 . S
N3871 C3863 1.427 . S
N3871 C3869 1.384 . S
H3872 C3878 0.930 . S
H3873 C3882 0.930 . S
H3874 C3887 0.929 . S
H3875 C3885 0.929 . S
H3876 C3880 0.929 . S
H3877 C3886 0.929 . S
C3878 H3872 0.930 . S
C3878 C3879 1.367 . S
C3878 C3886 1.378 . S
C3879 C3878 1.367 . S
C3879 C3887 1.433 . S
C3880 H3876 0.929 . S
C3880 C3882 1.378 . S
C3880 C3884 1.350 . S
C3881 C3884 1.463 . S
C3881 C3886 1.350 . S
C3881 N3889 1.427 . S
C3882 H3873 0.930 . S
C3882 C3880 1.378 . S
C3882 C3883 1.367 . S
C3883 C3882 1.367 . S
C3883 C3885 1.433 . S
C3884 C3880 1.350 . S
C3884 C3881 1.463 . S
C3884 N3888 1.427 . S
C3885 H3875 0.929 . S
C3885 C3883 1.433 . S
C3885 N3888 1.384 . S
C3886 H3877 0.929 . S
C3886 C3878 1.378 . S
C3886 C3881 1.350 . S
C3887 H3874 0.929 . S
C3887 C3879 1.433 . S
C3887 N3889 1.384 . S
N3888 C3884 1.427 . S
N3888 C3885 1.384 . S
N3889 C3881 1.427 . S
N3889 C3887 1.384 . S
H3890 C3896 0.930 . S
H3891 C3900 0.930 . S
H3892 C3905 0.929 . S
H3893 C3903 0.929 . S
H3894 C3898 0.929 . S
H3895 C3904 0.929 . S
C3896 H3890 0.930 . S
C3896 C3897 1.367 . S
C3896 C3904 1.378 . S
C3897 C3896 1.367 . S
C3897 C3905 1.433 . S
C3898 H3894 0.929 . S
C3898 C3900 1.378 . S
C3898 C3902 1.350 . S
C3899 C3902 1.463 . S
C3899 C3904 1.350 . S
C3899 N3907 1.427 . S
C3900 H3891 0.930 . S
C3900 C3898 1.378 . S
C3900 C3901 1.367 . S
C3901 C3900 1.367 . S
C3901 C3903 1.433 . S
C3902 C3898 1.350 . S
C3902 C3899 1.463 . S
C3902 N3906 1.427 . S
C3903 H3893 0.929 . S
C3903 C3901 1.433 . S
C3903 N3906 1.384 . S
C3904 H3895 0.929 . S
C3904 C3896 1.378 . S
C3904 C3899 1.350 . S
C3905 H3892 0.929 . S
C3905 C3897 1.433 . S
C3905 N3907 1.384 . S
N3906 C3902 1.427 . S
N3906 C3903 1.384 . S
N3907 C3899 1.427 . S
N3907 C3905 1.384 . S
H3908 C3914 0.930 . S
H3909 C3918 0.930 . S
H3910 C3923 0.929 . S
H3911 C3921 0.929 . S
H3912 C3916 0.929 . S
H3913 C3922 0.929 . S
C3914 H3908 0.930 . S
C3914 C3915 1.367 . S
C3914 C3922 1.378 . S
C3915 C3914 1.367 . S
C3915 C3923 1.433 . S
C3916 H3912 0.929 . S
C3916 C3918 1.378 . S
C3916 C3920 1.350 . S
C3917 C3920 1.463 . S
C3917 C3922 1.350 . S
C3917 N3925 1.427 . S
C3918 H3909 0.930 . S
C3918 C3916 1.378 . S
C3918 C3919 1.367 . S
C3919 C3918 1.367 . S
C3919 C3921 1.433 . S
C3920 C3916 1.350 . S
C3920 C3917 1.463 . S
C3920 N3924 1.427 . S
C3921 H3911 0.929 . S
C3921 C3919 1.433 . S
C3921 N3924 1.384 . S
C3922 H3913 0.929 . S
C3922 C3914 1.378 . S
C3922 C3917 1.350 . S
C3923 H3910 0.929 . S
C3923 C3915 1.433 . S
C3923 N3925 1.384 . S
N3924 C3920 1.427 . S
N3924 C3921 1.384 . S
N3925 C3917 1.427 . S
N3925 C3923 1.384 . S
H3926 C3932 0.930 . S
H3927 C3936 0.930 . S
H3928 C3941 0.929 . S
H3929 C3939 0.929 . S
H3930 C3934 0.929 . S
H3931 C3940 0.929 . S
C3932 H3926 0.930 . S
C3932 C3933 1.367 . S
C3932 C3940 1.378 . S
C3933 C3932 1.367 . S
C3933 C3941 1.433 . S
C3934 H3930 0.929 . S
C3934 C3936 1.378 . S
C3934 C3938 1.350 . S
C3935 C3938 1.463 . S
C3935 C3940 1.350 . S
C3935 N3943 1.427 . S
C3936 H3927 0.930 . S
C3936 C3934 1.378 . S
C3936 C3937 1.367 . S
C3937 C3936 1.367 . S
C3937 C3939 1.433 . S
C3938 C3934 1.350 . S
C3938 C3935 1.463 . S
C3938 N3942 1.427 . S
C3939 H3929 0.929 . S
C3939 C3937 1.433 . S
C3939 N3942 1.384 . S
C3940 H3931 0.929 . S
C3940 C3932 1.378 . S
C3940 C3935 1.350 . S
C3941 H3928 0.929 . S
C3941 C3933 1.433 . S
C3941 N3943 1.384 . S
N3942 C3938 1.427 . S
N3942 C3939 1.384 . S
N3943 C3935 1.427 . S
N3943 C3941 1.384 . S
H3944 C3950 0.930 . S
H3945 C3954 0.930 . S
H3946 C3959 0.929 . S
H3947 C3957 0.929 . S
H3948 C3952 0.929 . S
H3949 C3958 0.929 . S
C3950 H3944 0.930 . S
C3950 C3951 1.367 . S
C3950 C3958 1.378 . S
C3951 C3950 1.367 . S
C3951 C3959 1.433 . S
C3952 H3948 0.929 . S
C3952 C3954 1.378 . S
C3952 C3956 1.350 . S
C3953 C3956 1.463 . S
C3953 C3958 1.350 . S
C3953 N3961 1.427 . S
C3954 H3945 0.930 . S
C3954 C3952 1.378 . S
C3954 C3955 1.367 . S
C3955 C3954 1.367 . S
C3955 C3957 1.433 . S
C3956 C3952 1.350 . S
C3956 C3953 1.463 . S
C3956 N3960 1.427 . S
C3957 H3947 0.929 . S
C3957 C3955 1.433 . S
C3957 N3960 1.384 . S
C3958 H3949 0.929 . S
C3958 C3950 1.378 . S
C3958 C3953 1.350 . S
C3959 H3946 0.929 . S
C3959 C3951 1.433 . S
C3959 N3961 1.384 . S
N3960 C3956 1.427 . S
N3960 C3957 1.384 . S
N3961 C3953 1.427 . S
N3961 C3959 1.384 . S
H3962 C3968 0.930 . S
H3963 C3972 0.930 . S
H3964 C3977 0.929 . S
H3965 C3975 0.929 . S
H3966 C3970 0.929 . S
H3967 C3976 0.929 . S
C3968 H3962 0.930 . S
C3968 C3969 1.367 . S
C3968 C3976 1.378 . S
C3969 C3968 1.367 . S
C3969 C3977 1.433 . S
C3970 H3966 0.929 . S
C3970 C3972 1.378 . S
C3970 C3974 1.350 . S
C3971 C3974 1.463 . S
C3971 C3976 1.350 . S
C3971 N3979 1.427 . S
C3972 H3963 0.930 . S
C3972 C3970 1.378 . S
C3972 C3973 1.367 . S
C3973 C3972 1.367 . S
C3973 C3975 1.433 . S
C3974 C3970 1.350 . S
C3974 C3971 1.463 . S
C3974 N3978 1.427 . S
C3975 H3965 0.929 . S
C3975 C3973 1.433 . S
C3975 N3978 1.384 . S
C3976 H3967 0.929 . S
C3976 C3968 1.378 . S
C3976 C3971 1.350 . S
C3977 H3964 0.929 . S
C3977 C3969 1.433 . S
C3977 N3979 1.384 . S
N3978 C3974 1.427 . S
N3978 C3975 1.384 . S
N3979 C3971 1.427 . S
N3979 C3977 1.384 . S
H3980 C3986 0.930 . S
H3981 C3990 0.930 . S
H3982 C3995 0.929 . S
H3983 C3993 0.929 . S
H3984 C3988 0.929 . S
H3985 C3994 0.929 . S
C3986 H3980 0.930 . S
C3986 C3987 1.367 . S
C3986 C3994 1.378 . S
C3987 C3986 1.367 . S
C3987 C3995 1.433 . S
C3988 H3984 0.929 . S
C3988 C3990 1.378 . S
C3988 C3992 1.350 . S
C3989 C3992 1.463 . S
C3989 C3994 1.350 . S
C3989 N3997 1.427 . S
C3990 H3981 0.930 . S
C3990 C3988 1.378 . S
C3990 C3991 1.367 . S
C3991 C3990 1.367 . S
C3991 C3993 1.433 . S
C3992 C3988 1.350 . S
C3992 C3989 1.463 . S
C3992 N3996 1.427 . S
C3993 H3983 0.929 . S
C3993 C3991 1.433 . S
C3993 N3996 1.384 . S
C3994 H3985 0.929 . S
C3994 C3986 1.378 . S
C3994 C3989 1.350 . S
C3995 H3982 0.929 . S
C3995 C3987 1.433 . S
C3995 N3997 1.384 . S
N3996 C3992 1.427 . S
N3996 C3993 1.384 . S
N3997 C3989 1.427 . S
N3997 C3995 1.384 . S
H3998 C4004 0.930 . S
H3999 C4008 0.930 . S
H4000 C4013 0.929 . S
H4001 C4011 0.929 . S
H4002 C4006 0.929 . S
H4003 C4012 0.929 . S
C4004 H3998 0.930 . S
C4004 C4005 1.367 . S
C4004 C4012 1.378 . S
C4005 C4004 1.367 . S
C4005 C4013 1.433 . S
C4006 H4002 0.929 . S
C4006 C4008 1.378 . S
C4006 C4010 1.350 . S
C4007 C4010 1.463 . S
C4007 C4012 1.350 . S
C4007 N4015 1.427 . S
C4008 H3999 0.930 . S
C4008 C4006 1.378 . S
C4008 C4009 1.367 . S
C4009 C4008 1.367 . S
C4009 C4011 1.433 . S
C4010 C4006 1.350 . S
C4010 C4007 1.463 . S
C4010 N4014 1.427 . S
C4011 H4001 0.929 . S
C4011 C4009 1.433 . S
C4011 N4014 1.384 . S
C4012 H4003 0.929 . S
C4012 C4004 1.378 . S
C4012 C4007 1.350 . S
C4013 H4000 0.929 . S
C4013 C4005 1.433 . S
C4013 N4015 1.384 . S
N4014 C4010 1.427 . S
N4014 C4011 1.384 . S
N4015 C4007 1.427 . S
N4015 C4013 1.384 . S
H4016 C4022 0.930 . S
H4017 C4026 0.930 . S
H4018 C4031 0.929 . S
H4019 C4029 0.929 . S
H4020 C4024 0.929 . S
H4021 C4030 0.929 . S
C4022 H4016 0.930 . S
C4022 C4023 1.367 . S
C4022 C4030 1.378 . S
C4023 C4022 1.367 . S
C4023 C4031 1.433 . S
C4024 H4020 0.929 . S
C4024 C4026 1.378 . S
C4024 C4028 1.350 . S
C4025 C4028 1.463 . S
C4025 C4030 1.350 . S
C4025 N4033 1.427 . S
C4026 H4017 0.930 . S
C4026 C4024 1.378 . S
C4026 C4027 1.367 . S
C4027 C4026 1.367 . S
C4027 C4029 1.433 . S
C4028 C4024 1.350 . S
C4028 C4025 1.463 . S
C4028 N4032 1.427 . S
C4029 H4019 0.929 . S
C4029 C4027 1.433 . S
C4029 N4032 1.384 . S
C4030 H4021 0.929 . S
C4030 C4022 1.378 . S
C4030 C4025 1.350 . S
C4031 H4018 0.929 . S
C4031 C4023 1.433 . S
C4031 N4033 1.384 . S
N4032 C4028 1.427 . S
N4032 C4029 1.384 . S
N4033 C4025 1.427 . S
N4033 C4031 1.384 . S
H4034 C4040 0.930 . S
H4035 C4044 0.930 1_545 S
H4036 C4049 0.929 . S
H4037 C4047 0.929 . S
H4038 C4042 0.929 . S
H4039 C4048 0.929 . S
C4040 H4034 0.930 . S
C4040 C4041 1.367 . S
C4040 C4048 1.378 . S
C4041 C4040 1.367 . S
C4041 C4049 1.433 . S
C4042 H4038 0.929 . S
C4042 C4044 1.378 . S
C4042 C4046 1.350 . S
C4043 C4046 1.463 . S
C4043 C4048 1.350 . S
C4043 N4051 1.427 . S
C4044 H4035 0.930 1_565 S
C4044 C4042 1.378 . S
C4044 C4045 1.367 . S
C4045 C4044 1.367 . S
C4045 C4047 1.433 . S
C4046 C4042 1.350 . S
C4046 C4043 1.463 . S
C4046 N4050 1.427 . S
C4047 H4037 0.929 . S
C4047 C4045 1.433 . S
C4047 N4050 1.384 . S
C4048 H4039 0.929 . S
C4048 C4040 1.378 . S
C4048 C4043 1.350 . S
C4049 H4036 0.929 . S
C4049 C4041 1.433 . S
C4049 N4051 1.384 . S
N4050 C4046 1.427 . S
N4050 C4047 1.384 . S
N4051 C4043 1.427 . S
N4051 C4049 1.384 . S
H4052 C4058 0.930 . S
H4053 C4062 0.930 . S
H4054 C4067 0.929 . S
H4055 C4065 0.929 . S
H4056 C4060 0.929 . S
H4057 C4066 0.929 . S
C4058 H4052 0.930 . S
C4058 C4059 1.367 . S
C4058 C4066 1.378 . S
C4059 C4058 1.367 . S
C4059 C4067 1.433 . S
C4060 H4056 0.929 . S
C4060 C4062 1.378 . S
C4060 C4064 1.350 . S
C4061 C4064 1.463 . S
C4061 C4066 1.350 . S
C4061 N4069 1.427 . S
C4062 H4053 0.930 . S
C4062 C4060 1.378 . S
C4062 C4063 1.367 . S
C4063 C4062 1.367 . S
C4063 C4065 1.433 . S
C4064 C4060 1.350 . S
C4064 C4061 1.463 . S
C4064 N4068 1.427 . S
C4065 H4055 0.929 . S
C4065 C4063 1.433 . S
C4065 N4068 1.384 . S
C4066 H4057 0.929 . S
C4066 C4058 1.378 . S
C4066 C4061 1.350 . S
C4067 H4054 0.929 . S
C4067 C4059 1.433 . S
C4067 N4069 1.384 . S
N4068 C4064 1.427 . S
N4068 C4065 1.384 . S
N4069 C4061 1.427 . S
N4069 C4067 1.384 . S
H4070 C4076 0.926 1_556 S
H4071 C4080 0.930 . S
H4072 C4085 0.929 . S
H4073 C4083 0.929 . S
H4074 C4078 0.929 . S
H4075 C4084 0.929 . S
C4076 H4070 0.926 1_554 S
C4076 C4077 1.367 . S
C4076 C4084 1.378 . S
C4077 C4076 1.367 . S
C4077 C4085 1.433 . S
C4078 H4074 0.929 . S
C4078 C4080 1.378 . S
C4078 C4082 1.350 . S
C4079 C4082 1.463 . S
C4079 C4084 1.350 . S
C4079 N4087 1.427 . S
C4080 H4071 0.930 . S
C4080 C4078 1.378 . S
C4080 C4081 1.367 . S
C4081 C4080 1.367 . S
C4081 C4083 1.433 . S
C4082 C4078 1.350 . S
C4082 C4079 1.463 . S
C4082 N4086 1.427 . S
C4083 H4073 0.929 . S
C4083 C4081 1.433 . S
C4083 N4086 1.384 . S
C4084 H4075 0.929 . S
C4084 C4076 1.378 . S
C4084 C4079 1.350 . S
C4085 H4072 0.929 . S
C4085 C4077 1.433 . S
C4085 N4087 1.384 . S
N4086 C4082 1.427 . S
N4086 C4083 1.384 . S
N4087 C4079 1.427 . S
N4087 C4085 1.384 . S
H4088 C4094 0.930 . S
H4089 C4098 0.930 . S
H4090 C4103 0.929 . S
H4091 C4101 0.929 . S
H4092 C4096 0.929 . S
H4093 C4102 0.929 . S
C4094 H4088 0.930 . S
C4094 C4095 1.367 . S
C4094 C4102 1.378 . S
C4095 C4094 1.367 . S
C4095 C4103 1.433 . S
C4096 H4092 0.929 . S
C4096 C4098 1.378 . S
C4096 C4100 1.350 . S
C4097 C4100 1.463 . S
C4097 C4102 1.350 . S
C4097 N4105 1.427 . S
C4098 H4089 0.930 . S
C4098 C4096 1.378 . S
C4098 C4099 1.367 . S
C4099 C4098 1.367 . S
C4099 C4101 1.433 . S
C4100 C4096 1.350 . S
C4100 C4097 1.463 . S
C4100 N4104 1.427 . S
C4101 H4091 0.929 . S
C4101 C4099 1.433 . S
C4101 N4104 1.384 . S
C4102 H4093 0.929 . S
C4102 C4094 1.378 . S
C4102 C4097 1.350 . S
C4103 H4090 0.929 . S
C4103 C4095 1.433 . S
C4103 N4105 1.384 . S
N4104 C4100 1.427 . S
N4104 C4101 1.384 . S
N4105 C4097 1.427 . S
N4105 C4103 1.384 . S
H4106 C4112 0.930 . S
H4107 C4116 0.930 . S
H4108 C4121 0.929 . S
H4109 C4119 0.929 . S
H4110 C4114 0.929 . S
H4111 C4120 0.929 . S
C4112 H4106 0.930 . S
C4112 C4113 1.367 . S
C4112 C4120 1.378 . S
C4113 C4112 1.367 . S
C4113 C4121 1.433 . S
C4114 H4110 0.929 . S
C4114 C4116 1.378 . S
C4114 C4118 1.350 . S
C4115 C4118 1.463 . S
C4115 C4120 1.350 . S
C4115 N4123 1.427 . S
C4116 H4107 0.930 . S
C4116 C4114 1.378 . S
C4116 C4117 1.367 . S
C4117 C4116 1.367 . S
C4117 C4119 1.433 . S
C4118 C4114 1.350 . S
C4118 C4115 1.463 . S
C4118 N4122 1.427 . S
C4119 H4109 0.929 . S
C4119 C4117 1.433 . S
C4119 N4122 1.384 . S
C4120 H4111 0.929 . S
C4120 C4112 1.378 . S
C4120 C4115 1.350 . S
C4121 H4108 0.929 . S
C4121 C4113 1.433 . S
C4121 N4123 1.384 . S
N4122 C4118 1.427 . S
N4122 C4119 1.384 . S
N4123 C4115 1.427 . S
N4123 C4121 1.384 . S
H4124 C4130 0.930 . S
H4125 C4134 0.930 . S
H4126 C4139 0.929 . S
H4127 C4137 0.929 . S
H4128 C4132 0.929 . S
H4129 C4138 0.929 . S
C4130 H4124 0.930 . S
C4130 C4131 1.367 . S
C4130 C4138 1.378 . S
C4131 C4130 1.367 . S
C4131 C4139 1.433 . S
C4132 H4128 0.929 . S
C4132 C4134 1.378 . S
C4132 C4136 1.350 . S
C4133 C4136 1.463 . S
C4133 C4138 1.350 . S
C4133 N4141 1.427 . S
C4134 H4125 0.930 . S
C4134 C4132 1.378 . S
C4134 C4135 1.367 . S
C4135 C4134 1.367 . S
C4135 C4137 1.433 . S
C4136 C4132 1.350 . S
C4136 C4133 1.463 . S
C4136 N4140 1.427 . S
C4137 H4127 0.929 . S
C4137 C4135 1.433 . S
C4137 N4140 1.384 . S
C4138 H4129 0.929 . S
C4138 C4130 1.378 . S
C4138 C4133 1.350 . S
C4139 H4126 0.929 . S
C4139 C4131 1.433 . S
C4139 N4141 1.384 . S
N4140 C4136 1.427 . S
N4140 C4137 1.384 . S
N4141 C4133 1.427 . S
N4141 C4139 1.384 . S
H4142 C4148 0.930 . S
H4143 C4152 0.930 . S
H4144 C4157 0.929 . S
H4145 C4155 0.929 . S
H4146 C4150 0.929 . S
H4147 C4156 0.929 . S
C4148 H4142 0.930 . S
C4148 C4149 1.367 . S
C4148 C4156 1.378 . S
C4149 C4148 1.367 . S
C4149 C4157 1.433 . S
C4150 H4146 0.929 . S
C4150 C4152 1.378 . S
C4150 C4154 1.350 . S
C4151 C4154 1.463 . S
C4151 C4156 1.350 . S
C4151 N4159 1.427 . S
C4152 H4143 0.930 . S
C4152 C4150 1.378 . S
C4152 C4153 1.367 . S
C4153 C4152 1.367 . S
C4153 C4155 1.433 . S
C4154 C4150 1.350 . S
C4154 C4151 1.463 . S
C4154 N4158 1.427 . S
C4155 H4145 0.929 . S
C4155 C4153 1.433 . S
C4155 N4158 1.384 . S
C4156 H4147 0.929 . S
C4156 C4148 1.378 . S
C4156 C4151 1.350 . S
C4157 H4144 0.929 . S
C4157 C4149 1.433 . S
C4157 N4159 1.384 . S
N4158 C4154 1.427 . S
N4158 C4155 1.384 . S
N4159 C4151 1.427 . S
N4159 C4157 1.384 . S
C2439 C665 1.254 . S
C2443 C2116 1.134 . S
C2457 C381 1.430 . S
C2461 C2151 1.420 . S
C2475 C460 0.951 . S
C2479 C2156 0.893 . S
C2497 C2181 1.383 . S
C2493 C585 1.446 . S
C2511 C108 1.441 . S
C2515 C2201 1.399 . S
C2533 C2216 0.881 . S
C2529 C196 0.941 . S
C2551 C2251 1.413 . S
C2547 C313 1.437 . S
C2565 C49 1.258 . S
C2569 C2256 1.129 . S
C2587 C2131 1.379 1_655 S
C2583 C1457 1.431 . S
C2601 C1545 0.922 . S
C2605 C2141 0.895 . S
C2623 C2171 1.441 . S
C2619 C1721 1.461 . S
C2641 C2176 1.071 . S
C2637 C1113 1.151 . S
C2655 C1428 1.145 . S
C2659 C2196 1.054 . S
C2677 C2231 1.440 . S
C2673 C1516 1.461 . S
C2695 C2241 0.904 . S
C2691 C1692 0.912 . S
C2713 C2271 1.379 . S
C2709 C1085 1.434 . S
C2731 C2121 1.224 . S
C2727 C988 1.311 . S
C2745 C1817 1.741 . S
C2749 C2291 1.736 . S
C2767 C2301 1.390 . S
C2763 C2081 1.464 . S
C2785 C2316 0.880 . S
C2781 C1993 0.942 . S
C2799 C761 1.306 . S
C2803 C2261 1.203 . S
C2817 C821 1.465 . S
C2821 C2161 1.380 . S
C2835 C2053 1.748 . S
C2839 C2351 1.731 . S
C2857 C2356 0.881 . S
C2853 C1868 0.940 . S
C2875 C2114 1.112 . S
C2871 C372 1.255 . S
C2893 C2370 1.418 . S
C2889 C645 1.429 . S
C2907 C577 0.937 . S
C2911 C2154 0.881 . S
C2925 C497 1.442 . S
C2929 C2344 1.381 . S
C2947 C2204 1.395 . S
C2943 C57 1.438 . S
C2961 C293 0.941 . S
C2965 C2294 0.874 . S
C2983 C2250 1.409 . S
C2979 C205 1.432 . S
C3001 C2374 1.108 . S
C2997 C145 1.254 . S
C3019 C2130 1.367 . S
C3015 C909 1.429 . S
C3037 C2364 0.873 . S
C3033 C1956 0.912 . S
C3051 C724 1.457 . S
C3055 C2170 1.438 . S
C3069 C1780 1.147 . S
C3073 C2334 1.069 . S
C3087 C937 1.136 . S
C3091 C2194 1.060 . S
C3109 C2310 1.447 . S
C3105 C1985 1.449 . S
C3123 C753 0.918 . S
C3127 C2244 0.884 1_565 S
C3141 C1809 1.431 . S
C3145 C2390 1.375 . S
C3159 C1173 1.309 . S
C3163 C2124 1.220 . S
C3177 C1105 1.737 . S
C3181 C2290 1.732 . S
C3195 C1633 1.464 . S
C3199 C2224 1.380 . S
C3213 C1553 0.934 . S
C3217 C2314 0.889 . S
C3235 C2384 1.215 . S
C3231 C1729 1.315 . S
C3249 C1340 1.458 . S
C3253 C2164 1.381 . S
C3271 C2190 1.735 . S
C3267 C1604 1.738 . S
C3289 C2134 0.894 . S
C3285 C1252 0.944 . S
C3303 C489 1.256 . S
C3307 C2396 1.114 . S
C3325 C2371 1.413 . S
C3321 C557 1.436 . S
C3339 C636 0.951 . S
C3343 C2416 0.899 1_556 S
C3357 C409 1.445 . S
C3361 C2341 1.384 . S
C3375 C284 1.447 . S
C3379 C2281 1.388 . S
C3397 C2296 0.911 . S
C3393 C20 0.949 . S
C3415 C2331 1.421 . S
C3411 C137 1.434 . S
C3433 C2376 1.138 . S
C3429 C225 1.257 . S
C3451 C2411 1.383 . S
C3447 C1641 1.433 . S
C3465 C1193 0.909 . S
C3469 C2361 0.895 . S
C3487 C2431 1.442 . S
C3483 C1289 1.462 . S
C3505 C2336 1.055 . S
C3501 C1377 1.146 . S
C3523 C2276 1.053 . S
C3519 C1613 1.143 . S
C3537 C1164 1.455 . S
C3541 C2311 1.451 . S
C3559 C2321 0.901 . S
C3555 C1261 0.921 . S
C3573 C1349 1.434 . S
C3577 C2391 1.375 . S
C3595 C2401 1.206 . S
C3591 C1965 1.305 . S
C3609 C849 1.747 . S
C3613 C2211 1.735 . S
C3631 C2221 1.377 . S
C3627 C929 1.465 . S
C3649 C2236 0.907 . S
C3645 C1017 0.948 . S
C3667 C2381 1.204 . S
C3663 C1897 1.306 . S
C3681 C1789 1.464 . S
C3685 C2421 1.390 . S
C3703 C2191 1.739 . S
C3699 C900 1.743 . S
C3721 C2136 0.914 . S
C3717 C733 0.943 . S
C3735 C548 1.254 . S
C3739 C2394 1.134 . S
C3757 C2150 1.420 . S
C3753 C469 1.426 . S
C3771 C401 0.947 . S
C3775 C2414 0.887 . S
C3789 C673 1.442 . S
C3793 C2184 1.392 . S
C3807 C233 1.439 . S
C3811 C2284 1.396 . S
C3829 C2214 0.905 . S
C3825 C117 0.938 . S
C3843 C29 1.426 . S
C3847 C2330 1.420 . S
C3861 C321 1.256 . S
C3865 C2254 1.118 . S
C3883 C2410 1.382 . S
C3879 C2044 1.430 . S
C3897 C997 0.912 . S
C3901 C2144 0.902 . S
C3919 C2430 1.438 1_655 S
C3915 C1877 1.455 . S
C3933 C812 1.138 . S
C3937 C2174 1.073 . S
C3951 C2073 1.147 . S
C3955 C2274 1.071 . S
C3973 C2230 1.437 . S
C3969 C1025 1.456 . S
C3987 C1905 0.907 . S
C3991 C2324 0.878 . S
C4009 C2270 1.369 . S
C4005 C841 1.431 . S
C4027 C2404 1.208 . S
C4023 C1525 1.309 . S
C4045 C2210 1.741 . S
C4041 C1369 1.736 . S
C4059 C1465 1.463 . S
C4063 C2304 1.371 . S
C4081 C2234 0.893 . S
C4077 C1201 0.944 . S
C4095 C1281 1.305 . S
C4099 C2264 1.202 . S
C4113 C1076 1.462 . S
C4117 C2424 1.369 . S
C4135 C2350 1.736 . S
C4131 C1437 1.737 . S
C4153 C2354 0.889 . S
C4149 C1701 0.939 . S
