# Generated by pormake.
# Topology pth, (4,4)-cn, num edge types: 1
# Building blocks:
#     Node 0, Type 0, BuildingBlock: QUQFOY_clean_sbu_3, # of connection points: 4
#     Node 1, Type 0, BuildingBlock: QUQFOY_clean_sbu_3, # of connection points: 4
#     Node 2, Type 0, BuildingBlock: QUQFOY_clean_sbu_3, # of connection points: 4
#     Node 3, Type 1, BuildingBlock: KOZSID_clean_sbu_0, # of connection points: 4
#     Node 4, Type 1, BuildingBlock: KOZSID_clean_sbu_0, # of connection points: 4
#     Node 5, Type 1, BuildingBlock: KOZSID_clean_sbu_0, # of connection points: 4
#     Edge 6, Type (0, 1), BuildingBlock: XIVTED_clean_linker_0, # of connection points: 2
#     Edge 7, Type (0, 1), BuildingBlock: XIVTED_clean_linker_0, # of connection points: 2
#     Edge 8, Type (0, 1), BuildingBlock: XIVTED_clean_linker_0, # of connection points: 2
#     Edge 9, Type (0, 1), BuildingBlock: XIVTED_clean_linker_0, # of connection points: 2
#     Edge 10, Type (0, 1), BuildingBlock: XIVTED_clean_linker_0, # of connection points: 2
#     Edge 11, Type (0, 1), BuildingBlock: XIVTED_clean_linker_0, # of connection points: 2
#     Edge 12, Type (0, 1), BuildingBlock: XIVTED_clean_linker_0, # of connection points: 2
#     Edge 13, Type (0, 1), BuildingBlock: XIVTED_clean_linker_0, # of connection points: 2
#     Edge 14, Type (0, 1), BuildingBlock: XIVTED_clean_linker_0, # of connection points: 2
#     Edge 15, Type (0, 1), BuildingBlock: XIVTED_clean_linker_0, # of connection points: 2
#     Edge 16, Type (0, 1), BuildingBlock: XIVTED_clean_linker_0, # of connection points: 2
#     Edge 17, Type (0, 1), BuildingBlock: XIVTED_clean_linker_0, # of connection points: 2
# Relax obj value: 0.008
# Max RMSD: 0.067
# Mean RMSD: 0.043
data_MOF--net-pth--node1-QUQFOY_clean_sbu_3--node2-KOZSID_clean_sbu_0--edge1-XIVTED_clean_linker_0
_symmetry_space_group_name_H-M    P1
_symmetry_Int_Tables_number       1
_symmetry_cell_setting            triclinic
loop_
_symmetry_equiv_pos_as_xyz
'x, y, z'
_cell_length_a     27.015151
_cell_length_b     26.776028
_cell_length_c     63.198931
_cell_angle_alpha  87.343695
_cell_angle_beta   88.704483
_cell_angle_gamma 120.8626
loop_
_atom_site_label
_atom_site_type_symbol
_atom_site_fract_x
_atom_site_fract_y
_atom_site_fract_z
_atom_type_partial_charge
C0 C 0.01243 0.1527 0.0528 0.0
O1 O 0.98291 0.144 0.03656 0.0
Cd2 Cd 0.98074 0.08373 0.00921 0.0
O3 O 0.04074 0.12706 0.0557 0.0
Cd4 Cd 0.0576 0.05604 0.0381 0.0
C5 C 0.12596 0.1525 -0.00378 0.0
O6 O 0.96095 0.99236 0.02564 0.0
O7 O 0.02923 0.9817 0.0126 0.0
O8 O 0.04807 0.01004 0.07321 0.0
C9 C 0.97574 0.96353 0.01445 0.0
O10 O 0.07579 0.13876 0.99057 0.0
C11 C 0.09241 0.00563 0.07081 0.0
O12 O 0.13248 0.13167 0.01375 0.0
O13 O 0.12217 0.02693 0.0534 0.0
C14 C 0.14573 0.124 0.39055 0.0
O15 O 0.17318 0.16589 0.3766 0.0
Cd16 Cd 0.12602 0.17351 0.34603 0.0
O17 O 0.09133 0.09023 0.39002 0.0
Cd18 Cd 0.00982 0.08087 0.36992 0.0
C19 C 0.05877 0.03043 0.3324 0.0
O20 O 0.04581 0.18217 0.35764 0.0
O21 O 0.97489 0.11617 0.34115 0.0
O22 O 0.96646 0.0783 0.40412 0.0
C23 C 0.00773 0.16973 0.34415 0.0
O24 O 0.09813 0.08363 0.32836 0.0
C25 C 0.91687 0.03514 0.40111 0.0
O26 O 0.02092 0.0159 0.3475 0.0
O27 O 0.91049 0.01158 0.38358 0.0
C28 C 0.95588 0.08633 0.67949 0.0
O29 O 0.95852 0.1131 0.69587 0.0
Cd30 Cd 0.02476 0.12872 0.72322 0.0
O31 O 0.9901 0.06759 0.67656 0.0
Cd32 Cd 0.06799 0.06607 0.69565 0.0
C33 C 0.9768 0.9859 0.73693 0.0
O34 O 0.12165 0.16358 0.70975 0.0
O35 O 0.13435 0.0959 0.72362 0.0
O36 O 0.12353 0.08863 0.66206 0.0
C37 C 0.14995 0.14938 0.7219 0.0
O38 O 0.98455 0.03435 0.74256 0.0
C39 C 0.1339 0.04761 0.66457 0.0
O40 O -0.00199 0.9828 0.71917 0.0
O41 O 0.11118 0.01335 0.68109 0.0
C42 C 0.1335 0.68878 0.17147 0.0
C43 C 0.19096 0.72825 0.16531 0.0
C44 C 0.22314 0.71224 0.17689 0.0
C45 C 0.18376 0.6644 0.18948 0.0
N46 N 0.1282 0.64814 0.18643 0.0
Co47 Co 0.05733 0.58373 0.20252 0.0
N48 N 0.10518 0.5654 0.22155 0.0
C49 C 0.16343 0.59143 0.22058 0.0
C50 C 0.184 0.56835 0.23525 0.0
C51 C 0.1361 0.52477 0.24626 0.0
C52 C 0.08877 0.52404 0.23772 0.0
N53 N 0.98641 0.51974 0.21871 0.0
C54 C 0.9813 0.48336 0.23537 0.0
C55 C 0.92395 0.44584 0.24219 0.0
C56 C 0.89156 0.45826 0.22917 0.0
C57 C 0.93076 0.50269 0.21528 0.0
N58 N 0.00954 0.60207 0.18348 0.0
C59 C 0.95122 0.57373 0.18342 0.0
C60 C 0.93108 0.5972 0.16868 0.0
C61 C 0.97936 0.64399 0.15901 0.0
C62 C 0.02629 0.64648 0.16856 0.0
N63 N 0.05392 0.52678 0.18258 0.0
C64 C 0.04798 0.4456 0.15431 0.0
C65 C -0.00144 0.44606 0.16083 0.0
C66 C 0.00246 0.48648 0.17483 0.0
C67 C 0.1005 0.48622 0.1623 0.0
C68 C 0.10248 0.52614 0.17626 0.0
N69 N 0.06052 0.6404 0.22231 0.0
C70 C 0.01312 0.68291 0.24064 0.0
C71 C 0.06507 0.72424 0.24872 0.0
C72 C 0.11471 0.72246 0.2436 0.0
C73 C 0.11143 0.68025 0.23053 0.0
C74 C 0.01184 0.64182 0.22759 0.0
H75 H 0.15062 0.68093 0.22714 0.0
H76 H 0.97106 0.61217 0.22172 0.0
H77 H 0.96302 0.48382 0.17915 0.0
H78 H 0.1438 0.55598 0.18168 0.0
C79 C 0.19774 0.63693 0.20551 0.0
C80 C 0.08567 0.6936 0.16369 0.0
C81 C 0.02915 0.48198 0.24502 0.0
C82 C 0.91662 0.52857 0.19864 0.0
H83 H 0.20813 0.76583 0.15411 0.0
H84 H 0.26977 0.73426 0.17676 0.0
H85 H 0.2285 0.5812 0.2375 0.0
H86 H 0.13626 0.49632 0.25893 0.0
H87 H 0.90722 0.41262 0.25517 0.0
H88 H 0.84496 0.43716 0.22968 0.0
H89 H 0.88659 0.58326 0.16585 0.0
H90 H 0.97998 0.67392 0.14675 0.0
H91 H 0.95664 0.41476 0.15539 0.0
H92 H 0.14013 0.48784 0.15758 0.0
H93 H 0.97364 0.68302 0.24393 0.0
H94 H 0.15585 0.75328 0.2497 0.0
C95 C 0.4208 0.97749 0.56804 0.0
C96 C 0.37499 0.92654 0.57788 0.0
C97 C 0.37343 0.88132 0.56825 0.0
C98 C 0.41795 0.90697 0.55312 0.0
N99 N 0.44824 0.96594 0.55255 0.0
Co100 Co 0.51572 0.02041 0.53264 0.0
N101 N 0.51067 0.9537 0.51763 0.0
C102 C 0.47017 0.89657 0.52117 0.0
C103 C 0.47836 0.86082 0.5086 0.0
C104 C 0.52739 0.89718 0.49641 0.0
C105 C 0.54622 0.95329 0.50225 0.0
N106 N 0.58466 0.07473 0.51326 0.0
C107 C 0.61387 0.06263 0.49868 0.0
C108 C 0.66077 0.11311 0.48913 0.0
C109 C 0.66205 0.15878 0.49836 0.0
C110 C 0.61604 0.13369 0.51291 0.0
N111 N 0.51964 0.08728 0.54719 0.0
C112 C 0.5571 0.14482 0.5424 0.0
C113 C 0.5477 0.18047 0.5546 0.0
C114 C 0.50089 0.14361 0.56775 0.0
C115 C 0.4843 0.08737 0.56275 0.0
N116 N 0.56859 0.01606 0.55287 0.0
C117 C 0.64654 0.01198 0.58048 0.0
C118 C 0.65618 0.06501 0.57171 0.0
C119 C 0.61667 0.0661 0.55827 0.0
C120 C 0.59705 0.96072 0.57553 0.0
C121 C 0.55903 0.96369 0.56152 0.0
N122 N 0.46278 0.02537 0.51242 0.0
C123 C 0.44155 0.08398 0.48842 0.0
C124 C 0.38447 0.03864 0.48743 0.0
C125 C 0.36806 0.98523 0.4983 0.0
C126 C 0.40782 0.97941 0.51042 0.0
C127 C 0.47929 0.07664 0.50093 0.0
H128 H 0.39274 0.93766 0.51831 0.0
H129 H 0.52131 0.11376 0.50121 0.0
H130 H 0.62615 0.10807 0.55242 0.0
H131 H 0.52243 0.92328 0.55782 0.0
C132 C 0.42896 0.87724 0.53796 0.0
C133 C 0.434 0.03563 0.57295 0.0
C134 C 0.59992 0.00428 0.49377 0.0
C135 C 0.60099 0.1641 0.5265 0.0
H136 H 0.34452 0.92219 0.59027 0.0
H137 H 0.34222 0.83531 0.57138 0.0
H138 H 0.45308 0.81369 0.5089 0.0
H139 H 0.54782 0.88358 0.48499 0.0
H140 H 0.69131 0.1165 0.47693 0.0
H141 H 0.6932 0.20473 0.49504 0.0
H142 H 0.57179 0.22766 0.55391 0.0
H143 H 0.48085 0.15662 0.57957 0.0
H144 H 0.69387 0.10568 0.57544 0.0
H145 H 0.58828 0.91874 0.58216 0.0
H146 H 0.45743 0.12556 0.47964 0.0
H147 H 0.32445 0.9484 0.49793 0.0
C148 C 0.68569 0.59268 0.83739 0.0
C149 C 0.72846 0.58132 0.83128 0.0
C150 C 0.71626 0.53098 0.84231 0.0
C151 C 0.66717 0.51473 0.85454 0.0
N152 N 0.64678 0.55127 0.85186 0.0
Co153 Co 0.57829 0.54587 0.86738 0.0
N154 N 0.56148 0.47271 0.88408 0.0
C155 C 0.59051 0.44412 0.88245 0.0
C156 C 0.56738 0.39374 0.89525 0.0
C157 C 0.52038 0.38948 0.90557 0.0
C158 C 0.51781 0.43798 0.89853 0.0
N159 N 0.51077 0.54138 0.88324 0.0
C160 C 0.47316 0.50119 0.89828 0.0
C161 C 0.43346 0.5154 0.90575 0.0
C162 C 0.4457 0.56576 0.89472 0.0
C163 C 0.49221 0.57963 0.88134 0.0
N164 N 0.59416 0.61813 0.85033 0.0
C165 C 0.56305 0.64476 0.85099 0.0
C166 C 0.58387 0.69284 0.83709 0.0
C167 C 0.63139 0.69754 0.82702 0.0
C168 C 0.63701 0.65205 0.83554 0.0
N169 N 0.52692 0.49782 0.84537 0.0
C170 C 0.45163 0.42758 0.81502 0.0
C171 C 0.44573 0.4715 0.82357 0.0
C172 C 0.48352 0.50581 0.83854 0.0
C173 C 0.49647 0.42001 0.82169 0.0
C174 C 0.53324 0.45526 0.83676 0.0
N175 N 0.62952 0.59398 0.88939 0.0
C176 C 0.6645 0.67697 0.91076 0.0
C177 C 0.70233 0.66325 0.92046 0.0
C178 C 0.70315 0.6142 0.91434 0.0
C179 C 0.6666 0.58039 0.89891 0.0
C180 C 0.6289 0.64215 0.89542 0.0
H181 H 0.66923 0.54359 0.89492 0.0
H182 H 0.60159 0.65546 0.88857 0.0
H183 H 0.47617 0.53801 0.84453 0.0
H184 H 0.56617 0.44693 0.84128 0.0
C185 C 0.63933 0.46559 0.86873 0.0
C186 C 0.68499 0.64432 0.8296 0.0
C187 C 0.47211 0.44816 0.90553 0.0
C188 C 0.51701 0.62607 0.8659 0.0
H189 H 0.76513 0.6071 0.8202 0.0
H190 H 0.74064 0.50917 0.84168 0.0
H191 H 0.58251 0.36339 0.89671 0.0
H192 H 0.491 0.35419 0.91681 0.0
H193 H 0.39866 0.49133 0.9177 0.0
H194 H 0.42271 0.58887 0.896 0.0
H195 H 0.56727 0.72181 0.83488 0.0
H196 H 0.65938 0.73126 0.81503 0.0
H197 H 0.4112 0.4786 0.81916 0.0
H198 H 0.50334 0.38706 0.81531 0.0
H199 H 0.66305 0.71519 0.91465 0.0
H200 H 0.7315 0.60159 0.92152 0.0
H201 H 0.95821 0.21561 0.05183 0.0
H202 H 0.10255 0.38287 0.15553 0.0
H203 H 0.0743 0.18521 0.08855 0.0
H204 H 0.98484 0.41096 0.119 0.0
H205 H 0.09356 0.31086 0.13105 0.0
H206 H 0.96711 0.28691 0.07648 0.0
C207 C 0.98544 0.22375 0.06511 0.0
C208 C 0.01561 0.19436 0.06808 0.0
C209 C 0.06971 0.3328 0.12839 0.0
C210 C 0.0262 0.27629 0.09636 0.0
C211 C 0.07514 0.37418 0.14228 0.0
C212 C 0.0443 0.40289 0.13934 0.0
C213 C 0.03333 0.32014 0.11139 0.0
C214 C 0.00878 0.3893 0.12206 0.0
C215 C 0.99057 0.26458 0.07917 0.0
C216 C 0.05025 0.2068 0.0856 0.0
N217 N 0.00429 0.34895 0.10876 0.0
N218 N 0.05467 0.24689 0.09904 0.0
H219 H 0.92188 0.06164 0.44239 0.0
H220 H 0.59209 0.96997 0.45333 0.0
H221 H 0.80111 0.96868 0.39497 0.0
H222 H 0.704 0.0238 0.50559 0.0
H223 H 0.66663 0.96563 0.43191 0.0
H224 H 0.8416 0.04397 0.46631 0.0
C225 C 0.87831 0.03685 0.43712 0.0
C226 C 0.8681 0.01705 0.41662 0.0
C227 C 0.67465 0.97766 0.44814 0.0
C228 C 0.77602 0.99744 0.44378 0.0
C229 C 0.63225 0.98015 0.46028 0.0
C230 C 0.6424 0.99714 0.48111 0.0
C231 C 0.72768 0.99319 0.45688 0.0
C232 C 0.69498 0.01053 0.48952 0.0
C233 C 0.83246 0.02674 0.45078 0.0
C234 C 0.81081 0.98483 0.41065 0.0
N235 N 0.73595 0.00874 0.47731 0.0
N236 N 0.76689 0.97675 0.42407 0.0
H237 H 0.92703 0.87131 0.72742 0.0
H238 H 0.76497 0.75006 0.84226 0.0
H239 H 0.94494 0.97981 0.77862 0.0
H240 H 0.71727 0.64562 0.78819 0.0
H241 H 0.84305 0.83173 0.82036 0.0
H242 H 0.86152 0.78493 0.75071 0.0
C243 C 0.91764 0.87694 0.74359 0.0
C244 C 0.94098 0.93285 0.75103 0.0
C245 C 0.81587 0.79088 0.81327 0.0
C246 C 0.8665 0.83458 0.77766 0.0
C247 C 0.7716 0.74448 0.82576 0.0
C248 C 0.73517 0.69171 0.81685 0.0
C249 C 0.8235 0.78429 0.79172 0.0
C250 C 0.7449 0.68599 0.79548 0.0
C251 C 0.88016 0.8277 0.75683 0.0
C252 C 0.92742 0.93762 0.77212 0.0
N253 N 0.78814 0.73198 0.78354 0.0
N254 N 0.89097 0.88919 0.78465 0.0
H255 H 0.16651 0.96527 0.06608 0.0
H256 H 0.06055 0.77373 0.17668 0.0
H257 H 0.04577 0.96784 0.11128 0.0
H258 H 0.13442 0.73425 0.12357 0.0
H259 H 0.07262 0.8594 0.15588 0.0
H260 H 0.1742 0.89587 0.09034 0.0
C261 C 0.14241 0.95204 0.08126 0.0
C262 C 0.10489 0.97174 0.08659 0.0
C263 C 0.08672 0.83234 0.14885 0.0
C264 C 0.11332 0.89241 0.11428 0.0
C265 C 0.07985 0.78371 0.16067 0.0
C266 C 0.09672 0.74753 0.15171 0.0
C267 C 0.11073 0.8447 0.12796 0.0
C268 C 0.12132 0.76165 0.13097 0.0
C269 C 0.14655 0.91219 0.09502 0.0
C270 C 0.07471 0.95321 0.10646 0.0
N271 N 0.12755 0.80921 0.11973 0.0
N272 N 0.07928 0.91425 0.11954 0.0
H273 H 0.25084 0.20056 0.40542 0.0
H274 H 0.29541 0.96101 0.46395 0.0
H275 H 0.11299 0.02038 0.41237 0.0
H276 H 0.37868 0.13786 0.48313 0.0
H277 H 0.23278 0.98094 0.4422 0.0
H278 H 0.30496 0.17828 0.43089 0.0
C279 C 0.2319 0.15642 0.41238 0.0
C280 C 0.17741 0.11225 0.40683 0.0
C281 C 0.26467 0.0151 0.45131 0.0
C282 C 0.23928 0.08638 0.43559 0.0
C283 C 0.3003 0.00376 0.4638 0.0
C284 C 0.34319 0.04804 0.47519 0.0
C285 C 0.2726 0.07125 0.44998 0.0
C286 C 0.34762 0.10281 0.47414 0.0
C287 C 0.26265 0.14379 0.42694 0.0
C288 C 0.15477 0.05576 0.41633 0.0
N289 N 0.31334 0.11305 0.46156 0.0
N290 N 0.18615 0.04422 0.43008 0.0
H291 H 0.21292 0.12746 0.74972 0.0
H292 H 0.40296 0.45626 0.78245 0.0
H293 H 0.19304 0.26723 0.72311 0.0
H294 H 0.40484 0.30993 0.81325 0.0
H295 H 0.33078 0.38991 0.75894 0.0
H296 H 0.28839 0.19604 0.7713 0.0
C297 C 0.22448 0.17271 0.74839 0.0
C298 C 0.19644 0.19163 0.73465 0.0
C299 C 0.34718 0.37245 0.77081 0.0
C300 C 0.2832 0.27067 0.75941 0.0
C301 C 0.3882 0.41022 0.7843 0.0
C302 C 0.41 0.38865 0.7999 0.0
C303 C 0.32788 0.31271 0.77293 0.0
C304 C 0.38997 0.32873 0.8013 0.0
C305 C 0.26765 0.2119 0.76076 0.0
C306 C 0.21346 0.25082 0.73356 0.0
N307 N 0.35001 0.29294 0.78804 0.0
N308 N 0.25579 0.28835 0.74583 0.0
H309 H 0.95416 0.05933 0.63819 0.0
H310 H 0.63108 0.98418 0.62303 0.0
H311 H 0.85382 0.0827 0.68658 0.0
H312 H 0.75707 0.04183 0.57064 0.0
H313 H 0.70631 -0.00079 0.64756 0.0
H314 H 0.87636 0.03398 0.61393 0.0
C315 C 0.91582 0.05921 0.64369 0.0
C316 C 0.91056 0.07353 0.66437 0.0
C317 C 0.71723 0.0079 0.63067 0.0
C318 C 0.82124 0.0434 0.63692 0.0
C319 C 0.67437 -0.00119 0.61674 0.0
C320 C 0.68831 0.01162 0.59494 0.0
C321 C 0.77393 0.02918 0.62258 0.0
C322 C 0.74498 0.03133 0.58742 0.0
C323 C 0.87155 0.04473 0.62986 0.0
C324 C 0.85989 0.07254 0.6707 0.0
N325 N 0.78588 0.03951 0.60124 0.0
N326 N 0.81698 0.05735 0.65706 0.0
H327 H 0.85886 0.9171 0.01422 0.0
H328 H 0.81625 0.6984 0.92478 0.0
H329 H -0.0034 0.89809 0.9878 0.0
H330 H 0.67775 0.71439 0.95235 0.0
H331 H 0.88167 0.76647 0.94949 0.0
H332 H 0.79065 0.83861 -0.00679 0.0
C333 C 0.87471 0.89626 0.00406 0.0
C334 C 0.93353 0.91443 0.00263 0.0
C335 C 0.83688 0.75483 0.95022 0.0
C336 C 0.85581 0.82466 0.97852 0.0
C337 C 0.79942 0.71567 0.9362 0.0
C338 C 0.74152 0.70102 0.93638 0.0
C339 C 0.81635 0.77961 0.96452 0.0
C340 C 0.7223 0.7253 0.95138 0.0
C341 C 0.83575 0.85142 -0.00792 0.0
C342 C 0.95165 0.88569 0.98929 0.0
N343 N 0.75967 0.76361 0.96476 0.0
N344 N 0.91298 0.84245 0.97767 0.0
H345 H 0.98157 0.91268 0.33614 0.0
H346 H 0.14669 0.84081 0.24682 0.0
H347 H 0.13614 0.04419 0.30052 0.0
H348 H 0.98791 0.71089 0.28052 0.0
H349 H 0.14594 0.91565 0.26736 0.0
H350 H 0.98452 0.83794 0.31644 0.0
C351 C 0.01604 0.92592 0.32414 0.0
C352 C 0.05866 0.98488 0.31999 0.0
C353 C 0.11133 0.87074 0.27029 0.0
C354 C 0.06246 0.89935 0.29744 0.0
C355 C 0.11199 0.82796 0.25869 0.0
C356 C 0.06718 0.76957 0.26192 0.0
C357 C 0.06561 0.85499 0.28526 0.0
C358 C 0.02289 0.7555 0.27731 0.0
C359 C 0.01776 0.88315 0.31291 0.0
C360 C 0.10231 -0.00068 0.30425 0.0
N361 N 0.02318 0.79789 0.28837 0.0
N362 N 0.10312 0.95685 0.29357 0.0
H363 H 0.17624 0.10318 0.62522 0.0
H364 H 0.41274 0.01033 0.61566 0.0
H365 H 0.18542 0.98347 0.67082 0.0
H366 H 0.36205 0.07409 0.56155 0.0
H367 H 0.33773 0.01195 0.63778 0.0
H368 H 0.25102 0.10263 0.60277 0.0
C369 C 0.19365 0.07642 0.63042 0.0
C370 C 0.17459 0.04325 0.64989 0.0
C371 C 0.34308 0.02571 0.62108 0.0
C372 C 0.2607 0.04336 0.62454 0.0
C373 C 0.38595 0.02512 0.60857 0.0
C374 C 0.39283 0.04175 0.58688 0.0
C375 C 0.30761 0.04387 0.61182 0.0
C376 C 0.35762 0.06089 0.57828 0.0
C377 C 0.23633 0.07622 0.61763 0.0
C378 C 0.19868 0.00946 0.65588 0.0
N379 N 0.31634 0.06142 0.59079 0.0
N380 N 0.24087 0.01078 0.64333 0.0
H381 H 0.12826 0.1953 0.95582 0.0
H382 H 0.47011 0.41508 0.9472 0.0
H383 H 0.24022 0.20469 0.00516 0.0
H384 H 0.36158 0.37976 0.89433 0.0
H385 H 0.38601 0.34102 0.96939 0.0
H386 H 0.21289 0.26589 0.9336 0.0
C387 C 0.17065 0.21212 0.96199 0.0
C388 C 0.17711 0.19406 0.98242 0.0
C389 C 0.38059 0.34924 0.95291 0.0
C390 C 0.27427 0.27517 0.95704 0.0
C391 C 0.42842 0.39133 0.94034 0.0
C392 C 0.42223 0.40283 0.91904 0.0
C393 C 0.32633 0.3191 0.94409 0.0
C394 C 0.36766 0.37169 0.91074 0.0
C395 C 0.21898 0.25237 0.94926 0.0
C396 C 0.23318 0.21729 0.98951 0.0
N397 N 0.32165 0.33127 0.92331 0.0
N398 N 0.2796 0.25686 0.97687 0.0
H399 H 0.06414 0.28688 0.34945 0.0
H400 H 0.97998 0.36677 0.23857 0.0
H401 H 0.94549 0.15656 0.30921 0.0
H402 H 0.05194 0.4891 0.28703 0.0
H403 H 0.96825 0.28895 0.26398 0.0
H404 H 0.06257 0.36227 0.32655 0.0
C405 C 0.03762 0.27414 0.33584 0.0
C406 C 0.00521 0.21547 0.33112 0.0
C407 C 0.98608 0.33266 0.26915 0.0
C408 C 0.00344 0.30132 0.30486 0.0
C409 C 0.99267 0.37683 0.25469 0.0
C410 C 0.01719 0.43398 0.26084 0.0
C411 C 0.00493 0.34612 0.28979 0.0
C412 C 0.03317 0.44536 0.28179 0.0
C413 C 0.03655 0.31712 0.32284 0.0
C414 C 0.9713 0.2013 0.31338 0.0
N415 N 0.0274 0.40186 0.29551 0.0
N416 N 0.97172 0.244 0.30078 0.0
loop_
_geom_bond_atom_site_label_1
_geom_bond_atom_site_label_2
_geom_bond_distance
_geom_bond_site_symmetry_2
_ccdc_geom_bond_type
C0 O1 1.306 . S
C0 O3 1.160 . S
O1 C0 1.306 . S
O1 Cd2 2.228 . S
Cd2 O1 2.228 . S
Cd2 O6 2.273 1_455 S
Cd2 O10 2.277 . S
O3 C0 1.160 . S
O3 Cd4 2.203 . S
Cd4 O3 2.203 . S
Cd4 O6 2.411 1_455 S
Cd4 O7 2.333 1_545 S
Cd4 O8 2.352 1_545 S
Cd4 O12 2.277 . S
Cd4 O13 2.356 1_545 S
C5 O10 1.209 . S
C5 O12 1.226 . S
O6 Cd2 2.273 1_655 S
O6 Cd4 2.411 1_655 S
O6 C9 1.320 1_545 S
O7 Cd4 2.333 1_565 S
O7 C9 1.214 1_455 S
O8 Cd4 2.352 1_565 S
O8 C11 1.258 . S
C9 O6 1.320 1_565 S
C9 O7 1.214 1_655 S
O10 Cd2 2.277 . S
O10 C5 1.209 . S
C11 O8 1.258 . S
C11 O13 1.282 . S
O12 Cd4 2.277 . S
O12 C5 1.226 . S
O13 Cd4 2.356 1_565 S
O13 C11 1.282 . S
C14 O15 1.306 . S
C14 O17 1.160 . S
O15 C14 1.306 . S
O15 Cd16 2.228 . S
Cd16 O15 2.228 . S
Cd16 O20 2.273 . S
Cd16 O24 2.277 . S
O17 C14 1.160 . S
O17 Cd18 2.203 . S
Cd18 O17 2.203 . S
Cd18 O20 2.411 . S
Cd18 O21 2.333 1_455 S
Cd18 O22 2.352 1_455 S
Cd18 O26 2.277 1_445 S
Cd18 O27 2.356 1_455 S
C19 O24 1.209 1_565 S
C19 O26 1.226 1_455 S
O20 Cd16 2.273 . S
O20 Cd18 2.411 . S
O20 C23 1.320 . S
O21 Cd18 2.333 1_655 S
O21 C23 1.214 1_655 S
O22 Cd18 2.352 1_655 S
O22 C25 1.258 . S
C23 O20 1.320 . S
C23 O21 1.214 1_455 S
O24 Cd16 2.277 . S
O24 C19 1.209 1_545 S
C25 O22 1.258 . S
C25 O27 1.282 . S
O26 Cd18 2.277 1_665 S
O26 C19 1.226 1_655 S
O27 Cd18 2.356 1_655 S
O27 C25 1.282 . S
C28 O29 1.306 . S
C28 O31 1.160 1_655 S
O29 C28 1.306 . S
O29 Cd30 2.228 1_655 S
Cd30 O29 2.228 1_455 S
Cd30 O34 2.273 . S
Cd30 O38 2.277 1_455 S
O31 C28 1.160 1_455 S
O31 Cd32 2.203 . S
Cd32 O31 2.203 . S
Cd32 O34 2.411 . S
Cd32 O35 2.333 . S
Cd32 O36 2.352 . S
Cd32 O40 2.277 1_545 S
Cd32 O41 2.352 1_545 S
C33 O38 1.209 1_565 S
C33 O40 1.226 1_655 S
O34 Cd30 2.273 . S
O34 Cd32 2.411 . S
O34 C37 1.320 . S
O35 Cd32 2.333 . S
O35 C37 1.214 . S
O36 Cd32 2.352 . S
O36 C39 1.258 . S
C37 O34 1.320 . S
C37 O35 1.214 . S
O38 Cd30 2.277 1_655 S
O38 C33 1.209 1_545 S
C39 O36 1.258 . S
C39 O41 1.279 1_545 S
O40 Cd32 2.277 1_565 S
O40 C33 1.226 1_455 S
O41 Cd32 2.352 1_565 S
O41 C39 1.279 1_565 S
C42 C43 1.443 . S
C42 N46 1.376 . S
C42 C80 1.389 . S
C43 C42 1.443 . S
C43 C44 1.340 . S
C43 H83 0.951 . S
C44 C43 1.340 . S
C44 C45 1.439 . S
C44 H84 0.950 . S
C45 C44 1.439 . S
C45 N46 1.374 . S
C45 C79 1.395 . S
N46 C42 1.376 . S
N46 C45 1.374 . S
N46 Co47 2.008 . S
Co47 N46 2.008 . S
Co47 N48 1.995 . S
Co47 N53 2.008 1_455 S
Co47 N58 1.995 1_455 S
Co47 N63 2.282 . S
Co47 N69 2.282 . S
N48 Co47 1.995 . S
N48 C49 1.376 . S
N48 C52 1.383 . S
C49 N48 1.376 . S
C49 C50 1.446 . S
C49 C79 1.391 . S
C50 C49 1.446 . S
C50 C51 1.339 . S
C50 H85 0.949 . S
C51 C50 1.339 . S
C51 C52 1.439 . S
C51 H86 0.950 . S
C52 N48 1.383 . S
C52 C51 1.439 . S
C52 C81 1.392 . S
N53 Co47 2.008 1_655 S
N53 C54 1.376 . S
N53 C57 1.374 . S
C54 N53 1.376 . S
C54 C55 1.443 . S
C54 C81 1.389 1_655 S
C55 C54 1.443 . S
C55 C56 1.340 . S
C55 H87 0.951 . S
C56 C55 1.340 . S
C56 C57 1.439 . S
C56 H88 0.950 . S
C57 N53 1.374 . S
C57 C56 1.439 . S
C57 C82 1.395 . S
N58 Co47 1.995 1_655 S
N58 C59 1.376 . S
N58 C62 1.383 1_655 S
C59 N58 1.376 . S
C59 C60 1.446 . S
C59 C82 1.391 . S
C60 C59 1.446 . S
C60 C61 1.339 . S
C60 H89 0.949 . S
C61 C60 1.339 . S
C61 C62 1.439 1_655 S
C61 H90 0.950 . S
C62 N58 1.383 1_455 S
C62 C61 1.439 1_455 S
C62 C80 1.392 . S
N63 Co47 2.282 . S
N63 C66 1.332 . S
N63 C68 1.332 . S
C64 C65 1.386 . S
C64 C67 1.388 . S
C65 C64 1.386 . S
C65 C66 1.382 . S
C65 H91 0.950 1_455 S
C66 N63 1.332 . S
C66 C65 1.382 . S
C66 H77 0.952 1_455 S
C67 C64 1.388 . S
C67 C68 1.382 . S
C67 H92 0.950 . S
C68 N63 1.332 . S
C68 C67 1.382 . S
C68 H78 0.948 . S
N69 Co47 2.282 . S
N69 C73 1.332 . S
N69 C74 1.332 1_455 S
C70 C71 1.388 1_655 S
C70 C74 1.382 . S
C70 H93 0.950 . S
C71 C70 1.388 1_455 S
C71 C72 1.386 . S
C72 C71 1.386 . S
C72 C73 1.382 . S
C72 H94 0.950 . S
C73 N69 1.332 . S
C73 C72 1.382 . S
C73 H75 0.952 . S
C74 N69 1.332 1_655 S
C74 C70 1.382 . S
C74 H76 0.948 . S
H75 C73 0.952 . S
H76 C74 0.948 . S
H77 C66 0.952 1_655 S
H78 C68 0.948 . S
C79 C45 1.395 . S
C79 C49 1.391 . S
C80 C42 1.389 . S
C80 C62 1.392 . S
C81 C52 1.392 . S
C81 C54 1.389 1_455 S
C82 C57 1.395 . S
C82 C59 1.391 . S
H83 C43 0.951 . S
H84 C44 0.950 . S
H85 C50 0.949 . S
H86 C51 0.950 . S
H87 C55 0.951 . S
H88 C56 0.950 . S
H89 C60 0.949 . S
H90 C61 0.950 . S
H91 C65 0.950 1_655 S
H92 C67 0.950 . S
H93 C70 0.950 . S
H94 C72 0.950 . S
C95 C96 1.443 1_545 S
C95 N99 1.376 . S
C95 C133 1.389 . S
C96 C95 1.443 1_565 S
C96 C97 1.340 . S
C96 H136 0.951 . S
C97 C96 1.340 . S
C97 C98 1.439 . S
C97 H137 0.950 . S
C98 C97 1.439 . S
C98 N99 1.374 1_565 S
C98 C132 1.395 . S
N99 C95 1.376 . S
N99 C98 1.374 1_545 S
N99 Co100 2.008 . S
Co100 N99 2.008 . S
Co100 N101 1.995 . S
Co100 N106 2.008 . S
Co100 N111 1.995 . S
Co100 N116 2.282 . S
Co100 N122 2.282 . S
N101 Co100 1.995 . S
N101 C102 1.376 1_545 S
N101 C105 1.383 . S
C102 N101 1.376 1_565 S
C102 C103 1.446 . S
C102 C132 1.391 . S
C103 C102 1.446 . S
C103 C104 1.339 . S
C103 H138 0.949 . S
C104 C103 1.339 . S
C104 C105 1.439 1_565 S
C104 H139 0.950 . S
C105 N101 1.383 . S
C105 C104 1.439 1_545 S
C105 C134 1.392 . S
N106 Co100 2.008 . S
N106 C107 1.376 . S
N106 C110 1.374 . S
C107 N106 1.376 . S
C107 C108 1.443 . S
C107 C134 1.389 . S
C108 C107 1.443 . S
C108 C109 1.340 . S
C108 H140 0.951 . S
C109 C108 1.340 . S
C109 C110 1.439 . S
C109 H141 0.950 . S
C110 N106 1.374 . S
C110 C109 1.439 . S
C110 C135 1.395 . S
N111 Co100 1.995 . S
N111 C112 1.376 . S
N111 C115 1.383 . S
C112 N111 1.376 . S
C112 C113 1.446 . S
C112 C135 1.391 . S
C113 C112 1.446 . S
C113 C114 1.339 . S
C113 H142 0.949 . S
C114 C113 1.339 . S
C114 C115 1.439 . S
C114 H143 0.950 . S
C115 N111 1.383 . S
C115 C114 1.439 . S
C115 C133 1.392 . S
N116 Co100 2.282 . S
N116 C119 1.332 . S
N116 C121 1.332 . S
C117 C118 1.386 . S
C117 C120 1.388 . S
C118 C117 1.386 . S
C118 C119 1.382 . S
C118 H144 0.950 . S
C119 N116 1.332 . S
C119 C118 1.382 . S
C119 H130 0.952 . S
C120 C117 1.388 . S
C120 C121 1.382 . S
C120 H145 0.950 1_545 S
C121 N116 1.332 . S
C121 C120 1.382 . S
C121 H131 0.948 1_545 S
N122 Co100 2.282 . S
N122 C126 1.332 . S
N122 C127 1.332 . S
C123 C124 1.388 . S
C123 C127 1.382 . S
C123 H146 0.950 . S
C124 C123 1.388 . S
C124 C125 1.386 . S
C125 C124 1.386 . S
C125 C126 1.382 . S
C125 H147 0.950 1_545 S
C126 N122 1.332 . S
C126 C125 1.382 . S
C126 H128 0.952 1_545 S
C127 N122 1.332 . S
C127 C123 1.382 . S
C127 H129 0.948 . S
H128 C126 0.952 1_565 S
H129 C127 0.948 . S
H130 C119 0.952 . S
H131 C121 0.948 1_565 S
C132 C98 1.395 . S
C132 C102 1.391 . S
C133 C95 1.389 . S
C133 C115 1.392 . S
C134 C105 1.392 . S
C134 C107 1.389 . S
C135 C110 1.395 . S
C135 C112 1.391 . S
H136 C96 0.951 . S
H137 C97 0.950 . S
H138 C103 0.949 . S
H139 C104 0.950 . S
H140 C108 0.951 . S
H141 C109 0.950 . S
H142 C113 0.949 . S
H143 C114 0.950 . S
H144 C118 0.950 . S
H145 C120 0.950 1_565 S
H146 C123 0.950 . S
H147 C125 0.950 1_565 S
C148 C149 1.443 . S
C148 N152 1.376 . S
C148 C186 1.389 . S
C149 C148 1.443 . S
C149 C150 1.340 . S
C149 H189 0.951 . S
C150 C149 1.340 . S
C150 C151 1.439 . S
C150 H190 0.950 . S
C151 C150 1.439 . S
C151 N152 1.374 . S
C151 C185 1.395 . S
N152 C148 1.376 . S
N152 C151 1.374 . S
N152 Co153 2.008 . S
Co153 N152 2.008 . S
Co153 N154 1.995 . S
Co153 N159 2.008 . S
Co153 N164 1.995 . S
Co153 N169 2.282 . S
Co153 N175 2.282 . S
N154 Co153 1.995 . S
N154 C155 1.376 . S
N154 C158 1.383 . S
C155 N154 1.376 . S
C155 C156 1.446 . S
C155 C185 1.391 . S
C156 C155 1.446 . S
C156 C157 1.339 . S
C156 H191 0.949 . S
C157 C156 1.339 . S
C157 C158 1.439 . S
C157 H192 0.950 . S
C158 N154 1.383 . S
C158 C157 1.439 . S
C158 C187 1.392 . S
N159 Co153 2.008 . S
N159 C160 1.376 . S
N159 C163 1.374 . S
C160 N159 1.376 . S
C160 C161 1.443 . S
C160 C187 1.389 . S
C161 C160 1.443 . S
C161 C162 1.340 . S
C161 H193 0.951 . S
C162 C161 1.340 . S
C162 C163 1.439 . S
C162 H194 0.950 . S
C163 N159 1.374 . S
C163 C162 1.439 . S
C163 C188 1.395 . S
N164 Co153 1.995 . S
N164 C165 1.376 . S
N164 C168 1.383 . S
C165 N164 1.376 . S
C165 C166 1.446 . S
C165 C188 1.391 . S
C166 C165 1.446 . S
C166 C167 1.339 . S
C166 H195 0.949 . S
C167 C166 1.339 . S
C167 C168 1.439 . S
C167 H196 0.950 . S
C168 N164 1.383 . S
C168 C167 1.439 . S
C168 C186 1.392 . S
N169 Co153 2.282 . S
N169 C172 1.332 . S
N169 C174 1.332 . S
C170 C171 1.386 . S
C170 C173 1.388 . S
C171 C170 1.386 . S
C171 C172 1.382 . S
C171 H197 0.950 . S
C172 N169 1.332 . S
C172 C171 1.382 . S
C172 H183 0.952 . S
C173 C170 1.388 . S
C173 C174 1.382 . S
C173 H198 0.950 . S
C174 N169 1.332 . S
C174 C173 1.382 . S
C174 H184 0.948 . S
N175 Co153 2.282 . S
N175 C179 1.332 . S
N175 C180 1.332 . S
C176 C177 1.388 . S
C176 C180 1.382 . S
C176 H199 0.950 . S
C177 C176 1.388 . S
C177 C178 1.386 . S
C178 C177 1.386 . S
C178 C179 1.382 . S
C178 H200 0.950 . S
C179 N175 1.332 . S
C179 C178 1.382 . S
C179 H181 0.952 . S
C180 N175 1.332 . S
C180 C176 1.382 . S
C180 H182 0.948 . S
H181 C179 0.952 . S
H182 C180 0.948 . S
H183 C172 0.952 . S
H184 C174 0.948 . S
C185 C151 1.395 . S
C185 C155 1.391 . S
C186 C148 1.389 . S
C186 C168 1.392 . S
C187 C158 1.392 . S
C187 C160 1.389 . S
C188 C163 1.395 . S
C188 C165 1.391 . S
H189 C149 0.951 . S
H190 C150 0.950 . S
H191 C156 0.949 . S
H192 C157 0.950 . S
H193 C161 0.951 . S
H194 C162 0.950 . S
H195 C166 0.949 . S
H196 C167 0.950 . S
H197 C171 0.950 . S
H198 C173 0.950 . S
H199 C176 0.950 . S
H200 C178 0.950 . S
H201 C207 0.930 . S
H202 C211 0.930 . S
H203 C216 0.929 . S
H204 C214 0.929 . S
H205 C209 0.929 . S
H206 C215 0.929 . S
C207 H201 0.930 . S
C207 C208 1.367 . S
C207 C215 1.378 . S
C208 C207 1.367 . S
C208 C216 1.433 . S
C209 H205 0.929 . S
C209 C211 1.378 . S
C209 C213 1.350 . S
C210 C213 1.463 . S
C210 C215 1.350 . S
C210 N218 1.427 . S
C211 H202 0.930 . S
C211 C209 1.378 . S
C211 C212 1.367 . S
C212 C211 1.367 . S
C212 C214 1.433 . S
C213 C209 1.350 . S
C213 C210 1.463 . S
C213 N217 1.427 . S
C214 H204 0.929 . S
C214 C212 1.433 . S
C214 N217 1.384 . S
C215 H206 0.929 . S
C215 C207 1.378 . S
C215 C210 1.350 . S
C216 H203 0.929 . S
C216 C208 1.433 . S
C216 N218 1.384 . S
N217 C213 1.427 . S
N217 C214 1.384 . S
N218 C210 1.427 . S
N218 C216 1.384 . S
H219 C225 0.930 . S
H220 C229 0.930 . S
H221 C234 0.929 . S
H222 C232 0.929 . S
H223 C227 0.929 . S
H224 C233 0.929 . S
C225 H219 0.930 . S
C225 C226 1.367 . S
C225 C233 1.378 . S
C226 C225 1.367 . S
C226 C234 1.433 . S
C227 H223 0.929 . S
C227 C229 1.378 . S
C227 C231 1.350 . S
C228 C231 1.463 . S
C228 C233 1.350 . S
C228 N236 1.427 . S
C229 H220 0.930 . S
C229 C227 1.378 . S
C229 C230 1.367 . S
C230 C229 1.367 . S
C230 C232 1.433 . S
C231 C227 1.350 . S
C231 C228 1.463 . S
C231 N235 1.427 . S
C232 H222 0.929 . S
C232 C230 1.433 . S
C232 N235 1.384 . S
C233 H224 0.929 . S
C233 C225 1.378 . S
C233 C228 1.350 . S
C234 H221 0.929 . S
C234 C226 1.433 . S
C234 N236 1.384 . S
N235 C231 1.427 . S
N235 C232 1.384 . S
N236 C228 1.427 . S
N236 C234 1.384 . S
H237 C243 0.930 . S
H238 C247 0.930 . S
H239 C252 0.929 . S
H240 C250 0.929 . S
H241 C245 0.929 . S
H242 C251 0.929 . S
C243 H237 0.930 . S
C243 C244 1.367 . S
C243 C251 1.378 . S
C244 C243 1.367 . S
C244 C252 1.433 . S
C245 H241 0.929 . S
C245 C247 1.378 . S
C245 C249 1.350 . S
C246 C249 1.463 . S
C246 C251 1.350 . S
C246 N254 1.427 . S
C247 H238 0.930 . S
C247 C245 1.378 . S
C247 C248 1.367 . S
C248 C247 1.367 . S
C248 C250 1.433 . S
C249 C245 1.350 . S
C249 C246 1.463 . S
C249 N253 1.427 . S
C250 H240 0.929 . S
C250 C248 1.433 . S
C250 N253 1.384 . S
C251 H242 0.929 . S
C251 C243 1.378 . S
C251 C246 1.350 . S
C252 H239 0.929 . S
C252 C244 1.433 . S
C252 N254 1.384 . S
N253 C249 1.427 . S
N253 C250 1.384 . S
N254 C246 1.427 . S
N254 C252 1.384 . S
H255 C261 0.930 . S
H256 C265 0.930 . S
H257 C270 0.929 . S
H258 C268 0.929 . S
H259 C263 0.929 . S
H260 C269 0.929 . S
C261 H255 0.930 . S
C261 C262 1.367 . S
C261 C269 1.378 . S
C262 C261 1.367 . S
C262 C270 1.433 . S
C263 H259 0.929 . S
C263 C265 1.378 . S
C263 C267 1.350 . S
C264 C267 1.463 . S
C264 C269 1.350 . S
C264 N272 1.427 . S
C265 H256 0.930 . S
C265 C263 1.378 . S
C265 C266 1.367 . S
C266 C265 1.367 . S
C266 C268 1.433 . S
C267 C263 1.350 . S
C267 C264 1.463 . S
C267 N271 1.427 . S
C268 H258 0.929 . S
C268 C266 1.433 . S
C268 N271 1.384 . S
C269 H260 0.929 . S
C269 C261 1.378 . S
C269 C264 1.350 . S
C270 H257 0.929 . S
C270 C262 1.433 . S
C270 N272 1.384 . S
N271 C267 1.427 . S
N271 C268 1.384 . S
N272 C264 1.427 . S
N272 C270 1.384 . S
H273 C279 0.930 . S
H274 C283 0.930 . S
H275 C288 0.929 . S
H276 C286 0.929 . S
H277 C281 0.929 . S
H278 C287 0.929 . S
C279 H273 0.930 . S
C279 C280 1.367 . S
C279 C287 1.378 . S
C280 C279 1.367 . S
C280 C288 1.433 . S
C281 H277 0.929 . S
C281 C283 1.378 . S
C281 C285 1.350 . S
C282 C285 1.463 . S
C282 C287 1.350 . S
C282 N290 1.427 . S
C283 H274 0.930 . S
C283 C281 1.378 . S
C283 C284 1.367 . S
C284 C283 1.367 . S
C284 C286 1.433 . S
C285 C281 1.350 . S
C285 C282 1.463 . S
C285 N289 1.427 . S
C286 H276 0.929 . S
C286 C284 1.433 . S
C286 N289 1.384 . S
C287 H278 0.929 . S
C287 C279 1.378 . S
C287 C282 1.350 . S
C288 H275 0.929 . S
C288 C280 1.433 . S
C288 N290 1.384 . S
N289 C285 1.427 . S
N289 C286 1.384 . S
N290 C282 1.427 . S
N290 C288 1.384 . S
H291 C297 0.930 . S
H292 C301 0.930 . S
H293 C306 0.929 . S
H294 C304 0.929 . S
H295 C299 0.929 . S
H296 C305 0.929 . S
C297 H291 0.930 . S
C297 C298 1.367 . S
C297 C305 1.378 . S
C298 C297 1.367 . S
C298 C306 1.433 . S
C299 H295 0.929 . S
C299 C301 1.378 . S
C299 C303 1.350 . S
C300 C303 1.463 . S
C300 C305 1.350 . S
C300 N308 1.427 . S
C301 H292 0.930 . S
C301 C299 1.378 . S
C301 C302 1.367 . S
C302 C301 1.367 . S
C302 C304 1.433 . S
C303 C299 1.350 . S
C303 C300 1.463 . S
C303 N307 1.427 . S
C304 H294 0.929 . S
C304 C302 1.433 . S
C304 N307 1.384 . S
C305 H296 0.929 . S
C305 C297 1.378 . S
C305 C300 1.350 . S
C306 H293 0.929 . S
C306 C298 1.433 . S
C306 N308 1.384 . S
N307 C303 1.427 . S
N307 C304 1.384 . S
N308 C300 1.427 . S
N308 C306 1.384 . S
H309 C315 0.930 1_455 S
H310 C319 0.930 . S
H311 C324 0.929 1_565 S
H312 C322 0.929 . S
H313 C317 0.935 . S
H314 C323 0.929 . S
C315 H309 0.930 1_655 S
C315 C316 1.367 . S
C315 C323 1.378 . S
C316 C315 1.367 . S
C316 C324 1.433 . S
C317 H313 0.935 . S
C317 C319 1.378 . S
C317 C321 1.350 . S
C318 C321 1.463 . S
C318 C323 1.350 . S
C318 N326 1.427 . S
C319 H310 0.930 . S
C319 C317 1.378 . S
C319 C320 1.367 . S
C320 C319 1.367 . S
C320 C322 1.433 . S
C321 C317 1.350 . S
C321 C318 1.463 . S
C321 N325 1.427 . S
C322 H312 0.929 . S
C322 C320 1.433 . S
C322 N325 1.384 . S
C323 H314 0.929 . S
C323 C315 1.378 . S
C323 C318 1.350 . S
C324 H311 0.929 1_545 S
C324 C316 1.433 . S
C324 N326 1.384 . S
N325 C321 1.427 . S
N325 C322 1.384 . S
N326 C318 1.427 . S
N326 C324 1.384 . S
H327 C333 0.930 . S
H328 C337 0.930 . S
H329 C342 0.929 1_545 S
H330 C340 0.929 . S
H331 C335 0.929 . S
H332 C341 0.929 1_554 S
C333 H327 0.930 . S
C333 C334 1.367 . S
C333 C341 1.378 1_554 S
C334 C333 1.367 . S
C334 C342 1.433 1_554 S
C335 H331 0.929 . S
C335 C337 1.378 . S
C335 C339 1.350 . S
C336 C339 1.463 . S
C336 C341 1.350 . S
C336 N344 1.427 . S
C337 H328 0.930 . S
C337 C335 1.378 . S
C337 C338 1.367 . S
C338 C337 1.367 . S
C338 C340 1.433 . S
C339 C335 1.350 . S
C339 C336 1.463 . S
C339 N343 1.427 . S
C340 H330 0.929 . S
C340 C338 1.433 . S
C340 N343 1.384 . S
C341 H332 0.929 1_556 S
C341 C333 1.378 1_556 S
C341 C336 1.350 . S
C342 H329 0.929 1_565 S
C342 C334 1.433 1_556 S
C342 N344 1.384 . S
N343 C339 1.427 . S
N343 C340 1.384 . S
N344 C336 1.427 . S
N344 C342 1.384 . S
H345 C351 0.930 . S
H346 C355 0.930 . S
H347 C360 0.929 . S
H348 C358 0.929 . S
H349 C353 0.929 . S
H350 C359 0.929 . S
C351 H345 0.930 . S
C351 C352 1.367 . S
C351 C359 1.378 . S
C352 C351 1.367 . S
C352 C360 1.433 . S
C353 H349 0.929 . S
C353 C355 1.378 . S
C353 C357 1.350 . S
C354 C357 1.463 . S
C354 C359 1.350 . S
C354 N362 1.427 . S
C355 H346 0.930 . S
C355 C353 1.378 . S
C355 C356 1.367 . S
C356 C355 1.367 . S
C356 C358 1.433 . S
C357 C353 1.350 . S
C357 C354 1.463 . S
C357 N361 1.427 . S
C358 H348 0.929 . S
C358 C356 1.433 . S
C358 N361 1.384 . S
C359 H350 0.929 . S
C359 C351 1.378 . S
C359 C354 1.350 . S
C360 H347 0.929 . S
C360 C352 1.433 . S
C360 N362 1.384 . S
N361 C357 1.427 . S
N361 C358 1.384 . S
N362 C354 1.427 . S
N362 C360 1.384 . S
H363 C369 0.930 . S
H364 C373 0.930 . S
H365 C378 0.929 . S
H366 C376 0.929 . S
H367 C371 0.929 . S
H368 C377 0.929 . S
C369 H363 0.930 . S
C369 C370 1.367 . S
C369 C377 1.378 . S
C370 C369 1.367 . S
C370 C378 1.433 . S
C371 H367 0.929 . S
C371 C373 1.378 . S
C371 C375 1.350 . S
C372 C375 1.463 . S
C372 C377 1.350 . S
C372 N380 1.427 . S
C373 H364 0.930 . S
C373 C371 1.378 . S
C373 C374 1.367 . S
C374 C373 1.367 . S
C374 C376 1.433 . S
C375 C371 1.350 . S
C375 C372 1.463 . S
C375 N379 1.427 . S
C376 H366 0.929 . S
C376 C374 1.433 . S
C376 N379 1.384 . S
C377 H368 0.929 . S
C377 C369 1.378 . S
C377 C372 1.350 . S
C378 H365 0.929 . S
C378 C370 1.433 . S
C378 N380 1.384 . S
N379 C375 1.427 . S
N379 C376 1.384 . S
N380 C372 1.427 . S
N380 C378 1.384 . S
H381 C387 0.930 . S
H382 C391 0.930 . S
H383 C396 0.929 . S
H384 C394 0.929 . S
H385 C389 0.929 . S
H386 C395 0.929 . S
C387 H381 0.930 . S
C387 C388 1.367 . S
C387 C395 1.378 . S
C388 C387 1.367 . S
C388 C396 1.433 1_556 S
C389 H385 0.929 . S
C389 C391 1.378 . S
C389 C393 1.350 . S
C390 C393 1.463 . S
C390 C395 1.350 . S
C390 N398 1.427 . S
C391 H382 0.930 . S
C391 C389 1.378 . S
C391 C392 1.367 . S
C392 C391 1.367 . S
C392 C394 1.433 . S
C393 C389 1.350 . S
C393 C390 1.463 . S
C393 N397 1.427 . S
C394 H384 0.929 . S
C394 C392 1.433 . S
C394 N397 1.384 . S
C395 H386 0.929 . S
C395 C387 1.378 . S
C395 C390 1.350 . S
C396 H383 0.929 . S
C396 C388 1.433 1_554 S
C396 N398 1.384 1_554 S
N397 C393 1.427 . S
N397 C394 1.384 . S
N398 C390 1.427 . S
N398 C396 1.384 1_556 S
H399 C405 0.930 . S
H400 C409 0.930 . S
H401 C414 0.929 . S
H402 C412 0.929 . S
H403 C407 0.929 . S
H404 C413 0.929 . S
C405 H399 0.930 . S
C405 C406 1.367 . S
C405 C413 1.378 . S
C406 C405 1.367 . S
C406 C414 1.433 . S
C407 H403 0.929 . S
C407 C409 1.378 . S
C407 C411 1.350 . S
C408 C411 1.463 . S
C408 C413 1.350 . S
C408 N416 1.427 . S
C409 H400 0.930 . S
C409 C407 1.378 . S
C409 C410 1.367 . S
C410 C409 1.367 . S
C410 C412 1.433 . S
C411 C407 1.350 . S
C411 C408 1.463 . S
C411 N415 1.427 . S
C412 H402 0.929 . S
C412 C410 1.433 . S
C412 N415 1.384 . S
C413 H404 0.929 . S
C413 C405 1.378 . S
C413 C408 1.350 . S
C414 H401 0.929 . S
C414 C406 1.433 . S
C414 N416 1.384 . S
N415 C411 1.427 . S
N415 C412 1.384 . S
N416 C408 1.427 . S
N416 C414 1.384 . S
C212 C64 1.455 . S
C208 C0 1.448 . S
C226 C25 1.492 . S
C230 C134 1.490 . S
C244 C33 1.506 . S
C248 C186 1.507 . S
C262 C11 1.442 . S
C266 C80 1.444 . S
C284 C124 1.484 . S
C280 C14 1.482 . S
C298 C37 1.498 . S
C302 C170 1.503 . S
C320 C117 1.483 . S
C316 C28 1.481 . S
C334 C9 1.496 . S
C338 C177 1.505 . S
C356 C71 1.532 . S
C352 C19 1.530 . S
C374 C133 1.489 . S
C370 C39 1.491 . S
C392 C187 1.506 . S
C388 C5 1.507 1_556 S
C406 C23 1.542 . S
C410 C81 1.552 . S
