# Generated by pormake.
# Topology zzz, (3,6)-cn, num edge types: 1
# Building blocks:
#     Node 0, Type 0, BuildingBlock: OLANEW_clean_sbu_2, # of connection points: 3
#     Node 1, Type 0, BuildingBlock: OLANEW_clean_sbu_2, # of connection points: 3
#     Node 2, Type 0, BuildingBlock: OLANEW_clean_sbu_2, # of connection points: 3
#     Node 3, Type 0, BuildingBlock: OLANEW_clean_sbu_2, # of connection points: 3
#     Node 4, Type 0, BuildingBlock: OLANEW_clean_sbu_2, # of connection points: 3
#     Node 5, Type 0, BuildingBlock: OLANEW_clean_sbu_2, # of connection points: 3
#     Node 6, Type 0, BuildingBlock: OLANEW_clean_sbu_2, # of connection points: 3
#     Node 7, Type 0, BuildingBlock: OLANEW_clean_sbu_2, # of connection points: 3
#     Node 8, Type 1, BuildingBlock: GEDQOX_clean_sbu_0, # of connection points: 6
#     Node 9, Type 1, BuildingBlock: GEDQOX_clean_sbu_0, # of connection points: 6
#     Node 10, Type 1, BuildingBlock: GEDQOX_clean_sbu_0, # of connection points: 6
#     Node 11, Type 1, BuildingBlock: GEDQOX_clean_sbu_0, # of connection points: 6
#     Edge 12, Type (0, 1), BuildingBlock: CIFDUS_clean_linker_0, # of connection points: 2
#     Edge 13, Type (0, 1), BuildingBlock: CIFDUS_clean_linker_0, # of connection points: 2
#     Edge 14, Type (0, 1), BuildingBlock: CIFDUS_clean_linker_0, # of connection points: 2
#     Edge 15, Type (0, 1), BuildingBlock: CIFDUS_clean_linker_0, # of connection points: 2
#     Edge 16, Type (0, 1), BuildingBlock: CIFDUS_clean_linker_0, # of connection points: 2
#     Edge 17, Type (0, 1), BuildingBlock: CIFDUS_clean_linker_0, # of connection points: 2
#     Edge 18, Type (0, 1), BuildingBlock: CIFDUS_clean_linker_0, # of connection points: 2
#     Edge 19, Type (0, 1), BuildingBlock: CIFDUS_clean_linker_0, # of connection points: 2
#     Edge 20, Type (0, 1), BuildingBlock: CIFDUS_clean_linker_0, # of connection points: 2
#     Edge 21, Type (0, 1), BuildingBlock: CIFDUS_clean_linker_0, # of connection points: 2
#     Edge 22, Type (0, 1), BuildingBlock: CIFDUS_clean_linker_0, # of connection points: 2
#     Edge 23, Type (0, 1), BuildingBlock: CIFDUS_clean_linker_0, # of connection points: 2
#     Edge 24, Type (0, 1), BuildingBlock: CIFDUS_clean_linker_0, # of connection points: 2
#     Edge 25, Type (0, 1), BuildingBlock: CIFDUS_clean_linker_0, # of connection points: 2
#     Edge 26, Type (0, 1), BuildingBlock: CIFDUS_clean_linker_0, # of connection points: 2
#     Edge 27, Type (0, 1), BuildingBlock: CIFDUS_clean_linker_0, # of connection points: 2
#     Edge 28, Type (0, 1), BuildingBlock: CIFDUS_clean_linker_0, # of connection points: 2
#     Edge 29, Type (0, 1), BuildingBlock: CIFDUS_clean_linker_0, # of connection points: 2
#     Edge 30, Type (0, 1), BuildingBlock: CIFDUS_clean_linker_0, # of connection points: 2
#     Edge 31, Type (0, 1), BuildingBlock: CIFDUS_clean_linker_0, # of connection points: 2
#     Edge 32, Type (0, 1), BuildingBlock: CIFDUS_clean_linker_0, # of connection points: 2
#     Edge 33, Type (0, 1), BuildingBlock: CIFDUS_clean_linker_0, # of connection points: 2
#     Edge 34, Type (0, 1), BuildingBlock: CIFDUS_clean_linker_0, # of connection points: 2
#     Edge 35, Type (0, 1), BuildingBlock: CIFDUS_clean_linker_0, # of connection points: 2
# Relax obj value: 0.148
# Max RMSD: 0.238
# Mean RMSD: 0.096
data_MOF--net-zzz--node1-OLANEW_clean_sbu_2--node2-GEDQOX_clean_sbu_0--edge1-CIFDUS_clean_linker_0
_symmetry_space_group_name_H-M    P1
_symmetry_Int_Tables_number       1
_symmetry_cell_setting            triclinic
loop_
_symmetry_equiv_pos_as_xyz
'x, y, z'
_cell_length_a     51.233803
_cell_length_b     50.014069
_cell_length_c     17.368666
_cell_angle_alpha  81.133683
_cell_angle_beta   89.536159
_cell_angle_gamma 101.79802
loop_
_atom_site_label
_atom_site_type_symbol
_atom_site_fract_x
_atom_site_fract_y
_atom_site_fract_z
_atom_type_partial_charge
O0 O 0.81411 0.52566 0.79741 0.0
Cd1 Cd 0.78175 0.5562 0.77856 0.0
O2 O 0.82606 0.54419 0.90138 0.0
Cd3 Cd 0.85449 0.55367 0.99148 0.0
O4 O 0.88296 0.56016 0.08287 0.0
C5 C 0.90797 0.56714 0.06783 0.0
O6 O 0.91699 0.57066 0.99514 0.0
C7 C 0.82963 0.52822 0.85378 0.0
C8 C 0.72753 0.53758 0.82203 0.0
O9 O 0.73666 0.53505 0.75514 0.0
O10 O 0.74427 0.5475 0.87013 0.0
O11 O 0.99855 0.79651 0.93614 0.0
Cd12 Cd 0.98025 0.74899 0.99881 0.0
O13 O 0.99257 0.80198 0.05685 0.0
Cd14 Cd 0.98976 0.82676 0.14816 0.0
O15 O 0.99031 0.85527 0.23095 0.0
C16 C 0.98607 0.87937 0.20871 0.0
O17 O 0.98088 0.88664 0.1354 0.0
C18 C 0.99991 0.81253 0.98672 0.0
C19 C 1.0018 0.70617 0.95749 0.0
O20 O 0.98071 0.71215 0.92624 0.0
O21 O 0.0134 0.72123 0.0058 0.0
O22 O 0.74988 0.00581 0.86819 0.0
Cd23 Cd 0.7841 0.97802 0.89731 0.0
O24 O 0.73771 0.99982 0.99193 0.0
Cd25 Cd 0.70902 0.99766 0.08777 0.0
O26 O 0.67995 0.99463 0.1829 0.0
C27 C 0.67524 0.97327 0.23515 0.0
O28 O 0.68803 0.95328 0.23057 0.0
C29 C 0.73381 0.00861 0.92116 0.0
C30 C 0.83756 0.00208 0.91341 0.0
O31 O 0.82784 1.00128 0.8458 0.0
O32 O 0.8217 0.99286 0.97342 0.0
O33 O 0.56799 0.78048 0.33538 0.0
Cd34 Cd 0.57553 0.8174 0.4144 0.0
O35 O 0.53388 0.75836 0.4135 0.0
Cd36 Cd 0.54789 0.77669 0.51532 0.0
O37 O 0.55331 0.74528 0.61286 0.0
C38 C 0.56355 0.72605 0.59331 0.0
O39 O 0.57198 0.72824 0.52049 0.0
C40 C 0.54748 0.76108 0.35022 0.0
C41 C 0.5715 0.86692 0.32103 0.0
O42 O 0.59434 0.86113 0.33634 0.0
O43 O 0.55061 0.84954 0.35084 0.0
O44 O 0.26412 0.57356 0.7932 0.0
Cd45 Cd 0.30412 0.57546 0.71173 0.0
O46 O 0.24505 0.53963 0.73309 0.0
Cd47 Cd 0.2091 0.51382 0.69483 0.0
O48 O 0.17508 0.49674 0.62918 0.0
C49 C 0.15294 0.50433 0.63296 0.0
O50 O 0.15015 0.52179 0.68021 0.0
C51 C 0.24336 0.55624 0.78051 0.0
C52 C 0.35047 0.56216 0.77689 0.0
O53 O 0.34623 0.58677 0.77141 0.0
O54 O 0.33213 0.54352 0.75543 0.0
O55 O 0.09368 0.26612 0.72246 0.0
Cd56 Cd 0.10246 0.30643 0.61942 0.0
O57 O 0.05183 0.25628 0.69021 0.0
Cd58 Cd 0.05986 0.28152 0.57522 0.0
O59 O 0.06793 0.26305 0.47379 0.0
C60 C 0.07847 0.24213 0.49201 0.0
O61 O 0.0847 0.23577 0.56483 0.0
C62 C 0.07025 0.25138 0.73558 0.0
C63 C 0.09324 0.35446 0.66769 0.0
O64 O 0.07396 0.33674 0.64659 0.0
O65 O 0.11672 0.34928 0.66681 0.0
O66 O 0.32118 0.06077 0.80891 0.0
Cd67 Cd 0.28989 0.07964 0.72018 0.0
O68 O 0.33409 0.03829 0.72101 0.0
Cd69 Cd 0.31499 0.0569 0.6206 0.0
O70 O 0.33207 0.07402 0.50308 0.0
C71 C 0.34999 0.0961 0.49533 0.0
O72 O 0.35507 0.10895 0.55578 0.0
C73 C 0.33514 0.04437 0.78953 0.0
C74 C 0.23524 0.06149 0.75955 0.0
O75 O 0.24915 0.08215 0.78632 0.0
O76 O 0.24732 0.04889 0.71621 0.0
O77 O 0.51787 0.25793 0.40791 0.0
Cd78 Cd 0.51059 0.21844 0.33832 0.0
O79 O 0.47721 0.26364 0.38388 0.0
Cd80 Cd 0.47838 0.24918 0.27183 0.0
O81 O 0.48683 0.28265 0.17167 0.0
C82 C 0.47835 0.30376 0.18496 0.0
O83 O 0.46471 0.30197 0.25063 0.0
C84 C 0.49838 0.26895 0.42125 0.0
C85 C 0.52149 0.17288 0.43734 0.0
O86 O 0.53843 0.18642 0.38334 0.0
O87 O 0.49928 0.1805 0.44364 0.0
Nd88 Nd 0.02482 0.03332 0.84792 0.0
Nd89 Nd 0.04684 0.03667 0.00862 0.0
C90 C 0.99689 0.02151 0.72579 0.0
C91 C 0.99598 0.00208 0.67041 0.0
C92 C 0.97769 0.00203 0.61099 0.0
C93 C 0.97683 0.98374 0.55741 0.0
C94 C 0.99429 0.96523 0.5625 0.0
C95 C 0.01256 0.96535 0.62261 0.0
C96 C 0.01338 0.98364 0.67618 0.0
C97 C 0.07951 0.04574 0.84926 0.0
C98 C 0.035 0.97651 0.95696 0.0
C99 C 0.07464 0.05024 0.12957 0.0
C100 C 0.07818 0.07339 0.17382 0.0
C101 C 0.10031 0.07842 0.22023 0.0
C102 C 0.10367 0.10017 0.26345 0.0
C103 C 0.08486 0.11721 0.26118 0.0
C104 C 0.06293 0.11233 0.21322 0.0
C105 C 0.05968 0.09066 0.16971 0.0
C106 C 0.99205 0.02473 0.00595 0.0
C107 C 0.0349 0.09271 0.90129 0.0
O108 O 0.98903 0.01052 0.79767 0.0
O109 O 0.01849 0.04094 0.72124 0.0
O110 O 0.06606 0.05558 0.79287 0.0
O111 O 0.06446 0.02813 0.89864 0.0
O112 O 0.0217 0.98744 0.89976 0.0
O113 O 0.04974 0.992 0.00222 0.0
O114 O 0.08447 0.05622 0.05785 0.0
O115 O 0.05101 0.0339 0.13618 0.0
O116 O 0.00521 0.01407 0.06198 0.0
O117 O 0.0076 0.04212 0.95757 0.0
O118 O 0.05039 0.08275 0.95395 0.0
O119 O 0.01888 0.07626 0.86152 0.0
H120 H 0.96407 0.01611 0.6061 0.0
H121 H 0.96227 0.98387 0.51256 0.0
H122 H 0.02647 0.95158 0.62763 0.0
H123 H 0.02766 0.9835 0.72187 0.0
H124 H 0.11493 0.06544 0.22332 0.0
H125 H 0.12101 0.10361 0.2987 0.0
H126 H 0.04789 0.1248 0.21073 0.0
H127 H 0.04255 0.08718 0.13358 0.0
Nd128 Nd 0.52975 0.99794 0.86663 0.0
Nd129 Nd 0.53123 0.04698 0.96743 0.0
C130 C 0.53364 0.95179 0.81673 0.0
C131 C 0.54807 0.94623 0.74856 0.0
C132 C 0.57166 0.9361 0.75863 0.0
C133 C 0.58718 0.93409 0.69395 0.0
C134 C 0.57937 0.94209 0.61785 0.0
C135 C 0.5551 0.95091 0.6079 0.0
C136 C 0.53962 0.95295 0.67243 0.0
C137 C 0.5344 0.04824 0.7697 0.0
C138 C 0.58721 0.036 0.90804 0.0
C139 C 0.52336 0.08926 0.03243 0.0
C140 C 0.50002 0.09677 0.06683 0.0
C141 C 0.47495 0.09171 0.03354 0.0
C142 C 0.45216 0.09438 0.07417 0.0
C143 C 0.45402 0.10202 0.14895 0.0
C144 C 0.47941 0.10848 0.18004 0.0
C145 C 0.50215 0.10589 0.13932 0.0
C146 C 0.53672 0.99674 0.04617 0.0
C147 C 0.47313 0.01124 0.91887 0.0
O148 O 0.54852 0.96154 0.87145 0.0
O149 O 0.51342 0.96394 0.80185 0.0
O150 O 0.53358 0.02517 0.7436 0.0
O151 O 0.53351 0.0434 0.84265 0.0
O152 O 0.57389 0.01188 0.89288 0.0
O153 O 0.57529 0.05534 0.92726 0.0
O154 O 0.52445 0.08987 0.95672 0.0
O155 O 0.53047 0.0675 0.07113 0.0
O156 O 0.54955 0.02024 0.06251 0.0
O157 O 0.52074 1.0002 0.9924 0.0
O158 O 0.48634 0.0332 0.94648 0.0
O159 O 0.48517 0.99309 0.89337 0.0
H160 H 0.5786 0.93065 0.81655 0.0
H161 H 0.60584 0.92736 0.70362 0.0
H162 H 0.54827 0.95671 0.55005 0.0
H163 H 0.52143 0.96059 0.6623 0.0
H164 H 0.4728 0.08468 0.97755 0.0
H165 H 0.43299 0.08968 0.04805 0.0
H166 H 0.48163 0.11405 0.23783 0.0
H167 H 0.52128 0.10969 0.16627 0.0
Nd168 Nd 0.52196 0.52905 0.96362 0.0
Nd169 Nd 0.53928 0.50373 0.81396 0.0
C170 C 0.49461 0.55081 0.05727 0.0
C171 C 0.49807 0.5763 0.09123 0.0
C172 C 0.47553 0.58526 0.11457 0.0
C173 C 0.47841 0.60949 0.14708 0.0
C174 C 0.50396 0.62514 0.15689 0.0
C175 C 0.52652 0.61628 0.13198 0.0
C176 C 0.52359 0.59209 0.09915 0.0
C177 C 0.57645 0.53075 0.95534 0.0
C178 C 0.54881 0.57029 0.80462 0.0
C179 C 0.56081 0.47686 0.71962 0.0
C180 C 0.55463 0.44951 0.69363 0.0
C181 C 0.56458 0.42716 0.73294 0.0
C182 C 0.55902 0.40145 0.70768 0.0
C183 C 0.54346 0.39757 0.64251 0.0
C184 C 0.53358 0.41993 0.60314 0.0
C185 C 0.53917 0.44563 0.62823 0.0
C186 C 0.48903 0.51444 0.81631 0.0
C187 C 0.51338 0.46146 0.97569 0.0
O188 O 0.49195 0.55378 0.98161 0.0
O189 O 0.51003 0.53361 0.08266 0.0
O190 O 0.56512 0.53944 0.01127 0.0
O191 O 0.5587 0.52211 0.91102 0.0
O192 O 0.53161 0.5662 0.86478 0.0
O193 O 0.55835 0.54992 0.78173 0.0
O194 O 0.5674 0.47725 0.79227 0.0
O195 O 0.54544 0.49422 0.69578 0.0
O196 O 0.50249 0.51501 0.75213 0.0
O197 O 0.50075 0.50509 0.87471 0.0
O198 O 0.52468 0.46439 0.905 0.0
O199 O 0.50923 0.48265 0.00794 0.0
H200 H 0.45567 0.57345 0.10782 0.0
H201 H 0.46064 0.61598 0.16451 0.0
H202 H 0.54647 0.62767 0.13951 0.0
H203 H 0.54122 0.58557 0.0806 0.0
H204 H 0.57674 0.42953 0.78315 0.0
H205 H 0.56681 0.38457 0.73935 0.0
H206 H 0.52197 0.41774 0.55179 0.0
H207 H 0.53151 0.46249 0.59594 0.0
Nd208 Nd 0.0395 0.53999 0.77873 0.0
Nd209 Nd 0.02612 0.50109 0.92726 0.0
C210 C 0.03974 0.57682 0.65173 0.0
C211 C 0.0223 0.57634 0.58517 0.0
C212 C 0.02584 0.59866 0.52375 0.0
C213 C 0.00896 0.59773 0.4607 0.0
C214 C 0.9882 0.57457 0.45898 0.0
C215 C 0.98494 0.55223 0.52056 0.0
C216 C 1.00194 0.55305 0.58277 0.0
C217 C 0.04641 0.48772 0.76924 0.0
C218 C 0.97706 0.50672 0.82191 0.0
C219 C 0.02529 0.46507 0.05688 0.0
C220 C 0.03934 0.46546 0.1305 0.0
C221 C 0.04444 0.44086 0.17219 0.0
C222 C 0.05829 0.44122 0.24133 0.0
C223 C 0.06714 0.4662 0.27011 0.0
C224 C 0.06179 0.49077 0.22831 0.0
C225 C 0.04815 0.49043 0.159 0.0
C226 C 0.02043 0.55413 0.93468 0.0
C227 C 0.08867 0.53271 0.88025 0.0
O228 O 0.02836 0.57824 0.71824 0.0
O229 O 0.05472 0.55843 0.6585 0.0
O230 O 0.06251 0.51015 0.73705 0.0
O231 O 0.02651 0.49286 0.80333 0.0
O232 O 0.99342 0.52892 0.78478 0.0
O233 O 0.98583 0.48878 0.87358 0.0
O234 O 0.03979 0.46521 0.99454 0.0
O235 O 0.00858 0.48162 0.0444 0.0
O236 O 0.00362 0.53222 0.96642 0.0
O237 O 0.03987 0.54789 0.90214 0.0
O238 O 0.0722 0.51023 0.91564 0.0
O239 O 0.07958 0.55181 0.83367 0.0
H240 H 0.04158 0.61673 0.52462 0.0
H241 H 0.01183 0.61525 0.41402 0.0
H242 H 0.96941 0.53395 0.52019 0.0
H243 H 0.99927 0.53542 0.62902 0.0
H244 H 0.03784 0.42141 0.151 0.0
H245 H 0.06204 0.42195 0.27237 0.0
H246 H 0.06875 0.51041 0.24814 0.0
H247 H 0.04469 0.50973 0.12728 0.0
H248 H 0.20449 0.08235 0.85435 0.0
H249 H 0.19989 0.02251 0.69782 0.0
H250 H 0.15129 0.01168 0.71372 0.0
H251 H 0.10973 0.02081 0.76723 0.0
H252 H 0.11425 0.08047 0.92334 0.0
H253 H 0.16316 0.08975 0.91297 0.0
C254 C 0.19289 0.06679 0.82415 0.0
C255 C 0.20589 0.05339 0.77463 0.0
C256 C 0.16489 0.06069 0.83339 0.0
C257 C 0.19047 0.03318 0.73624 0.0
C258 C 0.16263 0.02701 0.74511 0.0
C259 C 0.12157 0.03564 0.79929 0.0
C260 C 0.10874 0.04989 0.84626 0.0
C261 C 0.1496 0.04087 0.79271 0.0
C262 C 0.12395 0.06914 0.88753 0.0
C263 C 0.15183 0.0745 0.88128 0.0
H264 H 0.50599 0.15724 0.58991 0.0
H265 H 0.55066 0.13595 0.40524 0.0
H266 H 0.55935 0.09576 0.49298 0.0
H267 H 0.55277 0.06576 0.62105 0.0
H268 H 0.51074 0.08867 0.80821 0.0
H269 H 0.50276 0.12943 0.72133 0.0
C270 C 0.51763 0.14376 0.56911 0.0
C271 C 0.52741 0.14923 0.49118 0.0
C272 C 0.52315 0.12119 0.62046 0.0
C273 C 0.5429 0.13202 0.46503 0.0
C274 C 0.54784 0.10908 0.5151 0.0
C275 C 0.54215 0.07993 0.64281 0.0
C276 C 0.53242 0.07444 0.72067 0.0
C277 C 0.53791 0.10336 0.59274 0.0
C278 C 0.51876 0.09282 0.74871 0.0
C279 C 0.51398 0.11593 0.69885 0.0
H280 H 0.36698 0.5136 0.78013 0.0
H281 H 0.39322 0.59728 0.82466 0.0
H282 H 0.43826 0.5893 0.84587 0.0
H283 H 0.4712 0.55979 0.84005 0.0
H284 H 0.44519 0.4766 0.79351 0.0
H285 H 0.39908 0.48309 0.78414 0.0
C286 C 0.38243 0.52999 0.79556 0.0
C287 C 0.37671 0.55606 0.80026 0.0
C288 C 0.40841 0.5254 0.8065 0.0
C289 C 0.39704 0.57704 0.82035 0.0
C290 C 0.42286 0.57254 0.83222 0.0
C291 C 0.45525 0.54299 0.8296 0.0
C292 C 0.46123 0.51769 0.81828 0.0
C293 C 0.42892 0.54701 0.82377 0.0
C294 C 0.44076 0.49616 0.80284 0.0
C295 C 0.4145 0.4999 0.79738 0.0
H296 H 0.0462 0.36603 0.71284 0.0
H297 H 0.13028 0.40154 0.6725 0.0
H298 H 0.12307 0.4455 0.70313 0.0
H299 H 0.09282 0.47443 0.73594 0.0
H300 H 0.00904 0.43927 0.78195 0.0
H301 H 0.01615 0.39445 0.75491 0.0
C302 C 0.06292 0.38341 0.71085 0.0
C303 C 0.08871 0.38058 0.68991 0.0
C304 C 0.05867 0.40865 0.72923 0.0
C305 C 0.11024 0.40315 0.68848 0.0
C306 C 0.10613 0.42835 0.70564 0.0
C307 C 0.07612 0.45692 0.74013 0.0
C308 C 0.0504 0.46007 0.75983 0.0
C309 C 0.08043 0.43139 0.72525 0.0
C310 C 0.029 0.43721 0.76666 0.0
C311 C 0.03306 0.41169 0.75092 0.0
H312 H 0.86646 0.98906 0.03882 0.0
H313 H 0.87395 0.03511 0.80549 0.0
H314 H 0.92243 0.04704 0.81479 0.0
H315 H 0.9628 0.04281 0.88725 0.0
H316 H 0.95553 0.99423 0.11717 0.0
H317 H 0.90686 0.98481 0.11129 0.0
C318 C 0.87868 0.00201 0.99041 0.0
C319 C 0.86661 0.01134 0.92174 0.0
C320 C 0.90658 0.00812 0.99535 0.0
C321 C 0.88275 0.02772 0.85902 0.0
C322 C 0.91047 0.03449 0.86423 0.0
C323 C 0.95053 0.03022 0.93611 0.0
C324 C 0.96268 0.01924 0.00259 0.0
C325 C 0.92262 0.02452 0.93172 0.0
C326 C 0.9466 0.00288 0.06536 0.0
C327 C 0.91879 0.99753 0.06204 0.0
H328 H 0.52955 0.877 0.23471 0.0
H329 H 0.60891 0.91468 0.292 0.0
H330 H 0.60521 0.9582 0.2109 0.0
H331 H 0.57893 0.98585 0.12708 0.0
H332 H 0.50099 0.94744 0.06075 0.0
H333 H 0.50462 0.9037 0.14163 0.0
C334 C 0.54598 0.89479 0.22955 0.0
C335 C 0.56932 0.89287 0.27028 0.0
C336 C 0.54396 0.9195 0.18125 0.0
C337 C 0.59069 0.91584 0.26184 0.0
C338 C 0.58858 0.94067 0.21556 0.0
C339 C 0.5628 0.96784 0.1302 0.0
C340 C 0.5396 0.96979 0.08906 0.0
C341 C 0.56525 0.94278 0.17552 0.0
C342 C 0.519 0.94631 0.09225 0.0
C343 C 0.52104 0.9214 0.13865 0.0
H344 H 0.70189 0.54571 0.95208 0.0
H345 H 0.68743 0.51611 0.73239 0.0
H346 H 0.63944 0.51076 0.75523 0.0
H347 H 0.60173 0.51726 0.83364 0.0
H348 H 0.61587 0.54671 0.05308 0.0
H349 H 0.66384 0.54972 0.03394 0.0
C350 C 0.68825 0.53778 0.90958 0.0
C351 C 0.69834 0.53141 0.84047 0.0
C352 C 0.66061 0.53504 0.92265 0.0
C353 C 0.6803 0.52121 0.78604 0.0
C354 C 0.65281 0.51824 0.79888 0.0
C355 C 0.61527 0.5239 0.87776 0.0
C356 C 0.60529 0.53158 0.94482 0.0
C357 C 0.64277 0.5255 0.86636 0.0
C358 C 0.62311 0.54067 0.00094 0.0
C359 C 0.65052 0.54236 0.99004 0.0
H360 H 0.97271 0.66095 0.90843 0.0
H361 H 0.05154 0.695 0.9785 0.0
H362 H 0.06532 0.65145 0.96967 0.0
H363 H 0.05373 0.6023 0.95196 0.0
H364 H 0.97344 0.56751 0.89564 0.0
H365 H 0.96148 0.6127 0.88784 0.0
C366 C 0.99303 0.65899 0.9205 0.0
C367 C 0.01111 0.68115 0.94377 0.0
C368 C 1.00047 0.63365 0.9181 0.0
C369 C 0.03726 0.67818 0.96048 0.0
C370 C 0.04513 0.65329 0.95559 0.0
C371 C 0.03376 0.60487 0.93718 0.0
C372 C 0.01443 0.58188 0.92447 0.0
C373 C 0.02674 0.63069 0.936 0.0
C374 C 0.98852 0.58508 0.90599 0.0
C375 C 0.98171 0.61086 0.90148 0.0
H376 H 0.02432 0.21281 0.76324 0.0
H377 H 0.10568 0.23114 0.83475 0.0
H378 H 0.10064 0.18369 0.90292 0.0
H379 H 0.0753 0.13526 0.92404 0.0
H380 H 0.99528 0.11717 0.84204 0.0
H381 H 0.99763 0.16618 0.79641 0.0
C382 C 0.04084 0.20669 0.79506 0.0
C383 C 0.06547 0.22544 0.79274 0.0
C384 C 0.03817 0.17917 0.83122 0.0
C385 C 0.08653 0.2171 0.83501 0.0
C386 C 0.08373 0.18988 0.87356 0.0
C387 C 0.05824 0.14218 0.89754 0.0
C388 C 0.03531 0.12264 0.88533 0.0
C389 C 0.06 0.17044 0.86921 0.0
C390 C 0.01332 0.1318 0.85093 0.0
C391 C 0.01462 0.15983 0.82491 0.0
H392 H 0.35969 1.00171 0.78124 0.0
H393 H 0.35781 0.06808 0.9117 0.0
H394 H 0.39927 0.06112 0.97263 0.0
H395 H 0.43948 0.04106 0.97239 0.0
H396 H 0.44112 0.9752 0.83924 0.0
H397 H 0.39628 0.97689 0.79698 0.0
C398 C 0.36804 0.01429 0.82426 0.0
C399 C 0.35591 0.03569 0.84082 0.0
C400 C 0.39212 0.01054 0.85787 0.0
C401 C 0.36676 0.05152 0.89761 0.0
C402 C 0.39065 0.04771 0.93198 0.0
C403 C 0.42991 0.02679 0.93512 0.0
C404 C 0.44404 0.0085 0.9077 0.0
C405 C 0.40408 0.02807 0.90997 0.0
C406 C 0.43098 0.98974 0.86076 0.0
C407 C 0.40529 0.99074 0.83615 0.0
H408 H 0.54247 0.28947 0.49712 0.0
H409 H 0.46069 0.29652 0.46075 0.0
H410 H 0.46698 0.33578 0.53114 0.0
H411 H 0.49661 0.37038 0.59381 0.0
H412 H 0.57875 0.36443 0.62608 0.0
H413 H 0.57127 0.32223 0.56765 0.0
C414 C 0.52591 0.29934 0.50545 0.0
C415 C 0.50123 0.29018 0.47304 0.0
C416 C 0.52975 0.32222 0.54494 0.0
C417 C 0.47996 0.3032 0.48467 0.0
C418 C 0.48354 0.32573 0.52474 0.0
C419 C 0.51285 0.35981 0.58809 0.0
C420 C 0.53824 0.37065 0.61355 0.0
C421 C 0.50852 0.33582 0.55343 0.0
C422 C 0.55897 0.35643 0.60732 0.0
C423 C 0.55475 0.3324 0.57347 0.0
H424 H 0.2052 0.51327 0.84789 0.0
H425 H 0.22247 0.6019 0.78286 0.0
H426 H 0.17599 0.60309 0.8139 0.0
H427 H 0.12939 0.57804 0.84615 0.0
H428 H 0.11311 0.48938 0.91587 0.0
H429 H 0.16016 0.48908 0.89712 0.0
C430 C 0.1988 0.53284 0.84183 0.0
C431 C 0.21695 0.5574 0.81242 0.0
C432 C 0.17219 0.53332 0.86015 0.0
C433 C 0.20871 0.58274 0.80557 0.0
C434 C 0.18214 0.58339 0.82278 0.0
C435 C 0.13626 0.55876 0.85857 0.0
C436 C 0.11772 0.53379 0.88185 0.0
C437 C 0.16352 0.5587 0.84812 0.0
C438 C 0.12693 0.50896 0.89824 0.0
C439 C 0.15385 0.5087 0.88707 0.0
H440 H 0.02922 0.84913 0.06891 0.0
H441 H 0.98909 0.84386 0.85294 0.0
H442 H 0.99764 0.89444 0.82255 0.0
H443 H 0.01341 0.93984 0.8625 0.0
H444 H 0.0525 0.94493 0.08076 0.0
H445 H 0.04707 0.89466 0.1058 0.0
C446 C 0.02212 0.85908 0.0156 0.0
C447 C 0.00789 0.84288 0.96424 0.0
C448 C 0.02678 0.88808 -0.00077 0.0
C449 C 0.99991 0.85596 0.8936 0.0
C450 C 0.00465 0.88484 0.8765 0.0
C451 C 0.02084 0.93001 0.91551 0.0
C452 C 0.03317 0.94618 0.96998 0.0
C453 C 0.01754 0.90107 0.92975 0.0
C454 C 0.04293 0.93304 0.03783 0.0
C455 C 0.03983 0.90427 0.05224 0.0
H456 H 0.7066 0.03967 0.99587 0.0
H457 H 0.70468 0.99754 0.79654 0.0
H458 H 0.65981 0.00495 0.76984 0.0
H459 H 0.61927 0.01838 0.81209 0.0
H460 H 0.62056 0.06112 0.00975 0.0
H461 H 0.66747 0.05857 0.02834 0.0
C462 C 0.69633 0.03222 0.94654 0.0
C463 C 0.70866 0.01748 0.89936 0.0
C464 C 0.67041 0.03655 0.93151 0.0
C465 C 0.69557 0.00882 0.83394 0.0
C466 C 0.66984 0.01291 0.81886 0.0
C467 C 0.63001 0.02761 0.85831 0.0
C468 C 0.61654 0.03975 0.90982 0.0
C469 C 0.65681 0.02601 0.86854 0.0
C470 C 0.63063 0.05183 0.96909 0.0
C471 C 0.65735 0.05015 0.9801 0.0
H472 H 0.50738 0.71573 0.37316 0.0
H473 H 0.57236 0.75874 0.21159 0.0
H474 H 0.56365 0.72102 0.13471 0.0
H475 H 0.53918 0.67455 0.11815 0.0
H476 H 0.47576 0.63119 0.28457 0.0
H477 H 0.48208 0.67059 0.35413 0.0
C478 C 0.51953 0.71708 0.32071 0.0
C479 C 0.54059 0.73999 0.29847 0.0
C480 C 0.51473 0.69519 0.27775 0.0
C481 C 0.55605 0.74132 0.23019 0.0
C482 C 0.55114 0.71971 0.18634 0.0
C483 C 0.5268 0.67372 0.16974 0.0
C484 C 0.50706 0.6499 0.19611 0.0
C485 C 0.53085 0.69631 0.21046 0.0
C486 C 0.49087 0.64935 0.26232 0.0
C487 C 0.49459 0.67181 0.30254 0.0
H488 H 0.86338 0.52691 0.73482 0.0
H489 H 0.84978 0.50271 0.98321 0.0
H490 H 0.89338 0.48982 0.99365 0.0
H491 H 0.93748 0.49079 0.93399 0.0
H492 H 0.95237 0.51929 0.68746 0.0
H493 H 0.90619 0.52463 0.67377 0.0
C494 C 0.86976 0.51819 0.79087 0.0
C495 C 0.85359 0.51593 0.85825 0.0
C496 C 0.89519 0.51171 0.79662 0.0
C497 C 0.86212 0.50493 0.93073 0.0
C498 C 0.88701 0.49755 0.93666 0.0
C499 C 0.93032 0.49739 0.87703 0.0
C500 C 0.94816 0.50442 0.81166 0.0
C501 C 0.90405 0.5016 0.87032 0.0
C502 C 0.93892 0.51367 0.73846 0.0
C503 C 0.91256 0.51684 0.73072 0.0
H504 H 0.09543 0.19386 0.52035 0.0
H505 H 0.06699 0.248 0.33692 0.0
H506 H 0.06774 0.21467 0.24788 0.0
H507 H 0.07451 0.16914 0.22436 0.0
H508 H 0.10083 0.11454 0.41125 0.0
H509 H 0.10324 0.14932 0.49621 0.0
C510 C 0.08958 0.19856 0.46072 0.0
C511 C 0.08106 0.22337 0.4355 0.0
C512 C 0.08966 0.17918 0.41042 0.0
C513 C 0.07358 0.22903 0.35795 0.0
C514 C 0.07395 0.20995 0.30706 0.0
C515 C 0.08068 0.1648 0.28376 0.0
C516 C 0.08747 0.13918 0.31117 0.0
C517 C 0.08156 0.18476 0.33307 0.0
C518 C 0.09585 0.13416 0.38801 0.0
C519 C 0.09705 0.15398 0.43697 0.0
H520 H 0.35089 0.06891 0.37107 0.0
H521 H 0.39002 0.14195 0.46129 0.0
H522 H 0.42426 0.15194 0.35647 0.0
H523 H 0.44558 0.13739 0.24735 0.0
H524 H 0.4076 0.06299 0.16169 0.0
H525 H 0.37022 0.05657 0.25503 0.0
C526 C 0.36665 0.08727 0.36714 0.0
C527 C 0.36801 0.10445 0.42463 0.0
C528 C 0.38661 0.09264 0.3075 0.0
C529 C 0.38856 0.12821 0.41829 0.0
C530 C 0.40823 0.13393 0.35841 0.0
C531 C 0.42906 0.11984 0.2488 0.0
C532 C 0.42961 0.1006 0.19787 0.0
C533 C 0.40788 0.11584 0.30408 0.0
C534 C 0.40771 0.0783 0.19956 0.0
C535 C 0.38638 0.07444 0.25353 0.0
H536 H 0.46684 0.35221 0.20887 0.0
H537 H 0.50626 0.31605 0.04333 0.0
H538 H 0.52008 0.36162 0.96222 0.0
H539 H 0.52218 0.41216 0.94129 0.0
H540 H 0.48326 0.44722 0.11124 0.0
H541 H 0.46818 0.4016 0.1875 0.0
C542 C 0.47832 0.35413 0.15482 0.0
C543 C 0.4855 0.33071 0.13232 0.0
C544 C 0.48646 0.3803 0.10939 0.0
C545 C 0.50045 0.33374 0.06208 0.0
C546 C 0.50841 0.35981 0.01579 0.0
C547 C 0.51032 0.40981 0.99486 0.0
C548 C 0.50402 0.43326 0.02037 0.0
C549 C 0.50174 0.38332 0.03931 0.0
C550 C 0.48864 0.42972 0.09009 0.0
C551 C 0.4799 0.40356 0.13391 0.0
H552 H 0.15222 0.46817 0.53048 0.0
H553 H 0.10611 0.52224 0.61201 0.0
H554 H 0.07424 0.5135 0.51045 0.0
H555 H 0.06175 0.49385 0.39097 0.0
H556 H 0.1084 0.44046 0.30866 0.0
H557 H 0.13756 0.44538 0.41836 0.0
C558 C 0.1351 0.4779 0.52646 0.0
C559 C 0.13187 0.49624 0.57795 0.0
C560 C 0.11699 0.47303 0.46739 0.0
C561 C 0.10929 0.50828 0.57266 0.0
C562 C 0.09106 0.50335 0.51442 0.0
C563 C 0.07826 0.48322 0.39728 0.0
C564 C 0.08305 0.46704 0.34125 0.0
C565 C 0.09512 0.48636 0.46015 0.0
C566 C 0.10418 0.45295 0.35106 0.0
C567 C 0.12098 0.45589 0.41354 0.0
H568 H 0.99217 0.86908 0.36479 0.0
H569 H 0.98248 0.93377 0.17841 0.0
H570 H 0.98428 0.96607 0.27136 0.0
H571 H 0.98888 0.97594 0.40553 0.0
H572 H 0.99768 0.91082 0.59168 0.0
H573 H 0.99635 0.87879 0.49843 0.0
C574 C 0.99046 0.89025 0.34437 0.0
C575 C 0.98713 0.89896 0.2648 0.0
C576 C 0.99148 0.90866 0.39802 0.0
C577 C 0.98493 0.92647 0.23941 0.0
C578 C 0.98601 0.94497 0.2925 0.0
C579 C 0.99024 0.95466 0.4258 0.0
C580 C 0.99339 0.94581 0.50549 0.0
C581 C 0.98923 0.93627 0.37196 0.0
C582 C 0.9956 0.91829 0.53057 0.0
C583 C 0.99467 0.8999 0.47737 0.0
H584 H 0.6621 0.93146 0.35811 0.0
H585 H 0.64466 0.01023 0.2592 0.0
H586 H 0.6129 0.00696 0.36734 0.0
H587 H 0.59109 0.98251 0.49168 0.0
H588 H 0.60794 0.90354 0.59046 0.0
H589 H 0.63903 0.90619 0.4806 0.0
C590 C 0.65137 0.94793 0.36015 0.0
C591 C 0.65585 0.97109 0.30065 0.0
C592 C 0.63307 0.94591 0.4225 0.0
C593 C 0.6417 0.9922 0.30426 0.0
C594 C 0.62348 0.99034 0.36603 0.0
C595 C 0.60125 0.96567 0.48868 0.0
C596 C 0.59718 0.94285 0.54924 0.0
C597 C 0.61909 0.96735 0.42557 0.0
C598 C 0.61092 0.92146 0.54506 0.0
C599 C 0.62864 0.92293 0.48217 0.0
H600 H 0.58208 0.68111 0.56568 0.0
H601 H 0.54234 0.71195 0.74289 0.0
H602 H 0.53569 0.66677 0.82572 0.0
H603 H 0.5382 0.61777 0.84352 0.0
H604 H 0.57741 0.58676 0.66545 0.0
H605 H 0.5873 0.63288 0.58743 0.0
C606 C 0.57221 0.67809 0.62276 0.0
C607 C 0.56252 0.69988 0.64767 0.0
C608 C 0.56816 0.65197 0.66968 0.0
C609 C 0.54993 0.69556 0.72206 0.0
C610 C 0.54602 0.66968 0.76938 0.0
C611 C 0.54904 0.62106 0.78783 0.0
C612 C 0.55678 0.59868 0.76011 0.0
C613 C 0.55455 0.6476 0.74305 0.0
C614 C 0.5711 0.60351 0.6882 0.0
C615 C 0.57673 0.6299 0.64341 0.0
H616 H 0.89562 0.5584 0.22315 0.0
H617 H 0.96233 0.58436 0.05649 0.0
H618 H 0.99305 0.59014 0.16229 0.0
H619 H 1.00101 0.58666 0.30322 0.0
H620 H 0.93407 0.55973 0.46887 0.0
H621 H 0.90339 0.55547 0.36251 0.0
C622 C 0.91687 0.5654 0.2098 0.0
C623 C 0.92663 0.57095 0.13184 0.0
C624 C 0.93439 0.56846 0.27094 0.0
C625 C 0.95426 0.57993 0.11584 0.0
C626 C 0.97185 0.58325 0.17641 0.0
C627 C 0.97968 0.58015 0.31578 0.0
C628 C 0.96979 0.57348 0.39365 0.0
C629 C 0.96215 0.57748 0.25426 0.0
C630 C 0.94215 0.56473 0.40934 0.0
C631 C 0.9246 0.56235 0.34861 0.0
loop_
_geom_bond_atom_site_label_1
_geom_bond_atom_site_label_2
_geom_bond_distance
_geom_bond_site_symmetry_2
_ccdc_geom_bond_type
O0 Cd1 2.300 . S
O0 C7 1.275 . S
Cd1 O0 2.300 . S
Cd1 O9 2.381 . S
Cd1 O10 2.378 . S
O2 Cd3 2.385 1_556 S
O2 C7 1.255 . S
Cd3 O2 2.385 1_554 S
Cd3 O4 2.317 . S
O4 Cd3 2.317 . S
O4 C5 1.232 . S
C5 O4 1.232 . S
C5 O6 1.218 . S
O6 C5 1.218 . S
C7 O0 1.275 . S
C7 O2 1.255 . S
C8 O9 1.258 . S
C8 O10 1.256 . S
O9 Cd1 2.381 . S
O9 C8 1.258 . S
O10 Cd1 2.378 . S
O10 C8 1.256 . S
O11 Cd12 2.300 1_556 S
O11 C18 1.275 . S
Cd12 O11 2.300 1_554 S
Cd12 O20 2.381 1_554 S
Cd12 O21 2.378 . S
O13 Cd14 2.385 1_655 S
O13 C18 1.255 1_554 S
Cd14 O13 2.385 1_455 S
Cd14 O15 2.317 1_455 S
O15 Cd14 2.317 1_655 S
O15 C16 1.232 . S
C16 O15 1.232 . S
C16 O17 1.218 . S
O17 C16 1.218 . S
C18 O11 1.275 . S
C18 O13 1.255 1_556 S
C19 O20 1.258 1_554 S
C19 O21 1.256 . S
O20 Cd12 2.381 1_556 S
O20 C19 1.258 1_556 S
O21 Cd12 2.378 . S
O21 C19 1.256 . S
O22 Cd23 2.300 . S
O22 C29 1.275 . S
Cd23 O22 2.300 . S
Cd23 O31 2.381 . S
Cd23 O32 2.378 . S
O24 Cd25 2.385 1_566 S
O24 C29 1.255 . S
Cd25 O24 2.385 1_544 S
Cd25 O26 2.317 1_545 S
O26 Cd25 2.317 1_565 S
O26 C27 1.232 . S
C27 O26 1.232 . S
C27 O28 1.218 . S
O28 C27 1.218 . S
C29 O22 1.275 . S
C29 O24 1.255 . S
C30 O31 1.258 . S
C30 O32 1.256 . S
O31 Cd23 2.381 . S
O31 C30 1.258 . S
O32 Cd23 2.378 . S
O32 C30 1.256 . S
O33 Cd34 2.300 . S
O33 C40 1.275 . S
Cd34 O33 2.300 . S
Cd34 O42 2.381 . S
Cd34 O43 2.378 . S
O35 Cd36 2.385 . S
O35 C40 1.255 . S
Cd36 O35 2.385 . S
Cd36 O37 2.317 . S
O37 Cd36 2.317 . S
O37 C38 1.232 . S
C38 O37 1.232 . S
C38 O39 1.218 . S
O39 C38 1.218 . S
C40 O33 1.275 . S
C40 O35 1.255 . S
C41 O42 1.258 . S
C41 O43 1.256 . S
O42 Cd34 2.381 . S
O42 C41 1.258 . S
O43 Cd34 2.378 . S
O43 C41 1.256 . S
O44 Cd45 2.300 . S
O44 C51 1.275 . S
Cd45 O44 2.300 . S
Cd45 O53 2.381 . S
Cd45 O54 2.378 . S
O46 Cd47 2.385 . S
O46 C51 1.255 . S
Cd47 O46 2.385 . S
Cd47 O48 2.317 . S
O48 Cd47 2.317 . S
O48 C49 1.232 . S
C49 O48 1.232 . S
C49 O50 1.218 . S
O50 C49 1.218 . S
C51 O44 1.275 . S
C51 O46 1.255 . S
C52 O53 1.258 . S
C52 O54 1.256 . S
O53 Cd45 2.381 . S
O53 C52 1.258 . S
O54 Cd45 2.378 . S
O54 C52 1.256 . S
O55 Cd56 2.300 . S
O55 C62 1.275 . S
Cd56 O55 2.300 . S
Cd56 O64 2.381 . S
Cd56 O65 2.378 . S
O57 Cd58 2.385 . S
O57 C62 1.255 . S
Cd58 O57 2.385 . S
Cd58 O59 2.317 . S
O59 Cd58 2.317 . S
O59 C60 1.232 . S
C60 O59 1.232 . S
C60 O61 1.218 . S
O61 C60 1.218 . S
C62 O55 1.275 . S
C62 O57 1.255 . S
C63 O64 1.258 . S
C63 O65 1.256 . S
O64 Cd56 2.381 . S
O64 C63 1.258 . S
O65 Cd56 2.378 . S
O65 C63 1.256 . S
O66 Cd67 2.300 . S
O66 C73 1.275 . S
Cd67 O66 2.300 . S
Cd67 O75 2.381 . S
Cd67 O76 2.378 . S
O68 Cd69 2.385 . S
O68 C73 1.255 . S
Cd69 O68 2.385 . S
Cd69 O70 2.317 . S
O70 Cd69 2.317 . S
O70 C71 1.232 . S
C71 O70 1.232 . S
C71 O72 1.218 . S
O72 C71 1.218 . S
C73 O66 1.275 . S
C73 O68 1.255 . S
C74 O75 1.258 . S
C74 O76 1.256 . S
O75 Cd67 2.381 . S
O75 C74 1.258 . S
O76 Cd67 2.378 . S
O76 C74 1.256 . S
O77 Cd78 2.300 . S
O77 C84 1.275 . S
Cd78 O77 2.300 . S
Cd78 O86 2.381 . S
Cd78 O87 2.378 . S
O79 Cd80 2.385 . S
O79 C84 1.255 . S
Cd80 O79 2.385 . S
Cd80 O81 2.317 . S
O81 Cd80 2.317 . S
O81 C82 1.232 . S
C82 O81 1.232 . S
C82 O83 1.218 . S
O83 C82 1.218 . S
C84 O77 1.275 . S
C84 O79 1.255 . S
C85 O86 1.258 . S
C85 O87 1.256 . S
O86 Cd78 2.381 . S
O86 C85 1.258 . S
O87 Cd78 2.378 . S
O87 C85 1.256 . S
Nd88 C90 2.836 1_545 S
Nd88 O108 2.500 1_445 S
Nd88 O109 2.492 1_545 S
Nd88 O110 2.487 . S
Nd88 O111 2.682 . S
Nd88 O112 2.410 1_545 S
Nd88 O117 2.414 1_455 S
Nd88 O119 2.424 . S
Nd89 C99 2.836 1_556 S
Nd89 O111 2.414 . S
Nd89 O113 2.424 1_545 S
Nd89 O114 2.500 1_556 S
Nd89 O115 2.492 1_556 S
Nd89 O116 2.487 1_455 S
Nd89 O117 2.682 1_455 S
Nd89 O118 2.410 . S
C90 Nd88 2.836 1_565 S
C90 C91 1.498 . S
C90 O108 1.258 1_455 S
C90 O109 1.239 . S
C91 C90 1.498 . S
C91 C92 1.366 1_455 S
C91 C96 1.407 . S
C92 C91 1.366 1_655 S
C92 C93 1.392 . S
C92 H120 0.930 . S
C93 C92 1.392 . S
C93 C94 1.398 . S
C93 H121 0.929 . S
C94 C93 1.398 . S
C94 C95 1.352 1_655 S
C95 C94 1.352 1_455 S
C95 C96 1.384 . S
C95 H122 0.930 . S
C96 C91 1.407 . S
C96 C95 1.384 . S
C96 H123 0.929 . S
C97 O110 1.241 . S
C97 O111 1.273 . S
C98 O112 1.251 . S
C98 O113 1.268 . S
C99 Nd89 2.836 1_554 S
C99 C100 1.498 . S
C99 O114 1.258 . S
C99 O115 1.239 . S
C100 C99 1.498 . S
C100 C101 1.366 . S
C100 C105 1.407 . S
C101 C100 1.366 . S
C101 C102 1.392 . S
C101 H124 0.930 . S
C102 C101 1.392 . S
C102 C103 1.398 . S
C102 H125 0.929 . S
C103 C102 1.398 . S
C103 C104 1.352 . S
C104 C103 1.352 . S
C104 C105 1.384 . S
C104 H126 0.930 . S
C105 C100 1.407 . S
C105 C104 1.384 . S
C105 H127 0.929 . S
C106 O116 1.241 . S
C106 O117 1.273 . S
C107 O118 1.251 . S
C107 O119 1.268 . S
O108 Nd88 2.500 1_665 S
O108 C90 1.258 1_655 S
O109 Nd88 2.492 1_565 S
O109 C90 1.239 . S
O110 Nd88 2.487 . S
O110 C97 1.241 . S
O111 Nd88 2.682 . S
O111 Nd89 2.414 . S
O111 C97 1.273 . S
O112 Nd88 2.410 1_565 S
O112 C98 1.251 . S
O113 Nd89 2.424 1_565 S
O113 C98 1.268 . S
O114 Nd89 2.500 1_554 S
O114 C99 1.258 . S
O115 Nd89 2.492 1_554 S
O115 C99 1.239 . S
O116 Nd89 2.487 1_655 S
O116 C106 1.241 . S
O117 Nd88 2.414 1_655 S
O117 Nd89 2.682 1_655 S
O117 C106 1.273 . S
O118 Nd89 2.410 . S
O118 C107 1.251 . S
O119 Nd88 2.424 . S
O119 C107 1.268 . S
H120 C92 0.930 . S
H121 C93 0.929 . S
H122 C95 0.930 . S
H123 C96 0.929 . S
H124 C101 0.930 . S
H125 C102 0.929 . S
H126 C104 0.930 . S
H127 C105 0.929 . S
Nd128 C130 2.836 1_545 S
Nd128 O148 2.500 1_545 S
Nd128 O149 2.492 . S
Nd128 O150 2.487 . S
Nd128 O151 2.682 . S
Nd128 O152 2.410 . S
Nd128 O157 2.414 1_545 S
Nd128 O159 2.424 . S
Nd129 C139 2.836 1_556 S
Nd129 O151 2.414 . S
Nd129 O153 2.424 . S
Nd129 O154 2.500 1_556 S
Nd129 O155 2.492 1_556 S
Nd129 O156 2.487 1_546 S
Nd129 O157 2.682 1_545 S
Nd129 O158 2.410 . S
C130 Nd128 2.836 1_565 S
C130 C131 1.498 . S
C130 O148 1.258 . S
C130 O149 1.239 1_565 S
C131 C130 1.498 . S
C131 C132 1.366 . S
C131 C136 1.401 1_565 S
C132 C131 1.366 . S
C132 C133 1.392 . S
C132 H160 0.930 . S
C133 C132 1.392 . S
C133 C134 1.398 . S
C133 H161 0.929 . S
C134 C133 1.398 . S
C134 C135 1.352 . S
C135 C134 1.352 . S
C135 C136 1.371 1_565 S
C135 H162 0.928 1_565 S
C136 C131 1.401 1_545 S
C136 C135 1.371 1_545 S
C136 H163 0.949 . S
C137 O150 1.241 . S
C137 O151 1.273 . S
C138 O152 1.251 . S
C138 O153 1.268 . S
C139 Nd129 2.836 1_554 S
C139 C140 1.498 . S
C139 O154 1.258 . S
C139 O155 1.239 . S
C140 C139 1.498 . S
C140 C141 1.366 . S
C140 C145 1.407 . S
C141 C140 1.366 . S
C141 C142 1.392 . S
C141 H164 0.930 . S
C142 C141 1.392 . S
C142 C143 1.398 . S
C142 H165 0.929 . S
C143 C142 1.398 . S
C143 C144 1.352 . S
C144 C143 1.352 . S
C144 C145 1.384 . S
C144 H166 0.930 . S
C145 C140 1.407 . S
C145 C144 1.384 . S
C145 H167 0.929 . S
C146 O156 1.241 1_556 S
C146 O157 1.273 . S
C147 O158 1.251 . S
C147 O159 1.268 . S
O148 Nd128 2.500 1_565 S
O148 C130 1.258 . S
O149 Nd128 2.492 . S
O149 C130 1.239 1_545 S
O150 Nd128 2.487 . S
O150 C137 1.241 . S
O151 Nd128 2.682 . S
O151 Nd129 2.414 . S
O151 C137 1.273 . S
O152 Nd128 2.410 . S
O152 C138 1.251 . S
O153 Nd129 2.424 . S
O153 C138 1.268 . S
O154 Nd129 2.500 1_554 S
O154 C139 1.258 . S
O155 Nd129 2.492 1_554 S
O155 C139 1.239 . S
O156 Nd129 2.487 1_564 S
O156 C146 1.241 1_554 S
O157 Nd128 2.414 1_565 S
O157 Nd129 2.682 1_565 S
O157 C146 1.273 . S
O158 Nd129 2.410 . S
O158 C147 1.251 . S
O159 Nd128 2.424 . S
O159 C147 1.268 . S
H160 C132 0.930 . S
H161 C133 0.929 . S
H162 C135 0.928 1_545 S
H163 C136 0.949 . S
H164 C141 0.930 . S
H165 C142 0.929 . S
H166 C144 0.930 . S
H167 C145 0.929 . S
Nd168 C170 2.836 1_556 S
Nd168 O188 2.500 . S
Nd168 O189 2.492 1_556 S
Nd168 O190 2.487 . S
Nd168 O191 2.682 . S
Nd168 O192 2.410 . S
Nd168 O197 2.414 . S
Nd168 O199 2.424 1_556 S
Nd169 C179 2.836 . S
Nd169 O191 2.414 . S
Nd169 O193 2.424 . S
Nd169 O194 2.500 . S
Nd169 O195 2.492 . S
Nd169 O196 2.487 . S
Nd169 O197 2.682 . S
Nd169 O198 2.410 . S
C170 Nd168 2.836 1_554 S
C170 C171 1.498 . S
C170 O188 1.258 1_554 S
C170 O189 1.239 . S
C171 C170 1.498 . S
C171 C172 1.366 . S
C171 C176 1.407 . S
C172 C171 1.366 . S
C172 C173 1.392 . S
C172 H200 0.930 1_554 S
C173 C172 1.392 . S
C173 C174 1.398 . S
C173 H201 0.929 . S
C174 C173 1.398 . S
C174 C175 1.352 . S
C175 C174 1.352 . S
C175 C176 1.384 . S
C175 H202 0.930 . S
C176 C171 1.407 . S
C176 C175 1.384 . S
C176 H203 0.929 . S
C177 O190 1.241 . S
C177 O191 1.273 . S
C178 O192 1.251 . S
C178 O193 1.268 . S
C179 Nd169 2.836 . S
C179 C180 1.498 . S
C179 O194 1.258 . S
C179 O195 1.239 . S
C180 C179 1.498 . S
C180 C181 1.366 . S
C180 C185 1.407 . S
C181 C180 1.366 . S
C181 C182 1.392 . S
C181 H204 0.930 . S
C182 C181 1.392 . S
C182 C183 1.398 . S
C182 H205 0.929 . S
C183 C182 1.398 . S
C183 C184 1.352 . S
C184 C183 1.352 . S
C184 C185 1.384 . S
C184 H206 0.930 . S
C185 C180 1.407 . S
C185 C184 1.384 . S
C185 H207 0.929 . S
C186 O196 1.241 . S
C186 O197 1.273 . S
C187 O198 1.251 . S
C187 O199 1.268 1_556 S
O188 Nd168 2.500 . S
O188 C170 1.258 1_556 S
O189 Nd168 2.492 1_554 S
O189 C170 1.239 . S
O190 Nd168 2.487 . S
O190 C177 1.241 . S
O191 Nd168 2.682 . S
O191 Nd169 2.414 . S
O191 C177 1.273 . S
O192 Nd168 2.410 . S
O192 C178 1.251 . S
O193 Nd169 2.424 . S
O193 C178 1.268 . S
O194 Nd169 2.500 . S
O194 C179 1.258 . S
O195 Nd169 2.492 . S
O195 C179 1.239 . S
O196 Nd169 2.487 . S
O196 C186 1.241 . S
O197 Nd168 2.414 . S
O197 Nd169 2.682 . S
O197 C186 1.273 . S
O198 Nd169 2.410 . S
O198 C187 1.251 . S
O199 Nd168 2.424 1_554 S
O199 C187 1.268 1_554 S
H200 C172 0.930 1_556 S
H201 C173 0.929 . S
H202 C175 0.930 . S
H203 C176 0.929 . S
H204 C181 0.930 . S
H205 C182 0.929 . S
H206 C184 0.930 . S
H207 C185 0.929 . S
Nd208 C210 2.836 1_455 S
Nd208 O228 2.500 1_455 S
Nd208 O229 2.492 1_455 S
Nd208 O230 2.487 . S
Nd208 O231 2.682 . S
Nd208 O232 2.410 1_455 S
Nd208 O237 2.414 . S
Nd208 O239 2.424 . S
Nd209 C219 2.836 1_556 S
Nd209 O231 2.414 . S
Nd209 O233 2.424 1_455 S
Nd209 O234 2.500 1_556 S
Nd209 O235 2.492 1_556 S
Nd209 O236 2.487 . S
Nd209 O237 2.682 . S
Nd209 O238 2.410 . S
C210 Nd208 2.836 1_655 S
C210 C211 1.498 . S
C210 O228 1.258 . S
C210 O229 1.239 . S
C211 C210 1.498 . S
C211 C212 1.366 . S
C211 C216 1.407 . S
C212 C211 1.366 . S
C212 C213 1.392 . S
C212 H240 0.930 . S
C213 C212 1.392 . S
C213 C214 1.398 . S
C213 H241 0.929 . S
C214 C213 1.398 . S
C214 C215 1.352 . S
C215 C214 1.352 . S
C215 C216 1.384 . S
C215 H242 0.930 . S
C216 C211 1.407 . S
C216 C215 1.384 . S
C216 H243 0.929 . S
C217 O230 1.241 . S
C217 O231 1.273 . S
C218 O232 1.251 . S
C218 O233 1.268 . S
C219 Nd209 2.836 1_554 S
C219 C220 1.498 . S
C219 O234 1.258 . S
C219 O235 1.239 . S
C220 C219 1.498 . S
C220 C221 1.366 . S
C220 C225 1.407 . S
C221 C220 1.366 . S
C221 C222 1.392 . S
C221 H244 0.930 . S
C222 C221 1.392 . S
C222 C223 1.398 . S
C222 H245 0.929 . S
C223 C222 1.398 . S
C223 C224 1.352 . S
C224 C223 1.352 . S
C224 C225 1.384 . S
C224 H246 0.930 . S
C225 C220 1.407 . S
C225 C224 1.384 . S
C225 H247 0.929 . S
C226 O236 1.241 . S
C226 O237 1.273 . S
C227 O238 1.251 . S
C227 O239 1.268 . S
O228 Nd208 2.500 1_655 S
O228 C210 1.258 . S
O229 Nd208 2.492 1_655 S
O229 C210 1.239 . S
O230 Nd208 2.487 . S
O230 C217 1.241 . S
O231 Nd208 2.682 . S
O231 Nd209 2.414 . S
O231 C217 1.273 . S
O232 Nd208 2.410 1_655 S
O232 C218 1.251 . S
O233 Nd209 2.424 1_655 S
O233 C218 1.268 . S
O234 Nd209 2.500 1_554 S
O234 C219 1.258 . S
O235 Nd209 2.492 1_554 S
O235 C219 1.239 . S
O236 Nd209 2.487 . S
O236 C226 1.241 . S
O237 Nd208 2.414 . S
O237 Nd209 2.682 . S
O237 C226 1.273 . S
O238 Nd209 2.410 . S
O238 C227 1.251 . S
O239 Nd208 2.424 . S
O239 C227 1.268 . S
H240 C212 0.930 . S
H241 C213 0.929 . S
H242 C215 0.930 . S
H243 C216 0.929 . S
H244 C221 0.930 . S
H245 C222 0.929 . S
H246 C224 0.930 . S
H247 C225 0.929 . S
H248 C254 0.930 . S
H249 C257 0.930 . S
H250 C258 0.930 . S
H251 C259 0.930 . S
H252 C262 0.930 . S
H253 C263 0.930 . S
C254 H248 0.930 . S
C254 C255 1.355 . S
C254 C256 1.415 . S
C255 C254 1.355 . S
C255 C257 1.419 . S
C256 C254 1.415 . S
C256 C261 1.425 . S
C256 C263 1.409 . S
C257 H249 0.930 . S
C257 C255 1.419 . S
C257 C258 1.362 . S
C258 H250 0.930 . S
C258 C257 1.362 . S
C258 C261 1.409 . S
C259 H251 0.930 . S
C259 C260 1.355 . S
C259 C261 1.415 . S
C260 C259 1.355 . S
C260 C262 1.419 . S
C261 C256 1.425 . S
C261 C258 1.409 . S
C261 C259 1.415 . S
C262 H252 0.930 . S
C262 C260 1.419 . S
C262 C263 1.362 . S
C263 H253 0.930 . S
C263 C256 1.409 . S
C263 C262 1.362 . S
H264 C270 0.930 . S
H265 C273 0.930 . S
H266 C274 0.930 . S
H267 C275 0.930 . S
H268 C278 0.930 . S
H269 C279 0.930 . S
C270 H264 0.930 . S
C270 C271 1.355 . S
C270 C272 1.415 . S
C271 C270 1.355 . S
C271 C273 1.419 . S
C272 C270 1.415 . S
C272 C277 1.425 . S
C272 C279 1.409 . S
C273 H265 0.930 . S
C273 C271 1.419 . S
C273 C274 1.362 . S
C274 H266 0.930 . S
C274 C273 1.362 . S
C274 C277 1.409 . S
C275 H267 0.930 . S
C275 C276 1.355 . S
C275 C277 1.415 . S
C276 C275 1.355 . S
C276 C278 1.419 . S
C277 C272 1.425 . S
C277 C274 1.409 . S
C277 C275 1.415 . S
C278 H268 0.930 . S
C278 C276 1.419 . S
C278 C279 1.362 . S
C279 H269 0.930 . S
C279 C272 1.409 . S
C279 C278 1.362 . S
H280 C286 0.930 . S
H281 C289 0.930 . S
H282 C290 0.930 . S
H283 C291 0.930 . S
H284 C294 0.930 . S
H285 C295 0.930 . S
C286 H280 0.930 . S
C286 C287 1.355 . S
C286 C288 1.415 . S
C287 C286 1.355 . S
C287 C289 1.419 . S
C288 C286 1.415 . S
C288 C293 1.425 . S
C288 C295 1.409 . S
C289 H281 0.930 . S
C289 C287 1.419 . S
C289 C290 1.362 . S
C290 H282 0.930 . S
C290 C289 1.362 . S
C290 C293 1.409 . S
C291 H283 0.930 . S
C291 C292 1.355 . S
C291 C293 1.415 . S
C292 C291 1.355 . S
C292 C294 1.419 . S
C293 C288 1.425 . S
C293 C290 1.409 . S
C293 C291 1.415 . S
C294 H284 0.930 . S
C294 C292 1.419 . S
C294 C295 1.362 . S
C295 H285 0.930 . S
C295 C288 1.409 . S
C295 C294 1.362 . S
H296 C302 0.930 . S
H297 C305 0.930 . S
H298 C306 0.930 . S
H299 C307 0.930 . S
H300 C310 0.930 . S
H301 C311 0.930 . S
C302 H296 0.930 . S
C302 C303 1.355 . S
C302 C304 1.415 . S
C303 C302 1.355 . S
C303 C305 1.419 . S
C304 C302 1.415 . S
C304 C309 1.425 . S
C304 C311 1.409 . S
C305 H297 0.930 . S
C305 C303 1.419 . S
C305 C306 1.362 . S
C306 H298 0.930 . S
C306 C305 1.362 . S
C306 C309 1.409 . S
C307 H299 0.930 . S
C307 C308 1.355 . S
C307 C309 1.415 . S
C308 C307 1.355 . S
C308 C310 1.419 . S
C309 C304 1.425 . S
C309 C306 1.409 . S
C309 C307 1.415 . S
C310 H300 0.930 . S
C310 C308 1.419 . S
C310 C311 1.362 . S
C311 H301 0.930 . S
C311 C304 1.409 . S
C311 C310 1.362 . S
H312 C318 0.930 1_554 S
H313 C321 0.930 . S
H314 C322 0.930 . S
H315 C323 0.941 . S
H316 C326 0.930 1_554 S
H317 C327 0.930 . S
C318 H312 0.930 1_556 S
C318 C319 1.355 . S
C318 C320 1.415 . S
C319 C318 1.355 . S
C319 C321 1.419 . S
C320 C318 1.415 . S
C320 C325 1.425 . S
C320 C327 1.409 1_566 S
C321 H313 0.930 . S
C321 C319 1.419 . S
C321 C322 1.362 . S
C322 H314 0.930 . S
C322 C321 1.362 . S
C322 C325 1.409 . S
C323 H315 0.941 . S
C323 C324 1.344 1_565 S
C323 C325 1.416 . S
C324 C323 1.344 1_545 S
C324 C326 1.419 . S
C325 C320 1.425 . S
C325 C322 1.409 . S
C325 C323 1.416 . S
C326 H316 0.930 1_556 S
C326 C324 1.419 . S
C326 C327 1.362 1_556 S
C327 H317 0.930 . S
C327 C320 1.409 1_544 S
C327 C326 1.362 1_554 S
H328 C334 0.930 . S
H329 C337 0.930 . S
H330 C338 0.930 . S
H331 C339 0.930 1_556 S
H332 C342 0.930 . S
H333 C343 0.930 . S
C334 H328 0.930 . S
C334 C335 1.355 . S
C334 C336 1.415 . S
C335 C334 1.355 . S
C335 C337 1.419 . S
C336 C334 1.415 . S
C336 C341 1.425 . S
C336 C343 1.409 . S
C337 H329 0.930 . S
C337 C335 1.419 . S
C337 C338 1.362 . S
C338 H330 0.930 . S
C338 C337 1.362 . S
C338 C341 1.409 . S
C339 H331 0.930 1_554 S
C339 C340 1.355 . S
C339 C341 1.415 . S
C340 C339 1.355 . S
C340 C342 1.419 . S
C341 C336 1.425 . S
C341 C338 1.409 . S
C341 C339 1.415 . S
C342 H332 0.930 . S
C342 C340 1.419 . S
C342 C343 1.362 . S
C343 H333 0.930 . S
C343 C336 1.409 . S
C343 C342 1.362 . S
H344 C350 0.930 . S
H345 C353 0.930 . S
H346 C354 0.930 . S
H347 C355 0.930 . S
H348 C358 0.930 . S
H349 C359 0.930 1_554 S
C350 H344 0.930 . S
C350 C351 1.355 . S
C350 C352 1.415 . S
C351 C350 1.355 . S
C351 C353 1.419 . S
C352 C350 1.415 . S
C352 C357 1.425 . S
C352 C359 1.409 . S
C353 H345 0.930 . S
C353 C351 1.419 . S
C353 C354 1.362 . S
C354 H346 0.930 . S
C354 C353 1.362 . S
C354 C357 1.409 . S
C355 H347 0.930 . S
C355 C356 1.355 . S
C355 C357 1.415 . S
C356 C355 1.355 . S
C356 C358 1.419 . S
C357 C352 1.425 . S
C357 C354 1.409 . S
C357 C355 1.415 . S
C358 H348 0.930 . S
C358 C356 1.419 . S
C358 C359 1.362 . S
C359 H349 0.930 1_556 S
C359 C352 1.409 . S
C359 C358 1.362 . S
H360 C366 0.930 . S
H361 C369 0.930 . S
H362 C370 0.930 1_554 S
H363 C371 0.930 . S
H364 C374 0.930 . S
H365 C375 0.930 . S
C366 H360 0.930 . S
C366 C367 1.355 . S
C366 C368 1.415 . S
C367 C366 1.355 . S
C367 C369 1.419 1_656 S
C368 C366 1.415 . S
C368 C373 1.425 1_655 S
C368 C375 1.409 . S
C369 H361 0.930 . S
C369 C367 1.419 1_454 S
C369 C370 1.362 1_554 S
C370 H362 0.930 1_556 S
C370 C369 1.362 1_556 S
C370 C373 1.409 . S
C371 H363 0.930 . S
C371 C372 1.355 . S
C371 C373 1.415 . S
C372 C371 1.355 . S
C372 C374 1.419 1_455 S
C373 C368 1.425 1_455 S
C373 C370 1.409 . S
C373 C371 1.415 . S
C374 H364 0.930 . S
C374 C372 1.419 1_655 S
C374 C375 1.362 . S
C375 H365 0.930 . S
C375 C368 1.409 . S
C375 C374 1.362 . S
H376 C382 0.930 . S
H377 C385 0.930 . S
H378 C386 0.930 . S
H379 C387 0.930 . S
H380 C390 0.930 . S
H381 C391 0.930 . S
C382 H376 0.930 . S
C382 C383 1.355 . S
C382 C384 1.415 . S
C383 C382 1.355 . S
C383 C385 1.419 . S
C384 C382 1.415 . S
C384 C389 1.425 . S
C384 C391 1.409 . S
C385 H377 0.930 . S
C385 C383 1.419 . S
C385 C386 1.362 . S
C386 H378 0.930 . S
C386 C385 1.362 . S
C386 C389 1.409 . S
C387 H379 0.930 . S
C387 C388 1.355 . S
C387 C389 1.415 . S
C388 C387 1.355 . S
C388 C390 1.419 . S
C389 C384 1.425 . S
C389 C386 1.409 . S
C389 C387 1.415 . S
C390 H380 0.930 . S
C390 C388 1.419 . S
C390 C391 1.362 . S
C391 H381 0.930 . S
C391 C384 1.409 . S
C391 C390 1.362 . S
H392 C398 0.930 . S
H393 C401 0.930 . S
H394 C402 0.930 . S
H395 C403 0.930 . S
H396 C406 0.930 . S
H397 C407 0.930 . S
C398 H392 0.930 . S
C398 C399 1.355 . S
C398 C400 1.415 . S
C399 C398 1.355 . S
C399 C401 1.419 . S
C400 C398 1.415 . S
C400 C405 1.425 . S
C400 C407 1.409 . S
C401 H393 0.930 . S
C401 C399 1.419 . S
C401 C402 1.362 . S
C402 H394 0.930 . S
C402 C401 1.362 . S
C402 C405 1.409 . S
C403 H395 0.930 . S
C403 C404 1.355 . S
C403 C405 1.415 . S
C404 C403 1.355 . S
C404 C406 1.419 . S
C405 C400 1.425 . S
C405 C402 1.409 . S
C405 C403 1.415 . S
C406 H396 0.930 . S
C406 C404 1.419 . S
C406 C407 1.362 . S
C407 H397 0.930 . S
C407 C400 1.409 . S
C407 C406 1.362 . S
H408 C414 0.930 . S
H409 C417 0.930 . S
H410 C418 0.930 . S
H411 C419 0.930 . S
H412 C422 0.930 . S
H413 C423 0.930 . S
C414 H408 0.930 . S
C414 C415 1.355 . S
C414 C416 1.415 . S
C415 C414 1.355 . S
C415 C417 1.419 . S
C416 C414 1.415 . S
C416 C421 1.425 . S
C416 C423 1.409 . S
C417 H409 0.930 . S
C417 C415 1.419 . S
C417 C418 1.362 . S
C418 H410 0.930 . S
C418 C417 1.362 . S
C418 C421 1.409 . S
C419 H411 0.930 . S
C419 C420 1.355 . S
C419 C421 1.415 . S
C420 C419 1.355 . S
C420 C422 1.419 . S
C421 C416 1.425 . S
C421 C418 1.409 . S
C421 C419 1.415 . S
C422 H412 0.930 . S
C422 C420 1.419 . S
C422 C423 1.362 . S
C423 H413 0.930 . S
C423 C416 1.409 . S
C423 C422 1.362 . S
H424 C430 0.930 . S
H425 C433 0.930 . S
H426 C434 0.930 . S
H427 C435 0.930 . S
H428 C438 0.930 . S
H429 C439 0.930 . S
C430 H424 0.930 . S
C430 C431 1.355 . S
C430 C432 1.415 . S
C431 C430 1.355 . S
C431 C433 1.419 . S
C432 C430 1.415 . S
C432 C437 1.425 . S
C432 C439 1.409 . S
C433 H425 0.930 . S
C433 C431 1.419 . S
C433 C434 1.362 . S
C434 H426 0.930 . S
C434 C433 1.362 . S
C434 C437 1.409 . S
C435 H427 0.930 . S
C435 C436 1.355 . S
C435 C437 1.415 . S
C436 C435 1.355 . S
C436 C438 1.419 . S
C437 C432 1.425 . S
C437 C434 1.409 . S
C437 C435 1.415 . S
C438 H428 0.930 . S
C438 C436 1.419 . S
C438 C439 1.362 . S
C439 H429 0.930 . S
C439 C432 1.409 . S
C439 C438 1.362 . S
H440 C446 0.930 1_455 S
H441 C449 0.930 . S
H442 C450 0.930 . S
H443 C451 0.930 . S
H444 C454 0.930 . S
H445 C455 0.930 . S
C446 H440 0.930 1_655 S
C446 C447 1.355 . S
C446 C448 1.415 1_655 S
C447 C446 1.355 . S
C447 C449 1.419 . S
C448 C446 1.415 1_455 S
C448 C453 1.425 1_455 S
C448 C455 1.409 . S
C449 H441 0.930 . S
C449 C447 1.419 . S
C449 C450 1.362 . S
C450 H442 0.930 . S
C450 C449 1.362 . S
C450 C453 1.409 . S
C451 H443 0.930 . S
C451 C452 1.355 1_655 S
C451 C453 1.415 . S
C452 C451 1.355 1_455 S
C452 C454 1.419 . S
C453 C448 1.425 1_655 S
C453 C450 1.409 . S
C453 C451 1.415 . S
C454 H444 0.930 . S
C454 C452 1.419 . S
C454 C455 1.362 . S
C455 H445 0.930 . S
C455 C448 1.409 . S
C455 C454 1.362 . S
H456 C462 0.930 . S
H457 C465 0.930 . S
H458 C466 0.930 . S
H459 C467 0.930 . S
H460 C470 0.930 . S
H461 C471 0.930 1_554 S
C462 H456 0.930 . S
C462 C463 1.355 . S
C462 C464 1.415 . S
C463 C462 1.355 . S
C463 C465 1.419 1_565 S
C464 C462 1.415 . S
C464 C469 1.425 1_565 S
C464 C471 1.409 . S
C465 H457 0.930 . S
C465 C463 1.419 1_545 S
C465 C466 1.362 . S
C466 H458 0.930 . S
C466 C465 1.362 . S
C466 C469 1.409 . S
C467 H459 0.930 . S
C467 C468 1.355 . S
C467 C469 1.415 . S
C468 C467 1.355 . S
C468 C470 1.419 1_545 S
C469 C464 1.425 1_545 S
C469 C466 1.409 . S
C469 C467 1.415 . S
C470 H460 0.930 . S
C470 C468 1.419 1_565 S
C470 C471 1.362 . S
C471 H461 0.930 1_556 S
C471 C464 1.409 . S
C471 C470 1.362 . S
H472 C478 0.930 . S
H473 C481 0.930 . S
H474 C482 0.930 . S
H475 C483 0.930 . S
H476 C486 0.930 . S
H477 C487 0.930 . S
C478 H472 0.930 . S
C478 C479 1.355 . S
C478 C480 1.415 . S
C479 C478 1.355 . S
C479 C481 1.419 . S
C480 C478 1.415 . S
C480 C485 1.425 . S
C480 C487 1.409 . S
C481 H473 0.930 . S
C481 C479 1.419 . S
C481 C482 1.362 . S
C482 H474 0.930 . S
C482 C481 1.362 . S
C482 C485 1.409 . S
C483 H475 0.930 . S
C483 C484 1.355 . S
C483 C485 1.415 . S
C484 C483 1.355 . S
C484 C486 1.419 . S
C485 C480 1.425 . S
C485 C482 1.409 . S
C485 C483 1.415 . S
C486 H476 0.930 . S
C486 C484 1.419 . S
C486 C487 1.362 . S
C487 H477 0.930 . S
C487 C480 1.409 . S
C487 C486 1.362 . S
H488 C494 0.930 . S
H489 C497 0.930 . S
H490 C498 0.930 . S
H491 C499 0.930 . S
H492 C502 0.930 . S
H493 C503 0.930 . S
C494 H488 0.930 . S
C494 C495 1.355 . S
C494 C496 1.415 . S
C495 C494 1.355 . S
C495 C497 1.419 . S
C496 C494 1.415 . S
C496 C501 1.425 . S
C496 C503 1.409 . S
C497 H489 0.930 . S
C497 C495 1.419 . S
C497 C498 1.362 . S
C498 H490 0.930 . S
C498 C497 1.362 . S
C498 C501 1.409 . S
C499 H491 0.930 . S
C499 C500 1.355 . S
C499 C501 1.415 . S
C500 C499 1.355 . S
C500 C502 1.419 . S
C501 C496 1.425 . S
C501 C498 1.409 . S
C501 C499 1.415 . S
C502 H492 0.930 . S
C502 C500 1.419 . S
C502 C503 1.362 . S
C503 H493 0.930 . S
C503 C496 1.409 . S
C503 C502 1.362 . S
H504 C510 0.930 . S
H505 C513 0.930 . S
H506 C514 0.930 . S
H507 C515 0.930 . S
H508 C518 0.930 . S
H509 C519 0.930 . S
C510 H504 0.930 . S
C510 C511 1.355 . S
C510 C512 1.415 . S
C511 C510 1.355 . S
C511 C513 1.419 . S
C512 C510 1.415 . S
C512 C517 1.425 . S
C512 C519 1.409 . S
C513 H505 0.930 . S
C513 C511 1.419 . S
C513 C514 1.362 . S
C514 H506 0.930 . S
C514 C513 1.362 . S
C514 C517 1.409 . S
C515 H507 0.930 . S
C515 C516 1.355 . S
C515 C517 1.415 . S
C516 C515 1.355 . S
C516 C518 1.419 . S
C517 C512 1.425 . S
C517 C514 1.409 . S
C517 C515 1.415 . S
C518 H508 0.930 . S
C518 C516 1.419 . S
C518 C519 1.362 . S
C519 H509 0.930 . S
C519 C512 1.409 . S
C519 C518 1.362 . S
H520 C526 0.930 . S
H521 C529 0.930 . S
H522 C530 0.930 . S
H523 C531 0.930 . S
H524 C534 0.930 . S
H525 C535 0.930 . S
C526 H520 0.930 . S
C526 C527 1.355 . S
C526 C528 1.415 . S
C527 C526 1.355 . S
C527 C529 1.419 . S
C528 C526 1.415 . S
C528 C533 1.425 . S
C528 C535 1.409 . S
C529 H521 0.930 . S
C529 C527 1.419 . S
C529 C530 1.362 . S
C530 H522 0.930 . S
C530 C529 1.362 . S
C530 C533 1.409 . S
C531 H523 0.930 . S
C531 C532 1.355 . S
C531 C533 1.415 . S
C532 C531 1.355 . S
C532 C534 1.419 . S
C533 C528 1.425 . S
C533 C530 1.409 . S
C533 C531 1.415 . S
C534 H524 0.930 . S
C534 C532 1.419 . S
C534 C535 1.362 . S
C535 H525 0.930 . S
C535 C528 1.409 . S
C535 C534 1.362 . S
H536 C542 0.930 . S
H537 C545 0.930 . S
H538 C546 0.930 . S
H539 C547 0.930 . S
H540 C550 0.930 . S
H541 C551 0.930 . S
C542 H536 0.930 . S
C542 C543 1.355 . S
C542 C544 1.415 . S
C543 C542 1.355 . S
C543 C545 1.419 . S
C544 C542 1.415 . S
C544 C549 1.425 . S
C544 C551 1.409 . S
C545 H537 0.930 . S
C545 C543 1.419 . S
C545 C546 1.362 1_554 S
C546 H538 0.930 . S
C546 C545 1.362 1_556 S
C546 C549 1.409 1_556 S
C547 H539 0.930 . S
C547 C548 1.355 1_556 S
C547 C549 1.415 1_556 S
C548 C547 1.355 1_554 S
C548 C550 1.419 . S
C549 C544 1.425 . S
C549 C546 1.409 1_554 S
C549 C547 1.415 1_554 S
C550 H540 0.930 . S
C550 C548 1.419 . S
C550 C551 1.362 . S
C551 H541 0.930 . S
C551 C544 1.409 . S
C551 C550 1.362 . S
H552 C558 0.930 . S
H553 C561 0.930 . S
H554 C562 0.930 . S
H555 C563 0.930 . S
H556 C566 0.930 . S
H557 C567 0.930 . S
C558 H552 0.930 . S
C558 C559 1.355 . S
C558 C560 1.415 . S
C559 C558 1.355 . S
C559 C561 1.419 . S
C560 C558 1.415 . S
C560 C565 1.425 . S
C560 C567 1.409 . S
C561 H553 0.930 . S
C561 C559 1.419 . S
C561 C562 1.362 . S
C562 H554 0.930 . S
C562 C561 1.362 . S
C562 C565 1.409 . S
C563 H555 0.930 . S
C563 C564 1.355 . S
C563 C565 1.415 . S
C564 C563 1.355 . S
C564 C566 1.419 . S
C565 C560 1.425 . S
C565 C562 1.409 . S
C565 C563 1.415 . S
C566 H556 0.930 . S
C566 C564 1.419 . S
C566 C567 1.362 . S
C567 H557 0.930 . S
C567 C560 1.409 . S
C567 C566 1.362 . S
H568 C574 0.930 1_455 S
H569 C577 0.930 . S
H570 C578 0.930 . S
H571 C579 0.930 . S
H572 C582 0.930 . S
H573 C583 0.930 . S
C574 H568 0.930 1_655 S
C574 C575 1.355 . S
C574 C576 1.415 . S
C575 C574 1.355 . S
C575 C577 1.419 . S
C576 C574 1.415 . S
C576 C581 1.425 . S
C576 C583 1.409 1_655 S
C577 H569 0.930 . S
C577 C575 1.419 . S
C577 C578 1.362 . S
C578 H570 0.930 . S
C578 C577 1.362 . S
C578 C581 1.409 . S
C579 H571 0.930 . S
C579 C580 1.355 . S
C579 C581 1.415 . S
C580 C579 1.355 . S
C580 C582 1.419 1_655 S
C581 C576 1.425 . S
C581 C578 1.409 . S
C581 C579 1.415 . S
C582 H572 0.930 . S
C582 C580 1.419 1_455 S
C582 C583 1.362 . S
C583 H573 0.930 . S
C583 C576 1.409 1_455 S
C583 C582 1.362 . S
H584 C590 0.930 . S
H585 C593 0.930 1_545 S
H586 C594 0.930 . S
H587 C595 0.930 1_545 S
H588 C598 0.930 . S
H589 C599 0.930 . S
C590 H584 0.930 . S
C590 C591 1.355 . S
C590 C592 1.415 . S
C591 C590 1.355 . S
C591 C593 1.419 . S
C592 C590 1.415 . S
C592 C597 1.425 . S
C592 C599 1.409 . S
C593 H585 0.930 1_565 S
C593 C591 1.419 . S
C593 C594 1.362 1_565 S
C594 H586 0.930 . S
C594 C593 1.362 1_545 S
C594 C597 1.409 1_545 S
C595 H587 0.930 1_565 S
C595 C596 1.355 . S
C595 C597 1.415 . S
C596 C595 1.355 . S
C596 C598 1.419 . S
C597 C592 1.425 . S
C597 C594 1.409 1_565 S
C597 C595 1.415 . S
C598 H588 0.930 . S
C598 C596 1.419 . S
C598 C599 1.362 . S
C599 H589 0.930 . S
C599 C592 1.409 . S
C599 C598 1.362 . S
H600 C606 0.930 . S
H601 C609 0.930 . S
H602 C610 0.930 . S
H603 C611 0.930 . S
H604 C614 0.930 . S
H605 C615 0.930 . S
C606 H600 0.930 . S
C606 C607 1.355 . S
C606 C608 1.415 . S
C607 C606 1.355 . S
C607 C609 1.419 . S
C608 C606 1.415 . S
C608 C613 1.425 . S
C608 C615 1.409 . S
C609 H601 0.930 . S
C609 C607 1.419 . S
C609 C610 1.362 . S
C610 H602 0.930 . S
C610 C609 1.362 . S
C610 C613 1.409 . S
C611 H603 0.930 . S
C611 C612 1.355 . S
C611 C613 1.415 . S
C612 C611 1.355 . S
C612 C614 1.419 . S
C613 C608 1.425 . S
C613 C610 1.409 . S
C613 C611 1.415 . S
C614 H604 0.930 . S
C614 C612 1.419 . S
C614 C615 1.362 . S
C615 H605 0.930 . S
C615 C608 1.409 . S
C615 C614 1.362 . S
H616 C622 0.930 . S
H617 C625 0.930 . S
H618 C626 0.930 . S
H619 C627 0.930 . S
H620 C630 0.930 . S
H621 C631 0.930 . S
C622 H616 0.930 . S
C622 C623 1.355 . S
C622 C624 1.415 . S
C623 C622 1.355 . S
C623 C625 1.419 . S
C624 C622 1.415 . S
C624 C629 1.425 . S
C624 C631 1.409 . S
C625 H617 0.930 . S
C625 C623 1.419 . S
C625 C626 1.362 . S
C626 H618 0.930 . S
C626 C625 1.362 . S
C626 C629 1.409 . S
C627 H619 0.930 . S
C627 C628 1.355 . S
C627 C629 1.415 . S
C628 C627 1.355 . S
C628 C630 1.419 . S
C629 C624 1.425 . S
C629 C626 1.409 . S
C629 C627 1.415 . S
C630 H620 0.930 . S
C630 C628 1.419 . S
C630 C631 1.362 . S
C631 H621 0.930 . S
C631 C624 1.409 . S
C631 C630 1.362 . S
C255 C74 1.614 . S
C260 C97 1.606 . S
C276 C137 1.346 . S
C271 C85 1.436 . S
C292 C186 1.340 . S
C287 C52 1.399 . S
C308 C217 1.768 . S
C303 C63 1.878 . S
C324 C106 1.572 . S
C319 C30 1.579 . S
C335 C41 1.323 . S
C340 C146 1.256 1_554 S
C351 C8 1.392 . S
C356 C177 1.344 . S
C367 C19 1.778 1_556 S
C372 C226 1.803 . S
C388 C107 1.242 . S
C383 C62 1.248 . S
C404 C147 1.565 . S
C399 C73 1.573 . S
C420 C183 0.960 . S
C415 C84 0.924 . S
C431 C51 1.322 . S
C436 C227 1.359 . S
C447 C18 1.185 . S
C452 C98 1.238 . S
C468 C138 1.550 . S
C463 C29 1.426 . S
C484 C174 0.948 . S
C479 C40 0.961 . S
C495 C7 1.296 . S
C500 C218 1.359 . S
C511 C60 1.517 . S
C516 C103 1.664 . S
C527 C71 1.257 . S
C532 C143 1.481 . S
C548 C187 2.024 1_554 S
C543 C82 1.677 . S
C564 C223 1.451 . S
C559 C49 1.213 . S
C575 C16 1.421 . S
C580 C94 1.661 . S
C596 C134 1.490 . S
C591 C27 1.239 . S
C612 C178 2.016 . S
C607 C38 1.504 . S
C623 C5 1.374 . S
C628 C214 1.407 . S
