# Generated by pormake.
# Topology anh, (6,3)-cn, num edge types: 1
# Building blocks:
#     Node 0, Type 0, BuildingBlock: CUWYAW_clean_sbu_0, # of connection points: 6
#     Node 1, Type 0, BuildingBlock: CUWYAW_clean_sbu_0, # of connection points: 6
#     Node 2, Type 0, BuildingBlock: CUWYAW_clean_sbu_0, # of connection points: 6
#     Node 3, Type 1, BuildingBlock: WUSLED_clean_sbu_0, # of connection points: 3
#     Node 4, Type 1, BuildingBlock: WUSLED_clean_sbu_0, # of connection points: 3
#     Node 5, Type 1, BuildingBlock: WUSLED_clean_sbu_0, # of connection points: 3
#     Node 6, Type 1, BuildingBlock: WUSLED_clean_sbu_0, # of connection points: 3
#     Node 7, Type 1, BuildingBlock: WUSLED_clean_sbu_0, # of connection points: 3
#     Node 8, Type 1, BuildingBlock: WUSLED_clean_sbu_0, # of connection points: 3
#     Edge 9, Type (0, 1), BuildingBlock: ZUJKAS_clean_linker_0, # of connection points: 2
#     Edge 10, Type (0, 1), BuildingBlock: ZUJKAS_clean_linker_0, # of connection points: 2
#     Edge 11, Type (0, 1), BuildingBlock: ZUJKAS_clean_linker_0, # of connection points: 2
#     Edge 12, Type (0, 1), BuildingBlock: ZUJKAS_clean_linker_0, # of connection points: 2
#     Edge 13, Type (0, 1), BuildingBlock: ZUJKAS_clean_linker_0, # of connection points: 2
#     Edge 14, Type (0, 1), BuildingBlock: ZUJKAS_clean_linker_0, # of connection points: 2
#     Edge 15, Type (0, 1), BuildingBlock: ZUJKAS_clean_linker_0, # of connection points: 2
#     Edge 16, Type (0, 1), BuildingBlock: ZUJKAS_clean_linker_0, # of connection points: 2
#     Edge 17, Type (0, 1), BuildingBlock: ZUJKAS_clean_linker_0, # of connection points: 2
#     Edge 18, Type (0, 1), BuildingBlock: ZUJKAS_clean_linker_0, # of connection points: 2
#     Edge 19, Type (0, 1), BuildingBlock: ZUJKAS_clean_linker_0, # of connection points: 2
#     Edge 20, Type (0, 1), BuildingBlock: ZUJKAS_clean_linker_0, # of connection points: 2
#     Edge 21, Type (0, 1), BuildingBlock: ZUJKAS_clean_linker_0, # of connection points: 2
#     Edge 22, Type (0, 1), BuildingBlock: ZUJKAS_clean_linker_0, # of connection points: 2
#     Edge 23, Type (0, 1), BuildingBlock: ZUJKAS_clean_linker_0, # of connection points: 2
#     Edge 24, Type (0, 1), BuildingBlock: ZUJKAS_clean_linker_0, # of connection points: 2
#     Edge 25, Type (0, 1), BuildingBlock: ZUJKAS_clean_linker_0, # of connection points: 2
#     Edge 26, Type (0, 1), BuildingBlock: ZUJKAS_clean_linker_0, # of connection points: 2
# Relax obj value: 0.191
# Max RMSD: 0.175
# Mean RMSD: 0.143
data_MOF--net-anh--node1-CUWYAW_clean_sbu_0--node2-WUSLED_clean_sbu_0--edge1-ZUJKAS_clean_linker_0
_symmetry_space_group_name_H-M    P1
_symmetry_Int_Tables_number       1
_symmetry_cell_setting            triclinic
loop_
_symmetry_equiv_pos_as_xyz
'x, y, z'
_cell_length_a     48.957256
_cell_length_b     49.015021
_cell_length_c     85.110281
_cell_angle_alpha  90.007623
_cell_angle_beta   90.05291
_cell_angle_gamma 119.83953
loop_
_atom_site_label
_atom_site_type_symbol
_atom_site_fract_x
_atom_site_fract_y
_atom_site_fract_z
_atom_type_partial_charge
C0 C 1.0333 0.47058 0.16896 0.0
Eu1 Eu 0.05915 0.5295 0.17667 0.0
C2 C 1.00218 0.44869 0.16224 0.0
C3 C 0.97834 0.42724 0.1722 0.0
C4 C 0.94758 0.40979 0.16676 0.0
C5 C 0.94021 0.41306 0.15121 0.0
C6 C 0.96409 0.43303 0.1409 0.0
C7 C 0.99499 0.45093 0.14641 0.0
C8 C 0.06409 0.5506 0.20683 0.0
C9 C 1.0153 0.56149 0.17435 0.0
C10 C 0.1215 0.65625 0.18402 0.0
Eu11 Eu 0.09294 0.59655 0.17832 0.0
C12 C 0.15343 0.67958 0.17905 0.0
C13 C 0.16488 0.67626 0.16444 0.0
C14 C 0.1963 0.69572 0.16039 0.0
C15 C 0.21694 0.7189 0.17087 0.0
C16 C 0.20534 0.72259 0.1854 0.0
C17 C 0.17382 0.70297 0.18947 0.0
C18 C 0.08714 0.57455 0.14878 0.0
C19 C 0.13742 0.56516 0.17441 0.0
O20 O 0.05302 0.49337 0.15986 0.0
O21 O 1.03305 0.48015 0.18327 0.0
O22 O 1.03878 0.52783 0.20068 0.0
O23 O 0.08609 0.56154 0.19677 0.0
O24 O 1.01735 0.53642 0.17036 0.0
O25 O 1.041 0.5865 0.18003 0.0
O26 O 0.12005 0.63575 0.19432 0.0
O27 O 0.10095 0.64324 0.17269 0.0
O28 O 0.11281 0.59797 0.15418 0.0
O29 O 0.06569 0.56449 0.15892 0.0
O30 O 0.13735 0.59183 0.17687 0.0
O31 O 0.11012 0.53839 0.17384 0.0
H32 H 0.98325 0.42483 0.18438 0.0
H33 H 0.92934 0.39402 0.17478 0.0
H34 H 0.95868 0.43548 0.12882 0.0
H35 H 1.01292 0.46713 0.1384 0.0
H36 H 0.14973 0.65817 0.15623 0.0
H37 H 0.20457 0.6922 0.14918 0.0
H38 H 0.22062 0.7407 0.1936 0.0
H39 H 0.16552 0.70565 0.20085 0.0
C40 C 0.56458 0.11851 0.50212 0.0
Eu41 Eu 0.58617 0.08165 0.50983 0.0
C42 C 0.58074 0.15063 0.49564 0.0
C43 C 0.58525 0.17574 0.50526 0.0
C44 C 0.60357 0.20658 0.50009 0.0
C45 C 0.61746 0.21294 0.48512 0.0
C46 C 0.61222 0.18792 0.47523 0.0
C47 C 0.59418 0.15694 0.4805 0.0
C48 C 0.59125 0.06635 0.54007 0.0
C49 C 0.66441 0.12685 0.50828 0.0
C50 C 0.64462 1.01535 0.52167 0.0
Eu51 Eu 0.6237 0.05204 0.51261 0.0
C52 C 0.63292 0.98153 0.51923 0.0
C53 C 0.64226 0.97125 0.50593 0.0
C54 C 0.63029 0.93928 0.50324 0.0
C55 C 0.609 0.91695 0.51386 0.0
C56 C 0.59955 0.92711 0.52715 0.0
C57 C 0.61142 0.95914 0.52981 0.0
C58 C 0.61796 0.06593 0.48275 0.0
C59 C 0.54519 1.00605 0.50729 0.0
O60 O 0.56245 0.09613 0.49295 0.0
O61 O 0.5723 0.11588 0.51653 0.0
O62 O 0.56526 0.06165 0.53361 0.0
O63 O 0.61371 0.07904 0.53031 0.0
O64 O 0.63651 0.12315 0.50422 0.0
O65 O 0.66544 0.10246 0.51435 0.0
O66 O 0.62749 1.02264 0.53065 0.0
O67 O 0.65506 1.03316 0.50918 0.0
O68 O 0.64366 0.06823 0.48831 0.0
O69 O 0.59605 0.05428 0.49266 0.0
O70 O 0.57298 1.00791 0.51006 0.0
O71 O 0.54402 1.0324 0.50616 0.0
H72 H 0.57511 0.17153 0.51693 0.0
H73 H 0.60666 0.22556 0.50776 0.0
H74 H 0.62245 0.19238 0.46358 0.0
H75 H 0.59124 0.13805 0.47281 0.0
H76 H 0.65892 0.9879 0.49759 0.0
H77 H 0.63851 0.93207 0.49309 0.0
H78 H 0.58321 0.91029 0.53553 0.0
H79 H 0.60375 0.96632 0.54017 0.0
C80 C 0.66063 0.57845 0.8228 0.0
Eu81 Eu 0.6097 0.55649 0.83929 0.0
C82 C 0.68605 0.5709 0.82204 0.0
C83 C 0.70121 0.56943 0.83574 0.0
C84 C 0.72193 0.55774 0.83512 0.0
C85 C 0.72752 0.54691 0.82085 0.0
C86 C 0.71293 0.54918 0.80708 0.0
C87 C 0.69243 0.56118 0.80767 0.0
C88 C 0.6019 0.54587 0.87127 0.0
C89 C 0.57457 0.47812 0.84188 0.0
C90 C 0.48288 0.49905 0.85935 0.0
Eu91 Eu 0.53785 0.51778 0.84733 0.0
C92 C 0.45955 0.50887 0.85575 0.0
C93 C 0.44375 0.50131 0.84121 0.0
C94 C 0.42422 0.51334 0.83718 0.0
C95 C 0.42008 0.53324 0.84756 0.0
C96 C 0.43554 0.54048 0.86219 0.0
C97 C 0.45499 0.5283 0.86626 0.0
C98 C 0.55272 0.52359 0.81668 0.0
C99 C 0.57168 0.59624 0.84059 0.0
O100 O 0.63333 0.55568 0.81796 0.0
O101 O 0.65864 0.59238 0.8356 0.0
O102 O 0.62913 0.56196 0.86447 0.0
O103 O 0.58133 0.53671 0.86066 0.0
O104 O 0.5983 0.50487 0.83629 0.0
O105 O 0.55029 0.47812 0.84904 0.0
O106 O 0.50894 0.52031 0.86611 0.0
O107 O 0.48795 0.48357 0.84827 0.0
O108 O 0.52853 0.49874 0.82236 0.0
O109 O 0.56558 0.54428 0.8271 0.0
O110 O 0.54569 0.56891 0.84409 0.0
O111 O 0.599 0.5971 0.83823 0.0
H112 H 0.69647 0.57649 0.847 0.0
H113 H 0.73339 0.55697 0.84587 0.0
H114 H 0.71663 0.54083 0.79593 0.0
H115 H 0.68059 0.56176 0.79701 0.0
H116 H 0.44672 0.48641 0.8328 0.0
H117 H 0.41206 0.50671 0.826 0.0
H118 H 0.43291 0.55587 0.87042 0.0
H119 H 0.467 0.53463 0.8775 0.0
C120 C 0.59102 0.1376 0.20975 0.0
C121 C 0.61532 0.1623 0.21821 0.0
C122 C 0.6435 0.18462 0.19385 0.0
C123 C 0.64141 0.18575 0.21029 0.0
C124 C 0.61875 0.16005 0.18546 0.0
C125 C 0.59268 0.13667 0.19338 0.0
U126 U 0.55009 0.095 0.2473 0.0
O127 O 0.52902 0.04489 0.25299 0.0
O128 O 0.49934 0.06678 0.25233 0.0
C129 C 0.50028 0.04041 0.2523 0.0
C130 C 0.56488 0.11159 0.21792 0.0
C131 C 0.48115 1.01786 0.24015 0.0
C132 C 0.47518 1.00404 0.21251 0.0
C133 C 0.48902 1.02633 0.22437 0.0
C134 C 0.44378 0.96481 0.23202 0.0
C135 C 0.45281 0.97283 0.21619 0.0
C136 C 0.45811 0.98716 0.24395 0.0
C137 C 0.58517 0.12479 0.28721 0.0
C138 C 0.56119 0.09114 0.30982 0.0
C139 C 0.6104 0.14025 0.31267 0.0
C140 C 0.60988 0.14634 0.29668 0.0
C141 C 0.5862 0.11244 0.31937 0.0
C142 C 0.5607 0.09727 0.29384 0.0
C143 C 0.58613 0.12982 0.27025 0.0
O144 O 0.57248 0.09288 0.2254 0.0
O145 O 0.54667 0.11888 0.22614 0.0
O146 O 0.56296 0.13307 0.26447 0.0
O147 O 0.59201 0.11063 0.26204 0.0
H148 H 0.61437 0.16305 0.23091 0.0
H149 H 0.66032 0.20421 0.21706 0.0
H150 H 0.6196 0.15882 0.17277 0.0
H151 H 0.57407 0.11759 0.18675 0.0
H152 H 0.48305 1.01109 0.20056 0.0
H153 H 0.50698 0.04996 0.22126 0.0
H154 H 0.42603 0.94116 0.23523 0.0
H155 H 0.4519 0.98028 0.25609 0.0
H156 H 0.54206 0.06971 0.31468 0.0
H157 H 0.63018 0.15689 0.31969 0.0
H158 H 0.62909 0.16751 0.29165 0.0
H159 H 0.54153 0.08031 0.28659 0.0
C160 C 0.64304 0.60752 0.5425 0.0
C161 C 0.6468 0.63373 0.55089 0.0
C162 C 0.64553 0.65854 0.52641 0.0
C163 C 0.64815 0.65917 0.54289 0.0
C164 C 0.64328 0.63281 0.51804 0.0
C165 C 0.64206 0.60742 0.52606 0.0
U166 U 0.62538 0.55803 0.57966 0.0
O167 O 0.59226 0.5074 0.58245 0.0
O168 O 0.64276 0.52612 0.58651 0.0
C169 C 0.61531 0.50107 0.58369 0.0
C170 C 0.63709 0.57903 0.55073 0.0
C171 C 0.61622 0.48145 0.57098 0.0
C172 C 0.62392 0.47687 0.54318 0.0
C173 C 0.61971 0.49281 0.55557 0.0
C174 C 0.62002 0.43697 0.56134 0.0
C175 C 0.6244 0.44889 0.54589 0.0
C176 C 0.61612 0.4533 0.57386 0.0
C177 C 0.61886 0.58641 0.61972 0.0
C178 C 0.60415 0.55043 0.64173 0.0
C179 C 0.62259 0.60578 0.64627 0.0
C180 C 0.62614 0.61126 0.63009 0.0
C181 C 0.61165 0.57531 0.65224 0.0
C182 C 0.60783 0.55597 0.62559 0.0
C183 C 0.62417 0.59241 0.60286 0.0
O184 O 0.65916 0.58205 0.56055 0.0
O185 O 0.60849 0.5625 0.55645 0.0
O186 O 0.59958 0.57517 0.59389 0.0
O187 O 0.65027 0.59413 0.59769 0.0
H188 H 0.64734 0.63392 0.56362 0.0
H189 H 0.6494 0.67849 0.54965 0.0
H190 H 0.6414 0.63188 0.50534 0.0
H191 H 0.63911 0.5872 0.51948 0.0
H192 H 0.6278 0.48713 0.53156 0.0
H193 H 0.62008 0.51463 0.55316 0.0
H194 H 0.61982 0.41519 0.56378 0.0
H195 H 0.61355 0.4443 0.58571 0.0
H196 H 0.59602 0.52681 0.64601 0.0
H197 H 0.62819 0.6253 0.6541 0.0
H198 H 0.63479 0.6349 0.6257 0.0
H199 H 0.60243 0.53658 0.61769 0.0
C200 C 1.01555 0.47715 0.8763 0.0
C201 C 0.99031 0.47512 0.88497 0.0
C202 C 0.96911 0.48532 0.86133 0.0
C203 C 0.96718 0.47907 0.87753 0.0
C204 C 0.99434 0.48701 0.85266 0.0
C205 C 1.01748 0.483 0.86013 0.0
U206 U 0.05545 0.47671 0.91399 0.0
O207 O 0.08009 0.45108 0.9206 0.0
O208 O 0.10555 0.50275 0.92027 0.0
C209 C 0.10767 0.47706 0.92009 0.0
C210 C 1.04085 0.47522 0.88431 0.0
C211 C 0.13005 0.47801 0.90828 0.0
C212 C 0.13756 0.46499 0.88162 0.0
C213 C 0.11906 0.45791 0.89511 0.0
C214 C 0.17889 0.51128 0.89452 0.0
C215 C 0.16695 0.49247 0.88105 0.0
C216 C 0.16067 0.50394 0.9081 0.0
C217 C 1.02412 0.4863 0.95277 0.0
C218 C 0.05439 0.49333 0.97648 0.0
C219 C 1.00708 0.49752 0.97744 0.0
C220 C 1.00266 0.49136 0.96134 0.0
C221 C 1.03315 0.49882 0.98513 0.0
C222 C 1.04991 0.48713 0.9604 0.0
C223 C 1.02069 0.48208 0.93575 0.0
O224 O 0.06079 0.50116 0.89165 0.0
O225 O 1.03196 0.44968 0.89274 0.0
O226 O 1.01571 0.45472 0.9305 0.0
O227 O 1.04206 0.50609 0.9277 0.0
H228 H 0.98873 0.47086 0.89752 0.0
H229 H 0.94779 0.47725 0.88446 0.0
H230 H 0.99655 0.49216 0.8402 0.0
H231 H 1.03713 0.48499 0.85336 0.0
H232 H 0.12819 0.45009 0.87134 0.0
H233 H 0.09539 0.43794 0.89479 0.0
H234 H 0.20186 0.53232 0.89432 0.0
H235 H 0.16951 0.51989 0.91802 0.0
H236 H 0.07446 0.49382 0.98213 0.0
H237 H 0.99055 0.502 0.98379 0.0
H238 H 0.98281 0.49107 0.95553 0.0
H239 H 0.06677 0.48341 0.95387 0.0
C240 C 1.0251 0.48684 0.47188 0.0
C241 C 0.99655 0.48191 0.46515 0.0
C242 C 0.96542 0.42781 0.47647 0.0
C243 C 0.96756 0.45311 0.46728 0.0
C244 C 0.99429 0.43313 0.48311 0.0
C245 C 1.02312 0.46164 0.48083 0.0
U246 U 0.10426 0.56963 0.45846 0.0
O247 O 0.1252 0.61397 0.47256 0.0
O248 O 0.15162 0.58947 0.4696 0.0
C249 C 0.152 0.61465 0.47523 0.0
C250 C 0.05608 0.51852 0.47168 0.0
C251 C 0.18287 0.64644 0.47518 0.0
C252 C 0.21462 0.70014 0.48632 0.0
C253 C 0.18558 0.67164 0.48443 0.0
C254 C 0.24002 0.68 0.46963 0.0
C255 C 0.24287 0.70524 0.47908 0.0
C256 C 0.21086 0.65134 0.4678 0.0
C257 C 0.10001 0.57441 0.41075 0.0
C258 C 0.10915 0.59861 0.38477 0.0
C259 C 0.0788 0.54202 0.38716 0.0
C260 C 0.0828 0.54468 0.40363 0.0
C261 C 0.09239 0.569 0.37746 0.0
C262 C 0.11278 0.60123 0.40113 0.0
C263 C 0.10755 0.57892 0.42784 0.0
O264 O 0.0826 0.52013 0.46724 0.0
O265 O 0.05608 0.54493 0.46891 0.0
O266 O 0.09309 0.58883 0.43731 0.0
O267 O 0.11849 0.56245 0.43489 0.0
H268 H 0.99643 0.50051 0.45835 0.0
H269 H 0.94679 0.45092 0.46163 0.0
H270 H 0.99488 0.4156 0.49056 0.0
H271 H 1.04407 0.46432 0.48658 0.0
H272 H 0.21484 0.71787 0.49397 0.0
H273 H 0.16513 0.669 0.49067 0.0
H274 H 0.2604 0.68222 0.46354 0.0
H275 H 0.21043 0.63277 0.46072 0.0
H276 H 0.11956 0.61993 0.37781 0.0
H277 H 0.06584 0.51881 0.38198 0.0
H278 H 0.07289 0.52358 0.41075 0.0
H279 H 0.12629 0.62444 0.40629 0.0
C280 C 0.57295 0.95759 0.80739 0.0
C281 C 0.59633 0.95225 0.80071 0.0
C282 C 0.57186 0.89762 0.81138 0.0
C283 C 0.59568 0.92297 0.80257 0.0
C284 C 0.5485 0.90328 0.81794 0.0
C285 C 0.54905 0.93232 0.81597 0.0
U286 U 0.57812 0.03951 0.79239 0.0
O287 O 0.55123 0.06061 0.80306 0.0
O288 O 0.60248 0.0865 0.80413 0.0
C289 C 0.57636 0.0866 0.80766 0.0
C290 C 0.5745 0.98966 0.80747 0.0
C291 C 0.57563 0.11753 0.80817 0.0
C292 C 0.55619 0.14966 0.82141 0.0
C293 C 0.5561 0.12091 0.81926 0.0
C294 C 0.59526 0.17345 0.8012 0.0
C295 C 0.57572 0.17696 0.81246 0.0
C296 C 0.59536 0.14453 0.79917 0.0
C297 C 0.58474 0.04249 0.74401 0.0
C298 C 0.56208 0.04035 0.71808 0.0
C299 C 0.61451 0.04763 0.72002 0.0
C300 C 0.61221 0.04681 0.73651 0.0
C301 C 0.58951 0.04449 0.71046 0.0
C302 C 0.55968 0.03918 0.73456 0.0
C303 C 0.58223 0.04139 0.76155 0.0
O304 O 0.60106 1.01549 0.80425 0.0
O305 O 0.5499 0.99163 0.80286 0.0
O306 O 0.55509 1.02886 0.76897 0.0
O307 O 0.6071 0.05298 0.77076 0.0
H308 H 0.61548 0.97087 0.79416 0.0
H309 H 0.61411 0.9204 0.797 0.0
H310 H 0.52992 0.88556 0.8251 0.0
H311 H 0.53092 0.93531 0.82165 0.0
H312 H 0.54118 0.15037 0.83051 0.0
H313 H 0.54096 0.10117 0.8267 0.0
H314 H 0.61062 0.19305 0.79378 0.0
H315 H 0.61109 0.14343 0.79058 0.0
H316 H 0.54245 0.03845 0.71135 0.0
H317 H 0.63584 0.05028 0.71479 0.0
H318 H 0.63191 0.04923 0.7434 0.0
H319 H 0.53824 0.03602 0.73993 0.0
C320 C 0.65363 0.55931 0.13786 0.0
C321 C 0.67224 0.56004 0.125 0.0
C322 C 0.71303 0.55951 0.14251 0.0
C323 C 0.70126 0.56015 0.12728 0.0
C324 C 0.69412 0.55896 0.15524 0.0
C325 C 0.66533 0.5588 0.15295 0.0
U326 U 0.57208 0.55746 0.12282 0.0
O327 O 0.52754 0.53421 0.1367 0.0
O328 O 0.55241 0.58507 0.13407 0.0
C329 C 0.52706 0.56034 0.13955 0.0
C330 C 0.62247 0.55944 0.13648 0.0
C331 C 0.49535 0.55972 0.13953 0.0
C332 C 0.44074 0.53636 0.14968 0.0
C333 C 0.4692 0.53568 0.1476 0.0
C334 C 0.46286 0.58514 0.13554 0.0
C335 C 0.43669 0.56122 0.14384 0.0
C336 C 0.49146 0.58449 0.13352 0.0
C337 C 0.56753 0.54886 0.07507 0.0
C338 C 0.54527 0.54033 0.04863 0.0
C339 C 0.59885 0.55152 0.05214 0.0
C340 C 0.59591 0.55355 0.06856 0.0
C341 C 0.57351 0.54491 0.04187 0.0
C342 C 0.54236 0.54217 0.06492 0.0
C343 C 0.56303 0.55183 0.09216 0.0
O344 O 0.62177 0.58443 0.13138 0.0
O345 O 0.59587 0.5333 0.13375 0.0
O346 O 0.55325 0.52747 0.10157 0.0
O347 O 0.57945 0.5791 0.09926 0.0
H348 H 0.66439 0.56047 0.11316 0.0
H349 H 0.71425 0.5603 0.11697 0.0
H350 H 0.70168 0.55917 0.1672 0.0
H351 H 0.65211 0.55847 0.16322 0.0
H352 H 0.42218 0.51754 0.15639 0.0
H353 H 0.47104 0.51649 0.1528 0.0
H354 H 0.46147 0.60468 0.13053 0.0
H355 H 0.51077 0.60384 0.12742 0.0
H356 H 0.52538 0.53595 0.04132 0.0
H357 H 0.62092 0.55491 0.04754 0.0
H358 H 0.61575 0.55883 0.07612 0.0
H359 H 0.5203 0.53878 0.06961 0.0
H360 H 0.19841 0.61578 0.17041 0.0
H361 H 0.2475 0.61539 0.16498 0.0
H362 H 0.19711 0.51421 0.16709 0.0
H363 H 0.148 0.51453 0.17197 0.0
H364 H 0.28448 0.59948 0.17909 0.0
H365 H 0.24164 0.52018 0.12785 0.0
H366 H 0.21871 0.5357 0.1366 0.0
H367 H 0.21839 0.5017 0.14493 0.0
C368 C 0.19758 0.59332 0.16968 0.0
C369 C 0.16847 0.56517 0.17162 0.0
C370 C 0.22605 0.5931 0.16654 0.0
C371 C 0.22692 0.56473 0.16511 0.0
C372 C 0.1979 0.53665 0.16744 0.0
H373 H 0.37476 0.51186 0.14872 0.0
H374 H 0.32671 0.51376 0.15399 0.0
C375 C 0.16943 0.53685 0.17046 0.0
C376 C 0.25788 0.5646 0.16156 0.0
H377 H 0.29075 0.53034 0.13852 0.0
C378 C 0.28562 0.58441 0.17011 0.0
C379 C 0.26058 0.54521 0.14984 0.0
C380 C 0.23336 0.52475 0.13917 0.0
C381 C 0.31471 0.58476 0.16769 0.0
C382 C 0.3173 0.56513 0.15609 0.0
C383 C 0.28961 0.54543 0.1475 0.0
C384 C 0.348 0.56437 0.15278 0.0
C385 C 0.34217 0.60562 0.17814 0.0
C386 C 0.37719 0.59195 0.14995 0.0
C387 C 0.40534 0.59099 0.14704 0.0
C388 C 0.40592 0.56233 0.14665 0.0
C389 C 0.37646 0.5347 0.14916 0.0
C390 C 0.34836 0.53572 0.15209 0.0
H391 H 0.33425 0.61124 0.18929 0.0
H392 H 0.35648 0.59445 0.18102 0.0
H393 H 0.35741 0.62814 0.17198 0.0
H394 H 0.37835 0.61458 0.14984 0.0
H395 H 0.42684 0.6131 0.14531 0.0
H396 H 0.72718 0.14298 0.51306 0.0
H397 H 0.77568 0.19272 0.50764 0.0
H398 H 0.72048 0.23268 0.4905 0.0
H399 H 0.67201 0.18315 0.49606 0.0
H400 H 0.80387 0.22617 0.48197 0.0
H401 H 0.77777 0.30424 0.51794 0.0
H402 H 0.75418 0.26199 0.51906 0.0
H403 H 0.74835 0.28307 0.50329 0.0
C404 C 0.72513 0.16234 0.50827 0.0
C405 C 0.69488 0.15832 0.50524 0.0
C406 C 0.75328 0.19116 0.50507 0.0
C407 C 0.7528 0.21772 0.49884 0.0
C408 C 0.72253 0.21362 0.49569 0.0
H409 H 0.90228 0.41465 0.47405 0.0
H410 H 0.85311 0.36556 0.47859 0.0
C411 C 0.69436 0.18475 0.49882 0.0
C412 C 0.78363 0.2489 0.49534 0.0
H413 H 0.8227 0.3293 0.50153 0.0
C414 C 0.80781 0.24859 0.48638 0.0
C415 C 0.78978 0.27902 0.50074 0.0
C416 C 0.76632 0.28223 0.51091 0.0
C417 C 0.83663 0.27649 0.48255 0.0
C418 C 0.84308 0.30662 0.48818 0.0
C419 C 0.81878 0.30692 0.49707 0.0
C420 C 0.87443 0.33766 0.48507 0.0
C421 C 0.85933 0.27314 0.47185 0.0
C422 C 0.90426 0.3401 0.48718 0.0
C423 C 0.93296 0.36847 0.48424 0.0
C424 C 0.93382 0.39661 0.47932 0.0
C425 C 0.90385 0.39425 0.47748 0.0
C426 C 0.87509 0.36568 0.48029 0.0
H427 H 0.84695 0.25199 0.46424 0.0
H428 H 0.87226 0.29404 0.46418 0.0
H429 H 0.87659 0.27025 0.47908 0.0
H430 H 0.90563 0.31997 0.49133 0.0
H431 H 0.95457 0.3679 0.48579 0.0
H432 H 0.61961 0.65551 0.83199 0.0
H433 H 0.61819 0.70402 0.82732 0.0
H434 H 0.51913 0.65575 0.83797 0.0
H435 H 0.52057 0.60706 0.84293 0.0
H436 H 0.59137 0.72328 0.8069 0.0
H437 H 0.5432 0.73125 0.8643 0.0
H438 H 0.55621 0.70327 0.86068 0.0
H439 H 0.51789 0.69525 0.85416 0.0
C440 C 0.5974 0.65498 0.83352 0.0
C441 C 0.57028 0.62663 0.83807 0.0
C442 C 0.5966 0.68316 0.83074 0.0
C443 C 0.56871 0.68475 0.83247 0.0
C444 C 0.54143 0.65634 0.83689 0.0
H445 H 0.52119 0.83734 0.8184 0.0
H446 H 0.52086 0.78812 0.82326 0.0
C447 C 0.5422 0.62802 0.83966 0.0
C448 C 0.56841 0.7157 0.82931 0.0
H449 H 0.54688 0.76747 0.84477 0.0
C450 C 0.58171 0.7328 0.81532 0.0
C451 C 0.5559 0.72911 0.84001 0.0
C452 C 0.54277 0.71399 0.85569 0.0
C453 C 0.58235 0.76159 0.8117 0.0
C454 C 0.56998 0.77506 0.82242 0.0
C455 C 0.55651 0.7579 0.83637 0.0
C456 C 0.57061 0.80649 0.8194 0.0
C457 C 0.59556 0.7768 0.79604 0.0
C458 C 0.59867 0.83464 0.81569 0.0
C459 C 0.59909 0.86354 0.81305 0.0
C460 C 0.57145 0.86602 0.81397 0.0
C461 C 0.5434 0.83768 0.81773 0.0
C462 C 0.54307 0.80887 0.82047 0.0
H463 H 0.59499 0.75955 0.78738 0.0
H464 H 0.58227 0.78773 0.7911 0.0
H465 H 0.62048 0.79543 0.79759 0.0
H466 H 0.6207 0.83455 0.81511 0.0
H467 H 0.62155 0.88416 0.81058 0.0
H468 H 1.00147 0.60998 0.17885 0.0
H469 H 0.95248 0.61052 0.17336 0.0
H470 H 0.90883 0.51427 0.15783 0.0
H471 H 0.95792 0.51391 0.16296 0.0
H472 H 0.88951 0.54268 0.13876 0.0
H473 H 0.87391 0.57986 0.1977 0.0
H474 H 0.91063 0.60786 0.189 0.0
H475 H 0.90344 0.56902 0.19379 0.0
C476 C 0.98145 0.58874 0.17439 0.0
C477 C 0.98435 0.56182 0.17157 0.0
C478 C 0.95293 0.58897 0.17131 0.0
C479 C 0.92566 0.56221 0.16538 0.0
C480 C 0.92874 0.53544 0.16243 0.0
H481 H 0.73134 0.53517 0.16774 0.0
H482 H 0.78105 0.53639 0.17261 0.0
C483 C 0.95722 0.53521 0.16548 0.0
C484 C 0.89449 0.56209 0.16196 0.0
H485 H 0.83994 0.57961 0.1777 0.0
C486 C 0.87889 0.55084 0.14738 0.0
C487 C 0.8793 0.57208 0.173 0.0
C488 C 0.89245 0.58258 0.1893 0.0
C489 C 0.84989 0.54974 0.14357 0.0
C490 C 0.83525 0.56069 0.15442 0.0
C491 C 0.85058 0.57148 0.16908 0.0
C492 C 0.8039 0.56023 0.15109 0.0
C493 C 0.83472 0.53576 0.12798 0.0
C494 C 0.79877 0.57342 0.13735 0.0
C495 C 0.76983 0.57297 0.1345 0.0
C496 C 0.7444 0.5595 0.1453 0.0
C497 C 0.74974 0.54641 0.15905 0.0
C498 C 0.77864 0.54693 0.16189 0.0
H499 H 0.84303 0.52004 0.12323 0.0
H500 H 0.80867 0.5221 0.129 0.0
H501 H 0.84107 0.555 0.11938 0.0
H502 H 0.81747 0.58476 0.12881 0.0
H503 H 0.76779 0.58393 0.12387 0.0
H504 H 0.48305 0.99274 0.50624 0.0
H505 H 0.43466 0.94273 0.50171 0.0
H506 H 0.48925 0.89633 0.49665 0.0
H507 H 0.53762 0.94621 0.50194 0.0
H508 H 0.40843 0.90425 0.47962 0.0
H509 H 0.42608 0.83129 0.52336 0.0
H510 H 0.45166 0.87327 0.52247 0.0
H511 H 0.45729 0.84771 0.50924 0.0
C512 C 0.48496 0.97191 0.50435 0.0
C513 C 0.51498 0.97423 0.5047 0.0
C514 C 0.45684 0.94286 0.50166 0.0
C515 C 0.45703 0.91442 0.49908 0.0
C516 C 0.48718 0.91686 0.49915 0.0
H517 H 0.30524 0.71657 0.47747 0.0
H518 H 0.35507 0.76545 0.48158 0.0
C519 C 0.51536 0.9459 0.50206 0.0
C520 C 0.42604 0.8831 0.49592 0.0
H521 H 0.38373 0.80409 0.50552 0.0
C522 C 0.40326 0.88256 0.48546 0.0
C523 C 0.4181 0.85379 0.50322 0.0
C524 C 0.4394 0.85151 0.51531 0.0
C525 C 0.37413 0.85468 0.48204 0.0
C526 C 0.36615 0.82547 0.48938 0.0
C527 C 0.389 0.82586 0.49972 0.0
C528 C 0.33455 0.79468 0.48662 0.0
C529 C 0.35256 0.8569 0.47009 0.0
C530 C 0.30509 0.79328 0.4881 0.0
C531 C 0.27607 0.76499 0.48557 0.0
C532 C 0.27467 0.7362 0.48155 0.0
C533 C 0.30427 0.73762 0.48023 0.0
C534 C 0.33333 0.76599 0.48277 0.0
H535 H 0.36573 0.87697 0.46194 0.0
H536 H 0.33997 0.835 0.46305 0.0
H537 H 0.33488 0.86085 0.47627 0.0
H538 H 0.3043 0.81417 0.49144 0.0
H539 H 0.25462 0.76605 0.48667 0.0
H540 H 0.53008 0.41622 0.85018 0.0
H541 H 0.531 0.36719 0.84532 0.0
H542 H 0.62068 0.41988 0.82228 0.0
H543 H 0.62012 0.46872 0.82734 0.0
H544 H 0.53046 0.33497 0.81997 0.0
H545 H 0.64353 0.36837 0.84923 0.0
H546 H 0.62457 0.39169 0.85111 0.0
H547 H 0.64762 0.39526 0.83394 0.0
C548 C 0.55026 0.4176 0.84422 0.0
C549 C 0.57517 0.44726 0.8394 0.0
C550 C 0.55073 0.38916 0.84135 0.0
C551 C 0.57624 0.38889 0.83363 0.0
C552 C 0.60096 0.41853 0.82868 0.0
H553 H 0.62246 0.23966 0.8059 0.0
H554 H 0.62186 0.28871 0.81029 0.0
C555 C 0.60049 0.4469 0.83153 0.0
C556 C 0.57656 0.35794 0.83042 0.0
H557 H 0.62136 0.32163 0.83398 0.0
C558 C 0.55039 0.33223 0.82319 0.0
C559 C 0.60237 0.35333 0.83429 0.0
C560 C 0.63098 0.37848 0.8427 0.0
C561 C 0.54953 0.30333 0.81953 0.0
C562 C 0.5752 0.29856 0.82355 0.0
C563 C 0.60142 0.32433 0.83075 0.0
C564 C 0.57529 0.2674 0.82054 0.0
C565 C 0.52122 0.27861 0.81074 0.0
C566 C 0.54967 0.23778 0.8248 0.0
C567 C 0.54969 0.20918 0.82202 0.0
C568 C 0.57565 0.20835 0.81508 0.0
C569 C 0.60153 0.23815 0.81101 0.0
C570 C 0.60137 0.2668 0.8137 0.0
H571 H 0.50964 0.28926 0.80382 0.0
H572 H 0.5277 0.26506 0.80261 0.0
H573 H 0.5037 0.26213 0.8193 0.0
H574 H 0.52938 0.23655 0.83054 0.0
H575 H 0.52881 0.18759 0.82531 0.0
H576 H 0.60945 0.87757 0.53606 0.0
H577 H 0.60474 0.82628 0.53177 0.0
H578 H 0.58286 0.82947 0.48291 0.0
H579 H 0.58804 0.88139 0.48711 0.0
H580 H 0.56026 0.76825 0.52009 0.0
H581 H 0.66554 0.82807 0.48118 0.0
H582 H 0.65224 0.8498 0.49294 0.0
H583 H 0.63119 0.82997 0.47543 0.0
C584 C 0.60275 0.86698 0.52451 0.0
C585 C 0.59955 0.88353 0.51186 0.0
C586 C 0.60012 0.83772 0.52206 0.0
C587 C 0.59414 0.82452 0.50696 0.0
C588 C 0.58819 0.8397 0.49457 0.0
H589 H 0.60137 0.64927 0.5044 0.0
H590 H 0.58716 0.68787 0.49518 0.0
C591 C 0.5911 0.8692 0.49698 0.0
C592 C 0.59788 0.79689 0.50417 0.0
H593 H 0.65009 0.77677 0.48916 0.0
C594 C 0.57934 0.76968 0.513 0.0
C595 C 0.62313 0.79923 0.49504 0.0
C596 C 0.64437 0.82835 0.48566 0.0
C597 C 0.58657 0.74546 0.51373 0.0
C598 C 0.61262 0.74845 0.50515 0.0
C599 C 0.63002 0.77472 0.49558 0.0
C600 C 0.62462 0.7267 0.50785 0.0
C601 C 0.56786 0.71794 0.52455 0.0
C602 C 0.65122 0.73638 0.5174 0.0
C603 C 0.65945 0.71452 0.52265 0.0
C604 C 0.6412 0.68276 0.51835 0.0
C605 C 0.61599 0.67367 0.5078 0.0
C606 C 0.60772 0.69556 0.50259 0.0
H607 H 0.54997 0.72054 0.53139 0.0
H608 H 0.55562 0.69595 0.51756 0.0
H609 H 0.58388 0.71537 0.53291 0.0
H610 H 0.66449 0.76046 0.52153 0.0
H611 H 0.67916 0.72212 0.53064 0.0
H612 H 0.77153 0.55613 0.79858 0.0
H613 H 0.81025 0.53855 0.79952 0.0
H614 H 0.77108 0.4914 0.84348 0.0
H615 H 0.73131 0.50739 0.8422 0.0
H616 H 0.85336 0.55805 0.82223 0.0
H617 H 0.78765 0.42805 0.822 0.0
H618 H 0.76992 0.45107 0.81597 0.0
H619 H 0.77246 0.44354 0.83648 0.0
C620 C 0.77054 0.54118 0.80818 0.0
C621 C 0.74868 0.53349 0.82043 0.0
C622 C 0.79271 0.53124 0.80872 0.0
C623 C 0.79332 0.51346 0.82149 0.0
C624 C 0.77061 0.50453 0.83335 0.0
H625 H 0.94394 0.52026 0.87221 0.0
H626 H 0.9024 0.52692 0.86015 0.0
C627 C 0.74829 0.51422 0.83276 0.0
C628 C 0.82029 0.50831 0.82368 0.0
H629 H 0.8396 0.45279 0.83391 0.0
C630 C 0.85044 0.53494 0.82443 0.0
C631 C 0.81642 0.47817 0.82648 0.0
C632 C 0.78486 0.44858 0.82503 0.0
C633 C 0.87664 0.53243 0.82876 0.0
C634 C 0.87239 0.50257 0.83265 0.0
C635 C 0.84261 0.4757 0.83105 0.0
C636 C 0.89803 0.49907 0.83956 0.0
C637 C 0.90848 0.56187 0.82952 0.0
C638 C 0.90877 0.48072 0.83207 0.0
C639 C 0.93226 0.47656 0.83903 0.0
C640 C 0.94504 0.49049 0.85363 0.0
C641 C 0.93427 0.50898 0.86104 0.0
C642 C 0.91084 0.5131 0.85408 0.0
H643 H 0.9095 0.5806 0.82177 0.0
H644 H 0.91301 0.57098 0.84174 0.0
H645 H 0.92753 0.55702 0.82606 0.0
H646 H 0.89887 0.46955 0.82089 0.0
H647 H 0.93994 0.46194 0.83316 0.0
H648 H 0.26859 0.73791 0.1895 0.0
H649 H 0.3218 0.78046 0.18416 0.0
H650 H 0.29446 0.78854 0.13696 0.0
H651 H 0.24065 0.74672 0.14241 0.0
H652 H 0.3719 0.8007 0.16067 0.0
H653 H 0.30781 0.86847 0.15975 0.0
H654 H 0.28812 0.82789 0.1658 0.0
H655 H 0.29799 0.83792 0.14549 0.0
C656 C 0.27399 0.74847 0.17792 0.0
C657 C 0.25028 0.7398 0.16656 0.0
C658 C 0.30452 0.77236 0.17478 0.0
C659 C 0.31179 0.78789 0.16025 0.0
C660 C 0.2891 0.77696 0.14829 0.0
H661 H 0.4384 0.97963 0.18573 0.0
H662 H 0.41527 0.93923 0.1655 0.0
C663 C 0.2584 0.75311 0.15145 0.0
C664 C 0.34019 0.81917 0.15933 0.0
H665 H 0.36 0.89472 0.1674 0.0
C666 C 0.3697 0.8216 0.16159 0.0
C667 C 0.33732 0.84646 0.1602 0.0
C668 C 0.30619 0.84531 0.15772 0.0
C669 C 0.39567 0.85003 0.16646 0.0
C670 C 0.39148 0.87607 0.16957 0.0
C671 C 0.36314 0.87464 0.16525 0.0
C672 C 0.41266 0.90195 0.18019 0.0
C673 C 0.42673 0.85128 0.1691 0.0
C674 C 0.41946 0.89465 0.19513 0.0
C675 C 0.43327 0.91781 0.20663 0.0
C676 C 0.43984 0.94867 0.2036 0.0
C677 C 0.43394 0.9562 0.18848 0.0
C678 C 0.42071 0.93311 0.17686 0.0
H679 H 0.43071 0.83758 0.15989 0.0
H680 H 0.44675 0.8758 0.16904 0.0
H681 H 0.42619 0.84027 0.18058 0.0
H682 H 0.41256 0.87066 0.19824 0.0
H683 H 0.43816 0.9113 0.21801 0.0
H684 H 0.60833 0.23845 0.4586 0.0
H685 H 0.62488 0.29412 0.45514 0.0
H686 H 0.6823 0.31648 0.49689 0.0
H687 H 0.66649 0.26137 0.50005 0.0
H688 H 0.60193 0.31181 0.47801 0.0
H689 H 0.72744 0.39944 0.4753 0.0
H690 H 0.71259 0.35936 0.4688 0.0
H691 H 0.72277 0.36998 0.48916 0.0
C692 C 0.62587 0.25559 0.46648 0.0
C693 C 0.63561 0.24584 0.47981 0.0
C694 C 0.63539 0.28739 0.46448 0.0
C695 C 0.65464 0.30953 0.47581 0.0
C696 C 0.66784 0.30012 0.48783 0.0
H697 H 0.65966 0.41971 0.54613 0.0
H698 H 0.66878 0.39278 0.52441 0.0
C699 C 0.65841 0.26846 0.4898 0.0
C700 C 0.65267 0.33836 0.47834 0.0
H701 H 0.69582 0.41115 0.49463 0.0
C702 C 0.62248 0.33408 0.48103 0.0
C703 C 0.67939 0.36742 0.48223 0.0
C704 C 0.71231 0.37431 0.47854 0.0
C705 C 0.61828 0.35611 0.48955 0.0
C706 C 0.64512 0.38365 0.49503 0.0
C707 C 0.67529 0.38974 0.49063 0.0
C708 C 0.64235 0.40324 0.5074 0.0
C709 C 0.58521 0.348 0.49404 0.0
C710 C 0.62467 0.41821 0.50499 0.0
C711 C 0.61845 0.43263 0.51752 0.0
C712 C 0.63051 0.43304 0.53262 0.0
C713 C 0.64933 0.41913 0.53479 0.0
C714 C 0.65508 0.40427 0.52231 0.0
H715 H 0.56749 0.32344 0.49089 0.0
H716 H 0.58361 0.35108 0.50687 0.0
H717 H 0.57885 0.36393 0.4878 0.0
H718 H 0.61497 0.418 0.49352 0.0
H719 H 0.6037 0.44295 0.51542 0.0
H720 H 0.41232 0.55469 0.81899 0.0
H721 H 0.3713 0.56733 0.8118 0.0
H722 H 0.33784 0.55029 0.85965 0.0
H723 H 0.37787 0.53716 0.86678 0.0
H724 H 0.30802 0.5253 0.81388 0.0
H725 H 0.33355 0.62866 0.84927 0.0
H726 H 0.36382 0.61937 0.84401 0.0
H727 H 0.34005 0.60253 0.86135 0.0
C728 C 0.39639 0.55404 0.82799 0.0
C729 C 0.39827 0.54488 0.84346 0.0
C730 C 0.37324 0.56156 0.82388 0.0
C731 C 0.35205 0.56047 0.83525 0.0
C732 C 0.35467 0.55238 0.85079 0.0
H733 H 0.19153 0.46217 0.86487 0.0
H734 H 0.23144 0.48463 0.84444 0.0
C735 C 0.37754 0.54475 0.85486 0.0
C736 C 0.32406 0.56274 0.83095 0.0
H737 H 0.2774 0.58491 0.84988 0.0
C738 C 0.30146 0.53923 0.8212 0.0
C739 C 0.31576 0.58189 0.83977 0.0
C740 C 0.33983 0.60978 0.84902 0.0
C741 C 0.26958 0.53047 0.82252 0.0
C742 C 0.26055 0.54506 0.83413 0.0
C743 C 0.28391 0.57266 0.84139 0.0
C744 C 0.22966 0.52789 0.84216 0.0
C745 C 0.24576 0.50384 0.81253 0.0
C746 C 0.21465 0.54418 0.84756 0.0
C747 C 0.19266 0.53169 0.8597 0.0
C748 C 0.18494 0.50252 0.86634 0.0
C749 C 0.19728 0.48472 0.85986 0.0
C750 C 0.21974 0.49745 0.84796 0.0
H751 H 0.25435 0.50663 0.80024 0.0
H752 H 0.24285 0.48123 0.81694 0.0
H753 H 0.22252 0.5027 0.81256 0.0
H754 H 0.22185 0.56764 0.84332 0.0
H755 H 0.18297 0.54555 0.8645 0.0
H756 H 0.91343 0.36325 0.13135 0.0
H757 H 0.85709 0.3242 0.13038 0.0
H758 H 0.83717 0.3836 0.16003 0.0
H759 H 0.89319 0.42246 0.16091 0.0
H760 H 0.83387 0.29996 0.1599 0.0
H761 H 0.75879 0.34154 0.13219 0.0
H762 H 0.80011 0.35824 0.12758 0.0
H763 H 0.78814 0.37015 0.14505 0.0
C764 C 0.89671 0.3685 0.13695 0.0
C765 C 0.9072 0.39549 0.14624 0.0
C766 C 0.86466 0.34628 0.13642 0.0
C767 C 0.84303 0.35111 0.14509 0.0
C768 C 0.85334 0.37969 0.15301 0.0
H769 H 0.67546 0.24821 0.19848 0.0
H770 H 0.72333 0.28727 0.18506 0.0
C771 C 0.88531 0.40177 0.1536 0.0
C772 C 0.81206 0.32418 0.14916 0.0
H773 H 0.73401 0.30093 0.15186 0.0
C774 C 0.81188 0.2997 0.15779 0.0
C775 C 0.78367 0.32444 0.1467 0.0
C776 C 0.78258 0.34989 0.13725 0.0
C777 C 0.78423 0.27614 0.16467 0.0
C778 C 0.75594 0.27674 0.16248 0.0
C779 C 0.75585 0.30065 0.15346 0.0
C780 C 0.72647 0.25332 0.17004 0.0
C781 C 0.78585 0.25179 0.17489 0.0
C782 C 0.71255 0.2215 0.16591 0.0
C783 C 0.68547 0.1992 0.17361 0.0
C784 C 0.67183 0.20844 0.1855 0.0
C785 C 0.68566 0.24044 0.18946 0.0
C786 C 0.71277 0.26274 0.18174 0.0
H787 H 0.81047 0.25868 0.17808 0.0
H788 H 0.77215 0.24794 0.18587 0.0
H789 H 0.77551 0.22912 0.16845 0.0
H790 H 0.72279 0.21392 0.15683 0.0
H791 H 0.67553 0.17465 0.17045 0.0
H792 H 1.03269 0.5301 0.13521 0.0
H793 H 1.02372 0.51559 0.10736 0.0
H794 H 0.12091 0.58259 0.09731 0.0
H795 H 0.1301 0.59709 0.12514 0.0
H796 H 1.03456 0.55918 0.08204 0.0
H797 H 0.1054 0.49951 0.07626 0.0
H798 H 0.09206 0.50568 0.09501 0.0
H799 H 0.12514 0.53763 0.0854 0.0
C800 C 0.05218 0.54153 0.12706 0.0
C801 C 0.08207 0.56473 0.13224 0.0
C802 C 1.04702 0.53325 0.11121 0.0
C803 C 0.07174 0.54787 0.10038 0.0
C804 C 0.1017 0.57077 0.10557 0.0
H805 H 0.08863 0.5387 0.99974 0.0
H806 H 0.09748 0.55087 0.02779 0.0
C807 C 0.10686 0.5791 0.12141 0.0
C808 C 0.06584 0.54026 0.08353 0.0
H809 H 0.08566 0.50912 0.05272 0.0
C810 C 1.04554 0.54807 0.07561 0.0
C811 C 0.08046 0.526 0.07527 0.0
C812 C 0.10181 0.51644 0.0834 0.0
C813 C 1.03981 0.5424 0.05947 0.0
C814 C 0.0543 0.52797 0.05121 0.0
C815 C 0.07461 0.52017 0.05915 0.0
C816 C 1.0487 0.52076 0.03429 0.0
C817 C 1.01894 0.55259 0.05135 0.0
C818 C 1.0184 0.49958 0.02875 0.0
C819 C 1.01328 0.49254 0.01276 0.0
C820 C 1.03847 0.50635 1.00209 0.0
C821 C 0.06884 0.52741 0.00771 0.0
C822 C 0.07391 0.5345 0.02369 0.0
H823 H 1.01636 0.5703 0.05836 0.0
H824 H 1.02843 0.56269 0.0396 0.0
H825 H 0.99515 0.53184 0.04969 0.0
H826 H 0.99878 0.48825 0.03681 0.0
H827 H 0.98973 0.47588 0.00878 0.0
H828 H 0.63516 0.11926 0.46652 0.0
H829 H 0.627 0.1239 0.43839 0.0
H830 H 0.58269 1.023 0.43353 0.0
H831 H 0.58968 1.01842 0.4618 0.0
H832 H 0.65019 0.10721 0.41385 0.0
H833 H 0.51946 0.03961 0.41181 0.0
H834 H 0.54106 0.05213 0.43005 0.0
H835 H 0.537 1.01813 0.41988 0.0
C836 C 0.62345 0.09818 0.45938 0.0
C837 C 0.61287 0.06853 0.46607 0.0
C838 C 0.61882 0.10078 0.44339 0.0
C839 C 0.60381 0.07374 0.43392 0.0
C840 C 0.59354 0.04407 0.44068 0.0
H841 H 0.57276 0.05613 0.33247 0.0
H842 H 0.57669 0.04514 0.36021 0.0
C843 C 0.59774 0.04146 0.45673 0.0
C844 C 0.60021 0.07693 0.41688 0.0
H845 H 0.54603 0.05574 0.38738 0.0
C846 C 0.6274 0.09601 0.40808 0.0
C847 C 0.57045 0.06202 0.40935 0.0
C848 C 0.54029 0.04204 0.41827 0.0
C849 C 0.62564 0.10086 0.39199 0.0
C850 C 0.5959 0.08647 0.38456 0.0
C851 C 0.56876 0.06674 0.3932 0.0
C852 C 0.59249 0.09273 0.36795 0.0
C853 C 0.65561 0.12128 0.38302 0.0
C854 C 0.59951 0.12295 0.36328 0.0
C855 C 0.5971 0.12926 0.34753 0.0
C856 C 0.58752 0.10539 0.33618 0.0
C857 C 0.57989 0.07492 0.34097 0.0
C858 C 0.58227 0.06863 0.35676 0.0
H859 H 0.67672 0.12443 0.38947 0.0
H860 H 0.65494 0.11104 0.37129 0.0
H861 H 0.65813 0.14485 0.38121 0.0
H862 H 0.6069 0.14167 0.37185 0.0
H863 H 0.6026 0.1528 0.34424 0.0
H864 H 0.53328 0.47926 0.79361 0.0
H865 H 0.54805 0.4879 0.76572 0.0
H866 H 0.60816 0.58698 0.77468 0.0
H867 H 0.59374 0.57854 0.80252 0.0
H868 H 0.55716 0.56536 0.74935 0.0
H869 H 0.63924 0.51784 0.74469 0.0
H870 H 0.60353 0.49553 0.75582 0.0
H871 H 0.63325 0.53321 0.76287 0.0
C872 C 0.54981 0.5028 0.78961 0.0
C873 C 0.56233 0.52826 0.80012 0.0
C874 C 0.55834 0.50765 0.77377 0.0
C875 C 0.57931 0.53801 0.76829 0.0
C876 C 0.5921 0.56338 0.77879 0.0
H877 H 0.65293 0.61023 0.67545 0.0
H878 H 0.64628 0.60102 0.70387 0.0
C879 C 0.58381 0.55852 0.79463 0.0
C880 C 0.58596 0.54372 0.75138 0.0
H881 H 0.62513 0.53311 0.72098 0.0
C882 C 0.57207 0.55842 0.74312 0.0
C883 C 0.60556 0.53471 0.74346 0.0
C884 C 0.6215 0.51958 0.7521 0.0
C885 C 0.57686 0.56389 0.72695 0.0
C886 C 0.59598 0.55439 0.71896 0.0
C887 C 0.61035 0.54016 0.72725 0.0
C888 C 0.60082 0.55887 0.7019 0.0
C889 C 0.56143 0.57966 0.71842 0.0
C890 C 0.57745 0.53803 0.69157 0.0
C891 C 0.58108 0.54325 0.6754 0.0
C892 C 0.60812 0.56947 0.66937 0.0
C893 C 0.63169 0.59007 0.6798 0.0
C894 C 0.62808 0.58474 0.69597 0.0
H895 H 0.54978 0.58836 0.72661 0.0
H896 H 0.57918 0.59975 0.71139 0.0
H897 H 0.54345 0.56267 0.71016 0.0
H898 H 0.55621 0.51803 0.69605 0.0
H899 H 0.56244 0.52714 0.66765 0.0
H900 H 0.54405 0.03771 0.56147 0.0
H901 H 0.54802 1.03324 0.5899 0.0
H902 H 0.64923 0.0816 0.58639 0.0
H903 H 0.64534 0.08613 0.55774 0.0
H904 H 0.57689 1.005 0.60788 0.0
H905 H 0.63252 0.1333 0.61968 0.0
H906 H 0.61339 0.11607 0.60125 0.0
H907 H 0.6517 0.12144 0.60544 0.0
C908 C 0.56721 0.04738 0.56671 0.0
C909 C 0.59439 0.06254 0.55729 0.0
C910 C 0.56944 0.04474 0.58301 0.0
C911 C 0.59891 0.05745 0.59044 0.0
C912 C 0.62618 0.07204 0.58104 0.0
H913 H 0.64227 0.07856 0.69181 0.0
H914 H 0.64603 0.07992 0.66318 0.0
C915 C 0.62395 0.07449 0.56463 0.0
C916 C 0.60066 0.05556 0.608 0.0
H917 H 0.62269 0.10027 0.6415 0.0
C918 C 0.58703 1.02586 0.61523 0.0
C919 C 0.61407 0.08269 0.61768 0.0
C920 C 0.6286 0.11523 0.61071 0.0
C921 C 0.58637 1.02254 0.63173 0.0
C922 C 0.59872 0.04965 0.64147 0.0
C923 C 0.613 0.07939 0.6342 0.0
C924 C 0.59648 0.04775 0.65914 0.0
C925 C 0.57295 0.9899 0.63848 0.0
C926 C 0.56737 1.02941 0.66671 0.0
C927 C 0.56519 1.02808 0.68319 0.0
C928 C 0.59198 0.04554 0.69272 0.0
C929 C 0.62108 0.06422 0.68508 0.0
C930 C 0.62327 0.06529 0.66858 0.0
H931 H 0.57489 0.97369 0.63001 0.0
H932 H 0.5851 0.99005 0.64953 0.0
H933 H 0.54757 0.98032 0.64103 0.0
H934 H 0.54607 1.01626 0.65987 0.0
H935 H 0.54236 1.01308 0.68841 0.0
H936 H 0.64628 0.57356 0.8941 0.0
H937 H 0.6392 0.57136 0.9226 0.0
H938 H 0.53921 0.51068 0.91661 0.0
H939 H 0.54629 0.5127 0.8879 0.0
H940 H 0.60318 0.59015 0.94056 0.0
H941 H 0.56169 0.46316 0.94942 0.0
H942 H 0.58055 0.48349 0.93149 0.0
H943 H 0.54017 0.47217 0.93519 0.0
C944 C 0.62274 0.55957 0.89881 0.0
C945 C 0.59684 0.54331 0.88866 0.0
C946 C 0.61873 0.5584 0.91517 0.0
C947 C 0.58872 0.54064 0.92191 0.0
C948 C 0.56271 0.5242 0.9118 0.0
H949 H 0.52776 0.50653 0.02051 0.0
H950 H 0.53103 0.50636 0.99192 0.0
C951 C 0.56672 0.52552 0.89536 0.0
C952 C 0.58501 0.5402 0.93946 0.0
H953 H 0.56326 0.49231 0.97182 0.0
C954 C 0.59446 0.56872 0.94738 0.0
C955 C 0.57342 0.5123 0.94847 0.0
C956 C 0.56357 0.48102 0.94079 0.0
C957 C 0.59247 0.57012 0.96389 0.0
C958 C 0.58165 0.54234 0.97298 0.0
C959 C 0.57179 0.51372 0.96502 0.0
C960 C 0.58007 0.54242 0.99067 0.0
C961 C 0.60126 0.60137 0.97134 0.0
C962 C 0.60666 0.56227 0.99982 0.0
C963 C 0.60476 0.56283 0.01632 0.0
C964 C 0.57627 0.54325 0.02423 0.0
C965 C 0.54999 0.52261 0.01502 0.0
C966 C 0.55187 0.52223 0.99855 0.0
H967 H 0.59931 0.61751 0.96282 0.0
H968 H 0.58605 0.59841 0.98161 0.0
H969 H 0.62608 0.61278 0.97538 0.0
H970 H 0.62902 0.57749 0.99422 0.0
H971 H 0.62556 0.57916 0.02282 0.0
H972 H 1.01909 0.52366 0.22945 0.0
H973 H 1.0253 0.5286 0.25798 0.0
H974 H 0.12466 0.59308 0.2524 0.0
H975 H 0.11845 0.58844 0.22366 0.0
H976 H 0.06064 0.51299 0.27694 0.0
H977 H 0.10058 0.63992 0.28394 0.0
H978 H 0.08344 0.61889 0.2659 0.0
H979 H 0.12381 0.63148 0.27059 0.0
C980 C 1.04228 0.53915 0.23425 0.0
C981 C 0.06827 0.55566 0.2242 0.0
C982 C 1.04581 0.5419 0.25063 0.0
C983 C 0.07539 0.56142 0.25751 0.0
C984 C 0.10143 0.57828 0.24749 0.0
H985 H 0.13846 0.60208 0.35557 0.0
H986 H 0.13432 0.59955 0.32691 0.0
C987 C 0.0979 0.57552 0.23102 0.0
C988 C 0.07883 0.56287 0.2751 0.0
H989 H 0.1011 0.6126 0.30677 0.0
C990 C 0.06943 0.5348 0.28345 0.0
C991 C 0.09041 0.59126 0.28372 0.0
C992 C 0.0999 0.62209 0.27564 0.0
C993 C 0.07165 0.53434 0.29998 0.0
C994 C 0.08283 0.56266 0.30865 0.0
C995 C 0.09243 0.59079 0.30028 0.0
C996 C 0.0851 0.56373 0.32632 0.0
C997 C 0.06274 0.50349 0.3079 0.0
C998 C 0.05883 0.54465 0.33582 0.0
C999 C 0.06122 0.54586 0.35232 0.0
C1000 C 0.08981 0.56666 0.35982 0.0
C1001 C 0.11596 0.58596 0.35029 0.0
C1002 C 0.11363 0.58451 0.33382 0.0
H1003 H 0.06419 0.48668 0.29965 0.0
H1004 H 0.07818 0.50692 0.31814 0.0
H1005 H 1.03805 0.4926 0.31208 0.0
H1006 H 1.03624 0.52904 0.33049 0.0
H1007 H 1.04045 0.53102 0.35921 0.0
loop_
_geom_bond_atom_site_label_1
_geom_bond_atom_site_label_2
_geom_bond_distance
_geom_bond_site_symmetry_2
_ccdc_geom_bond_type
C0 Eu1 2.835 1_655 S
C0 C2 1.500 . S
C0 O20 1.257 . S
C0 O21 1.260 . S
Eu1 C0 2.835 1_455 S
Eu1 O20 2.473 1_455 S
Eu1 O21 2.480 1_455 S
Eu1 O22 2.430 . S
Eu1 O23 2.670 . S
Eu1 O24 2.394 1_455 S
Eu1 O29 2.355 . S
Eu1 O31 2.374 . S
C2 C0 1.500 . S
C2 C3 1.377 . S
C2 C7 1.377 . S
C3 C2 1.377 . S
C3 C4 1.395 . S
C3 H32 0.931 . S
C4 C3 1.395 . S
C4 C5 1.383 . S
C4 H33 0.931 . S
C5 C4 1.383 . S
C5 C6 1.394 . S
C6 C5 1.394 . S
C6 C7 1.378 . S
C6 H34 0.931 . S
C7 C2 1.377 . S
C7 C6 1.378 . S
C7 H35 0.931 . S
C8 O22 1.259 . S
C8 O23 1.270 . S
C9 O24 1.251 . S
C9 O25 1.251 . S
C10 Eu11 2.835 . S
C10 C12 1.500 . S
C10 O26 1.257 . S
C10 O27 1.260 . S
Eu11 C10 2.835 . S
Eu11 O23 2.355 . S
Eu11 O25 2.374 1_455 S
Eu11 O26 2.473 . S
Eu11 O27 2.480 . S
Eu11 O28 2.430 . S
Eu11 O29 2.670 . S
Eu11 O30 2.394 . S
C12 C10 1.500 . S
C12 C13 1.377 . S
C12 C17 1.377 . S
C13 C12 1.377 . S
C13 C14 1.395 . S
C13 H36 0.931 . S
C14 C13 1.395 . S
C14 C15 1.383 . S
C14 H37 0.931 . S
C15 C14 1.383 . S
C15 C16 1.394 . S
C16 C15 1.394 . S
C16 C17 1.378 . S
C16 H38 0.931 . S
C17 C12 1.377 . S
C17 C16 1.378 . S
C17 H39 0.931 . S
C18 O28 1.259 . S
C18 O29 1.270 . S
C19 O30 1.251 . S
C19 O31 1.251 . S
O20 C0 1.257 . S
O20 Eu1 2.473 1_655 S
O21 C0 1.260 . S
O21 Eu1 2.480 1_655 S
O22 Eu1 2.430 . S
O22 C8 1.259 . S
O23 Eu1 2.670 . S
O23 C8 1.270 . S
O23 Eu11 2.355 . S
O24 Eu1 2.394 1_655 S
O24 C9 1.251 . S
O25 C9 1.251 . S
O25 Eu11 2.374 1_655 S
O26 C10 1.257 . S
O26 Eu11 2.473 . S
O27 C10 1.260 . S
O27 Eu11 2.480 . S
O28 Eu11 2.430 . S
O28 C18 1.259 . S
O29 Eu1 2.355 . S
O29 Eu11 2.670 . S
O29 C18 1.270 . S
O30 Eu11 2.394 . S
O30 C19 1.251 . S
O31 Eu1 2.374 . S
O31 C19 1.251 . S
H32 C3 0.931 . S
H33 C4 0.931 . S
H34 C6 0.931 . S
H35 C7 0.931 . S
H36 C13 0.931 . S
H37 C14 0.931 . S
H38 C16 0.931 . S
H39 C17 0.931 . S
C40 Eu41 2.835 . S
C40 C42 1.500 . S
C40 O60 1.257 . S
C40 O61 1.260 . S
Eu41 C40 2.835 . S
Eu41 O60 2.473 . S
Eu41 O61 2.480 . S
Eu41 O62 2.430 . S
Eu41 O63 2.670 . S
Eu41 O64 2.394 . S
Eu41 O69 2.355 . S
Eu41 O71 2.374 1_545 S
C42 C40 1.500 . S
C42 C43 1.377 . S
C42 C47 1.377 . S
C43 C42 1.377 . S
C43 C44 1.395 . S
C43 H72 0.931 . S
C44 C43 1.395 . S
C44 C45 1.383 . S
C44 H73 0.931 . S
C45 C44 1.383 . S
C45 C46 1.394 . S
C46 C45 1.394 . S
C46 C47 1.378 . S
C46 H74 0.931 . S
C47 C42 1.377 . S
C47 C46 1.378 . S
C47 H75 0.931 . S
C48 O62 1.259 . S
C48 O63 1.270 . S
C49 O64 1.251 . S
C49 O65 1.251 . S
C50 Eu51 2.835 1_565 S
C50 C52 1.500 . S
C50 O66 1.257 . S
C50 O67 1.260 . S
Eu51 C50 2.835 1_545 S
Eu51 O63 2.355 . S
Eu51 O65 2.374 . S
Eu51 O66 2.473 1_545 S
Eu51 O67 2.480 1_545 S
Eu51 O68 2.430 . S
Eu51 O69 2.670 . S
Eu51 O70 2.394 1_545 S
C52 C50 1.500 . S
C52 C53 1.377 . S
C52 C57 1.377 . S
C53 C52 1.377 . S
C53 C54 1.395 . S
C53 H76 0.931 . S
C54 C53 1.395 . S
C54 C55 1.383 . S
C54 H77 0.931 . S
C55 C54 1.383 . S
C55 C56 1.394 . S
C56 C55 1.394 . S
C56 C57 1.378 . S
C56 H78 0.931 . S
C57 C52 1.377 . S
C57 C56 1.378 . S
C57 H79 0.931 . S
C58 O68 1.259 . S
C58 O69 1.270 . S
C59 O70 1.251 . S
C59 O71 1.251 . S
O60 C40 1.257 . S
O60 Eu41 2.473 . S
O61 C40 1.260 . S
O61 Eu41 2.480 . S
O62 Eu41 2.430 . S
O62 C48 1.259 . S
O63 Eu41 2.670 . S
O63 C48 1.270 . S
O63 Eu51 2.355 . S
O64 Eu41 2.394 . S
O64 C49 1.251 . S
O65 C49 1.251 . S
O65 Eu51 2.374 . S
O66 C50 1.257 . S
O66 Eu51 2.473 1_565 S
O67 C50 1.260 . S
O67 Eu51 2.480 1_565 S
O68 Eu51 2.430 . S
O68 C58 1.259 . S
O69 Eu41 2.355 . S
O69 Eu51 2.670 . S
O69 C58 1.270 . S
O70 Eu51 2.394 1_565 S
O70 C59 1.251 . S
O71 Eu41 2.374 1_565 S
O71 C59 1.251 . S
H72 C43 0.931 . S
H73 C44 0.931 . S
H74 C46 0.931 . S
H75 C47 0.931 . S
H76 C53 0.931 . S
H77 C54 0.931 . S
H78 C56 0.931 . S
H79 C57 0.931 . S
C80 Eu81 2.835 . S
C80 C82 1.500 . S
C80 O100 1.257 . S
C80 O101 1.260 . S
Eu81 C80 2.835 . S
Eu81 O100 2.473 . S
Eu81 O101 2.480 . S
Eu81 O102 2.430 . S
Eu81 O103 2.670 . S
Eu81 O104 2.394 . S
Eu81 O109 2.355 . S
Eu81 O111 2.374 . S
C82 C80 1.500 . S
C82 C83 1.377 . S
C82 C87 1.377 . S
C83 C82 1.377 . S
C83 C84 1.395 . S
C83 H112 0.931 . S
C84 C83 1.395 . S
C84 C85 1.383 . S
C84 H113 0.931 . S
C85 C84 1.383 . S
C85 C86 1.394 . S
C86 C85 1.394 . S
C86 C87 1.378 . S
C86 H114 0.931 . S
C87 C82 1.377 . S
C87 C86 1.378 . S
C87 H115 0.931 . S
C88 O102 1.259 . S
C88 O103 1.270 . S
C89 O104 1.251 . S
C89 O105 1.251 . S
C90 Eu91 2.835 . S
C90 C92 1.500 . S
C90 O106 1.257 . S
C90 O107 1.260 . S
Eu91 C90 2.835 . S
Eu91 O103 2.355 . S
Eu91 O105 2.374 . S
Eu91 O106 2.473 . S
Eu91 O107 2.480 . S
Eu91 O108 2.430 . S
Eu91 O109 2.670 . S
Eu91 O110 2.394 . S
C92 C90 1.500 . S
C92 C93 1.377 . S
C92 C97 1.377 . S
C93 C92 1.377 . S
C93 C94 1.395 . S
C93 H116 0.931 . S
C94 C93 1.395 . S
C94 C95 1.383 . S
C94 H117 0.931 . S
C95 C94 1.383 . S
C95 C96 1.394 . S
C96 C95 1.394 . S
C96 C97 1.378 . S
C96 H118 0.931 . S
C97 C92 1.377 . S
C97 C96 1.378 . S
C97 H119 0.931 . S
C98 O108 1.259 . S
C98 O109 1.270 . S
C99 O110 1.251 . S
C99 O111 1.251 . S
O100 C80 1.257 . S
O100 Eu81 2.473 . S
O101 C80 1.260 . S
O101 Eu81 2.480 . S
O102 Eu81 2.430 . S
O102 C88 1.259 . S
O103 Eu81 2.670 . S
O103 C88 1.270 . S
O103 Eu91 2.355 . S
O104 Eu81 2.394 . S
O104 C89 1.251 . S
O105 C89 1.251 . S
O105 Eu91 2.374 . S
O106 C90 1.257 . S
O106 Eu91 2.473 . S
O107 C90 1.260 . S
O107 Eu91 2.480 . S
O108 Eu91 2.430 . S
O108 C98 1.259 . S
O109 Eu81 2.355 . S
O109 Eu91 2.670 . S
O109 C98 1.270 . S
O110 Eu91 2.394 . S
O110 C99 1.251 . S
O111 Eu81 2.374 . S
O111 C99 1.251 . S
H112 C83 0.931 . S
H113 C84 0.931 . S
H114 C86 0.931 . S
H115 C87 0.931 . S
H116 C93 0.931 . S
H117 C94 0.931 . S
H118 C96 0.931 . S
H119 C97 0.931 . S
C120 C121 1.264 . S
C120 C125 1.479 . S
C120 C130 1.465 . S
C121 C120 1.264 . S
C121 C123 1.339 . S
C121 H148 0.931 . S
C122 C123 1.395 . S
C122 C124 1.320 . S
C123 C121 1.339 . S
C123 C122 1.395 . S
C123 H149 0.929 . S
C124 C122 1.320 . S
C124 C125 1.405 . S
C124 H150 0.930 . S
C125 C120 1.479 . S
C125 C124 1.405 . S
C125 H151 0.931 . S
U126 O127 2.454 . S
U126 O128 2.458 . S
U126 C129 2.984 . S
U126 C130 2.847 . S
U126 C143 2.882 . S
U126 O144 2.441 . S
U126 O145 2.420 . S
U126 O146 2.455 . S
U126 O147 2.449 . S
O127 U126 2.454 . S
O127 C129 1.353 . S
O128 U126 2.458 . S
O128 C129 1.286 . S
C129 U126 2.984 . S
C129 O127 1.353 . S
C129 O128 1.286 . S
C129 C131 1.363 1_545 S
C130 C120 1.465 . S
C130 U126 2.847 . S
C130 O144 1.249 . S
C130 O145 1.202 . S
C131 C129 1.363 1_565 S
C131 C133 1.408 . S
C131 C136 1.342 . S
C132 C133 1.310 . S
C132 C135 1.461 . S
C132 H152 0.932 . S
C133 C131 1.408 . S
C133 C132 1.310 . S
C133 H153 0.930 . S
C134 C135 1.474 . S
C134 C136 1.285 . S
C134 H154 0.929 . S
C135 C132 1.461 . S
C135 C134 1.474 . S
C136 C131 1.342 . S
C136 C134 1.285 . S
C136 H155 0.930 . S
C137 C140 1.424 . S
C137 C142 1.245 . S
C137 C143 1.428 . S
C138 C141 1.260 . S
C138 C142 1.477 . S
C138 H156 0.932 . S
C139 C140 1.384 . S
C139 C141 1.479 . S
C139 H157 0.929 . S
C140 C137 1.424 . S
C140 C139 1.384 . S
C140 H158 0.928 . S
C141 C138 1.260 . S
C141 C139 1.479 . S
C142 C137 1.245 . S
C142 C138 1.477 . S
C142 H159 0.932 . S
C143 U126 2.882 . S
C143 C137 1.428 . S
C143 O146 1.301 . S
C143 O147 1.282 . S
O144 U126 2.441 . S
O144 C130 1.249 . S
O145 U126 2.420 . S
O145 C130 1.202 . S
O146 U126 2.455 . S
O146 C143 1.301 . S
O147 U126 2.449 . S
O147 C143 1.282 . S
H148 C121 0.931 . S
H149 C123 0.929 . S
H150 C124 0.930 . S
H151 C125 0.931 . S
H152 C132 0.932 . S
H153 C133 0.930 . S
H154 C134 0.929 . S
H155 C136 0.930 . S
H156 C138 0.932 . S
H157 C139 0.929 . S
H158 C140 0.928 . S
H159 C142 0.932 . S
C160 C161 1.264 . S
C160 C165 1.479 . S
C160 C170 1.465 . S
C161 C160 1.264 . S
C161 C163 1.339 . S
C161 H188 0.931 . S
C162 C163 1.395 . S
C162 C164 1.320 . S
C163 C161 1.339 . S
C163 C162 1.395 . S
C163 H189 0.929 . S
C164 C162 1.320 . S
C164 C165 1.405 . S
C164 H190 0.930 . S
C165 C160 1.479 . S
C165 C164 1.405 . S
C165 H191 0.931 . S
U166 O167 2.454 . S
U166 O168 2.458 . S
U166 C169 2.984 . S
U166 C170 2.847 . S
U166 C183 2.882 . S
U166 O184 2.441 . S
U166 O185 2.420 . S
U166 O186 2.455 . S
U166 O187 2.449 . S
O167 U166 2.454 . S
O167 C169 1.353 . S
O168 U166 2.458 . S
O168 C169 1.286 . S
C169 U166 2.984 . S
C169 O167 1.353 . S
C169 O168 1.286 . S
C169 C171 1.363 . S
C170 C160 1.465 . S
C170 U166 2.847 . S
C170 O184 1.249 . S
C170 O185 1.202 . S
C171 C169 1.363 . S
C171 C173 1.408 . S
C171 C176 1.342 . S
C172 C173 1.310 . S
C172 C175 1.461 . S
C172 H192 0.932 . S
C173 C171 1.408 . S
C173 C172 1.310 . S
C173 H193 0.930 . S
C174 C175 1.474 . S
C174 C176 1.285 . S
C174 H194 0.929 . S
C175 C172 1.461 . S
C175 C174 1.474 . S
C176 C171 1.342 . S
C176 C174 1.285 . S
C176 H195 0.930 . S
C177 C180 1.424 . S
C177 C182 1.245 . S
C177 C183 1.428 . S
C178 C181 1.260 . S
C178 C182 1.477 . S
C178 H196 0.932 . S
C179 C180 1.384 . S
C179 C181 1.479 . S
C179 H197 0.929 . S
C180 C177 1.424 . S
C180 C179 1.384 . S
C180 H198 0.928 . S
C181 C178 1.260 . S
C181 C179 1.479 . S
C182 C177 1.245 . S
C182 C178 1.477 . S
C182 H199 0.932 . S
C183 U166 2.882 . S
C183 C177 1.428 . S
C183 O186 1.301 . S
C183 O187 1.282 . S
O184 U166 2.441 . S
O184 C170 1.249 . S
O185 U166 2.420 . S
O185 C170 1.202 . S
O186 U166 2.455 . S
O186 C183 1.301 . S
O187 U166 2.449 . S
O187 C183 1.282 . S
H188 C161 0.931 . S
H189 C163 0.929 . S
H190 C164 0.930 . S
H191 C165 0.931 . S
H192 C172 0.932 . S
H193 C173 0.930 . S
H194 C174 0.929 . S
H195 C176 0.930 . S
H196 C178 0.932 . S
H197 C179 0.929 . S
H198 C180 0.928 . S
H199 C182 0.932 . S
C200 C201 1.264 . S
C200 C205 1.479 . S
C200 C210 1.465 . S
C201 C200 1.264 . S
C201 C203 1.339 . S
C201 H228 0.931 . S
C202 C203 1.395 . S
C202 C204 1.320 . S
C203 C201 1.339 . S
C203 C202 1.395 . S
C203 H229 0.929 . S
C204 C202 1.320 . S
C204 C205 1.405 . S
C204 H230 0.930 . S
C205 C200 1.479 . S
C205 C204 1.405 . S
C205 H231 0.931 . S
U206 O207 2.454 1_655 S
U206 O208 2.458 1_655 S
U206 C209 2.984 1_655 S
U206 C210 2.847 . S
U206 C223 2.882 . S
U206 O224 2.441 . S
U206 O225 2.420 . S
U206 O226 2.455 1_655 S
U206 O227 2.449 . S
O207 U206 2.454 1_455 S
O207 C209 1.353 . S
O208 U206 2.458 1_455 S
O208 C209 1.286 . S
C209 U206 2.984 1_455 S
C209 O207 1.353 . S
C209 O208 1.286 . S
C209 C211 1.363 . S
C210 C200 1.465 . S
C210 U206 2.847 . S
C210 O224 1.249 . S
C210 O225 1.202 . S
C211 C209 1.363 . S
C211 C213 1.408 . S
C211 C216 1.342 . S
C212 C213 1.310 . S
C212 C215 1.461 . S
C212 H232 0.932 . S
C213 C211 1.408 . S
C213 C212 1.310 . S
C213 H233 0.930 . S
C214 C215 1.474 . S
C214 C216 1.285 . S
C214 H234 0.929 . S
C215 C212 1.461 . S
C215 C214 1.474 . S
C216 C211 1.342 . S
C216 C214 1.285 . S
C216 H235 0.930 . S
C217 C220 1.424 1_455 S
C217 C222 1.245 . S
C217 C223 1.428 1_455 S
C218 C221 1.260 . S
C218 C222 1.477 . S
C218 H236 0.932 . S
C219 C220 1.384 . S
C219 C221 1.479 1_655 S
C219 H237 0.929 . S
C220 C217 1.424 1_655 S
C220 C219 1.384 . S
C220 H238 0.928 . S
C221 C218 1.260 . S
C221 C219 1.479 1_455 S
C222 C217 1.245 . S
C222 C218 1.477 . S
C222 H239 0.932 . S
C223 U206 2.882 . S
C223 C217 1.428 1_655 S
C223 O226 1.301 1_655 S
C223 O227 1.282 . S
O224 U206 2.441 . S
O224 C210 1.249 . S
O225 U206 2.420 . S
O225 C210 1.202 . S
O226 U206 2.455 1_455 S
O226 C223 1.301 1_455 S
O227 U206 2.449 . S
O227 C223 1.282 . S
H228 C201 0.931 . S
H229 C203 0.929 . S
H230 C204 0.930 . S
H231 C205 0.931 . S
H232 C212 0.932 . S
H233 C213 0.930 . S
H234 C214 0.929 . S
H235 C216 0.930 . S
H236 C218 0.932 . S
H237 C219 0.929 . S
H238 C220 0.928 . S
H239 C222 0.932 . S
C240 C241 1.264 . S
C240 C245 1.479 . S
C240 C250 1.465 . S
C241 C240 1.264 . S
C241 C243 1.339 . S
C241 H268 0.931 . S
C242 C243 1.395 . S
C242 C244 1.320 . S
C243 C241 1.339 . S
C243 C242 1.395 . S
C243 H269 0.929 . S
C244 C242 1.320 . S
C244 C245 1.405 . S
C244 H270 0.930 . S
C245 C240 1.479 . S
C245 C244 1.405 . S
C245 H271 0.931 . S
U246 O247 2.454 . S
U246 O248 2.458 . S
U246 C249 2.984 . S
U246 C250 2.847 1_455 S
U246 C263 2.882 . S
U246 O264 2.441 . S
U246 O265 2.420 1_455 S
U246 O266 2.455 . S
U246 O267 2.449 . S
O247 U246 2.454 . S
O247 C249 1.353 . S
O248 U246 2.458 . S
O248 C249 1.286 . S
C249 U246 2.984 . S
C249 O247 1.353 . S
C249 O248 1.286 . S
C249 C251 1.363 . S
C250 C240 1.465 . S
C250 U246 2.847 1_655 S
C250 O264 1.249 1_655 S
C250 O265 1.202 . S
C251 C249 1.363 . S
C251 C253 1.408 . S
C251 C256 1.342 . S
C252 C253 1.310 . S
C252 C255 1.461 . S
C252 H272 0.932 . S
C253 C251 1.408 . S
C253 C252 1.310 . S
C253 H273 0.930 . S
C254 C255 1.474 . S
C254 C256 1.285 . S
C254 H274 0.929 . S
C255 C252 1.461 . S
C255 C254 1.474 . S
C256 C251 1.342 . S
C256 C254 1.285 . S
C256 H275 0.930 . S
C257 C260 1.424 . S
C257 C262 1.245 . S
C257 C263 1.428 . S
C258 C261 1.260 . S
C258 C262 1.477 . S
C258 H276 0.932 . S
C259 C260 1.384 . S
C259 C261 1.479 . S
C259 H277 0.952 . S
C260 C257 1.424 . S
C260 C259 1.384 . S
C260 H278 0.928 . S
C261 C258 1.260 . S
C261 C259 1.479 . S
C262 C257 1.245 . S
C262 C258 1.477 . S
C262 H279 0.932 . S
C263 U246 2.882 . S
C263 C257 1.428 . S
C263 O266 1.301 . S
C263 O267 1.282 . S
O264 U246 2.441 . S
O264 C250 1.249 1_455 S
O265 U246 2.420 1_655 S
O265 C250 1.202 . S
O266 U246 2.455 . S
O266 C263 1.301 . S
O267 U246 2.449 . S
O267 C263 1.282 . S
H268 C241 0.931 . S
H269 C243 0.929 . S
H270 C244 0.930 . S
H271 C245 0.931 . S
H272 C252 0.932 . S
H273 C253 0.930 . S
H274 C254 0.929 . S
H275 C256 0.930 . S
H276 C258 0.932 . S
H277 C259 0.952 . S
H278 C260 0.928 . S
H279 C262 0.932 . S
C280 C281 1.264 . S
C280 C285 1.479 . S
C280 C290 1.465 . S
C281 C280 1.264 . S
C281 C283 1.339 . S
C281 H308 0.931 . S
C282 C283 1.395 . S
C282 C284 1.320 . S
C283 C281 1.339 . S
C283 C282 1.395 . S
C283 H309 0.929 . S
C284 C282 1.320 . S
C284 C285 1.405 . S
C284 H310 0.930 . S
C285 C280 1.479 . S
C285 C284 1.405 . S
C285 H311 0.931 . S
U286 O287 2.454 1_565 S
U286 O288 2.458 1_565 S
U286 C289 2.984 1_565 S
U286 C290 2.847 . S
U286 C303 2.882 . S
U286 O304 2.441 . S
U286 O305 2.420 . S
U286 O306 2.455 1_565 S
U286 O307 2.449 . S
O287 U286 2.454 1_545 S
O287 C289 1.353 . S
O288 U286 2.458 1_545 S
O288 C289 1.286 . S
C289 U286 2.984 1_545 S
C289 O287 1.353 . S
C289 O288 1.286 . S
C289 C291 1.363 . S
C290 C280 1.465 . S
C290 U286 2.847 . S
C290 O304 1.249 . S
C290 O305 1.202 . S
C291 C289 1.363 . S
C291 C293 1.408 . S
C291 C296 1.342 . S
C292 C293 1.310 . S
C292 C295 1.461 . S
C292 H312 0.932 . S
C293 C291 1.408 . S
C293 C292 1.310 . S
C293 H313 0.930 . S
C294 C295 1.474 . S
C294 C296 1.285 . S
C294 H314 0.929 . S
C295 C292 1.461 . S
C295 C294 1.474 . S
C296 C291 1.342 . S
C296 C294 1.285 . S
C296 H315 0.930 . S
C297 C300 1.424 1_545 S
C297 C302 1.245 . S
C297 C303 1.428 1_545 S
C298 C301 1.260 . S
C298 C302 1.477 . S
C298 H316 0.932 . S
C299 C300 1.384 . S
C299 C301 1.479 1_565 S
C299 H317 0.929 . S
C300 C297 1.424 1_565 S
C300 C299 1.384 . S
C300 H318 0.928 . S
C301 C298 1.260 . S
C301 C299 1.479 1_545 S
C302 C297 1.245 . S
C302 C298 1.477 . S
C302 H319 0.932 . S
C303 U286 2.882 . S
C303 C297 1.428 1_565 S
C303 O306 1.301 1_565 S
C303 O307 1.282 . S
O304 U286 2.441 . S
O304 C290 1.249 . S
O305 U286 2.420 . S
O305 C290 1.202 . S
O306 U286 2.455 1_545 S
O306 C303 1.301 1_545 S
O307 U286 2.449 . S
O307 C303 1.282 . S
H308 C281 0.931 . S
H309 C283 0.929 . S
H310 C284 0.930 . S
H311 C285 0.931 . S
H312 C292 0.932 . S
H313 C293 0.930 . S
H314 C294 0.929 . S
H315 C296 0.930 . S
H316 C298 0.932 . S
H317 C299 0.929 . S
H318 C300 0.928 . S
H319 C302 0.932 . S
C320 C321 1.264 . S
C320 C325 1.479 . S
C320 C330 1.465 . S
C321 C320 1.264 . S
C321 C323 1.339 . S
C321 H348 0.931 . S
C322 C323 1.395 . S
C322 C324 1.320 . S
C323 C321 1.339 . S
C323 C322 1.395 . S
C323 H349 0.929 . S
C324 C322 1.320 . S
C324 C325 1.405 . S
C324 H350 0.930 . S
C325 C320 1.479 . S
C325 C324 1.405 . S
C325 H351 0.931 . S
U326 O327 2.454 . S
U326 O328 2.458 . S
U326 C329 2.984 . S
U326 C330 2.847 . S
U326 C343 2.882 . S
U326 O344 2.441 . S
U326 O345 2.420 . S
U326 O346 2.455 . S
U326 O347 2.449 . S
O327 U326 2.454 . S
O327 C329 1.353 . S
O328 U326 2.458 . S
O328 C329 1.286 . S
C329 U326 2.984 . S
C329 O327 1.353 . S
C329 O328 1.286 . S
C329 C331 1.363 . S
C330 C320 1.465 . S
C330 U326 2.847 . S
C330 O344 1.249 . S
C330 O345 1.202 . S
C331 C329 1.363 . S
C331 C333 1.408 . S
C331 C336 1.342 . S
C332 C333 1.310 . S
C332 C335 1.461 . S
C332 H352 0.932 . S
C333 C331 1.408 . S
C333 C332 1.310 . S
C333 H353 0.930 . S
C334 C335 1.474 . S
C334 C336 1.285 . S
C334 H354 0.929 . S
C335 C332 1.461 . S
C335 C334 1.474 . S
C336 C331 1.342 . S
C336 C334 1.285 . S
C336 H355 0.930 . S
C337 C340 1.424 . S
C337 C342 1.245 . S
C337 C343 1.428 . S
C338 C341 1.260 . S
C338 C342 1.477 . S
C338 H356 0.932 . S
C339 C340 1.384 . S
C339 C341 1.479 . S
C339 H357 0.929 . S
C340 C337 1.424 . S
C340 C339 1.384 . S
C340 H358 0.928 . S
C341 C338 1.260 . S
C341 C339 1.479 . S
C342 C337 1.245 . S
C342 C338 1.477 . S
C342 H359 0.932 . S
C343 U326 2.882 . S
C343 C337 1.428 . S
C343 O346 1.301 . S
C343 O347 1.282 . S
O344 U326 2.441 . S
O344 C330 1.249 . S
O345 U326 2.420 . S
O345 C330 1.202 . S
O346 U326 2.455 . S
O346 C343 1.301 . S
O347 U326 2.449 . S
O347 C343 1.282 . S
H348 C321 0.931 . S
H349 C323 0.929 . S
H350 C324 0.930 . S
H351 C325 0.931 . S
H352 C332 0.932 . S
H353 C333 0.930 . S
H354 C334 0.929 . S
H355 C336 0.930 . S
H356 C338 0.932 . S
H357 C339 0.929 . S
H358 C340 0.928 . S
H359 C342 0.932 . S
H360 C368 0.929 . S
H361 C370 0.930 . S
H362 C372 0.930 . S
H363 C375 0.929 . S
H364 C378 0.930 . S
H365 C380 0.960 . S
H366 C380 0.960 . S
H367 C380 0.960 . S
C368 H360 0.929 . S
C368 C369 1.377 . S
C368 C370 1.384 . S
C369 C368 1.377 . S
C369 C375 1.390 . S
C370 H361 0.930 . S
C370 C368 1.384 . S
C370 C371 1.372 . S
C371 C370 1.372 . S
C371 C372 1.400 . S
C371 C376 1.490 . S
C372 H362 0.930 . S
C372 C371 1.400 . S
C372 C375 1.386 . S
H373 C389 0.930 . S
H374 C390 0.931 . S
C375 H363 0.929 . S
C375 C369 1.390 . S
C375 C372 1.386 . S
C376 C371 1.490 . S
C376 C378 1.395 . S
C376 C379 1.403 . S
H377 C383 0.930 . S
C378 H364 0.930 . S
C378 C376 1.395 . S
C378 C381 1.403 . S
C379 C376 1.403 . S
C379 C380 1.524 . S
C379 C383 1.400 . S
C380 H365 0.960 . S
C380 H366 0.960 . S
C380 H367 0.960 . S
C380 C379 1.524 . S
C381 C378 1.403 . S
C381 C382 1.392 . S
C381 C385 1.495 . S
C382 C381 1.392 . S
C382 C383 1.385 . S
C382 C384 1.478 . S
C383 H377 0.930 . S
C383 C379 1.400 . S
C383 C382 1.385 . S
C384 C382 1.478 . S
C384 C386 1.381 . S
C384 C390 1.383 . S
C385 C381 1.495 . S
C385 H391 0.959 . S
C385 H392 0.961 . S
C385 H393 0.960 . S
C386 C384 1.381 . S
C386 C387 1.394 . S
C386 H394 0.930 . S
C387 C386 1.394 . S
C387 C388 1.383 . S
C387 H395 0.929 . S
C388 C387 1.383 . S
C388 C389 1.377 . S
C389 H373 0.930 . S
C389 C388 1.377 . S
C389 C390 1.379 . S
C390 H374 0.931 . S
C390 C384 1.383 . S
C390 C389 1.379 . S
H391 C385 0.959 . S
H392 C385 0.961 . S
H393 C385 0.960 . S
H394 C386 0.930 . S
H395 C387 0.929 . S
H396 C404 0.929 . S
H397 C406 0.930 . S
H398 C408 0.930 . S
H399 C411 0.929 . S
H400 C414 0.930 . S
H401 C416 0.960 . S
H402 C416 0.960 . S
H403 C416 0.960 . S
C404 H396 0.929 . S
C404 C405 1.377 . S
C404 C406 1.384 . S
C405 C404 1.377 . S
C405 C411 1.390 . S
C406 H397 0.930 . S
C406 C404 1.384 . S
C406 C407 1.372 . S
C407 C406 1.372 . S
C407 C408 1.400 . S
C407 C412 1.490 . S
C408 H398 0.930 . S
C408 C407 1.400 . S
C408 C411 1.386 . S
H409 C425 0.930 . S
H410 C426 0.931 . S
C411 H399 0.929 . S
C411 C405 1.390 . S
C411 C408 1.386 . S
C412 C407 1.490 . S
C412 C414 1.395 . S
C412 C415 1.403 . S
H413 C419 0.930 . S
C414 H400 0.930 . S
C414 C412 1.395 . S
C414 C417 1.403 . S
C415 C412 1.403 . S
C415 C416 1.524 . S
C415 C419 1.400 . S
C416 H401 0.960 . S
C416 H402 0.960 . S
C416 H403 0.960 . S
C416 C415 1.524 . S
C417 C414 1.403 . S
C417 C418 1.392 . S
C417 C421 1.495 . S
C418 C417 1.392 . S
C418 C419 1.385 . S
C418 C420 1.478 . S
C419 H413 0.930 . S
C419 C415 1.400 . S
C419 C418 1.385 . S
C420 C418 1.478 . S
C420 C422 1.381 . S
C420 C426 1.383 . S
C421 C417 1.495 . S
C421 H427 0.959 . S
C421 H428 0.961 . S
C421 H429 0.960 . S
C422 C420 1.381 . S
C422 C423 1.394 . S
C422 H430 0.930 . S
C423 C422 1.394 . S
C423 C424 1.383 . S
C423 H431 0.929 . S
C424 C423 1.383 . S
C424 C425 1.377 . S
C425 H409 0.930 . S
C425 C424 1.377 . S
C425 C426 1.379 . S
C426 H410 0.931 . S
C426 C420 1.383 . S
C426 C425 1.379 . S
H427 C421 0.959 . S
H428 C421 0.961 . S
H429 C421 0.960 . S
H430 C422 0.930 . S
H431 C423 0.929 . S
H432 C440 0.929 . S
H433 C442 0.930 . S
H434 C444 0.930 . S
H435 C447 0.929 . S
H436 C450 0.930 . S
H437 C452 0.960 . S
H438 C452 0.960 . S
H439 C452 0.960 . S
C440 H432 0.929 . S
C440 C441 1.377 . S
C440 C442 1.384 . S
C441 C440 1.377 . S
C441 C447 1.390 . S
C442 H433 0.930 . S
C442 C440 1.384 . S
C442 C443 1.372 . S
C443 C442 1.372 . S
C443 C444 1.400 . S
C443 C448 1.490 . S
C444 H434 0.930 . S
C444 C443 1.400 . S
C444 C447 1.386 . S
H445 C461 0.930 . S
H446 C462 0.931 . S
C447 H435 0.929 . S
C447 C441 1.390 . S
C447 C444 1.386 . S
C448 C443 1.490 . S
C448 C450 1.395 . S
C448 C451 1.403 . S
H449 C455 0.930 . S
C450 H436 0.930 . S
C450 C448 1.395 . S
C450 C453 1.403 . S
C451 C448 1.403 . S
C451 C452 1.524 . S
C451 C455 1.400 . S
C452 H437 0.960 . S
C452 H438 0.960 . S
C452 H439 0.960 . S
C452 C451 1.524 . S
C453 C450 1.403 . S
C453 C454 1.392 . S
C453 C457 1.495 . S
C454 C453 1.392 . S
C454 C455 1.385 . S
C454 C456 1.478 . S
C455 H449 0.930 . S
C455 C451 1.400 . S
C455 C454 1.385 . S
C456 C454 1.478 . S
C456 C458 1.381 . S
C456 C462 1.383 . S
C457 C453 1.495 . S
C457 H463 0.959 . S
C457 H464 0.961 . S
C457 H465 0.960 . S
C458 C456 1.381 . S
C458 C459 1.394 . S
C458 H466 0.930 . S
C459 C458 1.394 . S
C459 C460 1.383 . S
C459 H467 0.929 . S
C460 C459 1.383 . S
C460 C461 1.377 . S
C461 H445 0.930 . S
C461 C460 1.377 . S
C461 C462 1.379 . S
C462 H446 0.931 . S
C462 C456 1.383 . S
C462 C461 1.379 . S
H463 C457 0.959 . S
H464 C457 0.961 . S
H465 C457 0.960 . S
H466 C458 0.930 . S
H467 C459 0.929 . S
H468 C476 0.929 . S
H469 C478 0.930 . S
H470 C480 0.930 . S
H471 C483 0.929 . S
H472 C486 0.930 . S
H473 C488 0.960 . S
H474 C488 0.960 . S
H475 C488 0.960 . S
C476 H468 0.929 . S
C476 C477 1.377 . S
C476 C478 1.384 . S
C477 C476 1.377 . S
C477 C483 1.390 . S
C478 H469 0.930 . S
C478 C476 1.384 . S
C478 C479 1.372 . S
C479 C478 1.372 . S
C479 C480 1.400 . S
C479 C484 1.490 . S
C480 H470 0.930 . S
C480 C479 1.400 . S
C480 C483 1.386 . S
H481 C497 0.930 . S
H482 C498 0.931 . S
C483 H471 0.929 . S
C483 C477 1.390 . S
C483 C480 1.386 . S
C484 C479 1.490 . S
C484 C486 1.395 . S
C484 C487 1.403 . S
H485 C491 0.930 . S
C486 H472 0.930 . S
C486 C484 1.395 . S
C486 C489 1.403 . S
C487 C484 1.403 . S
C487 C488 1.524 . S
C487 C491 1.400 . S
C488 H473 0.960 . S
C488 H474 0.960 . S
C488 H475 0.960 . S
C488 C487 1.524 . S
C489 C486 1.403 . S
C489 C490 1.392 . S
C489 C493 1.495 . S
C490 C489 1.392 . S
C490 C491 1.385 . S
C490 C492 1.478 . S
C491 H485 0.930 . S
C491 C487 1.400 . S
C491 C490 1.385 . S
C492 C490 1.478 . S
C492 C494 1.381 . S
C492 C498 1.383 . S
C493 C489 1.495 . S
C493 H499 0.959 . S
C493 H500 0.961 . S
C493 H501 0.960 . S
C494 C492 1.381 . S
C494 C495 1.394 . S
C494 H502 0.930 . S
C495 C494 1.394 . S
C495 C496 1.383 . S
C495 H503 0.929 . S
C496 C495 1.383 . S
C496 C497 1.377 . S
C497 H481 0.930 . S
C497 C496 1.377 . S
C497 C498 1.379 . S
C498 H482 0.931 . S
C498 C492 1.383 . S
C498 C497 1.379 . S
H499 C493 0.959 . S
H500 C493 0.961 . S
H501 C493 0.960 . S
H502 C494 0.930 . S
H503 C495 0.929 . S
H504 C512 0.929 . S
H505 C514 0.930 . S
H506 C516 0.930 . S
H507 C519 0.929 . S
H508 C522 0.930 . S
H509 C524 0.960 . S
H510 C524 0.960 . S
H511 C524 0.960 . S
C512 H504 0.929 . S
C512 C513 1.377 . S
C512 C514 1.384 . S
C513 C512 1.377 . S
C513 C519 1.390 . S
C514 H505 0.930 . S
C514 C512 1.384 . S
C514 C515 1.372 . S
C515 C514 1.372 . S
C515 C516 1.400 . S
C515 C520 1.490 . S
C516 H506 0.930 . S
C516 C515 1.400 . S
C516 C519 1.386 . S
H517 C533 0.930 . S
H518 C534 0.931 . S
C519 H507 0.929 . S
C519 C513 1.390 . S
C519 C516 1.386 . S
C520 C515 1.490 . S
C520 C522 1.395 . S
C520 C523 1.403 . S
H521 C527 0.930 . S
C522 H508 0.930 . S
C522 C520 1.395 . S
C522 C525 1.403 . S
C523 C520 1.403 . S
C523 C524 1.524 . S
C523 C527 1.400 . S
C524 H509 0.960 . S
C524 H510 0.960 . S
C524 H511 0.960 . S
C524 C523 1.524 . S
C525 C522 1.403 . S
C525 C526 1.392 . S
C525 C529 1.495 . S
C526 C525 1.392 . S
C526 C527 1.385 . S
C526 C528 1.478 . S
C527 H521 0.930 . S
C527 C523 1.400 . S
C527 C526 1.385 . S
C528 C526 1.478 . S
C528 C530 1.381 . S
C528 C534 1.383 . S
C529 C525 1.495 . S
C529 H535 0.959 . S
C529 H536 0.961 . S
C529 H537 0.960 . S
C530 C528 1.381 . S
C530 C531 1.394 . S
C530 H538 0.930 . S
C531 C530 1.394 . S
C531 C532 1.383 . S
C531 H539 0.929 . S
C532 C531 1.383 . S
C532 C533 1.377 . S
C533 H517 0.930 . S
C533 C532 1.377 . S
C533 C534 1.379 . S
C534 H518 0.931 . S
C534 C528 1.383 . S
C534 C533 1.379 . S
H535 C529 0.959 . S
H536 C529 0.961 . S
H537 C529 0.960 . S
H538 C530 0.930 . S
H539 C531 0.929 . S
H540 C548 0.929 . S
H541 C550 0.930 . S
H542 C552 0.930 . S
H543 C555 0.929 . S
H544 C558 0.930 . S
H545 C560 0.960 . S
H546 C560 0.960 . S
H547 C560 0.960 . S
C548 H540 0.929 . S
C548 C549 1.377 . S
C548 C550 1.384 . S
C549 C548 1.377 . S
C549 C555 1.390 . S
C550 H541 0.930 . S
C550 C548 1.384 . S
C550 C551 1.372 . S
C551 C550 1.372 . S
C551 C552 1.400 . S
C551 C556 1.490 . S
C552 H542 0.930 . S
C552 C551 1.400 . S
C552 C555 1.386 . S
H553 C569 0.930 . S
H554 C570 0.931 . S
C555 H543 0.929 . S
C555 C549 1.390 . S
C555 C552 1.386 . S
C556 C551 1.490 . S
C556 C558 1.395 . S
C556 C559 1.403 . S
H557 C563 0.930 . S
C558 H544 0.930 . S
C558 C556 1.395 . S
C558 C561 1.403 . S
C559 C556 1.403 . S
C559 C560 1.524 . S
C559 C563 1.400 . S
C560 H545 0.960 . S
C560 H546 0.960 . S
C560 H547 0.960 . S
C560 C559 1.524 . S
C561 C558 1.403 . S
C561 C562 1.392 . S
C561 C565 1.495 . S
C562 C561 1.392 . S
C562 C563 1.385 . S
C562 C564 1.478 . S
C563 H557 0.930 . S
C563 C559 1.400 . S
C563 C562 1.385 . S
C564 C562 1.478 . S
C564 C566 1.381 . S
C564 C570 1.383 . S
C565 C561 1.495 . S
C565 H571 0.959 . S
C565 H572 0.961 . S
C565 H573 0.960 . S
C566 C564 1.381 . S
C566 C567 1.394 . S
C566 H574 0.930 . S
C567 C566 1.394 . S
C567 C568 1.383 . S
C567 H575 0.929 . S
C568 C567 1.383 . S
C568 C569 1.377 . S
C569 H553 0.930 . S
C569 C568 1.377 . S
C569 C570 1.379 . S
C570 H554 0.931 . S
C570 C564 1.383 . S
C570 C569 1.379 . S
H571 C565 0.959 . S
H572 C565 0.961 . S
H573 C565 0.960 . S
H574 C566 0.930 . S
H575 C567 0.929 . S
H576 C584 0.929 . S
H577 C586 0.930 . S
H578 C588 0.930 . S
H579 C591 0.929 . S
H580 C594 0.930 . S
H581 C596 0.960 . S
H582 C596 0.960 . S
H583 C596 0.960 . S
C584 H576 0.929 . S
C584 C585 1.377 . S
C584 C586 1.384 . S
C585 C584 1.377 . S
C585 C591 1.390 . S
C586 H577 0.930 . S
C586 C584 1.384 . S
C586 C587 1.372 . S
C587 C586 1.372 . S
C587 C588 1.400 . S
C587 C592 1.490 . S
C588 H578 0.930 . S
C588 C587 1.400 . S
C588 C591 1.386 . S
H589 C605 0.930 . S
H590 C606 0.931 . S
C591 H579 0.929 . S
C591 C585 1.390 . S
C591 C588 1.386 . S
C592 C587 1.490 . S
C592 C594 1.395 . S
C592 C595 1.403 . S
H593 C599 0.930 . S
C594 H580 0.930 . S
C594 C592 1.395 . S
C594 C597 1.403 . S
C595 C592 1.403 . S
C595 C596 1.524 . S
C595 C599 1.400 . S
C596 H581 0.960 . S
C596 H582 0.960 . S
C596 H583 0.960 . S
C596 C595 1.524 . S
C597 C594 1.403 . S
C597 C598 1.392 . S
C597 C601 1.495 . S
C598 C597 1.392 . S
C598 C599 1.385 . S
C598 C600 1.478 . S
C599 H593 0.930 . S
C599 C595 1.400 . S
C599 C598 1.385 . S
C600 C598 1.478 . S
C600 C602 1.381 . S
C600 C606 1.383 . S
C601 C597 1.495 . S
C601 H607 0.959 . S
C601 H608 0.961 . S
C601 H609 0.960 . S
C602 C600 1.381 . S
C602 C603 1.394 . S
C602 H610 0.930 . S
C603 C602 1.394 . S
C603 C604 1.383 . S
C603 H611 0.929 . S
C604 C603 1.383 . S
C604 C605 1.377 . S
C605 H589 0.930 . S
C605 C604 1.377 . S
C605 C606 1.379 . S
C606 H590 0.931 . S
C606 C600 1.383 . S
C606 C605 1.379 . S
H607 C601 0.959 . S
H608 C601 0.961 . S
H609 C601 0.960 . S
H610 C602 0.930 . S
H611 C603 0.929 . S
H612 C620 0.929 . S
H613 C622 0.930 . S
H614 C624 0.930 . S
H615 C627 0.929 . S
H616 C630 0.930 . S
H617 C632 0.960 . S
H618 C632 0.960 . S
H619 C632 0.960 . S
C620 H612 0.929 . S
C620 C621 1.377 . S
C620 C622 1.384 . S
C621 C620 1.377 . S
C621 C627 1.390 . S
C622 H613 0.930 . S
C622 C620 1.384 . S
C622 C623 1.372 . S
C623 C622 1.372 . S
C623 C624 1.400 . S
C623 C628 1.490 . S
C624 H614 0.930 . S
C624 C623 1.400 . S
C624 C627 1.386 . S
H625 C641 0.930 . S
H626 C642 0.931 . S
C627 H615 0.929 . S
C627 C621 1.390 . S
C627 C624 1.386 . S
C628 C623 1.490 . S
C628 C630 1.395 . S
C628 C631 1.403 . S
H629 C635 0.930 . S
C630 H616 0.930 . S
C630 C628 1.395 . S
C630 C633 1.403 . S
C631 C628 1.403 . S
C631 C632 1.524 . S
C631 C635 1.400 . S
C632 H617 0.960 . S
C632 H618 0.960 . S
C632 H619 0.960 . S
C632 C631 1.524 . S
C633 C630 1.403 . S
C633 C634 1.392 . S
C633 C637 1.495 . S
C634 C633 1.392 . S
C634 C635 1.385 . S
C634 C636 1.478 . S
C635 H629 0.930 . S
C635 C631 1.400 . S
C635 C634 1.385 . S
C636 C634 1.478 . S
C636 C638 1.381 . S
C636 C642 1.383 . S
C637 C633 1.495 . S
C637 H643 0.959 . S
C637 H644 0.961 . S
C637 H645 0.960 . S
C638 C636 1.381 . S
C638 C639 1.394 . S
C638 H646 0.930 . S
C639 C638 1.394 . S
C639 C640 1.383 . S
C639 H647 0.929 . S
C640 C639 1.383 . S
C640 C641 1.377 . S
C641 H625 0.930 . S
C641 C640 1.377 . S
C641 C642 1.379 . S
C642 H626 0.931 . S
C642 C636 1.383 . S
C642 C641 1.379 . S
H643 C637 0.959 . S
H644 C637 0.961 . S
H645 C637 0.960 . S
H646 C638 0.930 . S
H647 C639 0.929 . S
H648 C656 0.929 . S
H649 C658 0.930 . S
H650 C660 0.930 . S
H651 C663 0.929 . S
H652 C666 0.930 . S
H653 C668 0.960 . S
H654 C668 0.960 . S
H655 C668 0.960 . S
C656 H648 0.929 . S
C656 C657 1.377 . S
C656 C658 1.384 . S
C657 C656 1.377 . S
C657 C663 1.390 . S
C658 H649 0.930 . S
C658 C656 1.384 . S
C658 C659 1.372 . S
C659 C658 1.372 . S
C659 C660 1.400 . S
C659 C664 1.490 . S
C660 H650 0.930 . S
C660 C659 1.400 . S
C660 C663 1.386 . S
H661 C677 0.930 . S
H662 C678 0.931 . S
C663 H651 0.929 . S
C663 C657 1.390 . S
C663 C660 1.386 . S
C664 C659 1.490 . S
C664 C666 1.395 . S
C664 C667 1.403 . S
H665 C671 0.930 . S
C666 H652 0.930 . S
C666 C664 1.395 . S
C666 C669 1.403 . S
C667 C664 1.403 . S
C667 C668 1.524 . S
C667 C671 1.400 . S
C668 H653 0.960 . S
C668 H654 0.960 . S
C668 H655 0.960 . S
C668 C667 1.524 . S
C669 C666 1.403 . S
C669 C670 1.392 . S
C669 C673 1.495 . S
C670 C669 1.392 . S
C670 C671 1.385 . S
C670 C672 1.478 . S
C671 H665 0.930 . S
C671 C667 1.400 . S
C671 C670 1.385 . S
C672 C670 1.478 . S
C672 C674 1.381 . S
C672 C678 1.383 . S
C673 C669 1.495 . S
C673 H679 0.959 . S
C673 H680 0.961 . S
C673 H681 0.960 . S
C674 C672 1.381 . S
C674 C675 1.394 . S
C674 H682 0.930 . S
C675 C674 1.394 . S
C675 C676 1.383 . S
C675 H683 0.929 . S
C676 C675 1.383 . S
C676 C677 1.377 . S
C677 H661 0.930 . S
C677 C676 1.377 . S
C677 C678 1.379 . S
C678 H662 0.931 . S
C678 C672 1.383 . S
C678 C677 1.379 . S
H679 C673 0.959 . S
H680 C673 0.961 . S
H681 C673 0.960 . S
H682 C674 0.930 . S
H683 C675 0.929 . S
H684 C692 0.929 . S
H685 C694 0.930 . S
H686 C696 0.930 . S
H687 C699 0.929 . S
H688 C702 0.930 . S
H689 C704 0.960 . S
H690 C704 0.960 . S
H691 C704 0.960 . S
C692 H684 0.929 . S
C692 C693 1.377 . S
C692 C694 1.384 . S
C693 C692 1.377 . S
C693 C699 1.390 . S
C694 H685 0.930 . S
C694 C692 1.384 . S
C694 C695 1.372 . S
C695 C694 1.372 . S
C695 C696 1.400 . S
C695 C700 1.490 . S
C696 H686 0.930 . S
C696 C695 1.400 . S
C696 C699 1.386 . S
H697 C713 0.930 . S
H698 C714 0.931 . S
C699 H687 0.929 . S
C699 C693 1.390 . S
C699 C696 1.386 . S
C700 C695 1.490 . S
C700 C702 1.395 . S
C700 C703 1.403 . S
H701 C707 0.930 . S
C702 H688 0.930 . S
C702 C700 1.395 . S
C702 C705 1.403 . S
C703 C700 1.403 . S
C703 C704 1.524 . S
C703 C707 1.400 . S
C704 H689 0.960 . S
C704 H690 0.960 . S
C704 H691 0.960 . S
C704 C703 1.524 . S
C705 C702 1.403 . S
C705 C706 1.392 . S
C705 C709 1.495 . S
C706 C705 1.392 . S
C706 C707 1.385 . S
C706 C708 1.478 . S
C707 H701 0.930 . S
C707 C703 1.400 . S
C707 C706 1.385 . S
C708 C706 1.478 . S
C708 C710 1.381 . S
C708 C714 1.383 . S
C709 C705 1.495 . S
C709 H715 0.959 . S
C709 H716 0.961 . S
C709 H717 0.960 . S
C710 C708 1.381 . S
C710 C711 1.394 . S
C710 H718 0.930 . S
C711 C710 1.394 . S
C711 C712 1.383 . S
C711 H719 0.929 . S
C712 C711 1.383 . S
C712 C713 1.377 . S
C713 H697 0.930 . S
C713 C712 1.377 . S
C713 C714 1.379 . S
C714 H698 0.931 . S
C714 C708 1.383 . S
C714 C713 1.379 . S
H715 C709 0.959 . S
H716 C709 0.961 . S
H717 C709 0.960 . S
H718 C710 0.930 . S
H719 C711 0.929 . S
H720 C728 0.929 . S
H721 C730 0.930 . S
H722 C732 0.930 . S
H723 C735 0.929 . S
H724 C738 0.930 . S
H725 C740 0.960 . S
H726 C740 0.960 . S
H727 C740 0.960 . S
C728 H720 0.929 . S
C728 C729 1.377 . S
C728 C730 1.384 . S
C729 C728 1.377 . S
C729 C735 1.390 . S
C730 H721 0.930 . S
C730 C728 1.384 . S
C730 C731 1.372 . S
C731 C730 1.372 . S
C731 C732 1.400 . S
C731 C736 1.490 . S
C732 H722 0.930 . S
C732 C731 1.400 . S
C732 C735 1.386 . S
H733 C749 0.930 . S
H734 C750 0.931 . S
C735 H723 0.929 . S
C735 C729 1.390 . S
C735 C732 1.386 . S
C736 C731 1.490 . S
C736 C738 1.395 . S
C736 C739 1.403 . S
H737 C743 0.930 . S
C738 H724 0.930 . S
C738 C736 1.395 . S
C738 C741 1.403 . S
C739 C736 1.403 . S
C739 C740 1.524 . S
C739 C743 1.400 . S
C740 H725 0.960 . S
C740 H726 0.960 . S
C740 H727 0.960 . S
C740 C739 1.524 . S
C741 C738 1.403 . S
C741 C742 1.392 . S
C741 C745 1.495 . S
C742 C741 1.392 . S
C742 C743 1.385 . S
C742 C744 1.478 . S
C743 H737 0.930 . S
C743 C739 1.400 . S
C743 C742 1.385 . S
C744 C742 1.478 . S
C744 C746 1.381 . S
C744 C750 1.383 . S
C745 C741 1.495 . S
C745 H751 0.959 . S
C745 H752 0.961 . S
C745 H753 0.960 . S
C746 C744 1.381 . S
C746 C747 1.394 . S
C746 H754 0.930 . S
C747 C746 1.394 . S
C747 C748 1.383 . S
C747 H755 0.929 . S
C748 C747 1.383 . S
C748 C749 1.377 . S
C749 H733 0.930 . S
C749 C748 1.377 . S
C749 C750 1.379 . S
C750 H734 0.931 . S
C750 C744 1.383 . S
C750 C749 1.379 . S
H751 C745 0.959 . S
H752 C745 0.961 . S
H753 C745 0.960 . S
H754 C746 0.930 . S
H755 C747 0.929 . S
H756 C764 0.929 . S
H757 C766 0.930 . S
H758 C768 0.930 . S
H759 C771 0.929 . S
H760 C774 0.930 . S
H761 C776 0.960 . S
H762 C776 0.960 . S
H763 C776 0.960 . S
C764 H756 0.929 . S
C764 C765 1.377 . S
C764 C766 1.384 . S
C765 C764 1.377 . S
C765 C771 1.390 . S
C766 H757 0.930 . S
C766 C764 1.384 . S
C766 C767 1.372 . S
C767 C766 1.372 . S
C767 C768 1.400 . S
C767 C772 1.490 . S
C768 H758 0.930 . S
C768 C767 1.400 . S
C768 C771 1.386 . S
H769 C785 0.930 . S
H770 C786 0.931 . S
C771 H759 0.929 . S
C771 C765 1.390 . S
C771 C768 1.386 . S
C772 C767 1.490 . S
C772 C774 1.395 . S
C772 C775 1.403 . S
H773 C779 0.930 . S
C774 H760 0.930 . S
C774 C772 1.395 . S
C774 C777 1.403 . S
C775 C772 1.403 . S
C775 C776 1.524 . S
C775 C779 1.400 . S
C776 H761 0.960 . S
C776 H762 0.960 . S
C776 H763 0.960 . S
C776 C775 1.524 . S
C777 C774 1.403 . S
C777 C778 1.392 . S
C777 C781 1.495 . S
C778 C777 1.392 . S
C778 C779 1.385 . S
C778 C780 1.478 . S
C779 H773 0.930 . S
C779 C775 1.400 . S
C779 C778 1.385 . S
C780 C778 1.478 . S
C780 C782 1.381 . S
C780 C786 1.383 . S
C781 C777 1.495 . S
C781 H787 0.959 . S
C781 H788 0.961 . S
C781 H789 0.960 . S
C782 C780 1.381 . S
C782 C783 1.394 . S
C782 H790 0.930 . S
C783 C782 1.394 . S
C783 C784 1.383 . S
C783 H791 0.929 . S
C784 C783 1.383 . S
C784 C785 1.377 . S
C785 H769 0.930 . S
C785 C784 1.377 . S
C785 C786 1.379 . S
C786 H770 0.931 . S
C786 C780 1.383 . S
C786 C785 1.379 . S
H787 C781 0.959 . S
H788 C781 0.961 . S
H789 C781 0.960 . S
H790 C782 0.930 . S
H791 C783 0.929 . S
H792 C800 0.929 . S
H793 C802 0.930 . S
H794 C804 0.930 . S
H795 C807 0.929 . S
H796 C810 0.930 . S
H797 C812 0.960 . S
H798 C812 0.960 . S
H799 C812 0.960 . S
C800 H792 0.929 . S
C800 C801 1.377 1_655 S
C800 C802 1.384 . S
C801 C800 1.377 1_455 S
C801 C807 1.390 . S
C802 H793 0.930 . S
C802 C800 1.384 . S
C802 C803 1.372 1_655 S
C803 C802 1.372 1_455 S
C803 C804 1.400 . S
C803 C808 1.490 . S
C804 H794 0.930 . S
C804 C803 1.400 . S
C804 C807 1.386 . S
H805 C821 0.930 . S
H806 C822 0.931 . S
C807 H795 0.929 . S
C807 C801 1.390 . S
C807 C804 1.386 . S
C808 C803 1.490 . S
C808 C810 1.395 1_455 S
C808 C811 1.403 . S
H809 C815 0.930 . S
C810 H796 0.930 . S
C810 C808 1.395 1_655 S
C810 C813 1.403 . S
C811 C808 1.403 . S
C811 C812 1.524 . S
C811 C815 1.400 . S
C812 H797 0.960 . S
C812 H798 0.960 . S
C812 H799 0.960 . S
C812 C811 1.524 . S
C813 C810 1.403 . S
C813 C814 1.392 1_655 S
C813 C817 1.495 . S
C814 C813 1.392 1_455 S
C814 C815 1.385 . S
C814 C816 1.478 . S
C815 H809 0.930 . S
C815 C811 1.400 . S
C815 C814 1.385 . S
C816 C814 1.478 . S
C816 C818 1.381 1_455 S
C816 C822 1.383 . S
C817 C813 1.495 . S
C817 H823 0.959 . S
C817 H824 0.961 . S
C817 H825 0.960 . S
C818 C816 1.381 1_655 S
C818 C819 1.394 1_554 S
C818 H826 0.930 . S
C819 C818 1.394 1_556 S
C819 C820 1.383 1_655 S
C819 H827 0.929 . S
C820 C819 1.383 1_455 S
C820 C821 1.377 . S
C821 H805 0.930 . S
C821 C820 1.377 . S
C821 C822 1.379 1_556 S
C822 H806 0.931 . S
C822 C816 1.383 . S
C822 C821 1.379 1_554 S
H823 C817 0.959 . S
H824 C817 0.961 . S
H825 C817 0.960 . S
H826 C818 0.930 . S
H827 C819 0.929 . S
H828 C836 0.929 . S
H829 C838 0.930 . S
H830 C840 0.930 1_565 S
H831 C843 0.929 1_565 S
H832 C846 0.930 . S
H833 C848 0.960 . S
H834 C848 0.960 1_545 S
H835 C848 0.960 . S
C836 H828 0.929 . S
C836 C837 1.377 . S
C836 C838 1.384 . S
C837 C836 1.377 . S
C837 C843 1.390 . S
C838 H829 0.930 . S
C838 C836 1.384 . S
C838 C839 1.372 . S
C839 C838 1.372 . S
C839 C840 1.400 . S
C839 C844 1.490 . S
C840 H830 0.930 1_545 S
C840 C839 1.400 . S
C840 C843 1.386 . S
H841 C857 0.930 . S
H842 C858 0.931 . S
C843 H831 0.929 1_545 S
C843 C837 1.390 . S
C843 C840 1.386 . S
C844 C839 1.490 . S
C844 C846 1.395 . S
C844 C847 1.403 . S
H845 C851 0.930 . S
C846 H832 0.930 . S
C846 C844 1.395 . S
C846 C849 1.403 . S
C847 C844 1.403 . S
C847 C848 1.524 1_545 S
C847 C851 1.400 . S
C848 H833 0.960 . S
C848 H834 0.960 1_565 S
C848 H835 0.960 . S
C848 C847 1.524 1_565 S
C849 C846 1.403 . S
C849 C850 1.392 . S
C849 C853 1.495 . S
C850 C849 1.392 . S
C850 C851 1.385 . S
C850 C852 1.478 . S
C851 H845 0.930 . S
C851 C847 1.400 . S
C851 C850 1.385 . S
C852 C850 1.478 . S
C852 C854 1.381 . S
C852 C858 1.383 . S
C853 C849 1.495 . S
C853 H859 0.959 . S
C853 H860 0.961 . S
C853 H861 0.960 . S
C854 C852 1.381 . S
C854 C855 1.394 . S
C854 H862 0.930 . S
C855 C854 1.394 . S
C855 C856 1.383 . S
C855 H863 0.929 . S
C856 C855 1.383 . S
C856 C857 1.377 . S
C857 H841 0.930 . S
C857 C856 1.377 . S
C857 C858 1.379 . S
C858 H842 0.931 . S
C858 C852 1.383 . S
C858 C857 1.379 . S
H859 C853 0.959 . S
H860 C853 0.961 . S
H861 C853 0.960 . S
H862 C854 0.930 . S
H863 C855 0.929 . S
H864 C872 0.929 . S
H865 C874 0.930 . S
H866 C876 0.930 . S
H867 C879 0.929 . S
H868 C882 0.930 . S
H869 C884 0.960 . S
H870 C884 0.960 . S
H871 C884 0.960 . S
C872 H864 0.929 . S
C872 C873 1.377 . S
C872 C874 1.384 . S
C873 C872 1.377 . S
C873 C879 1.390 . S
C874 H865 0.930 . S
C874 C872 1.384 . S
C874 C875 1.372 . S
C875 C874 1.372 . S
C875 C876 1.400 . S
C875 C880 1.490 . S
C876 H866 0.930 . S
C876 C875 1.400 . S
C876 C879 1.386 . S
H877 C893 0.930 . S
H878 C894 0.931 . S
C879 H867 0.929 . S
C879 C873 1.390 . S
C879 C876 1.386 . S
C880 C875 1.490 . S
C880 C882 1.395 . S
C880 C883 1.403 . S
H881 C887 0.930 . S
C882 H868 0.930 . S
C882 C880 1.395 . S
C882 C885 1.403 . S
C883 C880 1.403 . S
C883 C884 1.524 . S
C883 C887 1.400 . S
C884 H869 0.960 . S
C884 H870 0.960 . S
C884 H871 0.960 . S
C884 C883 1.524 . S
C885 C882 1.403 . S
C885 C886 1.392 . S
C885 C889 1.495 . S
C886 C885 1.392 . S
C886 C887 1.385 . S
C886 C888 1.478 . S
C887 H881 0.930 . S
C887 C883 1.400 . S
C887 C886 1.385 . S
C888 C886 1.478 . S
C888 C890 1.381 . S
C888 C894 1.383 . S
C889 C885 1.495 . S
C889 H895 0.959 . S
C889 H896 0.961 . S
C889 H897 0.960 . S
C890 C888 1.381 . S
C890 C891 1.394 . S
C890 H898 0.930 . S
C891 C890 1.394 . S
C891 C892 1.383 . S
C891 H899 0.929 . S
C892 C891 1.383 . S
C892 C893 1.377 . S
C893 H877 0.930 . S
C893 C892 1.377 . S
C893 C894 1.379 . S
C894 H878 0.931 . S
C894 C888 1.383 . S
C894 C893 1.379 . S
H895 C889 0.959 . S
H896 C889 0.961 . S
H897 C889 0.960 . S
H898 C890 0.930 . S
H899 C891 0.929 . S
H900 C908 0.929 1_565 S
H901 C910 0.930 1_565 S
H902 C912 0.930 . S
H903 C915 0.929 . S
H904 C918 0.930 . S
H905 C920 0.960 . S
H906 C920 0.960 . S
H907 C920 0.960 . S
C908 H900 0.929 1_545 S
C908 C909 1.377 . S
C908 C910 1.384 . S
C909 C908 1.377 . S
C909 C915 1.390 . S
C910 H901 0.930 1_545 S
C910 C908 1.384 . S
C910 C911 1.372 . S
C911 C910 1.372 . S
C911 C912 1.400 . S
C911 C916 1.490 . S
C912 H902 0.930 . S
C912 C911 1.400 . S
C912 C915 1.386 . S
H913 C929 0.930 . S
H914 C930 0.931 . S
C915 H903 0.929 . S
C915 C909 1.390 . S
C915 C912 1.386 . S
C916 C911 1.490 . S
C916 C918 1.395 1_545 S
C916 C919 1.403 . S
H917 C923 0.930 . S
C918 H904 0.930 . S
C918 C916 1.395 1_565 S
C918 C921 1.403 . S
C919 C916 1.403 . S
C919 C920 1.524 . S
C919 C923 1.400 . S
C920 H905 0.960 . S
C920 H906 0.960 . S
C920 H907 0.960 . S
C920 C919 1.524 . S
C921 C918 1.403 . S
C921 C922 1.392 1_565 S
C921 C925 1.495 . S
C922 C921 1.392 1_545 S
C922 C923 1.385 . S
C922 C924 1.478 . S
C923 H917 0.930 . S
C923 C919 1.400 . S
C923 C922 1.385 . S
C924 C922 1.478 . S
C924 C926 1.381 1_545 S
C924 C930 1.383 . S
C925 C921 1.495 . S
C925 H931 0.959 . S
C925 H932 0.961 . S
C925 H933 0.960 . S
C926 C924 1.381 1_565 S
C926 C927 1.394 . S
C926 H934 0.930 . S
C927 C926 1.394 . S
C927 C928 1.383 1_565 S
C927 H935 0.929 . S
C928 C927 1.383 1_545 S
C928 C929 1.377 . S
C929 H913 0.930 . S
C929 C928 1.377 . S
C929 C930 1.379 . S
C930 H914 0.931 . S
C930 C924 1.383 . S
C930 C929 1.379 . S
H931 C925 0.959 . S
H932 C925 0.961 . S
H933 C925 0.960 . S
H934 C926 0.930 . S
H935 C927 0.929 . S
H936 C944 0.929 . S
H937 C946 0.930 . S
H938 C948 0.930 . S
H939 C951 0.929 . S
H940 C954 0.930 . S
H941 C956 0.960 . S
H942 C956 0.960 . S
H943 C956 0.960 . S
C944 H936 0.929 . S
C944 C945 1.377 . S
C944 C946 1.384 . S
C945 C944 1.377 . S
C945 C951 1.390 . S
C946 H937 0.930 . S
C946 C944 1.384 . S
C946 C947 1.372 . S
C947 C946 1.372 . S
C947 C948 1.400 . S
C947 C952 1.490 . S
C948 H938 0.930 . S
C948 C947 1.400 . S
C948 C951 1.386 . S
H949 C965 0.908 1_554 S
H950 C966 0.931 . S
C951 H939 0.929 . S
C951 C945 1.390 . S
C951 C948 1.386 . S
C952 C947 1.490 . S
C952 C954 1.395 . S
C952 C955 1.403 . S
H953 C959 0.930 . S
C954 H940 0.930 . S
C954 C952 1.395 . S
C954 C957 1.403 . S
C955 C952 1.403 . S
C955 C956 1.524 . S
C955 C959 1.400 . S
C956 H941 0.960 . S
C956 H942 0.960 . S
C956 H943 0.960 . S
C956 C955 1.524 . S
C957 C954 1.403 . S
C957 C958 1.392 . S
C957 C961 1.495 . S
C958 C957 1.392 . S
C958 C959 1.385 . S
C958 C960 1.478 . S
C959 H953 0.930 . S
C959 C955 1.400 . S
C959 C958 1.385 . S
C960 C958 1.478 . S
C960 C962 1.381 . S
C960 C966 1.383 . S
C961 C957 1.495 . S
C961 H967 0.959 . S
C961 H968 0.961 . S
C961 H969 0.960 . S
C962 C960 1.381 . S
C962 C963 1.393 1_556 S
C962 H970 0.930 . S
C963 C962 1.393 1_554 S
C963 C964 1.384 . S
C963 H971 0.930 . S
C964 C963 1.384 . S
C964 C965 1.353 1_554 S
C965 H949 0.908 1_556 S
C965 C964 1.353 1_556 S
C965 C966 1.426 . S
C966 H950 0.931 . S
C966 C960 1.383 . S
C966 C965 1.426 . S
H967 C961 0.959 . S
H968 C961 0.961 . S
H969 C961 0.960 . S
H970 C962 0.930 . S
H971 C963 0.930 . S
H972 C980 0.929 1_655 S
H973 C982 0.930 1_655 S
H974 C984 0.930 . S
H975 C987 0.929 . S
H976 C990 0.930 . S
H977 C992 0.960 . S
H978 C992 0.960 . S
H979 C992 0.960 . S
C980 H972 0.929 1_455 S
C980 C981 1.377 . S
C980 C982 1.384 . S
C981 C980 1.377 . S
C981 C987 1.390 . S
C982 H973 0.930 1_455 S
C982 C980 1.384 . S
C982 C983 1.372 . S
C983 C982 1.372 . S
C983 C984 1.400 . S
C983 C988 1.490 . S
C984 H974 0.930 . S
C984 C983 1.400 . S
C984 C987 1.386 . S
H985 C1001 0.930 . S
H986 C1002 0.931 . S
C987 H975 0.929 . S
C987 C981 1.390 . S
C987 C984 1.386 . S
C988 C983 1.490 . S
C988 C990 1.395 . S
C988 C991 1.403 . S
H989 C995 0.930 . S
C990 H976 0.930 . S
C990 C988 1.395 . S
C990 C993 1.403 . S
C991 C988 1.403 . S
C991 C992 1.524 . S
C991 C995 1.400 . S
C992 H977 0.960 . S
C992 H978 0.960 . S
C992 H979 0.960 . S
C992 C991 1.524 . S
C993 C990 1.403 . S
C993 C994 1.392 . S
C993 C997 1.495 . S
C994 C993 1.392 . S
C994 C995 1.385 . S
C994 C996 1.478 . S
C995 H989 0.930 . S
C995 C991 1.400 . S
C995 C994 1.385 . S
C996 C994 1.478 . S
C996 C998 1.381 . S
C996 C1002 1.383 . S
C997 C993 1.495 . S
C997 H1003 0.959 . S
C997 H1004 0.961 . S
C997 H1005 0.960 1_455 S
C998 C996 1.381 . S
C998 C999 1.394 . S
C998 H1006 0.930 1_455 S
C999 C998 1.394 . S
C999 C1000 1.383 . S
C999 H1007 0.929 1_455 S
C1000 C999 1.383 . S
C1000 C1001 1.377 . S
C1001 H985 0.930 . S
C1001 C1000 1.377 . S
C1001 C1002 1.379 . S
C1002 H986 0.931 . S
C1002 C996 1.383 . S
C1002 C1001 1.379 . S
H1003 C997 0.959 . S
H1004 C997 0.961 . S
H1005 C997 0.960 1_655 S
H1006 C998 0.930 1_655 S
H1007 C999 0.929 1_655 S
C369 C19 2.969 . S
C388 C335 2.941 . S
C405 C49 3.054 . S
C424 C242 3.017 . S
C441 C99 2.952 . S
C460 C282 2.920 . S
C477 C9 3.055 . S
C496 C322 3.009 . S
C532 C255 2.930 . S
C513 C59 2.974 . S
C568 C295 3.014 . S
C549 C89 3.074 . S
C585 C55 0.270 . S
C604 C162 0.308 . S
C621 C85 0.298 . S
C640 C202 0.255 . S
C657 C15 0.299 . S
C676 C135 0.325 . S
C712 C175 0.219 . S
C693 C45 0.307 . S
C748 C215 0.430 . S
C729 C95 0.325 . S
C765 C5 0.304 . S
C784 C122 0.224 . S
C820 C221 1.119 . S
C801 C18 1.103 . S
C837 C58 1.104 . S
C856 C141 1.116 . S
C873 C98 1.089 . S
C892 C181 1.088 . S
C928 C301 1.759 . S
C909 C48 1.691 . S
C964 C341 1.767 . S
C945 C88 1.690 . S
C981 C8 1.697 . S
C1000 C261 1.765 . S
