# Generated by pormake.
# Topology gar, (4,6)-cn, num edge types: 1
# Building blocks:
#     Node 0, Type 0, BuildingBlock: GALJAG_clean_sbu_0, # of connection points: 4
#     Node 1, Type 0, BuildingBlock: GALJAG_clean_sbu_0, # of connection points: 4
#     Node 2, Type 0, BuildingBlock: GALJAG_clean_sbu_0, # of connection points: 4
#     Node 3, Type 0, BuildingBlock: GALJAG_clean_sbu_0, # of connection points: 4
#     Node 4, Type 0, BuildingBlock: GALJAG_clean_sbu_0, # of connection points: 4
#     Node 5, Type 0, BuildingBlock: GALJAG_clean_sbu_0, # of connection points: 4
#     Node 6, Type 0, BuildingBlock: GALJAG_clean_sbu_0, # of connection points: 4
#     Node 7, Type 0, BuildingBlock: GALJAG_clean_sbu_0, # of connection points: 4
#     Node 8, Type 0, BuildingBlock: GALJAG_clean_sbu_0, # of connection points: 4
#     Node 9, Type 0, BuildingBlock: GALJAG_clean_sbu_0, # of connection points: 4
#     Node 10, Type 0, BuildingBlock: GALJAG_clean_sbu_0, # of connection points: 4
#     Node 11, Type 0, BuildingBlock: GALJAG_clean_sbu_0, # of connection points: 4
#     Node 12, Type 0, BuildingBlock: GALJAG_clean_sbu_0, # of connection points: 4
#     Node 13, Type 0, BuildingBlock: GALJAG_clean_sbu_0, # of connection points: 4
#     Node 14, Type 0, BuildingBlock: GALJAG_clean_sbu_0, # of connection points: 4
#     Node 15, Type 0, BuildingBlock: GALJAG_clean_sbu_0, # of connection points: 4
#     Node 16, Type 0, BuildingBlock: GALJAG_clean_sbu_0, # of connection points: 4
#     Node 17, Type 0, BuildingBlock: GALJAG_clean_sbu_0, # of connection points: 4
#     Node 18, Type 0, BuildingBlock: GALJAG_clean_sbu_0, # of connection points: 4
#     Node 19, Type 0, BuildingBlock: GALJAG_clean_sbu_0, # of connection points: 4
#     Node 20, Type 0, BuildingBlock: GALJAG_clean_sbu_0, # of connection points: 4
#     Node 21, Type 0, BuildingBlock: GALJAG_clean_sbu_0, # of connection points: 4
#     Node 22, Type 0, BuildingBlock: GALJAG_clean_sbu_0, # of connection points: 4
#     Node 23, Type 0, BuildingBlock: GALJAG_clean_sbu_0, # of connection points: 4
#     Node 24, Type 1, BuildingBlock: PAMTUU_clean_sbu_0, # of connection points: 6
#     Node 25, Type 1, BuildingBlock: PAMTUU_clean_sbu_0, # of connection points: 6
#     Node 26, Type 1, BuildingBlock: PAMTUU_clean_sbu_0, # of connection points: 6
#     Node 27, Type 1, BuildingBlock: PAMTUU_clean_sbu_0, # of connection points: 6
#     Node 28, Type 1, BuildingBlock: PAMTUU_clean_sbu_0, # of connection points: 6
#     Node 29, Type 1, BuildingBlock: PAMTUU_clean_sbu_0, # of connection points: 6
#     Node 30, Type 1, BuildingBlock: PAMTUU_clean_sbu_0, # of connection points: 6
#     Node 31, Type 1, BuildingBlock: PAMTUU_clean_sbu_0, # of connection points: 6
#     Node 32, Type 1, BuildingBlock: PAMTUU_clean_sbu_0, # of connection points: 6
#     Node 33, Type 1, BuildingBlock: PAMTUU_clean_sbu_0, # of connection points: 6
#     Node 34, Type 1, BuildingBlock: PAMTUU_clean_sbu_0, # of connection points: 6
#     Node 35, Type 1, BuildingBlock: PAMTUU_clean_sbu_0, # of connection points: 6
#     Node 36, Type 1, BuildingBlock: PAMTUU_clean_sbu_0, # of connection points: 6
#     Node 37, Type 1, BuildingBlock: PAMTUU_clean_sbu_0, # of connection points: 6
#     Node 38, Type 1, BuildingBlock: PAMTUU_clean_sbu_0, # of connection points: 6
#     Node 39, Type 1, BuildingBlock: PAMTUU_clean_sbu_0, # of connection points: 6
#     Edge 40, Type (0, 1), BuildingBlock: UVAHIK_clean_linker_0, # of connection points: 2
#     Edge 41, Type (0, 1), BuildingBlock: UVAHIK_clean_linker_0, # of connection points: 2
#     Edge 42, Type (0, 1), BuildingBlock: UVAHIK_clean_linker_0, # of connection points: 2
#     Edge 43, Type (0, 1), BuildingBlock: UVAHIK_clean_linker_0, # of connection points: 2
#     Edge 44, Type (0, 1), BuildingBlock: UVAHIK_clean_linker_0, # of connection points: 2
#     Edge 45, Type (0, 1), BuildingBlock: UVAHIK_clean_linker_0, # of connection points: 2
#     Edge 46, Type (0, 1), BuildingBlock: UVAHIK_clean_linker_0, # of connection points: 2
#     Edge 47, Type (0, 1), BuildingBlock: UVAHIK_clean_linker_0, # of connection points: 2
#     Edge 48, Type (0, 1), BuildingBlock: UVAHIK_clean_linker_0, # of connection points: 2
#     Edge 49, Type (0, 1), BuildingBlock: UVAHIK_clean_linker_0, # of connection points: 2
#     Edge 50, Type (0, 1), BuildingBlock: UVAHIK_clean_linker_0, # of connection points: 2
#     Edge 51, Type (0, 1), BuildingBlock: UVAHIK_clean_linker_0, # of connection points: 2
#     Edge 52, Type (0, 1), BuildingBlock: UVAHIK_clean_linker_0, # of connection points: 2
#     Edge 53, Type (0, 1), BuildingBlock: UVAHIK_clean_linker_0, # of connection points: 2
#     Edge 54, Type (0, 1), BuildingBlock: UVAHIK_clean_linker_0, # of connection points: 2
#     Edge 55, Type (0, 1), BuildingBlock: UVAHIK_clean_linker_0, # of connection points: 2
#     Edge 56, Type (0, 1), BuildingBlock: UVAHIK_clean_linker_0, # of connection points: 2
#     Edge 57, Type (0, 1), BuildingBlock: UVAHIK_clean_linker_0, # of connection points: 2
#     Edge 58, Type (0, 1), BuildingBlock: UVAHIK_clean_linker_0, # of connection points: 2
#     Edge 59, Type (0, 1), BuildingBlock: UVAHIK_clean_linker_0, # of connection points: 2
#     Edge 60, Type (0, 1), BuildingBlock: UVAHIK_clean_linker_0, # of connection points: 2
#     Edge 61, Type (0, 1), BuildingBlock: UVAHIK_clean_linker_0, # of connection points: 2
#     Edge 62, Type (0, 1), BuildingBlock: UVAHIK_clean_linker_0, # of connection points: 2
#     Edge 63, Type (0, 1), BuildingBlock: UVAHIK_clean_linker_0, # of connection points: 2
#     Edge 64, Type (0, 1), BuildingBlock: UVAHIK_clean_linker_0, # of connection points: 2
#     Edge 65, Type (0, 1), BuildingBlock: UVAHIK_clean_linker_0, # of connection points: 2
#     Edge 66, Type (0, 1), BuildingBlock: UVAHIK_clean_linker_0, # of connection points: 2
#     Edge 67, Type (0, 1), BuildingBlock: UVAHIK_clean_linker_0, # of connection points: 2
#     Edge 68, Type (0, 1), BuildingBlock: UVAHIK_clean_linker_0, # of connection points: 2
#     Edge 69, Type (0, 1), BuildingBlock: UVAHIK_clean_linker_0, # of connection points: 2
#     Edge 70, Type (0, 1), BuildingBlock: UVAHIK_clean_linker_0, # of connection points: 2
#     Edge 71, Type (0, 1), BuildingBlock: UVAHIK_clean_linker_0, # of connection points: 2
#     Edge 72, Type (0, 1), BuildingBlock: UVAHIK_clean_linker_0, # of connection points: 2
#     Edge 73, Type (0, 1), BuildingBlock: UVAHIK_clean_linker_0, # of connection points: 2
#     Edge 74, Type (0, 1), BuildingBlock: UVAHIK_clean_linker_0, # of connection points: 2
#     Edge 75, Type (0, 1), BuildingBlock: UVAHIK_clean_linker_0, # of connection points: 2
#     Edge 76, Type (0, 1), BuildingBlock: UVAHIK_clean_linker_0, # of connection points: 2
#     Edge 77, Type (0, 1), BuildingBlock: UVAHIK_clean_linker_0, # of connection points: 2
#     Edge 78, Type (0, 1), BuildingBlock: UVAHIK_clean_linker_0, # of connection points: 2
#     Edge 79, Type (0, 1), BuildingBlock: UVAHIK_clean_linker_0, # of connection points: 2
#     Edge 80, Type (0, 1), BuildingBlock: UVAHIK_clean_linker_0, # of connection points: 2
#     Edge 81, Type (0, 1), BuildingBlock: UVAHIK_clean_linker_0, # of connection points: 2
#     Edge 82, Type (0, 1), BuildingBlock: UVAHIK_clean_linker_0, # of connection points: 2
#     Edge 83, Type (0, 1), BuildingBlock: UVAHIK_clean_linker_0, # of connection points: 2
#     Edge 84, Type (0, 1), BuildingBlock: UVAHIK_clean_linker_0, # of connection points: 2
#     Edge 85, Type (0, 1), BuildingBlock: UVAHIK_clean_linker_0, # of connection points: 2
#     Edge 86, Type (0, 1), BuildingBlock: UVAHIK_clean_linker_0, # of connection points: 2
#     Edge 87, Type (0, 1), BuildingBlock: UVAHIK_clean_linker_0, # of connection points: 2
#     Edge 88, Type (0, 1), BuildingBlock: UVAHIK_clean_linker_0, # of connection points: 2
#     Edge 89, Type (0, 1), BuildingBlock: UVAHIK_clean_linker_0, # of connection points: 2
#     Edge 90, Type (0, 1), BuildingBlock: UVAHIK_clean_linker_0, # of connection points: 2
#     Edge 91, Type (0, 1), BuildingBlock: UVAHIK_clean_linker_0, # of connection points: 2
#     Edge 92, Type (0, 1), BuildingBlock: UVAHIK_clean_linker_0, # of connection points: 2
#     Edge 93, Type (0, 1), BuildingBlock: UVAHIK_clean_linker_0, # of connection points: 2
#     Edge 94, Type (0, 1), BuildingBlock: UVAHIK_clean_linker_0, # of connection points: 2
#     Edge 95, Type (0, 1), BuildingBlock: UVAHIK_clean_linker_0, # of connection points: 2
#     Edge 96, Type (0, 1), BuildingBlock: UVAHIK_clean_linker_0, # of connection points: 2
#     Edge 97, Type (0, 1), BuildingBlock: UVAHIK_clean_linker_0, # of connection points: 2
#     Edge 98, Type (0, 1), BuildingBlock: UVAHIK_clean_linker_0, # of connection points: 2
#     Edge 99, Type (0, 1), BuildingBlock: UVAHIK_clean_linker_0, # of connection points: 2
#     Edge 100, Type (0, 1), BuildingBlock: UVAHIK_clean_linker_0, # of connection points: 2
#     Edge 101, Type (0, 1), BuildingBlock: UVAHIK_clean_linker_0, # of connection points: 2
#     Edge 102, Type (0, 1), BuildingBlock: UVAHIK_clean_linker_0, # of connection points: 2
#     Edge 103, Type (0, 1), BuildingBlock: UVAHIK_clean_linker_0, # of connection points: 2
#     Edge 104, Type (0, 1), BuildingBlock: UVAHIK_clean_linker_0, # of connection points: 2
#     Edge 105, Type (0, 1), BuildingBlock: UVAHIK_clean_linker_0, # of connection points: 2
#     Edge 106, Type (0, 1), BuildingBlock: UVAHIK_clean_linker_0, # of connection points: 2
#     Edge 107, Type (0, 1), BuildingBlock: UVAHIK_clean_linker_0, # of connection points: 2
#     Edge 108, Type (0, 1), BuildingBlock: UVAHIK_clean_linker_0, # of connection points: 2
#     Edge 109, Type (0, 1), BuildingBlock: UVAHIK_clean_linker_0, # of connection points: 2
#     Edge 110, Type (0, 1), BuildingBlock: UVAHIK_clean_linker_0, # of connection points: 2
#     Edge 111, Type (0, 1), BuildingBlock: UVAHIK_clean_linker_0, # of connection points: 2
#     Edge 112, Type (0, 1), BuildingBlock: UVAHIK_clean_linker_0, # of connection points: 2
#     Edge 113, Type (0, 1), BuildingBlock: UVAHIK_clean_linker_0, # of connection points: 2
#     Edge 114, Type (0, 1), BuildingBlock: UVAHIK_clean_linker_0, # of connection points: 2
#     Edge 115, Type (0, 1), BuildingBlock: UVAHIK_clean_linker_0, # of connection points: 2
#     Edge 116, Type (0, 1), BuildingBlock: UVAHIK_clean_linker_0, # of connection points: 2
#     Edge 117, Type (0, 1), BuildingBlock: UVAHIK_clean_linker_0, # of connection points: 2
#     Edge 118, Type (0, 1), BuildingBlock: UVAHIK_clean_linker_0, # of connection points: 2
#     Edge 119, Type (0, 1), BuildingBlock: UVAHIK_clean_linker_0, # of connection points: 2
#     Edge 120, Type (0, 1), BuildingBlock: UVAHIK_clean_linker_0, # of connection points: 2
#     Edge 121, Type (0, 1), BuildingBlock: UVAHIK_clean_linker_0, # of connection points: 2
#     Edge 122, Type (0, 1), BuildingBlock: UVAHIK_clean_linker_0, # of connection points: 2
#     Edge 123, Type (0, 1), BuildingBlock: UVAHIK_clean_linker_0, # of connection points: 2
#     Edge 124, Type (0, 1), BuildingBlock: UVAHIK_clean_linker_0, # of connection points: 2
#     Edge 125, Type (0, 1), BuildingBlock: UVAHIK_clean_linker_0, # of connection points: 2
#     Edge 126, Type (0, 1), BuildingBlock: UVAHIK_clean_linker_0, # of connection points: 2
#     Edge 127, Type (0, 1), BuildingBlock: UVAHIK_clean_linker_0, # of connection points: 2
#     Edge 128, Type (0, 1), BuildingBlock: UVAHIK_clean_linker_0, # of connection points: 2
#     Edge 129, Type (0, 1), BuildingBlock: UVAHIK_clean_linker_0, # of connection points: 2
#     Edge 130, Type (0, 1), BuildingBlock: UVAHIK_clean_linker_0, # of connection points: 2
#     Edge 131, Type (0, 1), BuildingBlock: UVAHIK_clean_linker_0, # of connection points: 2
#     Edge 132, Type (0, 1), BuildingBlock: UVAHIK_clean_linker_0, # of connection points: 2
#     Edge 133, Type (0, 1), BuildingBlock: UVAHIK_clean_linker_0, # of connection points: 2
#     Edge 134, Type (0, 1), BuildingBlock: UVAHIK_clean_linker_0, # of connection points: 2
#     Edge 135, Type (0, 1), BuildingBlock: UVAHIK_clean_linker_0, # of connection points: 2
# Relax obj value: 0.165
# Max RMSD: 0.307
# Mean RMSD: 0.173
data_MOF--net-gar--node1-GALJAG_clean_sbu_0--node2-PAMTUU_clean_sbu_0--edge1-UVAHIK_clean_linker_0
_symmetry_space_group_name_H-M    P1
_symmetry_Int_Tables_number       1
_symmetry_cell_setting            triclinic
loop_
_symmetry_equiv_pos_as_xyz
'x, y, z'
_cell_length_a     76.889119
_cell_length_b     71.812979
_cell_length_c     76.475703
_cell_angle_alpha  93.298187
_cell_angle_beta   93.235009
_cell_angle_gamma 104.13409
loop_
_atom_site_label
_atom_site_type_symbol
_atom_site_fract_x
_atom_site_fract_y
_atom_site_fract_z
_atom_type_partial_charge
In0 In 0.03986 0.2753 0.37377 0.0
O1 O 0.05753 0.26819 0.3496 0.0
O2 O 0.0723 0.28358 0.37157 0.0
C3 C 0.0057 0.27483 0.35462 0.0
C4 C 0.03763 0.24091 0.39276 0.0
C5 C 0.04123 0.31096 0.39396 0.0
O6 O 0.02109 0.28284 0.34974 0.0
O7 O 0.00745 0.26619 0.36834 0.0
O8 O 0.03561 0.29436 0.3994 0.0
O9 O 0.04693 0.30975 0.37884 0.0
C10 C 0.07331 0.27589 0.35644 0.0
O11 O 0.04458 0.25799 0.39914 0.0
O12 O 0.03159 0.24099 0.37698 0.0
In13 In 0.03234 0.78805 0.65147 0.0
O14 O 0.03069 0.80535 0.62565 0.0
O15 O 0.03679 0.82239 0.64926 0.0
C16 C 0.02987 0.75199 0.63142 0.0
C17 C 0.06805 0.79193 0.66924 0.0
C18 C 0.99859 0.78546 0.66902 0.0
O19 O 0.03296 0.76827 0.62512 0.0
O20 O 0.02738 0.7536 0.64759 0.0
O21 O 0.01409 0.78805 0.6769 0.0
O22 O 0.99997 0.78411 0.65258 0.0
C23 C 0.03412 0.82238 0.63271 0.0
O24 O 0.05326 0.78446 0.67559 0.0
O25 O 0.06497 0.79823 0.65456 0.0
In26 In 0.53994 0.77553 0.87497 0.0
O27 O 0.55782 0.76852 0.85101 0.0
O28 O 0.5724 0.78485 0.8726 0.0
C29 C 0.50531 0.77448 0.85658 0.0
C30 C 0.53728 0.74071 0.89356 0.0
C31 C 0.54182 0.81179 0.89444 0.0
O32 O 0.52041 0.7797 0.85005 0.0
O33 O 0.50748 0.76887 0.87177 0.0
O34 O 0.5403 0.79587 0.90133 0.0
O35 O 0.54322 0.80971 0.87807 0.0
C36 C 0.57351 0.77682 0.85764 0.0
O37 O 0.54301 0.75775 0.90049 0.0
O38 O 0.53256 0.74101 0.87743 0.0
In39 In 0.53267 0.2883 0.15127 0.0
O40 O 0.53195 0.26835 0.12495 0.0
O41 O 0.52649 0.25383 0.14767 0.0
C42 C 0.53552 0.32256 0.13211 0.0
C43 C 0.49883 0.28442 0.16884 0.0
C44 C 0.56855 0.29166 0.16841 0.0
O45 O 0.53205 0.3055 0.12517 0.0
O46 O 0.53792 0.32264 0.14865 0.0
O47 O 0.55645 0.29838 0.17526 0.0
O48 O 0.56276 0.28376 0.15334 0.0
C49 C 0.52863 0.2521 0.1314 0.0
O50 O 0.51356 0.28269 0.17617 0.0
O51 O 0.50101 0.2878 0.15293 0.0
In52 In 0.06882 0.79674 0.12328 0.0
O53 O 0.07433 0.77633 0.10066 0.0
O54 O 0.05606 0.76442 0.11909 0.0
C55 C 0.07149 0.83098 0.10828 0.0
C56 C 0.03879 0.79312 0.14096 0.0
C57 C 0.09965 0.79979 0.1435 0.0
O58 O 0.06346 0.81495 0.10046 0.0
O59 O 0.07843 0.82967 0.12333 0.0
O60 O 0.08525 0.80166 0.14965 0.0
O61 O 0.09866 0.79662 0.12701 0.0
C62 C 0.06401 0.76138 0.10569 0.0
O63 O 0.05363 0.79178 0.14801 0.0
O64 O 0.03908 0.79652 0.12493 0.0
In65 In 0.50257 0.76678 0.41221 0.0
O66 O 0.51674 0.76132 0.38745 0.0
O67 O 0.53276 0.77677 0.40966 0.0
C68 C 0.47163 0.7655 0.39237 0.0
C69 C 0.50503 0.73592 0.4306 0.0
C70 C 0.50414 0.79992 0.43185 0.0
O71 O 0.48693 0.77457 0.38836 0.0
O72 O 0.47195 0.75644 0.406 0.0
O73 O 0.4919 0.78479 0.43285 0.0
O74 O 0.51566 0.79828 0.42116 0.0
C75 C 0.5323 0.76975 0.39408 0.0
O76 O 0.5073 0.7527 0.43769 0.0
O77 O 0.50088 0.73449 0.4143 0.0
In78 In 0.56999 0.29709 0.62435 0.0
O79 O 0.56906 0.27614 0.59978 0.0
O80 O 0.56498 0.26453 0.6245 0.0
C81 C 0.57184 0.33153 0.61006 0.0
C82 C 0.53863 0.29107 0.64002 0.0
C83 C 0.60175 0.30241 0.64369 0.0
O84 O 0.57043 0.31605 0.60071 0.0
O85 O 0.57267 0.3296 0.62632 0.0
O86 O 0.58751 0.30446 0.65001 0.0
O87 O 0.60027 0.29825 0.62731 0.0
C88 C 0.56604 0.26122 0.60829 0.0
O89 O 0.55356 0.292 0.64814 0.0
O90 O 0.53937 0.29321 0.62378 0.0
In91 In 0.00286 0.26699 0.91255 0.0
O92 O 0.00207 0.25064 0.93757 0.0
O93 O 0.00404 0.2354 0.91352 0.0
C94 C 0.00558 0.3016 0.93017 0.0
C95 C 0.03348 0.27123 0.89552 0.0
C96 C 0.97036 0.26293 0.89463 0.0
O97 O 0.0083 0.28727 0.9377 0.0
O98 O 0.00185 0.29855 0.91384 0.0
O99 O 0.98518 0.26895 0.88807 0.0
O100 O 0.97177 0.25803 0.91015 0.0
C101 C 0.00371 0.23516 0.92997 0.0
O102 O 0.01834 0.26166 0.88885 0.0
O103 O 0.0332 0.27888 0.91072 0.0
In104 In 0.43213 0.04993 0.29908 0.0
O105 O 0.45296 0.063 0.2804 0.0
O106 O 0.43253 0.03787 0.2714 0.0
C107 C 0.45502 0.05746 0.32757 0.0
C108 C 0.41041 0.07286 0.29209 0.0
C109 C 0.41329 0.01468 0.30462 0.0
O110 O 0.45733 0.0473 0.31435 0.0
O111 O 0.44147 0.06433 0.32615 0.0
O112 O 0.41086 0.02952 0.31279 0.0
O113 O 0.42555 0.0177 0.29407 0.0
C114 C 0.44609 0.05061 0.26795 0.0
O115 O 0.40458 0.05539 0.29478 0.0
O116 O 0.42728 0.07903 0.29362 0.0
In117 In 0.28226 0.19133 0.51349 0.0
O118 O 0.28994 0.2174 0.53525 0.0
O119 O 0.2757 0.19027 0.54236 0.0
C120 C 0.28434 0.20583 0.48056 0.0
C121 C 0.30991 0.17402 0.51748 0.0
C122 C 0.24818 0.16904 0.50946 0.0
O123 O 0.28638 0.21667 0.49461 0.0
O124 O 0.28128 0.18821 0.48324 0.0
O125 O 0.26189 0.16245 0.50831 0.0
O126 O 0.25155 0.18719 0.51206 0.0
C127 C 0.28298 0.20751 0.54746 0.0
O128 O 0.29376 0.16577 0.51927 0.0
O129 O 0.31239 0.19125 0.51349 0.0
In130 In 0.14739 0.02872 0.80769 0.0
O131 O 0.12468 0.01731 0.78662 0.0
O132 O 0.14627 0.04064 0.78114 0.0
C133 C 0.12843 0.01628 0.83452 0.0
C134 C 0.16885 0.0066 0.7981 0.0
C135 C 0.16289 0.06424 0.82185 0.0
O136 O 0.12206 0.02404 0.82212 0.0
O137 O 0.14409 0.01423 0.83297 0.0
O138 O 0.16993 0.05027 0.8236 0.0
O139 O 0.1479 0.0602 0.81304 0.0
C140 C 0.13166 0.02892 0.7757 0.0
O141 O 0.17423 0.02468 0.80023 0.0
O142 O 0.15268 0.99967 0.80114 0.0
In143 In 0.28465 0.90737 -0.00651 0.0
O144 O 0.28398 0.88498 0.0134 0.0
O145 O 0.29446 0.91463 0.02195 0.0
C146 C 0.27361 0.88489 0.96407 0.0
C147 C 0.25994 0.92621 0.00059 0.0
C148 C 0.31723 0.92608 0.98531 0.0
O149 O 0.27869 0.87835 0.97789 0.0
O150 O 0.27331 0.90235 0.96552 0.0
O151 O 0.30362 0.93271 0.98309 0.0
O152 O 0.3143 0.9097 0.99129 0.0
C153 C 0.29087 0.89737 0.02588 0.0
O154 O 0.27546 0.93439 -0.00345 0.0
O155 O 0.25655 0.90808 0.00067 0.0
In156 In 0.28872 0.36874 0.023 0.0
O157 O 0.28694 0.34314 0.04138 0.0
O158 O 0.2879 0.37063 0.05319 0.0
C159 C 0.28802 0.35117 0.98963 0.0
C160 C 0.26014 0.3851 0.02193 0.0
C161 C 0.32227 0.39262 0.02356 0.0
O162 O 0.2812 0.34193 0.00226 0.0
O163 O 0.29498 0.36872 -0.00609 0.0
O164 O 0.30804 0.39777 0.01984 0.0
O165 O 0.31971 0.3753 0.02744 0.0
C166 C 0.28689 0.3532 0.05554 0.0
O167 O 0.27565 0.39366 0.02835 0.0
O168 O 0.25879 0.36802 0.01589 0.0
In169 In 0.78413 0.14247 0.04042 0.0
O170 O 0.79794 0.1184 0.0421 0.0
O171 O 0.81233 0.14468 0.03253 0.0
C172 C 0.75138 0.12061 0.04353 0.0
C173 C 0.79402 0.16304 0.07084 0.0
C174 C 0.77509 0.15824 0.01156 0.0
O175 O 0.7628 0.1146 0.03509 0.0
O176 O 0.75673 0.13742 0.05075 0.0
O177 O 0.77805 0.16735 0.02644 0.0
O178 O 0.77731 0.14142 0.01116 0.0
C179 C 0.81217 0.12774 0.03614 0.0
O180 O 0.79632 0.17048 0.05631 0.0
O181 O 0.78725 0.14511 0.06991 0.0
In182 In 0.15161 0.52626 0.24011 0.0
O183 O 0.17189 0.51033 0.23114 0.0
O184 O 0.15095 0.49596 0.24635 0.0
C185 C 0.17596 0.55977 0.24013 0.0
C186 C 0.12534 0.51568 0.21461 0.0
C187 C 0.1388 0.53351 0.27059 0.0
O188 O 0.17805 0.54674 0.24983 0.0
O189 O 0.16193 0.55549 0.22984 0.0
O190 O 0.13607 0.54202 0.25711 0.0
O191 O 0.14813 0.52142 0.26868 0.0
C192 C 0.16466 0.49525 0.23834 0.0
O193 O 0.12244 0.515 0.23062 0.0
O194 O 0.14155 0.52215 0.21143 0.0
In195 In 0.78718 0.86858 0.52323 0.0
O196 O 0.77933 0.84283 0.54146 0.0
O197 O 0.79147 0.87038 0.55349 0.0
C198 C 0.78567 0.85115 0.48973 0.0
C199 C 0.7587 0.88485 0.52258 0.0
C200 C 0.82076 0.89233 0.52314 0.0
O201 O 0.79057 0.84389 0.5033 0.0
O202 O 0.7811 0.86661 0.49313 0.0
O203 O 0.80682 0.89842 0.52456 0.0
O204 O 0.81787 0.87421 0.52189 0.0
C205 C 0.78473 0.85295 0.55573 0.0
O206 O 0.77472 0.8942 0.52654 0.0
O207 O 0.75684 0.86704 0.51891 0.0
In208 In 0.90893 0.0279 0.22638 0.0
O209 O 0.93417 0.04137 0.2138 0.0
O210 O 0.91194 0.02453 0.19728 0.0
C211 C 0.92835 0.02292 0.25506 0.0
C212 C 0.89562 0.05875 0.22668 0.0
C213 C 0.88421 0.99472 0.22458 0.0
O214 O 0.92899 0.01437 0.24035 0.0
O215 O 0.91782 0.0339 0.25534 0.0
O216 O 0.88303 0.009 0.23448 0.0
O217 O 0.8977 0.99743 0.21554 0.0
C218 C 0.92786 0.03474 0.19853 0.0
O219 O 0.88659 0.04246 0.22025 0.0
O220 O 0.91122 0.05931 0.23305 0.0
In221 In 0.28254 0.64249 0.54051 0.0
O222 O 0.29432 0.61691 0.5373 0.0
O223 O 0.31202 0.64492 0.53775 0.0
C224 C 0.24866 0.62308 0.54271 0.0
C225 C 0.28889 0.66278 0.5714 0.0
C226 C 0.28023 0.65794 0.50986 0.0
O227 O 0.26148 0.61499 0.5436 0.0
O228 O 0.25309 0.64097 0.54119 0.0
O229 O 0.28728 0.66776 0.52379 0.0
O230 O 0.27484 0.64007 0.51124 0.0
C231 C 0.31012 0.62695 0.53643 0.0
O232 O 0.28615 0.67001 0.55722 0.0
O233 O 0.28862 0.64513 0.57005 0.0
In234 In 0.40675 0.52726 0.72355 0.0
O235 O 0.38852 0.5464 0.71663 0.0
O236 O 0.41361 0.55919 0.73102 0.0
C237 C 0.38081 0.49483 0.72431 0.0
C238 C 0.4229 0.5263 0.69391 0.0
C239 C 0.4282 0.52786 0.7524 0.0
O240 O 0.38076 0.50998 0.73341 0.0
O241 O 0.39358 0.49629 0.7145 0.0
O242 O 0.4337 0.52742 0.73721 0.0
O243 O 0.41191 0.52813 0.75302 0.0
C244 C 0.39907 0.56142 0.72406 0.0
O245 O 0.42743 0.5189 0.70746 0.0
O246 O 0.40985 0.53396 0.6952 0.0
In247 In 0.65572 0.02781 0.7399 0.0
O248 O 0.67489 0.00978 0.73218 0.0
O249 O 0.65238 0.99708 0.74629 0.0
C250 C 0.6813 0.0604 0.73924 0.0
C251 C 0.62965 0.01812 0.71411 0.0
C252 C 0.64275 0.03523 0.77029 0.0
O253 O 0.68235 0.0478 0.74979 0.0
O254 O 0.66762 0.05621 0.7285 0.0
O255 O 0.64011 0.04373 0.75675 0.0
O256 O 0.65227 0.02331 0.76852 0.0
C257 C 0.66614 0.99508 0.739 0.0
O258 O 0.6265 0.02019 0.72998 0.0
O259 O 0.64608 0.02161 0.71115 0.0
In260 In 0.78244 0.69247 0.01345 0.0
O261 O 0.79435 0.66724 0.01909 0.0
O262 O 0.8127 0.69297 0.01336 0.0
C263 C 0.74849 0.66979 0.00976 0.0
C264 C 0.78336 0.70835 0.04752 0.0
C265 C 0.78462 0.70689 0.98052 0.0
O266 O 0.76231 0.66349 0.00825 0.0
O267 O 0.75165 0.68791 0.01248 0.0
O268 O 0.78642 0.71774 -0.00546 0.0
O269 O 0.78172 0.68928 0.98322 0.0
C270 C 0.81042 0.67575 0.01731 0.0
O271 O 0.78848 0.71874 0.035 0.0
O272 O 0.77786 0.69076 0.04269 0.0
In273 In 0.93406 0.54673 0.7987 0.0
O274 O 0.90634 0.55183 0.79478 0.0
O275 O 0.92884 0.57597 0.79489 0.0
C276 C 0.91629 0.51086 0.80352 0.0
C277 C 0.94792 0.54938 0.76752 0.0
C278 C 0.9566 0.55471 0.82736 0.0
O279 O 0.9138 0.52523 0.8124 0.0
O280 O 0.92818 0.51463 0.79264 0.0
O281 O 0.95895 0.54407 0.81446 0.0
O282 O 0.94315 0.56171 0.82553 0.0
C283 C 0.912 0.56957 0.79302 0.0
O284 O 0.95617 0.55915 0.78107 0.0
O285 O 0.93306 0.53806 0.76992 0.0
In286 In 0.78749 0.40864 0.49344 0.0
O287 O 0.77742 0.38811 0.51427 0.0
O288 O 0.80531 0.40228 0.51544 0.0
C289 C 0.77708 0.38715 0.46337 0.0
C290 C 0.76554 0.42932 0.50495 0.0
C291 C 0.818 0.43176 0.48484 0.0
O292 O 0.78069 0.37985 0.47732 0.0
O293 O 0.77806 0.40493 0.46494 0.0
O294 O 0.80387 0.43748 0.48633 0.0
O295 O 0.81656 0.41425 0.48735 0.0
C296 C 0.79272 0.39118 0.52242 0.0
O297 O 0.78164 0.43223 0.51097 0.0
O298 O 0.76038 0.41576 0.49312 0.0
In299 In 0.64707 0.52766 0.30901 0.0
O300 O 0.67408 0.5229 0.30319 0.0
O301 O 0.65157 0.49848 0.30119 0.0
C302 C 0.66228 0.56326 0.32322 0.0
C303 C 0.63264 0.52927 0.27668 0.0
C304 C 0.6276 0.51442 0.33536 0.0
O305 O 0.66974 0.54955 0.32455 0.0
O306 O 0.64701 0.55888 0.31492 0.0
O307 O 0.62139 0.52224 0.32292 0.0
O308 O 0.64345 0.5128 0.33416 0.0
C309 C 0.66816 0.50503 0.29962 0.0
O310 O 0.62451 0.51815 0.28743 0.0
O311 O 0.64777 0.53971 0.28242 0.0
Tb312 Tb 0.07605 0.06086 0.0409 0.0
Tb313 Tb 0.03329 0.03338 0.02455 0.0
C314 C 0.0476 0.05812 0.06324 0.0
C315 C 0.12383 0.06826 0.04581 0.0
C316 C 0.15 0.04742 0.04851 0.0
C317 C 0.1538 0.06654 0.05572 0.0
C318 C 0.14064 0.07692 0.05449 0.0
C319 C 0.12038 0.04947 0.03802 0.0
C320 C 0.13337 0.03915 0.03931 0.0
C321 C 0.10885 0.0772 0.04691 0.0
O322 O 0.07217 0.03114 0.04945 0.0
O323 O 0.04815 0.01254 0.0311 0.0
O324 O 0.04813 0.03831 0.00213 0.0
O325 O 0.07612 0.04283 0.01688 0.0
O326 O 0.00925 0.02204 0.03602 0.0
O327 O 0.01129 0.01775 0.00794 0.0
O328 O 0.03261 0.0624 0.01905 0.0
O329 O 0.0617 0.08034 0.02857 0.0
O330 O 0.064 0.06805 0.06446 0.0
O331 O 0.04218 0.0487 0.04846 0.0
C332 C 0.06173 0.01426 0.04291 0.0
O333 O 0.09983 0.07761 0.03203 0.0
O334 O 0.09829 0.07074 0.0591 0.0
C335 C 0.06551 0.04036 0.00233 0.0
C336 C 0.98511 0.02485 0.01724 0.0
C337 C 0.95627 0.0411 0.00927 0.0
C338 C 0.95561 0.02211 0.00304 0.0
C339 C 0.96996 0.01403 0.00705 0.0
C340 C 0.98598 0.04393 0.02319 0.0
C341 C 0.97164 0.05197 0.0193 0.0
C342 C 1.00053 0.01677 0.02067 0.0
C343 C 0.04534 0.07862 0.02103 0.0
H344 H 0.16664 0.07314 0.0628 0.0
H345 H 0.14333 0.09133 0.06079 0.0
H346 H 0.10736 0.04246 0.03152 0.0
H347 H 0.13029 0.02455 0.03335 0.0
H348 H 0.94397 0.0135 -0.00486 0.0
H349 H 0.96927 0.99939 0.00215 0.0
H350 H 0.9977 0.05261 0.03093 0.0
H351 H 0.97241 0.0665 0.02456 0.0
Tb352 Tb 0.27048 0.79527 0.29642 0.0
Tb353 Tb 0.29392 0.79337 0.26196 0.0
C354 C 0.25565 0.80024 0.25777 0.0
C355 C 0.2479 0.782 0.33649 0.0
C356 C 0.24124 0.75758 0.36388 0.0
C357 C 0.23411 0.77382 0.36358 0.0
C358 C 0.2374 0.78595 0.34989 0.0
C359 C 0.25486 0.7657 0.33661 0.0
C360 C 0.25152 0.75354 0.3502 0.0
C361 C 0.25133 0.79459 0.32215 0.0
O362 O 0.27148 0.76559 0.29152 0.0
O363 O 0.27383 0.76652 0.26193 0.0
O364 O 0.30759 0.78219 0.28294 0.0
O365 O 0.29799 0.7968 0.30677 0.0
O366 O 0.29569 0.78258 0.23626 0.0
O367 O 0.31894 0.80085 0.25111 0.0
O368 O 0.30167 0.82272 0.27316 0.0
O369 O 0.27766 0.82463 0.28923 0.0
O370 O 0.25232 0.79308 0.27301 0.0
O371 O 0.272 0.80509 0.25254 0.0
C372 C 0.26906 0.75705 0.27569 0.0
O373 O 0.26768 0.80534 0.32219 0.0
O374 O 0.24542 0.78618 0.30669 0.0
C375 C 0.30966 0.78858 0.29954 0.0
C376 C 0.3153 0.80513 0.22125 0.0
C377 C 0.31969 0.82763 0.1923 0.0
C378 C 0.32995 0.8141 0.19477 0.0
C379 C 0.32772 0.80288 0.20915 0.0
C380 C 0.30552 0.81909 0.21924 0.0
C381 C 0.30766 0.83024 0.20483 0.0
C382 C 0.3122 0.79268 0.23575 0.0
C383 C 0.29202 0.83266 0.28144 0.0
H384 H 0.22616 0.7772 0.37401 0.0
H385 H 0.23187 0.79846 0.34983 0.0
H386 H 0.26301 0.76251 0.32629 0.0
H387 H 0.25748 0.74135 0.3503 0.0
H388 H 0.3395 0.812 0.18543 0.0
H389 H 0.33547 0.79226 0.21068 0.0
H390 H 0.29593 0.82104 0.2286 0.0
H391 H 0.29942 0.84037 0.20318 0.0
Tb392 Tb 0.5082 0.02322 0.53353 0.0
Tb393 Tb 0.55138 0.02652 0.52639 0.0
C394 C 0.53403 0.01062 0.56058 0.0
C395 C 0.46423 0.03615 0.53724 0.0
C396 C 0.44145 0.06162 0.53553 0.0
C397 C 0.43486 0.04251 0.5399 0.0
C398 C 0.44615 0.02995 0.54078 0.0
C399 C 0.47098 0.05516 0.53286 0.0
C400 C 0.45969 0.06779 0.53203 0.0
C401 C 0.47572 0.02251 0.538 0.0
O402 O 0.52397 0.05042 0.54646 0.0
O403 O 0.54939 0.05622 0.53096 0.0
O404 O 0.53637 0.02668 0.50166 0.0
O405 O 0.51485 0.04068 0.5117 0.0
O406 O 0.57885 0.0333 0.53504 0.0
O407 O 0.57 0.02238 0.50838 0.0
O408 O 0.53847 0.99606 0.52511 0.0
O409 O 0.50906 0.99671 0.51826 0.0
O410 O 0.51762 0.00696 0.55327 0.0
O411 O 0.54795 0.02137 0.5537 0.0
C412 C 0.5384 0.06224 0.54129 0.0
O413 O 0.48141 0.01753 0.52312 0.0
O414 O 0.48843 0.02607 0.55066 0.0
C415 C 0.52401 0.0361 0.49896 0.0
C416 C 0.59527 0.01312 0.52082 0.0
C417 C 0.61935 0.9888 0.52121 0.0
C418 C 0.61327 0.99478 0.5053 0.0
C419 C 0.60146 0.00684 0.50512 0.0
C420 C 0.60102 0.00684 0.53673 0.0
C421 C 0.61296 0.99486 0.53692 0.0
C422 C 0.58347 0.02669 0.52023 0.0
C423 C 0.52206 0.98765 0.51862 0.0
H424 H 0.42087 0.03707 0.54236 0.0
H425 H 0.44071 0.01531 0.54412 0.0
H426 H 0.48496 0.06019 0.5301 0.0
H427 H 0.46531 0.08243 0.52881 0.0
H428 H 0.61804 0.99057 0.49298 0.0
H429 H 0.59733 0.01152 0.49268 0.0
H430 H 0.59647 0.01131 0.54907 0.0
H431 H 0.61719 0.99033 0.54938 0.0
Tb432 Tb 0.3083 0.26685 0.77344 0.0
Tb433 Tb 0.26646 0.27026 0.76943 0.0
C434 C 0.27641 0.23341 0.77801 0.0
C435 C 0.35455 0.26475 0.76299 0.0
C436 C 0.38261 0.26722 0.74026 0.0
C437 C 0.37964 0.25327 0.75269 0.0
C438 C 0.36579 0.2521 0.76395 0.0
C439 C 0.35714 0.27844 0.75035 0.0
C440 C 0.37109 0.27971 0.73913 0.0
C441 C 0.34015 0.26324 0.77514 0.0
O442 O 0.29867 0.25658 0.74603 0.0
O443 O 0.27357 0.26864 0.74208 0.0
O444 O 0.28372 0.29918 0.77255 0.0
O445 O 0.30789 0.29225 0.76 0.0
O446 O 0.23956 0.25541 0.77046 0.0
O447 O 0.24642 0.28539 0.76507 0.0
O448 O 0.27324 0.27144 0.7978 0.0
O449 O 0.30408 0.28166 0.79833 0.0
O450 O 0.29153 0.24343 0.78594 0.0
O451 O 0.26853 0.24091 0.76569 0.0
C452 C 0.28598 0.26081 0.73568 0.0
O453 O 0.33575 0.27914 0.77991 0.0
O454 O 0.32606 0.24888 0.77147 0.0
C455 C 0.29865 0.30454 0.76469 0.0
C456 C 0.22084 0.27433 0.78125 0.0
C457 C 0.19354 0.27761 0.80363 0.0
C458 C 0.19406 0.28528 0.78709 0.0
C459 C 0.20755 0.2836 0.776 0.0
C460 C 0.22083 0.26737 0.79807 0.0
C461 C 0.20727 0.26893 0.80911 0.0
C462 C 0.23365 0.27074 0.76857 0.0
C463 C 0.28897 0.27927 0.80633 0.0
H464 H 0.38798 0.24316 0.75368 0.0
H465 H 0.36385 0.24129 0.77345 0.0
H466 H 0.34849 0.28824 0.74924 0.0
H467 H 0.37306 0.29071 0.72983 0.0
H468 H 0.18363 0.29191 0.78239 0.0
H469 H 0.20729 0.28904 0.76309 0.0
H470 H 0.23103 0.26029 0.80251 0.0
H471 H 0.20743 0.26315 0.82188 0.0
Tb472 Tb 0.03248 0.04169 0.52846 0.0
Tb473 Tb 0.03552 0.01725 0.49305 0.0
C474 C 0.99901 0.01359 0.50987 0.0
C475 C 0.04041 0.05852 0.57453 0.0
C476 C 0.05624 0.05076 0.60638 0.0
C477 C 0.03828 0.05208 0.60519 0.0
C478 C 0.03044 0.05598 0.58937 0.0
C479 C 0.0585 0.05763 0.57583 0.0
C480 C 0.06637 0.0539 0.59166 0.0
C481 C 0.03131 0.05963 0.55739 0.0
O482 O 0.03302 0.01285 0.53785 0.0
O483 O 0.04188 0.99833 0.51354 0.0
O484 O 0.06072 0.03887 0.49746 0.0
O485 O 0.06096 0.04262 0.52718 0.0
O486 O 0.02164 1.00088 0.47093 0.0
O487 O 0.05042 0.0049 0.47544 0.0
O488 O 0.02931 0.04407 0.48319 0.0
O489 O 0.03384 0.06355 0.50872 0.0
O490 O 0.00507 0.03135 0.51658 0.0
O491 O 0.01012 0.00436 0.50341 0.0
C492 C 0.03794 0.99801 0.53026 0.0
O493 O 0.04161 0.0668 0.54521 0.0
O494 O 0.01936 0.044 0.55154 0.0
C495 C 0.06936 0.04503 0.51271 0.0
C496 C 0.03812 0.00352 0.44624 0.0
C497 C 0.03381 0.00933 0.41039 0.0
C498 C 0.03975 0.99334 0.41576 0.0
C499 C 0.04172 0.99037 0.43359 0.0
C500 C 0.0338 0.02033 0.44103 0.0
C501 C 0.03151 0.02315 0.42329 0.0
C502 C 0.03633 0.99847 0.46442 0.0
C503 C 0.0314 0.06146 0.49135 0.0
H504 H 0.03027 0.04988 0.61645 0.0
H505 H 0.01642 0.0564 0.58855 0.0
H506 H 0.06641 0.05918 0.56448 0.0
H507 H 0.08018 0.05276 0.59221 0.0
H508 H 0.04206 0.98265 0.4062 0.0
H509 H 0.04517 0.97736 0.43744 0.0
H510 H 0.03096 0.03064 0.45064 0.0
H511 H 0.02671 0.03551 0.4198 0.0
Tb512 Tb 0.29787 0.81091 0.75489 0.0
Tb513 Tb 0.28064 0.76898 0.76721 0.0
C514 C 0.29919 0.77399 0.73259 0.0
C515 C 0.3012 0.86011 0.74614 0.0
C516 C 0.28029 0.88692 0.74518 0.0
C517 C 0.29464 0.88844 0.73434 0.0
C518 C 0.30501 0.87492 0.73472 0.0
C519 C 0.2873 0.8591 0.75741 0.0
C520 C 0.27696 0.87242 0.75697 0.0
C521 C 0.30984 0.84418 0.74501 0.0
O522 O 0.26811 0.80826 0.75074 0.0
O523 O 0.25848 0.77549 0.75025 0.0
O524 O 0.27182 0.78757 0.78574 0.0
O525 O 0.29269 0.8156 0.78209 0.0
O526 O 0.26327 0.74193 0.76037 0.0
O527 O 0.27728 0.74849 0.78613 0.0
O528 O 0.30873 0.77622 0.77996 0.0
O529 O 0.32223 0.80093 0.76376 0.0
O530 O 0.29597 0.79096 0.7323 0.0
O531 O 0.29767 0.7647 0.74676 0.0
C532 C 0.25504 0.79228 0.74712 0.0
O533 O 0.3148 0.83869 0.76001 0.0
O534 O 0.30102 0.82961 0.73456 0.0
C535 C 0.28056 0.80506 0.79116 0.0
C536 C 0.27662 0.71859 0.77162 0.0
C537 C 0.29796 0.69244 0.76642 0.0
C538 C 0.2936 0.69719 0.78341 0.0
C539 C 0.28292 0.71015 0.78599 0.0
C540 C 0.28048 0.71322 0.75457 0.0
C541 C 0.29104 0.7003 0.75202 0.0
C542 C 0.26849 0.73492 0.77454 0.0
C543 C 0.32363 0.78815 0.77536 0.0
H544 H 0.29739 0.8996 0.72521 0.0
H545 H 0.31557 0.87566 0.72579 0.0
H546 H 0.28405 0.84762 0.76618 0.0
H547 H 0.26617 0.87122 0.76569 0.0
H548 H 0.29876 0.69121 0.79469 0.0
H549 H 0.28023 0.71422 0.79924 0.0
H550 H 0.27609 0.71963 0.74319 0.0
H551 H 0.29449 0.69717 0.73881 0.0
Tb552 Tb 0.53283 0.02255 0.0276 0.0
Tb553 Tb 0.52718 0.04218 0.992 0.0
C554 C 0.56475 0.04664 0.00893 0.0
C555 C 0.52839 0.01211 0.07278 0.0
C556 C 0.51553 0.02281 0.10426 0.0
C557 C 0.52646 0.00974 0.10405 0.0
C558 C 0.53303 0.00453 0.08831 0.0
C559 C 0.51707 0.02475 0.07299 0.0
C560 C 0.51083 0.03023 0.08866 0.0
C561 C 0.53554 0.00755 0.05627 0.0
O562 O 0.52683 0.05025 0.03701 0.0
O563 O 0.53267 0.06691 0.01236 0.0
O564 O 0.50342 0.04093 0.00572 0.0
O565 O 0.50451 0.01411 0.01933 0.0
O566 O 0.53489 0.06305 0.97402 0.0
O567 O 0.50949 0.04155 0.97005 0.0
O568 O 0.52461 0.01098 0.98383 0.0
O569 O 0.53982 0.00264 0.00746 0.0
O570 O 0.55759 0.043 0.0238 0.0
O571 O 0.55527 0.04234 -0.00607 0.0
C572 C 0.52983 0.06679 0.02935 0.0
O573 O 0.52338 1.00004 0.04364 0.0
O574 O 0.54798 0.02143 0.05107 0.0
C575 C 0.4955 0.02602 0.01365 0.0
C576 C 0.52513 0.04996 0.94552 0.0
C577 C 0.53322 0.03955 0.9117 0.0
C578 C 0.52064 0.05062 0.91406 0.0
C579 C 0.51664 0.05583 0.93093 0.0
C580 C 0.53724 0.03845 0.94324 0.0
C581 C 0.54135 0.03337 0.92647 0.0
C582 C 0.52097 0.05515 0.96316 0.0
C583 C 0.5327 0.99864 0.99111 0.0
H584 H 0.53012 0.00387 0.11605 0.0
H585 H 0.54174 0.99473 0.08828 0.0
H586 H 0.51305 0.0304 0.06104 0.0
H587 H 0.50216 0.04009 0.08858 0.0
H588 H 0.51407 0.05541 0.9029 0.0
H589 H 0.50703 0.06448 0.9326 0.0
H590 H 0.54372 0.03362 0.95447 0.0
H591 H 0.55135 0.02516 0.92514 0.0
Tb592 Tb 0.27894 0.25161 0.25867 0.0
Tb593 Tb 0.29455 0.2946 0.27331 0.0
C594 C 0.28083 0.2856 0.23349 0.0
C595 C 0.27526 0.20436 0.23546 0.0
C596 C 0.29286 0.17684 0.22313 0.0
C597 C 0.27411 0.17178 0.22452 0.0
C598 C 0.26542 0.18543 0.23093 0.0
C599 C 0.29335 0.21005 0.23177 0.0
C600 C 0.30215 0.19638 0.22582 0.0
C601 C 0.26784 0.21697 0.24696 0.0
O602 O 0.30867 0.25632 0.25465 0.0
O603 O 0.31758 0.28907 0.25903 0.0
O604 O 0.3026 0.27765 0.29384 0.0
O605 O 0.27978 0.25111 0.28732 0.0
O606 O 0.31157 0.32194 0.2713 0.0
O607 O 0.29659 0.31562 0.29408 0.0
O608 O 0.26591 0.28904 0.28078 0.0
O609 O 0.25367 0.25934 0.26666 0.0
O610 O 0.28202 0.26786 0.23523 0.0
O611 O 0.28152 0.29734 0.24753 0.0
C612 C 0.3211 0.2727 0.25336 0.0
O613 O 0.27734 0.22262 0.26184 0.0
O614 O 0.26282 0.23108 0.23986 0.0
C615 C 0.29198 0.26187 0.29874 0.0
C616 C 0.2973 0.34502 0.28245 0.0
C617 C 0.27497 0.36992 0.27707 0.0
C618 C 0.28011 0.36637 0.2942 0.0
C619 C 0.29132 0.35403 0.29688 0.0
C620 C 0.29259 0.34915 0.26534 0.0
C621 C 0.28154 0.36153 0.2627 0.0
C622 C 0.30569 0.32909 0.28514 0.0
C623 C 0.25167 0.27434 0.27671 0.0
H624 H 0.26641 0.15699 0.22198 0.0
H625 H 0.25137 0.18089 0.23355 0.0
H626 H 0.30109 0.22469 0.23502 0.0
H627 H 0.31655 0.201 0.22502 0.0
H628 H 0.27524 0.37287 0.30545 0.0
H629 H 0.29464 0.35083 0.31015 0.0
H630 H 0.29673 0.34219 0.25392 0.0
H631 H 0.27754 0.36392 0.24936 0.0
Tb632 Tb 0.53359 0.54144 0.02837 0.0
Tb633 Tb 0.53741 0.5173 0.99285 0.0
C634 C 0.49904 0.51558 0.00698 0.0
C635 C 0.54162 0.55876 0.07423 0.0
C636 C 0.55741 0.55194 0.10643 0.0
C637 C 0.54026 0.55562 0.10552 0.0
C638 C 0.53242 0.55902 0.08949 0.0
C639 C 0.55883 0.55526 0.07517 0.0
C640 C 0.56669 0.55198 0.09116 0.0
C641 C 0.53247 0.5598 0.05712 0.0
O642 O 0.53299 0.51234 0.03744 0.0
O643 O 0.54403 0.49911 0.01388 0.0
O644 O 0.56312 0.53749 -0.00086 0.0
O645 O 0.56205 0.54181 0.02864 0.0
O646 O 0.5303 0.49154 0.97676 0.0
O647 O 0.55145 0.51519 0.97032 0.0
O648 O 0.52963 0.54311 0.98261 0.0
O649 O 0.53523 0.56284 0.00805 0.0
O650 O 0.50587 0.53091 0.01768 0.0
O651 O 0.50904 0.50778 -0.00301 0.0
C652 C 0.53884 0.49804 0.03015 0.0
O653 O 0.54279 0.56674 0.04489 0.0
O654 O 0.52052 0.54415 0.05141 0.0
C655 C 0.57114 0.54362 0.01462 0.0
C656 C 0.53296 0.49723 0.9469 0.0
C657 C 0.51843 0.49976 0.9129 0.0
C658 C 0.53696 0.50154 0.91605 0.0
C659 C 0.54416 0.50023 0.93296 0.0
C660 C 0.51436 0.49472 0.94365 0.0
C661 C 0.50715 0.49581 0.92676 0.0
C662 C 0.54101 0.49852 0.96489 0.0
C663 C 0.53214 0.5606 0.99071 0.0
H664 H 0.53291 0.55581 0.11717 0.0
H665 H 0.51902 0.5614 0.08893 0.0
H666 H 0.56603 0.55458 0.06349 0.0
H667 H 0.57983 0.54893 0.09147 0.0
H668 H 0.54598 0.50473 0.90565 0.0
H669 H 0.55856 0.5023 0.93528 0.0
H670 H 0.50541 0.49245 0.9542 0.0
H671 H 0.49276 0.49397 0.92464 0.0
Tb672 Tb 0.7985 0.3121 0.2537 0.0
Tb673 Tb 0.7812 0.27114 0.26755 0.0
C674 C 0.79801 0.27426 0.23183 0.0
C675 C 0.80153 0.36107 0.24479 0.0
C676 C 0.78053 0.38778 0.24401 0.0
C677 C 0.79535 0.38989 0.2337 0.0
C678 C 0.80577 0.37642 0.23399 0.0
C679 C 0.78716 0.35948 0.25556 0.0
C680 C 0.77676 0.37273 0.25518 0.0
C681 C 0.81034 0.34529 0.24361 0.0
O682 O 0.76863 0.3092 0.24966 0.0
O683 O 0.75879 0.27649 0.2502 0.0
O684 O 0.77105 0.29099 0.28355 0.0
O685 O 0.7943 0.31704 0.28119 0.0
O686 O 0.76681 0.24238 0.26217 0.0
O687 O 0.7764 0.2537 0.28872 0.0
O688 O 0.80929 0.27976 0.28042 0.0
O689 O 0.82277 0.30156 0.26166 0.0
O690 O 0.79609 0.29176 0.23131 0.0
O691 O 0.79691 0.26556 0.24636 0.0
C692 C 0.75547 0.29318 0.24646 0.0
O693 O 0.81543 0.33991 0.25861 0.0
O694 O 0.80155 0.33063 0.23323 0.0
C695 C 0.78088 0.30779 0.28959 0.0
C696 C 0.7809 0.22402 0.27921 0.0
C697 C 0.80134 0.19677 0.27673 0.0
C698 C 0.78328 0.19122 0.28092 0.0
C699 C 0.77306 0.20484 0.28213 0.0
C700 C 0.79901 0.2296 0.27555 0.0
C701 C 0.80914 0.21615 0.27433 0.0
C702 C 0.77031 0.23824 0.27817 0.0
C703 C 0.82426 0.29013 0.27444 0.0
H704 H 0.79845 0.40151 0.22507 0.0
H705 H 0.81672 0.37763 0.22547 0.0
H706 H 0.78364 0.34762 0.2639 0.0
H707 H 0.76559 0.37107 0.26349 0.0
H708 H 0.77699 0.17632 0.28283 0.0
H709 H 0.75902 0.20034 0.2848 0.0
H710 H 0.80518 0.24426 0.27289 0.0
H711 H 0.82284 0.22082 0.27064 0.0
Tb712 Tb 0.03312 0.52098 0.5283 0.0
Tb713 Tb 0.02738 0.54143 0.49292 0.0
C714 C 0.06576 0.53774 0.5054 0.0
C715 C 0.02626 0.50979 0.57311 0.0
C716 C 0.01164 0.52283 0.60273 0.0
C717 C 0.02866 0.51889 0.60424 0.0
C718 C 0.03592 0.51237 0.58949 0.0
C719 C 0.00899 0.51315 0.57168 0.0
C720 C 1.00168 0.51949 0.58644 0.0
C721 C 0.03526 0.50674 0.55729 0.0
O722 O 0.03012 0.55015 0.53774 0.0
O723 O 0.03441 0.56646 0.51276 0.0
O724 O 0.00473 0.541 0.5082 0.0
O725 O 0.00472 0.51316 0.5203 0.0
O726 O 0.03339 0.56217 0.47454 0.0
O727 O 0.00829 0.54016 0.47197 0.0
O728 O 0.02548 0.51042 0.484 0.0
O729 O 0.03691 0.49907 0.50841 0.0
O730 O 0.05983 0.53026 0.51979 0.0
O731 O 0.05561 0.5428 0.49317 0.0
C732 C 0.03271 0.56659 0.52993 0.0
O733 O 0.02486 0.49771 0.54381 0.0
O734 O 0.04673 0.52207 0.553 0.0
C735 C 0.99624 0.52582 0.5154 0.0
C736 C 0.02233 0.54856 0.44653 0.0
C737 C 0.02987 0.53893 0.41232 0.0
C738 C 0.01785 0.55055 0.41524 0.0
C739 C 0.01412 0.55537 0.43232 0.0
C740 C 0.03379 0.53642 0.44367 0.0
C741 C 0.03759 0.53169 0.4267 0.0
C742 C 0.01901 0.55384 0.46443 0.0
C743 C 0.0315 0.4967 0.49155 0.0
H744 H 0.03647 0.5212 0.61677 0.0
H745 H 0.04936 0.51012 0.59072 0.0
H746 H 1.00146 0.51167 0.55906 0.0
H747 H 0.98859 0.52258 0.58498 0.0
H748 H 0.01162 0.55619 0.40437 0.0
H749 H 0.00507 0.56459 0.43444 0.0
H750 H 0.04012 0.53096 0.45461 0.0
H751 H 0.04719 0.52305 0.42495 0.0
Tb752 Tb 0.80742 0.76562 0.27377 0.0
Tb753 Tb 0.76655 0.77288 0.26883 0.0
C754 C 0.77363 0.73502 0.27964 0.0
C755 C 0.85311 0.76167 0.26314 0.0
C756 C 0.88177 0.76505 0.24096 0.0
C757 C 0.8784 0.75051 0.25282 0.0
C758 C 0.86424 0.74889 0.26381 0.0
C759 C 0.85609 0.77592 0.25104 0.0
C760 C 0.87033 0.77763 0.2401 0.0
C761 C 0.83857 0.75995 0.27519 0.0
O762 O 0.79671 0.75498 0.24668 0.0
O763 O 0.77486 0.77151 0.24191 0.0
O764 O 0.78535 0.80081 0.27192 0.0
O765 O 0.80937 0.79186 0.26084 0.0
O766 O 0.73907 0.7593 0.2668 0.0
O767 O 0.74797 0.79004 0.26579 0.0
O768 O 0.77264 0.7753 0.29729 0.0
O769 O 0.80353 0.77955 0.29924 0.0
O770 O 0.78959 0.74353 0.2868 0.0
O771 O 0.76654 0.74278 0.26695 0.0
C772 C 0.78579 0.76141 0.2359 0.0
O773 O 0.83498 0.77599 0.28092 0.0
O774 O 0.82398 0.74643 0.27075 0.0
C775 C 0.80082 0.80502 0.26486 0.0
C776 C 0.7208 0.77776 0.27928 0.0
C777 C 0.69261 0.77914 0.30116 0.0
C778 C 0.6939 0.78836 0.28535 0.0
C779 C 0.70783 0.78763 0.27453 0.0
C780 C 0.71998 0.76912 0.29536 0.0
C781 C 0.70598 0.76975 0.30615 0.0
C782 C 0.73424 0.77544 0.26681 0.0
C783 C 0.78839 0.78029 0.30638 0.0
H784 H 0.88667 0.74032 0.25361 0.0
H785 H 0.86204 0.73767 0.27292 0.0
H786 H 0.84756 0.78586 0.25018 0.0
H787 H 0.87258 0.78909 0.23125 0.0
H788 H 0.68377 0.79557 0.28101 0.0
H789 H 0.7082 0.79435 0.26218 0.0
H790 H 0.72991 0.7615 0.29939 0.0
H791 H 0.70556 0.76276 0.31835 0.0
Tb792 Tb 0.77014 0.29465 0.79905 0.0
Tb793 Tb 0.79462 0.29489 0.76545 0.0
C794 C 0.75405 0.29597 0.76053 0.0
C795 C 0.74689 0.28125 0.8386 0.0
C796 C 0.73875 0.25564 0.86495 0.0
C797 C 0.73196 0.27214 0.86492 0.0
C798 C 0.73602 0.28488 0.85179 0.0
C799 C 0.75347 0.26469 0.83839 0.0
C800 C 0.74944 0.25198 0.85148 0.0
C801 C 0.75153 0.29473 0.8251 0.0
O802 O 0.76358 0.26524 0.78774 0.0
O803 O 0.78858 0.26545 0.77236 0.0
O804 O 0.81243 0.29956 0.78919 0.0
O805 O 0.79309 0.284 0.80828 0.0
O806 O 0.80021 0.28359 0.7411 0.0
O807 O 0.81835 0.30874 0.75459 0.0
O808 O 0.78845 0.32262 0.76811 0.0
O809 O 0.78658 0.32353 0.79771 0.0
O810 O 0.75478 0.30251 0.77705 0.0
O811 O 0.76706 0.28926 0.75427 0.0
C812 C 0.77377 0.25639 0.77896 0.0
O813 O 0.76852 0.30354 0.82537 0.0
O814 O 0.74484 0.28807 0.8093 0.0
C815 C 0.80953 0.29054 0.80358 0.0
C816 C 0.81348 0.30865 0.72435 0.0
C817 C 0.812 0.32925 0.69453 0.0
C818 C 0.82591 0.31994 0.69744 0.0
C819 C 0.82663 0.30968 0.7123 0.0
C820 C 0.79975 0.31815 0.72166 0.0
C821 C 0.79901 0.32839 0.70685 0.0
C822 C 0.81409 0.298 0.73993 0.0
C823 C 0.78933 0.33233 0.78324 0.0
H824 H 0.7236 0.27522 0.8751 0.0
H825 H 0.73083 0.29762 0.852 0.0
H826 H 0.76192 0.26177 0.82822 0.0
H827 H 0.75514 0.23959 0.85135 0.0
H828 H 0.83596 0.3202 0.68803 0.0
H829 H 0.83734 0.30246 0.71432 0.0
H830 H 0.78957 0.31758 0.73099 0.0
H831 H 0.78827 0.33561 0.70502 0.0
Tb832 Tb 0.77924 0.75387 0.75961 0.0
Tb833 Tb 0.79461 0.79718 0.77377 0.0
C834 C 0.77977 0.78756 0.73417 0.0
C835 C 0.77952 0.70646 0.73981 0.0
C836 C 0.79897 0.68025 0.7283 0.0
C837 C 0.78012 0.67575 0.72527 0.0
C838 C 0.77042 0.6888 0.73107 0.0
C839 C 0.79835 0.71146 0.74165 0.0
C840 C 0.80797 0.69853 0.73603 0.0
C841 C 0.7697 0.71877 0.74888 0.0
O842 O 0.80907 0.7591 0.75585 0.0
O843 O 0.8174 0.79186 0.75894 0.0
O844 O 0.803 0.78051 0.7944 0.0
O845 O 0.78011 0.75398 0.78824 0.0
O846 O 0.81176 0.82446 0.77174 0.0
O847 O 0.7963 0.8185 0.79422 0.0
O848 O 0.76589 0.79118 0.78121 0.0
O849 O 0.75376 0.76136 0.76715 0.0
O850 O 0.7806 0.76971 0.73592 0.0
O851 O 0.78135 0.7997 0.74809 0.0
C852 C 0.82118 0.77547 0.75383 0.0
O853 O 0.77648 0.7251 0.76471 0.0
O854 O 0.76565 0.73238 0.74015 0.0
C855 C 0.79248 0.76476 0.79946 0.0
C856 C 0.79762 0.84796 0.78233 0.0
C857 C 0.77456 0.87191 0.77584 0.0
C858 C 0.77917 0.86843 0.79315 0.0
C859 C 0.79071 0.85657 0.79638 0.0
C860 C 0.79394 0.85252 0.76511 0.0
C861 C 0.78251 0.86441 0.76191 0.0
C862 C 0.80572 0.83183 0.78536 0.0
C863 C 0.7517 0.77638 0.77715 0.0
H864 H 0.77283 0.66182 0.71922 0.0
H865 H 0.75587 0.68474 0.72951 0.0
H866 H 0.80567 0.72482 0.74857 0.0
H867 H 0.82239 0.70241 0.73904 0.0
H868 H 0.77332 0.87427 0.8041 0.0
H869 H 0.79335 0.85316 0.80974 0.0
H870 H 0.79894 0.84601 0.75395 0.0
H871 H 0.77902 0.86672 0.74842 0.0
Tb872 Tb 0.57411 0.55907 0.54061 0.0
Tb873 Tb 0.53359 0.53542 0.52632 0.0
C874 C 0.54213 0.55903 0.56275 0.0
C875 C 0.62122 0.56648 0.55075 0.0
C876 C 0.64978 0.54939 0.54656 0.0
C877 C 0.65317 0.5687 0.55314 0.0
C878 C 0.63886 0.5773 0.55513 0.0
C879 C 0.61786 0.547 0.54491 0.0
C880 C 0.63203 0.53852 0.54282 0.0
C881 C 0.60606 0.57523 0.55095 0.0
O882 O 0.56911 0.53083 0.55177 0.0
O883 O 0.54772 0.5134 0.5311 0.0
O884 O 0.54971 0.54092 0.50427 0.0
O885 O 0.57669 0.54071 0.51794 0.0
O886 O 0.50918 0.51612 0.5306 0.0
O887 O 0.51399 0.52743 0.5053 0.0
O888 O 0.53311 0.56553 0.52606 0.0
O889 O 0.56332 0.57796 0.52386 0.0
O890 O 0.55697 0.56977 0.55774 0.0
O891 O 0.5333 0.54296 0.55404 0.0
C892 C 0.5596 0.51419 0.54427 0.0
O893 O 0.59898 0.57675 0.53536 0.0
O894 O 0.59388 0.56779 0.56148 0.0
C895 C 0.566 0.53871 0.50368 0.0
C896 C 0.48587 0.52522 0.51535 0.0
C897 C 0.45626 0.54128 0.51336 0.0
C898 C 0.45587 0.52411 0.50337 0.0
C899 C 0.47068 0.51614 0.50433 0.0
C900 C 0.48623 0.54223 0.52547 0.0
C901 C 0.47151 0.55019 0.52452 0.0
C902 C 0.50206 0.51822 0.5152 0.0
C903 C 0.54655 0.57936 0.52191 0.0
H904 H 0.66683 0.57723 0.55613 0.0
H905 H 0.64154 0.59237 0.55965 0.0
H906 H 0.60427 0.53846 0.54153 0.0
H907 H 0.62912 0.5235 0.53802 0.0
H908 H 0.44427 0.51708 0.49461 0.0
H909 H 0.47042 0.50314 0.49628 0.0
H910 H 0.498 0.54949 0.53394 0.0
H911 H 0.47202 0.56326 0.53258 0.0
Tb912 Tb 0.00851 0.52426 0.03364 0.0
Tb913 Tb 0.05136 0.52576 0.02718 0.0
C914 C 0.03285 0.50967 0.06075 0.0
C915 C 0.96476 0.53809 0.037 0.0
C916 C 0.94207 0.56364 0.03532 0.0
C917 C 0.93601 0.54525 0.04153 0.0
C918 C 0.94725 0.53266 0.04239 0.0
C919 C 0.97102 0.55641 0.03087 0.0
C920 C 0.95977 0.56909 0.03004 0.0
C921 C 0.97608 0.52429 0.03763 0.0
O922 O 0.02496 0.55052 0.04763 0.0
O923 O 0.05033 0.55576 0.03215 0.0
O924 O 0.0369 0.52726 0.00243 0.0
O925 O 0.01625 0.54246 0.01253 0.0
O926 O 0.07879 0.53183 0.0359 0.0
O927 O 0.06974 0.52075 0.00929 0.0
O928 O 0.0374 0.49552 0.02569 0.0
O929 O 0.00897 0.49827 0.01737 0.0
O930 O 0.01666 0.50683 0.05307 0.0
O931 O 0.04728 0.52 0.05429 0.0
C932 C 0.0397 0.56204 0.04274 0.0
O933 O 0.98198 0.51957 0.02278 0.0
O934 O 0.98855 0.52737 0.05048 0.0
C935 C 0.02532 0.53765 -0.00019 0.0
C936 C 0.09492 0.51127 0.02169 0.0
C937 C 0.11925 0.48725 0.02197 0.0
C938 C 0.11238 0.49243 0.00603 0.0
C939 C 0.10043 0.50433 0.00591 0.0
C940 C 0.10143 0.50577 0.03764 0.0
C941 C 0.11347 0.49391 0.03777 0.0
C942 C 0.08324 0.52498 0.0211 0.0
C943 C 0.02108 0.4881 0.0185 0.0
H944 H 0.92241 0.54036 0.04541 0.0
H945 H 0.94219 0.51855 0.04711 0.0
H946 H 0.98455 0.56086 0.02669 0.0
H947 H 0.96501 0.58319 0.0254 0.0
H948 H 0.11667 0.48779 -0.00637 0.0
H949 H 0.09575 0.50843 0.99342 0.0
H950 H 0.09744 0.51081 0.05005 0.0
H951 H 0.1183 0.49 0.05028 0.0
C952 C 0.00638 0.21926 0.95808 0.0
C953 C 0.00657 0.2187 0.93969 0.0
C954 C 0.01039 0.20439 0.96737 0.0
C955 C 0.03391 0.16519 0.96372 0.0
H956 H 0.00676 0.14616 0.003 0.0
C957 C 0.05499 0.11145 0.00947 0.0
C958 C 0.04115 0.09584 0.01355 0.0
C959 C 0.05098 0.12691 0.00108 0.0
C960 C 0.01445 0.15127 0.99203 0.0
H961 H 0.01096 0.20192 0.91662 0.0
H962 H 0.01783 0.17592 0.93279 0.0
H963 H 0.99886 0.17157 0.98674 0.0
H964 H 0.01218 0.08462 0.01238 0.0
H965 H 0.00525 0.1116 -0.00203 0.0
H966 H 0.04935 0.1447 0.96889 0.0
C967 C 0.01474 0.18796 0.94007 0.0
C968 C 0.01002 0.16596 0.9828 0.0
C969 C 0.01064 0.20278 0.93078 0.0
C970 C 0.02321 0.09635 0.00943 0.0
C971 C 0.01921 0.11189 0.00123 0.0
C972 C 0.03842 0.15058 0.97304 0.0
C973 C 0.0148 0.18862 0.95851 0.0
C974 C 0.01962 0.17306 0.96845 0.0
C975 C 0.03303 0.12727 -0.00325 0.0
C976 C 0.02868 0.14335 0.98725 0.0
H977 H 0.00342 0.23137 0.96536 0.0
H978 H 0.01048 0.20549 0.98156 0.0
H979 H 0.04173 0.17044 0.95288 0.0
H980 H 0.06896 0.11151 0.01235 0.0
H981 H 0.06196 0.1386 -0.00204 0.0
C982 C 0.13207 0.79894 0.14755 0.0
C983 C 0.11617 0.80081 0.15484 0.0
C984 C 0.14754 0.79958 0.15839 0.0
C985 C 0.16802 0.81468 0.20397 0.0
H986 H 0.19896 0.78133 0.19182 0.0
C987 C 0.22349 0.80133 0.2524 0.0
C988 C 0.24029 0.8018 0.24583 0.0
C989 C 0.20873 0.80193 0.24109 0.0
C990 C 0.19054 0.79086 0.19529 0.0
H991 H 0.10399 0.80475 0.17922 0.0
H992 H 0.13072 0.80546 0.1981 0.0
H993 H 0.17242 0.78077 0.17256 0.0
H994 H 0.25477 0.80324 0.22221 0.0
H995 H 0.22888 0.80406 0.20242 0.0
H996 H 0.18596 0.82437 0.22694 0.0
C997 C 0.13147 0.8039 0.18402 0.0
C998 C 0.17533 0.7906 0.18423 0.0
C999 C 0.11606 0.80336 0.17318 0.0
C1000 C 0.24203 0.80297 0.2277 0.0
C1001 C 0.22719 0.80328 0.21635 0.0
C1002 C 0.18311 0.81478 0.21511 0.0
C1003 C 0.14744 0.80202 0.17679 0.0
C1004 C 0.16383 0.80249 0.18842 0.0
C1005 C 0.21038 0.80276 0.22292 0.0
C1006 C 0.19453 0.80287 0.21091 0.0
H1007 H 0.13258 0.79698 0.13345 0.0
H1008 H 0.15963 0.79836 0.1523 0.0
H1009 H 0.15972 0.82432 0.2075 0.0
H1010 H 0.22169 0.80044 0.2663 0.0
H1011 H 0.19592 0.80134 0.24653 0.0
C1012 C 0.52061 0.83316 0.44358 0.0
C1013 C 0.50482 0.81822 0.44212 0.0
C1014 C 0.52127 0.85057 0.45309 0.0
C1015 C 0.49374 0.88238 0.4676 0.0
H1016 H 0.53393 0.90394 0.50166 0.0
C1017 C 0.501 0.95575 0.50768 0.0
C1018 C 0.51855 0.96746 0.51105 0.0
C1019 C 0.49813 0.93674 0.50041 0.0
C1020 C 0.52272 0.89832 0.49203 0.0
H1021 H 0.47727 0.80985 0.44931 0.0
H1022 H 0.47833 0.84056 0.46565 0.0
H1023 H 0.5314 0.87257 0.48648 0.0
H1024 H 0.54681 0.96851 0.50899 0.0
H1025 H 0.54187 0.93606 0.49588 0.0
H1026 H 0.48542 0.90845 0.47254 0.0
C1027 C 0.49021 0.83867 0.45954 0.0
C1028 C 0.52124 0.88026 0.48342 0.0
C1029 C 0.48964 0.82109 0.45028 0.0
C1030 C 0.5331 0.95984 0.50684 0.0
C1031 C 0.53025 0.94106 0.49939 0.0
C1032 C 0.49536 0.90066 0.47602 0.0
C1033 C 0.50607 0.85354 0.46109 0.0
C1034 C 0.50688 0.87219 0.47097 0.0
C1035 C 0.51276 0.92913 0.49617 0.0
C1036 C 0.51005 0.90903 0.48816 0.0
H1037 H 0.53251 0.83137 0.43743 0.0
H1038 H 0.53363 0.86185 0.45396 0.0
H1039 H 0.48255 0.87651 0.458 0.0
H1040 H 0.4895 0.96118 0.51081 0.0
H1041 H 0.48447 0.92798 0.49829 0.0
C1042 C 0.50553 0.28883 0.64021 0.0
C1043 C 0.52173 0.28766 0.64901 0.0
C1044 C 0.48969 0.28579 0.649 0.0
C1045 C 0.46898 0.26347 0.68766 0.0
H1046 H 0.43803 0.29848 0.68307 0.0
C1047 C 0.41453 0.2665 0.73556 0.0
C1048 C 0.39788 0.26891 0.7288 0.0
C1049 C 0.42891 0.26803 0.72492 0.0
C1050 C 0.44639 0.2884 0.6843 0.0
H1051 H 0.53405 0.28231 0.67382 0.0
H1052 H 0.50653 0.27705 0.68908 0.0
H1053 H 0.46437 0.30232 0.66592 0.0
H1054 H 0.38336 0.27469 0.7054 0.0
H1055 H 0.40856 0.27748 0.68684 0.0
H1056 H 0.45114 0.24961 0.70609 0.0
C1057 C 0.50597 0.28014 0.6754 0.0
C1058 C 0.46148 0.29061 0.67448 0.0
C1059 C 0.52177 0.28329 0.66668 0.0
C1060 C 0.39604 0.27299 0.71111 0.0
C1061 C 0.41048 0.27457 0.70046 0.0
C1062 C 0.4539 0.26123 0.69744 0.0
C1063 C 0.48974 0.28138 0.66669 0.0
C1064 C 0.47307 0.27832 0.67622 0.0
C1065 C 0.42708 0.27206 0.70724 0.0
C1066 C 0.44254 0.27382 0.69606 0.0
H1067 H 0.50511 0.29218 0.62659 0.0
H1068 H 0.47737 0.28671 0.6419 0.0
H1069 H 0.47747 0.25354 0.68906 0.0
H1070 H 0.41657 0.26374 0.7492 0.0
H1071 H 0.4416 0.26639 0.73068 0.0
C1072 C 0.03723 0.85926 0.63073 0.0
C1073 C 0.03485 0.84058 0.62237 0.0
C1074 C 0.0377 0.8759 0.62109 0.0
C1075 C 0.03097 0.89208 0.57346 0.0
H1076 H 0.04785 0.94316 0.59664 0.0
C1077 C 0.04026 0.96252 0.53283 0.0
C1078 C 0.03841 0.98019 0.54084 0.0
C1079 C 0.03993 0.94593 0.54251 0.0
C1080 C 0.04288 0.92913 0.58972 0.0
H1081 H 0.03126 0.82581 0.59648 0.0
H1082 H 0.0325 0.85404 0.57996 0.0
H1083 H 0.04724 0.91512 0.61311 0.0
H1084 H 0.03479 0.9932 0.56619 0.0
H1085 H 0.03439 0.96498 0.58279 0.0
H1086 H 0.02687 0.90629 0.54999 0.0
C1087 C 0.03367 0.85623 0.59411 0.0
C1088 C 0.04249 0.91255 0.59941 0.0
C1089 C 0.03306 0.83961 0.60377 0.0
C1090 C 0.03636 0.98025 0.55917 0.0
C1091 C 0.03621 0.96375 0.56888 0.0
C1092 C 0.03152 0.90866 0.56375 0.0
C1093 C 0.03595 0.87506 0.60237 0.0
C1094 C 0.03648 0.89334 0.5917 0.0
C1095 C 0.03789 0.94595 0.5609 0.0
C1096 C 0.03745 0.92779 0.57152 0.0
H1097 H 0.03863 0.86109 0.64493 0.0
H1098 H 0.03926 0.88947 0.62863 0.0
H1099 H 0.02588 0.87817 0.56641 0.0
H1100 H 0.04181 0.96134 0.51886 0.0
H1101 H 0.0415 0.93304 0.53541 0.0
C1102 C 0.47048 0.76955 0.85597 0.0
C1103 C 0.48679 0.77556 0.84771 0.0
C1104 C 0.45347 0.77095 0.84822 0.0
C1105 C 0.4309 0.79232 0.80951 0.0
H1106 H 0.38708 0.76204 0.82614 0.0
C1107 C 0.35872 0.80049 0.78062 0.0
C1108 C 0.34246 0.7869 0.78338 0.0
C1109 C 0.37592 0.7993 0.78816 0.0
C1110 C 0.39891 0.77069 0.82092 0.0
H1111 H 0.49681 0.78803 0.82405 0.0
H1112 H 0.46778 0.79024 0.81059 0.0
H1113 H 0.41588 0.75933 0.83858 0.0
H1114 H 0.33282 0.76101 0.79673 0.0
H1115 H 0.36194 0.7586 0.80921 0.0
H1116 H 0.41391 0.80329 0.7915 0.0
C1117 C 0.46791 0.7845 0.82334 0.0
C1118 C 0.41599 0.76927 0.82848 0.0
C1119 C 0.48494 0.78308 0.83113 0.0
C1120 C 0.34458 0.772 0.79409 0.0
C1121 C 0.36176 0.77071 0.80151 0.0
C1122 C 0.41379 0.79369 0.80188 0.0
C1123 C 0.45147 0.7785 0.83159 0.0
C1124 C 0.4327 0.78004 0.82312 0.0
C1125 C 0.37816 0.78433 0.79892 0.0
C1126 C 0.39706 0.78292 0.80727 0.0
H1127 H 0.47081 0.76377 0.86872 0.0
H1128 H 0.44185 0.76628 0.85566 0.0
H1129 H 0.44281 0.80127 0.80465 0.0
H1130 H 0.35821 0.81234 0.77264 0.0
H1131 H 0.38749 0.8105 0.78554 0.0
C1132 C 0.5315 0.23207 0.10293 0.0
C1133 C 0.52813 0.2329 0.12093 0.0
C1134 C 0.5316 0.21447 0.09332 0.0
C1135 C 0.51887 0.15908 0.09539 0.0
H1136 H 0.54694 0.1602 0.05487 0.0
C1137 C 0.52612 0.08635 0.05797 0.0
C1138 C 0.52961 0.08573 0.03997 0.0
C1139 C 0.52591 0.10385 0.06771 0.0
C1140 C 0.53873 0.1593 0.06597 0.0
H1141 H 0.52225 0.21478 0.14256 0.0
H1142 H 0.5225 0.18454 0.1262 0.0
H1143 H 0.54658 0.1901 0.0713 0.0
H1144 H 0.53555 0.10421 0.01857 0.0
H1145 H 0.53501 0.13415 0.03512 0.0
H1146 H 0.51104 0.12826 0.09006 0.0
C1147 C 0.52487 0.19748 0.11919 0.0
C1148 C 0.53852 0.17684 0.07561 0.0
C1149 C 0.5248 0.21511 0.12879 0.0
C1150 C 0.53286 0.10364 0.0323 0.0
C1151 C 0.53266 0.12114 0.04202 0.0
C1152 C 0.51908 0.14152 0.08574 0.0
C1153 C 0.52833 0.19656 0.10113 0.0
C1154 C 0.52857 0.17735 0.09064 0.0
C1155 C 0.52919 0.12186 0.06007 0.0
C1156 C 0.529 0.14102 0.07068 0.0
H1157 H 0.53417 0.24518 0.09614 0.0
H1158 H 0.53407 0.21501 0.07956 0.0
H1159 H 0.51069 0.1582 0.10651 0.0
H1160 H 0.52356 0.07318 0.06468 0.0
H1161 H 0.52339 0.10316 0.08146 0.0
C1162 C 0.10854 0.28505 0.35621 0.0
C1163 C 0.0914 0.27575 0.3478 0.0
C1164 C 0.12519 0.28486 0.34857 0.0
C1165 C 0.14603 0.26172 0.30949 0.0
H1166 H 0.18974 0.29878 0.32727 0.0
C1167 C 0.21753 0.25882 0.28135 0.0
C1168 C 0.233 0.27457 0.28414 0.0
C1169 C 0.2007 0.25889 0.28871 0.0
C1170 C 0.17789 0.28821 0.32174 0.0
H1171 H 0.07966 0.25875 0.32384 0.0
H1172 H 0.10794 0.25848 0.31066 0.0
H1173 H 0.16151 0.29928 0.33969 0.0
H1174 H 0.24144 0.30299 0.29762 0.0
H1175 H 0.21289 0.30333 0.30989 0.0
H1176 H 0.16239 0.25088 0.29131 0.0
C1177 C 0.1088 0.26598 0.32347 0.0
C1178 C 0.16117 0.28836 0.32926 0.0
C1179 C 0.09214 0.26621 0.33113 0.0
C1180 C 0.23034 0.29039 0.2948 0.0
C1181 C 0.21353 0.29049 0.30214 0.0
C1182 C 0.16277 0.26156 0.30196 0.0
C1183 C 0.12606 0.27531 0.33186 0.0
C1184 C 0.1445 0.27512 0.32348 0.0
C1185 C 0.19797 0.27472 0.29947 0.0
C1186 C 0.17945 0.27482 0.30775 0.0
H1187 H 0.10919 0.29259 0.369 0.0
H1188 H 0.13749 0.29218 0.35615 0.0
H1189 H 0.1342 0.25092 0.30423 0.0
H1190 H 0.21842 0.24611 0.27348 0.0
H1191 H 0.18983 0.24611 0.28602 0.0
C1192 C 0.95397 0.05352 0.18456 0.0
C1193 C 0.93857 0.03821 0.18343 0.0
C1194 C 0.96492 0.05622 0.17066 0.0
C1195 C 0.96682 0.0425 0.12389 0.0
H1196 H 0.01819 0.05646 0.13665 0.0
C1197 C 0.02178 0.03932 0.07688 0.0
C1198 C 0.03537 0.05642 0.07699 0.0
C1199 C 0.00907 0.03741 0.08916 0.0
C1200 C 0.00387 0.05272 0.133 0.0
H1201 H 0.92211 0.01393 0.16706 0.0
H1202 H 0.94174 0.01818 0.14286 0.0
H1203 H 0.99727 0.05208 0.15963 0.0
H1204 H 0.04669 0.08488 0.08954 0.0
H1205 H 0.0245 0.08134 0.1118 0.0
H1206 H 0.9737 0.04249 0.09714 0.0
C1207 C 0.94511 0.02836 0.15429 0.0
C1208 C 0.99192 0.05028 0.14606 0.0
C1209 C 0.93396 0.02587 0.16811 0.0
C1210 C 0.03636 0.07157 0.08954 0.0
C1211 C 0.02371 0.06958 0.10202 0.0
C1212 C 0.97883 0.04467 0.1108 0.0
C1213 C 0.96081 0.04341 0.15559 0.0
C1214 C 0.9733 0.04541 0.14162 0.0
C1215 C 0.01006 0.05251 0.10182 0.0
C1216 C 0.99736 0.05004 0.11537 0.0
H1217 H 0.95761 0.06333 0.19622 0.0
H1218 H 0.97671 0.06822 0.17181 0.0
H1219 H 0.95253 0.03885 0.12014 0.0
H1220 H 0.0212 0.02723 0.06755 0.0
H1221 H 0.99881 0.02403 0.08907 0.0
C1222 C 0.26828 0.65576 0.47863 0.0
C1223 C 0.27679 0.66699 0.49377 0.0
C1224 C 0.26335 0.66459 0.46401 0.0
C1225 C 0.27207 0.7115 0.44449 0.0
H1226 H 0.22514 0.69063 0.41992 0.0
C1227 C 0.24361 0.75503 0.39614 0.0
C1228 C 0.23961 0.74588 0.37918 0.0
C1229 C 0.24561 0.74438 0.41041 0.0
C1230 C 0.23826 0.69652 0.42671 0.0
H1231 H 0.28708 0.69611 0.50557 0.0
H1232 H 0.27821 0.71146 0.48032 0.0
H1233 H 0.23511 0.67365 0.44392 0.0
H1234 H 0.23297 0.71837 0.36391 0.0
H1235 H 0.23655 0.69966 0.38902 0.0
H1236 H 0.27509 0.7345 0.42756 0.0
C1237 C 0.27563 0.69591 0.47949 0.0
C1238 C 0.24404 0.68679 0.44029 0.0
C1239 C 0.28067 0.68712 0.49399 0.0
C1240 C 0.23626 0.72573 0.37688 0.0
C1241 C 0.23817 0.71505 0.3912 0.0
C1242 C 0.26622 0.72129 0.43112 0.0
C1243 C 0.26681 0.68475 0.46441 0.0
C1244 C 0.26096 0.69429 0.44938 0.0
C1245 C 0.24357 0.72444 0.40791 0.0
C1246 C 0.24924 0.71397 0.42224 0.0
H1247 H 0.26512 0.64018 0.47819 0.0
H1248 H 0.25677 0.65566 0.45247 0.0
H1249 H 0.28533 0.71741 0.45098 0.0
H1250 H 0.24636 0.77056 0.39825 0.0
H1251 H 0.24961 0.75184 0.42327 0.0
C1252 C 0.61939 0.00871 0.68278 0.0
C1253 C 0.61521 0.01124 0.70022 0.0
C1254 C 0.6057 0.00175 0.66964 0.0
C1255 C 0.57417 0.97727 0.64649 0.0
H1256 H 0.54159 0.01022 0.63965 0.0
C1257 C 0.52453 0.99921 0.5896 0.0
C1258 C 0.53733 0.00216 0.57701 0.0
C1259 C 0.52886 0.99326 0.60602 0.0
C1260 C 0.55009 1.00039 0.64162 0.0
H1261 H 0.59362 0.00833 0.71777 0.0
H1262 H 0.56957 0.99648 0.69453 0.0
H1263 H 0.55988 0.01357 0.66725 0.0
H1264 H 0.56391 0.99977 0.57084 0.0
H1265 H 0.57149 0.98955 0.59928 0.0
H1266 H 0.56519 0.96486 0.62049 0.0
C1267 C 0.58344 0.99978 0.69116 0.0
C1268 C 0.56061 0.00239 0.65738 0.0
C1269 C 0.59716 0.00662 0.70436 0.0
C1270 C 0.55394 0.99786 0.58049 0.0
C1271 C 0.55815 0.99171 0.59669 0.0
C1272 C 0.56353 0.97512 0.63082 0.0
C1273 C 0.58765 0.99727 0.67374 0.0
C1274 C 0.57339 0.99157 0.65948 0.0
C1275 C 0.54589 0.98989 0.6098 0.0
C1276 C 0.55221 0.98748 0.62787 0.0
H1277 H 0.63321 0.01218 0.67926 0.0
H1278 H 0.60919 1.00031 0.65618 0.0
H1279 H 0.58383 0.96862 0.64801 0.0
H1280 H 0.5116 0.0024 0.5871 0.0
H1281 H 0.51921 0.99197 0.61594 0.0
C1282 C 0.27817 0.32384 0.96557 0.0
C1283 C 0.28812 0.34263 0.97121 0.0
C1284 C 0.27825 0.31638 0.94807 0.0
C1285 C 0.30493 0.3227 0.90852 0.0
H1286 H 0.26038 0.29561 0.88264 0.0
C1287 C 0.30331 0.30092 0.83339 0.0
C1288 C 0.28949 0.28564 0.82548 0.0
C1289 C 0.30321 0.30746 0.85113 0.0
C1290 C 0.27312 0.30275 0.88958 0.0
H1291 H 0.30602 0.36818 0.96261 0.0
H1292 H 0.30638 0.35518 0.93249 0.0
H1293 H 0.26016 0.30685 0.9132 0.0
H1294 H 0.26501 0.2649 0.83044 0.0
H1295 H 0.26534 0.27527 0.8613 0.0
H1296 H 0.31811 0.31819 0.88534 0.0
C1297 C 0.29851 0.34612 0.94152 0.0
C1298 C 0.27291 0.30935 0.90728 0.0
C1299 C 0.29822 0.35363 0.95886 0.0
C1300 C 0.27581 0.27683 0.83598 0.0
C1301 C 0.27594 0.28301 0.85381 0.0
C1302 C 0.30522 0.31578 0.89094 0.0
C1303 C 0.28851 0.32739 0.93576 0.0
C1304 C 0.28879 0.31959 0.91702 0.0
C1305 C 0.28952 0.29866 0.86181 0.0
C1306 C 0.28929 0.30577 0.88096 0.0
H1307 H 0.27021 0.31493 0.97463 0.0
H1308 H 0.27045 0.30187 0.94422 0.0
H1309 H 0.3175 0.3303 0.91557 0.0
H1310 H 0.31399 0.30822 0.82572 0.0
H1311 H 0.3138 0.31975 0.85626 0.0
C1312 C 0.94309 0.03481 0.28468 0.0
C1313 C 0.93952 0.02076 0.27058 0.0
C1314 C 0.95441 0.03326 0.29909 0.0
C1315 C 0.98919 0.00809 0.31289 0.0
H1316 H 0.98043 0.02695 0.35929 0.0
C1317 C 0.01841 0.99354 0.38165 0.0
C1318 C 0.02767 0.0104 0.3918 0.0
C1319 C 0.00961 0.99468 0.36546 0.0
C1320 C 0.98302 0.02176 0.34634 0.0
H1321 H 0.94441 0.99382 0.2605 0.0
H1322 H 0.96349 0.99053 0.28608 0.0
H1323 H 0.95968 0.02821 0.33436 0.0
H1324 H 0.03615 0.04161 0.39208 0.0
H1325 H 0.01989 0.04348 0.36413 0.0
H1326 H 0.01212 1.0008 0.32536 0.0
C1327 C 0.95814 0.00313 0.2858 0.0
C1328 C 0.97125 0.02255 0.33206 0.0
C1329 C 0.94711 0.00491 0.27122 0.0
C1330 C 0.02882 0.02835 0.38484 0.0
C1331 C 0.01966 0.02948 0.36883 0.0
C1332 C 1.00076 0.00693 0.32729 0.0
C1333 C 0.96208 0.0174 0.29984 0.0
C1334 C 0.97428 0.01591 0.31512 0.0
C1335 C 0.00969 0.01267 0.35931 0.0
C1336 C 0.9978 0.01396 0.34401 0.0
H1337 H 0.93749 0.04726 0.28437 0.0
H1338 H 0.95741 0.04473 0.30946 0.0
H1339 H 0.99212 0.00312 0.30001 0.0
H1340 H 0.01693 0.97947 0.38664 0.0
H1341 H 0.00182 0.98159 0.35825 0.0
C1342 C 0.29591 0.66621 0.60378 0.0
C1343 C 0.29163 0.67413 0.58825 0.0
C1344 C 0.29812 0.67713 0.61977 0.0
C1345 C 0.28522 0.71801 0.64093 0.0
H1346 H 0.32645 0.72129 0.67371 0.0
C1347 C 0.30064 0.77226 0.70019 0.0
C1348 C 0.30273 0.7643 0.71627 0.0
C1349 C 0.30133 0.76175 0.68451 0.0
C1350 C 0.31486 0.72038 0.66467 0.0
H1351 H 0.2863 0.69946 0.57704 0.0
H1352 H 0.29022 0.71849 0.60494 0.0
H1353 H 0.3227 0.70082 0.64636 0.0
H1354 H 0.30857 0.73985 0.72873 0.0
H1355 H 0.30971 0.72147 0.70123 0.0
H1356 H 0.27732 0.73748 0.65914 0.0
C1357 C 0.29175 0.70388 0.6048 0.0
C1358 C 0.31268 0.70867 0.64914 0.0
C1359 C 0.28963 0.69304 0.58886 0.0
C1360 C 0.30673 0.74624 0.71648 0.0
C1361 C 0.30749 0.73577 0.70079 0.0
C1362 C 0.28741 0.72971 0.65639 0.0
C1363 C 0.29595 0.69599 0.62036 0.0
C1364 C 0.29791 0.70755 0.63713 0.0
C1365 C 0.30423 0.74322 0.68473 0.0
C1366 C 0.30231 0.73109 0.66829 0.0
H1367 H 0.29748 0.65161 0.60357 0.0
H1368 H 0.30124 0.67075 0.63169 0.0
H1369 H 0.27355 0.71707 0.63197 0.0
H1370 H 0.29769 0.78622 0.69964 0.0
H1371 H 0.29906 0.76786 0.67221 0.0
C1372 C 0.62402 0.0515 0.78808 0.0
C1373 C 0.63342 0.03715 0.78617 0.0
C1374 C 0.61273 0.05139 0.80168 0.0
C1375 C 0.60029 0.02972 0.8433 0.0
H1376 H 0.55434 0.04036 0.83018 0.0
C1377 C 0.54378 0.01856 0.88963 0.0
C1378 C 0.53932 0.03598 0.89417 0.0
C1379 C 0.55316 0.01678 0.87484 0.0
C1380 C 0.5671 0.03727 0.8339 0.0
H1381 H 0.63931 0.01208 0.79733 0.0
H1382 H 0.61922 0.01155 0.82082 0.0
H1383 H 0.57684 0.04249 0.80862 0.0
H1384 H 0.53987 0.0646 0.88606 0.0
H1385 H 0.55577 0.0612 0.85993 0.0
H1386 H 0.59036 0.0243 0.86854 0.0
C1387 C 0.62072 0.02306 0.81204 0.0
C1388 C 0.58004 0.03871 0.82171 0.0
C1389 C 0.63219 0.02333 0.79858 0.0
C1390 C 0.54295 0.05094 0.88282 0.0
C1391 C 0.5521 0.04904 0.86791 0.0
C1392 C 0.58726 0.02804 0.8554 0.0
C1393 C 0.61051 0.03677 0.81341 0.0
C1394 C 0.59684 0.03518 0.82637 0.0
C1395 C 0.55788 0.03227 0.86426 0.0
C1396 C 0.57067 0.03199 0.85081 0.0
H1397 H 0.62492 0.06242 0.77874 0.0
H1398 H 0.60538 0.06244 0.80272 0.0
H1399 H 0.61318 0.02713 0.84732 0.0
H1400 H 0.54079 0.00665 0.89796 0.0
H1401 H 0.55737 0.00365 0.87206 0.0
C1402 C 0.28584 0.35816 0.08846 0.0
C1403 C 0.28567 0.34562 0.07353 0.0
C1404 C 0.2847 0.35147 0.10541 0.0
C1405 C 0.29016 0.31001 0.13147 0.0
H1406 H 0.26565 0.33352 0.16609 0.0
C1407 C 0.27903 0.27962 0.20032 0.0
C1408 C 0.27979 0.29244 0.21521 0.0
C1409 C 0.27917 0.2859 0.1832 0.0
C1410 C 0.27277 0.32687 0.15674 0.0
H1411 H 0.28401 0.31592 0.06507 0.0
H1412 H 0.28183 0.30416 0.09453 0.0
H1413 H 0.26684 0.34433 0.13647 0.0
H1414 H 0.28111 0.32219 0.22327 0.0
H1415 H 0.28148 0.33319 0.19355 0.0
H1416 H 0.29614 0.29259 0.15173 0.0
C1417 C 0.28312 0.31934 0.09319 0.0
C1418 C 0.27346 0.33312 0.13957 0.0
C1419 C 0.28427 0.32607 0.07617 0.0
C1420 C 0.28042 0.31179 0.21226 0.0
C1421 C 0.28057 0.3181 0.19508 0.0
C1422 C 0.28947 0.30376 0.14863 0.0
C1423 C 0.28331 0.33192 0.10819 0.0
C1424 C 0.28222 0.32487 0.12657 0.0
C1425 C 0.28011 0.30531 0.18018 0.0
C1426 C 0.28079 0.31207 0.16167 0.0
H1427 H 0.28694 0.37332 0.08708 0.0
H1428 H 0.28521 0.36183 0.11641 0.0
H1429 H 0.29732 0.30339 0.12213 0.0
H1430 H 0.27848 0.26459 0.20185 0.0
H1431 H 0.27842 0.27537 0.1723 0.0
C1432 C 0.25255 0.95754 0.00601 0.0
C1433 C 0.24759 0.93744 0.00645 0.0
C1434 C 0.24207 0.96868 0.01339 0.0
C1435 C 0.1971 0.96722 0.02635 0.0
H1436 H 0.2215 0.01417 0.0543 0.0
C1437 C 0.15742 0.01684 0.05542 0.0
C1438 C 0.16309 0.03575 0.05041 0.0
C1439 C 0.16863 0.0044 0.05405 0.0
C1440 C 0.21457 1.00107 0.04659 0.0
H1441 H 0.22763 0.91306 0.01437 0.0
H1442 H 0.20911 0.9327 0.02735 0.0
H1443 H 0.2389 0.99245 0.043 0.0
H1444 H 0.18515 0.05708 0.04136 0.0
H1445 H 0.20488 0.03519 0.03883 0.0
H1446 H 0.17285 0.97606 0.02949 0.0
C1447 C 0.22113 0.93975 0.02127 0.0
C1448 C 0.22446 0.98871 0.04009 0.0
C1449 C 0.23166 0.92855 0.01385 0.0
C1450 C 0.1806 0.04255 0.04534 0.0
C1451 C 0.19184 0.03006 0.04393 0.0
C1452 C 0.18721 0.97954 0.03287 0.0
C1453 C 0.22647 0.9599 0.02136 0.0
C1454 C 0.21583 0.97192 0.02962 0.0
C1455 C 0.18563 0.01072 0.04765 0.0
C1456 C 0.19591 0.99671 0.04278 0.0
H1457 H 0.26475 0.96473 0.00029 0.0
H1458 H 0.24621 0.98418 0.01294 0.0
H1459 H 0.1902 0.95447 0.01814 0.0
H1460 H 0.144 0.01145 0.05963 0.0
H1461 H 0.16371 0.98961 0.05723 0.0
C1462 C 0.71508 0.66378 0.01206 0.0
C1463 C 0.73031 0.65665 0.00969 0.0
C1464 C 0.69816 0.65112 0.01306 0.0
C1465 C 0.67322 0.5998 0.00284 0.0
H1466 H 0.63982 0.61308 0.03457 0.0
C1467 C 0.59942 0.55667 6e-05 0.0
C1468 C 0.59035 0.55445 0.01557 0.0
C1469 C 0.61679 0.56844 0.00014 0.0
C1470 C 0.64906 0.609 0.02581 0.0
H1471 H 0.73972 0.63062 0.00651 0.0
H1472 H 0.71049 0.60867 0.00856 0.0
H1473 H 0.66927 0.63506 0.03302 0.0
H1474 H 0.5928 0.56255 0.04351 0.0
H1475 H 0.6235 0.58277 0.04377 0.0
H1476 H 0.65334 0.57351 -0.00398 0.0
C1477 C 0.7114 0.62399 0.0093 0.0
C1478 C 0.66588 0.62179 0.0247 0.0
C1479 C 0.72823 0.63661 0.0082 0.0
C1480 C 0.59938 0.5639 0.03133 0.0
C1481 C 0.61692 0.57566 0.03143 0.0
C1482 C 0.65651 0.58697 0.00406 0.0
C1483 C 0.6961 0.63103 0.0118 0.0
C1484 C 0.67816 0.61742 0.01311 0.0
C1485 C 0.62578 0.57824 0.01577 0.0
C1486 C 0.64409 0.59145 0.01542 0.0
H1487 H 0.71625 0.67915 0.01328 0.0
H1488 H 0.68667 0.6571 0.01471 0.0
H1489 H 0.68217 0.59596 -0.00638 0.0
H1490 H 0.59293 0.54973 0.98762 0.0
H1491 H 0.62293 0.57027 0.98775 0.0
C1492 C 0.67213 0.47347 0.28792 0.0
C1493 C 0.67956 0.49299 0.29305 0.0
C1494 C 0.68274 0.46235 0.2806 0.0
C1495 C 0.72431 0.4663 0.25814 0.0
H1496 H 0.72048 0.41477 0.27285 0.0
C1497 C 0.77576 0.42086 0.24681 0.0
C1498 C 0.76869 0.40099 0.24335 0.0
C1499 C 0.76423 0.4328 0.24987 0.0
C1500 C 0.72147 0.42902 0.26841 0.0
H1501 H 0.70384 0.51623 0.2949 0.0
H1502 H 0.72249 0.49665 0.28241 0.0
H1503 H 0.70175 0.43415 0.28535 0.0
H1504 H 0.74431 0.37809 0.23858 0.0
H1505 H 0.72416 0.39896 0.24377 0.0
H1506 H 0.74443 0.4612 0.24151 0.0
C1507 C 0.70842 0.49005 0.28374 0.0
C1508 C 0.71079 0.44011 0.27558 0.0
C1509 C 0.6978 0.50118 0.29102 0.0
C1510 C 0.75 0.3934 0.24149 0.0
C1511 C 0.73852 0.40527 0.24449 0.0
C1512 C 0.73509 0.4552 0.25101 0.0
C1513 C 0.70094 0.47059 0.27836 0.0
C1514 C 0.71213 0.45884 0.27053 0.0
C1515 C 0.74558 0.4249 0.24943 0.0
C1516 C 0.73371 0.43648 0.2561 0.0
H1517 H 0.65806 0.46687 0.28929 0.0
H1518 H 0.67662 0.4474 0.27641 0.0
H1519 H 0.72542 0.48064 0.25389 0.0
H1520 H 0.79016 0.42693 0.24835 0.0
H1521 H 0.76995 0.44791 0.25372 0.0
C1522 C 0.85119 0.43891 0.48659 0.0
C1523 C 0.83547 0.44516 0.48344 0.0
C1524 C 0.86765 0.45228 0.48965 0.0
C1525 C 0.89601 0.4971 0.48461 0.0
H1526 H 0.91297 0.49548 0.53321 0.0
C1527 C 0.96768 0.53535 0.50926 0.0
C1528 C 0.97676 0.52239 0.51633 0.0
C1529 C 0.949 0.53076 0.50757 0.0
C1530 C 0.90831 0.49624 0.51969 0.0
H1531 H 0.82466 0.46992 0.47916 0.0
H1532 H 0.85386 0.49342 0.48424 0.0
H1533 H 0.88269 0.47722 0.52264 0.0
H1534 H 0.97362 0.4954 0.52859 0.0
H1535 H 0.94095 0.48722 0.52541 0.0
H1536 H 0.92205 0.51493 0.48124 0.0
C1537 C 0.85321 0.4782 0.48458 0.0
C1538 C 0.8911 0.48589 0.5137 0.0
C1539 C 0.83663 0.46481 0.48169 0.0
C1540 C 0.96693 0.50552 0.52293 0.0
C1541 C 0.94824 0.50095 0.52126 0.0
C1542 C 0.91334 0.50738 0.49057 0.0
C1543 C 0.86857 0.47197 0.48933 0.0
C1544 C 0.88517 0.48575 0.49602 0.0
C1545 C 0.93917 0.51322 0.51301 0.0
C1546 C 0.91983 0.50638 0.50799 0.0
H1547 H 0.85065 0.42385 0.48794 0.0
H1548 H 0.87954 0.44735 0.4932 0.0
H1549 H 0.89152 0.49701 0.47091 0.0
H1550 H 0.97495 0.54863 0.50427 0.0
H1551 H 0.94226 0.54052 0.50135 0.0
C1552 C 0.40572 0.10146 0.27755 0.0
C1553 C 0.39851 0.08431 0.28531 0.0
C1554 C 0.3944 0.11074 0.26859 0.0
C1555 C 0.34858 0.10083 0.2469 0.0
H1556 H 0.35832 0.15651 0.24844 0.0
C1557 C 0.29763 0.14538 0.23199 0.0
C1558 C 0.30318 0.16183 0.22257 0.0
C1559 C 0.30933 0.13387 0.23572 0.0
C1560 C 0.35568 0.14094 0.24764 0.0
H1561 H 0.37394 0.06387 0.29075 0.0
H1562 H 0.35408 0.0805 0.27575 0.0
H1563 H 0.37859 0.14156 0.26498 0.0
H1564 H 0.32474 0.17764 0.20794 0.0
H1565 H 0.3455 0.15793 0.21531 0.0
H1566 H 0.32504 0.1004 0.23032 0.0
C1567 C 0.36847 0.08646 0.27602 0.0
C1568 C 0.36722 0.13238 0.25713 0.0
C1569 C 0.37981 0.07707 0.28478 0.0
C1570 C 0.32016 0.16541 0.21562 0.0
C1571 C 0.33202 0.15411 0.21972 0.0
C1572 C 0.33689 0.10942 0.23762 0.0
C1573 C 0.37567 0.10312 0.26745 0.0
C1574 C 0.3637 0.11223 0.25701 0.0
C1575 C 0.32687 0.13873 0.23035 0.0
C1576 C 0.3403 0.12952 0.23804 0.0
H1577 H 0.42013 0.10724 0.27767 0.0
H1578 H 0.40037 0.12346 0.26202 0.0
H1579 H 0.34571 0.08526 0.24623 0.0
H1580 H 0.28484 0.1422 0.23784 0.0
H1581 H 0.30515 0.12212 0.24407 0.0
C1582 C 0.34061 0.16964 0.51177 0.0
C1583 C 0.32449 0.16406 0.52002 0.0
C1584 C 0.35383 0.1593 0.51357 0.0
C1585 C 0.35994 0.112 0.52783 0.0
H1586 H 0.41058 0.13693 0.5266 0.0
C1587 C 0.4156 0.07391 0.5462 0.0
C1588 C 0.42919 0.07484 0.53445 0.0
C1589 C 0.40343 0.08545 0.54463 0.0
C1590 C 0.39647 0.12977 0.52688 0.0
H1591 H 0.30984 0.14386 0.53721 0.0
H1592 H 0.33309 0.12661 0.54122 0.0
H1593 H 0.38835 0.15593 0.52385 0.0
H1594 H 0.44068 0.08906 0.51197 0.0
H1595 H 0.41965 0.10953 0.50954 0.0
H1596 H 0.36819 0.08598 0.53137 0.0
C1597 C 0.33538 0.13832 0.53266 0.0
C1598 C 0.38367 0.14063 0.52521 0.0
C1599 C 0.32205 0.14835 0.53051 0.0
C1600 C 0.43057 0.08808 0.5214 0.0
C1601 C 0.41848 0.09979 0.51995 0.0
C1602 C 0.37274 0.10126 0.52979 0.0
C1603 C 0.35137 0.14339 0.52399 0.0
C1604 C 0.36518 0.13191 0.52568 0.0
C1605 C 0.40463 0.0984 0.53141 0.0
C1606 C 0.39114 0.11 0.52934 0.0
H1607 H 0.34277 0.18164 0.50351 0.0
H1608 H 0.36577 0.16356 0.50646 0.0
H1609 H 0.34589 0.10452 0.52778 0.0
H1610 H 0.41434 0.06426 0.55668 0.0
H1611 H 0.39308 0.08429 0.55384 0.0
C1612 C 0.69002 0.58778 0.33472 0.0
C1613 C 0.67193 0.58334 0.32814 0.0
C1614 C 0.70066 0.60654 0.33467 0.0
C1615 C 0.70395 0.64141 0.30415 0.0
H1616 H 0.74004 0.67629 0.33597 0.0
C1617 C 0.74428 0.71177 0.28154 0.0
C1618 C 0.76264 0.71794 0.28692 0.0
C1619 C 0.73334 0.69644 0.28904 0.0
C1620 C 0.73014 0.66652 0.32693 0.0
H1621 H 0.65013 0.59525 0.31861 0.0
H1622 H 0.6688 0.62794 0.31834 0.0
H1623 H 0.71973 0.64826 0.34721 0.0
H1624 H 0.78402 0.71302 0.30442 0.0
H1625 H 0.76486 0.68543 0.3171 0.0
H1626 H 0.71463 0.65864 0.28371 0.0
C1627 C 0.67473 0.61694 0.32343 0.0
C1628 C 0.71848 0.6507 0.3334 0.0
C1629 C 0.6641 0.59825 0.32354 0.0
C1630 C 0.7699 0.70843 0.29995 0.0
C1631 C 0.75892 0.69281 0.30733 0.0
C1632 C 0.7157 0.65689 0.29767 0.0
C1633 C 0.69326 0.62091 0.32801 0.0
C1634 C 0.70517 0.63825 0.32203 0.0
C1635 C 0.74053 0.68665 0.30187 0.0
C1636 C 0.72876 0.66978 0.30899 0.0
H1637 H 0.69633 0.57653 0.33851 0.0
H1638 H 0.71496 0.60935 0.3382 0.0
H1639 H 0.69414 0.63159 0.29506 0.0
H1640 H 0.73819 0.71899 0.27174 0.0
H1641 H 0.71914 0.69236 0.28484 0.0
C1642 C 0.90345 0.47794 0.78981 0.0
C1643 C 0.90432 0.49163 0.80385 0.0
C1644 C 0.8899 0.46099 0.78827 0.0
C1645 C 0.8445 0.44137 0.80258 0.0
H1646 H 0.85167 0.3938 0.78116 0.0
C1647 C 0.79813 0.36406 0.80054 0.0
C1648 C 0.79634 0.35332 0.7843 0.0
C1649 C 0.80859 0.38295 0.80243 0.0
C1650 C 0.8495 0.40711 0.78696 0.0
H1651 H 0.89269 0.49797 0.82797 0.0
H1652 H 0.86943 0.46781 0.82577 0.0
H1653 H 0.87732 0.4213 0.78751 0.0
H1654 H 0.80212 0.35453 0.75683 0.0
H1655 H 0.82067 0.38743 0.76034 0.0
H1656 H 0.81665 0.42653 0.80265 0.0
C1657 C 0.87878 0.47048 0.81559 0.0
C1658 C 0.86414 0.42282 0.79062 0.0
C1659 C 0.89219 0.48762 0.81696 0.0
C1660 C 0.8035 0.36236 0.76958 0.0
C1661 C 0.81408 0.38116 0.77153 0.0
C1662 C 0.82986 0.42545 0.79921 0.0
C1663 C 0.87718 0.45727 0.80094 0.0
C1664 C 0.86179 0.44019 0.79828 0.0
C1665 C 0.81737 0.39116 0.78814 0.0
C1666 C 0.8323 0.40836 0.79117 0.0
H1667 H 0.91259 0.48078 0.77945 0.0
H1668 H 0.88893 0.45126 0.7767 0.0
H1669 H 0.8422 0.45465 0.80823 0.0
H1670 H 0.7925 0.3575 0.81204 0.0
H1671 H 0.81102 0.39053 0.81535 0.0
C1672 C 0.08225 0.86709 0.1098 0.0
C1673 C 0.07203 0.84985 0.1009 0.0
C1674 C 0.08212 0.88498 0.1034 0.0
C1675 C 0.05448 0.9084 0.07493 0.0
H1676 H 0.09785 0.94974 0.07629 0.0
C1677 C 0.05466 0.97812 0.04124 0.0
C1678 C 0.06477 0.99592 0.04928 0.0
C1679 C 0.05635 0.96071 0.04754 0.0
C1680 C 0.08555 0.93847 0.07602 0.0
H1681 H 0.05383 0.83796 0.07813 0.0
H1682 H 0.05359 0.86912 0.06693 0.0
H1683 H 0.09931 0.9187 0.08699 0.0
H1684 H 0.08493 0.00907 0.07025 0.0
H1685 H 0.08774 0.97857 0.08145 0.0
H1686 H 0.04062 0.92807 0.06424 0.0
C1687 C 0.06162 0.86884 0.07897 0.0
C1688 C 0.0864 0.9206 0.08212 0.0
C1689 C 0.06185 0.85094 0.08531 0.0
C1690 C 0.07694 0.9957 0.06368 0.0
C1691 C 0.07859 0.97816 0.07007 0.0
C1692 C 0.05361 0.92624 0.06894 0.0
C1693 C 0.07166 0.88614 0.08798 0.0
C1694 C 0.07088 0.90526 0.08156 0.0
C1695 C 0.06813 0.96039 0.06221 0.0
C1696 C 0.06915 0.94154 0.06923 0.0
H1697 H 0.09022 0.86679 0.12187 0.0
H1698 H 0.08989 0.89794 0.1108 0.0
H1699 H 0.04217 0.89712 0.07462 0.0
H1700 H 0.04523 0.97751 0.03003 0.0
H1701 H 0.04839 0.94744 0.04079 0.0
C1702 C 0.95289 0.27163 0.86909 0.0
C1703 C 0.95301 0.26351 0.88538 0.0
C1704 C 0.93689 0.27397 0.86095 0.0
C1705 C 0.88725 0.25769 0.85975 0.0
H1706 H 0.88939 0.30617 0.8391 0.0
C1707 C 0.82336 0.27774 0.82966 0.0
C1708 C 0.82531 0.28756 0.81422 0.0
C1709 C 0.83847 0.27471 0.8392 0.0
C1710 C 0.88853 0.29244 0.84459 0.0
H1711 H 0.93626 0.25104 0.90569 0.0
H1712 H 0.90819 0.255 0.89137 0.0
H1713 H 0.91639 0.30049 0.85357 0.0
H1714 H 0.84482 0.30175 0.7967 0.0
H1715 H 0.87078 0.29624 0.81298 0.0
H1716 H 0.8594 0.24955 0.85051 0.0
C1717 C 0.92053 0.25952 0.88489 0.0
C1718 C 0.90407 0.28919 0.85293 0.0
C1719 C 0.93662 0.25729 0.89311 0.0
C1720 C 0.84271 0.29425 0.80859 0.0
C1721 C 0.85772 0.29119 0.81804 0.0
C1722 C 0.87168 0.2609 0.85129 0.0
C1723 C 0.92053 0.2682 0.86884 0.0
C1724 C 0.9037 0.27171 0.86047 0.0
C1725 C 0.85588 0.28143 0.83351 0.0
C1726 C 0.87214 0.27826 0.84342 0.0
H1727 H 0.96527 0.27659 0.86275 0.0
H1728 H 0.93736 0.28041 0.84847 0.0
H1729 H 0.88652 0.24401 0.86532 0.0
H1730 H 0.81017 0.27235 0.83437 0.0
H1731 H 0.83652 0.26728 0.85113 0.0
C1732 C 0.56366 0.23737 0.58206 0.0
C1733 C 0.56392 0.24134 0.6003 0.0
C1734 C 0.56129 0.21836 0.57488 0.0
C1735 C 0.54465 0.16743 0.58632 0.0
H1736 H 0.56883 0.15529 0.54566 0.0
C1737 C 0.52789 0.0903 0.55374 0.0
C1738 C 0.54179 0.08308 0.54699 0.0
C1739 C 0.53074 0.10978 0.55924 0.0
C1740 C 0.56209 0.15837 0.55713 0.0
H1741 H 0.56232 0.22846 0.62531 0.0
H1742 H 0.55868 0.19575 0.613 0.0
H1743 H 0.57383 0.18874 0.55724 0.0
H1744 H 0.56961 0.09092 0.54057 0.0
H1745 H 0.57479 0.12491 0.55073 0.0
H1746 H 0.53345 0.13721 0.58676 0.0
C1747 C 0.5598 0.20707 0.60407 0.0
C1748 C 0.56477 0.17765 0.56364 0.0
C1749 C 0.56204 0.22595 0.61118 0.0
C1750 C 0.55861 0.09598 0.54572 0.0
C1751 C 0.56153 0.11553 0.55144 0.0
C1752 C 0.54209 0.14824 0.57993 0.0
C1753 C 0.55919 0.2029 0.5858 0.0
C1754 C 0.55613 0.18246 0.57839 0.0
C1755 C 0.54765 0.1227 0.55843 0.0
C1756 C 0.55071 0.14336 0.56521 0.0
H1757 H 0.56508 0.2489 0.57331 0.0
H1758 H 0.56076 0.21576 0.56075 0.0
H1759 H 0.53748 0.17045 0.5975 0.0
H1760 H 0.51465 0.08092 0.55464 0.0
H1761 H 0.51953 0.1147 0.56405 0.0
C1762 C 0.54786 0.76333 0.36717 0.0
C1763 C 0.54881 0.77107 0.38459 0.0
C1764 C 0.56356 0.76438 0.35841 0.0
C1765 C 0.61183 0.79062 0.36008 0.0
H1766 H 0.61553 0.74735 0.32905 0.0
C1767 C 0.67003 0.79495 0.31436 0.0
C1768 C 0.67695 0.77865 0.31194 0.0
C1769 C 0.65474 0.79415 0.32369 0.0
C1770 C 0.61481 0.7595 0.3378 0.0
H1771 H 0.56697 0.78597 0.4065 0.0
H1772 H 0.59428 0.78756 0.39138 0.0
H1773 H 0.58831 0.74558 0.34438 0.0
H1774 H 0.67319 0.74873 0.31758 0.0
H1775 H 0.64679 0.74745 0.33412 0.0
H1776 H 0.6385 0.80435 0.3538 0.0
C1777 C 0.58145 0.78094 0.38432 0.0
C1778 C 0.59907 0.7586 0.34641 0.0
C1779 C 0.56577 0.77993 0.39304 0.0
C1780 C 0.66835 0.76162 0.31933 0.0
C1781 C 0.65305 0.76081 0.32863 0.0
C1782 C 0.62758 0.79151 0.35148 0.0
C1783 C 0.58057 0.77316 0.36689 0.0
C1784 C 0.59735 0.77415 0.35766 0.0
C1785 C 0.64595 0.77702 0.33081 0.0
C1786 C 0.62928 0.77598 0.3402 0.0
H1787 H 0.53499 0.75645 0.36029 0.0
H1788 H 0.56232 0.75847 0.34492 0.0
H1789 H 0.61095 0.80296 0.36849 0.0
H1790 H 0.67641 0.80836 0.30901 0.0
H1791 H 0.64959 0.80688 0.32497 0.0
C1792 C 0.0279 0.20373 0.39542 0.0
C1793 C 0.0368 0.22244 0.4028 0.0
C1794 C 0.02718 0.18675 0.40462 0.0
C1795 C 0.03989 0.16907 0.45027 0.0
H1796 H 0.02336 0.11877 0.42558 0.0
C1797 C 0.0329 0.09796 0.48947 0.0
C1798 C 0.03141 0.07952 0.48088 0.0
C1799 C 0.03343 0.11478 0.48013 0.0
C1800 C 0.02823 0.13251 0.43301 0.0
H1801 H 0.05212 0.23684 0.42643 0.0
H1802 H 0.05134 0.20804 0.44206 0.0
H1803 H 0.02489 0.14738 0.40989 0.0
H1804 H 0.02948 0.06552 0.45478 0.0
H1805 H 0.03068 0.09421 0.43873 0.0
H1806 H 0.04378 0.15422 0.47325 0.0
C1807 C 0.04442 0.20608 0.42915 0.0
C1808 C 0.02892 0.14948 0.42377 0.0
C1809 C 0.04501 0.22305 0.41997 0.0
C1810 C 0.03051 0.07904 0.46227 0.0
C1811 C 0.03113 0.09592 0.45289 0.0
C1812 C 0.03931 0.15213 0.45947 0.0
C1813 C 0.03545 0.1872 0.42187 0.0
C1814 C 0.03475 0.16848 0.43202 0.0
C1815 C 0.03264 0.1145 0.46146 0.0
C1816 C 0.0334 0.13314 0.45125 0.0
H1817 H 0.02128 0.20213 0.38235 0.0
H1818 H 0.01983 0.1732 0.39798 0.0
H1819 H 0.04437 0.18275 0.45785 0.0
H1820 H 0.03367 0.09951 0.50368 0.0
H1821 H 0.03429 0.12808 0.48788 0.0
C1822 C 0.5952 0.30341 0.19286 0.0
C1823 C 0.58774 0.29247 0.17695 0.0
C1824 C 0.61294 0.30395 0.20032 0.0
C1825 C 0.65192 0.27812 0.19748 0.0
H1826 H 0.67953 0.32205 0.22713 0.0
C1827 C 0.72271 0.27656 0.23387 0.0
C1828 C 0.73635 0.29367 0.23864 0.0
C1829 C 0.70514 0.2767 0.22664 0.0
C1830 C 0.6723 0.30954 0.21884 0.0
H1831 H 0.59441 0.2734 0.1569 0.0
H1832 H 0.62448 0.27414 0.16958 0.0
H1833 H 0.64948 0.32185 0.21462 0.0
H1834 H 0.7408 0.32466 0.23907 0.0
H1835 H 0.71069 0.32497 0.22673 0.0
H1836 H 0.67469 0.26585 0.20153 0.0
C1837 C 0.61673 0.28242 0.17659 0.0
C1838 C 0.65457 0.30934 0.21164 0.0
C1839 C 0.59914 0.28207 0.16908 0.0
C1840 C 0.73115 0.31099 0.23576 0.0
C1841 C 0.71348 0.31114 0.22863 0.0
C1842 C 0.66955 0.27825 0.20479 0.0
C1843 C 0.62435 0.29337 0.19249 0.0
C1844 C 0.64372 0.29364 0.20063 0.0
C1845 C 0.69981 0.29397 0.22373 0.0
C1846 C 0.68045 0.29396 0.21573 0.0
H1847 H 0.58732 0.31175 0.19964 0.0
H1848 H 0.61758 0.31257 0.21253 0.0
H1849 H 0.64462 0.26546 0.18942 0.0
H1850 H 0.72559 0.26275 0.23571 0.0
H1851 H 0.69558 0.26295 0.22357 0.0
C1852 C 0.54106 0.84781 0.89557 0.0
C1853 C 0.54134 0.83106 0.90443 0.0
C1854 C 0.5401 0.86547 0.90462 0.0
C1855 C 0.54563 0.89235 0.95062 0.0
H1856 H 0.52262 0.92721 0.92717 0.0
C1857 C 0.53945 0.96491 0.98936 0.0
C1858 C 0.53367 0.97962 0.98091 0.0
C1859 C 0.54025 0.94725 0.98023 0.0
C1860 C 0.52937 0.91808 0.93423 0.0
H1861 H 0.54078 0.8208 0.93049 0.0
H1862 H 0.53927 0.85111 0.9461 0.0
H1863 H 0.52435 0.89728 0.91184 0.0
H1864 H 0.5244 0.98629 0.95534 0.0
H1865 H 0.5262 0.95647 0.93951 0.0
H1866 H 0.55097 0.91298 0.97288 0.0
C1867 C 0.53991 0.85079 0.932 0.0
C1868 C 0.53037 0.90043 0.92515 0.0
C1869 C 0.5407 0.83307 0.92291 0.0
C1870 C 0.52886 0.97564 0.96267 0.0
C1871 C 0.52986 0.95805 0.95345 0.0
C1872 C 0.5448 0.91007 0.95965 0.0
C1873 C 0.53951 0.86759 0.92315 0.0
C1874 C 0.53848 0.88692 0.93304 0.0
C1875 C 0.53556 0.9431 0.96188 0.0
C1876 C 0.53658 0.92365 0.95186 0.0
H1877 H 0.54148 0.84728 0.88143 0.0
H1878 H 0.54008 0.87764 0.89692 0.0
H1879 H 0.5523 0.883 0.95752 0.0
H1880 H 0.54325 0.9669 0.00331 0.0
H1881 H 0.5445 0.93683 0.98795 0.0
C1882 C 0.96461 0.7865 0.66871 0.0
C1883 C 0.98042 0.7842 0.67801 0.0
C1884 C 0.94798 0.78555 0.67679 0.0
C1885 C 0.92142 0.76817 0.71708 0.0
H1886 H 0.89015 0.7999 0.70197 0.0
C1887 C 0.84667 0.75945 0.74294 0.0
C1888 C 0.8395 0.77585 0.74538 0.0
C1889 C 0.86348 0.76023 0.73516 0.0
C1890 C 0.89851 0.7908 0.7066 0.0
H1891 H 0.98968 0.77865 0.70399 0.0
H1892 H 0.96108 0.77637 0.71771 0.0
H1893 H 0.91856 0.80161 0.68838 0.0
H1894 H 0.84576 0.80609 0.74051 0.0
H1895 H 0.87405 0.8073 0.72685 0.0
H1896 H 0.90116 0.7571 0.73507 0.0
C1897 C 0.96151 0.77919 0.70397 0.0
C1898 C 0.91514 0.79171 0.69852 0.0
C1899 C 0.97829 0.78061 0.69597 0.0
C1900 C 0.85026 0.79295 0.73923 0.0
C1901 C 0.86681 0.79364 0.73112 0.0
C1902 C 0.90457 0.76694 0.72488 0.0
C1903 C 0.94572 0.78174 0.69472 0.0
C1904 C 0.92733 0.78053 0.70351 0.0
C1905 C 0.87416 0.77735 0.72884 0.0
C1906 C 0.8925 0.77832 0.72004 0.0
H1907 H 0.96508 0.78928 0.65496 0.0
H1908 H 0.93665 0.78753 0.6687 0.0
H1909 H 0.92976 0.75903 0.72163 0.0
H1910 H 0.83931 0.74582 0.7472 0.0
H1911 H 0.86796 0.74709 0.73383 0.0
C1912 C 0.12904 0.00828 0.86556 0.0
C1913 C 0.11964 0.01305 0.85091 0.0
C1914 C 0.12264 0.00946 0.88212 0.0
C1915 C 0.0958 0.03639 0.90557 0.0
H1916 H 0.09903 0.00187 0.94216 0.0
C1917 C 0.06267 0.03903 0.96997 0.0
C1918 C 0.07287 0.03777 0.98547 0.0
C1919 C 0.06922 0.03628 0.95379 0.0
C1920 C 0.09832 0.01171 0.93207 0.0
H1921 H 0.09552 0.02113 0.84163 0.0
H1922 H 0.08406 0.02271 0.8706 0.0
H1923 H 0.10716 0.99418 0.91266 0.0
H1924 H 0.09797 0.03298 -0.00362 0.0
H1925 H 0.10945 0.02799 0.96773 0.0
H1926 H 0.08674 0.05377 0.92493 0.0
C1927 C 0.09659 0.01857 0.86933 0.0
C1928 C 0.10285 0.00729 0.91525 0.0
C1929 C 0.10305 0.01749 0.85278 0.0
C1930 C 0.08986 0.03398 0.98458 0.0
C1931 C 0.09638 0.03107 0.96829 0.0
C1932 C 0.0912 0.04075 0.92234 0.0
C1933 C 0.1067 0.01528 0.88418 0.0
C1934 C 0.10148 0.01952 0.90186 0.0
C1935 C 0.08603 0.03215 0.95285 0.0
C1936 C 0.09231 0.02836 0.93563 0.0
H1937 H 0.1419 0.00483 0.86444 0.0
H1938 H 0.13073 0.00696 0.89339 0.0
H1939 H 0.09509 0.04633 0.89558 0.0
H1940 H 0.04958 0.04213 0.97029 0.0
H1941 H 0.06097 0.03697 0.942 0.0
C1942 C 0.81261 0.38962 0.54873 0.0
C1943 C 0.79548 0.38428 0.53979 0.0
C1944 C 0.815 0.38508 0.566 0.0
C1945 C 0.7902 0.37356 0.60507 0.0
H1946 H 0.83071 0.35363 0.62014 0.0
C1947 C 0.79379 0.33598 0.66875 0.0
C1948 C 0.81052 0.33899 0.67826 0.0
C1949 C 0.79249 0.34391 0.6527 0.0
C1950 C 0.81951 0.35952 0.6162 0.0
H1951 H 0.76749 0.36965 0.54161 0.0
H1952 H 0.77174 0.36134 0.5718 0.0
H1953 H 0.82732 0.36179 0.58987 0.0
H1954 H 0.83886 0.35338 0.67894 0.0
H1955 H 0.8366 0.36731 0.65075 0.0
H1956 H 0.78226 0.37104 0.63136 0.0
C1957 C 0.78324 0.36931 0.56552 0.0
C1958 C 0.81754 0.3641 0.59888 0.0
C1959 C 0.78085 0.37387 0.54822 0.0
C1960 C 0.82585 0.35061 0.67171 0.0
C1961 C 0.82456 0.35857 0.65563 0.0
C1962 C 0.79218 0.36899 0.6224 0.0
C1963 C 0.8003 0.3751 0.57461 0.0
C1964 C 0.80273 0.37091 0.59311 0.0
C1965 C 0.80791 0.35502 0.64586 0.0
C1966 C 0.80672 0.36168 0.62805 0.0
H1967 H 0.82411 0.39779 0.54256 0.0
H1968 H 0.82826 0.38985 0.57277 0.0
H1969 H 0.77886 0.37917 0.60102 0.0
H1970 H 0.78179 0.32687 0.67339 0.0
H1971 H 0.77954 0.34068 0.64532 0.0
C1972 C 0.4613 0.06844 0.35913 0.0
C1973 C 0.46596 0.05913 0.34414 0.0
C1974 C 0.46994 0.06765 0.37544 0.0
C1975 C 0.49354 0.03714 0.39866 0.0
H1976 H 0.50493 0.08018 0.43394 0.0
C1977 C 0.52759 0.03361 0.46683 0.0
C1978 C 0.51947 0.04045 0.48101 0.0
C1979 C 0.52255 0.03678 0.44971 0.0
C1980 C 0.50174 0.06805 0.4242 0.0
H1981 H 0.48376 0.04245 0.33412 0.0
H1982 H 0.49916 0.04139 0.36267 0.0
H1983 H 0.49415 0.08483 0.4043 0.0
H1984 H 0.49986 0.05611 0.4885 0.0
H1985 H 0.49107 0.06163 0.45854 0.0
H1986 H 0.50096 0.02033 0.41865 0.0
C1987 C 0.48863 0.04901 0.36184 0.0
C1988 C 0.4956 0.0707 0.40729 0.0
C1989 C 0.47993 0.04975 0.34552 0.0
C1990 C 0.50641 0.05075 0.47782 0.0
C1991 C 0.50142 0.05398 0.46072 0.0
C1992 C 0.49976 0.03452 0.41556 0.0
C1993 C 0.48344 0.05762 0.37696 0.0
C1994 C 0.49127 0.05522 0.39444 0.0
C1995 C 0.50939 0.04694 0.44655 0.0
C1996 C 0.50372 0.04992 0.42848 0.0
H1997 H 0.45048 0.07567 0.3584 0.0
H1998 H 0.46552 0.0742 0.38693 0.0
H1999 H 0.48998 0.02488 0.38907 0.0
H2000 H 0.53767 0.02557 0.46888 0.0
H2001 H 0.52895 0.03135 0.43895 0.0
C2002 C 0.77696 0.70223 0.07888 0.0
C2003 C 0.78375 0.71544 0.06649 0.0
C2004 C 0.77746 0.70804 0.09678 0.0
C2005 C 0.78301 0.75106 0.12887 0.0
H2006 H 0.7909 0.71497 0.16241 0.0
C2007 C 0.77441 0.76327 0.20422 0.0
C2008 C 0.78583 0.75695 0.21637 0.0
C2009 C 0.77455 0.75902 0.18598 0.0
C2010 C 0.78884 0.7254 0.15335 0.0
H2011 H 0.79634 0.74541 0.06358 0.0
H2012 H 0.79739 0.75565 0.09496 0.0
H2013 H 0.79107 0.7067 0.13121 0.0
H2014 H 0.80657 0.74128 0.21837 0.0
H2015 H 0.80694 0.73408 0.18692 0.0
H2016 H 0.78113 0.76991 0.15119 0.0
C2017 C 0.79146 0.74069 0.09072 0.0
C2018 C 0.78868 0.72051 0.13526 0.0
C2019 C 0.79095 0.73482 0.07266 0.0
C2020 C 0.79745 0.74634 0.2096 0.0
C2021 C 0.79758 0.74208 0.19141 0.0
C2022 C 0.78315 0.75597 0.14704 0.0
C2023 C 0.78485 0.72733 0.10315 0.0
C2024 C 0.78565 0.73315 0.12262 0.0
C2025 C 0.7861 0.74825 0.17921 0.0
C2026 C 0.78603 0.74321 0.15966 0.0
H2027 H 0.77119 0.6872 0.07475 0.0
H2028 H 0.77183 0.69729 0.10563 0.0
H2029 H 0.78051 0.76122 0.11972 0.0
H2030 H 0.76525 0.77147 0.20879 0.0
H2031 H 0.76532 0.76391 0.17722 0.0
C2032 C 0.10792 0.01467 0.7518 0.0
C2033 C 0.12378 0.02847 0.75772 0.0
C2034 C 0.1007 0.01415 0.73459 0.0
C2035 C 0.11228 0.03029 0.69091 0.0
H2036 H 0.06144 0.02796 0.68381 0.0
C2037 C 0.08148 0.05582 0.62954 0.0
C2038 C 0.06425 0.04555 0.62279 0.0
C2039 C 0.08892 0.05106 0.64518 0.0
C2040 C 0.07559 0.02826 0.68551 0.0
H2041 H 0.14463 0.05244 0.75041 0.0
H2042 H 0.13187 0.05172 0.72046 0.0
H2043 H 0.07412 0.02428 0.71291 0.0
H2044 H 0.04155 0.02178 0.62655 0.0
H2045 H 0.0546 0.01336 0.65391 0.0
H2046 H 0.11382 0.03468 0.66357 0.0
C2047 C 0.12517 0.04113 0.72899 0.0
C2048 C 0.08283 0.02616 0.70217 0.0
C2049 C 0.13236 0.04165 0.74617 0.0
C2050 C 0.05473 0.03016 0.6317 0.0
C2051 C 0.0622 0.02532 0.6473 0.0
C2052 C 0.10503 0.03235 0.67424 0.0
C2053 C 0.10926 0.0274 0.72306 0.0
C2054 C 0.1013 0.02755 0.70508 0.0
C2055 C 0.07929 0.03586 0.65428 0.0
C2056 C 0.08668 0.03173 0.67146 0.0
H2057 H 0.10112 0.00426 0.76044 0.0
H2058 H 0.08848 0.00334 0.73027 0.0
H2059 H 0.12653 0.0311 0.69278 0.0
H2060 H 0.08903 0.06783 0.62293 0.0
H2061 H 0.102 0.05963 0.6504 0.0
C2062 C 0.77334 0.35674 0.44447 0.0
C2063 C 0.77437 0.37657 0.44611 0.0
C2064 C 0.77316 0.34745 0.4279 0.0
C2065 C 0.79044 0.35654 0.38608 0.0
H2066 H 0.75072 0.31578 0.36499 0.0
C2067 C 0.78479 0.33466 0.31263 0.0
C2068 C 0.77836 0.31507 0.3073 0.0
C2069 C 0.78386 0.34116 0.32998 0.0
C2070 C 0.76207 0.32691 0.37079 0.0
H2071 H 0.77547 0.40213 0.43191 0.0
H2072 H 0.77543 0.3859 0.40311 0.0
H2073 H 0.75009 0.32801 0.39536 0.0
H2074 H 0.76596 0.28683 0.31572 0.0
H2075 H 0.76491 0.29803 0.3461 0.0
H2076 H 0.80268 0.3554 0.36184 0.0
C2077 C 0.77473 0.37763 0.41458 0.0
C2078 C 0.76165 0.33387 0.38811 0.0
C2079 C 0.77462 0.38682 0.43101 0.0
C2080 C 0.77077 0.30209 0.31946 0.0
C2081 C 0.77015 0.30851 0.33687 0.0
C2082 C 0.79102 0.34939 0.3689 0.0
C2083 C 0.7743 0.35801 0.41297 0.0
C2084 C 0.77564 0.34899 0.39565 0.0
C2085 C 0.77682 0.32808 0.34235 0.0
C2086 C 0.77665 0.33481 0.36093 0.0
H2087 H 0.77319 0.34859 0.45597 0.0
H2088 H 0.7728 0.33225 0.42678 0.0
H2089 H 0.80143 0.36813 0.39185 0.0
H2090 H 0.79064 0.34493 0.30342 0.0
H2091 H 0.78874 0.35641 0.33371 0.0
C2092 C 0.44631 0.03538 0.23812 0.0
C2093 C 0.45296 0.05107 0.25047 0.0
C2094 C 0.45247 0.03569 0.22139 0.0
C2095 C 0.49074 0.05839 0.1971 0.0
H2096 H 0.45875 0.03205 0.15741 0.0
C2097 C 0.51195 0.04821 0.12621 0.0
C2098 C 0.50868 0.02862 0.12064 0.0
C2099 C 0.50474 0.05382 0.14136 0.0
C2100 C 0.46774 0.03958 0.16839 0.0
H2101 H 0.47097 0.07952 0.25511 0.0
H2102 H 0.48158 0.08026 0.22557 0.0
H2103 H 0.44638 0.03769 0.18535 0.0
H2104 H 0.49531 0.99953 0.12599 0.0
H2105 H 0.48234 0.00939 0.15248 0.0
H2106 H 0.51208 0.06016 0.17995 0.0
C2107 C 0.47183 0.06759 0.22895 0.0
C2108 C 0.46074 0.04271 0.18435 0.0
C2109 C 0.46577 0.06719 0.24581 0.0
C2110 C 0.49808 0.01469 0.13025 0.0
C2111 C 0.49058 0.02031 0.14519 0.0
C2112 C 0.49769 0.05553 0.18101 0.0
C2113 C 0.46525 0.05181 0.2166 0.0
C2114 C 0.47225 0.0515 0.19904 0.0
C2115 C 0.49388 0.03989 0.1508 0.0
C2116 C 0.48629 0.04555 0.16679 0.0
H2117 H 0.43647 0.02273 0.24143 0.0
H2118 H 0.44747 0.02309 0.21235 0.0
H2119 H 0.49997 0.06506 0.2082 0.0
H2120 H 0.52009 0.05913 0.11884 0.0
H2121 H 0.5074 0.06897 0.14558 0.0
C2122 C 0.79087 0.73348 0.95919 0.0
C2123 C 0.78588 0.71379 0.96226 0.0
C2124 C 0.79229 0.73951 0.94193 0.0
C2125 C 0.7948 0.72055 0.89486 0.0
H2126 H 0.78541 0.7692 0.88341 0.0
C2127 C 0.78598 0.74039 0.82241 0.0
C2128 C 0.79358 0.75938 0.81819 0.0
C2129 C 0.78587 0.73533 0.83993 0.0
C2130 C 0.78826 0.75563 0.88636 0.0
H2131 H 0.77821 0.6851 0.94919 0.0
H2132 H 0.78009 0.6954 0.91952 0.0
H2133 H 0.78326 0.75961 0.91348 0.0
H2134 H 0.80694 0.78797 0.82956 0.0
H2135 H 0.80654 0.77924 0.86014 0.0
H2136 H 0.79935 0.71642 0.86761 0.0
C2137 C 0.78347 0.70638 0.9303 0.0
C2138 C 0.78708 0.75008 0.90376 0.0
C2139 C 0.7822 0.70039 0.9475 0.0
C2140 C 0.80111 0.77317 0.83218 0.0
C2141 C 0.80072 0.76817 0.84979 0.0
C2142 C 0.79577 0.726 0.87746 0.0
C2143 C 0.78866 0.72607 0.92708 0.0
C2144 C 0.79025 0.73236 0.90841 0.0
C2145 C 0.79309 0.74913 0.854 0.0
C2146 C 0.79247 0.74362 0.87284 0.0
H2147 H 0.79388 0.74426 0.97016 0.0
H2148 H 0.79656 0.75478 0.94032 0.0
H2149 H 0.79786 0.70705 0.89764 0.0
H2150 H 0.77998 0.72933 0.8121 0.0
H2151 H 0.77971 0.72058 0.84248 0.0
C2152 C 0.825 0.09934 0.03425 0.0
C2153 C 0.82712 0.11913 0.03288 0.0
C2154 C 0.83886 0.09088 0.03031 0.0
C2155 C 0.87923 0.09791 0.00593 0.0
H2156 H 0.89022 0.05976 0.03571 0.0
C2157 C 0.94259 0.0686 0.00375 0.0
C2158 C 0.94046 0.04907 0.00674 0.0
C2159 C 0.92804 0.07687 0.00458 0.0
C2160 C 0.8871 0.07018 0.02713 0.0
H2161 H 0.84526 0.14578 0.0267 0.0
H2162 H 0.86979 0.13099 0.0202 0.0
H2163 H 0.8667 0.07547 0.04308 0.0
H2164 H 0.92127 0.02259 0.01172 0.0
H2165 H 0.89577 0.03692 0.01256 0.0
H2166 H 0.89991 0.09274 0.99014 0.0
C2167 C 0.85729 0.122 0.02396 0.0
C2168 C 0.87371 0.07919 0.03138 0.0
C2169 C 0.84335 0.13044 0.02778 0.0
C2170 C 0.9233 0.03764 0.00926 0.0
C2171 C 0.90876 0.04588 0.00996 0.0
C2172 C 0.89271 0.08891 0.0017 0.0
C2173 C 0.85508 0.10213 0.0251 0.0
C2174 C 0.8696 0.09305 0.02078 0.0
C2175 C 0.91118 0.06568 0.0083 0.0
C2176 C 0.89664 0.07489 0.01222 0.0
H2177 H 0.81252 0.09031 0.03804 0.0
H2178 H 0.83676 0.07548 0.03105 0.0
H2179 H 0.87615 0.10844 -0.00254 0.0
H2180 H 0.95565 0.07765 0.00151 0.0
H2181 H 0.93021 0.0922 0.00328 0.0
C2182 C 0.35607 0.40066 0.02852 0.0
C2183 C 0.34036 0.4057 0.02244 0.0
C2184 C 0.37307 0.41299 0.02692 0.0
C2185 C 0.39656 0.45197 0.00092 0.0
H2186 H 0.43304 0.46323 0.0398 0.0
C2187 C 0.47125 0.49132 -0.00593 0.0
C2188 C 0.47975 0.50539 0.00746 0.0
C2189 C 0.45392 0.4798 -0.00437 0.0
C2190 C 0.42296 0.46031 0.02885 0.0
H2191 H 0.33022 0.42768 0.00992 0.0
H2192 H 0.35975 0.44897 0.00699 0.0
H2193 H 0.40366 0.44155 0.04325 0.0
H2194 H 0.4765 0.51847 0.03295 0.0
H2195 H 0.4463 0.49832 0.03569 0.0
H2196 H 0.41587 0.47064 0.98649 0.0
C2197 C 0.35898 0.43551 0.01297 0.0
C2198 C 0.4062 0.44774 0.03077 0.0
C2199 C 0.34203 0.42334 0.01477 0.0
C2200 C 0.4703 0.50794 0.02228 0.0
C2201 C 0.45307 0.49623 0.02396 0.0
C2202 C 0.4134 0.46434 -0.00107 0.0
C2203 C 0.37473 0.4305 0.01899 0.0
C2204 C 0.39275 0.4435 0.01686 0.0
C2205 C 0.44475 0.48186 0.01075 0.0
C2206 C 0.42678 0.46875 0.01289 0.0
H2207 H 0.35523 0.38717 0.03447 0.0
H2208 H 0.38494 0.40864 0.0316 0.0
H2209 H 0.38657 0.44889 0.9899 0.0
H2210 H 0.47815 0.48887 0.98251 0.0
H2211 H 0.44795 0.46881 0.98526 0.0
C2212 C 0.37846 0.58191 0.71664 0.0
C2213 C 0.39405 0.57977 0.72582 0.0
C2214 C 0.37219 0.59822 0.72017 0.0
C2215 C 0.3708 0.63122 0.75673 0.0
H2216 H 0.3471 0.65555 0.72184 0.0
C2217 C 0.32705 0.68411 0.77371 0.0
C2218 C 0.31064 0.68039 0.76351 0.0
C2219 C 0.34006 0.67442 0.76936 0.0
C2220 C 0.35371 0.64889 0.7317 0.0
H2221 H 0.41597 0.59323 0.74511 0.0
H2222 H 0.40482 0.62182 0.75142 0.0
H2223 H 0.36639 0.63501 0.71249 0.0
H2224 H 0.29446 0.66308 0.74148 0.0
H2225 H 0.31708 0.64604 0.73398 0.0
H2226 H 0.35744 0.64437 0.77587 0.0
C2227 C 0.39751 0.61087 0.74153 0.0
C2228 C 0.36477 0.63727 0.72637 0.0
C2229 C 0.40387 0.5946 0.73788 0.0
C2230 C 0.30713 0.66636 0.74938 0.0
C2231 C 0.32009 0.65674 0.74503 0.0
C2232 C 0.3597 0.64284 0.76207 0.0
C2233 C 0.38139 0.61255 0.733 0.0
C2234 C 0.37291 0.62785 0.73879 0.0
C2235 C 0.33679 0.66099 0.75474 0.0
C2236 C 0.35059 0.65119 0.74952 0.0
H2237 H 0.3707 0.57066 0.70725 0.0
H2238 H 0.35959 0.59908 0.71359 0.0
H2239 H 0.37679 0.6239 0.76653 0.0
H2240 H 0.33013 0.69505 0.78455 0.0
H2241 H 0.35285 0.67786 0.77705 0.0
C2242 C 0.21654 0.62147 0.53576 0.0
C2243 C 0.22986 0.6122 0.54094 0.0
C2244 C 0.19914 0.61076 0.53094 0.0
C2245 C 0.16616 0.5671 0.53544 0.0
H2246 H 0.14831 0.57426 0.48841 0.0
C2247 C 0.09474 0.52936 0.51095 0.0
C2248 C 0.08505 0.54158 0.50368 0.0
C2249 C 0.1134 0.53481 0.51256 0.0
C2250 C 0.1531 0.57215 0.50156 0.0
H2251 H 0.23541 0.58481 0.54637 0.0
H2252 H 0.20456 0.56601 0.53831 0.0
H2253 H 0.17893 0.59105 0.49917 0.0
H2254 H 0.08683 0.56825 0.49124 0.0
H2255 H 0.11951 0.57828 0.49468 0.0
H2256 H 0.14015 0.54921 0.53838 0.0
C2257 C 0.20779 0.58151 0.53776 0.0
C2258 C 0.17055 0.58169 0.50766 0.0
C2259 C 0.22531 0.59222 0.54237 0.0
C2260 C 0.09415 0.55862 0.49683 0.0
C2261 C 0.11284 0.56428 0.49876 0.0
C2262 C 0.14861 0.55778 0.52945 0.0
C2263 C 0.19484 0.59071 0.53149 0.0
C2264 C 0.17701 0.57945 0.52472 0.0
C2265 C 0.12258 0.55274 0.50726 0.0
C2266 C 0.14183 0.56047 0.51255 0.0
H2267 H 0.21971 0.63688 0.53458 0.0
H2268 H 0.18915 0.61805 0.52637 0.0
H2269 H 0.171 0.56534 0.54867 0.0
H2270 H 0.08786 0.51598 0.51607 0.0
H2271 H 0.1206 0.52542 0.51874 0.0
C2272 C 0.68731 0.97537 0.731 0.0
C2273 C 0.67195 0.97716 0.73928 0.0
C2274 C 0.69377 0.95906 0.73277 0.0
C2275 C 0.69628 0.92521 0.76486 0.0
H2276 H 0.7197 0.90246 0.7287 0.0
C2277 C 0.74393 0.87648 0.77994 0.0
C2278 C 0.76028 0.88175 0.77198 0.0
C2279 C 0.72969 0.88431 0.77492 0.0
C2280 C 0.71311 0.90862 0.73889 0.0
H2281 H 0.65068 0.96308 0.7551 0.0
H2282 H 0.66216 0.93456 0.75831 0.0
H2283 H 0.69955 0.92255 0.72049 0.0
H2284 H 0.77485 0.89958 0.75301 0.0
H2285 H 0.75005 0.91348 0.74439 0.0
H2286 H 0.71061 0.91222 0.78335 0.0
C2287 C 0.66915 0.94577 0.7505 0.0
C2288 C 0.70159 0.92001 0.7342 0.0
C2289 C 0.66264 0.96205 0.74867 0.0
C2290 C 0.7623 0.8952 0.7592 0.0
C2291 C 0.74809 0.90298 0.75417 0.0
C2292 C 0.70783 0.91386 0.76956 0.0
C2293 C 0.68498 0.94437 0.74288 0.0
C2294 C 0.69367 0.92899 0.74722 0.0
C2295 C 0.73162 0.89743 0.76184 0.0
C2296 C 0.71689 0.90616 0.75666 0.0
H2297 H 0.69466 0.98683 0.72366 0.0
H2298 H 0.70618 0.95842 0.727 0.0
H2299 H 0.69044 0.93216 0.77516 0.0
H2300 H 0.74196 0.86587 0.78962 0.0
H2301 H 0.71709 0.87985 0.781 0.0
C2302 C 0.72704 0.88562 0.51284 0.0
C2303 C 0.74352 0.89426 0.52231 0.0
C2304 C 0.71299 0.89497 0.51237 0.0
C2305 C 0.69521 0.93046 0.53734 0.0
H2306 H 0.67154 0.93782 0.4931 0.0
C2307 C 0.6474 0.98111 0.5341 0.0
C2308 C 0.63275 0.97685 0.52144 0.0
C2309 C 0.66035 0.97038 0.53403 0.0
C2310 C 0.67773 0.93563 0.50563 0.0
H2311 H 0.75813 0.91938 0.53882 0.0
H2312 H 0.7335 0.93537 0.53842 0.0
H2313 H 0.69471 0.91983 0.49332 0.0
H2314 H 0.62009 0.95764 0.49893 0.0
H2315 H 0.64232 0.93856 0.49908 0.0
H2316 H 0.6781 0.94569 0.5498 0.0
C2317 C 0.73147 0.92146 0.53125 0.0
C2318 C 0.69109 0.92536 0.50571 0.0
C2319 C 0.7456 0.91233 0.53142 0.0
C2320 C 0.6313 0.96144 0.50878 0.0
C2321 C 0.64415 0.95054 0.50883 0.0
C2322 C 0.68168 0.94043 0.5373 0.0
C2323 C 0.71502 0.91294 0.52168 0.0
C2324 C 0.70013 0.92288 0.52155 0.0
C2325 C 0.65893 0.95487 0.52143 0.0
C2326 C 0.67286 0.94343 0.52143 0.0
H2327 H 0.72509 0.87176 0.50561 0.0
H2328 H 0.70044 0.88804 0.50493 0.0
H2329 H 0.70178 0.92855 0.54978 0.0
H2330 H 0.64913 0.9931 0.54385 0.0
H2331 H 0.67168 0.97456 0.54372 0.0
C2332 C 0.37099 0.45952 0.71784 0.0
C2333 C 0.3686 0.47621 0.7268 0.0
C2334 C 0.3618 0.4415 0.7224 0.0
C2335 C 0.3237 0.41474 0.74385 0.0
H2336 H 0.35511 0.38115 0.75363 0.0
C2337 C 0.29864 0.33923 0.76928 0.0
C2338 C 0.30549 0.32476 0.76118 0.0
C2339 C 0.30577 0.35848 0.76628 0.0
C2340 C 0.34616 0.39032 0.75083 0.0
H2341 H 0.354 0.48736 0.74669 0.0
H2342 H 0.33768 0.45558 0.75455 0.0
H2343 H 0.36785 0.41348 0.74503 0.0
H2344 H 0.32479 0.3189 0.74329 0.0
H2345 H 0.33687 0.35229 0.73776 0.0
H2346 H 0.30192 0.39133 0.74918 0.0
C2347 C 0.34673 0.45656 0.74409 0.0
C2348 C 0.35344 0.40876 0.74593 0.0
C2349 C 0.35603 0.47466 0.7396 0.0
C2350 C 0.31936 0.32977 0.74986 0.0
C2351 C 0.32636 0.34891 0.74678 0.0
C2352 C 0.31636 0.39615 0.74861 0.0
C2353 C 0.35003 0.43992 0.73589 0.0
C2354 C 0.34222 0.42094 0.74208 0.0
C2355 C 0.31977 0.36345 0.75508 0.0
C2356 C 0.32752 0.38368 0.75178 0.0
H2357 H 0.38056 0.46033 0.70788 0.0
H2358 H 0.36429 0.42877 0.71574 0.0
H2359 H 0.31487 0.42401 0.74097 0.0
H2360 H 0.288 0.33572 0.77815 0.0
H2361 H 0.30055 0.36946 0.77292 0.0
C2362 C 0.18453 0.59346 0.23156 0.0
C2363 C 0.18768 0.5793 0.24234 0.0
C2364 C 0.19404 0.61258 0.23515 0.0
C2365 C 0.2165 0.64626 0.27126 0.0
H2366 H 0.23859 0.6772 0.23474 0.0
C2367 C 0.26047 0.72379 0.28563 0.0
C2368 C 0.25939 0.73678 0.27288 0.0
C2369 C 0.25167 0.70436 0.2823 0.0
C2370 C 0.23226 0.66885 0.24505 0.0
H2371 H 0.20349 0.57374 0.26498 0.0
H2372 H 0.22014 0.60727 0.27121 0.0
H2373 H 0.22359 0.64344 0.22764 0.0
H2374 H 0.24754 0.74026 0.24723 0.0
H2375 H 0.23159 0.70668 0.24174 0.0
H2376 H 0.22467 0.67175 0.28859 0.0
C2377 C 0.21026 0.60355 0.26009 0.0
C2378 C 0.22379 0.64953 0.24097 0.0
C2379 C 0.20086 0.5844 0.25643 0.0
C2380 C 0.24889 0.73036 0.2571 0.0
C2381 C 0.23982 0.71112 0.25393 0.0
C2382 C 0.22478 0.66569 0.27531 0.0
C2383 C 0.20671 0.61778 0.24962 0.0
C2384 C 0.21589 0.63811 0.25404 0.0
C2385 C 0.24141 0.69782 0.26631 0.0
C2386 C 0.23272 0.67718 0.26223 0.0
H2387 H 0.17436 0.58989 0.22069 0.0
H2388 H 0.19104 0.6234 0.22697 0.0
H2389 H 0.21025 0.6377 0.28149 0.0
H2390 H 0.2685 0.72854 0.29791 0.0
H2391 H 0.25326 0.69442 0.29204 0.0
C2392 C 0.51165 0.7218 0.45877 0.0
C2393 C 0.50814 0.71963 0.44042 0.0
C2394 C 0.51558 0.70684 0.46797 0.0
C2395 C 0.53264 0.66313 0.462 0.0
H2396 H 0.51276 0.65116 0.50668 0.0
C2397 C 0.55609 0.60981 0.50641 0.0
C2398 C 0.54258 0.59645 0.51398 0.0
C2399 C 0.55207 0.62521 0.49794 0.0
C2400 C 0.51838 0.65426 0.49419 0.0
H2401 H 0.50593 0.69996 0.41737 0.0
H2402 H 0.51278 0.67383 0.43341 0.0
H2403 H 0.50486 0.67673 0.49064 0.0
H2404 H 0.51427 0.58916 0.51888 0.0
H2405 H 0.50732 0.616 0.5042 0.0
H2406 H 0.546 0.64053 0.46544 0.0
C2407 C 0.51259 0.68716 0.44069 0.0
C2408 C 0.51397 0.66905 0.48506 0.0
C2409 C 0.50851 0.70208 0.4315 0.0
C2410 C 0.52504 0.59914 0.5132 0.0
C2411 C 0.52105 0.61461 0.50484 0.0
C2412 C 0.53714 0.64843 0.47118 0.0
C2413 C 0.51627 0.68937 0.45904 0.0
C2414 C 0.52099 0.67364 0.46881 0.0
C2415 C 0.53447 0.62774 0.49693 0.0
C2416 C 0.53002 0.64374 0.48737 0.0
H2417 H 0.51154 0.73517 0.46603 0.0
H2418 H 0.51851 0.70914 0.48206 0.0
H2419 H 0.53846 0.66641 0.44963 0.0
H2420 H 0.56975 0.60822 0.50674 0.0
H2421 H 0.56279 0.63517 0.49219 0.0
C2422 C 0.61914 0.30909 0.67295 0.0
C2423 C 0.61836 0.30356 0.65494 0.0
C2424 C 0.63424 0.30896 0.68397 0.0
C2425 C 0.67282 0.28692 0.68741 0.0
H2426 H 0.69089 0.32734 0.72449 0.0
C2427 C 0.73825 0.29143 0.73039 0.0
C2428 C 0.73861 0.29698 0.74837 0.0
C2429 C 0.72382 0.29249 0.71884 0.0
C2430 C 0.68589 0.31581 0.71435 0.0
H2431 H 0.6329 0.29373 0.6343 0.0
H2432 H 0.65941 0.29362 0.65354 0.0
H2433 H 0.66566 0.32911 0.70444 0.0
H2434 H 0.72392 0.30795 0.76829 0.0
H2435 H 0.69865 0.30956 0.74821 0.0
H2436 H 0.69294 0.27353 0.69739 0.0
C2437 C 0.64825 0.29792 0.65917 0.0
C2438 C 0.67143 0.31685 0.70281 0.0
C2439 C 0.63314 0.29814 0.64812 0.0
C2440 C 0.72414 0.3036 0.75453 0.0
C2441 C 0.70968 0.30464 0.74297 0.0
C2442 C 0.68726 0.28586 0.69897 0.0
C2443 C 0.64893 0.30322 0.67726 0.0
C2444 C 0.66468 0.3024 0.68922 0.0
C2445 C 0.70933 0.29911 0.72497 0.0
C2446 C 0.69397 0.30027 0.71262 0.0
H2447 H 0.60794 0.31326 0.67863 0.0
H2448 H 0.63419 0.31289 0.69785 0.0
H2449 H 0.66778 0.27538 0.67728 0.0
H2450 H 0.74919 0.28635 0.72513 0.0
H2451 H 0.72416 0.28838 0.70504 0.0
C2452 C 0.99924 0.33415 0.93135 0.0
C2453 C 0.00618 0.32032 0.93967 0.0
C2454 C 0.99941 0.35173 0.9403 0.0
C2455 C 0.00571 0.37672 0.98544 0.0
H2456 H 0.01219 0.42239 0.95939 0.0
C2457 C 0.02622 0.455 0.01712 0.0
C2458 C 0.01665 0.46793 0.01089 0.0
C2459 C 0.02322 0.43639 0.00909 0.0
C2460 C 0.01017 0.40972 0.9668 0.0
H2461 H 0.01892 0.3141 0.96387 0.0
H2462 H 0.02 0.34507 0.97931 0.0
H2463 H 0.01124 0.39148 0.94405 0.0
H2464 H 0.99616 0.47138 0.99156 0.0
H2465 H 0.99123 0.4389 0.9772 0.0
H2466 H 0.00553 0.39541 0.00833 0.0
C2467 C 0.01387 0.34221 0.96603 0.0
C2468 C 0.00955 0.39191 0.958 0.0
C2469 C 0.01342 0.32447 0.95713 0.0
C2470 C 0.0037 0.46172 -0.00331 0.0
C2471 C 1.00095 0.4432 0.98842 0.0
C2472 C 0.00666 0.39461 -0.00573 0.0
C2473 C 0.00682 0.35611 0.95776 0.0
C2474 C 0.00732 0.37512 0.96718 0.0
C2475 C 0.01082 0.43043 -0.00555 0.0
C2476 C 0.00891 0.41128 0.98503 0.0
H2477 H 0.9934 0.33129 0.91794 0.0
H2478 H 0.99348 0.36177 0.93353 0.0
H2479 H 0.0036 0.36416 0.99297 0.0
H2480 H 0.03623 0.45934 0.0281 0.0
H2481 H 0.03107 0.42689 0.01396 0.0
C2482 C 0.02255 0.78485 0.16799 0.0
C2483 C 0.02231 0.79025 0.15063 0.0
C2484 C 0.00695 0.78166 0.17709 0.0
C2485 C 0.96252 0.79276 0.17767 0.0
H2486 H 0.95186 0.74995 0.20729 0.0
C2487 C 0.89611 0.77242 0.21243 0.0
C2488 C 0.8974 0.76729 0.22986 0.0
C2489 C 0.91091 0.77472 0.20217 0.0
C2490 C 0.95471 0.76208 0.19921 0.0
H2491 H 0.00553 0.79658 0.12918 0.0
H2492 H 0.97822 0.79099 0.14506 0.0
H2493 H 0.97845 0.75499 0.19054 0.0
H2494 H 0.91551 0.76091 0.25017 0.0
H2495 H 0.94116 0.76481 0.23231 0.0
H2496 H 0.93885 0.79995 0.18645 0.0
C2497 C 0.99052 0.78937 0.15169 0.0
C2498 C 0.96997 0.76497 0.1896 0.0
C2499 C 0.00614 0.79249 0.14257 0.0
C2500 C 0.91387 0.76449 0.23671 0.0
C2501 C 0.92862 0.76675 0.22646 0.0
C2502 C 0.94726 0.78989 0.1873 0.0
C2503 C 0.99072 0.78385 0.16905 0.0
C2504 C 0.97414 0.78043 0.17881 0.0
C2505 C 0.92736 0.77192 0.20906 0.0
C2506 C 0.94323 0.77459 0.1983 0.0
H2507 H 0.0348 0.78301 0.17458 0.0
H2508 H 0.00766 0.7777 0.19051 0.0
H2509 H 0.96545 0.80495 0.16966 0.0
H2510 H 0.88359 0.77443 0.20661 0.0
H2511 H 0.90938 0.77846 0.18875 0.0
C2512 C 0.5369 0.35902 0.13007 0.0
C2513 C 0.53636 0.34072 0.12172 0.0
C2514 C 0.53727 0.37561 0.12042 0.0
C2515 C 0.54581 0.39578 0.07496 0.0
H2516 H 0.52395 0.43538 0.09286 0.0
C2517 C 0.54319 0.46331 0.03301 0.0
C2518 C 0.53932 0.48019 0.04064 0.0
C2519 C 0.54294 0.4467 0.04261 0.0
C2520 C 0.53047 0.42485 0.08745 0.0
H2521 H 0.53597 0.32653 0.09592 0.0
H2522 H 0.53689 0.35496 0.07936 0.0
H2523 H 0.52359 0.40736 0.10929 0.0
H2524 H 0.53229 0.49181 0.06524 0.0
H2525 H 0.53235 0.46389 0.08179 0.0
H2526 H 0.55298 0.41324 0.05327 0.0
C2527 C 0.53703 0.35669 0.09352 0.0
C2528 C 0.53021 0.40833 0.09714 0.0
C2529 C 0.5364 0.34006 0.10315 0.0
C2530 C 0.53535 0.47944 0.05851 0.0
C2531 C 0.53524 0.46293 0.06815 0.0
C2532 C 0.54625 0.41239 0.06533 0.0
C2533 C 0.53739 0.37504 0.1018 0.0
C2534 C 0.53782 0.39318 0.09123 0.0
C2535 C 0.53894 0.44584 0.06058 0.0
C2536 C 0.53856 0.42759 0.07117 0.0
H2537 H 0.53689 0.36058 0.14424 0.0
H2538 H 0.53773 0.38908 0.12776 0.0
H2539 H 0.55216 0.38502 0.06963 0.0
H2540 H 0.54622 0.46277 0.01937 0.0
H2541 H 0.5457 0.43437 0.0356 0.0
C2542 C 0.97057 0.2657 0.35125 0.0
C2543 C 0.98726 0.27609 0.34568 0.0
C2544 C 0.95357 0.26718 0.3435 0.0
C2545 C 0.93096 0.29729 0.31256 0.0
H2546 H 0.88866 0.25572 0.31525 0.0
C2547 C 0.85958 0.30036 0.27742 0.0
C2548 C 0.8431 0.28874 0.28235 0.0
C2549 C 0.87679 0.29897 0.28478 0.0
C2550 C 0.90004 0.26782 0.31438 0.0
H2551 H 0.99797 0.29657 0.32694 0.0
H2552 H 0.96895 0.29914 0.31361 0.0
H2553 H 0.91757 0.2532 0.32799 0.0
H2554 H 0.83306 0.26623 0.29952 0.0
H2555 H 0.8622 0.26394 0.31222 0.0
H2556 H 0.91343 0.31195 0.299 0.0
C2557 C 0.9688 0.28972 0.32416 0.0
C2558 C 0.91712 0.26631 0.3219 0.0
C2559 C 0.98581 0.28812 0.33185 0.0
C2560 C 0.845 0.27562 0.29509 0.0
C2561 C 0.86217 0.2742 0.30243 0.0
C2562 C 0.91385 0.29883 0.30509 0.0
C2563 C 0.952 0.27929 0.32968 0.0
C2564 C 0.93326 0.28099 0.32131 0.0
C2565 C 0.87879 0.2858 0.29759 0.0
C2566 C 0.89767 0.28416 0.30571 0.0
H2567 H 0.97057 0.2563 0.36182 0.0
H2568 H 0.94156 0.25889 0.34874 0.0
H2569 H 0.94244 0.30931 0.31166 0.0
H2570 H 0.85926 0.31071 0.26774 0.0
H2571 H 0.88862 0.30826 0.28009 0.0
C2572 C 0.02669 0.7151 0.62885 0.0
C2573 C 0.02974 0.73287 0.62096 0.0
C2574 C 0.02696 0.69751 0.61929 0.0
C2575 C 0.04037 0.67691 0.57546 0.0
H2576 H 0.01437 0.62813 0.59082 0.0
C2577 C 0.03529 0.6034 0.53264 0.0
C2578 C 0.03272 0.58564 0.54054 0.0
C2579 C 0.03497 0.62093 0.54228 0.0
C2580 C 0.02199 0.64145 0.58624 0.0
H2581 H 0.03548 0.74512 0.59611 0.0
H2582 H 0.03571 0.71501 0.57958 0.0
H2583 H 0.01366 0.65803 0.60711 0.0
H2584 H 0.02767 0.57341 0.56554 0.0
H2585 H 0.02728 0.60344 0.58215 0.0
H2586 H 0.04867 0.66033 0.55458 0.0
C2587 C 0.03333 0.71446 0.59336 0.0
C2588 C 0.02158 0.65901 0.5958 0.0
C2589 C 0.03305 0.73204 0.60294 0.0
C2590 C 0.02977 0.58646 0.55867 0.0
C2591 C 0.0294 0.60399 0.56831 0.0
C2592 C 0.04075 0.65936 0.5659 0.0
C2593 C 0.03033 0.69657 0.6012 0.0
C2594 C 0.03075 0.67736 0.59075 0.0
C2595 C 0.03199 0.62184 0.56044 0.0
C2596 C 0.03158 0.64102 0.57094 0.0
H2597 H 0.02417 0.71475 0.64264 0.0
H2598 H 0.02481 0.68462 0.62636 0.0
H2599 H 0.04802 0.69021 0.57088 0.0
H2600 H 0.0375 0.60383 0.5188 0.0
H2601 H 0.03678 0.6338 0.5352 0.0
C2602 C 0.59235 0.76678 0.83256 0.0
C2603 C 0.59161 0.77688 0.84895 0.0
C2604 C 0.60898 0.76667 0.82482 0.0
C2605 C 0.66115 0.79035 0.82965 0.0
H2606 H 0.66268 0.75176 0.79281 0.0
C2607 C 0.73027 0.79241 0.79511 0.0
C2608 C 0.73302 0.77653 0.78461 0.0
C2609 C 0.71347 0.79243 0.8025 0.0
C2610 C 0.66298 0.76277 0.80314 0.0
H2611 H 0.60935 0.79486 0.86956 0.0
H2612 H 0.63763 0.79467 0.85657 0.0
H2613 H 0.63457 0.75164 0.80589 0.0
H2614 H 0.71862 0.74788 0.77427 0.0
H2615 H 0.69008 0.74773 0.78692 0.0
H2616 H 0.68957 0.80126 0.8272 0.0
C2617 C 0.62534 0.78681 0.84927 0.0
C2618 C 0.64627 0.76283 0.81076 0.0
C2619 C 0.60871 0.78687 0.85701 0.0
C2620 C 0.71766 0.76064 0.78202 0.0
C2621 C 0.70084 0.76062 0.78945 0.0
C2622 C 0.67784 0.79029 0.82205 0.0
C2623 C 0.62622 0.77669 0.83284 0.0
C2624 C 0.64462 0.77662 0.82436 0.0
C2625 C 0.69802 0.77651 0.80007 0.0
C2626 C 0.67952 0.77651 0.80844 0.0
H2627 H 0.57989 0.75878 0.82556 0.0
H2628 H 0.60812 0.75871 0.81224 0.0
H2629 H 0.66138 0.80159 0.83974 0.0
H2630 H 0.74128 0.80511 0.79776 0.0
H2631 H 0.71277 0.80533 0.81012 0.0
C2632 C 0.44864 0.52021 0.6786 0.0
C2633 C 0.43361 0.52799 0.67864 0.0
C2634 C 0.46085 0.52474 0.66587 0.0
C2635 C 0.47723 0.56335 0.6375 0.0
H2636 H 0.50258 0.52751 0.6178 0.0
C2637 C 0.51987 0.57189 0.57782 0.0
C2638 C 0.53511 0.56453 0.57883 0.0
C2639 C 0.50952 0.57147 0.59219 0.0
C2640 C 0.4958 0.53772 0.6235 0.0
H2641 H 0.41864 0.54532 0.66481 0.0
H2642 H 0.4399 0.55293 0.64217 0.0
H2643 H 0.47797 0.5159 0.63618 0.0
H2644 H 0.55262 0.55243 0.59538 0.0
H2645 H 0.53434 0.5515 0.62068 0.0
H2646 H 0.49479 0.58501 0.62417 0.0
C2647 C 0.44244 0.54374 0.65226 0.0
C2648 C 0.48167 0.53106 0.63388 0.0
C2649 C 0.43023 0.53925 0.66507 0.0
C2650 C 0.54094 0.55836 0.59462 0.0
C2651 C 0.53051 0.55776 0.60895 0.0
C2652 C 0.49127 0.56997 0.62693 0.0
C2653 C 0.45813 0.53702 0.65293 0.0
C2654 C 0.47231 0.54383 0.64102 0.0
C2655 C 0.51426 0.56335 0.60744 0.0
C2656 C 0.50068 0.55719 0.61998 0.0
H2657 H 0.45149 0.51141 0.68891 0.0
H2658 H 0.47289 0.51945 0.66675 0.0
H2659 H 0.4704 0.57355 0.64312 0.0
H2660 H 0.5152 0.57644 0.56552 0.0
H2661 H 0.49694 0.5757 0.59076 0.0
C2662 C 0.76636 0.18504 -0.00292 0.0
C2663 C 0.76845 0.16616 -0.00397 0.0
C2664 C 0.75939 0.19234 0.98253 0.0
C2665 C 0.75412 0.18568 0.93469 0.0
H2666 H 0.72214 0.21957 0.94 0.0
C2667 C 0.73244 0.22288 0.87629 0.0
C2668 C 0.73581 0.24294 0.87955 0.0
C2669 C 0.7322 0.21114 0.8902 0.0
C2670 C 0.731 0.21006 0.93835 0.0
H2671 H 0.76475 0.13995 0.97914 0.0
H2672 H 0.75245 0.1527 0.95368 0.0
H2673 H 0.73036 0.20329 0.96521 0.0
H2674 H 0.74075 0.26638 0.89985 0.0
H2675 H 0.74029 0.24587 0.92412 0.0
H2676 H 0.75521 0.19286 0.90801 0.0
C2677 C 0.75638 0.16192 0.96568 0.0
C2678 C 0.73575 0.20083 0.95274 0.0
C2679 C 0.76342 0.15464 0.98023 0.0
C2680 C 0.7379 0.25094 0.89696 0.0
C2681 C 0.73763 0.2392 0.91086 0.0
C2682 C 0.74934 0.19487 0.92031 0.0
C2683 C 0.75433 0.18084 0.96671 0.0
C2684 C 0.74769 0.18892 0.95112 0.0
C2685 C 0.73528 0.21927 0.90757 0.0
C2686 C 0.73806 0.20746 0.92211 0.0
H2687 H 0.77012 0.1942 0.00915 0.0
H2688 H 0.75825 0.20709 0.98359 0.0
H2689 H 0.76352 0.17677 0.93312 0.0
H2690 H 0.73049 0.21634 0.86298 0.0
H2691 H 0.73014 0.19577 0.88737 0.0
C2692 C 0.09331 0.50052 0.20499 0.0
C2693 C 0.11091 0.50893 0.20072 0.0
C2694 C 0.07958 0.49405 0.19174 0.0
C2695 C 0.05711 0.50163 0.15751 0.0
H2696 H 0.06025 0.46219 0.1218 0.0
C2697 C 0.05128 0.49531 0.08083 0.0
C2698 C 0.03525 0.50072 0.0771 0.0
C2699 C 0.05482 0.48897 0.09714 0.0
C2700 C 0.05896 0.47297 0.13181 0.0
H2701 H 0.12811 0.5171 0.17946 0.0
H2702 H 0.10401 0.50565 0.15628 0.0
H2703 H 0.07875 0.46616 0.14949 0.0
H2704 H 0.00972 0.50261 0.08674 0.0
H2705 H 0.01615 0.49187 0.11575 0.0
H2706 H 0.03889 0.50993 0.13923 0.0
C2707 C 0.10098 0.50401 0.16987 0.0
C2708 C 0.06947 0.47518 0.14757 0.0
C2709 C 0.11466 0.51062 0.18307 0.0
C2710 C 0.02223 0.49856 0.08946 0.0
C2711 C 0.02588 0.49243 0.10597 0.0
C2712 C 0.04677 0.4996 0.14165 0.0
C2713 C 0.08342 0.49573 0.17417 0.0
C2714 C 0.06913 0.49004 0.16011 0.0
C2715 C 0.04243 0.4881 0.11007 0.0
C2716 C 0.04836 0.48592 0.12833 0.0
H2717 H 0.09014 0.49897 0.21853 0.0
H2718 H 0.06602 0.48777 0.19517 0.0
H2719 H 0.0569 0.51329 0.16707 0.0
H2720 H 0.06139 0.4966 0.07134 0.0
H2721 H 0.06781 0.48602 0.09997 0.0
C2722 C 0.79407 0.82775 0.4674 0.0
C2723 C 0.78582 0.84286 0.47123 0.0
C2724 C 0.79478 0.8207 0.4499 0.0
C2725 C 0.77216 0.81738 0.4051 0.0
H2726 H 0.81641 0.80874 0.38853 0.0
C2727 C 0.77636 0.79739 0.33089 0.0
C2728 C 0.78888 0.78733 0.32534 0.0
C2729 C 0.77649 0.8041 0.34856 0.0
C2730 C 0.80375 0.81066 0.3928 0.0
H2731 H 0.77175 0.86223 0.45938 0.0
H2732 H 0.77263 0.84974 0.42911 0.0
H2733 H 0.8154 0.81965 0.41914 0.0
H2734 H 0.81134 0.77634 0.33436 0.0
H2735 H 0.81097 0.78685 0.36525 0.0
H2736 H 0.76013 0.80772 0.37931 0.0
C2737 C 0.77861 0.84331 0.43961 0.0
C2738 C 0.80325 0.81709 0.41053 0.0
C2739 C 0.77815 0.85054 0.45704 0.0
C2740 C 0.80155 0.78412 0.33809 0.0
C2741 C 0.80137 0.79036 0.35594 0.0
C2742 C 0.77253 0.81058 0.38752 0.0
C2743 C 0.78699 0.82833 0.4357 0.0
C2744 C 0.78749 0.82076 0.41693 0.0
C2745 C 0.78881 0.80051 0.36161 0.0
C2746 C 0.78839 0.80728 0.38084 0.0
H2747 H 0.80019 0.82151 0.47793 0.0
H2748 H 0.80124 0.80908 0.44749 0.0
H2749 H 0.75967 0.81972 0.40951 0.0
H2750 H 0.76656 0.80042 0.32145 0.0
H2751 H 0.76692 0.81233 0.3518 0.0
C2752 C 0.43397 0.53106 0.78477 0.0
C2753 C 0.43962 0.52711 0.76817 0.0
C2754 C 0.444 0.52878 0.79984 0.0
C2755 C 0.48812 0.52277 0.8166 0.0
H2756 H 0.46009 0.49945 0.85387 0.0
C2757 C 0.51674 0.49591 0.87998 0.0
C2758 C 0.51092 0.50308 0.8955 0.0
C2759 C 0.50925 0.49893 0.86365 0.0
C2760 C 0.46804 0.50599 0.84355 0.0
H2761 H 0.46036 0.51834 0.7541 0.0
H2762 H 0.47769 0.51376 0.78053 0.0
H2763 H 0.44475 0.50489 0.82668 0.0
H2764 H 0.49343 0.51987 0.9061 0.0
H2765 H 0.48004 0.52458 0.87765 0.0
H2766 H 0.51145 0.52347 0.83365 0.0
C2767 C 0.4657 0.51894 0.78192 0.0
C2768 C 0.45931 0.50923 0.82806 0.0
C2769 C 0.45576 0.52147 0.76681 0.0
C2770 C 0.49781 0.51368 0.8944 0.0
C2771 C 0.49024 0.5165 0.87816 0.0
C2772 C 0.49689 0.51929 0.8321 0.0
C2773 C 0.4597 0.52221 0.79856 0.0
C2774 C 0.46923 0.51801 0.81457 0.0
C2775 C 0.49576 0.50899 0.86271 0.0
C2776 C 0.48685 0.51122 0.84576 0.0
H2777 H 0.42168 0.53568 0.78612 0.0
H2778 H 0.43931 0.53191 0.8125 0.0
H2779 H 0.4961 0.52961 0.80643 0.0
H2780 H 0.52678 0.48764 0.88046 0.0
H2781 H 0.51361 0.49299 0.85181 0.0
C2782 C 0.79172 0.16618 0.10303 0.0
C2783 C 0.79732 0.17468 0.08757 0.0
C2784 C 0.79324 0.17751 0.11867 0.0
C2785 C 0.79565 0.22662 0.13546 0.0
H2786 H 0.81294 0.20985 0.17898 0.0
C2787 C 0.80568 0.27331 0.20064 0.0
C2788 C 0.80009 0.26358 0.21552 0.0
C2789 C 0.80652 0.26294 0.18488 0.0
C2790 C 0.80793 0.21463 0.16695 0.0
H2791 H 0.80921 0.20146 0.07624 0.0
H2792 H 0.81214 0.22129 0.10377 0.0
H2793 H 0.81224 0.19057 0.15161 0.0
H2794 H 0.79075 0.23554 0.22569 0.0
H2795 H 0.79173 0.21749 0.19811 0.0
H2796 H 0.79095 0.25045 0.15084 0.0
C2797 C 0.80637 0.20593 0.10369 0.0
C2798 C 0.80757 0.20363 0.15132 0.0
C2799 C 0.80482 0.19459 0.08803 0.0
C2800 C 0.7954 0.24339 0.21447 0.0
C2801 C 0.796 0.23306 0.19868 0.0
C2802 C 0.7959 0.23758 0.15113 0.0
C2803 C 0.80043 0.19748 0.11908 0.0
C2804 C 0.80136 0.20949 0.13548 0.0
C2805 C 0.80157 0.24272 0.18375 0.0
C2806 C 0.80196 0.23161 0.16703 0.0
H2807 H 0.78572 0.15087 0.10296 0.0
H2808 H 0.78835 0.17073 0.13034 0.0
H2809 H 0.79056 0.23126 0.12339 0.0
H2810 H 0.80938 0.2889 0.20117 0.0
H2811 H 0.81108 0.27074 0.17361 0.0
C2812 C 0.12821 0.52189 0.29894 0.0
C2813 C 0.13005 0.53593 0.28672 0.0
C2814 C 0.11721 0.52236 0.31271 0.0
C2815 C 0.07828 0.54082 0.32307 0.0
H2816 H 0.08712 0.52395 0.36926 0.0
C2817 C 0.04056 0.55171 0.38421 0.0
C2818 C 0.03606 0.53605 0.39471 0.0
C2819 C 0.05005 0.55035 0.36943 0.0
C2820 C 0.08444 0.52843 0.3563 0.0
H2821 H 0.12334 0.56236 0.27994 0.0
H2822 H 0.10465 0.56365 0.30444 0.0
H2823 H 0.11008 0.52639 0.34819 0.0
H2824 H 0.03633 0.50613 0.39706 0.0
H2825 H 0.05345 0.50401 0.37138 0.0
H2826 H 0.05287 0.54348 0.33154 0.0
C2827 C 0.1111 0.55187 0.30303 0.0
C2828 C 0.09756 0.52989 0.34429 0.0
C2829 C 0.12188 0.55123 0.28913 0.0
C2830 C 0.03997 0.51854 0.38939 0.0
C2831 C 0.04968 0.51729 0.37474 0.0
C2832 C 0.06528 0.53961 0.33517 0.0
C2833 C 0.10812 0.53704 0.31454 0.0
C2834 C 0.0946 0.53612 0.32757 0.0
C2835 C 0.05529 0.5334 0.36508 0.0
C2836 C 0.06829 0.53337 0.35182 0.0
H2837 H 0.13441 0.50993 0.29732 0.0
H2838 H 0.11511 0.51067 0.32132 0.0
H2839 H 0.07544 0.54524 0.31013 0.0
H2840 H 0.03792 0.56545 0.38807 0.0
H2841 H 0.05438 0.56297 0.36214 0.0
C2842 C 0.7871 0.85853 0.58881 0.0
C2843 C 0.78318 0.84554 0.57375 0.0
C2844 C 0.78574 0.85202 0.60581 0.0
C2845 C 0.785 0.80877 0.63117 0.0
H2846 H 0.76716 0.8376 0.66745 0.0
C2847 C 0.77519 0.78082 0.70106 0.0
C2848 C 0.77812 0.79415 0.71587 0.0
C2849 C 0.77494 0.78684 0.68386 0.0
C2850 C 0.77244 0.82943 0.65764 0.0
H2851 H 0.77469 0.81527 0.56507 0.0
H2852 H 0.77247 0.80383 0.5947 0.0
H2853 H 0.76839 0.84817 0.63773 0.0
H2854 H 0.78291 0.82454 0.72374 0.0
H2855 H 0.78279 0.83508 0.69392 0.0
H2856 H 0.78938 0.79022 0.65105 0.0
C2857 C 0.77667 0.81918 0.59336 0.0
C2858 C 0.7731 0.83553 0.64043 0.0
C2859 C 0.77786 0.82574 0.57629 0.0
C2860 C 0.7805 0.81375 0.71279 0.0
C2861 C 0.78036 0.81981 0.69553 0.0
C2862 C 0.78446 0.80275 0.64841 0.0
C2863 C 0.78056 0.83221 0.60846 0.0
C2864 C 0.77943 0.82535 0.62685 0.0
C2865 C 0.77775 0.80648 0.68067 0.0
C2866 C 0.77818 0.81294 0.66205 0.0
H2867 H 0.79122 0.87389 0.58749 0.0
H2868 H 0.78909 0.8626 0.61693 0.0
H2869 H 0.79022 0.80063 0.62129 0.0
H2870 H 0.7732 0.76559 0.70271 0.0
H2871 H 0.77245 0.77592 0.67303 0.0
C2872 C 0.75904 0.45364 0.52626 0.0
C2873 C 0.75396 0.44141 0.51089 0.0
C2874 C 0.74839 0.46573 0.53159 0.0
C2875 C 0.70272 0.47278 0.52469 0.0
H2876 H 0.72549 0.52554 0.54187 0.0
C2877 C 0.66394 0.53022 0.52653 0.0
C2878 C 0.66447 0.54039 0.54285 0.0
C2879 C 0.67612 0.51918 0.52363 0.0
C2880 C 0.71904 0.51079 0.53726 0.0
H2881 H 0.73407 0.4322 0.48888 0.0
H2882 H 0.71569 0.45375 0.49786 0.0
H2883 H 0.74412 0.50333 0.53497 0.0
H2884 H 0.67858 0.54809 0.56856 0.0
H2885 H 0.70027 0.52864 0.56337 0.0
H2886 H 0.6777 0.48044 0.52641 0.0
C2887 C 0.72758 0.45363 0.5061 0.0
C2888 C 0.72963 0.49808 0.53337 0.0
C2889 C 0.73811 0.44137 0.50091 0.0
C2890 C 0.67805 0.54036 0.55588 0.0
C2891 C 0.69034 0.52928 0.55294 0.0
C2892 C 0.6922 0.48551 0.52838 0.0
C2893 C 0.73262 0.46591 0.5215 0.0
C2894 C 0.72153 0.47905 0.52679 0.0
C2895 C 0.68904 0.51819 0.53698 0.0
C2896 C 0.70031 0.50464 0.5344 0.0
H2897 H 0.77123 0.45385 0.53418 0.0
H2898 H 0.75246 0.47486 0.54363 0.0
H2899 H 0.69611 0.45808 0.52005 0.0
H2900 H 0.65371 0.53034 0.51622 0.0
H2901 H 0.67516 0.511 0.5111 0.0
C2902 C 0.2148 0.16368 0.51157 0.0
C2903 C 0.2298 0.1562 0.50899 0.0
C2904 C 0.19766 0.15132 0.51217 0.0
C2905 C 0.17149 0.10085 0.50011 0.0
H2906 H 0.13893 0.11348 0.53314 0.0
C2907 C 0.09697 0.05922 0.49743 0.0
C2908 C 0.08847 0.05611 0.5132 0.0
C2909 C 0.11443 0.07083 0.49741 0.0
C2910 C 0.14791 0.10959 0.52397 0.0
H2911 H 0.23854 0.12986 0.50491 0.0
H2912 H 0.20885 0.1084 0.50614 0.0
H2913 H 0.16873 0.13492 0.53202 0.0
H2914 H 0.09194 0.06257 0.54141 0.0
H2915 H 0.12265 0.08259 0.54142 0.0
H2916 H 0.15092 0.0753 0.49236 0.0
C2917 C 0.21017 0.12379 0.50745 0.0
C2918 C 0.16494 0.12207 0.52314 0.0
C2919 C 0.22725 0.13612 0.50682 0.0
C2920 C 0.09807 0.06464 0.52902 0.0
C2921 C 0.11563 0.07626 0.529 0.0
C2922 C 0.15452 0.08835 0.50099 0.0
C2923 C 0.19513 0.13119 0.51021 0.0
C2924 C 0.17695 0.11792 0.51114 0.0
C2925 C 0.124 0.07965 0.51315 0.0
C2926 C 0.14243 0.09259 0.51285 0.0
H2927 H 0.21632 0.17909 0.51332 0.0
H2928 H 0.18638 0.15758 0.51407 0.0
H2929 H 0.18024 0.09721 0.49057 0.0
H2930 H 0.09002 0.05299 0.48495 0.0
H2931 H 0.12023 0.0733 0.48491 0.0
C2932 C 0.17332 0.9747 0.78818 0.0
C2933 C 0.18034 0.99458 0.79167 0.0
C2934 C 0.18395 0.9634 0.78123 0.0
C2935 C 0.22437 0.96618 0.7571 0.0
H2936 H 0.22251 0.9166 0.77552 0.0
C2937 C 0.27565 0.92012 0.74663 0.0
C2938 C 0.26846 0.90014 0.74443 0.0
C2939 C 0.26432 0.93231 0.7495 0.0
C2940 C 0.22296 0.9303 0.77008 0.0
H2941 H 0.20391 0.01833 0.79095 0.0
H2942 H 0.22267 0.99845 0.77912 0.0
H2943 H 0.20412 0.93667 0.78747 0.0
H2944 H 0.24395 0.87724 0.74165 0.0
H2945 H 0.22416 0.89856 0.74662 0.0
H2946 H 0.24364 0.95984 0.73999 0.0
C2947 C 0.20887 0.99168 0.78144 0.0
C2948 C 0.21246 0.94177 0.77692 0.0
C2949 C 0.1982 0.003 0.78833 0.0
C2950 C 0.24977 0.89262 0.74363 0.0
C2951 C 0.23849 0.90476 0.74648 0.0
C2952 C 0.23499 0.95471 0.75031 0.0
C2953 C 0.2018 0.97181 0.77776 0.0
C2954 C 0.21303 0.95978 0.77047 0.0
C2955 C 0.24575 0.92458 0.75017 0.0
C2956 C 0.23426 0.93665 0.75671 0.0
H2957 H 0.15954 0.9679 0.79057 0.0
H2958 H 0.17812 0.94813 0.77832 0.0
H2959 H 0.22489 0.97995 0.75178 0.0
H2960 H 0.29005 0.92615 0.74731 0.0
H2961 H 0.27018 0.94759 0.75236 0.0
C2962 C 0.3501 0.9322 0.99157 0.0
C2963 C 0.3354 0.93803 0.98412 0.0
C2964 C 0.36672 0.94532 -0.00547 0.0
C2965 C 0.39574 0.98948 0.98364 0.0
H2966 H 0.41297 0.99337 0.03278 0.0
C2967 C 0.4661 0.03333 0.00636 0.0
C2968 C 0.47601 0.02181 0.01461 0.0
C2969 C 0.44742 0.02767 0.00483 0.0
C2970 C 0.40823 0.99255 0.01907 0.0
H2971 H 0.32673 0.96134 0.97228 0.0
H2972 H 0.35616 0.98428 0.97721 0.0
H2973 H 0.38333 0.97283 0.02314 0.0
H2974 H 0.47433 0.99647 0.02918 0.0
H2975 H 0.44174 0.9864 0.02626 0.0
H2976 H 0.42105 0.00824 0.97931 0.0
C2977 C 0.35463 0.96968 0.98097 0.0
C2978 C 0.39141 0.98081 0.01358 0.0
C2979 C 0.33791 0.95659 0.97815 0.0
C2980 C 0.467 0.00545 0.02256 0.0
C2981 C 0.44834 0.99982 0.02104 0.0
C2982 C 0.41268 1.00113 0.9891 0.0
C2983 C 0.36882 0.96431 0.98989 0.0
C2984 C 0.3854 0.97869 -0.00424 0.0
C2985 C 0.43846 0.01051 0.0116 0.0
C2986 C 0.41928 0.00215 0.00675 0.0
H2987 H 0.34851 0.91794 -0.0038 0.0
H2988 H 0.37773 0.94092 0.00116 0.0
H2989 H 0.39118 0.98802 0.96984 0.0
H2990 H 0.47273 0.0462 0.00032 0.0
H2991 H 0.44003 0.03622 -0.00233 0.0
C2992 C 0.90726 0.59987 0.78186 0.0
C2993 C 0.90003 0.58124 0.78686 0.0
C2994 C 0.8962 0.60987 0.77351 0.0
C2995 C 0.85266 0.60144 0.74775 0.0
H2996 H 0.85981 0.65651 0.75725 0.0
C2997 C 0.80208 0.64695 0.73233 0.0
C2998 C 0.80914 0.66528 0.72643 0.0
C2999 C 0.81334 0.63487 0.73586 0.0
C3000 C 0.8579 0.64118 0.75428 0.0
H3001 H 0.87556 0.5587 0.78788 0.0
H3002 H 0.85611 0.57646 0.77381 0.0
H3003 H 0.87879 0.63974 0.77336 0.0
H3004 H 0.83295 0.6842 0.71735 0.0
H3005 H 0.85272 0.6633 0.72418 0.0
H3006 H 0.83113 0.60294 0.72923 0.0
C3007 C 0.87037 0.58314 0.77588 0.0
C3008 C 0.86872 0.63158 0.76351 0.0
C3009 C 0.88146 0.57308 0.78412 0.0
C3010 C 0.82721 0.67035 0.72228 0.0
C3011 C 0.83852 0.65843 0.72612 0.0
C3012 C 0.84167 0.61104 0.73869 0.0
C3013 C 0.8777 0.60146 0.77016 0.0
C3014 C 0.86618 0.61161 0.76037 0.0
C3015 C 0.8318 0.64105 0.7337 0.0
C3016 C 0.84425 0.63096 0.7419 0.0
H3017 H 0.92157 0.60641 0.78373 0.0
H3018 H 0.90227 0.6239 0.76912 0.0
H3019 H 0.85061 0.58609 0.74484 0.0
H3020 H 0.78829 0.64262 0.73581 0.0
H3021 H 0.80793 0.6215 0.74176 0.0
C3022 C 0.84067 0.67078 0.01066 0.0
C3023 C 0.82515 0.66605 0.01993 0.0
C3024 C 0.85389 0.66043 0.01246 0.0
C3025 C 0.86073 0.61439 0.02924 0.0
H3026 H 0.9109 0.63812 0.02364 0.0
C3027 C 0.91742 0.57737 0.04692 0.0
C3028 C 0.92981 0.57684 0.03414 0.0
C3029 C 0.90521 0.58887 0.04535 0.0
C3030 C 0.89691 0.6313 0.02516 0.0
H3031 H 0.81159 0.6475 0.03892 0.0
H3032 H 0.83495 0.6304 0.04298 0.0
H3033 H 0.88877 0.65722 0.02103 0.0
H3034 H 0.93909 0.58837 0.00975 0.0
H3035 H 0.91806 0.60883 0.00731 0.0
H3036 H 0.86909 0.58865 0.03394 0.0
C3037 C 0.83672 0.64133 0.03361 0.0
C3038 C 0.88415 0.6422 0.02356 0.0
C3039 C 0.82335 0.65129 0.03145 0.0
C3040 C 0.92996 0.58858 0.01999 0.0
C3041 C 0.91786 0.60026 0.01853 0.0
C3042 C 0.87352 0.60363 0.03116 0.0
C3043 C 0.85207 0.64544 0.02391 0.0
C3044 C 0.86583 0.63392 0.02558 0.0
C3045 C 0.90522 0.60034 0.03108 0.0
C3046 C 0.89174 0.61194 0.02912 0.0
H3047 H 0.8423 0.68202 0.00159 0.0
H3048 H 0.8653 0.66393 0.00452 0.0
H3049 H 0.84678 0.60719 0.03041 0.0
H3050 H 0.91713 0.5689 0.05822 0.0
H3051 H 0.89579 0.58885 0.05536 0.0
C3052 C 0.19033 0.08801 0.83505 0.0
C3053 C 0.17283 0.08417 0.82694 0.0
C3054 C 0.20176 0.10638 0.83516 0.0
C3055 C 0.21184 0.13624 0.80295 0.0
H3056 H 0.23804 0.17977 0.83411 0.0
C3057 C 0.24999 0.2054 0.77632 0.0
C3058 C 0.26655 0.21544 0.7848 0.0
C3059 C 0.23943 0.18969 0.78366 0.0
C3060 C 0.231 0.16754 0.82535 0.0
H3061 H 0.15272 0.09686 0.81479 0.0
H3062 H 0.1729 0.12884 0.81466 0.0
H3063 H 0.21665 0.153 0.84604 0.0
H3064 H 0.28532 0.21671 0.80739 0.0
H3065 H 0.26689 0.18868 0.82006 0.0
H3066 H 0.22621 0.15009 0.78234 0.0
C3067 C 0.17766 0.11771 0.82099 0.0
C3068 C 0.21872 0.15244 0.83214 0.0
C3069 C 0.1662 0.09941 0.82097 0.0
C3070 C 0.27263 0.20913 0.80053 0.0
C3071 C 0.26202 0.19327 0.80788 0.0
C3072 C 0.22418 0.15107 0.79623 0.0
C3073 C 0.19573 0.12094 0.82717 0.0
C3074 C 0.20889 0.13697 0.82084 0.0
C3075 C 0.24527 0.18352 0.79954 0.0
C3076 C 0.23361 0.16705 0.80727 0.0
H3077 H 0.19569 0.07651 0.8399 0.0
H3078 H 0.21575 0.10866 0.83982 0.0
H3079 H 0.20457 0.12412 0.79415 0.0
H3080 H 0.2449 0.20998 0.76422 0.0
H3081 H 0.22644 0.18266 0.77707 0.0
C3082 C 0.40175 0.9807 0.29306 0.0
C3083 C 0.40128 0.99555 0.30561 0.0
C3084 C 0.38878 0.96333 0.29225 0.0
C3085 C 0.34268 0.94304 0.30382 0.0
H3086 H 0.3543 0.89518 0.28918 0.0
C3087 C 0.29677 0.86436 0.29841 0.0
C3088 C 0.29865 0.85361 0.28301 0.0
C3089 C 0.30687 0.88338 0.30156 0.0
C3090 C 0.3509 0.9085 0.29321 0.0
H3091 H 0.3876 0.00373 0.32773 0.0
H3092 H 0.36515 0.97295 0.32669 0.0
H3093 H 0.37843 0.92401 0.29622 0.0
H3094 H 0.31041 0.85467 0.25786 0.0
H3095 H 0.32797 0.88789 0.26336 0.0
H3096 H 0.31501 0.92706 0.301 0.0
C3097 C 0.37526 0.97496 0.3172 0.0
C3098 C 0.36467 0.92497 0.29723 0.0
C3099 C 0.38817 0.99247 0.31789 0.0
C3100 C 0.3091 0.86262 0.27 0.0
C3101 C 0.31906 0.88155 0.2731 0.0
C3102 C 0.32885 0.92638 0.30001 0.0
C3103 C 0.37524 0.96039 0.30414 0.0
C3104 C 0.36071 0.94251 0.30213 0.0
C3105 C 0.31875 0.89165 0.28927 0.0
C3106 C 0.33292 0.90918 0.29425 0.0
H3107 H 0.41164 0.98276 0.28334 0.0
H3108 H 0.38897 0.95253 0.28183 0.0
H3109 H 0.33922 0.95641 0.30743 0.0
H3110 H 0.2887 0.85765 0.30858 0.0
H3111 H 0.3065 0.89103 0.31411 0.0
C3112 C 0.57175 0.36643 0.61415 0.0
C3113 C 0.57186 0.35034 0.6028 0.0
C3114 C 0.57118 0.38408 0.60754 0.0
C3115 C 0.56048 0.40596 0.56623 0.0
H3116 H 0.58338 0.45353 0.59375 0.0
C3117 C 0.54813 0.47874 0.54718 0.0
C3118 C 0.56184 0.49574 0.5509 0.0
C3119 C 0.5499 0.46126 0.55334 0.0
C3120 C 0.57708 0.44047 0.5857 0.0
H3121 H 0.57165 0.34034 0.57552 0.0
H3122 H 0.57119 0.37125 0.56394 0.0
H3123 H 0.58619 0.42306 0.60419 0.0
H3124 H 0.58832 0.50754 0.56391 0.0
H3125 H 0.59181 0.47695 0.5741 0.0
H3126 H 0.55205 0.42339 0.54736 0.0
C3127 C 0.57114 0.37018 0.578 0.0
C3128 C 0.57844 0.42283 0.59189 0.0
C3129 C 0.57156 0.35243 0.58463 0.0
C3130 C 0.57745 0.49476 0.5609 0.0
C3131 C 0.57937 0.47716 0.56684 0.0
C3132 C 0.55932 0.42361 0.55994 0.0
C3133 C 0.57087 0.3863 0.58935 0.0
C3134 C 0.57001 0.40524 0.58235 0.0
C3135 C 0.5656 0.46008 0.56318 0.0
C3136 C 0.56744 0.4412 0.56964 0.0
H3137 H 0.57185 0.36533 0.62822 0.0
H3138 H 0.57062 0.39588 0.61678 0.0
H3139 H 0.5536 0.39285 0.55852 0.0
H3140 H 0.5358 0.47896 0.5397 0.0
H3141 H 0.53876 0.44872 0.55055 0.0
C3142 C 0.43801 0.76014 0.38985 0.0
C3143 C 0.45466 0.76666 0.38268 0.0
C3144 C 0.42215 0.7626 0.38139 0.0
C3145 C 0.40601 0.79054 0.34653 0.0
H3146 H 0.36033 0.75395 0.35049 0.0
C3147 C 0.34191 0.78736 0.30177 0.0
C3148 C 0.32591 0.7867 0.31003 0.0
C3149 C 0.35739 0.78554 0.31133 0.0
C3150 C 0.37297 0.76438 0.34941 0.0
H3151 H 0.46763 0.78043 0.36072 0.0
H3152 H 0.44004 0.78395 0.34556 0.0
H3153 H 0.38766 0.7488 0.36504 0.0
H3154 H 0.31357 0.78348 0.33481 0.0
H3155 H 0.34062 0.77959 0.35149 0.0
H3156 H 0.39125 0.8056 0.33024 0.0
C3157 C 0.43914 0.7775 0.35803 0.0
C3158 C 0.38871 0.7615 0.35781 0.0
C3159 C 0.45502 0.77529 0.36663 0.0
C3160 C 0.32572 0.7841 0.32811 0.0
C3161 C 0.34115 0.78179 0.33761 0.0
C3162 C 0.39034 0.7932 0.33788 0.0
C3163 C 0.42244 0.77144 0.36538 0.0
C3164 C 0.40552 0.77451 0.35649 0.0
C3165 C 0.35717 0.78258 0.32931 0.0
C3166 C 0.37365 0.78014 0.33919 0.0
H3167 H 0.43728 0.75357 0.40227 0.0
H3168 H 0.40974 0.75798 0.38772 0.0
H3169 H 0.41848 0.80123 0.34548 0.0
H3170 H 0.34253 0.78949 0.28789 0.0
H3171 H 0.36949 0.78611 0.30455 0.0
C3172 C 0.04871 0.72622 0.10283 0.0
C3173 C 0.06173 0.74167 0.09722 0.0
C3174 C 0.0468 0.70742 0.09562 0.0
C3175 C 0.071 0.67591 0.07247 0.0
H3176 H 0.02316 0.64223 0.06358 0.0
C3177 C 0.05772 0.59658 0.04219 0.0
C3178 C 0.04368 0.58289 0.04874 0.0
C3179 C 0.06052 0.6163 0.04718 0.0
C3180 C 0.03665 0.65132 0.06616 0.0
H3181 H 0.08296 0.74942 0.07955 0.0
H3182 H 0.07962 0.71643 0.06687 0.0
H3183 H 0.02673 0.67581 0.07352 0.0
H3184 H 0.02191 0.57937 0.06611 0.0
H3185 H 0.02697 0.61333 0.07497 0.0
H3186 H 0.0809 0.65126 0.06533 0.0
C3187 C 0.07092 0.71893 0.07694 0.0
C3188 C 0.0387 0.67066 0.07184 0.0
C3189 C 0.07276 0.73784 0.08411 0.0
C3190 C 0.03279 0.58941 0.06066 0.0
C3191 C 0.03561 0.60901 0.06565 0.0
C3192 C 0.06895 0.65648 0.06683 0.0
C3193 C 0.0579 0.70346 0.08262 0.0
C3194 C 0.05588 0.68319 0.07533 0.0
C3195 C 0.04935 0.62281 0.05884 0.0
C3196 C 0.05174 0.64382 0.06386 0.0
H3197 H 0.04003 0.72861 0.11295 0.0
H3198 H 0.03681 0.6959 0.10053 0.0
H3199 H 0.08445 0.68508 0.07515 0.0
H3200 H 0.06635 0.59212 0.03295 0.0
H3201 H 0.07118 0.62646 0.04156 0.0
C3202 C 0.06698 0.28234 0.89492 0.0
C3203 C 0.05023 0.27281 0.88643 0.0
C3204 C 0.08285 0.28326 0.88652 0.0
C3205 C 0.1011 0.25924 0.8501 0.0
H3206 H 0.14006 0.30552 0.85557 0.0
C3207 C 0.17011 0.26137 0.82316 0.0
C3208 C 0.17823 0.2778 0.81468 0.0
C3209 C 0.15502 0.26105 0.83265 0.0
C3210 C 0.12927 0.29252 0.85382 0.0
H3211 H 0.03692 0.25703 0.86237 0.0
H3212 H 0.06449 0.25891 0.84759 0.0
H3213 H 0.11248 0.30465 0.87011 0.0
H3214 H 0.17715 0.30699 0.80996 0.0
H3215 H 0.15068 0.30635 0.8263 0.0
H3216 H 0.11766 0.24728 0.83344 0.0
C3217 C 0.06547 0.26538 0.86087 0.0
C3218 C 0.11352 0.29194 0.86233 0.0
C3219 C 0.04963 0.26441 0.86929 0.0
C3220 C 0.17111 0.29404 0.81621 0.0
C3221 C 0.15604 0.29374 0.82573 0.0
C3222 C 0.11682 0.25983 0.84159 0.0
C3223 C 0.0823 0.2747 0.8694 0.0
C3224 C 0.09919 0.27531 0.86052 0.0
C3225 C 0.14768 0.27716 0.83391 0.0
C3226 C 0.1311 0.27648 0.8433 0.0
H3227 H 0.06788 0.2889 0.90816 0.0
H3228 H 0.09556 0.29035 0.89358 0.0
H3229 H 0.09046 0.24609 0.8486 0.0
H3230 H 0.17512 0.24853 0.82211 0.0
H3231 H 0.14907 0.24813 0.83896 0.0
C3232 C 0.53065 0.70331 0.89481 0.0
C3233 C 0.53641 0.72207 0.90339 0.0
C3234 C 0.53006 0.6862 0.90381 0.0
C3235 C 0.5331 0.66733 0.95044 0.0
H3236 H 0.5356 0.6202 0.92474 0.0
C3237 C 0.53575 0.59747 0.98883 0.0
C3238 C 0.53199 0.57868 0.98029 0.0
C3239 C 0.53618 0.61433 0.97957 0.0
C3240 C 0.53465 0.63297 0.93244 0.0
H3241 H 0.54612 0.73641 0.92899 0.0
H3242 H 0.54521 0.70729 0.94442 0.0
H3243 H 0.53647 0.64909 0.90933 0.0
H3244 H 0.52569 0.56409 0.95432 0.0
H3245 H 0.52602 0.59279 0.93842 0.0
H3246 H 0.53111 0.65132 0.9735 0.0
C3247 C 0.54086 0.7055 0.9306 0.0
C3248 C 0.53517 0.65001 0.92334 0.0
C3249 C 0.5415 0.72259 0.92157 0.0
C3250 C 0.52863 0.57791 0.96178 0.0
C3251 C 0.52898 0.59481 0.95248 0.0
C3252 C 0.5325 0.65029 0.95953 0.0
C3253 C 0.53513 0.68663 0.92207 0.0
C3254 C 0.53446 0.66787 0.932 0.0
C3255 C 0.53279 0.61372 0.96102 0.0
C3256 C 0.5333 0.63241 0.95092 0.0
H3257 H 0.52654 0.70176 0.88092 0.0
H3258 H 0.52531 0.6725 0.89627 0.0
H3259 H 0.53216 0.68013 0.95811 0.0
H3260 H 0.5386 0.59931 0.00293 0.0
H3261 H 0.53952 0.62799 0.98726 0.0
C3262 C 0.10322 0.80195 0.67016 0.0
C3263 C 0.08724 0.79263 0.67775 0.0
C3264 C 0.12086 0.80225 0.67763 0.0
C3265 C 0.14658 0.77905 0.71236 0.0
H3266 H 0.18777 0.81897 0.70213 0.0
C3267 C 0.22149 0.77603 0.73673 0.0
C3268 C 0.2359 0.79285 0.73932 0.0
C3269 C 0.2039 0.77623 0.72958 0.0
C3270 C 0.17662 0.80762 0.70542 0.0
H3271 H 0.07857 0.77618 0.69989 0.0
H3272 H 0.10864 0.77668 0.71274 0.0
H3273 H 0.15777 0.81906 0.68996 0.0
H3274 H 0.24173 0.82339 0.73575 0.0
H3275 H 0.21164 0.82381 0.72349 0.0
H3276 H 0.16537 0.76774 0.72798 0.0
C3277 C 0.10774 0.7838 0.70076 0.0
C3278 C 0.15897 0.80754 0.69809 0.0
C3279 C 0.0901 0.78361 0.69334 0.0
C3280 C 0.23147 0.80994 0.73419 0.0
C3281 C 0.21386 0.81013 0.7269 0.0
C3282 C 0.16423 0.77907 0.7196 0.0
C3283 C 0.12384 0.79312 0.69319 0.0
C3284 C 0.14324 0.79325 0.70127 0.0
C3285 C 0.19936 0.79327 0.72435 0.0
C3286 C 0.17996 0.79335 0.71642 0.0
H3287 H 0.10215 0.80908 0.6582 0.0
H3288 H 0.13224 0.8095 0.67081 0.0
H3289 H 0.13549 0.76749 0.7154 0.0
H3290 H 0.22377 0.7624 0.74028 0.0
H3291 H 0.19386 0.76265 0.72793 0.0
C3292 C 0.03236 0.33055 0.42015 0.0
C3293 C 0.04055 0.33008 0.40406 0.0
C3294 C 0.03126 0.34817 0.42919 0.0
C3295 C 0.03842 0.40315 0.42417 0.0
H3296 H 0.03146 0.4047 0.47385 0.0
C3297 C 0.02785 0.47431 0.46267 0.0
C3298 C 0.03222 0.47779 0.48102 0.0
C3299 C 0.02874 0.45676 0.45326 0.0
C3300 C 0.03359 0.40495 0.46 0.0
H3301 H 0.05406 0.34894 0.38529 0.0
H3302 H 0.05261 0.37915 0.40087 0.0
H3303 H 0.03376 0.37498 0.45852 0.0
H3304 H 0.04115 0.46438 0.50334 0.0
H3305 H 0.04284 0.43465 0.4874 0.0
H3306 H 0.0387 0.43332 0.42582 0.0
C3307 C 0.04661 0.3659 0.40662 0.0
C3308 C 0.03467 0.38737 0.45092 0.0
C3309 C 0.04762 0.34826 0.39755 0.0
C3310 C 0.03753 0.46272 0.48935 0.0
C3311 C 0.03838 0.44523 0.48001 0.0
C3312 C 0.03737 0.42076 0.43327 0.0
C3313 C 0.03834 0.3665 0.42276 0.0
C3314 C 0.03714 0.3858 0.43267 0.0
C3315 C 0.034 0.44157 0.46163 0.0
C3316 C 0.03496 0.4223 0.45154 0.0
H3317 H 0.02654 0.31715 0.4258 0.0
H3318 H 0.02446 0.34719 0.44122 0.0
H3319 H 0.04007 0.40326 0.41023 0.0
H3320 H 0.02372 0.48522 0.45544 0.0
H3321 H 0.02499 0.45511 0.43931 0.0
C3322 C 0.47756 0.27588 0.19473 0.0
C3323 C 0.48066 0.28288 0.17786 0.0
C3324 C 0.46078 0.2744 0.20272 0.0
C3325 C 0.4163 0.29147 0.19996 0.0
H3326 H 0.39962 0.25234 0.2321 0.0
C3327 C 0.35083 0.29068 0.24018 0.0
C3328 C 0.33947 0.27321 0.245 0.0
C3329 C 0.36746 0.29157 0.23217 0.0
C3330 C 0.40378 0.26345 0.22315 0.0
H3331 H 0.46709 0.29394 0.15678 0.0
H3332 H 0.43866 0.29182 0.17049 0.0
H3333 H 0.4282 0.25442 0.21866 0.0
H3334 H 0.33822 0.24274 0.2445 0.0
H3335 H 0.36694 0.24428 0.23121 0.0
H3336 H 0.39201 0.30063 0.20455 0.0
C3337 C 0.4492 0.28729 0.17776 0.0
C3338 C 0.42064 0.26478 0.21536 0.0
C3339 C 0.46584 0.28845 0.16966 0.0
C3340 C 0.34608 0.25665 0.24132 0.0
C3341 C 0.36294 0.25759 0.23358 0.0
C3342 C 0.39962 0.29036 0.20798 0.0
C3343 C 0.44595 0.28015 0.19459 0.0
C3344 C 0.42754 0.27879 0.20338 0.0
C3345 C 0.37424 0.27509 0.22859 0.0
C3346 C 0.39264 0.27626 0.21984 0.0
H3347 H 0.48819 0.27134 0.20187 0.0
H3348 H 0.45961 0.26894 0.21561 0.0
H3349 H 0.42049 0.3027 0.19113 0.0
H3350 H 0.34678 0.30399 0.24246 0.0
H3351 H 0.37518 0.30554 0.229 0.0
C3352 C 0.62706 0.50472 0.36594 0.0
C3353 C 0.61826 0.51041 0.35137 0.0
C3354 C 0.62004 0.50497 0.38229 0.0
C3355 C 0.59315 0.53146 0.40603 0.0
H3356 H 0.59507 0.49552 0.44166 0.0
C3357 C 0.56171 0.53588 0.47125 0.0
C3358 C 0.57225 0.53451 0.48651 0.0
C3359 C 0.56731 0.53199 0.45483 0.0
C3360 C 0.59466 0.50571 0.43183 0.0
H3361 H 0.59454 0.51918 0.34195 0.0
H3362 H 0.58205 0.51924 0.37053 0.0
H3363 H 0.60323 0.4884 0.41199 0.0
H3364 H 0.5968 0.5279 0.49666 0.0
H3365 H 0.60664 0.52096 0.4676 0.0
H3366 H 0.58458 0.54875 0.4258 0.0
C3367 C 0.59456 0.51502 0.36938 0.0
C3368 C 0.59922 0.50162 0.41492 0.0
C3369 C 0.60162 0.51484 0.35304 0.0
C3370 C 0.58848 0.52909 0.48507 0.0
C3371 C 0.59404 0.52504 0.46854 0.0
C3372 C 0.58854 0.53549 0.42287 0.0
C3373 C 0.60408 0.51082 0.38423 0.0
C3374 C 0.59842 0.51444 0.40189 0.0
C3375 C 0.58349 0.52658 0.45335 0.0
C3376 C 0.58921 0.52262 0.43585 0.0
H3377 H 0.63992 0.50123 0.36496 0.0
H3378 H 0.62768 0.50177 0.39357 0.0
H3379 H 0.5929 0.54184 0.39635 0.0
H3380 H 0.54913 0.54005 0.47193 0.0
H3381 H 0.55889 0.53305 0.44327 0.0
C3382 C 0.29921 0.90642 0.05768 0.0
C3383 C 0.29503 0.89221 0.04363 0.0
C3384 C 0.30377 0.90171 0.07447 0.0
C3385 C 0.32252 0.86721 0.09713 0.0
H3386 H 0.29692 0.87947 0.13675 0.0
C3387 C 0.32062 0.82779 0.15981 0.0
C3388 C 0.32049 0.83788 0.17605 0.0
C3389 C 0.31992 0.83682 0.14428 0.0
C3390 C 0.30447 0.87631 0.12591 0.0
H3391 H 0.29228 0.86205 0.03594 0.0
H3392 H 0.30049 0.85384 0.06534 0.0
H3393 H 0.2907 0.89076 0.10809 0.0
H3394 H 0.32006 0.86551 0.18885 0.0
H3395 H 0.3189 0.8814 0.16153 0.0
H3396 H 0.33623 0.85268 0.11477 0.0
C3397 C 0.30022 0.86858 0.06332 0.0
C3398 C 0.30084 0.88269 0.10953 0.0
C3399 C 0.29541 0.87323 0.04659 0.0
C3400 C 0.32003 0.85735 0.17648 0.0
C3401 C 0.31935 0.86642 0.16088 0.0
C3402 C 0.32628 0.86101 0.1135 0.0
C3403 C 0.30447 0.8828 0.07735 0.0
C3404 C 0.30952 0.87776 0.09496 0.0
C3405 C 0.31911 0.85616 0.14463 0.0
C3406 C 0.31695 0.86505 0.12795 0.0
H3407 H 0.29898 0.92118 0.0557 0.0
H3408 H 0.30704 0.91288 0.08512 0.0
H3409 H 0.32959 0.86355 0.08608 0.0
H3410 H 0.32056 0.81267 0.15904 0.0
H3411 H 0.31934 0.8284 0.13195 0.0
C3412 C 0.96303 0.56729 0.85854 0.0
C3413 C 0.96744 0.55694 0.84404 0.0
C3414 C 0.97156 0.56714 0.87503 0.0
C3415 C 0.9938 0.53678 0.89993 0.0
H3416 H 0.00703 0.58134 0.93355 0.0
C3417 C 0.02864 0.53465 0.96769 0.0
C3418 C 0.02108 0.54227 0.98189 0.0
C3419 C 0.02351 0.53765 0.95057 0.0
C3420 C 0.00331 0.5688 0.92428 0.0
H3421 H 0.98472 0.53912 0.83505 0.0
H3422 H 0.99989 0.53914 0.86393 0.0
H3423 H 0.99613 0.58496 0.90364 0.0
H3424 H 0.00259 0.55935 0.98938 0.0
H3425 H 0.99366 0.56458 0.95934 0.0
H3426 H 1.0008 0.52058 0.92061 0.0
C3427 C 0.98964 0.54708 0.86257 0.0
C3428 C 0.9971 0.57086 0.90723 0.0
C3429 C 0.98108 0.5472 0.84607 0.0
C3430 C 0.00867 0.55335 0.97869 0.0
C3431 C 0.0036 0.5564 0.96154 0.0
C3432 C 1.00006 0.53474 0.91696 0.0
C3433 C 0.98466 0.5567 0.87724 0.0
C3434 C 0.99223 0.55484 0.89496 0.0
C3435 C 0.01084 0.54839 0.94737 0.0
C3436 C 0.00477 0.55072 0.92926 0.0
H3437 H 0.95249 0.57487 0.8573 0.0
H3438 H 0.96734 0.5745 0.88617 0.0
H3439 H 0.98975 0.52412 0.89082 0.0
H3440 H 0.03823 0.52603 0.96975 0.0
H3441 H 0.02939 0.53149 0.93981 0.0
C3442 C 0.27392 0.20251 0.57833 0.0
C3443 C 0.28332 0.21475 0.56638 0.0
C3444 C 0.27423 0.20849 0.59618 0.0
C3445 C 0.30004 0.24421 0.6317 0.0
H3446 H 0.2569 0.22728 0.65635 0.0
C3447 C 0.30048 0.2517 0.70847 0.0
C3448 C 0.28571 0.25648 0.71611 0.0
C3449 C 0.30029 0.24764 0.69019 0.0
C3450 C 0.26908 0.23231 0.64974 0.0
H3451 H 0.30059 0.24313 0.56424 0.0
H3452 H 0.30117 0.25368 0.5955 0.0
H3453 H 0.2563 0.21899 0.62493 0.0
H3454 H 0.2591 0.26063 0.71006 0.0
H3455 H 0.25871 0.25342 0.67838 0.0
H3456 H 0.31278 0.25758 0.65659 0.0
C3457 C 0.29354 0.23929 0.59097 0.0
C3458 C 0.2688 0.22734 0.63162 0.0
C3459 C 0.29313 0.2333 0.57296 0.0
C3460 C 0.27075 0.25703 0.7048 0.0
C3461 C 0.27048 0.25275 0.68653 0.0
C3462 C 0.30036 0.24905 0.64989 0.0
C3463 C 0.28403 0.22699 0.60291 0.0
C3464 C 0.28428 0.23309 0.62224 0.0
C3465 C 0.28526 0.24798 0.67887 0.0
C3466 C 0.2849 0.24314 0.65928 0.0
H3467 H 0.26628 0.18808 0.5739 0.0
H3468 H 0.26697 0.19838 0.6048 0.0
H3469 H 0.3123 0.24885 0.62513 0.0
H3470 H 0.3123 0.25115 0.71661 0.0
H3471 H 0.31188 0.24386 0.68498 0.0
C3472 C 0.60804 0.51874 0.25284 0.0
C3473 C 0.62525 0.52995 0.25868 0.0
C3474 C 0.60105 0.51977 0.23578 0.0
C3475 C 0.60609 0.55235 0.20021 0.0
H3476 H 0.57881 0.50731 0.17144 0.0
C3477 C 0.5837 0.55679 0.12833 0.0
C3478 C 0.56561 0.54791 0.12324 0.0
C3479 C 0.5914 0.55333 0.14435 0.0
C3480 C 0.58632 0.51999 0.17941 0.0
H3481 H 0.64889 0.55051 0.25128 0.0
H3482 H 0.6368 0.55212 0.2215 0.0
H3483 H 0.59157 0.50352 0.20067 0.0
H3484 H 0.54155 0.52792 0.13048 0.0
H3485 H 0.55498 0.52207 0.15873 0.0
H3486 H 0.60086 0.56883 0.17907 0.0
C3487 C 0.62856 0.54284 0.23013 0.0
C3488 C 0.59358 0.51784 0.1961 0.0
C3489 C 0.6355 0.54187 0.24715 0.0
C3490 C 0.55545 0.53516 0.13426 0.0
C3491 C 0.56318 0.53164 0.15028 0.0
C3492 C 0.59892 0.55448 0.18356 0.0
C3493 C 0.61119 0.53199 0.22435 0.0
C3494 C 0.60354 0.53402 0.20663 0.0
C3495 C 0.58115 0.54089 0.15554 0.0
C3496 C 0.58898 0.53834 0.17302 0.0
H3497 H 0.5999 0.50938 0.26149 0.0
H3498 H 0.58756 0.51137 0.23169 0.0
H3499 H 0.6134 0.56512 0.20818 0.0
H3500 H 0.59181 0.56671 0.12008 0.0
H3501 H 0.60535 0.56047 0.14805 0.0
C3502 C 0.27153 0.85469 0.94543 0.0
C3503 C 0.27108 0.87414 0.94691 0.0
C3504 C 0.27188 0.8455 0.92893 0.0
C3505 C 0.28813 0.85569 0.8868 0.0
H3506 H 0.25121 0.81145 0.86684 0.0
C3507 C 0.28276 0.8321 0.81368 0.0
C3508 C 0.27801 0.8123 0.80886 0.0
C3509 C 0.28172 0.83873 0.83096 0.0
C3510 C 0.26181 0.82359 0.87233 0.0
H3511 H 0.27007 0.89911 0.9325 0.0
H3512 H 0.27094 0.88307 0.90379 0.0
H3513 H 0.24992 0.8239 0.897 0.0
H3514 H 0.26856 0.78382 0.81816 0.0
H3515 H 0.2673 0.79534 0.84839 0.0
H3516 H 0.30029 0.85535 0.86244 0.0
C3517 C 0.27098 0.87501 0.91534 0.0
C3518 C 0.261 0.83067 0.88952 0.0
C3519 C 0.27034 0.88407 0.93172 0.0
C3520 C 0.27203 0.79922 0.82149 0.0
C3521 C 0.2713 0.80581 0.83881 0.0
C3522 C 0.28912 0.84844 0.86974 0.0
C3523 C 0.27208 0.85582 0.9139 0.0
C3524 C 0.27395 0.84698 0.89665 0.0
C3525 C 0.27623 0.82562 0.84375 0.0
C3526 C 0.27575 0.83258 0.8622 0.0
H3527 H 0.27219 0.84681 0.95701 0.0
H3528 H 0.2727 0.83063 0.92794 0.0
H3529 H 0.29834 0.86821 0.89227 0.0
H3530 H 0.28736 0.84245 0.80412 0.0
H3531 H 0.28525 0.85412 0.8343 0.0
C3532 C 0.97061 0.56503 0.74743 0.0
C3533 C 0.95463 0.55141 0.75001 0.0
C3534 C 0.97671 0.56699 0.73065 0.0
C3535 C 0.96228 0.55486 0.68364 0.0
H3536 H 0.01177 0.55267 0.67945 0.0
C3537 C 0.98698 0.52322 0.62238 0.0
C3538 C 0.00459 0.53108 0.61799 0.0
C3539 C 0.98069 0.53041 0.63741 0.0
C3540 C 0.99804 0.55376 0.68037 0.0
H3541 H 0.93236 0.5293 0.73723 0.0
H3542 H 0.94319 0.53244 0.70805 0.0
H3543 H 1.00116 0.55685 0.70838 0.0
H3544 H 0.02907 0.55332 0.62495 0.0
H3545 H 0.01804 0.566 0.65127 0.0
H3546 H 0.95901 0.55096 0.6556 0.0
C3547 C 0.95083 0.54187 0.71887 0.0
C3548 C 0.99197 0.55615 0.69694 0.0
C3549 C 0.94475 0.53992 0.73559 0.0
C3550 C 0.01556 0.54678 0.62835 0.0
C3551 C 0.00924 0.55406 0.64332 0.0
C3552 C 0.96836 0.5525 0.66704 0.0
C3553 C 0.96688 0.55536 0.71625 0.0
C3554 C 0.97391 0.55612 0.69873 0.0
C3555 C 0.9919 0.54565 0.64819 0.0
C3556 C 0.98615 0.55135 0.66531 0.0
H3557 H 0.97839 0.57415 0.75835 0.0
H3558 H 0.98912 0.57753 0.72892 0.0
H3559 H 0.94834 0.5551 0.68471 0.0
H3560 H 0.97832 0.51108 0.61455 0.0
H3561 H 0.96736 0.52346 0.641 0.0
C3562 C 0.29142 0.23232 0.45917 0.0
C3563 C 0.28539 0.21271 0.46228 0.0
C3564 C 0.29258 0.23828 0.44186 0.0
C3565 C 0.27496 0.22206 0.39522 0.0
H3566 H 0.31554 0.26153 0.38281 0.0
C3567 C 0.28405 0.23799 0.32195 0.0
C3568 C 0.29276 0.25657 0.31753 0.0
C3569 C 0.28363 0.23314 0.33954 0.0
C3570 C 0.3039 0.25067 0.38593 0.0
H3571 H 0.27583 0.1841 0.44927 0.0
H3572 H 0.27762 0.19438 0.41947 0.0
H3573 H 0.31359 0.25274 0.41312 0.0
H3574 H 0.30787 0.28466 0.32864 0.0
H3575 H 0.30673 0.27652 0.35921 0.0
H3576 H 0.26494 0.22017 0.36834 0.0
C3577 C 0.28142 0.20527 0.43031 0.0
C3578 C 0.30283 0.24557 0.40349 0.0
C3579 C 0.28048 0.19933 0.44753 0.0
C3580 C 0.30118 0.27013 0.33139 0.0
C3581 C 0.30055 0.26536 0.34907 0.0
C3582 C 0.27591 0.22729 0.37776 0.0
C3583 C 0.2875 0.22485 0.42709 0.0
C3584 C 0.28842 0.23101 0.40844 0.0
C3585 C 0.29164 0.24677 0.35357 0.0
C3586 C 0.2905 0.24157 0.37261 0.0
H3587 H 0.29537 0.24308 0.47012 0.0
H3588 H 0.29721 0.2535 0.44006 0.0
H3589 H 0.26344 0.21106 0.3984 0.0
H3590 H 0.27745 0.22705 0.31175 0.0
H3591 H 0.27703 0.21852 0.34203 0.0
C3592 C 0.32223 0.59819 0.53239 0.0
C3593 C 0.32514 0.61828 0.53371 0.0
C3594 C 0.3364 0.58986 0.52937 0.0
C3595 C 0.38022 0.59924 0.51133 0.0
H3596 H 0.38661 0.55717 0.53859 0.0
C3597 C 0.4433 0.56977 0.51206 0.0
C3598 C 0.44071 0.54977 0.51257 0.0
C3599 C 0.42879 0.57804 0.51315 0.0
C3600 C 0.38481 0.56871 0.53071 0.0
H3601 H 0.34493 0.64552 0.53309 0.0
H3602 H 0.36985 0.63086 0.52795 0.0
H3603 H 0.36215 0.57223 0.54424 0.0
H3604 H 0.42102 0.52262 0.5139 0.0
H3605 H 0.39551 0.53706 0.51536 0.0
H3606 H 0.40296 0.59575 0.49784 0.0
C3607 C 0.35658 0.62162 0.52906 0.0
C3608 C 0.3709 0.57734 0.53398 0.0
C3609 C 0.3424 0.62997 0.53209 0.0
C3610 C 0.42332 0.53807 0.51339 0.0
C3611 C 0.4088 0.54633 0.51442 0.0
C3612 C 0.39415 0.59058 0.50803 0.0
C3613 C 0.35364 0.60152 0.52764 0.0
C3614 C 0.3685 0.59264 0.52431 0.0
C3615 C 0.41149 0.56639 0.5147 0.0
C3616 C 0.3965 0.57523 0.51768 0.0
H3617 H 0.30901 0.58889 0.53355 0.0
H3618 H 0.33382 0.5743 0.52813 0.0
H3619 H 0.37846 0.6109 0.50359 0.0
H3620 H 0.45659 0.57906 0.51119 0.0
H3621 H 0.4312 0.59356 0.51345 0.0
C3622 C 0.85317 0.89843 0.51649 0.0
C3623 C 0.83889 0.90543 0.52253 0.0
C3624 C 0.87008 0.91095 0.51522 0.0
C3625 C 0.8994 0.95799 0.53195 0.0
H3626 H 0.9232 0.95384 0.48908 0.0
C3627 C 0.96749 0.01092 0.51935 0.0
C3628 C 0.97992 0.00288 0.51074 0.0
C3629 C 0.94982 0.99998 0.5207 0.0
C3630 C 0.91691 0.95509 0.50126 0.0
H3631 H 0.83124 0.93101 0.53235 0.0
H3632 H 0.86089 0.95282 0.53043 0.0
H3633 H 0.89379 0.93256 0.49216 0.0
H3634 H 0.98338 0.97695 0.49678 0.0
H3635 H 0.95315 0.95806 0.49944 0.0
H3636 H 0.92273 0.9802 0.54126 0.0
C3637 C 0.85898 0.93766 0.52659 0.0
C3638 C 0.89999 0.94287 0.50299 0.0
C3639 C 0.84198 0.92518 0.52761 0.0
C3640 C 0.97422 0.98375 0.50344 0.0
C3641 C 0.95672 0.97287 0.50484 0.0
C3642 C 0.91647 0.97011 0.53031 0.0
C3643 C 0.87318 0.93073 0.5202 0.0
C3644 C 0.89107 0.94407 0.51839 0.0
C3645 C 0.9442 0.98076 0.51347 0.0
C3646 C 0.92555 0.96871 0.51498 0.0
H3647 H 0.8512 0.88331 0.51246 0.0
H3648 H 0.88079 0.90513 0.5104 0.0
H3649 H 0.89291 0.95919 0.54403 0.0
H3650 H 0.97145 0.02557 0.52519 0.0
H3651 H 0.94054 0.00663 0.52731 0.0
C3652 C 0.89876 0.09322 0.23552 0.0
C3653 C 0.88815 0.07559 0.22786 0.0
C3654 C 0.89108 0.1086 0.23876 0.0
C3655 C 0.85088 0.12655 0.22947 0.0
H3656 H 0.85982 0.1468 0.27818 0.0
C3657 C 0.8037 0.16558 0.2624 0.0
C3658 C 0.81168 0.18243 0.27302 0.0
C3659 C 0.81415 0.15356 0.25643 0.0
C3660 C 0.85739 0.14151 0.26449 0.0
H3661 H 0.86164 0.06038 0.21652 0.0
H3662 H 0.84812 0.08722 0.22243 0.0
H3663 H 0.87708 0.12521 0.26673 0.0
H3664 H 0.83657 0.19946 0.2865 0.0
H3665 H 0.85492 0.17865 0.27572 0.0
H3666 H 0.83097 0.14262 0.22733 0.0
C3667 C 0.86237 0.08922 0.22577 0.0
C3668 C 0.8673 0.12923 0.25792 0.0
C3669 C 0.87006 0.07385 0.22251 0.0
C3670 C 0.83013 0.18661 0.2782 0.0
C3671 C 0.8406 0.17467 0.27211 0.0
C3672 C 0.84101 0.1389 0.23603 0.0
C3673 C 0.87272 0.1065 0.23437 0.0
C3674 C 0.86389 0.12139 0.24046 0.0
C3675 C 0.83275 0.15825 0.2609 0.0
C3676 C 0.84394 0.14616 0.25369 0.0
H3677 H 0.91283 0.09495 0.23959 0.0
H3678 H 0.89934 0.1219 0.24521 0.0
H3679 H 0.84817 0.12079 0.21591 0.0
H3680 H 0.78956 0.16214 0.25803 0.0
H3681 H 0.80773 0.14074 0.24808 0.0
C3682 C 0.72579 0.0952 0.02959 0.0
C3683 C 0.73247 0.11025 0.04259 0.0
C3684 C 0.70734 0.08821 0.02603 0.0
C3685 C 0.66374 0.0858 0.04301 0.0
H3686 H 0.64746 0.0863 -0.00594 0.0
C3687 C 0.58969 0.07173 0.02351 0.0
C3688 C 0.58337 0.05761 0.00967 0.0
C3689 C 0.60789 0.08044 0.0262 0.0
C3690 C 0.65186 0.08599 0.00773 0.0
H3691 H 0.72547 0.12879 0.06301 0.0
H3692 H 0.69312 0.11631 0.05691 0.0
H3693 H 0.67966 0.09477 0.00276 0.0
H3694 H 0.59038 0.04243 0.98692 0.0
H3695 H 0.62268 0.05721 0.992 0.0
H3696 H 0.63611 0.07672 0.04805 0.0
C3697 C 0.70212 0.11009 0.04942 0.0
C3698 C 0.67018 0.09074 0.01267 0.0
C3699 C 0.72056 0.11719 0.05288 0.0
C3700 C 0.59517 0.05325 -0.00227 0.0
C3701 C 0.61353 0.06175 0.0006 0.0
C3702 C 0.64546 0.08093 0.03807 0.0
C3703 C 0.69545 0.09605 0.03556 0.0
C3704 C 0.67619 0.09058 0.03033 0.0
C3705 C 0.62004 0.07484 0.01528 0.0
C3706 C 0.63938 0.08099 0.02039 0.0
H3707 H 0.73475 0.08964 0.02148 0.0
H3708 H 0.70235 0.07715 0.01545 0.0
H3709 H 0.66816 0.08554 0.05668 0.0
H3710 H 0.58061 0.07561 0.0326 0.0
H3711 H 0.61254 0.09091 0.03729 0.0
C3712 C 0.16516 0.4634 0.24898 0.0
C3713 C 0.17262 0.47878 0.23897 0.0
C3714 C 0.1744 0.44937 0.25216 0.0
C3715 C 0.22055 0.44684 0.2571 0.0
H3716 H 0.20171 0.39155 0.25717 0.0
C3717 C 0.26615 0.39611 0.26193 0.0
C3718 C 0.26236 0.38194 0.27397 0.0
C3719 C 0.25391 0.4069 0.25817 0.0
C3720 C 0.20699 0.40701 0.25739 0.0
H3721 H 0.19456 0.49081 0.22312 0.0
H3722 H 0.21064 0.46614 0.22852 0.0
H3723 H 0.18179 0.41163 0.24765 0.0
H3724 H 0.2429 0.36757 0.29138 0.0
H3725 H 0.22134 0.38686 0.28486 0.0
H3726 H 0.24568 0.44237 0.26672 0.0
C3727 C 0.19786 0.46515 0.23417 0.0
C3728 C 0.1957 0.4184 0.25189 0.0
C3729 C 0.18867 0.47919 0.23104 0.0
C3730 C 0.24615 0.37867 0.28224 0.0
C3731 C 0.2338 0.38947 0.27839 0.0
C3732 C 0.23176 0.43552 0.26256 0.0
C3733 C 0.19114 0.45064 0.24533 0.0
C3734 C 0.20257 0.43833 0.25138 0.0
C3735 C 0.2377 0.40369 0.26639 0.0
C3736 C 0.22516 0.41553 0.26241 0.0
H3737 H 0.15269 0.46274 0.25513 0.0
H3738 H 0.16901 0.43829 0.26081 0.0
H3739 H 0.22598 0.46227 0.25734 0.0
H3740 H 0.27858 0.39883 0.25542 0.0
H3741 H 0.25704 0.41768 0.2487 0.0
C3742 C 0.24659 0.41182 0.03196 0.0
C3743 C 0.24499 0.39457 0.02166 0.0
C3744 C 0.23263 0.42117 0.0317 0.0
C3745 C 0.18375 0.41406 0.01813 0.0
H3746 H 0.19622 0.46982 0.02443 0.0
C3747 C 0.13154 0.46015 0.00944 0.0
C3748 C 0.13292 0.4756 0.02206 0.0
C3749 C 0.1448 0.44978 0.00913 0.0
C3750 C 0.19249 0.45424 0.02279 0.0
H3751 H 0.22742 0.37359 0.00292 0.0
H3752 H 0.2032 0.39023 0.00192 0.0
H3753 H 0.21995 0.45284 0.02382 0.0
H3754 H 0.14949 0.49222 0.04424 0.0
H3755 H 0.17246 0.47407 0.04379 0.0
H3756 H 0.15621 0.41569 0.01669 0.0
C3757 C 0.21509 0.39635 0.0106 0.0
C3758 C 0.20613 0.44443 0.02251 0.0
C3759 C 0.22902 0.38683 0.01108 0.0
C3760 C 0.14785 0.4803 0.03445 0.0
C3761 C 0.16115 0.47002 0.03407 0.0
C3762 C 0.17009 0.42393 0.0182 0.0
C3763 C 0.2167 0.41373 0.02088 0.0
C3764 C 0.20201 0.42416 0.0204 0.0
C3765 C 0.15985 0.4547 0.02135 0.0
C3766 C 0.1743 0.44413 0.02073 0.0
H3767 H 0.25866 0.41809 0.04039 0.0
H3768 H 0.23432 0.43418 0.04018 0.0
H3769 H 0.17993 0.39849 0.01669 0.0
H3770 H 0.12017 0.45602 -0.00022 0.0
H3771 H 0.14344 0.43815 -0.00092 0.0
C3772 C 0.85733 0.97293 0.23548 0.0
C3773 C 0.87207 0.97564 0.22508 0.0
C3774 C 0.8477 0.95437 0.23829 0.0
C3775 C 0.85633 0.90806 0.24254 0.0
H3776 H 0.80456 0.88785 0.23944 0.0
C3777 C 0.82394 0.82912 0.25119 0.0
C3778 C 0.80849 0.82486 0.26061 0.0
C3779 C 0.83102 0.84779 0.24672 0.0
C3780 C 0.81902 0.89344 0.24059 0.0
H3781 H 0.88762 0.96139 0.20843 0.0
H3782 H 0.87087 0.92897 0.21353 0.0
H3783 H 0.81736 0.92025 0.23052 0.0
H3784 H 0.78846 0.83676 0.27303 0.0
H3785 H 0.80113 0.86958 0.26547 0.0
H3786 H 0.85815 0.88164 0.25297 0.0
C3787 C 0.86685 0.94116 0.21954 0.0
C3788 C 0.82629 0.91184 0.2354 0.0
C3789 C 0.87635 0.95966 0.2166 0.0
C3790 C 0.80034 0.83963 0.26567 0.0
C3791 C 0.80752 0.85837 0.26128 0.0
C3792 C 0.8491 0.88981 0.24789 0.0
C3793 C 0.85287 0.93844 0.23083 0.0
C3794 C 0.84497 0.91912 0.23617 0.0
C3795 C 0.82287 0.86256 0.25171 0.0
C3796 C 0.8304 0.88226 0.24679 0.0
H3797 H 0.85376 0.98509 0.24208 0.0
H3798 H 0.83693 0.95248 0.24708 0.0
H3799 H 0.87081 0.91365 0.24359 0.0
H3800 H 0.83048 0.81801 0.24704 0.0
H3801 H 0.84272 0.85058 0.2391 0.0
C3802 C 0.69289 0.09287 0.72841 0.0
C3803 C 0.69377 0.07954 0.74097 0.0
C3804 C 0.70304 0.11187 0.73137 0.0
C3805 C 0.71733 0.1483 0.76486 0.0
H3806 H 0.75834 0.17222 0.73966 0.0
C3807 C 0.76004 0.22363 0.78765 0.0
C3808 C 0.76726 0.23571 0.77478 0.0
C3809 C 0.75218 0.2042 0.78313 0.0
C3810 C 0.74673 0.16591 0.74664 0.0
H3811 H 0.7062 0.0753 0.76614 0.0
H3812 H 0.72364 0.10868 0.7714 0.0
H3813 H 0.74205 0.13893 0.73132 0.0
H3814 H 0.77195 0.23753 0.74721 0.0
H3815 H 0.75726 0.20391 0.739 0.0
H3816 H 0.7212 0.17519 0.77969 0.0
C3817 C 0.71525 0.10429 0.75927 0.0
C3818 C 0.73755 0.14686 0.7419 0.0
C3819 C 0.70537 0.08527 0.75621 0.0
C3820 C 0.76671 0.22824 0.75737 0.0
C3821 C 0.75834 0.20897 0.75272 0.0
C3822 C 0.72621 0.16745 0.76935 0.0
C3823 C 0.71391 0.11769 0.747 0.0
C3824 C 0.72299 0.13797 0.75116 0.0
C3825 C 0.75084 0.19673 0.76552 0.0
C3826 C 0.7412 0.17643 0.76047 0.0
H3827 H 0.68398 0.08877 0.7166 0.0
H3828 H 0.70187 0.12217 0.72184 0.0
H3829 H 0.70597 0.14156 0.77201 0.0
H3830 H 0.7604 0.22925 0.80116 0.0
H3831 H 0.74701 0.19512 0.79343 0.0
loop_
_geom_bond_atom_site_label_1
_geom_bond_atom_site_label_2
_geom_bond_distance
_geom_bond_site_symmetry_2
_ccdc_geom_bond_type
In0 O1 2.294 . S
In0 O2 2.326 . S
In0 O6 2.266 . S
In0 O7 2.356 . S
In0 O8 2.266 . S
In0 O9 2.326 . S
In0 O11 2.294 . S
In0 O12 2.326 . S
O1 In0 2.294 . S
O1 C10 1.240 . S
O2 In0 2.326 . S
O2 C10 1.252 . S
C3 O6 1.252 1_655 S
C3 O7 1.257 1_655 S
C4 O11 1.240 . S
C4 O12 1.252 . S
C5 O8 1.252 . S
C5 O9 1.260 . S
O6 In0 2.266 . S
O6 C3 1.252 1_455 S
O7 In0 2.356 . S
O7 C3 1.257 1_455 S
O8 In0 2.266 . S
O8 C5 1.252 . S
O9 In0 2.326 . S
O9 C5 1.260 . S
C10 O1 1.240 . S
C10 O2 1.252 . S
O11 In0 2.294 . S
O11 C4 1.240 . S
O12 In0 2.326 . S
O12 C4 1.252 . S
In13 O14 2.294 . S
In13 O15 2.326 . S
In13 O19 2.266 . S
In13 O20 2.326 . S
In13 O21 2.266 . S
In13 O22 2.326 . S
In13 O24 2.294 . S
In13 O25 2.326 . S
O14 In13 2.294 . S
O14 C23 1.240 . S
O15 In13 2.326 . S
O15 C23 1.252 . S
C16 O19 1.252 . S
C16 O20 1.260 . S
C17 O24 1.240 . S
C17 O25 1.252 . S
C18 O21 1.252 . S
C18 O22 1.260 . S
O19 In13 2.266 . S
O19 C16 1.252 . S
O20 In13 2.326 . S
O20 C16 1.260 . S
O21 In13 2.266 . S
O21 C18 1.252 . S
O22 In13 2.326 . S
O22 C18 1.260 . S
C23 O14 1.240 . S
C23 O15 1.252 . S
O24 In13 2.294 . S
O24 C17 1.240 . S
O25 In13 2.326 . S
O25 C17 1.252 . S
In26 O27 2.294 . S
In26 O28 2.326 . S
In26 O32 2.266 . S
In26 O33 2.326 . S
In26 O34 2.266 . S
In26 O35 2.326 . S
In26 O37 2.294 . S
In26 O38 2.326 . S
O27 In26 2.294 . S
O27 C36 1.240 . S
O28 In26 2.326 . S
O28 C36 1.252 . S
C29 O32 1.252 . S
C29 O33 1.260 . S
C30 O37 1.240 . S
C30 O38 1.252 . S
C31 O34 1.252 . S
C31 O35 1.260 . S
O32 In26 2.266 . S
O32 C29 1.252 . S
O33 In26 2.326 . S
O33 C29 1.260 . S
O34 In26 2.266 . S
O34 C31 1.252 . S
O35 In26 2.326 . S
O35 C31 1.260 . S
C36 O27 1.240 . S
C36 O28 1.252 . S
O37 In26 2.294 . S
O37 C30 1.240 . S
O38 In26 2.326 . S
O38 C30 1.252 . S
In39 O40 2.294 . S
In39 O41 2.326 . S
In39 O45 2.266 . S
In39 O46 2.326 . S
In39 O47 2.266 . S
In39 O48 2.326 . S
In39 O50 2.294 . S
In39 O51 2.326 . S
O40 In39 2.294 . S
O40 C49 1.240 . S
O41 In39 2.326 . S
O41 C49 1.252 . S
C42 O45 1.252 . S
C42 O46 1.260 . S
C43 O50 1.240 . S
C43 O51 1.252 . S
C44 O47 1.252 . S
C44 O48 1.260 . S
O45 In39 2.266 . S
O45 C42 1.252 . S
O46 In39 2.326 . S
O46 C42 1.260 . S
O47 In39 2.266 . S
O47 C44 1.252 . S
O48 In39 2.326 . S
O48 C44 1.260 . S
C49 O40 1.240 . S
C49 O41 1.252 . S
O50 In39 2.294 . S
O50 C43 1.240 . S
O51 In39 2.326 . S
O51 C43 1.252 . S
In52 O53 2.294 . S
In52 O54 2.326 . S
In52 O58 2.266 . S
In52 O59 2.326 . S
In52 O60 2.266 . S
In52 O61 2.326 . S
In52 O63 2.294 . S
In52 O64 2.326 . S
O53 In52 2.294 . S
O53 C62 1.240 . S
O54 In52 2.326 . S
O54 C62 1.252 . S
C55 O58 1.252 . S
C55 O59 1.260 . S
C56 O63 1.240 . S
C56 O64 1.252 . S
C57 O60 1.252 . S
C57 O61 1.260 . S
O58 In52 2.266 . S
O58 C55 1.252 . S
O59 In52 2.326 . S
O59 C55 1.260 . S
O60 In52 2.266 . S
O60 C57 1.252 . S
O61 In52 2.326 . S
O61 C57 1.260 . S
C62 O53 1.240 . S
C62 O54 1.252 . S
O63 In52 2.294 . S
O63 C56 1.240 . S
O64 In52 2.326 . S
O64 C56 1.252 . S
In65 O66 2.294 . S
In65 O67 2.326 . S
In65 O71 2.266 . S
In65 O72 2.326 . S
In65 O73 2.266 . S
In65 O74 2.326 . S
In65 O76 2.294 . S
In65 O77 2.326 . S
O66 In65 2.294 . S
O66 C75 1.240 . S
O67 In65 2.326 . S
O67 C75 1.252 . S
C68 O71 1.252 . S
C68 O72 1.260 . S
C69 O76 1.240 . S
C69 O77 1.252 . S
C70 O73 1.252 . S
C70 O74 1.260 . S
O71 In65 2.266 . S
O71 C68 1.252 . S
O72 In65 2.326 . S
O72 C68 1.260 . S
O73 In65 2.266 . S
O73 C70 1.252 . S
O74 In65 2.326 . S
O74 C70 1.260 . S
C75 O66 1.240 . S
C75 O67 1.252 . S
O76 In65 2.294 . S
O76 C69 1.240 . S
O77 In65 2.326 . S
O77 C69 1.252 . S
In78 O79 2.294 . S
In78 O80 2.326 . S
In78 O84 2.266 . S
In78 O85 2.326 . S
In78 O86 2.266 . S
In78 O87 2.326 . S
In78 O89 2.294 . S
In78 O90 2.326 . S
O79 In78 2.294 . S
O79 C88 1.240 . S
O80 In78 2.326 . S
O80 C88 1.252 . S
C81 O84 1.252 . S
C81 O85 1.260 . S
C82 O89 1.240 . S
C82 O90 1.252 . S
C83 O86 1.252 . S
C83 O87 1.260 . S
O84 In78 2.266 . S
O84 C81 1.252 . S
O85 In78 2.326 . S
O85 C81 1.260 . S
O86 In78 2.266 . S
O86 C83 1.252 . S
O87 In78 2.326 . S
O87 C83 1.260 . S
C88 O79 1.240 . S
C88 O80 1.252 . S
O89 In78 2.294 . S
O89 C82 1.240 . S
O90 In78 2.326 . S
O90 C82 1.252 . S
In91 O92 2.295 . S
In91 O93 2.327 1_455 S
In91 O97 2.267 . S
In91 O98 2.325 . S
In91 O99 2.264 1_455 S
In91 O100 2.323 1_455 S
In91 O102 2.296 . S
In91 O103 2.329 . S
O92 In91 2.295 . S
O92 C101 1.239 . S
O93 In91 2.327 1_655 S
O93 C101 1.252 1_655 S
C94 O97 1.252 . S
C94 O98 1.260 . S
C95 O102 1.240 . S
C95 O103 1.252 . S
C96 O99 1.252 . S
C96 O100 1.260 . S
O97 In91 2.267 . S
O97 C94 1.252 . S
O98 In91 2.325 . S
O98 C94 1.260 . S
O99 In91 2.264 1_655 S
O99 C96 1.252 . S
O100 In91 2.323 1_655 S
O100 C96 1.260 . S
C101 O92 1.239 . S
C101 O93 1.252 1_455 S
O102 In91 2.296 . S
O102 C95 1.240 . S
O103 In91 2.329 . S
O103 C95 1.252 . S
In104 O105 2.294 . S
In104 O106 2.326 . S
In104 O110 2.266 . S
In104 O111 2.326 . S
In104 O112 2.266 . S
In104 O113 2.275 1_545 S
In104 O115 2.294 . S
In104 O116 2.326 . S
O105 In104 2.294 . S
O105 C114 1.240 . S
O106 In104 2.326 . S
O106 C114 1.252 . S
C107 O110 1.252 . S
C107 O111 1.260 . S
C108 O115 1.240 . S
C108 O116 1.252 . S
C109 O112 1.252 1_565 S
C109 O113 1.262 . S
O110 In104 2.266 . S
O110 C107 1.252 . S
O111 In104 2.326 . S
O111 C107 1.260 . S
O112 In104 2.266 . S
O112 C109 1.252 1_545 S
O113 In104 2.275 1_565 S
O113 C109 1.262 . S
C114 O105 1.240 . S
C114 O106 1.252 . S
O115 In104 2.294 . S
O115 C108 1.240 . S
O116 In104 2.326 . S
O116 C108 1.252 . S
In117 O118 2.294 . S
In117 O119 2.326 . S
In117 O123 2.266 . S
In117 O124 2.326 . S
In117 O125 2.266 . S
In117 O126 2.326 . S
In117 O128 2.294 . S
In117 O129 2.326 . S
O118 In117 2.294 . S
O118 C127 1.240 . S
O119 In117 2.326 . S
O119 C127 1.252 . S
C120 O123 1.252 . S
C120 O124 1.260 . S
C121 O128 1.240 . S
C121 O129 1.252 . S
C122 O125 1.252 . S
C122 O126 1.260 . S
O123 In117 2.266 . S
O123 C120 1.252 . S
O124 In117 2.326 . S
O124 C120 1.260 . S
O125 In117 2.266 . S
O125 C122 1.252 . S
O126 In117 2.326 . S
O126 C122 1.260 . S
C127 O118 1.240 . S
C127 O119 1.252 . S
O128 In117 2.294 . S
O128 C121 1.240 . S
O129 In117 2.326 . S
O129 C121 1.252 . S
In130 O131 2.294 . S
In130 O132 2.326 . S
In130 O136 2.266 . S
In130 O137 2.326 . S
In130 O138 2.266 . S
In130 O139 2.326 . S
In130 O141 2.294 . S
In130 O142 2.326 . S
O131 In130 2.294 . S
O131 C140 1.240 . S
O132 In130 2.326 . S
O132 C140 1.252 . S
C133 O136 1.252 . S
C133 O137 1.260 . S
C134 O141 1.240 . S
C134 O142 1.252 . S
C135 O138 1.252 . S
C135 O139 1.260 . S
O136 In130 2.266 . S
O136 C133 1.252 . S
O137 In130 2.326 . S
O137 C133 1.260 . S
O138 In130 2.266 . S
O138 C135 1.252 . S
O139 In130 2.326 . S
O139 C135 1.260 . S
C140 O131 1.240 . S
C140 O132 1.252 . S
O141 In130 2.294 . S
O141 C134 1.240 . S
O142 In130 2.326 . S
O142 C134 1.252 . S
In143 O144 2.296 . S
In143 O145 2.329 . S
In143 O149 2.264 1_554 S
In143 O150 2.322 1_554 S
In143 O151 2.266 1_554 S
In143 O152 2.325 1_554 S
In143 O154 2.294 . S
In143 O155 2.327 . S
O144 In143 2.296 . S
O144 C153 1.240 . S
O145 In143 2.329 . S
O145 C153 1.252 . S
C146 O149 1.252 . S
C146 O150 1.260 . S
C147 O154 1.240 . S
C147 O155 1.252 . S
C148 O151 1.252 . S
C148 O152 1.260 . S
O149 In143 2.264 1_556 S
O149 C146 1.252 . S
O150 In143 2.322 1_556 S
O150 C146 1.260 . S
O151 In143 2.266 1_556 S
O151 C148 1.252 . S
O152 In143 2.325 1_556 S
O152 C148 1.260 . S
C153 O144 1.240 . S
C153 O145 1.252 . S
O154 In143 2.294 . S
O154 C147 1.240 . S
O155 In143 2.327 . S
O155 C147 1.252 . S
In156 O157 2.294 . S
In156 O158 2.326 . S
In156 O162 2.266 . S
In156 O163 2.326 1_554 S
In156 O164 2.266 . S
In156 O165 2.326 . S
In156 O167 2.294 . S
In156 O168 2.326 . S
O157 In156 2.294 . S
O157 C166 1.240 . S
O158 In156 2.326 . S
O158 C166 1.252 . S
C159 O162 1.252 1_556 S
C159 O163 1.260 . S
C160 O167 1.240 . S
C160 O168 1.252 . S
C161 O164 1.252 . S
C161 O165 1.260 . S
O162 In156 2.266 . S
O162 C159 1.252 1_554 S
O163 In156 2.326 1_556 S
O163 C159 1.260 . S
O164 In156 2.266 . S
O164 C161 1.252 . S
O165 In156 2.326 . S
O165 C161 1.260 . S
C166 O157 1.240 . S
C166 O158 1.252 . S
O167 In156 2.294 . S
O167 C160 1.240 . S
O168 In156 2.326 . S
O168 C160 1.252 . S
In169 O170 2.294 . S
In169 O171 2.326 . S
In169 O175 2.266 . S
In169 O176 2.326 . S
In169 O177 2.266 . S
In169 O178 2.326 . S
In169 O180 2.294 . S
In169 O181 2.326 . S
O170 In169 2.294 . S
O170 C179 1.240 . S
O171 In169 2.326 . S
O171 C179 1.252 . S
C172 O175 1.252 . S
C172 O176 1.260 . S
C173 O180 1.240 . S
C173 O181 1.252 . S
C174 O177 1.252 . S
C174 O178 1.260 . S
O175 In169 2.266 . S
O175 C172 1.252 . S
O176 In169 2.326 . S
O176 C172 1.260 . S
O177 In169 2.266 . S
O177 C174 1.252 . S
O178 In169 2.326 . S
O178 C174 1.260 . S
C179 O170 1.240 . S
C179 O171 1.252 . S
O180 In169 2.294 . S
O180 C173 1.240 . S
O181 In169 2.326 . S
O181 C173 1.252 . S
In182 O183 2.294 . S
In182 O184 2.326 . S
In182 O188 2.266 . S
In182 O189 2.326 . S
In182 O190 2.266 . S
In182 O191 2.326 . S
In182 O193 2.294 . S
In182 O194 2.326 . S
O183 In182 2.294 . S
O183 C192 1.240 . S
O184 In182 2.326 . S
O184 C192 1.252 . S
C185 O188 1.252 . S
C185 O189 1.260 . S
C186 O193 1.240 . S
C186 O194 1.252 . S
C187 O190 1.252 . S
C187 O191 1.260 . S
O188 In182 2.266 . S
O188 C185 1.252 . S
O189 In182 2.326 . S
O189 C185 1.260 . S
O190 In182 2.266 . S
O190 C187 1.252 . S
O191 In182 2.326 . S
O191 C187 1.260 . S
C192 O183 1.240 . S
C192 O184 1.252 . S
O193 In182 2.294 . S
O193 C186 1.240 . S
O194 In182 2.326 . S
O194 C186 1.252 . S
In195 O196 2.294 . S
In195 O197 2.326 . S
In195 O201 2.266 . S
In195 O202 2.326 . S
In195 O203 2.266 . S
In195 O204 2.326 . S
In195 O206 2.294 . S
In195 O207 2.326 . S
O196 In195 2.294 . S
O196 C205 1.240 . S
O197 In195 2.326 . S
O197 C205 1.252 . S
C198 O201 1.252 . S
C198 O202 1.260 . S
C199 O206 1.240 . S
C199 O207 1.252 . S
C200 O203 1.252 . S
C200 O204 1.260 . S
O201 In195 2.266 . S
O201 C198 1.252 . S
O202 In195 2.326 . S
O202 C198 1.260 . S
O203 In195 2.266 . S
O203 C200 1.252 . S
O204 In195 2.326 . S
O204 C200 1.260 . S
C205 O196 1.240 . S
C205 O197 1.252 . S
O206 In195 2.294 . S
O206 C199 1.240 . S
O207 In195 2.326 . S
O207 C199 1.252 . S
In208 O209 2.294 . S
In208 O210 2.326 . S
In208 O214 2.266 . S
In208 O215 2.326 . S
In208 O216 2.266 1_545 S
In208 O217 2.326 1_545 S
In208 O219 2.294 . S
In208 O220 2.326 . S
O209 In208 2.294 . S
O209 C218 1.240 . S
O210 In208 2.326 . S
O210 C218 1.252 . S
C211 O214 1.252 . S
C211 O215 1.260 . S
C212 O219 1.240 . S
C212 O220 1.252 . S
C213 O216 1.252 . S
C213 O217 1.260 . S
O214 In208 2.266 . S
O214 C211 1.252 . S
O215 In208 2.326 . S
O215 C211 1.260 . S
O216 In208 2.266 1_565 S
O216 C213 1.252 . S
O217 In208 2.326 1_565 S
O217 C213 1.260 . S
C218 O209 1.240 . S
C218 O210 1.252 . S
O219 In208 2.294 . S
O219 C212 1.240 . S
O220 In208 2.326 . S
O220 C212 1.252 . S
In221 O222 2.294 . S
In221 O223 2.326 . S
In221 O227 2.266 . S
In221 O228 2.326 . S
In221 O229 2.266 . S
In221 O230 2.326 . S
In221 O232 2.294 . S
In221 O233 2.326 . S
O222 In221 2.294 . S
O222 C231 1.240 . S
O223 In221 2.326 . S
O223 C231 1.252 . S
C224 O227 1.252 . S
C224 O228 1.260 . S
C225 O232 1.240 . S
C225 O233 1.252 . S
C226 O229 1.252 . S
C226 O230 1.260 . S
O227 In221 2.266 . S
O227 C224 1.252 . S
O228 In221 2.326 . S
O228 C224 1.260 . S
O229 In221 2.266 . S
O229 C226 1.252 . S
O230 In221 2.326 . S
O230 C226 1.260 . S
C231 O222 1.240 . S
C231 O223 1.252 . S
O232 In221 2.294 . S
O232 C225 1.240 . S
O233 In221 2.326 . S
O233 C225 1.252 . S
In234 O235 2.294 . S
In234 O236 2.326 . S
In234 O240 2.266 . S
In234 O241 2.326 . S
In234 O242 2.266 . S
In234 O243 2.326 . S
In234 O245 2.294 . S
In234 O246 2.326 . S
O235 In234 2.294 . S
O235 C244 1.240 . S
O236 In234 2.326 . S
O236 C244 1.252 . S
C237 O240 1.252 . S
C237 O241 1.260 . S
C238 O245 1.240 . S
C238 O246 1.252 . S
C239 O242 1.252 . S
C239 O243 1.260 . S
O240 In234 2.266 . S
O240 C237 1.252 . S
O241 In234 2.326 . S
O241 C237 1.260 . S
O242 In234 2.266 . S
O242 C239 1.252 . S
O243 In234 2.326 . S
O243 C239 1.260 . S
C244 O235 1.240 . S
C244 O236 1.252 . S
O245 In234 2.294 . S
O245 C238 1.240 . S
O246 In234 2.326 . S
O246 C238 1.252 . S
In247 O248 2.294 . S
In247 O249 2.326 1_545 S
In247 O253 2.266 . S
In247 O254 2.326 . S
In247 O255 2.266 . S
In247 O256 2.326 . S
In247 O258 2.294 . S
In247 O259 2.326 . S
O248 In247 2.294 . S
O248 C257 1.203 1_545 S
O249 In247 2.326 1_565 S
O249 C257 1.243 . S
C250 O253 1.252 . S
C250 O254 1.260 . S
C251 O258 1.240 . S
C251 O259 1.252 . S
C252 O255 1.252 . S
C252 O256 1.260 . S
O253 In247 2.266 . S
O253 C250 1.252 . S
O254 In247 2.326 . S
O254 C250 1.260 . S
O255 In247 2.266 . S
O255 C252 1.252 . S
O256 In247 2.326 . S
O256 C252 1.260 . S
C257 O248 1.203 1_565 S
C257 O249 1.243 . S
O258 In247 2.294 . S
O258 C251 1.240 . S
O259 In247 2.326 . S
O259 C251 1.252 . S
In260 O261 2.294 . S
In260 O262 2.326 . S
In260 O266 2.266 . S
In260 O267 2.326 . S
In260 O268 2.266 . S
In260 O269 2.326 1_554 S
In260 O271 2.294 . S
In260 O272 2.326 . S
O261 In260 2.294 . S
O261 C270 1.240 . S
O262 In260 2.326 . S
O262 C270 1.252 . S
C263 O266 1.252 . S
C263 O267 1.260 . S
C264 O271 1.240 . S
C264 O272 1.252 . S
C265 O268 1.252 1_556 S
C265 O269 1.260 . S
O266 In260 2.266 . S
O266 C263 1.252 . S
O267 In260 2.326 . S
O267 C263 1.260 . S
O268 In260 2.266 . S
O268 C265 1.252 1_554 S
O269 In260 2.326 1_556 S
O269 C265 1.260 . S
C270 O261 1.240 . S
C270 O262 1.252 . S
O271 In260 2.294 . S
O271 C264 1.240 . S
O272 In260 2.326 . S
O272 C264 1.252 . S
In273 O274 2.294 . S
In273 O275 2.326 . S
In273 O279 2.266 . S
In273 O280 2.326 . S
In273 O281 2.266 . S
In273 O282 2.326 . S
In273 O284 2.294 . S
In273 O285 2.326 . S
O274 In273 2.294 . S
O274 C283 1.240 . S
O275 In273 2.326 . S
O275 C283 1.252 . S
C276 O279 1.252 . S
C276 O280 1.260 . S
C277 O284 1.240 . S
C277 O285 1.252 . S
C278 O281 1.252 . S
C278 O282 1.260 . S
O279 In273 2.266 . S
O279 C276 1.252 . S
O280 In273 2.326 . S
O280 C276 1.260 . S
O281 In273 2.266 . S
O281 C278 1.252 . S
O282 In273 2.326 . S
O282 C278 1.260 . S
C283 O274 1.240 . S
C283 O275 1.252 . S
O284 In273 2.294 . S
O284 C277 1.240 . S
O285 In273 2.326 . S
O285 C277 1.252 . S
In286 O287 2.294 . S
In286 O288 2.326 . S
In286 O292 2.266 . S
In286 O293 2.326 . S
In286 O294 2.266 . S
In286 O295 2.326 . S
In286 O297 2.294 . S
In286 O298 2.326 . S
O287 In286 2.294 . S
O287 C296 1.240 . S
O288 In286 2.326 . S
O288 C296 1.252 . S
C289 O292 1.252 . S
C289 O293 1.260 . S
C290 O297 1.240 . S
C290 O298 1.252 . S
C291 O294 1.252 . S
C291 O295 1.260 . S
O292 In286 2.266 . S
O292 C289 1.252 . S
O293 In286 2.326 . S
O293 C289 1.260 . S
O294 In286 2.266 . S
O294 C291 1.252 . S
O295 In286 2.326 . S
O295 C291 1.260 . S
C296 O287 1.240 . S
C296 O288 1.252 . S
O297 In286 2.294 . S
O297 C290 1.240 . S
O298 In286 2.326 . S
O298 C290 1.252 . S
In299 O300 2.294 . S
In299 O301 2.326 . S
In299 O305 2.266 . S
In299 O306 2.326 . S
In299 O307 2.266 . S
In299 O308 2.326 . S
In299 O310 2.294 . S
In299 O311 2.326 . S
O300 In299 2.294 . S
O300 C309 1.240 . S
O301 In299 2.326 . S
O301 C309 1.252 . S
C302 O305 1.252 . S
C302 O306 1.260 . S
C303 O310 1.240 . S
C303 O311 1.252 . S
C304 O307 1.252 . S
C304 O308 1.260 . S
O305 In299 2.266 . S
O305 C302 1.252 . S
O306 In299 2.326 . S
O306 C302 1.260 . S
O307 In299 2.266 . S
O307 C304 1.252 . S
O308 In299 2.326 . S
O308 C304 1.260 . S
C309 O300 1.240 . S
C309 O301 1.252 . S
O310 In299 2.294 . S
O310 C303 1.240 . S
O311 In299 2.326 . S
O311 C303 1.252 . S
Tb312 C321 2.764 . S
Tb312 O322 2.325 . S
Tb312 O325 2.303 . S
Tb312 O329 2.322 . S
Tb312 O330 2.349 . S
Tb312 O333 2.415 . S
Tb312 O334 2.399 . S
Tb313 O323 2.322 . S
Tb313 O324 2.349 . S
Tb313 O326 2.365 1_455 S
Tb313 O327 2.363 1_455 S
Tb313 O328 2.325 . S
Tb313 O331 2.303 . S
Tb313 C342 2.764 1_455 S
C314 O330 1.261 . S
C314 O331 1.257 . S
C315 C318 1.358 . S
C315 C319 1.332 . S
C315 C321 1.504 . S
C316 C317 1.373 . S
C316 C320 1.308 . S
C317 C316 1.373 . S
C317 C318 1.429 . S
C317 H344 0.932 . S
C318 C315 1.358 . S
C318 C317 1.429 . S
C318 H345 0.930 . S
C319 C315 1.332 . S
C319 C320 1.394 . S
C319 H346 0.932 . S
C320 C316 1.308 . S
C320 C319 1.394 . S
C320 H347 0.929 . S
C321 Tb312 2.764 . S
C321 C315 1.504 . S
C321 O333 1.239 . S
C321 O334 1.263 . S
O322 Tb312 2.325 . S
O322 C332 1.236 . S
O323 Tb313 2.322 . S
O323 C332 1.257 . S
O324 Tb313 2.349 . S
O324 C335 1.261 . S
O325 Tb312 2.303 . S
O325 C335 1.257 . S
O326 Tb313 2.365 1_655 S
O326 C342 1.259 . S
O327 Tb313 2.363 1_655 S
O327 C342 1.290 . S
O328 Tb313 2.325 . S
O328 C343 1.236 . S
O329 Tb312 2.322 . S
O329 C343 1.257 . S
O330 Tb312 2.349 . S
O330 C314 1.261 . S
O331 Tb313 2.303 . S
O331 C314 1.257 . S
C332 O322 1.236 . S
C332 O323 1.257 . S
O333 Tb312 2.415 . S
O333 C321 1.239 . S
O334 Tb312 2.399 . S
O334 C321 1.263 . S
C335 O324 1.261 . S
C335 O325 1.257 . S
C336 C339 1.358 . S
C336 C340 1.332 . S
C336 C342 1.504 . S
C337 C338 1.373 . S
C337 C341 1.308 . S
C338 C337 1.373 . S
C338 C339 1.429 . S
C338 H348 0.932 1_554 S
C339 C336 1.358 . S
C339 C338 1.429 . S
C339 H349 0.930 1_554 S
C340 C336 1.332 . S
C340 C341 1.394 . S
C340 H350 0.932 . S
C341 C337 1.308 . S
C341 C340 1.394 . S
C341 H351 0.929 . S
C342 Tb313 2.764 1_655 S
C342 O326 1.259 . S
C342 O327 1.290 . S
C342 C336 1.504 . S
C343 O328 1.236 . S
C343 O329 1.257 . S
H344 C317 0.932 . S
H345 C318 0.930 . S
H346 C319 0.932 . S
H347 C320 0.929 . S
H348 C338 0.932 1_556 S
H349 C339 0.930 1_556 S
H350 C340 0.932 . S
H351 C341 0.929 . S
Tb352 C361 2.764 . S
Tb352 O362 2.325 . S
Tb352 O365 2.303 . S
Tb352 O369 2.322 . S
Tb352 O370 2.349 . S
Tb352 O373 2.415 . S
Tb352 O374 2.399 . S
Tb353 O363 2.322 . S
Tb353 O364 2.349 . S
Tb353 O366 2.415 . S
Tb353 O367 2.399 . S
Tb353 O368 2.325 . S
Tb353 O371 2.303 . S
Tb353 C382 2.764 . S
C354 O370 1.261 . S
C354 O371 1.257 . S
C355 C358 1.358 . S
C355 C359 1.332 . S
C355 C361 1.504 . S
C356 C357 1.373 . S
C356 C360 1.308 . S
C357 C356 1.373 . S
C357 C358 1.429 . S
C357 H384 0.932 . S
C358 C355 1.358 . S
C358 C357 1.429 . S
C358 H385 0.930 . S
C359 C355 1.332 . S
C359 C360 1.394 . S
C359 H386 0.932 . S
C360 C356 1.308 . S
C360 C359 1.394 . S
C360 H387 0.929 . S
C361 Tb352 2.764 . S
C361 C355 1.504 . S
C361 O373 1.239 . S
C361 O374 1.263 . S
O362 Tb352 2.325 . S
O362 C372 1.236 . S
O363 Tb353 2.322 . S
O363 C372 1.257 . S
O364 Tb353 2.349 . S
O364 C375 1.261 . S
O365 Tb352 2.303 . S
O365 C375 1.257 . S
O366 Tb353 2.415 . S
O366 C382 1.239 . S
O367 Tb353 2.399 . S
O367 C382 1.263 . S
O368 Tb353 2.325 . S
O368 C383 1.236 . S
O369 Tb352 2.322 . S
O369 C383 1.257 . S
O370 Tb352 2.349 . S
O370 C354 1.261 . S
O371 Tb353 2.303 . S
O371 C354 1.257 . S
C372 O362 1.236 . S
C372 O363 1.257 . S
O373 Tb352 2.415 . S
O373 C361 1.239 . S
O374 Tb352 2.399 . S
O374 C361 1.263 . S
C375 O364 1.261 . S
C375 O365 1.257 . S
C376 C379 1.358 . S
C376 C380 1.332 . S
C376 C382 1.504 . S
C377 C378 1.373 . S
C377 C381 1.308 . S
C378 C377 1.373 . S
C378 C379 1.429 . S
C378 H388 0.932 . S
C379 C376 1.358 . S
C379 C378 1.429 . S
C379 H389 0.930 . S
C380 C376 1.332 . S
C380 C381 1.394 . S
C380 H390 0.932 . S
C381 C377 1.308 . S
C381 C380 1.394 . S
C381 H391 0.929 . S
C382 Tb353 2.764 . S
C382 O366 1.239 . S
C382 O367 1.263 . S
C382 C376 1.504 . S
C383 O368 1.236 . S
C383 O369 1.257 . S
H384 C357 0.932 . S
H385 C358 0.930 . S
H386 C359 0.932 . S
H387 C360 0.929 . S
H388 C378 0.932 . S
H389 C379 0.930 . S
H390 C380 0.932 . S
H391 C381 0.929 . S
Tb392 C401 2.764 . S
Tb392 O402 2.325 . S
Tb392 O405 2.303 . S
Tb392 O409 2.322 1_545 S
Tb392 O410 2.349 . S
Tb392 O413 2.415 . S
Tb392 O414 2.399 . S
Tb393 O403 2.322 . S
Tb393 O404 2.349 . S
Tb393 O406 2.415 . S
Tb393 O407 2.399 . S
Tb393 O408 2.325 1_545 S
Tb393 O411 2.303 . S
Tb393 C422 2.764 . S
C394 O410 1.261 . S
C394 O411 1.257 . S
C395 C398 1.358 . S
C395 C399 1.332 . S
C395 C401 1.504 . S
C396 C397 1.373 . S
C396 C400 1.308 . S
C397 C396 1.373 . S
C397 C398 1.429 . S
C397 H424 0.932 . S
C398 C395 1.358 . S
C398 C397 1.429 . S
C398 H425 0.930 . S
C399 C395 1.332 . S
C399 C400 1.394 . S
C399 H426 0.932 . S
C400 C396 1.308 . S
C400 C399 1.394 . S
C400 H427 0.929 . S
C401 Tb392 2.764 . S
C401 C395 1.504 . S
C401 O413 1.239 . S
C401 O414 1.263 . S
O402 Tb392 2.325 . S
O402 C412 1.236 . S
O403 Tb393 2.322 . S
O403 C412 1.257 . S
O404 Tb393 2.349 . S
O404 C415 1.261 . S
O405 Tb392 2.303 . S
O405 C415 1.257 . S
O406 Tb393 2.415 . S
O406 C422 1.239 . S
O407 Tb393 2.399 . S
O407 C422 1.263 . S
O408 Tb393 2.325 1_565 S
O408 C423 1.236 . S
O409 Tb392 2.322 1_565 S
O409 C423 1.257 . S
O410 Tb392 2.349 . S
O410 C394 1.261 . S
O411 Tb393 2.303 . S
O411 C394 1.257 . S
C412 O402 1.236 . S
C412 O403 1.257 . S
O413 Tb392 2.415 . S
O413 C401 1.239 . S
O414 Tb392 2.399 . S
O414 C401 1.263 . S
C415 O404 1.261 . S
C415 O405 1.257 . S
C416 C419 1.358 . S
C416 C420 1.332 . S
C416 C422 1.504 1_565 S
C417 C418 1.373 . S
C417 C421 1.308 . S
C418 C417 1.373 . S
C418 C419 1.429 . S
C418 H428 0.932 . S
C419 C416 1.358 . S
C419 C418 1.429 . S
C419 H429 0.921 1_565 S
C420 C416 1.332 . S
C420 C421 1.394 . S
C420 H430 0.932 . S
C421 C417 1.308 . S
C421 C420 1.394 . S
C421 H431 0.929 . S
C422 Tb393 2.764 . S
C422 O406 1.239 . S
C422 O407 1.263 . S
C422 C416 1.504 1_545 S
C423 O408 1.236 . S
C423 O409 1.257 . S
H424 C397 0.932 . S
H425 C398 0.930 . S
H426 C399 0.932 . S
H427 C400 0.929 . S
H428 C418 0.932 . S
H429 C419 0.921 1_545 S
H430 C420 0.932 . S
H431 C421 0.929 . S
Tb432 C441 2.764 . S
Tb432 O442 2.325 . S
Tb432 O445 2.303 . S
Tb432 O449 2.322 . S
Tb432 O450 2.349 . S
Tb432 O453 2.415 . S
Tb432 O454 2.399 . S
Tb433 O443 2.322 . S
Tb433 O444 2.349 . S
Tb433 O446 2.415 . S
Tb433 O447 2.399 . S
Tb433 O448 2.325 . S
Tb433 O451 2.303 . S
Tb433 C462 2.764 . S
C434 O450 1.261 . S
C434 O451 1.257 . S
C435 C438 1.358 . S
C435 C439 1.332 . S
C435 C441 1.504 . S
C436 C437 1.373 . S
C436 C440 1.308 . S
C437 C436 1.373 . S
C437 C438 1.429 . S
C437 H464 0.932 . S
C438 C435 1.358 . S
C438 C437 1.429 . S
C438 H465 0.930 . S
C439 C435 1.332 . S
C439 C440 1.394 . S
C439 H466 0.932 . S
C440 C436 1.308 . S
C440 C439 1.394 . S
C440 H467 0.929 . S
C441 Tb432 2.764 . S
C441 C435 1.504 . S
C441 O453 1.239 . S
C441 O454 1.263 . S
O442 Tb432 2.325 . S
O442 C452 1.236 . S
O443 Tb433 2.322 . S
O443 C452 1.257 . S
O444 Tb433 2.349 . S
O444 C455 1.261 . S
O445 Tb432 2.303 . S
O445 C455 1.257 . S
O446 Tb433 2.415 . S
O446 C462 1.239 . S
O447 Tb433 2.399 . S
O447 C462 1.263 . S
O448 Tb433 2.325 . S
O448 C463 1.236 . S
O449 Tb432 2.322 . S
O449 C463 1.257 . S
O450 Tb432 2.349 . S
O450 C434 1.261 . S
O451 Tb433 2.303 . S
O451 C434 1.257 . S
C452 O442 1.236 . S
C452 O443 1.257 . S
O453 Tb432 2.415 . S
O453 C441 1.239 . S
O454 Tb432 2.399 . S
O454 C441 1.263 . S
C455 O444 1.261 . S
C455 O445 1.257 . S
C456 C459 1.358 . S
C456 C460 1.332 . S
C456 C462 1.504 . S
C457 C458 1.373 . S
C457 C461 1.308 . S
C458 C457 1.373 . S
C458 C459 1.429 . S
C458 H468 0.932 . S
C459 C456 1.358 . S
C459 C458 1.429 . S
C459 H469 0.930 . S
C460 C456 1.332 . S
C460 C461 1.394 . S
C460 H470 0.932 . S
C461 C457 1.308 . S
C461 C460 1.394 . S
C461 H471 0.929 . S
C462 Tb433 2.764 . S
C462 O446 1.239 . S
C462 O447 1.263 . S
C462 C456 1.504 . S
C463 O448 1.236 . S
C463 O449 1.257 . S
H464 C437 0.932 . S
H465 C438 0.930 . S
H466 C439 0.932 . S
H467 C440 0.929 . S
H468 C458 0.932 . S
H469 C459 0.930 . S
H470 C460 0.932 . S
H471 C461 0.929 . S
Tb472 C481 2.764 . S
Tb472 O482 2.325 . S
Tb472 O485 2.303 . S
Tb472 O489 2.322 . S
Tb472 O490 2.349 . S
Tb472 O493 2.415 . S
Tb472 O494 2.399 . S
Tb473 O483 2.322 1_545 S
Tb473 O484 2.349 . S
Tb473 O486 2.415 . S
Tb473 O487 2.399 . S
Tb473 O488 2.325 . S
Tb473 O491 2.303 . S
Tb473 C502 2.764 . S
C474 O490 1.261 . S
C474 O491 1.257 . S
C475 C478 1.358 . S
C475 C479 1.332 . S
C475 C481 1.504 . S
C476 C477 1.373 . S
C476 C480 1.308 . S
C477 C476 1.373 . S
C477 C478 1.429 . S
C477 H504 0.932 . S
C478 C475 1.358 . S
C478 C477 1.429 . S
C478 H505 0.930 . S
C479 C475 1.332 . S
C479 C480 1.394 . S
C479 H506 0.932 . S
C480 C476 1.308 . S
C480 C479 1.394 . S
C480 H507 0.929 . S
C481 Tb472 2.764 . S
C481 C475 1.504 . S
C481 O493 1.239 . S
C481 O494 1.263 . S
O482 Tb472 2.325 . S
O482 C492 1.236 1_545 S
O483 Tb473 2.322 1_565 S
O483 C492 1.257 . S
O484 Tb473 2.349 . S
O484 C495 1.261 . S
O485 Tb472 2.303 . S
O485 C495 1.257 . S
O486 Tb473 2.415 . S
O486 C502 1.239 . S
O487 Tb473 2.399 . S
O487 C502 1.263 . S
O488 Tb473 2.325 . S
O488 C503 1.236 . S
O489 Tb472 2.322 . S
O489 C503 1.257 . S
O490 Tb472 2.349 . S
O490 C474 1.261 . S
O491 Tb473 2.303 . S
O491 C474 1.257 . S
C492 O482 1.236 1_565 S
C492 O483 1.257 . S
O493 Tb472 2.415 . S
O493 C481 1.239 . S
O494 Tb472 2.399 . S
O494 C481 1.263 . S
C495 O484 1.261 . S
C495 O485 1.257 . S
C496 C499 1.358 . S
C496 C500 1.332 . S
C496 C502 1.504 . S
C497 C498 1.373 . S
C497 C501 1.291 1_455 S
C498 C497 1.373 . S
C498 C499 1.429 . S
C498 H508 0.932 . S
C499 C496 1.358 . S
C499 C498 1.429 . S
C499 H509 0.930 . S
C500 C496 1.332 . S
C500 C501 1.388 1_455 S
C500 H510 0.932 1_455 S
C501 C497 1.291 1_655 S
C501 C500 1.388 1_655 S
C501 H511 0.953 . S
C502 Tb473 2.764 . S
C502 O486 1.239 . S
C502 O487 1.263 . S
C502 C496 1.504 . S
C503 O488 1.236 . S
C503 O489 1.257 . S
H504 C477 0.932 . S
H505 C478 0.930 . S
H506 C479 0.932 . S
H507 C480 0.929 . S
H508 C498 0.932 . S
H509 C499 0.930 . S
H510 C500 0.932 1_655 S
H511 C501 0.953 . S
Tb512 C521 2.764 . S
Tb512 O522 2.325 . S
Tb512 O525 2.303 . S
Tb512 O529 2.322 . S
Tb512 O530 2.349 . S
Tb512 O533 2.415 . S
Tb512 O534 2.399 . S
Tb513 O523 2.322 . S
Tb513 O524 2.349 . S
Tb513 O526 2.415 . S
Tb513 O527 2.399 . S
Tb513 O528 2.325 . S
Tb513 O531 2.303 . S
Tb513 C542 2.764 . S
C514 O530 1.261 . S
C514 O531 1.257 . S
C515 C518 1.358 . S
C515 C519 1.332 . S
C515 C521 1.504 . S
C516 C517 1.373 . S
C516 C520 1.308 . S
C517 C516 1.373 . S
C517 C518 1.429 . S
C517 H544 0.932 . S
C518 C515 1.358 . S
C518 C517 1.429 . S
C518 H545 0.930 . S
C519 C515 1.332 . S
C519 C520 1.394 . S
C519 H546 0.932 . S
C520 C516 1.308 . S
C520 C519 1.394 . S
C520 H547 0.929 . S
C521 Tb512 2.764 . S
C521 C515 1.504 . S
C521 O533 1.239 . S
C521 O534 1.263 . S
O522 Tb512 2.325 . S
O522 C532 1.236 . S
O523 Tb513 2.322 . S
O523 C532 1.257 . S
O524 Tb513 2.349 . S
O524 C535 1.261 . S
O525 Tb512 2.303 . S
O525 C535 1.257 . S
O526 Tb513 2.415 . S
O526 C542 1.239 . S
O527 Tb513 2.399 . S
O527 C542 1.263 . S
O528 Tb513 2.325 . S
O528 C543 1.236 . S
O529 Tb512 2.322 . S
O529 C543 1.257 . S
O530 Tb512 2.349 . S
O530 C514 1.261 . S
O531 Tb513 2.303 . S
O531 C514 1.257 . S
C532 O522 1.236 . S
C532 O523 1.257 . S
O533 Tb512 2.415 . S
O533 C521 1.239 . S
O534 Tb512 2.399 . S
O534 C521 1.263 . S
C535 O524 1.261 . S
C535 O525 1.257 . S
C536 C539 1.358 . S
C536 C540 1.332 . S
C536 C542 1.504 . S
C537 C538 1.373 . S
C537 C541 1.308 . S
C538 C537 1.373 . S
C538 C539 1.429 . S
C538 H548 0.932 . S
C539 C536 1.358 . S
C539 C538 1.429 . S
C539 H549 0.930 . S
C540 C536 1.332 . S
C540 C541 1.394 . S
C540 H550 0.932 . S
C541 C537 1.308 . S
C541 C540 1.394 . S
C541 H551 0.929 . S
C542 Tb513 2.764 . S
C542 O526 1.239 . S
C542 O527 1.263 . S
C542 C536 1.504 . S
C543 O528 1.236 . S
C543 O529 1.257 . S
H544 C517 0.932 . S
H545 C518 0.930 . S
H546 C519 0.932 . S
H547 C520 0.929 . S
H548 C538 0.932 . S
H549 C539 0.930 . S
H550 C540 0.932 . S
H551 C541 0.929 . S
Tb552 C561 2.764 . S
Tb552 O562 2.325 . S
Tb552 O565 2.303 . S
Tb552 O569 2.322 . S
Tb552 O570 2.349 . S
Tb552 O573 2.415 . S
Tb552 O574 2.399 . S
Tb553 O563 2.322 1_556 S
Tb553 O564 2.349 . S
Tb553 O566 2.415 . S
Tb553 O567 2.399 . S
Tb553 O568 2.325 . S
Tb553 O571 2.303 1_556 S
Tb553 C582 2.764 . S
C554 O570 1.261 . S
C554 O571 1.257 . S
C555 C558 1.358 . S
C555 C559 1.332 . S
C555 C561 1.504 . S
C556 C557 1.373 . S
C556 C560 1.308 . S
C557 C556 1.373 . S
C557 C558 1.429 . S
C557 H584 0.932 . S
C558 C555 1.358 . S
C558 C557 1.429 . S
C558 H585 0.930 . S
C559 C555 1.332 . S
C559 C560 1.394 . S
C559 H586 0.932 . S
C560 C556 1.308 . S
C560 C559 1.394 . S
C560 H587 0.929 . S
C561 Tb552 2.764 . S
C561 C555 1.504 . S
C561 O573 1.239 . S
C561 O574 1.263 . S
O562 Tb552 2.325 . S
O562 C572 1.236 . S
O563 Tb553 2.322 1_554 S
O563 C572 1.257 . S
O564 Tb553 2.349 . S
O564 C575 1.261 1_556 S
O565 Tb552 2.303 . S
O565 C575 1.257 . S
O566 Tb553 2.415 . S
O566 C582 1.239 . S
O567 Tb553 2.399 . S
O567 C582 1.263 . S
O568 Tb553 2.325 . S
O568 C583 1.236 . S
O569 Tb552 2.322 . S
O569 C583 1.257 1_554 S
O570 Tb552 2.349 . S
O570 C554 1.261 . S
O571 Tb553 2.303 1_554 S
O571 C554 1.257 . S
C572 O562 1.236 . S
C572 O563 1.257 . S
O573 Tb552 2.415 . S
O573 C561 1.239 . S
O574 Tb552 2.399 . S
O574 C561 1.263 . S
C575 O564 1.261 1_554 S
C575 O565 1.257 . S
C576 C579 1.358 . S
C576 C580 1.332 . S
C576 C582 1.504 . S
C577 C578 1.373 . S
C577 C581 1.308 . S
C578 C577 1.373 . S
C578 C579 1.429 . S
C578 H588 0.932 . S
C579 C576 1.358 . S
C579 C578 1.429 . S
C579 H589 0.930 . S
C580 C576 1.332 . S
C580 C581 1.394 . S
C580 H590 0.932 . S
C581 C577 1.308 . S
C581 C580 1.394 . S
C581 H591 0.929 . S
C582 Tb553 2.764 . S
C582 O566 1.239 . S
C582 O567 1.263 . S
C582 C576 1.504 . S
C583 O568 1.236 . S
C583 O569 1.257 1_556 S
H584 C557 0.932 . S
H585 C558 0.930 . S
H586 C559 0.932 . S
H587 C560 0.929 . S
H588 C578 0.932 . S
H589 C579 0.930 . S
H590 C580 0.932 . S
H591 C581 0.929 . S
Tb592 C601 2.764 . S
Tb592 O602 2.325 . S
Tb592 O605 2.303 . S
Tb592 O609 2.322 . S
Tb592 O610 2.349 . S
Tb592 O613 2.415 . S
Tb592 O614 2.399 . S
Tb593 O603 2.322 . S
Tb593 O604 2.349 . S
Tb593 O606 2.415 . S
Tb593 O607 2.399 . S
Tb593 O608 2.325 . S
Tb593 O611 2.303 . S
Tb593 C622 2.764 . S
C594 O610 1.261 . S
C594 O611 1.257 . S
C595 C598 1.358 . S
C595 C599 1.332 . S
C595 C601 1.504 . S
C596 C597 1.373 . S
C596 C600 1.308 . S
C597 C596 1.373 . S
C597 C598 1.429 . S
C597 H624 0.932 . S
C598 C595 1.358 . S
C598 C597 1.429 . S
C598 H625 0.930 . S
C599 C595 1.332 . S
C599 C600 1.394 . S
C599 H626 0.932 . S
C600 C596 1.308 . S
C600 C599 1.394 . S
C600 H627 0.929 . S
C601 Tb592 2.764 . S
C601 C595 1.504 . S
C601 O613 1.239 . S
C601 O614 1.263 . S
O602 Tb592 2.325 . S
O602 C612 1.236 . S
O603 Tb593 2.322 . S
O603 C612 1.257 . S
O604 Tb593 2.349 . S
O604 C615 1.261 . S
O605 Tb592 2.303 . S
O605 C615 1.257 . S
O606 Tb593 2.415 . S
O606 C622 1.239 . S
O607 Tb593 2.399 . S
O607 C622 1.263 . S
O608 Tb593 2.325 . S
O608 C623 1.236 . S
O609 Tb592 2.322 . S
O609 C623 1.257 . S
O610 Tb592 2.349 . S
O610 C594 1.261 . S
O611 Tb593 2.303 . S
O611 C594 1.257 . S
C612 O602 1.236 . S
C612 O603 1.257 . S
O613 Tb592 2.415 . S
O613 C601 1.239 . S
O614 Tb592 2.399 . S
O614 C601 1.263 . S
C615 O604 1.261 . S
C615 O605 1.257 . S
C616 C619 1.358 . S
C616 C620 1.332 . S
C616 C622 1.504 . S
C617 C618 1.373 . S
C617 C621 1.308 . S
C618 C617 1.373 . S
C618 C619 1.429 . S
C618 H628 0.932 . S
C619 C616 1.358 . S
C619 C618 1.429 . S
C619 H629 0.930 . S
C620 C616 1.332 . S
C620 C621 1.394 . S
C620 H630 0.932 . S
C621 C617 1.308 . S
C621 C620 1.394 . S
C621 H631 0.929 . S
C622 Tb593 2.764 . S
C622 O606 1.239 . S
C622 O607 1.263 . S
C622 C616 1.504 . S
C623 O608 1.236 . S
C623 O609 1.257 . S
H624 C597 0.932 . S
H625 C598 0.930 . S
H626 C599 0.932 . S
H627 C600 0.929 . S
H628 C618 0.932 . S
H629 C619 0.930 . S
H630 C620 0.932 . S
H631 C621 0.929 . S
Tb632 C641 2.764 . S
Tb632 O642 2.325 . S
Tb632 O645 2.303 . S
Tb632 O649 2.322 . S
Tb632 O650 2.349 . S
Tb632 O653 2.415 . S
Tb632 O654 2.399 . S
Tb633 O643 2.322 1_556 S
Tb633 O644 2.349 . S
Tb633 O646 2.415 . S
Tb633 O647 2.399 . S
Tb633 O648 2.325 . S
Tb633 O651 2.303 1_556 S
Tb633 C662 2.764 . S
C634 O650 1.261 . S
C634 O651 1.257 . S
C635 C638 1.358 . S
C635 C639 1.332 . S
C635 C641 1.504 . S
C636 C637 1.373 . S
C636 C640 1.308 . S
C637 C636 1.373 . S
C637 C638 1.429 . S
C637 H664 0.932 . S
C638 C635 1.358 . S
C638 C637 1.429 . S
C638 H665 0.930 . S
C639 C635 1.332 . S
C639 C640 1.394 . S
C639 H666 0.932 . S
C640 C636 1.308 . S
C640 C639 1.394 . S
C640 H667 0.929 . S
C641 Tb632 2.764 . S
C641 C635 1.504 . S
C641 O653 1.239 . S
C641 O654 1.263 . S
O642 Tb632 2.325 . S
O642 C652 1.236 . S
O643 Tb633 2.322 1_554 S
O643 C652 1.257 . S
O644 Tb633 2.349 . S
O644 C655 1.261 1_556 S
O645 Tb632 2.303 . S
O645 C655 1.257 . S
O646 Tb633 2.415 . S
O646 C662 1.239 . S
O647 Tb633 2.399 . S
O647 C662 1.263 . S
O648 Tb633 2.325 . S
O648 C663 1.266 . S
O649 Tb632 2.322 . S
O649 C663 1.207 1_554 S
O650 Tb632 2.349 . S
O650 C634 1.261 . S
O651 Tb633 2.303 1_554 S
O651 C634 1.257 . S
C652 O642 1.236 . S
C652 O643 1.257 . S
O653 Tb632 2.415 . S
O653 C641 1.239 . S
O654 Tb632 2.399 . S
O654 C641 1.263 . S
C655 O644 1.261 1_554 S
C655 O645 1.257 . S
C656 C659 1.358 . S
C656 C660 1.332 . S
C656 C662 1.504 . S
C657 C658 1.373 . S
C657 C661 1.308 . S
C658 C657 1.373 . S
C658 C659 1.429 . S
C658 H668 0.932 . S
C659 C656 1.358 . S
C659 C658 1.429 . S
C659 H669 0.930 . S
C660 C656 1.332 . S
C660 C661 1.394 . S
C660 H670 0.932 . S
C661 C657 1.308 . S
C661 C660 1.394 . S
C661 H671 0.929 . S
C662 Tb633 2.764 . S
C662 O646 1.239 . S
C662 O647 1.263 . S
C662 C656 1.504 . S
C663 O648 1.266 . S
C663 O649 1.207 1_556 S
H664 C637 0.932 . S
H665 C638 0.930 . S
H666 C639 0.932 . S
H667 C640 0.929 . S
H668 C658 0.932 . S
H669 C659 0.930 . S
H670 C660 0.932 . S
H671 C661 0.929 . S
Tb672 C681 2.764 . S
Tb672 O682 2.325 . S
Tb672 O685 2.303 . S
Tb672 O689 2.322 . S
Tb672 O690 2.349 . S
Tb672 O693 2.415 . S
Tb672 O694 2.399 . S
Tb673 O683 2.322 . S
Tb673 O684 2.349 . S
Tb673 O686 2.415 . S
Tb673 O687 2.399 . S
Tb673 O688 2.325 . S
Tb673 O691 2.303 . S
Tb673 C702 2.764 . S
C674 O690 1.261 . S
C674 O691 1.257 . S
C675 C678 1.358 . S
C675 C679 1.332 . S
C675 C681 1.504 . S
C676 C677 1.373 . S
C676 C680 1.308 . S
C677 C676 1.373 . S
C677 C678 1.429 . S
C677 H704 0.932 . S
C678 C675 1.358 . S
C678 C677 1.429 . S
C678 H705 0.930 . S
C679 C675 1.332 . S
C679 C680 1.394 . S
C679 H706 0.932 . S
C680 C676 1.308 . S
C680 C679 1.394 . S
C680 H707 0.929 . S
C681 Tb672 2.764 . S
C681 C675 1.504 . S
C681 O693 1.239 . S
C681 O694 1.263 . S
O682 Tb672 2.325 . S
O682 C692 1.236 . S
O683 Tb673 2.322 . S
O683 C692 1.257 . S
O684 Tb673 2.349 . S
O684 C695 1.261 . S
O685 Tb672 2.303 . S
O685 C695 1.257 . S
O686 Tb673 2.415 . S
O686 C702 1.239 . S
O687 Tb673 2.399 . S
O687 C702 1.263 . S
O688 Tb673 2.325 . S
O688 C703 1.236 . S
O689 Tb672 2.322 . S
O689 C703 1.257 . S
O690 Tb672 2.349 . S
O690 C674 1.261 . S
O691 Tb673 2.303 . S
O691 C674 1.257 . S
C692 O682 1.236 . S
C692 O683 1.257 . S
O693 Tb672 2.415 . S
O693 C681 1.239 . S
O694 Tb672 2.399 . S
O694 C681 1.263 . S
C695 O684 1.261 . S
C695 O685 1.257 . S
C696 C699 1.358 . S
C696 C700 1.332 . S
C696 C702 1.504 . S
C697 C698 1.373 . S
C697 C701 1.308 . S
C698 C697 1.373 . S
C698 C699 1.429 . S
C698 H708 0.932 . S
C699 C696 1.358 . S
C699 C698 1.429 . S
C699 H709 0.930 . S
C700 C696 1.332 . S
C700 C701 1.394 . S
C700 H710 0.932 . S
C701 C697 1.308 . S
C701 C700 1.394 . S
C701 H711 0.929 . S
C702 Tb673 2.764 . S
C702 O686 1.239 . S
C702 O687 1.263 . S
C702 C696 1.504 . S
C703 O688 1.236 . S
C703 O689 1.257 . S
H704 C677 0.932 . S
H705 C678 0.930 . S
H706 C679 0.932 . S
H707 C680 0.929 . S
H708 C698 0.932 . S
H709 C699 0.930 . S
H710 C700 0.932 . S
H711 C701 0.929 . S
Tb712 C721 2.764 . S
Tb712 O722 2.325 . S
Tb712 O725 2.303 . S
Tb712 O729 2.322 . S
Tb712 O730 2.349 . S
Tb712 O733 2.415 . S
Tb712 O734 2.399 . S
Tb713 O723 2.322 . S
Tb713 O724 2.349 1_455 S
Tb713 O726 2.415 . S
Tb713 O727 2.399 . S
Tb713 O728 2.325 . S
Tb713 O731 2.303 . S
Tb713 C742 2.764 . S
C714 O730 1.261 . S
C714 O731 1.257 . S
C715 C718 1.358 . S
C715 C719 1.332 1_455 S
C715 C721 1.504 . S
C716 C717 1.373 1_655 S
C716 C720 1.308 . S
C717 C716 1.373 1_455 S
C717 C718 1.429 . S
C717 H744 0.932 . S
C718 C715 1.358 . S
C718 C717 1.429 . S
C718 H745 0.930 . S
C719 C715 1.332 1_655 S
C719 C720 1.394 . S
C719 H746 0.932 . S
C720 C716 1.308 . S
C720 C719 1.394 . S
C720 H747 0.929 . S
C721 Tb712 2.764 . S
C721 C715 1.504 . S
C721 O733 1.239 . S
C721 O734 1.263 . S
O722 Tb712 2.325 . S
O722 C732 1.236 . S
O723 Tb713 2.322 . S
O723 C732 1.257 . S
O724 Tb713 2.349 1_655 S
O724 C735 1.261 . S
O725 Tb712 2.303 . S
O725 C735 1.257 1_455 S
O726 Tb713 2.415 . S
O726 C742 1.239 . S
O727 Tb713 2.399 . S
O727 C742 1.263 . S
O728 Tb713 2.325 . S
O728 C743 1.236 . S
O729 Tb712 2.322 . S
O729 C743 1.257 . S
O730 Tb712 2.349 . S
O730 C714 1.261 . S
O731 Tb713 2.303 . S
O731 C714 1.257 . S
C732 O722 1.236 . S
C732 O723 1.257 . S
O733 Tb712 2.415 . S
O733 C721 1.239 . S
O734 Tb712 2.399 . S
O734 C721 1.263 . S
C735 O724 1.261 . S
C735 O725 1.257 1_655 S
C736 C739 1.358 . S
C736 C740 1.332 . S
C736 C742 1.504 . S
C737 C738 1.373 . S
C737 C741 1.308 . S
C738 C737 1.373 . S
C738 C739 1.429 . S
C738 H748 0.932 . S
C739 C736 1.358 . S
C739 C738 1.429 . S
C739 H749 0.930 . S
C740 C736 1.332 . S
C740 C741 1.394 . S
C740 H750 0.932 . S
C741 C737 1.308 . S
C741 C740 1.394 . S
C741 H751 0.929 . S
C742 Tb713 2.764 . S
C742 O726 1.239 . S
C742 O727 1.263 . S
C742 C736 1.504 . S
C743 O728 1.236 . S
C743 O729 1.257 . S
H744 C717 0.932 . S
H745 C718 0.930 . S
H746 C719 0.932 . S
H747 C720 0.929 . S
H748 C738 0.932 . S
H749 C739 0.930 . S
H750 C740 0.932 . S
H751 C741 0.929 . S
Tb752 C761 2.764 . S
Tb752 O762 2.325 . S
Tb752 O765 2.303 . S
Tb752 O769 2.322 . S
Tb752 O770 2.349 . S
Tb752 O773 2.415 . S
Tb752 O774 2.399 . S
Tb753 O763 2.322 . S
Tb753 O764 2.349 . S
Tb753 O766 2.415 . S
Tb753 O767 2.399 . S
Tb753 O768 2.325 . S
Tb753 O771 2.303 . S
Tb753 C782 2.764 . S
C754 O770 1.261 . S
C754 O771 1.257 . S
C755 C758 1.358 . S
C755 C759 1.332 . S
C755 C761 1.504 . S
C756 C757 1.373 . S
C756 C760 1.308 . S
C757 C756 1.373 . S
C757 C758 1.429 . S
C757 H784 0.932 . S
C758 C755 1.358 . S
C758 C757 1.429 . S
C758 H785 0.930 . S
C759 C755 1.332 . S
C759 C760 1.394 . S
C759 H786 0.932 . S
C760 C756 1.308 . S
C760 C759 1.394 . S
C760 H787 0.929 . S
C761 Tb752 2.764 . S
C761 C755 1.504 . S
C761 O773 1.239 . S
C761 O774 1.263 . S
O762 Tb752 2.325 . S
O762 C772 1.236 . S
O763 Tb753 2.322 . S
O763 C772 1.257 . S
O764 Tb753 2.349 . S
O764 C775 1.261 . S
O765 Tb752 2.303 . S
O765 C775 1.257 . S
O766 Tb753 2.415 . S
O766 C782 1.239 . S
O767 Tb753 2.399 . S
O767 C782 1.263 . S
O768 Tb753 2.325 . S
O768 C783 1.236 . S
O769 Tb752 2.322 . S
O769 C783 1.257 . S
O770 Tb752 2.349 . S
O770 C754 1.261 . S
O771 Tb753 2.303 . S
O771 C754 1.257 . S
C772 O762 1.236 . S
C772 O763 1.257 . S
O773 Tb752 2.415 . S
O773 C761 1.239 . S
O774 Tb752 2.399 . S
O774 C761 1.263 . S
C775 O764 1.261 . S
C775 O765 1.257 . S
C776 C779 1.358 . S
C776 C780 1.332 . S
C776 C782 1.504 . S
C777 C778 1.373 . S
C777 C781 1.308 . S
C778 C777 1.373 . S
C778 C779 1.429 . S
C778 H788 0.932 . S
C779 C776 1.358 . S
C779 C778 1.429 . S
C779 H789 0.930 . S
C780 C776 1.332 . S
C780 C781 1.394 . S
C780 H790 0.932 . S
C781 C777 1.308 . S
C781 C780 1.394 . S
C781 H791 0.929 . S
C782 Tb753 2.764 . S
C782 O766 1.239 . S
C782 O767 1.263 . S
C782 C776 1.504 . S
C783 O768 1.236 . S
C783 O769 1.257 . S
H784 C757 0.932 . S
H785 C758 0.930 . S
H786 C759 0.932 . S
H787 C760 0.929 . S
H788 C778 0.932 . S
H789 C779 0.930 . S
H790 C780 0.932 . S
H791 C781 0.929 . S
Tb792 C801 2.764 . S
Tb792 O802 2.325 . S
Tb792 O805 2.303 . S
Tb792 O809 2.322 . S
Tb792 O810 2.349 . S
Tb792 O813 2.415 . S
Tb792 O814 2.399 . S
Tb793 O803 2.322 . S
Tb793 O804 2.349 . S
Tb793 O806 2.415 . S
Tb793 O807 2.399 . S
Tb793 O808 2.325 . S
Tb793 O811 2.303 . S
Tb793 C822 2.764 . S
C794 O810 1.261 . S
C794 O811 1.257 . S
C795 C798 1.358 . S
C795 C799 1.332 . S
C795 C801 1.504 . S
C796 C797 1.373 . S
C796 C800 1.308 . S
C797 C796 1.373 . S
C797 C798 1.429 . S
C797 H824 0.932 . S
C798 C795 1.358 . S
C798 C797 1.429 . S
C798 H825 0.930 . S
C799 C795 1.332 . S
C799 C800 1.394 . S
C799 H826 0.932 . S
C800 C796 1.308 . S
C800 C799 1.394 . S
C800 H827 0.929 . S
C801 Tb792 2.764 . S
C801 C795 1.504 . S
C801 O813 1.239 . S
C801 O814 1.263 . S
O802 Tb792 2.325 . S
O802 C812 1.236 . S
O803 Tb793 2.322 . S
O803 C812 1.257 . S
O804 Tb793 2.349 . S
O804 C815 1.261 . S
O805 Tb792 2.303 . S
O805 C815 1.257 . S
O806 Tb793 2.415 . S
O806 C822 1.239 . S
O807 Tb793 2.399 . S
O807 C822 1.263 . S
O808 Tb793 2.325 . S
O808 C823 1.236 . S
O809 Tb792 2.322 . S
O809 C823 1.257 . S
O810 Tb792 2.349 . S
O810 C794 1.261 . S
O811 Tb793 2.303 . S
O811 C794 1.257 . S
C812 O802 1.236 . S
C812 O803 1.257 . S
O813 Tb792 2.415 . S
O813 C801 1.239 . S
O814 Tb792 2.399 . S
O814 C801 1.263 . S
C815 O804 1.261 . S
C815 O805 1.257 . S
C816 C819 1.358 . S
C816 C820 1.332 . S
C816 C822 1.504 . S
C817 C818 1.373 . S
C817 C821 1.308 . S
C818 C817 1.373 . S
C818 C819 1.429 . S
C818 H828 0.932 . S
C819 C816 1.358 . S
C819 C818 1.429 . S
C819 H829 0.930 . S
C820 C816 1.332 . S
C820 C821 1.394 . S
C820 H830 0.932 . S
C821 C817 1.308 . S
C821 C820 1.394 . S
C821 H831 0.929 . S
C822 Tb793 2.764 . S
C822 O806 1.239 . S
C822 O807 1.263 . S
C822 C816 1.504 . S
C823 O808 1.236 . S
C823 O809 1.257 . S
H824 C797 0.932 . S
H825 C798 0.930 . S
H826 C799 0.932 . S
H827 C800 0.929 . S
H828 C818 0.932 . S
H829 C819 0.930 . S
H830 C820 0.932 . S
H831 C821 0.929 . S
Tb832 C841 2.764 . S
Tb832 O842 2.325 . S
Tb832 O845 2.303 . S
Tb832 O849 2.322 . S
Tb832 O850 2.349 . S
Tb832 O853 2.415 . S
Tb832 O854 2.399 . S
Tb833 O843 2.322 . S
Tb833 O844 2.349 . S
Tb833 O846 2.415 . S
Tb833 O847 2.399 . S
Tb833 O848 2.325 . S
Tb833 O851 2.303 . S
Tb833 C862 2.764 . S
C834 O850 1.261 . S
C834 O851 1.257 . S
C835 C838 1.358 . S
C835 C839 1.332 . S
C835 C841 1.504 . S
C836 C837 1.373 . S
C836 C840 1.308 . S
C837 C836 1.373 . S
C837 C838 1.429 . S
C837 H864 0.932 . S
C838 C835 1.358 . S
C838 C837 1.429 . S
C838 H865 0.930 . S
C839 C835 1.332 . S
C839 C840 1.394 . S
C839 H866 0.932 . S
C840 C836 1.308 . S
C840 C839 1.394 . S
C840 H867 0.929 . S
C841 Tb832 2.764 . S
C841 C835 1.504 . S
C841 O853 1.239 . S
C841 O854 1.263 . S
O842 Tb832 2.325 . S
O842 C852 1.236 . S
O843 Tb833 2.322 . S
O843 C852 1.257 . S
O844 Tb833 2.349 . S
O844 C855 1.261 . S
O845 Tb832 2.303 . S
O845 C855 1.257 . S
O846 Tb833 2.415 . S
O846 C862 1.239 . S
O847 Tb833 2.399 . S
O847 C862 1.263 . S
O848 Tb833 2.325 . S
O848 C863 1.236 . S
O849 Tb832 2.322 . S
O849 C863 1.257 . S
O850 Tb832 2.349 . S
O850 C834 1.261 . S
O851 Tb833 2.303 . S
O851 C834 1.257 . S
C852 O842 1.236 . S
C852 O843 1.257 . S
O853 Tb832 2.415 . S
O853 C841 1.239 . S
O854 Tb832 2.399 . S
O854 C841 1.263 . S
C855 O844 1.261 . S
C855 O845 1.257 . S
C856 C859 1.358 . S
C856 C860 1.332 . S
C856 C862 1.504 . S
C857 C858 1.373 . S
C857 C861 1.308 . S
C858 C857 1.373 . S
C858 C859 1.429 . S
C858 H868 0.932 . S
C859 C856 1.358 . S
C859 C858 1.429 . S
C859 H869 0.930 . S
C860 C856 1.332 . S
C860 C861 1.394 . S
C860 H870 0.932 . S
C861 C857 1.308 . S
C861 C860 1.394 . S
C861 H871 0.929 . S
C862 Tb833 2.764 . S
C862 O846 1.239 . S
C862 O847 1.263 . S
C862 C856 1.504 . S
C863 O848 1.236 . S
C863 O849 1.257 . S
H864 C837 0.932 . S
H865 C838 0.930 . S
H866 C839 0.932 . S
H867 C840 0.929 . S
H868 C858 0.932 . S
H869 C859 0.930 . S
H870 C860 0.932 . S
H871 C861 0.929 . S
Tb872 C881 2.764 . S
Tb872 O882 2.325 . S
Tb872 O885 2.303 . S
Tb872 O889 2.322 . S
Tb872 O890 2.349 . S
Tb872 O893 2.415 . S
Tb872 O894 2.399 . S
Tb873 O883 2.322 . S
Tb873 O884 2.349 . S
Tb873 O886 2.415 . S
Tb873 O887 2.399 . S
Tb873 O888 2.325 . S
Tb873 O891 2.303 . S
Tb873 C902 2.764 . S
C874 O890 1.261 . S
C874 O891 1.257 . S
C875 C878 1.358 . S
C875 C879 1.332 . S
C875 C881 1.504 . S
C876 C877 1.373 . S
C876 C880 1.308 . S
C877 C876 1.373 . S
C877 C878 1.429 . S
C877 H904 0.932 . S
C878 C875 1.358 . S
C878 C877 1.429 . S
C878 H905 0.930 . S
C879 C875 1.332 . S
C879 C880 1.394 . S
C879 H906 0.932 . S
C880 C876 1.308 . S
C880 C879 1.394 . S
C880 H907 0.929 . S
C881 Tb872 2.764 . S
C881 C875 1.504 . S
C881 O893 1.239 . S
C881 O894 1.263 . S
O882 Tb872 2.325 . S
O882 C892 1.236 . S
O883 Tb873 2.322 . S
O883 C892 1.257 . S
O884 Tb873 2.349 . S
O884 C895 1.261 . S
O885 Tb872 2.303 . S
O885 C895 1.257 . S
O886 Tb873 2.415 . S
O886 C902 1.239 . S
O887 Tb873 2.399 . S
O887 C902 1.263 . S
O888 Tb873 2.325 . S
O888 C903 1.236 . S
O889 Tb872 2.322 . S
O889 C903 1.257 . S
O890 Tb872 2.349 . S
O890 C874 1.261 . S
O891 Tb873 2.303 . S
O891 C874 1.257 . S
C892 O882 1.236 . S
C892 O883 1.257 . S
O893 Tb872 2.415 . S
O893 C881 1.239 . S
O894 Tb872 2.399 . S
O894 C881 1.263 . S
C895 O884 1.261 . S
C895 O885 1.257 . S
C896 C899 1.358 . S
C896 C900 1.332 . S
C896 C902 1.504 . S
C897 C898 1.373 . S
C897 C901 1.308 . S
C898 C897 1.373 . S
C898 C899 1.429 . S
C898 H908 0.932 . S
C899 C896 1.358 . S
C899 C898 1.429 . S
C899 H909 0.930 . S
C900 C896 1.332 . S
C900 C901 1.394 . S
C900 H910 0.932 . S
C901 C897 1.308 . S
C901 C900 1.394 . S
C901 H911 0.929 . S
C902 Tb873 2.764 . S
C902 O886 1.239 . S
C902 O887 1.263 . S
C902 C896 1.504 . S
C903 O888 1.236 . S
C903 O889 1.257 . S
H904 C877 0.932 . S
H905 C878 0.930 . S
H906 C879 0.932 . S
H907 C880 0.929 . S
H908 C898 0.932 . S
H909 C899 0.930 . S
H910 C900 0.932 . S
H911 C901 0.929 . S
Tb912 C921 2.764 . S
Tb912 O922 2.325 1_655 S
Tb912 O925 2.303 1_655 S
Tb912 O929 2.322 1_655 S
Tb912 O930 2.349 1_655 S
Tb912 O933 2.415 . S
Tb912 O934 2.399 . S
Tb913 O923 2.322 . S
Tb913 O924 2.376 . S
Tb913 O926 2.415 . S
Tb913 O927 2.399 . S
Tb913 O928 2.325 . S
Tb913 O931 2.303 . S
Tb913 C942 2.764 . S
C914 O930 1.261 . S
C914 O931 1.257 . S
C915 C918 1.358 . S
C915 C919 1.332 . S
C915 C921 1.504 . S
C916 C917 1.373 . S
C916 C920 1.308 . S
C917 C916 1.373 . S
C917 C918 1.429 . S
C917 H944 0.932 . S
C918 C915 1.358 . S
C918 C917 1.429 . S
C918 H945 0.930 . S
C919 C915 1.332 . S
C919 C920 1.394 . S
C919 H946 0.932 . S
C920 C916 1.308 . S
C920 C919 1.394 . S
C920 H947 0.929 . S
C921 Tb912 2.764 . S
C921 C915 1.504 . S
C921 O933 1.239 . S
C921 O934 1.263 . S
O922 Tb912 2.325 1_455 S
O922 C932 1.236 . S
O923 Tb913 2.322 . S
O923 C932 1.257 . S
O924 Tb913 2.376 . S
O924 C935 1.268 . S
O925 Tb912 2.303 1_455 S
O925 C935 1.257 . S
O926 Tb913 2.415 . S
O926 C942 1.239 . S
O927 Tb913 2.399 . S
O927 C942 1.263 . S
O928 Tb913 2.325 . S
O928 C943 1.236 . S
O929 Tb912 2.322 1_455 S
O929 C943 1.257 . S
O930 Tb912 2.349 1_455 S
O930 C914 1.261 . S
O931 Tb913 2.303 . S
O931 C914 1.257 . S
C932 O922 1.236 . S
C932 O923 1.257 . S
O933 Tb912 2.415 . S
O933 C921 1.239 . S
O934 Tb912 2.399 . S
O934 C921 1.263 . S
C935 O924 1.268 . S
C935 O925 1.257 . S
C936 C939 1.358 . S
C936 C940 1.332 . S
C936 C942 1.504 . S
C937 C938 1.373 . S
C937 C941 1.308 . S
C938 C937 1.373 . S
C938 C939 1.429 . S
C938 H948 0.932 1_554 S
C939 C936 1.358 . S
C939 C938 1.429 . S
C939 H949 0.930 1_554 S
C940 C936 1.332 . S
C940 C941 1.394 . S
C940 H950 0.932 . S
C941 C937 1.308 . S
C941 C940 1.394 . S
C941 H951 0.929 . S
C942 Tb913 2.764 . S
C942 O926 1.239 . S
C942 O927 1.263 . S
C942 C936 1.504 . S
C943 O928 1.236 . S
C943 O929 1.257 . S
H944 C917 0.932 . S
H945 C918 0.930 . S
H946 C919 0.932 . S
H947 C920 0.929 . S
H948 C938 0.932 1_556 S
H949 C939 0.930 1_556 S
H950 C940 0.932 . S
H951 C941 0.929 . S
C952 C953 1.349 1_655 S
C952 C954 1.329 1_655 S
C952 H977 0.950 . S
C953 C952 1.349 1_455 S
C953 C969 1.349 . S
C954 C952 1.329 1_455 S
C954 C973 1.425 . S
C954 H978 0.951 1_455 S
C955 C972 1.574 . S
C955 C974 1.368 . S
C955 H979 0.949 . S
H956 C960 0.949 . S
C957 C958 1.349 . S
C957 C959 1.327 . S
C957 H980 0.950 . S
C958 C957 1.349 . S
C958 C970 1.349 . S
C959 C957 1.327 . S
C959 C975 1.429 . S
C959 H981 0.950 1_554 S
C960 H956 0.949 . S
C960 C968 1.574 1_554 S
C960 C976 1.368 1_554 S
H961 C969 0.950 . S
H962 C967 0.950 . S
H963 C968 0.975 . S
H964 C970 0.950 . S
H965 C971 0.950 . S
H966 C972 0.949 . S
C967 H962 0.950 . S
C967 C969 1.327 . S
C967 C973 1.429 . S
C968 C960 1.574 1_556 S
C968 H963 0.975 . S
C968 C974 1.368 . S
C969 C953 1.349 . S
C969 H961 0.950 . S
C969 C967 1.327 . S
C970 C958 1.349 . S
C970 H964 0.950 . S
C970 C971 1.327 . S
C971 H965 0.950 . S
C971 C970 1.327 . S
C971 C975 1.429 . S
C972 C955 1.574 . S
C972 H966 0.949 . S
C972 C976 1.368 . S
C973 C954 1.425 . S
C973 C967 1.429 . S
C973 C974 1.523 . S
C974 C955 1.368 . S
C974 C968 1.368 . S
C974 C973 1.523 . S
C975 C959 1.429 . S
C975 C971 1.429 . S
C975 C976 1.523 1_554 S
C976 C960 1.368 1_556 S
C976 C972 1.368 . S
C976 C975 1.523 1_556 S
H977 C952 0.950 . S
H978 C954 0.951 1_655 S
H979 C955 0.949 . S
H980 C957 0.950 . S
H981 C959 0.950 1_556 S
C982 C983 1.349 . S
C982 C984 1.327 . S
C982 H1007 0.950 . S
C983 C982 1.349 . S
C983 C999 1.349 . S
C984 C982 1.327 . S
C984 C1003 1.429 . S
C984 H1008 0.950 . S
C985 C1002 1.574 . S
C985 C1004 1.368 . S
C985 H1009 0.949 . S
H986 C990 0.949 . S
C987 C988 1.349 . S
C987 C989 1.327 . S
C987 H1010 0.950 . S
C988 C987 1.349 . S
C988 C1000 1.349 . S
C989 C987 1.327 . S
C989 C1005 1.429 . S
C989 H1011 0.950 . S
C990 H986 0.949 . S
C990 C998 1.574 . S
C990 C1006 1.368 . S
H991 C999 0.950 . S
H992 C997 0.950 . S
H993 C998 0.949 . S
H994 C1000 0.950 . S
H995 C1001 0.950 . S
H996 C1002 0.949 . S
C997 H992 0.950 . S
C997 C999 1.327 . S
C997 C1003 1.429 . S
C998 C990 1.574 . S
C998 H993 0.949 . S
C998 C1004 1.368 . S
C999 C983 1.349 . S
C999 H991 0.950 . S
C999 C997 1.327 . S
C1000 C988 1.349 . S
C1000 H994 0.950 . S
C1000 C1001 1.327 . S
C1001 H995 0.950 . S
C1001 C1000 1.327 . S
C1001 C1005 1.429 . S
C1002 C985 1.574 . S
C1002 H996 0.949 . S
C1002 C1006 1.368 . S
C1003 C984 1.429 . S
C1003 C997 1.429 . S
C1003 C1004 1.523 . S
C1004 C985 1.368 . S
C1004 C998 1.368 . S
C1004 C1003 1.523 . S
C1005 C989 1.429 . S
C1005 C1001 1.429 . S
C1005 C1006 1.523 . S
C1006 C990 1.368 . S
C1006 C1002 1.368 . S
C1006 C1005 1.523 . S
H1007 C982 0.950 . S
H1008 C984 0.950 . S
H1009 C985 0.949 . S
H1010 C987 0.950 . S
H1011 C989 0.950 . S
C1012 C1013 1.349 . S
C1012 C1014 1.327 . S
C1012 H1037 0.950 . S
C1013 C1012 1.349 . S
C1013 C1029 1.349 . S
C1014 C1012 1.327 . S
C1014 C1033 1.429 . S
C1014 H1038 0.950 . S
C1015 C1032 1.574 . S
C1015 C1034 1.368 . S
C1015 H1039 0.949 . S
H1016 C1020 0.949 . S
C1017 C1018 1.349 . S
C1017 C1019 1.327 . S
C1017 H1040 0.950 . S
C1018 C1017 1.349 . S
C1018 C1030 1.349 . S
C1019 C1017 1.327 . S
C1019 C1035 1.429 . S
C1019 H1041 0.950 . S
C1020 H1016 0.949 . S
C1020 C1028 1.574 . S
C1020 C1036 1.368 . S
H1021 C1029 0.950 . S
H1022 C1027 0.950 . S
H1023 C1028 0.949 . S
H1024 C1030 0.950 . S
H1025 C1031 0.950 . S
H1026 C1032 0.949 . S
C1027 H1022 0.950 . S
C1027 C1029 1.327 . S
C1027 C1033 1.429 . S
C1028 C1020 1.574 . S
C1028 H1023 0.949 . S
C1028 C1034 1.368 . S
C1029 C1013 1.349 . S
C1029 H1021 0.950 . S
C1029 C1027 1.327 . S
C1030 C1018 1.349 . S
C1030 H1024 0.950 . S
C1030 C1031 1.327 . S
C1031 H1025 0.950 . S
C1031 C1030 1.327 . S
C1031 C1035 1.429 . S
C1032 C1015 1.574 . S
C1032 H1026 0.949 . S
C1032 C1036 1.368 . S
C1033 C1014 1.429 . S
C1033 C1027 1.429 . S
C1033 C1034 1.523 . S
C1034 C1015 1.368 . S
C1034 C1028 1.368 . S
C1034 C1033 1.523 . S
C1035 C1019 1.429 . S
C1035 C1031 1.429 . S
C1035 C1036 1.523 . S
C1036 C1020 1.368 . S
C1036 C1032 1.368 . S
C1036 C1035 1.523 . S
H1037 C1012 0.950 . S
H1038 C1014 0.950 . S
H1039 C1015 0.949 . S
H1040 C1017 0.950 . S
H1041 C1019 0.950 . S
C1042 C1043 1.349 . S
C1042 C1044 1.327 . S
C1042 H1067 0.950 . S
C1043 C1042 1.349 . S
C1043 C1059 1.349 . S
C1044 C1042 1.327 . S
C1044 C1063 1.429 . S
C1044 H1068 0.950 . S
C1045 C1062 1.574 . S
C1045 C1064 1.368 . S
C1045 H1069 0.949 . S
H1046 C1050 0.949 . S
C1047 C1048 1.349 . S
C1047 C1049 1.327 . S
C1047 H1070 0.950 . S
C1048 C1047 1.349 . S
C1048 C1060 1.349 . S
C1049 C1047 1.327 . S
C1049 C1065 1.429 . S
C1049 H1071 0.950 . S
C1050 H1046 0.949 . S
C1050 C1058 1.574 . S
C1050 C1066 1.368 . S
H1051 C1059 0.950 . S
H1052 C1057 0.950 . S
H1053 C1058 0.949 . S
H1054 C1060 0.950 . S
H1055 C1061 0.950 . S
H1056 C1062 0.949 . S
C1057 H1052 0.950 . S
C1057 C1059 1.327 . S
C1057 C1063 1.429 . S
C1058 C1050 1.574 . S
C1058 H1053 0.949 . S
C1058 C1064 1.368 . S
C1059 C1043 1.349 . S
C1059 H1051 0.950 . S
C1059 C1057 1.327 . S
C1060 C1048 1.349 . S
C1060 H1054 0.950 . S
C1060 C1061 1.327 . S
C1061 H1055 0.950 . S
C1061 C1060 1.327 . S
C1061 C1065 1.429 . S
C1062 C1045 1.574 . S
C1062 H1056 0.949 . S
C1062 C1066 1.368 . S
C1063 C1044 1.429 . S
C1063 C1057 1.429 . S
C1063 C1064 1.523 . S
C1064 C1045 1.368 . S
C1064 C1058 1.368 . S
C1064 C1063 1.523 . S
C1065 C1049 1.429 . S
C1065 C1061 1.429 . S
C1065 C1066 1.523 . S
C1066 C1050 1.368 . S
C1066 C1062 1.368 . S
C1066 C1065 1.523 . S
H1067 C1042 0.950 . S
H1068 C1044 0.950 . S
H1069 C1045 0.949 . S
H1070 C1047 0.950 . S
H1071 C1049 0.950 . S
C1072 C1073 1.349 . S
C1072 C1074 1.327 . S
C1072 H1097 0.950 . S
C1073 C1072 1.349 . S
C1073 C1089 1.349 . S
C1074 C1072 1.327 . S
C1074 C1093 1.429 . S
C1074 H1098 0.950 . S
C1075 C1092 1.574 . S
C1075 C1094 1.368 . S
C1075 H1099 0.949 . S
H1076 C1080 0.949 . S
C1077 C1078 1.349 . S
C1077 C1079 1.327 . S
C1077 H1100 0.950 . S
C1078 C1077 1.349 . S
C1078 C1090 1.349 . S
C1079 C1077 1.327 . S
C1079 C1095 1.429 . S
C1079 H1101 0.950 . S
C1080 H1076 0.949 . S
C1080 C1088 1.574 . S
C1080 C1096 1.368 . S
H1081 C1089 0.950 . S
H1082 C1087 0.950 . S
H1083 C1088 0.949 . S
H1084 C1090 0.950 . S
H1085 C1091 0.950 . S
H1086 C1092 0.949 . S
C1087 H1082 0.950 . S
C1087 C1089 1.327 . S
C1087 C1093 1.429 . S
C1088 C1080 1.574 . S
C1088 H1083 0.949 . S
C1088 C1094 1.368 . S
C1089 C1073 1.349 . S
C1089 H1081 0.950 . S
C1089 C1087 1.327 . S
C1090 C1078 1.349 . S
C1090 H1084 0.950 . S
C1090 C1091 1.327 . S
C1091 H1085 0.950 . S
C1091 C1090 1.327 . S
C1091 C1095 1.429 . S
C1092 C1075 1.574 . S
C1092 H1086 0.949 . S
C1092 C1096 1.368 . S
C1093 C1074 1.429 . S
C1093 C1087 1.429 . S
C1093 C1094 1.523 . S
C1094 C1075 1.368 . S
C1094 C1088 1.368 . S
C1094 C1093 1.523 . S
C1095 C1079 1.429 . S
C1095 C1091 1.429 . S
C1095 C1096 1.523 . S
C1096 C1080 1.368 . S
C1096 C1092 1.368 . S
C1096 C1095 1.523 . S
H1097 C1072 0.950 . S
H1098 C1074 0.950 . S
H1099 C1075 0.949 . S
H1100 C1077 0.950 . S
H1101 C1079 0.950 . S
C1102 C1103 1.349 . S
C1102 C1104 1.327 . S
C1102 H1127 0.950 . S
C1103 C1102 1.349 . S
C1103 C1119 1.349 . S
C1104 C1102 1.327 . S
C1104 C1123 1.429 . S
C1104 H1128 0.950 . S
C1105 C1122 1.574 . S
C1105 C1124 1.368 . S
C1105 H1129 0.949 . S
H1106 C1110 0.949 . S
C1107 C1108 1.349 . S
C1107 C1109 1.327 . S
C1107 H1130 0.950 . S
C1108 C1107 1.349 . S
C1108 C1120 1.349 . S
C1109 C1107 1.327 . S
C1109 C1125 1.429 . S
C1109 H1131 0.950 . S
C1110 H1106 0.949 . S
C1110 C1118 1.574 . S
C1110 C1126 1.368 . S
H1111 C1119 0.950 . S
H1112 C1117 0.950 . S
H1113 C1118 0.949 . S
H1114 C1120 0.950 . S
H1115 C1121 0.950 . S
H1116 C1122 0.949 . S
C1117 H1112 0.950 . S
C1117 C1119 1.327 . S
C1117 C1123 1.429 . S
C1118 C1110 1.574 . S
C1118 H1113 0.949 . S
C1118 C1124 1.368 . S
C1119 C1103 1.349 . S
C1119 H1111 0.950 . S
C1119 C1117 1.327 . S
C1120 C1108 1.349 . S
C1120 H1114 0.950 . S
C1120 C1121 1.327 . S
C1121 H1115 0.950 . S
C1121 C1120 1.327 . S
C1121 C1125 1.429 . S
C1122 C1105 1.574 . S
C1122 H1116 0.949 . S
C1122 C1126 1.368 . S
C1123 C1104 1.429 . S
C1123 C1117 1.429 . S
C1123 C1124 1.523 . S
C1124 C1105 1.368 . S
C1124 C1118 1.368 . S
C1124 C1123 1.523 . S
C1125 C1109 1.429 . S
C1125 C1121 1.429 . S
C1125 C1126 1.523 . S
C1126 C1110 1.368 . S
C1126 C1122 1.368 . S
C1126 C1125 1.523 . S
H1127 C1102 0.950 . S
H1128 C1104 0.950 . S
H1129 C1105 0.949 . S
H1130 C1107 0.950 . S
H1131 C1109 0.950 . S
C1132 C1133 1.349 . S
C1132 C1134 1.327 . S
C1132 H1157 0.950 . S
C1133 C1132 1.349 . S
C1133 C1149 1.349 . S
C1134 C1132 1.327 . S
C1134 C1153 1.429 . S
C1134 H1158 0.950 . S
C1135 C1152 1.574 . S
C1135 C1154 1.368 . S
C1135 H1159 0.949 . S
H1136 C1140 0.949 . S
C1137 C1138 1.349 . S
C1137 C1139 1.327 . S
C1137 H1160 0.950 . S
C1138 C1137 1.349 . S
C1138 C1150 1.349 . S
C1139 C1137 1.327 . S
C1139 C1155 1.429 . S
C1139 H1161 0.950 . S
C1140 H1136 0.949 . S
C1140 C1148 1.574 . S
C1140 C1156 1.368 . S
H1141 C1149 0.950 . S
H1142 C1147 0.950 . S
H1143 C1148 0.949 . S
H1144 C1150 0.950 . S
H1145 C1151 0.950 . S
H1146 C1152 0.949 . S
C1147 H1142 0.950 . S
C1147 C1149 1.327 . S
C1147 C1153 1.429 . S
C1148 C1140 1.574 . S
C1148 H1143 0.949 . S
C1148 C1154 1.368 . S
C1149 C1133 1.349 . S
C1149 H1141 0.950 . S
C1149 C1147 1.327 . S
C1150 C1138 1.349 . S
C1150 H1144 0.950 . S
C1150 C1151 1.327 . S
C1151 H1145 0.950 . S
C1151 C1150 1.327 . S
C1151 C1155 1.429 . S
C1152 C1135 1.574 . S
C1152 H1146 0.949 . S
C1152 C1156 1.368 . S
C1153 C1134 1.429 . S
C1153 C1147 1.429 . S
C1153 C1154 1.523 . S
C1154 C1135 1.368 . S
C1154 C1148 1.368 . S
C1154 C1153 1.523 . S
C1155 C1139 1.429 . S
C1155 C1151 1.429 . S
C1155 C1156 1.523 . S
C1156 C1140 1.368 . S
C1156 C1152 1.368 . S
C1156 C1155 1.523 . S
H1157 C1132 0.950 . S
H1158 C1134 0.950 . S
H1159 C1135 0.949 . S
H1160 C1137 0.950 . S
H1161 C1139 0.950 . S
C1162 C1163 1.349 . S
C1162 C1164 1.327 . S
C1162 H1187 0.950 . S
C1163 C1162 1.349 . S
C1163 C1179 1.349 . S
C1164 C1162 1.327 . S
C1164 C1183 1.429 . S
C1164 H1188 0.950 . S
C1165 C1182 1.574 . S
C1165 C1184 1.368 . S
C1165 H1189 0.949 . S
H1166 C1170 0.949 . S
C1167 C1168 1.349 . S
C1167 C1169 1.327 . S
C1167 H1190 0.950 . S
C1168 C1167 1.349 . S
C1168 C1180 1.349 . S
C1169 C1167 1.327 . S
C1169 C1185 1.429 . S
C1169 H1191 0.950 . S
C1170 H1166 0.949 . S
C1170 C1178 1.574 . S
C1170 C1186 1.368 . S
H1171 C1179 0.950 . S
H1172 C1177 0.950 . S
H1173 C1178 0.949 . S
H1174 C1180 0.950 . S
H1175 C1181 0.950 . S
H1176 C1182 0.949 . S
C1177 H1172 0.950 . S
C1177 C1179 1.327 . S
C1177 C1183 1.429 . S
C1178 C1170 1.574 . S
C1178 H1173 0.949 . S
C1178 C1184 1.368 . S
C1179 C1163 1.349 . S
C1179 H1171 0.950 . S
C1179 C1177 1.327 . S
C1180 C1168 1.349 . S
C1180 H1174 0.950 . S
C1180 C1181 1.327 . S
C1181 H1175 0.950 . S
C1181 C1180 1.327 . S
C1181 C1185 1.429 . S
C1182 C1165 1.574 . S
C1182 H1176 0.949 . S
C1182 C1186 1.368 . S
C1183 C1164 1.429 . S
C1183 C1177 1.429 . S
C1183 C1184 1.523 . S
C1184 C1165 1.368 . S
C1184 C1178 1.368 . S
C1184 C1183 1.523 . S
C1185 C1169 1.429 . S
C1185 C1181 1.429 . S
C1185 C1186 1.523 . S
C1186 C1170 1.368 . S
C1186 C1182 1.368 . S
C1186 C1185 1.523 . S
H1187 C1162 0.950 . S
H1188 C1164 0.950 . S
H1189 C1165 0.949 . S
H1190 C1167 0.950 . S
H1191 C1169 0.950 . S
C1192 C1193 1.349 . S
C1192 C1194 1.327 . S
C1192 H1217 0.950 . S
C1193 C1192 1.349 . S
C1193 C1209 1.349 . S
C1194 C1192 1.327 . S
C1194 C1213 1.429 . S
C1194 H1218 0.950 . S
C1195 C1212 1.574 . S
C1195 C1214 1.368 . S
C1195 H1219 0.949 . S
H1196 C1200 0.949 . S
C1197 C1198 1.349 . S
C1197 C1199 1.327 . S
C1197 H1220 0.950 . S
C1198 C1197 1.349 . S
C1198 C1210 1.349 . S
C1199 C1197 1.327 . S
C1199 C1215 1.429 . S
C1199 H1221 0.950 1_455 S
C1200 H1196 0.949 . S
C1200 C1208 1.574 1_455 S
C1200 C1216 1.368 1_455 S
H1201 C1209 0.950 . S
H1202 C1207 0.950 . S
H1203 C1208 0.949 . S
H1204 C1210 0.950 . S
H1205 C1211 0.950 . S
H1206 C1212 0.949 . S
C1207 H1202 0.950 . S
C1207 C1209 1.327 . S
C1207 C1213 1.429 . S
C1208 C1200 1.574 1_655 S
C1208 H1203 0.949 . S
C1208 C1214 1.368 . S
C1209 C1193 1.349 . S
C1209 H1201 0.950 . S
C1209 C1207 1.327 . S
C1210 C1198 1.349 . S
C1210 H1204 0.950 . S
C1210 C1211 1.327 . S
C1211 H1205 0.950 . S
C1211 C1210 1.327 . S
C1211 C1215 1.429 . S
C1212 C1195 1.574 . S
C1212 H1206 0.949 . S
C1212 C1216 1.368 . S
C1213 C1194 1.429 . S
C1213 C1207 1.429 . S
C1213 C1214 1.523 . S
C1214 C1195 1.368 . S
C1214 C1208 1.368 . S
C1214 C1213 1.523 . S
C1215 C1199 1.429 . S
C1215 C1211 1.429 . S
C1215 C1216 1.523 1_455 S
C1216 C1200 1.368 1_655 S
C1216 C1212 1.368 . S
C1216 C1215 1.523 1_655 S
H1217 C1192 0.950 . S
H1218 C1194 0.950 . S
H1219 C1195 0.949 . S
H1220 C1197 0.950 . S
H1221 C1199 0.950 1_655 S
C1222 C1223 1.349 . S
C1222 C1224 1.327 . S
C1222 H1247 0.950 . S
C1223 C1222 1.349 . S
C1223 C1239 1.349 . S
C1224 C1222 1.327 . S
C1224 C1243 1.429 . S
C1224 H1248 0.950 . S
C1225 C1242 1.574 . S
C1225 C1244 1.368 . S
C1225 H1249 0.949 . S
H1226 C1230 0.949 . S
C1227 C1228 1.349 . S
C1227 C1229 1.327 . S
C1227 H1250 0.950 . S
C1228 C1227 1.349 . S
C1228 C1240 1.349 . S
C1229 C1227 1.327 . S
C1229 C1245 1.429 . S
C1229 H1251 0.950 . S
C1230 H1226 0.949 . S
C1230 C1238 1.574 . S
C1230 C1246 1.368 . S
H1231 C1239 0.950 . S
H1232 C1237 0.950 . S
H1233 C1238 0.949 . S
H1234 C1240 0.950 . S
H1235 C1241 0.950 . S
H1236 C1242 0.949 . S
C1237 H1232 0.950 . S
C1237 C1239 1.327 . S
C1237 C1243 1.429 . S
C1238 C1230 1.574 . S
C1238 H1233 0.949 . S
C1238 C1244 1.368 . S
C1239 C1223 1.349 . S
C1239 H1231 0.950 . S
C1239 C1237 1.327 . S
C1240 C1228 1.349 . S
C1240 H1234 0.950 . S
C1240 C1241 1.327 . S
C1241 H1235 0.950 . S
C1241 C1240 1.327 . S
C1241 C1245 1.429 . S
C1242 C1225 1.574 . S
C1242 H1236 0.949 . S
C1242 C1246 1.368 . S
C1243 C1224 1.429 . S
C1243 C1237 1.429 . S
C1243 C1244 1.523 . S
C1244 C1225 1.368 . S
C1244 C1238 1.368 . S
C1244 C1243 1.523 . S
C1245 C1229 1.429 . S
C1245 C1241 1.429 . S
C1245 C1246 1.523 . S
C1246 C1230 1.368 . S
C1246 C1242 1.368 . S
C1246 C1245 1.523 . S
H1247 C1222 0.950 . S
H1248 C1224 0.950 . S
H1249 C1225 0.949 . S
H1250 C1227 0.950 . S
H1251 C1229 0.950 . S
C1252 C1253 1.349 . S
C1252 C1254 1.327 . S
C1252 H1277 0.950 . S
C1253 C1252 1.349 . S
C1253 C1269 1.349 . S
C1254 C1252 1.327 . S
C1254 C1273 1.429 . S
C1254 H1278 0.950 . S
C1255 C1272 1.573 1_545 S
C1255 C1274 1.364 . S
C1255 H1279 0.954 1_545 S
H1256 C1260 0.949 . S
C1257 C1258 1.349 1_565 S
C1257 C1259 1.327 . S
C1257 H1280 0.950 . S
C1258 C1257 1.349 1_545 S
C1258 C1270 1.349 . S
C1259 C1257 1.327 . S
C1259 C1275 1.429 1_565 S
C1259 H1281 0.950 . S
C1260 H1256 0.949 . S
C1260 C1268 1.574 . S
C1260 C1276 1.368 . S
H1261 C1269 0.950 1_565 S
H1262 C1267 0.950 1_565 S
H1263 C1268 0.949 . S
H1264 C1270 0.950 . S
H1265 C1271 0.950 . S
H1266 C1272 0.949 . S
C1267 H1262 0.950 1_545 S
C1267 C1269 1.327 . S
C1267 C1273 1.429 . S
C1268 C1260 1.574 . S
C1268 H1263 0.949 . S
C1268 C1274 1.368 . S
C1269 C1253 1.349 . S
C1269 H1261 0.950 1_545 S
C1269 C1267 1.327 . S
C1270 C1258 1.349 . S
C1270 H1264 0.950 . S
C1270 C1271 1.327 . S
C1271 H1265 0.950 . S
C1271 C1270 1.327 . S
C1271 C1275 1.429 . S
C1272 C1255 1.573 1_565 S
C1272 H1266 0.949 . S
C1272 C1276 1.368 1_565 S
C1273 C1254 1.429 . S
C1273 C1267 1.429 . S
C1273 C1274 1.523 . S
C1274 C1255 1.364 . S
C1274 C1268 1.368 . S
C1274 C1273 1.523 . S
C1275 C1259 1.429 1_545 S
C1275 C1271 1.429 . S
C1275 C1276 1.523 . S
C1276 C1260 1.368 . S
C1276 C1272 1.368 1_545 S
C1276 C1275 1.523 . S
H1277 C1252 0.950 . S
H1278 C1254 0.950 . S
H1279 C1255 0.954 1_565 S
H1280 C1257 0.950 . S
H1281 C1259 0.950 . S
C1282 C1283 1.349 . S
C1282 C1284 1.327 . S
C1282 H1307 0.950 . S
C1283 C1282 1.349 . S
C1283 C1299 1.349 . S
C1284 C1282 1.327 . S
C1284 C1303 1.429 . S
C1284 H1308 0.950 . S
C1285 C1302 1.574 . S
C1285 C1304 1.368 . S
C1285 H1309 0.949 . S
H1286 C1290 0.949 . S
C1287 C1288 1.349 . S
C1287 C1289 1.327 . S
C1287 H1310 0.950 . S
C1288 C1287 1.349 . S
C1288 C1300 1.349 . S
C1289 C1287 1.327 . S
C1289 C1305 1.429 . S
C1289 H1311 0.950 . S
C1290 H1286 0.949 . S
C1290 C1298 1.574 . S
C1290 C1306 1.368 . S
H1291 C1299 0.950 . S
H1292 C1297 0.950 . S
H1293 C1298 0.949 . S
H1294 C1300 0.950 . S
H1295 C1301 0.950 . S
H1296 C1302 0.949 . S
C1297 H1292 0.950 . S
C1297 C1299 1.327 . S
C1297 C1303 1.429 . S
C1298 C1290 1.574 . S
C1298 H1293 0.949 . S
C1298 C1304 1.368 . S
C1299 C1283 1.349 . S
C1299 H1291 0.950 . S
C1299 C1297 1.327 . S
C1300 C1288 1.349 . S
C1300 H1294 0.950 . S
C1300 C1301 1.327 . S
C1301 H1295 0.950 . S
C1301 C1300 1.327 . S
C1301 C1305 1.429 . S
C1302 C1285 1.574 . S
C1302 H1296 0.949 . S
C1302 C1306 1.368 . S
C1303 C1284 1.429 . S
C1303 C1297 1.429 . S
C1303 C1304 1.523 . S
C1304 C1285 1.368 . S
C1304 C1298 1.368 . S
C1304 C1303 1.523 . S
C1305 C1289 1.429 . S
C1305 C1301 1.429 . S
C1305 C1306 1.523 . S
C1306 C1290 1.368 . S
C1306 C1302 1.368 . S
C1306 C1305 1.523 . S
H1307 C1282 0.950 . S
H1308 C1284 0.950 . S
H1309 C1285 0.949 . S
H1310 C1287 0.950 . S
H1311 C1289 0.950 . S
C1312 C1313 1.349 . S
C1312 C1314 1.327 . S
C1312 H1337 0.950 . S
C1313 C1312 1.349 . S
C1313 C1329 1.317 1_545 S
C1314 C1312 1.327 . S
C1314 C1333 1.429 . S
C1314 H1338 0.950 . S
C1315 C1332 1.574 . S
C1315 C1334 1.368 1_565 S
C1315 H1339 0.949 . S
H1316 C1320 0.949 . S
C1317 C1318 1.349 1_565 S
C1317 C1319 1.327 1_455 S
C1317 H1340 0.950 . S
C1318 C1317 1.349 1_545 S
C1318 C1330 1.349 . S
C1319 C1317 1.327 1_655 S
C1319 C1335 1.429 1_565 S
C1319 H1341 0.950 . S
C1320 H1316 0.949 . S
C1320 C1328 1.574 . S
C1320 C1336 1.368 . S
H1321 C1329 0.973 . S
H1322 C1327 0.950 . S
H1323 C1328 0.949 . S
H1324 C1330 0.950 . S
H1325 C1331 0.950 . S
H1326 C1332 0.949 . S
C1327 H1322 0.950 . S
C1327 C1329 1.337 . S
C1327 C1333 1.429 1_565 S
C1328 C1320 1.574 . S
C1328 H1323 0.949 . S
C1328 C1334 1.368 . S
C1329 C1313 1.317 1_565 S
C1329 H1321 0.973 . S
C1329 C1327 1.337 . S
C1330 C1318 1.349 . S
C1330 H1324 0.950 . S
C1330 C1331 1.327 1_455 S
C1331 H1325 0.950 . S
C1331 C1330 1.327 1_655 S
C1331 C1335 1.429 . S
C1332 C1315 1.574 . S
C1332 H1326 0.949 . S
C1332 C1336 1.368 1_565 S
C1333 C1314 1.429 . S
C1333 C1327 1.429 1_545 S
C1333 C1334 1.523 . S
C1334 C1315 1.368 1_545 S
C1334 C1328 1.368 . S
C1334 C1333 1.523 . S
C1335 C1319 1.429 1_545 S
C1335 C1331 1.429 . S
C1335 C1336 1.523 . S
C1336 C1320 1.368 . S
C1336 C1332 1.368 1_545 S
C1336 C1335 1.523 . S
H1337 C1312 0.950 . S
H1338 C1314 0.950 . S
H1339 C1315 0.949 . S
H1340 C1317 0.950 . S
H1341 C1319 0.950 . S
C1342 C1343 1.349 . S
C1342 C1344 1.327 . S
C1342 H1367 0.950 . S
C1343 C1342 1.349 . S
C1343 C1359 1.349 . S
C1344 C1342 1.327 . S
C1344 C1363 1.429 . S
C1344 H1368 0.950 . S
C1345 C1362 1.574 . S
C1345 C1364 1.368 . S
C1345 H1369 0.949 . S
H1346 C1350 0.949 . S
C1347 C1348 1.349 . S
C1347 C1349 1.327 . S
C1347 H1370 0.950 . S
C1348 C1347 1.349 . S
C1348 C1360 1.349 . S
C1349 C1347 1.327 . S
C1349 C1365 1.429 . S
C1349 H1371 0.950 . S
C1350 H1346 0.949 . S
C1350 C1358 1.574 . S
C1350 C1366 1.368 . S
H1351 C1359 0.950 . S
H1352 C1357 0.950 . S
H1353 C1358 0.949 . S
H1354 C1360 0.950 . S
H1355 C1361 0.950 . S
H1356 C1362 0.949 . S
C1357 H1352 0.950 . S
C1357 C1359 1.327 . S
C1357 C1363 1.429 . S
C1358 C1350 1.574 . S
C1358 H1353 0.949 . S
C1358 C1364 1.368 . S
C1359 C1343 1.349 . S
C1359 H1351 0.950 . S
C1359 C1357 1.327 . S
C1360 C1348 1.349 . S
C1360 H1354 0.950 . S
C1360 C1361 1.327 . S
C1361 H1355 0.950 . S
C1361 C1360 1.327 . S
C1361 C1365 1.429 . S
C1362 C1345 1.574 . S
C1362 H1356 0.949 . S
C1362 C1366 1.368 . S
C1363 C1344 1.429 . S
C1363 C1357 1.429 . S
C1363 C1364 1.523 . S
C1364 C1345 1.368 . S
C1364 C1358 1.368 . S
C1364 C1363 1.523 . S
C1365 C1349 1.429 . S
C1365 C1361 1.429 . S
C1365 C1366 1.523 . S
C1366 C1350 1.368 . S
C1366 C1362 1.368 . S
C1366 C1365 1.523 . S
H1367 C1342 0.950 . S
H1368 C1344 0.950 . S
H1369 C1345 0.949 . S
H1370 C1347 0.950 . S
H1371 C1349 0.950 . S
C1372 C1373 1.349 . S
C1372 C1374 1.327 . S
C1372 H1397 0.950 . S
C1373 C1372 1.349 . S
C1373 C1389 1.349 . S
C1374 C1372 1.327 . S
C1374 C1393 1.429 . S
C1374 H1398 0.950 . S
C1375 C1392 1.574 . S
C1375 C1394 1.368 . S
C1375 H1399 0.949 . S
H1376 C1380 0.949 . S
C1377 C1378 1.349 . S
C1377 C1379 1.327 . S
C1377 H1400 0.950 . S
C1378 C1377 1.349 . S
C1378 C1390 1.349 . S
C1379 C1377 1.327 . S
C1379 C1395 1.429 . S
C1379 H1401 0.950 . S
C1380 H1376 0.949 . S
C1380 C1388 1.574 . S
C1380 C1396 1.368 . S
H1381 C1389 0.950 . S
H1382 C1387 0.950 . S
H1383 C1388 0.949 . S
H1384 C1390 0.950 . S
H1385 C1391 0.950 . S
H1386 C1392 0.949 . S
C1387 H1382 0.950 . S
C1387 C1389 1.327 . S
C1387 C1393 1.429 . S
C1388 C1380 1.574 . S
C1388 H1383 0.949 . S
C1388 C1394 1.368 . S
C1389 C1373 1.349 . S
C1389 H1381 0.950 . S
C1389 C1387 1.327 . S
C1390 C1378 1.349 . S
C1390 H1384 0.950 . S
C1390 C1391 1.327 . S
C1391 H1385 0.950 . S
C1391 C1390 1.327 . S
C1391 C1395 1.429 . S
C1392 C1375 1.574 . S
C1392 H1386 0.949 . S
C1392 C1396 1.368 . S
C1393 C1374 1.429 . S
C1393 C1387 1.429 . S
C1393 C1394 1.523 . S
C1394 C1375 1.368 . S
C1394 C1388 1.368 . S
C1394 C1393 1.523 . S
C1395 C1379 1.429 . S
C1395 C1391 1.429 . S
C1395 C1396 1.523 . S
C1396 C1380 1.368 . S
C1396 C1392 1.368 . S
C1396 C1395 1.523 . S
H1397 C1372 0.950 . S
H1398 C1374 0.950 . S
H1399 C1375 0.949 . S
H1400 C1377 0.950 . S
H1401 C1379 0.950 . S
C1402 C1403 1.349 . S
C1402 C1404 1.327 . S
C1402 H1427 0.950 . S
C1403 C1402 1.349 . S
C1403 C1419 1.349 . S
C1404 C1402 1.327 . S
C1404 C1423 1.429 . S
C1404 H1428 0.950 . S
C1405 C1422 1.574 . S
C1405 C1424 1.368 . S
C1405 H1429 0.949 . S
H1406 C1410 0.949 . S
C1407 C1408 1.349 . S
C1407 C1409 1.327 . S
C1407 H1430 0.950 . S
C1408 C1407 1.349 . S
C1408 C1420 1.349 . S
C1409 C1407 1.327 . S
C1409 C1425 1.429 . S
C1409 H1431 0.950 . S
C1410 H1406 0.949 . S
C1410 C1418 1.574 . S
C1410 C1426 1.368 . S
H1411 C1419 0.950 . S
H1412 C1417 0.950 . S
H1413 C1418 0.949 . S
H1414 C1420 0.950 . S
H1415 C1421 0.950 . S
H1416 C1422 0.949 . S
C1417 H1412 0.950 . S
C1417 C1419 1.327 . S
C1417 C1423 1.429 . S
C1418 C1410 1.574 . S
C1418 H1413 0.949 . S
C1418 C1424 1.368 . S
C1419 C1403 1.349 . S
C1419 H1411 0.950 . S
C1419 C1417 1.327 . S
C1420 C1408 1.349 . S
C1420 H1414 0.950 . S
C1420 C1421 1.327 . S
C1421 H1415 0.950 . S
C1421 C1420 1.327 . S
C1421 C1425 1.429 . S
C1422 C1405 1.574 . S
C1422 H1416 0.949 . S
C1422 C1426 1.368 . S
C1423 C1404 1.429 . S
C1423 C1417 1.429 . S
C1423 C1424 1.523 . S
C1424 C1405 1.368 . S
C1424 C1418 1.368 . S
C1424 C1423 1.523 . S
C1425 C1409 1.429 . S
C1425 C1421 1.429 . S
C1425 C1426 1.523 . S
C1426 C1410 1.368 . S
C1426 C1422 1.368 . S
C1426 C1425 1.523 . S
H1427 C1402 0.950 . S
H1428 C1404 0.950 . S
H1429 C1405 0.949 . S
H1430 C1407 0.950 . S
H1431 C1409 0.950 . S
C1432 C1433 1.349 . S
C1432 C1434 1.327 . S
C1432 H1457 0.950 . S
C1433 C1432 1.349 . S
C1433 C1449 1.349 . S
C1434 C1432 1.327 . S
C1434 C1453 1.429 . S
C1434 H1458 0.950 . S
C1435 C1452 1.574 . S
C1435 C1454 1.368 . S
C1435 H1459 0.949 . S
H1436 C1440 0.949 . S
C1437 C1438 1.349 . S
C1437 C1439 1.327 1_545 S
C1437 H1460 0.950 1_545 S
C1438 C1437 1.349 . S
C1438 C1450 1.349 . S
C1439 C1437 1.327 1_565 S
C1439 C1455 1.429 1_565 S
C1439 H1461 0.950 . S
C1440 H1436 0.949 . S
C1440 C1448 1.574 1_545 S
C1440 C1456 1.368 1_545 S
H1441 C1449 0.950 . S
H1442 C1447 0.950 . S
H1443 C1448 0.946 1_545 S
H1444 C1450 0.950 . S
H1445 C1451 0.950 . S
H1446 C1452 0.949 . S
C1447 H1442 0.950 . S
C1447 C1449 1.327 . S
C1447 C1453 1.429 . S
C1448 C1440 1.574 1_565 S
C1448 H1443 0.946 1_565 S
C1448 C1454 1.368 . S
C1449 C1433 1.349 . S
C1449 H1441 0.950 . S
C1449 C1447 1.327 . S
C1450 C1438 1.349 . S
C1450 H1444 0.950 . S
C1450 C1451 1.327 . S
C1451 H1445 0.950 . S
C1451 C1450 1.327 . S
C1451 C1455 1.429 . S
C1452 C1435 1.574 . S
C1452 H1446 0.949 . S
C1452 C1456 1.368 . S
C1453 C1434 1.429 . S
C1453 C1447 1.429 . S
C1453 C1454 1.523 . S
C1454 C1435 1.368 . S
C1454 C1448 1.368 . S
C1454 C1453 1.523 . S
C1455 C1439 1.429 1_545 S
C1455 C1451 1.429 . S
C1455 C1456 1.523 1_545 S
C1456 C1440 1.368 1_565 S
C1456 C1452 1.368 . S
C1456 C1455 1.523 1_565 S
H1457 C1432 0.950 . S
H1458 C1434 0.950 . S
H1459 C1435 0.949 . S
H1460 C1437 0.950 1_565 S
H1461 C1439 0.950 . S
C1462 C1463 1.349 . S
C1462 C1464 1.327 . S
C1462 H1487 0.950 . S
C1463 C1462 1.349 . S
C1463 C1479 1.349 . S
C1464 C1462 1.327 . S
C1464 C1483 1.429 . S
C1464 H1488 0.950 . S
C1465 C1482 1.569 . S
C1465 C1484 1.368 . S
C1465 H1489 0.949 1_554 S
H1466 C1470 0.949 . S
C1467 C1468 1.349 . S
C1467 C1469 1.327 . S
C1467 H1490 0.950 1_554 S
C1468 C1467 1.349 . S
C1468 C1480 1.349 . S
C1469 C1467 1.327 . S
C1469 C1485 1.429 . S
C1469 H1491 0.950 1_554 S
C1470 H1466 0.949 . S
C1470 C1478 1.574 . S
C1470 C1486 1.368 . S
H1471 C1479 0.950 1_556 S
H1472 C1477 0.950 1_556 S
H1473 C1478 0.949 . S
H1474 C1480 0.950 . S
H1475 C1481 0.950 . S
H1476 C1482 0.914 1_556 S
C1477 H1472 0.950 1_554 S
C1477 C1479 1.327 . S
C1477 C1483 1.429 . S
C1478 C1470 1.574 . S
C1478 H1473 0.949 . S
C1478 C1484 1.368 . S
C1479 C1463 1.349 . S
C1479 H1471 0.950 1_554 S
C1479 C1477 1.327 . S
C1480 C1468 1.349 . S
C1480 H1474 0.950 . S
C1480 C1481 1.327 . S
C1481 H1475 0.950 . S
C1481 C1480 1.327 . S
C1481 C1485 1.429 . S
C1482 C1465 1.569 . S
C1482 H1476 0.914 1_554 S
C1482 C1486 1.414 . S
C1483 C1464 1.429 . S
C1483 C1477 1.429 . S
C1483 C1484 1.523 . S
C1484 C1465 1.368 . S
C1484 C1478 1.368 . S
C1484 C1483 1.523 . S
C1485 C1469 1.429 . S
C1485 C1481 1.429 . S
C1485 C1486 1.523 . S
C1486 C1470 1.368 . S
C1486 C1482 1.414 . S
C1486 C1485 1.523 . S
H1487 C1462 0.950 . S
H1488 C1464 0.950 . S
H1489 C1465 0.949 1_556 S
H1490 C1467 0.950 1_556 S
H1491 C1469 0.950 1_556 S
C1492 C1493 1.349 . S
C1492 C1494 1.327 . S
C1492 H1517 0.950 . S
C1493 C1492 1.349 . S
C1493 C1509 1.349 . S
C1494 C1492 1.327 . S
C1494 C1513 1.429 . S
C1494 H1518 0.950 . S
C1495 C1512 1.574 . S
C1495 C1514 1.368 . S
C1495 H1519 0.949 . S
H1496 C1500 0.949 . S
C1497 C1498 1.349 . S
C1497 C1499 1.327 . S
C1497 H1520 0.950 . S
C1498 C1497 1.349 . S
C1498 C1510 1.349 . S
C1499 C1497 1.327 . S
C1499 C1515 1.429 . S
C1499 H1521 0.950 . S
C1500 H1496 0.949 . S
C1500 C1508 1.574 . S
C1500 C1516 1.368 . S
H1501 C1509 0.950 . S
H1502 C1507 0.950 . S
H1503 C1508 0.949 . S
H1504 C1510 0.950 . S
H1505 C1511 0.950 . S
H1506 C1512 0.949 . S
C1507 H1502 0.950 . S
C1507 C1509 1.327 . S
C1507 C1513 1.429 . S
C1508 C1500 1.574 . S
C1508 H1503 0.949 . S
C1508 C1514 1.368 . S
C1509 C1493 1.349 . S
C1509 H1501 0.950 . S
C1509 C1507 1.327 . S
C1510 C1498 1.349 . S
C1510 H1504 0.950 . S
C1510 C1511 1.327 . S
C1511 H1505 0.950 . S
C1511 C1510 1.327 . S
C1511 C1515 1.429 . S
C1512 C1495 1.574 . S
C1512 H1506 0.949 . S
C1512 C1516 1.368 . S
C1513 C1494 1.429 . S
C1513 C1507 1.429 . S
C1513 C1514 1.523 . S
C1514 C1495 1.368 . S
C1514 C1508 1.368 . S
C1514 C1513 1.523 . S
C1515 C1499 1.429 . S
C1515 C1511 1.429 . S
C1515 C1516 1.523 . S
C1516 C1500 1.368 . S
C1516 C1512 1.368 . S
C1516 C1515 1.523 . S
H1517 C1492 0.950 . S
H1518 C1494 0.950 . S
H1519 C1495 0.949 . S
H1520 C1497 0.950 . S
H1521 C1499 0.950 . S
C1522 C1523 1.349 . S
C1522 C1524 1.327 . S
C1522 H1547 0.950 . S
C1523 C1522 1.349 . S
C1523 C1539 1.349 . S
C1524 C1522 1.327 . S
C1524 C1543 1.429 . S
C1524 H1548 0.950 . S
C1525 C1542 1.574 . S
C1525 C1544 1.368 . S
C1525 H1549 0.949 . S
H1526 C1530 0.949 . S
C1527 C1528 1.349 . S
C1527 C1529 1.327 . S
C1527 H1550 0.950 . S
C1528 C1527 1.349 . S
C1528 C1540 1.349 . S
C1529 C1527 1.327 . S
C1529 C1545 1.429 . S
C1529 H1551 0.950 . S
C1530 H1526 0.949 . S
C1530 C1538 1.574 . S
C1530 C1546 1.368 . S
H1531 C1539 0.950 . S
H1532 C1537 0.950 . S
H1533 C1538 0.949 . S
H1534 C1540 0.950 . S
H1535 C1541 0.950 . S
H1536 C1542 0.949 . S
C1537 H1532 0.950 . S
C1537 C1539 1.327 . S
C1537 C1543 1.429 . S
C1538 C1530 1.574 . S
C1538 H1533 0.949 . S
C1538 C1544 1.368 . S
C1539 C1523 1.349 . S
C1539 H1531 0.950 . S
C1539 C1537 1.327 . S
C1540 C1528 1.349 . S
C1540 H1534 0.950 . S
C1540 C1541 1.327 . S
C1541 H1535 0.950 . S
C1541 C1540 1.327 . S
C1541 C1545 1.429 . S
C1542 C1525 1.574 . S
C1542 H1536 0.949 . S
C1542 C1546 1.368 . S
C1543 C1524 1.429 . S
C1543 C1537 1.429 . S
C1543 C1544 1.523 . S
C1544 C1525 1.368 . S
C1544 C1538 1.368 . S
C1544 C1543 1.523 . S
C1545 C1529 1.429 . S
C1545 C1541 1.429 . S
C1545 C1546 1.523 . S
C1546 C1530 1.368 . S
C1546 C1542 1.368 . S
C1546 C1545 1.523 . S
H1547 C1522 0.950 . S
H1548 C1524 0.950 . S
H1549 C1525 0.949 . S
H1550 C1527 0.950 . S
H1551 C1529 0.950 . S
C1552 C1553 1.349 . S
C1552 C1554 1.327 . S
C1552 H1577 0.950 . S
C1553 C1552 1.349 . S
C1553 C1569 1.349 . S
C1554 C1552 1.327 . S
C1554 C1573 1.429 . S
C1554 H1578 0.950 . S
C1555 C1572 1.574 . S
C1555 C1574 1.368 . S
C1555 H1579 0.949 . S
H1556 C1560 0.949 . S
C1557 C1558 1.349 . S
C1557 C1559 1.327 . S
C1557 H1580 0.950 . S
C1558 C1557 1.349 . S
C1558 C1570 1.349 . S
C1559 C1557 1.327 . S
C1559 C1575 1.429 . S
C1559 H1581 0.950 . S
C1560 H1556 0.949 . S
C1560 C1568 1.574 . S
C1560 C1576 1.368 . S
H1561 C1569 0.950 . S
H1562 C1567 0.950 . S
H1563 C1568 0.949 . S
H1564 C1570 0.950 . S
H1565 C1571 0.950 . S
H1566 C1572 0.949 . S
C1567 H1562 0.950 . S
C1567 C1569 1.327 . S
C1567 C1573 1.429 . S
C1568 C1560 1.574 . S
C1568 H1563 0.949 . S
C1568 C1574 1.368 . S
C1569 C1553 1.349 . S
C1569 H1561 0.950 . S
C1569 C1567 1.327 . S
C1570 C1558 1.349 . S
C1570 H1564 0.950 . S
C1570 C1571 1.327 . S
C1571 H1565 0.950 . S
C1571 C1570 1.327 . S
C1571 C1575 1.429 . S
C1572 C1555 1.574 . S
C1572 H1566 0.949 . S
C1572 C1576 1.368 . S
C1573 C1554 1.429 . S
C1573 C1567 1.429 . S
C1573 C1574 1.523 . S
C1574 C1555 1.368 . S
C1574 C1568 1.368 . S
C1574 C1573 1.523 . S
C1575 C1559 1.429 . S
C1575 C1571 1.429 . S
C1575 C1576 1.523 . S
C1576 C1560 1.368 . S
C1576 C1572 1.368 . S
C1576 C1575 1.523 . S
H1577 C1552 0.950 . S
H1578 C1554 0.950 . S
H1579 C1555 0.949 . S
H1580 C1557 0.950 . S
H1581 C1559 0.950 . S
C1582 C1583 1.349 . S
C1582 C1584 1.327 . S
C1582 H1607 0.950 . S
C1583 C1582 1.349 . S
C1583 C1599 1.349 . S
C1584 C1582 1.327 . S
C1584 C1603 1.429 . S
C1584 H1608 0.950 . S
C1585 C1602 1.574 . S
C1585 C1604 1.368 . S
C1585 H1609 0.949 . S
H1586 C1590 0.949 . S
C1587 C1588 1.349 . S
C1587 C1589 1.327 . S
C1587 H1610 0.950 . S
C1588 C1587 1.349 . S
C1588 C1600 1.349 . S
C1589 C1587 1.327 . S
C1589 C1605 1.429 . S
C1589 H1611 0.950 . S
C1590 H1586 0.949 . S
C1590 C1598 1.574 . S
C1590 C1606 1.368 . S
H1591 C1599 0.950 . S
H1592 C1597 0.950 . S
H1593 C1598 0.949 . S
H1594 C1600 0.950 . S
H1595 C1601 0.950 . S
H1596 C1602 0.949 . S
C1597 H1592 0.950 . S
C1597 C1599 1.327 . S
C1597 C1603 1.429 . S
C1598 C1590 1.574 . S
C1598 H1593 0.949 . S
C1598 C1604 1.368 . S
C1599 C1583 1.349 . S
C1599 H1591 0.950 . S
C1599 C1597 1.327 . S
C1600 C1588 1.349 . S
C1600 H1594 0.950 . S
C1600 C1601 1.327 . S
C1601 H1595 0.950 . S
C1601 C1600 1.327 . S
C1601 C1605 1.429 . S
C1602 C1585 1.574 . S
C1602 H1596 0.949 . S
C1602 C1606 1.368 . S
C1603 C1584 1.429 . S
C1603 C1597 1.429 . S
C1603 C1604 1.523 . S
C1604 C1585 1.368 . S
C1604 C1598 1.368 . S
C1604 C1603 1.523 . S
C1605 C1589 1.429 . S
C1605 C1601 1.429 . S
C1605 C1606 1.523 . S
C1606 C1590 1.368 . S
C1606 C1602 1.368 . S
C1606 C1605 1.523 . S
H1607 C1582 0.950 . S
H1608 C1584 0.950 . S
H1609 C1585 0.949 . S
H1610 C1587 0.950 . S
H1611 C1589 0.950 . S
C1612 C1613 1.349 . S
C1612 C1614 1.327 . S
C1612 H1637 0.950 . S
C1613 C1612 1.349 . S
C1613 C1629 1.349 . S
C1614 C1612 1.327 . S
C1614 C1633 1.429 . S
C1614 H1638 0.950 . S
C1615 C1632 1.574 . S
C1615 C1634 1.368 . S
C1615 H1639 0.949 . S
H1616 C1620 0.949 . S
C1617 C1618 1.349 . S
C1617 C1619 1.327 . S
C1617 H1640 0.950 . S
C1618 C1617 1.349 . S
C1618 C1630 1.349 . S
C1619 C1617 1.327 . S
C1619 C1635 1.429 . S
C1619 H1641 0.950 . S
C1620 H1616 0.949 . S
C1620 C1628 1.574 . S
C1620 C1636 1.368 . S
H1621 C1629 0.950 . S
H1622 C1627 0.950 . S
H1623 C1628 0.949 . S
H1624 C1630 0.950 . S
H1625 C1631 0.950 . S
H1626 C1632 0.949 . S
C1627 H1622 0.950 . S
C1627 C1629 1.327 . S
C1627 C1633 1.429 . S
C1628 C1620 1.574 . S
C1628 H1623 0.949 . S
C1628 C1634 1.368 . S
C1629 C1613 1.349 . S
C1629 H1621 0.950 . S
C1629 C1627 1.327 . S
C1630 C1618 1.349 . S
C1630 H1624 0.950 . S
C1630 C1631 1.327 . S
C1631 H1625 0.950 . S
C1631 C1630 1.327 . S
C1631 C1635 1.429 . S
C1632 C1615 1.574 . S
C1632 H1626 0.949 . S
C1632 C1636 1.368 . S
C1633 C1614 1.429 . S
C1633 C1627 1.429 . S
C1633 C1634 1.523 . S
C1634 C1615 1.368 . S
C1634 C1628 1.368 . S
C1634 C1633 1.523 . S
C1635 C1619 1.429 . S
C1635 C1631 1.429 . S
C1635 C1636 1.523 . S
C1636 C1620 1.368 . S
C1636 C1632 1.368 . S
C1636 C1635 1.523 . S
H1637 C1612 0.950 . S
H1638 C1614 0.950 . S
H1639 C1615 0.949 . S
H1640 C1617 0.950 . S
H1641 C1619 0.950 . S
C1642 C1643 1.349 . S
C1642 C1644 1.327 . S
C1642 H1667 0.950 . S
C1643 C1642 1.349 . S
C1643 C1659 1.349 . S
C1644 C1642 1.327 . S
C1644 C1663 1.429 . S
C1644 H1668 0.950 . S
C1645 C1662 1.574 . S
C1645 C1664 1.368 . S
C1645 H1669 0.949 . S
H1646 C1650 0.949 . S
C1647 C1648 1.349 . S
C1647 C1649 1.327 . S
C1647 H1670 0.950 . S
C1648 C1647 1.349 . S
C1648 C1660 1.349 . S
C1649 C1647 1.327 . S
C1649 C1665 1.429 . S
C1649 H1671 0.950 . S
C1650 H1646 0.949 . S
C1650 C1658 1.574 . S
C1650 C1666 1.368 . S
H1651 C1659 0.950 . S
H1652 C1657 0.950 . S
H1653 C1658 0.949 . S
H1654 C1660 0.950 . S
H1655 C1661 0.950 . S
H1656 C1662 0.949 . S
C1657 H1652 0.950 . S
C1657 C1659 1.327 . S
C1657 C1663 1.429 . S
C1658 C1650 1.574 . S
C1658 H1653 0.949 . S
C1658 C1664 1.368 . S
C1659 C1643 1.349 . S
C1659 H1651 0.950 . S
C1659 C1657 1.327 . S
C1660 C1648 1.349 . S
C1660 H1654 0.950 . S
C1660 C1661 1.327 . S
C1661 H1655 0.950 . S
C1661 C1660 1.327 . S
C1661 C1665 1.429 . S
C1662 C1645 1.574 . S
C1662 H1656 0.949 . S
C1662 C1666 1.368 . S
C1663 C1644 1.429 . S
C1663 C1657 1.429 . S
C1663 C1664 1.523 . S
C1664 C1645 1.368 . S
C1664 C1658 1.368 . S
C1664 C1663 1.523 . S
C1665 C1649 1.429 . S
C1665 C1661 1.429 . S
C1665 C1666 1.523 . S
C1666 C1650 1.368 . S
C1666 C1662 1.368 . S
C1666 C1665 1.523 . S
H1667 C1642 0.950 . S
H1668 C1644 0.950 . S
H1669 C1645 0.949 . S
H1670 C1647 0.950 . S
H1671 C1649 0.950 . S
C1672 C1673 1.349 . S
C1672 C1674 1.327 . S
C1672 H1697 0.950 . S
C1673 C1672 1.349 . S
C1673 C1689 1.349 . S
C1674 C1672 1.327 . S
C1674 C1693 1.429 . S
C1674 H1698 0.950 . S
C1675 C1692 1.574 . S
C1675 C1694 1.368 . S
C1675 H1699 0.949 . S
H1676 C1680 0.949 . S
C1677 C1678 1.349 . S
C1677 C1679 1.327 . S
C1677 H1700 0.950 . S
C1678 C1677 1.349 . S
C1678 C1690 1.349 . S
C1679 C1677 1.327 . S
C1679 C1695 1.429 . S
C1679 H1701 0.950 . S
C1680 H1676 0.949 . S
C1680 C1688 1.574 . S
C1680 C1696 1.368 . S
H1681 C1689 0.950 . S
H1682 C1687 0.950 . S
H1683 C1688 0.949 . S
H1684 C1690 0.950 . S
H1685 C1691 0.950 . S
H1686 C1692 0.949 . S
C1687 H1682 0.950 . S
C1687 C1689 1.327 . S
C1687 C1693 1.429 . S
C1688 C1680 1.574 . S
C1688 H1683 0.949 . S
C1688 C1694 1.368 . S
C1689 C1673 1.349 . S
C1689 H1681 0.950 . S
C1689 C1687 1.327 . S
C1690 C1678 1.349 . S
C1690 H1684 0.950 . S
C1690 C1691 1.327 . S
C1691 H1685 0.950 . S
C1691 C1690 1.327 . S
C1691 C1695 1.429 . S
C1692 C1675 1.574 . S
C1692 H1686 0.949 . S
C1692 C1696 1.368 . S
C1693 C1674 1.429 . S
C1693 C1687 1.429 . S
C1693 C1694 1.523 . S
C1694 C1675 1.368 . S
C1694 C1688 1.368 . S
C1694 C1693 1.523 . S
C1695 C1679 1.429 . S
C1695 C1691 1.429 . S
C1695 C1696 1.523 . S
C1696 C1680 1.368 . S
C1696 C1692 1.368 . S
C1696 C1695 1.523 . S
H1697 C1672 0.950 . S
H1698 C1674 0.950 . S
H1699 C1675 0.949 . S
H1700 C1677 0.950 . S
H1701 C1679 0.950 . S
C1702 C1703 1.349 . S
C1702 C1704 1.327 . S
C1702 H1727 0.950 . S
C1703 C1702 1.349 . S
C1703 C1719 1.349 . S
C1704 C1702 1.327 . S
C1704 C1723 1.429 . S
C1704 H1728 0.950 . S
C1705 C1722 1.574 . S
C1705 C1724 1.368 . S
C1705 H1729 0.949 . S
H1706 C1710 0.949 . S
C1707 C1708 1.349 . S
C1707 C1709 1.327 . S
C1707 H1730 0.950 . S
C1708 C1707 1.349 . S
C1708 C1720 1.349 . S
C1709 C1707 1.327 . S
C1709 C1725 1.429 . S
C1709 H1731 0.950 . S
C1710 H1706 0.949 . S
C1710 C1718 1.574 . S
C1710 C1726 1.368 . S
H1711 C1719 0.950 . S
H1712 C1717 0.950 . S
H1713 C1718 0.949 . S
H1714 C1720 0.950 . S
H1715 C1721 0.950 . S
H1716 C1722 0.949 . S
C1717 H1712 0.950 . S
C1717 C1719 1.327 . S
C1717 C1723 1.429 . S
C1718 C1710 1.574 . S
C1718 H1713 0.949 . S
C1718 C1724 1.368 . S
C1719 C1703 1.349 . S
C1719 H1711 0.950 . S
C1719 C1717 1.327 . S
C1720 C1708 1.349 . S
C1720 H1714 0.950 . S
C1720 C1721 1.327 . S
C1721 H1715 0.950 . S
C1721 C1720 1.327 . S
C1721 C1725 1.429 . S
C1722 C1705 1.574 . S
C1722 H1716 0.949 . S
C1722 C1726 1.368 . S
C1723 C1704 1.429 . S
C1723 C1717 1.429 . S
C1723 C1724 1.523 . S
C1724 C1705 1.368 . S
C1724 C1718 1.368 . S
C1724 C1723 1.523 . S
C1725 C1709 1.429 . S
C1725 C1721 1.429 . S
C1725 C1726 1.523 . S
C1726 C1710 1.368 . S
C1726 C1722 1.368 . S
C1726 C1725 1.523 . S
H1727 C1702 0.950 . S
H1728 C1704 0.950 . S
H1729 C1705 0.949 . S
H1730 C1707 0.950 . S
H1731 C1709 0.950 . S
C1732 C1733 1.349 . S
C1732 C1734 1.327 . S
C1732 H1757 0.950 . S
C1733 C1732 1.349 . S
C1733 C1749 1.349 . S
C1734 C1732 1.327 . S
C1734 C1753 1.429 . S
C1734 H1758 0.950 . S
C1735 C1752 1.574 . S
C1735 C1754 1.368 . S
C1735 H1759 0.949 . S
H1736 C1740 0.949 . S
C1737 C1738 1.349 . S
C1737 C1739 1.327 . S
C1737 H1760 0.950 . S
C1738 C1737 1.349 . S
C1738 C1750 1.349 . S
C1739 C1737 1.327 . S
C1739 C1755 1.429 . S
C1739 H1761 0.950 . S
C1740 H1736 0.949 . S
C1740 C1748 1.574 . S
C1740 C1756 1.368 . S
H1741 C1749 0.950 . S
H1742 C1747 0.950 . S
H1743 C1748 0.949 . S
H1744 C1750 0.950 . S
H1745 C1751 0.950 . S
H1746 C1752 0.949 . S
C1747 H1742 0.950 . S
C1747 C1749 1.327 . S
C1747 C1753 1.429 . S
C1748 C1740 1.574 . S
C1748 H1743 0.949 . S
C1748 C1754 1.368 . S
C1749 C1733 1.349 . S
C1749 H1741 0.950 . S
C1749 C1747 1.327 . S
C1750 C1738 1.349 . S
C1750 H1744 0.950 . S
C1750 C1751 1.327 . S
C1751 H1745 0.950 . S
C1751 C1750 1.327 . S
C1751 C1755 1.429 . S
C1752 C1735 1.574 . S
C1752 H1746 0.949 . S
C1752 C1756 1.368 . S
C1753 C1734 1.429 . S
C1753 C1747 1.429 . S
C1753 C1754 1.523 . S
C1754 C1735 1.368 . S
C1754 C1748 1.368 . S
C1754 C1753 1.523 . S
C1755 C1739 1.429 . S
C1755 C1751 1.429 . S
C1755 C1756 1.523 . S
C1756 C1740 1.368 . S
C1756 C1752 1.368 . S
C1756 C1755 1.523 . S
H1757 C1732 0.950 . S
H1758 C1734 0.950 . S
H1759 C1735 0.949 . S
H1760 C1737 0.950 . S
H1761 C1739 0.950 . S
C1762 C1763 1.349 . S
C1762 C1764 1.327 . S
C1762 H1787 0.950 . S
C1763 C1762 1.349 . S
C1763 C1779 1.349 . S
C1764 C1762 1.327 . S
C1764 C1783 1.429 . S
C1764 H1788 0.950 . S
C1765 C1782 1.574 . S
C1765 C1784 1.368 . S
C1765 H1789 0.949 . S
H1766 C1770 0.949 . S
C1767 C1768 1.349 . S
C1767 C1769 1.327 . S
C1767 H1790 0.950 . S
C1768 C1767 1.349 . S
C1768 C1780 1.349 . S
C1769 C1767 1.327 . S
C1769 C1785 1.429 . S
C1769 H1791 0.950 . S
C1770 H1766 0.949 . S
C1770 C1778 1.574 . S
C1770 C1786 1.368 . S
H1771 C1779 0.950 . S
H1772 C1777 0.950 . S
H1773 C1778 0.949 . S
H1774 C1780 0.950 . S
H1775 C1781 0.950 . S
H1776 C1782 0.949 . S
C1777 H1772 0.950 . S
C1777 C1779 1.327 . S
C1777 C1783 1.429 . S
C1778 C1770 1.574 . S
C1778 H1773 0.949 . S
C1778 C1784 1.368 . S
C1779 C1763 1.349 . S
C1779 H1771 0.950 . S
C1779 C1777 1.327 . S
C1780 C1768 1.349 . S
C1780 H1774 0.950 . S
C1780 C1781 1.327 . S
C1781 H1775 0.950 . S
C1781 C1780 1.327 . S
C1781 C1785 1.429 . S
C1782 C1765 1.574 . S
C1782 H1776 0.949 . S
C1782 C1786 1.368 . S
C1783 C1764 1.429 . S
C1783 C1777 1.429 . S
C1783 C1784 1.523 . S
C1784 C1765 1.368 . S
C1784 C1778 1.368 . S
C1784 C1783 1.523 . S
C1785 C1769 1.429 . S
C1785 C1781 1.429 . S
C1785 C1786 1.523 . S
C1786 C1770 1.368 . S
C1786 C1782 1.368 . S
C1786 C1785 1.523 . S
H1787 C1762 0.950 . S
H1788 C1764 0.950 . S
H1789 C1765 0.949 . S
H1790 C1767 0.950 . S
H1791 C1769 0.950 . S
C1792 C1793 1.349 . S
C1792 C1794 1.327 . S
C1792 H1817 0.950 . S
C1793 C1792 1.349 . S
C1793 C1809 1.349 . S
C1794 C1792 1.327 . S
C1794 C1813 1.429 . S
C1794 H1818 0.950 . S
C1795 C1812 1.574 . S
C1795 C1814 1.368 . S
C1795 H1819 0.949 . S
H1796 C1800 0.949 . S
C1797 C1798 1.349 . S
C1797 C1799 1.327 . S
C1797 H1820 0.950 . S
C1798 C1797 1.349 . S
C1798 C1810 1.349 . S
C1799 C1797 1.327 . S
C1799 C1815 1.429 . S
C1799 H1821 0.950 . S
C1800 H1796 0.949 . S
C1800 C1808 1.574 . S
C1800 C1816 1.368 . S
H1801 C1809 0.950 . S
H1802 C1807 0.950 . S
H1803 C1808 0.949 . S
H1804 C1810 0.950 . S
H1805 C1811 0.950 . S
H1806 C1812 0.949 . S
C1807 H1802 0.950 . S
C1807 C1809 1.327 . S
C1807 C1813 1.429 . S
C1808 C1800 1.574 . S
C1808 H1803 0.949 . S
C1808 C1814 1.368 . S
C1809 C1793 1.349 . S
C1809 H1801 0.950 . S
C1809 C1807 1.327 . S
C1810 C1798 1.349 . S
C1810 H1804 0.950 . S
C1810 C1811 1.327 . S
C1811 H1805 0.950 . S
C1811 C1810 1.327 . S
C1811 C1815 1.429 . S
C1812 C1795 1.574 . S
C1812 H1806 0.949 . S
C1812 C1816 1.368 . S
C1813 C1794 1.429 . S
C1813 C1807 1.429 . S
C1813 C1814 1.523 . S
C1814 C1795 1.368 . S
C1814 C1808 1.368 . S
C1814 C1813 1.523 . S
C1815 C1799 1.429 . S
C1815 C1811 1.429 . S
C1815 C1816 1.523 . S
C1816 C1800 1.368 . S
C1816 C1812 1.368 . S
C1816 C1815 1.523 . S
H1817 C1792 0.950 . S
H1818 C1794 0.950 . S
H1819 C1795 0.949 . S
H1820 C1797 0.950 . S
H1821 C1799 0.950 . S
C1822 C1823 1.349 . S
C1822 C1824 1.327 . S
C1822 H1847 0.950 . S
C1823 C1822 1.349 . S
C1823 C1839 1.349 . S
C1824 C1822 1.327 . S
C1824 C1843 1.429 . S
C1824 H1848 0.950 . S
C1825 C1842 1.574 . S
C1825 C1844 1.368 . S
C1825 H1849 0.949 . S
H1826 C1830 0.949 . S
C1827 C1828 1.349 . S
C1827 C1829 1.327 . S
C1827 H1850 0.950 . S
C1828 C1827 1.349 . S
C1828 C1840 1.349 . S
C1829 C1827 1.327 . S
C1829 C1845 1.429 . S
C1829 H1851 0.950 . S
C1830 H1826 0.949 . S
C1830 C1838 1.574 . S
C1830 C1846 1.368 . S
H1831 C1839 0.950 . S
H1832 C1837 0.950 . S
H1833 C1838 0.949 . S
H1834 C1840 0.950 . S
H1835 C1841 0.950 . S
H1836 C1842 0.949 . S
C1837 H1832 0.950 . S
C1837 C1839 1.327 . S
C1837 C1843 1.429 . S
C1838 C1830 1.574 . S
C1838 H1833 0.949 . S
C1838 C1844 1.368 . S
C1839 C1823 1.349 . S
C1839 H1831 0.950 . S
C1839 C1837 1.327 . S
C1840 C1828 1.349 . S
C1840 H1834 0.950 . S
C1840 C1841 1.327 . S
C1841 H1835 0.950 . S
C1841 C1840 1.327 . S
C1841 C1845 1.429 . S
C1842 C1825 1.574 . S
C1842 H1836 0.949 . S
C1842 C1846 1.368 . S
C1843 C1824 1.429 . S
C1843 C1837 1.429 . S
C1843 C1844 1.523 . S
C1844 C1825 1.368 . S
C1844 C1838 1.368 . S
C1844 C1843 1.523 . S
C1845 C1829 1.429 . S
C1845 C1841 1.429 . S
C1845 C1846 1.523 . S
C1846 C1830 1.368 . S
C1846 C1842 1.368 . S
C1846 C1845 1.523 . S
H1847 C1822 0.950 . S
H1848 C1824 0.950 . S
H1849 C1825 0.949 . S
H1850 C1827 0.950 . S
H1851 C1829 0.950 . S
C1852 C1853 1.349 . S
C1852 C1854 1.327 . S
C1852 H1877 0.950 . S
C1853 C1852 1.349 . S
C1853 C1869 1.349 . S
C1854 C1852 1.327 . S
C1854 C1873 1.429 . S
C1854 H1878 0.950 . S
C1855 C1872 1.574 . S
C1855 C1874 1.368 . S
C1855 H1879 0.949 . S
H1856 C1860 0.949 . S
C1857 C1858 1.349 . S
C1857 C1859 1.327 . S
C1857 H1880 0.952 . S
C1858 C1857 1.349 . S
C1858 C1870 1.349 . S
C1859 C1857 1.327 . S
C1859 C1875 1.429 . S
C1859 H1881 0.950 . S
C1860 H1856 0.949 . S
C1860 C1868 1.574 . S
C1860 C1876 1.368 . S
H1861 C1869 0.950 . S
H1862 C1867 0.950 . S
H1863 C1868 0.949 . S
H1864 C1870 0.950 . S
H1865 C1871 0.950 . S
H1866 C1872 0.949 . S
C1867 H1862 0.950 . S
C1867 C1869 1.327 . S
C1867 C1873 1.429 . S
C1868 C1860 1.574 . S
C1868 H1863 0.949 . S
C1868 C1874 1.368 . S
C1869 C1853 1.349 . S
C1869 H1861 0.950 . S
C1869 C1867 1.327 . S
C1870 C1858 1.349 . S
C1870 H1864 0.950 . S
C1870 C1871 1.327 . S
C1871 H1865 0.950 . S
C1871 C1870 1.327 . S
C1871 C1875 1.429 . S
C1872 C1855 1.574 . S
C1872 H1866 0.949 . S
C1872 C1876 1.368 . S
C1873 C1854 1.429 . S
C1873 C1867 1.429 . S
C1873 C1874 1.523 . S
C1874 C1855 1.368 . S
C1874 C1868 1.368 . S
C1874 C1873 1.523 . S
C1875 C1859 1.429 . S
C1875 C1871 1.429 . S
C1875 C1876 1.523 . S
C1876 C1860 1.368 . S
C1876 C1872 1.368 . S
C1876 C1875 1.523 . S
H1877 C1852 0.950 . S
H1878 C1854 0.950 . S
H1879 C1855 0.949 . S
H1880 C1857 0.952 . S
H1881 C1859 0.950 . S
C1882 C1883 1.349 . S
C1882 C1884 1.327 . S
C1882 H1907 0.950 . S
C1883 C1882 1.349 . S
C1883 C1899 1.349 . S
C1884 C1882 1.327 . S
C1884 C1903 1.429 . S
C1884 H1908 0.950 . S
C1885 C1902 1.574 . S
C1885 C1904 1.368 . S
C1885 H1909 0.949 . S
H1886 C1890 0.949 . S
C1887 C1888 1.349 . S
C1887 C1889 1.327 . S
C1887 H1910 0.950 . S
C1888 C1887 1.349 . S
C1888 C1900 1.349 . S
C1889 C1887 1.327 . S
C1889 C1905 1.429 . S
C1889 H1911 0.950 . S
C1890 H1886 0.949 . S
C1890 C1898 1.574 . S
C1890 C1906 1.368 . S
H1891 C1899 0.950 . S
H1892 C1897 0.950 . S
H1893 C1898 0.949 . S
H1894 C1900 0.950 . S
H1895 C1901 0.950 . S
H1896 C1902 0.949 . S
C1897 H1892 0.950 . S
C1897 C1899 1.327 . S
C1897 C1903 1.429 . S
C1898 C1890 1.574 . S
C1898 H1893 0.949 . S
C1898 C1904 1.368 . S
C1899 C1883 1.349 . S
C1899 H1891 0.950 . S
C1899 C1897 1.327 . S
C1900 C1888 1.349 . S
C1900 H1894 0.950 . S
C1900 C1901 1.327 . S
C1901 H1895 0.950 . S
C1901 C1900 1.327 . S
C1901 C1905 1.429 . S
C1902 C1885 1.574 . S
C1902 H1896 0.949 . S
C1902 C1906 1.368 . S
C1903 C1884 1.429 . S
C1903 C1897 1.429 . S
C1903 C1904 1.523 . S
C1904 C1885 1.368 . S
C1904 C1898 1.368 . S
C1904 C1903 1.523 . S
C1905 C1889 1.429 . S
C1905 C1901 1.429 . S
C1905 C1906 1.523 . S
C1906 C1890 1.368 . S
C1906 C1902 1.368 . S
C1906 C1905 1.523 . S
H1907 C1882 0.950 . S
H1908 C1884 0.950 . S
H1909 C1885 0.949 . S
H1910 C1887 0.950 . S
H1911 C1889 0.950 . S
C1912 C1913 1.349 . S
C1912 C1914 1.327 . S
C1912 H1937 0.950 . S
C1913 C1912 1.349 . S
C1913 C1929 1.349 . S
C1914 C1912 1.327 . S
C1914 C1933 1.429 . S
C1914 H1938 0.950 . S
C1915 C1932 1.574 . S
C1915 C1934 1.368 . S
C1915 H1939 0.949 . S
H1916 C1920 0.949 . S
C1917 C1918 1.349 . S
C1917 C1919 1.327 . S
C1917 H1940 0.950 . S
C1918 C1917 1.349 . S
C1918 C1930 1.349 . S
C1919 C1917 1.327 . S
C1919 C1935 1.429 . S
C1919 H1941 0.950 . S
C1920 H1916 0.949 . S
C1920 C1928 1.574 . S
C1920 C1936 1.368 . S
H1921 C1929 0.950 . S
H1922 C1927 0.950 . S
H1923 C1928 0.949 . S
H1924 C1930 0.950 . S
H1925 C1931 0.950 . S
H1926 C1932 0.949 . S
C1927 H1922 0.950 . S
C1927 C1929 1.327 . S
C1927 C1933 1.429 . S
C1928 C1920 1.574 . S
C1928 H1923 0.949 . S
C1928 C1934 1.368 . S
C1929 C1913 1.349 . S
C1929 H1921 0.950 . S
C1929 C1927 1.327 . S
C1930 C1918 1.349 . S
C1930 H1924 0.950 . S
C1930 C1931 1.327 . S
C1931 H1925 0.950 . S
C1931 C1930 1.327 . S
C1931 C1935 1.429 . S
C1932 C1915 1.574 . S
C1932 H1926 0.949 . S
C1932 C1936 1.368 . S
C1933 C1914 1.429 . S
C1933 C1927 1.429 . S
C1933 C1934 1.523 . S
C1934 C1915 1.368 . S
C1934 C1928 1.368 . S
C1934 C1933 1.523 . S
C1935 C1919 1.429 . S
C1935 C1931 1.429 . S
C1935 C1936 1.523 . S
C1936 C1920 1.368 . S
C1936 C1932 1.368 . S
C1936 C1935 1.523 . S
H1937 C1912 0.950 . S
H1938 C1914 0.950 . S
H1939 C1915 0.949 . S
H1940 C1917 0.950 . S
H1941 C1919 0.950 . S
C1942 C1943 1.349 . S
C1942 C1944 1.327 . S
C1942 H1967 0.950 . S
C1943 C1942 1.349 . S
C1943 C1959 1.349 . S
C1944 C1942 1.327 . S
C1944 C1963 1.429 . S
C1944 H1968 0.950 . S
C1945 C1962 1.574 . S
C1945 C1964 1.368 . S
C1945 H1969 0.949 . S
H1946 C1950 0.949 . S
C1947 C1948 1.349 . S
C1947 C1949 1.327 . S
C1947 H1970 0.950 . S
C1948 C1947 1.349 . S
C1948 C1960 1.349 . S
C1949 C1947 1.327 . S
C1949 C1965 1.429 . S
C1949 H1971 0.950 . S
C1950 H1946 0.949 . S
C1950 C1958 1.574 . S
C1950 C1966 1.368 . S
H1951 C1959 0.950 . S
H1952 C1957 0.950 . S
H1953 C1958 0.949 . S
H1954 C1960 0.950 . S
H1955 C1961 0.950 . S
H1956 C1962 0.949 . S
C1957 H1952 0.950 . S
C1957 C1959 1.327 . S
C1957 C1963 1.429 . S
C1958 C1950 1.574 . S
C1958 H1953 0.949 . S
C1958 C1964 1.368 . S
C1959 C1943 1.349 . S
C1959 H1951 0.950 . S
C1959 C1957 1.327 . S
C1960 C1948 1.349 . S
C1960 H1954 0.950 . S
C1960 C1961 1.327 . S
C1961 H1955 0.950 . S
C1961 C1960 1.327 . S
C1961 C1965 1.429 . S
C1962 C1945 1.574 . S
C1962 H1956 0.949 . S
C1962 C1966 1.368 . S
C1963 C1944 1.429 . S
C1963 C1957 1.429 . S
C1963 C1964 1.523 . S
C1964 C1945 1.368 . S
C1964 C1958 1.368 . S
C1964 C1963 1.523 . S
C1965 C1949 1.429 . S
C1965 C1961 1.429 . S
C1965 C1966 1.523 . S
C1966 C1950 1.368 . S
C1966 C1962 1.368 . S
C1966 C1965 1.523 . S
H1967 C1942 0.950 . S
H1968 C1944 0.950 . S
H1969 C1945 0.949 . S
H1970 C1947 0.950 . S
H1971 C1949 0.950 . S
C1972 C1973 1.349 . S
C1972 C1974 1.327 . S
C1972 H1997 0.950 . S
C1973 C1972 1.349 . S
C1973 C1989 1.349 . S
C1974 C1972 1.327 . S
C1974 C1993 1.429 . S
C1974 H1998 0.950 . S
C1975 C1992 1.574 . S
C1975 C1994 1.368 . S
C1975 H1999 0.949 . S
H1976 C1980 0.949 . S
C1977 C1978 1.349 . S
C1977 C1979 1.327 . S
C1977 H2000 0.950 . S
C1978 C1977 1.349 . S
C1978 C1990 1.349 . S
C1979 C1977 1.327 . S
C1979 C1995 1.429 . S
C1979 H2001 0.950 . S
C1980 H1976 0.949 . S
C1980 C1988 1.574 . S
C1980 C1996 1.368 . S
H1981 C1989 0.950 . S
H1982 C1987 0.950 . S
H1983 C1988 0.949 . S
H1984 C1990 0.950 . S
H1985 C1991 0.950 . S
H1986 C1992 0.949 . S
C1987 H1982 0.950 . S
C1987 C1989 1.327 . S
C1987 C1993 1.429 . S
C1988 C1980 1.574 . S
C1988 H1983 0.949 . S
C1988 C1994 1.368 . S
C1989 C1973 1.349 . S
C1989 H1981 0.950 . S
C1989 C1987 1.327 . S
C1990 C1978 1.349 . S
C1990 H1984 0.950 . S
C1990 C1991 1.327 . S
C1991 H1985 0.950 . S
C1991 C1990 1.327 . S
C1991 C1995 1.429 . S
C1992 C1975 1.574 . S
C1992 H1986 0.949 . S
C1992 C1996 1.368 . S
C1993 C1974 1.429 . S
C1993 C1987 1.429 . S
C1993 C1994 1.523 . S
C1994 C1975 1.368 . S
C1994 C1988 1.368 . S
C1994 C1993 1.523 . S
C1995 C1979 1.429 . S
C1995 C1991 1.429 . S
C1995 C1996 1.523 . S
C1996 C1980 1.368 . S
C1996 C1992 1.368 . S
C1996 C1995 1.523 . S
H1997 C1972 0.950 . S
H1998 C1974 0.950 . S
H1999 C1975 0.949 . S
H2000 C1977 0.950 . S
H2001 C1979 0.950 . S
C2002 C2003 1.349 . S
C2002 C2004 1.327 . S
C2002 H2027 0.950 . S
C2003 C2002 1.349 . S
C2003 C2019 1.349 . S
C2004 C2002 1.327 . S
C2004 C2023 1.429 . S
C2004 H2028 0.950 . S
C2005 C2022 1.574 . S
C2005 C2024 1.368 . S
C2005 H2029 0.949 . S
H2006 C2010 0.949 . S
C2007 C2008 1.349 . S
C2007 C2009 1.327 . S
C2007 H2030 0.950 . S
C2008 C2007 1.349 . S
C2008 C2020 1.349 . S
C2009 C2007 1.327 . S
C2009 C2025 1.429 . S
C2009 H2031 0.950 . S
C2010 H2006 0.949 . S
C2010 C2018 1.574 . S
C2010 C2026 1.368 . S
H2011 C2019 0.950 . S
H2012 C2017 0.950 . S
H2013 C2018 0.949 . S
H2014 C2020 0.950 . S
H2015 C2021 0.950 . S
H2016 C2022 0.949 . S
C2017 H2012 0.950 . S
C2017 C2019 1.327 . S
C2017 C2023 1.429 . S
C2018 C2010 1.574 . S
C2018 H2013 0.949 . S
C2018 C2024 1.368 . S
C2019 C2003 1.349 . S
C2019 H2011 0.950 . S
C2019 C2017 1.327 . S
C2020 C2008 1.349 . S
C2020 H2014 0.950 . S
C2020 C2021 1.327 . S
C2021 H2015 0.950 . S
C2021 C2020 1.327 . S
C2021 C2025 1.429 . S
C2022 C2005 1.574 . S
C2022 H2016 0.949 . S
C2022 C2026 1.368 . S
C2023 C2004 1.429 . S
C2023 C2017 1.429 . S
C2023 C2024 1.523 . S
C2024 C2005 1.368 . S
C2024 C2018 1.368 . S
C2024 C2023 1.523 . S
C2025 C2009 1.429 . S
C2025 C2021 1.429 . S
C2025 C2026 1.523 . S
C2026 C2010 1.368 . S
C2026 C2022 1.368 . S
C2026 C2025 1.523 . S
H2027 C2002 0.950 . S
H2028 C2004 0.950 . S
H2029 C2005 0.949 . S
H2030 C2007 0.950 . S
H2031 C2009 0.950 . S
C2032 C2033 1.349 . S
C2032 C2034 1.327 . S
C2032 H2057 0.950 . S
C2033 C2032 1.349 . S
C2033 C2049 1.349 . S
C2034 C2032 1.327 . S
C2034 C2053 1.429 . S
C2034 H2058 0.950 . S
C2035 C2052 1.574 . S
C2035 C2054 1.368 . S
C2035 H2059 0.949 . S
H2036 C2040 0.949 . S
C2037 C2038 1.349 . S
C2037 C2039 1.327 . S
C2037 H2060 0.950 . S
C2038 C2037 1.349 . S
C2038 C2050 1.349 . S
C2039 C2037 1.327 . S
C2039 C2055 1.429 . S
C2039 H2061 0.950 . S
C2040 H2036 0.949 . S
C2040 C2048 1.574 . S
C2040 C2056 1.368 . S
H2041 C2049 0.950 . S
H2042 C2047 0.950 . S
H2043 C2048 0.949 . S
H2044 C2050 0.950 . S
H2045 C2051 0.950 . S
H2046 C2052 0.949 . S
C2047 H2042 0.950 . S
C2047 C2049 1.327 . S
C2047 C2053 1.429 . S
C2048 C2040 1.574 . S
C2048 H2043 0.949 . S
C2048 C2054 1.368 . S
C2049 C2033 1.349 . S
C2049 H2041 0.950 . S
C2049 C2047 1.327 . S
C2050 C2038 1.349 . S
C2050 H2044 0.950 . S
C2050 C2051 1.327 . S
C2051 H2045 0.950 . S
C2051 C2050 1.327 . S
C2051 C2055 1.429 . S
C2052 C2035 1.574 . S
C2052 H2046 0.949 . S
C2052 C2056 1.368 . S
C2053 C2034 1.429 . S
C2053 C2047 1.429 . S
C2053 C2054 1.523 . S
C2054 C2035 1.368 . S
C2054 C2048 1.368 . S
C2054 C2053 1.523 . S
C2055 C2039 1.429 . S
C2055 C2051 1.429 . S
C2055 C2056 1.523 . S
C2056 C2040 1.368 . S
C2056 C2052 1.368 . S
C2056 C2055 1.523 . S
H2057 C2032 0.950 . S
H2058 C2034 0.950 . S
H2059 C2035 0.949 . S
H2060 C2037 0.950 . S
H2061 C2039 0.950 . S
C2062 C2063 1.349 . S
C2062 C2064 1.327 . S
C2062 H2087 0.950 . S
C2063 C2062 1.349 . S
C2063 C2079 1.349 . S
C2064 C2062 1.327 . S
C2064 C2083 1.429 . S
C2064 H2088 0.950 . S
C2065 C2082 1.574 . S
C2065 C2084 1.368 . S
C2065 H2089 0.949 . S
H2066 C2070 0.949 . S
C2067 C2068 1.349 . S
C2067 C2069 1.327 . S
C2067 H2090 0.950 . S
C2068 C2067 1.349 . S
C2068 C2080 1.349 . S
C2069 C2067 1.327 . S
C2069 C2085 1.429 . S
C2069 H2091 0.950 . S
C2070 H2066 0.949 . S
C2070 C2078 1.574 . S
C2070 C2086 1.368 . S
H2071 C2079 0.950 . S
H2072 C2077 0.950 . S
H2073 C2078 0.949 . S
H2074 C2080 0.950 . S
H2075 C2081 0.950 . S
H2076 C2082 0.949 . S
C2077 H2072 0.950 . S
C2077 C2079 1.327 . S
C2077 C2083 1.429 . S
C2078 C2070 1.574 . S
C2078 H2073 0.949 . S
C2078 C2084 1.368 . S
C2079 C2063 1.349 . S
C2079 H2071 0.950 . S
C2079 C2077 1.327 . S
C2080 C2068 1.349 . S
C2080 H2074 0.950 . S
C2080 C2081 1.327 . S
C2081 H2075 0.950 . S
C2081 C2080 1.327 . S
C2081 C2085 1.429 . S
C2082 C2065 1.574 . S
C2082 H2076 0.949 . S
C2082 C2086 1.368 . S
C2083 C2064 1.429 . S
C2083 C2077 1.429 . S
C2083 C2084 1.523 . S
C2084 C2065 1.368 . S
C2084 C2078 1.368 . S
C2084 C2083 1.523 . S
C2085 C2069 1.429 . S
C2085 C2081 1.429 . S
C2085 C2086 1.523 . S
C2086 C2070 1.368 . S
C2086 C2082 1.368 . S
C2086 C2085 1.523 . S
H2087 C2062 0.950 . S
H2088 C2064 0.950 . S
H2089 C2065 0.949 . S
H2090 C2067 0.950 . S
H2091 C2069 0.950 . S
C2092 C2093 1.349 . S
C2092 C2094 1.327 . S
C2092 H2117 0.950 . S
C2093 C2092 1.349 . S
C2093 C2109 1.349 . S
C2094 C2092 1.327 . S
C2094 C2113 1.429 . S
C2094 H2118 0.950 . S
C2095 C2112 1.574 . S
C2095 C2114 1.368 . S
C2095 H2119 0.949 . S
H2096 C2100 0.949 . S
C2097 C2098 1.349 . S
C2097 C2099 1.327 . S
C2097 H2120 0.950 . S
C2098 C2097 1.349 . S
C2098 C2110 1.349 . S
C2099 C2097 1.327 . S
C2099 C2115 1.429 . S
C2099 H2121 0.950 . S
C2100 H2096 0.949 . S
C2100 C2108 1.574 . S
C2100 C2116 1.368 . S
H2101 C2109 0.950 . S
H2102 C2107 0.950 . S
H2103 C2108 0.949 . S
H2104 C2110 0.950 . S
H2105 C2111 0.950 . S
H2106 C2112 0.949 . S
C2107 H2102 0.950 . S
C2107 C2109 1.327 . S
C2107 C2113 1.429 . S
C2108 C2100 1.574 . S
C2108 H2103 0.949 . S
C2108 C2114 1.368 . S
C2109 C2093 1.349 . S
C2109 H2101 0.950 . S
C2109 C2107 1.327 . S
C2110 C2098 1.349 . S
C2110 H2104 0.950 . S
C2110 C2111 1.327 . S
C2111 H2105 0.950 . S
C2111 C2110 1.327 . S
C2111 C2115 1.429 . S
C2112 C2095 1.574 . S
C2112 H2106 0.949 . S
C2112 C2116 1.368 . S
C2113 C2094 1.429 . S
C2113 C2107 1.429 . S
C2113 C2114 1.523 . S
C2114 C2095 1.368 . S
C2114 C2108 1.368 . S
C2114 C2113 1.523 . S
C2115 C2099 1.429 . S
C2115 C2111 1.429 . S
C2115 C2116 1.523 . S
C2116 C2100 1.368 . S
C2116 C2112 1.368 . S
C2116 C2115 1.523 . S
H2117 C2092 0.950 . S
H2118 C2094 0.950 . S
H2119 C2095 0.949 . S
H2120 C2097 0.950 . S
H2121 C2099 0.950 . S
C2122 C2123 1.349 . S
C2122 C2124 1.327 . S
C2122 H2147 0.950 . S
C2123 C2122 1.349 . S
C2123 C2139 1.349 . S
C2124 C2122 1.327 . S
C2124 C2143 1.429 . S
C2124 H2148 0.950 . S
C2125 C2142 1.574 . S
C2125 C2144 1.368 . S
C2125 H2149 0.949 . S
H2126 C2130 0.949 . S
C2127 C2128 1.349 . S
C2127 C2129 1.327 . S
C2127 H2150 0.950 . S
C2128 C2127 1.349 . S
C2128 C2140 1.349 . S
C2129 C2127 1.327 . S
C2129 C2145 1.429 . S
C2129 H2151 0.950 . S
C2130 H2126 0.949 . S
C2130 C2138 1.574 . S
C2130 C2146 1.368 . S
H2131 C2139 0.950 . S
H2132 C2137 0.950 . S
H2133 C2138 0.949 . S
H2134 C2140 0.950 . S
H2135 C2141 0.950 . S
H2136 C2142 0.949 . S
C2137 H2132 0.950 . S
C2137 C2139 1.327 . S
C2137 C2143 1.429 . S
C2138 C2130 1.574 . S
C2138 H2133 0.949 . S
C2138 C2144 1.368 . S
C2139 C2123 1.349 . S
C2139 H2131 0.950 . S
C2139 C2137 1.327 . S
C2140 C2128 1.349 . S
C2140 H2134 0.950 . S
C2140 C2141 1.327 . S
C2141 H2135 0.950 . S
C2141 C2140 1.327 . S
C2141 C2145 1.429 . S
C2142 C2125 1.574 . S
C2142 H2136 0.949 . S
C2142 C2146 1.368 . S
C2143 C2124 1.429 . S
C2143 C2137 1.429 . S
C2143 C2144 1.523 . S
C2144 C2125 1.368 . S
C2144 C2138 1.368 . S
C2144 C2143 1.523 . S
C2145 C2129 1.429 . S
C2145 C2141 1.429 . S
C2145 C2146 1.523 . S
C2146 C2130 1.368 . S
C2146 C2142 1.368 . S
C2146 C2145 1.523 . S
H2147 C2122 0.950 . S
H2148 C2124 0.950 . S
H2149 C2125 0.949 . S
H2150 C2127 0.950 . S
H2151 C2129 0.950 . S
C2152 C2153 1.349 . S
C2152 C2154 1.327 . S
C2152 H2177 0.950 . S
C2153 C2152 1.349 . S
C2153 C2169 1.349 . S
C2154 C2152 1.327 . S
C2154 C2173 1.429 . S
C2154 H2178 0.950 . S
C2155 C2172 1.574 . S
C2155 C2174 1.368 . S
C2155 H2179 0.949 . S
H2156 C2160 0.949 . S
C2157 C2158 1.349 . S
C2157 C2159 1.327 . S
C2157 H2180 0.950 . S
C2158 C2157 1.349 . S
C2158 C2170 1.349 . S
C2159 C2157 1.327 . S
C2159 C2175 1.429 . S
C2159 H2181 0.950 . S
C2160 H2156 0.949 . S
C2160 C2168 1.574 . S
C2160 C2176 1.368 . S
H2161 C2169 0.950 . S
H2162 C2167 0.950 . S
H2163 C2168 0.949 . S
H2164 C2170 0.950 . S
H2165 C2171 0.950 . S
H2166 C2172 0.949 . S
C2167 H2162 0.950 . S
C2167 C2169 1.327 . S
C2167 C2173 1.429 . S
C2168 C2160 1.574 . S
C2168 H2163 0.949 . S
C2168 C2174 1.368 . S
C2169 C2153 1.349 . S
C2169 H2161 0.950 . S
C2169 C2167 1.327 . S
C2170 C2158 1.349 . S
C2170 H2164 0.950 . S
C2170 C2171 1.327 . S
C2171 H2165 0.950 . S
C2171 C2170 1.327 . S
C2171 C2175 1.429 . S
C2172 C2155 1.574 . S
C2172 H2166 0.949 . S
C2172 C2176 1.368 . S
C2173 C2154 1.429 . S
C2173 C2167 1.429 . S
C2173 C2174 1.523 . S
C2174 C2155 1.368 . S
C2174 C2168 1.368 . S
C2174 C2173 1.523 . S
C2175 C2159 1.429 . S
C2175 C2171 1.429 . S
C2175 C2176 1.523 . S
C2176 C2160 1.368 . S
C2176 C2172 1.368 . S
C2176 C2175 1.523 . S
H2177 C2152 0.950 . S
H2178 C2154 0.950 . S
H2179 C2155 0.949 . S
H2180 C2157 0.950 . S
H2181 C2159 0.950 . S
C2182 C2183 1.349 . S
C2182 C2184 1.327 . S
C2182 H2207 0.950 . S
C2183 C2182 1.349 . S
C2183 C2199 1.349 . S
C2184 C2182 1.327 . S
C2184 C2203 1.429 . S
C2184 H2208 0.950 . S
C2185 C2202 1.583 . S
C2185 C2204 1.368 . S
C2185 H2209 0.949 1_554 S
H2186 C2190 0.949 . S
C2187 C2188 1.367 . S
C2187 C2189 1.326 . S
C2187 H2210 0.929 1_554 S
C2188 C2187 1.367 . S
C2188 C2200 1.349 . S
C2189 C2187 1.326 . S
C2189 C2205 1.460 . S
C2189 H2211 0.922 1_554 S
C2190 H2186 0.949 . S
C2190 C2198 1.574 . S
C2190 C2206 1.368 . S
H2191 C2199 0.950 1_556 S
H2192 C2197 0.950 1_556 S
H2193 C2198 0.949 . S
H2194 C2200 0.950 . S
H2195 C2201 0.950 . S
H2196 C2202 0.895 1_556 S
C2197 H2192 0.950 1_554 S
C2197 C2199 1.327 . S
C2197 C2203 1.429 . S
C2198 C2190 1.574 . S
C2198 H2193 0.949 . S
C2198 C2204 1.368 . S
C2199 C2183 1.349 . S
C2199 H2191 0.950 1_554 S
C2199 C2197 1.327 . S
C2200 C2188 1.349 . S
C2200 H2194 0.950 . S
C2200 C2201 1.327 . S
C2201 H2195 0.950 . S
C2201 C2200 1.327 . S
C2201 C2205 1.429 . S
C2202 C2185 1.583 . S
C2202 H2196 0.895 1_554 S
C2202 C2206 1.422 . S
C2203 C2184 1.429 . S
C2203 C2197 1.429 . S
C2203 C2204 1.523 . S
C2204 C2185 1.368 . S
C2204 C2198 1.368 . S
C2204 C2203 1.523 . S
C2205 C2189 1.460 . S
C2205 C2201 1.429 . S
C2205 C2206 1.523 . S
C2206 C2190 1.368 . S
C2206 C2202 1.422 . S
C2206 C2205 1.523 . S
H2207 C2182 0.950 . S
H2208 C2184 0.950 . S
H2209 C2185 0.949 1_556 S
H2210 C2187 0.929 1_556 S
H2211 C2189 0.922 1_556 S
C2212 C2213 1.349 . S
C2212 C2214 1.327 . S
C2212 H2237 0.950 . S
C2213 C2212 1.349 . S
C2213 C2229 1.349 . S
C2214 C2212 1.327 . S
C2214 C2233 1.429 . S
C2214 H2238 0.950 . S
C2215 C2232 1.574 . S
C2215 C2234 1.368 . S
C2215 H2239 0.949 . S
H2216 C2220 0.949 . S
C2217 C2218 1.349 . S
C2217 C2219 1.327 . S
C2217 H2240 0.950 . S
C2218 C2217 1.349 . S
C2218 C2230 1.349 . S
C2219 C2217 1.327 . S
C2219 C2235 1.429 . S
C2219 H2241 0.950 . S
C2220 H2216 0.949 . S
C2220 C2228 1.574 . S
C2220 C2236 1.368 . S
H2221 C2229 0.950 . S
H2222 C2227 0.950 . S
H2223 C2228 0.949 . S
H2224 C2230 0.950 . S
H2225 C2231 0.950 . S
H2226 C2232 0.949 . S
C2227 H2222 0.950 . S
C2227 C2229 1.327 . S
C2227 C2233 1.429 . S
C2228 C2220 1.574 . S
C2228 H2223 0.949 . S
C2228 C2234 1.368 . S
C2229 C2213 1.349 . S
C2229 H2221 0.950 . S
C2229 C2227 1.327 . S
C2230 C2218 1.349 . S
C2230 H2224 0.950 . S
C2230 C2231 1.327 . S
C2231 H2225 0.950 . S
C2231 C2230 1.327 . S
C2231 C2235 1.429 . S
C2232 C2215 1.574 . S
C2232 H2226 0.949 . S
C2232 C2236 1.368 . S
C2233 C2214 1.429 . S
C2233 C2227 1.429 . S
C2233 C2234 1.523 . S
C2234 C2215 1.368 . S
C2234 C2228 1.368 . S
C2234 C2233 1.523 . S
C2235 C2219 1.429 . S
C2235 C2231 1.429 . S
C2235 C2236 1.523 . S
C2236 C2220 1.368 . S
C2236 C2232 1.368 . S
C2236 C2235 1.523 . S
H2237 C2212 0.950 . S
H2238 C2214 0.950 . S
H2239 C2215 0.949 . S
H2240 C2217 0.950 . S
H2241 C2219 0.950 . S
C2242 C2243 1.349 . S
C2242 C2244 1.327 . S
C2242 H2267 0.950 . S
C2243 C2242 1.349 . S
C2243 C2259 1.349 . S
C2244 C2242 1.327 . S
C2244 C2263 1.429 . S
C2244 H2268 0.950 . S
C2245 C2262 1.574 . S
C2245 C2264 1.368 . S
C2245 H2269 0.949 . S
H2246 C2250 0.949 . S
C2247 C2248 1.349 . S
C2247 C2249 1.327 . S
C2247 H2270 0.950 . S
C2248 C2247 1.349 . S
C2248 C2260 1.349 . S
C2249 C2247 1.327 . S
C2249 C2265 1.429 . S
C2249 H2271 0.950 . S
C2250 H2246 0.949 . S
C2250 C2258 1.574 . S
C2250 C2266 1.368 . S
H2251 C2259 0.950 . S
H2252 C2257 0.950 . S
H2253 C2258 0.949 . S
H2254 C2260 0.950 . S
H2255 C2261 0.950 . S
H2256 C2262 0.949 . S
C2257 H2252 0.950 . S
C2257 C2259 1.327 . S
C2257 C2263 1.429 . S
C2258 C2250 1.574 . S
C2258 H2253 0.949 . S
C2258 C2264 1.368 . S
C2259 C2243 1.349 . S
C2259 H2251 0.950 . S
C2259 C2257 1.327 . S
C2260 C2248 1.349 . S
C2260 H2254 0.950 . S
C2260 C2261 1.327 . S
C2261 H2255 0.950 . S
C2261 C2260 1.327 . S
C2261 C2265 1.429 . S
C2262 C2245 1.574 . S
C2262 H2256 0.949 . S
C2262 C2266 1.368 . S
C2263 C2244 1.429 . S
C2263 C2257 1.429 . S
C2263 C2264 1.523 . S
C2264 C2245 1.368 . S
C2264 C2258 1.368 . S
C2264 C2263 1.523 . S
C2265 C2249 1.429 . S
C2265 C2261 1.429 . S
C2265 C2266 1.523 . S
C2266 C2250 1.368 . S
C2266 C2262 1.368 . S
C2266 C2265 1.523 . S
H2267 C2242 0.950 . S
H2268 C2244 0.950 . S
H2269 C2245 0.949 . S
H2270 C2247 0.950 . S
H2271 C2249 0.950 . S
C2272 C2273 1.349 . S
C2272 C2274 1.327 . S
C2272 H2297 0.950 . S
C2273 C2272 1.349 . S
C2273 C2289 1.349 . S
C2274 C2272 1.327 . S
C2274 C2293 1.429 . S
C2274 H2298 0.950 . S
C2275 C2292 1.574 . S
C2275 C2294 1.368 . S
C2275 H2299 0.949 . S
H2276 C2280 0.949 . S
C2277 C2278 1.349 . S
C2277 C2279 1.327 . S
C2277 H2300 0.950 . S
C2278 C2277 1.349 . S
C2278 C2290 1.349 . S
C2279 C2277 1.327 . S
C2279 C2295 1.429 . S
C2279 H2301 0.950 . S
C2280 H2276 0.949 . S
C2280 C2288 1.574 . S
C2280 C2296 1.368 . S
H2281 C2289 0.950 . S
H2282 C2287 0.950 . S
H2283 C2288 0.949 . S
H2284 C2290 0.950 . S
H2285 C2291 0.950 . S
H2286 C2292 0.949 . S
C2287 H2282 0.950 . S
C2287 C2289 1.327 . S
C2287 C2293 1.429 . S
C2288 C2280 1.574 . S
C2288 H2283 0.949 . S
C2288 C2294 1.368 . S
C2289 C2273 1.349 . S
C2289 H2281 0.950 . S
C2289 C2287 1.327 . S
C2290 C2278 1.349 . S
C2290 H2284 0.950 . S
C2290 C2291 1.327 . S
C2291 H2285 0.950 . S
C2291 C2290 1.327 . S
C2291 C2295 1.429 . S
C2292 C2275 1.574 . S
C2292 H2286 0.949 . S
C2292 C2296 1.368 . S
C2293 C2274 1.429 . S
C2293 C2287 1.429 . S
C2293 C2294 1.523 . S
C2294 C2275 1.368 . S
C2294 C2288 1.368 . S
C2294 C2293 1.523 . S
C2295 C2279 1.429 . S
C2295 C2291 1.429 . S
C2295 C2296 1.523 . S
C2296 C2280 1.368 . S
C2296 C2292 1.368 . S
C2296 C2295 1.523 . S
H2297 C2272 0.950 . S
H2298 C2274 0.950 . S
H2299 C2275 0.949 . S
H2300 C2277 0.950 . S
H2301 C2279 0.950 . S
C2302 C2303 1.349 . S
C2302 C2304 1.327 . S
C2302 H2327 0.950 . S
C2303 C2302 1.349 . S
C2303 C2319 1.349 . S
C2304 C2302 1.327 . S
C2304 C2323 1.429 . S
C2304 H2328 0.950 . S
C2305 C2322 1.574 . S
C2305 C2324 1.368 . S
C2305 H2329 0.949 . S
H2306 C2310 0.949 . S
C2307 C2308 1.349 . S
C2307 C2309 1.327 . S
C2307 H2330 0.950 . S
C2308 C2307 1.349 . S
C2308 C2320 1.349 . S
C2309 C2307 1.327 . S
C2309 C2325 1.429 . S
C2309 H2331 0.950 . S
C2310 H2306 0.949 . S
C2310 C2318 1.574 . S
C2310 C2326 1.368 . S
H2311 C2319 0.950 . S
H2312 C2317 0.950 . S
H2313 C2318 0.949 . S
H2314 C2320 0.950 . S
H2315 C2321 0.950 . S
H2316 C2322 0.949 . S
C2317 H2312 0.950 . S
C2317 C2319 1.327 . S
C2317 C2323 1.429 . S
C2318 C2310 1.574 . S
C2318 H2313 0.949 . S
C2318 C2324 1.368 . S
C2319 C2303 1.349 . S
C2319 H2311 0.950 . S
C2319 C2317 1.327 . S
C2320 C2308 1.349 . S
C2320 H2314 0.950 . S
C2320 C2321 1.327 . S
C2321 H2315 0.950 . S
C2321 C2320 1.327 . S
C2321 C2325 1.429 . S
C2322 C2305 1.574 . S
C2322 H2316 0.949 . S
C2322 C2326 1.368 . S
C2323 C2304 1.429 . S
C2323 C2317 1.429 . S
C2323 C2324 1.523 . S
C2324 C2305 1.368 . S
C2324 C2318 1.368 . S
C2324 C2323 1.523 . S
C2325 C2309 1.429 . S
C2325 C2321 1.429 . S
C2325 C2326 1.523 . S
C2326 C2310 1.368 . S
C2326 C2322 1.368 . S
C2326 C2325 1.523 . S
H2327 C2302 0.950 . S
H2328 C2304 0.950 . S
H2329 C2305 0.949 . S
H2330 C2307 0.950 . S
H2331 C2309 0.950 . S
C2332 C2333 1.349 . S
C2332 C2334 1.327 . S
C2332 H2357 0.950 . S
C2333 C2332 1.349 . S
C2333 C2349 1.349 . S
C2334 C2332 1.327 . S
C2334 C2353 1.429 . S
C2334 H2358 0.950 . S
C2335 C2352 1.574 . S
C2335 C2354 1.368 . S
C2335 H2359 0.949 . S
H2336 C2340 0.949 . S
C2337 C2338 1.349 . S
C2337 C2339 1.327 . S
C2337 H2360 0.950 . S
C2338 C2337 1.349 . S
C2338 C2350 1.349 . S
C2339 C2337 1.327 . S
C2339 C2355 1.429 . S
C2339 H2361 0.950 . S
C2340 H2336 0.949 . S
C2340 C2348 1.574 . S
C2340 C2356 1.368 . S
H2341 C2349 0.950 . S
H2342 C2347 0.950 . S
H2343 C2348 0.949 . S
H2344 C2350 0.950 . S
H2345 C2351 0.950 . S
H2346 C2352 0.949 . S
C2347 H2342 0.950 . S
C2347 C2349 1.327 . S
C2347 C2353 1.429 . S
C2348 C2340 1.574 . S
C2348 H2343 0.949 . S
C2348 C2354 1.368 . S
C2349 C2333 1.349 . S
C2349 H2341 0.950 . S
C2349 C2347 1.327 . S
C2350 C2338 1.349 . S
C2350 H2344 0.950 . S
C2350 C2351 1.327 . S
C2351 H2345 0.950 . S
C2351 C2350 1.327 . S
C2351 C2355 1.429 . S
C2352 C2335 1.574 . S
C2352 H2346 0.949 . S
C2352 C2356 1.368 . S
C2353 C2334 1.429 . S
C2353 C2347 1.429 . S
C2353 C2354 1.523 . S
C2354 C2335 1.368 . S
C2354 C2348 1.368 . S
C2354 C2353 1.523 . S
C2355 C2339 1.429 . S
C2355 C2351 1.429 . S
C2355 C2356 1.523 . S
C2356 C2340 1.368 . S
C2356 C2352 1.368 . S
C2356 C2355 1.523 . S
H2357 C2332 0.950 . S
H2358 C2334 0.950 . S
H2359 C2335 0.949 . S
H2360 C2337 0.950 . S
H2361 C2339 0.950 . S
C2362 C2363 1.349 . S
C2362 C2364 1.327 . S
C2362 H2387 0.950 . S
C2363 C2362 1.349 . S
C2363 C2379 1.349 . S
C2364 C2362 1.327 . S
C2364 C2383 1.429 . S
C2364 H2388 0.950 . S
C2365 C2382 1.574 . S
C2365 C2384 1.368 . S
C2365 H2389 0.949 . S
H2366 C2370 0.949 . S
C2367 C2368 1.349 . S
C2367 C2369 1.327 . S
C2367 H2390 0.950 . S
C2368 C2367 1.349 . S
C2368 C2380 1.349 . S
C2369 C2367 1.327 . S
C2369 C2385 1.429 . S
C2369 H2391 0.950 . S
C2370 H2366 0.949 . S
C2370 C2378 1.574 . S
C2370 C2386 1.368 . S
H2371 C2379 0.950 . S
H2372 C2377 0.950 . S
H2373 C2378 0.949 . S
H2374 C2380 0.950 . S
H2375 C2381 0.950 . S
H2376 C2382 0.949 . S
C2377 H2372 0.950 . S
C2377 C2379 1.327 . S
C2377 C2383 1.429 . S
C2378 C2370 1.574 . S
C2378 H2373 0.949 . S
C2378 C2384 1.368 . S
C2379 C2363 1.349 . S
C2379 H2371 0.950 . S
C2379 C2377 1.327 . S
C2380 C2368 1.349 . S
C2380 H2374 0.950 . S
C2380 C2381 1.327 . S
C2381 H2375 0.950 . S
C2381 C2380 1.327 . S
C2381 C2385 1.429 . S
C2382 C2365 1.574 . S
C2382 H2376 0.949 . S
C2382 C2386 1.368 . S
C2383 C2364 1.429 . S
C2383 C2377 1.429 . S
C2383 C2384 1.523 . S
C2384 C2365 1.368 . S
C2384 C2378 1.368 . S
C2384 C2383 1.523 . S
C2385 C2369 1.429 . S
C2385 C2381 1.429 . S
C2385 C2386 1.523 . S
C2386 C2370 1.368 . S
C2386 C2382 1.368 . S
C2386 C2385 1.523 . S
H2387 C2362 0.950 . S
H2388 C2364 0.950 . S
H2389 C2365 0.949 . S
H2390 C2367 0.950 . S
H2391 C2369 0.950 . S
C2392 C2393 1.349 . S
C2392 C2394 1.327 . S
C2392 H2417 0.950 . S
C2393 C2392 1.349 . S
C2393 C2409 1.349 . S
C2394 C2392 1.327 . S
C2394 C2413 1.429 . S
C2394 H2418 0.950 . S
C2395 C2412 1.574 . S
C2395 C2414 1.368 . S
C2395 H2419 0.949 . S
H2396 C2400 0.949 . S
C2397 C2398 1.349 . S
C2397 C2399 1.327 . S
C2397 H2420 0.950 . S
C2398 C2397 1.349 . S
C2398 C2410 1.349 . S
C2399 C2397 1.327 . S
C2399 C2415 1.429 . S
C2399 H2421 0.950 . S
C2400 H2396 0.949 . S
C2400 C2408 1.574 . S
C2400 C2416 1.368 . S
H2401 C2409 0.950 . S
H2402 C2407 0.950 . S
H2403 C2408 0.949 . S
H2404 C2410 0.950 . S
H2405 C2411 0.950 . S
H2406 C2412 0.949 . S
C2407 H2402 0.950 . S
C2407 C2409 1.327 . S
C2407 C2413 1.429 . S
C2408 C2400 1.574 . S
C2408 H2403 0.949 . S
C2408 C2414 1.368 . S
C2409 C2393 1.349 . S
C2409 H2401 0.950 . S
C2409 C2407 1.327 . S
C2410 C2398 1.349 . S
C2410 H2404 0.950 . S
C2410 C2411 1.327 . S
C2411 H2405 0.950 . S
C2411 C2410 1.327 . S
C2411 C2415 1.429 . S
C2412 C2395 1.574 . S
C2412 H2406 0.949 . S
C2412 C2416 1.368 . S
C2413 C2394 1.429 . S
C2413 C2407 1.429 . S
C2413 C2414 1.523 . S
C2414 C2395 1.368 . S
C2414 C2408 1.368 . S
C2414 C2413 1.523 . S
C2415 C2399 1.429 . S
C2415 C2411 1.429 . S
C2415 C2416 1.523 . S
C2416 C2400 1.368 . S
C2416 C2412 1.368 . S
C2416 C2415 1.523 . S
H2417 C2392 0.950 . S
H2418 C2394 0.950 . S
H2419 C2395 0.949 . S
H2420 C2397 0.950 . S
H2421 C2399 0.950 . S
C2422 C2423 1.349 . S
C2422 C2424 1.327 . S
C2422 H2447 0.950 . S
C2423 C2422 1.349 . S
C2423 C2439 1.349 . S
C2424 C2422 1.327 . S
C2424 C2443 1.429 . S
C2424 H2448 0.950 . S
C2425 C2442 1.574 . S
C2425 C2444 1.368 . S
C2425 H2449 0.949 . S
H2426 C2430 0.949 . S
C2427 C2428 1.349 . S
C2427 C2429 1.327 . S
C2427 H2450 0.950 . S
C2428 C2427 1.349 . S
C2428 C2440 1.349 . S
C2429 C2427 1.327 . S
C2429 C2445 1.429 . S
C2429 H2451 0.950 . S
C2430 H2426 0.949 . S
C2430 C2438 1.574 . S
C2430 C2446 1.368 . S
H2431 C2439 0.950 . S
H2432 C2437 0.950 . S
H2433 C2438 0.949 . S
H2434 C2440 0.950 . S
H2435 C2441 0.950 . S
H2436 C2442 0.949 . S
C2437 H2432 0.950 . S
C2437 C2439 1.327 . S
C2437 C2443 1.429 . S
C2438 C2430 1.574 . S
C2438 H2433 0.949 . S
C2438 C2444 1.368 . S
C2439 C2423 1.349 . S
C2439 H2431 0.950 . S
C2439 C2437 1.327 . S
C2440 C2428 1.349 . S
C2440 H2434 0.950 . S
C2440 C2441 1.327 . S
C2441 H2435 0.950 . S
C2441 C2440 1.327 . S
C2441 C2445 1.429 . S
C2442 C2425 1.574 . S
C2442 H2436 0.949 . S
C2442 C2446 1.368 . S
C2443 C2424 1.429 . S
C2443 C2437 1.429 . S
C2443 C2444 1.523 . S
C2444 C2425 1.368 . S
C2444 C2438 1.368 . S
C2444 C2443 1.523 . S
C2445 C2429 1.429 . S
C2445 C2441 1.429 . S
C2445 C2446 1.523 . S
C2446 C2430 1.368 . S
C2446 C2442 1.368 . S
C2446 C2445 1.523 . S
H2447 C2422 0.950 . S
H2448 C2424 0.950 . S
H2449 C2425 0.949 . S
H2450 C2427 0.950 . S
H2451 C2429 0.950 . S
C2452 C2453 1.360 . S
C2452 C2454 1.321 . S
C2452 H2477 0.946 1_455 S
C2453 C2452 1.360 . S
C2453 C2469 1.349 . S
C2454 C2452 1.321 . S
C2454 C2473 1.429 . S
C2454 H2478 0.952 1_455 S
C2455 C2472 1.574 1_556 S
C2455 C2474 1.368 . S
C2455 H2479 0.949 . S
H2456 C2460 0.949 . S
C2457 C2458 1.349 . S
C2457 C2459 1.327 . S
C2457 H2480 0.950 . S
C2458 C2457 1.349 . S
C2458 C2470 1.349 . S
C2459 C2457 1.327 . S
C2459 C2475 1.429 . S
C2459 H2481 0.950 . S
C2460 H2456 0.949 . S
C2460 C2468 1.574 . S
C2460 C2476 1.368 . S
H2461 C2469 0.950 . S
H2462 C2467 0.950 . S
H2463 C2468 0.949 . S
H2464 C2470 0.967 . S
H2465 C2471 0.950 . S
H2466 C2472 0.949 . S
C2467 H2462 0.950 . S
C2467 C2469 1.327 . S
C2467 C2473 1.429 . S
C2468 C2460 1.574 . S
C2468 H2463 0.949 . S
C2468 C2474 1.368 . S
C2469 C2453 1.349 . S
C2469 H2461 0.950 . S
C2469 C2467 1.327 . S
C2470 C2458 1.349 . S
C2470 H2464 0.967 . S
C2470 C2471 1.327 1_554 S
C2471 H2465 0.950 . S
C2471 C2470 1.327 1_556 S
C2471 C2475 1.429 1_556 S
C2472 C2455 1.574 1_554 S
C2472 H2466 0.949 . S
C2472 C2476 1.368 1_554 S
C2473 C2454 1.429 . S
C2473 C2467 1.429 . S
C2473 C2474 1.523 . S
C2474 C2455 1.368 . S
C2474 C2468 1.368 . S
C2474 C2473 1.523 . S
C2475 C2459 1.429 . S
C2475 C2471 1.429 1_554 S
C2475 C2476 1.523 1_554 S
C2476 C2460 1.368 . S
C2476 C2472 1.368 1_556 S
C2476 C2475 1.523 1_556 S
H2477 C2452 0.946 1_655 S
H2478 C2454 0.952 1_655 S
H2479 C2455 0.949 . S
H2480 C2457 0.950 . S
H2481 C2459 0.950 . S
C2482 C2483 1.349 . S
C2482 C2484 1.327 . S
C2482 H2507 0.950 . S
C2483 C2482 1.349 . S
C2483 C2499 1.349 . S
C2484 C2482 1.327 . S
C2484 C2503 1.429 1_455 S
C2484 H2508 0.950 . S
C2485 C2502 1.574 . S
C2485 C2504 1.368 . S
C2485 H2509 0.949 . S
H2486 C2490 0.949 . S
C2487 C2488 1.349 . S
C2487 C2489 1.327 . S
C2487 H2510 0.950 . S
C2488 C2487 1.349 . S
C2488 C2500 1.349 . S
C2489 C2487 1.327 . S
C2489 C2505 1.429 . S
C2489 H2511 0.950 . S
C2490 H2486 0.949 . S
C2490 C2498 1.574 . S
C2490 C2506 1.368 . S
H2491 C2499 0.950 . S
H2492 C2497 0.950 . S
H2493 C2498 0.949 . S
H2494 C2500 0.950 . S
H2495 C2501 0.950 . S
H2496 C2502 0.949 . S
C2497 H2492 0.950 . S
C2497 C2499 1.327 1_655 S
C2497 C2503 1.429 . S
C2498 C2490 1.574 . S
C2498 H2493 0.949 . S
C2498 C2504 1.368 . S
C2499 C2483 1.349 . S
C2499 H2491 0.950 . S
C2499 C2497 1.327 1_455 S
C2500 C2488 1.349 . S
C2500 H2494 0.950 . S
C2500 C2501 1.327 . S
C2501 H2495 0.950 . S
C2501 C2500 1.327 . S
C2501 C2505 1.429 . S
C2502 C2485 1.574 . S
C2502 H2496 0.949 . S
C2502 C2506 1.368 . S
C2503 C2484 1.429 1_655 S
C2503 C2497 1.429 . S
C2503 C2504 1.523 . S
C2504 C2485 1.368 . S
C2504 C2498 1.368 . S
C2504 C2503 1.523 . S
C2505 C2489 1.429 . S
C2505 C2501 1.429 . S
C2505 C2506 1.523 . S
C2506 C2490 1.368 . S
C2506 C2502 1.368 . S
C2506 C2505 1.523 . S
H2507 C2482 0.950 . S
H2508 C2484 0.950 . S
H2509 C2485 0.949 . S
H2510 C2487 0.950 . S
H2511 C2489 0.950 . S
C2512 C2513 1.349 . S
C2512 C2514 1.327 . S
C2512 H2537 0.950 . S
C2513 C2512 1.349 . S
C2513 C2529 1.349 . S
C2514 C2512 1.327 . S
C2514 C2533 1.429 . S
C2514 H2538 0.950 . S
C2515 C2532 1.574 . S
C2515 C2534 1.368 . S
C2515 H2539 0.949 . S
H2516 C2520 0.949 . S
C2517 C2518 1.349 . S
C2517 C2519 1.327 . S
C2517 H2540 0.950 . S
C2518 C2517 1.349 . S
C2518 C2530 1.349 . S
C2519 C2517 1.327 . S
C2519 C2535 1.429 . S
C2519 H2541 0.950 . S
C2520 H2516 0.949 . S
C2520 C2528 1.574 . S
C2520 C2536 1.368 . S
H2521 C2529 0.950 . S
H2522 C2527 0.950 . S
H2523 C2528 0.949 . S
H2524 C2530 0.950 . S
H2525 C2531 0.950 . S
H2526 C2532 0.949 . S
C2527 H2522 0.950 . S
C2527 C2529 1.327 . S
C2527 C2533 1.429 . S
C2528 C2520 1.574 . S
C2528 H2523 0.949 . S
C2528 C2534 1.368 . S
C2529 C2513 1.349 . S
C2529 H2521 0.950 . S
C2529 C2527 1.327 . S
C2530 C2518 1.349 . S
C2530 H2524 0.950 . S
C2530 C2531 1.327 . S
C2531 H2525 0.950 . S
C2531 C2530 1.327 . S
C2531 C2535 1.429 . S
C2532 C2515 1.574 . S
C2532 H2526 0.949 . S
C2532 C2536 1.368 . S
C2533 C2514 1.429 . S
C2533 C2527 1.429 . S
C2533 C2534 1.523 . S
C2534 C2515 1.368 . S
C2534 C2528 1.368 . S
C2534 C2533 1.523 . S
C2535 C2519 1.429 . S
C2535 C2531 1.429 . S
C2535 C2536 1.523 . S
C2536 C2520 1.368 . S
C2536 C2532 1.368 . S
C2536 C2535 1.523 . S
H2537 C2512 0.950 . S
H2538 C2514 0.950 . S
H2539 C2515 0.949 . S
H2540 C2517 0.950 . S
H2541 C2519 0.950 . S
C2542 C2543 1.349 . S
C2542 C2544 1.327 . S
C2542 H2567 0.950 . S
C2543 C2542 1.349 . S
C2543 C2559 1.349 . S
C2544 C2542 1.327 . S
C2544 C2563 1.429 . S
C2544 H2568 0.950 . S
C2545 C2562 1.574 . S
C2545 C2564 1.368 . S
C2545 H2569 0.949 . S
H2546 C2550 0.949 . S
C2547 C2548 1.349 . S
C2547 C2549 1.327 . S
C2547 H2570 0.950 . S
C2548 C2547 1.349 . S
C2548 C2560 1.349 . S
C2549 C2547 1.327 . S
C2549 C2565 1.429 . S
C2549 H2571 0.950 . S
C2550 H2546 0.949 . S
C2550 C2558 1.574 . S
C2550 C2566 1.368 . S
H2551 C2559 0.950 . S
H2552 C2557 0.950 . S
H2553 C2558 0.949 . S
H2554 C2560 0.950 . S
H2555 C2561 0.950 . S
H2556 C2562 0.949 . S
C2557 H2552 0.950 . S
C2557 C2559 1.327 . S
C2557 C2563 1.429 . S
C2558 C2550 1.574 . S
C2558 H2553 0.949 . S
C2558 C2564 1.368 . S
C2559 C2543 1.349 . S
C2559 H2551 0.950 . S
C2559 C2557 1.327 . S
C2560 C2548 1.349 . S
C2560 H2554 0.950 . S
C2560 C2561 1.327 . S
C2561 H2555 0.950 . S
C2561 C2560 1.327 . S
C2561 C2565 1.429 . S
C2562 C2545 1.574 . S
C2562 H2556 0.949 . S
C2562 C2566 1.368 . S
C2563 C2544 1.429 . S
C2563 C2557 1.429 . S
C2563 C2564 1.523 . S
C2564 C2545 1.368 . S
C2564 C2558 1.368 . S
C2564 C2563 1.523 . S
C2565 C2549 1.429 . S
C2565 C2561 1.429 . S
C2565 C2566 1.523 . S
C2566 C2550 1.368 . S
C2566 C2562 1.368 . S
C2566 C2565 1.523 . S
H2567 C2542 0.950 . S
H2568 C2544 0.950 . S
H2569 C2545 0.949 . S
H2570 C2547 0.950 . S
H2571 C2549 0.950 . S
C2572 C2573 1.349 . S
C2572 C2574 1.327 . S
C2572 H2597 0.950 . S
C2573 C2572 1.349 . S
C2573 C2589 1.349 . S
C2574 C2572 1.327 . S
C2574 C2593 1.429 . S
C2574 H2598 0.950 . S
C2575 C2592 1.574 . S
C2575 C2594 1.368 . S
C2575 H2599 0.949 . S
H2576 C2580 0.949 . S
C2577 C2578 1.349 . S
C2577 C2579 1.327 . S
C2577 H2600 0.950 . S
C2578 C2577 1.349 . S
C2578 C2590 1.349 . S
C2579 C2577 1.327 . S
C2579 C2595 1.429 . S
C2579 H2601 0.950 . S
C2580 H2576 0.949 . S
C2580 C2588 1.574 . S
C2580 C2596 1.368 . S
H2581 C2589 0.950 . S
H2582 C2587 0.950 . S
H2583 C2588 0.949 . S
H2584 C2590 0.968 . S
H2585 C2591 0.950 . S
H2586 C2592 0.949 . S
C2587 H2582 0.950 . S
C2587 C2589 1.327 . S
C2587 C2593 1.429 . S
C2588 C2580 1.574 . S
C2588 H2583 0.949 . S
C2588 C2594 1.368 . S
C2589 C2573 1.349 . S
C2589 H2581 0.950 . S
C2589 C2587 1.327 . S
C2590 C2578 1.349 . S
C2590 H2584 0.968 . S
C2590 C2591 1.327 . S
C2591 H2585 0.950 . S
C2591 C2590 1.327 . S
C2591 C2595 1.429 . S
C2592 C2575 1.574 . S
C2592 H2586 0.949 . S
C2592 C2596 1.368 . S
C2593 C2574 1.429 . S
C2593 C2587 1.429 . S
C2593 C2594 1.523 . S
C2594 C2575 1.368 . S
C2594 C2588 1.368 . S
C2594 C2593 1.523 . S
C2595 C2579 1.429 . S
C2595 C2591 1.429 . S
C2595 C2596 1.523 . S
C2596 C2580 1.368 . S
C2596 C2592 1.368 . S
C2596 C2595 1.523 . S
H2597 C2572 0.950 . S
H2598 C2574 0.950 . S
H2599 C2575 0.949 . S
H2600 C2577 0.950 . S
H2601 C2579 0.950 . S
C2602 C2603 1.349 . S
C2602 C2604 1.327 . S
C2602 H2627 0.950 . S
C2603 C2602 1.349 . S
C2603 C2619 1.349 . S
C2604 C2602 1.327 . S
C2604 C2623 1.429 . S
C2604 H2628 0.950 . S
C2605 C2622 1.574 . S
C2605 C2624 1.368 . S
C2605 H2629 0.949 . S
H2606 C2610 0.949 . S
C2607 C2608 1.349 . S
C2607 C2609 1.327 . S
C2607 H2630 0.950 . S
C2608 C2607 1.349 . S
C2608 C2620 1.349 . S
C2609 C2607 1.327 . S
C2609 C2625 1.429 . S
C2609 H2631 0.950 . S
C2610 H2606 0.949 . S
C2610 C2618 1.574 . S
C2610 C2626 1.368 . S
H2611 C2619 0.950 . S
H2612 C2617 0.950 . S
H2613 C2618 0.949 . S
H2614 C2620 0.950 . S
H2615 C2621 0.950 . S
H2616 C2622 0.949 . S
C2617 H2612 0.950 . S
C2617 C2619 1.327 . S
C2617 C2623 1.429 . S
C2618 C2610 1.574 . S
C2618 H2613 0.949 . S
C2618 C2624 1.368 . S
C2619 C2603 1.349 . S
C2619 H2611 0.950 . S
C2619 C2617 1.327 . S
C2620 C2608 1.349 . S
C2620 H2614 0.950 . S
C2620 C2621 1.327 . S
C2621 H2615 0.950 . S
C2621 C2620 1.327 . S
C2621 C2625 1.429 . S
C2622 C2605 1.574 . S
C2622 H2616 0.949 . S
C2622 C2626 1.368 . S
C2623 C2604 1.429 . S
C2623 C2617 1.429 . S
C2623 C2624 1.523 . S
C2624 C2605 1.368 . S
C2624 C2618 1.368 . S
C2624 C2623 1.523 . S
C2625 C2609 1.429 . S
C2625 C2621 1.429 . S
C2625 C2626 1.523 . S
C2626 C2610 1.368 . S
C2626 C2622 1.368 . S
C2626 C2625 1.523 . S
H2627 C2602 0.950 . S
H2628 C2604 0.950 . S
H2629 C2605 0.949 . S
H2630 C2607 0.950 . S
H2631 C2609 0.950 . S
C2632 C2633 1.349 . S
C2632 C2634 1.327 . S
C2632 H2657 0.950 . S
C2633 C2632 1.349 . S
C2633 C2649 1.349 . S
C2634 C2632 1.327 . S
C2634 C2653 1.429 . S
C2634 H2658 0.950 . S
C2635 C2652 1.574 . S
C2635 C2654 1.368 . S
C2635 H2659 0.949 . S
H2636 C2640 0.949 . S
C2637 C2638 1.349 . S
C2637 C2639 1.327 . S
C2637 H2660 0.950 . S
C2638 C2637 1.349 . S
C2638 C2650 1.349 . S
C2639 C2637 1.327 . S
C2639 C2655 1.429 . S
C2639 H2661 0.950 . S
C2640 H2636 0.949 . S
C2640 C2648 1.574 . S
C2640 C2656 1.368 . S
H2641 C2649 0.950 . S
H2642 C2647 0.950 . S
H2643 C2648 0.949 . S
H2644 C2650 0.950 . S
H2645 C2651 0.950 . S
H2646 C2652 0.949 . S
C2647 H2642 0.950 . S
C2647 C2649 1.327 . S
C2647 C2653 1.429 . S
C2648 C2640 1.574 . S
C2648 H2643 0.949 . S
C2648 C2654 1.368 . S
C2649 C2633 1.349 . S
C2649 H2641 0.950 . S
C2649 C2647 1.327 . S
C2650 C2638 1.349 . S
C2650 H2644 0.950 . S
C2650 C2651 1.327 . S
C2651 H2645 0.950 . S
C2651 C2650 1.327 . S
C2651 C2655 1.429 . S
C2652 C2635 1.574 . S
C2652 H2646 0.949 . S
C2652 C2656 1.368 . S
C2653 C2634 1.429 . S
C2653 C2647 1.429 . S
C2653 C2654 1.523 . S
C2654 C2635 1.368 . S
C2654 C2648 1.368 . S
C2654 C2653 1.523 . S
C2655 C2639 1.429 . S
C2655 C2651 1.429 . S
C2655 C2656 1.523 . S
C2656 C2640 1.368 . S
C2656 C2652 1.368 . S
C2656 C2655 1.523 . S
H2657 C2632 0.950 . S
H2658 C2634 0.950 . S
H2659 C2635 0.949 . S
H2660 C2637 0.950 . S
H2661 C2639 0.950 . S
C2662 C2663 1.349 . S
C2662 C2664 1.327 1_554 S
C2662 H2687 0.950 . S
C2663 C2662 1.349 . S
C2663 C2679 1.349 1_554 S
C2664 C2662 1.327 1_556 S
C2664 C2683 1.429 . S
C2664 H2688 0.955 . S
C2665 C2682 1.574 . S
C2665 C2684 1.368 . S
C2665 H2689 0.949 . S
H2666 C2670 0.949 . S
C2667 C2668 1.349 . S
C2667 C2669 1.327 . S
C2667 H2690 0.950 . S
C2668 C2667 1.349 . S
C2668 C2680 1.349 . S
C2669 C2667 1.327 . S
C2669 C2685 1.429 . S
C2669 H2691 0.950 . S
C2670 H2666 0.949 . S
C2670 C2678 1.574 . S
C2670 C2686 1.368 . S
H2671 C2679 0.950 . S
H2672 C2677 0.950 . S
H2673 C2678 0.949 . S
H2674 C2680 0.950 . S
H2675 C2681 0.950 . S
H2676 C2682 0.949 . S
C2677 H2672 0.950 . S
C2677 C2679 1.327 . S
C2677 C2683 1.429 . S
C2678 C2670 1.574 . S
C2678 H2673 0.949 . S
C2678 C2684 1.368 . S
C2679 C2663 1.349 1_556 S
C2679 H2671 0.950 . S
C2679 C2677 1.327 . S
C2680 C2668 1.349 . S
C2680 H2674 0.950 . S
C2680 C2681 1.327 . S
C2681 H2675 0.950 . S
C2681 C2680 1.327 . S
C2681 C2685 1.429 . S
C2682 C2665 1.574 . S
C2682 H2676 0.949 . S
C2682 C2686 1.368 . S
C2683 C2664 1.429 . S
C2683 C2677 1.429 . S
C2683 C2684 1.523 . S
C2684 C2665 1.368 . S
C2684 C2678 1.368 . S
C2684 C2683 1.523 . S
C2685 C2669 1.429 . S
C2685 C2681 1.429 . S
C2685 C2686 1.523 . S
C2686 C2670 1.368 . S
C2686 C2682 1.368 . S
C2686 C2685 1.523 . S
H2687 C2662 0.950 . S
H2688 C2664 0.955 . S
H2689 C2665 0.949 . S
H2690 C2667 0.950 . S
H2691 C2669 0.950 . S
C2692 C2693 1.349 . S
C2692 C2694 1.327 . S
C2692 H2717 0.950 . S
C2693 C2692 1.349 . S
C2693 C2709 1.349 . S
C2694 C2692 1.327 . S
C2694 C2713 1.429 . S
C2694 H2718 0.950 . S
C2695 C2712 1.574 . S
C2695 C2714 1.368 . S
C2695 H2719 0.949 . S
H2696 C2700 0.949 . S
C2697 C2698 1.349 . S
C2697 C2699 1.327 . S
C2697 H2720 0.950 . S
C2698 C2697 1.349 . S
C2698 C2710 1.349 . S
C2699 C2697 1.327 . S
C2699 C2715 1.429 . S
C2699 H2721 0.950 . S
C2700 H2696 0.949 . S
C2700 C2708 1.574 . S
C2700 C2716 1.368 . S
H2701 C2709 0.950 . S
H2702 C2707 0.950 . S
H2703 C2708 0.949 . S
H2704 C2710 0.950 . S
H2705 C2711 0.950 . S
H2706 C2712 0.949 . S
C2707 H2702 0.950 . S
C2707 C2709 1.327 . S
C2707 C2713 1.429 . S
C2708 C2700 1.574 . S
C2708 H2703 0.949 . S
C2708 C2714 1.368 . S
C2709 C2693 1.349 . S
C2709 H2701 0.950 . S
C2709 C2707 1.327 . S
C2710 C2698 1.349 . S
C2710 H2704 0.950 . S
C2710 C2711 1.327 . S
C2711 H2705 0.950 . S
C2711 C2710 1.327 . S
C2711 C2715 1.429 . S
C2712 C2695 1.574 . S
C2712 H2706 0.949 . S
C2712 C2716 1.368 . S
C2713 C2694 1.429 . S
C2713 C2707 1.429 . S
C2713 C2714 1.523 . S
C2714 C2695 1.368 . S
C2714 C2708 1.368 . S
C2714 C2713 1.523 . S
C2715 C2699 1.429 . S
C2715 C2711 1.429 . S
C2715 C2716 1.523 . S
C2716 C2700 1.368 . S
C2716 C2712 1.368 . S
C2716 C2715 1.523 . S
H2717 C2692 0.950 . S
H2718 C2694 0.950 . S
H2719 C2695 0.949 . S
H2720 C2697 0.950 . S
H2721 C2699 0.950 . S
C2722 C2723 1.349 . S
C2722 C2724 1.327 . S
C2722 H2747 0.950 . S
C2723 C2722 1.349 . S
C2723 C2739 1.349 . S
C2724 C2722 1.327 . S
C2724 C2743 1.429 . S
C2724 H2748 0.950 . S
C2725 C2742 1.574 . S
C2725 C2744 1.368 . S
C2725 H2749 0.949 . S
H2726 C2730 0.949 . S
C2727 C2728 1.349 . S
C2727 C2729 1.327 . S
C2727 H2750 0.950 . S
C2728 C2727 1.349 . S
C2728 C2740 1.349 . S
C2729 C2727 1.327 . S
C2729 C2745 1.429 . S
C2729 H2751 0.950 . S
C2730 H2726 0.949 . S
C2730 C2738 1.574 . S
C2730 C2746 1.368 . S
H2731 C2739 0.950 . S
H2732 C2737 0.950 . S
H2733 C2738 0.949 . S
H2734 C2740 0.950 . S
H2735 C2741 0.950 . S
H2736 C2742 0.949 . S
C2737 H2732 0.950 . S
C2737 C2739 1.327 . S
C2737 C2743 1.429 . S
C2738 C2730 1.574 . S
C2738 H2733 0.949 . S
C2738 C2744 1.368 . S
C2739 C2723 1.349 . S
C2739 H2731 0.950 . S
C2739 C2737 1.327 . S
C2740 C2728 1.349 . S
C2740 H2734 0.950 . S
C2740 C2741 1.327 . S
C2741 H2735 0.950 . S
C2741 C2740 1.327 . S
C2741 C2745 1.429 . S
C2742 C2725 1.574 . S
C2742 H2736 0.949 . S
C2742 C2746 1.368 . S
C2743 C2724 1.429 . S
C2743 C2737 1.429 . S
C2743 C2744 1.523 . S
C2744 C2725 1.368 . S
C2744 C2738 1.368 . S
C2744 C2743 1.523 . S
C2745 C2729 1.429 . S
C2745 C2741 1.429 . S
C2745 C2746 1.523 . S
C2746 C2730 1.368 . S
C2746 C2742 1.368 . S
C2746 C2745 1.523 . S
H2747 C2722 0.950 . S
H2748 C2724 0.950 . S
H2749 C2725 0.949 . S
H2750 C2727 0.950 . S
H2751 C2729 0.950 . S
C2752 C2753 1.349 . S
C2752 C2754 1.327 . S
C2752 H2777 0.950 . S
C2753 C2752 1.349 . S
C2753 C2769 1.349 . S
C2754 C2752 1.327 . S
C2754 C2773 1.429 . S
C2754 H2778 0.950 . S
C2755 C2772 1.574 . S
C2755 C2774 1.368 . S
C2755 H2779 0.949 . S
H2756 C2760 0.949 . S
C2757 C2758 1.349 . S
C2757 C2759 1.327 . S
C2757 H2780 0.950 . S
C2758 C2757 1.349 . S
C2758 C2770 1.349 . S
C2759 C2757 1.327 . S
C2759 C2775 1.429 . S
C2759 H2781 0.950 . S
C2760 H2756 0.949 . S
C2760 C2768 1.574 . S
C2760 C2776 1.368 . S
H2761 C2769 0.950 . S
H2762 C2767 0.950 . S
H2763 C2768 0.949 . S
H2764 C2770 0.950 . S
H2765 C2771 0.950 . S
H2766 C2772 0.949 . S
C2767 H2762 0.950 . S
C2767 C2769 1.327 . S
C2767 C2773 1.429 . S
C2768 C2760 1.574 . S
C2768 H2763 0.949 . S
C2768 C2774 1.368 . S
C2769 C2753 1.349 . S
C2769 H2761 0.950 . S
C2769 C2767 1.327 . S
C2770 C2758 1.349 . S
C2770 H2764 0.950 . S
C2770 C2771 1.327 . S
C2771 H2765 0.950 . S
C2771 C2770 1.327 . S
C2771 C2775 1.429 . S
C2772 C2755 1.574 . S
C2772 H2766 0.949 . S
C2772 C2776 1.368 . S
C2773 C2754 1.429 . S
C2773 C2767 1.429 . S
C2773 C2774 1.523 . S
C2774 C2755 1.368 . S
C2774 C2768 1.368 . S
C2774 C2773 1.523 . S
C2775 C2759 1.429 . S
C2775 C2771 1.429 . S
C2775 C2776 1.523 . S
C2776 C2760 1.368 . S
C2776 C2772 1.368 . S
C2776 C2775 1.523 . S
H2777 C2752 0.950 . S
H2778 C2754 0.950 . S
H2779 C2755 0.949 . S
H2780 C2757 0.950 . S
H2781 C2759 0.950 . S
C2782 C2783 1.349 . S
C2782 C2784 1.327 . S
C2782 H2807 0.950 . S
C2783 C2782 1.349 . S
C2783 C2799 1.349 . S
C2784 C2782 1.327 . S
C2784 C2803 1.429 . S
C2784 H2808 0.950 . S
C2785 C2802 1.574 . S
C2785 C2804 1.368 . S
C2785 H2809 0.949 . S
H2786 C2790 0.949 . S
C2787 C2788 1.349 . S
C2787 C2789 1.327 . S
C2787 H2810 0.950 . S
C2788 C2787 1.349 . S
C2788 C2800 1.349 . S
C2789 C2787 1.327 . S
C2789 C2805 1.429 . S
C2789 H2811 0.950 . S
C2790 H2786 0.949 . S
C2790 C2798 1.574 . S
C2790 C2806 1.368 . S
H2791 C2799 0.950 . S
H2792 C2797 0.950 . S
H2793 C2798 0.949 . S
H2794 C2800 0.950 . S
H2795 C2801 0.950 . S
H2796 C2802 0.949 . S
C2797 H2792 0.950 . S
C2797 C2799 1.327 . S
C2797 C2803 1.429 . S
C2798 C2790 1.574 . S
C2798 H2793 0.949 . S
C2798 C2804 1.368 . S
C2799 C2783 1.349 . S
C2799 H2791 0.950 . S
C2799 C2797 1.327 . S
C2800 C2788 1.349 . S
C2800 H2794 0.950 . S
C2800 C2801 1.327 . S
C2801 H2795 0.950 . S
C2801 C2800 1.327 . S
C2801 C2805 1.429 . S
C2802 C2785 1.574 . S
C2802 H2796 0.949 . S
C2802 C2806 1.368 . S
C2803 C2784 1.429 . S
C2803 C2797 1.429 . S
C2803 C2804 1.523 . S
C2804 C2785 1.368 . S
C2804 C2798 1.368 . S
C2804 C2803 1.523 . S
C2805 C2789 1.429 . S
C2805 C2801 1.429 . S
C2805 C2806 1.523 . S
C2806 C2790 1.368 . S
C2806 C2802 1.368 . S
C2806 C2805 1.523 . S
H2807 C2782 0.950 . S
H2808 C2784 0.950 . S
H2809 C2785 0.949 . S
H2810 C2787 0.950 . S
H2811 C2789 0.950 . S
C2812 C2813 1.349 . S
C2812 C2814 1.327 . S
C2812 H2837 0.950 . S
C2813 C2812 1.349 . S
C2813 C2829 1.349 . S
C2814 C2812 1.327 . S
C2814 C2833 1.429 . S
C2814 H2838 0.950 . S
C2815 C2832 1.574 . S
C2815 C2834 1.368 . S
C2815 H2839 0.949 . S
H2816 C2820 0.949 . S
C2817 C2818 1.349 . S
C2817 C2819 1.327 . S
C2817 H2840 0.950 . S
C2818 C2817 1.349 . S
C2818 C2830 1.349 . S
C2819 C2817 1.327 . S
C2819 C2835 1.429 . S
C2819 H2841 0.950 . S
C2820 H2816 0.949 . S
C2820 C2828 1.574 . S
C2820 C2836 1.368 . S
H2821 C2829 0.950 . S
H2822 C2827 0.950 . S
H2823 C2828 0.949 . S
H2824 C2830 0.950 . S
H2825 C2831 0.950 . S
H2826 C2832 0.949 . S
C2827 H2822 0.950 . S
C2827 C2829 1.327 . S
C2827 C2833 1.429 . S
C2828 C2820 1.574 . S
C2828 H2823 0.949 . S
C2828 C2834 1.368 . S
C2829 C2813 1.349 . S
C2829 H2821 0.950 . S
C2829 C2827 1.327 . S
C2830 C2818 1.349 . S
C2830 H2824 0.950 . S
C2830 C2831 1.327 . S
C2831 H2825 0.950 . S
C2831 C2830 1.327 . S
C2831 C2835 1.429 . S
C2832 C2815 1.574 . S
C2832 H2826 0.949 . S
C2832 C2836 1.368 . S
C2833 C2814 1.429 . S
C2833 C2827 1.429 . S
C2833 C2834 1.523 . S
C2834 C2815 1.368 . S
C2834 C2828 1.368 . S
C2834 C2833 1.523 . S
C2835 C2819 1.429 . S
C2835 C2831 1.429 . S
C2835 C2836 1.523 . S
C2836 C2820 1.368 . S
C2836 C2832 1.368 . S
C2836 C2835 1.523 . S
H2837 C2812 0.950 . S
H2838 C2814 0.950 . S
H2839 C2815 0.949 . S
H2840 C2817 0.950 . S
H2841 C2819 0.950 . S
C2842 C2843 1.349 . S
C2842 C2844 1.327 . S
C2842 H2867 0.950 . S
C2843 C2842 1.349 . S
C2843 C2859 1.349 . S
C2844 C2842 1.327 . S
C2844 C2863 1.429 . S
C2844 H2868 0.950 . S
C2845 C2862 1.574 . S
C2845 C2864 1.368 . S
C2845 H2869 0.949 . S
H2846 C2850 0.949 . S
C2847 C2848 1.349 . S
C2847 C2849 1.327 . S
C2847 H2870 0.950 . S
C2848 C2847 1.349 . S
C2848 C2860 1.349 . S
C2849 C2847 1.327 . S
C2849 C2865 1.429 . S
C2849 H2871 0.950 . S
C2850 H2846 0.949 . S
C2850 C2858 1.574 . S
C2850 C2866 1.368 . S
H2851 C2859 0.950 . S
H2852 C2857 0.950 . S
H2853 C2858 0.949 . S
H2854 C2860 0.950 . S
H2855 C2861 0.950 . S
H2856 C2862 0.949 . S
C2857 H2852 0.950 . S
C2857 C2859 1.327 . S
C2857 C2863 1.429 . S
C2858 C2850 1.574 . S
C2858 H2853 0.949 . S
C2858 C2864 1.368 . S
C2859 C2843 1.349 . S
C2859 H2851 0.950 . S
C2859 C2857 1.327 . S
C2860 C2848 1.349 . S
C2860 H2854 0.950 . S
C2860 C2861 1.327 . S
C2861 H2855 0.950 . S
C2861 C2860 1.327 . S
C2861 C2865 1.429 . S
C2862 C2845 1.574 . S
C2862 H2856 0.949 . S
C2862 C2866 1.368 . S
C2863 C2844 1.429 . S
C2863 C2857 1.429 . S
C2863 C2864 1.523 . S
C2864 C2845 1.368 . S
C2864 C2858 1.368 . S
C2864 C2863 1.523 . S
C2865 C2849 1.429 . S
C2865 C2861 1.429 . S
C2865 C2866 1.523 . S
C2866 C2850 1.368 . S
C2866 C2862 1.368 . S
C2866 C2865 1.523 . S
H2867 C2842 0.950 . S
H2868 C2844 0.950 . S
H2869 C2845 0.949 . S
H2870 C2847 0.950 . S
H2871 C2849 0.950 . S
C2872 C2873 1.349 . S
C2872 C2874 1.327 . S
C2872 H2897 0.950 . S
C2873 C2872 1.349 . S
C2873 C2889 1.349 . S
C2874 C2872 1.327 . S
C2874 C2893 1.429 . S
C2874 H2898 0.950 . S
C2875 C2892 1.574 . S
C2875 C2894 1.368 . S
C2875 H2899 0.949 . S
H2876 C2880 0.949 . S
C2877 C2878 1.349 . S
C2877 C2879 1.327 . S
C2877 H2900 0.950 . S
C2878 C2877 1.349 . S
C2878 C2890 1.349 . S
C2879 C2877 1.327 . S
C2879 C2895 1.429 . S
C2879 H2901 0.950 . S
C2880 H2876 0.949 . S
C2880 C2888 1.574 . S
C2880 C2896 1.368 . S
H2881 C2889 0.950 . S
H2882 C2887 0.950 . S
H2883 C2888 0.949 . S
H2884 C2890 0.950 . S
H2885 C2891 0.950 . S
H2886 C2892 0.949 . S
C2887 H2882 0.950 . S
C2887 C2889 1.327 . S
C2887 C2893 1.429 . S
C2888 C2880 1.574 . S
C2888 H2883 0.949 . S
C2888 C2894 1.368 . S
C2889 C2873 1.349 . S
C2889 H2881 0.950 . S
C2889 C2887 1.327 . S
C2890 C2878 1.349 . S
C2890 H2884 0.950 . S
C2890 C2891 1.327 . S
C2891 H2885 0.950 . S
C2891 C2890 1.327 . S
C2891 C2895 1.429 . S
C2892 C2875 1.574 . S
C2892 H2886 0.949 . S
C2892 C2896 1.368 . S
C2893 C2874 1.429 . S
C2893 C2887 1.429 . S
C2893 C2894 1.523 . S
C2894 C2875 1.368 . S
C2894 C2888 1.368 . S
C2894 C2893 1.523 . S
C2895 C2879 1.429 . S
C2895 C2891 1.429 . S
C2895 C2896 1.523 . S
C2896 C2880 1.368 . S
C2896 C2892 1.368 . S
C2896 C2895 1.523 . S
H2897 C2872 0.950 . S
H2898 C2874 0.950 . S
H2899 C2875 0.949 . S
H2900 C2877 0.950 . S
H2901 C2879 0.950 . S
C2902 C2903 1.349 . S
C2902 C2904 1.327 . S
C2902 H2927 0.950 . S
C2903 C2902 1.349 . S
C2903 C2919 1.349 . S
C2904 C2902 1.327 . S
C2904 C2923 1.429 . S
C2904 H2928 0.950 . S
C2905 C2922 1.574 . S
C2905 C2924 1.368 . S
C2905 H2929 0.949 . S
H2906 C2910 0.949 . S
C2907 C2908 1.349 . S
C2907 C2909 1.327 . S
C2907 H2930 0.950 . S
C2908 C2907 1.349 . S
C2908 C2920 1.349 . S
C2909 C2907 1.327 . S
C2909 C2925 1.429 . S
C2909 H2931 0.950 . S
C2910 H2906 0.949 . S
C2910 C2918 1.574 . S
C2910 C2926 1.368 . S
H2911 C2919 0.950 . S
H2912 C2917 0.950 . S
H2913 C2918 0.949 . S
H2914 C2920 0.950 . S
H2915 C2921 0.950 . S
H2916 C2922 0.949 . S
C2917 H2912 0.950 . S
C2917 C2919 1.327 . S
C2917 C2923 1.429 . S
C2918 C2910 1.574 . S
C2918 H2913 0.949 . S
C2918 C2924 1.368 . S
C2919 C2903 1.349 . S
C2919 H2911 0.950 . S
C2919 C2917 1.327 . S
C2920 C2908 1.349 . S
C2920 H2914 0.950 . S
C2920 C2921 1.327 . S
C2921 H2915 0.950 . S
C2921 C2920 1.327 . S
C2921 C2925 1.429 . S
C2922 C2905 1.574 . S
C2922 H2916 0.949 . S
C2922 C2926 1.368 . S
C2923 C2904 1.429 . S
C2923 C2917 1.429 . S
C2923 C2924 1.523 . S
C2924 C2905 1.368 . S
C2924 C2918 1.368 . S
C2924 C2923 1.523 . S
C2925 C2909 1.429 . S
C2925 C2921 1.429 . S
C2925 C2926 1.523 . S
C2926 C2910 1.368 . S
C2926 C2922 1.368 . S
C2926 C2925 1.523 . S
H2927 C2902 0.950 . S
H2928 C2904 0.950 . S
H2929 C2905 0.949 . S
H2930 C2907 0.950 . S
H2931 C2909 0.950 . S
C2932 C2933 1.349 . S
C2932 C2934 1.327 . S
C2932 H2957 0.950 . S
C2933 C2932 1.349 . S
C2933 C2949 1.349 1_565 S
C2934 C2932 1.327 . S
C2934 C2953 1.429 . S
C2934 H2958 0.950 . S
C2935 C2952 1.574 . S
C2935 C2954 1.368 . S
C2935 H2959 0.949 . S
H2936 C2940 0.949 . S
C2937 C2938 1.349 . S
C2937 C2939 1.327 . S
C2937 H2960 0.950 . S
C2938 C2937 1.349 . S
C2938 C2950 1.349 . S
C2939 C2937 1.327 . S
C2939 C2955 1.429 . S
C2939 H2961 0.950 . S
C2940 H2936 0.949 . S
C2940 C2948 1.574 . S
C2940 C2956 1.368 . S
H2941 C2949 0.950 . S
H2942 C2947 0.944 1_545 S
H2943 C2948 0.949 . S
H2944 C2950 0.950 . S
H2945 C2951 0.950 . S
H2946 C2952 0.949 . S
C2947 H2942 0.944 1_565 S
C2947 C2949 1.327 1_565 S
C2947 C2953 1.429 . S
C2948 C2940 1.574 . S
C2948 H2943 0.949 . S
C2948 C2954 1.368 . S
C2949 C2933 1.349 1_545 S
C2949 H2941 0.950 . S
C2949 C2947 1.327 1_545 S
C2950 C2938 1.349 . S
C2950 H2944 0.950 . S
C2950 C2951 1.327 . S
C2951 H2945 0.950 . S
C2951 C2950 1.327 . S
C2951 C2955 1.429 . S
C2952 C2935 1.574 . S
C2952 H2946 0.949 . S
C2952 C2956 1.368 . S
C2953 C2934 1.429 . S
C2953 C2947 1.429 . S
C2953 C2954 1.523 . S
C2954 C2935 1.368 . S
C2954 C2948 1.368 . S
C2954 C2953 1.523 . S
C2955 C2939 1.429 . S
C2955 C2951 1.429 . S
C2955 C2956 1.523 . S
C2956 C2940 1.368 . S
C2956 C2952 1.368 . S
C2956 C2955 1.523 . S
H2957 C2932 0.950 . S
H2958 C2934 0.950 . S
H2959 C2935 0.949 . S
H2960 C2937 0.950 . S
H2961 C2939 0.950 . S
C2962 C2963 1.349 1_554 S
C2962 C2964 1.327 . S
C2962 H2987 0.950 . S
C2963 C2962 1.349 1_556 S
C2963 C2979 1.349 . S
C2964 C2962 1.327 . S
C2964 C2983 1.426 1_554 S
C2964 H2988 0.950 . S
C2965 C2982 1.574 1_565 S
C2965 C2984 1.368 1_556 S
C2965 H2989 0.949 . S
H2966 C2970 0.949 . S
C2967 C2968 1.349 1_556 S
C2967 C2969 1.327 . S
C2967 H2990 0.950 . S
C2968 C2967 1.349 1_554 S
C2968 C2980 1.349 . S
C2969 C2967 1.327 . S
C2969 C2985 1.429 1_556 S
C2969 H2991 0.950 . S
C2970 H2966 0.949 . S
C2970 C2978 1.574 . S
C2970 C2986 1.368 . S
H2971 C2979 0.950 . S
H2972 C2977 0.950 . S
H2973 C2978 0.949 . S
H2974 C2980 0.950 . S
H2975 C2981 0.950 1_565 S
H2976 C2982 0.949 . S
C2977 H2972 0.950 . S
C2977 C2979 1.327 . S
C2977 C2983 1.431 . S
C2978 C2970 1.574 . S
C2978 H2973 0.949 . S
C2978 C2984 1.368 . S
C2979 C2963 1.349 . S
C2979 H2971 0.950 . S
C2979 C2977 1.327 . S
C2980 C2968 1.349 . S
C2980 H2974 0.950 . S
C2980 C2981 1.327 . S
C2981 H2975 0.950 1_545 S
C2981 C2980 1.327 . S
C2981 C2985 1.429 . S
C2982 C2965 1.574 1_545 S
C2982 H2976 0.949 . S
C2982 C2986 1.368 1_546 S
C2983 C2964 1.426 1_556 S
C2983 C2977 1.431 . S
C2983 C2984 1.523 1_556 S
C2984 C2965 1.368 1_554 S
C2984 C2978 1.368 . S
C2984 C2983 1.523 1_554 S
C2985 C2969 1.429 1_554 S
C2985 C2981 1.429 . S
C2985 C2986 1.523 1_545 S
C2986 C2970 1.368 . S
C2986 C2982 1.368 1_564 S
C2986 C2985 1.523 1_565 S
H2987 C2962 0.950 . S
H2988 C2964 0.950 . S
H2989 C2965 0.949 . S
H2990 C2967 0.950 . S
H2991 C2969 0.950 . S
C2992 C2993 1.349 . S
C2992 C2994 1.327 . S
C2992 H3017 0.950 . S
C2993 C2992 1.349 . S
C2993 C3009 1.349 . S
C2994 C2992 1.327 . S
C2994 C3013 1.429 . S
C2994 H3018 0.950 . S
C2995 C3012 1.574 . S
C2995 C3014 1.368 . S
C2995 H3019 0.949 . S
H2996 C3000 0.949 . S
C2997 C2998 1.349 . S
C2997 C2999 1.327 . S
C2997 H3020 0.950 . S
C2998 C2997 1.349 . S
C2998 C3010 1.349 . S
C2999 C2997 1.327 . S
C2999 C3015 1.429 . S
C2999 H3021 0.950 . S
C3000 H2996 0.949 . S
C3000 C3008 1.574 . S
C3000 C3016 1.368 . S
H3001 C3009 0.950 . S
H3002 C3007 0.950 . S
H3003 C3008 0.949 . S
H3004 C3010 0.950 . S
H3005 C3011 0.950 . S
H3006 C3012 0.949 . S
C3007 H3002 0.950 . S
C3007 C3009 1.327 . S
C3007 C3013 1.429 . S
C3008 C3000 1.574 . S
C3008 H3003 0.949 . S
C3008 C3014 1.368 . S
C3009 C2993 1.349 . S
C3009 H3001 0.950 . S
C3009 C3007 1.327 . S
C3010 C2998 1.349 . S
C3010 H3004 0.950 . S
C3010 C3011 1.327 . S
C3011 H3005 0.950 . S
C3011 C3010 1.327 . S
C3011 C3015 1.429 . S
C3012 C2995 1.574 . S
C3012 H3006 0.949 . S
C3012 C3016 1.368 . S
C3013 C2994 1.429 . S
C3013 C3007 1.429 . S
C3013 C3014 1.523 . S
C3014 C2995 1.368 . S
C3014 C3008 1.368 . S
C3014 C3013 1.523 . S
C3015 C2999 1.429 . S
C3015 C3011 1.429 . S
C3015 C3016 1.523 . S
C3016 C3000 1.368 . S
C3016 C3012 1.368 . S
C3016 C3015 1.523 . S
H3017 C2992 0.950 . S
H3018 C2994 0.950 . S
H3019 C2995 0.949 . S
H3020 C2997 0.950 . S
H3021 C2999 0.950 . S
C3022 C3023 1.349 . S
C3022 C3024 1.327 . S
C3022 H3047 0.950 . S
C3023 C3022 1.349 . S
C3023 C3039 1.349 . S
C3024 C3022 1.327 . S
C3024 C3043 1.429 . S
C3024 H3048 0.950 . S
C3025 C3042 1.574 . S
C3025 C3044 1.368 . S
C3025 H3049 0.949 . S
H3026 C3030 0.949 . S
C3027 C3028 1.349 . S
C3027 C3029 1.327 . S
C3027 H3050 0.950 . S
C3028 C3027 1.349 . S
C3028 C3040 1.349 . S
C3029 C3027 1.327 . S
C3029 C3045 1.429 . S
C3029 H3051 0.950 . S
C3030 H3026 0.949 . S
C3030 C3038 1.574 . S
C3030 C3046 1.368 . S
H3031 C3039 0.950 . S
H3032 C3037 0.950 . S
H3033 C3038 0.949 . S
H3034 C3040 0.950 . S
H3035 C3041 0.950 . S
H3036 C3042 0.949 . S
C3037 H3032 0.950 . S
C3037 C3039 1.327 . S
C3037 C3043 1.429 . S
C3038 C3030 1.574 . S
C3038 H3033 0.949 . S
C3038 C3044 1.368 . S
C3039 C3023 1.349 . S
C3039 H3031 0.950 . S
C3039 C3037 1.327 . S
C3040 C3028 1.349 . S
C3040 H3034 0.950 . S
C3040 C3041 1.327 . S
C3041 H3035 0.950 . S
C3041 C3040 1.327 . S
C3041 C3045 1.429 . S
C3042 C3025 1.574 . S
C3042 H3036 0.949 . S
C3042 C3046 1.368 . S
C3043 C3024 1.429 . S
C3043 C3037 1.429 . S
C3043 C3044 1.523 . S
C3044 C3025 1.368 . S
C3044 C3038 1.368 . S
C3044 C3043 1.523 . S
C3045 C3029 1.429 . S
C3045 C3041 1.429 . S
C3045 C3046 1.523 . S
C3046 C3030 1.368 . S
C3046 C3042 1.368 . S
C3046 C3045 1.523 . S
H3047 C3022 0.950 . S
H3048 C3024 0.950 . S
H3049 C3025 0.949 . S
H3050 C3027 0.950 . S
H3051 C3029 0.950 . S
C3052 C3053 1.349 . S
C3052 C3054 1.327 . S
C3052 H3077 0.950 . S
C3053 C3052 1.349 . S
C3053 C3069 1.349 . S
C3054 C3052 1.327 . S
C3054 C3073 1.429 . S
C3054 H3078 0.950 . S
C3055 C3072 1.574 . S
C3055 C3074 1.368 . S
C3055 H3079 0.949 . S
H3056 C3060 0.949 . S
C3057 C3058 1.349 . S
C3057 C3059 1.327 . S
C3057 H3080 0.950 . S
C3058 C3057 1.349 . S
C3058 C3070 1.349 . S
C3059 C3057 1.327 . S
C3059 C3075 1.429 . S
C3059 H3081 0.950 . S
C3060 H3056 0.949 . S
C3060 C3068 1.574 . S
C3060 C3076 1.368 . S
H3061 C3069 0.950 . S
H3062 C3067 0.950 . S
H3063 C3068 0.949 . S
H3064 C3070 0.950 . S
H3065 C3071 0.950 . S
H3066 C3072 0.949 . S
C3067 H3062 0.950 . S
C3067 C3069 1.327 . S
C3067 C3073 1.429 . S
C3068 C3060 1.574 . S
C3068 H3063 0.949 . S
C3068 C3074 1.368 . S
C3069 C3053 1.349 . S
C3069 H3061 0.950 . S
C3069 C3067 1.327 . S
C3070 C3058 1.349 . S
C3070 H3064 0.950 . S
C3070 C3071 1.327 . S
C3071 H3065 0.950 . S
C3071 C3070 1.327 . S
C3071 C3075 1.429 . S
C3072 C3055 1.574 . S
C3072 H3066 0.949 . S
C3072 C3076 1.368 . S
C3073 C3054 1.429 . S
C3073 C3067 1.429 . S
C3073 C3074 1.523 . S
C3074 C3055 1.368 . S
C3074 C3068 1.368 . S
C3074 C3073 1.523 . S
C3075 C3059 1.429 . S
C3075 C3071 1.429 . S
C3075 C3076 1.523 . S
C3076 C3060 1.368 . S
C3076 C3072 1.368 . S
C3076 C3075 1.523 . S
H3077 C3052 0.950 . S
H3078 C3054 0.950 . S
H3079 C3055 0.949 . S
H3080 C3057 0.950 . S
H3081 C3059 0.950 . S
C3082 C3083 1.349 . S
C3082 C3084 1.327 . S
C3082 H3107 0.950 . S
C3083 C3082 1.349 . S
C3083 C3099 1.349 . S
C3084 C3082 1.327 . S
C3084 C3103 1.429 . S
C3084 H3108 0.950 . S
C3085 C3102 1.574 . S
C3085 C3104 1.368 . S
C3085 H3109 0.949 . S
H3086 C3090 0.949 . S
C3087 C3088 1.349 . S
C3087 C3089 1.327 . S
C3087 H3110 0.950 . S
C3088 C3087 1.349 . S
C3088 C3100 1.349 . S
C3089 C3087 1.327 . S
C3089 C3105 1.429 . S
C3089 H3111 0.950 . S
C3090 H3086 0.949 . S
C3090 C3098 1.574 . S
C3090 C3106 1.368 . S
H3091 C3099 0.950 . S
H3092 C3097 0.950 . S
H3093 C3098 0.949 . S
H3094 C3100 0.950 . S
H3095 C3101 0.950 . S
H3096 C3102 0.949 . S
C3097 H3092 0.950 . S
C3097 C3099 1.327 . S
C3097 C3103 1.429 . S
C3098 C3090 1.574 . S
C3098 H3093 0.949 . S
C3098 C3104 1.368 . S
C3099 C3083 1.349 . S
C3099 H3091 0.950 . S
C3099 C3097 1.327 . S
C3100 C3088 1.349 . S
C3100 H3094 0.950 . S
C3100 C3101 1.327 . S
C3101 H3095 0.950 . S
C3101 C3100 1.327 . S
C3101 C3105 1.429 . S
C3102 C3085 1.574 . S
C3102 H3096 0.949 . S
C3102 C3106 1.368 . S
C3103 C3084 1.429 . S
C3103 C3097 1.429 . S
C3103 C3104 1.523 . S
C3104 C3085 1.368 . S
C3104 C3098 1.368 . S
C3104 C3103 1.523 . S
C3105 C3089 1.429 . S
C3105 C3101 1.429 . S
C3105 C3106 1.523 . S
C3106 C3090 1.368 . S
C3106 C3102 1.368 . S
C3106 C3105 1.523 . S
H3107 C3082 0.950 . S
H3108 C3084 0.950 . S
H3109 C3085 0.949 . S
H3110 C3087 0.950 . S
H3111 C3089 0.950 . S
C3112 C3113 1.349 . S
C3112 C3114 1.327 . S
C3112 H3137 0.950 . S
C3113 C3112 1.349 . S
C3113 C3129 1.349 . S
C3114 C3112 1.327 . S
C3114 C3133 1.429 . S
C3114 H3138 0.950 . S
C3115 C3132 1.574 . S
C3115 C3134 1.368 . S
C3115 H3139 0.949 . S
H3116 C3120 0.949 . S
C3117 C3118 1.349 . S
C3117 C3119 1.327 . S
C3117 H3140 0.950 . S
C3118 C3117 1.349 . S
C3118 C3130 1.349 . S
C3119 C3117 1.327 . S
C3119 C3135 1.429 . S
C3119 H3141 0.950 . S
C3120 H3116 0.949 . S
C3120 C3128 1.574 . S
C3120 C3136 1.368 . S
H3121 C3129 0.950 . S
H3122 C3127 0.950 . S
H3123 C3128 0.949 . S
H3124 C3130 0.950 . S
H3125 C3131 0.950 . S
H3126 C3132 0.949 . S
C3127 H3122 0.950 . S
C3127 C3129 1.327 . S
C3127 C3133 1.429 . S
C3128 C3120 1.574 . S
C3128 H3123 0.949 . S
C3128 C3134 1.368 . S
C3129 C3113 1.349 . S
C3129 H3121 0.950 . S
C3129 C3127 1.327 . S
C3130 C3118 1.349 . S
C3130 H3124 0.950 . S
C3130 C3131 1.327 . S
C3131 H3125 0.950 . S
C3131 C3130 1.327 . S
C3131 C3135 1.429 . S
C3132 C3115 1.574 . S
C3132 H3126 0.949 . S
C3132 C3136 1.368 . S
C3133 C3114 1.429 . S
C3133 C3127 1.429 . S
C3133 C3134 1.523 . S
C3134 C3115 1.368 . S
C3134 C3128 1.368 . S
C3134 C3133 1.523 . S
C3135 C3119 1.429 . S
C3135 C3131 1.429 . S
C3135 C3136 1.523 . S
C3136 C3120 1.368 . S
C3136 C3132 1.368 . S
C3136 C3135 1.523 . S
H3137 C3112 0.950 . S
H3138 C3114 0.950 . S
H3139 C3115 0.949 . S
H3140 C3117 0.950 . S
H3141 C3119 0.950 . S
C3142 C3143 1.349 . S
C3142 C3144 1.327 . S
C3142 H3167 0.950 . S
C3143 C3142 1.349 . S
C3143 C3159 1.349 . S
C3144 C3142 1.327 . S
C3144 C3163 1.429 . S
C3144 H3168 0.950 . S
C3145 C3162 1.574 . S
C3145 C3164 1.368 . S
C3145 H3169 0.949 . S
H3146 C3150 0.949 . S
C3147 C3148 1.349 . S
C3147 C3149 1.327 . S
C3147 H3170 0.950 . S
C3148 C3147 1.349 . S
C3148 C3160 1.349 . S
C3149 C3147 1.327 . S
C3149 C3165 1.429 . S
C3149 H3171 0.950 . S
C3150 H3146 0.949 . S
C3150 C3158 1.574 . S
C3150 C3166 1.368 . S
H3151 C3159 0.950 . S
H3152 C3157 0.950 . S
H3153 C3158 0.949 . S
H3154 C3160 0.950 . S
H3155 C3161 0.950 . S
H3156 C3162 0.949 . S
C3157 H3152 0.950 . S
C3157 C3159 1.327 . S
C3157 C3163 1.429 . S
C3158 C3150 1.574 . S
C3158 H3153 0.949 . S
C3158 C3164 1.368 . S
C3159 C3143 1.349 . S
C3159 H3151 0.950 . S
C3159 C3157 1.327 . S
C3160 C3148 1.349 . S
C3160 H3154 0.950 . S
C3160 C3161 1.327 . S
C3161 H3155 0.950 . S
C3161 C3160 1.327 . S
C3161 C3165 1.429 . S
C3162 C3145 1.574 . S
C3162 H3156 0.949 . S
C3162 C3166 1.368 . S
C3163 C3144 1.429 . S
C3163 C3157 1.429 . S
C3163 C3164 1.523 . S
C3164 C3145 1.368 . S
C3164 C3158 1.368 . S
C3164 C3163 1.523 . S
C3165 C3149 1.429 . S
C3165 C3161 1.429 . S
C3165 C3166 1.523 . S
C3166 C3150 1.368 . S
C3166 C3162 1.368 . S
C3166 C3165 1.523 . S
H3167 C3142 0.950 . S
H3168 C3144 0.950 . S
H3169 C3145 0.949 . S
H3170 C3147 0.950 . S
H3171 C3149 0.950 . S
C3172 C3173 1.349 . S
C3172 C3174 1.327 . S
C3172 H3197 0.950 . S
C3173 C3172 1.349 . S
C3173 C3189 1.349 . S
C3174 C3172 1.327 . S
C3174 C3193 1.429 . S
C3174 H3198 0.950 . S
C3175 C3192 1.574 . S
C3175 C3194 1.368 . S
C3175 H3199 0.949 . S
H3176 C3180 0.949 . S
C3177 C3178 1.349 . S
C3177 C3179 1.327 . S
C3177 H3200 0.950 . S
C3178 C3177 1.349 . S
C3178 C3190 1.349 . S
C3179 C3177 1.327 . S
C3179 C3195 1.429 . S
C3179 H3201 0.950 . S
C3180 H3176 0.949 . S
C3180 C3188 1.574 . S
C3180 C3196 1.368 . S
H3181 C3189 0.950 . S
H3182 C3187 0.950 . S
H3183 C3188 0.949 . S
H3184 C3190 0.950 . S
H3185 C3191 0.950 . S
H3186 C3192 0.949 . S
C3187 H3182 0.950 . S
C3187 C3189 1.327 . S
C3187 C3193 1.429 . S
C3188 C3180 1.574 . S
C3188 H3183 0.949 . S
C3188 C3194 1.368 . S
C3189 C3173 1.349 . S
C3189 H3181 0.950 . S
C3189 C3187 1.327 . S
C3190 C3178 1.349 . S
C3190 H3184 0.950 . S
C3190 C3191 1.327 . S
C3191 H3185 0.950 . S
C3191 C3190 1.327 . S
C3191 C3195 1.429 . S
C3192 C3175 1.574 . S
C3192 H3186 0.949 . S
C3192 C3196 1.368 . S
C3193 C3174 1.429 . S
C3193 C3187 1.429 . S
C3193 C3194 1.523 . S
C3194 C3175 1.368 . S
C3194 C3188 1.368 . S
C3194 C3193 1.523 . S
C3195 C3179 1.429 . S
C3195 C3191 1.429 . S
C3195 C3196 1.523 . S
C3196 C3180 1.368 . S
C3196 C3192 1.368 . S
C3196 C3195 1.523 . S
H3197 C3172 0.950 . S
H3198 C3174 0.950 . S
H3199 C3175 0.949 . S
H3200 C3177 0.950 . S
H3201 C3179 0.950 . S
C3202 C3203 1.349 . S
C3202 C3204 1.327 . S
C3202 H3227 0.950 . S
C3203 C3202 1.349 . S
C3203 C3219 1.349 . S
C3204 C3202 1.327 . S
C3204 C3223 1.429 . S
C3204 H3228 0.950 . S
C3205 C3222 1.574 . S
C3205 C3224 1.368 . S
C3205 H3229 0.949 . S
H3206 C3210 0.949 . S
C3207 C3208 1.349 . S
C3207 C3209 1.327 . S
C3207 H3230 0.950 . S
C3208 C3207 1.349 . S
C3208 C3220 1.349 . S
C3209 C3207 1.327 . S
C3209 C3225 1.429 . S
C3209 H3231 0.950 . S
C3210 H3206 0.949 . S
C3210 C3218 1.574 . S
C3210 C3226 1.368 . S
H3211 C3219 0.950 . S
H3212 C3217 0.950 . S
H3213 C3218 0.949 . S
H3214 C3220 0.950 . S
H3215 C3221 0.950 . S
H3216 C3222 0.949 . S
C3217 H3212 0.950 . S
C3217 C3219 1.327 . S
C3217 C3223 1.429 . S
C3218 C3210 1.574 . S
C3218 H3213 0.949 . S
C3218 C3224 1.368 . S
C3219 C3203 1.349 . S
C3219 H3211 0.950 . S
C3219 C3217 1.327 . S
C3220 C3208 1.349 . S
C3220 H3214 0.950 . S
C3220 C3221 1.327 . S
C3221 H3215 0.950 . S
C3221 C3220 1.327 . S
C3221 C3225 1.429 . S
C3222 C3205 1.574 . S
C3222 H3216 0.949 . S
C3222 C3226 1.368 . S
C3223 C3204 1.429 . S
C3223 C3217 1.429 . S
C3223 C3224 1.523 . S
C3224 C3205 1.368 . S
C3224 C3218 1.368 . S
C3224 C3223 1.523 . S
C3225 C3209 1.429 . S
C3225 C3221 1.429 . S
C3225 C3226 1.523 . S
C3226 C3210 1.368 . S
C3226 C3222 1.368 . S
C3226 C3225 1.523 . S
H3227 C3202 0.950 . S
H3228 C3204 0.950 . S
H3229 C3205 0.949 . S
H3230 C3207 0.950 . S
H3231 C3209 0.950 . S
C3232 C3233 1.349 . S
C3232 C3234 1.327 . S
C3232 H3257 0.950 . S
C3233 C3232 1.349 . S
C3233 C3249 1.349 . S
C3234 C3232 1.327 . S
C3234 C3253 1.429 . S
C3234 H3258 0.950 . S
C3235 C3252 1.574 . S
C3235 C3254 1.368 . S
C3235 H3259 0.949 . S
H3236 C3240 0.949 . S
C3237 C3238 1.349 . S
C3237 C3239 1.327 . S
C3237 H3260 0.950 1_556 S
C3238 C3237 1.349 . S
C3238 C3250 1.349 . S
C3239 C3237 1.327 . S
C3239 C3255 1.429 . S
C3239 H3261 0.950 . S
C3240 H3236 0.949 . S
C3240 C3248 1.574 . S
C3240 C3256 1.368 . S
H3241 C3249 0.950 . S
H3242 C3247 0.950 . S
H3243 C3248 0.949 . S
H3244 C3250 0.950 . S
H3245 C3251 0.950 . S
H3246 C3252 0.949 . S
C3247 H3242 0.950 . S
C3247 C3249 1.327 . S
C3247 C3253 1.429 . S
C3248 C3240 1.574 . S
C3248 H3243 0.949 . S
C3248 C3254 1.368 . S
C3249 C3233 1.349 . S
C3249 H3241 0.950 . S
C3249 C3247 1.327 . S
C3250 C3238 1.349 . S
C3250 H3244 0.950 . S
C3250 C3251 1.327 . S
C3251 H3245 0.950 . S
C3251 C3250 1.327 . S
C3251 C3255 1.429 . S
C3252 C3235 1.574 . S
C3252 H3246 0.949 . S
C3252 C3256 1.368 . S
C3253 C3234 1.429 . S
C3253 C3247 1.429 . S
C3253 C3254 1.523 . S
C3254 C3235 1.368 . S
C3254 C3248 1.368 . S
C3254 C3253 1.523 . S
C3255 C3239 1.429 . S
C3255 C3251 1.429 . S
C3255 C3256 1.523 . S
C3256 C3240 1.368 . S
C3256 C3252 1.368 . S
C3256 C3255 1.523 . S
H3257 C3232 0.950 . S
H3258 C3234 0.950 . S
H3259 C3235 0.949 . S
H3260 C3237 0.950 1_554 S
H3261 C3239 0.950 . S
C3262 C3263 1.349 . S
C3262 C3264 1.327 . S
C3262 H3287 0.950 . S
C3263 C3262 1.349 . S
C3263 C3279 1.349 . S
C3264 C3262 1.327 . S
C3264 C3283 1.429 . S
C3264 H3288 0.950 . S
C3265 C3282 1.574 . S
C3265 C3284 1.368 . S
C3265 H3289 0.949 . S
H3266 C3270 0.949 . S
C3267 C3268 1.349 . S
C3267 C3269 1.327 . S
C3267 H3290 0.950 . S
C3268 C3267 1.349 . S
C3268 C3280 1.349 . S
C3269 C3267 1.327 . S
C3269 C3285 1.429 . S
C3269 H3291 0.950 . S
C3270 H3266 0.949 . S
C3270 C3278 1.574 . S
C3270 C3286 1.368 . S
H3271 C3279 0.950 . S
H3272 C3277 0.950 . S
H3273 C3278 0.949 . S
H3274 C3280 0.950 . S
H3275 C3281 0.950 . S
H3276 C3282 0.949 . S
C3277 H3272 0.950 . S
C3277 C3279 1.327 . S
C3277 C3283 1.429 . S
C3278 C3270 1.574 . S
C3278 H3273 0.949 . S
C3278 C3284 1.368 . S
C3279 C3263 1.349 . S
C3279 H3271 0.950 . S
C3279 C3277 1.327 . S
C3280 C3268 1.349 . S
C3280 H3274 0.950 . S
C3280 C3281 1.327 . S
C3281 H3275 0.950 . S
C3281 C3280 1.327 . S
C3281 C3285 1.429 . S
C3282 C3265 1.574 . S
C3282 H3276 0.949 . S
C3282 C3286 1.368 . S
C3283 C3264 1.429 . S
C3283 C3277 1.429 . S
C3283 C3284 1.523 . S
C3284 C3265 1.368 . S
C3284 C3278 1.368 . S
C3284 C3283 1.523 . S
C3285 C3269 1.429 . S
C3285 C3281 1.429 . S
C3285 C3286 1.523 . S
C3286 C3270 1.368 . S
C3286 C3282 1.368 . S
C3286 C3285 1.523 . S
H3287 C3262 0.950 . S
H3288 C3264 0.950 . S
H3289 C3265 0.949 . S
H3290 C3267 0.950 . S
H3291 C3269 0.950 . S
C3292 C3293 1.349 . S
C3292 C3294 1.327 . S
C3292 H3317 0.950 . S
C3293 C3292 1.349 . S
C3293 C3309 1.349 . S
C3294 C3292 1.327 . S
C3294 C3313 1.429 . S
C3294 H3318 0.950 . S
C3295 C3312 1.574 . S
C3295 C3314 1.368 . S
C3295 H3319 0.949 . S
H3296 C3300 0.949 . S
C3297 C3298 1.349 . S
C3297 C3299 1.327 . S
C3297 H3320 0.950 . S
C3298 C3297 1.349 . S
C3298 C3310 1.349 . S
C3299 C3297 1.327 . S
C3299 C3315 1.429 . S
C3299 H3321 0.950 . S
C3300 H3296 0.949 . S
C3300 C3308 1.574 . S
C3300 C3316 1.368 . S
H3301 C3309 0.950 . S
H3302 C3307 0.950 . S
H3303 C3308 0.949 . S
H3304 C3310 0.950 . S
H3305 C3311 0.950 . S
H3306 C3312 0.949 . S
C3307 H3302 0.950 . S
C3307 C3309 1.327 . S
C3307 C3313 1.429 . S
C3308 C3300 1.574 . S
C3308 H3303 0.949 . S
C3308 C3314 1.368 . S
C3309 C3293 1.349 . S
C3309 H3301 0.950 . S
C3309 C3307 1.327 . S
C3310 C3298 1.349 . S
C3310 H3304 0.950 . S
C3310 C3311 1.327 . S
C3311 H3305 0.950 . S
C3311 C3310 1.327 . S
C3311 C3315 1.429 . S
C3312 C3295 1.574 . S
C3312 H3306 0.949 . S
C3312 C3316 1.368 . S
C3313 C3294 1.429 . S
C3313 C3307 1.429 . S
C3313 C3314 1.523 . S
C3314 C3295 1.368 . S
C3314 C3308 1.368 . S
C3314 C3313 1.523 . S
C3315 C3299 1.429 . S
C3315 C3311 1.429 . S
C3315 C3316 1.523 . S
C3316 C3300 1.368 . S
C3316 C3312 1.368 . S
C3316 C3315 1.523 . S
H3317 C3292 0.950 . S
H3318 C3294 0.950 . S
H3319 C3295 0.949 . S
H3320 C3297 0.950 . S
H3321 C3299 0.950 . S
C3322 C3323 1.349 . S
C3322 C3324 1.327 . S
C3322 H3347 0.950 . S
C3323 C3322 1.349 . S
C3323 C3339 1.349 . S
C3324 C3322 1.327 . S
C3324 C3343 1.429 . S
C3324 H3348 0.950 . S
C3325 C3342 1.574 . S
C3325 C3344 1.368 . S
C3325 H3349 0.949 . S
H3326 C3330 0.949 . S
C3327 C3328 1.349 . S
C3327 C3329 1.327 . S
C3327 H3350 0.950 . S
C3328 C3327 1.349 . S
C3328 C3340 1.349 . S
C3329 C3327 1.327 . S
C3329 C3345 1.429 . S
C3329 H3351 0.950 . S
C3330 H3326 0.949 . S
C3330 C3338 1.574 . S
C3330 C3346 1.368 . S
H3331 C3339 0.950 . S
H3332 C3337 0.950 . S
H3333 C3338 0.949 . S
H3334 C3340 0.950 . S
H3335 C3341 0.950 . S
H3336 C3342 0.949 . S
C3337 H3332 0.950 . S
C3337 C3339 1.327 . S
C3337 C3343 1.429 . S
C3338 C3330 1.574 . S
C3338 H3333 0.949 . S
C3338 C3344 1.368 . S
C3339 C3323 1.349 . S
C3339 H3331 0.950 . S
C3339 C3337 1.327 . S
C3340 C3328 1.349 . S
C3340 H3334 0.950 . S
C3340 C3341 1.327 . S
C3341 H3335 0.950 . S
C3341 C3340 1.327 . S
C3341 C3345 1.429 . S
C3342 C3325 1.574 . S
C3342 H3336 0.949 . S
C3342 C3346 1.368 . S
C3343 C3324 1.429 . S
C3343 C3337 1.429 . S
C3343 C3344 1.523 . S
C3344 C3325 1.368 . S
C3344 C3338 1.368 . S
C3344 C3343 1.523 . S
C3345 C3329 1.429 . S
C3345 C3341 1.429 . S
C3345 C3346 1.523 . S
C3346 C3330 1.368 . S
C3346 C3342 1.368 . S
C3346 C3345 1.523 . S
H3347 C3322 0.950 . S
H3348 C3324 0.950 . S
H3349 C3325 0.949 . S
H3350 C3327 0.950 . S
H3351 C3329 0.950 . S
C3352 C3353 1.349 . S
C3352 C3354 1.327 . S
C3352 H3377 0.950 . S
C3353 C3352 1.349 . S
C3353 C3369 1.349 . S
C3354 C3352 1.327 . S
C3354 C3373 1.429 . S
C3354 H3378 0.950 . S
C3355 C3372 1.574 . S
C3355 C3374 1.368 . S
C3355 H3379 0.949 . S
H3356 C3360 0.949 . S
C3357 C3358 1.349 . S
C3357 C3359 1.327 . S
C3357 H3380 0.950 . S
C3358 C3357 1.349 . S
C3358 C3370 1.349 . S
C3359 C3357 1.327 . S
C3359 C3375 1.429 . S
C3359 H3381 0.950 . S
C3360 H3356 0.949 . S
C3360 C3368 1.574 . S
C3360 C3376 1.368 . S
H3361 C3369 0.950 . S
H3362 C3367 0.950 . S
H3363 C3368 0.949 . S
H3364 C3370 0.950 . S
H3365 C3371 0.950 . S
H3366 C3372 0.949 . S
C3367 H3362 0.950 . S
C3367 C3369 1.327 . S
C3367 C3373 1.429 . S
C3368 C3360 1.574 . S
C3368 H3363 0.949 . S
C3368 C3374 1.368 . S
C3369 C3353 1.349 . S
C3369 H3361 0.950 . S
C3369 C3367 1.327 . S
C3370 C3358 1.349 . S
C3370 H3364 0.950 . S
C3370 C3371 1.327 . S
C3371 H3365 0.950 . S
C3371 C3370 1.327 . S
C3371 C3375 1.429 . S
C3372 C3355 1.574 . S
C3372 H3366 0.949 . S
C3372 C3376 1.368 . S
C3373 C3354 1.429 . S
C3373 C3367 1.429 . S
C3373 C3374 1.523 . S
C3374 C3355 1.368 . S
C3374 C3368 1.368 . S
C3374 C3373 1.523 . S
C3375 C3359 1.429 . S
C3375 C3371 1.429 . S
C3375 C3376 1.523 . S
C3376 C3360 1.368 . S
C3376 C3372 1.368 . S
C3376 C3375 1.523 . S
H3377 C3352 0.950 . S
H3378 C3354 0.950 . S
H3379 C3355 0.949 . S
H3380 C3357 0.950 . S
H3381 C3359 0.950 . S
C3382 C3383 1.349 . S
C3382 C3384 1.327 . S
C3382 H3407 0.950 . S
C3383 C3382 1.349 . S
C3383 C3399 1.349 . S
C3384 C3382 1.327 . S
C3384 C3403 1.429 . S
C3384 H3408 0.950 . S
C3385 C3402 1.574 . S
C3385 C3404 1.368 . S
C3385 H3409 0.949 . S
H3386 C3390 0.949 . S
C3387 C3388 1.349 . S
C3387 C3389 1.327 . S
C3387 H3410 0.950 . S
C3388 C3387 1.349 . S
C3388 C3400 1.349 . S
C3389 C3387 1.327 . S
C3389 C3405 1.429 . S
C3389 H3411 0.950 . S
C3390 H3386 0.949 . S
C3390 C3398 1.574 . S
C3390 C3406 1.368 . S
H3391 C3399 0.950 . S
H3392 C3397 0.950 . S
H3393 C3398 0.949 . S
H3394 C3400 0.950 . S
H3395 C3401 0.950 . S
H3396 C3402 0.949 . S
C3397 H3392 0.950 . S
C3397 C3399 1.327 . S
C3397 C3403 1.429 . S
C3398 C3390 1.574 . S
C3398 H3393 0.949 . S
C3398 C3404 1.368 . S
C3399 C3383 1.349 . S
C3399 H3391 0.950 . S
C3399 C3397 1.327 . S
C3400 C3388 1.349 . S
C3400 H3394 0.950 . S
C3400 C3401 1.327 . S
C3401 H3395 0.950 . S
C3401 C3400 1.327 . S
C3401 C3405 1.429 . S
C3402 C3385 1.574 . S
C3402 H3396 0.949 . S
C3402 C3406 1.368 . S
C3403 C3384 1.429 . S
C3403 C3397 1.429 . S
C3403 C3404 1.523 . S
C3404 C3385 1.368 . S
C3404 C3398 1.368 . S
C3404 C3403 1.523 . S
C3405 C3389 1.429 . S
C3405 C3401 1.429 . S
C3405 C3406 1.523 . S
C3406 C3390 1.368 . S
C3406 C3402 1.368 . S
C3406 C3405 1.523 . S
H3407 C3382 0.950 . S
H3408 C3384 0.950 . S
H3409 C3385 0.949 . S
H3410 C3387 0.950 . S
H3411 C3389 0.950 . S
C3412 C3413 1.349 . S
C3412 C3414 1.327 . S
C3412 H3437 0.950 . S
C3413 C3412 1.349 . S
C3413 C3429 1.349 . S
C3414 C3412 1.327 . S
C3414 C3433 1.429 . S
C3414 H3438 0.950 . S
C3415 C3432 1.574 . S
C3415 C3434 1.368 . S
C3415 H3439 0.949 . S
H3416 C3420 0.949 . S
C3417 C3418 1.349 . S
C3417 C3419 1.331 . S
C3417 H3440 0.950 . S
C3418 C3417 1.349 . S
C3418 C3430 1.367 . S
C3419 C3417 1.331 . S
C3419 C3435 1.422 1_455 S
C3419 H3441 0.948 . S
C3420 H3416 0.949 . S
C3420 C3428 1.574 . S
C3420 C3436 1.368 . S
H3421 C3429 0.950 . S
H3422 C3427 0.950 . S
H3423 C3428 0.949 . S
H3424 C3430 0.954 . S
H3425 C3431 0.950 . S
H3426 C3432 0.949 . S
C3427 H3422 0.950 . S
C3427 C3429 1.327 . S
C3427 C3433 1.429 . S
C3428 C3420 1.574 . S
C3428 H3423 0.949 . S
C3428 C3434 1.368 . S
C3429 C3413 1.349 . S
C3429 H3421 0.950 . S
C3429 C3427 1.327 . S
C3430 C3418 1.367 . S
C3430 H3424 0.954 . S
C3430 C3431 1.316 1_455 S
C3431 H3425 0.950 . S
C3431 C3430 1.316 1_655 S
C3431 C3435 1.429 . S
C3432 C3415 1.574 . S
C3432 H3426 0.949 . S
C3432 C3436 1.368 . S
C3433 C3414 1.429 . S
C3433 C3427 1.429 . S
C3433 C3434 1.523 . S
C3434 C3415 1.368 . S
C3434 C3428 1.368 . S
C3434 C3433 1.523 . S
C3435 C3419 1.422 1_655 S
C3435 C3431 1.429 . S
C3435 C3436 1.523 . S
C3436 C3420 1.368 . S
C3436 C3432 1.368 . S
C3436 C3435 1.523 . S
H3437 C3412 0.950 . S
H3438 C3414 0.950 . S
H3439 C3415 0.949 . S
H3440 C3417 0.950 . S
H3441 C3419 0.948 . S
C3442 C3443 1.349 . S
C3442 C3444 1.327 . S
C3442 H3467 0.950 . S
C3443 C3442 1.349 . S
C3443 C3459 1.349 . S
C3444 C3442 1.327 . S
C3444 C3463 1.429 . S
C3444 H3468 0.950 . S
C3445 C3462 1.574 . S
C3445 C3464 1.368 . S
C3445 H3469 0.949 . S
H3446 C3450 0.949 . S
C3447 C3448 1.349 . S
C3447 C3449 1.327 . S
C3447 H3470 0.950 . S
C3448 C3447 1.349 . S
C3448 C3460 1.349 . S
C3449 C3447 1.327 . S
C3449 C3465 1.429 . S
C3449 H3471 0.950 . S
C3450 H3446 0.949 . S
C3450 C3458 1.574 . S
C3450 C3466 1.368 . S
H3451 C3459 0.950 . S
H3452 C3457 0.950 . S
H3453 C3458 0.949 . S
H3454 C3460 0.950 . S
H3455 C3461 0.950 . S
H3456 C3462 0.949 . S
C3457 H3452 0.950 . S
C3457 C3459 1.327 . S
C3457 C3463 1.429 . S
C3458 C3450 1.574 . S
C3458 H3453 0.949 . S
C3458 C3464 1.368 . S
C3459 C3443 1.349 . S
C3459 H3451 0.950 . S
C3459 C3457 1.327 . S
C3460 C3448 1.349 . S
C3460 H3454 0.950 . S
C3460 C3461 1.327 . S
C3461 H3455 0.950 . S
C3461 C3460 1.327 . S
C3461 C3465 1.429 . S
C3462 C3445 1.574 . S
C3462 H3456 0.949 . S
C3462 C3466 1.368 . S
C3463 C3444 1.429 . S
C3463 C3457 1.429 . S
C3463 C3464 1.523 . S
C3464 C3445 1.368 . S
C3464 C3458 1.368 . S
C3464 C3463 1.523 . S
C3465 C3449 1.429 . S
C3465 C3461 1.429 . S
C3465 C3466 1.523 . S
C3466 C3450 1.368 . S
C3466 C3462 1.368 . S
C3466 C3465 1.523 . S
H3467 C3442 0.950 . S
H3468 C3444 0.950 . S
H3469 C3445 0.949 . S
H3470 C3447 0.950 . S
H3471 C3449 0.950 . S
C3472 C3473 1.349 . S
C3472 C3474 1.327 . S
C3472 H3497 0.950 . S
C3473 C3472 1.349 . S
C3473 C3489 1.349 . S
C3474 C3472 1.327 . S
C3474 C3493 1.429 . S
C3474 H3498 0.950 . S
C3475 C3492 1.574 . S
C3475 C3494 1.368 . S
C3475 H3499 0.949 . S
H3476 C3480 0.949 . S
C3477 C3478 1.349 . S
C3477 C3479 1.327 . S
C3477 H3500 0.950 . S
C3478 C3477 1.349 . S
C3478 C3490 1.349 . S
C3479 C3477 1.327 . S
C3479 C3495 1.429 . S
C3479 H3501 0.950 . S
C3480 H3476 0.949 . S
C3480 C3488 1.574 . S
C3480 C3496 1.368 . S
H3481 C3489 0.950 . S
H3482 C3487 0.950 . S
H3483 C3488 0.949 . S
H3484 C3490 0.950 . S
H3485 C3491 0.950 . S
H3486 C3492 0.949 . S
C3487 H3482 0.950 . S
C3487 C3489 1.327 . S
C3487 C3493 1.429 . S
C3488 C3480 1.574 . S
C3488 H3483 0.949 . S
C3488 C3494 1.368 . S
C3489 C3473 1.349 . S
C3489 H3481 0.950 . S
C3489 C3487 1.327 . S
C3490 C3478 1.349 . S
C3490 H3484 0.950 . S
C3490 C3491 1.327 . S
C3491 H3485 0.950 . S
C3491 C3490 1.327 . S
C3491 C3495 1.429 . S
C3492 C3475 1.574 . S
C3492 H3486 0.949 . S
C3492 C3496 1.368 . S
C3493 C3474 1.429 . S
C3493 C3487 1.429 . S
C3493 C3494 1.523 . S
C3494 C3475 1.368 . S
C3494 C3488 1.368 . S
C3494 C3493 1.523 . S
C3495 C3479 1.429 . S
C3495 C3491 1.429 . S
C3495 C3496 1.523 . S
C3496 C3480 1.368 . S
C3496 C3492 1.368 . S
C3496 C3495 1.523 . S
H3497 C3472 0.950 . S
H3498 C3474 0.950 . S
H3499 C3475 0.949 . S
H3500 C3477 0.950 . S
H3501 C3479 0.950 . S
C3502 C3503 1.349 . S
C3502 C3504 1.327 . S
C3502 H3527 0.950 . S
C3503 C3502 1.349 . S
C3503 C3519 1.349 . S
C3504 C3502 1.327 . S
C3504 C3523 1.429 . S
C3504 H3528 0.950 . S
C3505 C3522 1.574 . S
C3505 C3524 1.368 . S
C3505 H3529 0.949 . S
H3506 C3510 0.949 . S
C3507 C3508 1.349 . S
C3507 C3509 1.327 . S
C3507 H3530 0.950 . S
C3508 C3507 1.349 . S
C3508 C3520 1.349 . S
C3509 C3507 1.327 . S
C3509 C3525 1.429 . S
C3509 H3531 0.950 . S
C3510 H3506 0.949 . S
C3510 C3518 1.574 . S
C3510 C3526 1.368 . S
H3511 C3519 0.950 . S
H3512 C3517 0.950 . S
H3513 C3518 0.949 . S
H3514 C3520 0.950 . S
H3515 C3521 0.950 . S
H3516 C3522 0.949 . S
C3517 H3512 0.950 . S
C3517 C3519 1.327 . S
C3517 C3523 1.429 . S
C3518 C3510 1.574 . S
C3518 H3513 0.949 . S
C3518 C3524 1.368 . S
C3519 C3503 1.349 . S
C3519 H3511 0.950 . S
C3519 C3517 1.327 . S
C3520 C3508 1.349 . S
C3520 H3514 0.950 . S
C3520 C3521 1.327 . S
C3521 H3515 0.950 . S
C3521 C3520 1.327 . S
C3521 C3525 1.429 . S
C3522 C3505 1.574 . S
C3522 H3516 0.949 . S
C3522 C3526 1.368 . S
C3523 C3504 1.429 . S
C3523 C3517 1.429 . S
C3523 C3524 1.523 . S
C3524 C3505 1.368 . S
C3524 C3518 1.368 . S
C3524 C3523 1.523 . S
C3525 C3509 1.429 . S
C3525 C3521 1.429 . S
C3525 C3526 1.523 . S
C3526 C3510 1.368 . S
C3526 C3522 1.368 . S
C3526 C3525 1.523 . S
H3527 C3502 0.950 . S
H3528 C3504 0.950 . S
H3529 C3505 0.949 . S
H3530 C3507 0.950 . S
H3531 C3509 0.950 . S
C3532 C3533 1.349 . S
C3532 C3534 1.327 . S
C3532 H3557 0.950 . S
C3533 C3532 1.349 . S
C3533 C3549 1.349 . S
C3534 C3532 1.327 . S
C3534 C3553 1.429 . S
C3534 H3558 0.950 . S
C3535 C3552 1.574 . S
C3535 C3554 1.368 . S
C3535 H3559 0.949 . S
H3536 C3540 0.949 . S
C3537 C3538 1.349 . S
C3537 C3539 1.327 . S
C3537 H3560 0.950 . S
C3538 C3537 1.349 . S
C3538 C3550 1.349 1_655 S
C3539 C3537 1.327 . S
C3539 C3555 1.429 . S
C3539 H3561 0.950 . S
C3540 H3536 0.949 . S
C3540 C3548 1.574 . S
C3540 C3556 1.368 . S
H3541 C3549 0.950 . S
H3542 C3547 0.950 . S
H3543 C3548 0.949 . S
H3544 C3550 0.950 . S
H3545 C3551 0.950 1_455 S
H3546 C3552 0.949 . S
C3547 H3542 0.950 . S
C3547 C3549 1.327 . S
C3547 C3553 1.429 . S
C3548 C3540 1.574 . S
C3548 H3543 0.949 . S
C3548 C3554 1.368 . S
C3549 C3533 1.349 . S
C3549 H3541 0.950 . S
C3549 C3547 1.327 . S
C3550 C3538 1.349 1_455 S
C3550 H3544 0.950 . S
C3550 C3551 1.327 1_455 S
C3551 H3545 0.950 1_655 S
C3551 C3550 1.327 1_655 S
C3551 C3555 1.429 . S
C3552 C3535 1.574 . S
C3552 H3546 0.949 . S
C3552 C3556 1.368 . S
C3553 C3534 1.429 . S
C3553 C3547 1.429 . S
C3553 C3554 1.523 . S
C3554 C3535 1.368 . S
C3554 C3548 1.368 . S
C3554 C3553 1.523 . S
C3555 C3539 1.429 . S
C3555 C3551 1.429 . S
C3555 C3556 1.523 . S
C3556 C3540 1.368 . S
C3556 C3552 1.368 . S
C3556 C3555 1.523 . S
H3557 C3532 0.950 . S
H3558 C3534 0.950 . S
H3559 C3535 0.949 . S
H3560 C3537 0.950 . S
H3561 C3539 0.950 . S
C3562 C3563 1.349 . S
C3562 C3564 1.327 . S
C3562 H3587 0.950 . S
C3563 C3562 1.349 . S
C3563 C3579 1.349 . S
C3564 C3562 1.327 . S
C3564 C3583 1.429 . S
C3564 H3588 0.950 . S
C3565 C3582 1.574 . S
C3565 C3584 1.368 . S
C3565 H3589 0.949 . S
H3566 C3570 0.949 . S
C3567 C3568 1.349 . S
C3567 C3569 1.327 . S
C3567 H3590 0.950 . S
C3568 C3567 1.349 . S
C3568 C3580 1.349 . S
C3569 C3567 1.327 . S
C3569 C3585 1.429 . S
C3569 H3591 0.950 . S
C3570 H3566 0.949 . S
C3570 C3578 1.574 . S
C3570 C3586 1.368 . S
H3571 C3579 0.950 . S
H3572 C3577 0.950 . S
H3573 C3578 0.949 . S
H3574 C3580 0.950 . S
H3575 C3581 0.950 . S
H3576 C3582 0.949 . S
C3577 H3572 0.950 . S
C3577 C3579 1.327 . S
C3577 C3583 1.429 . S
C3578 C3570 1.574 . S
C3578 H3573 0.949 . S
C3578 C3584 1.368 . S
C3579 C3563 1.349 . S
C3579 H3571 0.950 . S
C3579 C3577 1.327 . S
C3580 C3568 1.349 . S
C3580 H3574 0.950 . S
C3580 C3581 1.327 . S
C3581 H3575 0.950 . S
C3581 C3580 1.327 . S
C3581 C3585 1.429 . S
C3582 C3565 1.574 . S
C3582 H3576 0.949 . S
C3582 C3586 1.368 . S
C3583 C3564 1.429 . S
C3583 C3577 1.429 . S
C3583 C3584 1.523 . S
C3584 C3565 1.368 . S
C3584 C3578 1.368 . S
C3584 C3583 1.523 . S
C3585 C3569 1.429 . S
C3585 C3581 1.429 . S
C3585 C3586 1.523 . S
C3586 C3570 1.368 . S
C3586 C3582 1.368 . S
C3586 C3585 1.523 . S
H3587 C3562 0.950 . S
H3588 C3564 0.950 . S
H3589 C3565 0.949 . S
H3590 C3567 0.950 . S
H3591 C3569 0.950 . S
C3592 C3593 1.349 . S
C3592 C3594 1.327 . S
C3592 H3617 0.950 . S
C3593 C3592 1.349 . S
C3593 C3609 1.349 . S
C3594 C3592 1.327 . S
C3594 C3613 1.429 . S
C3594 H3618 0.950 . S
C3595 C3612 1.574 . S
C3595 C3614 1.368 . S
C3595 H3619 0.949 . S
H3596 C3600 0.949 . S
C3597 C3598 1.349 . S
C3597 C3599 1.327 . S
C3597 H3620 0.950 . S
C3598 C3597 1.349 . S
C3598 C3610 1.349 . S
C3599 C3597 1.327 . S
C3599 C3615 1.429 . S
C3599 H3621 0.950 . S
C3600 H3596 0.949 . S
C3600 C3608 1.574 . S
C3600 C3616 1.368 . S
H3601 C3609 0.950 . S
H3602 C3607 0.950 . S
H3603 C3608 0.949 . S
H3604 C3610 0.950 . S
H3605 C3611 0.950 . S
H3606 C3612 0.949 . S
C3607 H3602 0.950 . S
C3607 C3609 1.327 . S
C3607 C3613 1.429 . S
C3608 C3600 1.574 . S
C3608 H3603 0.949 . S
C3608 C3614 1.368 . S
C3609 C3593 1.349 . S
C3609 H3601 0.950 . S
C3609 C3607 1.327 . S
C3610 C3598 1.349 . S
C3610 H3604 0.950 . S
C3610 C3611 1.327 . S
C3611 H3605 0.950 . S
C3611 C3610 1.327 . S
C3611 C3615 1.429 . S
C3612 C3595 1.574 . S
C3612 H3606 0.949 . S
C3612 C3616 1.368 . S
C3613 C3594 1.429 . S
C3613 C3607 1.429 . S
C3613 C3614 1.523 . S
C3614 C3595 1.368 . S
C3614 C3608 1.368 . S
C3614 C3613 1.523 . S
C3615 C3599 1.429 . S
C3615 C3611 1.429 . S
C3615 C3616 1.523 . S
C3616 C3600 1.368 . S
C3616 C3612 1.368 . S
C3616 C3615 1.523 . S
H3617 C3592 0.950 . S
H3618 C3594 0.950 . S
H3619 C3595 0.949 . S
H3620 C3597 0.950 . S
H3621 C3599 0.950 . S
C3622 C3623 1.349 . S
C3622 C3624 1.327 . S
C3622 H3647 0.950 . S
C3623 C3622 1.349 . S
C3623 C3639 1.349 . S
C3624 C3622 1.327 . S
C3624 C3643 1.429 . S
C3624 H3648 0.950 . S
C3625 C3642 1.574 . S
C3625 C3644 1.368 . S
C3625 H3649 0.949 . S
H3626 C3630 0.949 . S
C3627 C3628 1.349 . S
C3627 C3629 1.327 . S
C3627 H3650 0.943 1_565 S
C3628 C3627 1.349 . S
C3628 C3640 1.349 . S
C3629 C3627 1.327 . S
C3629 C3645 1.429 . S
C3629 H3651 0.950 . S
C3630 H3626 0.949 . S
C3630 C3638 1.574 . S
C3630 C3646 1.368 . S
H3631 C3639 0.950 . S
H3632 C3637 0.950 . S
H3633 C3638 0.949 . S
H3634 C3640 0.950 . S
H3635 C3641 0.950 . S
H3636 C3642 0.949 . S
C3637 H3632 0.950 . S
C3637 C3639 1.327 . S
C3637 C3643 1.429 . S
C3638 C3630 1.574 . S
C3638 H3633 0.949 . S
C3638 C3644 1.368 . S
C3639 C3623 1.349 . S
C3639 H3631 0.950 . S
C3639 C3637 1.327 . S
C3640 C3628 1.349 . S
C3640 H3634 0.950 . S
C3640 C3641 1.327 . S
C3641 H3635 0.950 . S
C3641 C3640 1.327 . S
C3641 C3645 1.429 . S
C3642 C3625 1.574 . S
C3642 H3636 0.949 . S
C3642 C3646 1.368 . S
C3643 C3624 1.429 . S
C3643 C3637 1.429 . S
C3643 C3644 1.523 . S
C3644 C3625 1.368 . S
C3644 C3638 1.368 . S
C3644 C3643 1.523 . S
C3645 C3629 1.429 . S
C3645 C3641 1.429 . S
C3645 C3646 1.523 . S
C3646 C3630 1.368 . S
C3646 C3642 1.368 . S
C3646 C3645 1.523 . S
H3647 C3622 0.950 . S
H3648 C3624 0.950 . S
H3649 C3625 0.949 . S
H3650 C3627 0.943 1_545 S
H3651 C3629 0.950 . S
C3652 C3653 1.349 . S
C3652 C3654 1.327 . S
C3652 H3677 0.950 . S
C3653 C3652 1.349 . S
C3653 C3669 1.349 . S
C3654 C3652 1.327 . S
C3654 C3673 1.429 . S
C3654 H3678 0.950 . S
C3655 C3672 1.574 . S
C3655 C3674 1.368 . S
C3655 H3679 0.949 . S
H3656 C3660 0.949 . S
C3657 C3658 1.349 . S
C3657 C3659 1.327 . S
C3657 H3680 0.950 . S
C3658 C3657 1.349 . S
C3658 C3670 1.349 . S
C3659 C3657 1.327 . S
C3659 C3675 1.429 . S
C3659 H3681 0.950 . S
C3660 H3656 0.949 . S
C3660 C3668 1.574 . S
C3660 C3676 1.368 . S
H3661 C3669 0.950 . S
H3662 C3667 0.950 . S
H3663 C3668 0.949 . S
H3664 C3670 0.950 . S
H3665 C3671 0.950 . S
H3666 C3672 0.949 . S
C3667 H3662 0.950 . S
C3667 C3669 1.327 . S
C3667 C3673 1.429 . S
C3668 C3660 1.574 . S
C3668 H3663 0.949 . S
C3668 C3674 1.368 . S
C3669 C3653 1.349 . S
C3669 H3661 0.950 . S
C3669 C3667 1.327 . S
C3670 C3658 1.349 . S
C3670 H3664 0.950 . S
C3670 C3671 1.327 . S
C3671 H3665 0.950 . S
C3671 C3670 1.327 . S
C3671 C3675 1.429 . S
C3672 C3655 1.574 . S
C3672 H3666 0.949 . S
C3672 C3676 1.368 . S
C3673 C3654 1.429 . S
C3673 C3667 1.429 . S
C3673 C3674 1.523 . S
C3674 C3655 1.368 . S
C3674 C3668 1.368 . S
C3674 C3673 1.523 . S
C3675 C3659 1.429 . S
C3675 C3671 1.429 . S
C3675 C3676 1.523 . S
C3676 C3660 1.368 . S
C3676 C3672 1.368 . S
C3676 C3675 1.523 . S
H3677 C3652 0.950 . S
H3678 C3654 0.950 . S
H3679 C3655 0.949 . S
H3680 C3657 0.950 . S
H3681 C3659 0.950 . S
C3682 C3683 1.349 . S
C3682 C3684 1.327 . S
C3682 H3707 0.950 . S
C3683 C3682 1.349 . S
C3683 C3699 1.349 . S
C3684 C3682 1.327 . S
C3684 C3703 1.429 . S
C3684 H3708 0.950 . S
C3685 C3702 1.574 . S
C3685 C3704 1.368 . S
C3685 H3709 0.949 . S
H3686 C3690 0.949 . S
C3687 C3688 1.349 . S
C3687 C3689 1.327 . S
C3687 H3710 0.950 . S
C3688 C3687 1.349 . S
C3688 C3700 1.349 . S
C3689 C3687 1.327 . S
C3689 C3705 1.429 . S
C3689 H3711 0.950 . S
C3690 H3686 0.949 . S
C3690 C3698 1.574 . S
C3690 C3706 1.368 . S
H3691 C3699 0.950 . S
H3692 C3697 0.950 . S
H3693 C3698 0.949 . S
H3694 C3700 0.950 1_556 S
H3695 C3701 0.950 1_556 S
H3696 C3702 0.949 . S
C3697 H3692 0.950 . S
C3697 C3699 1.327 . S
C3697 C3703 1.429 . S
C3698 C3690 1.574 . S
C3698 H3693 0.949 . S
C3698 C3704 1.368 . S
C3699 C3683 1.349 . S
C3699 H3691 0.950 . S
C3699 C3697 1.327 . S
C3700 C3688 1.349 . S
C3700 H3694 0.950 1_554 S
C3700 C3701 1.327 . S
C3701 H3695 0.950 1_554 S
C3701 C3700 1.327 . S
C3701 C3705 1.429 . S
C3702 C3685 1.574 . S
C3702 H3696 0.949 . S
C3702 C3706 1.368 . S
C3703 C3684 1.429 . S
C3703 C3697 1.429 . S
C3703 C3704 1.523 . S
C3704 C3685 1.368 . S
C3704 C3698 1.368 . S
C3704 C3703 1.523 . S
C3705 C3689 1.429 . S
C3705 C3701 1.429 . S
C3705 C3706 1.523 . S
C3706 C3690 1.368 . S
C3706 C3702 1.368 . S
C3706 C3705 1.523 . S
H3707 C3682 0.950 . S
H3708 C3684 0.950 . S
H3709 C3685 0.949 . S
H3710 C3687 0.950 . S
H3711 C3689 0.950 . S
C3712 C3713 1.349 . S
C3712 C3714 1.327 . S
C3712 H3737 0.950 . S
C3713 C3712 1.349 . S
C3713 C3729 1.349 . S
C3714 C3712 1.327 . S
C3714 C3733 1.429 . S
C3714 H3738 0.950 . S
C3715 C3732 1.574 . S
C3715 C3734 1.368 . S
C3715 H3739 0.949 . S
H3716 C3720 0.949 . S
C3717 C3718 1.349 . S
C3717 C3719 1.327 . S
C3717 H3740 0.950 . S
C3718 C3717 1.349 . S
C3718 C3730 1.349 . S
C3719 C3717 1.327 . S
C3719 C3735 1.429 . S
C3719 H3741 0.950 . S
C3720 H3716 0.949 . S
C3720 C3728 1.574 . S
C3720 C3736 1.368 . S
H3721 C3729 0.950 . S
H3722 C3727 0.950 . S
H3723 C3728 0.949 . S
H3724 C3730 0.950 . S
H3725 C3731 0.950 . S
H3726 C3732 0.949 . S
C3727 H3722 0.950 . S
C3727 C3729 1.327 . S
C3727 C3733 1.429 . S
C3728 C3720 1.574 . S
C3728 H3723 0.949 . S
C3728 C3734 1.368 . S
C3729 C3713 1.349 . S
C3729 H3721 0.950 . S
C3729 C3727 1.327 . S
C3730 C3718 1.349 . S
C3730 H3724 0.950 . S
C3730 C3731 1.327 . S
C3731 H3725 0.950 . S
C3731 C3730 1.327 . S
C3731 C3735 1.429 . S
C3732 C3715 1.574 . S
C3732 H3726 0.949 . S
C3732 C3736 1.368 . S
C3733 C3714 1.429 . S
C3733 C3727 1.429 . S
C3733 C3734 1.523 . S
C3734 C3715 1.368 . S
C3734 C3728 1.368 . S
C3734 C3733 1.523 . S
C3735 C3719 1.429 . S
C3735 C3731 1.429 . S
C3735 C3736 1.523 . S
C3736 C3720 1.368 . S
C3736 C3732 1.368 . S
C3736 C3735 1.523 . S
H3737 C3712 0.950 . S
H3738 C3714 0.950 . S
H3739 C3715 0.949 . S
H3740 C3717 0.950 . S
H3741 C3719 0.950 . S
C3742 C3743 1.349 . S
C3742 C3744 1.327 . S
C3742 H3767 0.950 . S
C3743 C3742 1.349 . S
C3743 C3759 1.349 . S
C3744 C3742 1.327 . S
C3744 C3763 1.429 . S
C3744 H3768 0.950 . S
C3745 C3762 1.574 . S
C3745 C3764 1.368 . S
C3745 H3769 0.949 . S
H3746 C3750 0.949 . S
C3747 C3748 1.349 . S
C3747 C3749 1.327 . S
C3747 H3770 0.950 1_554 S
C3748 C3747 1.349 . S
C3748 C3760 1.349 . S
C3749 C3747 1.327 . S
C3749 C3765 1.429 . S
C3749 H3771 0.950 1_554 S
C3750 H3746 0.949 . S
C3750 C3758 1.574 . S
C3750 C3766 1.368 . S
H3751 C3759 0.950 . S
H3752 C3757 0.950 . S
H3753 C3758 0.949 . S
H3754 C3760 0.950 . S
H3755 C3761 0.950 . S
H3756 C3762 0.917 1_556 S
C3757 H3752 0.950 . S
C3757 C3759 1.327 . S
C3757 C3763 1.429 . S
C3758 C3750 1.574 . S
C3758 H3753 0.949 . S
C3758 C3764 1.368 . S
C3759 C3743 1.349 . S
C3759 H3751 0.950 . S
C3759 C3757 1.327 . S
C3760 C3748 1.349 . S
C3760 H3754 0.950 . S
C3760 C3761 1.327 . S
C3761 H3755 0.950 . S
C3761 C3760 1.327 . S
C3761 C3765 1.429 . S
C3762 C3745 1.574 . S
C3762 H3756 0.917 1_554 S
C3762 C3766 1.368 . S
C3763 C3744 1.429 . S
C3763 C3757 1.429 . S
C3763 C3764 1.523 . S
C3764 C3745 1.368 . S
C3764 C3758 1.368 . S
C3764 C3763 1.523 . S
C3765 C3749 1.429 . S
C3765 C3761 1.429 . S
C3765 C3766 1.523 . S
C3766 C3750 1.368 . S
C3766 C3762 1.368 . S
C3766 C3765 1.523 . S
H3767 C3742 0.950 . S
H3768 C3744 0.950 . S
H3769 C3745 0.949 . S
H3770 C3747 0.950 1_556 S
H3771 C3749 0.950 1_556 S
C3772 C3773 1.349 . S
C3772 C3774 1.327 . S
C3772 H3797 0.950 . S
C3773 C3772 1.349 . S
C3773 C3789 1.349 . S
C3774 C3772 1.327 . S
C3774 C3793 1.429 . S
C3774 H3798 0.950 . S
C3775 C3792 1.574 . S
C3775 C3794 1.368 . S
C3775 H3799 0.949 . S
H3776 C3780 0.949 . S
C3777 C3778 1.349 . S
C3777 C3779 1.327 . S
C3777 H3800 0.950 . S
C3778 C3777 1.349 . S
C3778 C3790 1.349 . S
C3779 C3777 1.327 . S
C3779 C3795 1.429 . S
C3779 H3801 0.950 . S
C3780 H3776 0.949 . S
C3780 C3788 1.574 . S
C3780 C3796 1.368 . S
H3781 C3789 0.950 . S
H3782 C3787 0.950 . S
H3783 C3788 0.949 . S
H3784 C3790 0.950 . S
H3785 C3791 0.950 . S
H3786 C3792 0.949 . S
C3787 H3782 0.950 . S
C3787 C3789 1.327 . S
C3787 C3793 1.429 . S
C3788 C3780 1.574 . S
C3788 H3783 0.949 . S
C3788 C3794 1.368 . S
C3789 C3773 1.349 . S
C3789 H3781 0.950 . S
C3789 C3787 1.327 . S
C3790 C3778 1.349 . S
C3790 H3784 0.950 . S
C3790 C3791 1.327 . S
C3791 H3785 0.950 . S
C3791 C3790 1.327 . S
C3791 C3795 1.429 . S
C3792 C3775 1.574 . S
C3792 H3786 0.949 . S
C3792 C3796 1.368 . S
C3793 C3774 1.429 . S
C3793 C3787 1.429 . S
C3793 C3794 1.523 . S
C3794 C3775 1.368 . S
C3794 C3788 1.368 . S
C3794 C3793 1.523 . S
C3795 C3779 1.429 . S
C3795 C3791 1.429 . S
C3795 C3796 1.523 . S
C3796 C3780 1.368 . S
C3796 C3792 1.368 . S
C3796 C3795 1.523 . S
H3797 C3772 0.950 . S
H3798 C3774 0.950 . S
H3799 C3775 0.949 . S
H3800 C3777 0.950 . S
H3801 C3779 0.950 . S
C3802 C3803 1.349 . S
C3802 C3804 1.327 . S
C3802 H3827 0.950 . S
C3803 C3802 1.349 . S
C3803 C3819 1.349 . S
C3804 C3802 1.327 . S
C3804 C3823 1.429 . S
C3804 H3828 0.950 . S
C3805 C3822 1.574 . S
C3805 C3824 1.368 . S
C3805 H3829 0.949 . S
H3806 C3810 0.949 . S
C3807 C3808 1.349 . S
C3807 C3809 1.327 . S
C3807 H3830 0.950 . S
C3808 C3807 1.349 . S
C3808 C3820 1.349 . S
C3809 C3807 1.327 . S
C3809 C3825 1.429 . S
C3809 H3831 0.950 . S
C3810 H3806 0.949 . S
C3810 C3818 1.574 . S
C3810 C3826 1.368 . S
H3811 C3819 0.950 . S
H3812 C3817 0.950 . S
H3813 C3818 0.949 . S
H3814 C3820 0.950 . S
H3815 C3821 0.950 . S
H3816 C3822 0.949 . S
C3817 H3812 0.950 . S
C3817 C3819 1.327 . S
C3817 C3823 1.429 . S
C3818 C3810 1.574 . S
C3818 H3813 0.949 . S
C3818 C3824 1.368 . S
C3819 C3803 1.349 . S
C3819 H3811 0.950 . S
C3819 C3817 1.327 . S
C3820 C3808 1.349 . S
C3820 H3814 0.950 . S
C3820 C3821 1.327 . S
C3821 H3815 0.950 . S
C3821 C3820 1.327 . S
C3821 C3825 1.429 . S
C3822 C3805 1.574 . S
C3822 H3816 0.949 . S
C3822 C3826 1.368 . S
C3823 C3804 1.429 . S
C3823 C3817 1.429 . S
C3823 C3824 1.523 . S
C3824 C3805 1.368 . S
C3824 C3818 1.368 . S
C3824 C3823 1.523 . S
C3825 C3809 1.429 . S
C3825 C3821 1.429 . S
C3825 C3826 1.523 . S
C3826 C3810 1.368 . S
C3826 C3822 1.368 . S
C3826 C3825 1.523 . S
H3827 C3802 0.950 . S
H3828 C3804 0.950 . S
H3829 C3805 0.949 . S
H3830 C3807 0.950 . S
H3831 C3809 0.950 . S
C953 C101 1.921 . S
C958 C343 1.868 . S
C983 C57 1.624 . S
C988 C354 1.648 . S
C1013 C70 1.365 . S
C1018 C423 1.325 . S
C1048 C436 1.205 . S
C1043 C82 1.224 . S
C1073 C23 2.428 . S
C1078 C492 2.401 . S
C1108 C543 1.792 . S
C1103 C29 1.847 . S
C1138 C572 2.269 . S
C1133 C49 2.281 . S
C1163 C10 2.302 . S
C1168 C623 2.238 . S
C1198 C314 1.086 . S
C1193 C218 1.084 . S
C1223 C226 0.783 . S
C1228 C356 0.778 . S
C1258 C394 0.985 . S
C1253 C251 0.988 . S
C1288 C463 1.333 . S
C1283 C159 1.348 . S
C1313 C211 0.438 . S
C1318 C497 0.483 . S
C1348 C514 1.361 . S
C1343 C225 1.354 . S
C1378 C577 0.336 . S
C1373 C252 0.218 . S
C1408 C594 1.912 . S
C1403 C166 1.940 . S
C1438 C316 1.543 . S
C1433 C147 1.622 . S
C1463 C263 1.540 . S
C1468 C655 1.510 . S
C1498 C676 1.380 . S
C1493 C309 1.440 . S
C1528 C735 0.295 . S
C1523 C291 0.113 . S
C1553 C108 0.960 . S
C1558 C596 0.945 . S
C1583 C121 1.385 . S
C1588 C396 1.356 . S
C1613 C302 0.725 . S
C1618 C754 0.723 . S
C1648 C823 0.833 . S
C1643 C276 0.842 . S
C1678 C332 2.177 1_565 S
C1673 C55 2.189 . S
C1708 C815 1.998 . S
C1703 C96 2.004 . S
C1733 C88 1.795 . S
C1738 C412 1.770 . S
C1763 C75 1.425 . S
C1768 C777 1.412 . S
C1798 C503 2.793 . S
C1793 C4 2.823 . S
C1823 C44 2.158 . S
C1828 C692 2.144 . S
C1858 C583 2.706 1_565 S
C1853 C31 2.723 . S
C1888 C852 2.517 . S
C1883 C18 2.554 1_655 S
C1918 C335 1.335 1_556 S
C1913 C133 1.348 . S
C1948 C817 1.027 . S
C1943 C296 1.044 . S
C1973 C107 1.330 . S
C1978 C415 1.311 . S
C2003 C264 1.880 . S
C2008 C772 1.880 . S
C2033 C140 0.705 . S
C2038 C476 0.706 . S
C2068 C695 1.672 . S
C2063 C289 1.686 . S
C2093 C114 0.526 . S
C2098 C556 0.533 . S
C2123 C265 2.335 . S
C2128 C855 2.299 . S
C2153 C179 1.552 . S
C2158 C337 1.512 . S
C2183 C161 1.781 . S
C2188 C634 1.737 . S
C2213 C244 1.345 . S
C2218 C537 1.316 . S
C2243 C224 0.499 . S
C2248 C714 0.527 . S
C2278 C857 0.920 . S
C2273 C257 0.973 . S
C2303 C199 1.463 . S
C2308 C417 1.448 . S
C2338 C455 1.114 . S
C2333 C237 1.116 . S
C2368 C372 1.136 . S
C2363 C185 1.155 . S
C2393 C69 1.918 . S
C2398 C903 1.872 . S
C2428 C794 1.648 . S
C2423 C83 1.624 . S
C2453 C94 1.365 . S
C2458 C943 1.328 . S
C2483 C56 1.224 . S
C2488 C756 1.205 . S
C2513 C42 2.439 . S
C2518 C652 2.411 . S
C2548 C703 1.792 . S
C2543 C3 1.847 . S
C2578 C732 2.279 . S
C2573 C16 2.290 . S
C2608 C863 2.237 . S
C2603 C36 2.302 . S
C2638 C874 1.086 . S
C2633 C238 1.084 . S
C2663 C174 0.781 . S
C2668 C796 0.777 . S
C2698 C914 0.985 . S
C2693 C186 0.988 . S
C2728 C783 1.332 . S
C2723 C198 1.347 . S
C2758 C657 0.484 . S
C2753 C239 0.439 . S
C2783 C173 1.354 . S
C2788 C674 1.361 . S
C2818 C737 0.337 . S
C2813 C187 0.219 . S
C2843 C205 1.940 . S
C2848 C834 1.912 . S
C2878 C876 1.541 . S
C2873 C290 1.621 . S
C2903 C122 1.541 . S
C2908 C495 1.511 . S
C2938 C516 1.381 . S
C2933 C134 1.441 1_565 S
C2968 C575 0.294 . S
C2963 C148 0.117 . S
C2998 C836 0.943 . S
C2993 C283 0.958 . S
C3023 C270 1.383 . S
C3028 C916 1.354 . S
C3058 C434 0.723 . S
C3053 C135 0.725 . S
C3088 C383 0.833 . S
C3083 C109 0.842 . S
C3113 C81 2.189 . S
C3118 C892 2.178 . S
C3148 C375 1.997 . S
C3143 C68 1.996 . S
C3173 C62 1.795 . S
C3178 C932 1.770 . S
C3203 C95 1.423 . S
C3208 C457 1.403 . S
C3233 C30 2.823 . S
C3238 C663 2.822 . S
C3268 C532 2.134 . S
C3263 C17 2.154 . S
C3293 C5 2.724 . S
C3298 C743 2.707 . S
C3323 C43 2.547 . S
C3328 C612 2.506 . S
C3358 C895 1.335 . S
C3353 C304 1.348 . S
C3383 C153 1.042 . S
C3388 C377 1.021 . S
C3418 C935 1.311 1_556 S
C3413 C278 1.330 . S
C3443 C127 1.880 . S
C3448 C452 1.880 . S
C3473 C303 0.701 . S
C3478 C636 0.702 . S
C3508 C535 1.670 . S
C3503 C146 1.689 . S
C3533 C277 0.522 . S
C3538 C716 0.529 . S
C3568 C615 2.297 . S
C3563 C120 2.333 . S
C3598 C897 1.513 . S
C3593 C231 1.552 . S
C3628 C474 1.736 1_665 S
C3623 C200 1.780 . S
C3653 C212 1.346 . S
C3658 C697 1.316 . S
C3688 C554 0.526 . S
C3683 C172 0.497 . S
C3713 C192 0.926 . S
C3718 C617 0.919 . S
C3743 C160 1.463 . S
C3748 C937 1.448 . S
C3778 C775 1.116 . S
C3773 C213 1.118 . S
C3808 C812 1.137 . S
C3803 C250 1.156 . S
