# Generated by pormake.
# Topology anh, (6,3)-cn, num edge types: 1
# Building blocks:
#     Node 0, Type 0, BuildingBlock: CUKXOW_clean_sbu_0, # of connection points: 6
#     Node 1, Type 0, BuildingBlock: CUKXOW_clean_sbu_0, # of connection points: 6
#     Node 2, Type 0, BuildingBlock: CUKXOW_clean_sbu_0, # of connection points: 6
#     Node 3, Type 1, BuildingBlock: WUSLED_clean_sbu_0, # of connection points: 3
#     Node 4, Type 1, BuildingBlock: WUSLED_clean_sbu_0, # of connection points: 3
#     Node 5, Type 1, BuildingBlock: WUSLED_clean_sbu_0, # of connection points: 3
#     Node 6, Type 1, BuildingBlock: WUSLED_clean_sbu_0, # of connection points: 3
#     Node 7, Type 1, BuildingBlock: WUSLED_clean_sbu_0, # of connection points: 3
#     Node 8, Type 1, BuildingBlock: WUSLED_clean_sbu_0, # of connection points: 3
#     Edge 9, Type (0, 1), BuildingBlock: XIVTED_clean_linker_0, # of connection points: 2
#     Edge 10, Type (0, 1), BuildingBlock: XIVTED_clean_linker_0, # of connection points: 2
#     Edge 11, Type (0, 1), BuildingBlock: XIVTED_clean_linker_0, # of connection points: 2
#     Edge 12, Type (0, 1), BuildingBlock: XIVTED_clean_linker_0, # of connection points: 2
#     Edge 13, Type (0, 1), BuildingBlock: XIVTED_clean_linker_0, # of connection points: 2
#     Edge 14, Type (0, 1), BuildingBlock: XIVTED_clean_linker_0, # of connection points: 2
#     Edge 15, Type (0, 1), BuildingBlock: XIVTED_clean_linker_0, # of connection points: 2
#     Edge 16, Type (0, 1), BuildingBlock: XIVTED_clean_linker_0, # of connection points: 2
#     Edge 17, Type (0, 1), BuildingBlock: XIVTED_clean_linker_0, # of connection points: 2
#     Edge 18, Type (0, 1), BuildingBlock: XIVTED_clean_linker_0, # of connection points: 2
#     Edge 19, Type (0, 1), BuildingBlock: XIVTED_clean_linker_0, # of connection points: 2
#     Edge 20, Type (0, 1), BuildingBlock: XIVTED_clean_linker_0, # of connection points: 2
#     Edge 21, Type (0, 1), BuildingBlock: XIVTED_clean_linker_0, # of connection points: 2
#     Edge 22, Type (0, 1), BuildingBlock: XIVTED_clean_linker_0, # of connection points: 2
#     Edge 23, Type (0, 1), BuildingBlock: XIVTED_clean_linker_0, # of connection points: 2
#     Edge 24, Type (0, 1), BuildingBlock: XIVTED_clean_linker_0, # of connection points: 2
#     Edge 25, Type (0, 1), BuildingBlock: XIVTED_clean_linker_0, # of connection points: 2
#     Edge 26, Type (0, 1), BuildingBlock: XIVTED_clean_linker_0, # of connection points: 2
# Relax obj value: 0.128
# Max RMSD: 0.190
# Mean RMSD: 0.134
data_MOF--net-anh--node1-CUKXOW_clean_sbu_0--node2-WUSLED_clean_sbu_0--edge1-XIVTED_clean_linker_0
_symmetry_space_group_name_H-M    P1
_symmetry_Int_Tables_number       1
_symmetry_cell_setting            triclinic
loop_
_symmetry_equiv_pos_as_xyz
'x, y, z'
_cell_length_a     37.818338
_cell_length_b     37.073029
_cell_length_c     68.579117
_cell_angle_alpha  95.897474
_cell_angle_beta   89.870202
_cell_angle_gamma 116.22744
loop_
_atom_site_label
_atom_site_type_symbol
_atom_site_fract_x
_atom_site_fract_y
_atom_site_fract_z
_atom_type_partial_charge
Tb0 Tb 0.0787 0.53812 0.16851 0.0
C1 C 0.04709 0.50047 0.20687 0.0
Tb2 Tb 0.0219 0.44937 0.16469 0.0
O3 O 0.03065 0.55326 0.17807 0.0
O4 O 1.0186 0.50246 0.15852 0.0
O5 O 0.07651 0.53026 0.19939 0.0
C6 C 0.95504 0.38137 0.16569 0.0
O7 O 1.02027 0.46873 0.19576 0.0
C8 C 0.09605 0.46311 0.1621 0.0
C9 C 0.0554 0.48758 0.12632 0.0
O10 O 0.98895 0.38829 0.1736 0.0
O11 O 0.95917 0.41225 0.15696 0.0
O12 O 0.06613 0.43059 0.15412 0.0
O13 O 0.08324 0.48413 0.17312 0.0
O14 O 0.02674 0.45688 0.13377 0.0
O15 O 0.08067 0.52068 0.13731 0.0
C16 C 0.14106 0.61065 0.16854 0.0
O17 O 0.10445 0.60341 0.16615 0.0
O18 O 0.14254 0.57708 0.1708 0.0
C19 C 1.00276 0.52144 0.1684 0.0
Tb20 Tb 0.50259 0.01244 0.51029 0.0
C21 C 0.54173 0.04845 0.47247 0.0
Tb22 Tb 0.58842 0.07753 0.51421 0.0
O23 O 0.48258 0.05676 0.50247 0.0
O24 O 0.53282 0.07479 0.52058 0.0
O25 O 0.51377 0.01633 0.47932 0.0
C26 C 0.65521 0.1447 0.51213 0.0
O27 O 0.56981 0.07814 0.48408 0.0
C28 C 0.57938 1.00351 0.51454 0.0
C29 C 0.54848 0.04287 0.55221 0.0
O30 O 0.64504 0.11068 0.50119 0.0
O31 O 0.62806 0.14083 0.52448 0.0
O32 O 0.60949 0.03514 0.52294 0.0
O33 O 0.55865 0.01474 0.50468 0.0
O34 O 0.57633 0.07487 0.54513 0.0
O35 O 0.5199 0.01288 0.54087 0.0
C36 C 0.43567 0.94415 0.50965 0.0
O37 O 0.44096 0.97928 0.51806 0.0
O38 O 0.46794 0.94759 0.50167 0.0
C39 C 0.51266 0.08753 0.51148 0.0
Tb40 Tb 0.53491 0.53038 0.83675 0.0
C41 C 0.57661 0.53631 0.87713 0.0
Tb42 Tb 0.62457 0.55091 0.83803 0.0
O43 O 0.51864 0.46983 0.84494 0.0
O44 O 0.56988 0.49971 0.82993 0.0
O45 O 0.54797 0.54119 0.86833 0.0
C46 C 0.69285 0.54796 0.83909 0.0
O47 O 0.60584 0.53322 0.86736 0.0
C48 C 0.61343 0.61671 0.84028 0.0
C49 C 0.58262 0.5446 0.79719 0.0
O50 O 0.68138 0.56727 0.85245 0.0
O51 O 0.66563 0.52962 0.8252 0.0
O52 O 0.64815 0.61772 0.83984 0.0
O53 O 0.5894 0.58033 0.83999 0.0
O54 O 0.61507 0.54807 0.80644 0.0
O55 O 0.54986 0.53971 0.80623 0.0
C56 C 0.46966 0.53776 0.83153 0.0
O57 O 0.4749 0.50678 0.82433 0.0
O58 O 0.50039 0.56359 0.84224 0.0
C59 C 0.55076 0.46891 0.83858 0.0
C60 C 0.61246 0.10091 0.19624 0.0
C61 C 0.63849 0.12549 0.21195 0.0
C62 C 0.68714 0.1628 0.18908 0.0
C63 C 0.6755 0.15613 0.20841 0.0
C64 C 0.66068 0.1383 0.1734 0.0
C65 C 0.6237 0.1076 0.17697 0.0
U66 U 0.53949 0.04281 0.23247 0.0
O67 O 0.47466 0.0176 0.23286 0.0
O68 O 0.50361 0.97768 0.23366 0.0
C69 C 0.4701 0.98036 0.23301 0.0
C70 C 0.57404 0.06784 0.19995 0.0
C71 C 0.43734 0.94826 0.22057 0.0
C72 C 0.41189 0.89346 0.19387 0.0
C73 C 0.44358 0.92742 0.20365 0.0
C74 C 0.36743 0.90193 0.21733 0.0
C75 C 0.37354 0.87986 0.20084 0.0
C76 C 0.39898 0.93569 0.22706 0.0
C77 C 0.56761 0.07697 0.28699 0.0
C78 C 0.53473 0.03593 0.31298 0.0
C79 C 0.58199 0.10614 0.32102 0.0
C80 C 0.58786 0.11008 0.30109 0.0
C81 C 0.55588 0.06884 0.32727 0.0
C82 C 0.5405 0.04 0.29299 0.0
C83 C 0.57587 0.0814 0.26619 0.0
O84 O 0.57602 0.0383 0.20823 0.0
O85 O 0.54842 0.0793 0.20789 0.0
O86 O 0.553 0.09217 0.25635 0.0
O87 O 0.58219 0.05252 0.25646 0.0
H88 H 0.63022 0.12081 0.22696 0.0
H89 H 0.69488 0.17477 0.22082 0.0
H90 H 0.66885 0.14231 0.15835 0.0
H91 H 0.60402 0.08884 0.16467 0.0
H92 H 0.41752 0.87743 0.18107 0.0
H93 H 0.47298 0.93664 0.19835 0.0
H94 H 0.33853 0.89207 0.22333 0.0
H95 H 0.3936 0.95114 0.24018 0.0
H96 H 0.51457 1.00674 0.31724 0.0
H97 H 0.59809 0.13238 0.33155 0.0
H98 H 0.60861 0.13894 0.29669 0.0
H99 H 0.52437 0.01413 0.28226 0.0
C100 C 0.53734 0.64447 0.5313 0.0
C101 C 0.54408 0.67064 0.54864 0.0
C102 C 0.5408 0.72185 0.52993 0.0
C103 C 0.54578 0.70905 0.54797 0.0
C104 C 0.53375 0.69513 0.51268 0.0
C105 C 0.53201 0.65688 0.51339 0.0
U106 U 0.54403 0.55683 0.5551 0.0
O107 O 0.50924 0.49164 0.54583 0.0
O108 O 0.57371 0.52076 0.54257 0.0
C109 C 0.54022 0.48775 0.53928 0.0
C110 C 0.53681 0.60458 0.53119 0.0
C111 C 0.54032 0.44804 0.53835 0.0
C112 C 0.53809 0.39005 0.51746 0.0
C113 C 0.54041 0.42881 0.5197 0.0
C114 C 0.53664 0.38926 0.55274 0.0
C115 C 0.53566 0.36951 0.53389 0.0
C116 C 0.53873 0.42831 0.55497 0.0
C117 C 0.56203 0.5706 0.61249 0.0
C118 C 0.54614 0.52452 0.63757 0.0
C119 C 0.59022 0.59565 0.64578 0.0
C120 C 0.5863 0.60244 0.62643 0.0
C121 C 0.56987 0.55673 0.65169 0.0
C122 C 0.54226 0.53138 0.6181 0.0
C123 C 0.55561 0.58064 0.59296 0.0
O124 O 0.5706 0.60474 0.53571 0.0
O125 O 0.50667 0.57691 0.53912 0.0
O126 O 0.52036 0.55987 0.58421 0.0
O127 O 0.58456 0.58911 0.58088 0.0
H128 H 0.54828 0.66148 0.56262 0.0
H129 H 0.55086 0.72864 0.56157 0.0
H130 H 0.5305 0.70407 0.49851 0.0
H131 H 0.527 0.6371 0.49984 0.0
H132 H 0.53816 0.37611 0.50279 0.0
H133 H 0.54172 0.44365 0.5067 0.0
H134 H 0.53472 0.37413 0.56568 0.0
H135 H 0.53857 0.44277 0.5695 0.0
H136 H 0.53034 0.49411 0.6416 0.0
H137 H 0.60815 0.62129 0.65627 0.0
H138 H 0.60142 0.63302 0.62248 0.0
H139 H 0.52328 0.50633 0.60759 0.0
C140 C 1.01999 0.53611 0.85394 0.0
C141 C 0.99016 0.52723 0.86738 0.0
C142 C 0.95184 0.5436 0.84491 0.0
C143 C 0.95632 0.53092 0.86291 0.0
C144 C 0.98093 0.55089 0.83105 0.0
C145 C 1.01522 0.54743 0.83564 0.0
U146 U 0.07755 0.53143 0.89573 0.0
O147 O 0.1157 0.50191 0.89959 0.0
O148 O 0.1395 0.5681 0.90593 0.0
C149 C 0.14734 0.5369 0.90261 0.0
C150 C 0.05708 0.5372 0.86034 0.0
C151 C 0.17768 0.54242 0.88852 0.0
C152 C 0.19528 0.53586 0.85479 0.0
C153 C 0.16663 0.5293 0.86853 0.0
C154 C 0.24628 0.57037 0.88077 0.0
C155 C 0.23527 0.5563 0.86083 0.0
C156 C 0.21754 0.56339 0.89457 0.0
C157 C 0.03296 0.51598 0.94428 0.0
C158 C 0.07418 0.51505 0.971 0.0
C159 C 1.00521 0.49815 0.97567 0.0
C160 C 1.00075 0.50447 0.9563 0.0
C161 C 0.04196 0.50332 0.98315 0.0
C162 C 0.06967 0.52125 0.95168 0.0
C163 C 0.02828 0.52067 0.92375 0.0
O164 O 0.0782 0.56896 0.87287 0.0
O165 O 0.05371 0.50299 0.86593 0.0
O166 O 0.02751 0.49074 0.91141 0.0
O167 O 0.05152 0.55665 0.91867 0.0
H168 H 0.99364 0.51868 0.88164 0.0
H169 H 0.93391 0.52457 0.87367 0.0
H170 H 0.97777 0.56069 0.81709 0.0
H171 H 0.03832 0.55467 0.82524 0.0
H172 H 0.18629 0.52482 0.83949 0.0
H173 H 0.13581 0.51391 0.86356 0.0
H174 H 0.27709 0.58567 0.88575 0.0
H175 H 0.22637 0.57427 0.90989 0.0
H176 H 0.10268 0.51882 0.97634 0.0
H177 H 0.98004 0.48961 0.98484 0.0
H178 H 0.97223 0.50015 0.95068 0.0
H179 H 0.09472 0.52975 0.94241 0.0
C180 C 0.95104 0.47789 0.48186 0.0
C181 C 0.93737 0.44391 0.46773 0.0
C182 C 0.8846 0.40581 0.48858 0.0
C183 C 0.90475 0.40819 0.47111 0.0
C184 C 0.89815 0.44027 0.50259 0.0
C185 C 0.93117 0.47594 0.49927 0.0
U186 U 1.01551 0.54085 0.44492 0.0
O187 O 0.07972 0.57276 0.44298 0.0
O188 O 0.04427 0.60644 0.44263 0.0
C189 C 0.07973 0.60811 0.44248 0.0
C190 C 0.98541 0.51541 0.47811 0.0
C191 C 0.11122 0.64245 0.45432 0.0
C192 C 0.15274 0.67313 0.48421 0.0
C193 C 0.11917 0.64167 0.47424 0.0
C194 C 0.16962 0.70643 0.45455 0.0
C195 C 0.17858 0.70517 0.47421 0.0
C196 C 0.13613 0.6754 0.44472 0.0
C197 C 0.98873 0.49877 0.39134 0.0
C198 C 0.03042 0.53283 0.36553 0.0
C199 C 0.97151 0.46973 0.35742 0.0
C200 C 0.96337 0.4682 0.37726 0.0
C201 C 1.00534 0.50183 0.35131 0.0
C202 C 0.02217 0.53129 0.3854 0.0
C203 C 0.98053 0.49583 0.41216 0.0
O204 O 1.01522 0.51027 0.47074 0.0
O205 O 0.9771 0.54065 0.46917 0.0
O206 O 0.97073 0.5232 0.42081 0.0
O207 O 1.00618 0.49004 0.42267 0.0
H208 H 0.95211 0.44491 0.45409 0.0
H209 H 0.89578 0.3823 0.4601 0.0
H210 H 0.88304 0.43992 0.51604 0.0
H211 H 0.94106 0.50204 0.51023 0.0
H212 H 0.1594 0.67164 0.49937 0.0
H213 H 0.10025 0.61626 0.48184 0.0
H214 H 0.18923 0.73094 0.44663 0.0
H215 H 0.13045 0.6764 0.42935 0.0
H216 H 0.05687 0.55778 0.36136 0.0
H217 H 0.95116 0.44577 0.34685 0.0
H218 H 0.93737 0.44298 0.38163 0.0
H219 H 0.0421 0.55514 0.39617 0.0
C220 C 0.57247 0.93608 0.81963 0.0
C221 C 0.56551 0.90842 0.80282 0.0
C222 C 0.57532 0.86229 0.82259 0.0
C223 C 0.56679 0.87157 0.80431 0.0
C224 C 0.58144 0.88995 0.83935 0.0
C225 C 0.58005 0.92647 0.83785 0.0
U226 U 0.56723 0.02238 0.79406 0.0
O227 O 0.53672 0.05818 0.80561 0.0
O228 O 0.60149 0.08773 0.80305 0.0
C229 C 0.57004 0.09134 0.80905 0.0
C230 C 0.57233 0.97534 0.81888 0.0
C231 C 0.56946 0.13066 0.80972 0.0
C232 C 0.56247 0.18443 0.82994 0.0
C233 C 0.56268 0.14685 0.82787 0.0
C234 C 0.57608 0.19064 0.79556 0.0
C235 C 0.56875 0.20668 0.81381 0.0
C236 C 0.57641 0.15267 0.79351 0.0
C237 C 0.55383 0.00997 0.73674 0.0
C238 C 0.57846 0.05362 0.7107 0.0
C239 C 0.52308 0.98732 0.70388 0.0
C240 C 0.52485 0.98069 0.72342 0.0
C241 C 0.55057 0.02334 0.69711 0.0
C242 C 0.58013 0.04697 0.73037 0.0
C243 C 0.55841 0.99868 0.75624 0.0
O244 O 0.60324 1.00309 0.81147 0.0
O245 O 0.53878 0.97444 0.81323 0.0
O246 O 0.5285 0.99011 0.76772 0.0
O247 O 0.59308 0.01865 0.76566 0.0
H248 H 0.55952 0.9155 0.78862 0.0
H249 H 0.56216 0.85087 0.79115 0.0
H250 H 0.5874 0.88339 0.85367 0.0
H251 H 0.5852 0.94743 0.85097 0.0
H252 H 0.5577 0.19622 0.84429 0.0
H253 H 0.55775 0.13042 0.84059 0.0
H254 H 0.58092 0.20708 0.78286 0.0
H255 H 0.58193 0.14057 0.7794 0.0
H256 H 0.60011 0.08168 0.70599 0.0
H257 H 0.50062 0.96373 0.69395 0.0
H258 H 0.50432 0.95191 0.72799 0.0
H259 H 0.60283 0.07009 0.74036 0.0
C260 C 0.64814 0.48862 0.14289 0.0
C261 C 0.67004 0.48907 0.12622 0.0
C262 C 0.72549 0.49385 0.14687 0.0
C263 C 0.70828 0.49149 0.12819 0.0
C264 C 0.70285 0.49266 0.16334 0.0
C265 C 0.66493 0.49012 0.16136 0.0
U266 U 0.55006 0.49042 0.12209 0.0
O267 O 0.49053 0.45661 0.13298 0.0
O268 O 0.52046 0.52274 0.13886 0.0
C269 C 0.48855 0.48938 0.14104 0.0
C270 C 0.60833 0.48763 0.14218 0.0
C271 C 0.44962 0.4907 0.14067 0.0
C272 C 0.40333 0.51013 0.15845 0.0
C273 C 0.44087 0.51138 0.15683 0.0
C274 C 0.38223 0.4681 0.12739 0.0
C275 C 0.37305 0.48823 0.14386 0.0
C276 C 0.4199 0.46914 0.12586 0.0
C277 C 0.55636 0.49926 0.06299 0.0
C278 C 0.52653 0.47712 0.02978 0.0
C279 C 0.59265 0.53159 0.03525 0.0
C280 C 0.59038 0.52839 0.05546 0.0
C281 C 0.56063 0.50621 0.02216 0.0
C282 C 0.52458 0.47344 0.04996 0.0
C283 C 0.55398 0.49598 0.08436 0.0
O284 O 0.60635 0.52136 0.13971 0.0
O285 O 0.57846 0.45527 0.13349 0.0
O286 O 0.53693 0.46093 0.09148 0.0
O287 O 0.56883 0.528 0.0975 0.0
H288 H 0.65782 0.48798 0.11179 0.0
H289 H 0.7247 0.49248 0.11514 0.0
H290 H 0.71434 0.4935 0.17792 0.0
H291 H 0.64868 0.48963 0.17444 0.0
H292 H 0.39787 0.52542 0.17157 0.0
H293 H 0.46294 0.52775 0.16863 0.0
H294 H 0.3603 0.45137 0.11561 0.0
H295 H 0.42555 0.45265 0.11326 0.0
H296 H 0.50147 0.45688 0.02011 0.0
H297 H 0.61923 0.55448 0.02991 0.0
H298 H 0.61536 0.54855 0.0652 0.0
H299 H 0.49798 0.45075 0.0554 0.0
H300 H 0.16584 0.52382 0.18067 0.0
H301 H 0.30062 0.42507 0.13086 0.0
H302 H 0.12185 0.41667 0.13896 0.0
H303 H 0.35083 0.54497 0.16251 0.0
H304 H 0.23496 0.42074 0.13532 0.0
H305 H 0.2335 0.53146 0.17604 0.0
C306 C 0.17032 0.50211 0.17047 0.0
C307 C 0.13791 0.46973 0.16009 0.0
C308 C 0.26034 0.44808 0.14129 0.0
C309 C 0.21526 0.47774 0.155 0.0
C310 C 0.29818 0.45077 0.13859 0.0
C311 C 0.33212 0.48554 0.1462 0.0
C312 C 0.25567 0.4802 0.15185 0.0
C313 C 0.32603 0.51718 0.15656 0.0
C314 C 0.20897 0.50636 0.16788 0.0
C315 C 0.1457 0.44214 0.14731 0.0
N316 N 0.28881 0.51371 0.1591 0.0
N317 N 0.18322 0.44669 0.14521 0.0
H318 H 0.6905 0.21218 0.53851 0.0
H319 H 0.82768 0.35012 0.46174 0.0
H320 H 0.69802 0.16357 0.47961 0.0
H321 H 0.86192 0.37354 0.52357 0.0
H322 H 0.77291 0.286 0.46773 0.0
H323 H 0.74688 0.27639 0.53308 0.0
C324 C 0.70415 0.21508 0.52449 0.0
C325 C 0.68996 0.18273 0.50951 0.0
C326 C 0.79254 0.30526 0.47994 0.0
C327 C 0.75333 0.2558 0.50308 0.0
C328 C 0.82398 0.34184 0.47656 0.0
C329 C 0.84993 0.36743 0.49215 0.0
C330 C 0.78639 0.29439 0.49908 0.0
C331 C 0.84257 0.35529 0.51111 0.0
C332 C 0.73622 0.25154 0.52141 0.0
C333 C 0.70843 0.18783 0.49157 0.0
N334 N 0.81141 0.31972 0.51405 0.0
N335 N 0.73897 0.22389 0.48876 0.0
H336 H 0.66101 0.6945 0.85309 0.0
H337 H 0.52756 0.78445 0.80611 0.0
H338 H 0.54887 0.61826 0.82269 0.0
H339 H 0.63279 0.85503 0.84317 0.0
H340 H 0.53481 0.72309 0.81071 0.0
H341 H 0.65097 0.75374 0.84864 0.0
C342 C 0.63398 0.69031 0.84566 0.0
C343 C 0.60531 0.65156 0.83862 0.0
C344 C 0.55619 0.75205 0.81784 0.0
C345 C 0.59372 0.71921 0.83311 0.0
C346 C 0.55223 0.78703 0.81512 0.0
C347 C 0.57947 0.82481 0.82439 0.0
C348 C 0.58781 0.75511 0.82976 0.0
C349 C 0.61075 0.82647 0.836 0.0
C350 C 0.62822 0.72409 0.84309 0.0
C351 C 0.57099 0.64761 0.82891 0.0
N352 N 0.61403 0.79221 0.83833 0.0
N353 N 0.56615 0.68115 0.82634 0.0
H354 H 0.94628 0.46938 0.14026 0.0
H355 H 0.7817 0.54036 0.17612 0.0
H356 H 0.96469 0.56023 0.18885 0.0
H357 H 0.76459 0.4579 0.12388 0.0
H358 H 0.84757 0.54554 0.18142 0.0
H359 H 0.87913 0.46209 0.13464 0.0
C360 C 0.93612 0.48755 0.14987 0.0
C361 C 0.96126 0.51534 0.16515 0.0
C362 C 0.82955 0.52629 0.16876 0.0
C363 C 0.88422 0.50745 0.15863 0.0
C364 C 0.79159 0.52308 0.16575 0.0
C365 C 0.76692 0.49835 0.14956 0.0
C366 C 0.8436 0.5046 0.15556 0.0
C367 C 0.78232 0.47756 0.1365 0.0
C368 C 0.89779 0.48356 0.14656 0.0
C369 C 0.94649 0.53843 0.17691 0.0
N370 N 0.81943 0.481 0.13983 0.0
N371 N 0.90916 0.53396 0.17343 0.0
H372 H 0.36459 0.93283 0.52443 0.0
H373 H 0.25085 0.71415 0.46442 0.0
H374 H 0.42204 0.87068 0.49101 0.0
H375 H 0.19251 0.76583 0.50401 0.0
H376 H 0.31444 0.76988 0.47594 0.0
H377 H 0.30179 0.8712 0.51902 0.0
C378 C 0.36398 0.90608 0.51611 0.0
C379 C 0.39831 0.90677 0.50801 0.0
C380 C 0.28791 0.76897 0.48235 0.0
C381 C 0.32696 0.83656 0.50171 0.0
C382 C 0.2517 0.73713 0.47579 0.0
C383 C 0.21675 0.73569 0.48333 0.0
C384 C 0.28915 0.80004 0.49633 0.0
C385 C 0.21906 0.76605 0.49796 0.0
C386 C 0.32822 0.87096 0.51305 0.0
C387 C 0.39613 0.87143 0.4974 0.0
N388 N 0.25475 0.79741 0.50385 0.0
N389 N 0.36101 0.83789 0.49443 0.0
H390 H 0.51116 0.40046 0.85597 0.0
H391 H 0.61745 0.27804 0.79928 0.0
H392 H 0.60412 0.454 0.8163 0.0
H393 H 0.51612 0.22523 0.83445 0.0
H394 H 0.6159 0.34367 0.80611 0.0
H395 H 0.51683 0.33725 0.84999 0.0
C396 C 0.53299 0.39891 0.8461 0.0
C397 C 0.55706 0.43228 0.83654 0.0
C398 C 0.59407 0.31764 0.81231 0.0
C399 C 0.56351 0.35995 0.8294 0.0
C400 C 0.59474 0.28016 0.80829 0.0
C401 C 0.56707 0.24615 0.81643 0.0
C402 C 0.56551 0.32099 0.82453 0.0
C403 C 0.53851 0.25072 0.82815 0.0
C404 C 0.53616 0.3628 0.84262 0.0
C405 C 0.58506 0.42887 0.82399 0.0
N406 N 0.53859 0.28737 0.83188 0.0
N407 N 0.58738 0.39317 0.82066 0.0
H408 H 0.52744 0.93315 0.49278 0.0
H409 H 0.59223 0.79334 0.55091 0.0
H410 H 0.61341 0.97833 0.54139 0.0
H411 H 0.49738 0.74505 0.50639 0.0
H412 H 0.59957 0.86121 0.54776 0.0
H413 H 0.51523 0.86386 0.49744 0.0
C414 C 0.54333 0.92841 0.50457 0.0
C415 C 0.5711 0.96138 0.51686 0.0
C416 C 0.57703 0.83577 0.53872 0.0
C417 C 0.55811 0.88257 0.52203 0.0
C418 C 0.57261 0.79687 0.54062 0.0
C419 C 0.54418 0.76324 0.52888 0.0
C420 C 0.55296 0.84133 0.52492 0.0
C421 C 0.52015 0.77004 0.51554 0.0
C422 C 0.53661 0.88894 0.50715 0.0
C423 C 0.59175 0.95373 0.53157 0.0
N424 N 0.52517 0.80825 0.51388 0.0
N425 N 0.5849 0.9152 0.53372 0.0
H426 H 0.75257 0.58961 0.86625 0.0
H427 H 0.89949 0.51361 0.81323 0.0
H428 H 0.72203 0.51135 0.81158 0.0
H429 H 0.92596 0.58874 0.8687 0.0
H430 H 0.837 0.51817 0.8102 0.0
H431 H 0.81877 0.59428 0.86572 0.0
C432 C 0.75992 0.57331 0.85416 0.0
C433 C 0.73209 0.5498 0.83902 0.0
C434 C 0.85672 0.53397 0.82292 0.0
C435 C 0.8075 0.55507 0.8382 0.0
C436 C 0.89231 0.53158 0.82456 0.0
C437 C 0.91725 0.55043 0.84132 0.0
C438 C 0.8465 0.55543 0.83817 0.0
C439 C 0.90698 0.57328 0.8557 0.0
C440 C 0.7977 0.5761 0.85379 0.0
C441 C 0.74288 0.52953 0.82358 0.0
N442 N 0.87215 0.57487 0.85387 0.0
N443 N 0.77991 0.53249 0.82359 0.0
H444 H 0.14083 0.68436 0.16917 0.0
H445 H 0.37543 0.80825 0.18776 0.0
H446 H 0.21902 0.62828 0.17149 0.0
H447 H 0.29586 0.86322 0.19415 0.0
H448 H 0.31939 0.74326 0.177 0.0
H449 H 0.19805 0.75104 0.17403 0.0
C450 C 0.17011 0.68615 0.17053 0.0
C451 C 0.17532 0.65091 0.17003 0.0
C452 C 0.31422 0.76961 0.18064 0.0
C453 C 0.24081 0.72687 0.17557 0.0
C454 C 0.34629 0.80686 0.18661 0.0
C455 C 0.34041 0.84132 0.19203 0.0
C456 C 0.2759 0.76666 0.18003 0.0
C457 C 0.30178 0.83738 0.19045 0.0
C458 C 0.20274 0.72416 0.17334 0.0
C459 C 0.21379 0.6548 0.17188 0.0
N460 N 0.27102 0.80074 0.18472 0.0
N461 N 0.24507 0.6921 0.17463 0.0
H462 H 0.56469 0.15035 0.5368 0.0
H463 H 0.48808 0.30769 0.50664 0.0
H464 H 0.47148 0.12003 0.49295 0.0
H465 H 0.5734 0.33534 0.55437 0.0
H466 H 0.48357 0.23976 0.50065 0.0
H467 H 0.57084 0.21916 0.54238 0.0
C468 C 0.54575 0.15832 0.52822 0.0
C469 C 0.51761 0.12955 0.51434 0.0
C470 C 0.50325 0.26058 0.51246 0.0
C471 C 0.52407 0.20809 0.52083 0.0
C472 C 0.50596 0.29948 0.51586 0.0
C473 C 0.53133 0.32739 0.53099 0.0
C474 C 0.52614 0.24927 0.52423 0.0
C475 C 0.55326 0.31475 0.54265 0.0
C476 C 0.54908 0.19754 0.53151 0.0
C477 C 0.4935 0.14132 0.50381 0.0
N478 N 0.5503 0.27668 0.53898 0.0
N479 N 0.49726 0.17968 0.50728 0.0
H480 H 0.39872 0.4826 0.81444 0.0
H481 H 0.30255 0.62328 0.85496 0.0
H482 H 0.46253 0.60696 0.83964 0.0
H483 H 0.23689 0.49594 0.8354 0.0
H484 H 0.35989 0.62331 0.83855 0.0
H485 H 0.33883 0.4921 0.81198 0.0
C486 C 0.4001 0.512 0.81919 0.0
C487 C 0.43487 0.54374 0.8278 0.0
C488 C 0.33267 0.59554 0.83743 0.0
C489 C 0.36738 0.55495 0.82491 0.0
C490 C 0.30008 0.59559 0.84679 0.0
C491 C 0.26564 0.55936 0.84689 0.0
C492 C 0.33082 0.55877 0.82862 0.0
C493 C 0.26329 0.52438 0.83581 0.0
C494 C 0.36613 0.5175 0.81769 0.0
C495 C 0.43577 0.58146 0.83343 0.0
N496 N 0.29592 0.52468 0.82751 0.0
N497 N 0.40226 0.58589 0.83214 0.0
H498 H 0.93885 0.32181 0.18969 0.0
H499 H 0.70668 0.21557 0.16112 0.0
H500 H 0.88426 0.36292 0.14768 0.0
H501 H 0.75822 0.18314 0.20834 0.0
H502 H 0.7722 0.26705 0.1547 0.0
H503 H 0.87365 0.26786 0.19536 0.0
C504 C 0.91317 0.31914 0.18151 0.0
C505 C 0.91681 0.34666 0.16817 0.0
C506 C 0.76922 0.2487 0.16648 0.0
C507 C 0.84234 0.28542 0.17461 0.0
C508 C 0.73179 0.21912 0.17009 0.0
C509 C 0.72684 0.19485 0.18527 0.0
C510 C 0.80215 0.25406 0.17806 0.0
C511 C 0.7605 0.20138 0.19661 0.0
C512 C 0.87598 0.28855 0.18482 0.0
C513 C 0.88267 0.34222 0.15808 0.0
N514 N 0.7967 0.23026 0.19274 0.0
N515 N 0.84689 0.31222 0.16151 0.0
H516 H 0.11205 0.54195 0.1054 0.0
H517 H 0.99254 0.44142 1.00303 0.0
H518 H 1.00471 0.42979 0.09837 0.0
H519 H 0.10251 0.55056 0.00974 0.0
H520 H 0.99934 0.43352 0.03753 0.0
H521 H 0.11232 0.54222 0.06991 0.0
C522 C 0.08866 0.51722 0.09639 0.0
C523 C 0.05798 0.48609 0.10487 0.0
C524 C 0.02214 0.45904 0.03143 0.0
C525 C 0.05809 0.48632 0.06426 0.0
C526 C 1.01811 0.46369 0.0118 0.0
C527 C 0.04679 0.49691 1.00365 0.0
C528 C 0.05493 0.48801 0.04298 0.0
C529 C 0.07978 0.52445 0.01548 0.0
C530 C 0.08888 0.51737 0.07612 0.0
C531 C 0.02875 0.45461 0.09248 0.0
N532 N 0.08279 0.51957 0.03462 0.0
N533 N 0.02932 0.45574 0.07278 0.0
H534 H 0.60144 0.10137 0.45252 0.0
H535 H 0.48894 0.02533 0.34687 0.0
H536 H 0.48435 1.00228 0.44355 0.0
H537 H 0.61419 0.10141 0.35641 0.0
H538 H 0.48425 0.01925 0.38217 0.0
H539 H 0.60387 0.10544 0.41735 0.0
C540 C 0.57608 0.08052 0.44318 0.0
C541 C 0.54261 0.05142 0.45107 0.0
C542 C 0.5127 0.03724 0.37647 0.0
C543 C 0.54529 0.05596 0.41053 0.0
C544 C 0.51547 0.04061 0.35632 0.0
C545 C 0.552 0.06424 0.3486 0.0
C546 C 0.54666 0.05778 0.389 0.0
C547 C 0.58524 0.08365 0.36165 0.0
C548 C 0.57759 0.08276 0.42302 0.0
C549 C 0.51081 0.02512 0.43811 0.0
N550 N 0.58173 0.08009 0.38114 0.0
N551 N 0.51287 0.02808 0.41846 0.0
H552 H 0.64559 0.57307 0.77338 0.0
H553 H 0.51007 0.51011 0.67416 0.0
H554 H 0.51824 0.51676 0.77169 0.0
H555 H 0.63495 0.58993 0.67732 0.0
H556 H 0.51367 0.50507 0.70932 0.0
H557 H 0.64322 0.57342 0.73768 0.0
C558 C 0.61716 0.56066 0.76552 0.0
C559 C 0.58209 0.54503 0.77559 0.0
C560 C 0.54031 0.5236 0.7023 0.0
C561 C 0.57915 0.54498 0.73472 0.0
C562 C 0.53835 0.5262 0.68217 0.0
C563 C 0.57222 0.55063 0.67272 0.0
C564 C 0.57645 0.5454 0.71311 0.0
C565 C 0.60795 0.57118 0.684 0.0
C566 C 0.61582 0.56094 0.74514 0.0
C567 C 0.54607 0.52946 0.76461 0.0
N568 N 0.60911 0.56816 0.70357 0.0
N569 N 0.54555 0.52972 0.74481 0.0
H570 H 0.51638 0.97494 0.57099 0.0
H571 H 0.56436 0.09151 0.67926 0.0
H572 H 0.58205 0.10488 0.58188 0.0
H573 H 0.539 0.96576 0.66622 0.0
H574 H 0.56486 0.09725 0.64392 0.0
H575 H 0.5175 0.97098 0.6063 0.0
C576 C 0.53091 1.00266 0.58083 0.0
C577 C 0.54915 0.04029 0.57353 0.0
C578 C 0.55925 0.06847 0.64888 0.0
C579 C 0.55035 0.03601 0.61395 0.0
C580 C 0.55905 0.06518 0.66902 0.0
C581 C 0.55123 0.02798 0.67578 0.0
C582 C 0.55134 0.03428 0.63542 0.0
C583 C 0.5442 0.9948 0.66178 0.0
C584 C 0.5317 1.00037 0.60098 0.0
C585 C 0.56783 0.07524 0.58693 0.0
N586 N 0.54425 0.9987 0.64232 0.0
N587 N 0.56775 0.07229 0.60655 0.0
H588 H 0.63041 0.52845 0.90117 0.0
H589 H 0.50402 0.50647 0.99725 0.0
H590 H 0.51939 0.53531 0.90225 0.0
H591 H 0.62176 0.5157 0.9981 0.0
H592 H 0.50795 0.514 0.96215 0.0
H593 H 0.62675 0.52112 0.93625 0.0
C594 C 0.60525 0.52849 0.90873 0.0
C595 C 0.57515 0.53254 0.8986 0.0
C596 C 0.53295 0.51436 0.96999 0.0
C597 C 0.57076 0.52397 0.93897 0.0
C598 C 0.53063 0.50982 0.99003 0.0
C599 C 0.56259 0.51042 1.00069 0.0
C600 C 0.56738 0.51919 0.96037 0.0
C601 C 0.59653 0.51544 0.99055 0.0
C602 C 0.60323 0.52432 0.92883 0.0
C603 C 0.54335 0.53233 0.90934 0.0
N604 N 0.59797 0.51947 0.97099 0.0
N605 N 0.54197 0.52803 0.92886 0.0
H606 H 0.08028 0.56686 0.23449 0.0
H607 H 0.9967 0.43786 0.32472 0.0
H608 H 1.0061 0.4379 0.22817 0.0
H609 H 0.03538 0.56699 0.32981 0.0
H610 H 1.0088 0.43829 0.28983 0.0
H611 H 0.0726 0.56835 0.27008 0.0
C612 C 0.06257 0.53888 0.24059 0.0
C613 C 0.0437 0.50221 0.22836 0.0
C614 C 1.0146 0.46654 0.29857 0.0
C615 C 0.03512 0.50369 0.26889 0.0
C616 C 1.00751 0.46631 0.3185 0.0
C617 C 1.01448 0.50236 0.33022 0.0
C618 C 0.0291 0.50311 0.29022 0.0
C619 C 0.02972 0.5385 0.32138 0.0
C620 C 0.0581 0.53979 0.26085 0.0
C621 C 0.02096 0.46689 0.23701 0.0
N622 N 0.03643 0.53795 0.30188 0.0
N623 N 1.01744 0.4685 0.25673 0.0
loop_
_geom_bond_atom_site_label_1
_geom_bond_atom_site_label_2
_geom_bond_distance
_geom_bond_site_symmetry_2
_ccdc_geom_bond_type
Tb0 O3 2.453 1_455 S
Tb0 O4 2.596 1_455 S
Tb0 O5 2.374 . S
Tb0 O13 2.343 . S
Tb0 O15 2.353 . S
Tb0 O17 2.427 . S
Tb0 O18 2.513 . S
C1 O5 1.251 . S
C1 O7 1.263 . S
Tb2 O4 2.343 1_455 S
Tb2 O7 2.353 . S
Tb2 O10 2.427 1_455 S
Tb2 O11 2.513 1_455 S
Tb2 O12 2.453 . S
Tb2 O13 2.596 . S
Tb2 O14 2.374 . S
O3 Tb0 2.453 1_655 S
O3 C19 1.245 . S
O4 Tb0 2.596 1_655 S
O4 Tb2 2.343 1_655 S
O4 C19 1.259 . S
O5 Tb0 2.374 . S
O5 C1 1.251 . S
C6 O10 1.275 . S
C6 O11 1.246 . S
O7 C1 1.263 . S
O7 Tb2 2.353 . S
C8 O12 1.245 . S
C8 O13 1.259 . S
C9 O14 1.250 . S
C9 O15 1.263 . S
O10 Tb2 2.427 1_655 S
O10 C6 1.275 . S
O11 Tb2 2.513 1_655 S
O11 C6 1.246 . S
O12 Tb2 2.453 . S
O12 C8 1.245 . S
O13 Tb0 2.343 . S
O13 Tb2 2.596 . S
O13 C8 1.259 . S
O14 Tb2 2.374 . S
O14 C9 1.250 . S
O15 Tb0 2.353 . S
O15 C9 1.263 . S
C16 O17 1.275 . S
C16 O18 1.246 . S
O17 Tb0 2.427 . S
O17 C16 1.275 . S
O18 Tb0 2.513 . S
O18 C16 1.246 . S
C19 O3 1.245 . S
C19 O4 1.259 . S
Tb20 O23 2.453 . S
Tb20 O24 2.596 . S
Tb20 O25 2.374 . S
Tb20 O33 2.343 1_545 S
Tb20 O35 2.353 . S
Tb20 O37 2.427 1_545 S
Tb20 O38 2.513 1_545 S
C21 O25 1.251 . S
C21 O27 1.263 . S
Tb22 O24 2.343 . S
Tb22 O27 2.353 . S
Tb22 O30 2.427 . S
Tb22 O31 2.513 . S
Tb22 O32 2.453 1_545 S
Tb22 O33 2.596 1_545 S
Tb22 O34 2.374 . S
O23 Tb20 2.453 . S
O23 C39 1.245 . S
O24 Tb20 2.596 . S
O24 Tb22 2.343 . S
O24 C39 1.259 . S
O25 Tb20 2.374 . S
O25 C21 1.251 . S
C26 O30 1.275 . S
C26 O31 1.246 . S
O27 C21 1.263 . S
O27 Tb22 2.353 . S
C28 O32 1.245 . S
C28 O33 1.259 . S
C29 O34 1.250 . S
C29 O35 1.263 . S
O30 Tb22 2.427 . S
O30 C26 1.275 . S
O31 Tb22 2.513 . S
O31 C26 1.246 . S
O32 Tb22 2.453 1_565 S
O32 C28 1.245 . S
O33 Tb20 2.343 1_565 S
O33 Tb22 2.596 1_565 S
O33 C28 1.259 . S
O34 Tb22 2.374 . S
O34 C29 1.250 . S
O35 Tb20 2.353 . S
O35 C29 1.263 . S
C36 O37 1.275 . S
C36 O38 1.246 . S
O37 Tb20 2.427 1_565 S
O37 C36 1.275 . S
O38 Tb20 2.513 1_565 S
O38 C36 1.246 . S
C39 O23 1.245 . S
C39 O24 1.259 . S
Tb40 O43 2.453 . S
Tb40 O44 2.596 . S
Tb40 O45 2.374 . S
Tb40 O53 2.343 . S
Tb40 O55 2.353 . S
Tb40 O57 2.427 . S
Tb40 O58 2.513 . S
C41 O45 1.251 . S
C41 O47 1.263 . S
Tb42 O44 2.343 . S
Tb42 O47 2.353 . S
Tb42 O50 2.427 . S
Tb42 O51 2.513 . S
Tb42 O52 2.453 . S
Tb42 O53 2.596 . S
Tb42 O54 2.374 . S
O43 Tb40 2.453 . S
O43 C59 1.245 . S
O44 Tb40 2.596 . S
O44 Tb42 2.343 . S
O44 C59 1.259 . S
O45 Tb40 2.374 . S
O45 C41 1.251 . S
C46 O50 1.275 . S
C46 O51 1.246 . S
O47 C41 1.263 . S
O47 Tb42 2.353 . S
C48 O52 1.245 . S
C48 O53 1.259 . S
C49 O54 1.250 . S
C49 O55 1.263 . S
O50 Tb42 2.427 . S
O50 C46 1.275 . S
O51 Tb42 2.513 . S
O51 C46 1.246 . S
O52 Tb42 2.453 . S
O52 C48 1.245 . S
O53 Tb40 2.343 . S
O53 Tb42 2.596 . S
O53 C48 1.259 . S
O54 Tb42 2.374 . S
O54 C49 1.250 . S
O55 Tb40 2.353 . S
O55 C49 1.263 . S
C56 O57 1.275 . S
C56 O58 1.246 . S
O57 Tb40 2.427 . S
O57 C56 1.275 . S
O58 Tb40 2.513 . S
O58 C56 1.246 . S
C59 O43 1.245 . S
C59 O44 1.259 . S
C60 C61 1.264 . S
C60 C65 1.479 . S
C60 C70 1.465 . S
C61 C60 1.264 . S
C61 C63 1.339 . S
C61 H88 0.931 . S
C62 C63 1.395 . S
C62 C64 1.320 . S
C63 C61 1.339 . S
C63 C62 1.395 . S
C63 H89 0.929 . S
C64 C62 1.320 . S
C64 C65 1.405 . S
C64 H90 0.930 . S
C65 C60 1.479 . S
C65 C64 1.405 . S
C65 H91 0.931 . S
U66 O67 2.458 . S
U66 O68 2.458 1_545 S
U66 C69 2.984 1_545 S
U66 C70 2.847 . S
U66 C83 2.882 . S
U66 O84 2.441 . S
U66 O85 2.420 . S
U66 O86 2.455 . S
U66 O87 2.449 . S
O67 U66 2.458 . S
O67 C69 1.349 1_545 S
O68 U66 2.458 1_565 S
O68 C69 1.286 . S
C69 U66 2.984 1_565 S
C69 O67 1.349 1_565 S
C69 O68 1.286 . S
C69 C71 1.363 . S
C70 C60 1.465 . S
C70 U66 2.847 . S
C70 O84 1.249 . S
C70 O85 1.202 . S
C71 C69 1.363 . S
C71 C73 1.408 . S
C71 C76 1.342 . S
C72 C73 1.310 . S
C72 C75 1.461 . S
C72 H92 0.932 . S
C73 C71 1.408 . S
C73 C72 1.310 . S
C73 H93 0.930 . S
C74 C75 1.474 . S
C74 C76 1.285 . S
C74 H94 0.929 . S
C75 C72 1.461 . S
C75 C74 1.474 . S
C76 C71 1.342 . S
C76 C74 1.285 . S
C76 H95 0.930 . S
C77 C80 1.424 . S
C77 C82 1.245 . S
C77 C83 1.428 . S
C78 C81 1.260 . S
C78 C82 1.477 . S
C78 H96 0.932 . S
C79 C80 1.384 . S
C79 C81 1.479 . S
C79 H97 0.929 . S
C80 C77 1.424 . S
C80 C79 1.384 . S
C80 H98 0.928 . S
C81 C78 1.260 . S
C81 C79 1.479 . S
C82 C77 1.245 . S
C82 C78 1.477 . S
C82 H99 0.932 . S
C83 U66 2.882 . S
C83 C77 1.428 . S
C83 O86 1.301 . S
C83 O87 1.282 . S
O84 U66 2.441 . S
O84 C70 1.249 . S
O85 U66 2.420 . S
O85 C70 1.202 . S
O86 U66 2.455 . S
O86 C83 1.301 . S
O87 U66 2.449 . S
O87 C83 1.282 . S
H88 C61 0.931 . S
H89 C63 0.929 . S
H90 C64 0.930 . S
H91 C65 0.931 . S
H92 C72 0.932 . S
H93 C73 0.930 . S
H94 C74 0.929 . S
H95 C76 0.930 . S
H96 C78 0.932 . S
H97 C79 0.929 . S
H98 C80 0.928 . S
H99 C82 0.932 . S
C100 C101 1.264 . S
C100 C105 1.479 . S
C100 C110 1.465 . S
C101 C100 1.264 . S
C101 C103 1.339 . S
C101 H128 0.931 . S
C102 C103 1.395 . S
C102 C104 1.320 . S
C103 C101 1.339 . S
C103 C102 1.395 . S
C103 H129 0.929 . S
C104 C102 1.320 . S
C104 C105 1.405 . S
C104 H130 0.930 . S
C105 C100 1.479 . S
C105 C104 1.405 . S
C105 H131 0.931 . S
U106 O107 2.454 . S
U106 O108 2.458 . S
U106 C109 2.984 . S
U106 C110 2.847 . S
U106 C123 2.882 . S
U106 O124 2.441 . S
U106 O125 2.420 . S
U106 O126 2.455 . S
U106 O127 2.449 . S
O107 U106 2.454 . S
O107 C109 1.353 . S
O108 U106 2.458 . S
O108 C109 1.286 . S
C109 U106 2.984 . S
C109 O107 1.353 . S
C109 O108 1.286 . S
C109 C111 1.363 . S
C110 C100 1.465 . S
C110 U106 2.847 . S
C110 O124 1.249 . S
C110 O125 1.202 . S
C111 C109 1.363 . S
C111 C113 1.408 . S
C111 C116 1.342 . S
C112 C113 1.310 . S
C112 C115 1.461 . S
C112 H132 0.932 . S
C113 C111 1.408 . S
C113 C112 1.310 . S
C113 H133 0.930 . S
C114 C115 1.474 . S
C114 C116 1.285 . S
C114 H134 0.929 . S
C115 C112 1.461 . S
C115 C114 1.474 . S
C116 C111 1.342 . S
C116 C114 1.285 . S
C116 H135 0.930 . S
C117 C120 1.424 . S
C117 C122 1.245 . S
C117 C123 1.428 . S
C118 C121 1.260 . S
C118 C122 1.477 . S
C118 H136 0.932 . S
C119 C120 1.384 . S
C119 C121 1.479 . S
C119 H137 0.929 . S
C120 C117 1.424 . S
C120 C119 1.384 . S
C120 H138 0.928 . S
C121 C118 1.260 . S
C121 C119 1.479 . S
C122 C117 1.245 . S
C122 C118 1.477 . S
C122 H139 0.932 . S
C123 U106 2.882 . S
C123 C117 1.428 . S
C123 O126 1.301 . S
C123 O127 1.282 . S
O124 U106 2.441 . S
O124 C110 1.249 . S
O125 U106 2.420 . S
O125 C110 1.202 . S
O126 U106 2.455 . S
O126 C123 1.301 . S
O127 U106 2.449 . S
O127 C123 1.282 . S
H128 C101 0.931 . S
H129 C103 0.929 . S
H130 C104 0.930 . S
H131 C105 0.931 . S
H132 C112 0.932 . S
H133 C113 0.930 . S
H134 C114 0.929 . S
H135 C116 0.930 . S
H136 C118 0.932 . S
H137 C119 0.929 . S
H138 C120 0.928 . S
H139 C122 0.932 . S
C140 C141 1.264 . S
C140 C145 1.479 . S
C140 C150 1.447 1_655 S
C141 C140 1.264 . S
C141 C143 1.339 . S
C141 H168 0.931 . S
C142 C143 1.395 . S
C142 C144 1.320 . S
C143 C141 1.339 . S
C143 C142 1.395 . S
C143 H169 0.929 . S
C144 C142 1.320 . S
C144 C145 1.405 . S
C144 H170 0.930 . S
C145 C140 1.479 . S
C145 C144 1.405 . S
C145 H171 0.931 . S
U146 O147 2.454 . S
U146 O148 2.458 . S
U146 C149 2.984 . S
U146 C150 2.864 . S
U146 C163 2.882 . S
U146 O164 2.441 . S
U146 O165 2.420 1_455 S
U146 O166 2.455 . S
U146 O167 2.449 . S
O147 U146 2.454 . S
O147 C149 1.353 . S
O148 U146 2.458 . S
O148 C149 1.286 . S
C149 U146 2.984 . S
C149 O147 1.353 . S
C149 O148 1.286 . S
C149 C151 1.363 . S
C150 C140 1.447 1_455 S
C150 U146 2.864 . S
C150 O164 1.267 . S
C150 O165 1.203 1_455 S
C151 C149 1.363 . S
C151 C153 1.408 . S
C151 C156 1.342 . S
C152 C153 1.310 . S
C152 C155 1.461 . S
C152 H172 0.932 . S
C153 C151 1.408 . S
C153 C152 1.310 . S
C153 H173 0.930 . S
C154 C155 1.474 . S
C154 C156 1.285 . S
C154 H174 0.929 . S
C155 C152 1.461 . S
C155 C154 1.474 . S
C156 C151 1.342 . S
C156 C154 1.285 . S
C156 H175 0.930 . S
C157 C160 1.424 . S
C157 C162 1.245 . S
C157 C163 1.428 . S
C158 C161 1.260 . S
C158 C162 1.477 . S
C158 H176 0.932 . S
C159 C160 1.384 . S
C159 C161 1.479 . S
C159 H177 0.929 . S
C160 C157 1.424 . S
C160 C159 1.384 . S
C160 H178 0.928 . S
C161 C158 1.260 . S
C161 C159 1.479 . S
C162 C157 1.245 . S
C162 C158 1.477 . S
C162 H179 0.932 . S
C163 U146 2.882 . S
C163 C157 1.428 . S
C163 O166 1.301 . S
C163 O167 1.282 . S
O164 U146 2.441 . S
O164 C150 1.267 . S
O165 U146 2.420 1_655 S
O165 C150 1.203 1_655 S
O166 U146 2.455 . S
O166 C163 1.301 . S
O167 U146 2.449 . S
O167 C163 1.282 . S
H168 C141 0.931 . S
H169 C143 0.929 . S
H170 C144 0.930 . S
H171 C145 0.931 . S
H172 C152 0.932 . S
H173 C153 0.930 . S
H174 C154 0.929 . S
H175 C156 0.930 . S
H176 C158 0.932 . S
H177 C159 0.929 . S
H178 C160 0.928 . S
H179 C162 0.932 . S
C180 C181 1.264 . S
C180 C185 1.479 . S
C180 C190 1.465 . S
C181 C180 1.264 . S
C181 C183 1.339 . S
C181 H208 0.931 . S
C182 C183 1.395 . S
C182 C184 1.320 . S
C183 C181 1.339 . S
C183 C182 1.395 . S
C183 H209 0.929 . S
C184 C182 1.320 . S
C184 C185 1.405 . S
C184 H210 0.930 . S
C185 C180 1.479 . S
C185 C184 1.405 . S
C185 H211 0.931 . S
U186 O187 2.454 1_655 S
U186 O188 2.458 1_655 S
U186 C189 2.984 1_655 S
U186 C190 2.847 . S
U186 C203 2.882 . S
U186 O204 2.441 . S
U186 O205 2.420 . S
U186 O206 2.455 1_655 S
U186 O207 2.449 . S
O187 U186 2.454 1_455 S
O187 C189 1.353 . S
O188 U186 2.458 1_455 S
O188 C189 1.286 . S
C189 U186 2.984 1_455 S
C189 O187 1.353 . S
C189 O188 1.286 . S
C189 C191 1.363 . S
C190 C180 1.465 . S
C190 U186 2.847 . S
C190 O204 1.249 . S
C190 O205 1.202 . S
C191 C189 1.363 . S
C191 C193 1.408 . S
C191 C196 1.342 . S
C192 C193 1.310 . S
C192 C195 1.461 . S
C192 H212 0.932 . S
C193 C191 1.408 . S
C193 C192 1.310 . S
C193 H213 0.930 . S
C194 C195 1.474 . S
C194 C196 1.285 . S
C194 H214 0.929 . S
C195 C192 1.461 . S
C195 C194 1.474 . S
C196 C191 1.342 . S
C196 C194 1.285 . S
C196 H215 0.930 . S
C197 C200 1.424 . S
C197 C202 1.245 1_655 S
C197 C203 1.428 . S
C198 C201 1.260 1_455 S
C198 C202 1.477 . S
C198 H216 0.932 . S
C199 C200 1.384 . S
C199 C201 1.479 . S
C199 H217 0.929 . S
C200 C197 1.424 . S
C200 C199 1.384 . S
C200 H218 0.928 . S
C201 C198 1.260 1_655 S
C201 C199 1.479 . S
C202 C197 1.245 1_455 S
C202 C198 1.477 . S
C202 H219 0.932 . S
C203 U186 2.882 . S
C203 C197 1.428 . S
C203 O206 1.301 1_655 S
C203 O207 1.282 . S
O204 U186 2.441 . S
O204 C190 1.249 . S
O205 U186 2.420 . S
O205 C190 1.202 . S
O206 U186 2.455 1_455 S
O206 C203 1.301 1_455 S
O207 U186 2.449 . S
O207 C203 1.282 . S
H208 C181 0.931 . S
H209 C183 0.929 . S
H210 C184 0.930 . S
H211 C185 0.931 . S
H212 C192 0.932 . S
H213 C193 0.930 . S
H214 C194 0.929 . S
H215 C196 0.930 . S
H216 C198 0.932 . S
H217 C199 0.929 . S
H218 C200 0.928 . S
H219 C202 0.932 . S
C220 C221 1.264 . S
C220 C225 1.479 . S
C220 C230 1.465 . S
C221 C220 1.264 . S
C221 C223 1.339 . S
C221 H248 0.931 . S
C222 C223 1.395 . S
C222 C224 1.320 . S
C223 C221 1.339 . S
C223 C222 1.395 . S
C223 H249 0.929 . S
C224 C222 1.320 . S
C224 C225 1.405 . S
C224 H250 0.930 . S
C225 C220 1.479 . S
C225 C224 1.405 . S
C225 H251 0.931 . S
U226 O227 2.454 . S
U226 O228 2.458 . S
U226 C229 2.984 . S
U226 C230 2.847 1_545 S
U226 C243 2.882 . S
U226 O244 2.441 1_545 S
U226 O245 2.420 1_545 S
U226 O246 2.455 . S
U226 O247 2.449 1_545 S
O227 U226 2.454 . S
O227 C229 1.353 . S
O228 U226 2.458 . S
O228 C229 1.286 . S
C229 U226 2.984 . S
C229 O227 1.353 . S
C229 O228 1.286 . S
C229 C231 1.363 . S
C230 C220 1.465 . S
C230 U226 2.847 1_565 S
C230 O244 1.249 . S
C230 O245 1.202 . S
C231 C229 1.363 . S
C231 C233 1.408 . S
C231 C236 1.342 . S
C232 C233 1.310 . S
C232 C235 1.461 . S
C232 H252 0.932 . S
C233 C231 1.408 . S
C233 C232 1.310 . S
C233 H253 0.930 . S
C234 C235 1.474 . S
C234 C236 1.285 . S
C234 H254 0.929 . S
C235 C232 1.461 . S
C235 C234 1.474 . S
C236 C231 1.342 . S
C236 C234 1.285 . S
C236 H255 0.930 . S
C237 C240 1.424 1_545 S
C237 C242 1.245 . S
C237 C243 1.428 . S
C238 C241 1.260 . S
C238 C242 1.477 . S
C238 H256 0.932 . S
C239 C240 1.384 . S
C239 C241 1.479 1_565 S
C239 H257 0.929 . S
C240 C237 1.424 1_565 S
C240 C239 1.384 . S
C240 H258 0.928 . S
C241 C238 1.260 . S
C241 C239 1.479 1_545 S
C242 C237 1.245 . S
C242 C238 1.477 . S
C242 H259 0.932 . S
C243 U226 2.882 . S
C243 C237 1.428 . S
C243 O246 1.301 . S
C243 O247 1.282 1_545 S
O244 U226 2.441 1_565 S
O244 C230 1.249 . S
O245 U226 2.420 1_565 S
O245 C230 1.202 . S
O246 U226 2.455 . S
O246 C243 1.301 . S
O247 U226 2.449 1_565 S
O247 C243 1.282 1_565 S
H248 C221 0.931 . S
H249 C223 0.929 . S
H250 C224 0.930 . S
H251 C225 0.931 . S
H252 C232 0.932 . S
H253 C233 0.930 . S
H254 C234 0.929 . S
H255 C236 0.930 . S
H256 C238 0.932 . S
H257 C239 0.929 . S
H258 C240 0.928 . S
H259 C242 0.932 . S
C260 C261 1.264 . S
C260 C265 1.479 . S
C260 C270 1.465 . S
C261 C260 1.264 . S
C261 C263 1.339 . S
C261 H288 0.931 . S
C262 C263 1.395 . S
C262 C264 1.320 . S
C263 C261 1.339 . S
C263 C262 1.395 . S
C263 H289 0.929 . S
C264 C262 1.320 . S
C264 C265 1.405 . S
C264 H290 0.930 . S
C265 C260 1.479 . S
C265 C264 1.405 . S
C265 H291 0.931 . S
U266 O267 2.454 . S
U266 O268 2.458 . S
U266 C269 2.984 . S
U266 C270 2.847 . S
U266 C283 2.882 . S
U266 O284 2.441 . S
U266 O285 2.420 . S
U266 O286 2.455 . S
U266 O287 2.449 . S
O267 U266 2.454 . S
O267 C269 1.353 . S
O268 U266 2.458 . S
O268 C269 1.286 . S
C269 U266 2.984 . S
C269 O267 1.353 . S
C269 O268 1.286 . S
C269 C271 1.363 . S
C270 C260 1.465 . S
C270 U266 2.847 . S
C270 O284 1.249 . S
C270 O285 1.202 . S
C271 C269 1.363 . S
C271 C273 1.408 . S
C271 C276 1.342 . S
C272 C273 1.310 . S
C272 C275 1.461 . S
C272 H292 0.932 . S
C273 C271 1.408 . S
C273 C272 1.310 . S
C273 H293 0.930 . S
C274 C275 1.474 . S
C274 C276 1.285 . S
C274 H294 0.929 . S
C275 C272 1.461 . S
C275 C274 1.474 . S
C276 C271 1.342 . S
C276 C274 1.285 . S
C276 H295 0.930 . S
C277 C280 1.424 . S
C277 C282 1.245 . S
C277 C283 1.428 . S
C278 C281 1.260 . S
C278 C282 1.477 . S
C278 H296 0.932 . S
C279 C280 1.384 . S
C279 C281 1.479 . S
C279 H297 0.929 . S
C280 C277 1.424 . S
C280 C279 1.384 . S
C280 H298 0.928 . S
C281 C278 1.260 . S
C281 C279 1.479 . S
C282 C277 1.245 . S
C282 C278 1.477 . S
C282 H299 0.932 . S
C283 U266 2.882 . S
C283 C277 1.428 . S
C283 O286 1.301 . S
C283 O287 1.282 . S
O284 U266 2.441 . S
O284 C270 1.249 . S
O285 U266 2.420 . S
O285 C270 1.202 . S
O286 U266 2.455 . S
O286 C283 1.301 . S
O287 U266 2.449 . S
O287 C283 1.282 . S
H288 C261 0.931 . S
H289 C263 0.929 . S
H290 C264 0.930 . S
H291 C265 0.931 . S
H292 C272 0.932 . S
H293 C273 0.930 . S
H294 C274 0.929 . S
H295 C276 0.930 . S
H296 C278 0.932 . S
H297 C279 0.929 . S
H298 C280 0.928 . S
H299 C282 0.932 . S
H300 C306 0.930 . S
H301 C310 0.930 . S
H302 C315 0.929 . S
H303 C313 0.929 . S
H304 C308 0.929 . S
H305 C314 0.929 . S
C306 H300 0.930 . S
C306 C307 1.367 . S
C306 C314 1.378 . S
C307 C306 1.367 . S
C307 C315 1.433 . S
C308 H304 0.929 . S
C308 C310 1.378 . S
C308 C312 1.350 . S
C309 C312 1.463 . S
C309 C314 1.350 . S
C309 N317 1.427 . S
C310 H301 0.930 . S
C310 C308 1.378 . S
C310 C311 1.367 . S
C311 C310 1.367 . S
C311 C313 1.433 . S
C312 C308 1.350 . S
C312 C309 1.463 . S
C312 N316 1.427 . S
C313 H303 0.929 . S
C313 C311 1.433 . S
C313 N316 1.384 . S
C314 H305 0.929 . S
C314 C306 1.378 . S
C314 C309 1.350 . S
C315 H302 0.929 . S
C315 C307 1.433 . S
C315 N317 1.384 . S
N316 C312 1.427 . S
N316 C313 1.384 . S
N317 C309 1.427 . S
N317 C315 1.384 . S
H318 C324 0.930 . S
H319 C328 0.930 . S
H320 C333 0.929 . S
H321 C331 0.929 . S
H322 C326 0.929 . S
H323 C332 0.929 . S
C324 H318 0.930 . S
C324 C325 1.367 . S
C324 C332 1.378 . S
C325 C324 1.367 . S
C325 C333 1.433 . S
C326 H322 0.929 . S
C326 C328 1.378 . S
C326 C330 1.350 . S
C327 C330 1.463 . S
C327 C332 1.350 . S
C327 N335 1.427 . S
C328 H319 0.930 . S
C328 C326 1.378 . S
C328 C329 1.367 . S
C329 C328 1.367 . S
C329 C331 1.433 . S
C330 C326 1.350 . S
C330 C327 1.463 . S
C330 N334 1.427 . S
C331 H321 0.929 . S
C331 C329 1.433 . S
C331 N334 1.384 . S
C332 H323 0.929 . S
C332 C324 1.378 . S
C332 C327 1.350 . S
C333 H320 0.929 . S
C333 C325 1.433 . S
C333 N335 1.384 . S
N334 C330 1.427 . S
N334 C331 1.384 . S
N335 C327 1.427 . S
N335 C333 1.384 . S
H336 C342 0.930 . S
H337 C346 0.930 . S
H338 C351 0.929 . S
H339 C349 0.929 . S
H340 C344 0.929 . S
H341 C350 0.929 . S
C342 H336 0.930 . S
C342 C343 1.367 . S
C342 C350 1.378 . S
C343 C342 1.367 . S
C343 C351 1.433 . S
C344 H340 0.929 . S
C344 C346 1.378 . S
C344 C348 1.350 . S
C345 C348 1.463 . S
C345 C350 1.350 . S
C345 N353 1.427 . S
C346 H337 0.930 . S
C346 C344 1.378 . S
C346 C347 1.367 . S
C347 C346 1.367 . S
C347 C349 1.433 . S
C348 C344 1.350 . S
C348 C345 1.463 . S
C348 N352 1.427 . S
C349 H339 0.929 . S
C349 C347 1.433 . S
C349 N352 1.384 . S
C350 H341 0.929 . S
C350 C342 1.378 . S
C350 C345 1.350 . S
C351 H338 0.929 . S
C351 C343 1.433 . S
C351 N353 1.384 . S
N352 C348 1.427 . S
N352 C349 1.384 . S
N353 C345 1.427 . S
N353 C351 1.384 . S
H354 C360 0.930 . S
H355 C364 0.930 . S
H356 C369 0.929 . S
H357 C367 0.929 . S
H358 C362 0.929 . S
H359 C368 0.929 . S
C360 H354 0.930 . S
C360 C361 1.367 . S
C360 C368 1.378 . S
C361 C360 1.367 . S
C361 C369 1.433 . S
C362 H358 0.929 . S
C362 C364 1.378 . S
C362 C366 1.350 . S
C363 C366 1.463 . S
C363 C368 1.350 . S
C363 N371 1.427 . S
C364 H355 0.930 . S
C364 C362 1.378 . S
C364 C365 1.367 . S
C365 C364 1.367 . S
C365 C367 1.433 . S
C366 C362 1.350 . S
C366 C363 1.463 . S
C366 N370 1.427 . S
C367 H357 0.929 . S
C367 C365 1.433 . S
C367 N370 1.384 . S
C368 H359 0.929 . S
C368 C360 1.378 . S
C368 C363 1.350 . S
C369 H356 0.929 . S
C369 C361 1.433 . S
C369 N371 1.384 . S
N370 C366 1.427 . S
N370 C367 1.384 . S
N371 C363 1.427 . S
N371 C369 1.384 . S
H372 C378 0.930 . S
H373 C382 0.930 . S
H374 C387 0.929 . S
H375 C385 0.929 . S
H376 C380 0.929 . S
H377 C386 0.929 . S
C378 H372 0.930 . S
C378 C379 1.367 . S
C378 C386 1.378 . S
C379 C378 1.367 . S
C379 C387 1.433 . S
C380 H376 0.929 . S
C380 C382 1.378 . S
C380 C384 1.350 . S
C381 C384 1.463 . S
C381 C386 1.350 . S
C381 N389 1.427 . S
C382 H373 0.930 . S
C382 C380 1.378 . S
C382 C383 1.367 . S
C383 C382 1.367 . S
C383 C385 1.433 . S
C384 C380 1.350 . S
C384 C381 1.463 . S
C384 N388 1.427 . S
C385 H375 0.929 . S
C385 C383 1.433 . S
C385 N388 1.384 . S
C386 H377 0.929 . S
C386 C378 1.378 . S
C386 C381 1.350 . S
C387 H374 0.929 . S
C387 C379 1.433 . S
C387 N389 1.384 . S
N388 C384 1.427 . S
N388 C385 1.384 . S
N389 C381 1.427 . S
N389 C387 1.384 . S
H390 C396 0.930 . S
H391 C400 0.930 . S
H392 C405 0.929 . S
H393 C403 0.929 . S
H394 C398 0.929 . S
H395 C404 0.929 . S
C396 H390 0.930 . S
C396 C397 1.367 . S
C396 C404 1.378 . S
C397 C396 1.367 . S
C397 C405 1.433 . S
C398 H394 0.929 . S
C398 C400 1.378 . S
C398 C402 1.350 . S
C399 C402 1.463 . S
C399 C404 1.350 . S
C399 N407 1.427 . S
C400 H391 0.930 . S
C400 C398 1.378 . S
C400 C401 1.367 . S
C401 C400 1.367 . S
C401 C403 1.433 . S
C402 C398 1.350 . S
C402 C399 1.463 . S
C402 N406 1.427 . S
C403 H393 0.929 . S
C403 C401 1.433 . S
C403 N406 1.384 . S
C404 H395 0.929 . S
C404 C396 1.378 . S
C404 C399 1.350 . S
C405 H392 0.929 . S
C405 C397 1.433 . S
C405 N407 1.384 . S
N406 C402 1.427 . S
N406 C403 1.384 . S
N407 C399 1.427 . S
N407 C405 1.384 . S
H408 C414 0.930 . S
H409 C418 0.930 . S
H410 C423 0.929 . S
H411 C421 0.929 . S
H412 C416 0.929 . S
H413 C422 0.929 . S
C414 H408 0.930 . S
C414 C415 1.367 . S
C414 C422 1.378 . S
C415 C414 1.367 . S
C415 C423 1.433 . S
C416 H412 0.929 . S
C416 C418 1.378 . S
C416 C420 1.350 . S
C417 C420 1.463 . S
C417 C422 1.350 . S
C417 N425 1.427 . S
C418 H409 0.930 . S
C418 C416 1.378 . S
C418 C419 1.367 . S
C419 C418 1.367 . S
C419 C421 1.433 . S
C420 C416 1.350 . S
C420 C417 1.463 . S
C420 N424 1.427 . S
C421 H411 0.929 . S
C421 C419 1.433 . S
C421 N424 1.384 . S
C422 H413 0.929 . S
C422 C414 1.378 . S
C422 C417 1.350 . S
C423 H410 0.929 . S
C423 C415 1.433 . S
C423 N425 1.384 . S
N424 C420 1.427 . S
N424 C421 1.384 . S
N425 C417 1.427 . S
N425 C423 1.384 . S
H426 C432 0.930 . S
H427 C436 0.930 . S
H428 C441 0.929 . S
H429 C439 0.929 . S
H430 C434 0.929 . S
H431 C440 0.929 . S
C432 H426 0.930 . S
C432 C433 1.367 . S
C432 C440 1.378 . S
C433 C432 1.367 . S
C433 C441 1.433 . S
C434 H430 0.929 . S
C434 C436 1.378 . S
C434 C438 1.350 . S
C435 C438 1.463 . S
C435 C440 1.350 . S
C435 N443 1.427 . S
C436 H427 0.930 . S
C436 C434 1.378 . S
C436 C437 1.367 . S
C437 C436 1.367 . S
C437 C439 1.433 . S
C438 C434 1.350 . S
C438 C435 1.463 . S
C438 N442 1.427 . S
C439 H429 0.929 . S
C439 C437 1.433 . S
C439 N442 1.384 . S
C440 H431 0.929 . S
C440 C432 1.378 . S
C440 C435 1.350 . S
C441 H428 0.929 . S
C441 C433 1.433 . S
C441 N443 1.384 . S
N442 C438 1.427 . S
N442 C439 1.384 . S
N443 C435 1.427 . S
N443 C441 1.384 . S
H444 C450 0.930 . S
H445 C454 0.930 . S
H446 C459 0.929 . S
H447 C457 0.929 . S
H448 C452 0.929 . S
H449 C458 0.929 . S
C450 H444 0.930 . S
C450 C451 1.367 . S
C450 C458 1.378 . S
C451 C450 1.367 . S
C451 C459 1.433 . S
C452 H448 0.929 . S
C452 C454 1.378 . S
C452 C456 1.350 . S
C453 C456 1.463 . S
C453 C458 1.350 . S
C453 N461 1.427 . S
C454 H445 0.930 . S
C454 C452 1.378 . S
C454 C455 1.367 . S
C455 C454 1.367 . S
C455 C457 1.433 . S
C456 C452 1.350 . S
C456 C453 1.463 . S
C456 N460 1.427 . S
C457 H447 0.929 . S
C457 C455 1.433 . S
C457 N460 1.384 . S
C458 H449 0.929 . S
C458 C450 1.378 . S
C458 C453 1.350 . S
C459 H446 0.929 . S
C459 C451 1.433 . S
C459 N461 1.384 . S
N460 C456 1.427 . S
N460 C457 1.384 . S
N461 C453 1.427 . S
N461 C459 1.384 . S
H462 C468 0.930 . S
H463 C472 0.930 . S
H464 C477 0.929 . S
H465 C475 0.929 . S
H466 C470 0.929 . S
H467 C476 0.929 . S
C468 H462 0.930 . S
C468 C469 1.367 . S
C468 C476 1.378 . S
C469 C468 1.367 . S
C469 C477 1.433 . S
C470 H466 0.929 . S
C470 C472 1.378 . S
C470 C474 1.350 . S
C471 C474 1.463 . S
C471 C476 1.350 . S
C471 N479 1.427 . S
C472 H463 0.930 . S
C472 C470 1.378 . S
C472 C473 1.367 . S
C473 C472 1.367 . S
C473 C475 1.433 . S
C474 C470 1.350 . S
C474 C471 1.463 . S
C474 N478 1.427 . S
C475 H465 0.929 . S
C475 C473 1.433 . S
C475 N478 1.384 . S
C476 H467 0.929 . S
C476 C468 1.378 . S
C476 C471 1.350 . S
C477 H464 0.929 . S
C477 C469 1.433 . S
C477 N479 1.384 . S
N478 C474 1.427 . S
N478 C475 1.384 . S
N479 C471 1.427 . S
N479 C477 1.384 . S
H480 C486 0.930 . S
H481 C490 0.930 . S
H482 C495 0.929 . S
H483 C493 0.929 . S
H484 C488 0.929 . S
H485 C494 0.929 . S
C486 H480 0.930 . S
C486 C487 1.367 . S
C486 C494 1.378 . S
C487 C486 1.367 . S
C487 C495 1.433 . S
C488 H484 0.929 . S
C488 C490 1.378 . S
C488 C492 1.350 . S
C489 C492 1.463 . S
C489 C494 1.350 . S
C489 N497 1.427 . S
C490 H481 0.930 . S
C490 C488 1.378 . S
C490 C491 1.367 . S
C491 C490 1.367 . S
C491 C493 1.433 . S
C492 C488 1.350 . S
C492 C489 1.463 . S
C492 N496 1.427 . S
C493 H483 0.929 . S
C493 C491 1.433 . S
C493 N496 1.384 . S
C494 H485 0.929 . S
C494 C486 1.378 . S
C494 C489 1.350 . S
C495 H482 0.929 . S
C495 C487 1.433 . S
C495 N497 1.384 . S
N496 C492 1.427 . S
N496 C493 1.384 . S
N497 C489 1.427 . S
N497 C495 1.384 . S
H498 C504 0.930 . S
H499 C508 0.930 . S
H500 C513 0.929 . S
H501 C511 0.929 . S
H502 C506 0.929 . S
H503 C512 0.929 . S
C504 H498 0.930 . S
C504 C505 1.367 . S
C504 C512 1.378 . S
C505 C504 1.367 . S
C505 C513 1.433 . S
C506 H502 0.929 . S
C506 C508 1.378 . S
C506 C510 1.350 . S
C507 C510 1.463 . S
C507 C512 1.350 . S
C507 N515 1.427 . S
C508 H499 0.930 . S
C508 C506 1.378 . S
C508 C509 1.367 . S
C509 C508 1.367 . S
C509 C511 1.433 . S
C510 C506 1.350 . S
C510 C507 1.463 . S
C510 N514 1.427 . S
C511 H501 0.929 . S
C511 C509 1.433 . S
C511 N514 1.384 . S
C512 H503 0.929 . S
C512 C504 1.378 . S
C512 C507 1.350 . S
C513 H500 0.929 . S
C513 C505 1.433 . S
C513 N515 1.384 . S
N514 C510 1.427 . S
N514 C511 1.384 . S
N515 C507 1.427 . S
N515 C513 1.384 . S
H516 C522 0.930 . S
H517 C526 0.930 . S
H518 C531 0.929 1_655 S
H519 C529 0.929 . S
H520 C524 0.929 . S
H521 C530 0.929 . S
C522 H516 0.930 . S
C522 C523 1.367 . S
C522 C530 1.378 . S
C523 C522 1.367 . S
C523 C531 1.433 . S
C524 H520 0.929 . S
C524 C526 1.378 . S
C524 C528 1.350 . S
C525 C528 1.463 . S
C525 C530 1.350 . S
C525 N533 1.427 . S
C526 H517 0.930 . S
C526 C524 1.378 . S
C526 C527 1.367 . S
C527 C526 1.367 . S
C527 C529 1.433 . S
C528 C524 1.350 . S
C528 C525 1.463 . S
C528 N532 1.427 . S
C529 H519 0.929 . S
C529 C527 1.433 . S
C529 N532 1.384 . S
C530 H521 0.929 . S
C530 C522 1.378 . S
C530 C525 1.350 . S
C531 H518 0.929 1_455 S
C531 C523 1.433 . S
C531 N533 1.384 . S
N532 C528 1.427 . S
N532 C529 1.384 . S
N533 C525 1.427 . S
N533 C531 1.384 . S
H534 C540 0.930 . S
H535 C544 0.930 . S
H536 C549 0.929 . S
H537 C547 0.929 . S
H538 C542 0.929 . S
H539 C548 0.929 . S
C540 H534 0.930 . S
C540 C541 1.367 . S
C540 C548 1.378 . S
C541 C540 1.367 . S
C541 C549 1.433 . S
C542 H538 0.929 . S
C542 C544 1.378 . S
C542 C546 1.350 . S
C543 C546 1.463 . S
C543 C548 1.350 . S
C543 N551 1.427 . S
C544 H535 0.930 . S
C544 C542 1.378 . S
C544 C545 1.367 . S
C545 C544 1.367 . S
C545 C547 1.433 . S
C546 C542 1.350 . S
C546 C543 1.463 . S
C546 N550 1.427 . S
C547 H537 0.929 . S
C547 C545 1.433 . S
C547 N550 1.384 . S
C548 H539 0.929 . S
C548 C540 1.378 . S
C548 C543 1.350 . S
C549 H536 0.929 . S
C549 C541 1.433 . S
C549 N551 1.384 . S
N550 C546 1.427 . S
N550 C547 1.384 . S
N551 C543 1.427 . S
N551 C549 1.384 . S
H552 C558 0.930 . S
H553 C562 0.930 . S
H554 C567 0.929 . S
H555 C565 0.929 . S
H556 C560 0.929 . S
H557 C566 0.929 . S
C558 H552 0.930 . S
C558 C559 1.367 . S
C558 C566 1.378 . S
C559 C558 1.367 . S
C559 C567 1.433 . S
C560 H556 0.929 . S
C560 C562 1.378 . S
C560 C564 1.350 . S
C561 C564 1.463 . S
C561 C566 1.350 . S
C561 N569 1.427 . S
C562 H553 0.930 . S
C562 C560 1.378 . S
C562 C563 1.367 . S
C563 C562 1.367 . S
C563 C565 1.433 . S
C564 C560 1.350 . S
C564 C561 1.463 . S
C564 N568 1.427 . S
C565 H555 0.929 . S
C565 C563 1.433 . S
C565 N568 1.384 . S
C566 H557 0.929 . S
C566 C558 1.378 . S
C566 C561 1.350 . S
C567 H554 0.929 . S
C567 C559 1.433 . S
C567 N569 1.384 . S
N568 C564 1.427 . S
N568 C565 1.384 . S
N569 C561 1.427 . S
N569 C567 1.384 . S
H570 C576 0.930 . S
H571 C580 0.930 . S
H572 C585 0.929 . S
H573 C583 0.929 . S
H574 C578 0.929 . S
H575 C584 0.929 . S
C576 H570 0.930 . S
C576 C577 1.367 1_565 S
C576 C584 1.378 . S
C577 C576 1.367 1_545 S
C577 C585 1.433 . S
C578 H574 0.929 . S
C578 C580 1.378 . S
C578 C582 1.350 . S
C579 C582 1.463 . S
C579 C584 1.350 1_545 S
C579 N587 1.427 . S
C580 H571 0.930 . S
C580 C578 1.378 . S
C580 C581 1.367 . S
C581 C580 1.367 . S
C581 C583 1.433 1_545 S
C582 C578 1.350 . S
C582 C579 1.463 . S
C582 N586 1.427 1_545 S
C583 H573 0.929 . S
C583 C581 1.433 1_565 S
C583 N586 1.384 . S
C584 H575 0.929 . S
C584 C576 1.378 . S
C584 C579 1.350 1_565 S
C585 H572 0.929 . S
C585 C577 1.433 . S
C585 N587 1.384 . S
N586 C582 1.427 1_565 S
N586 C583 1.384 . S
N587 C579 1.427 . S
N587 C585 1.384 . S
H588 C594 0.930 . S
H589 C598 0.930 . S
H590 C603 0.929 . S
H591 C601 0.929 . S
H592 C596 0.929 . S
H593 C602 0.929 . S
C594 H588 0.930 . S
C594 C595 1.367 . S
C594 C602 1.378 . S
C595 C594 1.367 . S
C595 C603 1.433 . S
C596 H592 0.929 . S
C596 C598 1.378 . S
C596 C600 1.350 . S
C597 C600 1.463 . S
C597 C602 1.350 . S
C597 N605 1.427 . S
C598 H589 0.930 . S
C598 C596 1.378 . S
C598 C599 1.367 . S
C599 C598 1.367 . S
C599 C601 1.433 . S
C600 C596 1.350 . S
C600 C597 1.463 . S
C600 N604 1.427 . S
C601 H591 0.929 . S
C601 C599 1.433 . S
C601 N604 1.384 . S
C602 H593 0.929 . S
C602 C594 1.378 . S
C602 C597 1.350 . S
C603 H590 0.929 . S
C603 C595 1.433 . S
C603 N605 1.384 . S
N604 C600 1.427 . S
N604 C601 1.384 . S
N605 C597 1.427 . S
N605 C603 1.384 . S
H606 C612 0.930 . S
H607 C616 0.930 . S
H608 C621 0.929 . S
H609 C619 0.929 . S
H610 C614 0.929 . S
H611 C620 0.929 1_655 S
C612 H606 0.930 . S
C612 C613 1.367 . S
C612 C620 1.378 . S
C613 C612 1.367 . S
C613 C621 1.433 . S
C614 H610 0.929 . S
C614 C616 1.378 . S
C614 C618 1.350 . S
C615 C618 1.463 . S
C615 C620 1.350 . S
C615 N623 1.427 . S
C616 H607 0.930 . S
C616 C614 1.378 . S
C616 C617 1.367 1_455 S
C617 C616 1.367 1_655 S
C617 C619 1.433 . S
C618 C614 1.350 . S
C618 C615 1.463 . S
C618 N622 1.427 1_455 S
C619 H609 0.929 . S
C619 C617 1.433 . S
C619 N622 1.384 . S
C620 H611 0.929 1_455 S
C620 C612 1.378 . S
C620 C615 1.350 . S
C621 H608 0.929 . S
C621 C613 1.433 . S
C621 N623 1.384 . S
N622 C618 1.427 1_655 S
N622 C619 1.384 . S
N623 C615 1.427 . S
N623 C621 1.384 . S
C307 C8 2.109 . S
C311 C275 2.158 . S
C325 C26 1.372 . S
C329 C182 1.367 . S
C343 C48 1.529 . S
C347 C222 1.573 . S
C361 C19 1.881 . S
C365 C262 1.920 . S
C383 C195 1.606 . S
C379 C36 1.615 . S
C401 C235 1.848 . S
C397 C59 1.830 . S
C415 C28 1.560 . S
C419 C102 1.602 . S
C433 C46 1.293 . S
C437 C142 1.299 . S
C451 C16 1.682 . S
C455 C75 1.685 . S
C473 C115 1.818 . S
C469 C39 1.804 . S
C491 C155 1.078 . S
C487 C56 1.072 . S
C505 C6 1.413 . S
C509 C62 1.413 . S
C527 C161 1.417 1_554 S
C523 C9 1.408 . S
C541 C21 1.512 . S
C545 C81 1.519 . S
C559 C49 1.494 . S
C563 C121 1.494 . S
C581 C241 1.476 . S
C577 C29 1.481 . S
C599 C281 1.591 1_556 S
C595 C41 1.580 . S
C613 C1 1.512 . S
C617 C201 1.522 . S
