# Generated by pormake.
# Topology zzz, (3,6)-cn, num edge types: 1
# Building blocks:
#     Node 0, Type 0, BuildingBlock: OLANEW_clean_sbu_2, # of connection points: 3
#     Node 1, Type 0, BuildingBlock: OLANEW_clean_sbu_2, # of connection points: 3
#     Node 2, Type 0, BuildingBlock: OLANEW_clean_sbu_2, # of connection points: 3
#     Node 3, Type 0, BuildingBlock: OLANEW_clean_sbu_2, # of connection points: 3
#     Node 4, Type 0, BuildingBlock: OLANEW_clean_sbu_2, # of connection points: 3
#     Node 5, Type 0, BuildingBlock: OLANEW_clean_sbu_2, # of connection points: 3
#     Node 6, Type 0, BuildingBlock: OLANEW_clean_sbu_2, # of connection points: 3
#     Node 7, Type 0, BuildingBlock: OLANEW_clean_sbu_2, # of connection points: 3
#     Node 8, Type 1, BuildingBlock: VOLQOD_clean_sbu_1, # of connection points: 6
#     Node 9, Type 1, BuildingBlock: VOLQOD_clean_sbu_1, # of connection points: 6
#     Node 10, Type 1, BuildingBlock: VOLQOD_clean_sbu_1, # of connection points: 6
#     Node 11, Type 1, BuildingBlock: VOLQOD_clean_sbu_1, # of connection points: 6
#     Edge 12, Type (0, 1), BuildingBlock: AJUNOK_clean_linker_0, # of connection points: 2
#     Edge 13, Type (0, 1), BuildingBlock: AJUNOK_clean_linker_0, # of connection points: 2
#     Edge 14, Type (0, 1), BuildingBlock: AJUNOK_clean_linker_0, # of connection points: 2
#     Edge 15, Type (0, 1), BuildingBlock: AJUNOK_clean_linker_0, # of connection points: 2
#     Edge 16, Type (0, 1), BuildingBlock: AJUNOK_clean_linker_0, # of connection points: 2
#     Edge 17, Type (0, 1), BuildingBlock: AJUNOK_clean_linker_0, # of connection points: 2
#     Edge 18, Type (0, 1), BuildingBlock: AJUNOK_clean_linker_0, # of connection points: 2
#     Edge 19, Type (0, 1), BuildingBlock: AJUNOK_clean_linker_0, # of connection points: 2
#     Edge 20, Type (0, 1), BuildingBlock: AJUNOK_clean_linker_0, # of connection points: 2
#     Edge 21, Type (0, 1), BuildingBlock: AJUNOK_clean_linker_0, # of connection points: 2
#     Edge 22, Type (0, 1), BuildingBlock: AJUNOK_clean_linker_0, # of connection points: 2
#     Edge 23, Type (0, 1), BuildingBlock: AJUNOK_clean_linker_0, # of connection points: 2
#     Edge 24, Type (0, 1), BuildingBlock: AJUNOK_clean_linker_0, # of connection points: 2
#     Edge 25, Type (0, 1), BuildingBlock: AJUNOK_clean_linker_0, # of connection points: 2
#     Edge 26, Type (0, 1), BuildingBlock: AJUNOK_clean_linker_0, # of connection points: 2
#     Edge 27, Type (0, 1), BuildingBlock: AJUNOK_clean_linker_0, # of connection points: 2
#     Edge 28, Type (0, 1), BuildingBlock: AJUNOK_clean_linker_0, # of connection points: 2
#     Edge 29, Type (0, 1), BuildingBlock: AJUNOK_clean_linker_0, # of connection points: 2
#     Edge 30, Type (0, 1), BuildingBlock: AJUNOK_clean_linker_0, # of connection points: 2
#     Edge 31, Type (0, 1), BuildingBlock: AJUNOK_clean_linker_0, # of connection points: 2
#     Edge 32, Type (0, 1), BuildingBlock: AJUNOK_clean_linker_0, # of connection points: 2
#     Edge 33, Type (0, 1), BuildingBlock: AJUNOK_clean_linker_0, # of connection points: 2
#     Edge 34, Type (0, 1), BuildingBlock: AJUNOK_clean_linker_0, # of connection points: 2
#     Edge 35, Type (0, 1), BuildingBlock: AJUNOK_clean_linker_0, # of connection points: 2
# Relax obj value: 0.168
# Max RMSD: 0.226
# Mean RMSD: 0.108
data_MOF--net-zzz--node1-OLANEW_clean_sbu_2--node2-VOLQOD_clean_sbu_1--edge1-AJUNOK_clean_linker_0
_symmetry_space_group_name_H-M    P1
_symmetry_Int_Tables_number       1
_symmetry_cell_setting            triclinic
loop_
_symmetry_equiv_pos_as_xyz
'x, y, z'
_cell_length_a     41.176469
_cell_length_b     40.929341
_cell_length_c     14.551628
_cell_angle_alpha  90.232264
_cell_angle_beta   89.788702
_cell_angle_gamma 91.185135
loop_
_atom_site_label
_atom_site_type_symbol
_atom_site_fract_x
_atom_site_fract_y
_atom_site_fract_z
_atom_type_partial_charge
O0 O 0.79962 0.3839 0.89015 0.0
Cd1 Cd 0.74603 0.36643 0.94776 0.0
O2 O 0.80536 0.4048 0.02792 0.0
Cd3 Cd 0.83519 0.42682 0.13619 0.0
O4 O 0.87165 0.43947 0.23868 0.0
C5 C 0.89217 0.46299 0.23179 0.0
O6 O 0.89147 0.482 0.15939 0.0
C7 C 0.81709 0.39919 0.94862 0.0
C8 C 0.69284 0.3979 0.87286 0.0
O9 O 0.71019 0.41157 0.93564 0.0
O10 O 0.7011 0.36969 0.8435 0.0
O11 O 0.8906 0.78626 0.85671 0.0
Cd12 Cd 0.8613 0.73644 0.90149 0.0
O13 O 0.89531 0.80075 0.00146 0.0
Cd14 Cd 0.90761 0.83799 0.10393 0.0
O15 O 0.91787 0.8765 0.20399 0.0
C16 C 0.93501 0.90174 0.18454 0.0
O17 O 0.94676 0.9051 0.1011 0.0
C18 C 0.90059 0.80655 0.91701 0.0
C19 C 0.8997 0.68181 0.87806 0.0
O20 O 0.8827 0.69281 0.81184 0.0
O21 O 0.89849 0.69673 0.95557 0.0
O22 O 0.70834 0.13472 0.85735 0.0
Cd23 Cd 0.75875 0.15975 0.91502 0.0
O24 O 0.69475 0.12728 0.0017 0.0
Cd25 Cd 0.66264 0.1041 0.10264 0.0
O26 O 0.62546 0.07968 0.18538 0.0
C27 C 0.62488 0.04876 0.19276 0.0
O28 O 0.64685 0.03172 0.14917 0.0
C29 C 0.68806 0.12427 0.91691 0.0
C30 C 0.81373 0.12602 0.8595 0.0
O31 O 0.79641 0.11621 0.92772 0.0
O32 O 0.80497 0.15168 0.81677 0.0
O33 O 0.6419 0.71115 0.88475 0.0
Cd34 Cd 0.66902 0.76107 0.93788 0.0
O35 O 0.61155 0.71335 0.00874 0.0
Cd36 Cd 0.57676 0.68883 0.09971 0.0
O37 O 0.55425 0.64914 0.1776 0.0
C38 C 0.57119 0.62399 0.1906 0.0
O39 O 0.60077 0.6233 0.15651 0.0
C40 C 0.619 0.69929 0.93378 0.0
C41 C 0.63112 0.8139 0.89103 0.0
O42 O 0.65422 0.80458 0.83842 0.0
O43 O 0.62651 0.7986 0.96676 0.0
O44 O 0.20819 0.64094 0.60872 0.0
Cd45 Cd 0.25725 0.67243 0.56876 0.0
O46 O 0.21435 0.61187 0.48278 0.0
Cd47 Cd 0.19443 0.57416 0.39104 0.0
O48 O 0.1654 0.54347 0.2985 0.0
C49 C 0.13472 0.54108 0.30779 0.0
O50 O 0.12073 0.55677 0.3757 0.0
C51 C 0.19879 0.61776 0.55631 0.0
C52 C 0.31313 0.63758 0.60856 0.0
O53 O 0.30054 0.65674 0.6681 0.0
O54 O 0.29926 0.63505 0.53004 0.0
O55 O 0.14741 0.20259 0.58781 0.0
Cd56 Cd 0.17944 0.25052 0.54315 0.0
O57 O 0.15289 0.17796 0.45407 0.0
Cd58 Cd 0.14252 0.13662 0.36024 0.0
O59 O 0.12078 0.09741 0.27536 0.0
C60 C 0.09075 0.09933 0.25658 0.0
O61 O 0.07482 0.12458 0.28756 0.0
C62 C 0.14052 0.17888 0.53437 0.0
C63 C 0.14308 0.30421 0.59533 0.0
O64 O 0.13899 0.29038 0.51697 0.0
O65 O 0.16536 0.29344 0.64778 0.0
O66 O 0.29893 0.86829 0.58965 0.0
Cd67 Cd 0.24597 0.84267 0.55772 0.0
O68 O 0.29864 0.89363 0.45695 0.0
Cd69 Cd 0.32291 0.92278 0.34978 0.0
O70 O 0.35212 0.94337 0.23776 0.0
C71 C 0.37499 0.96453 0.24663 0.0
O72 O 0.3819 0.97603 0.32881 0.0
C73 C 0.31286 0.88721 0.532 0.0
C74 C 0.19362 0.88282 0.59709 0.0
O75 O 0.20488 0.86364 0.65813 0.0
O76 O 0.20743 0.88314 0.51801 0.0
O77 O 0.39797 0.29464 0.5238 0.0
Cd78 Cd 0.37513 0.24443 0.45818 0.0
O79 O 0.37698 0.323 0.41205 0.0
Cd80 Cd 0.36923 0.368 0.33529 0.0
O81 O 0.38252 0.40305 0.2288 0.0
C82 C 0.39637 0.43067 0.2428 0.0
O83 O 0.40153 0.44053 0.32759 0.0
C84 C 0.39457 0.32184 0.48359 0.0
C85 C 0.40177 0.18984 0.54018 0.0
O86 O 0.41752 0.20616 0.47909 0.0
O87 O 0.37334 0.1992 0.56289 0.0
O88 O 0.06481 0.95535 0.7576 0.0
Zn89 Zn 0.02394 0.97409 0.81359 0.0
O90 O 0.00364 0.00466 0.72722 0.0
Zn91 Zn 0.00201 0.048 0.78079 0.0
Zn92 Zn 0.02837 0.00691 0.61236 0.0
Zn93 Zn 0.95927 0.99097 0.70063 0.0
O94 O 0.9571 0.06675 0.78064 0.0
O95 O 0.9263 0.02416 0.73887 0.0
O96 O 0.03677 0.99737 0.93297 0.0
O97 O 0.01702 0.0468 0.90998 0.0
O98 O 0.03303 0.07868 0.71738 0.0
O99 O 0.04736 0.05194 0.59077 0.0
O100 O 0.0018 0.99173 0.50372 0.0
O101 O 0.99303 0.93565 0.84032 0.0
O102 O 0.95375 0.98097 0.56692 0.0
O103 O 0.9489 0.94904 0.76321 0.0
C104 C 0.07836 0.95874 0.67916 0.0
C105 C 0.92928 0.05368 0.76588 0.0
C106 C 0.04857 0.07723 0.64191 0.0
C107 C 0.03122 0.02635 0.9607 0.0
C108 C 0.9724 0.98179 0.49703 0.0
C109 C 0.96403 0.92931 0.81388 0.0
O110 O 0.06645 0.97732 0.61869 0.0
O111 O 0.47727 0.07082 0.74767 0.0
Zn112 Zn 0.50128 0.03363 0.8072 0.0
O113 O 0.50561 0.99709 0.71885 0.0
Zn114 Zn 0.48775 0.95688 0.77024 0.0
Zn115 Zn 0.48264 0.00641 0.60496 0.0
Zn116 Zn 0.55109 0.98982 0.69176 0.0
O117 O 0.52178 0.92374 0.79727 0.0
O118 O 0.56619 0.94634 0.73649 0.0
O119 O 0.47447 0.01943 0.91995 0.0
O120 O 0.46483 0.96711 0.88599 0.0
O121 O 0.45297 0.93676 0.69098 0.0
O122 O 0.44654 0.97357 0.58159 0.0
O123 O 0.51347 0.00838 0.49637 0.0
O124 O 0.54572 0.05229 0.84271 0.0
O125 O 0.56026 0.99349 0.55727 0.0
O126 O 0.57872 0.02407 0.75304 0.0
C127 C 0.46217 0.073 0.67175 0.0
C128 C 0.55198 0.92293 0.77884 0.0
C129 C 0.43801 0.94697 0.62077 0.0
C130 C 0.46094 0.9918 0.93768 0.0
C131 C 0.54349 0.00189 0.4884 0.0
C132 C 0.5741 0.04668 0.8116 0.0
O133 O 0.4617 0.04993 0.61302 0.0
O134 O 0.44597 0.56625 0.75188 0.0
Zn135 Zn 0.4846 0.54342 0.80541 0.0
O136 O 0.50224 0.51232 0.7153 0.0
Zn137 Zn 0.50333 0.46894 0.76837 0.0
Zn138 Zn 0.47516 0.51107 0.60484 0.0
Zn139 Zn 0.54652 0.5251 0.6823 0.0
O140 O 0.54896 0.4529 0.78534 0.0
O141 O 0.579 0.49102 0.7152 0.0
O142 O 0.46729 0.51997 0.91885 0.0
O143 O 0.47931 0.46837 0.88731 0.0
O144 O 0.47924 0.43654 0.6907 0.0
O145 O 0.45878 0.46512 0.576 0.0
O146 O 0.49987 0.52917 0.49613 0.0
O147 O 0.51841 0.57791 0.84116 0.0
O148 O 0.54995 0.53694 0.54873 0.0
O149 O 0.56014 0.565 0.75217 0.0
C150 C 0.42886 0.56155 0.68005 0.0
C151 C 0.57644 0.46407 0.7582 0.0
C152 C 0.46237 0.43818 0.61803 0.0
C153 C 0.46637 0.48968 0.93874 0.0
C154 C 0.5293 0.53833 0.48398 0.0
C155 C 0.54739 0.58321 0.81271 0.0
O156 O 0.43661 0.54017 0.62041 0.0
O157 O 0.9914 0.51013 0.56317 0.0
Zn158 Zn 0.01499 0.52549 0.67863 0.0
O159 O 0.01999 0.48952 0.76705 0.0
Zn160 Zn 0.99831 0.50006 0.88314 0.0
Zn161 Zn 0.00117 0.44922 0.71718 0.0
Zn162 Zn 0.06574 0.4823 0.78986 0.0
O163 O 0.02942 0.49978 0.99097 0.0
O164 O 0.0762 0.48837 0.9232 0.0
O165 O 0.98848 0.5614 0.7346 0.0
O166 O 0.9797 0.54497 0.87781 0.0
O167 O 0.95975 0.46969 0.90439 0.0
O168 O 0.96291 0.43319 0.79182 0.0
O169 O 0.03412 0.41395 0.70039 0.0
O170 O 0.05874 0.54562 0.64429 0.0
O171 O 0.07968 0.43766 0.75002 0.0
O172 O 0.0932 0.51462 0.72026 0.0
C173 C 0.97989 0.48205 0.54097 0.0
C174 C 0.05991 0.49509 0.99507 0.0
C175 C 0.9486 0.44448 0.86243 0.0
C176 C 0.97682 0.56611 0.81466 0.0
C177 C 0.06456 0.41323 0.7151 0.0
C178 C 0.08758 0.53818 0.66627 0.0
O179 O 0.98268 0.45768 0.59399 0.0
C180 C 0.14883 0.90051 0.7021 0.0
C181 C 0.16502 0.90332 0.61699 0.0
C182 C 0.12111 0.91865 0.72177 0.0
C183 C 0.10834 0.94044 0.65724 0.0
H184 H 0.15739 0.88389 0.75398 0.0
H185 H 0.1095 0.91529 0.78807 0.0
S186 S 0.14241 0.95779 0.42488 0.0
N187 N 0.16672 0.93032 0.4683 0.0
N188 N 0.11481 0.96438 0.50493 0.0
C189 C 0.12462 0.94386 0.57216 0.0
C190 C 0.15286 0.92534 0.55218 0.0
C191 C 0.44897 0.16087 0.60607 0.0
C192 C 0.41595 0.16061 0.58156 0.0
C193 C 0.46348 0.13273 0.64044 0.0
C194 C 0.44559 0.10329 0.64855 0.0
H195 H 0.46373 0.1829 0.59801 0.0
H196 H 0.48911 0.13362 0.65706 0.0
S197 S 0.35853 0.08982 0.59414 0.0
N198 N 0.36563 0.12877 0.57045 0.0
N199 N 0.39335 0.07546 0.63087 0.0
C200 C 0.41257 0.10278 0.62517 0.0
C201 C 0.39758 0.13161 0.59281 0.0
C202 C 0.355 0.59699 0.56331 0.0
C203 C 0.3427 0.61874 0.62934 0.0
C204 C 0.3827 0.57871 0.58053 0.0
C205 C 0.39946 0.58138 0.66455 0.0
H206 H 0.34314 0.59392 0.49742 0.0
H207 H 0.39104 0.56241 0.52699 0.0
S208 S 0.37722 0.63484 0.8611 0.0
N209 N 0.34943 0.64189 0.78261 0.0
N210 N 0.40146 0.6076 0.81506 0.0
C211 C 0.38744 0.60309 0.73139 0.0
C212 C 0.35912 0.62171 0.71382 0.0
C213 C 0.13291 0.35263 0.69605 0.0
C214 C 0.12236 0.33147 0.62533 0.0
C215 C 0.11388 0.37872 0.7254 0.0
C216 C 0.08326 0.38432 0.68635 0.0
H217 H 0.1563 0.34936 0.72822 0.0
H218 H 0.12328 0.39462 0.77915 0.0
S219 S 0.04394 0.3352 0.50097 0.0
N220 N 0.07901 0.31742 0.51813 0.0
N221 N 0.04307 0.36613 0.574 0.0
C222 C 0.07214 0.36294 0.61672 0.0
C223 C 0.09174 0.33665 0.58593 0.0
C224 C 0.84431 0.0742 0.84549 0.0
C225 C 0.84303 0.10813 0.83153 0.0
C226 C 0.872 0.05667 0.82153 0.0
C227 C 0.89976 0.07257 0.78506 0.0
H228 H 0.82369 0.06103 0.8748 0.0
H229 H 0.87196 0.03059 0.83394 0.0
S230 S 0.90878 0.16105 0.73457 0.0
N231 N 0.87166 0.15691 0.77698 0.0
N232 N 0.92413 0.12409 0.73475 0.0
C233 C 0.8988 0.10648 0.77059 0.0
C234 C 0.87031 0.12422 0.79298 0.0
C235 C 0.62044 0.8625 0.79319 0.0
C236 C 0.61036 0.84141 0.86432 0.0
C237 C 0.60139 0.8887 0.76612 0.0
C238 C 0.57124 0.89463 0.80823 0.0
H239 H 0.64342 0.85897 0.75837 0.0
H240 H 0.61034 0.90429 0.71126 0.0
S241 S 0.5335 0.84635 -0.00245 0.0
N242 N 0.56812 0.82811 0.97633 0.0
N243 N 0.53217 0.87716 0.92495 0.0
C244 C 0.5607 0.87357 0.87908 0.0
C245 C 0.5803 0.84706 0.90734 0.0
C246 C 0.66262 0.44829 0.83434 0.0
C247 C 0.66357 0.41399 0.8377 0.0
C248 C 0.63463 0.46423 0.80561 0.0
C249 C 0.60626 0.44646 0.78174 0.0
H250 H 0.68368 0.46295 0.85417 0.0
H251 H 0.63491 0.4907 0.80479 0.0
S252 S 0.59621 0.35623 0.77789 0.0
N253 N 0.63398 0.36272 0.81241 0.0
N254 N 0.58099 0.39276 0.76145 0.0
C255 C 0.60692 0.41217 0.78426 0.0
C256 C 0.63569 0.3959 0.81133 0.0
C257 C 0.92717 0.64187 0.77508 0.0
C258 C 0.92014 0.65276 0.86466 0.0
C259 C 0.94603 0.61428 0.75976 0.0
C260 C 0.95834 0.59617 0.83341 0.0
H261 H 0.91806 0.65476 0.71595 0.0
H262 H 0.95047 0.6068 0.68941 0.0
S263 S 0.94737 0.61467 0.08165 0.0
N264 N 0.92744 0.64357 0.02837 0.0
N265 N 0.96265 0.59154 -0.0003 0.0
C266 C 0.9517 0.60692 0.92352 0.0
C267 C 0.93272 0.63524 0.9391 0.0
C268 C 0.09408 0.14079 0.50171 0.0
C269 C 0.117 0.15341 0.56435 0.0
C270 C 0.07187 0.11604 0.52693 0.0
C271 C 0.07089 0.10428 0.61727 0.0
H272 H 0.09295 0.15069 0.43323 0.0
H273 H 0.05504 0.10644 0.476 0.0
S274 S 0.12396 0.13099 0.80994 0.0
N275 N 0.13659 0.1532 0.72172 0.0
N276 N 0.0937 0.10777 0.77097 0.0
C277 C 0.09265 0.11772 0.68204 0.0
C278 C 0.11587 0.14224 0.65542 0.0
C279 C 0.35326 0.93347 0.52591 0.0
C280 C 0.34548 0.90119 0.55162 0.0
C281 C 0.38379 0.94748 0.54491 0.0
C282 C 0.40762 0.92994 0.5918 0.0
H283 H 0.33526 0.94848 0.49359 0.0
H284 H 0.38822 0.97275 0.52584 0.0
S285 S 0.39945 0.84422 0.67263 0.0
N286 N 0.36412 0.85172 0.62462 0.0
N287 N 0.42147 0.87819 0.66198 0.0
C288 C 0.40019 0.89751 0.61756 0.0
C289 C 0.36911 0.88317 0.59749 0.0
C290 C 0.4247 0.37484 0.45787 0.0
C291 C 0.41162 0.35142 0.51894 0.0
C292 C 0.44092 0.40303 0.4903 0.0
C293 C 0.44539 0.40831 0.58483 0.0
H294 H 0.42327 0.37104 0.38441 0.0
H295 H 0.45069 0.42043 0.44101 0.0
S296 S 0.4172 0.35363 0.77315 0.0
N297 N 0.40491 0.33499 0.67827 0.0
N298 N 0.43616 0.38745 0.73934 0.0
C299 C 0.43324 0.38463 0.64659 0.0
C300 C 0.41629 0.35625 0.6136 0.0
C301 C 0.1404 0.61157 0.6014 0.0
C302 C 0.17034 0.59729 0.58116 0.0
C303 C 0.11318 0.59215 0.62527 0.0
C304 C 0.11539 0.55797 0.63195 0.0
H305 H 0.13801 0.63786 0.59833 0.0
H306 H 0.09057 0.60402 0.64139 0.0
S307 S 0.18851 0.50903 0.58545 0.0
N308 N 0.20067 0.54723 0.56834 0.0
N309 N 0.14979 0.51074 0.61465 0.0
C310 C 0.14523 0.54352 0.61143 0.0
C311 C 0.17267 0.5632 0.58572 0.0
C312 C 0.94505 0.84862 0.93376 0.0
C313 C 0.91675 0.8374 0.88888 0.0
C314 C 0.96049 0.87813 0.90842 0.0
C315 C 0.94775 0.89782 0.83874 0.0
H316 H 0.95549 0.83433 0.98828 0.0
H317 H 0.98233 0.88573 0.94465 0.0
S318 S 0.87455 0.87816 0.69795 0.0
N319 N 0.87718 0.8472 0.76966 0.0
N320 N 0.90548 0.90289 0.72268 0.0
C321 C 0.91955 0.88644 0.79257 0.0
C322 C 0.90427 0.85617 0.81744 0.0
C323 C 0.66042 0.08129 0.82267 0.0
C324 C 0.65833 0.10631 0.88833 0.0
C325 C 0.63312 0.0621 0.79935 0.0
C326 C 0.60249 0.06735 0.84019 0.0
H327 H 0.68353 0.07598 0.79059 0.0
H328 H 0.63623 0.04293 0.74876 0.0
S329 S 0.58401 0.13215 0.01097 0.0
N330 N 0.62321 0.13713 0.98953 0.0
N331 N 0.57179 0.10081 0.9472 0.0
C332 C 0.60003 0.09296 0.90469 0.0
C333 C 0.62795 0.11251 0.92828 0.0
C334 C 0.56763 0.66644 0.91602 0.0
C335 C 0.60153 0.66914 0.90495 0.0
C336 C 0.5504 0.63823 0.8884 0.0
C337 C 0.56639 0.61183 0.84735 0.0
H338 H 0.55417 0.6866 0.94439 0.0
H339 H 0.52425 0.63751 0.89714 0.0
S340 S 0.65531 0.60647 0.80638 0.0
N341 N 0.65065 0.64293 0.85294 0.0
N342 N 0.61849 0.5899 0.80005 0.0
C343 C 0.60043 0.61419 0.83658 0.0
C344 C 0.61791 0.6429 0.86517 0.0
C345 C 0.863 0.43979 0.95928 0.0
C346 C 0.85082 0.40965 0.92633 0.0
C347 C 0.89503 0.45008 0.94151 0.0
C348 C 0.91614 0.43089 0.88864 0.0
H349 H 0.84742 0.45602 -0.00265 0.0
H350 H 0.90288 0.47386 0.96696 0.0
S351 S 0.89595 0.34967 0.78646 0.0
N352 N 0.86221 0.36047 0.83912 0.0
N353 N 0.9224 0.37992 0.804 0.0
C354 C 0.9042 0.40062 0.85497 0.0
C355 C 0.87153 0.39008 0.87376 0.0
C356 C 0.04241 0.08202 0.16474 0.0
C357 C 0.07439 0.07592 0.19272 0.0
C358 C 0.02771 0.06393 0.09413 0.0
C359 C 0.04416 0.03871 0.0491 0.0
H360 H 0.02901 0.10202 0.19426 0.0
H361 H 0.00375 0.07083 0.07161 0.0
S362 S 0.12613 0.00913 0.10608 0.0
N363 N 0.12058 0.04003 0.17741 0.0
N364 N 0.09264 0.00588 0.04428 0.0
C365 C 0.07501 0.03036 0.08139 0.0
C366 C 0.09022 0.04904 0.15324 0.0
C367 C 0.42329 0.99408 0.17664 0.0
C368 C 0.39513 0.97415 0.16572 0.0
C369 C 0.44411 0.00108 0.10202 0.0
C370 C 0.43759 0.98808 0.01441 0.0
H371 H 0.4298 0.00368 0.24369 0.0
H372 H 0.466 0.01562 0.11371 0.0
S373 S 0.3653 0.93818 0.94589 0.0
N374 N 0.36056 0.94429 0.05723 0.0
N375 N 0.3997 0.95712 0.91852 0.0
C376 C 0.40886 0.96946 0.00167 0.0
C377 C 0.38763 0.96257 0.07688 0.0
C378 C 0.4337 0.47452 0.17922 0.0
C379 C 0.41073 0.44897 0.16418 0.0
C380 C 0.45095 0.48891 0.10569 0.0
C381 C 0.44596 0.47787 0.0153 0.0
H382 H 0.43932 0.48266 0.24838 0.0
H383 H 0.46919 0.50768 0.11998 0.0
S384 S 0.38515 0.41595 0.93687 0.0
N385 N 0.38125 0.41652 0.04977 0.0
N386 N 0.4142 0.443 0.91294 0.0
C387 C 0.42189 0.45384 -0.00122 0.0
C388 C 0.4041 0.43954 0.07289 0.0
C389 C 0.08154 0.53145 0.22787 0.0
C390 C 0.11477 0.52453 0.23597 0.0
C391 C 0.06332 0.52012 0.15249 0.0
C392 C 0.07761 0.50137 0.08239 0.0
H393 H 0.06982 0.54707 0.27764 0.0
H394 H 0.0383 0.52757 0.14699 0.0
S395 S 0.1621 0.47118 0.08057 0.0
N396 N 0.15999 0.49395 0.17418 0.0
N397 N 0.12583 0.47255 0.03302 0.0
C398 C 0.11013 0.49213 0.09359 0.0
C399 C 0.12867 0.50373 0.17017 0.0
C400 C 0.92404 0.92629 0.338 0.0
C401 C 0.94293 0.92592 0.25741 0.0
C402 C 0.93269 0.94613 0.41268 0.0
C403 C 0.96089 0.9662 0.41053 0.0
H404 H 0.90275 0.91045 0.34463 0.0
H405 H 0.91787 0.94441 0.47417 0.0
S406 S 0.01682 0.97692 0.21162 0.0
N407 N 0.98957 0.94953 0.17636 0.0
N408 N 0.00613 0.98668 0.31753 0.0
C409 C 0.97906 0.96748 0.32838 0.0
C410 C 0.97002 0.9474 0.25164 0.0
C411 C 0.57251 0.04843 0.2796 0.0
C412 C 0.60166 0.03286 0.25711 0.0
C413 C 0.55222 0.03653 0.3499 0.0
C414 C 0.56072 0.00903 0.4014 0.0
H415 H 0.56586 0.07064 0.24472 0.0
H416 H 0.53088 0.05026 0.3679 0.0
S417 S 0.63235 0.9572 0.36295 0.0
N418 N 0.63625 0.98652 0.28581 0.0
N419 N 0.59846 0.96468 0.41956 0.0
C420 C 0.58873 0.99209 0.37599 0.0
C421 C 0.60911 0.00386 0.30332 0.0
C422 C 0.58233 0.58116 0.30682 0.0
C423 C 0.55969 0.59813 0.25413 0.0
C424 C 0.57218 0.56024 0.37768 0.0
C425 C 0.53898 0.55508 0.3976 0.0
H426 H 0.60816 0.58539 0.29676 0.0
H427 H 0.59058 0.54905 0.41946 0.0
S428 S 0.46999 0.58962 0.26869 0.0
N429 N 0.5027 0.60563 0.21899 0.0
N430 N 0.48341 0.56583 0.35104 0.0
C431 C 0.51605 0.56991 0.34033 0.0
C432 C 0.52646 0.59163 0.26903 0.0
C433 C 0.91876 0.4449 0.37553 0.0
C434 C 0.9164 0.46839 0.30583 0.0
C435 C 0.94008 0.44931 0.44897 0.0
C436 C 0.95997 0.47757 0.45687 0.0
H437 H 0.90375 0.42285 0.37431 0.0
H438 H 0.94021 0.43056 0.50127 0.0
S439 S 0.96518 0.54555 0.28899 0.0
N440 N 0.93729 0.52026 0.24615 0.0
N441 N 0.97739 0.5287 0.38551 0.0
C442 C 0.95867 0.50096 0.3864 0.0
C443 C 0.93695 0.49633 0.31061 0.0
loop_
_geom_bond_atom_site_label_1
_geom_bond_atom_site_label_2
_geom_bond_distance
_geom_bond_site_symmetry_2
_ccdc_geom_bond_type
O0 Cd1 2.300 . S
O0 C7 1.275 . S
Cd1 O0 2.300 . S
Cd1 O9 2.381 . S
Cd1 O10 2.378 1_556 S
O2 Cd3 2.377 1_556 S
O2 C7 1.262 . S
Cd3 O2 2.377 1_554 S
Cd3 O4 2.317 . S
O4 Cd3 2.317 . S
O4 C5 1.232 . S
C5 O4 1.232 . S
C5 O6 1.218 . S
O6 C5 1.218 . S
C7 O0 1.275 . S
C7 O2 1.262 . S
C8 O9 1.258 . S
C8 O10 1.256 1_556 S
O9 Cd1 2.381 . S
O9 C8 1.258 . S
O10 Cd1 2.378 1_554 S
O10 C8 1.256 1_554 S
O11 Cd12 2.300 1_656 S
O11 C18 1.275 1_656 S
Cd12 O11 2.300 1_454 S
Cd12 O20 2.381 1_455 S
Cd12 O21 2.378 . S
O13 Cd14 2.385 . S
O13 C18 1.255 . S
Cd14 O13 2.385 . S
Cd14 O15 2.317 . S
O15 Cd14 2.317 . S
O15 C16 1.232 . S
C16 O15 1.232 . S
C16 O17 1.218 . S
O17 C16 1.218 . S
C18 O11 1.275 1_454 S
C18 O13 1.255 . S
C19 O20 1.257 1_455 S
C19 O21 1.256 . S
O20 Cd12 2.381 1_655 S
O20 C19 1.257 1_655 S
O21 Cd12 2.378 . S
O21 C19 1.256 . S
O22 Cd23 2.300 1_566 S
O22 C29 1.275 1_565 S
Cd23 O22 2.300 1_544 S
Cd23 O31 2.381 1_544 S
Cd23 O32 2.378 . S
O24 Cd25 2.385 . S
O24 C29 1.255 1_554 S
Cd25 O24 2.385 . S
Cd25 O26 2.317 . S
O26 Cd25 2.317 . S
O26 C27 1.232 . S
C27 O26 1.232 . S
C27 O28 1.218 . S
O28 C27 1.218 . S
C29 O22 1.275 1_545 S
C29 O24 1.255 1_556 S
C30 O31 1.258 1_544 S
C30 O32 1.256 . S
O31 Cd23 2.381 1_566 S
O31 C30 1.258 1_566 S
O32 Cd23 2.378 . S
O32 C30 1.256 . S
O33 Cd34 2.300 1_556 S
O33 C40 1.275 . S
Cd34 O33 2.300 1_554 S
Cd34 O42 2.381 1_554 S
Cd34 O43 2.378 . S
O35 Cd36 2.385 . S
O35 C40 1.255 1_554 S
Cd36 O35 2.385 . S
Cd36 O37 2.317 . S
O37 Cd36 2.317 . S
O37 C38 1.232 . S
C38 O37 1.232 . S
C38 O39 1.218 . S
O39 C38 1.218 . S
C40 O33 1.275 . S
C40 O35 1.255 1_556 S
C41 O42 1.258 . S
C41 O43 1.256 1_556 S
O42 Cd34 2.381 1_556 S
O42 C41 1.258 . S
O43 Cd34 2.378 . S
O43 C41 1.256 1_554 S
O44 Cd45 2.300 . S
O44 C51 1.275 . S
Cd45 O44 2.300 . S
Cd45 O53 2.381 . S
Cd45 O54 2.378 . S
O46 Cd47 2.385 . S
O46 C51 1.255 . S
Cd47 O46 2.385 . S
Cd47 O48 2.317 . S
O48 Cd47 2.317 . S
O48 C49 1.232 . S
C49 O48 1.232 . S
C49 O50 1.218 . S
O50 C49 1.218 . S
C51 O44 1.275 . S
C51 O46 1.255 . S
C52 O53 1.258 . S
C52 O54 1.256 . S
O53 Cd45 2.381 . S
O53 C52 1.258 . S
O54 Cd45 2.378 . S
O54 C52 1.256 . S
O55 Cd56 2.300 . S
O55 C62 1.275 . S
Cd56 O55 2.300 . S
Cd56 O64 2.381 . S
Cd56 O65 2.378 . S
O57 Cd58 2.385 . S
O57 C62 1.255 . S
Cd58 O57 2.385 . S
Cd58 O59 2.317 . S
O59 Cd58 2.317 . S
O59 C60 1.232 . S
C60 O59 1.232 . S
C60 O61 1.218 . S
O61 C60 1.218 . S
C62 O55 1.275 . S
C62 O57 1.255 . S
C63 O64 1.258 . S
C63 O65 1.256 . S
O64 Cd56 2.381 . S
O64 C63 1.258 . S
O65 Cd56 2.378 . S
O65 C63 1.256 . S
O66 Cd67 2.300 . S
O66 C73 1.275 . S
Cd67 O66 2.300 . S
Cd67 O75 2.381 1_545 S
Cd67 O76 2.378 . S
O68 Cd69 2.385 . S
O68 C73 1.255 . S
Cd69 O68 2.385 . S
Cd69 O70 2.317 . S
O70 Cd69 2.317 . S
O70 C71 1.232 . S
C71 O70 1.232 . S
C71 O72 1.218 . S
O72 C71 1.218 . S
C73 O66 1.275 . S
C73 O68 1.255 . S
C74 O75 1.258 1_545 S
C74 O76 1.256 . S
O75 Cd67 2.381 1_565 S
O75 C74 1.258 1_565 S
O76 Cd67 2.378 . S
O76 C74 1.256 . S
O77 Cd78 2.300 . S
O77 C84 1.275 . S
Cd78 O77 2.300 . S
Cd78 O86 2.381 . S
Cd78 O87 2.378 . S
O79 Cd80 2.385 . S
O79 C84 1.255 . S
Cd80 O79 2.385 . S
Cd80 O81 2.317 . S
O81 Cd80 2.317 . S
O81 C82 1.232 . S
C82 O81 1.232 . S
C82 O83 1.218 . S
O83 C82 1.218 . S
C84 O77 1.275 . S
C84 O79 1.255 . S
C85 O86 1.258 . S
C85 O87 1.256 . S
O86 Cd78 2.381 . S
O86 C85 1.258 . S
O87 Cd78 2.378 . S
O87 C85 1.256 . S
O88 Zn89 1.953 1_545 S
O88 C104 1.225 1_545 S
Zn89 O88 1.953 1_565 S
Zn89 O90 1.949 . S
Zn89 O96 1.918 1_565 S
Zn89 O101 1.925 . S
O90 Zn89 1.949 . S
O90 Zn91 1.899 1_465 S
O90 Zn92 1.952 . S
O90 Zn93 1.967 1_455 S
Zn91 O90 1.899 1_645 S
Zn91 O94 1.933 . S
Zn91 O97 1.941 1_655 S
Zn91 O98 1.965 1_655 S
Zn92 O90 1.952 . S
Zn92 O99 1.938 1_565 S
Zn92 O100 1.906 . S
Zn92 O110 1.953 . S
Zn93 O90 1.967 1_655 S
Zn93 O95 1.932 . S
Zn93 O102 1.977 . S
Zn93 O103 1.910 1_655 S
O94 Zn91 1.933 . S
O94 C105 1.226 . S
O95 Zn93 1.932 . S
O95 C105 1.307 1_565 S
O96 Zn89 1.918 1_545 S
O96 C107 1.253 . S
O97 Zn91 1.941 1_455 S
O97 C107 1.283 . S
O98 Zn91 1.965 1_455 S
O98 C106 1.303 . S
O99 Zn92 1.938 1_545 S
O99 C106 1.247 . S
O100 Zn92 1.906 . S
O100 C108 1.304 1_455 S
O101 Zn89 1.925 . S
O101 C109 1.311 . S
O102 Zn93 1.977 . S
O102 C108 1.272 . S
O103 Zn93 1.910 1_455 S
O103 C109 1.231 . S
C104 O88 1.225 1_565 S
C104 O110 1.298 . S
C105 O94 1.226 . S
C105 O95 1.307 1_545 S
C106 O98 1.303 . S
C106 O99 1.247 . S
C107 O96 1.253 . S
C107 O97 1.283 . S
C108 O100 1.304 1_655 S
C108 O102 1.272 . S
C109 O101 1.311 . S
C109 O103 1.231 . S
O110 Zn92 1.953 . S
O110 C104 1.298 . S
O111 Zn112 1.953 . S
O111 C127 1.225 . S
Zn112 O111 1.953 . S
Zn112 O113 1.949 . S
Zn112 O119 1.919 . S
Zn112 O124 1.924 . S
O113 Zn112 1.949 . S
O113 Zn114 1.923 1_545 S
O113 Zn115 1.950 . S
O113 Zn116 1.945 1_545 S
Zn114 O113 1.923 1_565 S
Zn114 O117 1.933 . S
Zn114 O120 1.941 . S
Zn114 O121 1.965 . S
Zn115 O113 1.950 . S
Zn115 O122 1.938 . S
Zn115 O123 1.906 . S
Zn115 O133 1.953 . S
Zn116 O113 1.945 1_565 S
Zn116 O118 1.932 . S
Zn116 O125 1.977 . S
Zn116 O126 1.910 1_565 S
O117 Zn114 1.933 . S
O117 C128 1.226 . S
O118 Zn116 1.932 . S
O118 C128 1.307 . S
O119 Zn112 1.919 . S
O119 C130 1.253 . S
O120 Zn114 1.941 . S
O120 C130 1.283 1_565 S
O121 Zn114 1.965 . S
O121 C129 1.303 1_565 S
O122 Zn115 1.938 . S
O122 C129 1.247 . S
O123 Zn115 1.906 . S
O123 C131 1.304 1_545 S
O124 Zn112 1.924 . S
O124 C132 1.311 . S
O125 Zn116 1.977 . S
O125 C131 1.272 . S
O126 Zn116 1.910 1_545 S
O126 C132 1.231 . S
C127 O111 1.225 . S
C127 O133 1.298 . S
C128 O117 1.226 . S
C128 O118 1.307 . S
C129 O121 1.303 1_545 S
C129 O122 1.247 . S
C130 O119 1.253 . S
C130 O120 1.283 1_545 S
C131 O123 1.304 1_565 S
C131 O125 1.272 . S
C132 O124 1.311 . S
C132 O126 1.231 . S
O133 Zn115 1.953 . S
O133 C127 1.298 . S
O134 Zn135 1.953 . S
O134 C150 1.225 . S
Zn135 O134 1.953 . S
Zn135 O136 1.949 . S
Zn135 O142 1.919 . S
Zn135 O147 1.924 . S
O136 Zn135 1.949 . S
O136 Zn137 1.923 . S
O136 Zn138 1.950 . S
O136 Zn139 1.945 . S
Zn137 O136 1.923 . S
Zn137 O140 1.933 . S
Zn137 O143 1.941 . S
Zn137 O144 1.965 . S
Zn138 O136 1.950 . S
Zn138 O145 1.938 . S
Zn138 O146 1.906 . S
Zn138 O156 1.953 . S
Zn139 O136 1.945 . S
Zn139 O141 1.932 . S
Zn139 O148 1.977 . S
Zn139 O149 1.910 . S
O140 Zn137 1.933 . S
O140 C151 1.226 . S
O141 Zn139 1.932 . S
O141 C151 1.307 . S
O142 Zn135 1.919 . S
O142 C153 1.253 . S
O143 Zn137 1.941 . S
O143 C153 1.283 . S
O144 Zn137 1.965 . S
O144 C152 1.303 . S
O145 Zn138 1.938 . S
O145 C152 1.247 . S
O146 Zn138 1.906 . S
O146 C154 1.304 . S
O147 Zn135 1.924 . S
O147 C155 1.311 . S
O148 Zn139 1.977 . S
O148 C154 1.272 . S
O149 Zn139 1.910 . S
O149 C155 1.231 . S
C150 O134 1.225 . S
C150 O156 1.298 . S
C151 O140 1.226 . S
C151 O141 1.307 . S
C152 O144 1.303 . S
C152 O145 1.247 . S
C153 O142 1.253 . S
C153 O143 1.283 . S
C154 O146 1.304 . S
C154 O148 1.272 . S
C155 O147 1.311 . S
C155 O149 1.231 . S
O156 Zn138 1.953 . S
O156 C150 1.298 . S
O157 Zn158 1.953 1_655 S
O157 C173 1.225 . S
Zn158 O157 1.953 1_455 S
Zn158 O159 1.949 . S
Zn158 O165 1.919 . S
Zn158 O170 1.924 . S
O159 Zn158 1.949 . S
O159 Zn160 1.917 1_455 S
O159 Zn161 1.929 1_455 S
O159 Zn162 1.973 . S
Zn160 O159 1.917 1_655 S
Zn160 O163 1.933 1_655 S
Zn160 O166 1.941 . S
Zn160 O167 1.965 . S
Zn161 O159 1.929 1_655 S
Zn161 O168 1.938 . S
Zn161 O169 1.906 . S
Zn161 O179 1.953 . S
Zn162 O159 1.973 . S
Zn162 O164 1.932 . S
Zn162 O171 1.977 . S
Zn162 O172 1.910 . S
O163 Zn160 1.933 1_455 S
O163 C174 1.226 . S
O164 Zn162 1.932 . S
O164 C174 1.307 . S
O165 Zn158 1.919 . S
O165 C176 1.252 1_455 S
O166 Zn160 1.941 . S
O166 C176 1.287 . S
O167 Zn160 1.965 . S
O167 C175 1.303 . S
O168 Zn161 1.938 . S
O168 C175 1.247 . S
O169 Zn161 1.906 . S
O169 C177 1.304 1_655 S
O170 Zn158 1.924 . S
O170 C178 1.311 . S
O171 Zn162 1.977 . S
O171 C177 1.272 . S
O172 Zn162 1.910 . S
O172 C178 1.231 . S
C173 O157 1.225 . S
C173 O179 1.298 . S
C174 O163 1.226 . S
C174 O164 1.307 . S
C175 O167 1.303 . S
C175 O168 1.247 . S
C176 O165 1.252 1_655 S
C176 O166 1.287 . S
C177 O169 1.304 1_455 S
C177 O171 1.272 . S
C178 O170 1.311 . S
C178 O172 1.231 . S
O179 Zn161 1.953 . S
O179 C173 1.298 . S
C180 C181 1.369 1_565 S
C180 C182 1.419 . S
C180 H184 0.930 . S
C181 C180 1.369 1_545 S
C181 C190 1.429 . S
C182 C180 1.419 . S
C182 C183 1.363 . S
C182 H185 0.929 . S
C183 C182 1.363 . S
C183 C189 1.428 1_565 S
H184 C180 0.930 . S
H185 C182 0.929 . S
S186 N187 1.613 . S
S186 N188 1.610 . S
N187 S186 1.613 . S
N187 C190 1.350 . S
N188 S186 1.610 . S
N188 C189 1.351 . S
C189 C183 1.428 1_545 S
C189 N188 1.351 . S
C189 C190 1.434 . S
C190 C181 1.429 . S
C190 N187 1.350 . S
C190 C189 1.434 . S
C191 C192 1.369 . S
C191 C193 1.419 . S
C191 H195 0.930 . S
C192 C191 1.369 . S
C192 C201 1.429 . S
C193 C191 1.419 . S
C193 C194 1.363 . S
C193 H196 0.929 . S
C194 C193 1.363 . S
C194 C200 1.428 . S
H195 C191 0.930 . S
H196 C193 0.929 . S
S197 N198 1.613 . S
S197 N199 1.610 . S
N198 S197 1.613 . S
N198 C201 1.350 . S
N199 S197 1.610 . S
N199 C200 1.351 . S
C200 C194 1.428 . S
C200 N199 1.351 . S
C200 C201 1.434 . S
C201 C192 1.429 . S
C201 N198 1.350 . S
C201 C200 1.434 . S
C202 C203 1.369 . S
C202 C204 1.419 . S
C202 H206 0.930 . S
C203 C202 1.369 . S
C203 C212 1.429 . S
C204 C202 1.419 . S
C204 C205 1.363 . S
C204 H207 0.929 . S
C205 C204 1.363 . S
C205 C211 1.428 . S
H206 C202 0.930 . S
H207 C204 0.929 . S
S208 N209 1.613 . S
S208 N210 1.610 . S
N209 S208 1.613 . S
N209 C212 1.350 . S
N210 S208 1.610 . S
N210 C211 1.351 . S
C211 C205 1.428 . S
C211 N210 1.351 . S
C211 C212 1.434 . S
C212 C203 1.429 . S
C212 N209 1.350 . S
C212 C211 1.434 . S
C213 C214 1.369 . S
C213 C215 1.419 . S
C213 H217 0.930 . S
C214 C213 1.369 . S
C214 C223 1.429 . S
C215 C213 1.419 . S
C215 C216 1.363 . S
C215 H218 0.929 . S
C216 C215 1.363 . S
C216 C222 1.428 1_455 S
H217 C213 0.930 . S
H218 C215 0.929 . S
S219 N220 1.613 . S
S219 N221 1.610 . S
N220 S219 1.613 . S
N220 C223 1.350 1_655 S
N221 S219 1.610 . S
N221 C222 1.351 . S
C222 C216 1.428 1_655 S
C222 N221 1.351 . S
C222 C223 1.434 1_655 S
C223 C214 1.429 . S
C223 N220 1.350 1_455 S
C223 C222 1.434 1_455 S
C224 C225 1.370 . S
C224 C226 1.419 . S
C224 H228 0.930 . S
C225 C224 1.370 . S
C225 C234 1.428 1_566 S
C226 C224 1.419 . S
C226 C227 1.363 1_565 S
C226 H229 0.929 . S
C227 C226 1.363 1_545 S
C227 C233 1.428 . S
H228 C224 0.930 . S
H229 C226 0.929 . S
S230 N231 1.613 . S
S230 N232 1.610 . S
N231 S230 1.613 . S
N231 C234 1.350 . S
N232 S230 1.610 . S
N232 C233 1.351 1_554 S
C233 C227 1.428 . S
C233 N232 1.351 1_556 S
C233 C234 1.434 1_556 S
C234 C225 1.428 1_544 S
C234 N231 1.350 . S
C234 C233 1.434 1_554 S
C235 C236 1.369 . S
C235 C237 1.419 . S
C235 H239 0.930 . S
C236 C235 1.369 . S
C236 C245 1.429 . S
C237 C235 1.419 . S
C237 C238 1.363 . S
C237 H240 0.929 . S
C238 C237 1.363 . S
C238 C244 1.428 . S
H239 C235 0.930 . S
H240 C237 0.929 . S
S241 N242 1.613 . S
S241 N243 1.610 1_554 S
N242 S241 1.613 . S
N242 C245 1.350 1_554 S
N243 S241 1.610 1_556 S
N243 C244 1.351 . S
C244 C238 1.428 . S
C244 N243 1.351 . S
C244 C245 1.434 . S
C245 C236 1.429 . S
C245 N242 1.350 1_556 S
C245 C244 1.434 . S
C246 C247 1.369 . S
C246 C248 1.419 . S
C246 H250 0.930 . S
C247 C246 1.369 . S
C247 C256 1.429 . S
C248 C246 1.419 . S
C248 C249 1.363 . S
C248 H251 0.929 . S
C249 C248 1.363 . S
C249 C255 1.428 . S
H250 C246 0.930 . S
H251 C248 0.929 . S
S252 N253 1.613 . S
S252 N254 1.610 1_554 S
N253 S252 1.613 . S
N253 C256 1.350 1_554 S
N254 S252 1.610 1_556 S
N254 C255 1.351 . S
C255 C249 1.428 . S
C255 N254 1.351 . S
C255 C256 1.434 . S
C256 C247 1.429 . S
C256 N253 1.350 1_556 S
C256 C255 1.434 . S
C257 C258 1.369 . S
C257 C259 1.419 . S
C257 H261 0.930 1_556 S
C258 C257 1.369 . S
C258 C267 1.429 1_655 S
C259 C257 1.419 . S
C259 C260 1.363 1_655 S
C259 H262 0.929 . S
C260 C259 1.363 1_455 S
C260 C266 1.428 . S
H261 C257 0.930 1_554 S
H262 C259 0.929 . S
S263 N264 1.613 . S
S263 N265 1.610 . S
N264 S263 1.613 . S
N264 C267 1.350 . S
N265 S263 1.610 . S
N265 C266 1.351 . S
C266 C260 1.428 . S
C266 N265 1.351 . S
C266 C267 1.434 . S
C267 C258 1.429 1_455 S
C267 N264 1.350 . S
C267 C266 1.434 . S
C268 C269 1.369 . S
C268 C270 1.419 . S
C268 H272 0.930 . S
C269 C268 1.369 . S
C269 C278 1.429 . S
C270 C268 1.419 . S
C270 C271 1.363 . S
C270 H273 0.929 . S
C271 C270 1.363 . S
C271 C277 1.428 . S
H272 C268 0.930 . S
H273 C270 0.929 . S
S274 N275 1.613 1_655 S
S274 N276 1.610 1_655 S
N275 S274 1.613 1_455 S
N275 C278 1.350 . S
N276 S274 1.610 1_455 S
N276 C277 1.351 . S
C277 C271 1.428 . S
C277 N276 1.351 . S
C277 C278 1.434 . S
C278 C269 1.429 . S
C278 N275 1.350 . S
C278 C277 1.434 . S
C279 C280 1.369 . S
C279 C281 1.419 . S
C279 H283 0.930 . S
C280 C279 1.369 . S
C280 C289 1.429 1_545 S
C281 C279 1.419 . S
C281 C282 1.363 . S
C281 H284 0.929 . S
C282 C281 1.363 . S
C282 C288 1.428 1_545 S
H283 C279 0.930 . S
H284 C281 0.929 . S
S285 N286 1.613 . S
S285 N287 1.610 . S
N286 S285 1.613 . S
N286 C289 1.350 . S
N287 S285 1.610 . S
N287 C288 1.351 . S
C288 C282 1.428 1_565 S
C288 N287 1.351 . S
C288 C289 1.434 . S
C289 C280 1.429 1_565 S
C289 N286 1.350 . S
C289 C288 1.434 . S
C290 C291 1.369 . S
C290 C292 1.419 . S
C290 H294 0.930 . S
C291 C290 1.369 . S
C291 C300 1.429 . S
C292 C290 1.419 . S
C292 C293 1.363 . S
C292 H295 0.929 . S
C293 C292 1.363 . S
C293 C299 1.428 . S
H294 C290 0.930 . S
H295 C292 0.929 . S
S296 N297 1.613 . S
S296 N298 1.610 . S
N297 S296 1.613 . S
N297 C300 1.350 . S
N298 S296 1.610 . S
N298 C299 1.351 . S
C299 C293 1.428 . S
C299 N298 1.351 . S
C299 C300 1.434 . S
C300 C291 1.429 . S
C300 N297 1.350 . S
C300 C299 1.434 . S
C301 C302 1.369 . S
C301 C303 1.419 . S
C301 H305 0.930 . S
C302 C301 1.369 . S
C302 C311 1.429 . S
C303 C301 1.419 . S
C303 C304 1.363 . S
C303 H306 0.929 . S
C304 C303 1.363 . S
C304 C310 1.428 . S
H305 C301 0.930 . S
H306 C303 0.929 . S
S307 N308 1.613 . S
S307 N309 1.610 . S
N308 S307 1.613 . S
N308 C311 1.350 . S
N309 S307 1.610 . S
N309 C310 1.351 . S
C310 C304 1.428 . S
C310 N309 1.351 . S
C310 C311 1.434 . S
C311 C302 1.429 . S
C311 N308 1.350 . S
C311 C310 1.434 . S
C312 C313 1.369 1_556 S
C312 C314 1.419 . S
C312 H316 0.930 . S
C313 C312 1.369 1_554 S
C313 C322 1.429 1_454 S
C314 C312 1.419 . S
C314 C315 1.363 . S
C314 H317 0.929 . S
C315 C314 1.363 . S
C315 C321 1.428 . S
H316 C312 0.930 . S
H317 C314 0.929 . S
S318 N319 1.613 1_556 S
S318 N320 1.610 . S
N319 S318 1.613 1_554 S
N319 C322 1.350 1_554 S
N320 S318 1.610 . S
N320 C321 1.351 1_655 S
C321 C315 1.428 . S
C321 N320 1.351 1_455 S
C321 C322 1.434 1_455 S
C322 C313 1.429 1_656 S
C322 N319 1.350 1_556 S
C322 C321 1.434 1_655 S
C323 C324 1.369 1_565 S
C323 C325 1.419 1_565 S
C323 H327 0.930 . S
C324 C323 1.369 1_545 S
C324 C333 1.429 . S
C325 C323 1.419 1_545 S
C325 C326 1.363 . S
C325 H328 0.929 1_545 S
C326 C325 1.363 . S
C326 C332 1.428 . S
H327 C323 0.930 . S
H328 C325 0.929 1_565 S
S329 N330 1.613 . S
S329 N331 1.610 . S
N330 S329 1.613 . S
N330 C333 1.350 . S
N331 S329 1.610 . S
N331 C332 1.351 . S
C332 C326 1.428 . S
C332 N331 1.351 . S
C332 C333 1.434 . S
C333 C324 1.429 . S
C333 N330 1.350 . S
C333 C332 1.434 . S
C334 C335 1.369 . S
C334 C336 1.419 . S
C334 H338 0.930 . S
C335 C334 1.369 . S
C335 C344 1.429 . S
C336 C334 1.419 . S
C336 C337 1.363 . S
C336 H339 0.929 . S
C337 C336 1.363 . S
C337 C343 1.428 . S
H338 C334 0.930 . S
H339 C336 0.929 . S
S340 N341 1.613 . S
S340 N342 1.610 . S
N341 S340 1.613 . S
N341 C344 1.350 . S
N342 S340 1.610 . S
N342 C343 1.351 . S
C343 C337 1.428 . S
C343 N342 1.351 . S
C343 C344 1.434 . S
C344 C335 1.429 . S
C344 N341 1.350 . S
C344 C343 1.434 . S
C345 C346 1.369 . S
C345 C347 1.419 . S
C345 H349 0.930 . S
C346 C345 1.369 . S
C346 C355 1.429 . S
C347 C345 1.419 . S
C347 C348 1.363 . S
C347 H350 0.929 . S
C348 C347 1.363 . S
C348 C354 1.428 . S
H349 C345 0.930 . S
H350 C347 0.929 . S
S351 N352 1.613 . S
S351 N353 1.610 . S
N352 S351 1.613 . S
N352 C355 1.350 . S
N353 S351 1.610 . S
N353 C354 1.351 . S
C354 C348 1.428 . S
C354 N353 1.351 . S
C354 C355 1.434 . S
C355 C346 1.429 . S
C355 N352 1.350 . S
C355 C354 1.434 . S
C356 C357 1.369 . S
C356 C358 1.419 . S
C356 H360 0.930 . S
C357 C356 1.369 . S
C357 C366 1.429 . S
C358 C356 1.419 . S
C358 C359 1.363 . S
C358 H361 0.929 1_455 S
C359 C358 1.363 . S
C359 C365 1.428 . S
H360 C356 0.930 . S
H361 C358 0.929 1_655 S
S362 N363 1.613 1_556 S
S362 N364 1.610 . S
N363 S362 1.613 1_554 S
N363 C366 1.350 . S
N364 S362 1.610 . S
N364 C365 1.351 1_556 S
C365 C359 1.428 . S
C365 N364 1.351 1_554 S
C365 C366 1.434 . S
C366 C357 1.429 . S
C366 N363 1.350 . S
C366 C365 1.434 . S
C367 C368 1.369 . S
C367 C369 1.419 . S
C367 H371 0.930 . S
C368 C367 1.369 . S
C368 C377 1.429 1_545 S
C369 C367 1.419 . S
C369 C370 1.363 1_554 S
C369 H372 0.929 . S
C370 C369 1.363 1_556 S
C370 C376 1.428 1_545 S
H371 C367 0.930 . S
H372 C369 0.929 . S
S373 N374 1.613 . S
S373 N375 1.610 . S
N374 S373 1.613 . S
N374 C377 1.350 1_556 S
N375 S373 1.610 . S
N375 C376 1.351 . S
C376 C370 1.428 1_565 S
C376 N375 1.351 . S
C376 C377 1.434 1_556 S
C377 C368 1.429 1_565 S
C377 N374 1.350 1_554 S
C377 C376 1.434 1_554 S
C378 C379 1.369 . S
C378 C380 1.419 . S
C378 H382 0.930 . S
C379 C378 1.369 . S
C379 C388 1.429 1_554 S
C380 C378 1.419 . S
C380 C381 1.363 1_554 S
C380 H383 0.929 . S
C381 C380 1.363 1_556 S
C381 C387 1.428 . S
H382 C378 0.930 . S
H383 C380 0.929 . S
S384 N385 1.613 . S
S384 N386 1.610 . S
N385 S384 1.613 . S
N385 C388 1.350 . S
N386 S384 1.610 . S
N386 C387 1.351 . S
C387 C381 1.428 . S
C387 N386 1.351 . S
C387 C388 1.434 . S
C388 C379 1.429 1_556 S
C388 N385 1.350 . S
C388 C387 1.434 . S
C389 C390 1.369 . S
C389 C391 1.419 . S
C389 H393 0.930 . S
C390 C389 1.369 . S
C390 C399 1.429 . S
C391 C389 1.419 . S
C391 C392 1.363 1_554 S
C391 H394 0.929 . S
C392 C391 1.363 1_556 S
C392 C398 1.428 . S
H393 C389 0.930 . S
H394 C391 0.929 . S
S395 N396 1.613 1_556 S
S395 N397 1.610 . S
N396 S395 1.613 1_554 S
N396 C399 1.350 . S
N397 S395 1.610 . S
N397 C398 1.351 . S
C398 C392 1.428 . S
C398 N397 1.351 . S
C398 C399 1.434 1_556 S
C399 C390 1.429 . S
C399 N396 1.350 . S
C399 C398 1.434 1_554 S
C400 C401 1.369 1_455 S
C400 C402 1.419 . S
C400 H404 0.930 . S
C401 C400 1.369 1_655 S
C401 C410 1.429 . S
C402 C400 1.419 . S
C402 C403 1.363 1_455 S
C402 H405 0.929 . S
C403 C402 1.363 1_655 S
C403 C409 1.428 . S
H404 C400 0.930 . S
H405 C402 0.929 . S
S406 N407 1.613 . S
S406 N408 1.610 . S
N407 S406 1.613 . S
N407 C410 1.350 . S
N408 S406 1.610 . S
N408 C409 1.351 . S
C409 C403 1.428 . S
C409 N408 1.351 . S
C409 C410 1.434 . S
C410 C401 1.429 . S
C410 N407 1.350 . S
C410 C409 1.434 . S
C411 C412 1.369 1_545 S
C411 C413 1.419 . S
C411 H415 0.930 . S
C412 C411 1.369 1_565 S
C412 C421 1.429 . S
C413 C411 1.419 . S
C413 C414 1.363 1_545 S
C413 H416 0.929 . S
C414 C413 1.363 1_565 S
C414 C420 1.428 . S
H415 C411 0.930 . S
H416 C413 0.929 . S
S417 N418 1.613 . S
S417 N419 1.610 . S
N418 S417 1.613 . S
N418 C421 1.350 . S
N419 S417 1.610 . S
N419 C420 1.351 . S
C420 C414 1.428 . S
C420 N419 1.351 . S
C420 C421 1.434 . S
C421 C412 1.429 . S
C421 N418 1.350 . S
C421 C420 1.434 . S
C422 C423 1.369 . S
C422 C424 1.419 . S
C422 H426 0.930 . S
C423 C422 1.369 . S
C423 C432 1.429 . S
C424 C422 1.419 . S
C424 C425 1.363 . S
C424 H427 0.929 . S
C425 C424 1.363 . S
C425 C431 1.428 . S
H426 C422 0.930 . S
H427 C424 0.929 . S
S428 N429 1.613 . S
S428 N430 1.610 . S
N429 S428 1.613 . S
N429 C432 1.350 . S
N430 S428 1.610 . S
N430 C431 1.351 . S
C431 C425 1.428 . S
C431 N430 1.351 . S
C431 C432 1.434 . S
C432 C423 1.429 . S
C432 N429 1.350 . S
C432 C431 1.434 . S
C433 C434 1.369 . S
C433 C435 1.419 . S
C433 H437 0.930 . S
C434 C433 1.369 . S
C434 C443 1.429 . S
C435 C433 1.419 . S
C435 C436 1.363 . S
C435 H438 0.929 . S
C436 C435 1.363 . S
C436 C442 1.428 . S
H437 C433 0.930 . S
H438 C435 0.929 . S
S439 N440 1.613 . S
S439 N441 1.610 . S
N440 S439 1.613 . S
N440 C443 1.350 . S
N441 S439 1.610 . S
N441 C442 1.351 . S
C442 C436 1.428 . S
C442 N441 1.351 . S
C442 C443 1.434 . S
C443 C434 1.429 . S
C443 N440 1.350 . S
C443 C442 1.434 . S
C181 C74 1.572 . S
C183 C104 1.562 . S
C194 C127 1.613 . S
C192 C85 1.629 . S
C205 C150 1.604 . S
C203 C52 1.598 . S
C216 C177 1.511 . S
C214 C63 1.611 . S
C227 C105 1.532 . S
C225 C30 1.514 1_566 S
C236 C41 1.469 . S
C238 C128 1.499 . S
C247 C8 1.459 . S
C249 C151 1.478 . S
C258 C19 1.531 1_656 S
C260 C176 1.546 1_455 S
C271 C106 0.772 . S
C269 C62 0.772 . S
C282 C129 0.699 . S
C280 C73 0.710 . S
C293 C152 0.745 . S
C291 C84 0.745 . S
C302 C51 0.931 . S
C304 C178 0.861 . S
C313 C18 1.000 . S
C315 C109 0.956 . S
C326 C132 0.961 . S
C324 C29 0.987 . S
C337 C155 0.929 . S
C335 C40 0.982 . S
C346 C7 0.720 . S
C348 C175 0.731 . S
C357 C60 1.457 . S
C359 C107 1.541 1_554 S
C368 C71 1.325 . S
C370 C130 1.516 . S
C381 C153 1.534 . S
C379 C82 1.392 . S
C392 C174 1.428 . S
C390 C49 1.135 . S
C401 C16 1.466 1_655 S
C403 C108 1.545 . S
C414 C131 1.498 . S
C412 C27 1.448 1_565 S
C425 C154 1.478 . S
C423 C38 1.370 . S
C434 C5 1.432 . S
C436 C173 1.680 . S
