# Generated by pormake.
# Topology anh, (6,3)-cn, num edge types: 1
# Building blocks:
#     Node 0, Type 0, BuildingBlock: CUKXOW_clean_sbu_0, # of connection points: 6
#     Node 1, Type 0, BuildingBlock: CUKXOW_clean_sbu_0, # of connection points: 6
#     Node 2, Type 0, BuildingBlock: CUKXOW_clean_sbu_0, # of connection points: 6
#     Node 3, Type 1, BuildingBlock: OLANEW_clean_sbu_2, # of connection points: 3
#     Node 4, Type 1, BuildingBlock: OLANEW_clean_sbu_2, # of connection points: 3
#     Node 5, Type 1, BuildingBlock: OLANEW_clean_sbu_2, # of connection points: 3
#     Node 6, Type 1, BuildingBlock: OLANEW_clean_sbu_2, # of connection points: 3
#     Node 7, Type 1, BuildingBlock: OLANEW_clean_sbu_2, # of connection points: 3
#     Node 8, Type 1, BuildingBlock: OLANEW_clean_sbu_2, # of connection points: 3
#     Edge 9, Type (0, 1), BuildingBlock: UVAHIK_clean_linker_0, # of connection points: 2
#     Edge 10, Type (0, 1), BuildingBlock: UVAHIK_clean_linker_0, # of connection points: 2
#     Edge 11, Type (0, 1), BuildingBlock: UVAHIK_clean_linker_0, # of connection points: 2
#     Edge 12, Type (0, 1), BuildingBlock: UVAHIK_clean_linker_0, # of connection points: 2
#     Edge 13, Type (0, 1), BuildingBlock: UVAHIK_clean_linker_0, # of connection points: 2
#     Edge 14, Type (0, 1), BuildingBlock: UVAHIK_clean_linker_0, # of connection points: 2
#     Edge 15, Type (0, 1), BuildingBlock: UVAHIK_clean_linker_0, # of connection points: 2
#     Edge 16, Type (0, 1), BuildingBlock: UVAHIK_clean_linker_0, # of connection points: 2
#     Edge 17, Type (0, 1), BuildingBlock: UVAHIK_clean_linker_0, # of connection points: 2
#     Edge 18, Type (0, 1), BuildingBlock: UVAHIK_clean_linker_0, # of connection points: 2
#     Edge 19, Type (0, 1), BuildingBlock: UVAHIK_clean_linker_0, # of connection points: 2
#     Edge 20, Type (0, 1), BuildingBlock: UVAHIK_clean_linker_0, # of connection points: 2
#     Edge 21, Type (0, 1), BuildingBlock: UVAHIK_clean_linker_0, # of connection points: 2
#     Edge 22, Type (0, 1), BuildingBlock: UVAHIK_clean_linker_0, # of connection points: 2
#     Edge 23, Type (0, 1), BuildingBlock: UVAHIK_clean_linker_0, # of connection points: 2
#     Edge 24, Type (0, 1), BuildingBlock: UVAHIK_clean_linker_0, # of connection points: 2
#     Edge 25, Type (0, 1), BuildingBlock: UVAHIK_clean_linker_0, # of connection points: 2
#     Edge 26, Type (0, 1), BuildingBlock: UVAHIK_clean_linker_0, # of connection points: 2
# Relax obj value: 0.078
# Max RMSD: 0.150
# Mean RMSD: 0.109
data_MOF--net-anh--node1-CUKXOW_clean_sbu_0--node2-OLANEW_clean_sbu_2--edge1-UVAHIK_clean_linker_0
_symmetry_space_group_name_H-M    P1
_symmetry_Int_Tables_number       1
_symmetry_cell_setting            triclinic
loop_
_symmetry_equiv_pos_as_xyz
'x, y, z'
_cell_length_a     41.522719
_cell_length_b     40.242728
_cell_length_c     64.407492
_cell_angle_alpha  95.227246
_cell_angle_beta   90.112455
_cell_angle_gamma 117.00545
loop_
_atom_site_label
_atom_site_type_symbol
_atom_site_fract_x
_atom_site_fract_y
_atom_site_fract_z
_atom_type_partial_charge
Tb0 Tb 0.06104 0.5314 0.15848 0.0
C1 C 0.02807 0.49867 0.19994 0.0
Tb2 Tb 0.99739 0.45268 0.1548 0.0
O3 O 0.02482 0.55528 0.16848 0.0
O4 O 0.00587 0.50622 0.14804 0.0
O5 O 0.05622 0.52494 0.19151 0.0
C6 C 0.93088 0.39636 0.15625 0.0
O7 O 0.00182 0.46951 0.1886 0.0
C8 C 0.06145 0.45509 0.15482 0.0
C9 C 0.03255 0.48541 0.11406 0.0
O10 O 0.94023 0.4315 0.16142 0.0
O11 O 0.9591 0.39272 0.15036 0.0
O12 O 0.03267 0.42716 0.14578 0.0
O13 O 0.05254 0.47758 0.16501 0.0
O14 O 0.0015 0.46334 0.12208 0.0
O15 O 0.06093 0.51018 0.12598 0.0
C16 C 0.12451 0.59166 0.15596 0.0
O17 O 0.09324 0.58849 0.15017 0.0
O18 O 0.12006 0.56103 0.16337 0.0
C19 C 0.99653 0.52801 0.15861 0.0
Tb20 Tb 0.47652 0.00095 0.5026 0.0
C21 C 0.51372 0.03589 0.46229 0.0
Tb22 Tb 0.55178 0.06886 0.50785 0.0
O23 O 0.45355 0.03674 0.4928 0.0
O24 O 0.49828 0.05839 0.51391 0.0
O25 O 0.48841 0.00571 0.46984 0.0
C26 C 0.60699 0.13781 0.50916 0.0
O27 O 0.53928 0.06442 0.47431 0.0
C28 C 0.55118 0.00333 0.50669 0.0
C29 C 0.5168 0.03118 0.54733 0.0
O30 O 0.57316 0.12927 0.50606 0.0
O31 O 0.60979 0.1075 0.51139 0.0
O32 O 0.57656 0.03382 0.51633 0.0
O33 O 0.53011 0.01138 0.49665 0.0
O34 O 0.53796 0.06374 0.54026 0.0
O35 O 0.49437 0.00141 0.53473 0.0
C36 C 0.4175 0.9352 0.50309 0.0
O37 O 0.4226 0.96648 0.51348 0.0
O38 O 0.44562 0.9409 0.49234 0.0
C39 C 0.47813 0.06678 0.50324 0.0
Tb40 Tb 0.50692 0.51442 0.83244 0.0
C41 C 0.54981 0.52085 0.87408 0.0
Tb42 Tb 0.58246 0.51847 0.82935 0.0
O43 O 0.48295 0.45611 0.83998 0.0
O44 O 0.52853 0.47772 0.82217 0.0
O45 O 0.52447 0.52736 0.86533 0.0
C46 C 0.63867 0.50341 0.83056 0.0
O47 O 0.57377 0.51444 0.86292 0.0
C48 C 0.5799 0.5826 0.83072 0.0
C49 C 0.53899 0.51048 0.78773 0.0
O50 O 0.63815 0.53134 0.82224 0.0
O51 O 0.60768 0.48417 0.83842 0.0
O52 O 0.60514 0.5769 0.82171 0.0
O53 O 0.56068 0.55471 0.84003 0.0
O54 O 0.56434 0.50401 0.7965 0.0
O55 O 0.51534 0.5173 0.7989 0.0
C56 C 0.45479 0.53539 0.83022 0.0
O57 O 0.45164 0.50555 0.83815 0.0
O58 O 0.48698 0.55299 0.82347 0.0
C59 C 0.50861 0.45017 0.83164 0.0
O60 O 0.50703 0.06212 0.23044 0.0
Cd61 Cd 0.50253 0.0615 0.19259 0.0
O62 O 0.5158 0.01196 0.22817 0.0
Cd63 Cd 0.50293 0.99827 0.19472 0.0
O64 O 0.46322 0.95282 0.17343 0.0
C65 C 0.46184 0.92083 0.17447 0.0
O66 O 0.48618 0.91838 0.18644 0.0
C67 C 0.51365 0.03866 0.2392 0.0
C68 C 0.56922 0.11213 0.17935 0.0
O69 O 0.54507 0.12245 0.1845 0.0
O70 O 0.5615 0.0776 0.18003 0.0
O71 O 0.54143 0.52185 0.55399 0.0
Cd72 Cd 0.53615 0.51612 0.51598 0.0
O73 O 0.49997 0.54112 0.55928 0.0
Cd74 Cd 0.50037 0.55929 0.52831 0.0
O75 O 0.50625 0.60983 0.51508 0.0
C76 C 0.52997 0.64022 0.52472 0.0
O77 O 0.54948 0.63828 0.54022 0.0
C78 C 0.52132 0.52957 0.56628 0.0
C79 C 0.52536 0.44342 0.50329 0.0
O80 O 0.55715 0.47121 0.50439 0.0
O81 O 0.4986 0.45027 0.50728 0.0
O82 O 0.13367 0.66109 0.92296 0.0
Cd83 Cd 0.15524 0.70019 0.89428 0.0
O84 O 0.09282 0.61721 0.90113 0.0
Cd85 Cd 0.0477 0.56233 0.89142 0.0
O86 O 0.99263 0.52484 0.87962 0.0
C87 C 0.98342 0.5308 0.86207 0.0
O88 O 0.00795 0.5568 0.85184 0.0
C89 C 0.10743 0.62838 0.91946 0.0
C90 C 0.2059 0.6831 0.8743 0.0
O91 O 0.21541 0.70894 0.88956 0.0
O92 O 0.17246 0.6661 0.86805 0.0
O93 O 0.02079 0.51508 0.43487 0.0
Cd94 Cd 0.02311 0.52449 0.47296 0.0
O95 O 0.98917 0.54601 0.43189 0.0
Cd96 Cd 0.97244 0.53894 0.46393 0.0
O97 O 0.93373 0.49987 0.48373 0.0
C98 C 0.90121 0.49477 0.48265 0.0
O99 O 0.89312 0.51556 0.47116 0.0
C100 C 0.00702 0.53011 0.42353 0.0
C101 C 0.08537 0.59079 0.48536 0.0
O102 O 0.08553 0.55895 0.48477 0.0
O103 O 0.05552 0.59114 0.48069 0.0
O104 O 0.50893 0.97321 0.77566 0.0
Cd105 Cd 0.50346 0.96499 0.8128 0.0
O106 O 0.54876 0.0329 0.77984 0.0
Cd107 Cd 0.54362 0.04349 0.81318 0.0
O108 O 0.5417 0.09251 0.82958 0.0
C109 C 0.56323 0.12319 0.82273 0.0
O110 O 0.58531 0.12245 0.80831 0.0
C111 C 0.53034 0.00298 0.76795 0.0
C112 C 0.51418 0.90312 0.81972 0.0
O113 O 0.48274 0.89918 0.81449 0.0
O114 O 0.54043 0.93643 0.82212 0.0
O115 O 0.56704 0.51005 0.10774 0.0
Cd116 Cd 0.57157 0.50094 0.14442 0.0
O117 O 0.51708 0.51671 0.1058 0.0
Cd118 Cd 0.49647 0.50966 0.13714 0.0
O119 O 0.44479 0.50186 0.14989 0.0
C120 C 0.41682 0.4777 0.13919 0.0
O121 O 0.4212 0.45832 0.12286 0.0
C122 C 0.54421 0.51555 0.09726 0.0
C123 C 0.63854 0.50192 0.15181 0.0
O124 O 0.61064 0.47158 0.14497 0.0
O125 O 0.63464 0.53166 0.15568 0.0
C126 C 0.12621 0.48474 0.1682 0.0
C127 C 0.09826 0.4582 0.15443 0.0
C128 C 0.16108 0.48758 0.16757 0.0
C129 C 0.21992 0.46345 0.13277 0.0
H130 H 0.27661 0.47776 0.18374 0.0
C131 C 0.34997 0.44683 0.13135 0.0
C132 C 0.38026 0.47385 0.1435 0.0
C133 C 0.31587 0.44509 0.13383 0.0
C134 C 0.26126 0.47414 0.16937 0.0
H135 H 0.08448 0.41339 0.12951 0.0
H136 H 0.14502 0.41787 0.12855 0.0
H137 H 0.21666 0.47503 0.18569 0.0
H138 H 0.39814 0.51948 0.16834 0.0
H139 H 0.33838 0.51652 0.17262 0.0
H140 H 0.26427 0.46244 0.11642 0.0
C141 C 0.14037 0.43704 0.13958 0.0
C142 C 0.22692 0.47262 0.17047 0.0
C143 C 0.10561 0.43425 0.14022 0.0
C144 C 0.37536 0.49831 0.15873 0.0
C145 C 0.3411 0.49655 0.16122 0.0
C146 C 0.25412 0.46492 0.13167 0.0
C147 C 0.16862 0.46384 0.15317 0.0
C148 C 0.2057 0.4669 0.15217 0.0
C149 C 0.31109 0.47036 0.14851 0.0
C150 C 0.2751 0.46991 0.14993 0.0
H151 H 0.12109 0.50313 0.17955 0.0
H152 H 0.18222 0.50867 0.17817 0.0
H153 H 0.2047 0.45985 0.11835 0.0
H154 H 0.35265 0.42732 0.11959 0.0
H155 H 0.29321 0.42403 0.12409 0.0
C156 C 0.6728 0.18186 0.51449 0.0
C157 C 0.63741 0.1758 0.50989 0.0
C158 C 0.70183 0.21772 0.51475 0.0
C159 C 0.72478 0.31872 0.51679 0.0
H160 H 0.81229 0.32653 0.4915 0.0
C161 C 0.83582 0.4554 0.48911 0.0
C162 C 0.87207 0.46228 0.49142 0.0
C163 C 0.8078 0.42209 0.4947 0.0
C164 C 0.78829 0.32485 0.49894 0.0
H165 H 0.60428 0.20227 0.50224 0.0
H166 H 0.65504 0.26486 0.50219 0.0
H167 H 0.76209 0.26501 0.49437 0.0
H168 H 0.9074 0.44055 0.50258 0.0
H169 H 0.85846 0.3825 0.5124 0.0
H170 H 0.7509 0.37884 0.52077 0.0
C171 C 0.66044 0.24213 0.50597 0.0
C172 C 0.75946 0.28953 0.50059 0.0
C173 C 0.63139 0.20625 0.50582 0.0
C174 C 0.87977 0.43603 0.50046 0.0
C175 C 0.85173 0.40266 0.50598 0.0
C176 C 0.75363 0.35413 0.51504 0.0
C177 C 0.69608 0.24825 0.51028 0.0
C178 C 0.72723 0.28598 0.5094 0.0
C179 C 0.81542 0.39491 0.50266 0.0
C180 C 0.78561 0.35756 0.50596 0.0
H181 H 0.6781 0.15885 0.51784 0.0
H182 H 0.7288 0.2215 0.51849 0.0
H183 H 0.70058 0.31702 0.52395 0.0
H184 H 0.82895 0.47509 0.48225 0.0
H185 H 0.7801 0.41687 0.49184 0.0
C186 C 0.59075 0.64143 0.81538 0.0
C187 C 0.57424 0.61611 0.8302 0.0
C188 C 0.58407 0.67238 0.81446 0.0
C189 C 0.58136 0.74641 0.82305 0.0
H190 H 0.4856 0.73612 0.83382 0.0
C191 C 0.55333 0.87471 0.83071 0.0
C192 C 0.52021 0.87013 0.82222 0.0
C193 C 0.55955 0.84365 0.83226 0.0
C194 C 0.51242 0.73947 0.83058 0.0
H195 H 0.53867 0.60353 0.85604 0.0
H196 H 0.52756 0.65781 0.8548 0.0
H197 H 0.49699 0.68203 0.8344 0.0
H198 H 0.46755 0.8293 0.80875 0.0
H199 H 0.47868 0.77529 0.81091 0.0
H200 H 0.59643 0.8034 0.81839 0.0
C201 C 0.54494 0.65349 0.8435 0.0
C202 C 0.51911 0.70851 0.8312 0.0
C203 C 0.55149 0.62252 0.84433 0.0
C204 C 0.4933 0.83377 0.81549 0.0
C205 C 0.49964 0.80274 0.81684 0.0
C206 C 0.57459 0.77727 0.82224 0.0
C207 C 0.56099 0.67876 0.82849 0.0
C208 C 0.55371 0.7116 0.82753 0.0
C209 C 0.53293 0.80726 0.82514 0.0
C210 C 0.54007 0.77429 0.82607 0.0
H211 H 0.60828 0.63695 0.80426 0.0
H212 H 0.59651 0.69091 0.80251 0.0
H213 H 0.60843 0.75 0.82037 0.0
H214 H 0.57454 0.90234 0.83615 0.0
H215 H 0.58523 0.84821 0.83913 0.0
C216 C 0.95176 0.54972 0.17146 0.0
C217 C 0.95958 0.52464 0.15847 0.0
C218 C 0.91678 0.54657 0.17132 0.0
C219 C 0.82977 0.50321 0.1394 0.0
H220 H 0.79194 0.52716 0.19049 0.0
C221 C 0.68025 0.47289 0.14549 0.0
C222 C 0.67446 0.50289 0.15432 0.0
C223 C 0.71467 0.47474 0.14667 0.0
C224 C 0.80225 0.52056 0.1761 0.0
H225 H 0.93722 0.47702 0.13488 0.0
H226 H 0.8759 0.47021 0.13535 0.0
H227 H 0.85248 0.53143 0.19121 0.0
H228 H 0.70009 0.55792 0.17179 0.0
H229 H 0.76012 0.5608 0.17414 0.0
H230 H 0.77909 0.4916 0.12445 0.0
C231 C 0.89676 0.4929 0.14536 0.0
C232 C 0.83704 0.52317 0.17645 0.0
C233 C 0.93185 0.49645 0.14528 0.0
C234 C 0.70367 0.53436 0.16481 0.0
C235 C 0.738 0.53597 0.16623 0.0
C236 C 0.79485 0.50014 0.13913 0.0
C237 C 0.88871 0.51801 0.15832 0.0
C238 C 0.85138 0.5147 0.15808 0.0
C239 C 0.74395 0.50638 0.15694 0.0
C240 C 0.78077 0.50892 0.15744 0.0
H241 H 0.97273 0.57192 0.18168 0.0
H242 H 0.91193 0.5669 0.18123 0.0
H243 H 0.83999 0.49719 0.12484 0.0
H244 H 0.65836 0.44826 0.13728 0.0
H245 H 0.71841 0.45138 0.13952 0.0
C246 C 0.37882 0.86879 0.48856 0.0
C247 C 0.38459 0.8992 0.5032 0.0
C248 C 0.3469 0.83513 0.48822 0.0
C249 C 0.25296 0.79639 0.50642 0.0
H250 H 0.25305 0.70134 0.4901 0.0
C251 C 0.12072 0.66041 0.48575 0.0
C252 C 0.11903 0.62617 0.49025 0.0
C253 C 0.15318 0.69353 0.48887 0.0
C254 C 0.2525 0.72753 0.49499 0.0
H255 H 0.36234 0.91821 0.52935 0.0
H256 H 0.30728 0.85916 0.52934 0.0
H257 H 0.30984 0.7587 0.49324 0.0
H258 H 0.14973 0.59997 0.50224 0.0
H259 H 0.20608 0.65792 0.50841 0.0
H260 H 0.19583 0.76513 0.50892 0.0
C261 C 0.32669 0.86142 0.51765 0.0
C262 C 0.28512 0.76061 0.49646 0.0
C263 C 0.35836 0.89521 0.51778 0.0
C264 C 0.15024 0.6259 0.49849 0.0
C265 C 0.18264 0.65912 0.50187 0.0
C266 C 0.22042 0.76329 0.5052 0.0
C267 C 0.32031 0.83102 0.50272 0.0
C268 C 0.28577 0.79555 0.50198 0.0
C269 C 0.18469 0.69332 0.49683 0.0
C270 C 0.21966 0.72842 0.49924 0.0
H271 H 0.39864 0.87125 0.4771 0.0
H272 H 0.3428 0.81265 0.47628 0.0
H273 H 0.25218 0.82271 0.51046 0.0
H274 H 0.0972 0.66152 0.47923 0.0
H275 H 0.15373 0.71909 0.48445 0.0
C276 C 0.49331 0.38966 0.84639 0.0
C277 C 0.51395 0.41665 0.83313 0.0
C278 C 0.49927 0.35848 0.8482 0.0
C279 C 0.5681 0.32514 0.84004 0.0
H280 H 0.48665 0.22576 0.83659 0.0
C281 C 0.58373 0.19133 0.82006 0.0
C282 C 0.56081 0.15837 0.82881 0.0
C283 C 0.57927 0.22366 0.8238 0.0
C284 C 0.50971 0.25333 0.838 0.0
H285 H 0.55621 0.43184 0.81092 0.0
H286 H 0.56696 0.37774 0.81423 0.0
H287 H 0.47585 0.28051 0.83672 0.0
H288 H 0.51617 0.13403 0.84913 0.0
H289 H 0.50869 0.19083 0.85594 0.0
H290 H 0.60201 0.29811 0.84115 0.0
C291 C 0.54652 0.38084 0.82346 0.0
C292 C 0.50349 0.2847 0.83801 0.0
C293 C 0.54031 0.41175 0.82152 0.0
C294 C 0.53419 0.15892 0.84209 0.0
C295 C 0.52975 0.19139 0.84587 0.0
C296 C 0.57433 0.29383 0.84016 0.0
C297 C 0.52615 0.3539 0.83686 0.0
C298 C 0.53263 0.32087 0.83861 0.0
C299 C 0.55185 0.22396 0.83646 0.0
C300 C 0.54522 0.25747 0.83872 0.0
H301 H 0.4728 0.39283 0.85551 0.0
H302 H 0.48325 0.33825 0.85871 0.0
H303 H 0.59111 0.35273 0.84091 0.0
H304 H 0.60453 0.19193 0.80975 0.0
H305 H 0.59648 0.24799 0.81606 0.0
C306 C 0.57029 0.95961 0.5214 0.0
C307 C 0.54817 0.96549 0.50723 0.0
C308 C 0.56749 0.92385 0.52226 0.0
C309 C 0.53506 0.83088 0.49207 0.0
H310 H 0.54148 0.79938 0.5464 0.0
C311 C 0.50994 0.67978 0.50536 0.0
C312 C 0.53338 0.6771 0.52017 0.0
C313 C 0.51144 0.71458 0.50259 0.0
C314 C 0.54 0.80788 0.53109 0.0
H315 H 0.5065 0.93902 0.48243 0.0
H316 H 0.50087 0.87612 0.48421 0.0
H317 H 0.54383 0.86042 0.54407 0.0
H318 H 0.57772 0.70911 0.54305 0.0
H319 H 0.58044 0.76948 0.53812 0.0
H320 H 0.53109 0.778 0.47918 0.0
C321 C 0.52056 0.89918 0.49459 0.0
C322 C 0.54136 0.8429 0.52975 0.0
C323 C 0.52344 0.93506 0.49373 0.0
C324 C 0.55906 0.71006 0.53163 0.0
C325 C 0.56049 0.74469 0.5289 0.0
C326 C 0.53359 0.79568 0.49343 0.0
C327 C 0.54245 0.89313 0.50896 0.0
C328 C 0.53934 0.85505 0.51023 0.0
C329 C 0.5363 0.74732 0.51464 0.0
C330 C 0.53649 0.784 0.51296 0.0
H331 H 0.58973 0.98265 0.53192 0.0
H332 H 0.58523 0.92037 0.53325 0.0
H333 H 0.53374 0.83951 0.47679 0.0
H334 H 0.48985 0.65491 0.49627 0.0
H335 H 0.49236 0.71568 0.49153 0.0
C336 C 0.70045 0.51576 0.82014 0.0
C337 C 0.66966 0.49509 0.83106 0.0
C338 C 0.73045 0.5089 0.8211 0.0
C339 C 0.77708 0.47725 0.85574 0.0
H340 H 0.8329 0.47746 0.8075 0.0
C341 C 0.91818 0.48628 0.86605 0.0
C342 C 0.94488 0.51314 0.85484 0.0
C343 C 0.88149 0.47382 0.86094 0.0
C344 C 0.81768 0.47743 0.82114 0.0
H345 H 0.64541 0.45047 0.85114 0.0
H346 H 0.6984 0.43893 0.8532 0.0
H347 H 0.77368 0.47549 0.80275 0.0
H348 H 0.95401 0.54622 0.82868 0.0
H349 H 0.89042 0.52542 0.82017 0.0
H350 H 0.82166 0.48142 0.8743 0.0
C351 C 0.69921 0.46033 0.84385 0.0
C352 C 0.78375 0.47618 0.81839 0.0
C353 C 0.66899 0.46692 0.84267 0.0
C354 C 0.93415 0.52559 0.83768 0.0
C355 C 0.89754 0.51339 0.83269 0.0
C356 C 0.81115 0.4789 0.85852 0.0
C357 C 0.73031 0.48146 0.83318 0.0
C358 C 0.76358 0.47707 0.83571 0.0
C359 C 0.87075 0.48815 0.84462 0.0
C360 C 0.83232 0.48008 0.8413 0.0
H361 H 0.70155 0.53756 0.81103 0.0
H362 H 0.75423 0.52593 0.81295 0.0
H363 H 0.76222 0.4783 0.86939 0.0
H364 H 0.92559 0.47583 0.87922 0.0
H365 H 0.86156 0.4538 0.87019 0.0
C366 C 0.19188 0.62477 0.16048 0.0
C367 C 0.15951 0.62463 0.15408 0.0
C368 C 0.22505 0.65626 0.15885 0.0
C369 C 0.26409 0.75794 0.15626 0.0
H370 H 0.34978 0.74869 0.14 0.0
C371 C 0.40123 0.88847 0.15519 0.0
C372 C 0.43008 0.88638 0.16543 0.0
C373 C 0.3689 0.85603 0.14968 0.0
C374 C 0.3261 0.75171 0.14462 0.0
H375 H 0.13615 0.6567 0.14062 0.0
H376 H 0.19407 0.71172 0.13769 0.0
H377 H 0.29143 0.69265 0.13882 0.0
H378 H 0.44846 0.84834 0.17666 0.0
H379 H 0.3921 0.79201 0.16731 0.0
H380 H 0.2987 0.81673 0.1626 0.0
C381 C 0.1939 0.68774 0.14418 0.0
C382 C 0.29272 0.71963 0.14398 0.0
C383 C 0.16078 0.65624 0.14579 0.0
C384 C 0.42672 0.85098 0.16887 0.0
C385 C 0.39441 0.81859 0.16339 0.0
C386 C 0.29742 0.78996 0.15693 0.0
C387 C 0.2264 0.6882 0.1508 0.0
C388 C 0.26144 0.72235 0.15008 0.0
C389 C 0.36477 0.82085 0.15429 0.0
C390 C 0.32892 0.78719 0.1514 0.0
H391 H 0.19157 0.60066 0.1669 0.0
H392 H 0.24955 0.65591 0.16434 0.0
H393 H 0.24062 0.76095 0.16134 0.0
H394 H 0.40304 0.91529 0.15217 0.0
H395 H 0.34678 0.85863 0.14234 0.0
C396 C 0.4677 0.11292 0.48456 0.0
C397 C 0.48326 0.10515 0.50163 0.0
C398 C 0.47308 0.14942 0.48275 0.0
C399 C 0.53194 0.24897 0.50303 0.0
H400 H 0.45243 0.26358 0.48168 0.0
C401 C 0.54887 0.39706 0.49318 0.0
C402 C 0.51996 0.40439 0.49907 0.0
C403 C 0.54461 0.36035 0.4912 0.0
C404 C 0.47487 0.26008 0.48781 0.0
H405 H 0.51598 0.12892 0.53041 0.0
H406 H 0.52472 0.19254 0.52763 0.0
H407 H 0.44458 0.20034 0.4837 0.0
H408 H 0.46366 0.37883 0.50702 0.0
H409 H 0.45645 0.31516 0.5041 0.0
H410 H 0.56163 0.30869 0.50811 0.0
C411 C 0.50916 0.17081 0.51529 0.0
C412 C 0.47053 0.2237 0.4887 0.0
C413 C 0.50398 0.13434 0.51699 0.0
C414 C 0.48643 0.37414 0.50234 0.0
C415 C 0.48226 0.33752 0.50056 0.0
C416 C 0.53617 0.28534 0.50232 0.0
C417 C 0.49381 0.17886 0.49813 0.0
C418 C 0.49891 0.21764 0.49648 0.0
C419 C 0.51143 0.33015 0.49525 0.0
C420 C 0.50759 0.29141 0.49485 0.0
H421 H 0.4518 0.09087 0.47242 0.0
H422 H 0.46131 0.1546 0.46916 0.0
H423 H 0.55461 0.24545 0.50879 0.0
H424 H 0.57501 0.41974 0.49043 0.0
H425 H 0.56747 0.35572 0.48667 0.0
C426 C 0.39496 0.5307 0.84023 0.0
C427 C 0.42747 0.54914 0.83028 0.0
C428 C 0.37032 0.54549 0.84153 0.0
C429 C 0.36636 0.63506 0.83966 0.0
H430 H 0.26293 0.57084 0.83904 0.0
C431 C 0.26757 0.68669 0.87412 0.0
C432 C 0.23237 0.67167 0.86507 0.0
C433 C 0.29155 0.67328 0.86683 0.0
C434 C 0.29168 0.58927 0.83892 0.0
H435 H 0.45956 0.59677 0.81339 0.0
H436 H 0.41623 0.62213 0.81517 0.0
H437 H 0.30346 0.54324 0.83123 0.0
H438 H 0.19522 0.632 0.84061 0.0
H439 H 0.2374 0.60913 0.82755 0.0
H440 H 0.35457 0.68114 0.84706 0.0
C441 C 0.40992 0.5967 0.82234 0.0
C442 C 0.31498 0.57336 0.83474 0.0
C443 C 0.43462 0.58203 0.82118 0.0
C444 C 0.22211 0.64398 0.84801 0.0
C445 C 0.2462 0.6307 0.84061 0.0
C446 C 0.34305 0.65098 0.84369 0.0
C447 C 0.37768 0.5789 0.83279 0.0
C448 C 0.35265 0.59599 0.83545 0.0
C449 C 0.28098 0.64471 0.85019 0.0
C450 C 0.30548 0.62823 0.84378 0.0
H451 H 0.38897 0.50538 0.84746 0.0
H452 H 0.34606 0.53135 0.84997 0.0
H453 H 0.39523 0.65336 0.84053 0.0
H454 H 0.2763 0.70798 0.88734 0.0
H455 H 0.31791 0.68437 0.87478 0.0
C456 C 0.86525 0.37415 0.16159 0.0
C457 C 0.89385 0.3658 0.15665 0.0
C458 C 0.83 0.34541 0.16197 0.0
C459 C 0.77874 0.24521 0.16827 0.0
H460 H 0.69822 0.25632 0.1452 0.0
C461 C 0.63176 0.12812 0.16785 0.0
C462 C 0.60546 0.13963 0.17362 0.0
C463 C 0.66668 0.15447 0.16371 0.0
C464 C 0.72038 0.25291 0.15186 0.0
H465 H 0.90833 0.32116 0.14815 0.0
H466 H 0.84653 0.27068 0.14887 0.0
H467 H 0.75996 0.30478 0.14208 0.0
H468 H 0.59497 0.18774 0.17917 0.0
H469 H 0.65589 0.23366 0.17227 0.0
H470 H 0.73922 0.19377 0.17844 0.0
C471 C 0.8514 0.29943 0.15255 0.0
C472 C 0.75573 0.28065 0.15005 0.0
C473 C 0.88668 0.32826 0.15206 0.0
C474 C 0.61457 0.17793 0.17471 0.0
C475 C 0.64948 0.20426 0.17063 0.0
C476 C 0.74336 0.21752 0.17015 0.0
C477 C 0.82268 0.30773 0.15751 0.0
C478 C 0.78527 0.27729 0.15842 0.0
C479 C 0.67607 0.1929 0.16529 0.0
C480 C 0.71374 0.22122 0.16215 0.0
H481 H 0.87009 0.40292 0.16517 0.0
H482 H 0.80854 0.35267 0.16611 0.0
H483 H 0.80092 0.24204 0.17509 0.0
H484 H 0.62555 0.09879 0.16678 0.0
H485 H 0.68636 0.14472 0.15934 0.0
C486 C 0.06946 0.50299 0.08275 0.0
C487 C 0.03527 0.48541 0.09119 0.0
C488 C 0.07253 0.50773 0.06156 0.0
C489 C 0.02359 0.51998 0.01835 0.0
H490 H 0.10347 0.52009 0.98719 0.0
C491 C 0.0583 0.57912 0.9381 0.0
C492 C 0.09508 0.60385 0.93647 0.0
C493 C 0.04705 0.5568 0.95467 0.0
C494 C 0.081 0.52015 0.99568 0.0
H495 H 0.97743 0.45728 0.08384 0.0
H496 H 0.98284 0.46568 0.0466 0.0
H497 H 0.09009 0.49265 0.02031 0.0
H498 H 0.14888 0.62487 0.95081 0.0
H499 H 0.12935 0.58621 0.97974 0.0
H500 H 0.01531 0.54867 0.99406 0.0
C501 C 0.00724 0.47598 0.05651 0.0
C502 C 0.07331 0.5044 0.01462 0.0
C503 C 0.00416 0.47097 0.07778 0.0
C504 C 0.12037 0.60589 0.95165 0.0
C505 C 0.10921 0.58347 0.96809 0.0
C506 C 0.03124 0.53568 -0.00064 0.0
C507 C 0.04149 0.49513 0.04827 0.0
C508 C 0.04529 0.50527 0.0265 0.0
C509 C 0.07243 0.55878 0.96985 0.0
C510 C 0.06077 0.53701 0.98819 0.0
H511 H 0.09399 0.5142 0.09264 0.0
H512 H 0.09931 0.52298 0.05581 0.0
H513 H 0.00204 0.52143 0.02721 0.0
H514 H 0.03809 0.57782 0.92699 0.0
H515 H 0.01851 0.53817 0.95568 0.0
C516 C 0.53041 0.07213 0.43116 0.0
C517 C 0.51415 0.03747 0.43949 0.0
C518 C 0.5306 0.07366 0.40957 0.0
C519 C 0.4864 0.01523 0.35966 0.0
H520 H 0.569 0.09203 0.33532 0.0
C521 C 0.51184 0.00917 0.27193 0.0
C522 C 0.51669 0.04091 0.26221 0.0
C523 C 0.51217 0.01015 0.29364 0.0
C524 C 0.54571 0.07062 0.34198 0.0
H525 H 0.4859 0.97722 0.43184 0.0
H526 H 0.48753 0.97966 0.39425 0.0
H527 H 0.56834 0.09048 0.37314 0.0
H528 H 0.52683 0.09891 0.26762 0.0
H529 H 0.52839 0.10081 0.30579 0.0
H530 H 0.46459 0.99464 0.32832 0.0
C531 C 0.49908 0.00583 0.40427 0.0
C532 C 0.54516 0.06977 0.36364 0.0
C533 C 0.49832 0.00436 0.42585 0.0
C534 C 0.52292 0.074 0.27468 0.0
C535 C 0.52393 0.07516 0.29646 0.0
C536 C 0.48729 0.01571 0.33803 0.0
C537 C 0.51505 0.04051 0.39582 0.0
C538 C 0.51551 0.04197 0.37278 0.0
C539 C 0.518 0.04304 0.30607 0.0
C540 C 0.51697 0.04332 0.32902 0.0
H541 H 0.5425 0.09815 0.44133 0.0
H542 H 0.54254 0.10089 0.40371 0.0
H543 H 0.46271 0.99396 0.36607 0.0
H544 H 0.50686 0.98322 0.26276 0.0
H545 H 0.50781 0.98513 0.30074 0.0
C546 C 0.55947 0.50013 0.75217 0.0
C547 C 0.53608 0.50881 0.76471 0.0
C548 C 0.55737 0.49979 0.73048 0.0
C549 C 0.49671 0.49457 0.68673 0.0
H550 H 0.58572 0.5405 0.65765 0.0
C551 C 0.4996 0.53231 0.60237 0.0
C552 C 0.5227 0.52513 0.5888 0.0
C553 C 0.50093 0.52829 0.62361 0.0
C554 C 0.56063 0.52715 0.6655 0.0
H555 H 0.49204 0.52381 0.76422 0.0
H556 H 0.4887 0.52359 0.72652 0.0
H557 H 0.58844 0.53677 0.69514 0.0
H558 H 0.56526 0.50794 0.58695 0.0
H559 H 0.56745 0.50083 0.62406 0.0
H560 H 0.46892 0.48539 0.65713 0.0
C561 C 0.5083 0.51649 0.7334 0.0
C562 C 0.56218 0.52497 0.68698 0.0
C563 C 0.51037 0.51681 0.75506 0.0
C564 C 0.54713 0.51377 0.59697 0.0
C565 C 0.54853 0.50986 0.61825 0.0
C566 C 0.49517 0.49681 0.66528 0.0
C567 C 0.53187 0.50813 0.72086 0.0
C568 C 0.53023 0.50893 0.69787 0.0
C569 C 0.52543 0.51708 0.6318 0.0
C570 C 0.5271 0.5134 0.65445 0.0
H571 H 0.57955 0.49375 0.75908 0.0
H572 H 0.57563 0.49281 0.72123 0.0
H573 H 0.4716 0.48145 0.69459 0.0
H574 H 0.4805 0.54117 0.59662 0.0
H575 H 0.48312 0.53454 0.6337 0.0
C576 C 0.54268 0.05831 0.58365 0.0
C577 C 0.51868 0.02769 0.56993 0.0
C578 C 0.54492 0.05485 0.60492 0.0
C579 C 0.52476 0.9848 0.6426 0.0
H580 H 0.53203 0.06605 0.68277 0.0
C581 C 0.50951 0.97225 0.7314 0.0
C582 C 0.53232 0.00375 0.74502 0.0
C583 C 0.5093 0.97426 0.70984 0.0
C584 C 0.53049 0.0433 0.67175 0.0
H585 H 0.47817 0.96935 0.56786 0.0
H586 H 0.4818 0.96353 0.60501 0.0
H587 H 0.52825 0.07145 0.64561 0.0
H588 H 0.57387 0.0616 0.74656 0.0
H589 H 0.57373 0.06487 0.70904 0.0
H590 H 0.52677 0.95658 0.66885 0.0
C591 C 0.49921 0.99008 0.59925 0.0
C592 C 0.5283 0.0464 0.65045 0.0
C593 C 0.49696 0.99352 0.57797 0.0
C594 C 0.55575 0.03687 0.73655 0.0
C595 C 0.55553 0.03885 0.71504 0.0
C596 C 0.52692 0.98168 0.66395 0.0
C597 C 0.52321 0.02071 0.61297 0.0
C598 C 0.52545 0.01722 0.63562 0.0
C599 C 0.53187 0.0078 0.70146 0.0
C600 C 0.52989 0.01095 0.67876 0.0
H601 H 0.55995 0.08499 0.57799 0.0
H602 H 0.56403 0.07885 0.61502 0.0
H603 H 0.52307 0.96203 0.63156 0.0
H604 H 0.49111 0.94631 0.7374 0.0
H605 H 0.49059 0.94992 0.69979 0.0
C606 C 0.52748 0.5297 0.90917 0.0
C607 C 0.55212 0.52228 0.89712 0.0
C608 C 0.52861 0.52989 0.93083 0.0
C609 C 0.587 0.53857 0.97625 0.0
H610 H 0.49542 0.48971 0.00256 0.0
C611 C 0.5756 0.51417 0.06407 0.0
C612 C 0.54826 0.51925 0.0746 0.0
C613 C 0.57783 0.5155 0.04246 0.0
C614 C 0.52121 0.50387 0.9955 0.0
H615 H 0.59765 0.50973 0.89849 0.0
H616 H 0.59946 0.50992 0.93643 0.0
H617 H 0.4961 0.49002 0.96482 0.0
H618 H 0.5026 0.531 0.0707 0.0
H619 H 0.50681 0.53378 0.03323 0.0
H620 H 0.61205 0.55248 0.00707 0.0
C621 C 0.57945 0.51586 0.92904 0.0
C622 C 0.5216 0.504 0.97386 0.0
C623 C 0.57829 0.51558 0.9073 0.0
C624 C 0.52383 0.52664 0.06311 0.0
C625 C 0.52609 0.52801 0.04157 0.0
C626 C 0.58661 0.53848 0.99798 0.0
C627 C 0.55438 0.52266 0.941 0.0
C628 C 0.55444 0.52163 0.96399 0.0
C629 C 0.55277 0.52193 0.03094 0.0
C630 C 0.55366 0.52141 0.00785 0.0
H631 H 0.50706 0.53516 0.90191 0.0
H632 H 0.50931 0.53585 0.93963 0.0
H633 H 0.61271 0.55264 0.9691 0.0
H634 H 0.59487 0.50841 0.07243 0.0
H635 H 0.59856 0.51047 0.0347 0.0
C636 C 0.05294 0.53266 0.23534 0.0
C637 C 0.02635 0.50162 0.22296 0.0
C638 C 0.05123 0.53581 0.25703 0.0
C639 C 0.01231 0.4805 0.30116 0.0
H640 H 0.03246 0.57691 0.33056 0.0
C641 C 0.02812 0.50822 0.39107 0.0
C642 C 0.01083 0.52818 0.40066 0.0
C643 C 0.03055 0.50527 0.3694 0.0
C644 C 0.02658 0.54977 0.32257 0.0
H645 H 0.97708 0.44947 0.22377 0.0
H646 H 0.9741 0.45512 0.26166 0.0
H647 H 0.03475 0.57068 0.29263 0.0
H648 H 0.98289 0.56106 0.39498 0.0
H649 H 0.98709 0.55583 0.3572 0.0
H650 H 0.00365 0.45948 0.33109 0.0
C651 C 0.99644 0.47683 0.25454 0.0
C652 C 0.02824 0.54628 0.30087 0.0
C653 C 0.99807 0.47371 0.23281 0.0
C654 C 0.99644 0.54552 0.38811 0.0
C655 C 0.99898 0.54268 0.36646 0.0
C656 C 0.0108 0.48402 0.32288 0.0
C657 C 0.02295 0.50798 0.26687 0.0
C658 C 0.0211 0.5116 0.28993 0.0
C659 C 0.01588 0.52235 0.35686 0.0
C660 C 0.01787 0.51869 0.33381 0.0
H661 H 0.07515 0.55468 0.22832 0.0
H662 H 0.07231 0.55992 0.26612 0.0
H663 H 0.00698 0.45349 0.29319 0.0
H664 H 0.03956 0.49457 0.40026 0.0
H665 H 0.04413 0.48981 0.36247 0.0
loop_
_geom_bond_atom_site_label_1
_geom_bond_atom_site_label_2
_geom_bond_distance
_geom_bond_site_symmetry_2
_ccdc_geom_bond_type
Tb0 O3 2.453 1_455 S
Tb0 O4 2.596 1_455 S
Tb0 O5 2.374 . S
Tb0 O13 2.343 . S
Tb0 O15 2.353 . S
Tb0 O17 2.427 . S
Tb0 O18 2.513 . S
C1 O5 1.251 . S
C1 O7 1.263 . S
Tb2 O4 2.343 1_455 S
Tb2 O7 2.353 . S
Tb2 O10 2.427 1_455 S
Tb2 O11 2.513 1_455 S
Tb2 O12 2.453 . S
Tb2 O13 2.596 . S
Tb2 O14 2.374 . S
O3 Tb0 2.453 1_655 S
O3 C19 1.245 . S
O4 Tb0 2.596 1_655 S
O4 Tb2 2.343 1_655 S
O4 C19 1.259 . S
O5 Tb0 2.374 . S
O5 C1 1.251 . S
C6 O10 1.275 . S
C6 O11 1.246 . S
O7 C1 1.263 . S
O7 Tb2 2.353 . S
C8 O12 1.245 . S
C8 O13 1.259 . S
C9 O14 1.250 . S
C9 O15 1.263 . S
O10 Tb2 2.427 1_655 S
O10 C6 1.275 . S
O11 Tb2 2.513 1_655 S
O11 C6 1.246 . S
O12 Tb2 2.453 . S
O12 C8 1.245 . S
O13 Tb0 2.343 . S
O13 Tb2 2.596 . S
O13 C8 1.259 . S
O14 Tb2 2.374 . S
O14 C9 1.250 . S
O15 Tb0 2.353 . S
O15 C9 1.263 . S
C16 O17 1.275 . S
C16 O18 1.246 . S
O17 Tb0 2.427 . S
O17 C16 1.275 . S
O18 Tb0 2.513 . S
O18 C16 1.246 . S
C19 O3 1.245 . S
C19 O4 1.259 . S
Tb20 O23 2.453 . S
Tb20 O24 2.596 . S
Tb20 O25 2.374 . S
Tb20 O33 2.343 1_545 S
Tb20 O35 2.353 . S
Tb20 O37 2.427 1_545 S
Tb20 O38 2.513 1_545 S
C21 O25 1.251 . S
C21 O27 1.263 . S
Tb22 O24 2.343 . S
Tb22 O27 2.353 . S
Tb22 O30 2.427 . S
Tb22 O31 2.513 . S
Tb22 O32 2.453 1_545 S
Tb22 O33 2.596 1_545 S
Tb22 O34 2.374 . S
O23 Tb20 2.453 . S
O23 C39 1.245 . S
O24 Tb20 2.596 . S
O24 Tb22 2.343 . S
O24 C39 1.259 . S
O25 Tb20 2.374 . S
O25 C21 1.251 . S
C26 O30 1.275 . S
C26 O31 1.246 . S
O27 C21 1.263 . S
O27 Tb22 2.353 . S
C28 O32 1.245 . S
C28 O33 1.259 . S
C29 O34 1.250 . S
C29 O35 1.263 . S
O30 Tb22 2.427 . S
O30 C26 1.275 . S
O31 Tb22 2.513 . S
O31 C26 1.246 . S
O32 Tb22 2.453 1_565 S
O32 C28 1.245 . S
O33 Tb20 2.343 1_565 S
O33 Tb22 2.596 1_565 S
O33 C28 1.259 . S
O34 Tb22 2.374 . S
O34 C29 1.250 . S
O35 Tb20 2.353 . S
O35 C29 1.263 . S
C36 O37 1.275 . S
C36 O38 1.246 . S
O37 Tb20 2.427 1_565 S
O37 C36 1.275 . S
O38 Tb20 2.513 1_565 S
O38 C36 1.246 . S
C39 O23 1.245 . S
C39 O24 1.259 . S
Tb40 O43 2.453 . S
Tb40 O44 2.596 . S
Tb40 O45 2.374 . S
Tb40 O53 2.343 . S
Tb40 O55 2.353 . S
Tb40 O57 2.427 . S
Tb40 O58 2.513 . S
C41 O45 1.251 . S
C41 O47 1.263 . S
Tb42 O44 2.343 . S
Tb42 O47 2.353 . S
Tb42 O50 2.427 . S
Tb42 O51 2.513 . S
Tb42 O52 2.453 . S
Tb42 O53 2.596 . S
Tb42 O54 2.374 . S
O43 Tb40 2.453 . S
O43 C59 1.245 . S
O44 Tb40 2.596 . S
O44 Tb42 2.343 . S
O44 C59 1.259 . S
O45 Tb40 2.374 . S
O45 C41 1.251 . S
C46 O50 1.275 . S
C46 O51 1.246 . S
O47 C41 1.263 . S
O47 Tb42 2.353 . S
C48 O52 1.245 . S
C48 O53 1.259 . S
C49 O54 1.250 . S
C49 O55 1.263 . S
O50 Tb42 2.427 . S
O50 C46 1.275 . S
O51 Tb42 2.513 . S
O51 C46 1.246 . S
O52 Tb42 2.453 . S
O52 C48 1.245 . S
O53 Tb40 2.343 . S
O53 Tb42 2.596 . S
O53 C48 1.259 . S
O54 Tb42 2.374 . S
O54 C49 1.250 . S
O55 Tb40 2.353 . S
O55 C49 1.263 . S
C56 O57 1.275 . S
C56 O58 1.246 . S
O57 Tb40 2.427 . S
O57 C56 1.275 . S
O58 Tb40 2.513 . S
O58 C56 1.246 . S
C59 O43 1.245 . S
C59 O44 1.259 . S
O60 Cd61 2.300 . S
O60 C67 1.275 . S
Cd61 O60 2.300 . S
Cd61 O69 2.381 . S
Cd61 O70 2.378 . S
O62 Cd63 2.385 1_545 S
O62 C67 1.255 . S
Cd63 O62 2.385 1_565 S
Cd63 O64 2.317 . S
O64 Cd63 2.317 . S
O64 C65 1.232 . S
C65 O64 1.232 . S
C65 O66 1.218 . S
O66 C65 1.218 . S
C67 O60 1.275 . S
C67 O62 1.255 . S
C68 O69 1.258 . S
C68 O70 1.256 . S
O69 Cd61 2.381 . S
O69 C68 1.258 . S
O70 Cd61 2.378 . S
O70 C68 1.256 . S
O71 Cd72 2.300 . S
O71 C78 1.275 . S
Cd72 O71 2.300 . S
Cd72 O80 2.381 . S
Cd72 O81 2.378 . S
O73 Cd74 2.385 . S
O73 C78 1.255 . S
Cd74 O73 2.385 . S
Cd74 O75 2.317 . S
O75 Cd74 2.317 . S
O75 C76 1.232 . S
C76 O75 1.232 . S
C76 O77 1.218 . S
O77 C76 1.218 . S
C78 O71 1.275 . S
C78 O73 1.255 . S
C79 O80 1.258 . S
C79 O81 1.256 . S
O80 Cd72 2.381 . S
O80 C79 1.258 . S
O81 Cd72 2.378 . S
O81 C79 1.256 . S
O82 Cd83 2.300 . S
O82 C89 1.275 . S
Cd83 O82 2.300 . S
Cd83 O91 2.381 . S
Cd83 O92 2.378 . S
O84 Cd85 2.385 1_455 S
O84 C89 1.255 . S
Cd85 O84 2.385 1_655 S
Cd85 O86 2.313 . S
O86 Cd85 2.313 . S
O86 C87 1.259 . S
C87 O86 1.259 . S
C87 O88 1.218 . S
O88 C87 1.218 . S
C89 O82 1.275 . S
C89 O84 1.255 . S
C90 O91 1.258 . S
C90 O92 1.256 . S
O91 Cd83 2.381 . S
O91 C90 1.258 . S
O92 Cd83 2.378 . S
O92 C90 1.256 . S
O93 Cd94 2.300 . S
O93 C100 1.275 1_455 S
Cd94 O93 2.300 . S
Cd94 O102 2.381 . S
Cd94 O103 2.378 . S
O95 Cd96 2.385 . S
O95 C100 1.255 . S
Cd96 O95 2.385 . S
Cd96 O97 2.317 . S
O97 Cd96 2.317 . S
O97 C98 1.232 . S
C98 O97 1.232 . S
C98 O99 1.218 . S
O99 C98 1.218 . S
C100 O93 1.275 1_655 S
C100 O95 1.255 . S
C101 O102 1.258 . S
C101 O103 1.256 . S
O102 Cd94 2.381 . S
O102 C101 1.258 . S
O103 Cd94 2.378 . S
O103 C101 1.256 . S
O104 Cd105 2.300 . S
O104 C111 1.275 1_565 S
Cd105 O104 2.300 . S
Cd105 O113 2.381 . S
Cd105 O114 2.378 . S
O106 Cd107 2.385 . S
O106 C111 1.255 . S
Cd107 O106 2.385 . S
Cd107 O108 2.317 . S
O108 Cd107 2.317 . S
O108 C109 1.232 . S
C109 O108 1.232 . S
C109 O110 1.218 . S
O110 C109 1.218 . S
C111 O104 1.275 1_545 S
C111 O106 1.255 . S
C112 O113 1.258 . S
C112 O114 1.256 . S
O113 Cd105 2.381 . S
O113 C112 1.258 . S
O114 Cd105 2.378 . S
O114 C112 1.256 . S
O115 Cd116 2.300 . S
O115 C122 1.275 . S
Cd116 O115 2.300 . S
Cd116 O124 2.381 . S
Cd116 O125 2.378 . S
O117 Cd118 2.385 . S
O117 C122 1.255 . S
Cd118 O117 2.385 . S
Cd118 O119 2.317 . S
O119 Cd118 2.317 . S
O119 C120 1.232 . S
C120 O119 1.232 . S
C120 O121 1.218 . S
O121 C120 1.218 . S
C122 O115 1.275 . S
C122 O117 1.255 . S
C123 O124 1.258 . S
C123 O125 1.256 . S
O124 Cd116 2.381 . S
O124 C123 1.258 . S
O125 Cd116 2.378 . S
O125 C123 1.256 . S
C126 C127 1.349 . S
C126 C128 1.327 . S
C126 H151 0.950 . S
C127 C126 1.349 . S
C127 C143 1.349 . S
C128 C126 1.327 . S
C128 C147 1.429 . S
C128 H152 0.950 . S
C129 C146 1.574 . S
C129 C148 1.368 . S
C129 H153 0.949 . S
H130 C134 0.949 . S
C131 C132 1.349 . S
C131 C133 1.327 . S
C131 H154 0.950 . S
C132 C131 1.349 . S
C132 C144 1.349 . S
C133 C131 1.327 . S
C133 C149 1.429 . S
C133 H155 0.950 . S
C134 H130 0.949 . S
C134 C142 1.574 . S
C134 C150 1.368 . S
H135 C143 0.950 . S
H136 C141 0.950 . S
H137 C142 0.949 . S
H138 C144 0.950 . S
H139 C145 0.950 . S
H140 C146 0.949 . S
C141 H136 0.950 . S
C141 C143 1.327 . S
C141 C147 1.429 . S
C142 C134 1.574 . S
C142 H137 0.949 . S
C142 C148 1.368 . S
C143 C127 1.349 . S
C143 H135 0.950 . S
C143 C141 1.327 . S
C144 C132 1.349 . S
C144 H138 0.950 . S
C144 C145 1.327 . S
C145 H139 0.950 . S
C145 C144 1.327 . S
C145 C149 1.429 . S
C146 C129 1.574 . S
C146 H140 0.949 . S
C146 C150 1.368 . S
C147 C128 1.429 . S
C147 C141 1.429 . S
C147 C148 1.523 . S
C148 C129 1.368 . S
C148 C142 1.368 . S
C148 C147 1.523 . S
C149 C133 1.429 . S
C149 C145 1.429 . S
C149 C150 1.523 . S
C150 C134 1.368 . S
C150 C146 1.368 . S
C150 C149 1.523 . S
H151 C126 0.950 . S
H152 C128 0.950 . S
H153 C129 0.949 . S
H154 C131 0.950 . S
H155 C133 0.950 . S
C156 C157 1.349 . S
C156 C158 1.327 . S
C156 H181 0.950 . S
C157 C156 1.349 . S
C157 C173 1.349 . S
C158 C156 1.327 . S
C158 C177 1.429 . S
C158 H182 0.950 . S
C159 C176 1.574 . S
C159 C178 1.368 . S
C159 H183 0.949 . S
H160 C164 0.949 . S
C161 C162 1.349 . S
C161 C163 1.327 . S
C161 H184 0.950 . S
C162 C161 1.349 . S
C162 C174 1.349 . S
C163 C161 1.327 . S
C163 C179 1.429 . S
C163 H185 0.950 . S
C164 H160 0.949 . S
C164 C172 1.574 . S
C164 C180 1.368 . S
H165 C173 0.950 . S
H166 C171 0.950 . S
H167 C172 0.949 . S
H168 C174 0.950 . S
H169 C175 0.950 . S
H170 C176 0.949 . S
C171 H166 0.950 . S
C171 C173 1.327 . S
C171 C177 1.429 . S
C172 C164 1.574 . S
C172 H167 0.949 . S
C172 C178 1.368 . S
C173 C157 1.349 . S
C173 H165 0.950 . S
C173 C171 1.327 . S
C174 C162 1.349 . S
C174 H168 0.950 . S
C174 C175 1.327 . S
C175 H169 0.950 . S
C175 C174 1.327 . S
C175 C179 1.429 . S
C176 C159 1.574 . S
C176 H170 0.949 . S
C176 C180 1.368 . S
C177 C158 1.429 . S
C177 C171 1.429 . S
C177 C178 1.523 . S
C178 C159 1.368 . S
C178 C172 1.368 . S
C178 C177 1.523 . S
C179 C163 1.429 . S
C179 C175 1.429 . S
C179 C180 1.523 . S
C180 C164 1.368 . S
C180 C176 1.368 . S
C180 C179 1.523 . S
H181 C156 0.950 . S
H182 C158 0.950 . S
H183 C159 0.949 . S
H184 C161 0.950 . S
H185 C163 0.950 . S
C186 C187 1.349 . S
C186 C188 1.327 . S
C186 H211 0.950 . S
C187 C186 1.349 . S
C187 C203 1.349 . S
C188 C186 1.327 . S
C188 C207 1.429 . S
C188 H212 0.950 . S
C189 C206 1.574 . S
C189 C208 1.368 . S
C189 H213 0.949 . S
H190 C194 0.949 . S
C191 C192 1.349 . S
C191 C193 1.327 . S
C191 H214 0.950 . S
C192 C191 1.349 . S
C192 C204 1.349 . S
C193 C191 1.327 . S
C193 C209 1.429 . S
C193 H215 0.950 . S
C194 H190 0.949 . S
C194 C202 1.574 . S
C194 C210 1.368 . S
H195 C203 0.950 . S
H196 C201 0.950 . S
H197 C202 0.949 . S
H198 C204 0.950 . S
H199 C205 0.950 . S
H200 C206 0.949 . S
C201 H196 0.950 . S
C201 C203 1.327 . S
C201 C207 1.429 . S
C202 C194 1.574 . S
C202 H197 0.949 . S
C202 C208 1.368 . S
C203 C187 1.349 . S
C203 H195 0.950 . S
C203 C201 1.327 . S
C204 C192 1.349 . S
C204 H198 0.950 . S
C204 C205 1.327 . S
C205 H199 0.950 . S
C205 C204 1.327 . S
C205 C209 1.429 . S
C206 C189 1.574 . S
C206 H200 0.949 . S
C206 C210 1.368 . S
C207 C188 1.429 . S
C207 C201 1.429 . S
C207 C208 1.523 . S
C208 C189 1.368 . S
C208 C202 1.368 . S
C208 C207 1.523 . S
C209 C193 1.429 . S
C209 C205 1.429 . S
C209 C210 1.523 . S
C210 C194 1.368 . S
C210 C206 1.368 . S
C210 C209 1.523 . S
H211 C186 0.950 . S
H212 C188 0.950 . S
H213 C189 0.949 . S
H214 C191 0.950 . S
H215 C193 0.950 . S
C216 C217 1.349 . S
C216 C218 1.327 . S
C216 H241 0.950 . S
C217 C216 1.349 . S
C217 C233 1.349 . S
C218 C216 1.327 . S
C218 C237 1.429 . S
C218 H242 0.950 . S
C219 C236 1.574 . S
C219 C238 1.368 . S
C219 H243 0.949 . S
H220 C224 0.949 . S
C221 C222 1.349 . S
C221 C223 1.327 . S
C221 H244 0.950 . S
C222 C221 1.349 . S
C222 C234 1.349 . S
C223 C221 1.327 . S
C223 C239 1.429 . S
C223 H245 0.950 . S
C224 H220 0.949 . S
C224 C232 1.574 . S
C224 C240 1.368 . S
H225 C233 0.950 . S
H226 C231 0.950 . S
H227 C232 0.949 . S
H228 C234 0.950 . S
H229 C235 0.950 . S
H230 C236 0.949 . S
C231 H226 0.950 . S
C231 C233 1.327 . S
C231 C237 1.429 . S
C232 C224 1.574 . S
C232 H227 0.949 . S
C232 C238 1.368 . S
C233 C217 1.349 . S
C233 H225 0.950 . S
C233 C231 1.327 . S
C234 C222 1.349 . S
C234 H228 0.950 . S
C234 C235 1.327 . S
C235 H229 0.950 . S
C235 C234 1.327 . S
C235 C239 1.429 . S
C236 C219 1.574 . S
C236 H230 0.949 . S
C236 C240 1.368 . S
C237 C218 1.429 . S
C237 C231 1.429 . S
C237 C238 1.523 . S
C238 C219 1.368 . S
C238 C232 1.368 . S
C238 C237 1.523 . S
C239 C223 1.429 . S
C239 C235 1.429 . S
C239 C240 1.523 . S
C240 C224 1.368 . S
C240 C236 1.368 . S
C240 C239 1.523 . S
H241 C216 0.950 . S
H242 C218 0.950 . S
H243 C219 0.949 . S
H244 C221 0.950 . S
H245 C223 0.950 . S
C246 C247 1.349 . S
C246 C248 1.327 . S
C246 H271 0.950 . S
C247 C246 1.349 . S
C247 C263 1.349 . S
C248 C246 1.327 . S
C248 C267 1.429 . S
C248 H272 0.950 . S
C249 C266 1.574 . S
C249 C268 1.368 . S
C249 H273 0.949 . S
H250 C254 0.949 . S
C251 C252 1.349 . S
C251 C253 1.327 . S
C251 H274 0.950 . S
C252 C251 1.349 . S
C252 C264 1.349 . S
C253 C251 1.327 . S
C253 C269 1.429 . S
C253 H275 0.950 . S
C254 H250 0.949 . S
C254 C262 1.574 . S
C254 C270 1.368 . S
H255 C263 0.950 . S
H256 C261 0.950 . S
H257 C262 0.949 . S
H258 C264 0.950 . S
H259 C265 0.950 . S
H260 C266 0.949 . S
C261 H256 0.950 . S
C261 C263 1.327 . S
C261 C267 1.429 . S
C262 C254 1.574 . S
C262 H257 0.949 . S
C262 C268 1.368 . S
C263 C247 1.349 . S
C263 H255 0.950 . S
C263 C261 1.327 . S
C264 C252 1.349 . S
C264 H258 0.950 . S
C264 C265 1.327 . S
C265 H259 0.950 . S
C265 C264 1.327 . S
C265 C269 1.429 . S
C266 C249 1.574 . S
C266 H260 0.949 . S
C266 C270 1.368 . S
C267 C248 1.429 . S
C267 C261 1.429 . S
C267 C268 1.523 . S
C268 C249 1.368 . S
C268 C262 1.368 . S
C268 C267 1.523 . S
C269 C253 1.429 . S
C269 C265 1.429 . S
C269 C270 1.523 . S
C270 C254 1.368 . S
C270 C266 1.368 . S
C270 C269 1.523 . S
H271 C246 0.950 . S
H272 C248 0.950 . S
H273 C249 0.949 . S
H274 C251 0.950 . S
H275 C253 0.950 . S
C276 C277 1.349 . S
C276 C278 1.327 . S
C276 H301 0.950 . S
C277 C276 1.349 . S
C277 C293 1.349 . S
C278 C276 1.327 . S
C278 C297 1.429 . S
C278 H302 0.950 . S
C279 C296 1.574 . S
C279 C298 1.368 . S
C279 H303 0.949 . S
H280 C284 0.949 . S
C281 C282 1.349 . S
C281 C283 1.327 . S
C281 H304 0.950 . S
C282 C281 1.349 . S
C282 C294 1.349 . S
C283 C281 1.327 . S
C283 C299 1.429 . S
C283 H305 0.950 . S
C284 H280 0.949 . S
C284 C292 1.574 . S
C284 C300 1.368 . S
H285 C293 0.950 . S
H286 C291 0.950 . S
H287 C292 0.949 . S
H288 C294 0.950 . S
H289 C295 0.950 . S
H290 C296 0.949 . S
C291 H286 0.950 . S
C291 C293 1.327 . S
C291 C297 1.429 . S
C292 C284 1.574 . S
C292 H287 0.949 . S
C292 C298 1.368 . S
C293 C277 1.349 . S
C293 H285 0.950 . S
C293 C291 1.327 . S
C294 C282 1.349 . S
C294 H288 0.950 . S
C294 C295 1.327 . S
C295 H289 0.950 . S
C295 C294 1.327 . S
C295 C299 1.429 . S
C296 C279 1.574 . S
C296 H290 0.949 . S
C296 C300 1.368 . S
C297 C278 1.429 . S
C297 C291 1.429 . S
C297 C298 1.523 . S
C298 C279 1.368 . S
C298 C292 1.368 . S
C298 C297 1.523 . S
C299 C283 1.429 . S
C299 C295 1.429 . S
C299 C300 1.523 . S
C300 C284 1.368 . S
C300 C296 1.368 . S
C300 C299 1.523 . S
H301 C276 0.950 . S
H302 C278 0.950 . S
H303 C279 0.949 . S
H304 C281 0.950 . S
H305 C283 0.950 . S
C306 C307 1.349 . S
C306 C308 1.327 . S
C306 H331 0.950 . S
C307 C306 1.349 . S
C307 C323 1.349 . S
C308 C306 1.327 . S
C308 C327 1.429 . S
C308 H332 0.950 . S
C309 C326 1.574 . S
C309 C328 1.368 . S
C309 H333 0.949 . S
H310 C314 0.949 . S
C311 C312 1.349 . S
C311 C313 1.327 . S
C311 H334 0.950 . S
C312 C311 1.349 . S
C312 C324 1.349 . S
C313 C311 1.327 . S
C313 C329 1.429 . S
C313 H335 0.950 . S
C314 H310 0.949 . S
C314 C322 1.574 . S
C314 C330 1.368 . S
H315 C323 0.950 . S
H316 C321 0.950 . S
H317 C322 0.949 . S
H318 C324 0.950 . S
H319 C325 0.950 . S
H320 C326 0.949 . S
C321 H316 0.950 . S
C321 C323 1.327 . S
C321 C327 1.429 . S
C322 C314 1.574 . S
C322 H317 0.949 . S
C322 C328 1.368 . S
C323 C307 1.349 . S
C323 H315 0.950 . S
C323 C321 1.327 . S
C324 C312 1.349 . S
C324 H318 0.950 . S
C324 C325 1.327 . S
C325 H319 0.950 . S
C325 C324 1.327 . S
C325 C329 1.429 . S
C326 C309 1.574 . S
C326 H320 0.949 . S
C326 C330 1.368 . S
C327 C308 1.429 . S
C327 C321 1.429 . S
C327 C328 1.523 . S
C328 C309 1.368 . S
C328 C322 1.368 . S
C328 C327 1.523 . S
C329 C313 1.429 . S
C329 C325 1.429 . S
C329 C330 1.523 . S
C330 C314 1.368 . S
C330 C326 1.368 . S
C330 C329 1.523 . S
H331 C306 0.950 . S
H332 C308 0.950 . S
H333 C309 0.949 . S
H334 C311 0.950 . S
H335 C313 0.950 . S
C336 C337 1.349 . S
C336 C338 1.327 . S
C336 H361 0.950 . S
C337 C336 1.349 . S
C337 C353 1.349 . S
C338 C336 1.327 . S
C338 C357 1.429 . S
C338 H362 0.950 . S
C339 C356 1.574 . S
C339 C358 1.368 . S
C339 H363 0.949 . S
H340 C344 0.949 . S
C341 C342 1.349 . S
C341 C343 1.327 . S
C341 H364 0.950 . S
C342 C341 1.349 . S
C342 C354 1.349 . S
C343 C341 1.327 . S
C343 C359 1.429 . S
C343 H365 0.950 . S
C344 H340 0.949 . S
C344 C352 1.574 . S
C344 C360 1.368 . S
H345 C353 0.950 . S
H346 C351 0.950 . S
H347 C352 0.949 . S
H348 C354 0.950 . S
H349 C355 0.950 . S
H350 C356 0.949 . S
C351 H346 0.950 . S
C351 C353 1.327 . S
C351 C357 1.429 . S
C352 C344 1.574 . S
C352 H347 0.949 . S
C352 C358 1.368 . S
C353 C337 1.349 . S
C353 H345 0.950 . S
C353 C351 1.327 . S
C354 C342 1.349 . S
C354 H348 0.950 . S
C354 C355 1.327 . S
C355 H349 0.950 . S
C355 C354 1.327 . S
C355 C359 1.429 . S
C356 C339 1.574 . S
C356 H350 0.949 . S
C356 C360 1.368 . S
C357 C338 1.429 . S
C357 C351 1.429 . S
C357 C358 1.523 . S
C358 C339 1.368 . S
C358 C352 1.368 . S
C358 C357 1.523 . S
C359 C343 1.429 . S
C359 C355 1.429 . S
C359 C360 1.523 . S
C360 C344 1.368 . S
C360 C356 1.368 . S
C360 C359 1.523 . S
H361 C336 0.950 . S
H362 C338 0.950 . S
H363 C339 0.949 . S
H364 C341 0.950 . S
H365 C343 0.950 . S
C366 C367 1.349 . S
C366 C368 1.327 . S
C366 H391 0.950 . S
C367 C366 1.349 . S
C367 C383 1.349 . S
C368 C366 1.327 . S
C368 C387 1.429 . S
C368 H392 0.950 . S
C369 C386 1.574 . S
C369 C388 1.368 . S
C369 H393 0.949 . S
H370 C374 0.949 . S
C371 C372 1.349 . S
C371 C373 1.327 . S
C371 H394 0.950 . S
C372 C371 1.349 . S
C372 C384 1.349 . S
C373 C371 1.327 . S
C373 C389 1.429 . S
C373 H395 0.950 . S
C374 H370 0.949 . S
C374 C382 1.574 . S
C374 C390 1.368 . S
H375 C383 0.950 . S
H376 C381 0.950 . S
H377 C382 0.949 . S
H378 C384 0.950 . S
H379 C385 0.950 . S
H380 C386 0.949 . S
C381 H376 0.950 . S
C381 C383 1.327 . S
C381 C387 1.429 . S
C382 C374 1.574 . S
C382 H377 0.949 . S
C382 C388 1.368 . S
C383 C367 1.349 . S
C383 H375 0.950 . S
C383 C381 1.327 . S
C384 C372 1.349 . S
C384 H378 0.950 . S
C384 C385 1.327 . S
C385 H379 0.950 . S
C385 C384 1.327 . S
C385 C389 1.429 . S
C386 C369 1.574 . S
C386 H380 0.949 . S
C386 C390 1.368 . S
C387 C368 1.429 . S
C387 C381 1.429 . S
C387 C388 1.523 . S
C388 C369 1.368 . S
C388 C382 1.368 . S
C388 C387 1.523 . S
C389 C373 1.429 . S
C389 C385 1.429 . S
C389 C390 1.523 . S
C390 C374 1.368 . S
C390 C386 1.368 . S
C390 C389 1.523 . S
H391 C366 0.950 . S
H392 C368 0.950 . S
H393 C369 0.949 . S
H394 C371 0.950 . S
H395 C373 0.950 . S
C396 C397 1.349 . S
C396 C398 1.327 . S
C396 H421 0.950 . S
C397 C396 1.349 . S
C397 C413 1.349 . S
C398 C396 1.327 . S
C398 C417 1.429 . S
C398 H422 0.950 . S
C399 C416 1.574 . S
C399 C418 1.368 . S
C399 H423 0.949 . S
H400 C404 0.949 . S
C401 C402 1.349 . S
C401 C403 1.327 . S
C401 H424 0.950 . S
C402 C401 1.349 . S
C402 C414 1.349 . S
C403 C401 1.327 . S
C403 C419 1.429 . S
C403 H425 0.950 . S
C404 H400 0.949 . S
C404 C412 1.574 . S
C404 C420 1.368 . S
H405 C413 0.950 . S
H406 C411 0.950 . S
H407 C412 0.949 . S
H408 C414 0.950 . S
H409 C415 0.950 . S
H410 C416 0.949 . S
C411 H406 0.950 . S
C411 C413 1.327 . S
C411 C417 1.429 . S
C412 C404 1.574 . S
C412 H407 0.949 . S
C412 C418 1.368 . S
C413 C397 1.349 . S
C413 H405 0.950 . S
C413 C411 1.327 . S
C414 C402 1.349 . S
C414 H408 0.950 . S
C414 C415 1.327 . S
C415 H409 0.950 . S
C415 C414 1.327 . S
C415 C419 1.429 . S
C416 C399 1.574 . S
C416 H410 0.949 . S
C416 C420 1.368 . S
C417 C398 1.429 . S
C417 C411 1.429 . S
C417 C418 1.523 . S
C418 C399 1.368 . S
C418 C412 1.368 . S
C418 C417 1.523 . S
C419 C403 1.429 . S
C419 C415 1.429 . S
C419 C420 1.523 . S
C420 C404 1.368 . S
C420 C416 1.368 . S
C420 C419 1.523 . S
H421 C396 0.950 . S
H422 C398 0.950 . S
H423 C399 0.949 . S
H424 C401 0.950 . S
H425 C403 0.950 . S
C426 C427 1.349 . S
C426 C428 1.327 . S
C426 H451 0.950 . S
C427 C426 1.349 . S
C427 C443 1.349 . S
C428 C426 1.327 . S
C428 C447 1.429 . S
C428 H452 0.950 . S
C429 C446 1.574 . S
C429 C448 1.368 . S
C429 H453 0.949 . S
H430 C434 0.949 . S
C431 C432 1.349 . S
C431 C433 1.327 . S
C431 H454 0.950 . S
C432 C431 1.349 . S
C432 C444 1.349 . S
C433 C431 1.327 . S
C433 C449 1.429 . S
C433 H455 0.950 . S
C434 H430 0.949 . S
C434 C442 1.574 . S
C434 C450 1.368 . S
H435 C443 0.950 . S
H436 C441 0.950 . S
H437 C442 0.949 . S
H438 C444 0.950 . S
H439 C445 0.950 . S
H440 C446 0.949 . S
C441 H436 0.950 . S
C441 C443 1.327 . S
C441 C447 1.429 . S
C442 C434 1.574 . S
C442 H437 0.949 . S
C442 C448 1.368 . S
C443 C427 1.349 . S
C443 H435 0.950 . S
C443 C441 1.327 . S
C444 C432 1.349 . S
C444 H438 0.950 . S
C444 C445 1.327 . S
C445 H439 0.950 . S
C445 C444 1.327 . S
C445 C449 1.429 . S
C446 C429 1.574 . S
C446 H440 0.949 . S
C446 C450 1.368 . S
C447 C428 1.429 . S
C447 C441 1.429 . S
C447 C448 1.523 . S
C448 C429 1.368 . S
C448 C442 1.368 . S
C448 C447 1.523 . S
C449 C433 1.429 . S
C449 C445 1.429 . S
C449 C450 1.523 . S
C450 C434 1.368 . S
C450 C446 1.368 . S
C450 C449 1.523 . S
H451 C426 0.950 . S
H452 C428 0.950 . S
H453 C429 0.949 . S
H454 C431 0.950 . S
H455 C433 0.950 . S
C456 C457 1.349 . S
C456 C458 1.327 . S
C456 H481 0.950 . S
C457 C456 1.349 . S
C457 C473 1.349 . S
C458 C456 1.327 . S
C458 C477 1.429 . S
C458 H482 0.950 . S
C459 C476 1.574 . S
C459 C478 1.368 . S
C459 H483 0.949 . S
H460 C464 0.949 . S
C461 C462 1.349 . S
C461 C463 1.327 . S
C461 H484 0.950 . S
C462 C461 1.349 . S
C462 C474 1.349 . S
C463 C461 1.327 . S
C463 C479 1.429 . S
C463 H485 0.950 . S
C464 H460 0.949 . S
C464 C472 1.574 . S
C464 C480 1.368 . S
H465 C473 0.950 . S
H466 C471 0.950 . S
H467 C472 0.949 . S
H468 C474 0.950 . S
H469 C475 0.950 . S
H470 C476 0.949 . S
C471 H466 0.950 . S
C471 C473 1.327 . S
C471 C477 1.429 . S
C472 C464 1.574 . S
C472 H467 0.949 . S
C472 C478 1.368 . S
C473 C457 1.349 . S
C473 H465 0.950 . S
C473 C471 1.327 . S
C474 C462 1.349 . S
C474 H468 0.950 . S
C474 C475 1.327 . S
C475 H469 0.950 . S
C475 C474 1.327 . S
C475 C479 1.429 . S
C476 C459 1.574 . S
C476 H470 0.949 . S
C476 C480 1.368 . S
C477 C458 1.429 . S
C477 C471 1.429 . S
C477 C478 1.523 . S
C478 C459 1.368 . S
C478 C472 1.368 . S
C478 C477 1.523 . S
C479 C463 1.429 . S
C479 C475 1.429 . S
C479 C480 1.523 . S
C480 C464 1.368 . S
C480 C476 1.368 . S
C480 C479 1.523 . S
H481 C456 0.950 . S
H482 C458 0.950 . S
H483 C459 0.949 . S
H484 C461 0.950 . S
H485 C463 0.950 . S
C486 C487 1.349 . S
C486 C488 1.327 . S
C486 H511 0.950 . S
C487 C486 1.349 . S
C487 C503 1.349 . S
C488 C486 1.327 . S
C488 C507 1.429 . S
C488 H512 0.950 . S
C489 C506 1.574 1_554 S
C489 C508 1.368 . S
C489 H513 0.949 1_455 S
H490 C494 0.924 1_556 S
C491 C492 1.349 . S
C491 C493 1.327 . S
C491 H514 0.950 . S
C492 C491 1.349 . S
C492 C504 1.349 . S
C493 C491 1.327 . S
C493 C509 1.429 . S
C493 H515 0.950 . S
C494 H490 0.924 1_554 S
C494 C502 1.574 . S
C494 C510 1.368 1_554 S
H495 C503 0.950 1_655 S
H496 C501 0.950 1_655 S
H497 C502 0.949 . S
H498 C504 0.950 . S
H499 C505 0.950 . S
H500 C506 0.949 . S
C501 H496 0.950 1_455 S
C501 C503 1.327 . S
C501 C507 1.429 . S
C502 C494 1.574 . S
C502 H497 0.949 . S
C502 C508 1.368 . S
C503 C487 1.349 . S
C503 H495 0.950 1_455 S
C503 C501 1.327 . S
C504 C492 1.349 . S
C504 H498 0.950 . S
C504 C505 1.327 . S
C505 H499 0.950 . S
C505 C504 1.327 . S
C505 C509 1.429 . S
C506 C489 1.574 1_556 S
C506 H500 0.949 . S
C506 C510 1.368 . S
C507 C488 1.429 . S
C507 C501 1.429 . S
C507 C508 1.523 . S
C508 C489 1.368 . S
C508 C502 1.368 . S
C508 C507 1.523 . S
C509 C493 1.429 . S
C509 C505 1.429 . S
C509 C510 1.523 . S
C510 C494 1.368 1_556 S
C510 C506 1.368 . S
C510 C509 1.523 . S
H511 C486 0.950 . S
H512 C488 0.950 . S
H513 C489 0.949 1_655 S
H514 C491 0.950 . S
H515 C493 0.950 . S
C516 C517 1.349 . S
C516 C518 1.327 . S
C516 H541 0.950 . S
C517 C516 1.349 . S
C517 C533 1.349 . S
C518 C516 1.327 . S
C518 C537 1.429 . S
C518 H542 0.950 . S
C519 C536 1.574 . S
C519 C538 1.368 . S
C519 H543 0.949 1_545 S
H520 C524 0.949 . S
C521 C522 1.349 . S
C521 C523 1.327 . S
C521 H544 0.950 1_545 S
C522 C521 1.349 . S
C522 C534 1.349 . S
C523 C521 1.327 . S
C523 C539 1.429 . S
C523 H545 0.950 1_545 S
C524 H520 0.949 . S
C524 C532 1.574 . S
C524 C540 1.368 . S
H525 C533 0.950 1_565 S
H526 C531 0.950 1_565 S
H527 C532 0.949 . S
H528 C534 0.950 . S
H529 C535 0.950 . S
H530 C536 0.949 1_565 S
C531 H526 0.950 1_545 S
C531 C533 1.327 . S
C531 C537 1.429 . S
C532 C524 1.574 . S
C532 H527 0.949 . S
C532 C538 1.368 . S
C533 C517 1.349 . S
C533 H525 0.950 1_545 S
C533 C531 1.327 . S
C534 C522 1.349 . S
C534 H528 0.950 . S
C534 C535 1.327 . S
C535 H529 0.950 . S
C535 C534 1.327 . S
C535 C539 1.429 . S
C536 C519 1.574 . S
C536 H530 0.949 1_545 S
C536 C540 1.368 . S
C537 C518 1.429 . S
C537 C531 1.429 . S
C537 C538 1.523 . S
C538 C519 1.368 . S
C538 C532 1.368 . S
C538 C537 1.523 . S
C539 C523 1.429 . S
C539 C535 1.429 . S
C539 C540 1.523 . S
C540 C524 1.368 . S
C540 C536 1.368 . S
C540 C539 1.523 . S
H541 C516 0.950 . S
H542 C518 0.950 . S
H543 C519 0.949 1_565 S
H544 C521 0.950 1_565 S
H545 C523 0.950 1_565 S
C546 C547 1.349 . S
C546 C548 1.327 . S
C546 H571 0.950 . S
C547 C546 1.349 . S
C547 C563 1.349 . S
C548 C546 1.327 . S
C548 C567 1.429 . S
C548 H572 0.950 . S
C549 C566 1.574 . S
C549 C568 1.368 . S
C549 H573 0.949 . S
H550 C554 0.949 . S
C551 C552 1.349 . S
C551 C553 1.327 . S
C551 H574 0.950 . S
C552 C551 1.349 . S
C552 C564 1.349 . S
C553 C551 1.327 . S
C553 C569 1.429 . S
C553 H575 0.950 . S
C554 H550 0.949 . S
C554 C562 1.574 . S
C554 C570 1.368 . S
H555 C563 0.950 . S
H556 C561 0.950 . S
H557 C562 0.949 . S
H558 C564 0.950 . S
H559 C565 0.950 . S
H560 C566 0.949 . S
C561 H556 0.950 . S
C561 C563 1.327 . S
C561 C567 1.429 . S
C562 C554 1.574 . S
C562 H557 0.949 . S
C562 C568 1.368 . S
C563 C547 1.349 . S
C563 H555 0.950 . S
C563 C561 1.327 . S
C564 C552 1.349 . S
C564 H558 0.950 . S
C564 C565 1.327 . S
C565 H559 0.950 . S
C565 C564 1.327 . S
C565 C569 1.429 . S
C566 C549 1.574 . S
C566 H560 0.949 . S
C566 C570 1.368 . S
C567 C548 1.429 . S
C567 C561 1.429 . S
C567 C568 1.523 . S
C568 C549 1.368 . S
C568 C562 1.368 . S
C568 C567 1.523 . S
C569 C553 1.429 . S
C569 C565 1.429 . S
C569 C570 1.523 . S
C570 C554 1.368 . S
C570 C566 1.368 . S
C570 C569 1.523 . S
H571 C546 0.950 . S
H572 C548 0.950 . S
H573 C549 0.949 . S
H574 C551 0.950 . S
H575 C553 0.950 . S
C576 C577 1.349 . S
C576 C578 1.327 . S
C576 H601 0.950 . S
C577 C576 1.349 . S
C577 C593 1.349 1_545 S
C578 C576 1.327 . S
C578 C597 1.429 . S
C578 H602 0.950 . S
C579 C596 1.574 . S
C579 C598 1.368 1_565 S
C579 H603 0.949 . S
H580 C584 0.949 . S
C581 C582 1.349 1_565 S
C581 C583 1.327 . S
C581 H604 0.950 . S
C582 C581 1.349 1_545 S
C582 C594 1.349 . S
C583 C581 1.327 . S
C583 C599 1.429 1_565 S
C583 H605 0.950 . S
C584 H580 0.949 . S
C584 C592 1.574 . S
C584 C600 1.368 . S
H585 C593 0.950 . S
H586 C591 0.950 . S
H587 C592 0.949 . S
H588 C594 0.950 . S
H589 C595 0.950 . S
H590 C596 0.949 . S
C591 H586 0.950 . S
C591 C593 1.327 . S
C591 C597 1.429 1_565 S
C592 C584 1.574 . S
C592 H587 0.949 . S
C592 C598 1.368 . S
C593 C577 1.349 1_565 S
C593 H585 0.950 . S
C593 C591 1.327 . S
C594 C582 1.349 . S
C594 H588 0.950 . S
C594 C595 1.327 . S
C595 H589 0.950 . S
C595 C594 1.327 . S
C595 C599 1.429 . S
C596 C579 1.574 . S
C596 H590 0.949 . S
C596 C600 1.368 1_565 S
C597 C578 1.429 . S
C597 C591 1.429 1_545 S
C597 C598 1.523 . S
C598 C579 1.368 1_545 S
C598 C592 1.368 . S
C598 C597 1.523 . S
C599 C583 1.429 1_545 S
C599 C595 1.429 . S
C599 C600 1.523 . S
C600 C584 1.368 . S
C600 C596 1.368 1_545 S
C600 C599 1.523 . S
H601 C576 0.950 . S
H602 C578 0.950 . S
H603 C579 0.949 . S
H604 C581 0.950 . S
H605 C583 0.950 . S
C606 C607 1.349 . S
C606 C608 1.327 . S
C606 H631 0.950 . S
C607 C606 1.349 . S
C607 C623 1.349 . S
C608 C606 1.327 . S
C608 C627 1.429 . S
C608 H632 0.950 . S
C609 C626 1.623 . S
C609 C628 1.368 . S
C609 H633 0.949 . S
H610 C614 0.975 . S
C611 C612 1.349 . S
C611 C613 1.327 . S
C611 H634 0.950 . S
C612 C611 1.349 . S
C612 C624 1.349 . S
C613 C611 1.327 . S
C613 C629 1.429 . S
C613 H635 0.950 . S
C614 H610 0.975 . S
C614 C622 1.574 . S
C614 C630 1.368 1_556 S
H615 C623 0.950 . S
H616 C621 0.950 . S
H617 C622 0.949 . S
H618 C624 0.950 . S
H619 C625 0.950 . S
H620 C626 0.918 1_554 S
C621 H616 0.950 . S
C621 C623 1.327 . S
C621 C627 1.429 . S
C622 C614 1.574 . S
C622 H617 0.949 . S
C622 C628 1.368 . S
C623 C607 1.349 . S
C623 H615 0.950 . S
C623 C621 1.327 . S
C624 C612 1.349 . S
C624 H618 0.950 . S
C624 C625 1.327 . S
C625 H619 0.950 . S
C625 C624 1.327 . S
C625 C629 1.429 . S
C626 C609 1.623 . S
C626 H620 0.918 1_556 S
C626 C630 1.355 1_556 S
C627 C608 1.429 . S
C627 C621 1.429 . S
C627 C628 1.523 . S
C628 C609 1.368 . S
C628 C622 1.368 . S
C628 C627 1.523 . S
C629 C613 1.429 . S
C629 C625 1.429 . S
C629 C630 1.523 . S
C630 C614 1.368 1_554 S
C630 C626 1.355 1_554 S
C630 C629 1.523 . S
H631 C606 0.950 . S
H632 C608 0.950 . S
H633 C609 0.949 . S
H634 C611 0.950 . S
H635 C613 0.950 . S
C636 C637 1.349 . S
C636 C638 1.327 . S
C636 H661 0.950 . S
C637 C636 1.349 . S
C637 C653 1.349 . S
C638 C636 1.327 . S
C638 C657 1.429 . S
C638 H662 0.950 . S
C639 C656 1.574 . S
C639 C658 1.368 . S
C639 H663 0.949 . S
H640 C644 0.951 1_655 S
C641 C642 1.349 . S
C641 C643 1.327 . S
C641 H664 0.950 . S
C642 C641 1.349 . S
C642 C654 1.349 . S
C643 C641 1.327 . S
C643 C659 1.429 . S
C643 H665 0.942 1_655 S
C644 H640 0.951 1_455 S
C644 C652 1.573 . S
C644 C660 1.367 . S
H645 C653 0.950 . S
H646 C651 0.950 . S
H647 C652 0.949 . S
H648 C654 0.950 . S
H649 C655 0.950 . S
H650 C656 0.949 . S
C651 H646 0.950 . S
C651 C653 1.327 . S
C651 C657 1.429 . S
C652 C644 1.573 . S
C652 H647 0.949 . S
C652 C658 1.368 . S
C653 C637 1.349 . S
C653 H645 0.950 . S
C653 C651 1.327 . S
C654 C642 1.349 . S
C654 H648 0.950 . S
C654 C655 1.327 . S
C655 H649 0.950 . S
C655 C654 1.327 . S
C655 C659 1.429 . S
C656 C639 1.574 . S
C656 H650 0.949 . S
C656 C660 1.368 . S
C657 C638 1.429 . S
C657 C651 1.429 . S
C657 C658 1.523 . S
C658 C639 1.368 . S
C658 C652 1.368 . S
C658 C657 1.523 . S
C659 C643 1.429 . S
C659 C655 1.429 . S
C659 C660 1.523 1_655 S
C660 C644 1.367 . S
C660 C656 1.368 . S
C660 C659 1.523 1_455 S
H661 C636 0.950 . S
H662 C638 0.950 . S
H663 C639 0.949 . S
H664 C641 0.950 . S
H665 C643 0.942 1_455 S
C127 C8 2.185 . S
C132 C120 1.940 . S
C157 C26 1.500 . S
C162 C98 1.323 . S
C187 C48 1.335 . S
C192 C112 1.356 . S
C217 C19 1.574 . S
C222 C123 1.585 . S
C252 C101 1.292 . S
C247 C36 1.290 . S
C282 C109 1.566 . S
C277 C59 1.758 . S
C307 C28 1.692 . S
C312 C76 1.508 . S
C337 C46 1.367 . S
C342 C87 1.176 . S
C367 C16 1.674 . S
C372 C65 1.408 . S
C402 C79 1.459 . S
C397 C39 1.438 . S
C432 C90 0.802 . S
C427 C56 0.802 . S
C457 C6 1.185 . S
C462 C68 1.157 . S
C492 C89 1.416 . S
C487 C9 1.451 . S
C517 C21 1.494 . S
C522 C67 1.450 . S
C547 C49 1.534 . S
C552 C78 1.470 . S
C582 C111 1.427 . S
C577 C29 1.461 . S
C612 C122 1.516 . S
C607 C41 1.579 . S
C637 C1 1.535 . S
C642 C100 1.480 . S
