# Generated by pormake.
# Topology iac, (4,6)-cn, num edge types: 1
# Building blocks:
#     Node 0, Type 0, BuildingBlock: CEKHIL_clean_sbu_0, # of connection points: 4
#     Node 1, Type 0, BuildingBlock: CEKHIL_clean_sbu_0, # of connection points: 4
#     Node 2, Type 0, BuildingBlock: CEKHIL_clean_sbu_0, # of connection points: 4
#     Node 3, Type 0, BuildingBlock: CEKHIL_clean_sbu_0, # of connection points: 4
#     Node 4, Type 0, BuildingBlock: CEKHIL_clean_sbu_0, # of connection points: 4
#     Node 5, Type 0, BuildingBlock: CEKHIL_clean_sbu_0, # of connection points: 4
#     Node 6, Type 0, BuildingBlock: CEKHIL_clean_sbu_0, # of connection points: 4
#     Node 7, Type 0, BuildingBlock: CEKHIL_clean_sbu_0, # of connection points: 4
#     Node 8, Type 0, BuildingBlock: CEKHIL_clean_sbu_0, # of connection points: 4
#     Node 9, Type 0, BuildingBlock: CEKHIL_clean_sbu_0, # of connection points: 4
#     Node 10, Type 0, BuildingBlock: CEKHIL_clean_sbu_0, # of connection points: 4
#     Node 11, Type 0, BuildingBlock: CEKHIL_clean_sbu_0, # of connection points: 4
#     Node 12, Type 0, BuildingBlock: CEKHIL_clean_sbu_0, # of connection points: 4
#     Node 13, Type 0, BuildingBlock: CEKHIL_clean_sbu_0, # of connection points: 4
#     Node 14, Type 0, BuildingBlock: CEKHIL_clean_sbu_0, # of connection points: 4
#     Node 15, Type 0, BuildingBlock: CEKHIL_clean_sbu_0, # of connection points: 4
#     Node 16, Type 0, BuildingBlock: CEKHIL_clean_sbu_0, # of connection points: 4
#     Node 17, Type 0, BuildingBlock: CEKHIL_clean_sbu_0, # of connection points: 4
#     Node 18, Type 0, BuildingBlock: CEKHIL_clean_sbu_0, # of connection points: 4
#     Node 19, Type 0, BuildingBlock: CEKHIL_clean_sbu_0, # of connection points: 4
#     Node 20, Type 0, BuildingBlock: CEKHIL_clean_sbu_0, # of connection points: 4
#     Node 21, Type 0, BuildingBlock: CEKHIL_clean_sbu_0, # of connection points: 4
#     Node 22, Type 0, BuildingBlock: CEKHIL_clean_sbu_0, # of connection points: 4
#     Node 23, Type 0, BuildingBlock: CEKHIL_clean_sbu_0, # of connection points: 4
#     Node 24, Type 1, BuildingBlock: JUFBIX_clean_sbu_0, # of connection points: 6
#     Node 25, Type 1, BuildingBlock: JUFBIX_clean_sbu_0, # of connection points: 6
#     Node 26, Type 1, BuildingBlock: JUFBIX_clean_sbu_0, # of connection points: 6
#     Node 27, Type 1, BuildingBlock: JUFBIX_clean_sbu_0, # of connection points: 6
#     Node 28, Type 1, BuildingBlock: JUFBIX_clean_sbu_0, # of connection points: 6
#     Node 29, Type 1, BuildingBlock: JUFBIX_clean_sbu_0, # of connection points: 6
#     Node 30, Type 1, BuildingBlock: JUFBIX_clean_sbu_0, # of connection points: 6
#     Node 31, Type 1, BuildingBlock: JUFBIX_clean_sbu_0, # of connection points: 6
#     Node 32, Type 1, BuildingBlock: JUFBIX_clean_sbu_0, # of connection points: 6
#     Node 33, Type 1, BuildingBlock: JUFBIX_clean_sbu_0, # of connection points: 6
#     Node 34, Type 1, BuildingBlock: JUFBIX_clean_sbu_0, # of connection points: 6
#     Node 35, Type 1, BuildingBlock: JUFBIX_clean_sbu_0, # of connection points: 6
#     Node 36, Type 1, BuildingBlock: JUFBIX_clean_sbu_0, # of connection points: 6
#     Node 37, Type 1, BuildingBlock: JUFBIX_clean_sbu_0, # of connection points: 6
#     Node 38, Type 1, BuildingBlock: JUFBIX_clean_sbu_0, # of connection points: 6
#     Node 39, Type 1, BuildingBlock: JUFBIX_clean_sbu_0, # of connection points: 6
#     Edge 40, Type (0, 1), None
#     Edge 41, Type (0, 1), None
#     Edge 42, Type (0, 1), None
#     Edge 43, Type (0, 1), None
#     Edge 44, Type (0, 1), None
#     Edge 45, Type (0, 1), None
#     Edge 46, Type (0, 1), None
#     Edge 47, Type (0, 1), None
#     Edge 48, Type (0, 1), None
#     Edge 49, Type (0, 1), None
#     Edge 50, Type (0, 1), None
#     Edge 51, Type (0, 1), None
#     Edge 52, Type (0, 1), None
#     Edge 53, Type (0, 1), None
#     Edge 54, Type (0, 1), None
#     Edge 55, Type (0, 1), None
#     Edge 56, Type (0, 1), None
#     Edge 57, Type (0, 1), None
#     Edge 58, Type (0, 1), None
#     Edge 59, Type (0, 1), None
#     Edge 60, Type (0, 1), None
#     Edge 61, Type (0, 1), None
#     Edge 62, Type (0, 1), None
#     Edge 63, Type (0, 1), None
#     Edge 64, Type (0, 1), None
#     Edge 65, Type (0, 1), None
#     Edge 66, Type (0, 1), None
#     Edge 67, Type (0, 1), None
#     Edge 68, Type (0, 1), None
#     Edge 69, Type (0, 1), None
#     Edge 70, Type (0, 1), None
#     Edge 71, Type (0, 1), None
#     Edge 72, Type (0, 1), None
#     Edge 73, Type (0, 1), None
#     Edge 74, Type (0, 1), None
#     Edge 75, Type (0, 1), None
#     Edge 76, Type (0, 1), None
#     Edge 77, Type (0, 1), None
#     Edge 78, Type (0, 1), None
#     Edge 79, Type (0, 1), None
#     Edge 80, Type (0, 1), None
#     Edge 81, Type (0, 1), None
#     Edge 82, Type (0, 1), None
#     Edge 83, Type (0, 1), None
#     Edge 84, Type (0, 1), None
#     Edge 85, Type (0, 1), None
#     Edge 86, Type (0, 1), None
#     Edge 87, Type (0, 1), None
#     Edge 88, Type (0, 1), None
#     Edge 89, Type (0, 1), None
#     Edge 90, Type (0, 1), None
#     Edge 91, Type (0, 1), None
#     Edge 92, Type (0, 1), None
#     Edge 93, Type (0, 1), None
#     Edge 94, Type (0, 1), None
#     Edge 95, Type (0, 1), None
#     Edge 96, Type (0, 1), None
#     Edge 97, Type (0, 1), None
#     Edge 98, Type (0, 1), None
#     Edge 99, Type (0, 1), None
#     Edge 100, Type (0, 1), None
#     Edge 101, Type (0, 1), None
#     Edge 102, Type (0, 1), None
#     Edge 103, Type (0, 1), None
#     Edge 104, Type (0, 1), None
#     Edge 105, Type (0, 1), None
#     Edge 106, Type (0, 1), None
#     Edge 107, Type (0, 1), None
#     Edge 108, Type (0, 1), None
#     Edge 109, Type (0, 1), None
#     Edge 110, Type (0, 1), None
#     Edge 111, Type (0, 1), None
#     Edge 112, Type (0, 1), None
#     Edge 113, Type (0, 1), None
#     Edge 114, Type (0, 1), None
#     Edge 115, Type (0, 1), None
#     Edge 116, Type (0, 1), None
#     Edge 117, Type (0, 1), None
#     Edge 118, Type (0, 1), None
#     Edge 119, Type (0, 1), None
#     Edge 120, Type (0, 1), None
#     Edge 121, Type (0, 1), None
#     Edge 122, Type (0, 1), None
#     Edge 123, Type (0, 1), None
#     Edge 124, Type (0, 1), None
#     Edge 125, Type (0, 1), None
#     Edge 126, Type (0, 1), None
#     Edge 127, Type (0, 1), None
#     Edge 128, Type (0, 1), None
#     Edge 129, Type (0, 1), None
#     Edge 130, Type (0, 1), None
#     Edge 131, Type (0, 1), None
#     Edge 132, Type (0, 1), None
#     Edge 133, Type (0, 1), None
#     Edge 134, Type (0, 1), None
#     Edge 135, Type (0, 1), None
# Relax obj value: 0.337
# Max RMSD: 0.270
# Mean RMSD: 0.126
data_MOF--net-iac--node1-CEKHIL_clean_sbu_0--node2-JUFBIX_clean_sbu_0--edge1-none
_symmetry_space_group_name_H-M    P1
_symmetry_Int_Tables_number       1
_symmetry_cell_setting            triclinic
loop_
_symmetry_equiv_pos_as_xyz
'x, y, z'
_cell_length_a     24.775918
_cell_length_b     25.272141
_cell_length_c     25.098614
_cell_angle_alpha  89.928314
_cell_angle_beta   88.577505
_cell_angle_gamma 87.40833
loop_
_atom_site_label
_atom_site_type_symbol
_atom_site_fract_x
_atom_site_fract_y
_atom_site_fract_z
_atom_type_partial_charge
Co0 Co 0.06918 0.34795 0.20344 0.0
O1 O 0.98944 0.35011 0.18848 0.0
O2 O 1.02192 0.3328 0.26613 0.0
C3 C 0.09166 0.43324 0.15762 0.0
O4 O 0.14249 0.34461 0.24847 0.0
Co5 Co 0.15663 0.33004 0.13798 0.0
O6 O 0.20962 0.355 0.19123 0.0
C7 C 0.09519 0.23401 0.14785 0.0
C8 C 0.97924 0.33626 0.23763 0.0
C9 C 0.19342 0.35346 0.23949 0.0
O10 O 0.06942 0.26421 0.18358 0.0
O11 O 0.13349 0.25471 0.1212 0.0
O12 O 0.07075 0.42917 0.20544 0.0
O13 O 0.09647 0.38597 0.13591 0.0
Co14 Co 0.14041 0.80493 0.46153 0.0
O15 O 0.21891 0.80542 0.45717 0.0
O16 O 0.16516 0.79297 0.3895 0.0
C17 C 0.12268 0.87454 0.51624 0.0
O18 O 0.06243 0.80185 0.44708 0.0
Co19 Co 0.05229 0.80587 0.55287 0.0
O20 O 1.00637 0.84606 0.5008 0.0
C21 C 0.12583 0.7115 0.52231 0.0
C22 C 0.21374 0.79628 0.40633 0.0
C23 C 1.02658 0.83889 0.45424 0.0
O24 O 0.1425 0.72858 0.47712 0.0
O25 O 0.09576 0.73813 0.5558 0.0
O26 O 0.1346 0.88236 0.4658 0.0
O27 O 0.12516 0.82657 0.53204 0.0
Co28 Co 0.56918 0.84795 0.70344 0.0
O29 O 0.48944 0.85011 0.68848 0.0
O30 O 0.52192 0.8328 0.76613 0.0
C31 C 0.59166 0.93324 0.65762 0.0
O32 O 0.64249 0.84461 0.74847 0.0
Co33 Co 0.65663 0.83004 0.63798 0.0
O34 O 0.70962 0.855 0.69123 0.0
C35 C 0.59519 0.73401 0.64785 0.0
C36 C 0.47924 0.83626 0.73763 0.0
C37 C 0.69342 0.85346 0.73949 0.0
O38 O 0.56942 0.76421 0.68358 0.0
O39 O 0.63349 0.75471 0.6212 0.0
O40 O 0.57075 0.92917 0.70544 0.0
O41 O 0.59647 0.88597 0.63591 0.0
Co42 Co 0.64041 0.30493 0.96153 0.0
O43 O 0.71891 0.30542 0.95717 0.0
O44 O 0.66516 0.29297 0.8895 0.0
C45 C 0.62268 0.37454 0.01624 0.0
O46 O 0.56243 0.30185 0.94708 0.0
Co47 Co 0.55229 0.30587 0.05287 0.0
O48 O 0.50637 0.34606 1.0008 0.0
C49 C 0.62583 0.2115 0.02231 0.0
C50 C 0.71374 0.29628 0.90633 0.0
C51 C 0.52658 0.33889 0.95424 0.0
O52 O 0.6425 0.22858 0.97712 0.0
O53 O 0.59576 0.23813 0.0558 0.0
O54 O 0.6346 0.38236 0.9658 0.0
O55 O 0.62516 0.32657 0.03204 0.0
Co56 Co 0.18429 0.04727 0.37473 0.0
O57 O 0.17362 0.98061 0.33948 0.0
O58 O 0.2511 1.00932 0.37003 0.0
C59 C 0.11666 0.05435 0.43092 0.0
O60 O 0.21195 0.10959 0.41144 0.0
Co61 Co 0.1027 0.14388 0.35808 0.0
O62 O 0.16162 0.1824 0.39043 0.0
C63 C 0.15903 0.08046 0.27536 0.0
C64 C 0.22572 0.97394 0.34444 0.0
C65 C 0.20432 0.15974 0.40907 0.0
O66 O 0.19872 0.07993 0.30594 0.0
O67 O 0.11316 0.10183 0.29 0.0
O68 O 0.15774 1.02232 0.44179 0.0
O69 O 0.11284 0.0714 0.38292 0.0
Co70 Co 0.29405 0.96169 0.59355 0.0
O71 O 0.2193 0.96515 0.57637 0.0
O72 O 0.26395 0.03199 0.60878 0.0
C73 C 0.32493 0.92121 0.51873 0.0
O74 O 0.36901 0.97185 0.61476 0.0
Co75 Co 0.37966 0.86613 0.59857 0.0
O76 O 0.42905 0.92102 0.57159 0.0
C77 C 0.29679 0.89019 0.68641 0.0
C78 C 0.21988 1.01498 0.58954 0.0
C79 C 0.40872 0.96699 0.58211 0.0
O80 O 0.2793 0.93512 0.66776 0.0
O81 O 0.3313 0.85866 0.66242 0.0
O82 O 0.31188 0.97165 0.51823 0.0
O83 O 0.31602 0.89629 0.56268 0.0
Co84 Co 0.46478 0.11803 0.79535 0.0
O85 O 0.47046 0.19246 0.79931 0.0
O86 O 0.39502 0.1495 0.78467 0.0
C87 C 0.51593 0.09692 0.86336 0.0
O88 O 0.44491 0.04404 0.7882 0.0
Co89 Co 0.55363 1.02669 0.78659 0.0
O90 O 0.49879 0.98668 0.82817 0.0
C91 C 0.531 0.11163 0.70527 0.0
C92 C 0.41898 0.19369 0.78969 0.0
C93 C 0.45222 1.00939 0.82409 0.0
O94 O 0.48191 0.11982 0.71986 0.0
O95 O 0.565 0.08136 0.72995 0.0
O96 O 0.46559 0.1129 0.87246 0.0
O97 O 0.53366 0.09707 0.81519 0.0
Co98 Co 0.35137 0.20018 0.06205 0.0
O99 O 0.43165 0.21059 0.06039 0.0
O100 O 0.39705 0.13557 0.0791 0.0
C101 C 0.33051 0.24399 0.97644 0.0
O102 O 0.27492 0.16185 0.06382 0.0
Co103 Co 0.26395 0.27444 0.07346 0.0
O104 O 0.2113 0.22243 0.0452 0.0
C105 C 0.33073 0.26714 0.16983 0.0
C106 C 0.44084 0.16135 0.07409 0.0
C107 C 0.22523 0.17359 0.04952 0.0
O108 O 0.35062 0.22422 0.14537 0.0
O109 O 0.29616 0.2964 0.14479 0.0
O110 O 0.35004 0.19561 0.98103 0.0
O111 O 0.32698 0.26681 0.02315 0.0
Co112 Co 0.79405 0.46169 0.09355 0.0
O113 O 0.71929 0.46515 0.07637 0.0
O114 O 0.76395 0.53199 0.10878 0.0
C115 C 0.82493 0.42121 0.01873 0.0
O116 O 0.86901 0.47185 0.11476 0.0
Co117 Co 0.87966 0.36613 0.09857 0.0
O118 O 0.92905 0.42102 0.07159 0.0
C119 C 0.79679 0.39019 0.18641 0.0
C120 C 0.71988 0.51498 0.08954 0.0
C121 C 0.90872 0.46699 0.08211 0.0
O122 O 0.7793 0.43512 0.16776 0.0
O123 O 0.8313 0.35866 0.16242 0.0
O124 O 0.81188 0.47165 0.01823 0.0
O125 O 0.81602 0.39629 0.06268 0.0
Co126 Co 0.96478 0.61803 0.29535 0.0
O127 O 0.97046 0.69246 0.29931 0.0
O128 O 0.89502 0.6495 0.28467 0.0
C129 C 1.01593 0.59692 0.36337 0.0
O130 O 0.94491 0.54404 0.2882 0.0
Co131 Co 0.05363 0.52669 0.28659 0.0
O132 O 0.99879 0.48668 0.32817 0.0
C133 C 0.031 0.61163 0.20527 0.0
C134 C 0.91898 0.69369 0.28969 0.0
C135 C 0.95222 0.50939 0.32409 0.0
O136 O 0.98191 0.61982 0.21986 0.0
O137 O 0.065 0.58136 0.22995 0.0
O138 O 0.96559 0.6129 0.37246 0.0
O139 O 0.03366 0.59707 0.31519 0.0
Co140 Co 0.85137 0.70018 0.56205 0.0
O141 O 0.93165 0.71059 0.56039 0.0
O142 O 0.89705 0.63557 0.5791 0.0
C143 C 0.83051 0.74399 0.47644 0.0
O144 O 0.77492 0.66185 0.56382 0.0
Co145 Co 0.76395 0.77444 0.57346 0.0
O146 O 0.7113 0.72243 0.5452 0.0
C147 C 0.83073 0.76714 0.66983 0.0
C148 C 0.94084 0.66135 0.57409 0.0
C149 C 0.72523 0.67359 0.54952 0.0
O150 O 0.85062 0.72422 0.64537 0.0
O151 O 0.79616 0.7964 0.64479 0.0
O152 O 0.85004 0.69561 0.48103 0.0
O153 O 0.82698 0.76681 0.52315 0.0
Co154 Co 0.68429 0.54727 0.87473 0.0
O155 O 0.67362 0.48061 0.83948 0.0
O156 O 0.7511 0.50932 0.87003 0.0
C157 C 0.61666 0.55435 0.93092 0.0
O158 O 0.71195 0.60959 0.91144 0.0
Co159 Co 0.6027 0.64388 0.85808 0.0
O160 O 0.66162 0.6824 0.89043 0.0
C161 C 0.65903 0.58046 0.77536 0.0
C162 C 0.72572 0.47394 0.84444 0.0
C163 C 0.70432 0.65974 0.90907 0.0
O164 O 0.69872 0.57993 0.80594 0.0
O165 O 0.61316 0.60183 0.79 0.0
O166 O 0.65774 0.52232 0.94179 0.0
O167 O 0.61284 0.5714 0.88292 0.0
Co168 Co 0.0992 0.84889 0.9415 0.0
O169 O 0.17797 0.85046 0.95276 0.0
O170 O 0.14291 0.82585 0.87852 0.0
C171 C 0.08585 0.93887 0.98019 0.0
O172 O 1.02555 0.8449 0.89888 0.0
Co173 Co 1.01796 0.84335 1.00737 0.0
O174 O 0.96187 0.82359 0.9558 0.0
C175 C 0.07219 0.74235 1.00594 0.0
C176 C 0.18618 0.83452 0.90397 0.0
C177 C 0.9768 0.82953 0.90776 0.0
O178 O 0.09986 0.76746 0.96923 0.0
O179 O 0.03391 0.76804 0.03028 0.0
O180 O 0.0984 0.9289 0.93062 0.0
O181 O 0.07788 0.89494 1.00667 0.0
Co182 Co 1.01595 0.37794 0.67772 0.0
O183 O 0.94153 0.40169 0.66456 0.0
O184 O 0.97204 0.35937 0.73646 0.0
C185 C 0.04527 0.4545 0.65045 0.0
O186 O 0.08542 0.34831 0.7094 0.0
Co187 Co 0.1185 0.37968 0.59583 0.0
O188 O 0.1579 0.34067 0.65402 0.0
C189 C 0.03582 0.31326 0.59272 0.0
C190 C 0.93321 0.38592 0.71336 0.0
C191 C 0.13442 0.33204 0.69904 0.0
O192 O 1.01104 0.31001 0.63806 0.0
O193 O 0.04436 0.35946 0.57606 0.0
O194 O 1.02835 0.45014 0.6997 0.0
O195 O 0.04873 0.41285 0.62148 0.0
Co196 Co 0.5992 0.34889 0.4415 0.0
O197 O 0.67797 0.35046 0.45276 0.0
O198 O 0.64291 0.32585 0.37852 0.0
C199 C 0.58585 0.43887 0.48019 0.0
O200 O 0.52555 0.3449 0.39888 0.0
Co201 Co 0.51796 0.34335 0.50737 0.0
O202 O 0.46187 0.32359 0.4558 0.0
C203 C 0.57219 0.24235 0.50594 0.0
C204 C 0.68618 0.33452 0.40397 0.0
C205 C 0.4768 0.32953 0.40776 0.0
O206 O 0.59986 0.26746 0.46923 0.0
O207 O 0.53391 0.26804 0.53028 0.0
O208 O 0.5984 0.4289 0.43062 0.0
O209 O 0.57788 0.39494 0.50667 0.0
Co210 Co 0.51595 0.87794 0.17772 0.0
O211 O 0.44153 0.90169 0.16456 0.0
O212 O 0.47204 0.85937 0.23646 0.0
C213 C 0.54527 0.9545 0.15045 0.0
O214 O 0.58542 0.84831 0.2094 0.0
Co215 Co 0.6185 0.87968 0.09583 0.0
O216 O 0.6579 0.84067 0.15402 0.0
C217 C 0.53582 0.81326 0.09272 0.0
C218 C 0.43321 0.88592 0.21336 0.0
C219 C 0.63442 0.83204 0.19904 0.0
O220 O 0.51104 0.81001 0.13806 0.0
O221 O 0.54436 0.85946 0.07607 0.0
O222 O 0.52835 0.95014 0.1997 0.0
O223 O 0.54873 0.91285 0.12148 0.0
Co224 Co 0.96474 0.16454 0.78421 0.0
O225 O 0.97578 0.23802 0.78217 0.0
O226 O 0.9104 0.19589 0.74146 0.0
C227 C 0.97447 0.16367 0.86998 0.0
O228 O 0.93749 0.09299 0.77785 0.0
Co229 Co 0.04287 0.07845 0.83617 0.0
O230 O 0.97954 0.03416 0.83062 0.0
C231 C 0.04965 0.10712 0.72142 0.0
C232 C 0.92789 0.23896 0.76171 0.0
C233 C 0.94318 0.04699 0.79737 0.0
O234 O 1.01486 0.14645 0.72474 0.0
O235 O 0.06509 0.07692 0.75945 0.0
O236 O 0.92722 0.17679 0.85162 0.0
O237 O 1.01301 0.14998 0.83701 0.0
Co238 Co 0.86725 0.20794 0.5187 0.0
O239 O 0.93766 0.21205 0.5479 0.0
O240 O 0.88977 0.13969 0.5457 0.0
C241 C 0.88463 0.25411 0.44439 0.0
O242 O 0.79869 0.18686 0.48929 0.0
Co243 Co 0.77772 0.28735 0.48014 0.0
O244 O 0.72879 0.23445 0.51469 0.0
C245 C 0.80778 0.28097 0.58728 0.0
C246 C 0.93479 0.16106 0.55542 0.0
C247 C 0.75637 0.1911 0.51809 0.0
O248 O 0.82958 0.23351 0.58704 0.0
O249 O 0.81173 0.31037 0.54637 0.0
O250 O 0.90043 0.20422 0.44729 0.0
O251 O 0.85818 0.27366 0.48476 0.0
Co252 Co 0.70993 1.02604 0.37137 0.0
O253 O 0.70236 0.95175 0.37039 0.0
O254 O 0.77778 0.99545 0.35189 0.0
C255 C 0.66595 0.03567 0.44742 0.0
O256 O 0.73313 0.10044 0.37003 0.0
Co257 Co 0.61504 0.11727 0.3815 0.0
O258 O 0.67076 0.15784 0.34038 0.0
C259 C 0.63699 0.04944 0.29811 0.0
C260 C 0.75404 0.95134 0.35966 0.0
C261 C 0.71903 0.13764 0.3382 0.0
O262 O 0.68607 0.03236 0.29735 0.0
O263 O 0.61177 0.04854 0.34259 0.0
O264 O 0.71735 1.02245 0.44716 0.0
O265 O 0.64298 0.0451 0.40302 0.0
Co266 Co 0.82855 0.95825 0.06547 0.0
O267 O 0.74932 0.94941 0.06286 0.0
O268 O 0.78482 1.02194 0.08829 0.0
C269 C 0.83747 0.91907 0.97593 0.0
O270 O 0.90286 0.99945 0.07117 0.0
Co271 Co 0.91197 0.89348 0.06923 0.0
O272 O 0.96877 0.94313 0.09116 0.0
C273 C 0.85714 0.89054 0.16938 0.0
C274 C 0.74129 0.99818 0.07821 0.0
C275 C 0.95243 0.99098 0.08679 0.0
O276 O 0.82927 0.92899 0.14607 0.0
O277 O 0.89517 0.86673 0.14293 0.0
O278 O 0.82738 0.96907 0.98548 0.0
O279 O 0.8486 0.89273 0.01972 0.0
Co280 Co 0.36725 0.70794 0.0187 0.0
O281 O 0.43766 0.71205 0.0479 0.0
O282 O 0.38977 0.63969 0.0457 0.0
C283 C 0.38463 0.75411 0.94439 0.0
O284 O 0.29869 0.68686 0.98929 0.0
Co285 Co 0.27772 0.78735 0.98014 0.0
O286 O 0.22879 0.73445 0.01469 0.0
C287 C 0.30778 0.78097 0.08728 0.0
C288 C 0.43479 0.66106 0.05542 0.0
C289 C 0.25637 0.6911 0.01809 0.0
O290 O 0.32958 0.73351 0.08704 0.0
O291 O 0.31173 0.81037 0.04637 0.0
O292 O 0.40043 0.70422 0.94729 0.0
O293 O 0.35818 0.77366 0.98476 0.0
Co294 Co 0.20993 0.52604 0.87137 0.0
O295 O 0.20236 0.45175 0.87039 0.0
O296 O 0.27778 0.49545 0.85189 0.0
C297 C 0.16595 0.53567 0.94742 0.0
O298 O 0.23313 0.60044 0.87003 0.0
Co299 Co 0.11504 0.61727 0.8815 0.0
O300 O 0.17076 0.65784 0.84038 0.0
C301 C 0.13699 0.54944 0.79811 0.0
C302 C 0.25404 0.45134 0.85966 0.0
C303 C 0.21903 0.63764 0.8382 0.0
O304 O 0.18607 0.53236 0.79735 0.0
O305 O 0.11177 0.54854 0.84259 0.0
O306 O 0.21735 0.52245 0.94716 0.0
O307 O 0.14298 0.5451 0.90302 0.0
Co308 Co 0.32855 0.45825 0.56547 0.0
O309 O 0.24932 0.44941 0.56286 0.0
O310 O 0.28482 0.52194 0.58829 0.0
C311 C 0.33747 0.41907 0.47593 0.0
O312 O 0.40286 0.49945 0.57117 0.0
Co313 Co 0.41197 0.39348 0.56923 0.0
O314 O 0.46877 0.44313 0.59116 0.0
C315 C 0.35714 0.39054 0.66938 0.0
C316 C 0.24129 0.49818 0.57821 0.0
C317 C 0.45243 0.49098 0.58679 0.0
O318 O 0.32927 0.42899 0.64607 0.0
O319 O 0.39517 0.36673 0.64293 0.0
O320 O 0.32738 0.46907 0.48548 0.0
O321 O 0.3486 0.39273 0.51972 0.0
Co322 Co 0.46474 0.66454 0.28421 0.0
O323 O 0.47578 0.73802 0.28217 0.0
O324 O 0.4104 0.69589 0.24146 0.0
C325 C 0.47447 0.66367 0.36998 0.0
O326 O 0.43749 0.59299 0.27785 0.0
Co327 Co 0.54287 0.57845 0.33617 0.0
O328 O 0.47954 0.53416 0.33062 0.0
C329 C 0.54965 0.60712 0.22142 0.0
C330 C 0.42789 0.73896 0.26171 0.0
C331 C 0.44318 0.54699 0.29737 0.0
O332 O 0.51486 0.64645 0.22474 0.0
O333 O 0.56509 0.57692 0.25945 0.0
O334 O 0.42722 0.67679 0.35162 0.0
O335 O 0.51301 0.64998 0.33701 0.0
Co336 Co 0.06279 0.10727 0.04335 0.0
C337 C 0.07786 0.17675 0.13042 0.0
Co338 Co 0.10987 0.06168 0.09629 0.0
C339 C 1.02866 0.14186 0.94339 0.0
C340 C 0.97661 0.1701 1.00748 0.0
N341 N 1.02482 0.14446 0.99602 0.0
N342 N 0.9838 0.16307 0.92175 0.0
C343 C 0.95081 0.18137 0.96122 0.0
H344 H 0.06153 0.12105 0.92178 0.0
H345 H 0.95915 0.17608 0.04706 0.0
C346 C 0.09485 0.99411 1.00837 0.0
N347 N 0.14137 1.0274 0.15071 0.0
C348 C 0.12256 0.04359 0.19835 0.0
C349 C 0.19459 1.01557 0.15631 0.0
N350 N 0.16293 0.05052 0.23121 0.0
C351 C 0.20822 0.03001 0.20687 0.0
C352 C 0.9942 0.03515 0.09168 0.0
O353 O 0.07476 0.03973 0.99246 0.0
O354 O 0.11899 0.99554 0.05273 0.0
O355 O 0.03793 1.02861 0.1179 0.0
O356 O 0.99294 0.07483 0.061 0.0
O357 O 0.10336 0.13317 0.14312 0.0
H358 H 0.22291 1.00657 0.12372 0.0
H359 H 0.08185 0.06012 0.20513 0.0
O360 O 0.04941 0.17194 0.08964 0.0
O361 O 0.13442 0.14293 0.02373 0.0
O362 O 0.18133 0.09041 0.07499 0.0
C363 C 0.1799 0.13223 0.04653 0.0
H364 H 0.91078 0.19969 0.95684 0.0
H365 H 0.24876 0.03182 0.22176 0.0
Co366 Co 0.34737 0.86022 0.33744 0.0
C367 C 0.38789 0.77781 0.28179 0.0
Co368 Co 0.29314 0.8406 0.27274 0.0
C369 C 0.36546 0.91642 0.43085 0.0
C370 C 0.3997 0.83724 0.43134 0.0
N371 N 0.38499 0.87726 0.39807 0.0
N372 N 0.35795 0.89869 0.48065 0.0
C373 C 0.38139 0.8497 0.48191 0.0
H374 H 0.34798 0.9539 0.41721 0.0
H375 H 0.41174 0.79747 0.41876 0.0
C376 C 0.25678 0.92788 0.32533 0.0
N377 N 0.25609 0.82159 0.21273 0.0
C378 C 0.27628 0.78325 0.17903 0.0
C379 C 0.23491 0.8596 0.18053 0.0
N380 N 0.27662 0.80008 0.12856 0.0
C381 C 0.24825 0.84684 0.12885 0.0
C382 C 0.25828 0.80099 0.36722 0.0
O383 O 0.29939 0.91643 0.34956 0.0
O384 O 0.24464 0.90083 0.28533 0.0
O385 O 0.24754 0.80202 0.31794 0.0
O386 O 0.30241 0.8186 0.38236 0.0
O387 O 0.34197 0.78195 0.2614 0.0
H388 H 0.21999 0.8985 0.19321 0.0
H389 H 0.29818 0.74743 0.1911 0.0
O390 O 0.39714 0.80468 0.32259 0.0
O391 O 0.38992 0.90107 0.29414 0.0
O392 O 0.34025 0.87933 0.2271 0.0
C393 C 0.38354 0.89735 0.24425 0.0
H394 H 0.38011 0.82266 0.51537 0.0
H395 H 0.24274 0.8728 0.09484 0.0
Co396 Co 0.55262 0.07921 0.55512 0.0
C397 C 0.58159 0.18288 0.52177 0.0
Co398 Co 0.62909 0.09492 0.59132 0.0
C399 C 0.47275 1.01334 0.53059 0.0
C400 C 0.44195 0.0931 0.54324 0.0
N401 N 0.48703 0.06377 0.52951 0.0
N402 N 0.42473 1.00969 0.55512 0.0
C403 C 0.4035 0.05944 0.5605 0.0
H404 H 0.50112 0.9799 0.52453 0.0
H405 H 0.441 0.13509 0.55178 0.0
C406 C 0.59545 0.98877 0.62635 0.0
N407 N 0.69755 0.11279 0.61522 0.0
C408 C 0.71114 0.16112 0.59818 0.0
C409 C 0.74041 0.08082 0.60008 0.0
N410 N 0.74982 0.15743 0.5599 0.0
C411 C 0.77143 0.10777 0.56372 0.0
C412 C 0.5474 0.12447 0.65319 0.0
O413 O 0.56045 1.00401 0.59184 0.0
O414 O 0.63132 1.02332 0.6351 0.0
O415 O 0.59751 0.12916 0.64693 0.0
O416 O 0.52006 0.10503 0.61701 0.0
O417 O 0.62293 0.16558 0.54704 0.0
H418 H 0.74087 0.03806 0.60275 0.0
H419 H 0.68562 0.19655 0.60488 0.0
O420 O 0.54302 0.15124 0.52139 0.0
O421 O 0.5856 0.05374 0.49391 0.0
O422 O 0.66197 0.06079 0.53465 0.0
C423 C 0.63644 0.04801 0.49474 0.0
H424 H 0.36643 0.0708 0.58214 0.0
H425 H 0.80101 0.08965 0.53612 0.0
Co426 Co 0.37237 0.34289 0.83485 0.0
C427 C 0.34729 0.37184 0.72749 0.0
Co428 Co 0.29949 0.30332 0.81167 0.0
C429 C 0.4503 0.37245 0.9068 0.0
C430 C 0.48211 0.36387 0.82672 0.0
N431 N 0.43564 0.36975 0.85564 0.0
N432 N 0.50329 0.36103 0.91116 0.0
C433 C 0.52395 0.35767 0.86105 0.0
H434 H 0.42195 0.37242 0.94031 0.0
H435 H 0.48462 0.35498 0.78457 0.0
C436 C 0.32762 0.27421 0.92127 0.0
N437 N 0.23307 0.28024 0.78788 0.0
C438 C 0.215 0.29135 0.73821 0.0
C439 C 0.18781 0.28193 0.81904 0.0
N440 N 0.16206 0.30608 0.73846 0.0
C441 C 0.14423 0.29792 0.78887 0.0
C442 C 0.38773 0.24267 0.79257 0.0
O443 O 0.36269 0.30804 0.9083 0.0
O444 O 0.2931 0.26495 0.88493 0.0
O445 O 0.33722 0.24366 0.78526 0.0
O446 O 0.40984 0.28203 0.81204 0.0
O447 O 0.30902 0.34168 0.74018 0.0
H448 H 0.18758 0.28062 0.86212 0.0
H449 H 0.24098 0.29488 0.70326 0.0
O450 O 0.38287 0.37654 0.76287 0.0
O451 O 0.33552 0.40302 0.85708 0.0
O452 O 0.26176 0.36262 0.83831 0.0
C453 C 0.28483 0.40297 0.8538 0.0
H454 H 0.56506 0.3448 0.8502 0.0
H455 H 0.10384 0.30816 0.80418 0.0
Co456 Co 0.05483 0.05284 0.57369 0.0
C457 C 0.06816 0.09313 0.66961 0.0
Co458 Co 0.10041 0.12466 0.57087 0.0
C459 C 0.06572 0.95371 0.52829 0.0
C460 C 0.04269 0.94808 0.61063 0.0
N461 N 0.03969 0.98145 0.56854 0.0
N462 N 0.09038 0.90907 0.54518 0.0
C463 C 0.07407 0.90375 0.59643 0.0
H464 H 0.07155 0.96748 0.48798 0.0
H465 H 0.02986 0.9581 0.65099 0.0
C466 C 0.08951 0.08221 0.47408 0.0
N467 N 0.11572 0.19533 0.57188 0.0
C468 C 0.08155 0.22798 0.60101 0.0
C469 C 0.13294 0.22546 0.53107 0.0
N470 N 0.07283 0.27474 0.57755 0.0
C471 C 0.10667 0.27467 0.5346 0.0
C472 C 0.17176 0.04947 0.58288 0.0
O473 O 0.05706 0.05542 0.5003 0.0
O474 O 0.11381 0.11854 0.49701 0.0
O475 O 0.17226 0.09977 0.583 0.0
O476 O 0.12786 1.02719 0.57625 0.0
O477 O 0.08918 0.12861 0.6425 0.0
H478 H 0.15705 0.21088 0.49741 0.0
H479 H 0.05652 0.21547 0.63419 0.0
O480 O 0.05104 0.05232 0.64772 0.0
O481 O 0.98223 0.07824 0.57234 0.0
O482 O 1.028 0.14949 0.55958 0.0
C483 C 0.98319 0.12801 0.56494 0.0
H484 H 0.0867 0.87174 0.6227 0.0
H485 H 0.10902 0.30625 0.50553 0.0
Co486 Co 0.33716 0.86691 0.83844 0.0
C487 C 0.24049 0.83254 0.87644 0.0
Co488 Co 0.32366 0.79155 0.8005 0.0
C489 C 0.4044 0.94356 0.8695 0.0
C490 C 0.32341 0.97502 0.85858 0.0
N491 N 0.3529 0.92989 0.86722 0.0
N492 N 0.40908 0.99298 0.85199 0.0
C493 C 0.35841 1.0143 0.84839 0.0
H494 H 0.43817 0.91488 0.87116 0.0
H495 H 0.28099 0.97689 0.84918 0.0
C496 C 0.42288 0.831 0.7629 0.0
N497 N 0.30565 0.72562 0.775 0.0
C498 C 0.25564 0.70826 0.78556 0.0
C499 C 0.33914 0.68252 0.78106 0.0
N500 N 0.25791 0.6598 0.80752 0.0
C501 C 0.30996 0.64227 0.80237 0.0
C502 C 0.28614 0.87413 0.74094 0.0
O503 O 0.40684 0.86413 0.79846 0.0
O504 O 0.39229 0.79222 0.75464 0.0
O505 O 0.28543 0.82444 0.74674 0.0
O506 O 0.30503 0.9017 0.77786 0.0
O507 O 0.25642 0.79401 0.84654 0.0
H508 H 0.38276 0.68348 0.78088 0.0
H509 H 0.21945 0.73396 0.78675 0.0
O510 O 0.27001 0.87184 0.87818 0.0
O511 O 0.36908 0.83187 0.89633 0.0
O512 O 0.36199 0.7567 0.85515 0.0
C513 C 0.37711 0.78199 0.89477 0.0
H514 H 0.34766 0.05259 0.83123 0.0
H515 H 0.32672 0.60542 0.81838 0.0
Co516 Co 0.58532 0.06188 0.04259 0.0
C517 C 0.68681 1.02696 0.07913 0.0
Co518 Co 0.60149 0.09945 0.11773 0.0
C519 C 0.52947 0.05704 0.94853 0.0
C520 C 0.61147 1.02746 0.93885 0.0
N521 N 0.57166 0.03679 0.97602 0.0
N522 N 0.54403 0.06756 0.89853 0.0
C523 C 0.59461 0.04697 0.89108 0.0
H524 H 0.4902 0.06904 0.96509 0.0
H525 H 0.65288 1.01533 0.94656 0.0
C526 C 0.49723 0.13398 0.07837 0.0
N527 N 0.61363 0.1258 0.18456 0.0
C528 C 0.64594 0.09631 0.21637 0.0
C529 C 0.57197 0.14302 0.21701 0.0
N530 N 0.62161 0.08697 0.26305 0.0
C531 C 0.5761 0.11788 0.26511 0.0
C532 C 0.63428 0.15782 0.03779 0.0
O533 O 0.51222 0.09748 0.04617 0.0
O534 O 0.53066 0.14387 0.1145 0.0
O535 O 0.63706 0.15212 0.08752 0.0
O536 O 0.61311 0.12285 1.01008 0.0
O537 O 0.67105 0.05692 0.11756 0.0
H538 H 0.53634 0.1656 0.20491 0.0
H539 H 0.68321 0.07568 0.20398 0.0
O540 O 0.65615 1.02491 0.03973 0.0
O541 O 0.55923 1.00356 0.07426 0.0
O542 O 0.56674 0.04359 0.1512 0.0
C543 C 0.55573 1.00342 0.12467 0.0
H544 H 0.61928 0.05018 0.85507 0.0
H545 H 0.54605 0.11893 0.29723 0.0
Co546 Co 0.32327 0.30498 0.34365 0.0
C547 C 0.43433 0.32335 0.36431 0.0
Co548 Co 0.34914 0.37376 0.30439 0.0
C549 C 0.25193 0.23755 0.39501 0.0
C550 C 0.33266 0.20344 0.39324 0.0
N551 N 0.30254 0.24647 0.37846 0.0
N552 N 0.24812 0.18867 0.41504 0.0
C553 C 0.29928 0.16795 0.4166 0.0
H554 H 0.21743 0.26397 0.3874 0.0
H555 H 0.37537 0.19664 0.38456 0.0
C556 C 0.23699 0.35678 0.2832 0.0
N557 N 0.37112 0.43396 0.27504 0.0
C558 C 0.40736 0.46204 0.3001 0.0
C559 C 0.35159 0.46559 0.23605 0.0
N560 N 0.41091 0.51004 0.27946 0.0
C561 C 0.37625 0.51327 0.23887 0.0
C562 C 0.34671 0.2869 0.22749 0.0
O563 O 0.24678 0.31902 0.31611 0.0
O564 O 0.27433 0.3899 0.27807 0.0
O565 O 0.36005 0.33506 0.23369 0.0
O566 O 0.3349 0.26276 0.27152 0.0
O567 O 0.42552 0.35836 0.32883 0.0
H568 H 0.31974 0.45582 0.20955 0.0
H569 H 0.42764 0.44973 0.33598 0.0
O570 O 0.39706 0.29082 0.37113 0.0
O571 O 0.31219 0.34478 0.41498 0.0
O572 O 0.33809 0.41507 0.37546 0.0
C573 C 0.32759 0.39228 0.41992 0.0
H574 H 0.31088 0.12741 0.42682 0.0
H575 H 0.36874 0.54765 0.21382 0.0
Co576 Co 0.55483 0.55284 0.07369 0.0
C577 C 0.56816 0.59313 0.16961 0.0
Co578 Co 0.60041 0.62466 0.07087 0.0
C579 C 0.56572 0.45371 0.02829 0.0
C580 C 0.54269 0.44808 0.11063 0.0
N581 N 0.53969 0.48145 0.06854 0.0
N582 N 0.59038 0.40907 0.04518 0.0
C583 C 0.57407 0.40375 0.09643 0.0
H584 H 0.57155 0.46748 0.98798 0.0
H585 H 0.52986 0.4581 0.15099 0.0
C586 C 0.58951 0.58221 0.97408 0.0
N587 N 0.61572 0.69533 0.07188 0.0
C588 C 0.58155 0.72798 0.10101 0.0
C589 C 0.63294 0.72546 0.03107 0.0
N590 N 0.57283 0.77474 0.07755 0.0
C591 C 0.60667 0.77467 0.0346 0.0
C592 C 0.67176 0.54947 0.08288 0.0
O593 O 0.55706 0.55542 1.0003 0.0
O594 O 0.61381 0.61854 0.99701 0.0
O595 O 0.67226 0.59977 0.083 0.0
O596 O 0.62786 0.52719 0.07625 0.0
O597 O 0.58918 0.62861 0.1425 0.0
H598 H 0.65705 0.71088 0.99741 0.0
H599 H 0.55652 0.71547 0.13419 0.0
O600 O 0.55104 0.55232 0.14772 0.0
O601 O 0.48223 0.57824 0.07234 0.0
O602 O 0.528 0.64949 0.05958 0.0
C603 C 0.48319 0.62801 0.06494 0.0
H604 H 0.5867 0.37174 0.1227 0.0
H605 H 0.60901 0.80625 1.00553 0.0
Co606 Co 0.83716 0.36691 0.33844 0.0
C607 C 0.74049 0.33254 0.37644 0.0
Co608 Co 0.82366 0.29155 0.3005 0.0
C609 C 0.9044 0.44356 0.3695 0.0
C610 C 0.82341 0.47502 0.35858 0.0
N611 N 0.8529 0.42989 0.36722 0.0
N612 N 0.90908 0.49298 0.35199 0.0
C613 C 0.85841 0.5143 0.34839 0.0
H614 H 0.93817 0.41488 0.37116 0.0
H615 H 0.78099 0.47689 0.34918 0.0
C616 C 0.92288 0.331 0.2629 0.0
N617 N 0.80565 0.22562 0.275 0.0
C618 C 0.75564 0.20826 0.28556 0.0
C619 C 0.83914 0.18252 0.28106 0.0
N620 N 0.75791 0.1598 0.30752 0.0
C621 C 0.80996 0.14227 0.30237 0.0
C622 C 0.78614 0.37413 0.24094 0.0
O623 O 0.90684 0.36413 0.29846 0.0
O624 O 0.89229 0.29222 0.25464 0.0
O625 O 0.78543 0.32444 0.24674 0.0
O626 O 0.80503 0.4017 0.27786 0.0
O627 O 0.75642 0.29401 0.34654 0.0
H628 H 0.88276 0.18348 0.28088 0.0
H629 H 0.71945 0.23396 0.28675 0.0
O630 O 0.77001 0.37184 0.37818 0.0
O631 O 0.86908 0.33187 0.39633 0.0
O632 O 0.86199 0.2567 0.35515 0.0
C633 C 0.87711 0.28199 0.39477 0.0
H634 H 0.84766 0.55259 0.33123 0.0
H635 H 0.82672 0.10542 0.31838 0.0
Co636 Co 0.08532 0.56188 0.54259 0.0
C637 C 0.18681 0.52696 0.57913 0.0
Co638 Co 0.10149 0.59945 0.61773 0.0
C639 C 1.02947 0.55704 0.44853 0.0
C640 C 0.11147 0.52746 0.43885 0.0
N641 N 0.07166 0.53679 0.47602 0.0
N642 N 0.04403 0.56756 0.39853 0.0
C643 C 0.09461 0.54697 0.39108 0.0
H644 H 0.9902 0.56904 0.46509 0.0
H645 H 0.15288 0.51533 0.44656 0.0
C646 C 0.99723 0.63398 0.57837 0.0
N647 N 0.11363 0.6258 0.68456 0.0
C648 C 0.14594 0.59631 0.71637 0.0
C649 C 0.07197 0.64302 0.71701 0.0
N650 N 0.12161 0.58697 0.76305 0.0
C651 C 0.0761 0.61788 0.76511 0.0
C652 C 0.13428 0.65782 0.53779 0.0
O653 O 1.01222 0.59748 0.54617 0.0
O654 O 0.03066 0.64387 0.6145 0.0
O655 O 0.13706 0.65212 0.58752 0.0
O656 O 0.11311 0.62285 0.51008 0.0
O657 O 0.17105 0.55692 0.61756 0.0
H658 H 0.03634 0.6656 0.70491 0.0
H659 H 0.18321 0.57568 0.70398 0.0
O660 O 0.15615 0.52491 0.53973 0.0
O661 O 0.05923 0.50356 0.57426 0.0
O662 O 0.06674 0.54359 0.6512 0.0
C663 C 0.05573 0.50342 0.62467 0.0
H664 H 0.11928 0.55018 0.35507 0.0
H665 H 0.04605 0.61893 0.79723 0.0
Co666 Co 0.87237 0.84289 0.33485 0.0
C667 C 0.84729 0.87184 0.22749 0.0
Co668 Co 0.79949 0.80332 0.31167 0.0
C669 C 0.9503 0.87245 0.4068 0.0
C670 C 0.98211 0.86387 0.32672 0.0
N671 N 0.93564 0.86975 0.35564 0.0
N672 N 1.00329 0.86103 0.41116 0.0
C673 C 1.02395 0.85767 0.36105 0.0
H674 H 0.92195 0.87242 0.44031 0.0
H675 H 0.98462 0.85498 0.28457 0.0
C676 C 0.82762 0.77421 0.42127 0.0
N677 N 0.73307 0.78024 0.28788 0.0
C678 C 0.715 0.79135 0.23821 0.0
C679 C 0.68781 0.78193 0.31904 0.0
N680 N 0.66206 0.80608 0.23846 0.0
C681 C 0.64423 0.79792 0.28887 0.0
C682 C 0.88773 0.74267 0.29257 0.0
O683 O 0.86269 0.80804 0.4083 0.0
O684 O 0.7931 0.76495 0.38493 0.0
O685 O 0.83722 0.74366 0.28526 0.0
O686 O 0.90984 0.78203 0.31204 0.0
O687 O 0.80902 0.84168 0.24018 0.0
H688 H 0.68758 0.78062 0.36212 0.0
H689 H 0.74098 0.79488 0.20326 0.0
O690 O 0.88287 0.87654 0.26287 0.0
O691 O 0.83552 0.90302 0.35708 0.0
O692 O 0.76176 0.86262 0.33831 0.0
C693 C 0.78483 0.90297 0.3538 0.0
H694 H 0.06506 0.8448 0.3502 0.0
H695 H 0.60384 0.80816 0.30418 0.0
Co696 Co 0.84737 0.36022 0.83744 0.0
C697 C 0.88789 0.27781 0.78179 0.0
Co698 Co 0.79314 0.3406 0.77274 0.0
C699 C 0.86546 0.41642 0.93085 0.0
C700 C 0.8997 0.33724 0.93134 0.0
N701 N 0.88499 0.37726 0.89807 0.0
N702 N 0.85795 0.39869 0.98065 0.0
C703 C 0.88139 0.3497 0.98191 0.0
H704 H 0.84798 0.4539 0.91721 0.0
H705 H 0.91174 0.29747 0.91876 0.0
C706 C 0.75678 0.42788 0.82533 0.0
N707 N 0.75609 0.32159 0.71273 0.0
C708 C 0.77628 0.28325 0.67903 0.0
C709 C 0.73491 0.3596 0.68053 0.0
N710 N 0.77662 0.30008 0.62856 0.0
C711 C 0.74825 0.34684 0.62885 0.0
C712 C 0.75828 0.30099 0.86722 0.0
O713 O 0.79939 0.41643 0.84956 0.0
O714 O 0.74464 0.40083 0.78533 0.0
O715 O 0.74754 0.30202 0.81794 0.0
O716 O 0.80241 0.3186 0.88236 0.0
O717 O 0.84197 0.28195 0.7614 0.0
H718 H 0.71999 0.3985 0.69321 0.0
H719 H 0.79818 0.24743 0.6911 0.0
O720 O 0.89714 0.30468 0.82259 0.0
O721 O 0.88992 0.40107 0.79413 0.0
O722 O 0.84025 0.37933 0.7271 0.0
C723 C 0.88354 0.39735 0.74425 0.0
H724 H 0.88011 0.32266 0.01537 0.0
H725 H 0.74274 0.3728 0.59484 0.0
Co726 Co 0.82327 0.80498 0.84365 0.0
C727 C 0.93433 0.82335 0.86431 0.0
Co728 Co 0.84914 0.87376 0.80439 0.0
C729 C 0.75193 0.73755 0.89501 0.0
C730 C 0.83266 0.70344 0.89324 0.0
N731 N 0.80254 0.74647 0.87846 0.0
N732 N 0.74812 0.68867 0.91504 0.0
C733 C 0.79928 0.66795 0.9166 0.0
H734 H 0.71743 0.76397 0.8874 0.0
H735 H 0.87537 0.69664 0.88456 0.0
C736 C 0.73699 0.85678 0.7832 0.0
N737 N 0.87112 0.93396 0.77504 0.0
C738 C 0.90736 0.96204 0.8001 0.0
C739 C 0.85159 0.96559 0.73605 0.0
N740 N 0.91091 1.01004 0.77946 0.0
C741 C 0.87625 1.01327 0.73887 0.0
C742 C 0.84671 0.7869 0.72749 0.0
O743 O 0.74678 0.81902 0.81611 0.0
O744 O 0.77433 0.8899 0.77807 0.0
O745 O 0.86005 0.83506 0.73369 0.0
O746 O 0.8349 0.76276 0.77152 0.0
O747 O 0.92552 0.85836 0.82883 0.0
H748 H 0.81974 0.95582 0.70955 0.0
H749 H 0.92764 0.94973 0.83598 0.0
O750 O 0.89706 0.79082 0.87113 0.0
O751 O 0.81219 0.84478 0.91498 0.0
O752 O 0.83809 0.91507 0.87546 0.0
C753 C 0.82759 0.89228 0.91992 0.0
H754 H 0.81088 0.62741 0.92682 0.0
H755 H 0.86874 0.04765 0.71382 0.0
Co756 Co 0.56279 0.60727 0.54335 0.0
C757 C 0.57786 0.67675 0.63042 0.0
Co758 Co 0.60987 0.56168 0.59629 0.0
C759 C 0.52866 0.64186 0.44339 0.0
C760 C 0.47661 0.6701 0.50748 0.0
N761 N 0.52482 0.64446 0.49602 0.0
N762 N 0.4838 0.66307 0.42175 0.0
C763 C 0.45081 0.68137 0.46122 0.0
H764 H 0.56153 0.62105 0.42178 0.0
H765 H 0.45915 0.67608 0.54706 0.0
C766 C 0.59485 0.49411 0.50837 0.0
N767 N 0.64137 0.5274 0.65071 0.0
C768 C 0.62256 0.54359 0.69835 0.0
C769 C 0.69459 0.51557 0.65631 0.0
N770 N 0.66293 0.55052 0.73121 0.0
C771 C 0.70822 0.53001 0.70687 0.0
C772 C 0.4942 0.53515 0.59168 0.0
O773 O 0.57476 0.53973 0.49246 0.0
O774 O 0.61899 0.49554 0.55273 0.0
O775 O 0.53793 0.52861 0.6179 0.0
O776 O 0.49294 0.57483 0.561 0.0
O777 O 0.60336 0.63317 0.64312 0.0
H778 H 0.72291 0.50657 0.62372 0.0
H779 H 0.58185 0.56012 0.70513 0.0
O780 O 0.54941 0.67194 0.58964 0.0
O781 O 0.63442 0.64293 0.52373 0.0
O782 O 0.68133 0.59041 0.57499 0.0
C783 C 0.6799 0.63223 0.54653 0.0
H784 H 0.41078 0.69969 0.45684 0.0
H785 H 0.74876 0.53182 0.72176 0.0
Co786 Co 0.05262 0.57921 0.05512 0.0
C787 C 0.08159 0.68288 0.02177 0.0
Co788 Co 0.12909 0.59492 0.09132 0.0
C789 C 0.97275 0.51334 0.03059 0.0
C790 C 0.94195 0.5931 0.04324 0.0
N791 N 0.98703 0.56377 0.02951 0.0
N792 N 0.92473 0.50969 0.05512 0.0
C793 C 0.9035 0.55944 0.0605 0.0
H794 H 1.00112 0.4799 0.02453 0.0
H795 H 0.941 0.63509 0.05178 0.0
C796 C 0.09545 0.48877 0.12635 0.0
N797 N 0.19755 0.61279 0.11522 0.0
C798 C 0.21114 0.66112 0.09818 0.0
C799 C 0.24041 0.58082 0.10008 0.0
N800 N 0.24982 0.65743 0.0599 0.0
C801 C 0.27143 0.60777 0.06372 0.0
C802 C 0.0474 0.62447 0.15319 0.0
O803 O 0.06045 0.50401 0.09184 0.0
O804 O 0.13132 0.52332 0.1351 0.0
O805 O 0.09751 0.62916 0.14693 0.0
O806 O 1.02006 0.60503 0.11701 0.0
O807 O 0.12293 0.66558 0.04704 0.0
H808 H 0.24087 0.53806 0.10275 0.0
H809 H 0.18562 0.69655 0.10488 0.0
O810 O 0.04302 0.65124 0.02139 0.0
O811 O 0.0856 0.55374 0.99391 0.0
O812 O 0.16197 0.56079 0.03465 0.0
C813 C 0.13644 0.54801 0.99474 0.0
H814 H 0.86643 0.5708 0.08214 0.0
H815 H 0.30101 0.58965 0.03612 0.0
loop_
_geom_bond_atom_site_label_1
_geom_bond_atom_site_label_2
_geom_bond_distance
_geom_bond_site_symmetry_2
_ccdc_geom_bond_type
Co0 O1 2.216 1_455 S
Co0 O2 2.091 1_455 S
Co0 O4 2.004 . S
Co0 O10 2.021 . S
Co0 O12 2.137 . S
Co0 O13 2.244 . S
O1 Co0 2.216 1_655 S
O1 C8 1.247 . S
O2 Co0 2.091 1_655 S
O2 C8 1.261 . S
C3 O12 1.247 . S
C3 O13 1.272 . S
O4 Co0 2.004 . S
O4 C9 1.259 . S
Co5 O6 2.061 . S
Co5 O11 2.052 . S
Co5 O13 2.135 . S
O6 Co5 2.061 . S
O6 C9 1.235 . S
C7 O10 1.238 . S
C7 O11 1.241 . S
C8 O1 1.247 . S
C8 O2 1.261 . S
C9 O4 1.259 . S
C9 O6 1.235 . S
O10 Co0 2.021 . S
O10 C7 1.238 . S
O11 Co5 2.052 . S
O11 C7 1.241 . S
O12 Co0 2.137 . S
O12 C3 1.247 . S
O13 Co0 2.244 . S
O13 C3 1.272 . S
O13 Co5 2.135 . S
Co14 O15 2.216 . S
Co14 O16 2.091 . S
Co14 O18 2.004 . S
Co14 O24 2.021 . S
Co14 O26 2.137 . S
Co14 O27 2.244 . S
O15 Co14 2.216 . S
O15 C22 1.247 . S
O16 Co14 2.091 . S
O16 C22 1.261 . S
C17 O26 1.247 . S
C17 O27 1.272 . S
O18 Co14 2.004 . S
O18 C23 1.259 . S
Co19 O20 2.061 1_455 S
Co19 O25 2.052 . S
Co19 O27 2.135 . S
O20 Co19 2.061 1_655 S
O20 C23 1.235 1_655 S
C21 O24 1.238 . S
C21 O25 1.241 . S
C22 O15 1.247 . S
C22 O16 1.261 . S
C23 O18 1.259 . S
C23 O20 1.235 1_455 S
O24 Co14 2.021 . S
O24 C21 1.238 . S
O25 Co19 2.052 . S
O25 C21 1.241 . S
O26 Co14 2.137 . S
O26 C17 1.247 . S
O27 Co14 2.244 . S
O27 C17 1.272 . S
O27 Co19 2.135 . S
Co28 O29 2.216 . S
Co28 O30 2.091 . S
Co28 O32 2.004 . S
Co28 O38 2.021 . S
Co28 O40 2.137 . S
Co28 O41 2.244 . S
O29 Co28 2.216 . S
O29 C36 1.247 . S
O30 Co28 2.091 . S
O30 C36 1.261 . S
C31 O40 1.247 . S
C31 O41 1.272 . S
O32 Co28 2.004 . S
O32 C37 1.259 . S
Co33 O34 2.061 . S
Co33 O39 2.052 . S
Co33 O41 2.135 . S
O34 Co33 2.061 . S
O34 C37 1.235 . S
C35 O38 1.238 . S
C35 O39 1.241 . S
C36 O29 1.247 . S
C36 O30 1.261 . S
C37 O32 1.259 . S
C37 O34 1.235 . S
O38 Co28 2.021 . S
O38 C35 1.238 . S
O39 Co33 2.052 . S
O39 C35 1.241 . S
O40 Co28 2.137 . S
O40 C31 1.247 . S
O41 Co28 2.244 . S
O41 C31 1.272 . S
O41 Co33 2.135 . S
Co42 O43 2.216 . S
Co42 O44 2.091 . S
Co42 O46 2.004 . S
Co42 O52 2.021 . S
Co42 O54 2.137 . S
Co42 O55 2.244 . S
O43 Co42 2.216 . S
O43 C50 1.247 . S
O44 Co42 2.091 . S
O44 C50 1.261 . S
C45 O54 1.247 . S
C45 O55 1.272 . S
O46 Co42 2.004 . S
O46 C51 1.259 . S
Co47 O48 2.061 1_554 S
Co47 O53 2.052 . S
Co47 O55 2.135 1_554 S
O48 Co47 2.061 1_556 S
O48 C51 1.235 . S
C49 O52 1.238 . S
C49 O53 1.241 1_556 S
C50 O43 1.247 . S
C50 O44 1.261 . S
C51 O46 1.259 . S
C51 O48 1.235 . S
O52 Co42 2.021 . S
O52 C49 1.238 . S
O53 Co47 2.052 . S
O53 C49 1.241 1_554 S
O54 Co42 2.137 . S
O54 C45 1.247 . S
O55 Co42 2.244 . S
O55 C45 1.272 . S
O55 Co47 2.135 1_556 S
Co56 O57 2.216 . S
Co56 O58 2.091 . S
Co56 O60 2.004 1_565 S
Co56 O66 2.020 1_565 S
Co56 O68 2.137 . S
Co56 O69 2.244 1_565 S
O57 Co56 2.216 . S
O57 C64 1.247 . S
O58 Co56 2.091 . S
O58 C64 1.261 . S
C59 O68 1.247 1_545 S
C59 O69 1.272 . S
O60 Co56 2.004 1_545 S
O60 C65 1.259 . S
Co61 O62 2.061 . S
Co61 O67 2.052 . S
Co61 O69 2.135 . S
O62 Co61 2.061 . S
O62 C65 1.235 . S
C63 O66 1.242 . S
C63 O67 1.241 . S
C64 O57 1.247 . S
C64 O58 1.261 . S
C65 O60 1.259 . S
C65 O62 1.235 . S
O66 Co56 2.020 1_545 S
O66 C63 1.242 . S
O67 Co61 2.052 . S
O67 C63 1.241 . S
O68 Co56 2.137 . S
O68 C59 1.247 1_565 S
O69 Co56 2.244 1_545 S
O69 C59 1.272 . S
O69 Co61 2.135 . S
Co70 O71 2.216 . S
Co70 O72 2.091 1_565 S
Co70 O74 2.004 . S
Co70 O80 2.021 . S
Co70 O82 2.137 . S
Co70 O83 2.244 . S
O71 Co70 2.216 . S
O71 C78 1.247 . S
O72 Co70 2.091 1_545 S
O72 C78 1.261 1_545 S
C73 O82 1.247 . S
C73 O83 1.272 . S
O74 Co70 2.004 . S
O74 C79 1.259 . S
Co75 O76 2.061 . S
Co75 O81 2.052 . S
Co75 O83 2.135 . S
O76 Co75 2.061 . S
O76 C79 1.235 . S
C77 O80 1.238 . S
C77 O81 1.241 . S
C78 O71 1.247 . S
C78 O72 1.261 1_565 S
C79 O74 1.259 . S
C79 O76 1.235 . S
O80 Co70 2.021 . S
O80 C77 1.238 . S
O81 Co75 2.052 . S
O81 C77 1.241 . S
O82 Co70 2.137 . S
O82 C73 1.247 . S
O83 Co70 2.244 . S
O83 C73 1.272 . S
O83 Co75 2.135 . S
Co84 O85 2.216 . S
Co84 O86 2.091 . S
Co84 O88 2.004 . S
Co84 O94 2.021 . S
Co84 O96 2.137 . S
Co84 O97 2.244 . S
O85 Co84 2.216 . S
O85 C92 1.247 . S
O86 Co84 2.091 . S
O86 C92 1.261 . S
C87 O96 1.247 . S
C87 O97 1.272 . S
O88 Co84 2.004 . S
O88 C93 1.259 . S
Co89 O90 2.054 1_545 S
Co89 O95 2.052 . S
Co89 O97 2.135 . S
O90 Co89 2.054 1_565 S
O90 C93 1.231 1_565 S
C91 O94 1.238 . S
C91 O95 1.241 . S
C92 O85 1.247 . S
C92 O86 1.261 . S
C93 O88 1.259 . S
C93 O90 1.231 1_545 S
O94 Co84 2.021 . S
O94 C91 1.238 . S
O95 Co89 2.052 . S
O95 C91 1.241 . S
O96 Co84 2.137 . S
O96 C87 1.247 . S
O97 Co84 2.244 . S
O97 C87 1.272 . S
O97 Co89 2.135 . S
Co98 O99 2.216 . S
Co98 O100 2.091 . S
Co98 O102 2.004 . S
Co98 O108 2.021 . S
Co98 O110 2.137 1_554 S
Co98 O111 2.244 . S
O99 Co98 2.216 . S
O99 C106 1.247 . S
O100 Co98 2.091 . S
O100 C106 1.261 . S
C101 O110 1.247 . S
C101 O111 1.272 1_556 S
O102 Co98 2.004 . S
O102 C107 1.259 . S
Co103 O104 2.061 . S
Co103 O109 2.052 . S
Co103 O111 2.135 . S
O104 Co103 2.061 . S
O104 C107 1.235 . S
C105 O108 1.238 . S
C105 O109 1.241 . S
C106 O99 1.247 . S
C106 O100 1.261 . S
C107 O102 1.259 . S
C107 O104 1.235 . S
O108 Co98 2.021 . S
O108 C105 1.238 . S
O109 Co103 2.052 . S
O109 C105 1.241 . S
O110 Co98 2.137 1_556 S
O110 C101 1.247 . S
O111 Co98 2.244 . S
O111 C101 1.272 1_554 S
O111 Co103 2.135 . S
Co112 O113 2.216 . S
Co112 O114 2.091 . S
Co112 O116 2.004 . S
Co112 O122 2.021 . S
Co112 O124 2.137 . S
Co112 O125 2.244 . S
O113 Co112 2.216 . S
O113 C120 1.247 . S
O114 Co112 2.091 . S
O114 C120 1.261 . S
C115 O124 1.247 . S
C115 O125 1.272 . S
O116 Co112 2.004 . S
O116 C121 1.259 . S
Co117 O118 2.061 . S
Co117 O123 2.052 . S
Co117 O125 2.135 . S
O118 Co117 2.061 . S
O118 C121 1.235 . S
C119 O122 1.238 . S
C119 O123 1.241 . S
C120 O113 1.247 . S
C120 O114 1.261 . S
C121 O116 1.259 . S
C121 O118 1.235 . S
O122 Co112 2.021 . S
O122 C119 1.238 . S
O123 Co117 2.052 . S
O123 C119 1.241 . S
O124 Co112 2.137 . S
O124 C115 1.247 . S
O125 Co112 2.244 . S
O125 C115 1.272 . S
O125 Co117 2.135 . S
Co126 O127 2.216 . S
Co126 O128 2.091 . S
Co126 O130 2.004 . S
Co126 O136 2.021 . S
Co126 O138 2.137 . S
Co126 O139 2.244 . S
O127 Co126 2.216 . S
O127 C134 1.247 . S
O128 Co126 2.091 . S
O128 C134 1.261 . S
C129 O138 1.247 . S
C129 O139 1.272 . S
O130 Co126 2.004 . S
O130 C135 1.259 . S
Co131 O132 2.061 1_455 S
Co131 O137 2.052 . S
Co131 O139 2.135 1_455 S
O132 Co131 2.061 1_655 S
O132 C135 1.235 . S
C133 O136 1.238 . S
C133 O137 1.241 1_655 S
C134 O127 1.247 . S
C134 O128 1.261 . S
C135 O130 1.259 . S
C135 O132 1.235 . S
O136 Co126 2.021 . S
O136 C133 1.238 . S
O137 Co131 2.052 . S
O137 C133 1.241 1_455 S
O138 Co126 2.137 . S
O138 C129 1.247 . S
O139 Co126 2.244 . S
O139 C129 1.272 . S
O139 Co131 2.135 1_655 S
Co140 O141 2.216 . S
Co140 O142 2.091 . S
Co140 O144 2.004 . S
Co140 O150 2.021 . S
Co140 O152 2.137 . S
Co140 O153 2.244 . S
O141 Co140 2.216 . S
O141 C148 1.247 . S
O142 Co140 2.091 . S
O142 C148 1.261 . S
C143 O152 1.247 . S
C143 O153 1.272 . S
O144 Co140 2.004 . S
O144 C149 1.259 . S
Co145 O146 2.061 . S
Co145 O151 2.052 . S
Co145 O153 2.135 . S
O146 Co145 2.061 . S
O146 C149 1.235 . S
C147 O150 1.238 . S
C147 O151 1.241 . S
C148 O141 1.247 . S
C148 O142 1.261 . S
C149 O144 1.259 . S
C149 O146 1.235 . S
O150 Co140 2.021 . S
O150 C147 1.238 . S
O151 Co145 2.052 . S
O151 C147 1.241 . S
O152 Co140 2.137 . S
O152 C143 1.247 . S
O153 Co140 2.244 . S
O153 C143 1.272 . S
O153 Co145 2.135 . S
Co154 O155 2.216 . S
Co154 O156 2.091 . S
Co154 O158 2.004 . S
Co154 O164 2.021 . S
Co154 O166 2.137 . S
Co154 O167 2.244 . S
O155 Co154 2.216 . S
O155 C162 1.247 . S
O156 Co154 2.091 . S
O156 C162 1.261 . S
C157 O166 1.247 . S
C157 O167 1.272 . S
O158 Co154 2.004 . S
O158 C163 1.259 . S
Co159 O160 2.061 . S
Co159 O165 2.052 . S
Co159 O167 2.135 . S
O160 Co159 2.061 . S
O160 C163 1.235 . S
C161 O164 1.238 . S
C161 O165 1.241 . S
C162 O155 1.247 . S
C162 O156 1.261 . S
C163 O158 1.259 . S
C163 O160 1.235 . S
O164 Co154 2.021 . S
O164 C161 1.238 . S
O165 Co159 2.052 . S
O165 C161 1.241 . S
O166 Co154 2.137 . S
O166 C157 1.247 . S
O167 Co154 2.244 . S
O167 C157 1.272 . S
O167 Co159 2.135 . S
Co168 O169 2.216 . S
Co168 O170 2.091 . S
Co168 O172 2.004 1_455 S
Co168 O178 2.021 . S
Co168 O180 2.137 . S
Co168 O181 2.259 . S
O169 Co168 2.216 . S
O169 C176 1.247 . S
O170 Co168 2.091 . S
O170 C176 1.261 . S
C171 O180 1.247 . S
C171 O181 1.278 . S
O172 Co168 2.004 1_655 S
O172 C177 1.259 . S
Co173 O174 2.061 1_554 S
Co173 O179 2.052 1_655 S
Co173 O181 2.130 1_654 S
O174 Co173 2.061 1_556 S
O174 C177 1.235 . S
C175 O178 1.238 . S
C175 O179 1.241 1_556 S
C176 O169 1.247 . S
C176 O170 1.261 . S
C177 O172 1.259 . S
C177 O174 1.235 . S
O178 Co168 2.021 . S
O178 C175 1.238 . S
O179 Co173 2.052 1_455 S
O179 C175 1.241 1_554 S
O180 Co168 2.137 . S
O180 C171 1.247 . S
O181 Co168 2.259 . S
O181 C171 1.278 . S
O181 Co173 2.130 1_456 S
Co182 O183 2.216 . S
Co182 O184 2.091 . S
Co182 O186 2.004 1_655 S
Co182 O192 2.021 . S
Co182 O194 2.137 . S
Co182 O195 2.244 1_655 S
O183 Co182 2.216 . S
O183 C190 1.247 . S
O184 Co182 2.091 . S
O184 C190 1.261 . S
C185 O194 1.247 1_455 S
C185 O195 1.272 . S
O186 Co182 2.004 1_455 S
O186 C191 1.259 . S
Co187 O188 2.061 . S
Co187 O193 2.052 . S
Co187 O195 2.135 . S
O188 Co187 2.061 . S
O188 C191 1.235 . S
C189 O192 1.238 1_455 S
C189 O193 1.241 . S
C190 O183 1.247 . S
C190 O184 1.261 . S
C191 O186 1.259 . S
C191 O188 1.235 . S
O192 Co182 2.021 . S
O192 C189 1.238 1_655 S
O193 Co187 2.052 . S
O193 C189 1.241 . S
O194 Co182 2.137 . S
O194 C185 1.247 1_655 S
O195 Co182 2.244 1_455 S
O195 C185 1.272 . S
O195 Co187 2.135 . S
Co196 O197 2.216 . S
Co196 O198 2.091 . S
Co196 O200 2.004 . S
Co196 O206 2.021 . S
Co196 O208 2.137 . S
Co196 O209 2.244 . S
O197 Co196 2.216 . S
O197 C204 1.247 . S
O198 Co196 2.091 . S
O198 C204 1.261 . S
C199 O208 1.247 . S
C199 O209 1.272 . S
O200 Co196 2.004 . S
O200 C205 1.259 . S
Co201 O202 2.061 . S
Co201 O207 2.052 . S
Co201 O209 2.135 . S
O202 Co201 2.061 . S
O202 C205 1.235 . S
C203 O206 1.238 . S
C203 O207 1.241 . S
C204 O197 1.247 . S
C204 O198 1.261 . S
C205 O200 1.259 . S
C205 O202 1.235 . S
O206 Co196 2.021 . S
O206 C203 1.238 . S
O207 Co201 2.052 . S
O207 C203 1.241 . S
O208 Co196 2.137 . S
O208 C199 1.247 . S
O209 Co196 2.244 . S
O209 C199 1.272 . S
O209 Co201 2.135 . S
Co210 O211 2.216 . S
Co210 O212 2.091 . S
Co210 O214 2.004 . S
Co210 O220 2.021 . S
Co210 O222 2.137 . S
Co210 O223 2.244 . S
O211 Co210 2.216 . S
O211 C218 1.247 . S
O212 Co210 2.091 . S
O212 C218 1.261 . S
C213 O222 1.247 . S
C213 O223 1.272 . S
O214 Co210 2.004 . S
O214 C219 1.259 . S
Co215 O216 2.061 . S
Co215 O221 2.052 . S
Co215 O223 2.135 . S
O216 Co215 2.061 . S
O216 C219 1.235 . S
C217 O220 1.238 . S
C217 O221 1.241 . S
C218 O211 1.247 . S
C218 O212 1.261 . S
C219 O214 1.259 . S
C219 O216 1.235 . S
O220 Co210 2.021 . S
O220 C217 1.238 . S
O221 Co215 2.052 . S
O221 C217 1.241 . S
O222 Co210 2.137 . S
O222 C213 1.247 . S
O223 Co210 2.244 . S
O223 C213 1.272 . S
O223 Co215 2.135 . S
Co224 O225 2.216 . S
Co224 O226 2.091 . S
Co224 O228 2.004 . S
Co224 O234 2.021 . S
Co224 O236 2.137 . S
Co224 O237 2.244 . S
O225 Co224 2.216 . S
O225 C232 1.247 . S
O226 Co224 2.091 . S
O226 C232 1.261 . S
C227 O236 1.247 . S
C227 O237 1.272 . S
O228 Co224 2.004 . S
O228 C233 1.259 . S
Co229 O230 2.061 1_455 S
Co229 O235 2.052 . S
Co229 O237 2.135 1_455 S
O230 Co229 2.061 1_655 S
O230 C233 1.235 . S
C231 O234 1.238 . S
C231 O235 1.241 1_655 S
C232 O225 1.247 . S
C232 O226 1.261 . S
C233 O228 1.259 . S
C233 O230 1.235 . S
O234 Co224 2.021 . S
O234 C231 1.238 . S
O235 Co229 2.052 . S
O235 C231 1.241 1_455 S
O236 Co224 2.137 . S
O236 C227 1.247 . S
O237 Co224 2.244 . S
O237 C227 1.272 . S
O237 Co229 2.135 1_655 S
Co238 O239 2.216 . S
Co238 O240 2.091 . S
Co238 O242 2.004 . S
Co238 O248 2.021 . S
Co238 O250 2.137 . S
Co238 O251 2.244 . S
O239 Co238 2.216 . S
O239 C246 1.247 . S
O240 Co238 2.091 . S
O240 C246 1.261 . S
C241 O250 1.247 . S
C241 O251 1.272 . S
O242 Co238 2.004 . S
O242 C247 1.259 . S
Co243 O244 2.061 . S
Co243 O249 2.052 . S
Co243 O251 2.135 . S
O244 Co243 2.061 . S
O244 C247 1.235 . S
C245 O248 1.238 . S
C245 O249 1.241 . S
C246 O239 1.247 . S
C246 O240 1.261 . S
C247 O242 1.259 . S
C247 O244 1.235 . S
O248 Co238 2.021 . S
O248 C245 1.238 . S
O249 Co243 2.052 . S
O249 C245 1.241 . S
O250 Co238 2.137 . S
O250 C241 1.247 . S
O251 Co238 2.244 . S
O251 C241 1.272 . S
O251 Co243 2.135 . S
Co252 O253 2.216 . S
Co252 O254 2.091 . S
Co252 O256 2.004 1_565 S
Co252 O262 2.021 1_565 S
Co252 O264 2.137 . S
Co252 O265 2.244 1_565 S
O253 Co252 2.216 . S
O253 C260 1.247 . S
O254 Co252 2.091 . S
O254 C260 1.261 . S
C255 O264 1.247 1_545 S
C255 O265 1.272 . S
O256 Co252 2.004 1_545 S
O256 C261 1.259 . S
Co257 O258 2.061 . S
Co257 O263 2.052 . S
Co257 O265 2.135 . S
O258 Co257 2.061 . S
O258 C261 1.235 . S
C259 O262 1.238 . S
C259 O263 1.241 . S
C260 O253 1.247 . S
C260 O254 1.261 . S
C261 O256 1.259 . S
C261 O258 1.235 . S
O262 Co252 2.021 1_545 S
O262 C259 1.238 . S
O263 Co257 2.052 . S
O263 C259 1.241 . S
O264 Co252 2.137 . S
O264 C255 1.247 1_565 S
O265 Co252 2.244 1_545 S
O265 C255 1.272 . S
O265 Co257 2.135 . S
Co266 O267 2.216 . S
Co266 O268 2.091 1_565 S
Co266 O270 2.004 . S
Co266 O276 2.021 . S
Co266 O278 2.137 1_554 S
Co266 O279 2.244 . S
O267 Co266 2.216 . S
O267 C274 1.247 . S
O268 Co266 2.091 1_545 S
O268 C274 1.261 1_545 S
C269 O278 1.247 . S
C269 O279 1.272 1_556 S
O270 Co266 2.004 . S
O270 C275 1.259 . S
Co271 O272 2.061 . S
Co271 O277 2.052 . S
Co271 O279 2.135 . S
O272 Co271 2.061 . S
O272 C275 1.235 . S
C273 O276 1.238 . S
C273 O277 1.241 . S
C274 O267 1.247 . S
C274 O268 1.261 1_565 S
C275 O270 1.259 . S
C275 O272 1.235 . S
O276 Co266 2.021 . S
O276 C273 1.238 . S
O277 Co271 2.052 . S
O277 C273 1.241 . S
O278 Co266 2.137 1_556 S
O278 C269 1.247 . S
O279 Co266 2.244 . S
O279 C269 1.272 1_554 S
O279 Co271 2.135 . S
Co280 O281 2.216 . S
Co280 O282 2.092 . S
Co280 O284 2.004 . S
Co280 O290 2.021 1_556 S
Co280 O292 2.137 . S
Co280 O293 2.244 . S
O281 Co280 2.216 . S
O281 C288 1.247 . S
O282 Co280 2.092 . S
O282 C288 1.261 . S
C283 O292 1.247 . S
C283 O293 1.272 . S
O284 Co280 2.004 . S
O284 C289 1.259 1_556 S
Co285 O286 2.062 . S
Co285 O291 2.060 . S
Co285 O293 2.130 1_554 S
O286 Co285 2.062 . S
O286 C289 1.235 . S
C287 O290 1.238 . S
C287 O291 1.241 . S
C288 O281 1.247 . S
C288 O282 1.261 . S
C289 O284 1.259 1_554 S
C289 O286 1.235 . S
O290 Co280 2.021 1_554 S
O290 C287 1.238 . S
O291 Co285 2.060 . S
O291 C287 1.241 . S
O292 Co280 2.137 . S
O292 C283 1.247 . S
O293 Co280 2.244 . S
O293 C283 1.272 . S
O293 Co285 2.130 1_556 S
Co294 O295 2.216 . S
Co294 O296 2.091 . S
Co294 O298 2.004 . S
Co294 O304 2.021 . S
Co294 O306 2.137 . S
Co294 O307 2.244 . S
O295 Co294 2.216 . S
O295 C302 1.247 . S
O296 Co294 2.091 . S
O296 C302 1.261 . S
C297 O306 1.247 . S
C297 O307 1.272 . S
O298 Co294 2.004 . S
O298 C303 1.259 . S
Co299 O300 2.061 . S
Co299 O305 2.052 . S
Co299 O307 2.135 . S
O300 Co299 2.061 . S
O300 C303 1.235 . S
C301 O304 1.238 . S
C301 O305 1.241 . S
C302 O295 1.247 . S
C302 O296 1.261 . S
C303 O298 1.259 . S
C303 O300 1.235 . S
O304 Co294 2.021 . S
O304 C301 1.238 . S
O305 Co299 2.052 . S
O305 C301 1.241 . S
O306 Co294 2.137 . S
O306 C297 1.247 . S
O307 Co294 2.244 . S
O307 C297 1.272 . S
O307 Co299 2.135 . S
Co308 O309 2.216 . S
Co308 O310 2.091 . S
Co308 O312 2.004 . S
Co308 O318 2.021 . S
Co308 O320 2.137 . S
Co308 O321 2.244 . S
O309 Co308 2.216 . S
O309 C316 1.247 . S
O310 Co308 2.091 . S
O310 C316 1.261 . S
C311 O320 1.247 . S
C311 O321 1.272 . S
O312 Co308 2.004 . S
O312 C317 1.259 . S
Co313 O314 2.061 . S
Co313 O319 2.052 . S
Co313 O321 2.135 . S
O314 Co313 2.061 . S
O314 C317 1.235 . S
C315 O318 1.238 . S
C315 O319 1.241 . S
C316 O309 1.247 . S
C316 O310 1.261 . S
C317 O312 1.259 . S
C317 O314 1.235 . S
O318 Co308 2.021 . S
O318 C315 1.238 . S
O319 Co313 2.052 . S
O319 C315 1.241 . S
O320 Co308 2.137 . S
O320 C311 1.247 . S
O321 Co308 2.244 . S
O321 C311 1.272 . S
O321 Co313 2.135 . S
Co322 O323 2.216 . S
Co322 O324 2.091 . S
Co322 O326 2.004 . S
Co322 O332 2.021 . S
Co322 O334 2.137 . S
Co322 O335 2.244 . S
O323 Co322 2.216 . S
O323 C330 1.247 . S
O324 Co322 2.091 . S
O324 C330 1.261 . S
C325 O334 1.247 . S
C325 O335 1.272 . S
O326 Co322 2.004 . S
O326 C331 1.259 . S
Co327 O328 2.061 . S
Co327 O333 2.052 . S
Co327 O335 2.135 . S
O328 Co327 2.061 . S
O328 C331 1.235 . S
C329 O332 1.238 . S
C329 O333 1.241 . S
C330 O323 1.247 . S
C330 O324 1.261 . S
C331 O326 1.259 . S
C331 O328 1.235 . S
O332 Co322 2.021 . S
O332 C329 1.238 . S
O333 Co327 2.052 . S
O333 C329 1.241 . S
O334 Co322 2.137 . S
O334 C325 1.247 . S
O335 Co322 2.244 . S
O335 C325 1.272 . S
O335 Co327 2.135 . S
Co336 N341 2.057 1_554 S
Co336 O353 2.023 1_544 S
Co336 O356 2.062 1_455 S
Co336 O360 2.117 . S
Co336 O361 2.020 . S
C337 O357 1.259 . S
C337 O360 1.258 . S
Co338 N347 2.057 . S
Co338 O354 2.117 1_545 S
Co338 O355 2.020 1_455 S
Co338 O357 2.021 . S
Co338 O362 2.062 . S
C339 N341 1.316 . S
C339 N342 1.347 1_455 S
C339 H344 0.931 . S
C340 N341 1.375 . S
C340 C343 1.350 1_455 S
C340 H345 0.930 . S
N341 Co336 2.057 1_556 S
N341 C339 1.316 . S
N341 C340 1.375 . S
N342 C339 1.347 1_655 S
N342 C343 1.373 . S
C343 C340 1.350 1_655 S
C343 N342 1.373 . S
C343 H364 0.931 . S
H344 C339 0.931 . S
H345 C340 0.930 . S
C346 O353 1.258 1_554 S
C346 O354 1.258 . S
N347 Co338 2.057 . S
N347 C348 1.316 . S
N347 C349 1.375 1_545 S
C348 N347 1.316 . S
C348 N350 1.347 1_545 S
C348 H359 0.931 . S
C349 N347 1.375 1_565 S
C349 C351 1.350 . S
C349 H358 0.930 . S
N350 C348 1.347 1_565 S
N350 C351 1.373 . S
C351 C349 1.350 . S
C351 N350 1.373 . S
C351 H365 0.931 . S
C352 O355 1.256 . S
C352 O356 1.255 . S
O353 Co336 2.023 1_566 S
O353 C346 1.258 1_556 S
O354 Co338 2.117 1_565 S
O354 C346 1.258 . S
O355 Co338 2.020 1_655 S
O355 C352 1.256 . S
O356 Co336 2.062 1_655 S
O356 C352 1.255 . S
O357 C337 1.259 . S
O357 Co338 2.021 . S
H358 C349 0.930 . S
H359 C348 0.931 . S
O360 Co336 2.117 . S
O360 C337 1.258 . S
O361 Co336 2.020 . S
O361 C363 1.256 . S
O362 Co338 2.062 . S
O362 C363 1.255 . S
C363 O361 1.256 . S
C363 O362 1.255 . S
H364 C343 0.931 . S
H365 C351 0.931 . S
Co366 N371 2.057 . S
Co366 O383 2.021 . S
Co366 O386 2.062 . S
Co366 O390 2.117 . S
Co366 O391 2.020 . S
C367 O387 1.259 . S
C367 O390 1.258 . S
Co368 N377 2.057 . S
Co368 O384 2.117 . S
Co368 O385 2.020 . S
Co368 O387 2.021 . S
Co368 O392 2.062 . S
C369 N371 1.316 . S
C369 N372 1.347 . S
C369 H374 0.931 . S
C370 N371 1.375 . S
C370 C373 1.350 . S
C370 H375 0.930 . S
N371 Co366 2.057 . S
N371 C369 1.316 . S
N371 C370 1.375 . S
N372 C369 1.347 . S
N372 C373 1.373 . S
C373 C370 1.350 . S
C373 N372 1.373 . S
C373 H394 0.931 . S
H374 C369 0.931 . S
H375 C370 0.930 . S
C376 O383 1.259 . S
C376 O384 1.258 . S
N377 Co368 2.057 . S
N377 C378 1.316 . S
N377 C379 1.375 . S
C378 N377 1.316 . S
C378 N380 1.347 . S
C378 H389 0.931 . S
C379 N377 1.375 . S
C379 C381 1.350 . S
C379 H388 0.930 . S
N380 C378 1.347 . S
N380 C381 1.373 . S
C381 C379 1.350 . S
C381 N380 1.373 . S
C381 H395 0.931 . S
C382 O385 1.256 . S
C382 O386 1.255 . S
O383 Co366 2.021 . S
O383 C376 1.259 . S
O384 Co368 2.117 . S
O384 C376 1.258 . S
O385 Co368 2.020 . S
O385 C382 1.256 . S
O386 Co366 2.062 . S
O386 C382 1.255 . S
O387 C367 1.259 . S
O387 Co368 2.021 . S
H388 C379 0.930 . S
H389 C378 0.931 . S
O390 Co366 2.117 . S
O390 C367 1.258 . S
O391 Co366 2.020 . S
O391 C393 1.256 . S
O392 Co368 2.062 . S
O392 C393 1.255 . S
C393 O391 1.256 . S
C393 O392 1.255 . S
H394 C373 0.931 . S
H395 C381 0.931 . S
Co396 N401 2.057 . S
Co396 O413 2.021 1_545 S
Co396 O416 2.062 . S
Co396 O420 2.117 . S
Co396 O421 2.020 . S
C397 O417 1.259 . S
C397 O420 1.258 . S
Co398 N407 2.057 . S
Co398 O414 2.117 . S
Co398 O415 2.020 . S
Co398 O417 2.021 . S
Co398 O422 2.062 . S
C399 N401 1.316 1_565 S
C399 N402 1.347 1_565 S
C399 H404 0.931 . S
C400 N401 1.375 . S
C400 C403 1.350 . S
C400 H405 0.930 . S
N401 Co396 2.057 . S
N401 C399 1.316 1_545 S
N401 C400 1.375 . S
N402 C399 1.347 1_545 S
N402 C403 1.373 . S
C403 C400 1.350 . S
C403 N402 1.373 . S
C403 H424 0.931 . S
H404 C399 0.931 . S
H405 C400 0.930 . S
C406 O413 1.259 . S
C406 O414 1.258 1_565 S
N407 Co398 2.057 . S
N407 C408 1.316 . S
N407 C409 1.375 . S
C408 N407 1.316 . S
C408 N410 1.347 . S
C408 H419 0.931 . S
C409 N407 1.375 . S
C409 C411 1.350 . S
C409 H418 0.930 . S
N410 C408 1.347 . S
N410 C411 1.373 . S
C411 C409 1.350 . S
C411 N410 1.373 . S
C411 H425 0.931 . S
C412 O415 1.256 . S
C412 O416 1.255 . S
O413 Co396 2.021 1_565 S
O413 C406 1.259 . S
O414 Co398 2.117 . S
O414 C406 1.258 1_545 S
O415 Co398 2.020 . S
O415 C412 1.256 . S
O416 Co396 2.062 . S
O416 C412 1.255 . S
O417 C397 1.259 . S
O417 Co398 2.021 . S
H418 C409 0.930 . S
H419 C408 0.931 . S
O420 Co396 2.117 . S
O420 C397 1.258 . S
O421 Co396 2.020 . S
O421 C423 1.256 . S
O422 Co398 2.062 . S
O422 C423 1.255 . S
C423 O421 1.256 . S
C423 O422 1.255 . S
H424 C403 0.931 . S
H425 C411 0.931 . S
Co426 N431 2.057 . S
Co426 O443 2.021 . S
Co426 O446 2.062 . S
Co426 O450 2.117 . S
Co426 O451 2.020 . S
C427 O447 1.259 . S
C427 O450 1.258 . S
Co428 N437 2.057 . S
Co428 O444 2.117 . S
Co428 O445 2.020 . S
Co428 O447 2.021 . S
Co428 O452 2.062 . S
C429 N431 1.316 . S
C429 N432 1.347 . S
C429 H434 0.931 . S
C430 N431 1.375 . S
C430 C433 1.350 . S
C430 H435 0.930 . S
N431 Co426 2.057 . S
N431 C429 1.316 . S
N431 C430 1.375 . S
N432 C429 1.347 . S
N432 C433 1.373 . S
C433 C430 1.350 . S
C433 N432 1.373 . S
C433 H454 0.931 . S
H434 C429 0.931 . S
H435 C430 0.930 . S
C436 O443 1.259 . S
C436 O444 1.258 . S
N437 Co428 2.057 . S
N437 C438 1.316 . S
N437 C439 1.375 . S
C438 N437 1.316 . S
C438 N440 1.347 . S
C438 H449 0.931 . S
C439 N437 1.375 . S
C439 C441 1.350 . S
C439 H448 0.930 . S
N440 C438 1.347 . S
N440 C441 1.373 . S
C441 C439 1.350 . S
C441 N440 1.373 . S
C441 H455 0.931 . S
C442 O445 1.256 . S
C442 O446 1.255 . S
O443 Co426 2.021 . S
O443 C436 1.259 . S
O444 Co428 2.117 . S
O444 C436 1.258 . S
O445 Co428 2.020 . S
O445 C442 1.256 . S
O446 Co426 2.062 . S
O446 C442 1.255 . S
O447 C427 1.259 . S
O447 Co428 2.021 . S
H448 C439 0.930 . S
H449 C438 0.931 . S
O450 Co426 2.117 . S
O450 C427 1.258 . S
O451 Co426 2.020 . S
O451 C453 1.256 . S
O452 Co428 2.062 . S
O452 C453 1.255 . S
C453 O451 1.256 . S
C453 O452 1.255 . S
H454 C433 0.931 . S
H455 C441 0.931 . S
Co456 N461 2.057 1_545 S
Co456 O473 2.021 . S
Co456 O476 2.062 1_545 S
Co456 O480 2.117 . S
Co456 O481 2.020 1_455 S
C457 O477 1.260 . S
C457 O480 1.258 . S
Co458 N467 2.057 . S
Co458 O474 2.117 . S
Co458 O475 2.020 . S
Co458 O477 2.021 . S
Co458 O482 2.062 1_455 S
C459 N461 1.316 . S
C459 N462 1.347 . S
C459 H464 0.931 . S
C460 N461 1.375 1_655 S
C460 C463 1.350 . S
C460 H465 0.930 . S
N461 Co456 2.057 1_565 S
N461 C459 1.316 . S
N461 C460 1.375 1_455 S
N462 C459 1.347 . S
N462 C463 1.373 1_455 S
C463 C460 1.350 . S
C463 N462 1.373 1_655 S
C463 H484 0.931 . S
H464 C459 0.931 . S
H465 C460 0.930 . S
C466 O473 1.259 . S
C466 O474 1.258 . S
N467 Co458 2.057 . S
N467 C468 1.316 . S
N467 C469 1.375 . S
C468 N467 1.316 . S
C468 N470 1.347 . S
C468 H479 0.931 . S
C469 N467 1.375 . S
C469 C471 1.350 . S
C469 H478 0.930 . S
N470 C468 1.347 . S
N470 C471 1.373 . S
C471 C469 1.350 . S
C471 N470 1.373 . S
C471 H485 0.931 . S
C472 O475 1.256 . S
C472 O476 1.255 1_545 S
O473 Co456 2.021 . S
O473 C466 1.259 . S
O474 Co458 2.117 . S
O474 C466 1.258 . S
O475 Co458 2.020 . S
O475 C472 1.256 . S
O476 Co456 2.062 1_565 S
O476 C472 1.255 1_565 S
O477 C457 1.260 . S
O477 Co458 2.021 . S
H478 C469 0.930 . S
H479 C468 0.931 . S
O480 Co456 2.117 . S
O480 C457 1.258 . S
O481 Co456 2.020 1_655 S
O481 C483 1.256 . S
O482 Co458 2.062 1_655 S
O482 C483 1.255 . S
C483 O481 1.256 . S
C483 O482 1.255 . S
H484 C463 0.931 . S
H485 C471 0.931 . S
Co486 N491 2.057 . S
Co486 O503 2.021 . S
Co486 O506 2.062 . S
Co486 O510 2.117 . S
Co486 O511 2.020 . S
C487 O507 1.259 . S
C487 O510 1.258 . S
Co488 N497 2.057 . S
Co488 O504 2.117 . S
Co488 O505 2.020 . S
Co488 O507 2.021 . S
Co488 O512 2.062 . S
C489 N491 1.316 . S
C489 N492 1.347 1_565 S
C489 H494 0.931 . S
C490 N491 1.375 . S
C490 C493 1.350 1_565 S
C490 H495 0.930 . S
N491 Co486 2.057 . S
N491 C489 1.316 . S
N491 C490 1.375 . S
N492 C489 1.347 1_545 S
N492 C493 1.373 . S
C493 C490 1.350 1_545 S
C493 N492 1.373 . S
C493 H514 0.931 . S
H494 C489 0.931 . S
H495 C490 0.930 . S
C496 O503 1.259 . S
C496 O504 1.258 . S
N497 Co488 2.057 . S
N497 C498 1.316 . S
N497 C499 1.375 . S
C498 N497 1.316 . S
C498 N500 1.347 . S
C498 H509 0.931 . S
C499 N497 1.375 . S
C499 C501 1.350 . S
C499 H508 0.930 . S
N500 C498 1.347 . S
N500 C501 1.373 . S
C501 C499 1.350 . S
C501 N500 1.373 . S
C501 H515 0.931 . S
C502 O505 1.256 . S
C502 O506 1.255 . S
O503 Co486 2.021 . S
O503 C496 1.259 . S
O504 Co488 2.117 . S
O504 C496 1.258 . S
O505 Co488 2.020 . S
O505 C502 1.256 . S
O506 Co486 2.062 . S
O506 C502 1.255 . S
O507 C487 1.259 . S
O507 Co488 2.021 . S
H508 C499 0.930 . S
H509 C498 0.931 . S
O510 Co486 2.117 . S
O510 C487 1.258 . S
O511 Co486 2.020 . S
O511 C513 1.256 . S
O512 Co488 2.062 . S
O512 C513 1.255 . S
C513 O511 1.256 . S
C513 O512 1.255 . S
H514 C493 0.931 . S
H515 C501 0.931 . S
Co516 N521 2.057 1_554 S
Co516 O533 2.021 . S
Co516 O536 2.062 1_554 S
Co516 O540 2.117 . S
Co516 O541 2.020 1_545 S
C517 O537 1.259 . S
C517 O540 1.258 . S
Co518 N527 2.057 . S
Co518 O534 2.117 . S
Co518 O535 2.020 . S
Co518 O537 2.021 . S
Co518 O542 2.062 1_545 S
C519 N521 1.316 . S
C519 N522 1.347 . S
C519 H524 0.931 . S
C520 N521 1.385 . S
C520 C523 1.350 . S
C520 H525 0.921 1_545 S
N521 Co516 2.057 1_556 S
N521 C519 1.316 . S
N521 C520 1.385 . S
N522 C519 1.347 . S
N522 C523 1.373 . S
C523 C520 1.350 . S
C523 N522 1.373 . S
C523 H544 0.931 1_545 S
H524 C519 0.931 . S
H525 C520 0.921 1_565 S
C526 O533 1.259 . S
C526 O534 1.258 . S
N527 Co518 2.057 . S
N527 C528 1.316 . S
N527 C529 1.375 . S
C528 N527 1.316 . S
C528 N530 1.347 . S
C528 H539 0.931 . S
C529 N527 1.375 . S
C529 C531 1.350 . S
C529 H538 0.930 . S
N530 C528 1.347 . S
N530 C531 1.373 . S
C531 C529 1.350 . S
C531 N530 1.373 . S
C531 H545 0.931 . S
C532 O535 1.256 . S
C532 O536 1.255 1_554 S
O533 Co516 2.021 . S
O533 C526 1.259 . S
O534 Co518 2.117 . S
O534 C526 1.258 . S
O535 Co518 2.020 . S
O535 C532 1.256 . S
O536 Co516 2.062 1_556 S
O536 C532 1.255 1_556 S
O537 C517 1.259 . S
O537 Co518 2.021 . S
H538 C529 0.930 . S
H539 C528 0.931 . S
O540 Co516 2.117 . S
O540 C517 1.258 . S
O541 Co516 2.020 1_565 S
O541 C543 1.256 . S
O542 Co518 2.062 1_565 S
O542 C543 1.255 . S
C543 O541 1.256 . S
C543 O542 1.255 . S
H544 C523 0.931 1_565 S
H545 C531 0.931 . S
Co546 N551 2.057 . S
Co546 O563 2.021 . S
Co546 O566 2.062 . S
Co546 O570 2.117 . S
Co546 O571 2.020 . S
C547 O567 1.259 . S
C547 O570 1.258 . S
Co548 N557 2.057 . S
Co548 O564 2.117 . S
Co548 O565 2.020 . S
Co548 O567 2.021 . S
Co548 O572 2.062 . S
C549 N551 1.316 . S
C549 N552 1.347 . S
C549 H554 0.931 . S
C550 N551 1.375 . S
C550 C553 1.350 . S
C550 H555 0.930 . S
N551 Co546 2.057 . S
N551 C549 1.316 . S
N551 C550 1.375 . S
N552 C549 1.347 . S
N552 C553 1.373 . S
C553 C550 1.350 . S
C553 N552 1.373 . S
C553 H574 0.931 . S
H554 C549 0.931 . S
H555 C550 0.930 . S
C556 O563 1.259 . S
C556 O564 1.258 . S
N557 Co548 2.057 . S
N557 C558 1.316 . S
N557 C559 1.375 . S
C558 N557 1.316 . S
C558 N560 1.347 . S
C558 H569 0.931 . S
C559 N557 1.375 . S
C559 C561 1.350 . S
C559 H568 0.930 . S
N560 C558 1.347 . S
N560 C561 1.373 . S
C561 C559 1.350 . S
C561 N560 1.373 . S
C561 H575 0.931 . S
C562 O565 1.256 . S
C562 O566 1.255 . S
O563 Co546 2.021 . S
O563 C556 1.259 . S
O564 Co548 2.117 . S
O564 C556 1.258 . S
O565 Co548 2.020 . S
O565 C562 1.256 . S
O566 Co546 2.062 . S
O566 C562 1.255 . S
O567 C547 1.259 . S
O567 Co548 2.021 . S
H568 C559 0.930 . S
H569 C558 0.931 . S
O570 Co546 2.117 . S
O570 C547 1.258 . S
O571 Co546 2.020 . S
O571 C573 1.256 . S
O572 Co548 2.062 . S
O572 C573 1.255 . S
C573 O571 1.256 . S
C573 O572 1.255 . S
H574 C553 0.931 . S
H575 C561 0.931 . S
Co576 N581 2.057 . S
Co576 O593 2.021 1_554 S
Co576 O596 2.062 . S
Co576 O600 2.117 . S
Co576 O601 2.020 . S
C577 O597 1.259 . S
C577 O600 1.258 . S
Co578 N587 2.057 . S
Co578 O594 2.117 . S
Co578 O595 2.020 . S
Co578 O597 2.021 . S
Co578 O602 2.062 . S
C579 N581 1.316 . S
C579 N582 1.347 . S
C579 H584 0.931 1_554 S
C580 N581 1.375 . S
C580 C583 1.350 . S
C580 H585 0.930 . S
N581 Co576 2.057 . S
N581 C579 1.316 . S
N581 C580 1.375 . S
N582 C579 1.347 . S
N582 C583 1.373 . S
C583 C580 1.350 . S
C583 N582 1.373 . S
C583 H604 0.931 . S
H584 C579 0.931 1_556 S
H585 C580 0.930 . S
C586 O593 1.259 . S
C586 O594 1.258 1_556 S
N587 Co578 2.057 . S
N587 C588 1.316 . S
N587 C589 1.375 . S
C588 N587 1.316 . S
C588 N590 1.347 . S
C588 H599 0.931 . S
C589 N587 1.375 . S
C589 C591 1.350 . S
C589 H598 0.930 . S
N590 C588 1.347 . S
N590 C591 1.373 . S
C591 C589 1.350 . S
C591 N590 1.373 . S
C591 H605 0.931 . S
C592 O595 1.256 . S
C592 O596 1.255 . S
O593 Co576 2.021 1_556 S
O593 C586 1.259 . S
O594 Co578 2.117 . S
O594 C586 1.258 1_554 S
O595 Co578 2.020 . S
O595 C592 1.256 . S
O596 Co576 2.062 . S
O596 C592 1.255 . S
O597 C577 1.259 . S
O597 Co578 2.021 . S
H598 C589 0.930 . S
H599 C588 0.931 . S
O600 Co576 2.117 . S
O600 C577 1.258 . S
O601 Co576 2.020 . S
O601 C603 1.256 . S
O602 Co578 2.062 . S
O602 C603 1.255 . S
C603 O601 1.256 . S
C603 O602 1.255 . S
H604 C583 0.931 . S
H605 C591 0.931 . S
Co606 N611 2.057 . S
Co606 O623 2.021 . S
Co606 O626 2.062 . S
Co606 O630 2.117 . S
Co606 O631 2.020 . S
C607 O627 1.259 . S
C607 O630 1.258 . S
Co608 N617 2.057 . S
Co608 O624 2.117 . S
Co608 O625 2.020 . S
Co608 O627 2.021 . S
Co608 O632 2.062 . S
C609 N611 1.316 . S
C609 N612 1.347 . S
C609 H614 0.931 . S
C610 N611 1.375 . S
C610 C613 1.350 . S
C610 H615 0.930 . S
N611 Co606 2.057 . S
N611 C609 1.316 . S
N611 C610 1.375 . S
N612 C609 1.347 . S
N612 C613 1.373 . S
C613 C610 1.350 . S
C613 N612 1.373 . S
C613 H634 0.931 . S
H614 C609 0.931 . S
H615 C610 0.930 . S
C616 O623 1.259 . S
C616 O624 1.258 . S
N617 Co608 2.057 . S
N617 C618 1.316 . S
N617 C619 1.375 . S
C618 N617 1.316 . S
C618 N620 1.347 . S
C618 H629 0.931 . S
C619 N617 1.375 . S
C619 C621 1.350 . S
C619 H628 0.930 . S
N620 C618 1.347 . S
N620 C621 1.373 . S
C621 C619 1.350 . S
C621 N620 1.373 . S
C621 H635 0.931 . S
C622 O625 1.256 . S
C622 O626 1.255 . S
O623 Co606 2.021 . S
O623 C616 1.259 . S
O624 Co608 2.117 . S
O624 C616 1.258 . S
O625 Co608 2.020 . S
O625 C622 1.256 . S
O626 Co606 2.062 . S
O626 C622 1.255 . S
O627 C607 1.259 . S
O627 Co608 2.021 . S
H628 C619 0.930 . S
H629 C618 0.931 . S
O630 Co606 2.117 . S
O630 C607 1.258 . S
O631 Co606 2.020 . S
O631 C633 1.256 . S
O632 Co608 2.062 . S
O632 C633 1.255 . S
C633 O631 1.256 . S
C633 O632 1.255 . S
H634 C613 0.931 . S
H635 C621 0.931 . S
Co636 N641 2.057 . S
Co636 O653 2.021 1_455 S
Co636 O656 2.062 . S
Co636 O660 2.117 . S
Co636 O661 2.020 . S
C637 O657 1.259 . S
C637 O660 1.258 . S
Co638 N647 2.057 . S
Co638 O654 2.117 1_455 S
Co638 O655 2.020 . S
Co638 O657 2.021 . S
Co638 O662 2.062 . S
C639 N641 1.316 1_655 S
C639 N642 1.347 1_655 S
C639 H644 0.931 . S
C640 N641 1.375 . S
C640 C643 1.350 . S
C640 H645 0.930 . S
N641 Co636 2.057 . S
N641 C639 1.316 1_455 S
N641 C640 1.375 . S
N642 C639 1.347 1_455 S
N642 C643 1.373 . S
C643 C640 1.350 . S
C643 N642 1.373 . S
C643 H664 0.931 . S
H644 C639 0.931 . S
H645 C640 0.930 . S
C646 O653 1.259 . S
C646 O654 1.258 . S
N647 Co638 2.057 . S
N647 C648 1.316 . S
N647 C649 1.375 . S
C648 N647 1.316 . S
C648 N650 1.347 . S
C648 H659 0.931 . S
C649 N647 1.375 . S
C649 C651 1.350 . S
C649 H658 0.930 . S
N650 C648 1.347 . S
N650 C651 1.373 . S
C651 C649 1.350 . S
C651 N650 1.373 . S
C651 H665 0.931 . S
C652 O655 1.256 . S
C652 O656 1.255 . S
O653 Co636 2.021 1_655 S
O653 C646 1.259 . S
O654 Co638 2.117 1_655 S
O654 C646 1.258 . S
O655 Co638 2.020 . S
O655 C652 1.256 . S
O656 Co636 2.062 . S
O656 C652 1.255 . S
O657 C637 1.259 . S
O657 Co638 2.021 . S
H658 C649 0.930 . S
H659 C648 0.931 . S
O660 Co636 2.117 . S
O660 C637 1.258 . S
O661 Co636 2.020 . S
O661 C663 1.256 . S
O662 Co638 2.062 . S
O662 C663 1.255 . S
C663 O661 1.256 . S
C663 O662 1.255 . S
H664 C643 0.931 . S
H665 C651 0.931 . S
Co666 N671 2.057 . S
Co666 O683 2.021 . S
Co666 O686 2.062 . S
Co666 O690 2.117 . S
Co666 O691 2.020 . S
C667 O687 1.259 . S
C667 O690 1.258 . S
Co668 N677 2.057 . S
Co668 O684 2.117 . S
Co668 O685 2.020 . S
Co668 O687 2.021 . S
Co668 O692 2.062 . S
C669 N671 1.316 . S
C669 N672 1.347 1_655 S
C669 H674 0.931 . S
C670 N671 1.375 . S
C670 C673 1.350 1_655 S
C670 H675 0.930 . S
N671 Co666 2.057 . S
N671 C669 1.316 . S
N671 C670 1.375 . S
N672 C669 1.347 1_455 S
N672 C673 1.373 . S
C673 C670 1.350 1_455 S
C673 N672 1.373 . S
C673 H694 0.931 . S
H674 C669 0.931 . S
H675 C670 0.930 . S
C676 O683 1.259 . S
C676 O684 1.258 . S
N677 Co668 2.057 . S
N677 C678 1.316 . S
N677 C679 1.375 . S
C678 N677 1.316 . S
C678 N680 1.347 . S
C678 H689 0.931 . S
C679 N677 1.375 . S
C679 C681 1.350 . S
C679 H688 0.930 . S
N680 C678 1.347 . S
N680 C681 1.373 . S
C681 C679 1.350 . S
C681 N680 1.373 . S
C681 H695 0.931 . S
C682 O685 1.256 . S
C682 O686 1.255 . S
O683 Co666 2.021 . S
O683 C676 1.259 . S
O684 Co668 2.117 . S
O684 C676 1.258 . S
O685 Co668 2.020 . S
O685 C682 1.256 . S
O686 Co666 2.062 . S
O686 C682 1.255 . S
O687 C667 1.259 . S
O687 Co668 2.021 . S
H688 C679 0.930 . S
H689 C678 0.931 . S
O690 Co666 2.117 . S
O690 C667 1.258 . S
O691 Co666 2.020 . S
O691 C693 1.256 . S
O692 Co668 2.062 . S
O692 C693 1.255 . S
C693 O691 1.256 . S
C693 O692 1.255 . S
H694 C673 0.931 . S
H695 C681 0.931 . S
Co696 N701 2.057 . S
Co696 O713 2.021 . S
Co696 O716 2.062 . S
Co696 O720 2.117 . S
Co696 O721 2.020 . S
C697 O717 1.259 . S
C697 O720 1.258 . S
Co698 N707 2.057 . S
Co698 O714 2.117 . S
Co698 O715 2.020 . S
Co698 O717 2.021 . S
Co698 O722 2.062 . S
C699 N701 1.316 . S
C699 N702 1.347 1_556 S
C699 H704 0.931 . S
C700 N701 1.375 . S
C700 C703 1.350 1_556 S
C700 H705 0.930 . S
N701 Co696 2.057 . S
N701 C699 1.316 . S
N701 C700 1.375 . S
N702 C699 1.347 1_554 S
N702 C703 1.373 . S
C703 C700 1.350 1_554 S
C703 N702 1.373 . S
C703 H724 0.931 . S
H704 C699 0.931 . S
H705 C700 0.930 . S
C706 O713 1.259 . S
C706 O714 1.258 . S
N707 Co698 2.057 . S
N707 C708 1.316 . S
N707 C709 1.375 . S
C708 N707 1.316 . S
C708 N710 1.347 . S
C708 H719 0.931 . S
C709 N707 1.375 . S
C709 C711 1.350 . S
C709 H718 0.930 . S
N710 C708 1.347 . S
N710 C711 1.373 . S
C711 C709 1.350 . S
C711 N710 1.373 . S
C711 H725 0.931 . S
C712 O715 1.256 . S
C712 O716 1.255 . S
O713 Co696 2.021 . S
O713 C706 1.259 . S
O714 Co698 2.117 . S
O714 C706 1.258 . S
O715 Co698 2.020 . S
O715 C712 1.256 . S
O716 Co696 2.062 . S
O716 C712 1.255 . S
O717 C697 1.259 . S
O717 Co698 2.021 . S
H718 C709 0.930 . S
H719 C708 0.931 . S
O720 Co696 2.117 . S
O720 C697 1.258 . S
O721 Co696 2.020 . S
O721 C723 1.256 . S
O722 Co698 2.062 . S
O722 C723 1.255 . S
C723 O721 1.256 . S
C723 O722 1.255 . S
H724 C703 0.931 . S
H725 C711 0.931 . S
Co726 N731 2.057 . S
Co726 O743 2.021 . S
Co726 O746 2.062 . S
Co726 O750 2.117 . S
Co726 O751 2.020 . S
C727 O747 1.259 . S
C727 O750 1.258 . S
Co728 N737 2.057 . S
Co728 O744 2.117 . S
Co728 O745 2.020 . S
Co728 O747 2.021 . S
Co728 O752 2.062 . S
C729 N731 1.316 . S
C729 N732 1.347 . S
C729 H734 0.931 . S
C730 N731 1.375 . S
C730 C733 1.350 . S
C730 H735 0.930 . S
N731 Co726 2.057 . S
N731 C729 1.316 . S
N731 C730 1.375 . S
N732 C729 1.347 . S
N732 C733 1.373 . S
C733 C730 1.350 . S
C733 N732 1.373 . S
C733 H754 0.931 . S
H734 C729 0.931 . S
H735 C730 0.930 . S
C736 O743 1.259 . S
C736 O744 1.258 . S
N737 Co728 2.057 . S
N737 C738 1.316 . S
N737 C739 1.375 . S
C738 N737 1.316 . S
C738 N740 1.347 . S
C738 H749 0.931 . S
C739 N737 1.375 . S
C739 C741 1.350 . S
C739 H748 0.930 . S
N740 C738 1.347 . S
N740 C741 1.373 . S
C741 C739 1.350 . S
C741 N740 1.373 . S
C741 H755 0.931 1_565 S
C742 O745 1.256 . S
C742 O746 1.255 . S
O743 Co726 2.021 . S
O743 C736 1.259 . S
O744 Co728 2.117 . S
O744 C736 1.258 . S
O745 Co728 2.020 . S
O745 C742 1.256 . S
O746 Co726 2.062 . S
O746 C742 1.255 . S
O747 C727 1.259 . S
O747 Co728 2.021 . S
H748 C739 0.930 . S
H749 C738 0.931 . S
O750 Co726 2.117 . S
O750 C727 1.258 . S
O751 Co726 2.020 . S
O751 C753 1.256 . S
O752 Co728 2.062 . S
O752 C753 1.255 . S
C753 O751 1.256 . S
C753 O752 1.255 . S
H754 C733 0.931 . S
H755 C741 0.931 1_545 S
Co756 N761 2.057 . S
Co756 O773 2.021 . S
Co756 O776 2.062 . S
Co756 O780 2.117 . S
Co756 O781 2.020 . S
C757 O777 1.259 . S
C757 O780 1.258 . S
Co758 N767 2.057 . S
Co758 O774 2.117 . S
Co758 O775 2.020 . S
Co758 O777 2.021 . S
Co758 O782 2.062 . S
C759 N761 1.316 . S
C759 N762 1.347 . S
C759 H764 0.931 . S
C760 N761 1.375 . S
C760 C763 1.350 . S
C760 H765 0.930 . S
N761 Co756 2.057 . S
N761 C759 1.316 . S
N761 C760 1.375 . S
N762 C759 1.347 . S
N762 C763 1.373 . S
C763 C760 1.350 . S
C763 N762 1.373 . S
C763 H784 0.931 . S
H764 C759 0.931 . S
H765 C760 0.930 . S
C766 O773 1.259 . S
C766 O774 1.258 . S
N767 Co758 2.057 . S
N767 C768 1.316 . S
N767 C769 1.375 . S
C768 N767 1.316 . S
C768 N770 1.347 . S
C768 H779 0.931 . S
C769 N767 1.375 . S
C769 C771 1.350 . S
C769 H778 0.930 . S
N770 C768 1.347 . S
N770 C771 1.373 . S
C771 C769 1.350 . S
C771 N770 1.373 . S
C771 H785 0.931 . S
C772 O775 1.256 . S
C772 O776 1.255 . S
O773 Co756 2.021 . S
O773 C766 1.259 . S
O774 Co758 2.117 . S
O774 C766 1.258 . S
O775 Co758 2.020 . S
O775 C772 1.256 . S
O776 Co756 2.062 . S
O776 C772 1.255 . S
O777 C757 1.259 . S
O777 Co758 2.021 . S
H778 C769 0.930 . S
H779 C768 0.931 . S
O780 Co756 2.117 . S
O780 C757 1.258 . S
O781 Co756 2.020 . S
O781 C783 1.256 . S
O782 Co758 2.062 . S
O782 C783 1.255 . S
C783 O781 1.256 . S
C783 O782 1.255 . S
H784 C763 0.931 . S
H785 C771 0.931 . S
Co786 N791 2.057 1_455 S
Co786 O803 2.021 . S
Co786 O806 2.062 1_455 S
Co786 O810 2.117 . S
Co786 O811 2.020 1_554 S
C787 O807 1.259 . S
C787 O810 1.258 . S
Co788 N797 2.057 . S
Co788 O804 2.117 . S
Co788 O805 2.020 . S
Co788 O807 2.021 . S
Co788 O812 2.062 1_554 S
C789 N791 1.316 . S
C789 N792 1.347 . S
C789 H794 0.931 . S
C790 N791 1.375 . S
C790 C793 1.350 . S
C790 H795 0.930 1_554 S
N791 Co786 2.057 1_655 S
N791 C789 1.316 . S
N791 C790 1.375 . S
N792 C789 1.347 . S
N792 C793 1.373 . S
C793 C790 1.350 . S
C793 N792 1.373 . S
C793 H814 0.931 1_554 S
H794 C789 0.931 . S
H795 C790 0.930 1_556 S
C796 O803 1.259 . S
C796 O804 1.258 . S
N797 Co788 2.057 . S
N797 C798 1.316 . S
N797 C799 1.375 . S
C798 N797 1.316 . S
C798 N800 1.347 . S
C798 H809 0.931 . S
C799 N797 1.375 . S
C799 C801 1.350 . S
C799 H808 0.930 . S
N800 C798 1.347 . S
N800 C801 1.373 . S
C801 C799 1.350 . S
C801 N800 1.373 . S
C801 H815 0.931 . S
C802 O805 1.256 . S
C802 O806 1.255 1_455 S
O803 Co786 2.021 . S
O803 C796 1.259 . S
O804 Co788 2.117 . S
O804 C796 1.258 . S
O805 Co788 2.020 . S
O805 C802 1.256 . S
O806 Co786 2.062 1_655 S
O806 C802 1.255 1_655 S
O807 C787 1.259 . S
O807 Co788 2.021 . S
H808 C799 0.930 . S
H809 C798 0.931 . S
O810 Co786 2.117 . S
O810 C787 1.258 . S
O811 Co786 2.020 1_556 S
O811 C813 1.256 . S
O812 Co788 2.062 1_556 S
O812 C813 1.255 . S
C813 O811 1.256 . S
C813 O812 1.255 . S
H814 C793 0.931 1_556 S
H815 C801 0.931 . S
C337 C7 2.701 . S
C22 C382 1.170 . S
C31 C406 2.256 . S
N432 C51 2.218 . S
C17 N462 2.447 . S
C496 C36 1.960 . S
C532 C49 1.251 1_554 S
C9 C556 2.586 . S
C63 N350 1.203 1_545 S
C73 N372 2.504 . S
C412 C91 1.014 . S
C436 C101 2.290 . S
C59 C466 1.731 . S
C502 C77 1.236 . S
N522 C87 2.152 . S
C562 C105 2.539 . S
C363 C107 2.490 . S
C592 C120 1.225 . S
C135 N612 2.311 . S
C646 C148 1.972 . S
C65 N552 1.202 . S
N402 C79 2.263 1_545 S
C134 C682 1.223 . S
C706 C162 1.611 . S
C171 C346 2.599 1_556 S
C723 C190 1.169 . S
C203 C397 2.171 . S
C219 N680 2.253 . S
N470 C189 2.097 . S
C607 C204 1.915 . S
C543 C213 1.428 . S
C727 C177 2.580 . S
N342 C227 1.125 . S
C245 N710 2.156 . S
C423 C255 1.248 . S
C273 C667 2.158 . S
C231 C457 1.438 1_655 S
C241 C633 1.477 . S
N530 C259 1.829 . S
C269 C753 2.470 . S
C275 C352 2.486 1_565 S
C288 C603 1.238 1_556 S
C303 N500 2.350 . S
C316 C637 1.921 . S
N740 C233 1.221 1_565 S
N410 C247 2.304 . S
C453 C302 1.220 . S
C367 C330 1.564 . S
C35 C757 2.701 . S
C712 C50 1.170 . S
C796 C3 2.256 . S
C23 N672 2.218 . S
C45 N582 2.447 1_556 S
C616 C8 1.960 . S
C652 C21 1.250 . S
C736 C37 2.587 . S
N770 C161 1.203 . S
C115 N702 2.504 . S
C133 C802 1.014 1_655 S
C676 C143 2.290 . S
C586 C157 1.731 . S
C119 C622 1.236 . S
N642 C129 2.152 1_455 S
C147 C742 2.539 . S
C783 C149 2.490 . S
C472 C78 1.225 1_545 S
N492 C93 2.311 . S
C106 C526 1.972 . S
N732 C163 1.202 . S
C121 N792 2.263 . S
C442 C92 1.223 . S
C376 C64 1.611 . S
C199 C766 2.599 . S
C393 C218 1.169 . S
C787 C175 2.171 1_554 S
C191 N440 2.253 . S
C217 N590 2.097 . S
C176 C487 1.915 . S
C185 C663 1.428 . S
C205 C547 2.580 . S
N762 C325 1.125 . S
C287 N380 2.155 . S
C813 C297 1.248 . S
C315 C427 2.158 . S
C329 C577 1.439 . S
C513 C283 1.478 . S
C301 N650 1.829 . S
C573 C311 2.471 . S
C772 C317 2.486 . S
C483 C246 1.240 . S
C261 N620 2.350 . S
C517 C274 1.921 1_545 S
N560 C331 1.221 . S
C289 N800 2.301 . S
C693 C260 1.219 . S
C697 C232 1.564 . S
