# Generated by pormake.
# Topology ctn, (3,4)-cn, num edge types: 1
# Building blocks:
#     Node 0, Type 0, BuildingBlock: WUSLED_clean_sbu_0, # of connection points: 3
#     Node 1, Type 0, BuildingBlock: WUSLED_clean_sbu_0, # of connection points: 3
#     Node 2, Type 0, BuildingBlock: WUSLED_clean_sbu_0, # of connection points: 3
#     Node 3, Type 0, BuildingBlock: WUSLED_clean_sbu_0, # of connection points: 3
#     Node 4, Type 0, BuildingBlock: WUSLED_clean_sbu_0, # of connection points: 3
#     Node 5, Type 0, BuildingBlock: WUSLED_clean_sbu_0, # of connection points: 3
#     Node 6, Type 0, BuildingBlock: WUSLED_clean_sbu_0, # of connection points: 3
#     Node 7, Type 0, BuildingBlock: WUSLED_clean_sbu_0, # of connection points: 3
#     Node 8, Type 0, BuildingBlock: WUSLED_clean_sbu_0, # of connection points: 3
#     Node 9, Type 0, BuildingBlock: WUSLED_clean_sbu_0, # of connection points: 3
#     Node 10, Type 0, BuildingBlock: WUSLED_clean_sbu_0, # of connection points: 3
#     Node 11, Type 0, BuildingBlock: WUSLED_clean_sbu_0, # of connection points: 3
#     Node 12, Type 0, BuildingBlock: WUSLED_clean_sbu_0, # of connection points: 3
#     Node 13, Type 0, BuildingBlock: WUSLED_clean_sbu_0, # of connection points: 3
#     Node 14, Type 0, BuildingBlock: WUSLED_clean_sbu_0, # of connection points: 3
#     Node 15, Type 0, BuildingBlock: WUSLED_clean_sbu_0, # of connection points: 3
#     Node 16, Type 1, BuildingBlock: AZAVOO_clean_sbu_0, # of connection points: 4
#     Node 17, Type 1, BuildingBlock: AZAVOO_clean_sbu_0, # of connection points: 4
#     Node 18, Type 1, BuildingBlock: AZAVOO_clean_sbu_0, # of connection points: 4
#     Node 19, Type 1, BuildingBlock: AZAVOO_clean_sbu_0, # of connection points: 4
#     Node 20, Type 1, BuildingBlock: AZAVOO_clean_sbu_0, # of connection points: 4
#     Node 21, Type 1, BuildingBlock: AZAVOO_clean_sbu_0, # of connection points: 4
#     Node 22, Type 1, BuildingBlock: AZAVOO_clean_sbu_0, # of connection points: 4
#     Node 23, Type 1, BuildingBlock: AZAVOO_clean_sbu_0, # of connection points: 4
#     Node 24, Type 1, BuildingBlock: AZAVOO_clean_sbu_0, # of connection points: 4
#     Node 25, Type 1, BuildingBlock: AZAVOO_clean_sbu_0, # of connection points: 4
#     Node 26, Type 1, BuildingBlock: AZAVOO_clean_sbu_0, # of connection points: 4
#     Node 27, Type 1, BuildingBlock: AZAVOO_clean_sbu_0, # of connection points: 4
#     Edge 28, Type (0, 1), BuildingBlock: UVAHIK_clean_linker_0, # of connection points: 2
#     Edge 29, Type (0, 1), BuildingBlock: UVAHIK_clean_linker_0, # of connection points: 2
#     Edge 30, Type (0, 1), BuildingBlock: UVAHIK_clean_linker_0, # of connection points: 2
#     Edge 31, Type (0, 1), BuildingBlock: UVAHIK_clean_linker_0, # of connection points: 2
#     Edge 32, Type (0, 1), BuildingBlock: UVAHIK_clean_linker_0, # of connection points: 2
#     Edge 33, Type (0, 1), BuildingBlock: UVAHIK_clean_linker_0, # of connection points: 2
#     Edge 34, Type (0, 1), BuildingBlock: UVAHIK_clean_linker_0, # of connection points: 2
#     Edge 35, Type (0, 1), BuildingBlock: UVAHIK_clean_linker_0, # of connection points: 2
#     Edge 36, Type (0, 1), BuildingBlock: UVAHIK_clean_linker_0, # of connection points: 2
#     Edge 37, Type (0, 1), BuildingBlock: UVAHIK_clean_linker_0, # of connection points: 2
#     Edge 38, Type (0, 1), BuildingBlock: UVAHIK_clean_linker_0, # of connection points: 2
#     Edge 39, Type (0, 1), BuildingBlock: UVAHIK_clean_linker_0, # of connection points: 2
#     Edge 40, Type (0, 1), BuildingBlock: UVAHIK_clean_linker_0, # of connection points: 2
#     Edge 41, Type (0, 1), BuildingBlock: UVAHIK_clean_linker_0, # of connection points: 2
#     Edge 42, Type (0, 1), BuildingBlock: UVAHIK_clean_linker_0, # of connection points: 2
#     Edge 43, Type (0, 1), BuildingBlock: UVAHIK_clean_linker_0, # of connection points: 2
#     Edge 44, Type (0, 1), BuildingBlock: UVAHIK_clean_linker_0, # of connection points: 2
#     Edge 45, Type (0, 1), BuildingBlock: UVAHIK_clean_linker_0, # of connection points: 2
#     Edge 46, Type (0, 1), BuildingBlock: UVAHIK_clean_linker_0, # of connection points: 2
#     Edge 47, Type (0, 1), BuildingBlock: UVAHIK_clean_linker_0, # of connection points: 2
#     Edge 48, Type (0, 1), BuildingBlock: UVAHIK_clean_linker_0, # of connection points: 2
#     Edge 49, Type (0, 1), BuildingBlock: UVAHIK_clean_linker_0, # of connection points: 2
#     Edge 50, Type (0, 1), BuildingBlock: UVAHIK_clean_linker_0, # of connection points: 2
#     Edge 51, Type (0, 1), BuildingBlock: UVAHIK_clean_linker_0, # of connection points: 2
#     Edge 52, Type (0, 1), BuildingBlock: UVAHIK_clean_linker_0, # of connection points: 2
#     Edge 53, Type (0, 1), BuildingBlock: UVAHIK_clean_linker_0, # of connection points: 2
#     Edge 54, Type (0, 1), BuildingBlock: UVAHIK_clean_linker_0, # of connection points: 2
#     Edge 55, Type (0, 1), BuildingBlock: UVAHIK_clean_linker_0, # of connection points: 2
#     Edge 56, Type (0, 1), BuildingBlock: UVAHIK_clean_linker_0, # of connection points: 2
#     Edge 57, Type (0, 1), BuildingBlock: UVAHIK_clean_linker_0, # of connection points: 2
#     Edge 58, Type (0, 1), BuildingBlock: UVAHIK_clean_linker_0, # of connection points: 2
#     Edge 59, Type (0, 1), BuildingBlock: UVAHIK_clean_linker_0, # of connection points: 2
#     Edge 60, Type (0, 1), BuildingBlock: UVAHIK_clean_linker_0, # of connection points: 2
#     Edge 61, Type (0, 1), BuildingBlock: UVAHIK_clean_linker_0, # of connection points: 2
#     Edge 62, Type (0, 1), BuildingBlock: UVAHIK_clean_linker_0, # of connection points: 2
#     Edge 63, Type (0, 1), BuildingBlock: UVAHIK_clean_linker_0, # of connection points: 2
#     Edge 64, Type (0, 1), BuildingBlock: UVAHIK_clean_linker_0, # of connection points: 2
#     Edge 65, Type (0, 1), BuildingBlock: UVAHIK_clean_linker_0, # of connection points: 2
#     Edge 66, Type (0, 1), BuildingBlock: UVAHIK_clean_linker_0, # of connection points: 2
#     Edge 67, Type (0, 1), BuildingBlock: UVAHIK_clean_linker_0, # of connection points: 2
#     Edge 68, Type (0, 1), BuildingBlock: UVAHIK_clean_linker_0, # of connection points: 2
#     Edge 69, Type (0, 1), BuildingBlock: UVAHIK_clean_linker_0, # of connection points: 2
#     Edge 70, Type (0, 1), BuildingBlock: UVAHIK_clean_linker_0, # of connection points: 2
#     Edge 71, Type (0, 1), BuildingBlock: UVAHIK_clean_linker_0, # of connection points: 2
#     Edge 72, Type (0, 1), BuildingBlock: UVAHIK_clean_linker_0, # of connection points: 2
#     Edge 73, Type (0, 1), BuildingBlock: UVAHIK_clean_linker_0, # of connection points: 2
#     Edge 74, Type (0, 1), BuildingBlock: UVAHIK_clean_linker_0, # of connection points: 2
#     Edge 75, Type (0, 1), BuildingBlock: UVAHIK_clean_linker_0, # of connection points: 2
# Relax obj value: 0.002
# Max RMSD: 0.044
# Mean RMSD: 0.027
data_MOF--net-ctn--node1-WUSLED_clean_sbu_0--node2-AZAVOO_clean_sbu_0--edge1-UVAHIK_clean_linker_0
_symmetry_space_group_name_H-M    P1
_symmetry_Int_Tables_number       1
_symmetry_cell_setting            triclinic
loop_
_symmetry_equiv_pos_as_xyz
'x, y, z'
_cell_length_a     86.775634
_cell_length_b     88.430773
_cell_length_c     88.213826
_cell_angle_alpha  90.760256
_cell_angle_beta   92.452509
_cell_angle_gamma 92.620715
loop_
_atom_site_label
_atom_site_type_symbol
_atom_site_fract_x
_atom_site_fract_y
_atom_site_fract_z
_atom_type_partial_charge
C0 C 0.01645 0.04641 0.06415 0.0
C1 C 0.01801 0.03271 0.07179 0.0
C2 C 0.99798 0.03944 0.08899 0.0
C3 C 0.00886 0.02925 0.08413 0.0
C4 C 0.99665 0.0532 0.08132 0.0
C5 C 0.00577 0.05663 0.06904 0.0
U6 U 0.04908 0.04025 0.03653 0.0
O7 O 0.04863 0.04309 0.01179 0.0
O8 O 0.06456 0.05738 0.02639 0.0
C9 C 0.05864 0.05472 0.0126 0.0
C10 C 0.02562 0.05032 0.05097 0.0
C11 C 0.05419 0.06816 0.00407 0.0
C12 C 0.03583 0.08725 0.99752 0.0
C13 C 0.03988 0.07457 0.00591 0.0
C14 C 0.06043 0.08732 0.98554 0.0
C15 C 0.04604 0.09378 0.98719 0.0
C16 C 0.06443 0.07464 0.99388 0.0
C17 C 0.07587 0.00712 0.04079 0.0
C18 C 0.09853 0.00422 0.02587 0.0
C19 C 0.08982 0.98393 0.04206 0.0
C20 C 0.0777 0.99261 0.04659 0.0
C21 C 0.10039 0.98959 0.03162 0.0
C22 C 0.08634 0.01288 0.03038 0.0
C23 C 0.06294 0.01597 0.04571 0.0
O24 O 0.04001 0.05506 0.054 0.0
O25 O 0.02404 0.0409 0.0393 0.0
O26 O 0.05061 0.01546 0.0365 0.0
O27 O 0.06664 0.02966 0.05108 0.0
H28 H 0.02622 0.02468 0.06816 0.0
H29 H 0.01012 0.01851 0.08969 0.0
H30 H 0.98864 0.06144 0.08489 0.0
H31 H 0.00446 0.06729 0.06332 0.0
H32 H 0.02461 0.09181 0.99899 0.0
H33 H 0.03182 0.06972 0.01375 0.0
H34 H 0.0687 0.09218 0.97792 0.0
H35 H 0.07557 0.06989 0.99238 0.0
H36 H 0.10636 0.00886 0.01771 0.0
H37 H 0.09101 0.97282 0.04688 0.0
H38 H 0.06975 0.98799 0.05466 0.0
H39 H 0.08506 0.02405 0.02571 0.0
C40 C 0.2913 0.73996 0.18478 0.0
C41 C 0.29786 0.75457 0.18772 0.0
C42 C 0.29102 0.76194 0.16182 0.0
C43 C 0.29767 0.76549 0.17634 0.0
C44 C 0.28467 0.74721 0.15892 0.0
C45 C 0.28479 0.73635 0.1703 0.0
U46 U 0.30717 0.72099 0.2209 0.0
O47 O 0.29443 0.71162 0.24001 0.0
O48 O 0.30802 0.69681 0.22616 0.0
C49 C 0.29798 0.69766 0.23687 0.0
C50 C 0.29072 0.72838 0.19665 0.0
C51 C 0.28501 0.68617 0.2363 0.0
C52 C 0.2692 0.66619 0.22314 0.0
C53 C 0.28098 0.67756 0.22308 0.0
C54 C 0.265 0.67212 0.24948 0.0
C55 C 0.26113 0.66328 0.23637 0.0
C56 C 0.27684 0.68339 0.24944 0.0
C57 C 0.34513 0.73651 0.24122 0.0
C58 C 0.37162 0.73131 0.24912 0.0
C59 C 0.35534 0.74362 0.26664 0.0
C60 C 0.3432 0.74299 0.25563 0.0
C61 C 0.36974 0.73786 0.2635 0.0
C62 C 0.3595 0.7307 0.23811 0.0
C63 C 0.33271 0.73667 0.22909 0.0
O64 O 0.30143 0.71836 0.19639 0.0
O65 O 0.28807 0.73322 0.21041 0.0
O66 O 0.31894 0.74037 0.23315 0.0
O67 O 0.33219 0.72546 0.2191 0.0
H68 H 0.30303 0.75757 0.19881 0.0
H69 H 0.3028 0.77668 0.17889 0.0
H70 H 0.27928 0.74414 0.14794 0.0
H71 H 0.27964 0.72515 0.16782 0.0
H72 H 0.26638 0.6597 0.21282 0.0
H73 H 0.287 0.6795 0.21273 0.0
H74 H 0.25913 0.67006 0.2599 0.0
H75 H 0.27978 0.68983 0.25978 0.0
H76 H 0.38248 0.72661 0.24635 0.0
H77 H 0.35353 0.74895 0.2775 0.0
H78 H 0.33239 0.7478 0.25837 0.0
H79 H 0.36145 0.7258 0.22707 0.0
C80 C 0.97642 0.44648 0.01168 0.0
C81 C 0.9775 0.43221 0.0184 0.0
C82 C 0.98458 0.42112 0.99433 0.0
C83 C 0.9815 0.41967 0.0098 0.0
C84 C 0.98392 0.4355 0.98777 0.0
C85 C 0.97982 0.44801 0.99635 0.0
U86 U 0.97739 0.47447 0.04579 0.0
O87 O 0.9747 0.49916 0.04582 0.0
O88 O 0.95816 0.48427 0.05736 0.0
C89 C 0.96167 0.49808 0.05289 0.0
C90 C 0.97098 0.45969 0.02008 0.0
C91 C 0.94883 0.50676 0.04646 0.0
C92 C 0.92299 0.50818 0.03474 0.0
C93 C 0.93536 0.4996 0.03977 0.0
C94 C 0.93753 0.53117 0.04261 0.0
C95 C 0.92389 0.52407 0.03619 0.0
C96 C 0.94982 0.5226 0.0477 0.0
C97 C 0.00718 0.47026 0.07929 0.0
C98 C 0.0235 0.48773 0.09526 0.0
C99 C 0.01525 0.46336 0.10498 0.0
C100 C 0.00714 0.45991 0.09122 0.0
C101 C 0.02373 0.47723 0.10714 0.0
C102 C 0.01533 0.4843 0.08151 0.0
C103 C 0.99963 0.46573 0.06439 0.0
O104 O 0.96373 0.45691 0.03261 0.0
O105 O 0.98056 0.47164 0.02125 0.0
O106 O 1.00198 0.47483 0.05296 0.0
O107 O 0.98534 0.46014 0.06459 0.0
H108 H 0.97504 0.43068 0.03023 0.0
H109 H 0.9821 0.40879 0.01524 0.0
H110 H 0.98607 0.43699 0.97587 0.0
H111 H 0.979 0.45887 0.99089 0.0
H112 H 0.91272 0.50237 0.02972 0.0
H113 H 0.93431 0.48738 0.03861 0.0
H114 H 0.93856 0.54335 0.0441 0.0
H115 H 0.96005 0.52837 0.05289 0.0
H116 H 0.03004 0.49844 0.09638 0.0
H117 H 0.01493 0.45509 0.11392 0.0
H118 H 1.00102 0.44899 0.0898 0.0
H119 H 0.01568 0.49253 0.07254 0.0
C120 C 0.71687 0.77414 0.18794 0.0
C121 C 0.72547 0.78009 0.17609 0.0
C122 C 0.72511 0.75515 0.16383 0.0
C123 C 0.72951 0.77069 0.16412 0.0
C124 C 0.71669 0.74925 0.17587 0.0
C125 C 0.7126 0.75866 0.18777 0.0
U126 U 0.72132 0.80976 0.2135 0.0
O127 O 0.70337 0.82421 0.22191 0.0
O128 O 0.7183 0.81228 0.238 0.0
C129 C 0.70617 0.82056 0.23612 0.0
C130 C 0.712 0.78386 0.20042 0.0
C131 C 0.69256 0.81594 0.24473 0.0
C132 C 0.67568 0.79654 0.2555 0.0
C133 C 0.68816 0.80062 0.2466 0.0
C134 C 0.67154 0.82303 0.26035 0.0
C135 C 0.66729 0.8077 0.2626 0.0
C136 C 0.68407 0.82709 0.25154 0.0
C137 C 0.75529 0.83853 0.20748 0.0
C138 C 0.76154 0.86112 0.22303 0.0
C139 C 0.77749 0.855 0.20213 0.0
C140 C 0.768 0.84211 0.19874 0.0
C141 C 0.7745 0.86462 0.2144 0.0
C142 C 0.75203 0.84814 0.21961 0.0
C143 C 0.74591 0.82454 0.20386 0.0
O144 O 0.72134 0.78483 0.21255 0.0
O145 O 0.70659 0.79695 0.19645 0.0
O146 O 0.73189 0.82627 0.1981 0.0
O147 O 0.74653 0.8139 0.21409 0.0
H148 H 0.72899 0.79201 0.17606 0.0
H149 H 0.73616 0.77557 0.15514 0.0
H150 H 0.71296 0.73739 0.17593 0.0
H151 H 0.70594 0.75386 0.1968 0.0
H152 H 0.6726 0.78464 0.25683 0.0
H153 H 0.69449 0.79181 0.24134 0.0
H154 H 0.66547 0.83191 0.26578 0.0
H155 H 0.68728 0.83897 0.25023 0.0
H156 H 0.75895 0.86821 0.2326 0.0
H157 H 0.78717 0.85747 0.19507 0.0
H158 H 0.77066 0.83486 0.1893 0.0
H159 H 0.74225 0.84553 0.22651 0.0
C160 C 0.01624 0.97423 0.44254 0.0
C161 C 0.01762 0.98901 0.43696 0.0
C162 C 0.99768 0.98271 0.41717 0.0
C163 C 0.00842 0.99321 0.42436 0.0
C164 C 0.99661 0.96786 0.42272 0.0
C165 C 0.00577 0.9637 0.43526 0.0
U166 U 0.05044 0.97768 0.47229 0.0
O167 O 0.04995 0.97398 0.49696 0.0
O168 O 0.0636 0.9596 0.48275 0.0
C169 C 0.05822 0.96192 0.49626 0.0
C170 C 0.02517 0.96953 0.45614 0.0
C171 C 0.0524 0.94839 0.5044 0.0
C172 C 0.04588 0.92133 0.50538 0.0
C173 C 0.05006 0.93418 0.4971 0.0
C174 C 0.04575 0.93671 0.52827 0.0
C175 C 0.04386 0.9224 0.5211 0.0
C176 C 0.05004 0.94953 0.52001 0.0
C177 C 0.08261 0.00933 0.47015 0.0
C178 C 0.11026 0.01464 0.46785 0.0
C179 C 0.09613 0.02951 0.48528 0.0
C180 C 0.08254 0.02108 0.48106 0.0
C181 C 0.11016 0.0265 0.47864 0.0
C182 C 0.09666 0.00621 0.46363 0.0
C183 C 0.06799 1.00117 0.46469 0.0
O184 O 0.03867 0.96397 0.45381 0.0
O185 O 0.02536 0.97869 0.46801 0.0
O186 O 0.05597 1.00224 0.47318 0.0
O187 O 0.06918 0.9875 0.45893 0.0
H188 H 0.02565 0.99732 0.44242 0.0
H189 H 0.00949 0.00476 0.42046 0.0
H190 H 0.98873 0.95938 0.41732 0.0
H191 H 0.00459 0.95222 0.43936 0.0
H192 H 0.04432 0.91051 0.49947 0.0
H193 H 0.05172 0.9329 0.48506 0.0
H194 H 0.04444 0.93791 0.54037 0.0
H195 H 0.05186 0.96033 0.52593 0.0
H196 H 0.12085 0.01189 0.4626 0.0
H197 H 0.09554 0.0387 0.49343 0.0
H198 H 0.07191 0.02399 0.48614 0.0
H199 H 0.09713 0.99738 0.45505 0.0
C200 C 0.20751 0.74647 0.81701 0.0
C201 C 0.22296 0.7512 0.82041 0.0
C202 C 0.21536 0.76531 0.84267 0.0
C203 C 0.22684 0.76054 0.83308 0.0
C204 C 0.19994 0.76028 0.83934 0.0
C205 C 0.19608 0.75102 0.82664 0.0
U206 U 0.21177 0.71347 0.78855 0.0
O207 O 0.19362 0.69898 0.77677 0.0
O208 O 0.20918 0.71341 0.76362 0.0
C209 C 0.19686 0.70418 0.76332 0.0
C210 C 0.20288 0.73741 0.8032 0.0
C211 C 0.18362 0.70885 0.75377 0.0
C212 C 0.16186 0.7248 0.74891 0.0
C213 C 0.17435 0.72057 0.7583 0.0
C214 C 0.16782 0.70565 0.73045 0.0
C215 C 0.15849 0.71743 0.73482 0.0
C216 C 0.18024 0.70143 0.73983 0.0
C217 C 0.24435 0.6856 0.79485 0.0
C218 C 0.2558 0.66972 0.776 0.0
C219 C 0.2602 0.66485 0.80274 0.0
C220 C 0.25109 0.67694 0.80634 0.0
C221 C 0.26283 0.66118 0.78752 0.0
C222 C 0.24661 0.68178 0.77962 0.0
C223 C 0.23557 0.69884 0.79909 0.0
O224 O 0.21233 0.73816 0.79194 0.0
O225 O 0.19709 0.72365 0.80538 0.0
O226 O 0.2214 0.69593 0.80327 0.0
O227 O 0.23683 0.7107 0.79032 0.0
H228 H 0.23204 0.74786 0.81318 0.0
H229 H 0.2388 0.7643 0.83515 0.0
H230 H 0.19082 0.76346 0.84658 0.0
H231 H 0.18408 0.7475 0.82425 0.0
H232 H 0.155 0.73399 0.75257 0.0
H233 H 0.17682 0.72646 0.76904 0.0
H234 H 0.16544 0.69954 0.71983 0.0
H235 H 0.18723 0.69232 0.73618 0.0
H236 H 0.25742 0.66709 0.76416 0.0
H237 H 0.26555 0.65865 0.81191 0.0
H238 H 0.24952 0.67971 0.81816 0.0
H239 H 0.24144 0.68823 0.77054 0.0
C240 C 0.96693 0.56435 0.49804 0.0
C241 C 0.96822 0.57867 0.49134 0.0
C242 C 0.97536 0.5905 0.51598 0.0
C243 C 0.97239 0.5916 0.50022 0.0
C244 C 0.97442 0.57608 0.52254 0.0
C245 C 0.9702 0.5632 0.51369 0.0
U246 U 0.96886 0.53429 0.46587 0.0
O247 O 0.96436 0.50963 0.46694 0.0
O248 O 0.94992 0.52317 0.45185 0.0
C249 C 0.95207 0.50981 0.45773 0.0
C250 C 0.96127 0.55063 0.48928 0.0
C251 C 0.9382 0.5015 0.46292 0.0
C252 C 0.91458 0.50022 0.47688 0.0
C253 C 0.9276 0.50848 0.47203 0.0
C254 C 0.92269 0.47796 0.46365 0.0
C255 C 0.91201 0.48483 0.47281 0.0
C256 C 0.93562 0.48622 0.45876 0.0
C257 C 1.00238 0.53635 0.43816 0.0
C258 C 0.00592 0.53298 0.41104 0.0
C259 C 0.02633 0.52685 0.42915 0.0
C260 C 0.01722 0.53106 0.44107 0.0
C261 C 0.02091 0.52796 0.41396 0.0
C262 C 0.99677 0.53716 0.423 0.0
C263 C 0.99358 0.54197 0.45101 0.0
O264 O 0.95566 0.55256 0.47538 0.0
O265 O 0.96977 0.53875 0.49054 0.0
O266 O 0.99396 0.53383 0.46337 0.0
O267 O 0.97991 0.54726 0.4478 0.0
H268 H 0.96573 0.57997 0.47931 0.0
H269 H 0.97283 0.60251 0.49479 0.0
H270 H 0.97688 0.57473 0.53457 0.0
H271 H 0.96926 0.55231 0.51915 0.0
H272 H 0.90667 0.5058 0.48403 0.0
H273 H 0.92944 0.52026 0.47544 0.0
H274 H 0.92097 0.46621 0.46013 0.0
H275 H 0.94365 0.48065 0.45172 0.0
H276 H 1.00141 0.53414 0.3995 0.0
H277 H 0.03769 0.52279 0.43188 0.0
H278 H 0.02192 0.53041 0.45261 0.0
H279 H 0.98544 0.5413 0.42031 0.0
C280 C 0.78833 0.77607 0.82869 0.0
C281 C 0.79949 0.76505 0.82935 0.0
C282 C 0.78681 0.75306 0.85059 0.0
C283 C 0.79876 0.75365 0.84026 0.0
C284 C 0.77579 0.76426 0.84988 0.0
C285 C 0.77656 0.7756 0.83905 0.0
U286 U 0.80451 0.79694 0.79411 0.0
O287 O 0.7916 0.80686 0.77499 0.0
O288 O 0.80651 0.82151 0.79023 0.0
C289 C 0.79622 0.8208 0.77884 0.0
C290 C 0.78853 0.7881 0.81732 0.0
C291 C 0.78399 0.83181 0.7793 0.0
C292 C 0.75977 0.84027 0.78863 0.0
C293 C 0.77153 0.82988 0.78884 0.0
C294 C 0.77297 0.85467 0.76952 0.0
C295 C 0.76028 0.85273 0.77884 0.0
C296 C 0.78467 0.84432 0.76975 0.0
C297 C 0.83983 0.7829 0.77374 0.0
C298 C 0.86133 0.79561 0.76137 0.0
C299 C 0.85189 0.77068 0.75267 0.0
C300 C 0.84083 0.77052 0.76376 0.0
C301 C 0.86233 0.78319 0.75137 0.0
C302 C 0.85018 0.79549 0.77241 0.0
C303 C 0.82837 0.78207 0.78575 0.0
O304 O 0.80022 0.7981 0.8185 0.0
O305 O 0.78496 0.78378 0.80324 0.0
O306 O 0.81406 0.7783 0.7812 0.0
O307 O 0.82933 0.79284 0.79624 0.0
H308 H 0.80868 0.76524 0.82141 0.0
H309 H 0.80738 0.74516 0.84044 0.0
H310 H 0.76662 0.76437 0.85783 0.0
H311 H 0.76789 0.78405 0.83875 0.0
H312 H 0.75014 0.83835 0.79588 0.0
H313 H 0.77082 0.82027 0.79631 0.0
H314 H 0.77391 0.86426 0.76205 0.0
H315 H 0.79424 0.84603 0.76236 0.0
H316 H 0.8691 0.80548 0.76058 0.0
H317 H 0.85247 0.76084 0.7453 0.0
H318 H 0.83312 0.76061 0.76463 0.0
H319 H 0.84974 0.80523 0.77993 0.0
C320 C 0.28848 0.27612 0.32812 0.0
C321 C 0.29811 0.26384 0.32714 0.0
C322 C 0.28751 0.25314 0.35009 0.0
C323 C 0.29765 0.25245 0.33806 0.0
C324 C 0.27809 0.26563 0.35106 0.0
C325 C 0.27857 0.27696 0.34019 0.0
U326 U 0.30393 0.29667 0.29313 0.0
O327 O 0.29079 0.30629 0.27398 0.0
O328 O 0.30581 0.32118 0.28889 0.0
C329 C 0.29543 0.32029 0.27758 0.0
C330 C 0.28828 0.28806 0.31664 0.0
C331 C 0.28324 0.33135 0.27791 0.0
C332 C 0.25872 0.33971 0.2866 0.0
C333 C 0.27042 0.32925 0.28697 0.0
C334 C 0.2727 0.35452 0.26832 0.0
C335 C 0.25965 0.35241 0.27714 0.0
C336 C 0.28434 0.34409 0.2687 0.0
C337 C 0.33921 0.2825 0.27277 0.0
C338 C 0.36028 0.29531 0.25984 0.0
C339 C 0.35167 0.26981 0.25223 0.0
C340 C 0.34061 0.26978 0.26332 0.0
C341 C 0.3617 0.28254 0.25039 0.0
C342 C 0.34913 0.29531 0.27088 0.0
C343 C 0.3278 0.2818 0.28483 0.0
O344 O 0.29985 0.29819 0.31757 0.0
O345 O 0.28457 0.28356 0.30264 0.0
O346 O 0.3135 0.27792 0.28038 0.0
O347 O 0.32878 0.29272 0.29515 0.0
H348 H 0.30585 0.26302 0.31788 0.0
H349 H 0.30499 0.24296 0.33691 0.0
H350 H 0.27037 0.26671 0.3603 0.0
H351 H 0.27111 0.2864 0.34117 0.0
H352 H 0.24881 0.33766 0.29346 0.0
H353 H 0.26938 0.31946 0.29417 0.0
H354 H 0.27397 0.36429 0.26113 0.0
H355 H 0.29418 0.34594 0.26169 0.0
H356 H 0.36772 0.30535 0.25861 0.0
H357 H 0.35257 0.25972 0.24529 0.0
H358 H 0.33323 0.2597 0.26463 0.0
H359 H 0.34836 0.30532 0.27797 0.0
C360 C 0.47226 0.94662 0.51267 0.0
C361 C 0.48758 0.94209 0.51347 0.0
C362 C 0.48082 0.92134 0.4955 0.0
C363 C 0.49184 0.92959 0.5049 0.0
C364 C 0.46552 0.92601 0.49476 0.0
C365 C 0.46131 0.93851 0.50325 0.0
U366 U 0.47574 0.97497 0.54646 0.0
O367 O 0.4717 0.99935 0.54677 0.0
O368 O 0.45722 0.98382 0.55991 0.0
C369 C 0.45956 0.99771 0.55513 0.0
C370 C 0.4673 0.95971 0.52146 0.0
C371 C 0.44561 0.0055 0.54998 0.0
C372 C 0.42853 0.0152 0.53011 0.0
C373 C 0.44162 0.0073 0.53452 0.0
C374 C 0.42316 0.0193 0.55651 0.0
C375 C 0.41915 0.02132 0.54107 0.0
C376 C 0.43624 0.0115 0.5609 0.0
C377 C 0.5086 0.97239 0.57741 0.0
C378 C 0.51439 0.96914 0.60448 0.0
C379 C 0.52999 0.98688 0.59035 0.0
C380 C 0.52099 0.9832 0.57715 0.0
C381 C 0.52694 0.97977 0.60415 0.0
C382 C 0.50538 0.96545 0.59127 0.0
C383 C 0.49999 0.96741 0.56312 0.0
O384 O 0.46169 0.95663 0.53473 0.0
O385 O 0.47652 0.97194 0.52171 0.0
O386 O 0.50083 0.97655 0.5515 0.0
O387 O 0.4861 0.96111 0.56443 0.0
H388 H 0.4962 0.94818 0.52074 0.0
H389 H 0.50368 0.92621 0.50584 0.0
H390 H 0.4568 0.92007 0.4875 0.0
H391 H 0.44945 0.94185 0.50243 0.0
H392 H 0.4257 0.01642 0.51812 0.0
H393 H 0.44864 1.00269 0.52587 0.0
H394 H 0.41637 0.02404 0.56527 0.0
H395 H 0.43913 0.01028 0.57288 0.0
H396 H 0.51181 0.96329 0.61484 0.0
H397 H 0.53943 0.99526 0.5897 0.0
H398 H 0.52394 0.98867 0.56668 0.0
H399 H 0.49611 0.95689 0.59185 0.0
C400 C 0.21603 0.27462 0.68711 0.0
C401 C 0.22423 0.28092 0.67515 0.0
C402 C 0.22471 0.25604 0.66285 0.0
C403 C 0.22848 0.27172 0.6631 0.0
C404 C 0.2167 0.24981 0.675 0.0
C405 C 0.2124 0.25901 0.68698 0.0
U406 U 0.21937 0.30963 0.7138 0.0
O407 O 0.20087 0.32335 0.72229 0.0
O408 O 0.2157 0.31115 0.73826 0.0
C409 C 0.20347 0.31928 0.73641 0.0
C410 C 0.21084 0.28405 0.69967 0.0
C411 C 0.18977 0.31428 0.74471 0.0
C412 C 0.17348 0.29449 0.75564 0.0
C413 C 0.18594 0.29887 0.74683 0.0
C414 C 0.16821 0.32083 0.75986 0.0
C415 C 0.16456 0.30543 0.7624 0.0
C416 C 0.1807 0.32519 0.75114 0.0
C417 C 0.2529 0.3397 0.71044 0.0
C418 C 0.27439 0.35242 0.72497 0.0
C419 C 0.25965 0.36641 0.70647 0.0
C420 C 0.25029 0.35339 0.70301 0.0
C421 C 0.27197 0.36603 0.71734 0.0
C422 C 0.26502 0.33942 0.72154 0.0
C423 C 0.24395 0.32553 0.70572 0.0
O424 O 0.21987 0.28477 0.71203 0.0
O425 O 0.2054 0.29719 0.69592 0.0
O426 O 0.23011 0.32698 0.69938 0.0
O427 O 0.24452 0.31415 0.71514 0.0
H428 H 0.22724 0.29294 0.67508 0.0
H429 H 0.2348 0.27686 0.65403 0.0
H430 H 0.21344 0.23784 0.6751 0.0
H431 H 0.20606 0.25394 0.69609 0.0
H432 H 0.17086 0.28253 0.7572 0.0
H433 H 0.19271 0.29023 0.74188 0.0
H434 H 0.16171 0.32956 0.76502 0.0
H435 H 0.18348 0.33714 0.74965 0.0
H436 H 0.28366 0.35175 0.73352 0.0
H437 H 0.25758 0.37664 0.70024 0.0
H438 H 0.24122 0.35397 0.69423 0.0
H439 H 0.2675 0.32907 0.7274 0.0
C440 C 0.79059 0.23815 0.68594 0.0
C441 C 0.79613 0.25313 0.68885 0.0
C442 C 0.78984 0.25973 0.66261 0.0
C443 C 0.79568 0.26385 0.67729 0.0
C444 C 0.78443 0.24468 0.65978 0.0
C445 C 0.78478 0.23402 0.67133 0.0
U446 U 0.808 0.21994 0.72175 0.0
O447 O 0.79639 0.20983 0.74111 0.0
O448 O 0.81018 0.19577 0.72672 0.0
C449 C 0.80056 0.1961 0.73781 0.0
C450 C 0.79064 0.22661 0.69786 0.0
C451 C 0.78818 0.1841 0.73728 0.0
C452 C 0.76197 0.17484 0.73026 0.0
C453 C 0.77357 0.18641 0.73047 0.0
C454 C 0.77955 0.15846 0.74341 0.0
C455 C 0.76483 0.16072 0.73672 0.0
C456 C 0.79108 0.17005 0.74369 0.0
C457 C 0.84541 0.23702 0.74103 0.0
C458 C 0.85817 0.22596 0.76302 0.0
C459 C 0.86899 0.24899 0.75234 0.0
C460 C 0.85691 0.24867 0.74131 0.0
C461 C 0.86981 0.23763 0.76333 0.0
C462 C 0.84608 0.22566 0.75196 0.0
C463 C 0.83292 0.23688 0.7292 0.0
O464 O 0.80174 0.21701 0.69739 0.0
O465 O 0.78808 0.23132 0.71169 0.0
O466 O 0.81915 0.23972 0.73388 0.0
O467 O 0.83271 0.2256 0.71933 0.0
H468 H 0.80078 0.25655 0.70003 0.0
H469 H 0.80007 0.27532 0.6798 0.0
H470 H 0.77966 0.24117 0.64867 0.0
H471 H 0.78044 0.22253 0.66887 0.0
H472 H 0.75082 0.17689 0.72488 0.0
H473 H 0.77113 0.19716 0.72533 0.0
H474 H 0.78209 0.1478 0.74865 0.0
H475 H 0.80229 0.16804 0.749 0.0
H476 H 0.85851 0.21694 0.7712 0.0
H477 H 0.87759 0.25826 0.75237 0.0
H478 H 0.85654 0.25756 0.73298 0.0
H479 H 0.83729 0.21654 0.75187 0.0
C480 C 0.51531 0.54485 0.56334 0.0
C481 C 0.52243 0.54341 0.57784 0.0
C482 C 0.49737 0.53801 0.58868 0.0
C483 C 0.51355 0.54003 0.59037 0.0
C484 C 0.49036 0.53913 0.57408 0.0
C485 C 0.49922 0.54256 0.5616 0.0
U486 U 0.54768 0.54093 0.53482 0.0
O487 O 0.5464 0.54419 0.51007 0.0
O488 O 0.56233 0.55862 0.52457 0.0
C489 C 0.55602 0.55613 0.51089 0.0
C490 C 0.52414 0.54955 0.55005 0.0
C491 C 0.55113 0.56952 0.50235 0.0
C492 C 0.5459 0.59631 0.50093 0.0
C493 C 0.54962 0.58365 0.5095 0.0
C494 C 0.54473 0.58086 0.47803 0.0
C495 C 0.54356 0.59512 0.48506 0.0
C496 C 0.54852 0.56824 0.48657 0.0
C497 C 0.57555 0.50812 0.53799 0.0
C498 C 0.60287 0.50559 0.5335 0.0
C499 C 0.5851 0.48375 0.53061 0.0
C500 C 0.57293 0.49267 0.53448 0.0
C501 C 0.60029 0.49002 0.53029 0.0
C502 C 0.59064 0.51455 0.53732 0.0
C503 C 0.56254 0.51694 0.54308 0.0
O504 O 0.53838 0.555 0.5527 0.0
O505 O 0.52262 0.54054 0.53806 0.0
O506 O 0.54996 0.51622 0.5342 0.0
O507 O 0.5659 0.53059 0.54875 0.0
H508 H 0.53482 0.54514 0.57958 0.0
H509 H 0.51935 0.53943 0.60144 0.0
H510 H 0.47798 0.53738 0.57227 0.0
H511 H 0.49344 0.54362 0.55055 0.0
H512 H 0.54527 0.60712 0.50674 0.0
H513 H 0.55154 0.585 0.52166 0.0
H514 H 0.54273 0.57941 0.46588 0.0
H515 H 0.54958 0.55747 0.4808 0.0
H516 H 0.61441 0.5108 0.5335 0.0
H517 H 0.58258 0.47189 0.52792 0.0
H518 H 0.56143 0.48742 0.53493 0.0
H519 H 0.59308 0.52643 0.53999 0.0
C520 C 0.51678 0.473 0.94214 0.0
C521 C 0.51806 0.48774 0.93645 0.0
C522 C 0.49913 0.48082 0.91593 0.0
C523 C 0.50927 0.49163 0.92347 0.0
C524 C 0.49801 0.46607 0.92171 0.0
C525 C 0.50674 0.46222 0.93466 0.0
U526 U 0.55027 0.47719 0.97257 0.0
O527 O 0.54928 0.47379 0.99726 0.0
O528 O 0.56348 0.45945 0.98357 0.0
C529 C 0.55775 0.46185 0.99691 0.0
C530 C 0.52542 0.46855 0.95602 0.0
C531 C 0.55192 0.44833 0.00505 0.0
C532 C 0.54556 0.42124 0.00608 0.0
C533 C 0.54972 0.43409 0.9978 0.0
C534 C 0.54515 0.43669 0.0289 0.0
C535 C 0.54342 0.42235 0.02178 0.0
C536 C 0.54942 0.44951 0.02064 0.0
C537 C 0.58211 0.50917 0.97058 0.0
C538 C 0.60927 0.51631 0.96743 0.0
C539 C 0.59537 0.52843 0.98706 0.0
C540 C 0.58203 0.51966 0.98271 0.0
C541 C 0.60912 0.527 0.97937 0.0
C542 C 0.59592 0.50757 0.96305 0.0
C543 C 0.56771 0.50075 0.96495 0.0
O544 O 0.53904 0.46309 0.95409 0.0
O545 O 0.52524 0.47787 0.96774 0.0
O546 O 0.55546 0.50179 0.97312 0.0
O547 O 0.56926 0.48701 0.9595 0.0
H548 H 0.5258 0.49622 0.94206 0.0
H549 H 0.51053 0.50305 0.91925 0.0
H550 H 0.49016 0.45752 0.91638 0.0
H551 H 0.50553 0.45081 0.93892 0.0
H552 H 0.54412 0.4104 1.00021 0.0
H553 H 0.55148 0.43278 0.98578 0.0
H554 H 0.54373 0.43793 0.04099 0.0
H555 H 0.55112 0.46033 0.02652 0.0
H556 H 0.61959 0.51504 0.96112 0.0
H557 H 0.59487 0.53641 0.99642 0.0
H558 H 0.5716 0.5213 0.98873 0.0
H559 H 0.59632 0.49977 0.95352 0.0
C560 C 0.70992 0.24791 0.31683 0.0
C561 C 0.71989 0.24253 0.32828 0.0
C562 C 0.71836 0.26616 0.34269 0.0
C563 C 0.72407 0.25158 0.3411 0.0
C564 C 0.70851 0.27149 0.33105 0.0
C565 C 0.70434 0.26245 0.31828 0.0
U566 U 0.71287 0.21394 0.28923 0.0
O567 O 0.69396 0.19979 0.27815 0.0
O568 O 0.70968 0.21335 0.26436 0.0
C569 C 0.6968 0.20491 0.26458 0.0
C570 C 0.70495 0.23857 0.3034 0.0
C571 C 0.68332 0.2101 0.25541 0.0
C572 C 0.67204 0.22695 0.23675 0.0
C573 C 0.68462 0.22278 0.24599 0.0
C574 C 0.6565 0.20605 0.24627 0.0
C575 C 0.65786 0.21857 0.23668 0.0
C576 C 0.6691 0.20182 0.25546 0.0
C577 C 0.74481 0.1853 0.29527 0.0
C578 C 0.7554 0.16883 0.27637 0.0
C579 C 0.76085 0.16467 0.3031 0.0
C580 C 0.75195 0.1769 0.30674 0.0
C581 C 0.76287 0.16059 0.28786 0.0
C582 C 0.74642 0.18104 0.28004 0.0
C583 C 0.73645 0.19882 0.29949 0.0
O584 O 0.71443 0.23875 0.29218 0.0
O585 O 0.69898 0.22499 0.30607 0.0
O586 O 0.72233 0.19636 0.30403 0.0
O587 O 0.73781 0.21048 0.29048 0.0
H588 H 0.72431 0.23131 0.32735 0.0
H589 H 0.73155 0.24704 0.34989 0.0
H590 H 0.7041 0.28273 0.33174 0.0
H591 H 0.69668 0.26681 0.30953 0.0
H592 H 0.67344 0.23675 0.22961 0.0
H593 H 0.69539 0.22942 0.2456 0.0
H594 H 0.64582 0.19922 0.24635 0.0
H595 H 0.66778 0.1919 0.26244 0.0
H596 H 0.75654 0.16588 0.26453 0.0
H597 H 0.76656 0.15871 0.31223 0.0
H598 H 0.7509 0.18002 0.31856 0.0
H599 H 0.74094 0.18729 0.27098 0.0
C600 C 0.46453 0.06567 0.99601 0.0
C601 C 0.47946 0.07233 0.9952 0.0
C602 C 0.47301 0.09248 0.01273 0.0
C603 C 0.48368 0.08563 1.00353 0.0
C604 C 0.45806 0.08571 0.01339 0.0
C605 C 0.45389 0.07247 0.00512 0.0
U606 U 0.46833 0.03456 0.96521 0.0
O607 O 0.46403 0.00996 0.96717 0.0
O608 O 0.4498 0.02274 0.95121 0.0
C609 C 0.45168 0.00974 0.95796 0.0
C610 C 0.45971 0.05152 0.98777 0.0
C611 C 0.43756 1.00168 0.96334 0.0
C612 C 0.40963 0.99672 0.96174 0.0
C613 C 0.42283 0.00486 0.95721 0.0
C614 C 0.42552 0.98201 0.97863 0.0
C615 C 0.4108 0.98515 0.97246 0.0
C616 C 0.43872 0.99012 0.97408 0.0
C617 C 0.50202 0.03638 0.93767 0.0
C618 C 0.50539 0.03186 0.91068 0.0
C619 C 0.52646 0.02791 0.92883 0.0
C620 C 0.51724 0.03214 0.94066 0.0
C621 C 0.52077 0.02795 0.91365 0.0
C622 C 0.49613 0.03605 0.92255 0.0
C623 C 0.49306 0.04215 0.95033 0.0
O624 O 0.45455 0.05296 0.97366 0.0
O625 O 0.46878 0.04012 0.98961 0.0
O626 O 0.49351 0.03435 0.96292 0.0
O627 O 0.47931 0.04714 0.94688 0.0
H628 H 0.48784 0.06725 0.98819 0.0
H629 H 0.49524 0.09061 1.00266 0.0
H630 H 0.44962 0.09049 0.02052 0.0
H631 H 0.44233 0.06744 0.00594 0.0
H632 H 0.39848 0.99953 0.95685 0.0
H633 H 0.42149 0.01356 0.94879 0.0
H634 H 0.4269 0.97301 0.98671 0.0
H635 H 0.44987 0.98717 0.97885 0.0
H636 H 0.50064 0.03217 0.89914 0.0
H637 H 0.53813 0.02471 0.93162 0.0
H638 H 0.52213 0.03236 0.95217 0.0
H639 H 0.48448 0.03934 0.9198 0.0
Mg640 Mg 0.24883 0.86876 0.01106 0.0
O641 O 0.27179 0.88257 0.00747 0.0
O642 O 0.29014 0.86564 0.00716 0.0
Mg643 Mg 0.27976 0.84184 0.01086 0.0
C644 C 0.2859 0.87926 0.00625 0.0
C645 C 0.21959 0.88593 0.00555 0.0
O646 O 0.21486 0.87178 0.00749 0.0
O647 O 0.24813 0.85994 0.98628 0.0
O648 O 0.26635 0.84287 0.9879 0.0
O649 O 0.25256 0.87023 0.03646 0.0
O650 O 0.26071 0.85183 0.02227 0.0
C651 C 0.25581 0.84952 0.98034 0.0
C652 C 0.25985 0.85783 0.03555 0.0
O653 O 0.23405 0.88904 0.00549 0.0
Mg654 Mg 0.14709 0.50895 0.26821 0.0
O655 O 0.13201 0.50568 0.24585 0.0
O656 O 0.14853 0.50627 0.22708 0.0
Mg657 Mg 0.17333 0.50953 0.23669 0.0
C658 C 0.13479 0.50508 0.23171 0.0
C659 C 0.12903 0.50887 0.29645 0.0
O660 O 0.14237 0.5161 0.29964 0.0
O661 O 0.15477 0.48435 0.26685 0.0
O662 O 0.17133 0.48632 0.24813 0.0
O663 O 0.14687 0.53426 0.26656 0.0
O664 O 0.16459 0.52055 0.25675 0.0
C665 C 0.16461 0.47861 0.25831 0.0
C666 C 0.15921 0.53369 0.25889 0.0
O667 O 0.12661 0.5032 0.28317 0.0
Mg668 Mg 0.77386 0.64712 0.01443 0.0
O669 O 0.75089 0.63261 0.01042 0.0
O670 O 0.73223 0.64919 0.00872 0.0
Mg671 Mg 0.74236 0.67339 0.01118 0.0
C672 C 0.73662 0.6356 0.00864 0.0
C673 C 0.80016 0.62668 0.02058 0.0
O674 O 0.80144 0.63768 0.03079 0.0
O675 O 0.7737 0.654 0.98926 0.0
O676 O 0.75469 0.67031 0.98889 0.0
O677 O 0.7709 0.64776 0.03971 0.0
O678 O 0.76213 0.66484 0.02407 0.0
C679 C 0.76524 0.66341 0.9823 0.0
C680 C 0.7635 0.66 0.03771 0.0
O681 O 0.78893 0.62668 0.0108 0.0
Mg682 Mg 0.89718 0.02581 0.24851 0.0
O683 O 0.88282 1.0032 0.24402 0.0
O684 O 0.89993 0.98597 0.23867 0.0
Mg685 Mg 0.92439 0.99674 0.23952 0.0
C686 C 0.88606 0.98964 0.24053 0.0
C687 C 0.8752 0.05097 0.25227 0.0
O688 O 0.88554 0.0557 0.24274 0.0
O689 O 0.90574 0.0177 0.27207 0.0
O690 O 0.92278 1.00093 0.26517 0.0
O691 O 0.89609 0.03111 0.22361 0.0
O692 O 0.91469 0.01866 0.23473 0.0
C693 C 0.91602 0.00818 0.2754 0.0
C694 C 0.90873 0.02405 0.22247 0.0
O695 O 0.87634 0.03778 0.25774 0.0
Mg696 Mg 0.27358 0.14819 0.51333 0.0
O697 O 0.25065 0.13369 0.50941 0.0
O698 O 0.23196 0.1502 0.50726 0.0
Mg699 Mg 0.24212 0.17443 0.50973 0.0
C700 C 0.23639 0.13663 0.5074 0.0
C701 C 0.30052 0.12841 0.51879 0.0
O702 O 0.30268 0.14029 0.52787 0.0
O703 O 0.27344 0.15483 0.48811 0.0
O704 O 0.25467 0.17138 0.48753 0.0
O705 O 0.27066 0.149 0.53857 0.0
O706 O 0.26185 0.16598 0.52282 0.0
C707 C 0.26519 0.16435 0.48105 0.0
C708 C 0.26324 0.16122 0.5365 0.0
O709 O 0.28852 0.12764 0.50993 0.0
Mg710 Mg 0.39695 0.526 0.74887 0.0
O711 O 0.38227 0.50363 0.74412 0.0
O712 O 0.39916 0.48612 0.73896 0.0
Mg713 Mg 0.42373 0.49655 0.73981 0.0
C714 C 0.38534 0.48999 0.74072 0.0
C715 C 0.37546 0.55155 0.75289 0.0
O716 O 0.38606 0.55632 0.74364 0.0
O717 O 0.40525 0.51758 0.77243 0.0
O718 O 0.42208 0.50066 0.76543 0.0
O719 O 0.39617 0.53162 0.72403 0.0
O720 O 0.41438 0.51864 0.73511 0.0
C721 C 0.41538 0.50792 0.7757 0.0
C722 C 0.40865 0.52431 0.72288 0.0
O723 O 0.37626 0.53821 0.75807 0.0
Mg724 Mg 0.75038 0.36852 0.51192 0.0
O725 O 0.77295 0.38322 0.50896 0.0
O726 O 0.79186 0.36688 0.50867 0.0
Mg727 Mg 0.78226 0.34267 0.51137 0.0
C728 C 0.78723 0.38036 0.508 0.0
C729 C 0.72208 0.38641 0.51347 0.0
O730 O 0.71985 0.37394 0.52119 0.0
O731 O 0.75017 0.36035 0.48694 0.0
O732 O 0.7691 0.34401 0.48832 0.0
O733 O 0.75372 0.36923 0.53741 0.0
O734 O 0.76267 0.35165 0.52275 0.0
C735 C 0.75836 0.35045 0.48083 0.0
C736 C 0.76137 0.35708 0.5362 0.0
O737 O 0.7348 0.38837 0.50691 0.0
Mg738 Mg 0.64742 0.009 0.76799 0.0
O739 O 0.63298 0.00537 0.74522 0.0
O740 O 0.6503 0.00517 0.72718 0.0
Mg741 Mg 0.67481 0.00865 0.73744 0.0
C742 C 0.63635 0.00426 0.73125 0.0
C743 C 0.62871 0.01009 0.79562 0.0
O744 O 0.6419 0.01769 0.79858 0.0
O745 O 0.65498 0.98429 0.76746 0.0
O746 O 0.6722 0.98576 0.7493 0.0
O747 O 0.64753 0.03432 0.76567 0.0
O748 O 0.66539 0.02013 0.75685 0.0
C749 C 0.66507 0.9783 0.75938 0.0
C750 C 0.66012 0.03339 0.75844 0.0
O751 O 0.62654 1.00375 0.78261 0.0
Mg752 Mg 0.02678 0.25782 0.89401 0.0
O753 O 1.00425 0.25308 0.87932 0.0
O754 O 0.98605 0.24593 0.89526 0.0
Mg755 Mg 0.99641 0.24585 0.91954 0.0
C756 C 0.99032 0.2488 0.88189 0.0
C757 C 0.05295 0.26411 0.87336 0.0
O758 O 0.05782 0.25471 0.88374 0.0
O759 O 0.01784 0.28042 0.90268 0.0
O760 O 1.00048 0.2717 0.91884 0.0
O761 O 0.03268 0.23336 0.89243 0.0
O762 O 0.0192 0.24275 0.91059 0.0
C763 C 0.00787 0.28267 0.91267 0.0
C764 C 0.02512 0.23115 0.90459 0.0
O765 O 0.03927 0.26863 0.87405 0.0
Mg766 Mg 0.52807 0.76044 0.39284 0.0
O767 O 0.50546 0.75598 0.37811 0.0
O768 O 0.48741 0.74842 0.39406 0.0
Mg769 Mg 0.49783 0.74775 0.41825 0.0
C770 C 0.49156 0.7516 0.38071 0.0
C771 C 0.55427 0.76708 0.37246 0.0
O772 O 0.559 0.75752 0.38274 0.0
O773 O 0.51921 0.78285 0.40217 0.0
O774 O 0.50186 0.77361 0.41809 0.0
O775 O 0.534 0.73607 0.39061 0.0
O776 O 0.52057 0.7449 0.40909 0.0
C777 C 0.50921 0.78478 0.4122 0.0
C778 C 0.5265 0.73349 0.40273 0.0
O779 O 0.54062 0.77168 0.37312 0.0
Mg780 Mg 0.9981 0.75549 0.616 0.0
O781 O 0.02081 0.75112 0.62989 0.0
O782 O 0.03785 0.74515 0.61273 0.0
Mg783 Mg 0.02671 0.74505 0.58878 0.0
C784 C 0.03436 0.74746 0.62647 0.0
C785 C 0.97206 0.76358 0.63539 0.0
O786 O 0.96602 0.75688 0.62299 0.0
O787 O 0.00812 0.77856 0.60804 0.0
O788 O 0.02416 0.77077 0.59069 0.0
O789 O 0.99058 0.73087 0.61666 0.0
O790 O 1.00418 0.74087 0.59853 0.0
C791 C 0.01771 0.78137 0.59769 0.0
C792 C 0.99769 0.72901 0.60422 0.0
O793 O 0.98668 0.76564 0.63663 0.0
Mg794 Mg 0.49854 0.25474 0.1158 0.0
O795 O 0.52117 0.25056 0.12987 0.0
O796 O 0.53857 0.24516 0.11286 0.0
Mg797 Mg 0.52763 0.24494 0.08882 0.0
C798 C 0.53486 0.24726 0.12656 0.0
C799 C 0.4722 0.26202 0.13521 0.0
O800 O 0.46636 0.25492 0.12294 0.0
O801 O 0.50832 0.278 0.10808 0.0
O802 O 0.52465 0.27057 0.09083 0.0
O803 O 0.49137 0.23001 0.11623 0.0
O804 O 0.50504 0.24037 0.09832 0.0
C805 C 0.51798 0.28101 0.09783 0.0
C806 C 0.49865 0.22837 0.10386 0.0
O807 O 0.48676 0.26462 0.13637 0.0
C808 C 0.23315 0.77405 0.86474 0.0
C809 C 0.2194 0.77559 0.85597 0.0
C810 C 0.23694 0.78372 0.87717 0.0
C811 C 0.21983 0.80886 0.90491 0.0
H812 H 0.26214 0.82411 0.91209 0.0
C813 C 0.23837 0.84794 0.95661 0.0
C814 C 0.25204 0.84412 0.96451 0.0
C815 C 0.23429 0.84139 0.94233 0.0
C816 C 0.25028 0.81988 0.91032 0.0
H817 H 0.19899 0.7888 0.85338 0.0
H818 H 0.20552 0.80547 0.87518 0.0
H819 H 0.25516 0.80879 0.88945 0.0
H820 H 0.27242 0.83086 0.96321 0.0
H821 H 0.2653 0.8195 0.93864 0.0
H822 H 0.21503 0.81964 0.92598 0.0
C823 C 0.2133 0.79668 0.87249 0.0
C824 C 0.24629 0.81109 0.89733 0.0
C825 C 0.20954 0.78707 0.86 0.0
C826 C 0.26177 0.83407 0.95753 0.0
C827 C 0.25773 0.8276 0.94332 0.0
C828 C 0.22384 0.81762 0.91796 0.0
C829 C 0.22706 0.79514 0.88121 0.0
C830 C 0.23106 0.80527 0.89458 0.0
C831 C 0.24385 0.83098 0.93559 0.0
C832 C 0.23919 0.82303 0.92096 0.0
H833 H 0.2409 0.76521 0.86218 0.0
H834 H 0.24751 0.78206 0.88379 0.0
H835 H 0.20802 0.80446 0.90319 0.0
H836 H 0.2306 0.85563 0.96164 0.0
H837 H 0.22358 0.84439 0.93661 0.0
C838 C 0.04698 0.52855 0.40248 0.0
C839 C 0.03113 0.5244 0.40129 0.0
C840 C 0.05669 0.5252 0.39078 0.0
C841 C 0.0571 0.51634 0.34979 0.0
H842 H 0.09798 0.50288 0.36058 0.0
C843 C 0.10193 0.50247 0.30464 0.0
C844 C 0.11708 0.50824 0.30804 0.0
C845 C 0.0907 0.50277 0.31564 0.0
C846 C 0.08664 0.50672 0.35735 0.0
H847 H 0.0131 0.51347 0.38664 0.0
H848 H 0.03009 0.50772 0.3661 0.0
H849 H 0.07978 0.50677 0.38036 0.0
H850 H 0.13227 0.51872 0.32577 0.0
H851 H 0.11288 0.51932 0.34468 0.0
H852 H 0.06414 0.51655 0.32676 0.0
C853 C 0.03496 0.51365 0.37614 0.0
C854 C 0.0762 0.50896 0.36871 0.0
C855 C 0.02522 0.51696 0.38792 0.0
C856 C 0.12076 0.51411 0.32271 0.0
C857 C 0.10962 0.51437 0.33365 0.0
C858 C 0.0676 0.51413 0.33839 0.0
C859 C 0.05084 0.51764 0.37748 0.0
C860 C 0.0614 0.51409 0.36513 0.0
C861 C 0.09442 0.50876 0.33029 0.0
C862 C 0.08262 0.50959 0.34207 0.0
H863 H 0.05192 0.53462 0.41241 0.0
H864 H 0.06879 0.52875 0.39207 0.0
H865 H 0.04582 0.52037 0.34664 0.0
H866 H 0.0987 0.49789 0.29344 0.0
H867 H 0.07912 0.49827 0.3127 0.0
C868 C 0.77112 0.73445 0.86554 0.0
C869 C 0.78564 0.74093 0.86215 0.0
C870 C 0.76967 0.7241 0.87727 0.0
C871 C 0.7905 0.69809 0.90247 0.0
H872 H 0.75774 0.70641 0.92947 0.0
C873 C 0.78325 0.66959 0.96142 0.0
C874 C 0.76815 0.66764 0.96646 0.0
C875 C 0.78595 0.67672 0.94758 0.0
C876 C 0.76678 0.70368 0.92194 0.0
H877 H 0.81016 0.74101 0.86809 0.0
H878 H 0.80761 0.72279 0.88862 0.0
H879 H 0.76149 0.72213 0.90753 0.0
H880 H 0.74399 0.67033 0.96041 0.0
H881 H 0.74856 0.68202 0.93614 0.0
H882 H 0.79573 0.67954 0.917 0.0
C883 C 0.79735 0.72577 0.88212 0.0
C884 C 0.76896 0.71278 0.90934 0.0
C885 C 0.7988 0.73621 0.87035 0.0
C886 C 0.75577 0.67186 0.95691 0.0
C887 C 0.75843 0.67872 0.94305 0.0
C888 C 0.78824 0.68885 0.91509 0.0
C889 C 0.78271 0.71988 0.88593 0.0
C890 C 0.78076 0.71007 0.89938 0.0
C891 C 0.77356 0.68186 0.93848 0.0
C892 C 0.77624 0.69146 0.92493 0.0
H893 H 0.76078 0.73751 0.85921 0.0
H894 H 0.75826 0.71952 0.87968 0.0
H895 H 0.79968 0.69569 0.89498 0.0
H896 H 0.79302 0.66653 0.96861 0.0
H897 H 0.79776 0.67895 0.94446 0.0
C898 C 0.97208 0.98154 0.40254 0.0
C899 C 0.98755 0.98708 0.40398 0.0
C900 C 0.96276 0.98484 0.3898 0.0
C901 C 0.95922 0.01056 0.35699 0.0
H902 H 0.93456 0.97691 0.33868 0.0
C903 C 0.91933 0.01685 0.3028 0.0
C904 C 0.92108 0.00579 0.29147 0.0
C905 C 0.92586 0.01512 0.31749 0.0
C906 C 0.94135 0.98644 0.34366 0.0
H907 H 0.00517 1.00077 0.39316 0.0
H908 H 0.98888 0.00657 0.37091 0.0
H909 H 0.94941 0.97329 0.3623 0.0
H910 H 0.9305 0.98396 0.28691 0.0
H911 H 0.94164 0.98091 0.31235 0.0
H912 H 0.95143 0.02357 0.33802 0.0
C913 C 0.98394 0.99975 0.37975 0.0
C914 C 0.94978 0.9844 0.35729 0.0
C915 C 0.99329 0.99642 0.39251 0.0
C916 C 0.92896 0.99273 0.29532 0.0
C917 C 0.93529 0.99093 0.30997 0.0
C918 C 0.95069 0.01262 0.34337 0.0
C919 C 0.96861 0.99382 0.37813 0.0
C920 C 0.95898 0.99637 0.36405 0.0
C921 C 0.93405 1.00218 0.32118 0.0
C922 C 0.94185 1.00051 0.33642 0.0
H923 H 0.96714 0.97461 0.41129 0.0
H924 H 0.95094 0.98032 0.38907 0.0
H925 H 0.96606 0.02006 0.36196 0.0
H926 H 0.9134 0.02708 0.30019 0.0
H927 H 0.9246 0.02394 0.32592 0.0
C928 C 0.23424 0.23169 0.65238 0.0
C929 C 0.22881 0.24624 0.64987 0.0
C930 C 0.23761 0.22229 0.64018 0.0
C931 C 0.246 0.223 0.59923 0.0
H932 H 0.23516 0.18002 0.60065 0.0
C933 C 0.25069 0.18388 0.54696 0.0
C934 C 0.25728 0.16984 0.54939 0.0
C935 C 0.24653 0.19281 0.5592 0.0
C936 C 0.23839 0.19197 0.60013 0.0
H937 H 0.2226 0.26223 0.63248 0.0
H938 H 0.22839 0.24585 0.61122 0.0
H939 H 0.22961 0.19647 0.62198 0.0
H940 H 0.26426 0.15399 0.56664 0.0
H941 H 0.25701 0.16959 0.58802 0.0
H942 H 0.25474 0.21852 0.57738 0.0
C943 C 0.2303 0.24177 0.62264 0.0
C944 C 0.23523 0.20142 0.61238 0.0
C945 C 0.22697 0.25119 0.63485 0.0
C946 C 0.25917 0.16473 0.56435 0.0
C947 C 0.25497 0.17366 0.57662 0.0
C948 C 0.24911 0.21357 0.58698 0.0
C949 C 0.23561 0.22717 0.62513 0.0
C950 C 0.239 0.21707 0.6121 0.0
C951 C 0.24884 0.18794 0.5742 0.0
C952 C 0.24534 0.19794 0.58725 0.0
H953 H 0.23601 0.22759 0.66381 0.0
H954 H 0.24194 0.21124 0.64256 0.0
H955 H 0.24932 0.23493 0.5987 0.0
H956 H 0.24909 0.18821 0.53561 0.0
H957 H 0.2416 0.20362 0.5569 0.0
C958 C 0.49289 0.52586 0.61397 0.0
C959 C 0.48778 0.53515 0.60211 0.0
C960 C 0.48397 0.52345 0.62665 0.0
C961 C 0.44418 0.52575 0.64001 0.0
H962 H 0.46456 0.52756 0.68 0.0
C963 C 0.41072 0.53038 0.69528 0.0
C964 C 0.41645 0.52311 0.70828 0.0
C965 C 0.41896 0.53059 0.68196 0.0
C966 C 0.45867 0.52677 0.66892 0.0
H967 H 0.46927 0.54932 0.59452 0.0
H968 H 0.45373 0.545 0.61652 0.0
H969 H 0.47986 0.53028 0.65761 0.0
H970 H 0.43516 0.50995 0.71727 0.0
H971 H 0.44927 0.50999 0.69403 0.0
H972 H 0.42298 0.52228 0.65133 0.0
C973 C 0.46454 0.53941 0.61591 0.0
C974 C 0.46747 0.52836 0.65606 0.0
C975 C 0.47347 0.54187 0.60326 0.0
C976 C 0.43036 0.51564 0.70749 0.0
C977 C 0.43856 0.5158 0.69418 0.0
C978 C 0.43537 0.5241 0.65288 0.0
C979 C 0.46969 0.53022 0.62779 0.0
C980 C 0.46034 0.52797 0.64145 0.0
C981 C 0.43313 0.52351 0.68131 0.0
C982 C 0.44249 0.52467 0.66752 0.0
H983 H 0.50372 0.52031 0.61339 0.0
H984 H 0.48819 0.51615 0.63551 0.0
H985 H 0.43832 0.52518 0.62891 0.0
H986 H 0.40008 0.53631 0.69551 0.0
H987 H 0.41447 0.53678 0.67236 0.0
C988 C 0.79325 0.26703 0.63551 0.0
C989 C 0.78921 0.27101 0.65025 0.0
C990 C 0.79178 0.27723 0.62363 0.0
C991 C 0.78695 0.31778 0.61475 0.0
H992 H 0.77019 0.30105 0.57634 0.0
C993 C 0.7648 0.35428 0.56447 0.0
C994 C 0.76752 0.34913 0.54971 0.0
C995 C 0.76886 0.34563 0.57711 0.0
C996 C 0.77509 0.30591 0.58691 0.0
H997 H 0.78074 0.28901 0.6641 0.0
H998 H 0.77804 0.30682 0.64332 0.0
H999 H 0.7745 0.28437 0.5976 0.0
H1000 H 0.77726 0.33114 0.53676 0.0
H1001 H 0.78456 0.3163 0.55868 0.0
H1002 H 0.78729 0.3394 0.60397 0.0
C1003 C 0.78254 0.29585 0.64098 0.0
C1004 C 0.77757 0.29632 0.59913 0.0
C1005 C 0.78407 0.28563 0.65291 0.0
C1006 C 0.77497 0.33548 0.54793 0.0
C1007 C 0.77903 0.32687 0.56051 0.0
C1008 C 0.78442 0.32741 0.60248 0.0
C1009 C 0.78616 0.29169 0.62615 0.0
C1010 C 0.7836 0.30209 0.6132 0.0
C1011 C 0.77569 0.33163 0.57523 0.0
C1012 C 0.77853 0.32157 0.58838 0.0
H1013 H 0.79754 0.25597 0.63313 0.0
H1014 H 0.79502 0.27375 0.61244 0.0
H1015 H 0.79172 0.32259 0.62538 0.0
H1016 H 0.75904 0.36473 0.56624 0.0
H1017 H 0.76605 0.3496 0.58828 0.0
C1018 C 0.53107 0.98413 0.63246 0.0
C1019 C 0.53718 0.98301 0.61797 0.0
C1020 C 0.54081 0.98703 0.64537 0.0
C1021 C 0.58019 1.00233 0.65693 0.0
H1022 H 0.57381 0.98053 0.69418 0.0
C1023 C 0.6278 1.00076 0.70388 0.0
C1024 C 0.62389 1.00202 0.71916 0.0
C1025 C 0.61639 0.99898 0.69229 0.0
C1026 C 0.57563 0.98687 0.68394 0.0
H1027 H 0.55844 0.98365 0.60587 0.0
H1028 H 0.57532 0.98871 0.62825 0.0
H1029 H 0.55546 0.97646 0.67251 0.0
H1030 H 0.6047 1.00216 0.73412 0.0
H1031 H 0.58465 0.99908 0.71371 0.0
H1032 H 0.60039 0.01262 0.66821 0.0
C1033 C 0.56298 0.98767 0.62963 0.0
C1034 C 0.56511 0.98453 0.6715 0.0
C1035 C 0.55327 0.98478 0.61677 0.0
C1036 C 0.60815 1.00125 0.7225 0.0
C1037 C 0.59666 0.99942 0.71081 0.0
C1038 C 0.59066 0.00465 0.66931 0.0
C1039 C 0.5569 0.9889 0.64411 0.0
C1040 C 0.56741 0.99205 0.65775 0.0
C1041 C 0.60067 0.99841 0.69554 0.0
C1042 C 0.58869 0.99676 0.68289 0.0
H1043 H 0.51873 0.98298 0.6338 0.0
H1044 H 0.53572 0.98805 0.65631 0.0
H1045 H 0.58214 0.00859 0.64667 0.0
H1046 H 0.63975 1.00118 0.70079 0.0
H1047 H 0.61993 0.99792 0.68071 0.0
C1048 C 0.89787 0.24235 0.77127 0.0
C1049 C 0.88272 0.23802 0.77507 0.0
C1050 C 0.90995 0.24303 0.78233 0.0
C1051 C 0.92102 0.22933 0.82064 0.0
H1052 H 0.95121 0.26308 0.82099 0.0
C1053 C 0.96331 0.2423 0.8718 0.0
C1054 C 0.97861 0.24715 0.86907 0.0
C1055 C 0.95215 0.2408 0.85992 0.0
C1056 C 0.94301 0.25347 0.82094 0.0
H1057 H 0.86846 0.23113 0.79359 0.0
H1058 H 0.8895 0.23231 0.81285 0.0
H1059 H 0.93072 0.26116 0.80114 0.0
H1060 H 0.9941 0.25417 0.85153 0.0
H1061 H 0.97456 0.25143 0.83075 0.0
H1062 H 0.93323 0.22169 0.84047 0.0
C1063 C 0.89208 0.23497 0.80126 0.0
C1064 C 0.93124 0.25237 0.80956 0.0
C1065 C 0.88 0.23428 0.7902 0.0
C1066 C 0.98243 0.25043 0.85409 0.0
C1067 C 0.97121 0.24894 0.84217 0.0
C1068 C 0.93278 0.23043 0.83201 0.0
C1069 C 0.90721 0.2394 0.79748 0.0
C1070 C 0.92002 0.24034 0.80933 0.0
C1071 C 0.95592 0.24409 0.84495 0.0
C1072 C 0.94385 0.24258 0.83239 0.0
H1073 H 0.90045 0.24505 0.75969 0.0
H1074 H 0.92148 0.24625 0.77896 0.0
H1075 H 0.91277 0.21977 0.82066 0.0
H1076 H 0.95988 0.23971 0.88315 0.0
H1077 H 0.94045 0.23728 0.86254 0.0
C1078 C 0.47513 0.89474 0.48587 0.0
C1079 C 0.48506 0.90777 0.48667 0.0
C1080 C 0.4788 0.88205 0.4774 0.0
C1081 C 0.50213 0.86955 0.4459 0.0
H1082 H 0.49345 0.82989 0.4626 0.0
C1083 C 0.51739 0.81232 0.41693 0.0
C1084 C 0.50647 0.80018 0.41817 0.0
C1085 C 0.51551 0.82614 0.42454 0.0
C1086 C 0.4958 0.84087 0.45768 0.0
H1087 H 0.50669 0.91762 0.47909 0.0
H1088 H 0.51319 0.8953 0.46433 0.0
H1089 H 0.4892 0.85242 0.47766 0.0
H1090 H 0.48449 0.79347 0.4275 0.0
H1091 H 0.48114 0.8174 0.44039 0.0
H1092 H 0.50864 0.85784 0.42583 0.0
C1093 C 0.50249 0.89501 0.47023 0.0
C1094 C 0.49338 0.8538 0.46634 0.0
C1095 C 0.49884 0.90773 0.47881 0.0
C1096 C 0.49328 0.80246 0.42647 0.0
C1097 C 0.49139 0.81619 0.43398 0.0
C1098 C 0.50455 0.85654 0.43718 0.0
C1099 C 0.49252 0.88199 0.46946 0.0
C1100 C 0.49625 0.86832 0.46049 0.0
C1101 C 0.50267 0.82806 0.4335 0.0
C1102 C 0.50113 0.84203 0.44288 0.0
H1103 H 0.46451 0.89431 0.4919 0.0
H1104 H 0.47076 0.8723 0.47693 0.0
H1105 H 0.50439 0.88056 0.44103 0.0
H1106 H 0.5277 0.81094 0.41064 0.0
H1107 H 0.52442 0.83507 0.42391 0.0
C1108 C 0.13795 0.30832 0.77222 0.0
C1109 C 0.15196 0.3009 0.77263 0.0
C1110 C 0.12653 0.30464 0.78249 0.0
C1111 C 0.12197 0.28815 0.82028 0.0
H1112 H 0.07844 0.28378 0.80836 0.0
C1113 C 0.07798 0.26274 0.86056 0.0
C1114 C 0.0634 0.26896 0.86124 0.0
C1115 C 0.08814 0.26715 0.84944 0.0
C1116 C 0.09053 0.28517 0.81192 0.0
H1117 H 0.16484 0.28365 0.78412 0.0
H1118 H 0.14492 0.27714 0.80188 0.0
H1119 H 0.09731 0.29023 0.78935 0.0
H1120 H 0.04802 0.28467 0.85053 0.0
H1121 H 0.06597 0.29259 0.83108 0.0
H1122 H 0.11533 0.28322 0.84279 0.0
C1123 C 0.14279 0.2859 0.79369 0.0
C1124 C 0.10135 0.28882 0.80101 0.0
C1125 C 0.15415 0.28951 0.78338 0.0
C1126 C 0.05917 0.27967 0.85034 0.0
C1127 C 0.06943 0.28414 0.83916 0.0
C1128 C 0.1112 0.28458 0.83115 0.0
C1129 C 0.12891 0.29353 0.7935 0.0
C1130 C 0.11723 0.29015 0.80504 0.0
C1131 C 0.08411 0.27801 0.83866 0.0
C1132 C 0.09535 0.28281 0.8271 0.0
H1133 H 0.13583 0.31705 0.76399 0.0
H1134 H 0.116 0.31077 0.78206 0.0
H1135 H 0.13407 0.28944 0.82386 0.0
H1136 H 0.08162 0.25436 0.86865 0.0
H1137 H 0.09917 0.26191 0.84924 0.0
C1138 C 0.54702 0.61066 0.46162 0.0
C1139 C 0.5404 0.60874 0.4758 0.0
C1140 C 0.54439 0.62353 0.45304 0.0
C1141 C 0.51843 0.65568 0.4487 0.0
H1142 H 0.55279 0.67386 0.42767 0.0
C1143 C 0.5183 0.71589 0.4233 0.0
C1144 C 0.52551 0.71822 0.40949 0.0
C1145 C 0.51891 0.70194 0.43057 0.0
C1146 C 0.543 0.66882 0.43328 0.0
H1147 H 0.52555 0.6189 0.49187 0.0
H1148 H 0.52131 0.64156 0.47709 0.0
H1149 H 0.55636 0.65096 0.44211 0.0
H1150 H 0.53852 0.7075 0.39221 0.0
H1151 H 0.53949 0.68315 0.40483 0.0
H1152 H 0.50518 0.6738 0.44003 0.0
C1153 C 0.52839 0.63297 0.47251 0.0
C1154 C 0.54505 0.65566 0.44159 0.0
C1155 C 0.53098 0.62004 0.4811 0.0
C1156 C 0.53288 0.70611 0.40286 0.0
C1157 C 0.53353 0.69218 0.41014 0.0
C1158 C 0.51641 0.66891 0.44043 0.0
C1159 C 0.53513 0.63493 0.4584 0.0
C1160 C 0.5328 0.6489 0.44943 0.0
C1161 C 0.5268 0.69001 0.42423 0.0
C1162 C 0.52868 0.67565 0.43263 0.0
H1163 H 0.5545 0.60232 0.45723 0.0
H1164 H 0.54961 0.62452 0.44214 0.0
H1165 H 0.50868 0.65069 0.4544 0.0
H1166 H 0.51261 0.72498 0.42879 0.0
H1167 H 0.51371 0.7007 0.44145 0.0
C1168 C 0.87044 0.77771 0.72489 0.0
C1169 C 0.87425 0.78317 0.73968 0.0
C1170 C 0.88165 0.77732 0.71398 0.0
C1171 C 0.92369 0.77625 0.70968 0.0
H1172 H 0.91314 0.78699 0.66818 0.0
C1173 C 0.9677 0.77409 0.66161 0.0
C1174 C 0.9618 0.7679 0.64766 0.0
C1175 C 0.95771 0.77751 0.67317 0.0
C1176 C 0.91627 0.78383 0.67969 0.0
H1177 H 0.89294 0.79249 0.75457 0.0
H1178 H 0.91254 0.79186 0.73547 0.0
H1179 H 0.89439 0.7899 0.68765 0.0
H1180 H 0.94073 0.76056 0.63496 0.0
H1181 H 0.92355 0.76629 0.65496 0.0
H1182 H 0.94547 0.76988 0.70163 0.0
C1183 C 0.90085 0.78783 0.73236 0.0
C1184 C 0.9055 0.78551 0.69086 0.0
C1185 C 0.88958 0.78833 0.74326 0.0
C1186 C 0.94573 0.76537 0.64551 0.0
C1187 C 0.93581 0.76877 0.65699 0.0
C1188 C 0.93447 0.77451 0.69847 0.0
C1189 C 0.89702 0.78232 0.71758 0.0
C1190 C 0.90896 0.78152 0.70595 0.0
C1191 C 0.94162 0.77487 0.671 0.0
C1192 C 0.9308 0.77802 0.68326 0.0
H1193 H 0.85873 0.77378 0.72171 0.0
H1194 H 0.87832 0.77285 0.70277 0.0
H1195 H 0.9267 0.77297 0.72118 0.0
H1196 H 0.98001 0.77618 0.66364 0.0
H1197 H 0.96258 0.7823 0.68378 0.0
C1198 C 0.04853 0.89536 0.52758 0.0
C1199 C 0.04053 0.90857 0.5301 0.0
C1200 C 0.04596 0.88254 0.53639 0.0
C1201 C 0.01788 0.86346 0.5608 0.0
H1202 H 0.0534 0.84163 0.57477 0.0
C1203 C 0.012 0.80918 0.59724 0.0
C1204 C 0.02104 0.7972 0.59281 0.0
C1205 C 0.01447 0.82372 0.5913 0.0
C1206 C 0.04333 0.84751 0.57089 0.0
H1207 H 0.02327 0.9185 0.54371 0.0
H1208 H 0.01875 0.89603 0.55912 0.0
H1209 H 0.05719 0.86489 0.56067 0.0
H1210 H 0.04009 0.79134 0.57901 0.0
H1211 H 0.04424 0.81634 0.5687 0.0
H1212 H 1.004 0.84585 0.57072 0.0
C1213 C 0.02704 0.89564 0.5503 0.0
C1214 C 0.04551 0.86086 0.56279 0.0
C1215 C 0.02971 0.90855 0.54155 0.0
C1216 C 0.03286 0.80023 0.5827 0.0
C1217 C 0.03534 0.81467 0.57684 0.0
C1218 C 0.01568 0.85002 0.56885 0.0
C1219 C 0.03525 0.88253 0.54792 0.0
C1220 C 0.03282 0.86887 0.55741 0.0
C1221 C 0.0261 0.8266 0.5809 0.0
C1222 C 0.02838 0.84172 0.57376 0.0
H1223 H 0.05705 0.89502 0.51897 0.0
H1224 H 0.05234 0.87257 0.53413 0.0
H1225 H 0.00785 0.86933 0.55676 0.0
H1226 H 1.00278 0.80726 0.60498 0.0
H1227 H 0.00724 0.83267 0.59479 0.0
C1228 C 0.13103 0.72527 0.73039 0.0
C1229 C 0.14537 0.7219 0.7246 0.0
C1230 C 0.11852 0.72861 0.72059 0.0
C1231 C 0.10436 0.72261 0.68072 0.0
H1232 H 0.07651 0.75447 0.68903 0.0
C1233 C 0.06164 0.74249 0.6347 0.0
C1234 C 0.04652 0.74549 0.63863 0.0
C1235 C 0.07309 0.73999 0.64586 0.0
C1236 C 0.08407 0.74541 0.68664 0.0
H1237 H 0.15795 0.72023 0.70397 0.0
H1238 H 0.13627 0.72601 0.68698 0.0
H1239 H 0.0977 0.74958 0.70729 0.0
H1240 H 0.03177 0.74853 0.65758 0.0
H1241 H 0.05187 0.74401 0.67715 0.0
H1242 H 0.09087 0.71838 0.66014 0.0
C1243 C 0.13454 0.72572 0.69906 0.0
C1244 C 0.09623 0.74262 0.69709 0.0
C1245 C 0.147 0.7224 0.70882 0.0
C1246 C 0.04327 0.74623 0.65412 0.0
C1247 C 0.0548 0.7437 0.66535 0.0
C1248 C 0.09226 0.72538 0.67032 0.0
C1249 C 0.12007 0.72865 0.70477 0.0
C1250 C 0.10666 0.73132 0.69414 0.0
C1251 C 0.06982 0.74035 0.66132 0.0
C1252 C 0.08209 0.73696 0.673 0.0
H1253 H 0.12932 0.72488 0.74247 0.0
H1254 H 0.10752 0.73072 0.72537 0.0
H1255 H 0.11192 0.71357 0.67823 0.0
H1256 H 0.06469 0.74198 0.62294 0.0
H1257 H 0.08459 0.73779 0.64232 0.0
C1258 C 0.97274 0.60557 0.54008 0.0
C1259 C 0.97889 0.60433 0.52564 0.0
C1260 C 0.97573 0.6186 0.54908 0.0
C1261 C 1.00219 0.65274 0.554 0.0
H1262 H 0.96876 0.66801 0.57671 0.0
C1263 C 0.00456 0.71243 0.58242 0.0
C1264 C 0.99778 0.71399 0.59652 0.0
C1265 C 1.00329 0.69862 0.57442 0.0
C1266 C 0.9783 0.6638 0.57062 0.0
H1267 H 0.99327 0.61589 0.5095 0.0
H1268 H 0.99818 0.63878 0.52503 0.0
H1269 H 0.96441 0.64503 0.56136 0.0
H1270 H 0.98476 0.70207 0.61348 0.0
H1271 H 0.98266 0.67797 0.59959 0.0
H1272 H 0.016 0.67171 0.56315 0.0
C1273 C 0.99118 0.62955 0.52948 0.0
C1274 C 0.9758 0.65059 0.56179 0.0
C1275 C 0.9882 0.61649 0.52048 0.0
C1276 C 0.9901 0.70128 0.60263 0.0
C1277 C 0.98879 0.68748 0.59461 0.0
C1278 C 0.00467 0.666 0.56282 0.0
C1279 C 0.98491 0.63081 0.54388 0.0
C1280 C 0.9877 0.64487 0.55335 0.0
C1281 C 0.99516 0.68604 0.58029 0.0
C1282 C 0.99275 0.6717 0.57123 0.0
H1283 H 0.96535 0.59655 0.54439 0.0
H1284 H 0.97086 0.61905 0.56017 0.0
H1285 H 0.01169 0.64857 0.54784 0.0
H1286 H 0.01046 0.72199 0.5773 0.0
H1287 H 0.00822 0.69796 0.56336 0.0
C1288 C 0.77928 0.8921 0.22226 0.0
C1289 C 0.78506 0.87807 0.21815 0.0
C1290 C 0.78931 0.90484 0.22499 0.0
C1291 C 0.82848 0.91963 0.21613 0.0
H1292 H 0.82388 0.94799 0.24936 0.0
C1293 C 0.87719 0.96276 0.23456 0.0
C1294 C 0.87351 0.97763 0.23838 0.0
C1295 C 0.86563 0.95137 0.23218 0.0
C1296 C 0.8252 0.94028 0.23991 0.0
H1297 H 0.80602 0.86633 0.21451 0.0
H1298 H 0.82339 0.88839 0.21923 0.0
H1299 H 0.80512 0.92662 0.24526 0.0
H1300 H 0.8546 0.99203 0.24289 0.0
H1301 H 0.83431 0.97203 0.23863 0.0
H1302 H 0.84853 0.93311 0.21078 0.0
C1303 C 0.8111 0.88969 0.21998 0.0
C1304 C 0.81445 0.92803 0.23756 0.0
C1305 C 0.80111 0.87701 0.21727 0.0
C1306 C 0.85787 0.98073 0.23995 0.0
C1307 C 0.84625 0.96925 0.23757 0.0
C1308 C 0.83916 0.93182 0.21846 0.0
C1309 C 0.80534 0.90383 0.22366 0.0
C1310 C 0.81612 0.9174 0.22579 0.0
C1311 C 0.85 0.95445 0.23352 0.0
C1312 C 0.83784 0.94217 0.23052 0.0
H1313 H 0.76697 0.89335 0.22295 0.0
H1314 H 0.78448 0.91556 0.22772 0.0
H1315 H 0.82992 0.91191 0.20671 0.0
H1316 H 0.88906 0.95984 0.23335 0.0
H1317 H 0.869 0.94006 0.22938 0.0
C1318 C 0.77346 0.13483 0.29244 0.0
C1319 C 0.77329 0.14824 0.28402 0.0
C1320 C 0.78386 0.12363 0.28932 0.0
C1321 C 0.82138 0.1188 0.27205 0.0
H1322 H 0.80954 0.07597 0.27133 0.0
C1323 C 0.86147 0.07501 0.24896 0.0
C1324 C 0.86276 0.0611 0.25637 0.0
C1325 C 0.85022 0.085 0.2528 0.0
C1326 C 0.81309 0.08787 0.27169 0.0
H1327 H 0.7839 0.16026 0.26561 0.0
H1328 H 0.80186 0.14073 0.26007 0.0
H1329 H 0.79041 0.09454 0.27693 0.0
H1330 H 0.85294 0.04673 0.27353 0.0
H1331 H 0.83327 0.06436 0.28043 0.0
H1332 H 0.84401 0.11228 0.26692 0.0
C1333 C 0.79404 0.1389 0.26918 0.0
C1334 C 0.80211 0.09852 0.27487 0.0
C1335 C 0.7836 0.15004 0.27224 0.0
C1336 C 0.85228 0.05735 0.26762 0.0
C1337 C 0.84097 0.06743 0.27151 0.0
C1338 C 0.83232 0.1082 0.26894 0.0
C1339 C 0.79442 0.12562 0.27777 0.0
C1340 C 0.80609 0.11414 0.27489 0.0
C1341 C 0.83991 0.08147 0.26424 0.0
C1342 C 0.82831 0.09259 0.2685 0.0
H1343 H 0.76558 0.133 0.3015 0.0
H1344 H 0.78388 0.11358 0.2962 0.0
H1345 H 0.82495 0.1307 0.27232 0.0
H1346 H 0.8692 0.07826 0.24013 0.0
H1347 H 0.84956 0.0955 0.24669 0.0
C1348 C 0.39508 0.97178 0.99205 0.0
C1349 C 0.39683 0.97607 0.9769 0.0
C1350 C 0.38233 0.96268 0.99608 0.0
C1351 C 0.343 0.94831 0.9825 0.0
H1352 H 0.35081 0.91603 0.0107 0.0
C1353 C 0.29425 0.90673 1.0027 0.0
C1354 C 0.29791 0.89141 1.00363 0.0
C1355 C 0.30577 0.91797 1.00017 0.0
C1356 C 0.34842 0.92494 1.00276 0.0
H1357 H 0.38639 0.97418 0.95413 0.0
H1358 H 0.36423 0.95826 0.96113 0.0
H1359 H 0.37173 0.9339 0.00473 0.0
H1360 H 0.31665 0.87601 1.00248 0.0
H1361 H 0.33646 0.89543 0.99794 0.0
H1362 H 0.31976 0.93897 0.98016 0.0
C1363 C 0.37259 0.96214 0.96996 0.0
C1364 C 0.3604 0.93533 0.99947 0.0
C1365 C 0.38533 0.97127 0.96594 0.0
C1366 C 0.31334 0.88766 1.00194 0.0
C1367 C 0.32479 0.89885 0.99942 0.0
C1368 C 0.33099 0.93789 0.98579 0.0
C1369 C 0.37099 0.95759 0.98506 0.0
C1370 C 0.35791 0.94707 0.98917 0.0
C1371 C 0.3212 0.91416 0.99855 0.0
C1372 C 0.3336 0.92594 0.99581 0.0
H1373 H 0.40358 0.97549 1.00083 0.0
H1374 H 0.38135 0.95964 0.00786 0.0
H1375 H 0.3406 0.95732 0.97466 0.0
H1376 H 0.28251 0.91005 0.00396 0.0
H1377 H 0.30262 0.92967 0.99967 0.0
C1378 C 0.23968 0.36801 0.28929 0.0
C1379 C 0.24705 0.36335 0.27623 0.0
C1380 C 0.22825 0.37872 0.28836 0.0
C1381 C 0.20167 0.39723 0.26067 0.0
H1382 H 0.20297 0.4297 0.29072 0.0
C1383 C 0.17663 0.45521 0.24913 0.0
C1384 C 0.16956 0.46294 0.26081 0.0
C1385 C 0.18339 0.44142 0.25184 0.0
C1386 C 0.20224 0.42057 0.28238 0.0
H1387 H 0.24769 0.36599 0.25185 0.0
H1388 H 0.22817 0.3848 0.25027 0.0
H1389 H 0.22014 0.40878 0.29399 0.0
H1390 H 0.16358 0.46191 0.28439 0.0
H1391 H 0.17557 0.43773 0.28917 0.0
H1392 H 0.18416 0.4093 0.2488 0.0
C1393 C 0.23107 0.38011 0.26125 0.0
C1394 C 0.21211 0.40856 0.28425 0.0
C1395 C 0.24246 0.36945 0.26219 0.0
C1396 C 0.16887 0.45621 0.27514 0.0
C1397 C 0.17585 0.44244 0.27791 0.0
C1398 C 0.19188 0.40925 0.25878 0.0
C1399 C 0.22385 0.38498 0.27432 0.0
C1400 C 0.21221 0.3969 0.27323 0.0
C1401 C 0.18342 0.43502 0.26634 0.0
C1402 C 0.19228 0.42125 0.26943 0.0
H1403 H 0.24297 0.36363 0.30031 0.0
H1404 H 0.22286 0.38209 0.29864 0.0
H1405 H 0.20115 0.38828 0.25213 0.0
H1406 H 0.17734 0.46004 0.23795 0.0
H1407 H 0.18924 0.43611 0.2427 0.0
C1408 C 0.13459 0.04053 0.47124 0.0
C1409 C 0.12446 0.03604 0.48256 0.0
C1410 C 0.1476 0.05009 0.47476 0.0
C1411 C 0.16251 0.07872 0.50326 0.0
H1412 H 0.20114 0.07471 0.48336 0.0
C1413 C 0.20873 0.12739 0.50336 0.0
C1414 C 0.22441 0.12407 0.50518 0.0
C1415 C 0.19729 0.11584 0.50132 0.0
C1416 C 0.1905 0.07591 0.48914 0.0
H1417 H 0.12051 0.03771 0.50662 0.0
H1418 H 0.14316 0.05437 0.51276 0.0
H1419 H 0.18009 0.05567 0.47873 0.0
H1420 H 0.24026 0.1058 0.50616 0.0
H1421 H 0.22015 0.08553 0.50263 0.0
H1422 H 0.17287 0.09888 0.51372 0.0
C1423 C 0.14089 0.05069 0.50108 0.0
C1424 C 0.17835 0.06508 0.48635 0.0
C1425 C 0.12788 0.04113 0.49756 0.0
C1426 C 0.22832 0.1088 0.50481 0.0
C1427 C 0.2168 0.09718 0.50272 0.0
C1428 C 0.17461 0.08953 0.50601 0.0
C1429 C 0.15084 0.05544 0.4897 0.0
C1430 C 0.16414 0.06643 0.49326 0.0
C1431 C 0.20112 0.10057 0.50103 0.0
C1432 C 0.1887 0.0884 0.49884 0.0
H1433 H 0.13223 0.03704 0.45953 0.0
H1434 H 0.15485 0.05368 0.46566 0.0
H1435 H 0.15172 0.08025 0.50868 0.0
H1436 H 0.20521 0.13898 0.5035 0.0
H1437 H 0.18539 0.11892 0.49978 0.0
C1438 C 0.73732 0.15146 0.74012 0.0
C1439 C 0.75255 0.14838 0.73665 0.0
C1440 C 0.72598 0.13973 0.74073 0.0
C1441 C 0.71674 0.0999 0.72854 0.0
H1442 H 0.69036 0.09917 0.76293 0.0
C1443 C 0.68311 0.04578 0.7466 0.0
C1444 C 0.66861 0.04704 0.75292 0.0
C1445 C 0.69197 0.05871 0.74294 0.0
C1446 C 0.69741 0.0993 0.75309 0.0
H1447 H 0.76763 0.13057 0.73061 0.0
H1448 H 0.74792 0.11013 0.73181 0.0
H1449 H 0.70838 0.12071 0.75969 0.0
H1450 H 0.65184 0.0629 0.75984 0.0
H1451 H 0.66723 0.0855 0.75322 0.0
H1452 H 0.70591 0.07842 0.72204 0.0
C1453 C 0.74471 0.12162 0.73401 0.0
C1454 C 0.70778 0.11167 0.75125 0.0
C1455 C 0.75606 0.13332 0.73348 0.0
C1456 C 0.66297 0.06153 0.75501 0.0
C1457 C 0.67185 0.07449 0.75132 0.0
C1458 C 0.70633 0.08756 0.73035 0.0
C1459 C 0.72956 0.12464 0.73777 0.0
C1460 C 0.71774 0.11202 0.73908 0.0
C1461 C 0.68659 0.07325 0.74548 0.0
C1462 C 0.6967 0.08698 0.74278 0.0
H1463 H 0.73425 0.16292 0.74271 0.0
H1464 H 0.71439 0.14246 0.74354 0.0
H1465 H 0.72405 0.09993 0.7189 0.0
H1466 H 0.68789 0.03482 0.74496 0.0
H1467 H 0.70334 0.05728 0.73866 0.0
C1468 C 0.40609 0.04073 0.52489 0.0
C1469 C 0.40542 0.03008 0.53659 0.0
C1470 C 0.39361 0.04986 0.52163 0.0
C1471 C 0.36034 0.06536 0.54019 0.0
H1472 H 0.34817 0.07808 0.49968 0.0
C1473 C 0.32401 0.11716 0.53049 0.0
C1474 C 0.31176 0.11621 0.51949 0.0
C1475 C 0.33457 0.10576 0.53169 0.0
C1476 C 0.35134 0.07452 0.51104 0.0
H1477 H 0.39068 0.02008 0.55337 0.0
H1478 H 0.369 0.03593 0.54769 0.0
H1479 H 0.36792 0.05932 0.50306 0.0
H1480 H 0.30122 0.10253 0.50093 0.0
H1481 H 0.31987 0.08249 0.50301 0.0
H1482 H 0.34389 0.08053 0.54821 0.0
C1483 C 0.37929 0.03748 0.54125 0.0
C1484 C 0.36276 0.06388 0.513 0.0
C1485 C 0.39174 0.02838 0.54451 0.0
C1486 C 0.31049 0.1036 0.50955 0.0
C1487 C 0.3212 0.09216 0.51069 0.0
C1488 C 0.34904 0.076 0.53824 0.0
C1489 C 0.38016 0.04855 0.52998 0.0
C1490 C 0.36749 0.05926 0.52762 0.0
C1491 C 0.33328 0.09306 0.52191 0.0
C1492 C 0.34452 0.08088 0.52368 0.0
H1493 H 0.41648 0.04243 0.51864 0.0
H1494 H 0.39476 0.05836 0.51297 0.0
H1495 H 0.36377 0.06223 0.55163 0.0
H1496 H 0.32544 0.12671 0.53832 0.0
H1497 H 0.34387 0.10696 0.54027 0.0
C1498 C 0.61356 0.46542 0.53278 0.0
C1499 C 0.61336 0.48019 0.52706 0.0
C1500 C 0.62559 0.45602 0.52969 0.0
C1501 C 0.66606 0.45602 0.51856 0.0
H1502 H 0.65556 0.41374 0.50923 0.0
C1503 C 0.71221 0.41186 0.50591 0.0
C1504 C 0.71001 0.39781 0.513 0.0
C1505 C 0.70069 0.42253 0.50604 0.0
C1506 C 0.65873 0.42549 0.51192 0.0
H1507 H 0.62589 0.49663 0.51365 0.0
H1508 H 0.64704 0.4802 0.50839 0.0
H1509 H 0.63508 0.43122 0.51263 0.0
H1510 H 0.69394 0.38404 0.52579 0.0
H1511 H 0.67417 0.40247 0.5261 0.0
H1512 H 0.68977 0.45014 0.51813 0.0
C1513 C 0.63783 0.47596 0.51532 0.0
C1514 C 0.64697 0.43552 0.51386 0.0
C1515 C 0.62571 0.48538 0.51836 0.0
C1516 C 0.69606 0.39469 0.52013 0.0
C1517 C 0.68462 0.40526 0.52023 0.0
C1518 C 0.67788 0.44594 0.51665 0.0
C1519 C 0.63783 0.46112 0.52085 0.0
C1520 C 0.65046 0.45085 0.51752 0.0
C1521 C 0.68672 0.41931 0.51318 0.0
C1522 C 0.67434 0.43047 0.51363 0.0
H1523 H 0.60449 0.46112 0.53985 0.0
H1524 H 0.62539 0.44478 0.53442 0.0
H1525 H 0.66915 0.46775 0.52143 0.0
H1526 H 0.72283 0.41464 0.50034 0.0
H1527 H 0.70266 0.43323 0.50045 0.0
C1528 C 0.73762 0.27623 0.36298 0.0
C1529 C 0.72254 0.27578 0.35641 0.0
C1530 C 0.74152 0.2853 0.37582 0.0
C1531 C 0.72904 0.31819 0.39803 0.0
H1532 H 0.75509 0.30174 0.42995 0.0
C1533 C 0.74008 0.34647 0.45795 0.0
C1534 C 0.75481 0.34512 0.46497 0.0
C1535 C 0.73621 0.33919 0.44397 0.0
C1536 C 0.74799 0.30663 0.42106 0.0
H1537 H 0.69971 0.28444 0.35844 0.0
H1538 H 0.70653 0.30024 0.38079 0.0
H1539 H 0.74825 0.28658 0.40727 0.0
H1540 H 0.77734 0.33602 0.46224 0.0
H1541 H 0.77075 0.32374 0.43789 0.0
H1542 H 0.72876 0.33825 0.41196 0.0
C1543 C 0.71541 0.29376 0.37585 0.0
C1544 C 0.74405 0.2979 0.40804 0.0
C1545 C 0.71149 0.28467 0.36302 0.0
C1546 C 0.76581 0.33712 0.45728 0.0
C1547 C 0.762 0.32997 0.44334 0.0
C1548 C 0.73301 0.32696 0.4111 0.0
C1549 C 0.73046 0.29416 0.38245 0.0
C1550 C 0.73457 0.30357 0.39632 0.0
C1551 C 0.74702 0.33049 0.43672 0.0
C1552 C 0.74261 0.32131 0.42275 0.0
H1553 H 0.74649 0.26975 0.35806 0.0
H1554 H 0.75329 0.28551 0.38045 0.0
H1555 H 0.72184 0.32297 0.38916 0.0
H1556 H 0.73132 0.3525 0.4636 0.0
H1557 H 0.72455 0.33982 0.43921 0.0
C1558 C 0.52543 0.01615 0.88803 0.0
C1559 C 0.53104 0.02445 0.90101 0.0
C1560 C 0.5352 0.01298 0.87624 0.0
C1561 C 0.57664 0.01058 0.86836 0.0
H1562 H 0.5634 0.01568 0.82626 0.0
C1563 C 0.62021 0.01639 0.82156 0.0
C1564 C 0.61677 0.0096 0.80724 0.0
C1565 C 0.60915 0.01657 0.83258 0.0
C1566 C 0.56721 0.01396 0.83794 0.0
H1567 H 0.55134 0.03633 0.91139 0.0
H1568 H 0.56828 0.03071 0.89104 0.0
H1569 H 0.54514 0.01915 0.84628 0.0
H1570 H 0.59888 0.99759 0.79331 0.0
H1571 H 0.57943 0.99782 0.81273 0.0
H1572 H 0.59869 0.00555 0.86015 0.0
C1573 C 0.5564 0.02638 0.89007 0.0
C1574 C 0.55674 0.01597 0.84942 0.0
C1575 C 0.54665 0.02959 0.90179 0.0
C1576 C 0.60192 1.00289 0.80424 0.0
C1577 C 0.59076 1.00311 0.81533 0.0
C1578 C 0.58705 0.00854 0.85693 0.0
C1579 C 0.55084 0.01799 0.87717 0.0
C1580 C 0.56144 0.01462 0.8648 0.0
C1581 C 0.59428 0.00994 0.82966 0.0
C1582 C 0.58259 0.01053 0.84158 0.0
H1583 H 0.51352 0.01188 0.88708 0.0
H1584 H 0.53057 0.00639 0.86651 0.0
H1585 H 0.58056 0.00909 0.88004 0.0
H1586 H 0.63148 0.02174 0.8243 0.0
H1587 H 0.61222 0.02219 0.84334 0.0
C1588 C 0.27211 0.23598 0.36685 0.0
C1589 C 0.28652 0.24089 0.36154 0.0
C1590 C 0.27107 0.22503 0.37807 0.0
C1591 C 0.29383 0.20824 0.4094 0.0
H1592 H 0.25851 0.17975 0.40944 0.0
C1593 C 0.28327 0.16773 0.45961 0.0
C1594 C 0.26838 0.16844 0.46518 0.0
C1595 C 0.28662 0.17396 0.44549 0.0
C1596 C 0.26846 0.18762 0.40959 0.0
H1597 H 0.31116 0.23785 0.36378 0.0
H1598 H 0.30932 0.21851 0.38326 0.0
H1599 H 0.26243 0.19566 0.38745 0.0
H1600 H 0.24513 0.17539 0.45993 0.0
H1601 H 0.25087 0.18595 0.43539 0.0
H1602 H 0.29966 0.20034 0.4317 0.0
C1603 C 0.29882 0.2233 0.37882 0.0
C1604 C 0.27068 0.1968 0.39701 0.0
C1605 C 0.29986 0.23428 0.36754 0.0
C1606 C 0.25674 0.1747 0.45599 0.0
C1607 C 0.26002 0.1807 0.44187 0.0
C1608 C 0.29164 0.19899 0.42198 0.0
C1609 C 0.2844 0.2186 0.38431 0.0
C1610 C 0.28316 0.20754 0.3969 0.0
C1611 C 0.27507 0.18074 0.43658 0.0
C1612 C 0.2787 0.18885 0.42238 0.0
H1613 H 0.26156 0.24064 0.36234 0.0
H1614 H 0.25978 0.22188 0.38213 0.0
H1615 H 0.3035 0.21645 0.4098 0.0
H1616 H 0.29251 0.16305 0.46645 0.0
H1617 H 0.29831 0.17373 0.44167 0.0
C1618 C 0.48233 0.49863 0.90123 0.0
C1619 C 0.48965 0.48477 0.90215 0.0
C1620 C 0.47278 0.50187 0.88857 0.0
C1621 C 0.45007 0.4827 0.85663 0.0
H1622 H 0.45156 0.52221 0.83806 0.0
C1623 C 0.42785 0.49198 0.79546 0.0
C1624 C 0.42037 0.5053 0.79174 0.0
C1625 C 0.43427 0.48995 0.81002 0.0
C1626 C 0.4508 0.51119 0.84327 0.0
H1627 H 0.49315 0.46376 0.89009 0.0
H1628 H 0.47663 0.46938 0.86812 0.0
H1629 H 0.46726 0.518 0.86119 0.0
H1630 H 0.41344 0.5268 0.80063 0.0
H1631 H 0.4248 0.52325 0.82625 0.0
H1632 H 0.4339 0.47578 0.83859 0.0
C1633 C 0.47793 0.47762 0.87733 0.0
C1634 C 0.45983 0.50876 0.85651 0.0
C1635 C 0.48745 0.4744 0.88994 0.0
C1636 C 0.41906 0.51638 0.80315 0.0
C1637 C 0.42568 0.5144 0.81777 0.0
C1638 C 0.44109 0.48512 0.84343 0.0
C1639 C 0.47031 0.49131 0.87653 0.0
C1640 C 0.45983 0.49438 0.86317 0.0
C1641 C 0.43352 0.50121 0.82131 0.0
C1642 C 0.44158 0.49929 0.83638 0.0
H1643 H 0.48365 0.50682 0.91049 0.0
H1644 H 0.46703 0.51248 0.88838 0.0
H1645 H 0.44947 0.47159 0.86165 0.0
H1646 H 0.42905 0.48318 0.78699 0.0
H1647 H 0.44036 0.47973 0.81225 0.0
C1648 C 0.73395 0.73044 0.15351 0.0
C1649 C 0.72903 0.74516 0.15093 0.0
C1650 C 0.73729 0.72095 0.14137 0.0
C1651 C 0.74658 0.72161 0.10063 0.0
H1652 H 0.73488 0.67879 0.10168 0.0
C1653 C 0.75111 0.68271 0.04825 0.0
C1654 C 0.75753 0.66857 0.05063 0.0
C1655 C 0.74696 0.69161 0.0605 0.0
C1656 C 0.73834 0.69069 0.10127 0.0
H1657 H 0.72361 0.76134 0.13347 0.0
H1658 H 0.72931 0.7448 0.11232 0.0
H1659 H 0.72925 0.69527 0.12297 0.0
H1660 H 0.76418 0.65253 0.06781 0.0
H1661 H 0.7569 0.66807 0.08924 0.0
H1662 H 0.7556 0.71705 0.07892 0.0
C1663 C 0.73088 0.74066 0.12375 0.0
C1664 C 0.73514 0.70016 0.11349 0.0
C1665 C 0.7276 0.75016 0.13589 0.0
C1666 C 0.75923 0.66334 0.06556 0.0
C1667 C 0.75502 0.67223 0.07785 0.0
C1668 C 0.74971 0.71216 0.0884 0.0
C1669 C 0.73575 0.7259 0.12631 0.0
C1670 C 0.73921 0.71576 0.11333 0.0
C1671 C 0.74908 0.6866 0.07548 0.0
C1672 C 0.74561 0.69659 0.08854 0.0
H1673 H 0.73539 0.7263 0.16496 0.0
H1674 H 0.74127 0.70978 0.14383 0.0
H1675 H 0.75015 0.73348 0.1002 0.0
H1676 H 0.74967 0.68714 0.03692 0.0
H1677 H 0.74218 0.7025 0.05824 0.0
C1678 C 0.99402 0.02892 0.11508 0.0
C1679 C 0.98803 0.03585 0.10197 0.0
C1680 C 0.98479 0.02628 0.12752 0.0
C1681 C 0.94985 0.03978 0.14499 0.0
H1682 H 0.9521 1.00318 0.16854 0.0
C1683 C 0.90966 0.02862 0.19447 0.0
C1684 C 0.91641 0.02282 0.20781 0.0
C1685 C 0.91765 0.02891 0.18101 0.0
C1686 C 0.95142 0.01352 0.16216 0.0
H1687 H 0.96734 0.04478 0.09148 0.0
H1688 H 0.95133 0.04023 0.11311 0.0
H1689 H 0.96763 0.00621 0.14624 0.0
H1690 H 0.93675 0.01243 0.21732 0.0
H1691 H 0.9507 0.01306 0.19396 0.0
H1692 H 0.93387 0.04723 0.16098 0.0
C1693 C 0.96326 0.03711 0.11391 0.0
C1694 C 0.96033 0.01526 0.14937 0.0
C1695 C 0.97247 0.03973 0.1015 0.0
C1696 C 0.93114 0.01689 0.20724 0.0
C1697 C 0.93914 0.01721 0.1938 0.0
C1698 C 0.94098 0.03806 0.15778 0.0
C1699 C 0.96934 0.0305 0.12715 0.0
C1700 C 0.95969 0.02843 0.14064 0.0
C1701 C 0.93262 0.02346 0.18056 0.0
C1702 C 0.94167 0.02494 0.16658 0.0
H1703 H 0.00599 0.02593 0.11592 0.0
H1704 H 0.9899 0.02131 0.13759 0.0
H1705 H 0.94926 0.05019 0.1387 0.0
H1706 H 0.89831 0.03324 0.19449 0.0
H1707 H 0.91213 0.03356 0.17098 0.0
C1708 C 0.29335 0.76971 0.13466 0.0
C1709 C 0.29041 0.77355 0.14975 0.0
C1710 C 0.29198 0.78035 0.12316 0.0
C1711 C 0.27247 0.81533 0.11361 0.0
H1712 H 0.30068 0.8169 0.08069 0.0
C1713 C 0.2648 0.85666 0.06379 0.0
C1714 C 0.26633 0.85039 0.04923 0.0
C1715 C 0.26946 0.84878 0.07675 0.0
C1716 C 0.29265 0.81656 0.08975 0.0
H1717 H 0.28388 0.79172 0.16458 0.0
H1718 H 0.28163 0.81036 0.1445 0.0
H1719 H 0.30557 0.8003 0.10206 0.0
H1720 H 0.27429 0.83105 0.03692 0.0
H1721 H 0.28235 0.81738 0.05937 0.0
H1722 H 0.25935 0.83132 0.10116 0.0
C1723 C 0.2849 0.79905 0.14156 0.0
C1724 C 0.29545 0.80703 0.102 0.0
C1725 C 0.28634 0.78841 0.1531 0.0
C1726 C 0.27307 0.83631 0.04792 0.0
C1727 C 0.27774 0.82845 0.06084 0.0
C1728 C 0.26965 0.82484 0.10134 0.0
C1729 C 0.28758 0.79512 0.12643 0.0
C1730 C 0.28527 0.80612 0.11398 0.0
C1731 C 0.27579 0.83446 0.07544 0.0
C1732 C 0.27957 0.8254 0.08913 0.0
H1733 H 0.29667 0.75842 0.13172 0.0
H1734 H 0.29398 0.77688 0.11162 0.0
H1735 H 0.26428 0.81478 0.12254 0.0
H1736 H 0.25966 0.86749 0.06521 0.0
H1737 H 0.26797 0.85383 0.08781 0.0
C1738 C 0.03463 0.49523 0.12779 0.0
C1739 C 0.03322 0.48052 0.12145 0.0
C1740 C 0.04412 0.49841 0.14079 0.0
C1741 C 0.06424 0.48052 0.17347 0.0
H1742 H 0.09156 0.51644 0.173 0.0
C1743 C 0.10675 0.49881 0.22415 0.0
C1744 C 0.12185 0.50303 0.22012 0.0
C1745 C 0.09483 0.4966 0.21296 0.0
C1746 C 0.084 0.50637 0.17332 0.0
H1747 H 0.0408 0.4576 0.12402 0.0
H1748 H 0.05717 0.46311 0.1467 0.0
H1749 H 0.07275 0.51134 0.15202 0.0
H1750 H 0.1361 0.50843 0.20109 0.0
H1751 H 0.11545 0.50465 0.1818 0.0
H1752 H 0.07581 0.4754 0.19464 0.0
C1753 C 0.05077 0.47217 0.14171 0.0
C1754 C 0.07311 0.50352 0.16136 0.0
C1755 C 0.04135 0.46901 0.12867 0.0
C1756 C 0.12465 0.50516 0.20468 0.0
C1757 C 0.11276 0.5031 0.19357 0.0
C1758 C 0.07508 0.48344 0.18552 0.0
C1759 C 0.05241 0.48694 0.14785 0.0
C1760 C 0.06324 0.49045 0.16116 0.0
C1761 C 0.09771 0.49876 0.19753 0.0
C1762 C 0.08526 0.49627 0.18546 0.0
H1763 H 0.02835 0.50434 0.12273 0.0
H1764 H 0.04495 0.50986 0.14534 0.0
H1765 H 0.05671 0.47043 0.17375 0.0
H1766 H 0.10417 0.49706 0.23592 0.0
H1767 H 0.08332 0.49333 0.21639 0.0
C1768 C 0.39796 0.74253 0.27088 0.0
C1769 C 0.38279 0.73888 0.2751 0.0
C1770 C 0.41019 0.74364 0.28178 0.0
C1771 C 0.42134 0.73189 0.32075 0.0
H1772 H 0.45256 0.76456 0.319 0.0
C1773 C 0.46429 0.746 0.37097 0.0
C1774 C 0.47972 0.7501 0.36799 0.0
C1775 C 0.45303 0.74442 0.3592 0.0
C1776 C 0.44406 0.75525 0.31955 0.0
H1777 H 0.3687 0.73337 0.29416 0.0
H1778 H 0.38993 0.73555 0.31316 0.0
H1779 H 0.43184 0.76219 0.29938 0.0
H1780 H 0.49531 0.7558 0.35013 0.0
H1781 H 0.47559 0.7529 0.32951 0.0
H1782 H 0.43348 0.72497 0.34091 0.0
C1783 C 0.39241 0.73742 0.30139 0.0
C1784 C 0.43216 0.75389 0.3083 0.0
C1785 C 0.38019 0.73634 0.2905 0.0
C1786 C 0.48355 0.75265 0.35287 0.0
C1787 C 0.47223 0.75105 0.34104 0.0
C1788 C 0.43322 0.73324 0.33196 0.0
C1789 C 0.40758 0.74108 0.29718 0.0
C1790 C 0.42056 0.74227 0.30883 0.0
C1791 C 0.45682 0.74684 0.34407 0.0
C1792 C 0.44466 0.74503 0.33162 0.0
H1793 H 0.40038 0.74475 0.25915 0.0
H1794 H 0.42172 0.74635 0.2781 0.0
H1795 H 0.4128 0.72262 0.32136 0.0
H1796 H 0.46082 0.74402 0.38245 0.0
H1797 H 0.44125 0.74145 0.36201 0.0
C1798 C 0.99932 0.40826 0.97416 0.0
C1799 C 0.98778 0.4076 0.9849 0.0
C1800 C 1.00185 0.39565 0.96494 0.0
C1801 C 0.98222 0.36048 0.94956 0.0
H1802 H 0.02348 0.34717 0.94339 0.0
C1803 C 0.99284 0.30069 0.92762 0.0
C1804 C 0.00511 0.29829 0.91808 0.0
C1805 C 0.99078 0.31495 0.93398 0.0
C1806 C 0.0119 0.35088 0.94476 0.0
H1807 H 0.96982 0.39316 0.99428 0.0
H1808 H 0.97427 0.37122 0.9783 0.0
H1809 H 0.02004 0.37021 0.95827 0.0
H1810 H 0.02464 0.30928 0.90745 0.0
H1811 H 0.02094 0.33436 0.91852 0.0
H1812 H 0.97401 0.3412 0.93617 0.0
C1813 C 0.98133 0.3815 0.97695 0.0
C1814 C 0.00993 0.36406 0.95334 0.0
C1815 C 0.9789 0.39402 0.98624 0.0
C1816 C 0.01505 0.31071 0.91473 0.0
C1817 C 0.01301 0.32505 0.92117 0.0
C1818 C 0.98418 0.34738 0.94094 0.0
C1819 C 0.99277 0.38217 0.96612 0.0
C1820 C 0.99504 0.36883 0.9561 0.0
C1821 C 1.00091 0.3273 0.931 0.0
C1822 C 0.99902 0.34221 0.93869 0.0
H1823 H 0.00644 0.41851 0.97292 0.0
H1824 H 0.01072 0.39656 0.95668 0.0
H1825 H 0.97061 0.36402 0.95118 0.0
H1826 H 0.98491 0.29146 0.93047 0.0
H1827 H 0.98149 0.31613 0.94165 0.0
C1828 C 0.64088 0.81136 0.27259 0.0
C1829 C 0.65459 0.80343 0.2728 0.0
C1830 C 0.62932 0.80782 0.28276 0.0
C1831 C 0.62405 0.7906 0.32011 0.0
H1832 H 0.58051 0.78771 0.30797 0.0
C1833 C 0.57927 0.76542 0.35966 0.0
C1834 C 0.56485 0.77197 0.36045 0.0
C1835 C 0.58957 0.76984 0.34867 0.0
C1836 C 0.5926 0.78868 0.3116 0.0
H1837 H 0.66678 0.78546 0.28385 0.0
H1838 H 0.64664 0.77923 0.30147 0.0
H1839 H 0.59964 0.79408 0.28918 0.0
H1840 H 0.54991 0.78825 0.35006 0.0
H1841 H 0.56812 0.79619 0.33084 0.0
H1842 H 0.61717 0.78534 0.34246 0.0
C1843 C 0.64485 0.78826 0.29349 0.0
C1844 C 0.60357 0.79229 0.30081 0.0
C1845 C 0.65634 0.79172 0.28327 0.0
C1846 C 0.56093 0.783 0.34979 0.0
C1847 C 0.57134 0.78748 0.33873 0.0
C1848 C 0.61314 0.78708 0.33086 0.0
C1849 C 0.63127 0.79636 0.29348 0.0
C1850 C 0.61945 0.79308 0.30491 0.0
C1851 C 0.58586 0.78103 0.33813 0.0
C1852 C 0.59727 0.78583 0.32673 0.0
H1853 H 0.6391 0.82035 0.26457 0.0
H1854 H 0.61904 0.81432 0.28249 0.0
H1855 H 0.63615 0.79146 0.32374 0.0
H1856 H 0.58266 0.75678 0.36756 0.0
H1857 H 0.60045 0.76434 0.34837 0.0
C1858 C 0.04594 0.10863 0.96301 0.0
C1859 C 0.04182 0.10728 0.97821 0.0
C1860 C 0.04247 0.12151 0.95471 0.0
C1861 C 0.03336 0.16171 0.95988 0.0
H1862 H 0.02166 0.15885 0.91697 0.0
C1863 C 0.01733 0.2144 0.92593 0.0
C1864 C 0.02403 0.21609 0.91178 0.0
C1865 C 0.01787 0.20068 0.93359 0.0
C1866 C 0.02501 0.15984 0.92893 0.0
H1867 H 0.03065 0.11848 0.9965 0.0
H1868 H 0.02426 0.14075 0.98194 0.0
H1869 H 0.02563 0.1358 0.93128 0.0
H1870 H 0.03609 0.20449 0.89437 0.0
H1871 H 0.03706 0.18055 0.90776 0.0
H1872 H 0.03284 0.18573 0.95751 0.0
C1873 C 0.03039 0.13193 0.97649 0.0
C1874 C 0.02731 0.14663 0.93714 0.0
C1875 C 0.0339 0.11905 0.9848 0.0
C1876 C 0.03078 0.20356 0.90523 0.0
C1877 C 0.03129 0.18981 0.91289 0.0
C1878 C 0.03101 0.1749 0.95168 0.0
C1879 C 0.03474 0.13339 0.96137 0.0
C1880 C 0.03163 0.14739 0.95271 0.0
C1881 C 0.02511 0.18829 0.92731 0.0
C1882 C 0.0269 0.17415 0.93609 0.0
H1883 H 0.05185 0.09971 0.95747 0.0
H1884 H 0.04614 0.12227 0.94316 0.0
H1885 H 0.03695 0.16278 0.97177 0.0
H1886 H 0.01205 0.2238 0.93133 0.0
H1887 H 0.01278 0.19983 0.94457 0.0
C1888 C 0.3888 0.28815 0.24208 0.0
C1889 C 0.37363 0.28239 0.23872 0.0
C1890 C 0.4001 0.28753 0.23122 0.0
C1891 C 0.40482 0.28358 0.18984 0.0
H1892 H 0.4454 0.26976 0.20132 0.0
C1893 C 0.44581 0.26305 0.14537 0.0
C1894 C 0.4618 0.26628 0.14738 0.0
C1895 C 0.43577 0.2665 0.15673 0.0
C1896 C 0.43422 0.27388 0.19795 0.0
H1897 H 0.35841 0.27178 0.22115 0.0
H1898 H 0.37806 0.27063 0.20228 0.0
H1899 H 0.4265 0.27306 0.22072 0.0
H1900 H 0.47973 0.27579 0.16302 0.0
H1901 H 0.46207 0.28198 0.18295 0.0
H1902 H 0.41242 0.28434 0.16711 0.0
C1903 C 0.38124 0.27568 0.2133 0.0
C1904 C 0.42337 0.27575 0.20908 0.0
C1905 C 0.37 0.27619 0.22417 0.0
C1906 C 0.46748 0.27316 0.16109 0.0
C1907 C 0.45737 0.27663 0.17254 0.0
C1908 C 0.41566 0.28178 0.17876 0.0
C1909 C 0.39646 0.28128 0.21669 0.0
C1910 C 0.40843 0.28036 0.20511 0.0
C1911 C 0.44136 0.27333 0.17048 0.0
C1912 C 0.43042 0.27662 0.1826 0.0
H1913 H 0.39202 0.29289 0.25321 0.0
H1914 H 0.41167 0.29204 0.23417 0.0
H1915 H 0.39355 0.28746 0.18643 0.0
H1916 H 0.44098 0.25769 0.13501 0.0
H1917 H 0.4236 0.26351 0.15481 0.0
C1918 C 0.52918 0.40843 0.04213 0.0
C1919 C 0.54013 0.40853 0.0308 0.0
C1920 C 0.52654 0.39552 0.05089 0.0
C1921 C 0.54526 0.361 0.06371 0.0
H1922 H 0.50378 0.34541 0.07096 0.0
C1923 C 0.53312 0.30017 0.0832 0.0
C1924 C 0.52116 0.29691 0.0931 0.0
C1925 C 0.53549 0.31467 0.07745 0.0
C1926 C 0.51544 0.34975 0.06929 0.0
H1927 H 0.55694 0.39514 0.01991 0.0
H1928 H 0.5523 0.37269 0.03509 0.0
H1929 H 0.50754 0.36897 0.05708 0.0
H1930 H 0.50254 0.30663 0.10501 0.0
H1931 H 0.50681 0.33216 0.09503 0.0
H1932 H 0.55323 0.34187 0.0758 0.0
C1933 C 0.54578 0.38259 0.03725 0.0
C1934 C 0.51759 0.36323 0.06129 0.0
C1935 C 0.54831 0.39541 0.02842 0.0
C1936 C 0.51188 0.30873 0.09744 0.0
C1937 C 0.51424 0.32333 0.09161 0.0
C1938 C 0.54313 0.34762 0.07176 0.0
C1939 C 0.53493 0.3825 0.04864 0.0
C1940 C 0.53253 0.36884 0.05813 0.0
C1941 C 0.52601 0.32644 0.08142 0.0
C1942 C 0.52819 0.34161 0.07438 0.0
H1943 H 0.52261 0.41832 0.04418 0.0
H1944 H 0.51814 0.39584 0.0596 0.0
H1945 H 0.55693 0.36518 0.06177 0.0
H1946 H 0.54055 0.29142 0.07958 0.0
H1947 H 0.54451 0.31652 0.06947 0.0
C1948 C 0.6474 0.22629 0.21107 0.0
C1949 C 0.64476 0.2225 0.2262 0.0
C1950 C 0.6351 0.22936 0.20099 0.0
C1951 C 0.5946 0.24055 0.19866 0.0
H1952 H 0.59467 0.22237 0.15844 0.0
C1953 C 0.54316 0.24402 0.15411 0.0
C1954 C 0.54693 0.24551 0.13883 0.0
C1955 C 0.55467 0.2415 0.16536 0.0
C1956 C 0.59453 0.22773 0.16954 0.0
H1957 H 0.62708 0.21934 0.24266 0.0
H1958 H 0.60556 0.22468 0.22498 0.0
H1959 H 0.6155 0.21768 0.17683 0.0
H1960 H 0.56591 0.24616 0.12356 0.0
H1961 H 0.58581 0.24217 0.14302 0.0
H1962 H 0.57368 0.25077 0.19125 0.0
C1963 C 0.61719 0.22529 0.22097 0.0
C1964 C 0.60649 0.225 0.18011 0.0
C1965 C 0.6295 0.2221 0.23105 0.0
C1966 C 0.5625 0.24486 0.13516 0.0
C1967 C 0.57396 0.24246 0.14635 0.0
C1968 C 0.58263 0.24338 0.18801 0.0
C1969 C 0.61983 0.22879 0.20576 0.0
C1970 C 0.60677 0.23147 0.19475 0.0
C1971 C 0.57021 0.24049 0.16157 0.0
C1972 C 0.58253 0.23712 0.17324 0.0
H1973 H 0.65897 0.22657 0.20691 0.0
H1974 H 0.63757 0.23218 0.1894 0.0
H1975 H 0.59452 0.24578 0.20983 0.0
H1976 H 0.53129 0.24445 0.15734 0.0
H1977 H 0.55133 0.23995 0.17694 0.0
C1978 C 0.49176 0.10842 0.02959 0.0
C1979 C 0.47731 0.10654 0.02176 0.0
C1980 C 0.49532 0.12125 0.03882 0.0
C1981 C 0.47635 0.15112 0.05996 0.0
H1982 H 0.51668 0.17196 0.06102 0.0
C1983 C 0.49152 0.20056 0.10199 0.0
C1984 C 0.49895 0.21345 0.09598 0.0
C1985 C 0.49026 0.18689 0.09374 0.0
C1986 C 0.50534 0.16628 0.06083 0.0
H1987 H 0.45559 0.11709 0.01697 0.0
H1988 H 0.46176 0.13934 0.033 0.0
H1989 H 0.51158 0.14973 0.04447 0.0
H1990 H 0.51134 0.22192 0.07676 0.0
H1991 H 0.50911 0.19815 0.06239 0.0
H1992 H 0.46995 0.1678 0.07599 0.0
C1993 C 0.47023 0.13076 0.0323 0.0
C1994 C 0.50247 0.15346 0.05144 0.0
C1995 C 0.46669 0.11799 0.02308 0.0
C1996 C 0.50561 0.2122 0.08179 0.0
C1997 C 0.50437 0.19853 0.07354 0.0
C1998 C 0.47923 0.16387 0.06936 0.0
C1999 C 0.4845 0.13247 0.04045 0.0
C2000 C 0.48787 0.14581 0.05078 0.0
C2001 C 0.4964 0.18578 0.07928 0.0
C2002 C 0.49373 0.1717 0.06985 0.0
H2003 H 0.50016 0.09977 0.02895 0.0
H2004 H 0.50638 0.12215 0.04502 0.0
H2005 H 0.46504 0.14539 0.05991 0.0
H2006 H 0.48631 0.2011 0.11291 0.0
H2007 H 0.48427 0.17723 0.09862 0.0
C2008 C 0.27723 0.39421 0.72103 0.0
C2009 C 0.28274 0.37951 0.72017 0.0
C2010 C 0.28751 0.40683 0.72326 0.0
C2011 C 0.32822 0.41901 0.71825 0.0
H2012 H 0.32081 0.45125 0.74688 0.0
C2013 C 0.37627 0.46288 0.73668 0.0
C2014 C 0.37266 0.47811 0.73864 0.0
C2015 C 0.36463 0.45156 0.73434 0.0
C2016 C 0.32295 0.44246 0.73868 0.0
H2017 H 0.30343 0.36663 0.7209 0.0
H2018 H 0.32125 0.38852 0.72493 0.0
H2019 H 0.30169 0.43019 0.74296 0.0
H2020 H 0.3538 0.49328 0.73989 0.0
H2021 H 0.33338 0.47344 0.73559 0.0
H2022 H 0.34938 0.43115 0.71388 0.0
C2023 C 0.309 0.39033 0.72381 0.0
C2024 C 0.312 0.43037 0.73646 0.0
C2025 C 0.29875 0.37775 0.72167 0.0
C2026 C 0.35701 0.48168 0.73842 0.0
C2027 C 0.3453 0.47029 0.73602 0.0
C2028 C 0.33909 0.43107 0.72041 0.0
C2029 C 0.30353 0.40504 0.72454 0.0
C2030 C 0.31464 0.41838 0.72638 0.0
C2031 C 0.34899 0.45509 0.7338 0.0
C2032 C 0.33676 0.44284 0.73085 0.0
H2033 H 0.26496 0.39596 0.72002 0.0
H2034 H 0.28292 0.41801 0.7237 0.0
H2035 H 0.33046 0.41015 0.71015 0.0
H2036 H 0.38815 0.4596 0.73694 0.0
H2037 H 0.36795 0.43997 0.73306 0.0
C2038 C 0.28417 0.65099 0.77248 0.0
C2039 C 0.27336 0.6489 0.78378 0.0
C2040 C 0.29466 0.63987 0.76952 0.0
C2041 C 0.30216 0.59926 0.77435 0.0
H2042 H 0.34453 0.6129 0.76838 0.0
C2043 C 0.35216 0.5578 0.76771 0.0
C2044 C 0.36309 0.56178 0.75695 0.0
C2045 C 0.34084 0.56791 0.77153 0.0
C2046 C 0.33272 0.60886 0.76985 0.0
H2047 H 0.26483 0.63321 0.8005 0.0
H2048 H 0.28323 0.61383 0.79538 0.0
H2049 H 0.32542 0.63134 0.77358 0.0
H2050 H 0.37039 0.57938 0.74153 0.0
H2051 H 0.35074 0.59667 0.74794 0.0
H2052 H 0.30952 0.57674 0.77045 0.0
C2053 C 0.28356 0.62408 0.78879 0.0
C2054 C 0.32174 0.61947 0.77284 0.0
C2055 C 0.2731 0.63525 0.79182 0.0
C2056 C 0.36228 0.57594 0.74998 0.0
C2057 C 0.35103 0.58596 0.75374 0.0
C2058 C 0.31317 0.58861 0.77129 0.0
C2059 C 0.2946 0.62634 0.77773 0.0
C2060 C 0.30629 0.61485 0.77497 0.0
C2061 C 0.34024 0.58219 0.76467 0.0
C2062 C 0.32857 0.5933 0.76881 0.0
H2063 H 0.2848 0.66139 0.76615 0.0
H2064 H 0.30287 0.64191 0.76078 0.0
H2065 H 0.29034 0.59531 0.77585 0.0
H2066 H 0.35244 0.54698 0.77329 0.0
H2067 H 0.33276 0.56466 0.78006 0.0
C2068 C 0.90004 0.46094 0.48318 0.0
C2069 C 0.8984 0.47582 0.47815 0.0
C2070 C 0.88728 0.45223 0.48777 0.0
C2071 C 0.84482 0.44833 0.48335 0.0
H2072 H 0.84947 0.42132 0.51733 0.0
C2073 C 0.79477 0.40777 0.50297 0.0
C2074 C 0.79899 0.39289 0.50599 0.0
C2075 C 0.80611 0.41927 0.50068 0.0
C2076 C 0.84799 0.42875 0.50777 0.0
H2077 H 0.88197 0.49323 0.47409 0.0
H2078 H 0.85963 0.478 0.48222 0.0
H2079 H 0.87073 0.43887 0.51138 0.0
H2080 H 0.81853 0.37858 0.50915 0.0
H2081 H 0.83804 0.39842 0.50515 0.0
H2082 H 0.82211 0.43795 0.47961 0.0
C2083 C 0.87083 0.47306 0.48252 0.0
C2084 C 0.86019 0.43881 0.50434 0.0
C2085 C 0.88366 0.48184 0.47799 0.0
C2086 C 0.81478 0.38987 0.50685 0.0
C2087 C 0.82604 0.40131 0.50467 0.0
C2088 C 0.83257 0.43824 0.48678 0.0
C2089 C 0.87249 0.45813 0.48743 0.0
C2090 C 0.8589 0.44851 0.4919 0.0
C2091 C 0.82189 0.41616 0.50153 0.0
C2092 C 0.83414 0.42808 0.49884 0.0
H2093 H 0.91124 0.45601 0.48362 0.0
H2094 H 0.88897 0.44072 0.4913 0.0
H2095 H 0.84346 0.45557 0.47362 0.0
H2096 H 0.78273 0.41051 0.50221 0.0
H2097 H 0.80254 0.43061 0.49835 0.0
C2098 C 0.74243 0.86927 0.76404 0.0
C2099 C 0.74758 0.86358 0.77809 0.0
C2100 C 0.73094 0.87983 0.76323 0.0
C2101 C 0.7127 0.90882 0.78613 0.0
H2102 H 0.6835 0.90843 0.75158 0.0
C2103 C 0.66935 0.95636 0.77679 0.0
C2104 C 0.66976 0.96262 0.76223 0.0
C2105 C 0.67627 0.94261 0.77983 0.0
C2106 C 0.69156 0.9087 0.76132 0.0
H2107 H 0.74443 0.86449 0.80233 0.0
H2108 H 0.72415 0.8828 0.80089 0.0
H2109 H 0.70064 0.88754 0.75498 0.0
H2110 H 0.6769 0.95893 0.73927 0.0
H2111 H 0.68865 0.93501 0.74447 0.0
H2112 H 0.70375 0.93016 0.79228 0.0
C2113 C 0.72917 0.87917 0.7905 0.0
C2114 C 0.70145 0.89674 0.76324 0.0
C2115 C 0.74069 0.86856 0.79131 0.0
C2116 C 0.67642 0.95444 0.75062 0.0
C2117 C 0.6831 0.94066 0.75359 0.0
C2118 C 0.70274 0.92076 0.78424 0.0
C2119 C 0.72419 0.88501 0.77644 0.0
C2120 C 0.71244 0.89683 0.77545 0.0
C2121 C 0.68346 0.93474 0.76829 0.0
C2122 C 0.69234 0.92103 0.77159 0.0
H2123 H 0.74729 0.86555 0.7536 0.0
H2124 H 0.7276 0.88419 0.75222 0.0
H2125 H 0.72108 0.90936 0.7956 0.0
H2126 H 0.66439 0.96244 0.786 0.0
H2127 H 0.67626 0.93827 0.79125 0.0
C2128 C 0.63797 0.5314 0.98371 0.0
C2129 C 0.62304 0.53703 0.98341 0.0
C2130 C 0.65099 0.54097 0.98728 0.0
C2131 C 0.66253 0.57817 0.00554 0.0
H2132 H 0.69953 0.57535 0.98272 0.0
C2133 C 0.70885 0.62654 0.00572 0.0
C2134 C 0.72456 0.62313 0.00646 0.0
C2135 C 0.6973 0.61511 1.0037 0.0
C2136 C 0.68937 0.57615 0.98934 0.0
H2137 H 0.61023 0.55728 0.9863 0.0
H2138 H 0.6328 0.57389 0.99245 0.0
H2139 H 0.67776 0.55717 0.97768 0.0
H2140 H 0.74031 0.60483 0.00551 0.0
H2141 H 0.71997 0.58474 1.00193 0.0
H2142 H 0.67397 0.59726 0.01701 0.0
C2143 C 0.63447 0.56201 0.99026 0.0
C2144 C 0.67687 0.56572 0.98646 0.0
C2145 C 0.62149 0.55246 0.98673 0.0
C2146 C 0.72836 0.60788 0.00502 0.0
C2147 C 0.71671 0.59638 1.0029 0.0
C2148 C 0.67496 0.58857 0.00838 0.0
C2149 C 0.64941 0.55641 0.99063 0.0
C2150 C 0.66318 0.56676 0.99435 0.0
C2151 C 0.70103 0.59988 1.00231 0.0
C2152 C 0.68844 0.58788 1.00014 0.0
H2153 H 0.63958 0.51954 0.98135 0.0
H2154 H 0.66227 0.53622 0.98761 0.0
H2155 H 0.65234 0.57911 0.01211 0.0
H2156 H 0.70539 0.63812 0.00672 0.0
H2157 H 0.68537 0.61826 1.00302 0.0
C2158 C 0.25152 0.63657 0.23013 0.0
C2159 C 0.24905 0.65078 0.23669 0.0
C2160 C 0.24052 0.62458 0.23109 0.0
C2161 C 0.20751 0.61161 0.25377 0.0
H2162 H 0.20057 0.58191 0.22117 0.0
C2163 C 0.16221 0.56199 0.25737 0.0
C2164 C 0.16733 0.54763 0.25355 0.0
C2165 C 0.17089 0.57514 0.25392 0.0
C2166 C 0.20243 0.59008 0.23039 0.0
H2167 H 0.23282 0.66368 0.24893 0.0
H2168 H 0.21352 0.64288 0.25042 0.0
H2169 H 0.21809 0.60388 0.2178 0.0
H2170 H 0.18539 0.53591 0.24265 0.0
H2171 H 0.20042 0.55878 0.23655 0.0
H2172 H 0.1919 0.59777 0.26637 0.0
C2173 C 0.22412 0.64085 0.24483 0.0
C2174 C 0.21251 0.60266 0.22849 0.0
C2175 C 0.23517 0.65281 0.24395 0.0
C2176 C 0.18103 0.54676 0.24568 0.0
C2177 C 0.18965 0.5599 0.24215 0.0
C2178 C 0.19737 0.59908 0.25563 0.0
C2179 C 0.22671 0.62652 0.23856 0.0
C2180 C 0.21533 0.61352 0.24022 0.0
C2181 C 0.18485 0.57424 0.24649 0.0
C2182 C 0.19482 0.58808 0.24403 0.0
H2183 H 0.26217 0.63457 0.22463 0.0
H2184 H 0.24307 0.61367 0.22634 0.0
H2185 H 0.20956 0.61955 0.26316 0.0
H2186 H 0.15171 0.56309 0.26343 0.0
H2187 H 0.16677 0.58602 0.25726 0.0
C2188 C 0.91294 0.54716 0.02421 0.0
C2189 C 0.91054 0.53329 0.03155 0.0
C2190 C 0.90063 0.55645 0.02099 0.0
C2191 C 0.85763 0.5575 0.01864 0.0
H2192 H 0.86614 0.60023 0.02729 0.0
C2193 C 0.81199 0.60369 0.00922 0.0
C2194 C 0.81193 0.61496 0.02062 0.0
C2195 C 0.82365 0.59315 0.00932 0.0
C2196 C 0.86351 0.58833 0.02487 0.0
H2197 H 0.89315 0.51814 0.04088 0.0
H2198 H 0.87167 0.53439 0.03537 0.0
H2199 H 0.88694 0.58285 0.02954 0.0
H2200 H 0.82385 0.62366 0.04129 0.0
H2201 H 0.84382 0.60539 0.04152 0.0
H2202 H 0.834 0.56307 0.01446 0.0
C2203 C 0.88306 0.53801 0.03191 0.0
C2204 C 0.87552 0.57835 0.02597 0.0
C2205 C 0.8954 0.52869 0.0351 0.0
C2206 C 0.82357 0.61526 0.03222 0.0
C2207 C 0.83513 0.6048 0.03232 0.0
C2208 C 0.84556 0.56754 0.01752 0.0
C2209 C 0.88556 0.55215 0.02507 0.0
C2210 C 0.87275 0.56278 0.02301 0.0
C2211 C 0.83548 0.59372 0.02079 0.0
C2212 C 0.84833 0.58305 0.02085 0.0
H2213 H 0.9244 0.55093 0.02106 0.0
H2214 H 0.90296 0.56709 0.0154 0.0
H2215 H 0.85509 0.54561 0.01613 0.0
H2216 H 0.80318 0.60313 1.00013 0.0
H2217 H 0.82359 0.58478 1.00024 0.0
C2218 C 0.11056 0.96461 0.0238 0.0
C2219 C 0.11321 0.9802 0.02678 0.0
C2220 C 0.12261 0.95564 0.01968 0.0
C2221 C 0.16506 0.95393 0.02227 0.0
H2222 H 0.15752 0.92174 0.99223 0.0
C2223 C 0.21283 0.9134 0.006 0.0
C2224 C 0.20817 0.89796 0.00504 0.0
C2225 C 0.20184 0.92451 0.00694 0.0
C2226 C 0.15982 0.93062 1.00071 0.0
H2227 H 0.13068 0.99855 0.02769 0.0
H2228 H 0.15173 0.98288 0.02037 0.0
H2229 H 0.13724 0.93908 0.9972 0.0
H2230 H 0.18825 0.88217 0.00387 0.0
H2231 H 0.16927 0.90137 0.00557 0.0
H2232 H 0.18755 0.94525 0.02598 0.0
C2233 C 0.14031 0.9776 0.02132 0.0
C2234 C 0.14817 0.94056 1.00357 0.0
C2235 C 0.12821 0.98661 0.02537 0.0
C2236 C 0.19229 0.89394 0.00458 0.0
C2237 C 0.18135 0.90499 0.00546 0.0
C2238 C 0.17673 0.94394 0.01942 0.0
C2239 C 0.13766 0.96198 0.01846 0.0
C2240 C 0.15053 0.95219 0.01457 0.0
C2241 C 0.18596 0.92042 0.00684 0.0
C2242 C 0.17416 0.93198 0.0088 0.0
H2243 H 0.09913 0.95932 0.0246 0.0
H2244 H 0.12016 0.94363 0.01774 0.0
H2245 H 0.16725 0.96266 0.03091 0.0
H2246 H 0.22497 0.91689 0.00639 0.0
H2247 H 0.20579 0.93629 0.00782 0.0
loop_
_geom_bond_atom_site_label_1
_geom_bond_atom_site_label_2
_geom_bond_distance
_geom_bond_site_symmetry_2
_ccdc_geom_bond_type
C0 C1 1.276 . S
C0 C5 1.428 1_455 S
C0 C10 1.503 . S
C1 C0 1.276 . S
C1 C3 1.339 1_455 S
C1 H28 0.931 . S
C2 C3 1.395 . S
C2 C4 1.320 . S
C3 C1 1.339 1_655 S
C3 C2 1.395 . S
C3 H29 0.929 . S
C4 C2 1.320 . S
C4 C5 1.405 . S
C4 H30 0.930 . S
C5 C0 1.428 1_655 S
C5 C4 1.405 . S
C5 H31 0.931 . S
U6 O7 2.454 . S
U6 O8 2.458 . S
U6 C9 2.984 . S
U6 C10 2.847 . S
U6 C23 2.882 . S
U6 O24 2.441 . S
U6 O25 2.420 . S
U6 O26 2.455 . S
U6 O27 2.449 . S
O7 U6 2.454 . S
O7 C9 1.353 . S
O8 U6 2.458 . S
O8 C9 1.286 . S
C9 U6 2.984 . S
C9 O7 1.353 . S
C9 O8 1.286 . S
C9 C11 1.363 1_554 S
C10 C0 1.503 . S
C10 U6 2.847 . S
C10 O24 1.249 . S
C10 O25 1.202 . S
C11 C9 1.363 1_556 S
C11 C13 1.417 . S
C11 C16 1.342 . S
C12 C13 1.342 . S
C12 C15 1.461 . S
C12 H32 0.932 . S
C13 C11 1.417 . S
C13 C12 1.342 . S
C13 H33 0.892 1_556 S
C14 C15 1.474 . S
C14 C16 1.285 . S
C14 H34 0.929 . S
C15 C12 1.461 . S
C15 C14 1.474 . S
C16 C11 1.342 . S
C16 C14 1.285 . S
C16 H35 0.930 . S
C17 C20 1.424 1_545 S
C17 C22 1.245 . S
C17 C23 1.428 . S
C18 C21 1.260 . S
C18 C22 1.477 1_565 S
C18 H36 0.890 1_554 S
C19 C20 1.384 . S
C19 C21 1.479 . S
C19 H37 0.929 . S
C20 C17 1.424 1_565 S
C20 C19 1.384 . S
C20 H38 0.928 . S
C21 C18 1.260 . S
C21 C19 1.479 . S
C22 C17 1.245 . S
C22 C18 1.477 1_545 S
C22 H39 0.932 . S
C23 U6 2.882 . S
C23 C17 1.428 . S
C23 O26 1.301 . S
C23 O27 1.282 . S
O24 U6 2.441 . S
O24 C10 1.249 . S
O25 U6 2.420 . S
O25 C10 1.202 . S
O26 U6 2.455 . S
O26 C23 1.301 . S
O27 U6 2.449 . S
O27 C23 1.282 . S
H28 C1 0.931 . S
H29 C3 0.929 . S
H30 C4 0.930 . S
H31 C5 0.931 . S
H32 C12 0.932 . S
H33 C13 0.892 1_554 S
H34 C14 0.929 . S
H35 C16 0.930 . S
H36 C18 0.890 1_556 S
H37 C19 0.929 . S
H38 C20 0.928 . S
H39 C22 0.932 . S
C40 C41 1.264 . S
C40 C45 1.479 . S
C40 C50 1.465 . S
C41 C40 1.264 . S
C41 C43 1.339 . S
C41 H68 0.931 . S
C42 C43 1.395 . S
C42 C44 1.320 . S
C43 C41 1.339 . S
C43 C42 1.395 . S
C43 H69 0.929 . S
C44 C42 1.320 . S
C44 C45 1.405 . S
C44 H70 0.930 . S
C45 C40 1.479 . S
C45 C44 1.405 . S
C45 H71 0.931 . S
U46 O47 2.454 . S
U46 O48 2.458 . S
U46 C49 2.984 . S
U46 C50 2.847 . S
U46 C63 2.882 . S
U46 O64 2.441 . S
U46 O65 2.420 . S
U46 O66 2.455 . S
U46 O67 2.449 . S
O47 U46 2.454 . S
O47 C49 1.353 . S
O48 U46 2.458 . S
O48 C49 1.286 . S
C49 U46 2.984 . S
C49 O47 1.353 . S
C49 O48 1.286 . S
C49 C51 1.363 . S
C50 C40 1.465 . S
C50 U46 2.847 . S
C50 O64 1.249 . S
C50 O65 1.202 . S
C51 C49 1.363 . S
C51 C53 1.408 . S
C51 C56 1.342 . S
C52 C53 1.310 . S
C52 C55 1.461 . S
C52 H72 0.932 . S
C53 C51 1.408 . S
C53 C52 1.310 . S
C53 H73 0.930 . S
C54 C55 1.474 . S
C54 C56 1.285 . S
C54 H74 0.929 . S
C55 C52 1.461 . S
C55 C54 1.474 . S
C56 C51 1.342 . S
C56 C54 1.285 . S
C56 H75 0.930 . S
C57 C60 1.424 . S
C57 C62 1.245 . S
C57 C63 1.428 . S
C58 C61 1.260 . S
C58 C62 1.477 . S
C58 H76 0.932 . S
C59 C60 1.384 . S
C59 C61 1.479 . S
C59 H77 0.929 . S
C60 C57 1.424 . S
C60 C59 1.384 . S
C60 H78 0.928 . S
C61 C58 1.260 . S
C61 C59 1.479 . S
C62 C57 1.245 . S
C62 C58 1.477 . S
C62 H79 0.932 . S
C63 U46 2.882 . S
C63 C57 1.428 . S
C63 O66 1.301 . S
C63 O67 1.282 . S
O64 U46 2.441 . S
O64 C50 1.249 . S
O65 U46 2.420 . S
O65 C50 1.202 . S
O66 U46 2.455 . S
O66 C63 1.301 . S
O67 U46 2.449 . S
O67 C63 1.282 . S
H68 C41 0.931 . S
H69 C43 0.929 . S
H70 C44 0.930 . S
H71 C45 0.931 . S
H72 C52 0.932 . S
H73 C53 0.930 . S
H74 C54 0.929 . S
H75 C56 0.930 . S
H76 C58 0.932 . S
H77 C59 0.929 . S
H78 C60 0.928 . S
H79 C62 0.932 . S
C80 C81 1.264 1_655 S
C80 C85 1.479 1_554 S
C80 C90 1.465 . S
C81 C80 1.264 1_455 S
C81 C83 1.339 . S
C81 H108 0.931 . S
C82 C83 1.395 1_656 S
C82 C84 1.320 . S
C83 C81 1.339 . S
C83 C82 1.395 1_454 S
C83 H109 0.929 . S
C84 C82 1.320 . S
C84 C85 1.405 . S
C84 H110 0.930 . S
C85 C80 1.479 1_556 S
C85 C84 1.405 . S
C85 H111 0.931 . S
U86 O87 2.454 . S
U86 O88 2.458 . S
U86 C89 2.984 . S
U86 C90 2.847 . S
U86 C103 2.882 1_655 S
U86 O104 2.441 . S
U86 O105 2.420 . S
U86 O106 2.455 . S
U86 O107 2.449 1_655 S
O87 U86 2.454 . S
O87 C89 1.353 . S
O88 U86 2.458 . S
O88 C89 1.286 . S
C89 U86 2.984 . S
C89 O87 1.353 . S
C89 O88 1.286 . S
C89 C91 1.363 . S
C90 C80 1.465 . S
C90 U86 2.847 . S
C90 O104 1.249 . S
C90 O105 1.202 . S
C91 C89 1.363 . S
C91 C93 1.408 . S
C91 C96 1.342 . S
C92 C93 1.310 . S
C92 C95 1.461 . S
C92 H112 0.932 . S
C93 C91 1.408 . S
C93 C92 1.310 . S
C93 H113 0.930 . S
C94 C95 1.474 . S
C94 C96 1.285 . S
C94 H114 0.929 . S
C95 C92 1.461 . S
C95 C94 1.474 . S
C96 C91 1.342 . S
C96 C94 1.285 . S
C96 H115 0.930 . S
C97 C100 1.424 . S
C97 C102 1.245 . S
C97 C103 1.428 . S
C98 C101 1.260 . S
C98 C102 1.477 . S
C98 H116 0.932 . S
C99 C100 1.384 . S
C99 C101 1.479 . S
C99 H117 0.929 . S
C100 C97 1.424 . S
C100 C99 1.384 . S
C100 H118 0.928 . S
C101 C98 1.260 . S
C101 C99 1.479 . S
C102 C97 1.245 . S
C102 C98 1.477 . S
C102 H119 0.961 . S
C103 U86 2.882 1_455 S
C103 C97 1.428 . S
C103 O106 1.301 1_455 S
C103 O107 1.282 . S
O104 U86 2.441 . S
O104 C90 1.249 . S
O105 U86 2.420 . S
O105 C90 1.202 . S
O106 U86 2.455 . S
O106 C103 1.301 1_655 S
O107 U86 2.449 1_455 S
O107 C103 1.282 . S
H108 C81 0.931 . S
H109 C83 0.929 . S
H110 C84 0.930 . S
H111 C85 0.931 . S
H112 C92 0.932 . S
H113 C93 0.930 . S
H114 C94 0.929 . S
H115 C96 0.930 . S
H116 C98 0.932 . S
H117 C99 0.929 . S
H118 C100 0.928 . S
H119 C102 0.961 . S
C120 C121 1.264 . S
C120 C125 1.479 . S
C120 C130 1.465 . S
C121 C120 1.264 . S
C121 C123 1.339 . S
C121 H148 0.931 . S
C122 C123 1.395 . S
C122 C124 1.320 . S
C123 C121 1.339 . S
C123 C122 1.395 . S
C123 H149 0.929 . S
C124 C122 1.320 . S
C124 C125 1.405 . S
C124 H150 0.930 . S
C125 C120 1.479 . S
C125 C124 1.405 . S
C125 H151 0.931 . S
U126 O127 2.454 . S
U126 O128 2.458 . S
U126 C129 2.984 . S
U126 C130 2.847 . S
U126 C143 2.882 . S
U126 O144 2.441 . S
U126 O145 2.420 . S
U126 O146 2.455 . S
U126 O147 2.449 . S
O127 U126 2.454 . S
O127 C129 1.353 . S
O128 U126 2.458 . S
O128 C129 1.286 . S
C129 U126 2.984 . S
C129 O127 1.353 . S
C129 O128 1.286 . S
C129 C131 1.363 . S
C130 C120 1.465 . S
C130 U126 2.847 . S
C130 O144 1.249 . S
C130 O145 1.202 . S
C131 C129 1.363 . S
C131 C133 1.408 . S
C131 C136 1.342 . S
C132 C133 1.310 . S
C132 C135 1.461 . S
C132 H152 0.932 . S
C133 C131 1.408 . S
C133 C132 1.310 . S
C133 H153 0.930 . S
C134 C135 1.474 . S
C134 C136 1.285 . S
C134 H154 0.929 . S
C135 C132 1.461 . S
C135 C134 1.474 . S
C136 C131 1.342 . S
C136 C134 1.285 . S
C136 H155 0.930 . S
C137 C140 1.424 . S
C137 C142 1.245 . S
C137 C143 1.428 . S
C138 C141 1.260 . S
C138 C142 1.477 . S
C138 H156 0.932 . S
C139 C140 1.384 . S
C139 C141 1.479 . S
C139 H157 0.929 . S
C140 C137 1.424 . S
C140 C139 1.384 . S
C140 H158 0.928 . S
C141 C138 1.260 . S
C141 C139 1.479 . S
C142 C137 1.245 . S
C142 C138 1.477 . S
C142 H159 0.932 . S
C143 U126 2.882 . S
C143 C137 1.428 . S
C143 O146 1.301 . S
C143 O147 1.282 . S
O144 U126 2.441 . S
O144 C130 1.249 . S
O145 U126 2.420 . S
O145 C130 1.202 . S
O146 U126 2.455 . S
O146 C143 1.301 . S
O147 U126 2.449 . S
O147 C143 1.282 . S
H148 C121 0.931 . S
H149 C123 0.929 . S
H150 C124 0.930 . S
H151 C125 0.931 . S
H152 C132 0.932 . S
H153 C133 0.930 . S
H154 C134 0.929 . S
H155 C136 0.930 . S
H156 C138 0.932 . S
H157 C139 0.929 . S
H158 C140 0.928 . S
H159 C142 0.932 . S
C160 C161 1.264 . S
C160 C165 1.479 . S
C160 C170 1.465 . S
C161 C160 1.264 . S
C161 C163 1.339 . S
C161 H188 0.931 1_565 S
C162 C163 1.426 . S
C162 C164 1.310 1_455 S
C163 C161 1.339 . S
C163 C162 1.426 . S
C163 H189 0.929 1_565 S
C164 C162 1.310 1_655 S
C164 C165 1.405 1_655 S
C164 H190 0.930 . S
C165 C160 1.479 . S
C165 C164 1.405 1_455 S
C165 H191 0.949 . S
U166 O167 2.454 . S
U166 O168 2.458 . S
U166 C169 2.984 . S
U166 C170 2.847 . S
U166 C183 2.882 . S
U166 O184 2.441 . S
U166 O185 2.420 . S
U166 O186 2.455 . S
U166 O187 2.502 . S
O167 U166 2.454 . S
O167 C169 1.353 . S
O168 U166 2.458 . S
O168 C169 1.286 . S
C169 U166 2.984 . S
C169 O167 1.353 . S
C169 O168 1.286 . S
C169 C171 1.363 . S
C170 C160 1.465 . S
C170 U166 2.847 . S
C170 O184 1.249 . S
C170 O185 1.202 . S
C171 C169 1.363 . S
C171 C173 1.408 . S
C171 C176 1.342 . S
C172 C173 1.310 . S
C172 C175 1.461 . S
C172 H192 0.932 . S
C173 C171 1.408 . S
C173 C172 1.310 . S
C173 H193 0.930 . S
C174 C175 1.474 . S
C174 C176 1.285 . S
C174 H194 0.929 . S
C175 C172 1.461 . S
C175 C174 1.474 . S
C176 C171 1.342 . S
C176 C174 1.285 . S
C176 H195 0.930 . S
C177 C180 1.424 . S
C177 C182 1.245 . S
C177 C183 1.428 1_545 S
C178 C181 1.260 . S
C178 C182 1.477 . S
C178 H196 0.932 . S
C179 C180 1.384 . S
C179 C181 1.479 . S
C179 H197 0.929 . S
C180 C177 1.424 . S
C180 C179 1.384 . S
C180 H198 0.928 . S
C181 C178 1.260 . S
C181 C179 1.479 . S
C182 C177 1.245 . S
C182 C178 1.477 . S
C182 H199 0.932 1_545 S
C183 U166 2.882 . S
C183 C177 1.428 1_565 S
C183 O186 1.301 . S
C183 O187 1.299 . S
O184 U166 2.441 . S
O184 C170 1.249 . S
O185 U166 2.420 . S
O185 C170 1.202 . S
O186 U166 2.455 . S
O186 C183 1.301 . S
O187 U166 2.502 . S
O187 C183 1.299 . S
H188 C161 0.931 1_545 S
H189 C163 0.929 1_545 S
H190 C164 0.930 . S
H191 C165 0.949 . S
H192 C172 0.932 . S
H193 C173 0.930 . S
H194 C174 0.929 . S
H195 C176 0.930 . S
H196 C178 0.932 . S
H197 C179 0.929 . S
H198 C180 0.928 . S
H199 C182 0.932 1_565 S
C200 C201 1.264 . S
C200 C205 1.479 . S
C200 C210 1.465 . S
C201 C200 1.264 . S
C201 C203 1.339 . S
C201 H228 0.931 . S
C202 C203 1.395 . S
C202 C204 1.320 . S
C203 C201 1.339 . S
C203 C202 1.395 . S
C203 H229 0.929 . S
C204 C202 1.320 . S
C204 C205 1.405 . S
C204 H230 0.930 . S
C205 C200 1.479 . S
C205 C204 1.405 . S
C205 H231 0.931 . S
U206 O207 2.454 . S
U206 O208 2.458 . S
U206 C209 2.984 . S
U206 C210 2.847 . S
U206 C223 2.882 . S
U206 O224 2.441 . S
U206 O225 2.420 . S
U206 O226 2.455 . S
U206 O227 2.449 . S
O207 U206 2.454 . S
O207 C209 1.353 . S
O208 U206 2.458 . S
O208 C209 1.286 . S
C209 U206 2.984 . S
C209 O207 1.353 . S
C209 O208 1.286 . S
C209 C211 1.363 . S
C210 C200 1.465 . S
C210 U206 2.847 . S
C210 O224 1.249 . S
C210 O225 1.202 . S
C211 C209 1.363 . S
C211 C213 1.408 . S
C211 C216 1.342 . S
C212 C213 1.310 . S
C212 C215 1.461 . S
C212 H232 0.932 . S
C213 C211 1.408 . S
C213 C212 1.310 . S
C213 H233 0.930 . S
C214 C215 1.474 . S
C214 C216 1.285 . S
C214 H234 0.929 . S
C215 C212 1.461 . S
C215 C214 1.474 . S
C216 C211 1.342 . S
C216 C214 1.285 . S
C216 H235 0.930 . S
C217 C220 1.424 . S
C217 C222 1.245 . S
C217 C223 1.428 . S
C218 C221 1.260 . S
C218 C222 1.477 . S
C218 H236 0.932 . S
C219 C220 1.384 . S
C219 C221 1.479 . S
C219 H237 0.929 . S
C220 C217 1.424 . S
C220 C219 1.384 . S
C220 H238 0.928 . S
C221 C218 1.260 . S
C221 C219 1.479 . S
C222 C217 1.245 . S
C222 C218 1.477 . S
C222 H239 0.932 . S
C223 U206 2.882 . S
C223 C217 1.428 . S
C223 O226 1.301 . S
C223 O227 1.282 . S
O224 U206 2.441 . S
O224 C210 1.249 . S
O225 U206 2.420 . S
O225 C210 1.202 . S
O226 U206 2.455 . S
O226 C223 1.301 . S
O227 U206 2.449 . S
O227 C223 1.282 . S
H228 C201 0.931 . S
H229 C203 0.929 . S
H230 C204 0.930 . S
H231 C205 0.931 . S
H232 C212 0.932 . S
H233 C213 0.930 . S
H234 C214 0.929 . S
H235 C216 0.930 . S
H236 C218 0.932 . S
H237 C219 0.929 . S
H238 C220 0.928 . S
H239 C222 0.932 . S
C240 C241 1.264 . S
C240 C245 1.479 . S
C240 C250 1.465 . S
C241 C240 1.264 . S
C241 C243 1.339 . S
C241 H268 0.931 . S
C242 C243 1.395 . S
C242 C244 1.320 . S
C243 C241 1.339 . S
C243 C242 1.395 . S
C243 H269 0.872 1_655 S
C244 C242 1.320 . S
C244 C245 1.405 . S
C244 H270 0.930 . S
C245 C240 1.479 . S
C245 C244 1.405 . S
C245 H271 0.931 . S
U246 O247 2.454 . S
U246 O248 2.458 . S
U246 C249 2.984 . S
U246 C250 2.847 . S
U246 C263 2.882 . S
U246 O264 2.441 . S
U246 O265 2.420 . S
U246 O266 2.455 . S
U246 O267 2.449 . S
O247 U246 2.454 . S
O247 C249 1.353 . S
O248 U246 2.458 . S
O248 C249 1.286 . S
C249 U246 2.984 . S
C249 O247 1.353 . S
C249 O248 1.286 . S
C249 C251 1.363 . S
C250 C240 1.465 . S
C250 U246 2.847 . S
C250 O264 1.249 . S
C250 O265 1.202 . S
C251 C249 1.363 . S
C251 C253 1.408 . S
C251 C256 1.342 . S
C252 C253 1.310 . S
C252 C255 1.461 . S
C252 H272 0.932 . S
C253 C251 1.408 . S
C253 C252 1.310 . S
C253 H273 0.930 . S
C254 C255 1.474 . S
C254 C256 1.285 . S
C254 H274 0.929 . S
C255 C252 1.461 . S
C255 C254 1.474 . S
C256 C251 1.342 . S
C256 C254 1.285 . S
C256 H275 0.930 . S
C257 C260 1.464 . S
C257 C262 1.238 1_455 S
C257 C263 1.392 1_455 S
C258 C261 1.260 . S
C258 C262 1.477 1_455 S
C258 H276 0.932 . S
C259 C260 1.384 . S
C259 C261 1.479 . S
C259 H277 0.929 . S
C260 C257 1.464 . S
C260 C259 1.384 . S
C260 H278 0.928 . S
C261 C258 1.260 . S
C261 C259 1.479 . S
C262 C257 1.238 1_655 S
C262 C258 1.477 1_655 S
C262 H279 0.932 . S
C263 U246 2.882 . S
C263 C257 1.392 1_655 S
C263 O266 1.301 . S
C263 O267 1.282 . S
O264 U246 2.441 . S
O264 C250 1.249 . S
O265 U246 2.420 . S
O265 C250 1.202 . S
O266 U246 2.455 . S
O266 C263 1.301 . S
O267 U246 2.449 . S
O267 C263 1.282 . S
H268 C241 0.931 . S
H269 C243 0.872 1_455 S
H270 C244 0.930 . S
H271 C245 0.931 . S
H272 C252 0.932 . S
H273 C253 0.930 . S
H274 C254 0.929 . S
H275 C256 0.930 . S
H276 C258 0.932 . S
H277 C259 0.929 . S
H278 C260 0.928 . S
H279 C262 0.932 . S
C280 C281 1.264 . S
C280 C285 1.479 . S
C280 C290 1.465 . S
C281 C280 1.264 . S
C281 C283 1.339 . S
C281 H308 0.931 . S
C282 C283 1.395 . S
C282 C284 1.320 . S
C283 C281 1.339 . S
C283 C282 1.395 . S
C283 H309 0.929 . S
C284 C282 1.320 . S
C284 C285 1.405 . S
C284 H310 0.930 . S
C285 C280 1.479 . S
C285 C284 1.405 . S
C285 H311 0.931 . S
U286 O287 2.454 . S
U286 O288 2.458 . S
U286 C289 2.984 . S
U286 C290 2.847 . S
U286 C303 2.882 . S
U286 O304 2.441 . S
U286 O305 2.420 . S
U286 O306 2.455 . S
U286 O307 2.449 . S
O287 U286 2.454 . S
O287 C289 1.353 . S
O288 U286 2.458 . S
O288 C289 1.286 . S
C289 U286 2.984 . S
C289 O287 1.353 . S
C289 O288 1.286 . S
C289 C291 1.363 . S
C290 C280 1.465 . S
C290 U286 2.847 . S
C290 O304 1.249 . S
C290 O305 1.202 . S
C291 C289 1.363 . S
C291 C293 1.408 . S
C291 C296 1.342 . S
C292 C293 1.310 . S
C292 C295 1.461 . S
C292 H312 0.932 . S
C293 C291 1.408 . S
C293 C292 1.310 . S
C293 H313 0.930 . S
C294 C295 1.474 . S
C294 C296 1.285 . S
C294 H314 0.929 . S
C295 C292 1.461 . S
C295 C294 1.474 . S
C296 C291 1.342 . S
C296 C294 1.285 . S
C296 H315 0.930 . S
C297 C300 1.424 . S
C297 C302 1.245 . S
C297 C303 1.428 . S
C298 C301 1.260 . S
C298 C302 1.477 . S
C298 H316 0.932 . S
C299 C300 1.384 . S
C299 C301 1.479 . S
C299 H317 0.929 . S
C300 C297 1.424 . S
C300 C299 1.384 . S
C300 H318 0.928 . S
C301 C298 1.260 . S
C301 C299 1.479 . S
C302 C297 1.245 . S
C302 C298 1.477 . S
C302 H319 0.932 . S
C303 U286 2.882 . S
C303 C297 1.428 . S
C303 O306 1.301 . S
C303 O307 1.282 . S
O304 U286 2.441 . S
O304 C290 1.249 . S
O305 U286 2.420 . S
O305 C290 1.202 . S
O306 U286 2.455 . S
O306 C303 1.301 . S
O307 U286 2.449 . S
O307 C303 1.282 . S
H308 C281 0.931 . S
H309 C283 0.929 . S
H310 C284 0.930 . S
H311 C285 0.931 . S
H312 C292 0.932 . S
H313 C293 0.930 . S
H314 C294 0.929 . S
H315 C296 0.930 . S
H316 C298 0.932 . S
H317 C299 0.929 . S
H318 C300 0.928 . S
H319 C302 0.932 . S
C320 C321 1.264 . S
C320 C325 1.479 . S
C320 C330 1.465 . S
C321 C320 1.264 . S
C321 C323 1.339 . S
C321 H348 0.931 . S
C322 C323 1.395 . S
C322 C324 1.320 . S
C323 C321 1.339 . S
C323 C322 1.395 . S
C323 H349 0.929 . S
C324 C322 1.320 . S
C324 C325 1.405 . S
C324 H350 0.930 . S
C325 C320 1.479 . S
C325 C324 1.405 . S
C325 H351 0.931 . S
U326 O327 2.454 . S
U326 O328 2.458 . S
U326 C329 2.984 . S
U326 C330 2.847 . S
U326 C343 2.882 . S
U326 O344 2.441 . S
U326 O345 2.420 . S
U326 O346 2.455 . S
U326 O347 2.449 . S
O327 U326 2.454 . S
O327 C329 1.353 . S
O328 U326 2.458 . S
O328 C329 1.286 . S
C329 U326 2.984 . S
C329 O327 1.353 . S
C329 O328 1.286 . S
C329 C331 1.363 . S
C330 C320 1.465 . S
C330 U326 2.847 . S
C330 O344 1.249 . S
C330 O345 1.202 . S
C331 C329 1.363 . S
C331 C333 1.408 . S
C331 C336 1.342 . S
C332 C333 1.310 . S
C332 C335 1.461 . S
C332 H352 0.932 . S
C333 C331 1.408 . S
C333 C332 1.310 . S
C333 H353 0.930 . S
C334 C335 1.474 . S
C334 C336 1.285 . S
C334 H354 0.929 . S
C335 C332 1.461 . S
C335 C334 1.474 . S
C336 C331 1.342 . S
C336 C334 1.285 . S
C336 H355 0.930 . S
C337 C340 1.424 . S
C337 C342 1.245 . S
C337 C343 1.428 . S
C338 C341 1.260 . S
C338 C342 1.477 . S
C338 H356 0.932 . S
C339 C340 1.384 . S
C339 C341 1.479 . S
C339 H357 0.929 . S
C340 C337 1.424 . S
C340 C339 1.384 . S
C340 H358 0.928 . S
C341 C338 1.260 . S
C341 C339 1.479 . S
C342 C337 1.245 . S
C342 C338 1.477 . S
C342 H359 0.932 . S
C343 U326 2.882 . S
C343 C337 1.428 . S
C343 O346 1.301 . S
C343 O347 1.282 . S
O344 U326 2.441 . S
O344 C330 1.249 . S
O345 U326 2.420 . S
O345 C330 1.202 . S
O346 U326 2.455 . S
O346 C343 1.301 . S
O347 U326 2.449 . S
O347 C343 1.282 . S
H348 C321 0.931 . S
H349 C323 0.929 . S
H350 C324 0.930 . S
H351 C325 0.931 . S
H352 C332 0.932 . S
H353 C333 0.930 . S
H354 C334 0.929 . S
H355 C336 0.930 . S
H356 C338 0.932 . S
H357 C339 0.929 . S
H358 C340 0.928 . S
H359 C342 0.932 . S
C360 C361 1.264 . S
C360 C365 1.479 . S
C360 C370 1.465 . S
C361 C360 1.264 . S
C361 C363 1.339 . S
C361 H388 0.931 . S
C362 C363 1.395 . S
C362 C364 1.320 . S
C363 C361 1.339 . S
C363 C362 1.395 . S
C363 H389 0.929 . S
C364 C362 1.320 . S
C364 C365 1.405 . S
C364 H390 0.930 . S
C365 C360 1.479 . S
C365 C364 1.405 . S
C365 H391 0.931 . S
U366 O367 2.454 . S
U366 O368 2.458 . S
U366 C369 2.984 . S
U366 C370 2.847 . S
U366 C383 2.882 . S
U366 O384 2.441 . S
U366 O385 2.420 . S
U366 O386 2.455 . S
U366 O387 2.449 . S
O367 U366 2.454 . S
O367 C369 1.353 . S
O368 U366 2.458 . S
O368 C369 1.286 . S
C369 U366 2.984 . S
C369 O367 1.353 . S
C369 O368 1.286 . S
C369 C371 1.363 . S
C370 C360 1.465 . S
C370 U366 2.847 . S
C370 O384 1.249 . S
C370 O385 1.202 . S
C371 C369 1.363 . S
C371 C373 1.408 . S
C371 C376 1.342 1_565 S
C372 C373 1.310 1_545 S
C372 C375 1.461 . S
C372 H392 0.932 . S
C373 C371 1.408 . S
C373 C372 1.310 1_565 S
C373 H393 0.930 . S
C374 C375 1.474 . S
C374 C376 1.285 . S
C374 H394 0.929 . S
C375 C372 1.461 . S
C375 C374 1.474 . S
C376 C371 1.342 1_545 S
C376 C374 1.285 . S
C376 H395 0.930 . S
C377 C380 1.424 . S
C377 C382 1.245 . S
C377 C383 1.428 . S
C378 C381 1.260 . S
C378 C382 1.477 . S
C378 H396 0.932 . S
C379 C380 1.384 . S
C379 C381 1.479 . S
C379 H397 0.929 . S
C380 C377 1.424 . S
C380 C379 1.384 . S
C380 H398 0.928 . S
C381 C378 1.260 . S
C381 C379 1.479 . S
C382 C377 1.245 . S
C382 C378 1.477 . S
C382 H399 0.932 . S
C383 U366 2.882 . S
C383 C377 1.428 . S
C383 O386 1.301 . S
C383 O387 1.282 . S
O384 U366 2.441 . S
O384 C370 1.249 . S
O385 U366 2.420 . S
O385 C370 1.202 . S
O386 U366 2.455 . S
O386 C383 1.301 . S
O387 U366 2.449 . S
O387 C383 1.282 . S
H388 C361 0.931 . S
H389 C363 0.929 . S
H390 C364 0.930 . S
H391 C365 0.931 . S
H392 C372 0.932 . S
H393 C373 0.930 . S
H394 C374 0.929 . S
H395 C376 0.930 . S
H396 C378 0.932 . S
H397 C379 0.929 . S
H398 C380 0.928 . S
H399 C382 0.932 . S
C400 C401 1.264 . S
C400 C405 1.479 . S
C400 C410 1.465 . S
C401 C400 1.264 . S
C401 C403 1.339 . S
C401 H428 0.931 . S
C402 C403 1.395 . S
C402 C404 1.320 . S
C403 C401 1.339 . S
C403 C402 1.395 . S
C403 H429 0.929 . S
C404 C402 1.320 . S
C404 C405 1.405 . S
C404 H430 0.930 . S
C405 C400 1.479 . S
C405 C404 1.405 . S
C405 H431 0.931 . S
U406 O407 2.454 . S
U406 O408 2.458 . S
U406 C409 2.984 . S
U406 C410 2.847 . S
U406 C423 2.882 . S
U406 O424 2.441 . S
U406 O425 2.420 . S
U406 O426 2.455 . S
U406 O427 2.449 . S
O407 U406 2.454 . S
O407 C409 1.353 . S
O408 U406 2.458 . S
O408 C409 1.286 . S
C409 U406 2.984 . S
C409 O407 1.353 . S
C409 O408 1.286 . S
C409 C411 1.363 . S
C410 C400 1.465 . S
C410 U406 2.847 . S
C410 O424 1.249 . S
C410 O425 1.202 . S
C411 C409 1.363 . S
C411 C413 1.408 . S
C411 C416 1.342 . S
C412 C413 1.310 . S
C412 C415 1.461 . S
C412 H432 0.932 . S
C413 C411 1.408 . S
C413 C412 1.310 . S
C413 H433 0.930 . S
C414 C415 1.474 . S
C414 C416 1.285 . S
C414 H434 0.929 . S
C415 C412 1.461 . S
C415 C414 1.474 . S
C416 C411 1.342 . S
C416 C414 1.285 . S
C416 H435 0.930 . S
C417 C420 1.424 . S
C417 C422 1.245 . S
C417 C423 1.428 . S
C418 C421 1.260 . S
C418 C422 1.477 . S
C418 H436 0.932 . S
C419 C420 1.384 . S
C419 C421 1.479 . S
C419 H437 0.929 . S
C420 C417 1.424 . S
C420 C419 1.384 . S
C420 H438 0.928 . S
C421 C418 1.260 . S
C421 C419 1.479 . S
C422 C417 1.245 . S
C422 C418 1.477 . S
C422 H439 0.932 . S
C423 U406 2.882 . S
C423 C417 1.428 . S
C423 O426 1.301 . S
C423 O427 1.282 . S
O424 U406 2.441 . S
O424 C410 1.249 . S
O425 U406 2.420 . S
O425 C410 1.202 . S
O426 U406 2.455 . S
O426 C423 1.301 . S
O427 U406 2.449 . S
O427 C423 1.282 . S
H428 C401 0.931 . S
H429 C403 0.929 . S
H430 C404 0.930 . S
H431 C405 0.931 . S
H432 C412 0.932 . S
H433 C413 0.930 . S
H434 C414 0.929 . S
H435 C416 0.930 . S
H436 C418 0.932 . S
H437 C419 0.929 . S
H438 C420 0.928 . S
H439 C422 0.932 . S
C440 C441 1.264 . S
C440 C445 1.479 . S
C440 C450 1.465 . S
C441 C440 1.264 . S
C441 C443 1.339 . S
C441 H468 0.931 . S
C442 C443 1.395 . S
C442 C444 1.320 . S
C443 C441 1.339 . S
C443 C442 1.395 . S
C443 H469 0.929 . S
C444 C442 1.320 . S
C444 C445 1.405 . S
C444 H470 0.930 . S
C445 C440 1.479 . S
C445 C444 1.405 . S
C445 H471 0.931 . S
U446 O447 2.454 . S
U446 O448 2.458 . S
U446 C449 2.984 . S
U446 C450 2.847 . S
U446 C463 2.882 . S
U446 O464 2.441 . S
U446 O465 2.420 . S
U446 O466 2.455 . S
U446 O467 2.449 . S
O447 U446 2.454 . S
O447 C449 1.353 . S
O448 U446 2.458 . S
O448 C449 1.286 . S
C449 U446 2.984 . S
C449 O447 1.353 . S
C449 O448 1.286 . S
C449 C451 1.363 . S
C450 C440 1.465 . S
C450 U446 2.847 . S
C450 O464 1.249 . S
C450 O465 1.202 . S
C451 C449 1.363 . S
C451 C453 1.408 . S
C451 C456 1.342 . S
C452 C453 1.310 . S
C452 C455 1.461 . S
C452 H472 0.932 . S
C453 C451 1.408 . S
C453 C452 1.310 . S
C453 H473 0.930 . S
C454 C455 1.474 . S
C454 C456 1.285 . S
C454 H474 0.929 . S
C455 C452 1.461 . S
C455 C454 1.474 . S
C456 C451 1.342 . S
C456 C454 1.285 . S
C456 H475 0.930 . S
C457 C460 1.424 . S
C457 C462 1.245 . S
C457 C463 1.428 . S
C458 C461 1.260 . S
C458 C462 1.477 . S
C458 H476 0.932 . S
C459 C460 1.384 . S
C459 C461 1.479 . S
C459 H477 0.929 . S
C460 C457 1.424 . S
C460 C459 1.384 . S
C460 H478 0.928 . S
C461 C458 1.260 . S
C461 C459 1.479 . S
C462 C457 1.245 . S
C462 C458 1.477 . S
C462 H479 0.932 . S
C463 U446 2.882 . S
C463 C457 1.428 . S
C463 O466 1.301 . S
C463 O467 1.282 . S
O464 U446 2.441 . S
O464 C450 1.249 . S
O465 U446 2.420 . S
O465 C450 1.202 . S
O466 U446 2.455 . S
O466 C463 1.301 . S
O467 U446 2.449 . S
O467 C463 1.282 . S
H468 C441 0.931 . S
H469 C443 0.929 . S
H470 C444 0.930 . S
H471 C445 0.931 . S
H472 C452 0.932 . S
H473 C453 0.930 . S
H474 C454 0.929 . S
H475 C456 0.930 . S
H476 C458 0.932 . S
H477 C459 0.929 . S
H478 C460 0.928 . S
H479 C462 0.932 . S
C480 C481 1.264 . S
C480 C485 1.479 . S
C480 C490 1.465 . S
C481 C480 1.264 . S
C481 C483 1.339 . S
C481 H508 0.931 . S
C482 C483 1.395 . S
C482 C484 1.320 . S
C483 C481 1.339 . S
C483 C482 1.395 . S
C483 H509 0.929 . S
C484 C482 1.320 . S
C484 C485 1.405 . S
C484 H510 0.930 . S
C485 C480 1.479 . S
C485 C484 1.405 . S
C485 H511 0.931 . S
U486 O487 2.454 . S
U486 O488 2.458 . S
U486 C489 2.984 . S
U486 C490 2.847 . S
U486 C503 2.882 . S
U486 O504 2.441 . S
U486 O505 2.420 . S
U486 O506 2.455 . S
U486 O507 2.449 . S
O487 U486 2.454 . S
O487 C489 1.353 . S
O488 U486 2.458 . S
O488 C489 1.286 . S
C489 U486 2.984 . S
C489 O487 1.353 . S
C489 O488 1.286 . S
C489 C491 1.363 . S
C490 C480 1.465 . S
C490 U486 2.847 . S
C490 O504 1.249 . S
C490 O505 1.202 . S
C491 C489 1.363 . S
C491 C493 1.408 . S
C491 C496 1.342 . S
C492 C493 1.310 . S
C492 C495 1.461 . S
C492 H512 0.932 . S
C493 C491 1.408 . S
C493 C492 1.310 . S
C493 H513 0.930 . S
C494 C495 1.474 . S
C494 C496 1.285 . S
C494 H514 0.929 . S
C495 C492 1.461 . S
C495 C494 1.474 . S
C496 C491 1.342 . S
C496 C494 1.285 . S
C496 H515 0.930 . S
C497 C500 1.424 . S
C497 C502 1.245 . S
C497 C503 1.428 . S
C498 C501 1.260 . S
C498 C502 1.477 . S
C498 H516 0.932 . S
C499 C500 1.384 . S
C499 C501 1.479 . S
C499 H517 0.929 . S
C500 C497 1.424 . S
C500 C499 1.384 . S
C500 H518 0.928 . S
C501 C498 1.260 . S
C501 C499 1.479 . S
C502 C497 1.245 . S
C502 C498 1.477 . S
C502 H519 0.932 . S
C503 U486 2.882 . S
C503 C497 1.428 . S
C503 O506 1.301 . S
C503 O507 1.282 . S
O504 U486 2.441 . S
O504 C490 1.249 . S
O505 U486 2.420 . S
O505 C490 1.202 . S
O506 U486 2.455 . S
O506 C503 1.301 . S
O507 U486 2.449 . S
O507 C503 1.282 . S
H508 C481 0.931 . S
H509 C483 0.929 . S
H510 C484 0.930 . S
H511 C485 0.931 . S
H512 C492 0.932 . S
H513 C493 0.930 . S
H514 C494 0.929 . S
H515 C496 0.930 . S
H516 C498 0.932 . S
H517 C499 0.929 . S
H518 C500 0.928 . S
H519 C502 0.932 . S
C520 C521 1.264 . S
C520 C525 1.479 . S
C520 C530 1.465 . S
C521 C520 1.264 . S
C521 C523 1.339 . S
C521 H548 0.931 . S
C522 C523 1.395 . S
C522 C524 1.320 . S
C523 C521 1.339 . S
C523 C522 1.395 . S
C523 H549 0.929 . S
C524 C522 1.320 . S
C524 C525 1.405 . S
C524 H550 0.930 . S
C525 C520 1.479 . S
C525 C524 1.405 . S
C525 H551 0.931 . S
U526 O527 2.454 . S
U526 O528 2.458 . S
U526 C529 2.984 . S
U526 C530 2.847 . S
U526 C543 2.882 . S
U526 O544 2.441 . S
U526 O545 2.420 . S
U526 O546 2.455 . S
U526 O547 2.449 . S
O527 U526 2.454 . S
O527 C529 1.353 . S
O528 U526 2.458 . S
O528 C529 1.286 . S
C529 U526 2.984 . S
C529 O527 1.353 . S
C529 O528 1.286 . S
C529 C531 1.363 . S
C530 C520 1.465 . S
C530 U526 2.847 . S
C530 O544 1.249 . S
C530 O545 1.202 . S
C531 C529 1.363 . S
C531 C533 1.408 . S
C531 C536 1.342 1_556 S
C532 C533 1.282 1_554 S
C532 C535 1.498 . S
C532 H552 0.926 1_554 S
C533 C531 1.408 . S
C533 C532 1.282 1_556 S
C533 H553 0.930 . S
C534 C535 1.474 . S
C534 C536 1.285 . S
C534 H554 0.929 . S
C535 C532 1.498 . S
C535 C534 1.474 . S
C536 C531 1.342 1_554 S
C536 C534 1.285 . S
C536 H555 0.930 . S
C537 C540 1.424 . S
C537 C542 1.245 . S
C537 C543 1.428 . S
C538 C541 1.260 . S
C538 C542 1.477 . S
C538 H556 0.932 . S
C539 C540 1.384 . S
C539 C541 1.479 . S
C539 H557 0.929 . S
C540 C537 1.424 . S
C540 C539 1.384 . S
C540 H558 0.928 . S
C541 C538 1.260 . S
C541 C539 1.479 . S
C542 C537 1.245 . S
C542 C538 1.477 . S
C542 H559 0.932 . S
C543 U526 2.882 . S
C543 C537 1.428 . S
C543 O546 1.301 . S
C543 O547 1.282 . S
O544 U526 2.441 . S
O544 C530 1.249 . S
O545 U526 2.420 . S
O545 C530 1.202 . S
O546 U526 2.455 . S
O546 C543 1.301 . S
O547 U526 2.449 . S
O547 C543 1.282 . S
H548 C521 0.931 . S
H549 C523 0.929 . S
H550 C524 0.930 . S
H551 C525 0.931 . S
H552 C532 0.926 1_556 S
H553 C533 0.930 . S
H554 C534 0.929 . S
H555 C536 0.930 . S
H556 C538 0.932 . S
H557 C539 0.929 . S
H558 C540 0.928 . S
H559 C542 0.932 . S
C560 C561 1.264 . S
C560 C565 1.479 . S
C560 C570 1.465 . S
C561 C560 1.264 . S
C561 C563 1.339 . S
C561 H588 0.931 . S
C562 C563 1.395 . S
C562 C564 1.320 . S
C563 C561 1.339 . S
C563 C562 1.395 . S
C563 H589 0.929 . S
C564 C562 1.320 . S
C564 C565 1.405 . S
C564 H590 0.930 . S
C565 C560 1.479 . S
C565 C564 1.405 . S
C565 H591 0.931 . S
U566 O567 2.454 . S
U566 O568 2.458 . S
U566 C569 2.984 . S
U566 C570 2.847 . S
U566 C583 2.882 . S
U566 O584 2.441 . S
U566 O585 2.420 . S
U566 O586 2.455 . S
U566 O587 2.449 . S
O567 U566 2.454 . S
O567 C569 1.353 . S
O568 U566 2.458 . S
O568 C569 1.286 . S
C569 U566 2.984 . S
C569 O567 1.353 . S
C569 O568 1.286 . S
C569 C571 1.363 . S
C570 C560 1.465 . S
C570 U566 2.847 . S
C570 O584 1.249 . S
C570 O585 1.202 . S
C571 C569 1.363 . S
C571 C573 1.408 . S
C571 C576 1.342 . S
C572 C573 1.310 . S
C572 C575 1.461 . S
C572 H592 0.932 . S
C573 C571 1.408 . S
C573 C572 1.310 . S
C573 H593 0.930 . S
C574 C575 1.474 . S
C574 C576 1.285 . S
C574 H594 0.929 . S
C575 C572 1.461 . S
C575 C574 1.474 . S
C576 C571 1.342 . S
C576 C574 1.285 . S
C576 H595 0.930 . S
C577 C580 1.424 . S
C577 C582 1.245 . S
C577 C583 1.428 . S
C578 C581 1.260 . S
C578 C582 1.477 . S
C578 H596 0.932 . S
C579 C580 1.384 . S
C579 C581 1.479 . S
C579 H597 0.929 . S
C580 C577 1.424 . S
C580 C579 1.384 . S
C580 H598 0.928 . S
C581 C578 1.260 . S
C581 C579 1.479 . S
C582 C577 1.245 . S
C582 C578 1.477 . S
C582 H599 0.932 . S
C583 U566 2.882 . S
C583 C577 1.428 . S
C583 O586 1.301 . S
C583 O587 1.282 . S
O584 U566 2.441 . S
O584 C570 1.249 . S
O585 U566 2.420 . S
O585 C570 1.202 . S
O586 U566 2.455 . S
O586 C583 1.301 . S
O587 U566 2.449 . S
O587 C583 1.282 . S
H588 C561 0.931 . S
H589 C563 0.929 . S
H590 C564 0.930 . S
H591 C565 0.931 . S
H592 C572 0.932 . S
H593 C573 0.930 . S
H594 C574 0.929 . S
H595 C576 0.930 . S
H596 C578 0.932 . S
H597 C579 0.929 . S
H598 C580 0.928 . S
H599 C582 0.932 . S
C600 C601 1.264 . S
C600 C605 1.479 . S
C600 C610 1.465 1_554 S
C601 C600 1.264 . S
C601 C603 1.339 . S
C601 H628 0.931 1_554 S
C602 C603 1.395 . S
C602 C604 1.320 . S
C603 C601 1.339 . S
C603 C602 1.395 . S
C603 H629 0.929 . S
C604 C602 1.320 . S
C604 C605 1.405 . S
C604 H630 0.930 . S
C605 C600 1.479 . S
C605 C604 1.405 . S
C605 H631 0.931 . S
U606 O607 2.454 . S
U606 O608 2.458 . S
U606 C609 2.984 . S
U606 C610 2.847 . S
U606 C623 2.882 . S
U606 O624 2.481 . S
U606 O625 2.420 . S
U606 O626 2.455 . S
U606 O627 2.449 . S
O607 U606 2.454 . S
O607 C609 1.353 . S
O608 U606 2.458 . S
O608 C609 1.286 . S
C609 U606 2.984 . S
C609 O607 1.353 . S
C609 O608 1.286 . S
C609 C611 1.363 1_545 S
C610 C600 1.465 1_556 S
C610 U606 2.847 . S
C610 O624 1.255 . S
C610 O625 1.202 . S
C611 C609 1.363 1_565 S
C611 C613 1.408 1_565 S
C611 C616 1.342 . S
C612 C613 1.310 1_565 S
C612 C615 1.461 . S
C612 H632 0.890 1_556 S
C613 C611 1.408 1_545 S
C613 C612 1.310 1_545 S
C613 H633 0.970 . S
C614 C615 1.474 . S
C614 C616 1.285 . S
C614 H634 0.929 . S
C615 C612 1.461 . S
C615 C614 1.474 . S
C616 C611 1.342 . S
C616 C614 1.285 . S
C616 H635 0.930 . S
C617 C620 1.424 . S
C617 C622 1.245 . S
C617 C623 1.428 . S
C618 C621 1.260 . S
C618 C622 1.477 . S
C618 H636 0.969 . S
C619 C620 1.384 . S
C619 C621 1.479 . S
C619 H637 0.929 . S
C620 C617 1.424 . S
C620 C619 1.384 . S
C620 H638 0.928 . S
C621 C618 1.260 . S
C621 C619 1.479 . S
C622 C617 1.245 . S
C622 C618 1.477 . S
C622 H639 0.932 . S
C623 U606 2.882 . S
C623 C617 1.428 . S
C623 O626 1.301 . S
C623 O627 1.282 . S
O624 U606 2.481 . S
O624 C610 1.255 . S
O625 U606 2.420 . S
O625 C610 1.202 . S
O626 U606 2.455 . S
O626 C623 1.301 . S
O627 U606 2.449 . S
O627 C623 1.282 . S
H628 C601 0.931 1_556 S
H629 C603 0.929 . S
H630 C604 0.930 . S
H631 C605 0.931 . S
H632 C612 0.890 1_554 S
H633 C613 0.970 . S
H634 C614 0.929 . S
H635 C616 0.930 . S
H636 C618 0.969 . S
H637 C619 0.929 . S
H638 C620 0.928 . S
H639 C622 0.932 . S
Mg640 O641 2.028 . S
Mg640 O647 1.986 1_554 S
Mg640 O649 2.114 . S
Mg640 O650 2.251 . S
Mg640 O653 2.010 . S
O641 Mg640 2.028 . S
O641 C644 1.250 . S
O642 Mg643 2.028 1_554 S
O642 C644 1.251 . S
Mg643 O642 2.028 1_556 S
Mg643 O648 2.042 . S
Mg643 O650 2.070 1_556 S
C644 O641 1.250 . S
C644 O642 1.251 . S
C645 O646 1.264 . S
C645 O653 1.249 . S
O646 C645 1.264 . S
O647 Mg640 1.986 1_556 S
O647 C651 1.246 . S
O648 Mg643 2.042 . S
O648 C651 1.259 . S
O649 Mg640 2.114 . S
O649 C652 1.252 . S
O650 Mg640 2.251 . S
O650 Mg643 2.070 1_554 S
O650 C652 1.273 . S
C651 O647 1.246 . S
C651 O648 1.259 . S
C652 O649 1.252 . S
C652 O650 1.273 . S
O653 Mg640 2.010 . S
O653 C645 1.249 . S
Mg654 O655 2.028 . S
Mg654 O661 1.986 . S
Mg654 O663 2.114 . S
Mg654 O664 2.251 . S
Mg654 O667 2.010 . S
O655 Mg654 2.028 . S
O655 C658 1.250 . S
O656 Mg657 2.028 . S
O656 C658 1.248 . S
Mg657 O656 2.028 . S
Mg657 O662 2.032 . S
Mg657 O664 2.079 . S
C658 O655 1.250 . S
C658 O656 1.248 . S
C659 O660 1.264 . S
C659 O667 1.249 . S
O660 C659 1.264 . S
O661 Mg654 1.986 . S
O661 C665 1.246 . S
O662 Mg657 2.032 . S
O662 C665 1.259 . S
O663 Mg654 2.114 . S
O663 C666 1.252 . S
O664 Mg654 2.251 . S
O664 Mg657 2.079 . S
O664 C666 1.273 . S
C665 O661 1.246 . S
C665 O662 1.259 . S
C666 O663 1.252 . S
C666 O664 1.273 . S
O667 Mg654 2.010 . S
O667 C659 1.249 . S
Mg668 O669 2.028 . S
Mg668 O675 1.986 1_554 S
Mg668 O677 2.114 . S
Mg668 O678 2.251 . S
Mg668 O681 2.010 . S
O669 Mg668 2.028 . S
O669 C672 1.243 1_554 S
O670 Mg671 2.028 . S
O670 C672 1.255 . S
Mg671 O670 2.028 . S
Mg671 O676 2.032 . S
Mg671 O678 2.079 1_556 S
C672 O669 1.243 1_556 S
C672 O670 1.255 . S
C673 O674 1.264 . S
C673 O681 1.249 . S
O674 C673 1.264 . S
O675 Mg668 1.986 1_556 S
O675 C679 1.246 . S
O676 Mg671 2.032 . S
O676 C679 1.259 . S
O677 Mg668 2.114 . S
O677 C680 1.252 . S
O678 Mg668 2.251 . S
O678 Mg671 2.079 1_554 S
O678 C680 1.273 . S
C679 O675 1.246 . S
C679 O676 1.259 . S
C680 O677 1.252 . S
C680 O678 1.273 . S
O681 Mg668 2.010 . S
O681 C673 1.249 . S
Mg682 O683 2.028 . S
Mg682 O689 1.986 . S
Mg682 O691 2.114 . S
Mg682 O692 2.251 . S
Mg682 O695 2.010 . S
O683 Mg682 2.028 . S
O683 C686 1.250 1_545 S
O684 Mg685 2.028 . S
O684 C686 1.248 . S
Mg685 O684 2.028 . S
Mg685 O690 2.032 . S
Mg685 O692 2.079 1_565 S
C686 O683 1.250 1_565 S
C686 O684 1.248 . S
C687 O688 1.264 . S
C687 O695 1.249 . S
O688 C687 1.264 . S
O689 Mg682 1.986 . S
O689 C693 1.246 . S
O690 Mg685 2.032 . S
O690 C693 1.259 1_565 S
O691 Mg682 2.114 . S
O691 C694 1.252 . S
O692 Mg682 2.251 . S
O692 Mg685 2.079 1_545 S
O692 C694 1.273 . S
C693 O689 1.246 . S
C693 O690 1.259 1_545 S
C694 O691 1.252 . S
C694 O692 1.273 . S
O695 Mg682 2.010 . S
O695 C687 1.249 . S
Mg696 O697 2.028 . S
Mg696 O703 1.986 . S
Mg696 O705 2.114 . S
Mg696 O706 2.251 . S
Mg696 O709 2.010 . S
O697 Mg696 2.028 . S
O697 C700 1.250 . S
O698 Mg699 2.028 . S
O698 C700 1.248 . S
Mg699 O698 2.028 . S
Mg699 O704 2.032 . S
Mg699 O706 2.079 . S
C700 O697 1.250 . S
C700 O698 1.248 . S
C701 O702 1.264 . S
C701 O709 1.249 . S
O702 C701 1.264 . S
O703 Mg696 1.986 . S
O703 C707 1.246 . S
O704 Mg699 2.032 . S
O704 C707 1.259 . S
O705 Mg696 2.114 . S
O705 C708 1.252 . S
O706 Mg696 2.251 . S
O706 Mg699 2.079 . S
O706 C708 1.273 . S
C707 O703 1.246 . S
C707 O704 1.259 . S
C708 O705 1.252 . S
C708 O706 1.273 . S
O709 Mg696 2.010 . S
O709 C701 1.249 . S
Mg710 O711 2.028 . S
Mg710 O717 1.986 . S
Mg710 O719 2.114 . S
Mg710 O720 2.251 . S
Mg710 O723 2.010 . S
O711 Mg710 2.028 . S
O711 C714 1.250 . S
O712 Mg713 2.028 . S
O712 C714 1.248 . S
Mg713 O712 2.028 . S
Mg713 O718 2.032 . S
Mg713 O720 2.079 . S
C714 O711 1.250 . S
C714 O712 1.248 . S
C715 O716 1.264 . S
C715 O723 1.249 . S
O716 C715 1.264 . S
O717 Mg710 1.986 . S
O717 C721 1.246 . S
O718 Mg713 2.032 . S
O718 C721 1.259 . S
O719 Mg710 2.114 . S
O719 C722 1.252 . S
O720 Mg710 2.251 . S
O720 Mg713 2.079 . S
O720 C722 1.273 . S
C721 O717 1.246 . S
C721 O718 1.259 . S
C722 O719 1.252 . S
C722 O720 1.273 . S
O723 Mg710 2.010 . S
O723 C715 1.249 . S
Mg724 O725 2.028 . S
Mg724 O731 1.986 . S
Mg724 O733 2.114 . S
Mg724 O734 2.251 . S
Mg724 O737 2.010 . S
O725 Mg724 2.028 . S
O725 C728 1.250 . S
O726 Mg727 2.028 . S
O726 C728 1.248 . S
Mg727 O726 2.028 . S
Mg727 O732 2.032 . S
Mg727 O734 2.079 . S
C728 O725 1.250 . S
C728 O726 1.248 . S
C729 O730 1.264 . S
C729 O737 1.249 . S
O730 C729 1.264 . S
O731 Mg724 1.986 . S
O731 C735 1.246 . S
O732 Mg727 2.032 . S
O732 C735 1.259 . S
O733 Mg724 2.114 . S
O733 C736 1.252 . S
O734 Mg724 2.251 . S
O734 Mg727 2.079 . S
O734 C736 1.273 . S
C735 O731 1.246 . S
C735 O732 1.259 . S
C736 O733 1.252 . S
C736 O734 1.273 . S
O737 Mg724 2.010 . S
O737 C729 1.249 . S
Mg738 O739 2.021 1_545 S
Mg738 O745 1.986 1_545 S
Mg738 O747 2.114 . S
Mg738 O748 2.251 . S
Mg738 O751 2.010 . S
O739 Mg738 2.021 1_565 S
O739 C742 1.260 . S
O740 Mg741 2.028 . S
O740 C742 1.248 . S
Mg741 O740 2.028 . S
Mg741 O746 2.032 . S
Mg741 O748 2.079 1_565 S
C742 O739 1.260 . S
C742 O740 1.248 . S
C743 O744 1.264 . S
C743 O751 1.249 . S
O744 C743 1.264 . S
O745 Mg738 1.986 1_565 S
O745 C749 1.246 . S
O746 Mg741 2.032 . S
O746 C749 1.259 . S
O747 Mg738 2.114 . S
O747 C750 1.252 . S
O748 Mg738 2.251 . S
O748 Mg741 2.079 1_545 S
O748 C750 1.273 . S
C749 O745 1.246 . S
C749 O746 1.259 . S
C750 O747 1.252 . S
C750 O748 1.273 . S
O751 Mg738 2.010 . S
O751 C743 1.249 . S
Mg752 O753 2.028 . S
Mg752 O759 1.986 . S
Mg752 O761 2.114 . S
Mg752 O762 2.251 . S
Mg752 O765 2.010 . S
O753 Mg752 2.028 . S
O753 C756 1.250 1_455 S
O754 Mg755 2.028 . S
O754 C756 1.248 . S
Mg755 O754 2.028 . S
Mg755 O760 2.032 . S
Mg755 O762 2.079 1_655 S
C756 O753 1.250 1_655 S
C756 O754 1.248 . S
C757 O758 1.264 . S
C757 O765 1.249 . S
O758 C757 1.264 . S
O759 Mg752 1.986 . S
O759 C763 1.246 . S
O760 Mg755 2.032 . S
O760 C763 1.259 1_655 S
O761 Mg752 2.114 . S
O761 C764 1.252 . S
O762 Mg752 2.251 . S
O762 Mg755 2.079 1_455 S
O762 C764 1.273 . S
C763 O759 1.246 . S
C763 O760 1.259 1_455 S
C764 O761 1.252 . S
C764 O762 1.273 . S
O765 Mg752 2.010 . S
O765 C757 1.249 . S
Mg766 O767 2.028 . S
Mg766 O773 1.986 . S
Mg766 O775 2.114 . S
Mg766 O776 2.251 . S
Mg766 O779 2.010 . S
O767 Mg766 2.028 . S
O767 C770 1.250 . S
O768 Mg769 2.028 . S
O768 C770 1.248 . S
Mg769 O768 2.028 . S
Mg769 O774 2.032 . S
Mg769 O776 2.079 . S
C770 O767 1.250 . S
C770 O768 1.248 . S
C771 O772 1.264 . S
C771 O779 1.249 . S
O772 C771 1.264 . S
O773 Mg766 1.986 . S
O773 C777 1.246 . S
O774 Mg769 2.032 . S
O774 C777 1.259 . S
O775 Mg766 2.114 . S
O775 C778 1.252 . S
O776 Mg766 2.251 . S
O776 Mg769 2.079 . S
O776 C778 1.273 . S
C777 O773 1.246 . S
C777 O774 1.259 . S
C778 O775 1.252 . S
C778 O776 1.273 . S
O779 Mg766 2.010 . S
O779 C771 1.249 . S
Mg780 O781 2.028 1_655 S
Mg780 O787 1.999 . S
Mg780 O789 2.114 . S
Mg780 O790 2.251 1_655 S
Mg780 O793 2.010 . S
O781 Mg780 2.028 1_455 S
O781 C784 1.250 . S
O782 Mg783 2.028 . S
O782 C784 1.248 . S
Mg783 O782 2.028 . S
Mg783 O788 2.032 . S
Mg783 O790 2.079 . S
C784 O781 1.250 . S
C784 O782 1.248 . S
C785 O786 1.264 . S
C785 O793 1.249 . S
O786 C785 1.264 . S
O787 Mg780 1.999 . S
O787 C791 1.211 1_655 S
O788 Mg783 2.032 . S
O788 C791 1.259 . S
O789 Mg780 2.114 . S
O789 C792 1.252 . S
O790 Mg780 2.251 1_455 S
O790 Mg783 2.079 . S
O790 C792 1.273 1_455 S
C791 O787 1.211 1_455 S
C791 O788 1.259 . S
C792 O789 1.252 . S
C792 O790 1.273 1_655 S
O793 Mg780 2.010 . S
O793 C785 1.249 . S
Mg794 O795 2.028 . S
Mg794 O801 1.986 . S
Mg794 O803 2.114 . S
Mg794 O804 2.251 . S
Mg794 O807 2.010 . S
O795 Mg794 2.028 . S
O795 C798 1.250 . S
O796 Mg797 2.028 . S
O796 C798 1.248 . S
Mg797 O796 2.028 . S
Mg797 O802 2.032 . S
Mg797 O804 2.079 . S
C798 O795 1.250 . S
C798 O796 1.248 . S
C799 O800 1.264 . S
C799 O807 1.249 . S
O800 C799 1.264 . S
O801 Mg794 1.986 . S
O801 C805 1.246 . S
O802 Mg797 2.032 . S
O802 C805 1.259 . S
O803 Mg794 2.114 . S
O803 C806 1.252 . S
O804 Mg794 2.251 . S
O804 Mg797 2.079 . S
O804 C806 1.273 . S
C805 O801 1.246 . S
C805 O802 1.259 . S
C806 O803 1.252 . S
C806 O804 1.273 . S
O807 Mg794 2.010 . S
O807 C799 1.249 . S
C808 C809 1.349 . S
C808 C810 1.327 . S
C808 H833 0.950 . S
C809 C808 1.349 . S
C809 C825 1.349 . S
C810 C808 1.327 . S
C810 C829 1.429 . S
C810 H834 0.950 . S
C811 C828 1.574 . S
C811 C830 1.368 . S
C811 H835 0.949 . S
H812 C816 0.949 . S
C813 C814 1.349 . S
C813 C815 1.327 . S
C813 H836 0.950 . S
C814 C813 1.349 . S
C814 C826 1.349 . S
C815 C813 1.327 . S
C815 C831 1.429 . S
C815 H837 0.950 . S
C816 H812 0.949 . S
C816 C824 1.574 . S
C816 C832 1.368 . S
H817 C825 0.950 . S
H818 C823 0.950 . S
H819 C824 0.949 . S
H820 C826 0.950 . S
H821 C827 0.950 . S
H822 C828 0.949 . S
C823 H818 0.950 . S
C823 C825 1.327 . S
C823 C829 1.429 . S
C824 C816 1.574 . S
C824 H819 0.949 . S
C824 C830 1.368 . S
C825 C809 1.349 . S
C825 H817 0.950 . S
C825 C823 1.327 . S
C826 C814 1.349 . S
C826 H820 0.950 . S
C826 C827 1.327 . S
C827 H821 0.950 . S
C827 C826 1.327 . S
C827 C831 1.429 . S
C828 C811 1.574 . S
C828 H822 0.949 . S
C828 C832 1.368 . S
C829 C810 1.429 . S
C829 C823 1.429 . S
C829 C830 1.523 . S
C830 C811 1.368 . S
C830 C824 1.368 . S
C830 C829 1.523 . S
C831 C815 1.429 . S
C831 C827 1.429 . S
C831 C832 1.523 . S
C832 C816 1.368 . S
C832 C828 1.368 . S
C832 C831 1.523 . S
H833 C808 0.950 . S
H834 C810 0.950 . S
H835 C811 0.949 . S
H836 C813 0.950 . S
H837 C815 0.950 . S
C838 C839 1.349 . S
C838 C840 1.327 . S
C838 H863 0.950 . S
C839 C838 1.349 . S
C839 C855 1.349 . S
C840 C838 1.327 . S
C840 C859 1.429 . S
C840 H864 0.950 . S
C841 C858 1.574 . S
C841 C860 1.368 . S
C841 H865 0.949 . S
H842 C846 0.949 . S
C843 C844 1.349 . S
C843 C845 1.327 . S
C843 H866 0.950 . S
C844 C843 1.349 . S
C844 C856 1.349 . S
C845 C843 1.327 . S
C845 C861 1.429 . S
C845 H867 0.950 . S
C846 H842 0.949 . S
C846 C854 1.574 . S
C846 C862 1.368 . S
H847 C855 0.950 . S
H848 C853 0.950 . S
H849 C854 0.949 . S
H850 C856 0.950 . S
H851 C857 0.950 . S
H852 C858 0.949 . S
C853 H848 0.950 . S
C853 C855 1.327 . S
C853 C859 1.429 . S
C854 C846 1.574 . S
C854 H849 0.949 . S
C854 C860 1.368 . S
C855 C839 1.349 . S
C855 H847 0.950 . S
C855 C853 1.327 . S
C856 C844 1.349 . S
C856 H850 0.950 . S
C856 C857 1.327 . S
C857 H851 0.950 . S
C857 C856 1.327 . S
C857 C861 1.429 . S
C858 C841 1.574 . S
C858 H852 0.949 . S
C858 C862 1.368 . S
C859 C840 1.429 . S
C859 C853 1.429 . S
C859 C860 1.523 . S
C860 C841 1.368 . S
C860 C854 1.368 . S
C860 C859 1.523 . S
C861 C845 1.429 . S
C861 C857 1.429 . S
C861 C862 1.523 . S
C862 C846 1.368 . S
C862 C858 1.368 . S
C862 C861 1.523 . S
H863 C838 0.950 . S
H864 C840 0.950 . S
H865 C841 0.949 . S
H866 C843 0.950 . S
H867 C845 0.950 . S
C868 C869 1.349 . S
C868 C870 1.327 . S
C868 H893 0.950 . S
C869 C868 1.349 . S
C869 C885 1.349 . S
C870 C868 1.327 . S
C870 C889 1.429 . S
C870 H894 0.950 . S
C871 C888 1.574 . S
C871 C890 1.368 . S
C871 H895 0.949 . S
H872 C876 0.949 . S
C873 C874 1.349 . S
C873 C875 1.327 . S
C873 H896 0.950 . S
C874 C873 1.349 . S
C874 C886 1.349 . S
C875 C873 1.327 . S
C875 C891 1.429 . S
C875 H897 0.950 . S
C876 H872 0.949 . S
C876 C884 1.574 . S
C876 C892 1.368 . S
H877 C885 0.950 . S
H878 C883 0.950 . S
H879 C884 0.949 . S
H880 C886 0.950 . S
H881 C887 0.950 . S
H882 C888 0.949 . S
C883 H878 0.950 . S
C883 C885 1.327 . S
C883 C889 1.429 . S
C884 C876 1.574 . S
C884 H879 0.949 . S
C884 C890 1.368 . S
C885 C869 1.349 . S
C885 H877 0.950 . S
C885 C883 1.327 . S
C886 C874 1.349 . S
C886 H880 0.950 . S
C886 C887 1.327 . S
C887 H881 0.950 . S
C887 C886 1.327 . S
C887 C891 1.429 . S
C888 C871 1.574 . S
C888 H882 0.949 . S
C888 C892 1.368 . S
C889 C870 1.429 . S
C889 C883 1.429 . S
C889 C890 1.523 . S
C890 C871 1.368 . S
C890 C884 1.368 . S
C890 C889 1.523 . S
C891 C875 1.429 . S
C891 C887 1.429 . S
C891 C892 1.523 . S
C892 C876 1.368 . S
C892 C888 1.368 . S
C892 C891 1.523 . S
H893 C868 0.950 . S
H894 C870 0.950 . S
H895 C871 0.949 . S
H896 C873 0.950 . S
H897 C875 0.950 . S
C898 C899 1.349 . S
C898 C900 1.327 . S
C898 H923 0.950 . S
C899 C898 1.349 . S
C899 C915 1.349 1_565 S
C900 C898 1.327 . S
C900 C919 1.429 . S
C900 H924 0.950 . S
C901 C918 1.574 . S
C901 C920 1.368 1_545 S
C901 H925 0.949 . S
H902 C906 0.949 . S
C903 C904 1.349 . S
C903 C905 1.327 . S
C903 H926 0.950 . S
C904 C903 1.349 . S
C904 C916 1.349 1_545 S
C905 C903 1.327 . S
C905 C921 1.429 . S
C905 H927 0.950 . S
C906 H902 0.949 . S
C906 C914 1.574 . S
C906 C922 1.310 1_565 S
H907 C915 0.950 1_455 S
H908 C913 0.950 . S
H909 C914 0.949 . S
H910 C916 0.950 . S
H911 C917 0.950 . S
H912 C918 0.949 . S
C913 H908 0.950 . S
C913 C915 1.327 . S
C913 C919 1.429 1_545 S
C914 C906 1.574 . S
C914 H909 0.949 . S
C914 C920 1.368 . S
C915 C899 1.349 1_545 S
C915 H907 0.950 1_655 S
C915 C913 1.327 . S
C916 C904 1.349 1_565 S
C916 H910 0.950 . S
C916 C917 1.327 . S
C917 H911 0.950 . S
C917 C916 1.327 . S
C917 C921 1.429 1_565 S
C918 C901 1.574 . S
C918 H912 0.949 . S
C918 C922 1.418 . S
C919 C900 1.429 . S
C919 C913 1.429 1_565 S
C919 C920 1.523 . S
C920 C901 1.368 1_565 S
C920 C914 1.368 . S
C920 C919 1.523 . S
C921 C905 1.429 . S
C921 C917 1.429 1_545 S
C921 C922 1.538 . S
C922 C906 1.310 1_545 S
C922 C918 1.418 . S
C922 C921 1.538 . S
H923 C898 0.950 . S
H924 C900 0.950 . S
H925 C901 0.949 . S
H926 C903 0.950 . S
H927 C905 0.950 . S
C928 C929 1.349 . S
C928 C930 1.327 . S
C928 H953 0.950 . S
C929 C928 1.349 . S
C929 C945 1.349 . S
C930 C928 1.327 . S
C930 C949 1.429 . S
C930 H954 0.950 . S
C931 C948 1.574 . S
C931 C950 1.368 . S
C931 H955 0.949 . S
H932 C936 0.949 . S
C933 C934 1.349 . S
C933 C935 1.327 . S
C933 H956 0.950 . S
C934 C933 1.349 . S
C934 C946 1.349 . S
C935 C933 1.327 . S
C935 C951 1.429 . S
C935 H957 0.950 . S
C936 H932 0.949 . S
C936 C944 1.574 . S
C936 C952 1.368 . S
H937 C945 0.950 . S
H938 C943 0.950 . S
H939 C944 0.949 . S
H940 C946 0.950 . S
H941 C947 0.950 . S
H942 C948 0.949 . S
C943 H938 0.950 . S
C943 C945 1.327 . S
C943 C949 1.429 . S
C944 C936 1.574 . S
C944 H939 0.949 . S
C944 C950 1.368 . S
C945 C929 1.349 . S
C945 H937 0.950 . S
C945 C943 1.327 . S
C946 C934 1.349 . S
C946 H940 0.950 . S
C946 C947 1.327 . S
C947 H941 0.950 . S
C947 C946 1.327 . S
C947 C951 1.429 . S
C948 C931 1.574 . S
C948 H942 0.949 . S
C948 C952 1.368 . S
C949 C930 1.429 . S
C949 C943 1.429 . S
C949 C950 1.523 . S
C950 C931 1.368 . S
C950 C944 1.368 . S
C950 C949 1.523 . S
C951 C935 1.429 . S
C951 C947 1.429 . S
C951 C952 1.523 . S
C952 C936 1.368 . S
C952 C948 1.368 . S
C952 C951 1.523 . S
H953 C928 0.950 . S
H954 C930 0.950 . S
H955 C931 0.949 . S
H956 C933 0.950 . S
H957 C935 0.950 . S
C958 C959 1.349 . S
C958 C960 1.327 . S
C958 H983 0.950 . S
C959 C958 1.349 . S
C959 C975 1.349 . S
C960 C958 1.327 . S
C960 C979 1.429 . S
C960 H984 0.950 . S
C961 C978 1.574 . S
C961 C980 1.368 . S
C961 H985 0.949 . S
H962 C966 0.949 . S
C963 C964 1.349 . S
C963 C965 1.327 . S
C963 H986 0.950 . S
C964 C963 1.349 . S
C964 C976 1.349 . S
C965 C963 1.327 . S
C965 C981 1.429 . S
C965 H987 0.950 . S
C966 H962 0.949 . S
C966 C974 1.574 . S
C966 C982 1.368 . S
H967 C975 0.950 . S
H968 C973 0.950 . S
H969 C974 0.949 . S
H970 C976 0.950 . S
H971 C977 0.950 . S
H972 C978 0.949 . S
C973 H968 0.950 . S
C973 C975 1.327 . S
C973 C979 1.429 . S
C974 C966 1.574 . S
C974 H969 0.949 . S
C974 C980 1.368 . S
C975 C959 1.349 . S
C975 H967 0.950 . S
C975 C973 1.327 . S
C976 C964 1.349 . S
C976 H970 0.950 . S
C976 C977 1.327 . S
C977 H971 0.950 . S
C977 C976 1.327 . S
C977 C981 1.429 . S
C978 C961 1.574 . S
C978 H972 0.949 . S
C978 C982 1.368 . S
C979 C960 1.429 . S
C979 C973 1.429 . S
C979 C980 1.523 . S
C980 C961 1.368 . S
C980 C974 1.368 . S
C980 C979 1.523 . S
C981 C965 1.429 . S
C981 C977 1.429 . S
C981 C982 1.523 . S
C982 C966 1.368 . S
C982 C978 1.368 . S
C982 C981 1.523 . S
H983 C958 0.950 . S
H984 C960 0.950 . S
H985 C961 0.949 . S
H986 C963 0.950 . S
H987 C965 0.950 . S
C988 C989 1.349 . S
C988 C990 1.327 . S
C988 H1013 0.950 . S
C989 C988 1.349 . S
C989 C1005 1.349 . S
C990 C988 1.327 . S
C990 C1009 1.429 . S
C990 H1014 0.950 . S
C991 C1008 1.574 . S
C991 C1010 1.368 . S
C991 H1015 0.949 . S
H992 C996 0.949 . S
C993 C994 1.349 . S
C993 C995 1.327 . S
C993 H1016 0.950 . S
C994 C993 1.349 . S
C994 C1006 1.349 . S
C995 C993 1.327 . S
C995 C1011 1.429 . S
C995 H1017 0.950 . S
C996 H992 0.949 . S
C996 C1004 1.574 . S
C996 C1012 1.368 . S
H997 C1005 0.950 . S
H998 C1003 0.950 . S
H999 C1004 0.949 . S
H1000 C1006 0.950 . S
H1001 C1007 0.950 . S
H1002 C1008 0.949 . S
C1003 H998 0.950 . S
C1003 C1005 1.327 . S
C1003 C1009 1.429 . S
C1004 C996 1.574 . S
C1004 H999 0.949 . S
C1004 C1010 1.368 . S
C1005 C989 1.349 . S
C1005 H997 0.950 . S
C1005 C1003 1.327 . S
C1006 C994 1.349 . S
C1006 H1000 0.950 . S
C1006 C1007 1.327 . S
C1007 H1001 0.950 . S
C1007 C1006 1.327 . S
C1007 C1011 1.429 . S
C1008 C991 1.574 . S
C1008 H1002 0.949 . S
C1008 C1012 1.368 . S
C1009 C990 1.429 . S
C1009 C1003 1.429 . S
C1009 C1010 1.523 . S
C1010 C991 1.368 . S
C1010 C1004 1.368 . S
C1010 C1009 1.523 . S
C1011 C995 1.429 . S
C1011 C1007 1.429 . S
C1011 C1012 1.523 . S
C1012 C996 1.368 . S
C1012 C1008 1.368 . S
C1012 C1011 1.523 . S
H1013 C988 0.950 . S
H1014 C990 0.950 . S
H1015 C991 0.949 . S
H1016 C993 0.950 . S
H1017 C995 0.950 . S
C1018 C1019 1.349 . S
C1018 C1020 1.327 . S
C1018 H1043 0.950 . S
C1019 C1018 1.349 . S
C1019 C1035 1.349 . S
C1020 C1018 1.327 . S
C1020 C1039 1.429 . S
C1020 H1044 0.950 1_565 S
C1021 C1038 1.574 . S
C1021 C1040 1.368 . S
C1021 H1045 0.949 . S
H1022 C1026 0.982 . S
C1023 C1024 1.349 . S
C1023 C1025 1.327 . S
C1023 H1046 0.950 . S
C1024 C1023 1.349 . S
C1024 C1036 1.349 1_565 S
C1025 C1023 1.327 . S
C1025 C1041 1.429 . S
C1025 H1047 0.950 . S
C1026 H1022 0.982 . S
C1026 C1034 1.570 1_545 S
C1026 C1042 1.336 1_545 S
H1027 C1035 0.950 . S
H1028 C1033 0.950 . S
H1029 C1034 0.949 1_545 S
H1030 C1036 0.950 . S
H1031 C1037 0.950 . S
H1032 C1038 0.949 . S
C1033 H1028 0.950 . S
C1033 C1035 1.327 . S
C1033 C1039 1.429 . S
C1034 C1026 1.570 1_565 S
C1034 H1029 0.949 1_565 S
C1034 C1040 1.368 . S
C1035 C1019 1.349 . S
C1035 H1027 0.950 . S
C1035 C1033 1.327 . S
C1036 C1024 1.349 1_545 S
C1036 H1030 0.950 . S
C1036 C1037 1.327 . S
C1037 H1031 0.950 . S
C1037 C1036 1.327 . S
C1037 C1041 1.429 1_545 S
C1038 C1021 1.574 . S
C1038 H1032 0.949 . S
C1038 C1042 1.368 . S
C1039 C1020 1.429 . S
C1039 C1033 1.429 . S
C1039 C1040 1.523 . S
C1040 C1021 1.368 . S
C1040 C1034 1.368 . S
C1040 C1039 1.523 . S
C1041 C1025 1.429 . S
C1041 C1037 1.429 1_565 S
C1041 C1042 1.523 . S
C1042 C1026 1.336 1_565 S
C1042 C1038 1.368 . S
C1042 C1041 1.523 . S
H1043 C1018 0.950 . S
H1044 C1020 0.950 1_545 S
H1045 C1021 0.949 . S
H1046 C1023 0.950 . S
H1047 C1025 0.950 . S
C1048 C1049 1.349 . S
C1048 C1050 1.327 . S
C1048 H1073 0.950 . S
C1049 C1048 1.349 . S
C1049 C1065 1.349 . S
C1050 C1048 1.327 . S
C1050 C1069 1.429 . S
C1050 H1074 0.950 . S
C1051 C1068 1.574 . S
C1051 C1070 1.368 . S
C1051 H1075 0.949 . S
H1052 C1056 0.949 . S
C1053 C1054 1.349 . S
C1053 C1055 1.327 . S
C1053 H1076 0.950 . S
C1054 C1053 1.349 . S
C1054 C1066 1.349 . S
C1055 C1053 1.327 . S
C1055 C1071 1.429 . S
C1055 H1077 0.950 . S
C1056 H1052 0.949 . S
C1056 C1064 1.574 . S
C1056 C1072 1.368 . S
H1057 C1065 0.950 . S
H1058 C1063 0.950 . S
H1059 C1064 0.949 . S
H1060 C1066 0.950 . S
H1061 C1067 0.950 . S
H1062 C1068 0.949 . S
C1063 H1058 0.950 . S
C1063 C1065 1.327 . S
C1063 C1069 1.429 . S
C1064 C1056 1.574 . S
C1064 H1059 0.949 . S
C1064 C1070 1.368 . S
C1065 C1049 1.349 . S
C1065 H1057 0.950 . S
C1065 C1063 1.327 . S
C1066 C1054 1.349 . S
C1066 H1060 0.950 . S
C1066 C1067 1.327 . S
C1067 H1061 0.950 . S
C1067 C1066 1.327 . S
C1067 C1071 1.429 . S
C1068 C1051 1.574 . S
C1068 H1062 0.949 . S
C1068 C1072 1.368 . S
C1069 C1050 1.429 . S
C1069 C1063 1.429 . S
C1069 C1070 1.523 . S
C1070 C1051 1.368 . S
C1070 C1064 1.368 . S
C1070 C1069 1.523 . S
C1071 C1055 1.429 . S
C1071 C1067 1.429 . S
C1071 C1072 1.523 . S
C1072 C1056 1.368 . S
C1072 C1068 1.368 . S
C1072 C1071 1.523 . S
H1073 C1048 0.950 . S
H1074 C1050 0.950 . S
H1075 C1051 0.949 . S
H1076 C1053 0.950 . S
H1077 C1055 0.950 . S
C1078 C1079 1.349 . S
C1078 C1080 1.327 . S
C1078 H1103 0.950 . S
C1079 C1078 1.349 . S
C1079 C1095 1.349 . S
C1080 C1078 1.327 . S
C1080 C1099 1.429 . S
C1080 H1104 0.950 . S
C1081 C1098 1.574 . S
C1081 C1100 1.368 . S
C1081 H1105 0.949 . S
H1082 C1086 0.949 . S
C1083 C1084 1.349 . S
C1083 C1085 1.327 . S
C1083 H1106 0.950 . S
C1084 C1083 1.349 . S
C1084 C1096 1.349 . S
C1085 C1083 1.327 . S
C1085 C1101 1.429 . S
C1085 H1107 0.950 . S
C1086 H1082 0.949 . S
C1086 C1094 1.574 . S
C1086 C1102 1.368 . S
H1087 C1095 0.950 . S
H1088 C1093 0.950 . S
H1089 C1094 0.949 . S
H1090 C1096 0.950 . S
H1091 C1097 0.950 . S
H1092 C1098 0.949 . S
C1093 H1088 0.950 . S
C1093 C1095 1.327 . S
C1093 C1099 1.429 . S
C1094 C1086 1.574 . S
C1094 H1089 0.949 . S
C1094 C1100 1.368 . S
C1095 C1079 1.349 . S
C1095 H1087 0.950 . S
C1095 C1093 1.327 . S
C1096 C1084 1.349 . S
C1096 H1090 0.950 . S
C1096 C1097 1.327 . S
C1097 H1091 0.950 . S
C1097 C1096 1.327 . S
C1097 C1101 1.429 . S
C1098 C1081 1.574 . S
C1098 H1092 0.949 . S
C1098 C1102 1.368 . S
C1099 C1080 1.429 . S
C1099 C1093 1.429 . S
C1099 C1100 1.523 . S
C1100 C1081 1.368 . S
C1100 C1094 1.368 . S
C1100 C1099 1.523 . S
C1101 C1085 1.429 . S
C1101 C1097 1.429 . S
C1101 C1102 1.523 . S
C1102 C1086 1.368 . S
C1102 C1098 1.368 . S
C1102 C1101 1.523 . S
H1103 C1078 0.950 . S
H1104 C1080 0.950 . S
H1105 C1081 0.949 . S
H1106 C1083 0.950 . S
H1107 C1085 0.950 . S
C1108 C1109 1.349 . S
C1108 C1110 1.327 . S
C1108 H1133 0.950 . S
C1109 C1108 1.349 . S
C1109 C1125 1.349 . S
C1110 C1108 1.327 . S
C1110 C1129 1.429 . S
C1110 H1134 0.950 . S
C1111 C1128 1.574 . S
C1111 C1130 1.368 . S
C1111 H1135 0.949 . S
H1112 C1116 0.949 . S
C1113 C1114 1.349 . S
C1113 C1115 1.327 . S
C1113 H1136 0.950 . S
C1114 C1113 1.349 . S
C1114 C1126 1.349 . S
C1115 C1113 1.327 . S
C1115 C1131 1.429 . S
C1115 H1137 0.950 . S
C1116 H1112 0.949 . S
C1116 C1124 1.574 . S
C1116 C1132 1.368 . S
H1117 C1125 0.950 . S
H1118 C1123 0.950 . S
H1119 C1124 0.949 . S
H1120 C1126 0.950 . S
H1121 C1127 0.950 . S
H1122 C1128 0.949 . S
C1123 H1118 0.950 . S
C1123 C1125 1.327 . S
C1123 C1129 1.429 . S
C1124 C1116 1.574 . S
C1124 H1119 0.949 . S
C1124 C1130 1.368 . S
C1125 C1109 1.349 . S
C1125 H1117 0.950 . S
C1125 C1123 1.327 . S
C1126 C1114 1.349 . S
C1126 H1120 0.950 . S
C1126 C1127 1.327 . S
C1127 H1121 0.950 . S
C1127 C1126 1.327 . S
C1127 C1131 1.429 . S
C1128 C1111 1.574 . S
C1128 H1122 0.949 . S
C1128 C1132 1.368 . S
C1129 C1110 1.429 . S
C1129 C1123 1.429 . S
C1129 C1130 1.523 . S
C1130 C1111 1.368 . S
C1130 C1124 1.368 . S
C1130 C1129 1.523 . S
C1131 C1115 1.429 . S
C1131 C1127 1.429 . S
C1131 C1132 1.523 . S
C1132 C1116 1.368 . S
C1132 C1128 1.368 . S
C1132 C1131 1.523 . S
H1133 C1108 0.950 . S
H1134 C1110 0.950 . S
H1135 C1111 0.949 . S
H1136 C1113 0.950 . S
H1137 C1115 0.950 . S
C1138 C1139 1.349 . S
C1138 C1140 1.327 . S
C1138 H1163 0.950 . S
C1139 C1138 1.349 . S
C1139 C1155 1.349 . S
C1140 C1138 1.327 . S
C1140 C1159 1.429 . S
C1140 H1164 0.950 . S
C1141 C1158 1.574 . S
C1141 C1160 1.368 . S
C1141 H1165 0.949 . S
H1142 C1146 0.949 . S
C1143 C1144 1.349 . S
C1143 C1145 1.327 . S
C1143 H1166 0.950 . S
C1144 C1143 1.349 . S
C1144 C1156 1.349 . S
C1145 C1143 1.327 . S
C1145 C1161 1.429 . S
C1145 H1167 0.950 . S
C1146 H1142 0.949 . S
C1146 C1154 1.574 . S
C1146 C1162 1.368 . S
H1147 C1155 0.950 . S
H1148 C1153 0.950 . S
H1149 C1154 0.949 . S
H1150 C1156 0.950 . S
H1151 C1157 0.950 . S
H1152 C1158 0.949 . S
C1153 H1148 0.950 . S
C1153 C1155 1.327 . S
C1153 C1159 1.429 . S
C1154 C1146 1.574 . S
C1154 H1149 0.949 . S
C1154 C1160 1.368 . S
C1155 C1139 1.349 . S
C1155 H1147 0.950 . S
C1155 C1153 1.327 . S
C1156 C1144 1.349 . S
C1156 H1150 0.950 . S
C1156 C1157 1.327 . S
C1157 H1151 0.950 . S
C1157 C1156 1.327 . S
C1157 C1161 1.429 . S
C1158 C1141 1.574 . S
C1158 H1152 0.949 . S
C1158 C1162 1.368 . S
C1159 C1140 1.429 . S
C1159 C1153 1.429 . S
C1159 C1160 1.523 . S
C1160 C1141 1.368 . S
C1160 C1154 1.368 . S
C1160 C1159 1.523 . S
C1161 C1145 1.429 . S
C1161 C1157 1.429 . S
C1161 C1162 1.523 . S
C1162 C1146 1.368 . S
C1162 C1158 1.368 . S
C1162 C1161 1.523 . S
H1163 C1138 0.950 . S
H1164 C1140 0.950 . S
H1165 C1141 0.949 . S
H1166 C1143 0.950 . S
H1167 C1145 0.950 . S
C1168 C1169 1.349 . S
C1168 C1170 1.327 . S
C1168 H1193 0.950 . S
C1169 C1168 1.349 . S
C1169 C1185 1.349 . S
C1170 C1168 1.327 . S
C1170 C1189 1.429 . S
C1170 H1194 0.950 . S
C1171 C1188 1.574 . S
C1171 C1190 1.368 . S
C1171 H1195 0.949 . S
H1172 C1176 0.949 . S
C1173 C1174 1.349 . S
C1173 C1175 1.327 . S
C1173 H1196 0.950 . S
C1174 C1173 1.349 . S
C1174 C1186 1.349 . S
C1175 C1173 1.327 . S
C1175 C1191 1.429 . S
C1175 H1197 0.950 . S
C1176 H1172 0.949 . S
C1176 C1184 1.574 . S
C1176 C1192 1.368 . S
H1177 C1185 0.950 . S
H1178 C1183 0.950 . S
H1179 C1184 0.949 . S
H1180 C1186 0.950 . S
H1181 C1187 0.950 . S
H1182 C1188 0.949 . S
C1183 H1178 0.950 . S
C1183 C1185 1.327 . S
C1183 C1189 1.429 . S
C1184 C1176 1.574 . S
C1184 H1179 0.949 . S
C1184 C1190 1.368 . S
C1185 C1169 1.349 . S
C1185 H1177 0.950 . S
C1185 C1183 1.327 . S
C1186 C1174 1.349 . S
C1186 H1180 0.950 . S
C1186 C1187 1.327 . S
C1187 H1181 0.950 . S
C1187 C1186 1.327 . S
C1187 C1191 1.429 . S
C1188 C1171 1.574 . S
C1188 H1182 0.949 . S
C1188 C1192 1.368 . S
C1189 C1170 1.429 . S
C1189 C1183 1.429 . S
C1189 C1190 1.523 . S
C1190 C1171 1.368 . S
C1190 C1184 1.368 . S
C1190 C1189 1.523 . S
C1191 C1175 1.429 . S
C1191 C1187 1.429 . S
C1191 C1192 1.523 . S
C1192 C1176 1.368 . S
C1192 C1188 1.368 . S
C1192 C1191 1.523 . S
H1193 C1168 0.950 . S
H1194 C1170 0.950 . S
H1195 C1171 0.949 . S
H1196 C1173 0.950 . S
H1197 C1175 0.950 . S
C1198 C1199 1.349 . S
C1198 C1200 1.327 . S
C1198 H1223 0.950 . S
C1199 C1198 1.349 . S
C1199 C1215 1.349 . S
C1200 C1198 1.327 . S
C1200 C1219 1.429 . S
C1200 H1224 0.950 . S
C1201 C1218 1.574 . S
C1201 C1220 1.368 . S
C1201 H1225 0.949 . S
H1202 C1206 0.949 . S
C1203 C1204 1.349 . S
C1203 C1205 1.327 . S
C1203 H1226 0.950 . S
C1204 C1203 1.349 . S
C1204 C1216 1.349 . S
C1205 C1203 1.327 . S
C1205 C1221 1.429 . S
C1205 H1227 0.950 . S
C1206 H1202 0.949 . S
C1206 C1214 1.574 . S
C1206 C1222 1.368 . S
H1207 C1215 0.950 . S
H1208 C1213 0.950 . S
H1209 C1214 0.949 . S
H1210 C1216 0.950 . S
H1211 C1217 0.950 . S
H1212 C1218 0.949 . S
C1213 H1208 0.950 . S
C1213 C1215 1.327 . S
C1213 C1219 1.429 . S
C1214 C1206 1.574 . S
C1214 H1209 0.949 . S
C1214 C1220 1.368 . S
C1215 C1199 1.349 . S
C1215 H1207 0.950 . S
C1215 C1213 1.327 . S
C1216 C1204 1.349 . S
C1216 H1210 0.950 . S
C1216 C1217 1.327 . S
C1217 H1211 0.950 . S
C1217 C1216 1.327 . S
C1217 C1221 1.429 . S
C1218 C1201 1.574 . S
C1218 H1212 0.949 . S
C1218 C1222 1.368 . S
C1219 C1200 1.429 . S
C1219 C1213 1.429 . S
C1219 C1220 1.523 . S
C1220 C1201 1.368 . S
C1220 C1214 1.368 . S
C1220 C1219 1.523 . S
C1221 C1205 1.429 . S
C1221 C1217 1.429 . S
C1221 C1222 1.523 . S
C1222 C1206 1.368 . S
C1222 C1218 1.368 . S
C1222 C1221 1.523 . S
H1223 C1198 0.950 . S
H1224 C1200 0.950 . S
H1225 C1201 0.949 . S
H1226 C1203 0.950 . S
H1227 C1205 0.950 . S
C1228 C1229 1.349 . S
C1228 C1230 1.327 . S
C1228 H1253 0.950 . S
C1229 C1228 1.349 . S
C1229 C1245 1.349 . S
C1230 C1228 1.327 . S
C1230 C1249 1.429 . S
C1230 H1254 0.950 . S
C1231 C1248 1.574 . S
C1231 C1250 1.368 . S
C1231 H1255 0.949 . S
H1232 C1236 0.949 . S
C1233 C1234 1.349 . S
C1233 C1235 1.327 . S
C1233 H1256 0.950 . S
C1234 C1233 1.349 . S
C1234 C1246 1.349 . S
C1235 C1233 1.327 . S
C1235 C1251 1.429 . S
C1235 H1257 0.950 . S
C1236 H1232 0.949 . S
C1236 C1244 1.574 . S
C1236 C1252 1.368 . S
H1237 C1245 0.950 . S
H1238 C1243 0.950 . S
H1239 C1244 0.949 . S
H1240 C1246 0.950 . S
H1241 C1247 0.950 . S
H1242 C1248 0.949 . S
C1243 H1238 0.950 . S
C1243 C1245 1.327 . S
C1243 C1249 1.429 . S
C1244 C1236 1.574 . S
C1244 H1239 0.949 . S
C1244 C1250 1.368 . S
C1245 C1229 1.349 . S
C1245 H1237 0.950 . S
C1245 C1243 1.327 . S
C1246 C1234 1.349 . S
C1246 H1240 0.950 . S
C1246 C1247 1.327 . S
C1247 H1241 0.950 . S
C1247 C1246 1.327 . S
C1247 C1251 1.429 . S
C1248 C1231 1.574 . S
C1248 H1242 0.949 . S
C1248 C1252 1.368 . S
C1249 C1230 1.429 . S
C1249 C1243 1.429 . S
C1249 C1250 1.523 . S
C1250 C1231 1.368 . S
C1250 C1244 1.368 . S
C1250 C1249 1.523 . S
C1251 C1235 1.429 . S
C1251 C1247 1.429 . S
C1251 C1252 1.523 . S
C1252 C1236 1.368 . S
C1252 C1248 1.368 . S
C1252 C1251 1.523 . S
H1253 C1228 0.950 . S
H1254 C1230 0.950 . S
H1255 C1231 0.949 . S
H1256 C1233 0.950 . S
H1257 C1235 0.950 . S
C1258 C1259 1.349 . S
C1258 C1260 1.327 . S
C1258 H1283 0.950 . S
C1259 C1258 1.349 . S
C1259 C1275 1.349 . S
C1260 C1258 1.327 . S
C1260 C1279 1.429 . S
C1260 H1284 0.950 . S
C1261 C1278 1.576 . S
C1261 C1280 1.332 1_455 S
C1261 H1285 0.981 . S
H1262 C1266 0.949 . S
C1263 C1264 1.349 1_455 S
C1263 C1265 1.327 . S
C1263 H1286 0.950 . S
C1264 C1263 1.349 1_655 S
C1264 C1276 1.349 . S
C1265 C1263 1.327 . S
C1265 C1281 1.429 1_455 S
C1265 H1287 0.950 . S
C1266 H1262 0.949 . S
C1266 C1274 1.574 . S
C1266 C1282 1.368 . S
H1267 C1275 0.950 1_455 S
H1268 C1273 0.950 1_455 S
H1269 C1274 0.949 . S
H1270 C1276 0.950 . S
H1271 C1277 0.950 . S
H1272 C1278 0.949 . S
C1273 H1268 0.950 1_655 S
C1273 C1275 1.327 . S
C1273 C1279 1.429 . S
C1274 C1266 1.574 . S
C1274 H1269 0.949 . S
C1274 C1280 1.368 . S
C1275 C1259 1.349 . S
C1275 H1267 0.950 1_655 S
C1275 C1273 1.327 . S
C1276 C1264 1.349 . S
C1276 H1270 0.950 . S
C1276 C1277 1.327 . S
C1277 H1271 0.950 . S
C1277 C1276 1.327 . S
C1277 C1281 1.429 . S
C1278 C1261 1.576 . S
C1278 H1272 0.949 . S
C1278 C1282 1.368 1_455 S
C1279 C1260 1.429 . S
C1279 C1273 1.429 . S
C1279 C1280 1.523 . S
C1280 C1261 1.332 1_655 S
C1280 C1274 1.368 . S
C1280 C1279 1.523 . S
C1281 C1265 1.429 1_655 S
C1281 C1277 1.429 . S
C1281 C1282 1.523 . S
C1282 C1266 1.368 . S
C1282 C1278 1.368 1_655 S
C1282 C1281 1.523 . S
H1283 C1258 0.950 . S
H1284 C1260 0.950 . S
H1285 C1261 0.981 . S
H1286 C1263 0.950 . S
H1287 C1265 0.950 . S
C1288 C1289 1.349 . S
C1288 C1290 1.327 . S
C1288 H1313 0.950 . S
C1289 C1288 1.349 . S
C1289 C1305 1.349 . S
C1290 C1288 1.327 . S
C1290 C1309 1.429 . S
C1290 H1314 0.950 . S
C1291 C1308 1.574 . S
C1291 C1310 1.368 . S
C1291 H1315 0.949 . S
H1292 C1296 0.949 . S
C1293 C1294 1.349 . S
C1293 C1295 1.327 . S
C1293 H1316 0.950 . S
C1294 C1293 1.349 . S
C1294 C1306 1.349 . S
C1295 C1293 1.327 . S
C1295 C1311 1.429 . S
C1295 H1317 0.950 . S
C1296 H1292 0.949 . S
C1296 C1304 1.574 . S
C1296 C1312 1.368 . S
H1297 C1305 0.950 . S
H1298 C1303 0.950 . S
H1299 C1304 0.949 . S
H1300 C1306 0.950 . S
H1301 C1307 0.950 . S
H1302 C1308 0.949 . S
C1303 H1298 0.950 . S
C1303 C1305 1.327 . S
C1303 C1309 1.429 . S
C1304 C1296 1.574 . S
C1304 H1299 0.949 . S
C1304 C1310 1.368 . S
C1305 C1289 1.349 . S
C1305 H1297 0.950 . S
C1305 C1303 1.327 . S
C1306 C1294 1.349 . S
C1306 H1300 0.950 . S
C1306 C1307 1.327 . S
C1307 H1301 0.950 . S
C1307 C1306 1.327 . S
C1307 C1311 1.429 . S
C1308 C1291 1.574 . S
C1308 H1302 0.949 . S
C1308 C1312 1.368 . S
C1309 C1290 1.429 . S
C1309 C1303 1.429 . S
C1309 C1310 1.523 . S
C1310 C1291 1.368 . S
C1310 C1304 1.368 . S
C1310 C1309 1.523 . S
C1311 C1295 1.429 . S
C1311 C1307 1.429 . S
C1311 C1312 1.523 . S
C1312 C1296 1.368 . S
C1312 C1308 1.368 . S
C1312 C1311 1.523 . S
H1313 C1288 0.950 . S
H1314 C1290 0.950 . S
H1315 C1291 0.949 . S
H1316 C1293 0.950 . S
H1317 C1295 0.950 . S
C1318 C1319 1.349 . S
C1318 C1320 1.327 . S
C1318 H1343 0.950 . S
C1319 C1318 1.349 . S
C1319 C1335 1.349 . S
C1320 C1318 1.327 . S
C1320 C1339 1.429 . S
C1320 H1344 0.950 . S
C1321 C1338 1.574 . S
C1321 C1340 1.368 . S
C1321 H1345 0.949 . S
H1322 C1326 0.949 . S
C1323 C1324 1.349 . S
C1323 C1325 1.327 . S
C1323 H1346 0.950 . S
C1324 C1323 1.349 . S
C1324 C1336 1.349 . S
C1325 C1323 1.327 . S
C1325 C1341 1.429 . S
C1325 H1347 0.950 . S
C1326 H1322 0.949 . S
C1326 C1334 1.574 . S
C1326 C1342 1.368 . S
H1327 C1335 0.950 . S
H1328 C1333 0.950 . S
H1329 C1334 0.949 . S
H1330 C1336 0.950 . S
H1331 C1337 0.950 . S
H1332 C1338 0.949 . S
C1333 H1328 0.950 . S
C1333 C1335 1.327 . S
C1333 C1339 1.429 . S
C1334 C1326 1.574 . S
C1334 H1329 0.949 . S
C1334 C1340 1.368 . S
C1335 C1319 1.349 . S
C1335 H1327 0.950 . S
C1335 C1333 1.327 . S
C1336 C1324 1.349 . S
C1336 H1330 0.950 . S
C1336 C1337 1.327 . S
C1337 H1331 0.950 . S
C1337 C1336 1.327 . S
C1337 C1341 1.429 . S
C1338 C1321 1.574 . S
C1338 H1332 0.949 . S
C1338 C1342 1.368 . S
C1339 C1320 1.429 . S
C1339 C1333 1.429 . S
C1339 C1340 1.523 . S
C1340 C1321 1.368 . S
C1340 C1334 1.368 . S
C1340 C1339 1.523 . S
C1341 C1325 1.429 . S
C1341 C1337 1.429 . S
C1341 C1342 1.523 . S
C1342 C1326 1.368 . S
C1342 C1338 1.368 . S
C1342 C1341 1.523 . S
H1343 C1318 0.950 . S
H1344 C1320 0.950 . S
H1345 C1321 0.949 . S
H1346 C1323 0.950 . S
H1347 C1325 0.950 . S
C1348 C1349 1.349 . S
C1348 C1350 1.327 . S
C1348 H1373 0.950 . S
C1349 C1348 1.349 . S
C1349 C1365 1.349 . S
C1350 C1348 1.327 . S
C1350 C1369 1.429 . S
C1350 H1374 0.950 . S
C1351 C1368 1.574 . S
C1351 C1370 1.368 1_554 S
C1351 H1375 0.949 . S
H1352 C1356 0.949 . S
C1353 C1354 1.349 1_554 S
C1353 C1355 1.327 . S
C1353 H1376 0.950 . S
C1354 C1353 1.349 1_556 S
C1354 C1366 1.349 . S
C1355 C1353 1.327 . S
C1355 C1371 1.429 1_554 S
C1355 H1377 0.950 . S
C1356 H1352 0.949 . S
C1356 C1364 1.574 . S
C1356 C1372 1.368 . S
H1357 C1365 0.950 1_554 S
H1358 C1363 0.950 1_554 S
H1359 C1364 0.949 . S
H1360 C1366 0.950 . S
H1361 C1367 0.950 . S
H1362 C1368 0.949 . S
C1363 H1358 0.950 1_556 S
C1363 C1365 1.327 . S
C1363 C1369 1.429 . S
C1364 C1356 1.574 . S
C1364 H1359 0.949 . S
C1364 C1370 1.368 . S
C1365 C1349 1.349 . S
C1365 H1357 0.950 1_556 S
C1365 C1363 1.327 . S
C1366 C1354 1.349 . S
C1366 H1360 0.950 . S
C1366 C1367 1.327 . S
C1367 H1361 0.950 . S
C1367 C1366 1.327 . S
C1367 C1371 1.429 . S
C1368 C1351 1.574 . S
C1368 H1362 0.949 . S
C1368 C1372 1.368 1_554 S
C1369 C1350 1.429 . S
C1369 C1363 1.429 . S
C1369 C1370 1.523 . S
C1370 C1351 1.368 1_556 S
C1370 C1364 1.368 . S
C1370 C1369 1.523 . S
C1371 C1355 1.429 1_556 S
C1371 C1367 1.429 . S
C1371 C1372 1.523 . S
C1372 C1356 1.368 . S
C1372 C1368 1.368 1_556 S
C1372 C1371 1.523 . S
H1373 C1348 0.950 . S
H1374 C1350 0.950 . S
H1375 C1351 0.949 . S
H1376 C1353 0.950 . S
H1377 C1355 0.950 . S
C1378 C1379 1.349 . S
C1378 C1380 1.327 . S
C1378 H1403 0.950 . S
C1379 C1378 1.349 . S
C1379 C1395 1.349 . S
C1380 C1378 1.327 . S
C1380 C1399 1.429 . S
C1380 H1404 0.950 . S
C1381 C1398 1.574 . S
C1381 C1400 1.368 . S
C1381 H1405 0.949 . S
H1382 C1386 0.949 . S
C1383 C1384 1.349 . S
C1383 C1385 1.327 . S
C1383 H1406 0.950 . S
C1384 C1383 1.349 . S
C1384 C1396 1.349 . S
C1385 C1383 1.327 . S
C1385 C1401 1.429 . S
C1385 H1407 0.950 . S
C1386 H1382 0.949 . S
C1386 C1394 1.574 . S
C1386 C1402 1.368 . S
H1387 C1395 0.950 . S
H1388 C1393 0.950 . S
H1389 C1394 0.949 . S
H1390 C1396 0.950 . S
H1391 C1397 0.950 . S
H1392 C1398 0.949 . S
C1393 H1388 0.950 . S
C1393 C1395 1.327 . S
C1393 C1399 1.429 . S
C1394 C1386 1.574 . S
C1394 H1389 0.949 . S
C1394 C1400 1.368 . S
C1395 C1379 1.349 . S
C1395 H1387 0.950 . S
C1395 C1393 1.327 . S
C1396 C1384 1.349 . S
C1396 H1390 0.950 . S
C1396 C1397 1.327 . S
C1397 H1391 0.950 . S
C1397 C1396 1.327 . S
C1397 C1401 1.429 . S
C1398 C1381 1.574 . S
C1398 H1392 0.949 . S
C1398 C1402 1.368 . S
C1399 C1380 1.429 . S
C1399 C1393 1.429 . S
C1399 C1400 1.523 . S
C1400 C1381 1.368 . S
C1400 C1394 1.368 . S
C1400 C1399 1.523 . S
C1401 C1385 1.429 . S
C1401 C1397 1.429 . S
C1401 C1402 1.523 . S
C1402 C1386 1.368 . S
C1402 C1398 1.368 . S
C1402 C1401 1.523 . S
H1403 C1378 0.950 . S
H1404 C1380 0.950 . S
H1405 C1381 0.949 . S
H1406 C1383 0.950 . S
H1407 C1385 0.950 . S
C1408 C1409 1.349 . S
C1408 C1410 1.327 . S
C1408 H1433 0.950 . S
C1409 C1408 1.349 . S
C1409 C1425 1.349 . S
C1410 C1408 1.327 . S
C1410 C1429 1.429 . S
C1410 H1434 0.950 . S
C1411 C1428 1.574 . S
C1411 C1430 1.368 . S
C1411 H1435 0.949 . S
H1412 C1416 0.949 . S
C1413 C1414 1.349 . S
C1413 C1415 1.327 . S
C1413 H1436 0.950 . S
C1414 C1413 1.349 . S
C1414 C1426 1.349 . S
C1415 C1413 1.327 . S
C1415 C1431 1.429 . S
C1415 H1437 0.950 . S
C1416 H1412 0.949 . S
C1416 C1424 1.574 . S
C1416 C1432 1.368 . S
H1417 C1425 0.950 . S
H1418 C1423 0.950 . S
H1419 C1424 0.949 . S
H1420 C1426 0.950 . S
H1421 C1427 0.950 . S
H1422 C1428 0.949 . S
C1423 H1418 0.950 . S
C1423 C1425 1.327 . S
C1423 C1429 1.429 . S
C1424 C1416 1.574 . S
C1424 H1419 0.949 . S
C1424 C1430 1.368 . S
C1425 C1409 1.349 . S
C1425 H1417 0.950 . S
C1425 C1423 1.327 . S
C1426 C1414 1.349 . S
C1426 H1420 0.950 . S
C1426 C1427 1.327 . S
C1427 H1421 0.950 . S
C1427 C1426 1.327 . S
C1427 C1431 1.429 . S
C1428 C1411 1.574 . S
C1428 H1422 0.949 . S
C1428 C1432 1.368 . S
C1429 C1410 1.429 . S
C1429 C1423 1.429 . S
C1429 C1430 1.523 . S
C1430 C1411 1.368 . S
C1430 C1424 1.368 . S
C1430 C1429 1.523 . S
C1431 C1415 1.429 . S
C1431 C1427 1.429 . S
C1431 C1432 1.523 . S
C1432 C1416 1.368 . S
C1432 C1428 1.368 . S
C1432 C1431 1.523 . S
H1433 C1408 0.950 . S
H1434 C1410 0.950 . S
H1435 C1411 0.949 . S
H1436 C1413 0.950 . S
H1437 C1415 0.950 . S
C1438 C1439 1.349 . S
C1438 C1440 1.327 . S
C1438 H1463 0.950 . S
C1439 C1438 1.349 . S
C1439 C1455 1.349 . S
C1440 C1438 1.327 . S
C1440 C1459 1.429 . S
C1440 H1464 0.950 . S
C1441 C1458 1.574 . S
C1441 C1460 1.368 . S
C1441 H1465 0.949 . S
H1442 C1446 0.949 . S
C1443 C1444 1.349 . S
C1443 C1445 1.327 . S
C1443 H1466 0.950 . S
C1444 C1443 1.349 . S
C1444 C1456 1.349 . S
C1445 C1443 1.327 . S
C1445 C1461 1.429 . S
C1445 H1467 0.950 . S
C1446 H1442 0.949 . S
C1446 C1454 1.574 . S
C1446 C1462 1.368 . S
H1447 C1455 0.950 . S
H1448 C1453 0.950 . S
H1449 C1454 0.949 . S
H1450 C1456 0.950 . S
H1451 C1457 0.950 . S
H1452 C1458 0.949 . S
C1453 H1448 0.950 . S
C1453 C1455 1.327 . S
C1453 C1459 1.429 . S
C1454 C1446 1.574 . S
C1454 H1449 0.949 . S
C1454 C1460 1.368 . S
C1455 C1439 1.349 . S
C1455 H1447 0.950 . S
C1455 C1453 1.327 . S
C1456 C1444 1.349 . S
C1456 H1450 0.950 . S
C1456 C1457 1.327 . S
C1457 H1451 0.950 . S
C1457 C1456 1.327 . S
C1457 C1461 1.429 . S
C1458 C1441 1.574 . S
C1458 H1452 0.949 . S
C1458 C1462 1.368 . S
C1459 C1440 1.429 . S
C1459 C1453 1.429 . S
C1459 C1460 1.523 . S
C1460 C1441 1.368 . S
C1460 C1454 1.368 . S
C1460 C1459 1.523 . S
C1461 C1445 1.429 . S
C1461 C1457 1.429 . S
C1461 C1462 1.523 . S
C1462 C1446 1.368 . S
C1462 C1458 1.368 . S
C1462 C1461 1.523 . S
H1463 C1438 0.950 . S
H1464 C1440 0.950 . S
H1465 C1441 0.949 . S
H1466 C1443 0.950 . S
H1467 C1445 0.950 . S
C1468 C1469 1.349 . S
C1468 C1470 1.327 . S
C1468 H1493 0.950 . S
C1469 C1468 1.349 . S
C1469 C1485 1.349 . S
C1470 C1468 1.327 . S
C1470 C1489 1.429 . S
C1470 H1494 0.950 . S
C1471 C1488 1.574 . S
C1471 C1490 1.368 . S
C1471 H1495 0.949 . S
H1472 C1476 0.949 . S
C1473 C1474 1.349 . S
C1473 C1475 1.327 . S
C1473 H1496 0.950 . S
C1474 C1473 1.349 . S
C1474 C1486 1.349 . S
C1475 C1473 1.327 . S
C1475 C1491 1.429 . S
C1475 H1497 0.950 . S
C1476 H1472 0.949 . S
C1476 C1484 1.574 . S
C1476 C1492 1.368 . S
H1477 C1485 0.950 . S
H1478 C1483 0.950 . S
H1479 C1484 0.949 . S
H1480 C1486 0.950 . S
H1481 C1487 0.950 . S
H1482 C1488 0.949 . S
C1483 H1478 0.950 . S
C1483 C1485 1.327 . S
C1483 C1489 1.429 . S
C1484 C1476 1.574 . S
C1484 H1479 0.949 . S
C1484 C1490 1.368 . S
C1485 C1469 1.349 . S
C1485 H1477 0.950 . S
C1485 C1483 1.327 . S
C1486 C1474 1.349 . S
C1486 H1480 0.950 . S
C1486 C1487 1.327 . S
C1487 H1481 0.950 . S
C1487 C1486 1.327 . S
C1487 C1491 1.429 . S
C1488 C1471 1.574 . S
C1488 H1482 0.949 . S
C1488 C1492 1.368 . S
C1489 C1470 1.429 . S
C1489 C1483 1.429 . S
C1489 C1490 1.523 . S
C1490 C1471 1.368 . S
C1490 C1484 1.368 . S
C1490 C1489 1.523 . S
C1491 C1475 1.429 . S
C1491 C1487 1.429 . S
C1491 C1492 1.523 . S
C1492 C1476 1.368 . S
C1492 C1488 1.368 . S
C1492 C1491 1.523 . S
H1493 C1468 0.950 . S
H1494 C1470 0.950 . S
H1495 C1471 0.949 . S
H1496 C1473 0.950 . S
H1497 C1475 0.950 . S
C1498 C1499 1.349 . S
C1498 C1500 1.327 . S
C1498 H1523 0.950 . S
C1499 C1498 1.349 . S
C1499 C1515 1.349 . S
C1500 C1498 1.327 . S
C1500 C1519 1.429 . S
C1500 H1524 0.950 . S
C1501 C1518 1.574 . S
C1501 C1520 1.368 . S
C1501 H1525 0.949 . S
H1502 C1506 0.949 . S
C1503 C1504 1.349 . S
C1503 C1505 1.327 . S
C1503 H1526 0.950 . S
C1504 C1503 1.349 . S
C1504 C1516 1.349 . S
C1505 C1503 1.327 . S
C1505 C1521 1.429 . S
C1505 H1527 0.950 . S
C1506 H1502 0.949 . S
C1506 C1514 1.574 . S
C1506 C1522 1.368 . S
H1507 C1515 0.950 . S
H1508 C1513 0.950 . S
H1509 C1514 0.949 . S
H1510 C1516 0.950 . S
H1511 C1517 0.950 . S
H1512 C1518 0.949 . S
C1513 H1508 0.950 . S
C1513 C1515 1.327 . S
C1513 C1519 1.429 . S
C1514 C1506 1.574 . S
C1514 H1509 0.949 . S
C1514 C1520 1.368 . S
C1515 C1499 1.349 . S
C1515 H1507 0.950 . S
C1515 C1513 1.327 . S
C1516 C1504 1.349 . S
C1516 H1510 0.950 . S
C1516 C1517 1.327 . S
C1517 H1511 0.950 . S
C1517 C1516 1.327 . S
C1517 C1521 1.429 . S
C1518 C1501 1.574 . S
C1518 H1512 0.949 . S
C1518 C1522 1.368 . S
C1519 C1500 1.429 . S
C1519 C1513 1.429 . S
C1519 C1520 1.523 . S
C1520 C1501 1.368 . S
C1520 C1514 1.368 . S
C1520 C1519 1.523 . S
C1521 C1505 1.429 . S
C1521 C1517 1.429 . S
C1521 C1522 1.523 . S
C1522 C1506 1.368 . S
C1522 C1518 1.368 . S
C1522 C1521 1.523 . S
H1523 C1498 0.950 . S
H1524 C1500 0.950 . S
H1525 C1501 0.949 . S
H1526 C1503 0.950 . S
H1527 C1505 0.950 . S
C1528 C1529 1.349 . S
C1528 C1530 1.327 . S
C1528 H1553 0.950 . S
C1529 C1528 1.349 . S
C1529 C1545 1.349 . S
C1530 C1528 1.327 . S
C1530 C1549 1.429 . S
C1530 H1554 0.950 . S
C1531 C1548 1.574 . S
C1531 C1550 1.368 . S
C1531 H1555 0.949 . S
H1532 C1536 0.949 . S
C1533 C1534 1.349 . S
C1533 C1535 1.327 . S
C1533 H1556 0.950 . S
C1534 C1533 1.349 . S
C1534 C1546 1.349 . S
C1535 C1533 1.327 . S
C1535 C1551 1.429 . S
C1535 H1557 0.950 . S
C1536 H1532 0.949 . S
C1536 C1544 1.574 . S
C1536 C1552 1.368 . S
H1537 C1545 0.950 . S
H1538 C1543 0.950 . S
H1539 C1544 0.949 . S
H1540 C1546 0.950 . S
H1541 C1547 0.950 . S
H1542 C1548 0.949 . S
C1543 H1538 0.950 . S
C1543 C1545 1.327 . S
C1543 C1549 1.429 . S
C1544 C1536 1.574 . S
C1544 H1539 0.949 . S
C1544 C1550 1.368 . S
C1545 C1529 1.349 . S
C1545 H1537 0.950 . S
C1545 C1543 1.327 . S
C1546 C1534 1.349 . S
C1546 H1540 0.950 . S
C1546 C1547 1.327 . S
C1547 H1541 0.950 . S
C1547 C1546 1.327 . S
C1547 C1551 1.429 . S
C1548 C1531 1.574 . S
C1548 H1542 0.949 . S
C1548 C1552 1.368 . S
C1549 C1530 1.429 . S
C1549 C1543 1.429 . S
C1549 C1550 1.523 . S
C1550 C1531 1.368 . S
C1550 C1544 1.368 . S
C1550 C1549 1.523 . S
C1551 C1535 1.429 . S
C1551 C1547 1.429 . S
C1551 C1552 1.523 . S
C1552 C1536 1.368 . S
C1552 C1548 1.368 . S
C1552 C1551 1.523 . S
H1553 C1528 0.950 . S
H1554 C1530 0.950 . S
H1555 C1531 0.949 . S
H1556 C1533 0.950 . S
H1557 C1535 0.950 . S
C1558 C1559 1.349 . S
C1558 C1560 1.327 . S
C1558 H1583 0.950 1_545 S
C1559 C1558 1.349 . S
C1559 C1575 1.349 . S
C1560 C1558 1.327 . S
C1560 C1579 1.429 . S
C1560 H1584 0.950 1_545 S
C1561 C1578 1.574 . S
C1561 C1580 1.368 . S
C1561 H1585 0.949 . S
H1562 C1566 0.949 . S
C1563 C1564 1.349 . S
C1563 C1565 1.327 . S
C1563 H1586 0.950 . S
C1564 C1563 1.349 . S
C1564 C1576 1.349 1_545 S
C1565 C1563 1.327 . S
C1565 C1581 1.429 . S
C1565 H1587 0.950 . S
C1566 H1562 0.949 . S
C1566 C1574 1.570 1_565 S
C1566 C1582 1.368 1_565 S
H1567 C1575 0.950 . S
H1568 C1573 0.950 . S
H1569 C1574 0.927 1_565 S
H1570 C1576 0.950 . S
H1571 C1577 0.950 . S
H1572 C1578 0.949 . S
C1573 H1568 0.950 . S
C1573 C1575 1.327 . S
C1573 C1579 1.429 . S
C1574 C1566 1.570 1_545 S
C1574 H1569 0.927 1_545 S
C1574 C1580 1.397 . S
C1575 C1559 1.349 . S
C1575 H1567 0.950 . S
C1575 C1573 1.327 . S
C1576 C1564 1.349 1_565 S
C1576 H1570 0.950 . S
C1576 C1577 1.327 . S
C1577 H1571 0.950 . S
C1577 C1576 1.327 . S
C1577 C1581 1.429 1_565 S
C1578 C1561 1.574 . S
C1578 H1572 0.949 . S
C1578 C1582 1.368 . S
C1579 C1560 1.429 . S
C1579 C1573 1.429 . S
C1579 C1580 1.523 . S
C1580 C1561 1.368 . S
C1580 C1574 1.397 . S
C1580 C1579 1.523 . S
C1581 C1565 1.429 . S
C1581 C1577 1.429 1_545 S
C1581 C1582 1.523 . S
C1582 C1566 1.368 1_545 S
C1582 C1578 1.368 . S
C1582 C1581 1.523 . S
H1583 C1558 0.950 1_565 S
H1584 C1560 0.950 1_565 S
H1585 C1561 0.949 . S
H1586 C1563 0.950 . S
H1587 C1565 0.950 . S
C1588 C1589 1.349 . S
C1588 C1590 1.327 . S
C1588 H1613 0.950 . S
C1589 C1588 1.349 . S
C1589 C1605 1.349 . S
C1590 C1588 1.327 . S
C1590 C1609 1.429 . S
C1590 H1614 0.950 . S
C1591 C1608 1.574 . S
C1591 C1610 1.368 . S
C1591 H1615 0.949 . S
H1592 C1596 0.949 . S
C1593 C1594 1.349 . S
C1593 C1595 1.327 . S
C1593 H1616 0.950 . S
C1594 C1593 1.349 . S
C1594 C1606 1.349 . S
C1595 C1593 1.327 . S
C1595 C1611 1.429 . S
C1595 H1617 0.950 . S
C1596 H1592 0.949 . S
C1596 C1604 1.574 . S
C1596 C1612 1.368 . S
H1597 C1605 0.950 . S
H1598 C1603 0.950 . S
H1599 C1604 0.949 . S
H1600 C1606 0.950 . S
H1601 C1607 0.950 . S
H1602 C1608 0.949 . S
C1603 H1598 0.950 . S
C1603 C1605 1.327 . S
C1603 C1609 1.429 . S
C1604 C1596 1.574 . S
C1604 H1599 0.949 . S
C1604 C1610 1.368 . S
C1605 C1589 1.349 . S
C1605 H1597 0.950 . S
C1605 C1603 1.327 . S
C1606 C1594 1.349 . S
C1606 H1600 0.950 . S
C1606 C1607 1.327 . S
C1607 H1601 0.950 . S
C1607 C1606 1.327 . S
C1607 C1611 1.429 . S
C1608 C1591 1.574 . S
C1608 H1602 0.949 . S
C1608 C1612 1.368 . S
C1609 C1590 1.429 . S
C1609 C1603 1.429 . S
C1609 C1610 1.523 . S
C1610 C1591 1.368 . S
C1610 C1604 1.368 . S
C1610 C1609 1.523 . S
C1611 C1595 1.429 . S
C1611 C1607 1.429 . S
C1611 C1612 1.523 . S
C1612 C1596 1.368 . S
C1612 C1608 1.368 . S
C1612 C1611 1.523 . S
H1613 C1588 0.950 . S
H1614 C1590 0.950 . S
H1615 C1591 0.949 . S
H1616 C1593 0.950 . S
H1617 C1595 0.950 . S
C1618 C1619 1.349 . S
C1618 C1620 1.327 . S
C1618 H1643 0.950 . S
C1619 C1618 1.349 . S
C1619 C1635 1.349 . S
C1620 C1618 1.327 . S
C1620 C1639 1.429 . S
C1620 H1644 0.950 . S
C1621 C1638 1.574 . S
C1621 C1640 1.368 . S
C1621 H1645 0.949 . S
H1622 C1626 0.949 . S
C1623 C1624 1.349 . S
C1623 C1625 1.327 . S
C1623 H1646 0.950 . S
C1624 C1623 1.349 . S
C1624 C1636 1.349 . S
C1625 C1623 1.327 . S
C1625 C1641 1.429 . S
C1625 H1647 0.950 . S
C1626 H1622 0.949 . S
C1626 C1634 1.574 . S
C1626 C1642 1.368 . S
H1627 C1635 0.950 . S
H1628 C1633 0.950 . S
H1629 C1634 0.949 . S
H1630 C1636 0.950 . S
H1631 C1637 0.950 . S
H1632 C1638 0.949 . S
C1633 H1628 0.950 . S
C1633 C1635 1.327 . S
C1633 C1639 1.429 . S
C1634 C1626 1.574 . S
C1634 H1629 0.949 . S
C1634 C1640 1.368 . S
C1635 C1619 1.349 . S
C1635 H1627 0.950 . S
C1635 C1633 1.327 . S
C1636 C1624 1.349 . S
C1636 H1630 0.950 . S
C1636 C1637 1.327 . S
C1637 H1631 0.950 . S
C1637 C1636 1.327 . S
C1637 C1641 1.429 . S
C1638 C1621 1.574 . S
C1638 H1632 0.949 . S
C1638 C1642 1.368 . S
C1639 C1620 1.429 . S
C1639 C1633 1.429 . S
C1639 C1640 1.523 . S
C1640 C1621 1.368 . S
C1640 C1634 1.368 . S
C1640 C1639 1.523 . S
C1641 C1625 1.429 . S
C1641 C1637 1.429 . S
C1641 C1642 1.523 . S
C1642 C1626 1.368 . S
C1642 C1638 1.368 . S
C1642 C1641 1.523 . S
H1643 C1618 0.950 . S
H1644 C1620 0.950 . S
H1645 C1621 0.949 . S
H1646 C1623 0.950 . S
H1647 C1625 0.950 . S
C1648 C1649 1.349 . S
C1648 C1650 1.327 . S
C1648 H1673 0.950 . S
C1649 C1648 1.349 . S
C1649 C1665 1.349 . S
C1650 C1648 1.327 . S
C1650 C1669 1.429 . S
C1650 H1674 0.950 . S
C1651 C1668 1.574 . S
C1651 C1670 1.368 . S
C1651 H1675 0.949 . S
H1652 C1656 0.949 . S
C1653 C1654 1.349 . S
C1653 C1655 1.327 . S
C1653 H1676 0.950 . S
C1654 C1653 1.349 . S
C1654 C1666 1.349 . S
C1655 C1653 1.327 . S
C1655 C1671 1.429 . S
C1655 H1677 0.950 . S
C1656 H1652 0.949 . S
C1656 C1664 1.574 . S
C1656 C1672 1.368 . S
H1657 C1665 0.950 . S
H1658 C1663 0.950 . S
H1659 C1664 0.949 . S
H1660 C1666 0.950 . S
H1661 C1667 0.950 . S
H1662 C1668 0.949 . S
C1663 H1658 0.950 . S
C1663 C1665 1.327 . S
C1663 C1669 1.429 . S
C1664 C1656 1.574 . S
C1664 H1659 0.949 . S
C1664 C1670 1.368 . S
C1665 C1649 1.349 . S
C1665 H1657 0.950 . S
C1665 C1663 1.327 . S
C1666 C1654 1.349 . S
C1666 H1660 0.950 . S
C1666 C1667 1.327 . S
C1667 H1661 0.950 . S
C1667 C1666 1.327 . S
C1667 C1671 1.429 . S
C1668 C1651 1.574 . S
C1668 H1662 0.949 . S
C1668 C1672 1.368 . S
C1669 C1650 1.429 . S
C1669 C1663 1.429 . S
C1669 C1670 1.523 . S
C1670 C1651 1.368 . S
C1670 C1664 1.368 . S
C1670 C1669 1.523 . S
C1671 C1655 1.429 . S
C1671 C1667 1.429 . S
C1671 C1672 1.523 . S
C1672 C1656 1.368 . S
C1672 C1668 1.368 . S
C1672 C1671 1.523 . S
H1673 C1648 0.950 . S
H1674 C1650 0.950 . S
H1675 C1651 0.949 . S
H1676 C1653 0.950 . S
H1677 C1655 0.950 . S
C1678 C1679 1.349 . S
C1678 C1680 1.327 . S
C1678 H1703 0.950 . S
C1679 C1678 1.349 . S
C1679 C1695 1.349 . S
C1680 C1678 1.327 . S
C1680 C1699 1.429 . S
C1680 H1704 0.950 . S
C1681 C1698 1.574 . S
C1681 C1700 1.368 . S
C1681 H1705 0.949 . S
H1682 C1686 0.949 . S
C1683 C1684 1.349 . S
C1683 C1685 1.327 . S
C1683 H1706 0.950 . S
C1684 C1683 1.349 . S
C1684 C1696 1.349 . S
C1685 C1683 1.327 . S
C1685 C1701 1.429 . S
C1685 H1707 0.950 . S
C1686 H1682 0.949 . S
C1686 C1694 1.574 . S
C1686 C1702 1.368 . S
H1687 C1695 0.950 . S
H1688 C1693 0.950 . S
H1689 C1694 0.949 . S
H1690 C1696 1.002 . S
H1691 C1697 0.950 . S
H1692 C1698 0.949 . S
C1693 H1688 0.950 . S
C1693 C1695 1.327 . S
C1693 C1699 1.429 . S
C1694 C1686 1.574 . S
C1694 H1689 0.949 . S
C1694 C1700 1.368 . S
C1695 C1679 1.349 . S
C1695 H1687 0.950 . S
C1695 C1693 1.327 . S
C1696 C1684 1.349 . S
C1696 H1690 1.002 . S
C1696 C1697 1.327 . S
C1697 H1691 0.950 . S
C1697 C1696 1.327 . S
C1697 C1701 1.429 . S
C1698 C1681 1.574 . S
C1698 H1692 0.949 . S
C1698 C1702 1.368 . S
C1699 C1680 1.429 . S
C1699 C1693 1.429 . S
C1699 C1700 1.523 . S
C1700 C1681 1.368 . S
C1700 C1694 1.368 . S
C1700 C1699 1.523 . S
C1701 C1685 1.429 . S
C1701 C1697 1.429 . S
C1701 C1702 1.523 . S
C1702 C1686 1.368 . S
C1702 C1698 1.368 . S
C1702 C1701 1.523 . S
H1703 C1678 0.950 . S
H1704 C1680 0.950 . S
H1705 C1681 0.949 . S
H1706 C1683 0.950 . S
H1707 C1685 0.950 . S
C1708 C1709 1.349 . S
C1708 C1710 1.327 . S
C1708 H1733 0.950 . S
C1709 C1708 1.349 . S
C1709 C1725 1.349 . S
C1710 C1708 1.327 . S
C1710 C1729 1.429 . S
C1710 H1734 0.950 . S
C1711 C1728 1.574 . S
C1711 C1730 1.368 . S
C1711 H1735 0.949 . S
H1712 C1716 0.949 . S
C1713 C1714 1.349 . S
C1713 C1715 1.327 . S
C1713 H1736 0.950 . S
C1714 C1713 1.349 . S
C1714 C1726 1.349 . S
C1715 C1713 1.327 . S
C1715 C1731 1.429 . S
C1715 H1737 0.950 . S
C1716 H1712 0.949 . S
C1716 C1724 1.574 . S
C1716 C1732 1.368 . S
H1717 C1725 0.950 . S
H1718 C1723 0.950 . S
H1719 C1724 0.949 . S
H1720 C1726 0.950 . S
H1721 C1727 0.950 . S
H1722 C1728 0.949 . S
C1723 H1718 0.950 . S
C1723 C1725 1.327 . S
C1723 C1729 1.429 . S
C1724 C1716 1.574 . S
C1724 H1719 0.949 . S
C1724 C1730 1.368 . S
C1725 C1709 1.349 . S
C1725 H1717 0.950 . S
C1725 C1723 1.327 . S
C1726 C1714 1.349 . S
C1726 H1720 0.950 . S
C1726 C1727 1.327 . S
C1727 H1721 0.950 . S
C1727 C1726 1.327 . S
C1727 C1731 1.429 . S
C1728 C1711 1.574 . S
C1728 H1722 0.949 . S
C1728 C1732 1.368 . S
C1729 C1710 1.429 . S
C1729 C1723 1.429 . S
C1729 C1730 1.523 . S
C1730 C1711 1.368 . S
C1730 C1724 1.368 . S
C1730 C1729 1.523 . S
C1731 C1715 1.429 . S
C1731 C1727 1.429 . S
C1731 C1732 1.523 . S
C1732 C1716 1.368 . S
C1732 C1728 1.368 . S
C1732 C1731 1.523 . S
H1733 C1708 0.950 . S
H1734 C1710 0.950 . S
H1735 C1711 0.949 . S
H1736 C1713 0.950 . S
H1737 C1715 0.950 . S
C1738 C1739 1.349 . S
C1738 C1740 1.327 . S
C1738 H1763 0.950 . S
C1739 C1738 1.349 . S
C1739 C1755 1.349 . S
C1740 C1738 1.327 . S
C1740 C1759 1.429 . S
C1740 H1764 0.950 . S
C1741 C1758 1.574 . S
C1741 C1760 1.368 . S
C1741 H1765 0.949 . S
H1742 C1746 0.949 . S
C1743 C1744 1.349 . S
C1743 C1745 1.327 . S
C1743 H1766 0.950 . S
C1744 C1743 1.349 . S
C1744 C1756 1.349 . S
C1745 C1743 1.327 . S
C1745 C1761 1.429 . S
C1745 H1767 0.950 . S
C1746 H1742 0.949 . S
C1746 C1754 1.574 . S
C1746 C1762 1.368 . S
H1747 C1755 0.950 . S
H1748 C1753 0.950 . S
H1749 C1754 0.949 . S
H1750 C1756 0.950 . S
H1751 C1757 0.950 . S
H1752 C1758 0.949 . S
C1753 H1748 0.950 . S
C1753 C1755 1.327 . S
C1753 C1759 1.429 . S
C1754 C1746 1.574 . S
C1754 H1749 0.949 . S
C1754 C1760 1.368 . S
C1755 C1739 1.349 . S
C1755 H1747 0.950 . S
C1755 C1753 1.327 . S
C1756 C1744 1.349 . S
C1756 H1750 0.950 . S
C1756 C1757 1.327 . S
C1757 H1751 0.950 . S
C1757 C1756 1.327 . S
C1757 C1761 1.429 . S
C1758 C1741 1.574 . S
C1758 H1752 0.949 . S
C1758 C1762 1.368 . S
C1759 C1740 1.429 . S
C1759 C1753 1.429 . S
C1759 C1760 1.523 . S
C1760 C1741 1.368 . S
C1760 C1754 1.368 . S
C1760 C1759 1.523 . S
C1761 C1745 1.429 . S
C1761 C1757 1.429 . S
C1761 C1762 1.523 . S
C1762 C1746 1.368 . S
C1762 C1758 1.368 . S
C1762 C1761 1.523 . S
H1763 C1738 0.950 . S
H1764 C1740 0.950 . S
H1765 C1741 0.949 . S
H1766 C1743 0.950 . S
H1767 C1745 0.950 . S
C1768 C1769 1.349 . S
C1768 C1770 1.327 . S
C1768 H1793 0.950 . S
C1769 C1768 1.349 . S
C1769 C1785 1.349 . S
C1770 C1768 1.327 . S
C1770 C1789 1.429 . S
C1770 H1794 0.950 . S
C1771 C1788 1.574 . S
C1771 C1790 1.368 . S
C1771 H1795 0.949 . S
H1772 C1776 0.949 . S
C1773 C1774 1.349 . S
C1773 C1775 1.327 . S
C1773 H1796 0.950 . S
C1774 C1773 1.349 . S
C1774 C1786 1.349 . S
C1775 C1773 1.327 . S
C1775 C1791 1.429 . S
C1775 H1797 0.950 . S
C1776 H1772 0.949 . S
C1776 C1784 1.574 . S
C1776 C1792 1.368 . S
H1777 C1785 0.950 . S
H1778 C1783 0.950 . S
H1779 C1784 0.949 . S
H1780 C1786 0.950 . S
H1781 C1787 0.950 . S
H1782 C1788 0.949 . S
C1783 H1778 0.950 . S
C1783 C1785 1.327 . S
C1783 C1789 1.429 . S
C1784 C1776 1.574 . S
C1784 H1779 0.949 . S
C1784 C1790 1.368 . S
C1785 C1769 1.349 . S
C1785 H1777 0.950 . S
C1785 C1783 1.327 . S
C1786 C1774 1.349 . S
C1786 H1780 0.950 . S
C1786 C1787 1.327 . S
C1787 H1781 0.950 . S
C1787 C1786 1.327 . S
C1787 C1791 1.429 . S
C1788 C1771 1.574 . S
C1788 H1782 0.949 . S
C1788 C1792 1.368 . S
C1789 C1770 1.429 . S
C1789 C1783 1.429 . S
C1789 C1790 1.523 . S
C1790 C1771 1.368 . S
C1790 C1784 1.368 . S
C1790 C1789 1.523 . S
C1791 C1775 1.429 . S
C1791 C1787 1.429 . S
C1791 C1792 1.523 . S
C1792 C1776 1.368 . S
C1792 C1788 1.368 . S
C1792 C1791 1.523 . S
H1793 C1768 0.950 . S
H1794 C1770 0.950 . S
H1795 C1771 0.949 . S
H1796 C1773 0.950 . S
H1797 C1775 0.950 . S
C1798 C1799 1.349 . S
C1798 C1800 1.331 . S
C1798 H1823 0.950 . S
C1799 C1798 1.349 . S
C1799 C1815 1.349 . S
C1800 C1798 1.331 . S
C1800 C1819 1.430 . S
C1800 H1824 0.945 1_655 S
C1801 C1818 1.574 1_655 S
C1801 C1820 1.365 1_655 S
C1801 H1825 0.949 . S
H1802 C1806 0.949 . S
C1803 C1804 1.349 . S
C1803 C1805 1.327 . S
C1803 H1826 0.950 . S
C1804 C1803 1.349 . S
C1804 C1816 1.349 . S
C1805 C1803 1.327 . S
C1805 C1821 1.429 . S
C1805 H1827 0.950 . S
C1806 H1802 0.949 . S
C1806 C1814 1.574 . S
C1806 C1822 1.368 . S
H1807 C1815 0.921 1_554 S
H1808 C1813 0.950 . S
H1809 C1814 0.949 . S
H1810 C1816 0.950 . S
H1811 C1817 0.950 . S
H1812 C1818 0.950 . S
C1813 H1808 0.950 . S
C1813 C1815 1.327 . S
C1813 C1819 1.429 . S
C1814 C1806 1.574 . S
C1814 H1809 0.949 . S
C1814 C1820 1.379 . S
C1815 C1799 1.349 . S
C1815 H1807 0.921 1_556 S
C1815 C1813 1.327 . S
C1816 C1804 1.349 . S
C1816 H1810 0.950 . S
C1816 C1817 1.327 . S
C1817 H1811 0.950 . S
C1817 C1816 1.327 . S
C1817 C1821 1.429 . S
C1818 C1801 1.574 1_455 S
C1818 H1812 0.950 . S
C1818 C1822 1.368 . S
C1819 C1800 1.430 . S
C1819 C1813 1.429 . S
C1819 C1820 1.515 1_655 S
C1820 C1801 1.365 1_455 S
C1820 C1814 1.379 . S
C1820 C1819 1.515 1_455 S
C1821 C1805 1.429 . S
C1821 C1817 1.429 . S
C1821 C1822 1.523 . S
C1822 C1806 1.368 . S
C1822 C1818 1.368 . S
C1822 C1821 1.523 . S
H1823 C1798 0.950 . S
H1824 C1800 0.945 1_455 S
H1825 C1801 0.949 . S
H1826 C1803 0.950 . S
H1827 C1805 0.950 . S
C1828 C1829 1.349 . S
C1828 C1830 1.327 . S
C1828 H1853 0.950 . S
C1829 C1828 1.349 . S
C1829 C1845 1.349 . S
C1830 C1828 1.327 . S
C1830 C1849 1.429 . S
C1830 H1854 0.950 . S
C1831 C1848 1.574 . S
C1831 C1850 1.368 . S
C1831 H1855 0.949 . S
H1832 C1836 0.949 . S
C1833 C1834 1.349 . S
C1833 C1835 1.327 . S
C1833 H1856 0.950 . S
C1834 C1833 1.349 . S
C1834 C1846 1.349 . S
C1835 C1833 1.327 . S
C1835 C1851 1.429 . S
C1835 H1857 0.950 . S
C1836 H1832 0.949 . S
C1836 C1844 1.574 . S
C1836 C1852 1.368 . S
H1837 C1845 0.950 . S
H1838 C1843 0.950 . S
H1839 C1844 0.949 . S
H1840 C1846 0.950 . S
H1841 C1847 0.950 . S
H1842 C1848 0.949 . S
C1843 H1838 0.950 . S
C1843 C1845 1.327 . S
C1843 C1849 1.429 . S
C1844 C1836 1.574 . S
C1844 H1839 0.949 . S
C1844 C1850 1.368 . S
C1845 C1829 1.349 . S
C1845 H1837 0.950 . S
C1845 C1843 1.327 . S
C1846 C1834 1.349 . S
C1846 H1840 0.950 . S
C1846 C1847 1.327 . S
C1847 H1841 0.950 . S
C1847 C1846 1.327 . S
C1847 C1851 1.429 . S
C1848 C1831 1.574 . S
C1848 H1842 0.949 . S
C1848 C1852 1.368 . S
C1849 C1830 1.429 . S
C1849 C1843 1.429 . S
C1849 C1850 1.523 . S
C1850 C1831 1.368 . S
C1850 C1844 1.368 . S
C1850 C1849 1.523 . S
C1851 C1835 1.429 . S
C1851 C1847 1.429 . S
C1851 C1852 1.523 . S
C1852 C1836 1.368 . S
C1852 C1848 1.368 . S
C1852 C1851 1.523 . S
H1853 C1828 0.950 . S
H1854 C1830 0.950 . S
H1855 C1831 0.949 . S
H1856 C1833 0.950 . S
H1857 C1835 0.950 . S
C1858 C1859 1.349 . S
C1858 C1860 1.327 . S
C1858 H1883 0.950 . S
C1859 C1858 1.349 . S
C1859 C1875 1.349 . S
C1860 C1858 1.327 . S
C1860 C1879 1.429 . S
C1860 H1884 0.950 . S
C1861 C1878 1.574 . S
C1861 C1880 1.368 . S
C1861 H1885 0.949 . S
H1862 C1866 0.949 . S
C1863 C1864 1.349 . S
C1863 C1865 1.327 . S
C1863 H1886 0.950 . S
C1864 C1863 1.349 . S
C1864 C1876 1.349 . S
C1865 C1863 1.327 . S
C1865 C1881 1.429 . S
C1865 H1887 0.950 . S
C1866 H1862 0.949 . S
C1866 C1874 1.574 . S
C1866 C1882 1.368 . S
H1867 C1875 0.950 . S
H1868 C1873 0.950 . S
H1869 C1874 0.949 . S
H1870 C1876 0.950 . S
H1871 C1877 0.950 . S
H1872 C1878 0.949 . S
C1873 H1868 0.950 . S
C1873 C1875 1.327 . S
C1873 C1879 1.429 . S
C1874 C1866 1.574 . S
C1874 H1869 0.949 . S
C1874 C1880 1.368 . S
C1875 C1859 1.349 . S
C1875 H1867 0.950 . S
C1875 C1873 1.327 . S
C1876 C1864 1.349 . S
C1876 H1870 0.950 . S
C1876 C1877 1.327 . S
C1877 H1871 0.950 . S
C1877 C1876 1.327 . S
C1877 C1881 1.429 . S
C1878 C1861 1.574 . S
C1878 H1872 0.949 . S
C1878 C1882 1.368 . S
C1879 C1860 1.429 . S
C1879 C1873 1.429 . S
C1879 C1880 1.523 . S
C1880 C1861 1.368 . S
C1880 C1874 1.368 . S
C1880 C1879 1.523 . S
C1881 C1865 1.429 . S
C1881 C1877 1.429 . S
C1881 C1882 1.523 . S
C1882 C1866 1.368 . S
C1882 C1878 1.368 . S
C1882 C1881 1.523 . S
H1883 C1858 0.950 . S
H1884 C1860 0.950 . S
H1885 C1861 0.949 . S
H1886 C1863 0.950 . S
H1887 C1865 0.950 . S
C1888 C1889 1.349 . S
C1888 C1890 1.327 . S
C1888 H1913 0.950 . S
C1889 C1888 1.349 . S
C1889 C1905 1.349 . S
C1890 C1888 1.327 . S
C1890 C1909 1.429 . S
C1890 H1914 0.950 . S
C1891 C1908 1.574 . S
C1891 C1910 1.368 . S
C1891 H1915 0.949 . S
H1892 C1896 0.949 . S
C1893 C1894 1.349 . S
C1893 C1895 1.327 . S
C1893 H1916 0.950 . S
C1894 C1893 1.349 . S
C1894 C1906 1.349 . S
C1895 C1893 1.327 . S
C1895 C1911 1.429 . S
C1895 H1917 0.950 . S
C1896 H1892 0.949 . S
C1896 C1904 1.574 . S
C1896 C1912 1.368 . S
H1897 C1905 0.950 . S
H1898 C1903 0.950 . S
H1899 C1904 0.949 . S
H1900 C1906 0.950 . S
H1901 C1907 0.950 . S
H1902 C1908 0.949 . S
C1903 H1898 0.950 . S
C1903 C1905 1.327 . S
C1903 C1909 1.429 . S
C1904 C1896 1.574 . S
C1904 H1899 0.949 . S
C1904 C1910 1.368 . S
C1905 C1889 1.349 . S
C1905 H1897 0.950 . S
C1905 C1903 1.327 . S
C1906 C1894 1.349 . S
C1906 H1900 0.950 . S
C1906 C1907 1.327 . S
C1907 H1901 0.950 . S
C1907 C1906 1.327 . S
C1907 C1911 1.429 . S
C1908 C1891 1.574 . S
C1908 H1902 0.949 . S
C1908 C1912 1.368 . S
C1909 C1890 1.429 . S
C1909 C1903 1.429 . S
C1909 C1910 1.523 . S
C1910 C1891 1.368 . S
C1910 C1904 1.368 . S
C1910 C1909 1.523 . S
C1911 C1895 1.429 . S
C1911 C1907 1.429 . S
C1911 C1912 1.523 . S
C1912 C1896 1.368 . S
C1912 C1908 1.368 . S
C1912 C1911 1.523 . S
H1913 C1888 0.950 . S
H1914 C1890 0.950 . S
H1915 C1891 0.949 . S
H1916 C1893 0.950 . S
H1917 C1895 0.950 . S
C1918 C1919 1.349 . S
C1918 C1920 1.327 . S
C1918 H1943 0.950 . S
C1919 C1918 1.349 . S
C1919 C1935 1.349 . S
C1920 C1918 1.327 . S
C1920 C1939 1.429 . S
C1920 H1944 0.950 . S
C1921 C1938 1.574 . S
C1921 C1940 1.368 . S
C1921 H1945 0.949 . S
H1922 C1926 0.949 . S
C1923 C1924 1.349 . S
C1923 C1925 1.327 . S
C1923 H1946 0.950 . S
C1924 C1923 1.349 . S
C1924 C1936 1.349 . S
C1925 C1923 1.327 . S
C1925 C1941 1.429 . S
C1925 H1947 0.950 . S
C1926 H1922 0.949 . S
C1926 C1934 1.574 . S
C1926 C1942 1.368 . S
H1927 C1935 0.950 . S
H1928 C1933 0.950 . S
H1929 C1934 0.949 . S
H1930 C1936 0.950 . S
H1931 C1937 0.950 . S
H1932 C1938 0.949 . S
C1933 H1928 0.950 . S
C1933 C1935 1.327 . S
C1933 C1939 1.429 . S
C1934 C1926 1.574 . S
C1934 H1929 0.949 . S
C1934 C1940 1.368 . S
C1935 C1919 1.349 . S
C1935 H1927 0.950 . S
C1935 C1933 1.327 . S
C1936 C1924 1.349 . S
C1936 H1930 0.950 . S
C1936 C1937 1.327 . S
C1937 H1931 0.950 . S
C1937 C1936 1.327 . S
C1937 C1941 1.429 . S
C1938 C1921 1.574 . S
C1938 H1932 0.949 . S
C1938 C1942 1.368 . S
C1939 C1920 1.429 . S
C1939 C1933 1.429 . S
C1939 C1940 1.523 . S
C1940 C1921 1.368 . S
C1940 C1934 1.368 . S
C1940 C1939 1.523 . S
C1941 C1925 1.429 . S
C1941 C1937 1.429 . S
C1941 C1942 1.523 . S
C1942 C1926 1.368 . S
C1942 C1938 1.368 . S
C1942 C1941 1.523 . S
H1943 C1918 0.950 . S
H1944 C1920 0.950 . S
H1945 C1921 0.949 . S
H1946 C1923 0.950 . S
H1947 C1925 0.950 . S
C1948 C1949 1.349 . S
C1948 C1950 1.327 . S
C1948 H1973 0.950 . S
C1949 C1948 1.349 . S
C1949 C1965 1.349 . S
C1950 C1948 1.327 . S
C1950 C1969 1.429 . S
C1950 H1974 0.950 . S
C1951 C1968 1.574 . S
C1951 C1970 1.368 . S
C1951 H1975 0.949 . S
H1952 C1956 0.949 . S
C1953 C1954 1.349 . S
C1953 C1955 1.327 . S
C1953 H1976 0.950 . S
C1954 C1953 1.349 . S
C1954 C1966 1.349 . S
C1955 C1953 1.327 . S
C1955 C1971 1.429 . S
C1955 H1977 0.950 . S
C1956 H1952 0.949 . S
C1956 C1964 1.574 . S
C1956 C1972 1.368 . S
H1957 C1965 0.950 . S
H1958 C1963 0.950 . S
H1959 C1964 0.949 . S
H1960 C1966 0.950 . S
H1961 C1967 0.950 . S
H1962 C1968 0.949 . S
C1963 H1958 0.950 . S
C1963 C1965 1.327 . S
C1963 C1969 1.429 . S
C1964 C1956 1.574 . S
C1964 H1959 0.949 . S
C1964 C1970 1.368 . S
C1965 C1949 1.349 . S
C1965 H1957 0.950 . S
C1965 C1963 1.327 . S
C1966 C1954 1.349 . S
C1966 H1960 0.950 . S
C1966 C1967 1.327 . S
C1967 H1961 0.950 . S
C1967 C1966 1.327 . S
C1967 C1971 1.429 . S
C1968 C1951 1.574 . S
C1968 H1962 0.949 . S
C1968 C1972 1.368 . S
C1969 C1950 1.429 . S
C1969 C1963 1.429 . S
C1969 C1970 1.523 . S
C1970 C1951 1.368 . S
C1970 C1964 1.368 . S
C1970 C1969 1.523 . S
C1971 C1955 1.429 . S
C1971 C1967 1.429 . S
C1971 C1972 1.523 . S
C1972 C1956 1.368 . S
C1972 C1968 1.368 . S
C1972 C1971 1.523 . S
H1973 C1948 0.950 . S
H1974 C1950 0.950 . S
H1975 C1951 0.949 . S
H1976 C1953 0.950 . S
H1977 C1955 0.950 . S
C1978 C1979 1.349 . S
C1978 C1980 1.327 . S
C1978 H2003 0.950 . S
C1979 C1978 1.349 . S
C1979 C1995 1.349 . S
C1980 C1978 1.327 . S
C1980 C1999 1.429 . S
C1980 H2004 0.950 . S
C1981 C1998 1.574 . S
C1981 C2000 1.368 . S
C1981 H2005 0.949 . S
H1982 C1986 0.949 . S
C1983 C1984 1.349 . S
C1983 C1985 1.327 . S
C1983 H2006 0.950 . S
C1984 C1983 1.349 . S
C1984 C1996 1.349 . S
C1985 C1983 1.327 . S
C1985 C2001 1.429 . S
C1985 H2007 0.950 . S
C1986 H1982 0.949 . S
C1986 C1994 1.574 . S
C1986 C2002 1.368 . S
H1987 C1995 0.950 . S
H1988 C1993 0.950 . S
H1989 C1994 0.949 . S
H1990 C1996 0.950 . S
H1991 C1997 0.950 . S
H1992 C1998 0.949 . S
C1993 H1988 0.950 . S
C1993 C1995 1.327 . S
C1993 C1999 1.429 . S
C1994 C1986 1.574 . S
C1994 H1989 0.949 . S
C1994 C2000 1.368 . S
C1995 C1979 1.349 . S
C1995 H1987 0.950 . S
C1995 C1993 1.327 . S
C1996 C1984 1.349 . S
C1996 H1990 0.950 . S
C1996 C1997 1.327 . S
C1997 H1991 0.950 . S
C1997 C1996 1.327 . S
C1997 C2001 1.429 . S
C1998 C1981 1.574 . S
C1998 H1992 0.949 . S
C1998 C2002 1.368 . S
C1999 C1980 1.429 . S
C1999 C1993 1.429 . S
C1999 C2000 1.523 . S
C2000 C1981 1.368 . S
C2000 C1994 1.368 . S
C2000 C1999 1.523 . S
C2001 C1985 1.429 . S
C2001 C1997 1.429 . S
C2001 C2002 1.523 . S
C2002 C1986 1.368 . S
C2002 C1998 1.368 . S
C2002 C2001 1.523 . S
H2003 C1978 0.950 . S
H2004 C1980 0.950 . S
H2005 C1981 0.949 . S
H2006 C1983 0.950 . S
H2007 C1985 0.950 . S
C2008 C2009 1.349 . S
C2008 C2010 1.327 . S
C2008 H2033 0.950 . S
C2009 C2008 1.349 . S
C2009 C2025 1.349 . S
C2010 C2008 1.327 . S
C2010 C2029 1.429 . S
C2010 H2034 0.950 . S
C2011 C2028 1.574 . S
C2011 C2030 1.368 . S
C2011 H2035 0.949 . S
H2012 C2016 0.949 . S
C2013 C2014 1.349 . S
C2013 C2015 1.327 . S
C2013 H2036 0.950 . S
C2014 C2013 1.349 . S
C2014 C2026 1.349 . S
C2015 C2013 1.327 . S
C2015 C2031 1.429 . S
C2015 H2037 0.950 . S
C2016 H2012 0.949 . S
C2016 C2024 1.574 . S
C2016 C2032 1.368 . S
H2017 C2025 0.950 . S
H2018 C2023 0.950 . S
H2019 C2024 0.949 . S
H2020 C2026 0.950 . S
H2021 C2027 0.950 . S
H2022 C2028 0.949 . S
C2023 H2018 0.950 . S
C2023 C2025 1.327 . S
C2023 C2029 1.429 . S
C2024 C2016 1.574 . S
C2024 H2019 0.949 . S
C2024 C2030 1.368 . S
C2025 C2009 1.349 . S
C2025 H2017 0.950 . S
C2025 C2023 1.327 . S
C2026 C2014 1.349 . S
C2026 H2020 0.950 . S
C2026 C2027 1.327 . S
C2027 H2021 0.950 . S
C2027 C2026 1.327 . S
C2027 C2031 1.429 . S
C2028 C2011 1.574 . S
C2028 H2022 0.949 . S
C2028 C2032 1.368 . S
C2029 C2010 1.429 . S
C2029 C2023 1.429 . S
C2029 C2030 1.523 . S
C2030 C2011 1.368 . S
C2030 C2024 1.368 . S
C2030 C2029 1.523 . S
C2031 C2015 1.429 . S
C2031 C2027 1.429 . S
C2031 C2032 1.523 . S
C2032 C2016 1.368 . S
C2032 C2028 1.368 . S
C2032 C2031 1.523 . S
H2033 C2008 0.950 . S
H2034 C2010 0.950 . S
H2035 C2011 0.949 . S
H2036 C2013 0.950 . S
H2037 C2015 0.950 . S
C2038 C2039 1.349 . S
C2038 C2040 1.327 . S
C2038 H2063 0.950 . S
C2039 C2038 1.349 . S
C2039 C2055 1.349 . S
C2040 C2038 1.327 . S
C2040 C2059 1.429 . S
C2040 H2064 0.950 . S
C2041 C2058 1.574 . S
C2041 C2060 1.368 . S
C2041 H2065 0.949 . S
H2042 C2046 0.949 . S
C2043 C2044 1.349 . S
C2043 C2045 1.327 . S
C2043 H2066 0.950 . S
C2044 C2043 1.349 . S
C2044 C2056 1.349 . S
C2045 C2043 1.327 . S
C2045 C2061 1.429 . S
C2045 H2067 0.950 . S
C2046 H2042 0.949 . S
C2046 C2054 1.574 . S
C2046 C2062 1.368 . S
H2047 C2055 0.950 . S
H2048 C2053 0.950 . S
H2049 C2054 0.949 . S
H2050 C2056 0.950 . S
H2051 C2057 0.950 . S
H2052 C2058 0.949 . S
C2053 H2048 0.950 . S
C2053 C2055 1.327 . S
C2053 C2059 1.429 . S
C2054 C2046 1.574 . S
C2054 H2049 0.949 . S
C2054 C2060 1.368 . S
C2055 C2039 1.349 . S
C2055 H2047 0.950 . S
C2055 C2053 1.327 . S
C2056 C2044 1.349 . S
C2056 H2050 0.950 . S
C2056 C2057 1.327 . S
C2057 H2051 0.950 . S
C2057 C2056 1.327 . S
C2057 C2061 1.429 . S
C2058 C2041 1.574 . S
C2058 H2052 0.949 . S
C2058 C2062 1.368 . S
C2059 C2040 1.429 . S
C2059 C2053 1.429 . S
C2059 C2060 1.523 . S
C2060 C2041 1.368 . S
C2060 C2054 1.368 . S
C2060 C2059 1.523 . S
C2061 C2045 1.429 . S
C2061 C2057 1.429 . S
C2061 C2062 1.523 . S
C2062 C2046 1.368 . S
C2062 C2058 1.368 . S
C2062 C2061 1.523 . S
H2063 C2038 0.950 . S
H2064 C2040 0.950 . S
H2065 C2041 0.949 . S
H2066 C2043 0.950 . S
H2067 C2045 0.950 . S
C2068 C2069 1.349 . S
C2068 C2070 1.327 . S
C2068 H2093 0.950 . S
C2069 C2068 1.349 . S
C2069 C2085 1.349 . S
C2070 C2068 1.327 . S
C2070 C2089 1.429 . S
C2070 H2094 0.950 . S
C2071 C2088 1.574 . S
C2071 C2090 1.368 . S
C2071 H2095 0.949 . S
H2072 C2076 0.949 . S
C2073 C2074 1.349 . S
C2073 C2075 1.327 . S
C2073 H2096 0.950 . S
C2074 C2073 1.349 . S
C2074 C2086 1.349 . S
C2075 C2073 1.327 . S
C2075 C2091 1.429 . S
C2075 H2097 0.950 . S
C2076 H2072 0.949 . S
C2076 C2084 1.574 . S
C2076 C2092 1.368 . S
H2077 C2085 0.950 . S
H2078 C2083 0.950 . S
H2079 C2084 0.949 . S
H2080 C2086 0.950 . S
H2081 C2087 0.950 . S
H2082 C2088 0.949 . S
C2083 H2078 0.950 . S
C2083 C2085 1.327 . S
C2083 C2089 1.429 . S
C2084 C2076 1.574 . S
C2084 H2079 0.949 . S
C2084 C2090 1.368 . S
C2085 C2069 1.349 . S
C2085 H2077 0.950 . S
C2085 C2083 1.327 . S
C2086 C2074 1.349 . S
C2086 H2080 0.950 . S
C2086 C2087 1.327 . S
C2087 H2081 0.950 . S
C2087 C2086 1.327 . S
C2087 C2091 1.429 . S
C2088 C2071 1.574 . S
C2088 H2082 0.949 . S
C2088 C2092 1.368 . S
C2089 C2070 1.429 . S
C2089 C2083 1.429 . S
C2089 C2090 1.523 . S
C2090 C2071 1.368 . S
C2090 C2084 1.368 . S
C2090 C2089 1.523 . S
C2091 C2075 1.429 . S
C2091 C2087 1.429 . S
C2091 C2092 1.523 . S
C2092 C2076 1.368 . S
C2092 C2088 1.368 . S
C2092 C2091 1.523 . S
H2093 C2068 0.950 . S
H2094 C2070 0.950 . S
H2095 C2071 0.949 . S
H2096 C2073 0.950 . S
H2097 C2075 0.950 . S
C2098 C2099 1.349 . S
C2098 C2100 1.327 . S
C2098 H2123 0.950 . S
C2099 C2098 1.349 . S
C2099 C2115 1.349 . S
C2100 C2098 1.327 . S
C2100 C2119 1.429 . S
C2100 H2124 0.950 . S
C2101 C2118 1.574 . S
C2101 C2120 1.368 . S
C2101 H2125 0.949 . S
H2102 C2106 0.949 . S
C2103 C2104 1.349 . S
C2103 C2105 1.327 . S
C2103 H2126 0.950 . S
C2104 C2103 1.349 . S
C2104 C2116 1.349 . S
C2105 C2103 1.327 . S
C2105 C2121 1.429 . S
C2105 H2127 0.950 . S
C2106 H2102 0.949 . S
C2106 C2114 1.574 . S
C2106 C2122 1.368 . S
H2107 C2115 0.950 . S
H2108 C2113 0.950 . S
H2109 C2114 0.949 . S
H2110 C2116 0.950 . S
H2111 C2117 0.950 . S
H2112 C2118 0.949 . S
C2113 H2108 0.950 . S
C2113 C2115 1.327 . S
C2113 C2119 1.429 . S
C2114 C2106 1.574 . S
C2114 H2109 0.949 . S
C2114 C2120 1.368 . S
C2115 C2099 1.349 . S
C2115 H2107 0.950 . S
C2115 C2113 1.327 . S
C2116 C2104 1.349 . S
C2116 H2110 0.950 . S
C2116 C2117 1.327 . S
C2117 H2111 0.950 . S
C2117 C2116 1.327 . S
C2117 C2121 1.429 . S
C2118 C2101 1.574 . S
C2118 H2112 0.949 . S
C2118 C2122 1.368 . S
C2119 C2100 1.429 . S
C2119 C2113 1.429 . S
C2119 C2120 1.523 . S
C2120 C2101 1.368 . S
C2120 C2114 1.368 . S
C2120 C2119 1.523 . S
C2121 C2105 1.429 . S
C2121 C2117 1.429 . S
C2121 C2122 1.523 . S
C2122 C2106 1.368 . S
C2122 C2118 1.368 . S
C2122 C2121 1.523 . S
H2123 C2098 0.950 . S
H2124 C2100 0.950 . S
H2125 C2101 0.949 . S
H2126 C2103 0.950 . S
H2127 C2105 0.950 . S
C2128 C2129 1.349 . S
C2128 C2130 1.327 . S
C2128 H2153 0.926 1_556 S
C2129 C2128 1.349 . S
C2129 C2145 1.349 . S
C2130 C2128 1.327 . S
C2130 C2149 1.429 . S
C2130 H2154 0.950 1_556 S
C2131 C2148 1.574 . S
C2131 C2150 1.368 . S
C2131 H2155 0.949 . S
H2132 C2136 0.949 . S
C2133 C2134 1.349 . S
C2133 C2135 1.327 . S
C2133 H2156 0.950 . S
C2134 C2133 1.349 . S
C2134 C2146 1.349 1_556 S
C2135 C2133 1.327 . S
C2135 C2151 1.429 . S
C2135 H2157 0.950 . S
C2136 H2132 0.949 . S
C2136 C2144 1.575 . S
C2136 C2152 1.368 1_554 S
H2137 C2145 0.950 . S
H2138 C2143 0.950 . S
H2139 C2144 0.960 . S
H2140 C2146 0.950 . S
H2141 C2147 0.950 . S
H2142 C2148 0.949 . S
C2143 H2138 0.950 . S
C2143 C2145 1.327 . S
C2143 C2149 1.429 . S
C2144 C2136 1.575 . S
C2144 H2139 0.960 . S
C2144 C2150 1.355 1_554 S
C2145 C2129 1.349 . S
C2145 H2137 0.950 . S
C2145 C2143 1.327 . S
C2146 C2134 1.349 1_554 S
C2146 H2140 0.950 . S
C2146 C2147 1.327 . S
C2147 H2141 0.950 . S
C2147 C2146 1.327 . S
C2147 C2151 1.429 1_554 S
C2148 C2131 1.574 . S
C2148 H2142 0.949 . S
C2148 C2152 1.368 . S
C2149 C2130 1.429 . S
C2149 C2143 1.429 . S
C2149 C2150 1.523 . S
C2150 C2131 1.368 . S
C2150 C2144 1.355 1_556 S
C2150 C2149 1.523 . S
C2151 C2135 1.429 . S
C2151 C2147 1.429 1_556 S
C2151 C2152 1.523 . S
C2152 C2136 1.368 1_556 S
C2152 C2148 1.368 . S
C2152 C2151 1.523 . S
H2153 C2128 0.926 1_554 S
H2154 C2130 0.950 1_554 S
H2155 C2131 0.949 . S
H2156 C2133 0.950 . S
H2157 C2135 0.950 . S
C2158 C2159 1.349 . S
C2158 C2160 1.327 . S
C2158 H2183 0.950 . S
C2159 C2158 1.349 . S
C2159 C2175 1.349 . S
C2160 C2158 1.327 . S
C2160 C2179 1.429 . S
C2160 H2184 0.950 . S
C2161 C2178 1.574 . S
C2161 C2180 1.368 . S
C2161 H2185 0.949 . S
H2162 C2166 0.949 . S
C2163 C2164 1.349 . S
C2163 C2165 1.327 . S
C2163 H2186 0.950 . S
C2164 C2163 1.349 . S
C2164 C2176 1.349 . S
C2165 C2163 1.327 . S
C2165 C2181 1.429 . S
C2165 H2187 0.950 . S
C2166 H2162 0.949 . S
C2166 C2174 1.574 . S
C2166 C2182 1.368 . S
H2167 C2175 0.950 . S
H2168 C2173 0.950 . S
H2169 C2174 0.949 . S
H2170 C2176 0.950 . S
H2171 C2177 0.950 . S
H2172 C2178 0.949 . S
C2173 H2168 0.950 . S
C2173 C2175 1.327 . S
C2173 C2179 1.429 . S
C2174 C2166 1.574 . S
C2174 H2169 0.949 . S
C2174 C2180 1.368 . S
C2175 C2159 1.349 . S
C2175 H2167 0.950 . S
C2175 C2173 1.327 . S
C2176 C2164 1.349 . S
C2176 H2170 0.950 . S
C2176 C2177 1.327 . S
C2177 H2171 0.950 . S
C2177 C2176 1.327 . S
C2177 C2181 1.429 . S
C2178 C2161 1.574 . S
C2178 H2172 0.949 . S
C2178 C2182 1.368 . S
C2179 C2160 1.429 . S
C2179 C2173 1.429 . S
C2179 C2180 1.523 . S
C2180 C2161 1.368 . S
C2180 C2174 1.368 . S
C2180 C2179 1.523 . S
C2181 C2165 1.429 . S
C2181 C2177 1.429 . S
C2181 C2182 1.523 . S
C2182 C2166 1.368 . S
C2182 C2178 1.368 . S
C2182 C2181 1.523 . S
H2183 C2158 0.950 . S
H2184 C2160 0.950 . S
H2185 C2161 0.949 . S
H2186 C2163 0.950 . S
H2187 C2165 0.950 . S
C2188 C2189 1.349 . S
C2188 C2190 1.327 . S
C2188 H2213 0.950 . S
C2189 C2188 1.349 . S
C2189 C2205 1.349 . S
C2190 C2188 1.327 . S
C2190 C2209 1.429 . S
C2190 H2214 0.950 . S
C2191 C2208 1.574 . S
C2191 C2210 1.368 . S
C2191 H2215 0.949 . S
H2192 C2196 0.949 . S
C2193 C2194 1.349 . S
C2193 C2195 1.327 . S
C2193 H2216 0.950 1_554 S
C2194 C2193 1.349 . S
C2194 C2206 1.349 . S
C2195 C2193 1.327 . S
C2195 C2211 1.429 . S
C2195 H2217 0.950 1_554 S
C2196 H2192 0.949 . S
C2196 C2204 1.574 . S
C2196 C2212 1.368 . S
H2197 C2205 0.950 . S
H2198 C2203 0.950 . S
H2199 C2204 0.949 . S
H2200 C2206 0.950 . S
H2201 C2207 0.950 . S
H2202 C2208 0.907 1_556 S
C2203 H2198 0.950 . S
C2203 C2205 1.327 . S
C2203 C2209 1.429 . S
C2204 C2196 1.574 . S
C2204 H2199 0.949 . S
C2204 C2210 1.368 . S
C2205 C2189 1.349 . S
C2205 H2197 0.950 . S
C2205 C2203 1.327 . S
C2206 C2194 1.349 . S
C2206 H2200 0.950 . S
C2206 C2207 1.327 . S
C2207 H2201 0.950 . S
C2207 C2206 1.327 . S
C2207 C2211 1.429 . S
C2208 C2191 1.574 . S
C2208 H2202 0.907 1_554 S
C2208 C2212 1.368 . S
C2209 C2190 1.429 . S
C2209 C2203 1.429 . S
C2209 C2210 1.523 . S
C2210 C2191 1.368 . S
C2210 C2204 1.368 . S
C2210 C2209 1.523 . S
C2211 C2195 1.429 . S
C2211 C2207 1.429 . S
C2211 C2212 1.523 . S
C2212 C2196 1.368 . S
C2212 C2208 1.368 . S
C2212 C2211 1.523 . S
H2213 C2188 0.950 . S
H2214 C2190 0.950 . S
H2215 C2191 0.949 . S
H2216 C2193 0.950 1_556 S
H2217 C2195 0.950 1_556 S
C2218 C2219 1.349 . S
C2218 C2220 1.327 . S
C2218 H2243 0.950 . S
C2219 C2218 1.349 . S
C2219 C2235 1.349 . S
C2220 C2218 1.327 . S
C2220 C2239 1.429 . S
C2220 H2244 0.950 . S
C2221 C2238 1.574 . S
C2221 C2240 1.368 . S
C2221 H2245 0.949 . S
H2222 C2226 0.949 . S
C2223 C2224 1.349 . S
C2223 C2225 1.327 . S
C2223 H2246 0.940 1_554 S
C2224 C2223 1.349 . S
C2224 C2236 1.349 . S
C2225 C2223 1.327 . S
C2225 C2241 1.429 . S
C2225 H2247 0.977 . S
C2226 H2222 0.949 . S
C2226 C2234 1.574 . S
C2226 C2242 1.368 . S
H2227 C2235 0.950 . S
H2228 C2233 0.950 . S
H2229 C2234 0.949 . S
H2230 C2236 0.950 . S
H2231 C2237 0.950 . S
H2232 C2238 0.949 . S
C2233 H2228 0.950 . S
C2233 C2235 1.327 . S
C2233 C2239 1.429 . S
C2234 C2226 1.574 . S
C2234 H2229 0.949 . S
C2234 C2240 1.368 . S
C2235 C2219 1.349 . S
C2235 H2227 0.950 . S
C2235 C2233 1.327 . S
C2236 C2224 1.349 . S
C2236 H2230 0.950 . S
C2236 C2237 1.327 . S
C2237 H2231 0.950 . S
C2237 C2236 1.327 . S
C2237 C2241 1.429 . S
C2238 C2221 1.574 . S
C2238 H2232 0.949 . S
C2238 C2242 1.368 . S
C2239 C2220 1.429 . S
C2239 C2233 1.429 . S
C2239 C2240 1.523 . S
C2240 C2221 1.368 . S
C2240 C2234 1.368 . S
C2240 C2239 1.523 . S
C2241 C2225 1.429 . S
C2241 C2237 1.429 . S
C2241 C2242 1.523 . S
C2242 C2226 1.368 . S
C2242 C2238 1.368 . S
C2242 C2241 1.523 . S
H2243 C2218 0.950 . S
H2244 C2220 0.950 . S
H2245 C2221 0.949 . S
H2246 C2223 0.940 1_556 S
H2247 C2225 0.977 . S
C814 C651 1.416 . S
C809 C202 1.418 . S
C844 C659 1.302 . S
C839 C261 1.567 . S
C869 C282 1.427 . S
C874 C679 1.411 . S
C904 C693 1.507 . S
C899 C162 1.496 1_655 S
C934 C708 1.516 . S
C929 C402 1.502 . S
C964 C722 1.521 . S
C959 C482 1.514 . S
C989 C442 1.576 . S
C994 C736 1.588 . S
C1024 C742 1.452 . S
C1019 C381 1.489 . S
C1049 C461 1.568 . S
C1054 C756 1.537 . S
C1084 C777 1.516 . S
C1079 C362 1.528 . S
C1109 C415 1.408 . S
C1114 C757 1.186 . S
C1144 C778 1.567 . S
C1139 C495 1.565 . S
C1169 C301 1.521 . S
C1174 C785 1.265 . S
C1199 C175 1.537 . S
C1204 C791 1.517 . S
C1229 C215 1.458 . S
C1234 C784 1.416 . S
C1259 C242 1.440 . S
C1264 C792 1.447 . S
C1289 C141 1.528 . S
C1294 C686 1.499 . S
C1319 C581 1.516 . S
C1324 C687 1.284 . S
C1354 C644 1.471 1_556 S
C1349 C615 1.515 . S
C1384 C665 1.415 . S
C1379 C335 1.440 . S
C1409 C181 1.544 . S
C1414 C700 1.514 . S
C1444 C750 1.517 . S
C1439 C455 1.517 . S
C1474 C701 1.159 . S
C1469 C375 1.381 . S
C1504 C729 1.348 . S
C1499 C501 1.628 . S
C1534 C735 1.416 . S
C1529 C562 1.419 . S
C1559 C621 1.567 . S
C1564 C743 1.302 . S
C1589 C322 1.427 . S
C1594 C707 1.411 . S
C1624 C721 1.507 . S
C1619 C522 1.518 . S
C1649 C122 1.502 . S
C1654 C680 1.516 . S
C1684 C694 1.521 . S
C1679 C2 1.515 . S
C1714 C652 1.588 . S
C1709 C42 1.576 . S
C1744 C658 1.452 . S
C1739 C101 1.489 . S
C1769 C61 1.568 . S
C1774 C770 1.537 . S
C1799 C82 1.528 . S
C1804 C763 1.516 . S
C1829 C135 1.408 . S
C1834 C771 1.186 . S
C1859 C15 1.565 . S
C1864 C764 1.567 . S
C1894 C799 1.264 . S
C1889 C341 1.521 . S
C1924 C805 1.517 . S
C1919 C535 1.537 . S
C1954 C798 1.418 . S
C1949 C575 1.458 . S
C1979 C602 1.440 . S
C1984 C806 1.447 . S
C2009 C421 1.528 . S
C2014 C714 1.499 . S
C2044 C715 1.283 . S
C2039 C221 1.516 . S
C2074 C728 1.471 . S
C2069 C255 1.515 . S
C2104 C749 1.415 . S
C2099 C295 1.440 . S
C2129 C541 1.544 . S
C2134 C672 1.520 . S
C2164 C666 1.517 . S
C2159 C55 1.517 . S
C2189 C95 1.381 . S
C2194 C673 1.159 . S
C2224 C645 1.348 . S
C2219 C21 1.627 . S
