# Generated by pormake.
# Topology gar, (4,6)-cn, num edge types: 1
# Building blocks:
#     Node 0, Type 0, BuildingBlock: KUFVIS_clean_sbu_0, # of connection points: 4
#     Node 1, Type 0, BuildingBlock: KUFVIS_clean_sbu_0, # of connection points: 4
#     Node 2, Type 0, BuildingBlock: KUFVIS_clean_sbu_0, # of connection points: 4
#     Node 3, Type 0, BuildingBlock: KUFVIS_clean_sbu_0, # of connection points: 4
#     Node 4, Type 0, BuildingBlock: KUFVIS_clean_sbu_0, # of connection points: 4
#     Node 5, Type 0, BuildingBlock: KUFVIS_clean_sbu_0, # of connection points: 4
#     Node 6, Type 0, BuildingBlock: KUFVIS_clean_sbu_0, # of connection points: 4
#     Node 7, Type 0, BuildingBlock: KUFVIS_clean_sbu_0, # of connection points: 4
#     Node 8, Type 0, BuildingBlock: KUFVIS_clean_sbu_0, # of connection points: 4
#     Node 9, Type 0, BuildingBlock: KUFVIS_clean_sbu_0, # of connection points: 4
#     Node 10, Type 0, BuildingBlock: KUFVIS_clean_sbu_0, # of connection points: 4
#     Node 11, Type 0, BuildingBlock: KUFVIS_clean_sbu_0, # of connection points: 4
#     Node 12, Type 0, BuildingBlock: KUFVIS_clean_sbu_0, # of connection points: 4
#     Node 13, Type 0, BuildingBlock: KUFVIS_clean_sbu_0, # of connection points: 4
#     Node 14, Type 0, BuildingBlock: KUFVIS_clean_sbu_0, # of connection points: 4
#     Node 15, Type 0, BuildingBlock: KUFVIS_clean_sbu_0, # of connection points: 4
#     Node 16, Type 0, BuildingBlock: KUFVIS_clean_sbu_0, # of connection points: 4
#     Node 17, Type 0, BuildingBlock: KUFVIS_clean_sbu_0, # of connection points: 4
#     Node 18, Type 0, BuildingBlock: KUFVIS_clean_sbu_0, # of connection points: 4
#     Node 19, Type 0, BuildingBlock: KUFVIS_clean_sbu_0, # of connection points: 4
#     Node 20, Type 0, BuildingBlock: KUFVIS_clean_sbu_0, # of connection points: 4
#     Node 21, Type 0, BuildingBlock: KUFVIS_clean_sbu_0, # of connection points: 4
#     Node 22, Type 0, BuildingBlock: KUFVIS_clean_sbu_0, # of connection points: 4
#     Node 23, Type 0, BuildingBlock: KUFVIS_clean_sbu_0, # of connection points: 4
#     Node 24, Type 1, BuildingBlock: KUMJIN_clean_sbu_0, # of connection points: 6
#     Node 25, Type 1, BuildingBlock: KUMJIN_clean_sbu_0, # of connection points: 6
#     Node 26, Type 1, BuildingBlock: KUMJIN_clean_sbu_0, # of connection points: 6
#     Node 27, Type 1, BuildingBlock: KUMJIN_clean_sbu_0, # of connection points: 6
#     Node 28, Type 1, BuildingBlock: KUMJIN_clean_sbu_0, # of connection points: 6
#     Node 29, Type 1, BuildingBlock: KUMJIN_clean_sbu_0, # of connection points: 6
#     Node 30, Type 1, BuildingBlock: KUMJIN_clean_sbu_0, # of connection points: 6
#     Node 31, Type 1, BuildingBlock: KUMJIN_clean_sbu_0, # of connection points: 6
#     Node 32, Type 1, BuildingBlock: KUMJIN_clean_sbu_0, # of connection points: 6
#     Node 33, Type 1, BuildingBlock: KUMJIN_clean_sbu_0, # of connection points: 6
#     Node 34, Type 1, BuildingBlock: KUMJIN_clean_sbu_0, # of connection points: 6
#     Node 35, Type 1, BuildingBlock: KUMJIN_clean_sbu_0, # of connection points: 6
#     Node 36, Type 1, BuildingBlock: KUMJIN_clean_sbu_0, # of connection points: 6
#     Node 37, Type 1, BuildingBlock: KUMJIN_clean_sbu_0, # of connection points: 6
#     Node 38, Type 1, BuildingBlock: KUMJIN_clean_sbu_0, # of connection points: 6
#     Node 39, Type 1, BuildingBlock: KUMJIN_clean_sbu_0, # of connection points: 6
#     Edge 40, Type (0, 1), BuildingBlock: ZUJKAS_clean_linker_0, # of connection points: 2
#     Edge 41, Type (0, 1), BuildingBlock: ZUJKAS_clean_linker_0, # of connection points: 2
#     Edge 42, Type (0, 1), BuildingBlock: ZUJKAS_clean_linker_0, # of connection points: 2
#     Edge 43, Type (0, 1), BuildingBlock: ZUJKAS_clean_linker_0, # of connection points: 2
#     Edge 44, Type (0, 1), BuildingBlock: ZUJKAS_clean_linker_0, # of connection points: 2
#     Edge 45, Type (0, 1), BuildingBlock: ZUJKAS_clean_linker_0, # of connection points: 2
#     Edge 46, Type (0, 1), BuildingBlock: ZUJKAS_clean_linker_0, # of connection points: 2
#     Edge 47, Type (0, 1), BuildingBlock: ZUJKAS_clean_linker_0, # of connection points: 2
#     Edge 48, Type (0, 1), BuildingBlock: ZUJKAS_clean_linker_0, # of connection points: 2
#     Edge 49, Type (0, 1), BuildingBlock: ZUJKAS_clean_linker_0, # of connection points: 2
#     Edge 50, Type (0, 1), BuildingBlock: ZUJKAS_clean_linker_0, # of connection points: 2
#     Edge 51, Type (0, 1), BuildingBlock: ZUJKAS_clean_linker_0, # of connection points: 2
#     Edge 52, Type (0, 1), BuildingBlock: ZUJKAS_clean_linker_0, # of connection points: 2
#     Edge 53, Type (0, 1), BuildingBlock: ZUJKAS_clean_linker_0, # of connection points: 2
#     Edge 54, Type (0, 1), BuildingBlock: ZUJKAS_clean_linker_0, # of connection points: 2
#     Edge 55, Type (0, 1), BuildingBlock: ZUJKAS_clean_linker_0, # of connection points: 2
#     Edge 56, Type (0, 1), BuildingBlock: ZUJKAS_clean_linker_0, # of connection points: 2
#     Edge 57, Type (0, 1), BuildingBlock: ZUJKAS_clean_linker_0, # of connection points: 2
#     Edge 58, Type (0, 1), BuildingBlock: ZUJKAS_clean_linker_0, # of connection points: 2
#     Edge 59, Type (0, 1), BuildingBlock: ZUJKAS_clean_linker_0, # of connection points: 2
#     Edge 60, Type (0, 1), BuildingBlock: ZUJKAS_clean_linker_0, # of connection points: 2
#     Edge 61, Type (0, 1), BuildingBlock: ZUJKAS_clean_linker_0, # of connection points: 2
#     Edge 62, Type (0, 1), BuildingBlock: ZUJKAS_clean_linker_0, # of connection points: 2
#     Edge 63, Type (0, 1), BuildingBlock: ZUJKAS_clean_linker_0, # of connection points: 2
#     Edge 64, Type (0, 1), BuildingBlock: ZUJKAS_clean_linker_0, # of connection points: 2
#     Edge 65, Type (0, 1), BuildingBlock: ZUJKAS_clean_linker_0, # of connection points: 2
#     Edge 66, Type (0, 1), BuildingBlock: ZUJKAS_clean_linker_0, # of connection points: 2
#     Edge 67, Type (0, 1), BuildingBlock: ZUJKAS_clean_linker_0, # of connection points: 2
#     Edge 68, Type (0, 1), BuildingBlock: ZUJKAS_clean_linker_0, # of connection points: 2
#     Edge 69, Type (0, 1), BuildingBlock: ZUJKAS_clean_linker_0, # of connection points: 2
#     Edge 70, Type (0, 1), BuildingBlock: ZUJKAS_clean_linker_0, # of connection points: 2
#     Edge 71, Type (0, 1), BuildingBlock: ZUJKAS_clean_linker_0, # of connection points: 2
#     Edge 72, Type (0, 1), BuildingBlock: ZUJKAS_clean_linker_0, # of connection points: 2
#     Edge 73, Type (0, 1), BuildingBlock: ZUJKAS_clean_linker_0, # of connection points: 2
#     Edge 74, Type (0, 1), BuildingBlock: ZUJKAS_clean_linker_0, # of connection points: 2
#     Edge 75, Type (0, 1), BuildingBlock: ZUJKAS_clean_linker_0, # of connection points: 2
#     Edge 76, Type (0, 1), BuildingBlock: ZUJKAS_clean_linker_0, # of connection points: 2
#     Edge 77, Type (0, 1), BuildingBlock: ZUJKAS_clean_linker_0, # of connection points: 2
#     Edge 78, Type (0, 1), BuildingBlock: ZUJKAS_clean_linker_0, # of connection points: 2
#     Edge 79, Type (0, 1), BuildingBlock: ZUJKAS_clean_linker_0, # of connection points: 2
#     Edge 80, Type (0, 1), BuildingBlock: ZUJKAS_clean_linker_0, # of connection points: 2
#     Edge 81, Type (0, 1), BuildingBlock: ZUJKAS_clean_linker_0, # of connection points: 2
#     Edge 82, Type (0, 1), BuildingBlock: ZUJKAS_clean_linker_0, # of connection points: 2
#     Edge 83, Type (0, 1), BuildingBlock: ZUJKAS_clean_linker_0, # of connection points: 2
#     Edge 84, Type (0, 1), BuildingBlock: ZUJKAS_clean_linker_0, # of connection points: 2
#     Edge 85, Type (0, 1), BuildingBlock: ZUJKAS_clean_linker_0, # of connection points: 2
#     Edge 86, Type (0, 1), BuildingBlock: ZUJKAS_clean_linker_0, # of connection points: 2
#     Edge 87, Type (0, 1), BuildingBlock: ZUJKAS_clean_linker_0, # of connection points: 2
#     Edge 88, Type (0, 1), BuildingBlock: ZUJKAS_clean_linker_0, # of connection points: 2
#     Edge 89, Type (0, 1), BuildingBlock: ZUJKAS_clean_linker_0, # of connection points: 2
#     Edge 90, Type (0, 1), BuildingBlock: ZUJKAS_clean_linker_0, # of connection points: 2
#     Edge 91, Type (0, 1), BuildingBlock: ZUJKAS_clean_linker_0, # of connection points: 2
#     Edge 92, Type (0, 1), BuildingBlock: ZUJKAS_clean_linker_0, # of connection points: 2
#     Edge 93, Type (0, 1), BuildingBlock: ZUJKAS_clean_linker_0, # of connection points: 2
#     Edge 94, Type (0, 1), BuildingBlock: ZUJKAS_clean_linker_0, # of connection points: 2
#     Edge 95, Type (0, 1), BuildingBlock: ZUJKAS_clean_linker_0, # of connection points: 2
#     Edge 96, Type (0, 1), BuildingBlock: ZUJKAS_clean_linker_0, # of connection points: 2
#     Edge 97, Type (0, 1), BuildingBlock: ZUJKAS_clean_linker_0, # of connection points: 2
#     Edge 98, Type (0, 1), BuildingBlock: ZUJKAS_clean_linker_0, # of connection points: 2
#     Edge 99, Type (0, 1), BuildingBlock: ZUJKAS_clean_linker_0, # of connection points: 2
#     Edge 100, Type (0, 1), BuildingBlock: ZUJKAS_clean_linker_0, # of connection points: 2
#     Edge 101, Type (0, 1), BuildingBlock: ZUJKAS_clean_linker_0, # of connection points: 2
#     Edge 102, Type (0, 1), BuildingBlock: ZUJKAS_clean_linker_0, # of connection points: 2
#     Edge 103, Type (0, 1), BuildingBlock: ZUJKAS_clean_linker_0, # of connection points: 2
#     Edge 104, Type (0, 1), BuildingBlock: ZUJKAS_clean_linker_0, # of connection points: 2
#     Edge 105, Type (0, 1), BuildingBlock: ZUJKAS_clean_linker_0, # of connection points: 2
#     Edge 106, Type (0, 1), BuildingBlock: ZUJKAS_clean_linker_0, # of connection points: 2
#     Edge 107, Type (0, 1), BuildingBlock: ZUJKAS_clean_linker_0, # of connection points: 2
#     Edge 108, Type (0, 1), BuildingBlock: ZUJKAS_clean_linker_0, # of connection points: 2
#     Edge 109, Type (0, 1), BuildingBlock: ZUJKAS_clean_linker_0, # of connection points: 2
#     Edge 110, Type (0, 1), BuildingBlock: ZUJKAS_clean_linker_0, # of connection points: 2
#     Edge 111, Type (0, 1), BuildingBlock: ZUJKAS_clean_linker_0, # of connection points: 2
#     Edge 112, Type (0, 1), BuildingBlock: ZUJKAS_clean_linker_0, # of connection points: 2
#     Edge 113, Type (0, 1), BuildingBlock: ZUJKAS_clean_linker_0, # of connection points: 2
#     Edge 114, Type (0, 1), BuildingBlock: ZUJKAS_clean_linker_0, # of connection points: 2
#     Edge 115, Type (0, 1), BuildingBlock: ZUJKAS_clean_linker_0, # of connection points: 2
#     Edge 116, Type (0, 1), BuildingBlock: ZUJKAS_clean_linker_0, # of connection points: 2
#     Edge 117, Type (0, 1), BuildingBlock: ZUJKAS_clean_linker_0, # of connection points: 2
#     Edge 118, Type (0, 1), BuildingBlock: ZUJKAS_clean_linker_0, # of connection points: 2
#     Edge 119, Type (0, 1), BuildingBlock: ZUJKAS_clean_linker_0, # of connection points: 2
#     Edge 120, Type (0, 1), BuildingBlock: ZUJKAS_clean_linker_0, # of connection points: 2
#     Edge 121, Type (0, 1), BuildingBlock: ZUJKAS_clean_linker_0, # of connection points: 2
#     Edge 122, Type (0, 1), BuildingBlock: ZUJKAS_clean_linker_0, # of connection points: 2
#     Edge 123, Type (0, 1), BuildingBlock: ZUJKAS_clean_linker_0, # of connection points: 2
#     Edge 124, Type (0, 1), BuildingBlock: ZUJKAS_clean_linker_0, # of connection points: 2
#     Edge 125, Type (0, 1), BuildingBlock: ZUJKAS_clean_linker_0, # of connection points: 2
#     Edge 126, Type (0, 1), BuildingBlock: ZUJKAS_clean_linker_0, # of connection points: 2
#     Edge 127, Type (0, 1), BuildingBlock: ZUJKAS_clean_linker_0, # of connection points: 2
#     Edge 128, Type (0, 1), BuildingBlock: ZUJKAS_clean_linker_0, # of connection points: 2
#     Edge 129, Type (0, 1), BuildingBlock: ZUJKAS_clean_linker_0, # of connection points: 2
#     Edge 130, Type (0, 1), BuildingBlock: ZUJKAS_clean_linker_0, # of connection points: 2
#     Edge 131, Type (0, 1), BuildingBlock: ZUJKAS_clean_linker_0, # of connection points: 2
#     Edge 132, Type (0, 1), BuildingBlock: ZUJKAS_clean_linker_0, # of connection points: 2
#     Edge 133, Type (0, 1), BuildingBlock: ZUJKAS_clean_linker_0, # of connection points: 2
#     Edge 134, Type (0, 1), BuildingBlock: ZUJKAS_clean_linker_0, # of connection points: 2
#     Edge 135, Type (0, 1), BuildingBlock: ZUJKAS_clean_linker_0, # of connection points: 2
# Relax obj value: 0.113
# Max RMSD: 0.314
# Mean RMSD: 0.146
data_MOF--net-gar--node1-KUFVIS_clean_sbu_0--node2-KUMJIN_clean_sbu_0--edge1-ZUJKAS_clean_linker_0
_symmetry_space_group_name_H-M    P1
_symmetry_Int_Tables_number       1
_symmetry_cell_setting            triclinic
loop_
_symmetry_equiv_pos_as_xyz
'x, y, z'
_cell_length_a     76.098826
_cell_length_b     71.759468
_cell_length_c     73.232679
_cell_angle_alpha  99.608412
_cell_angle_beta   93.135401
_cell_angle_gamma 102.0975
loop_
_atom_site_label
_atom_site_type_symbol
_atom_site_fract_x
_atom_site_fract_y
_atom_site_fract_z
_atom_type_partial_charge
Mn0 Mn 0.09145 0.31508 0.39269 0.0
Mn1 Mn 0.08719 0.32974 0.35137 0.0
C2 C 0.06483 0.3229 0.38333 0.0
C3 C 0.08989 0.29105 0.41074 0.0
C4 C 0.10649 0.35639 0.38631 0.0
O5 O 0.11263 0.30751 0.37992 0.0
O6 O 0.10797 0.3173 0.35286 0.0
C7 C 0.07719 0.29054 0.32802 0.0
N8 N 0.07364 0.30836 0.33349 0.0
C9 C 0.04724 0.30058 0.31164 0.0
C10 C 0.05066 0.28217 0.30569 0.0
C11 C 0.06566 0.27711 0.31397 0.0
C12 C 0.05913 0.31329 0.32578 0.0
H13 H 0.08874 0.28662 0.33432 0.0
C14 C 0.11684 0.3096 0.36367 0.0
O15 O 0.10019 0.30818 0.41617 0.0
O16 O 0.0809 0.28765 0.39449 0.0
N17 N 0.06785 0.34218 0.34717 0.0
C18 C 0.0666 0.36057 0.35438 0.0
C19 C 0.05273 0.36816 0.34717 0.0
C20 C 0.04018 0.35675 0.33272 0.0
C21 C 0.04186 0.33795 0.32536 0.0
C22 C 0.05629 0.33136 0.33277 0.0
H23 H 0.07624 0.36949 0.36538 0.0
O24 O 0.06897 0.32254 0.40065 0.0
O25 O 0.07605 0.31783 0.37159 0.0
O26 O 0.10426 0.34366 0.39673 0.0
O27 O 0.10082 0.35272 0.36906 0.0
C28 C 0.02985 0.32552 0.31094 0.0
C29 C 0.03246 0.30679 0.30418 0.0
H30 H 0.04183 0.27179 0.29483 0.0
H31 H 0.06835 0.26291 0.3095 0.0
H32 H 0.05173 0.38282 0.35273 0.0
H33 H 0.02935 0.36259 0.32735 0.0
H34 H 0.01849 0.33017 0.30503 0.0
H35 H 0.02305 0.2973 0.2932 0.0
Mn36 Mn 0.01508 0.77009 0.6458 0.0
Mn37 Mn 0.03411 0.80963 0.67785 0.0
C38 C 0.04606 0.77885 0.6522 0.0
C39 C 1.00258 0.73715 0.63745 0.0
C40 C 0.01999 0.81152 0.63882 0.0
O41 O 0.99398 0.77513 0.66008 0.0
O42 O 0.0083 0.80058 0.68191 0.0
C43 C 0.03214 0.79152 0.71142 0.0
N44 N 0.04208 0.80191 0.70007 0.0
C45 C 0.06943 0.80536 0.71967 0.0
C46 C 0.05947 0.79485 0.73165 0.0
C47 C 0.04077 0.78785 0.72746 0.0
C48 C 0.06008 0.80858 0.70388 0.0
H49 H 0.01782 0.78605 0.70824 0.0
C50 C 0.9942 0.78771 0.67467 0.0
O51 O 0.99911 0.74931 0.62721 0.0
O52 O 0.01262 0.74428 0.65297 0.0
N53 N 0.05915 0.81955 0.67575 0.0
C54 C 0.06696 0.82829 0.66215 0.0
C55 C 0.08567 0.83582 0.66402 0.0
C56 C 0.09615 0.83436 0.67989 0.0
C57 C 0.08785 0.82511 0.69362 0.0
C58 C 0.06914 0.81804 0.69108 0.0
H59 H 0.05896 0.82952 0.64992 0.0
O60 O 0.03888 0.76802 0.63648 0.0
O61 O 0.03486 0.78417 0.6637 0.0
O62 O 0.01483 0.7933 0.63328 0.0
O63 O 0.02695 0.8192 0.65534 0.0
C64 C 0.09745 0.82248 0.70967 0.0
C65 C 0.08825 0.8125 0.72261 0.0
H66 H 0.06608 0.79193 0.74402 0.0
H67 H 0.033 0.77962 0.73658 0.0
H68 H 0.09199 0.8428 0.65331 0.0
H69 H 0.11055 0.84028 0.6813 0.0
H70 H 0.11192 0.82785 0.71207 0.0
H71 H 0.09584 0.81029 0.73474 0.0
Mn72 Mn 0.5923 0.81022 0.88224 0.0
Mn73 Mn 0.59341 0.83647 0.8478 0.0
C74 C 0.56593 0.81601 0.86964 0.0
C75 C 0.59084 0.78141 0.89339 0.0
C76 C 0.60236 0.85481 0.88823 0.0
O77 O 0.61714 0.80992 0.87353 0.0
O78 O 0.61654 0.82865 0.85191 0.0
C79 C 0.59529 0.80426 0.81742 0.0
N80 N 0.58716 0.81864 0.82475 0.0
C81 C 0.56624 0.81227 0.79744 0.0
C82 C 0.57443 0.79745 0.78956 0.0
C83 C 0.58896 0.79335 0.79965 0.0
C84 C 0.57293 0.82242 0.81533 0.0
H85 H 0.60656 0.80116 0.82506 0.0
C86 C 0.6245 0.81883 0.8613 0.0
O87 O 0.59789 0.79815 0.90368 0.0
O88 O 0.58503 0.78133 0.87635 0.0
N89 N 0.57223 0.84538 0.84164 0.0
C90 C 0.56611 0.86046 0.85104 0.0
C91 C 0.55176 0.86659 0.84277 0.0
C92 C 0.54418 0.85754 0.82474 0.0
C93 C 0.551 0.84239 0.81514 0.0
C94 C 0.56525 0.83682 0.82415 0.0
H95 H 0.57212 0.86773 0.86475 0.0
O96 O 0.56685 0.81146 0.88602 0.0
O97 O 0.58031 0.81655 0.8607 0.0
O98 O 0.60078 0.83887 0.8942 0.0
O99 O 0.59952 0.85573 0.87108 0.0
C100 C 0.54435 0.83271 0.79693 0.0
C101 C 0.5518 0.8175 0.78818 0.0
H102 H 0.5697 0.78913 0.77579 0.0
H103 H 0.59534 0.78191 0.79369 0.0
H104 H 0.54665 0.87838 0.85022 0.0
H105 H 0.53318 0.8624 0.81836 0.0
H106 H 0.53345 0.8368 0.78953 0.0
H107 H 0.54643 0.81004 0.77427 0.0
Mn108 Mn 0.51342 0.27621 0.14533 0.0
Mn109 Mn 0.47799 0.25711 0.11313 0.0
C110 C 0.50239 0.2431 0.13802 0.0
C111 C 0.54424 0.28621 0.15409 0.0
C112 C 0.47429 0.27646 0.15233 0.0
O113 O 0.51288 0.29822 0.13121 0.0
O114 O 0.48948 0.28371 0.10975 0.0
C115 C 0.49747 0.25437 0.07919 0.0
N116 N 0.48613 0.24568 0.09058 0.0
C117 C 0.48227 0.21457 0.07065 0.0
C118 C 0.49383 0.22321 0.05866 0.0
C119 C 0.50147 0.24319 0.06297 0.0
C120 C 0.47865 0.22647 0.08654 0.0
H121 H 0.50344 0.26971 0.08247 0.0
C122 C 0.50241 0.29809 0.11692 0.0
O123 O 0.53258 0.29261 0.16429 0.0
O124 O 0.53802 0.27489 0.13831 0.0
N125 N 0.46611 0.23123 0.11477 0.0
C126 C 0.45634 0.22489 0.12846 0.0
C127 C 0.44827 0.20512 0.1266 0.0
C128 C 0.45029 0.19208 0.1107 0.0
C129 C 0.46044 0.19892 0.09681 0.0
C130 C 0.46804 0.21882 0.09934 0.0
H131 H 0.45478 0.23483 0.14075 0.0
O132 O 0.51135 0.25094 0.15401 0.0
O133 O 0.49995 0.25491 0.12699 0.0
O134 O 0.49102 0.28065 0.15788 0.0
O135 O 0.46804 0.26795 0.13582 0.0
C136 C 0.4636 0.18674 0.08072 0.0
C137 C 0.47453 0.19455 0.06767 0.0
H138 H 0.49706 0.21461 0.04621 0.0
H139 H 0.51047 0.24995 0.05384 0.0
H140 H 0.44053 0.19993 0.13743 0.0
H141 H 0.4441 0.17682 0.10937 0.0
H142 H 0.45788 0.17129 0.07837 0.0
H143 H 0.47708 0.18498 0.05551 0.0
Mn144 Mn 0.08945 0.81329 0.12356 0.0
Mn145 Mn 0.05755 0.79735 0.08706 0.0
C146 C 0.08044 0.77993 0.1109 0.0
C147 C 0.11953 0.82255 0.1379 0.0
C148 C 0.04826 0.80739 0.12664 0.0
O149 O 0.08918 0.83889 0.11347 0.0
O150 O 0.06671 0.82602 0.09078 0.0
C151 C 0.08171 0.80635 0.05781 0.0
N152 N 0.06941 0.79338 0.06485 0.0
C153 C 0.06974 0.76815 0.03879 0.0
C154 C 0.08233 0.78127 0.03122 0.0
C155 C 0.08838 0.80043 0.0408 0.0
C156 C 0.0636 0.77487 0.0558 0.0
H157 H 0.0864 0.82109 0.06511 0.0
C158 C 0.07823 0.84063 0.10012 0.0
O159 O 0.10604 0.82693 0.14642 0.0
O160 O 0.11586 0.81462 0.12046 0.0
N161 N 0.04729 0.7701 0.08125 0.0
C162 C 0.03552 0.75911 0.09069 0.0
C163 C 0.02819 0.73956 0.08298 0.0
C164 C 0.03292 0.73156 0.06559 0.0
C165 C 0.04497 0.74318 0.05608 0.0
C166 C 0.05168 0.76262 0.06435 0.0
H167 H 0.03176 0.7652 0.10402 0.0
O168 O 0.08743 0.78606 0.12791 0.0
O169 O 0.07874 0.79352 0.10151 0.0
O170 O 0.06462 0.81366 0.1337 0.0
O171 O 0.04406 0.80051 0.10933 0.0
C172 C 0.05075 0.73616 0.03883 0.0
C173 C 0.06319 0.74862 0.03023 0.0
H174 H 0.08752 0.77676 0.01811 0.0
H175 H 0.09814 0.81063 0.03509 0.0
H176 H 0.01891 0.73068 0.09041 0.0
H177 H 0.02728 0.71647 0.0597 0.0
H178 H 0.04586 0.72116 0.03215 0.0
H179 H 0.06768 0.74301 0.01706 0.0
Mn180 Mn 0.52067 0.77027 0.42093 0.0
Mn181 Mn 0.52072 0.79458 0.38469 0.0
C182 C 0.49295 0.7714 0.40497 0.0
C183 C 0.52329 0.74174 0.43323 0.0
C184 C 0.5262 0.81513 0.42516 0.0
O185 O 0.5471 0.77396 0.41418 0.0
O186 O 0.54455 0.78875 0.38976 0.0
C187 C 0.52489 0.76241 0.35538 0.0
N188 N 0.51597 0.77639 0.36182 0.0
C189 C 0.49638 0.76911 0.33345 0.0
C190 C 0.50541 0.75468 0.32644 0.0
C191 C 0.51967 0.75125 0.3375 0.0
C192 C 0.50206 0.7796 0.35143 0.0
H193 H 0.53593 0.75984 0.36381 0.0
C194 C 0.55372 0.78156 0.40074 0.0
O195 O 0.52693 0.75894 0.44339 0.0
O196 O 0.5179 0.74097 0.41592 0.0
N197 N 0.49902 0.80189 0.3774 0.0
C198 C 0.4919 0.8165 0.38617 0.0
C199 C 0.47808 0.82238 0.37674 0.0
C200 C 0.47155 0.81309 0.35846 0.0
C201 C 0.47922 0.79827 0.34963 0.0
C202 C 0.49337 0.79344 0.35953 0.0
H203 H 0.49698 0.8239 0.40012 0.0
O204 O 0.49362 0.76711 0.4215 0.0
O205 O 0.50842 0.77431 0.39786 0.0
O206 O 0.52472 0.79984 0.43249 0.0
O207 O 0.52531 0.81445 0.40758 0.0
C208 C 0.47345 0.78815 0.33137 0.0
C209 C 0.48192 0.77345 0.32335 0.0
H210 H 0.50148 0.74611 0.31263 0.0
H211 H 0.52667 0.7401 0.33222 0.0
H212 H 0.47249 0.83412 0.38355 0.0
H213 H 0.46071 0.81753 0.35132 0.0
H214 H 0.46244 0.79146 0.32343 0.0
H215 H 0.47725 0.76563 0.30937 0.0
Mn216 Mn 0.5914 0.3154 0.62465 0.0
Mn217 Mn 0.56032 0.30047 0.58732 0.0
C218 C 0.58219 0.28217 0.61146 0.0
C219 C 0.62129 0.32427 0.63953 0.0
C220 C 0.55022 0.31063 0.62673 0.0
O221 O 0.59166 0.34127 0.61485 0.0
O222 O 0.57055 0.32897 0.59067 0.0
C223 C 0.58549 0.30779 0.55853 0.0
N224 N 0.57242 0.29551 0.56542 0.0
C225 C 0.57218 0.26968 0.53975 0.0
C226 C 0.58548 0.28212 0.53226 0.0
C227 C 0.59221 0.30123 0.54174 0.0
C228 C 0.566 0.27704 0.55652 0.0
H229 H 0.59078 0.32244 0.56581 0.0
C230 C 0.58186 0.3433 0.60071 0.0
O231 O 0.60768 0.32861 0.64785 0.0
O232 O 0.61786 0.31656 0.62201 0.0
N233 N 0.54919 0.27342 0.58183 0.0
C234 C 0.53702 0.26301 0.59135 0.0
C235 C 0.52914 0.24353 0.58386 0.0
C236 C 0.53372 0.23501 0.5666 0.0
C237 C 0.54625 0.24601 0.55704 0.0
C238 C 0.55351 0.26542 0.56509 0.0
H239 H 0.53334 0.26952 0.60456 0.0
O240 O 0.58894 0.28795 0.62858 0.0
O241 O 0.58089 0.29603 0.6023 0.0
O242 O 0.56644 0.3158 0.63434 0.0
O243 O 0.54643 0.30465 0.60922 0.0
C244 C 0.55201 0.23839 0.53997 0.0
C245 C 0.56503 0.2502 0.53137 0.0
H246 H 0.59073 0.27709 0.51933 0.0
H247 H 0.60257 0.31087 0.53612 0.0
H248 H 0.51953 0.2351 0.59135 0.0
H249 H 0.52761 0.21999 0.56084 0.0
H250 H 0.54668 0.2234 0.53346 0.0
H251 H 0.56953 0.24411 0.51838 0.0
Mn252 Mn 0.02042 0.26863 0.92132 0.0
Mn253 Mn 0.01784 0.29201 0.88471 0.0
C254 C 0.99194 0.26914 0.90666 0.0
C255 C 0.02434 0.24057 0.93373 0.0
C256 C 0.02489 0.3133 0.92493 0.0
O257 O 0.04647 0.27277 0.91331 0.0
O258 O 0.04208 0.28678 0.88876 0.0
C259 C 0.02142 0.25933 0.85568 0.0
N260 N 0.01226 0.27301 0.8624 0.0
C261 C 0.99095 0.26386 0.83525 0.0
C262 C 1.00018 0.24972 0.82798 0.0
C263 C 0.01542 0.24735 0.83831 0.0
C264 C 0.99729 0.27502 0.85284 0.0
H265 H 0.03326 0.25762 0.86349 0.0
C266 C 0.05214 0.28012 0.89936 0.0
O267 O 0.02803 0.25789 0.94366 0.0
O268 O 0.01818 0.23941 0.91658 0.0
N269 N 0.9955 0.29861 0.87827 0.0
C270 C 0.98889 0.31382 0.88663 0.0
C271 C 0.97399 0.31857 0.87784 0.0
C272 C 0.96637 0.30805 0.86027 0.0
C273 C 0.97387 0.29302 0.85156 0.0
C274 C 0.98864 0.28886 0.86106 0.0
H275 H 0.99496 0.32231 0.8999 0.0
O276 O 0.99342 0.26499 0.92319 0.0
O277 O 0.00695 0.27212 0.89882 0.0
O278 O 0.02425 0.29821 0.93242 0.0
O279 O 0.02309 0.3124 0.9073 0.0
C280 C 0.96755 0.28233 0.83362 0.0
C281 C 0.97587 0.26753 0.82561 0.0
H282 H 0.99574 0.24065 0.81447 0.0
H283 H 0.02261 0.23646 0.83282 0.0
H284 H 0.96847 0.33041 0.88453 0.0
H285 H 0.9549 0.31179 0.85351 0.0
H286 H 0.95627 0.28537 0.82586 0.0
H287 H 0.97076 0.25928 0.81189 0.0
Mn288 Mn 0.42037 0.04798 0.30052 0.0
Mn289 Mn 0.38718 0.02867 0.32503 0.0
C290 C 0.41433 0.01528 0.30156 0.0
C291 C 0.43182 0.05676 0.27369 0.0
C292 C 0.42361 0.05206 0.3429 0.0
O293 O 0.40527 0.06836 0.30354 0.0
O294 O 0.38364 0.05394 0.3197 0.0
C295 C 0.35662 0.02138 0.29599 0.0
N296 N 0.36679 0.01469 0.30821 0.0
C297 C 0.34825 0.98242 0.29971 0.0
C298 C 0.33754 0.98899 0.28709 0.0
C299 C 0.34179 0.00856 0.28518 0.0
C300 C 0.36291 0.99584 0.31003 0.0
H301 H 0.35982 0.03643 0.29448 0.0
C302 C 0.39074 0.06781 0.31158 0.0
O303 O 0.43968 0.06495 0.29008 0.0
O304 O 0.41665 0.04418 0.2729 0.0
N305 N 0.38871 1.00399 0.33085 0.0
C306 C 0.40082 0.99981 0.3431 0.0
C307 C 0.39847 0.98085 0.34664 0.0
C308 C 0.38368 0.96646 0.33768 0.0
C309 C 0.37148 0.97106 0.32503 0.0
C310 C 0.37443 0.99025 0.32217 0.0
H311 H 0.41212 0.01082 0.35013 0.0
O312 O 0.43018 0.02397 0.29802 0.0
O313 O 0.40265 0.026 0.30463 0.0
O314 O 0.42992 0.05553 0.3278 0.0
O315 O 0.40769 0.04221 0.34358 0.0
C316 C 0.35655 0.95739 0.31512 0.0
C317 C 0.34503 0.96301 0.30235 0.0
H318 H 0.32608 0.97916 0.27875 0.0
H319 H 0.33362 0.01372 0.27543 0.0
H320 H 0.40799 0.97738 0.35636 0.0
H321 H 0.38184 0.9519 0.34062 0.0
H322 H 0.35386 0.94245 0.31708 0.0
H323 H 0.33376 0.95232 0.29462 0.0
Mn324 Mn 0.2967 0.19599 0.5137 0.0
Mn325 Mn 0.2883 0.15682 0.47903 0.0
C326 C 0.26698 0.17975 0.50303 0.0
C327 C 0.3013 0.20972 0.54584 0.0
C328 C 0.30063 0.19814 0.47225 0.0
O329 O 0.3209 0.18726 0.51378 0.0
O330 O 0.31291 0.16039 0.49152 0.0
C331 C 0.28821 0.12582 0.50115 0.0
N332 N 0.2797 0.13364 0.48849 0.0
C333 C 0.25373 0.10708 0.48427 0.0
C334 C 0.26224 0.0987 0.49722 0.0
C335 C 0.27954 0.10814 0.50572 0.0
C336 C 0.26306 0.1247 0.48023 0.0
H337 H 0.3015 0.13302 0.50772 0.0
C338 C 0.32428 0.17198 0.50412 0.0
O339 O 0.30663 0.21986 0.53324 0.0
O340 O 0.29403 0.19156 0.53983 0.0
N341 N 0.26478 0.15165 0.46606 0.0
C342 C 0.258 0.16227 0.45479 0.0
C343 C 0.24072 0.155 0.44538 0.0
C344 C 0.23062 0.13691 0.44763 0.0
C345 C 0.23778 0.12635 0.45949 0.0
C346 C 0.25518 0.1342 0.4683 0.0
H347 H 0.26575 0.17613 0.4529 0.0
O348 O 0.27059 0.19774 0.51136 0.0
O349 O 0.28087 0.17203 0.50085 0.0
O350 O 0.3011 0.20671 0.48916 0.0
O351 O 0.29659 0.17971 0.46747 0.0
C352 C 0.22827 0.10845 0.46307 0.0
C353 C 0.23622 0.09886 0.4755 0.0
H354 H 0.25556 0.08511 0.50085 0.0
H355 H 0.28616 0.10179 0.51578 0.0
H356 H 0.23523 0.16329 0.43634 0.0
H357 H 0.21735 0.13131 0.44022 0.0
H358 H 0.21476 0.10206 0.45653 0.0
H359 H 0.22867 0.08525 0.47836 0.0
Mn360 Mn 0.17192 0.01766 0.76445 0.0
Mn361 Mn 0.20648 0.02772 0.79872 0.0
C362 C 0.18899 0.05069 0.77524 0.0
C363 C 0.15822 0.01378 0.73144 0.0
C364 C 0.16685 0.01971 0.80806 0.0
O365 O 0.18033 0.99003 0.76296 0.0
O366 O 0.20167 0.99926 0.78728 0.0
C367 C 0.23592 0.02047 0.77546 0.0
N368 N 0.22916 0.03242 0.78833 0.0
C369 C 0.2569 0.05668 0.79252 0.0
C370 C 0.26419 0.04457 0.77942 0.0
C371 C 0.25361 0.02644 0.77077 0.0
C372 C 0.23915 0.05002 0.79653 0.0
H373 H 0.22792 1.00645 0.76885 0.0
C374 C 0.19288 0.98615 0.77383 0.0
O375 O 0.14923 0.00847 0.74495 0.0
O376 O 0.1754 0.01928 0.73647 0.0
N377 N 0.2134 0.05424 0.81095 0.0
C378 C 0.20388 0.06484 0.8221 0.0
C379 C 0.21232 0.08361 0.83134 0.0
C380 C 0.23051 0.09119 0.82921 0.0
C381 C 0.23999 0.08008 0.81756 0.0
C382 C 0.23083 0.06152 0.80861 0.0
H383 H 0.18995 0.05902 0.82394 0.0
O384 O 0.17234 0.04668 0.76827 0.0
O385 O 0.19506 0.0352 0.77673 0.0
O386 O 0.16011 0.01588 0.79079 0.0
O387 O 0.18398 0.02389 0.81195 0.0
C388 C 0.25813 0.08673 0.81436 0.0
C389 C 0.26652 0.07514 0.80169 0.0
H390 H 0.27786 0.0491 0.77581 0.0
H391 H 0.25912 0.01704 0.76058 0.0
H392 H 0.20488 0.09215 0.8402 0.0
H393 H 0.23701 0.10563 0.83648 0.0
H394 H 0.2657 0.10085 0.8214 0.0
H395 H 0.28035 0.0806 0.79905 0.0
Mn396 Mn 0.31445 0.92323 0.03354 0.0
Mn397 Mn 0.3296 0.96124 0.01259 0.0
C398 C 0.34466 0.93188 0.02928 0.0
C399 C 0.30744 0.9115 0.06064 0.0
C400 C 0.3107 0.92134 0.99145 0.0
O401 O 0.29346 0.93684 0.03408 0.0
O402 O 0.30599 0.9629 0.02217 0.0
C403 C 0.33579 0.99167 0.04645 0.0
N404 N 0.3422 0.98238 0.03134 0.0
C405 C 0.37207 1.00237 0.03987 0.0
C406 C 0.36575 0.01222 0.05545 0.0
C407 C 0.34754 1.00681 0.05877 0.0
C408 C 0.35976 0.98729 0.02817 0.0
H409 H 0.32182 0.9875 0.04911 0.0
C410 C 0.29311 0.9532 0.02959 0.0
O411 O 0.30053 0.90155 0.04441 0.0
O412 O 0.31777 0.92842 0.06108 0.0
N413 N 0.35246 0.96199 1.0027 0.0
C414 C 0.35612 0.9519 0.9864 0.0
C415 C 0.37359 0.95609 0.98061 0.0
C416 C 0.38704 0.97081 0.99147 0.0
C417 C 0.38281 0.98141 0.00787 0.0
C418 C 0.36511 0.97674 0.01281 0.0
H419 H 0.34581 0.94072 0.97786 0.0
O420 O 0.33784 0.91483 0.03265 0.0
O421 O 0.33376 0.94359 0.02918 0.0
O422 O 0.30872 0.91304 1.00559 0.0
O423 O 0.31741 0.93946 0.99254 0.0
C424 C 0.39542 0.99657 0.01941 0.0
C425 C 0.39009 1.00693 0.03548 0.0
H426 H 0.37476 0.02394 0.06496 0.0
H427 H 0.34258 0.01429 0.07081 0.0
H428 H 0.37668 0.94798 0.96781 0.0
H429 H 0.40053 0.97391 0.98703 0.0
H430 H 0.40926 1.00037 0.01605 0.0
H431 H 0.39993 0.01849 0.04429 0.0
Mn432 Mn 0.3143 0.39172 0.03815 0.0
Mn433 Mn 0.3238 0.42812 0.01354 0.0
C434 C 0.34426 0.40656 0.03552 0.0
C435 C 0.30803 0.38108 0.06666 0.0
C436 C 0.31255 0.38565 0.99512 0.0
O437 O 0.29002 0.40005 0.03566 0.0
O438 O 0.29868 0.42468 0.02036 0.0
C439 C 0.32207 0.46041 0.04389 0.0
N440 N 0.33123 0.45227 0.03042 0.0
C441 C 0.35618 0.47998 0.0369 0.0
C442 C 0.34698 0.48871 0.05079 0.0
C443 C 0.32989 0.47884 0.05435 0.0
C444 C 0.34778 0.46151 0.02705 0.0
H445 H 0.30891 0.45288 0.04661 0.0
C446 C 0.28682 0.41403 0.02814 0.0
O447 O 0.30339 0.36955 0.05068 0.0
O448 O 0.31581 0.39882 0.06603 0.0
N449 N 0.3476 0.43354 1.00568 0.0
C450 C 0.35475 0.423 0.99195 0.0
C451 C 0.37161 0.43099 0.98635 0.0
C452 C 0.38083 0.44981 0.99475 0.0
C453 C 0.37327 0.46034 0.0089 0.0
C454 C 0.35631 0.45174 0.0137 0.0
H455 H 0.34756 0.40868 0.98517 0.0
O456 O 0.34023 0.38949 0.03991 0.0
O457 O 0.33074 0.41462 0.03307 0.0
O458 O 0.31109 0.37858 0.01011 0.0
O459 O 0.31675 0.40385 0.99511 0.0
C460 C 0.38186 0.47906 0.01839 0.0
C461 C 0.37339 0.48881 0.03249 0.0
H462 H 0.35294 0.50296 0.05884 0.0
H463 H 0.32273 0.48546 0.06509 0.0
H464 H 0.37739 0.42277 0.97543 0.0
H465 H 0.39366 0.45608 0.99014 0.0
H466 H 0.39506 0.48601 0.01507 0.0
H467 H 0.38022 0.5031 0.03985 0.0
Mn468 Mn 0.79053 0.16258 0.01581 0.0
Mn469 Mn 0.77239 0.1193 0.98816 0.0
C470 C 0.75972 0.15043 0.01311 0.0
C471 C 0.80307 0.18107 0.04472 0.0
C472 C 0.78384 0.15642 0.97327 0.0
O473 O 0.81248 0.15074 0.01179 0.0
O474 O 0.79872 0.12226 0.9937 0.0
C475 C 0.77811 0.09432 0.01527 0.0
N476 N 0.76683 0.09993 1.00325 0.0
C477 C 0.74148 0.076 0.00898 0.0
C478 C 0.75284 0.06987 0.02134 0.0
C479 C 0.77122 0.07912 0.02454 0.0
C480 C 0.74912 0.09122 1.00015 0.0
H481 H 0.79224 0.10139 0.01775 0.0
C482 C 0.81278 0.13419 1.00233 0.0
O483 O 0.80579 0.18775 0.02943 0.0
O484 O 0.79383 0.16341 0.04307 0.0
N485 N 0.74695 0.11408 0.98152 0.0
C486 C 0.73767 0.12239 0.96992 0.0
C487 C 0.71908 0.11493 0.96536 0.0
C488 C 0.71027 0.09891 0.97264 0.0
C489 C 0.72009 0.09066 0.9846 0.0
C490 C 0.73863 0.09855 0.98845 0.0
H491 H 0.74442 0.13457 0.96413 0.0
O492 O 0.76645 0.1688 0.01862 0.0
O493 O 0.77124 0.13949 0.00954 0.0
O494 O 0.78944 0.16753 0.98894 0.0
O495 O 0.77733 0.13824 0.97145 0.0
C496 C 0.71217 0.07507 0.99303 0.0
C497 C 0.72284 0.0678 1.00529 0.0
H498 H 0.74757 0.05817 0.02855 0.0
H499 H 0.78006 0.07452 0.03412 0.0
H500 H 0.71155 0.12143 0.9562 0.0
H501 H 0.69594 0.09314 0.96905 0.0
H502 H 0.69784 0.06872 0.99038 0.0
H503 H 0.71656 0.05599 0.01189 0.0
Mn504 Mn 0.17617 0.54124 0.2643 0.0
Mn505 Mn 0.21643 0.55531 0.29022 0.0
C506 C 0.18959 0.57386 0.27272 0.0
C507 C 0.15933 0.5311 0.23544 0.0
C508 C 0.18095 0.54269 0.30632 0.0
O509 O 0.18531 0.5163 0.26171 0.0
O510 O 0.21246 0.52776 0.278 0.0
C511 C 0.24027 0.55251 0.25971 0.0
N512 N 0.23523 0.56304 0.27497 0.0
C513 C 0.25916 0.59055 0.27374 0.0
C514 C 0.26467 0.57996 0.25806 0.0
C515 C 0.25514 0.56088 0.25098 0.0
C516 C 0.24423 0.58144 0.28184 0.0
H517 H 0.23299 0.53783 0.25425 0.0
C518 C 0.20059 0.51409 0.2679 0.0
O519 O 0.1525 0.52714 0.25058 0.0
O520 O 0.17602 0.54056 0.23706 0.0
N521 N 0.22237 0.58173 0.30284 0.0
C522 C 0.21471 0.59031 0.31741 0.0
C523 C 0.22259 0.60945 0.32609 0.0
C524 C 0.2383 0.6195 0.31979 0.0
C525 C 0.24582 0.61046 0.30465 0.0
C526 C 0.23754 0.59127 0.29673 0.0
H527 H 0.20278 0.58255 0.32247 0.0
O528 O 0.17239 0.56825 0.26788 0.0
O529 O 0.19856 0.56022 0.27223 0.0
O530 O 0.1708 0.53961 0.29117 0.0
O531 O 0.19811 0.54812 0.30732 0.0
C532 C 0.2611 0.61979 0.29699 0.0
C533 C 0.26771 0.60987 0.28148 0.0
H534 H 0.27611 0.58638 0.25127 0.0
H535 H 0.25926 0.55265 0.23884 0.0
H536 H 0.21664 0.6164 0.3377 0.0
H537 H 0.24442 0.63422 0.32661 0.0
H538 H 0.26772 0.63467 0.30277 0.0
H539 H 0.2793 0.61729 0.27554 0.0
Mn540 Mn 0.81539 0.89427 0.53806 0.0
Mn541 Mn 0.81941 0.93129 0.5142 0.0
C542 C 0.84386 0.913 0.53515 0.0
C543 C 0.81148 0.88171 0.56592 0.0
C544 C 0.81425 0.88946 0.49503 0.0
O545 O 0.78955 0.89883 0.53663 0.0
O546 O 0.79416 0.92243 0.51959 0.0
C547 C 0.81099 0.95989 0.54463 0.0
N548 N 0.82216 0.95488 0.53166 0.0
C549 C 0.84109 0.98698 0.53809 0.0
C550 C 0.82979 0.99253 0.55149 0.0
C551 C 0.81477 0.97886 0.5549 0.0
C552 C 0.83696 0.9677 0.52872 0.0
H553 H 0.79924 0.94955 0.54703 0.0
C554 C 0.78394 0.91088 0.52803 0.0
O555 O 0.80757 0.87065 0.54964 0.0
O556 O 0.81723 0.90007 0.56601 0.0
N557 N 0.84283 0.94214 0.50763 0.0
C558 C 0.85227 0.9345 0.49411 0.0
C559 C 0.86771 0.94627 0.48903 0.0
C560 C 0.87287 0.96595 0.49733 0.0
C561 C 0.86267 0.97361 0.51085 0.0
C562 C 0.84774 0.96106 0.51576 0.0
H563 H 0.84799 0.91955 0.48721 0.0
O564 O 0.84204 0.89572 0.53897 0.0
O565 O 0.82904 0.91917 0.53355 0.0
O566 O 0.81257 0.88205 0.50981 0.0
O567 O 0.81703 0.90769 0.49532 0.0
C568 C 0.86663 0.9933 0.51953 0.0
C569 C 0.85607 0.99988 0.53339 0.0
H570 H 0.83247 0.00725 0.55919 0.0
H571 H 0.80596 0.98302 0.56521 0.0
H572 H 0.87543 0.94029 0.47848 0.0
H573 H 0.88463 0.97506 0.49316 0.0
H574 H 0.87796 1.00342 0.51585 0.0
H575 H 0.85946 0.01496 0.5402 0.0
Mn576 Mn 0.93734 0.06529 0.26742 0.0
Mn577 Mn 0.90316 0.05938 0.29586 0.0
C578 C 0.92144 0.03307 0.27073 0.0
C579 C 0.9506 0.06714 0.23674 0.0
C580 C 0.94308 0.06906 0.31187 0.0
O581 O 0.92833 0.09252 0.26996 0.0
O582 O 0.90669 0.0862 0.28922 0.0
C583 C 0.87321 0.0606 0.26867 0.0
N584 N 0.88046 0.05136 0.28099 0.0
C585 C 0.85412 0.02515 0.27571 0.0
C586 C 0.84633 0.0345 0.26312 0.0
C587 C 0.85595 0.05227 0.25954 0.0
C588 C 0.87137 0.03416 0.28442 0.0
H589 H 0.88051 0.07422 0.26577 0.0
C590 C 0.91521 0.09751 0.2791 0.0
O591 O 0.95958 0.07403 0.25286 0.0
O592 O 0.93362 0.06035 0.23825 0.0
N593 N 0.89714 0.03458 0.30328 0.0
C594 C 0.90682 0.02689 0.31514 0.0
C595 C 0.89918 0.00896 0.31987 0.0
C596 C 0.88163 0.99915 0.31252 0.0
C597 C 0.87185 0.0074 0.30052 0.0
C598 C 0.8801 0.02541 0.2964 0.0
H599 H 0.92032 0.03426 0.32087 0.0
O600 O 0.93765 0.03647 0.26549 0.0
O601 O 0.91493 0.04864 0.2741 0.0
O602 O 0.94953 0.07026 0.29591 0.0
O603 O 0.92601 0.06657 0.31309 0.0
C604 C 0.85437 0.99826 0.29218 0.0
C605 C 0.84554 1.0071 0.27974 0.0
H606 H 0.83304 0.02809 0.256 0.0
H607 H 0.85008 0.05952 0.24975 0.0
H608 H 0.90684 1.00266 0.32911 0.0
H609 H 0.87585 0.98524 0.31607 0.0
H610 H 0.84771 0.9843 0.29503 0.0
H611 H 0.8322 0.9998 0.27322 0.0
Mn612 Mn 0.29138 0.66566 0.51554 0.0
Mn613 Mn 0.28155 0.62381 0.48424 0.0
C614 C 0.26161 0.65039 0.50591 0.0
C615 C 0.29767 0.68235 0.54623 0.0
C616 C 0.29355 0.66322 0.47361 0.0
O617 O 0.31522 0.65682 0.5159 0.0
O618 O 0.30649 0.62833 0.49605 0.0
C619 C 0.28218 0.59662 0.51043 0.0
N620 N 0.27333 0.60261 0.49661 0.0
C621 C 0.24764 0.57617 0.4951 0.0
C622 C 0.2565 0.56965 0.50927 0.0
C623 C 0.2738 0.57998 0.51703 0.0
C624 C 0.25659 0.59296 0.48924 0.0
H625 H 0.29551 0.60446 0.51635 0.0
C626 C 0.31829 0.64094 0.50736 0.0
O627 O 0.30257 0.69074 0.53235 0.0
O628 O 0.28969 0.66414 0.54229 0.0
N629 N 0.25777 0.61734 0.4717 0.0
C630 C 0.25086 0.62593 0.45859 0.0
C631 C 0.23369 0.61738 0.44937 0.0
C632 C 0.22391 0.59997 0.45355 0.0
C633 C 0.23124 0.59146 0.4672 0.0
C634 C 0.24844 0.6006 0.47587 0.0
H635 H 0.25846 0.63913 0.45505 0.0
O636 O 0.2659 0.66865 0.51332 0.0
O637 O 0.27481 0.64144 0.50474 0.0
O638 O 0.29482 0.67323 0.48996 0.0
O639 O 0.28935 0.64473 0.4701 0.0
C640 C 0.22219 0.57422 0.4725 0.0
C641 C 0.2303 0.56671 0.48658 0.0
H642 H 0.25011 0.55677 0.51433 0.0
H643 H 0.2807 0.57507 0.528 0.0
H644 H 0.22809 0.62405 0.43891 0.0
H645 H 0.2108 0.59327 0.44616 0.0
H646 H 0.20894 0.56669 0.46595 0.0
H647 H 0.2231 0.5536 0.49072 0.0
Mn648 Mn 0.43709 0.56639 0.76813 0.0
Mn649 Mn 0.40269 0.56015 0.79628 0.0
C650 C 0.42134 0.53398 0.77132 0.0
C651 C 0.45004 0.56843 0.73728 0.0
C652 C 0.44258 0.57012 0.81256 0.0
O653 O 0.42826 0.59377 0.771 0.0
O654 O 0.40597 0.58669 0.78929 0.0
C655 C 0.373 0.56057 0.76843 0.0
N656 N 0.38005 0.55186 0.78136 0.0
C657 C 0.35334 0.52619 0.77716 0.0
C658 C 0.34568 0.53508 0.76406 0.0
C659 C 0.35561 0.55228 0.7596 0.0
C660 C 0.37074 0.53511 0.7855 0.0
H661 H 0.38059 0.5737 0.76481 0.0
C662 C 0.41471 0.59833 0.77964 0.0
O663 O 0.45921 0.57517 0.75333 0.0
O664 O 0.4331 0.56167 0.73899 0.0
N665 N 0.39672 0.53555 0.80406 0.0
C666 C 0.40643 0.52804 0.81603 0.0
C667 C 0.39851 0.51067 0.82166 0.0
C668 C 0.38066 0.50126 0.81506 0.0
C669 C 0.37096 0.50915 0.80268 0.0
C670 C 0.37946 0.52663 0.79773 0.0
H671 H 0.42011 0.53523 0.82133 0.0
O672 O 0.4375 0.53757 0.76601 0.0
O673 O 0.4147 0.54946 0.77473 0.0
O674 O 0.44917 0.57116 0.79665 0.0
O675 O 0.42549 0.5677 0.81365 0.0
C676 C 0.35327 0.50018 0.79485 0.0
C677 C 0.3445 0.50864 0.78201 0.0
H678 H 0.33229 0.52872 0.75719 0.0
H679 H 0.34988 0.55913 0.74936 0.0
H680 H 0.40613 0.50459 0.83114 0.0
H681 H 0.37455 0.48791 0.81949 0.0
H682 H 0.34639 0.48661 0.79837 0.0
H683 H 0.33102 0.50144 0.77583 0.0
Mn684 Mn 0.68347 0.04021 0.75283 0.0
Mn685 Mn 0.71855 0.05847 0.78576 0.0
C686 C 0.69673 0.07294 0.75813 0.0
C687 C 0.66994 0.02571 0.72317 0.0
C688 C 0.6801 0.05068 0.79484 0.0
O689 O 0.69151 0.01584 0.75698 0.0
O690 O 0.71281 0.0297 0.78063 0.0
C691 C 0.74596 0.04549 0.76256 0.0
N692 N 0.74021 0.0599 0.7735 0.0
C693 C 0.76721 0.08324 0.77067 0.0
C694 C 0.77347 0.06863 0.75945 0.0
C695 C 0.76276 0.04968 0.75532 0.0
C696 C 0.7503 0.07821 0.77736 0.0
H697 H 0.7378 0.03091 0.75938 0.0
C698 C 0.70311 0.01487 0.76977 0.0
O699 O 0.66135 0.02439 0.73785 0.0
O700 O 0.68677 0.03496 0.7257 0.0
N701 N 0.72618 0.086 0.79285 0.0
C702 C 0.71832 0.09829 0.80419 0.0
C703 C 0.72758 0.11761 0.81028 0.0
C704 C 0.74475 0.12418 0.80455 0.0
C705 C 0.75269 0.11119 0.79312 0.0
C706 C 0.74303 0.09195 0.78795 0.0
H707 H 0.7052 0.09331 0.80879 0.0
O708 O 0.68027 0.06654 0.75059 0.0
O709 O 0.70529 0.05998 0.76221 0.0
O710 O 0.67363 0.04282 0.77827 0.0
O711 O 0.69687 0.05792 0.79939 0.0
C712 C 0.76984 0.11655 0.78674 0.0
C713 C 0.77704 0.10261 0.77541 0.0
H714 H 0.78645 0.0718 0.75388 0.0
H715 H 0.76748 0.03834 0.74662 0.0
H716 H 0.7215 0.12742 0.81944 0.0
H717 H 0.75174 0.13918 0.8091 0.0
H718 H 0.77756 0.13137 0.79041 0.0
H719 H 0.79017 0.10693 0.77046 0.0
Mn720 Mn 0.79606 0.69596 0.01589 0.0
Mn721 Mn 0.7874 0.65595 0.98215 0.0
C722 C 0.76638 0.67971 1.00582 0.0
C723 C 0.80099 0.71042 0.04776 0.0
C724 C 0.79868 0.69678 0.97401 0.0
O725 O 0.8202 0.68743 0.0161 0.0
O726 O 0.8126 0.6606 0.99371 0.0
C727 C 0.78932 0.6264 1.00555 0.0
N728 N 0.78001 0.63326 0.99272 0.0
C729 C 0.75473 0.60614 0.99018 0.0
C730 C 0.76409 0.59872 1.00329 0.0
C731 C 0.78144 0.60892 0.01103 0.0
C732 C 0.7633 0.62357 0.98519 0.0
H733 H 0.80263 0.63421 0.01156 0.0
C734 C 0.82385 0.67248 0.00619 0.0
O735 O 0.80614 0.72024 0.03487 0.0
O736 O 0.79371 0.69219 0.04217 0.0
N737 N 0.76347 0.64957 0.96995 0.0
C738 C 0.7558 0.65935 0.95845 0.0
C739 C 0.73831 0.65129 0.94979 0.0
C740 C 0.72893 0.63325 0.95299 0.0
C741 C 0.73702 0.62355 0.96502 0.0
C742 C 0.75458 0.63217 0.97305 0.0
H743 H 0.76298 0.67318 0.95587 0.0
O744 O 0.77012 0.69785 0.01368 0.0
O745 O 0.78016 0.67171 1.00379 0.0
O746 O 0.80006 0.70581 0.99087 0.0
O747 O 0.79438 0.67833 0.96966 0.0
C748 C 0.72827 0.6058 0.96955 0.0
C749 C 0.7371 0.59713 0.98216 0.0
H750 H 0.75803 0.5853 0.00763 0.0
H751 H 0.78871 0.60334 0.02122 0.0
H752 H 0.7321 0.65891 0.94062 0.0
H753 H 0.71549 0.62702 0.94618 0.0
H754 H 0.71466 0.59884 0.96361 0.0
H755 H 0.73013 0.58363 0.98575 0.0
Mn756 Mn 0.93097 0.55382 0.79857 0.0
Mn757 Mn 0.89569 0.55248 0.82462 0.0
C758 C 0.91584 0.52475 0.80523 0.0
C759 C 0.9435 0.5529 0.77036 0.0
C760 C 0.93467 0.56648 0.84084 0.0
O761 O 0.92418 0.57944 0.79731 0.0
O762 O 0.90001 0.57676 0.81396 0.0
C763 C 0.86673 0.54894 0.79471 0.0
N764 N 0.87375 0.54185 0.80891 0.0
C765 C 0.84866 0.51429 0.80431 0.0
C766 C 0.84111 0.52138 0.78973 0.0
C767 C 0.8502 0.53877 0.7849 0.0
C768 C 0.8651 0.52513 0.81369 0.0
H769 H 0.87371 0.56223 0.79084 0.0
C770 C 0.91097 0.58579 0.80397 0.0
O771 O 0.953 0.56124 0.78594 0.0
O772 O 0.92648 0.54562 0.77109 0.0
N773 N 0.88988 0.52956 0.83529 0.0
C774 C 0.89946 0.52412 0.84898 0.0
C775 C 0.89244 0.50675 0.85509 0.0
C776 C 0.87568 0.49517 0.8471 0.0
C777 C 0.86602 0.50111 0.83311 0.0
C778 C 0.87361 0.51868 0.82772 0.0
H779 H 0.91241 0.53284 0.85506 0.0
O780 O 0.93234 0.52683 0.80082 0.0
O781 O 0.90873 0.53977 0.80564 0.0
O782 O 0.94143 0.56366 0.8254 0.0
O783 O 0.91767 0.56305 0.84225 0.0
C784 C 0.84936 0.49012 0.82406 0.0
C785 C 0.84069 0.49669 0.80966 0.0
H786 H 0.82843 0.51351 0.78205 0.0
H787 H 0.84451 0.54428 0.7736 0.0
H788 H 0.90001 0.50222 0.86584 0.0
H789 H 0.87041 0.48167 0.8517 0.0
H790 H 0.84319 0.47646 0.82791 0.0
H791 H 0.828 0.48798 0.80265 0.0
Mn792 Mn 0.81329 0.41851 0.52753 0.0
Mn793 Mn 0.81753 0.45353 0.50144 0.0
C794 C 0.8414 0.4318 0.5193 0.0
C795 C 0.81151 0.40984 0.55671 0.0
C796 C 0.80388 0.41072 0.4855 0.0
O797 O 0.78923 0.42661 0.52879 0.0
O798 O 0.79474 0.45167 0.51362 0.0
C799 C 0.82206 0.48701 0.53232 0.0
N800 N 0.82837 0.47775 0.51713 0.0
C801 C 0.85469 0.50366 0.51971 0.0
C802 C 0.84845 0.51352 0.53534 0.0
C803 C 0.8321 0.5051 0.54173 0.0
C804 C 0.84429 0.48549 0.51115 0.0
H805 H 0.80945 0.48064 0.53722 0.0
C806 C 0.78474 0.44089 0.52299 0.0
O807 O 0.80488 0.39738 0.54167 0.0
O808 O 0.81886 0.42733 0.55479 0.0
N809 N 0.83888 0.45741 0.48863 0.0
C810 C 0.84217 0.44687 0.4724 0.0
C811 C 0.85777 0.45352 0.46386 0.0
C812 C 0.86955 0.47122 0.47176 0.0
C813 C 0.86543 0.48228 0.48796 0.0
C814 C 0.84973 0.47486 0.4959 0.0
H815 H 0.833 0.43344 0.46603 0.0
O816 O 0.83855 0.41544 0.52514 0.0
O817 O 0.82794 0.44037 0.51929 0.0
O818 O 0.80601 0.4045 0.50065 0.0
O819 O 0.80691 0.42872 0.48441 0.0
C820 C 0.87601 0.50062 0.49622 0.0
C821 C 0.87071 0.51125 0.51216 0.0
H822 H 0.85606 0.52758 0.5425 0.0
H823 H 0.82721 0.5126 0.5538 0.0
H824 H 0.86067 0.44508 0.45115 0.0
H825 H 0.88154 0.47634 0.4651 0.0
H826 H 0.88826 0.5067 0.49042 0.0
H827 H 0.87901 0.5253 0.51843 0.0
Mn828 Mn 0.6723 0.51775 0.265 0.0
Mn829 Mn 0.70779 0.52869 0.29834 0.0
C830 C 0.68907 0.55088 0.27531 0.0
C831 C 0.65806 0.51361 0.23215 0.0
C832 C 0.6685 0.51999 0.30891 0.0
O833 O 0.68123 0.49038 0.26344 0.0
O834 O 0.70337 0.50011 0.28706 0.0
C835 C 0.73662 0.52215 0.27397 0.0
N836 N 0.72984 0.53409 0.28684 0.0
C837 C 0.7555 0.56033 0.28719 0.0
C838 C 0.76279 0.54826 0.27405 0.0
C839 C 0.75329 0.5291 0.2674 0.0
C840 C 0.73889 0.55257 0.29334 0.0
H841 H 0.72937 0.50745 0.26868 0.0
C842 C 0.69429 0.48679 0.27389 0.0
O843 O 0.64935 0.50824 0.24582 0.0
O844 O 0.67527 0.51928 0.23693 0.0
N845 N 0.71418 0.55544 0.31012 0.0
C846 C 0.70485 0.56561 0.32194 0.0
C847 C 0.71231 0.58518 0.32945 0.0
C848 C 0.72928 0.59412 0.32477 0.0
C849 C 0.73868 0.58336 0.31267 0.0
C850 C 0.73065 0.56383 0.30575 0.0
H851 H 0.69173 0.55893 0.32548 0.0
O852 O 0.67231 0.54674 0.2687 0.0
O853 O 0.69534 0.53552 0.27669 0.0
O854 O 0.6613 0.51612 0.29178 0.0
O855 O 0.68572 0.52427 0.31233 0.0
C856 C 0.75552 0.59138 0.30688 0.0
C857 C 0.76392 0.57988 0.29415 0.0
H858 H 0.77559 0.5536 0.26886 0.0
H859 H 0.75878 0.51973 0.25718 0.0
H860 H 0.70494 0.59341 0.33872 0.0
H861 H 0.73489 0.60929 0.3304 0.0
H862 H 0.762 0.60646 0.31193 0.0
H863 H 0.77675 0.58628 0.28961 0.0
Eu864 Eu 0.03433 0.0321 0.00998 0.0
C865 C 0.08377 0.09365 0.0636 0.0
C866 C 0.08845 0.12174 0.04855 0.0
C867 C 0.08949 0.12608 0.08224 0.0
C868 C 0.08471 0.10145 0.04745 0.0
C869 C 0.08693 0.10596 0.08116 0.0
C870 C 0.09017 0.13395 0.06596 0.0
C871 C 0.08746 0.07791 0.09528 0.0
N872 N 0.08141 0.07413 0.06218 0.0
C873 C 0.08428 0.06626 0.0776 0.0
C874 C 0.08839 0.09779 0.09711 0.0
Eu875 Eu 0.07701 0.05583 0.03154 0.0
N876 N 0.08363 0.08936 0.03084 0.0
C877 C 0.08784 0.09661 0.01515 0.0
C878 C 0.09128 0.12921 0.0322 0.0
C879 C 0.09133 0.1166 0.0155 0.0
H880 H 0.08339 0.05084 0.0762 0.0
H881 H 0.09404 0.12225 1.00288 0.0
H882 H 0.09284 0.14955 0.06704 0.0
H883 H 0.08913 0.07155 0.10748 0.0
H884 H 0.08796 0.08701 1.00217 0.0
H885 H 0.02187 0.95741 0.02115 0.0
H886 H 0.09412 0.14469 0.03246 0.0
H887 H 0.02747 0.04896 0.97119 0.0
H888 H 0.02713 0.99314 0.03008 0.0
H889 H 0.01952 0.03639 0.9374 0.0
H890 H 0.09166 0.13574 0.09561 0.0
H891 H 0.01831 0.94219 0.98784 0.0
H892 H 0.01526 0.94616 0.95437 0.0
H893 H 0.0909 0.10678 0.11083 0.0
H894 H 0.01395 0.96761 0.93159 0.0
N895 N 0.02902 0.99794 1.00244 0.0
C896 C 0.02662 0.98655 0.01563 0.0
C897 C 0.02121 0.95784 0.99175 0.0
C898 C 0.02193 0.96959 0.97822 0.0
C899 C 0.02324 0.96637 0.01057 0.0
C900 C 0.0258 0.98988 0.98409 0.0
H901 H 0.01514 1.00125 0.92517 0.0
N902 N 0.02814 0.02132 0.97754 0.0
C903 C 0.02115 0.02656 0.94675 0.0
C904 C 0.02498 1.00189 0.97126 0.0
C905 C 0.02567 0.03365 0.96579 0.0
C906 C 0.01867 1.0067 0.93991 0.0
C907 C 0.02041 0.99406 0.95222 0.0
O908 O 0.01106 0.04429 1.00434 0.0
O909 O 0.05581 0.05953 0.01099 0.0
O910 O 0.0556 0.05912 0.05375 0.0
O911 O 0.03221 0.03323 0.04181 0.0
O912 O 0.03033 0.06288 0.01569 0.0
O913 O 0.00737 0.01766 0.01542 0.0
O914 O 0.09768 0.0442 0.04483 0.0
O915 O 0.05564 0.02831 0.03052 0.0
O916 O 0.05488 0.02924 0.9868 0.0
O917 O 0.08085 0.05176 0.99982 0.0
O918 O 0.08058 0.025 0.02349 0.0
O919 O 0.10551 0.06646 0.02822 0.0
C920 C 0.04627 0.0721 0.01398 0.0
C921 C 0.98239 0.02319 0.99773 0.0
C922 C 0.95264 0.02854 0.98904 0.0
C923 C 0.96955 0.03465 0.99946 0.0
C924 C 0.94891 0.01074 0.97651 0.0
C925 C 0.97848 1.0055 0.98521 0.0
C926 C 0.96179 0.99936 0.97461 0.0
C927 C 0.03982 0.04755 0.05585 0.0
C928 C 0.9996 0.0303 0.00934 0.0
C929 C 0.01734 0.97392 0.94619 0.0
C930 C 0.01813 0.96171 0.95916 0.0
C931 C 0.06511 0.0158 0.02677 0.0
C932 C 0.12711 0.06374 0.05179 0.0
C933 C 0.13991 0.05249 0.05326 0.0
C934 C 0.15591 0.05982 0.06508 0.0
C935 C 0.15885 0.07863 0.07564 0.0
C936 C 0.13015 0.08246 0.06241 0.0
C937 C 0.14596 0.08981 0.07437 0.0
C938 C 0.07165 0.03909 0.98523 0.0
C939 C 0.11097 0.05541 0.03875 0.0
H940 H 0.97288 0.0485 0.00892 0.0
H941 H 0.93596 1.00545 0.96838 0.0
H942 H 0.98823 0.99645 0.98368 0.0
H943 H 0.95877 0.98567 0.96498 0.0
H944 H 0.13762 0.03815 0.04474 0.0
H945 H 0.17106 0.08464 0.08487 0.0
H946 H 0.12047 0.09141 0.06137 0.0
H947 H 0.1483 0.10428 0.08255 0.0
Eu948 Eu 0.31309 0.78137 0.25071 0.0
C949 C 0.30963 0.85102 0.31074 0.0
C950 C 0.32247 0.85247 0.34215 0.0
C951 C 0.32197 0.88228 0.3309 0.0
C952 C 0.31419 0.8417 0.32475 0.0
C953 C 0.31327 0.87151 0.31383 0.0
C954 C 0.32665 0.87279 0.345 0.0
C955 C 0.29828 0.86942 0.28354 0.0
N956 N 0.30085 0.84015 0.29452 0.0
C957 C 0.29473 0.84921 0.28118 0.0
C958 C 0.30774 0.88063 0.29984 0.0
Eu959 Eu 0.29565 0.80555 0.29215 0.0
N960 N 0.30962 0.8221 0.32179 0.0
C961 C 0.31194 0.81237 0.33598 0.0
C962 C 0.32574 0.84252 0.35641 0.0
C963 C 0.32023 0.82237 0.35338 0.0
H964 H 0.28764 0.84131 0.26821 0.0
H965 H 0.32233 0.81453 0.36442 0.0
H966 H 0.33309 0.88129 0.35821 0.0
H967 H 0.29375 0.87634 0.27268 0.0
H968 H 0.30762 0.79675 0.33372 0.0
H969 H 0.28248 0.77189 0.17962 0.0
H970 H 0.33207 0.85027 0.36994 0.0
H971 H 0.32469 0.74597 0.27254 0.0
H972 H 0.29983 0.78988 0.20912 0.0
H973 H 0.3174 0.71083 0.26884 0.0
H974 H 0.32494 0.89799 0.33342 0.0
H975 H 0.27045 0.73652 0.17571 0.0
H976 H 0.26866 0.70584 0.18826 0.0
H977 H 0.31041 0.8963 0.30163 0.0
H978 H 0.27838 0.68927 0.21246 0.0
N979 N 0.2971 0.76501 0.22189 0.0
C980 C 0.29461 0.77441 0.20747 0.0
C981 C 0.27798 0.74436 0.18868 0.0
C982 C 0.28163 0.73463 0.20302 0.0
C983 C 0.28481 0.76429 0.19079 0.0
C984 C 0.29153 0.74549 0.21965 0.0
H985 H 0.29672 0.69096 0.2423 0.0
N986 N 0.30766 0.74701 0.24861 0.0
C987 C 0.31147 0.71778 0.25881 0.0
C988 C 0.29698 0.7362 0.23338 0.0
C989 C 0.31554 0.73797 0.26083 0.0
C990 C 0.29975 0.70662 0.24386 0.0
C991 C 0.29263 0.71574 0.2307 0.0
O992 O 0.34266 0.78878 0.25442 0.0
O993 O 0.31485 0.80863 0.27061 0.0
O994 O 0.2792 0.80871 0.26619 0.0
O995 O 0.28539 0.78653 0.24153 0.0
O996 O 0.3151 0.81108 0.24297 0.0
O997 O 0.3291 0.77897 0.2269 0.0
O998 O 0.26617 0.7987 0.28689 0.0
O999 O 0.29419 0.77792 0.27251 0.0
O1000 O 0.33006 0.779 0.27679 0.0
O1001 O 0.32353 0.80096 0.30156 0.0
O1002 O 0.29527 0.77643 0.30044 0.0
O1003 O 0.27827 0.8039 0.31494 0.0
C1004 C 0.31668 0.82061 0.25977 0.0
C1005 C 0.35567 0.80382 0.23064 0.0
C1006 C 0.35926 0.82981 0.21249 0.0
C1007 C 0.34851 0.81356 0.21787 0.0
C1008 C 0.37731 0.83633 0.22008 0.0
C1009 C 0.3737 0.81059 0.23809 0.0
C1010 C 0.38443 0.82678 0.23284 0.0
C1011 C 0.27568 0.79879 0.24889 0.0
C1012 C 0.34435 0.78704 0.23671 0.0
C1013 C 0.28195 0.70496 0.21463 0.0
C1014 C 0.27641 0.71439 0.20085 0.0
C1015 C 0.29346 0.76645 0.28383 0.0
C1016 C 0.25256 0.77796 0.30641 0.0
C1017 C 0.25842 0.7678 0.31956 0.0
C1018 C 0.24905 0.74895 0.32058 0.0
C1019 C 0.23339 0.74047 0.30847 0.0
C1020 C 0.23683 0.76923 0.29455 0.0
C1021 C 0.22731 0.75061 0.29562 0.0
C1022 C 0.3335 0.78896 0.29412 0.0
C1023 C 0.26356 0.79683 0.30392 0.0
H1024 H 0.33463 0.80841 0.21192 0.0
H1025 H 0.38585 0.8489 0.21625 0.0
H1026 H 0.37943 0.80339 0.24805 0.0
H1027 H 0.39832 0.83195 0.23869 0.0
H1028 H 0.27041 0.7745 0.32895 0.0
H1029 H 0.22598 0.7259 0.30874 0.0
H1030 H 0.23209 0.77667 0.28421 0.0
H1031 H 0.21532 0.7439 0.28627 0.0
Eu1032 Eu 0.57884 0.05084 0.52161 0.0
C1033 C 0.51364 1.0048 0.55584 0.0
C1034 C 0.49934 0.97844 0.53091 0.0
C1035 C 0.49776 0.97418 0.56306 0.0
C1036 C 0.50968 0.99745 0.53705 0.0
C1037 C 0.50741 0.9934 0.56909 0.0
C1038 C 0.49374 0.9667 0.544 0.0
C1039 C 0.51956 0.02129 0.5932 0.0
N1040 N 0.52287 0.02344 0.56118 0.0
C1041 C 0.5254 0.03202 0.57953 0.0
C1042 C 0.5107 1.00182 0.58798 0.0
Eu1043 Eu 0.53309 0.04042 0.53736 0.0
N1044 N 0.51515 0.00923 0.5248 0.0
C1045 C 0.50955 1.00342 0.50629 0.0
C1046 C 0.49451 0.97198 0.51183 0.0
C1047 C 0.49942 0.98464 0.4995 0.0
H1048 H 0.53236 0.04704 0.58363 0.0
H1049 H 0.49546 0.97992 0.48475 0.0
H1050 H 0.48593 0.952 0.53954 0.0
H1051 H 0.52192 0.02802 0.60775 0.0
H1052 H 0.5133 0.013 0.49658 0.0
H1053 H 0.6154 0.11186 0.57456 0.0
H1054 H 0.48665 0.95745 0.50654 0.0
H1055 H 0.58232 0.04343 0.47584 0.0
H1056 H 0.59747 0.07896 0.56272 0.0
H1057 H 0.59417 0.06183 0.4518 0.0
H1058 H 0.49299 0.96513 0.57302 0.0
H1059 H 0.62565 0.1338 0.5527 0.0
H1060 H 0.62753 0.13888 0.51971 0.0
H1061 H 0.50615 0.99354 0.59859 0.0
H1062 H 0.62181 0.12524 0.48622 0.0
N1063 N 0.59673 0.08218 0.5343 0.0
C1064 C 0.60169 0.08826 0.55292 0.0
C1065 C 0.61757 0.11937 0.54739 0.0
C1066 C 0.61333 0.11273 0.52828 0.0
C1067 C 0.6119 0.107 0.55975 0.0
C1068 C 0.6029 0.09375 0.52209 0.0
H1069 H 0.60967 0.09641 0.46078 0.0
N1070 N 0.59061 0.06747 0.49807 0.0
C1071 C 0.59575 0.06889 0.46624 0.0
C1072 C 0.59972 0.08614 0.50335 0.0
C1073 C 0.58909 0.05851 0.47989 0.0
C1074 C 0.60444 0.08841 0.47136 0.0
C1075 C 0.60679 0.09721 0.49014 0.0
O1076 O 0.59509 0.03139 0.50846 0.0
O1077 O 0.55452 0.02767 0.52358 0.0
O1078 O 0.55104 0.02734 0.5549 0.0
O1079 O 0.57845 0.04761 0.55198 0.0
O1080 O 0.56642 0.02497 0.49896 0.0
O1081 O 0.60178 0.045 0.53723 0.0
O1082 O 0.51706 0.05956 0.55141 0.0
O1083 O 0.5571 0.06369 0.53475 0.0
O1084 O 0.56115 0.06254 0.50246 0.0
O1085 O 0.53273 0.04502 0.50737 0.0
O1086 O 0.54561 0.06661 0.55962 0.0
O1087 O 0.50878 0.04495 0.52306 0.0
C1088 C 0.55374 0.01682 0.50788 0.0
C1089 C 0.62557 0.03664 0.52061 0.0
C1090 C 0.65381 0.02531 0.5217 0.0
C1091 C 0.63511 0.02239 0.52365 0.0
C1092 C 0.66263 0.04265 0.51644 0.0
C1093 C 0.63471 0.05375 0.51544 0.0
C1094 C 0.65314 0.05669 0.51333 0.0
C1095 C 0.56836 0.03467 0.5602 0.0
C1096 C 0.60619 0.03369 0.52325 0.0
C1097 C 0.61642 0.11644 0.49616 0.0
C1098 C 0.61968 0.12419 0.51521 0.0
C1099 C 0.55786 0.07487 0.55027 0.0
C1100 C 0.48596 0.05358 0.54124 0.0
C1101 C 0.47602 0.06771 0.53887 0.0
C1102 C 0.45774 0.06506 0.5427 0.0
C1103 C 0.44966 0.04789 0.54876 0.0
C1104 C 0.47756 0.03671 0.54734 0.0
C1105 C 0.45951 0.03391 0.55105 0.0
C1106 C 0.5435 0.05644 0.4982 0.0
C1107 C 0.50503 0.05657 0.53725 0.0
H1108 H 0.62805 0.00924 0.52784 0.0
H1109 H 0.67688 0.04528 0.51448 0.0
H1110 H 0.6276 0.06485 0.51309 0.0
H1111 H 0.66011 0.06992 0.50927 0.0
H1112 H 0.4826 0.08081 0.53427 0.0
H1113 H 0.4356 0.04508 0.55147 0.0
H1114 H 0.48495 0.02571 0.54918 0.0
H1115 H 0.45307 0.02079 0.55567 0.0
Eu1116 Eu 0.28497 0.29756 0.7696 0.0
C1117 C 0.34354 0.26481 0.80835 0.0
C1118 C 0.35384 0.28932 0.8359 0.0
C1119 C 0.35461 0.25578 0.83667 0.0
C1120 C 0.34629 0.28379 0.81724 0.0
C1121 C 0.34828 0.25067 0.81773 0.0
C1122 C 0.35736 0.2751 0.84576 0.0
C1123 C 0.34253 0.22829 0.78842 0.0
N1124 N 0.33782 0.26055 0.79001 0.0
C1125 C 0.33808 0.24287 0.77976 0.0
C1126 C 0.34731 0.23209 0.80757 0.0
Eu1127 Eu 0.32922 0.28534 0.7762 0.0
N1128 N 0.3431 0.29713 0.80713 0.0
C1129 C 0.34897 0.31645 0.81431 0.0
C1130 C 0.35844 0.30903 0.84378 0.0
C1131 C 0.35638 0.32268 0.83279 0.0
H1132 H 0.33422 0.23981 0.76496 0.0
H1133 H 0.36039 0.338 0.83856 0.0
H1134 H 0.36292 0.27902 0.86017 0.0
H1135 H 0.34221 0.21413 0.78032 0.0
H1136 H 0.3474 0.32727 0.80615 0.0
H1137 H 0.25304 0.24531 0.70734 0.0
H1138 H 0.36421 0.31388 0.85808 0.0
H1139 H 0.28094 0.34342 0.78128 0.0
H1140 H 0.26656 0.25582 0.73961 0.0
H1141 H 0.27277 0.36925 0.76627 0.0
H1142 H 0.35808 0.24508 0.84419 0.0
H1143 H 0.24884 0.26961 0.68818 0.0
H1144 H 0.2501 0.30454 0.68641 0.0
H1145 H 0.35085 0.22082 0.81424 0.0
H1146 H 0.25534 0.33845 0.70256 0.0
N1147 N 0.27077 0.28599 0.73884 0.0
C1148 C 0.26483 0.26669 0.73158 0.0
C1149 C 0.25485 0.27436 0.7024 0.0
C1150 C 0.25956 0.29405 0.71039 0.0
C1151 C 0.25712 0.26061 0.71319 0.0
C1152 C 0.26742 0.29944 0.72894 0.0
H1153 H 0.2633 0.36263 0.73251 0.0
N1154 N 0.27653 0.32264 0.75619 0.0
C1155 C 0.27215 0.35506 0.7581 0.0
C1156 C 0.2704 0.31843 0.73794 0.0
C1157 C 0.2767 0.3404 0.76656 0.0
C1158 C 0.2669 0.35129 0.73903 0.0
C1159 C 0.26559 0.33268 0.72877 0.0
O1160 O 0.26757 0.30779 0.79016 0.0
O1161 O 0.30611 0.29394 0.79059 0.0
O1162 O 0.30839 0.25831 0.78101 0.0
O1163 O 0.28111 0.26473 0.77047 0.0
O1164 O 0.29592 0.3188 0.79595 0.0
O1165 O 0.25877 0.27952 0.77314 0.0
O1166 O 0.34709 0.27511 0.75615 0.0
O1167 O 0.30801 0.28878 0.75529 0.0
O1168 O 0.30573 0.32394 0.76351 0.0
O1169 O 0.33279 0.31825 0.77549 0.0
O1170 O 0.31855 0.26422 0.74965 0.0
O1171 O 0.35511 0.30382 0.77235 0.0
C1172 C 0.30658 0.30921 0.80243 0.0
C1173 C 0.23603 0.29546 0.78409 0.0
C1174 C 0.20616 0.29398 0.7958 0.0
C1175 C 0.22399 0.29112 0.79762 0.0
C1176 C 0.20087 0.30155 0.78033 0.0
C1177 C 0.23024 0.30277 0.7688 0.0
C1178 C 0.21279 0.30584 0.767 0.0
C1179 C 0.29061 0.25279 0.77624 0.0
C1180 C 0.2546 0.29236 0.78594 0.0
C1181 C 0.25889 0.32767 0.70993 0.0
C1182 C 0.2559 0.30837 0.70074 0.0
C1183 C 0.30762 0.27362 0.74335 0.0
C1184 C 0.37847 0.28834 0.76249 0.0
C1185 C 0.39065 0.29248 0.74902 0.0
C1186 C 0.40866 0.29032 0.75146 0.0
C1187 C 0.41402 0.28365 0.76746 0.0
C1188 C 0.38431 0.28188 0.7783 0.0
C1189 C 0.40196 0.2795 0.7807 0.0
C1190 C 0.32336 0.32985 0.76893 0.0
C1191 C 0.35973 0.29084 0.76007 0.0
H1192 H 0.22843 0.28528 0.80934 0.0
H1193 H 0.18753 0.30442 0.77859 0.0
H1194 H 0.23922 0.30612 0.75826 0.0
H1195 H 0.20847 0.31162 0.75521 0.0
H1196 H 0.38618 0.29765 0.73688 0.0
H1197 H 0.42755 0.2814 0.76968 0.0
H1198 H 0.37523 0.27868 0.78879 0.0
H1199 H 0.40633 0.27439 0.79291 0.0
Eu1200 Eu 0.0501 0.06552 0.53239 0.0
C1201 C 0.07935 0.0161 0.46932 0.0
C1202 C 0.05547 0.00813 0.44419 0.0
C1203 C 0.08655 0.00979 0.43722 0.0
C1204 C 0.0613 0.0133 0.46335 0.0
C1205 C 0.09215 0.014 0.45634 0.0
C1206 C 0.06824 1.00686 0.43116 0.0
C1207 C 0.11483 0.01878 0.4821 0.0
N1208 N 0.08427 0.01991 0.48787 0.0
C1209 C 0.10164 0.02069 0.49442 0.0
C1210 C 0.11012 0.01565 0.46297 0.0
Eu1211 Eu 0.06132 0.02366 0.50796 0.0
N1212 N 0.04932 0.01439 0.47632 0.0
C1213 C 0.03119 0.0089 0.47108 0.0
C1214 C 0.03695 1.00374 0.43873 0.0
C1215 C 0.02475 1.00382 0.45226 0.0
H1216 H 0.10546 0.02323 0.50918 0.0
H1217 H 0.01037 1.00004 0.44822 0.0
H1218 H 0.06403 1.00311 0.41638 0.0
H1219 H 0.12862 0.01978 0.48737 0.0
H1220 H 0.02153 0.00887 0.4813 0.0
H1221 H 0.10054 0.08882 0.59261 0.0
H1222 H 0.03193 0.99976 0.42416 0.0
H1223 H 0.00565 0.06491 0.53083 0.0
H1224 H 0.08972 0.08029 0.55945 0.0
H1225 H 0.98225 0.06762 0.55243 0.0
H1226 H 0.09621 0.00829 0.42704 0.0
H1227 H 0.07873 0.08892 0.61642 0.0
H1228 H 0.04654 0.08533 0.62388 0.0
H1229 H 0.12035 0.01413 0.45345 0.0
H1230 H 0.01439 0.07978 0.61297 0.0
N1231 N 0.06185 0.07488 0.56411 0.0
C1232 C 0.07994 0.08022 0.56955 0.0
C1233 C 0.07385 0.0851 0.60181 0.0
C1234 C 0.05537 0.08074 0.59617 0.0
C1235 C 0.0862 0.08511 0.58842 0.0
C1236 C 0.04972 0.07579 0.57696 0.0
H1237 H 0.99035 0.07348 0.58639 0.0
N1238 N 0.02689 0.0689 0.55226 0.0
C1239 C 0.99609 0.06905 0.55781 0.0
C1240 C 0.03169 0.07278 0.57085 0.0
C1241 C 0.00944 0.06756 0.54559 0.0
C1242 C 1.00071 0.07231 0.57696 0.0
C1243 C 0.01872 0.07446 0.58372 0.0
O1244 O 0.03921 0.08917 0.52443 0.0
O1245 O 0.05049 0.04964 0.5025 0.0
O1246 O 0.08141 0.04886 0.5008 0.0
O1247 O 0.07979 0.07103 0.527 0.0
O1248 O 0.0275 0.05885 0.50869 0.0
O1249 O 0.06727 0.09447 0.53507 0.0
O1250 O 0.07206 0.99953 0.51499 0.0
O1251 O 0.06098 0.03956 0.53768 0.0
O1252 O 0.0309 0.04029 0.54041 0.0
O1253 O 0.03168 0.01832 0.51383 0.0
O1254 O 0.08376 0.0299 0.53188 0.0
O1255 O 0.04368 0.99509 0.50587 0.0
C1256 C 0.03503 0.0508 0.49514 0.0
C1257 C 0.0536 0.12139 0.53792 0.0
C1258 C 0.0552 0.15505 0.53503 0.0
C1259 C 0.05548 0.13591 0.52711 0.0
C1260 C 0.05306 0.15949 0.55411 0.0
C1261 C 0.05132 0.12589 0.55688 0.0
C1262 C 0.05105 0.14493 0.56492 0.0
C1263 C 0.08803 0.06534 0.51237 0.0
C1264 C 0.05442 0.10186 0.52884 0.0
C1265 C 0.02417 0.07859 0.60287 0.0
C1266 C 0.04247 0.08173 0.60908 0.0
C1267 C 0.07627 0.03826 0.54529 0.0
C1268 C 0.05654 0.96766 0.50154 0.0
C1269 C 0.05407 0.95284 0.51194 0.0
C1270 C 0.05337 0.93361 0.50356 0.0
C1271 C 0.05507 0.92935 0.48437 0.0
C1272 C 0.05839 0.96338 0.48246 0.0
C1273 C 0.05765 0.94422 0.47392 0.0
C1274 C 0.02398 0.02386 0.52893 0.0
C1275 C 0.05657 0.98723 0.51116 0.0
H1276 H 0.05753 0.13231 0.51251 0.0
H1277 H 0.05276 0.17412 0.56059 0.0
H1278 H 0.04985 0.11479 0.56539 0.0
H1279 H 0.04932 0.14843 0.57957 0.0
H1280 H 0.0523 0.9563 0.52663 0.0
H1281 H 0.05457 0.91463 0.47754 0.0
H1282 H 0.06027 0.97473 0.47422 0.0
H1283 H 0.05903 0.94088 0.45918 0.0
Eu1284 Eu 0.32139 0.8065 0.76738 0.0
C1285 C 0.28568 0.74882 0.80838 0.0
C1286 C 0.29617 0.72033 0.7951 0.0
C1287 C 0.29255 0.72661 0.82811 0.0
C1288 C 0.29109 0.73782 0.79326 0.0
C1289 C 0.28559 0.74279 0.8258 0.0
C1290 C 0.29778 0.71533 0.81275 0.0
C1291 C 0.2683 0.76647 0.83623 0.0
N1292 N 0.27831 0.76386 0.80546 0.0
C1293 C 0.26835 0.77156 0.81862 0.0
C1294 C 0.27738 0.75236 0.84 0.0
Eu1295 Eu 0.28184 0.77341 0.77575 0.0
N1296 N 0.2892 0.7429 0.77634 0.0
C1297 C 0.28965 0.72986 0.76057 0.0
C1298 C 0.29835 0.70778 0.77901 0.0
C1299 C 0.29451 0.7123 0.76165 0.0
H1300 H 0.26132 0.78256 0.81589 0.0
H1301 H 0.29535 0.7023 0.74908 0.0
H1302 H 0.30211 0.70223 0.81448 0.0
H1303 H 0.26119 0.77337 0.84684 0.0
H1304 H 0.2864 0.73287 0.74707 0.0
H1305 H 0.30703 0.87749 0.79211 0.0
H1306 H 0.3021 0.69416 0.77981 0.0
H1307 H 0.34048 0.79197 0.72877 0.0
H1308 H 0.31152 0.84504 0.79457 0.0
H1309 H 0.34794 0.80285 0.69933 0.0
H1310 H 0.29292 0.72201 0.84147 0.0
H1311 H 0.31027 0.88923 0.76233 0.0
H1312 H 0.31856 0.88378 0.72945 0.0
H1313 H 0.27709 0.74821 0.85356 0.0
H1314 H 0.32988 0.86356 0.70426 0.0
N1315 N 0.31682 0.838 0.76629 0.0
C1316 C 0.31306 0.84988 0.78147 0.0
C1317 C 0.31227 0.87491 0.76331 0.0
C1318 C 0.31724 0.86316 0.74813 0.0
C1319 C 0.31049 0.86836 0.78016 0.0
C1320 C 0.31964 0.84461 0.75014 0.0
H1321 H 0.3412 0.83356 0.69304 0.0
N1322 N 0.32933 0.81611 0.73893 0.0
C1323 C 0.34178 0.81154 0.70951 0.0
C1324 C 0.32616 0.83334 0.73604 0.0
C1325 C 0.33756 0.80544 0.72623 0.0
C1326 C 0.33789 0.82885 0.70599 0.0
C1327 C 0.33023 0.84014 0.71943 0.0
O1328 O 0.35017 0.80699 0.76685 0.0
O1329 O 0.31266 0.77685 0.77658 0.0
O1330 O 0.29022 0.7946 0.80257 0.0
O1331 O 0.31751 0.8139 0.798 0.0
O1332 O 0.3309 0.77862 0.75692 0.0
O1333 O 0.341 0.8265 0.78828 0.0
O1334 O 0.25612 0.75369 0.77707 0.0
O1335 O 0.29106 0.80317 0.7683 0.0
O1336 O 0.30411 0.79592 0.74012 0.0
O1337 O 0.28988 0.76623 0.74623 0.0
O1338 O 0.26847 0.79958 0.7823 0.0
O1339 O 0.25996 0.76781 0.7534 0.0
C1340 C 0.32267 0.76705 0.76696 0.0
C1341 C 0.37061 0.83639 0.77985 0.0
C1342 C 0.40311 0.84855 0.78596 0.0
C1343 C 0.38758 0.83404 0.78601 0.0
C1344 C 0.40147 0.86556 0.77955 0.0
C1345 C 0.36908 0.8533 0.77327 0.0
C1346 C 0.38452 0.86782 0.77311 0.0
C1347 C 0.30456 0.80847 0.80846 0.0
C1348 C 0.35483 0.82111 0.78108 0.0
C1349 C 0.32699 0.85816 0.71698 0.0
C1350 C 0.32051 0.86966 0.73131 0.0
C1351 C 0.27886 0.81221 0.77463 0.0
C1352 C 0.23117 0.76353 0.76452 0.0
C1353 C 0.21848 0.76048 0.74907 0.0
C1354 C 0.20205 0.76631 0.75105 0.0
C1355 C 0.19854 0.77536 0.76861 0.0
C1356 C 0.22738 0.77262 0.78194 0.0
C1357 C 0.21116 0.77848 0.78393 0.0
C1358 C 0.29539 0.7778 0.73441 0.0
C1359 C 0.24842 0.75759 0.76233 0.0
H1360 H 0.38863 0.82102 0.7913 0.0
H1361 H 0.41327 0.87697 0.77939 0.0
H1362 H 0.35605 0.85536 0.76846 0.0
H1363 H 0.38332 0.88091 0.7681 0.0
H1364 H 0.22134 0.75345 0.73562 0.0
H1365 H 0.18613 0.7803 0.77045 0.0
H1366 H 0.23695 0.77526 0.79402 0.0
H1367 H 0.20839 0.78554 0.79738 0.0
Eu1368 Eu 0.56631 0.03528 0.05414 0.0
C1369 C 0.504 0.05224 1.00205 0.0
C1370 C 0.48446 0.02096 0.98943 0.0
C1371 C 0.47234 0.04998 0.99275 0.0
C1372 C 0.50156 0.0324 0.99688 0.0
C1373 C 0.48953 0.06134 0.99964 0.0
C1374 C 0.4698 0.02982 0.9877 0.0
C1375 C 0.51043 0.09227 0.00951 0.0
N1376 N 0.52077 0.06278 0.00856 0.0
C1377 C 0.52434 0.08258 0.01165 0.0
C1378 C 0.49289 0.0816 1.00372 0.0
Eu1379 Eu 0.54376 0.04555 0.01165 0.0
N1380 N 0.51602 0.02431 0.99872 0.0
C1381 C 0.51449 1.00496 0.99245 0.0
C1382 C 0.48266 1.00099 0.98372 0.0
C1383 C 0.49778 0.993 0.9851 0.0
H1384 H 0.53787 0.0909 0.01619 0.0
H1385 H 0.49658 0.9776 0.98053 0.0
H1386 H 0.45653 0.02125 0.98215 0.0
H1387 H 0.51325 0.10795 0.01237 0.0
H1388 H 0.526 0.99852 0.99348 0.0
H1389 H 0.60941 0.10431 0.08933 0.0
H1390 H 0.46973 0.99169 0.97802 0.0
H1391 H 0.57496 0.9911 0.04808 0.0
H1392 H 0.58142 0.08251 0.07394 0.0
H1393 H 0.60084 0.97573 0.05183 0.0
H1394 H 0.46101 0.05668 0.99095 0.0
H1395 H 0.63707 0.09189 0.09306 0.0
H1396 H 0.65238 0.06397 0.08777 0.0
H1397 H 0.48213 0.08914 1.00203 0.0
H1398 H 0.65017 0.02908 0.07724 0.0
N1399 N 0.59303 0.05781 0.06809 0.0
C1400 C 0.59332 0.07676 0.07516 0.0
C1401 C 0.62484 0.08224 0.08594 0.0
C1402 C 0.6244 0.06274 0.07909 0.0
C1403 C 0.60923 0.08927 0.08396 0.0
C1404 C 0.60802 0.05068 0.07032 0.0
H1405 H 0.631 0.99605 0.06397 0.0
N1406 N 0.59053 0.01976 0.05728 0.0
C1407 C 0.60272 0.99132 0.05541 0.0
C1408 C 0.60677 0.03107 0.06457 0.0
C1409 C 0.58812 1.00004 0.05331 0.0
C1410 C 0.61972 1.00285 0.06221 0.0
C1411 C 0.62186 0.02295 0.0672 0.0
O1412 O 0.55863 0.01629 0.07416 0.0
O1413 O 0.54119 0.0297 0.03539 0.0
O1414 O 0.53095 0.0587 0.03625 0.0
O1415 O 0.55395 0.06184 0.05979 0.0
O1416 O 0.54657 1.00616 0.04548 0.0
O1417 O 0.55795 0.04678 0.08082 0.0
O1418 O 0.55553 0.06411 0.9927 0.0
O1419 O 0.56898 0.05078 0.03036 0.0
O1420 O 0.57878 0.02232 0.0291 0.0
O1421 O 0.55525 0.01845 0.00603 0.0
O1422 O 0.56372 0.07457 0.02064 0.0
O1423 O 0.54729 0.03302 0.9832 0.0
C1424 C 0.53494 0.01208 0.03574 0.0
C1425 C 0.56251 0.03138 0.10591 0.0
C1426 C 0.5564 0.03545 0.13844 0.0
C1427 C 0.55055 0.03327 0.11955 0.0
C1428 C 0.57456 0.03577 0.14353 0.0
C1429 C 0.58058 0.03163 0.11105 0.0
C1430 C 0.58655 0.03378 0.12986 0.0
C1431 C 0.53877 0.0658 0.05331 0.0
C1432 C 0.55573 0.03032 0.08662 0.0
C1433 C 0.6384 0.03503 0.0752 0.0
C1434 C 0.63965 0.05488 0.08121 0.0
C1435 C 0.57511 0.0685 0.03054 0.0
C1436 C 0.54619 0.05306 0.9609 0.0
C1437 C 0.55774 0.05563 0.94691 0.0
C1438 C 0.55133 0.05887 0.92962 0.0
C1439 C 0.53307 0.05944 0.92651 0.0
C1440 C 0.52802 0.05372 0.9577 0.0
C1441 C 0.52151 0.05692 0.94054 0.0
C1442 C 0.57047 0.01451 0.01237 0.0
C1443 C 0.55358 0.04982 0.97869 0.0
H1444 H 0.53671 0.03354 0.11543 0.0
H1445 H 0.57943 0.03742 0.15802 0.0
H1446 H 0.59002 0.03035 0.10062 0.0
H1447 H 0.60051 0.03401 0.13385 0.0
H1448 H 0.5717 0.05476 0.94941 0.0
H1449 H 0.52779 0.06196 0.91332 0.0
H1450 H 0.51892 0.05175 0.96836 0.0
H1451 H 0.50748 0.05743 0.9381 0.0
Eu1452 Eu 0.32267 0.32287 0.28598 0.0
C1453 C 0.25283 0.27071 0.23727 0.0
C1454 C 0.22788 0.26454 0.25607 0.0
C1455 C 0.22203 0.26516 0.22326 0.0
C1456 C 0.24659 0.26924 0.25439 0.0
C1457 C 0.24063 0.26831 0.22139 0.0
C1458 C 0.21564 0.26315 0.24057 0.0
C1459 C 0.2659 0.26964 0.2027 0.0
N1460 N 0.27078 0.27292 0.23588 0.0
C1461 C 0.27738 0.27156 0.2188 0.0
C1462 C 0.24745 0.26827 0.20402 0.0
Eu1463 Eu 0.28974 0.27697 0.26375 0.0
N1464 N 0.25878 0.2705 0.269 0.0
C1465 C 0.25312 0.26536 0.28519 0.0
C1466 C 0.22202 0.26026 0.27297 0.0
C1467 C 0.23471 0.26029 0.28747 0.0
H1468 H 0.29164 0.27267 0.2177 0.0
H1469 H 0.23036 0.25643 0.30044 0.0
H1470 H 0.20122 0.25983 0.24167 0.0
H1471 H 0.27128 0.26918 0.18929 0.0
H1472 H 0.26275 0.26519 0.29646 0.0
H1473 H 0.38389 0.33543 0.25034 0.0
H1474 H 0.20776 0.25621 0.27469 0.0
H1475 H 0.31994 0.33338 0.33293 0.0
H1476 H 0.3513 0.33075 0.25354 0.0
H1477 H 0.33955 0.33766 0.36172 0.0
H1478 H 0.21244 0.26344 0.21127 0.0
H1479 H 0.40483 0.334 0.27687 0.0
H1480 H 0.40965 0.33257 0.31072 0.0
H1481 H 0.23854 0.26654 0.19151 0.0
H1482 H 0.39751 0.33348 0.34119 0.0
N1483 N 0.35357 0.3262 0.28143 0.0
C1484 C 0.36024 0.32993 0.26517 0.0
C1485 C 0.39049 0.33195 0.27836 0.0
C1486 C 0.38373 0.32975 0.29546 0.0
C1487 C 0.37875 0.33272 0.26334 0.0
C1488 C 0.36498 0.32743 0.29672 0.0
H1489 H 0.37156 0.33599 0.36036 0.0
N1490 N 0.3404 0.32862 0.31499 0.0
C1491 C 0.34494 0.33503 0.34839 0.0
C1492 C 0.35819 0.32855 0.31399 0.0
C1493 C 0.33385 0.33264 0.33193 0.0
C1494 C 0.36298 0.33398 0.34756 0.0
C1495 C 0.36993 0.33115 0.33027 0.0
O1496 O 0.33799 0.35219 0.28544 0.0
O1497 O 0.29427 0.30645 0.2809 0.0
O1498 O 0.28876 0.30157 0.2475 0.0
O1499 O 0.31841 0.31925 0.25431 0.0
O1500 O 0.30074 0.32729 0.30505 0.0
O1501 O 0.30906 0.3466 0.28384 0.0
O1502 O 0.29211 0.24886 0.24869 0.0
O1503 O 0.31824 0.29333 0.26895 0.0
O1504 O 0.32322 0.30043 0.30478 0.0
O1505 O 0.29534 0.2787 0.29528 0.0
O1506 O 0.31228 0.27151 0.24589 0.0
O1507 O 0.28825 0.25255 0.27817 0.0
C1508 C 0.28791 0.31427 0.29506 0.0
C1509 C 0.32331 0.36746 0.26467 0.0
C1510 C 0.30656 0.38077 0.24251 0.0
C1511 C 0.30753 0.37282 0.25873 0.0
C1512 C 0.32154 0.38313 0.23206 0.0
C1513 C 0.33826 0.37019 0.25414 0.0
C1514 C 0.33728 0.37784 0.23788 0.0
C1515 C 0.30293 0.31412 0.24354 0.0
C1516 C 0.32374 0.35857 0.2815 0.0
C1517 C 0.38835 0.33171 0.32885 0.0
C1518 C 0.39526 0.33112 0.31149 0.0
C1519 C 0.32507 0.28424 0.25595 0.0
C1520 C 0.2781 0.22119 0.26041 0.0
C1521 C 0.28463 0.2069 0.26767 0.0
C1522 C 0.27441 0.18782 0.26492 0.0
C1523 C 0.2574 0.18314 0.25475 0.0
C1524 C 0.26097 0.21658 0.25055 0.0
C1525 C 0.25066 0.19755 0.24776 0.0
C1526 C 0.30992 0.28603 0.30733 0.0
C1527 C 0.28983 0.24057 0.26321 0.0
H1528 H 0.2961 0.37123 0.26702 0.0
H1529 H 0.3211 0.38919 0.2195 0.0
H1530 H 0.35068 0.36634 0.25835 0.0
H1531 H 0.34879 0.37974 0.22978 0.0
H1532 H 0.29798 0.21056 0.27512 0.0
H1533 H 0.24934 0.16846 0.25234 0.0
H1534 H 0.2557 0.22756 0.24494 0.0
H1535 H 0.23748 0.19394 0.24005 0.0
Eu1536 Eu 0.54801 0.56627 0.03373 0.0
C1537 C 0.57972 0.52148 0.97061 0.0
C1538 C 0.55581 0.51243 0.94545 0.0
C1539 C 0.58711 0.51682 0.9385 0.0
C1540 C 0.56155 0.51739 0.96464 0.0
C1541 C 0.59269 0.52084 0.95761 0.0
C1542 C 0.5687 0.51263 0.93243 0.0
C1543 C 0.61562 0.5266 0.98331 0.0
N1544 N 0.58465 0.52509 0.98915 0.0
C1545 C 0.60227 0.52708 0.99565 0.0
C1546 C 0.61085 0.52371 0.96421 0.0
Eu1547 Eu 0.56133 0.52604 0.00927 0.0
N1548 N 0.54945 0.51711 0.97759 0.0
C1549 C 0.53141 0.51047 0.97226 0.0
C1550 C 0.5373 0.50681 0.93993 0.0
C1551 C 0.52506 0.50552 0.95341 0.0
H1552 H 0.60611 0.52949 0.01041 0.0
H1553 H 0.51072 0.50079 0.9493 0.0
H1554 H 0.56455 0.50905 0.91764 0.0
H1555 H 0.62959 0.52854 0.98855 0.0
H1556 H 0.5217 0.50939 0.98242 0.0
H1557 H 0.5974 0.58837 0.09538 0.0
H1558 H 0.53235 0.50294 0.92534 0.0
H1559 H 0.50396 0.56875 0.03218 0.0
H1560 H 0.58765 0.58273 0.06221 0.0
H1561 H 0.48026 0.56973 0.05368 0.0
H1562 H 0.59689 0.51643 0.92831 0.0
H1563 H 0.57491 0.58373 0.11822 0.0
H1564 H 0.54251 0.57737 0.12478 0.0
H1565 H 0.62122 0.52332 0.95467 0.0
H1566 H 0.5106 0.57254 0.11347 0.0
N1567 N 0.55958 0.57381 0.06557 0.0
C1568 C 0.57747 0.58045 0.07172 0.0
C1569 C 0.57044 0.58109 0.10353 0.0
C1570 C 0.55207 0.57601 0.09735 0.0
C1571 C 0.58316 0.58379 0.09069 0.0
C1572 C 0.54693 0.57268 0.07804 0.0
H1573 H 0.4874 0.57035 0.08715 0.0
N1574 N 0.52436 0.56841 0.05317 0.0
C1575 C 0.49382 0.56964 0.0589 0.0
C1576 C 0.52885 0.56997 0.07168 0.0
C1577 C 0.50731 0.56909 0.04675 0.0
C1578 C 0.4979 0.56992 0.07776 0.0
C1579 C 0.51563 0.57049 0.08444 0.0
O1580 O 0.556 0.58974 0.01809 0.0
O1581 O 0.54843 0.55082 1.0039 0.0
O1582 O 0.57987 0.55288 1.00318 0.0
O1583 O 0.57819 0.57282 0.03077 0.0
O1584 O 0.52494 0.55904 0.01045 0.0
O1585 O 0.54587 0.59589 0.04475 0.0
O1586 O 0.57466 0.50298 0.01418 0.0
O1587 O 0.55984 0.54077 0.03933 0.0
O1588 O 0.52568 0.54092 0.0368 0.0
O1589 O 0.53198 0.51668 0.01479 0.0
O1590 O 0.58343 0.53269 0.03349 0.0
O1591 O 0.54571 0.49645 0.0071 0.0
C1592 C 0.53266 0.55133 0.99676 0.0
C1593 C 0.53894 0.61383 0.0219 0.0
C1594 C 0.53472 0.63617 1.00105 0.0
C1595 C 0.54551 0.6252 0.00881 0.0
C1596 C 0.51714 0.63535 0.00639 0.0
C1597 C 0.52143 0.61351 0.02722 0.0
C1598 C 0.51059 0.62411 0.01939 0.0
C1599 C 0.58643 0.56862 0.01572 0.0
C1600 C 0.55054 0.60249 0.02983 0.0
C1601 C 0.52062 0.5724 0.10351 0.0
C1602 C 0.53879 0.57514 0.10995 0.0
C1603 C 0.57529 0.53987 0.04698 0.0
C1604 C 0.56055 0.47073 1.00022 0.0
C1605 C 0.55353 0.45439 0.00774 0.0
C1606 C 0.55439 0.43581 0.99873 0.0
C1607 C 0.56244 0.43375 0.98191 0.0
C1608 C 0.56836 0.46861 0.98331 0.0
C1609 C 0.56926 0.4501 0.97419 0.0
C1610 C 0.52154 0.52321 0.02695 0.0
C1611 C 0.55979 0.48965 0.01086 0.0
H1612 H 0.55915 0.62578 1.00496 0.0
H1613 H 0.50839 0.64335 1.00046 0.0
H1614 H 0.51609 0.60518 0.03746 0.0
H1615 H 0.49708 0.62368 0.02348 0.0
H1616 H 0.54776 0.45623 0.02098 0.0
H1617 H 0.56333 0.41955 0.97472 0.0
H1618 H 0.57383 0.48114 0.97731 0.0
H1619 H 0.57536 0.44845 0.96118 0.0
Eu1620 Eu 0.82266 0.30636 0.26737 0.0
C1621 C 0.76777 0.24322 0.29438 0.0
C1622 C 0.78016 0.21477 0.28664 0.0
C1623 C 0.76152 0.21739 0.31242 0.0
C1624 C 0.77846 0.23329 0.28371 0.0
C1625 C 0.75868 0.23508 0.30846 0.0
C1626 C 0.77223 0.20723 0.3015 0.0
C1627 C 0.74255 0.26085 0.31167 0.0
N1628 N 0.76493 0.26001 0.28985 0.0
C1629 C 0.75175 0.26825 0.2975 0.0
C1630 C 0.74632 0.24443 0.31746 0.0
Eu1631 Eu 0.78188 0.27232 0.26644 0.0
N1632 N 0.78558 0.24079 0.26922 0.0
C1633 C 0.79267 0.22954 0.25593 0.0
C1634 C 0.78884 0.20389 0.2739 0.0
C1635 C 0.79467 0.2111 0.2582 0.0
H1636 H 0.74839 0.28071 0.29295 0.0
H1637 H 0.80083 0.20253 0.24789 0.0
H1638 H 0.77363 0.19317 0.30414 0.0
H1639 H 0.73248 0.26776 0.31803 0.0
H1640 H 0.79717 0.23485 0.24368 0.0
H1641 H 0.80612 0.37524 0.29652 0.0
H1642 H 0.79038 0.18959 0.27562 0.0
H1643 H 0.84821 0.29765 0.23223 0.0
H1644 H 0.81014 0.34211 0.29633 0.0
H1645 H 0.86 0.31277 0.20616 0.0
H1646 H 0.75485 0.21104 0.32334 0.0
H1647 H 0.81312 0.39094 0.26938 0.0
H1648 H 0.82565 0.38975 0.23832 0.0
H1649 H 0.73904 0.23862 0.32832 0.0
H1650 H 0.84057 0.37284 0.21381 0.0
N1651 N 0.8187 0.33852 0.26898 0.0
C1652 C 0.81325 0.34865 0.28433 0.0
C1653 C 0.81486 0.3763 0.26917 0.0
C1654 C 0.8217 0.3664 0.25406 0.0
C1655 C 0.81097 0.36752 0.28454 0.0
C1656 C 0.82372 0.34736 0.25449 0.0
H1657 H 0.85381 0.34436 0.20195 0.0
N1658 N 0.83521 0.32029 0.24248 0.0
C1659 C 0.85219 0.32 0.21578 0.0
C1660 C 0.83229 0.33797 0.24083 0.0
C1661 C 0.84555 0.31151 0.23059 0.0
C1662 C 0.8486 0.33778 0.2134 0.0
C1663 C 0.8388 0.34716 0.22617 0.0
O1664 O 0.85206 0.31051 0.27088 0.0
O1665 O 0.81255 0.27522 0.27222 0.0
O1666 O 0.78955 0.28186 0.29711 0.0
O1667 O 0.8121 0.30897 0.29595 0.0
O1668 O 0.83428 0.27993 0.25694 0.0
O1669 O 0.83784 0.32173 0.29352 0.0
O1670 O 0.75754 0.27676 0.25193 0.0
O1671 O 0.79238 0.30363 0.26202 0.0
O1672 O 0.81062 0.29797 0.23743 0.0
O1673 O 0.79527 0.26747 0.2397 0.0
O1674 O 0.77117 0.29918 0.27799 0.0
O1675 O 0.76433 0.24892 0.24642 0.0
C1676 C 0.82434 0.26673 0.26414 0.0
C1677 C 0.86802 0.33788 0.29252 0.0
C1678 C 0.89813 0.35291 0.30761 0.0
C1679 C 0.88421 0.3364 0.30155 0.0
C1680 C 0.89571 0.37101 0.30441 0.0
C1681 C 0.8658 0.35598 0.28918 0.0
C1682 C 0.87964 0.37247 0.2951 0.0
C1683 C 0.80105 0.29792 0.30511 0.0
C1684 C 0.85347 0.32043 0.28768 0.0
C1685 C 0.83583 0.36563 0.22507 0.0
C1686 C 0.82731 0.37524 0.239 0.0
C1687 C 0.78129 0.31246 0.27097 0.0
C1688 C 0.73334 0.24952 0.24605 0.0
C1689 C 0.71932 0.25645 0.23821 0.0
C1690 C 0.7012 0.24837 0.24029 0.0
C1691 C 0.69732 0.23319 0.25041 0.0
C1692 C 0.7292 0.23436 0.25611 0.0
C1693 C 0.71126 0.22629 0.25826 0.0
C1694 C 0.80276 0.28006 0.22968 0.0
C1695 C 0.75214 0.25873 0.24401 0.0
H1696 H 0.8858 0.32242 0.3043 0.0
H1697 H 0.90628 0.38394 0.30894 0.0
H1698 H 0.8534 0.35742 0.28225 0.0
H1699 H 0.87787 0.38643 0.29258 0.0
H1700 H 0.7226 0.26838 0.23075 0.0
H1701 H 0.68351 0.22648 0.25206 0.0
H1702 H 0.73977 0.22879 0.26236 0.0
H1703 H 0.70814 0.2146 0.26601 0.0
Eu1704 Eu 0.06295 0.53531 0.53785 0.0
C1705 C 1.00063 0.53598 0.4756 0.0
C1706 C 0.99459 0.50315 0.45846 0.0
C1707 C 0.97222 0.52249 0.45636 0.0
C1708 C 0.00632 0.51904 0.47028 0.0
C1709 C 0.98338 0.53779 0.46897 0.0
C1710 C 0.97781 0.50517 0.45112 0.0
C1711 C 0.98882 0.5692 0.48879 0.0
N1712 N 0.01139 0.55021 0.48835 0.0
C1713 C 0.00572 0.56672 0.49499 0.0
C1714 C 0.97763 0.55472 0.47562 0.0
Eu1715 Eu 0.04113 0.54707 0.4965 0.0
N1716 N 0.02242 0.51741 0.47817 0.0
C1717 C 0.02621 0.49929 0.47631 0.0
C1718 C 0.99955 0.48534 0.45517 0.0
C1719 C 0.01522 0.4833 0.46451 0.0
H1720 H 0.01426 0.57823 0.50501 0.0
H1721 H 0.01864 0.46926 0.46302 0.0
H1722 H 0.96877 0.49319 0.44192 0.0
H1723 H 0.98448 0.58233 0.49413 0.0
H1724 H 0.03719 0.49642 0.48441 0.0
H1725 H 0.12001 0.59553 0.56401 0.0
H1726 H 0.99089 0.47281 0.44629 0.0
H1727 H 0.06081 0.48714 0.53457 0.0
H1728 H 0.08823 0.57975 0.55365 0.0
H1729 H 0.08142 0.46527 0.53639 0.0
H1730 H 0.95901 0.52368 0.45102 0.0
H1731 H 0.14315 0.57581 0.56358 0.0
H1732 H 0.1506 0.54307 0.55767 0.0
H1733 H 0.96449 0.55663 0.47088 0.0
H1734 H 0.14008 0.50761 0.55008 0.0
N1735 N 0.09331 0.55149 0.54693 0.0
C1736 C 0.0982 0.57102 0.55327 0.0
C1737 C 0.12921 0.56886 0.55884 0.0
C1738 C 0.124 0.54876 0.55304 0.0
C1739 C 0.11621 0.58001 0.55917 0.0
C1740 C 0.10564 0.54034 0.54732 0.0
H1741 H 0.11432 0.47852 0.54251 0.0
N1742 N 0.08176 0.51282 0.53886 0.0
C1743 C 0.08676 0.48074 0.53816 0.0
C1744 C 0.0997 0.52041 0.54316 0.0
C1745 C 0.07509 0.49327 0.53706 0.0
C1746 C 0.10532 0.48827 0.5416 0.0
C1747 C 0.11199 0.50833 0.54445 0.0
O1748 O 0.04505 0.52424 0.55785 0.0
O1749 O 0.03728 0.53233 0.5204 0.0
O1750 O 0.03006 0.55846 0.52337 0.0
O1751 O 0.05614 0.56507 0.54288 0.0
O1752 O 0.0411 0.50765 0.52953 0.0
O1753 O 0.06871 0.54672 0.5677 0.0
O1754 O 0.04578 0.57849 0.49947 0.0
O1755 O 0.06491 0.55585 0.51799 0.0
O1756 O 0.07303 0.51894 0.51241 0.0
O1757 O 0.05781 0.52529 0.48578 0.0
O1758 O 0.07007 0.55395 0.48994 0.0
O1759 O 0.04208 0.56075 0.47191 0.0
C1760 C 0.03023 0.51478 0.52008 0.0
C1761 C 0.05785 0.52554 0.58798 0.0
C1762 C 0.04877 0.51808 0.61777 0.0
C1763 C 0.047 0.52748 0.60266 0.0
C1764 C 0.06156 0.50651 0.61793 0.0
C1765 C 0.07071 0.51415 0.58833 0.0
C1766 C 0.07252 0.50466 0.60329 0.0
C1767 C 0.03997 0.56811 0.53875 0.0
C1768 C 0.05489 0.53507 0.57228 0.0
C1769 C 0.13043 0.51666 0.54918 0.0
C1770 C 0.13642 0.53684 0.5535 0.0
C1771 C 0.07709 0.55864 0.50697 0.0
C1772 C 0.063 0.59142 0.4771 0.0
C1773 C 0.07513 0.58444 0.46537 0.0
C1774 C 0.09121 0.59684 0.46236 0.0
C1775 C 0.09499 0.61641 0.47107 0.0
C1776 C 0.067 0.61105 0.4856 0.0
C1777 C 0.08291 0.62344 0.48259 0.0
C1778 C 0.06918 0.51667 0.49407 0.0
C1779 C 0.04685 0.5783 0.48175 0.0
H1780 H 0.03691 0.5361 0.60215 0.0
H1781 H 0.06323 0.49914 0.62945 0.0
H1782 H 0.07924 0.51255 0.57709 0.0
H1783 H 0.08242 0.49583 0.60354 0.0
H1784 H 0.07211 0.56937 0.45855 0.0
H1785 H 0.10733 0.62624 0.46904 0.0
H1786 H 0.05792 0.61672 0.4948 0.0
H1787 H 0.08595 0.63852 0.48931 0.0
Eu1788 Eu 0.78473 0.79759 0.27036 0.0
C1789 C 0.84216 0.76277 0.30883 0.0
C1790 C 0.85334 0.78633 0.33689 0.0
C1791 C 0.8529 0.75231 0.33648 0.0
C1792 C 0.84561 0.78164 0.31828 0.0
C1793 C 0.84629 0.74796 0.31761 0.0
C1794 C 0.85641 0.77149 0.34611 0.0
C1795 C 0.83918 0.72623 0.28792 0.0
N1796 N 0.83613 0.75918 0.29056 0.0
C1797 C 0.83538 0.74144 0.27983 0.0
C1798 C 0.84436 0.72941 0.30698 0.0
Eu1799 Eu 0.82882 0.78525 0.27791 0.0
N1800 N 0.84278 0.79562 0.30882 0.0
C1801 C 0.84905 0.81473 0.31659 0.0
C1802 C 0.85846 0.80586 0.34538 0.0
C1803 C 0.85666 0.82014 0.33505 0.0
H1804 H 0.83127 0.73888 0.26511 0.0
H1805 H 0.86103 0.83531 0.34131 0.0
H1806 H 0.86211 0.77478 0.36047 0.0
H1807 H 0.83808 0.71207 0.27947 0.0
H1808 H 0.84768 0.82596 0.30888 0.0
H1809 H 0.7532 0.74725 0.20681 0.0
H1810 H 0.86438 0.81008 0.35967 0.0
H1811 H 0.78172 0.84374 0.28307 0.0
H1812 H 0.76639 0.75672 0.23926 0.0
H1813 H 0.77446 0.87037 0.26873 0.0
H1814 H 0.85594 0.74109 0.34355 0.0
H1815 H 0.74944 0.77235 0.18846 0.0
H1816 H 0.75114 0.80757 0.18769 0.0
H1817 H 0.8474 0.71763 0.3132 0.0
H1818 H 0.7568 0.84122 0.20464 0.0
N1819 N 0.77081 0.78706 0.2394 0.0
C1820 C 0.76483 0.76792 0.23159 0.0
C1821 C 0.75529 0.77664 0.20276 0.0
C1822 C 0.7601 0.79617 0.21129 0.0
C1823 C 0.75732 0.76243 0.2131 0.0
C1824 C 0.76774 0.80094 0.22993 0.0
H1825 H 0.76507 0.8647 0.235 0.0
N1826 N 0.77692 0.82341 0.25765 0.0
C1827 C 0.7735 0.85623 0.26028 0.0
C1828 C 0.77091 0.81977 0.23939 0.0
C1829 C 0.77754 0.84112 0.26836 0.0
C1830 C 0.76828 0.853 0.24123 0.0
C1831 C 0.76657 0.83449 0.23059 0.0
O1832 O 0.76702 0.80714 0.2909 0.0
O1833 O 0.80561 0.79414 0.2916 0.0
O1834 O 0.80758 0.75944 0.28433 0.0
O1835 O 0.7812 0.76445 0.27009 0.0
O1836 O 0.79493 0.81862 0.2971 0.0
O1837 O 0.75847 0.77921 0.27315 0.0
O1838 O 0.84619 0.77585 0.25695 0.0
O1839 O 0.80807 0.78896 0.25671 0.0
O1840 O 0.80591 0.82362 0.26424 0.0
O1841 O 0.83246 0.81839 0.278 0.0
O1842 O 0.81852 0.76436 0.25108 0.0
O1843 O 0.85571 0.80285 0.27596 0.0
C1844 C 0.80583 0.80924 0.30349 0.0
C1845 C 0.73557 0.79489 0.28416 0.0
C1846 C 0.70635 0.79557 0.29671 0.0
C1847 C 0.72393 0.79204 0.29834 0.0
C1848 C 0.70066 0.8017 0.28052 0.0
C1849 C 0.7295 0.80106 0.26826 0.0
C1850 C 0.71213 0.80439 0.26647 0.0
C1851 C 0.79025 0.75317 0.27775 0.0
C1852 C 0.75409 0.79173 0.28614 0.0
C1853 C 0.76001 0.83007 0.21172 0.0
C1854 C 0.75679 0.81092 0.20206 0.0
C1855 C 0.80778 0.77392 0.24471 0.0
C1856 C 0.87774 0.78625 0.26407 0.0
C1857 C 0.88975 0.78965 0.25031 0.0
C1858 C 0.90671 0.78458 0.25138 0.0
C1859 C 0.91147 0.77635 0.26657 0.0
C1860 C 0.88292 0.77812 0.27906 0.0
C1861 C 0.8997 0.77325 0.28029 0.0
C1862 C 0.82333 0.82978 0.2706 0.0
C1863 C 0.85964 0.79061 0.26241 0.0
H1864 H 0.72867 0.78745 0.31072 0.0
H1865 H 0.6872 0.80425 0.2786 0.0
H1866 H 0.7382 0.8033 0.25725 0.0
H1867 H 0.70752 0.80908 0.25412 0.0
H1868 H 0.88574 0.79582 0.23863 0.0
H1869 H 0.92443 0.77249 0.26794 0.0
H1870 H 0.87396 0.77547 0.28978 0.0
H1871 H 0.90359 0.76697 0.29191 0.0
Eu1872 Eu 0.81716 0.2915 0.75515 0.0
C1873 C 0.80135 0.3511 0.81765 0.0
C1874 C 0.81599 0.35348 0.84846 0.0
C1875 C 0.8093 0.38221 0.83892 0.0
C1876 C 0.80851 0.34246 0.83089 0.0
C1877 C 0.80143 0.37109 0.82167 0.0
C1878 C 0.81668 0.37345 0.85224 0.0
C1879 C 0.78493 0.36757 0.79185 0.0
N1880 N 0.79365 0.33988 0.80116 0.0
C1881 C 0.78507 0.34785 0.78851 0.0
C1882 C 0.79323 0.37927 0.80845 0.0
Eu1883 Eu 0.79439 0.30617 0.79689 0.0
N1884 N 0.80725 0.32309 0.82702 0.0
C1885 C 0.81201 0.31361 0.84064 0.0
C1886 C 0.82199 0.344 0.86197 0.0
C1887 C 0.81977 0.32391 0.85811 0.0
H1888 H 0.77862 0.3395 0.77544 0.0
H1889 H 0.82388 0.31633 0.86862 0.0
H1890 H 0.82243 0.38215 0.86561 0.0
H1891 H 0.7784 0.37372 0.78157 0.0
H1892 H 0.81004 0.29799 0.83785 0.0
H1893 H 0.78951 0.28451 0.68325 0.0
H1894 H 0.82782 0.35196 0.8756 0.0
H1895 H 0.83257 0.25619 0.77445 0.0
H1896 H 0.80504 0.30166 0.71386 0.0
H1897 H 0.82912 0.22131 0.76808 0.0
H1898 H 0.80947 0.39754 0.84222 0.0
H1899 H 0.78071 0.24869 0.67672 0.0
H1900 H 0.78184 0.21729 0.6869 0.0
H1901 H 0.79298 0.39452 0.81103 0.0
H1902 H 0.79302 0.20017 0.70984 0.0
N1903 N 0.80393 0.27587 0.72488 0.0
C1904 C 0.801 0.28601 0.71116 0.0
C1905 C 0.78731 0.25617 0.69023 0.0
C1906 C 0.79172 0.24583 0.70376 0.0
C1907 C 0.79229 0.27636 0.69383 0.0
C1908 C 0.8003 0.25625 0.72117 0.0
H1909 H 0.81095 0.20156 0.73987 0.0
N1910 N 0.81581 0.25729 0.75028 0.0
C1911 C 0.82258 0.22823 0.75847 0.0
C1912 C 0.80653 0.24666 0.73418 0.0
C1913 C 0.82446 0.24833 0.762 0.0
C1914 C 0.81224 0.21713 0.74259 0.0
C1915 C 0.80432 0.2263 0.73003 0.0
O1916 O 0.84623 0.30322 0.76138 0.0
O1917 O 0.81452 0.3156 0.7775 0.0
O1918 O 0.77637 0.3068 0.771 0.0
O1919 O 0.78987 0.29623 0.74441 0.0
O1920 O 0.81554 0.32164 0.75082 0.0
O1921 O 0.83498 0.29453 0.7329 0.0
O1922 O 0.76485 0.29916 0.79298 0.0
O1923 O 0.79674 0.28208 0.77427 0.0
O1924 O 0.83406 0.28855 0.78089 0.0
O1925 O 0.82256 0.30342 0.8071 0.0
O1926 O 0.79652 0.27615 0.80095 0.0
O1927 O 0.77831 0.29672 0.8188 0.0
C1928 C 0.81497 0.32887 0.7681 0.0
C1929 C 0.85906 0.32233 0.74023 0.0
C1930 C 0.86173 0.34911 0.72317 0.0
C1931 C 0.85195 0.33149 0.72692 0.0
C1932 C 0.87858 0.35776 0.73312 0.0
C1933 C 0.87589 0.33123 0.75007 0.0
C1934 C 0.88553 0.34889 0.74658 0.0
C1935 C 0.77649 0.30234 0.75267 0.0
C1936 C 0.84908 0.30368 0.74413 0.0
C1937 C 0.79492 0.21579 0.71317 0.0
C1938 C 0.78856 0.22553 0.70009 0.0
C1939 C 0.79647 0.26882 0.78363 0.0
C1940 C 0.75222 0.27232 0.80673 0.0
C1941 C 0.7569 0.25991 0.81823 0.0
C1942 C 0.74681 0.24082 0.81659 0.0
C1943 C 0.73183 0.23416 0.80329 0.0
C1944 C 0.73724 0.26533 0.79344 0.0
C1945 C 0.72717 0.24635 0.79172 0.0
C1946 C 0.83484 0.29507 0.79904 0.0
C1947 C 0.76315 0.29231 0.80831 0.0
H1948 H 0.83901 0.32475 0.71914 0.0
H1949 H 0.88633 0.37138 0.73048 0.0
H1950 H 0.88156 0.32449 0.76047 0.0
H1951 H 0.8985 0.35567 0.75423 0.0
H1952 H 0.76827 0.26514 0.82872 0.0
H1953 H 0.7238 0.21953 0.80178 0.0
H1954 H 0.73334 0.27452 0.78435 0.0
H1955 H 0.71567 0.24107 0.78142 0.0
Eu1956 Eu 0.82329 0.81803 0.78537 0.0
C1957 C 0.75294 0.75826 0.75972 0.0
C1958 C 0.74536 0.73029 0.77465 0.0
C1959 C 0.7215 0.74427 0.76322 0.0
C1960 C 0.7583 0.74461 0.76862 0.0
C1961 C 0.7344 0.75814 0.75681 0.0
C1962 C 0.72697 0.73039 0.77216 0.0
C1963 C 0.74248 0.78485 0.74066 0.0
N1964 N 0.76578 0.7714 0.75358 0.0
C1965 C 0.76065 0.78433 0.74371 0.0
C1966 C 0.7293 0.77179 0.74733 0.0
Eu1967 Eu 0.79663 0.76981 0.76035 0.0
N1968 N 0.77612 0.74482 0.77076 0.0
C1969 C 0.78182 0.73022 0.77753 0.0
C1970 C 0.75125 0.71596 0.78257 0.0
C1971 C 0.76956 0.71579 0.78379 0.0
H1972 H 0.77032 0.79492 0.73856 0.0
H1973 H 0.77425 0.70456 0.78953 0.0
H1974 H 0.71686 0.7196 0.77679 0.0
H1975 H 0.73868 0.79542 0.73319 0.0
H1976 H 0.79602 0.73 0.77848 0.0
H1977 H 0.85066 0.88135 0.7551 0.0
H1978 H 0.74174 0.70473 0.78736 0.0
H1979 H 0.84664 0.79173 0.80905 0.0
H1980 H 0.82711 0.85719 0.76553 0.0
H1981 H 0.87764 0.79044 0.81725 0.0
H1982 H 0.70724 0.74401 0.76112 0.0
H1983 H 0.88275 0.87998 0.75984 0.0
H1984 H 0.90597 0.86487 0.77344 0.0
H1985 H 0.71523 0.77223 0.74492 0.0
H1986 H 0.91325 0.84062 0.79089 0.0
N1987 N 0.84549 0.84131 0.77471 0.0
C1988 C 0.84106 0.85615 0.76723 0.0
C1989 C 0.87243 0.86911 0.76411 0.0
C1990 C 0.87701 0.85475 0.77297 0.0
C1991 C 0.85436 0.86995 0.76143 0.0
C1992 C 0.86304 0.84086 0.77821 0.0
H1993 H 0.90285 0.81277 0.80697 0.0
N1994 N 0.85332 0.81475 0.79365 0.0
C1995 C 0.87489 0.80092 0.80907 0.0
C1996 C 0.86709 0.82724 0.78804 0.0
C1997 C 0.8571 0.80188 0.80437 0.0
C1998 C 0.88907 0.81347 0.80318 0.0
C1999 C 0.88531 0.82702 0.79276 0.0
O2000 O 0.82304 0.82655 0.8155 0.0
O2001 O 0.79672 0.79749 0.77902 0.0
O2002 O 0.79958 0.79159 0.74054 0.0
O2003 O 0.82032 0.82012 0.75454 0.0
O2004 O 0.79681 0.82598 0.77782 0.0
O2005 O 0.82108 0.84715 0.79755 0.0
O2006 O 0.79826 0.76365 0.73023 0.0
O2007 O 0.82316 0.79029 0.76699 0.0
O2008 O 0.81806 0.79715 0.80594 0.0
O2009 O 0.79959 0.76743 0.79109 0.0
O2010 O 0.82311 0.76187 0.76826 0.0
O2011 O 0.79917 0.74134 0.74633 0.0
C2012 C 0.78667 0.80899 0.77718 0.0
C2013 C 0.80328 0.84782 0.82306 0.0
C2014 C 0.77797 0.8641 0.82384 0.0
C2015 C 0.7929 0.85915 0.81532 0.0
C2016 C 0.77326 0.85711 0.84015 0.0
C2017 C 0.79829 0.84101 0.83934 0.0
C2018 C 0.78329 0.84553 0.84772 0.0
C2019 C 0.80974 0.80897 0.74003 0.0
C2020 C 0.81923 0.84319 0.81413 0.0
C2021 C 0.89923 0.8406 0.78737 0.0
C2022 C 0.89509 0.85436 0.77738 0.0
C2023 C 0.83322 0.77889 0.76912 0.0
C2024 C 0.81946 0.74407 0.72309 0.0
C2025 C 0.82934 0.73214 0.73056 0.0
C2026 C 0.84652 0.7308 0.72508 0.0
C2027 C 0.85354 0.74108 0.71139 0.0
C2028 C 0.82674 0.75423 0.70942 0.0
C2029 C 0.84365 0.75265 0.7036 0.0
C2030 C 0.80873 0.7793 0.80607 0.0
C2031 C 0.80232 0.74696 0.73061 0.0
H2032 H 0.79641 0.86411 0.80254 0.0
H2033 H 0.7621 0.86093 0.84733 0.0
H2034 H 0.806 0.83224 0.84561 0.0
H2035 H 0.77956 0.84027 0.8603 0.0
H2036 H 0.82372 0.72396 0.74085 0.0
H2037 H 0.86675 0.74041 0.7069 0.0
H2038 H 0.81952 0.7636 0.70345 0.0
H2039 H 0.84924 0.76066 0.69319 0.0
Eu2040 Eu 0.5354 0.53108 0.50971 0.0
C2041 C 0.5824 0.60352 0.55643 0.0
C2042 C 0.58742 0.62613 0.53509 0.0
C2043 C 0.58692 0.6382 0.568 0.0
C2044 C 0.58357 0.60689 0.53835 0.0
C2045 C 0.58477 0.61924 0.57147 0.0
C2046 C 0.5883 0.64164 0.54984 0.0
C2047 C 0.58603 0.59687 0.59248 0.0
N2048 N 0.58096 0.58515 0.5595 0.0
C2049 C 0.5838 0.5818 0.57718 0.0
C2050 C 0.58604 0.61561 0.58963 0.0
Eu2051 Eu 0.5765 0.56041 0.5327 0.0
N2052 N 0.58294 0.59163 0.5243 0.0
C2053 C 0.58802 0.59494 0.50727 0.0
C2054 C 0.59139 0.62936 0.51734 0.0
C2055 C 0.59194 0.61373 0.50345 0.0
H2056 H 0.58382 0.56733 0.57951 0.0
H2057 H 0.59551 0.61615 0.48979 0.0
H2058 H 0.59089 0.65644 0.54747 0.0
H2059 H 0.5877 0.59401 0.60645 0.0
H2060 H 0.58875 0.58327 0.49625 0.0
H2061 H 0.51819 0.47343 0.55104 0.0
H2062 H 0.59492 0.64394 0.51449 0.0
H2063 H 0.52556 0.5259 0.4634 0.0
H2064 H 0.52504 0.50669 0.54585 0.0
H2065 H 0.5205 0.50016 0.43559 0.0
H2066 H 0.58847 0.65039 0.57936 0.0
H2067 H 0.51715 0.4463 0.52509 0.0
H2068 H 0.51928 0.43488 0.49141 0.0
H2069 H 0.58791 0.6273 0.60152 0.0
H2070 H 0.52023 0.44218 0.45985 0.0
N2071 N 0.52902 0.4993 0.51705 0.0
C2072 C 0.52494 0.49537 0.5342 0.0
C2073 C 0.52062 0.46106 0.52272 0.0
C2074 C 0.52366 0.46494 0.50496 0.0
C2075 C 0.52099 0.47632 0.53733 0.0
C2076 C 0.52747 0.48443 0.5024 0.0
H2077 H 0.52014 0.46637 0.4389 0.0
N2078 N 0.52914 0.50711 0.48229 0.0
C2079 C 0.5227 0.49669 0.44924 0.0
C2080 C 0.52772 0.48848 0.48453 0.0
C2081 C 0.52563 0.51125 0.46506 0.0
C2082 C 0.52259 0.47766 0.45117 0.0
C2083 C 0.52456 0.47325 0.46896 0.0
O2084 O 0.50672 0.51962 0.50063 0.0
O2085 O 0.55119 0.56211 0.51649 0.0
O2086 O 0.55498 0.56274 0.55453 0.0
O2087 O 0.53055 0.53814 0.54121 0.0
O2088 O 0.53984 0.55176 0.48936 0.0
O2089 O 0.51565 0.54904 0.51525 0.0
O2090 O 0.59775 0.54402 0.52854 0.0
O2091 O 0.56101 0.52934 0.52567 0.0
O2092 O 0.55634 0.52834 0.48744 0.0
O2093 O 0.58157 0.55178 0.50125 0.0
O2094 O 0.57238 0.53963 0.55289 0.0
O2095 O 0.60472 0.57391 0.5421 0.0
C2096 C 0.54887 0.56694 0.50064 0.0
C2097 C 0.4865 0.53283 0.51972 0.0
C2098 C 0.46051 0.54434 0.5315 0.0
C2099 C 0.47508 0.54591 0.52037 0.0
C2100 C 0.45766 0.52951 0.5421 0.0
C2101 C 0.48337 0.51808 0.53031 0.0
C2102 C 0.46903 0.5165 0.54148 0.0
C2103 C 0.53865 0.55174 0.55568 0.0
C2104 C 0.50185 0.53522 0.50829 0.0
C2105 C 0.52241 0.45402 0.47163 0.0
C2106 C 0.52188 0.44987 0.4896 0.0
C2107 C 0.56353 0.52442 0.54148 0.0
C2108 C 0.62149 0.55279 0.55278 0.0
C2109 C 0.63014 0.53733 0.54844 0.0
C2110 C 0.64096 0.53228 0.56223 0.0
C2111 C 0.64275 0.54272 0.58053 0.0
C2112 C 0.62384 0.56327 0.5711 0.0
C2113 C 0.63424 0.55811 0.58488 0.0
C2114 C 0.57306 0.53861 0.48656 0.0
C2115 C 0.6103 0.55793 0.53805 0.0
H2116 H 0.47742 0.55714 0.51198 0.0
H2117 H 0.44671 0.52805 0.55098 0.0
H2118 H 0.49204 0.50789 0.53007 0.0
H2119 H 0.46676 0.50518 0.54974 0.0
H2120 H 0.62849 0.5293 0.53431 0.0
H2121 H 0.6512 0.53942 0.59139 0.0
H2122 H 0.61781 0.57557 0.57482 0.0
H2123 H 0.63595 0.56626 0.59894 0.0
Eu2124 Eu 0.07705 0.54848 0.02398 0.0
C2125 C 0.01131 0.50376 0.05904 0.0
C2126 C 0.99776 0.47589 0.03531 0.0
C2127 C 0.99556 0.47396 0.06795 0.0
C2128 C 0.00781 0.49516 0.0405 0.0
C2129 C 1.00488 0.49341 0.07298 0.0
C2130 C 0.99202 0.4652 0.04914 0.0
C2131 C 0.01606 0.52274 0.09566 0.0
N2132 N 0.02022 0.52261 0.0634 0.0
C2133 C 0.02214 0.5324 0.08134 0.0
C2134 C 0.00759 0.50309 0.0915 0.0
Eu2135 Eu 0.03081 0.53775 0.03848 0.0
N2136 N 0.01337 0.50596 0.0275 0.0
C2137 C 0.00806 0.49891 0.00909 0.0
C2138 C 0.99329 0.46816 0.01637 0.0
C2139 C 0.99823 0.47984 1.00322 0.0
H2140 H 0.02874 0.54756 0.0847 0.0
H2141 H 0.99453 0.47415 0.98856 0.0
H2142 H 0.98442 0.45033 0.04543 0.0
H2143 H 0.01794 0.53044 0.1099 0.0
H2144 H 0.01183 0.50775 0.99877 0.0
H2145 H 0.11382 0.60984 0.07626 0.0
H2146 H 0.98565 0.45341 0.0118 0.0
H2147 H 0.07855 0.54116 0.97774 0.0
H2148 H 0.09561 0.57693 0.06476 0.0
H2149 H 0.0895 0.55962 0.95346 0.0
H2150 H 0.99065 0.4657 0.07847 0.0
H2151 H 0.12401 0.63144 0.05409 0.0
H2152 H 0.1253 0.63632 0.021 0.0
H2153 H 1.00285 0.49566 0.10262 0.0
H2154 H 0.11869 0.62268 0.98757 0.0
N2155 N 0.09485 0.57986 0.03628 0.0
C2156 C 0.09986 0.58612 0.05487 0.0
C2157 C 0.11584 0.61703 0.04895 0.0
C2158 C 0.11134 0.61026 0.02988 0.0
C2159 C 0.1102 0.60484 0.06149 0.0
C2160 C 0.10085 0.59128 0.0239 0.0
H2161 H 0.10555 0.59403 0.96227 0.0
N2162 N 0.08794 0.56499 1.00001 0.0
C2163 C 0.09173 0.56657 0.96795 0.0
C2164 C 0.09724 0.58361 1.00516 0.0
C2165 C 0.08559 0.55614 0.98174 0.0
C2166 C 0.10074 0.586 0.97297 0.0
C2167 C 0.10383 0.59469 0.99179 0.0
O2168 O 0.0937 0.52945 0.01104 0.0
O2169 O 0.05287 0.52506 0.02579 0.0
O2170 O 0.0483 0.5259 0.05757 0.0
O2171 O 0.07628 0.54525 0.05445 0.0
O2172 O 0.06556 0.52217 1.00158 0.0
O2173 O 0.10036 0.54353 0.03976 0.0
O2174 O 0.01554 0.55904 0.04956 0.0
O2175 O 0.05493 0.56103 0.03624 0.0
O2176 O 0.05911 0.56051 1.00532 0.0
O2177 O 0.03153 0.54021 0.00793 0.0
O2178 O 0.04255 0.56449 0.06049 0.0
O2179 O 0.00563 0.5397 0.02355 0.0
C2180 C 0.05273 0.514 0.0103 0.0
C2181 C 0.12427 0.53542 0.023 0.0
C2182 C 0.15231 0.52365 0.02201 0.0
C2183 C 0.13384 0.52093 0.02506 0.0
C2184 C 0.16098 0.54124 0.01712 0.0
C2185 C 0.13324 0.55275 0.0181 0.0
C2186 C 0.15151 0.55563 0.01522 0.0
C2187 C 0.06555 0.53333 0.06322 0.0
C2188 C 0.10492 0.53221 0.02583 0.0
C2189 C 0.11363 0.61388 0.99763 0.0
C2190 C 0.11739 0.62165 0.01666 0.0
C2191 C 0.05531 0.57244 0.05152 0.0
C2192 C 0.98408 0.55167 0.04172 0.0
C2193 C 0.97324 0.56402 0.03655 0.0
C2194 C 0.95585 0.56321 0.04279 0.0
C2195 C 0.94975 0.5498 0.05438 0.0
C2196 C 0.97745 0.53828 0.05294 0.0
C2197 C 0.96039 0.53739 0.05924 0.0
C2198 C 0.04196 0.55265 0.99946 0.0
C2199 C 1.00261 0.55353 0.03612 0.0
H2200 H 0.12684 0.50746 0.02869 0.0
H2201 H 0.17518 0.54399 0.01494 0.0
H2202 H 0.12611 0.56403 0.01649 0.0
H2203 H 0.15838 0.56907 0.01148 0.0
H2204 H 0.97838 0.57414 0.02764 0.0
H2205 H 0.93681 0.54901 0.06001 0.0
H2206 H 0.98554 0.52869 0.05705 0.0
H2207 H 0.95545 0.52718 0.06812 0.0
H2208 H 0.03165 0.23789 0.97038 0.0
H2209 H 0.03657 0.20975 0.9833 0.0
H2210 H 0.02902 0.17547 0.92814 0.0
H2211 H 0.02377 0.20352 0.91512 0.0
H2212 H 0.01122 0.16977 0.97734 0.0
H2213 H 0.07897 0.16868 0.95298 0.0
H2214 H 0.07007 0.19035 0.95589 0.0
H2215 H 0.06154 0.17114 0.93648 0.0
C2216 C 0.03102 0.22439 0.96093 0.0
C2217 C 0.02727 0.22316 0.94161 0.0
C2218 C 0.03385 0.20822 0.96839 0.0
C2219 C 0.03337 0.19034 0.95679 0.0
C2220 C 0.02967 0.18904 0.93749 0.0
H2221 H 0.05413 0.07859 0.9788 0.0
H2222 H 0.05116 0.10695 0.96501 0.0
C2223 C 0.02657 0.20515 0.93003 0.0
C2224 C 0.03635 0.17306 0.96493 0.0
H2225 H 0.06629 0.1438 0.96881 0.0
C2226 C 0.02329 0.16414 0.97549 0.0
C2227 C 0.05196 0.16537 0.96244 0.0
C2228 C 0.06656 0.17434 0.95143 0.0
C2229 C 0.02524 0.14783 0.98333 0.0
C2230 C 0.04114 0.1404 0.98134 0.0
C2231 C 0.05415 0.1493 0.97062 0.0
C2232 C 0.04438 0.12349 0.99015 0.0
C2233 C 0.00979 0.13833 0.9931 0.0
C2234 C 0.04234 0.12321 0.00914 0.0
C2235 C 0.04381 0.10687 0.01695 0.0
C2236 C 0.04808 0.09049 0.00627 0.0
C2237 C 0.05108 0.09104 0.98753 0.0
C2238 C 0.0493 0.10732 0.97961 0.0
H2239 H 0.99679 0.14126 0.98802 0.0
H2240 H 0.0084 0.12239 0.99105 0.0
H2241 H 0.01222 0.14434 0.00822 0.0
H2242 H 0.03926 0.13556 0.01798 0.0
H2243 H 0.04131 0.10691 0.03137 0.0
H2244 H 0.14734 0.80592 0.12601 0.0
H2245 H 0.17403 0.80296 0.14463 0.0
H2246 H 0.15896 0.83824 0.19222 0.0
H2247 H 0.13191 0.84061 0.17385 0.0
H2248 H 0.20341 0.82612 0.16287 0.0
H2249 H 0.16393 0.79298 0.21508 0.0
H2250 H 0.15335 0.797 0.19391 0.0
H2251 H 0.16011 0.81651 0.21361 0.0
C2252 C 0.14978 0.81324 0.14039 0.0
C2253 C 0.13731 0.82345 0.14838 0.0
C2254 C 0.16509 0.81147 0.1511 0.0
C2255 C 0.16845 0.81986 0.17013 0.0
C2256 C 0.15652 0.83098 0.17783 0.0
H2257 H 0.25465 0.82555 0.2571 0.0
H2258 H 0.22929 0.8307 0.23799 0.0
C2259 C 0.1411 0.83257 0.16719 0.0
C2260 C 0.18421 0.81679 0.18185 0.0
H2261 H 0.19577 0.802 0.22223 0.0
C2262 C 0.20164 0.82075 0.17579 0.0
C2263 C 0.18216 0.80963 0.19877 0.0
C2264 C 0.16386 0.80358 0.20564 0.0
C2265 C 0.21689 0.81815 0.18619 0.0
C2266 C 0.21482 0.81133 0.2032 0.0
C2267 C 0.19746 0.80736 0.20929 0.0
C2268 C 0.23048 0.80813 0.21481 0.0
C2269 C 0.23521 0.82302 0.17908 0.0
C2270 C 0.23957 0.79347 0.20844 0.0
C2271 C 0.25402 0.79032 0.21947 0.0
C2272 C 0.26003 0.80189 0.23713 0.0
C2273 C 0.25071 0.81641 0.24355 0.0
C2274 C 0.23612 0.81941 0.2326 0.0
H2275 H 0.23515 0.83152 0.16771 0.0
H2276 H 0.24544 0.8314 0.19051 0.0
H2277 H 0.23939 0.8094 0.17361 0.0
H2278 H 0.2353 0.78423 0.19497 0.0
H2279 H 0.26027 0.77857 0.21422 0.0
H2280 H 0.52764 0.82569 0.46382 0.0
H2281 H 0.52974 0.85836 0.48213 0.0
H2282 H 0.53177 0.88197 0.43174 0.0
H2283 H 0.52971 0.84995 0.41357 0.0
H2284 H 0.55658 0.89431 0.48446 0.0
H2285 H 0.48994 0.90134 0.45601 0.0
H2286 H 0.49634 0.87828 0.45402 0.0
H2287 H 0.50382 0.89435 0.43822 0.0
C2288 C 0.52859 0.83784 0.45664 0.0
C2289 C 0.52838 0.83489 0.43708 0.0
C2290 C 0.52977 0.85656 0.46715 0.0
C2291 C 0.53057 0.87272 0.45834 0.0
C2292 C 0.53078 0.86982 0.43894 0.0
H2293 H 0.54492 0.99536 0.47345 0.0
H2294 H 0.53794 0.9601 0.4641 0.0
C2295 C 0.52969 0.85131 0.42852 0.0
C2296 C 0.5313 0.89274 0.46902 0.0
H2297 H 0.51049 0.93089 0.47048 0.0
C2298 C 0.54634 0.9022 0.48169 0.0
C2299 C 0.51796 0.90318 0.46549 0.0
C2300 C 0.50101 0.89372 0.45284 0.0
C2301 C 0.5489 0.92198 0.48997 0.0
C2302 C 0.53592 0.93265 0.48577 0.0
C2303 C 0.52051 0.9229 0.47374 0.0
C2304 C 0.53888 0.95423 0.49212 0.0
C2305 C 0.56599 0.93159 0.50235 0.0
C2306 C 0.54126 0.963 0.5111 0.0
C2307 C 0.5452 0.98337 0.51651 0.0
C2308 C 0.54668 0.99538 0.50304 0.0
C2309 C 0.54372 0.98654 0.48416 0.0
C2310 C 0.53975 0.96632 0.47879 0.0
H2311 H 0.57615 0.92247 0.50135 0.0
H2312 H 0.57208 0.94581 0.4987 0.0
H2313 H 0.56276 0.93421 0.51702 0.0
H2314 H 0.54032 0.95411 0.52174 0.0
H2315 H 0.54766 0.9897 0.53116 0.0
H2316 H 0.55184 0.32203 0.6648 0.0
H2317 H 0.52682 0.3198 0.68458 0.0
H2318 H 0.4889 0.29691 0.63612 0.0
H2319 H 0.51375 0.29885 0.61625 0.0
H2320 H 0.49663 0.33647 0.68528 0.0
H2321 H 0.47514 0.25623 0.66875 0.0
H2322 H 0.49649 0.26919 0.66299 0.0
H2323 H 0.47606 0.26782 0.6488 0.0
C2324 C 0.53819 0.31656 0.65828 0.0
C2325 C 0.53495 0.31054 0.63883 0.0
C2326 C 0.52386 0.3153 0.66966 0.0
C2327 C 0.50592 0.30785 0.66194 0.0
C2328 C 0.5026 0.30231 0.64251 0.0
H2329 H 0.40344 0.2821 0.71306 0.0
H2330 H 0.42618 0.28752 0.69081 0.0
C2331 C 0.51689 0.30358 0.63113 0.0
C2332 C 0.49075 0.30589 0.67419 0.0
H2333 H 0.45664 0.27278 0.68721 0.0
C2334 C 0.48791 0.32253 0.6857 0.0
C2335 C 0.47922 0.28773 0.67474 0.0
C2336 C 0.48192 0.26918 0.6633 0.0
C2337 C 0.47389 0.32155 0.69758 0.0
C2338 C 0.46254 0.30336 0.69834 0.0
C2339 C 0.46523 0.28675 0.68665 0.0
C2340 C 0.44838 0.30109 0.71176 0.0
C2341 C 0.47122 0.34012 0.70899 0.0
C2342 C 0.45315 0.30689 0.73099 0.0
C2343 C 0.44018 0.30391 0.74369 0.0
C2344 C 0.42204 0.29485 0.7376 0.0
C2345 C 0.4172 0.28929 0.7183 0.0
C2346 C 0.43024 0.29226 0.70555 0.0
H2347 H 0.47685 0.35286 0.70264 0.0
H2348 H 0.45671 0.33961 0.71054 0.0
H2349 H 0.47839 0.34232 0.72305 0.0
H2350 H 0.46705 0.31337 0.73625 0.0
H2351 H 0.44446 0.30859 0.75839 0.0
H2352 H 1.00395 0.80145 0.6031 0.0
H2353 H 0.00788 0.82083 0.57855 0.0
H2354 H 0.0395 0.86932 0.61784 0.0
H2355 H 0.03565 0.85019 0.64259 0.0
H2356 H 1.00166 0.86194 0.57767 0.0
H2357 H 0.07235 0.85277 0.57461 0.0
H2358 H 0.05538 0.83662 0.58432 0.0
H2359 H 0.06546 0.86032 0.59728 0.0
C2360 C 0.0115 0.81634 0.60665 0.0
C2361 C 0.01968 0.82417 0.62481 0.0
C2362 C 0.0137 0.82737 0.59258 0.0
C2363 C 0.02417 0.84633 0.59641 0.0
C2364 C 0.0315 0.8546 0.61466 0.0
H2365 H 0.06993 0.93486 0.53776 0.0
H2366 H 0.06218 0.91199 0.55879 0.0
C2367 C 0.02922 0.84365 0.62878 0.0
C2368 C 0.02848 0.85707 0.58112 0.0
H2369 H 0.06312 0.87373 0.55625 0.0
C2370 C 0.01503 0.86445 0.57284 0.0
C2371 C 0.04592 0.86013 0.5749 0.0
C2372 C 0.06064 0.85197 0.58309 0.0
C2373 C 0.01881 0.87558 0.55888 0.0
C2374 C 0.03637 0.87892 0.55283 0.0
C2375 C 0.04966 0.87108 0.56086 0.0
C2376 C 0.04168 0.89182 0.53932 0.0
C2377 C 1.0042 0.88433 0.55131 0.0
C2378 C 0.03312 0.88774 0.52116 0.0
C2379 C 0.03745 0.90091 0.50911 0.0
C2380 C 0.05044 0.91829 0.51507 0.0
C2381 C 0.05963 0.92175 0.53291 0.0
C2382 C 0.05528 0.90866 0.5449 0.0
H2383 H 0.99284 0.88389 0.56025 0.0
H2384 H 0.00968 0.89962 0.55004 0.0
H2385 H 0.99875 0.87604 0.53726 0.0
H2386 H 0.02287 0.87458 0.51645 0.0
H2387 H 0.03014 0.89788 0.49545 0.0
H2388 H 0.54512 0.83991 0.88432 0.0
H2389 H 0.51678 0.84443 0.87019 0.0
H2390 H 0.51877 0.79998 0.82314 0.0
H2391 H 0.54775 0.79642 0.83685 0.0
H2392 H 0.51082 0.82835 0.81103 0.0
H2393 H 0.46659 0.81515 0.86681 0.0
H2394 H 0.4858 0.83433 0.87562 0.0
H2395 H 0.48886 0.81021 0.8673 0.0
C2396 C 0.53938 0.83111 0.871 0.0
C2397 C 0.54867 0.81822 0.86136 0.0
C2398 C 0.52308 0.83348 0.86304 0.0
C2399 C 0.51537 0.82228 0.84573 0.0
C2400 C 0.52439 0.80878 0.8365 0.0
H2401 H 0.41752 0.81694 0.77699 0.0
H2402 H 0.4452 0.81097 0.79124 0.0
C2403 C 0.54094 0.80679 0.84425 0.0
C2404 C 0.49869 0.82572 0.83662 0.0
H2405 H 0.45603 0.83161 0.84381 0.0
C2406 C 0.49893 0.8291 0.81827 0.0
C2407 C 0.48286 0.82624 0.84585 0.0
C2408 C 0.48094 0.82106 0.8649 0.0
C2409 C 0.4842 0.83375 0.80919 0.0
C2410 C 0.46868 0.83481 0.81862 0.0
C2411 C 0.46816 0.8311 0.8368 0.0
C2412 C 0.45254 0.83894 0.80947 0.0
C2413 C 0.48535 0.83772 0.78965 0.0
C2414 C 0.44771 0.85672 0.81495 0.0
C2415 C 0.43198 0.86023 0.80673 0.0
C2416 C 0.42078 0.84586 0.79316 0.0
C2417 C 0.42589 0.82821 0.78749 0.0
C2418 C 0.44166 0.82479 0.79557 0.0
H2419 H 0.49936 0.83963 0.78552 0.0
H2420 H 0.47667 0.82536 0.7798 0.0
H2421 H 0.48034 0.85094 0.7883 0.0
H2422 H 0.456 0.86777 0.82569 0.0
H2423 H 0.42823 0.87387 0.81146 0.0
H2424 H 0.51299 0.22841 0.10543 0.0
H2425 H 0.51422 0.19498 0.09379 0.0
H2426 H 0.49373 0.17847 0.14396 0.0
H2427 H 0.49127 0.21208 0.1551 0.0
H2428 H 0.53567 0.17721 0.11035 0.0
H2429 H 0.46511 0.13422 0.10456 0.0
H2430 H 0.47056 0.1603 0.10745 0.0
H2431 H 0.47328 0.1488 0.12704 0.0
C2432 C 0.50798 0.21749 0.1136 0.0
C2433 C 0.50131 0.22254 0.13075 0.0
C2434 C 0.50891 0.19844 0.10707 0.0
C2435 C 0.50386 0.18416 0.11789 0.0
C2436 C 0.49723 0.18914 0.13516 0.0
H2437 H 0.55066 0.08352 0.08919 0.0
H2438 H 0.54032 0.10984 0.10778 0.0
C2439 C 0.49598 0.2083 0.14157 0.0
C2440 C 0.50755 0.16477 0.1117 0.0
H2441 H 0.4879 0.11671 0.098 0.0
C2442 C 0.52522 0.16397 0.10772 0.0
C2443 C 0.49389 0.14756 0.10831 0.0
C2444 C 0.4746 0.14767 0.11191 0.0
C2445 C 0.52953 0.14662 0.09967 0.0
C2446 C 0.51591 0.12935 0.09627 0.0
C2447 C 0.49831 0.12998 0.10078 0.0
C2448 C 0.51959 0.1109 0.08679 0.0
C2449 C 0.54843 0.14723 0.09404 0.0
C2450 C 0.51041 0.10179 0.06941 0.0
C2451 C 0.51599 0.08636 0.05889 0.0
C2452 C 0.5311 0.08012 0.0654 0.0
C2453 C 0.53932 0.0883 0.08345 0.0
C2454 C 0.53346 0.1034 0.09413 0.0
H2455 H 0.55568 0.16218 0.09325 0.0
H2456 H 0.55626 0.14194 0.10452 0.0
H2457 H 0.54821 0.13786 0.08029 0.0
H2458 H 0.49947 0.10718 0.06362 0.0
H2459 H 0.50884 0.07982 0.04542 0.0
H2460 H 0.12624 0.30515 0.32815 0.0
H2461 H 0.15513 0.30101 0.31763 0.0
H2462 H 0.17405 0.29743 0.37327 0.0
H2463 H 0.14505 0.30201 0.38414 0.0
H2464 H 0.19701 0.32451 0.358 0.0
H2465 H 0.17856 0.25513 0.30802 0.0
H2466 H 0.1647 0.2715 0.30347 0.0
H2467 H 0.16374 0.26238 0.32494 0.0
C2468 C 0.1364 0.30319 0.33816 0.0
C2469 C 0.13337 0.30406 0.35704 0.0
C2470 C 0.15288 0.30064 0.33205 0.0
C2471 C 0.16665 0.29868 0.34461 0.0
C2472 C 0.16351 0.2988 0.36334 0.0
H2473 H 0.28013 0.30429 0.32792 0.0
H2474 H 0.25068 0.29933 0.3405 0.0
C2475 C 0.14693 0.30134 0.36951 0.0
C2476 C 0.18479 0.29854 0.33836 0.0
H2477 H 0.20654 0.27654 0.30456 0.0
C2478 C 0.19922 0.31382 0.34653 0.0
C2479 C 0.18757 0.28466 0.32331 0.0
C2480 C 0.17284 0.26739 0.31455 0.0
C2481 C 0.21619 0.31602 0.33955 0.0
C2482 C 0.21879 0.30245 0.32414 0.0
C2483 C 0.20449 0.28695 0.31626 0.0
C2484 C 0.23631 0.30419 0.31603 0.0
C2485 C 0.231 0.33323 0.34827 0.0
C2486 C 0.23783 0.30797 0.29789 0.0
C2487 C 0.25459 0.31042 0.29055 0.0
C2488 C 0.26991 0.3089 0.30125 0.0
C2489 C 0.26835 0.30506 0.31933 0.0
C2490 C 0.25162 0.30242 0.32657 0.0
H2491 H 0.22569 0.34452 0.35716 0.0
H2492 H 0.24082 0.32837 0.35711 0.0
H2493 H 0.23835 0.33984 0.33741 0.0
H2494 H 0.22612 0.30937 0.28957 0.0
H2495 H 0.25569 0.31388 0.27676 0.0
H2496 H 0.93679 0.04667 0.20075 0.0
H2497 H 0.95161 0.04353 0.17171 0.0
H2498 H 0.99975 0.08262 0.20007 0.0
H2499 H 0.98527 0.08486 0.22916 0.0
H2500 H 0.96358 0.06114 0.14686 0.0
H2501 H 0.0271 0.048 0.17599 0.0
H2502 H 0.00827 0.04884 0.18968 0.0
H2503 H 0.02373 0.07094 0.18722 0.0
C2504 C 0.95059 0.05459 0.20096 0.0
C2505 C 0.95955 0.06599 0.21797 0.0
C2506 C 0.95926 0.05278 0.18401 0.0
C2507 C 0.97748 0.06226 0.18286 0.0
C2508 C 0.98617 0.07416 0.19982 0.0
H2509 H 0.04999 0.0754 0.089 0.0
H2510 H 0.03568 0.07848 0.11837 0.0
C2511 C 0.97761 0.07574 0.2168 0.0
C2512 C 0.98697 0.06004 0.16422 0.0
H2513 H 0.02719 0.05526 0.14548 0.0
C2514 C 0.97747 0.0597 0.14685 0.0
C2515 C 0.00528 0.058 0.16304 0.0
C2516 C 0.01663 0.05625 0.17993 0.0
C2517 C 0.9854 0.05794 0.12938 0.0
C2518 C 1.00374 0.05628 0.12832 0.0
C2519 C 0.01328 0.05664 0.14561 0.0
C2520 C 0.01307 0.05405 0.1097 0.0
C2521 C 0.97396 0.05841 0.11208 0.0
C2522 C 0.00593 0.03912 0.09417 0.0
C2523 C 0.01451 0.03706 0.07721 0.0
C2524 C 0.03078 0.04984 0.07456 0.0
C2525 C 0.03787 0.06483 0.09006 0.0
C2526 C 0.02944 0.06671 0.10715 0.0
H2527 H 0.96233 0.06508 0.11543 0.0
H2528 H 0.98203 0.0666 0.10263 0.0
H2529 H 0.96853 0.04335 0.10456 0.0
H2530 H 0.99367 0.02867 0.09515 0.0
H2531 H 0.00822 0.02525 0.06604 0.0
H2532 H 0.30165 0.64979 0.43864 0.0
H2533 H 0.29884 0.6642 0.41094 0.0
H2534 H 0.28379 0.71295 0.44422 0.0
H2535 H 0.28736 0.69905 0.47201 0.0
H2536 H 0.26966 0.66987 0.39542 0.0
H2537 H 0.3173 0.74102 0.41332 0.0
H2538 H 0.31745 0.72224 0.42687 0.0
H2539 H 0.30205 0.73815 0.43094 0.0
C2540 C 0.29822 0.66384 0.44012 0.0
C2541 C 0.29484 0.67334 0.45754 0.0
C2542 C 0.29655 0.67203 0.42426 0.0
C2543 C 0.29128 0.68978 0.42545 0.0
C2544 C 0.28839 0.69954 0.44294 0.0
H2545 H 0.22923 0.72619 0.34207 0.0
H2546 H 0.24043 0.71039 0.36589 0.0
C2547 C 0.29038 0.69152 0.45887 0.0
C2548 C 0.28715 0.69719 0.40828 0.0
H2549 H 0.29318 0.73823 0.38947 0.0
C2550 C 0.27503 0.68475 0.39401 0.0
C2551 C 0.29438 0.71647 0.40618 0.0
C2552 C 0.30867 0.73013 0.42007 0.0
C2553 C 0.2694 0.69128 0.37811 0.0
C2554 C 0.27552 0.71098 0.37676 0.0
C2555 C 0.28822 0.72319 0.39063 0.0
C2556 C 0.26861 0.71944 0.3614 0.0
C2557 C 0.25709 0.67692 0.36288 0.0
C2558 C 0.28069 0.73016 0.35118 0.0
C2559 C 0.27433 0.73953 0.33781 0.0
C2560 C 0.25572 0.73824 0.33422 0.0
C2561 C 0.24361 0.7272 0.34424 0.0
C2562 C 0.25001 0.71806 0.35781 0.0
H2563 H 0.25872 0.66191 0.36297 0.0
H2564 H 0.24284 0.67721 0.36515 0.0
H2565 H 0.25974 0.68046 0.34895 0.0
H2566 H 0.2951 0.73151 0.35373 0.0
H2567 H 0.28405 0.74788 0.33037 0.0
H2568 H 0.67977 0.03646 0.69043 0.0
H2569 H 0.66042 0.03038 0.66124 0.0
H2570 H 0.61868 0.99343 0.68454 0.0
H2571 H 0.63771 0.99989 0.71388 0.0
H2572 H 0.64201 0.99813 0.6355 0.0
H2573 H 0.59419 0.03593 0.67328 0.0
H2574 H 0.61627 0.03613 0.68368 0.0
H2575 H 0.59822 0.01507 0.68192 0.0
C2576 C 0.66662 0.02673 0.68919 0.0
C2577 C 0.66012 0.01889 0.7045 0.0
C2578 C 0.65556 0.02328 0.67253 0.0
C2579 C 0.63794 0.01186 0.67092 0.0
C2580 C 0.63204 1.0027 0.68567 0.0
H2581 H 0.55368 0.00782 0.58124 0.0
H2582 H 0.569 0.99847 0.60758 0.0
C2583 C 0.64298 1.00632 0.70238 0.0
C2584 C 0.62534 0.01094 0.65446 0.0
H2585 H 0.58732 0.02536 0.64112 0.0
C2586 C 0.62994 1.00387 0.63673 0.0
C2587 C 0.60956 0.01842 0.65611 0.0
C2588 C 0.60428 0.02697 0.67474 0.0
C2589 C 0.61946 1.00461 0.6206 0.0
C2590 C 0.60413 0.01278 0.62228 0.0
C2591 C 0.59903 0.01899 0.63996 0.0
C2592 C 0.59477 0.01753 0.60602 0.0
C2593 C 0.62513 0.99712 0.60185 0.0
C2594 C 0.6041 0.03159 0.5968 0.0
C2595 C 0.5954 0.03717 0.58209 0.0
C2596 C 0.57711 0.02879 0.57621 0.0
C2597 C 0.56772 0.01467 0.5855 0.0
C2598 C 0.57646 0.00921 0.60044 0.0
H2599 H 0.63363 0.98642 0.60282 0.0
H2600 H 0.61319 0.99025 0.59174 0.0
H2601 H 0.63318 0.00942 0.5964 0.0
H2602 H 0.61812 0.0385 0.60118 0.0
H2603 H 0.60312 0.04815 0.57541 0.0
H2604 H 0.31558 0.34734 0.98639 0.0
H2605 H 0.31486 0.32794 0.9551 0.0
H2606 H 0.30387 0.37533 0.93055 0.0
H2607 H 0.30451 0.39458 0.96137 0.0
H2608 H 0.28196 0.33843 0.91381 0.0
H2609 H 0.35516 0.33793 0.91903 0.0
H2610 H 0.34212 0.32984 0.93715 0.0
H2611 H 0.34594 0.3548 0.93475 0.0
C2612 C 0.31278 0.35351 0.97432 0.0
C2613 C 0.31016 0.3726 0.97651 0.0
C2614 C 0.31255 0.34247 0.95642 0.0
C2615 C 0.30956 0.35025 0.94038 0.0
C2616 C 0.3063 0.36899 0.94262 0.0
H2617 H 0.31523 0.34346 0.82576 0.0
H2618 H 0.3167 0.34982 0.8597 0.0
C2619 C 0.30668 0.38001 0.96035 0.0
C2620 C 0.30994 0.33934 0.92114 0.0
H2621 H 0.3387 0.32509 0.88991 0.0
C2622 C 0.29429 0.33515 0.90872 0.0
C2623 C 0.32605 0.33514 0.91434 0.0
C2624 C 0.34336 0.3397 0.92689 0.0
C2625 C 0.29446 0.32753 0.88973 0.0
C2626 C 0.3107 0.32411 0.88279 0.0
C2627 C 0.32621 0.32754 0.89527 0.0
C2628 C 0.31217 0.3197 0.86235 0.0
C2629 C 0.27743 0.324 0.87691 0.0
C2630 C 0.3096 0.30058 0.85248 0.0
C2631 C 0.30882 0.29686 0.83287 0.0
C2632 C 0.31067 0.31225 0.82295 0.0
C2633 C 0.31389 0.33132 0.83301 0.0
C2634 C 0.31473 0.33499 0.85242 0.0
H2635 H 0.26539 0.32479 0.88468 0.0
H2636 H 0.27891 0.33508 0.86783 0.0
H2637 H 0.27514 0.30956 0.86776 0.0
H2638 H 0.30751 0.28853 0.85986 0.0
H2639 H 0.30601 0.28201 0.82549 0.0
H2640 H 0.93277 0.06613 0.34741 0.0
H2641 H 0.94967 0.06288 0.37554 0.0
H2642 H 0.9979 0.06703 0.34709 0.0
H2643 H 0.98084 0.07035 0.3186 0.0
H2644 H 0.9657 0.03741 0.38629 0.0
H2645 H 0.02141 0.10212 0.39367 0.0
H2646 H 1.00188 0.09827 0.37724 0.0
H2647 H 0.01975 0.0859 0.37185 0.0
C2648 C 0.94705 0.06665 0.34689 0.0
C2649 C 0.95503 0.06886 0.33001 0.0
C2650 C 0.9569 0.06463 0.36338 0.0
C2651 C 0.97561 0.06489 0.36445 0.0
C2652 C 0.98376 0.0672 0.34762 0.0
H2653 H 0.05289 0.05395 0.46152 0.0
H2654 H 0.03969 0.05652 0.43054 0.0
C2655 C 0.9738 0.06908 0.33094 0.0
C2656 C 0.98588 0.0621 0.38276 0.0
H2657 H 0.0236 0.08079 0.41469 0.0
C2658 C 0.97834 0.0471 0.39233 0.0
C2659 C 1.00271 0.07419 0.39143 0.0
C2660 C 0.01189 0.09114 0.38317 0.0
C2661 C 0.98671 0.04383 0.40928 0.0
C2662 C 1.00329 0.05621 0.41824 0.0
C2663 C 0.01103 0.07106 0.40855 0.0
C2664 C 0.01212 0.05434 0.43766 0.0
C2665 C 0.97772 0.02641 0.41702 0.0
C2666 C 1.00179 0.05237 0.45303 0.0
C2667 C 0.00938 0.0507 0.47077 0.0
C2668 C 0.02793 0.05098 0.47472 0.0
C2669 C 0.03855 0.05322 0.45951 0.0
C2670 C 0.03085 0.05488 0.44153 0.0
H2671 H 0.96977 0.01483 0.40585 0.0
H2672 H 0.98772 0.02028 0.42431 0.0
H2673 H 0.96819 0.03073 0.427 0.0
H2674 H 0.98761 0.05253 0.45154 0.0
H2675 H 1.00046 0.0494 0.48175 0.0
H2676 H 0.30982 0.72147 0.55831 0.0
H2677 H 0.3109 0.73963 0.59 0.0
H2678 H 0.291 0.68624 0.60933 0.0
H2679 H 0.28995 0.66801 0.57782 0.0
H2680 H 0.28103 0.73997 0.61186 0.0
H2681 H 0.33518 0.71345 0.64641 0.0
H2682 H 0.33177 0.71111 0.62146 0.0
H2683 H 0.31764 0.69448 0.63323 0.0
C2684 C 0.30591 0.71358 0.56936 0.0
C2685 C 0.29986 0.69328 0.56556 0.0
C2686 C 0.30648 0.72398 0.58744 0.0
C2687 C 0.3012 0.71427 0.60204 0.0
C2688 C 0.29542 0.694 0.59833 0.0
H2689 H 0.28571 0.73955 0.71775 0.0
H2690 H 0.28684 0.72565 0.6853 0.0
C2691 C 0.29477 0.68361 0.58028 0.0
C2692 C 0.30087 0.72527 0.62103 0.0
H2693 H 0.31728 0.72987 0.66625 0.0
C2694 C 0.28909 0.73795 0.62376 0.0
C2695 C 0.3114 0.7226 0.63649 0.0
C2696 C 0.32484 0.70981 0.63429 0.0
C2697 C 0.28702 0.74744 0.64167 0.0
C2698 C 0.29725 0.7444 0.65718 0.0
C2699 C 0.30936 0.7321 0.65436 0.0
C2700 C 0.29525 0.75326 0.67657 0.0
C2701 C 0.2734 0.76002 0.64388 0.0
C2702 C 0.29926 0.77346 0.68245 0.0
C2703 C 0.29846 0.7815 0.70109 0.0
C2704 C 0.294 0.76948 0.71427 0.0
C2705 C 0.28939 0.74929 0.70815 0.0
C2706 C 0.29008 0.74128 0.68954 0.0
H2707 H 0.26365 0.75711 0.63134 0.0
H2708 H 0.26577 0.75773 0.65612 0.0
H2709 H 0.28057 0.77548 0.64611 0.0
H2710 H 0.30347 0.78301 0.67275 0.0
H2711 H 0.30173 0.79712 0.70523 0.0
H2712 H 0.64407 0.0341 0.79126 0.0
H2713 H 0.62255 0.03735 0.81437 0.0
H2714 H 0.66523 0.07314 0.85411 0.0
H2715 H 0.68702 0.07017 0.83098 0.0
H2716 H 0.6236 0.02703 0.85029 0.0
H2717 H 0.62593 0.10551 0.85323 0.0
H2718 H 0.63424 0.09104 0.83445 0.0
H2719 H 0.64733 0.09908 0.85659 0.0
C2720 C 0.64896 0.04269 0.80489 0.0
C2721 C 0.66729 0.05196 0.80923 0.0
C2722 C 0.63661 0.04451 0.81807 0.0
C2723 C 0.64229 0.05569 0.83579 0.0
C2724 C 0.66058 0.06471 0.84036 0.0
H2725 H 0.58594 0.08019 0.93309 0.0
H2726 H 0.60775 0.07997 0.90978 0.0
C2727 C 0.67301 0.06287 0.82717 0.0
C2728 C 0.62899 0.05754 0.84951 0.0
H2729 H 0.60797 0.08988 0.87401 0.0
C2730 C 0.62014 0.04075 0.85548 0.0
C2731 C 0.6246 0.07549 0.85618 0.0
C2732 C 0.63339 0.09383 0.84972 0.0
C2733 C 0.60706 0.04144 0.86816 0.0
C2734 C 0.6025 0.05934 0.87469 0.0
C2735 C 0.61145 0.07618 0.86883 0.0
C2736 C 0.58882 0.06088 0.88805 0.0
C2737 C 0.59852 0.02308 0.87475 0.0
C2738 C 0.57084 0.05074 0.88329 0.0
C2739 C 0.55838 0.05072 0.8966 0.0
C2740 C 0.56374 0.06092 0.91484 0.0
C2741 C 0.58152 0.07192 0.91923 0.0
C2742 C 0.59396 0.07191 0.90593 0.0
H2743 H 0.60653 0.01179 0.87192 0.0
H2744 H 0.59706 0.026 0.8899 0.0
H2745 H 0.58486 0.01715 0.86734 0.0
H2746 H 0.56658 0.04243 0.86942 0.0
H2747 H 0.54479 0.04208 0.89284 0.0
H2748 H 0.29339 0.34431 0.07259 0.0
H2749 H 0.29048 0.33307 0.10238 0.0
H2750 H 0.31443 0.39092 0.13163 0.0
H2751 H 0.31712 0.40227 0.10199 0.0
H2752 H 0.31629 0.33264 0.12914 0.0
H2753 H 0.27095 0.37777 0.16015 0.0
H2754 H 0.27484 0.37514 0.13585 0.0
H2755 H 0.29095 0.39183 0.15308 0.0
C2756 C 0.29785 0.3547 0.08537 0.0
C2757 C 0.3054 0.37425 0.08479 0.0
C2758 C 0.29622 0.34824 0.10245 0.0
C2759 C 0.30195 0.36114 0.11944 0.0
C2760 C 0.30946 0.38068 0.11887 0.0
H2761 H 0.33115 0.33115 0.22586 0.0
H2762 H 0.33025 0.34244 0.19627 0.0
C2763 C 0.3111 0.38715 0.10182 0.0
C2764 C 0.30088 0.35403 0.13764 0.0
H2765 H 0.28521 0.36167 0.18071 0.0
C2766 C 0.30938 0.33895 0.14034 0.0
C2767 C 0.29172 0.362 0.15235 0.0
C2768 C 0.28144 0.37744 0.1502 0.0
C2769 C 0.30937 0.33202 0.15728 0.0
C2770 C 0.30083 0.3405 0.17222 0.0
C2771 C 0.29193 0.35524 0.16941 0.0
C2772 C 0.30117 0.33434 0.19082 0.0
C2773 C 0.31837 0.31546 0.15894 0.0
C2774 C 0.28511 0.32655 0.19817 0.0
C2775 C 0.28557 0.32013 0.2153 0.0
C2776 C 0.30212 0.32147 0.22559 0.0
C2777 C 0.31813 0.32976 0.21841 0.0
C2778 C 0.31766 0.33612 0.20132 0.0
H2779 H 0.31987 0.30721 0.14508 0.0
H2780 H 0.33206 0.32131 0.1663 0.0
H2781 H 0.31059 0.30531 0.16703 0.0
H2782 H 0.27218 0.32513 0.19048 0.0
H2783 H 0.27295 0.31406 0.22045 0.0
H2784 H 0.26217 0.9382 0.04501 0.0
H2785 H 0.23698 0.95381 0.05228 0.0
H2786 H 0.26387 1.004 0.03141 0.0
H2787 H 0.28876 0.98863 0.02387 0.0
H2788 H 0.23736 0.98912 0.07583 0.0
H2789 H 0.2139 0.99107 1.00341 0.0
H2790 H 0.22901 0.97606 0.0089 0.0
H2791 H 0.23758 1.00141 0.0088 0.0
C2792 C 0.26264 0.95248 0.04181 0.0
C2793 C 0.27746 0.96204 0.03367 0.0
C2794 C 0.24826 0.96139 0.04603 0.0
C2795 C 0.24843 0.97991 0.04208 0.0
C2796 C 0.26325 0.98951 0.03416 0.0
H2797 H 0.19215 0.07149 0.06291 0.0
H2798 H 0.21426 0.05102 0.05923 0.0
C2799 C 0.27754 0.98068 0.02992 0.0
C2800 C 0.23344 0.98965 0.04657 0.0
H2801 H 0.20387 0.01241 0.02742 0.0
C2802 C 0.22983 0.99396 0.06523 0.0
C2803 C 0.2236 0.99589 0.0327 0.0
C2804 C 0.22607 0.9907 0.01231 0.0
C2805 C 0.21716 1.00511 0.07044 0.0
C2806 C 0.208 0.01206 0.05664 0.0
C2807 C 0.21116 0.00722 0.03796 0.0
C2808 C 0.19521 0.02463 0.06125 0.0
C2809 C 0.21396 0.00995 0.09064 0.0
C2810 C 0.17733 0.01652 0.06387 0.0
C2811 C 0.16469 0.02814 0.06592 0.0
C2812 C 0.16976 0.04805 0.06541 0.0
C2813 C 0.1879 0.05625 0.06356 0.0
C2814 C 0.2005 0.04459 0.06137 0.0
H2815 H 0.22276 1.00415 0.09981 0.0
H2816 H 0.21644 0.02592 0.09509 0.0
H2817 H 0.19964 1.00383 0.09246 0.0
H2818 H 0.17304 1.00111 0.0637 0.0
H2819 H 0.15083 0.02147 0.06748 0.0
H2820 H 0.75508 0.64557 0.01734 0.0
H2821 H 0.72426 0.62683 0.01651 0.0
H2822 H 0.70424 0.67166 0.99496 0.0
H2823 H 0.73536 0.68931 0.99389 0.0
H2824 H 0.69885 0.63269 0.03429 0.0
H2825 H 0.67359 0.62778 0.9611 0.0
H2826 H 0.69687 0.63793 0.96945 0.0
H2827 H 0.68035 0.65259 0.97259 0.0
C2828 C 0.74411 0.65092 0.01156 0.0
C2829 C 0.74763 0.66825 1.00458 0.0
C2830 C 0.72642 0.64041 0.01146 0.0
C2831 C 0.71169 0.64743 1.00518 0.0
C2832 C 0.71522 0.66534 0.99907 0.0
H2833 H 0.60482 0.60163 0.03923 0.0
H2834 H 0.63444 0.62145 0.03644 0.0
C2835 C 0.73302 0.67556 0.99863 0.0
C2836 C 0.69281 0.63649 0.00621 0.0
H2837 H 0.65129 0.61913 0.98184 0.0
C2838 C 0.68855 0.62961 0.02269 0.0
C2839 C 0.67919 0.63225 0.99114 0.0
C2840 C 0.68278 0.63786 0.97253 0.0
C2841 C 0.67135 0.61859 0.02449 0.0
C2842 C 0.65757 0.61507 0.00973 0.0
C2843 C 0.66174 0.62196 0.99326 0.0
C2844 C 0.63891 0.60378 0.01085 0.0
C2845 C 0.66843 0.61032 0.04202 0.0
C2846 C 0.6309 0.58789 0.99682 0.0
C2847 C 0.61366 0.57686 0.99809 0.0
C2848 C 0.60414 0.58118 0.01361 0.0
C2849 C 0.61189 0.59754 0.02729 0.0
C2850 C 0.62897 0.60882 0.0258 0.0
H2851 H 0.68135 0.60896 0.04894 0.0
H2852 H 0.66253 0.6202 0.05197 0.0
H2853 H 0.65912 0.59581 0.0391 0.0
H2854 H 0.6381 0.58382 0.98496 0.0
H2855 H 0.60788 0.56486 0.98694 0.0
H2856 H 0.69763 0.45925 0.24143 0.0
H2857 H 0.71208 0.4311 0.23919 0.0
H2858 H 0.7215 0.44109 0.29874 0.0
H2859 H 0.70758 0.46909 0.30097 0.0
H2860 H 0.74872 0.4265 0.25149 0.0
H2861 H 0.69936 0.38248 0.28857 0.0
H2862 H 0.69451 0.40278 0.2792 0.0
H2863 H 0.70836 0.40681 0.30078 0.0
C2864 C 0.70238 0.45535 0.25417 0.0
C2865 C 0.70065 0.46697 0.27149 0.0
C2866 C 0.71103 0.43904 0.25287 0.0
C2867 C 0.7182 0.43297 0.26878 0.0
C2868 C 0.7162 0.44447 0.28597 0.0
H2869 H 0.76517 0.33408 0.29683 0.0
H2870 H 0.75161 0.36183 0.29555 0.0
C2871 C 0.70798 0.46087 0.28724 0.0
C2872 C 0.72775 0.4152 0.26775 0.0
H2873 H 0.72605 0.37158 0.28304 0.0
C2874 C 0.74355 0.41449 0.25835 0.0
C2875 C 0.72186 0.39898 0.27668 0.0
C2876 C 0.70503 0.39757 0.28677 0.0
C2877 C 0.75339 0.39919 0.25815 0.0
C2878 C 0.74738 0.38276 0.26695 0.0
C2879 C 0.73142 0.38349 0.27615 0.0
C2880 C 0.7573 0.36527 0.2675 0.0
C2881 C 0.77084 0.40157 0.24911 0.0
C2882 C 0.76595 0.35656 0.25244 0.0
C2883 C 0.77442 0.34039 0.25339 0.0
C2884 C 0.77458 0.33155 0.26938 0.0
C2885 C 0.76584 0.3401 0.28421 0.0
C2886 C 0.75771 0.3563 0.28339 0.0
H2887 H 0.77662 0.41703 0.24864 0.0
H2888 H 0.78105 0.39593 0.25665 0.0
H2889 H 0.76824 0.39356 0.23456 0.0
H2890 H 0.76579 0.36179 0.23945 0.0
H2891 H 0.78036 0.33446 0.24128 0.0
H2892 H 0.86412 0.45817 0.54507 0.0
H2893 H 0.89623 0.47089 0.54372 0.0
H2894 H 0.89192 0.44057 0.48683 0.0
H2895 H 0.8609 0.42466 0.49003 0.0
H2896 H 0.92059 0.44005 0.49723 0.0
H2897 H 0.92045 0.51539 0.5274 0.0
H2898 H 0.91526 0.50155 0.54531 0.0
H2899 H 0.90002 0.49705 0.52447 0.0
C2900 C 0.87015 0.45445 0.53227 0.0
C2901 C 0.85993 0.44142 0.51718 0.0
C2902 C 0.88849 0.46198 0.53135 0.0
C2903 C 0.89665 0.45784 0.51478 0.0
C2904 C 0.88626 0.44443 0.4998 0.0
H2905 H 1.00239 0.5323 0.51415 0.0
H2906 H 0.97054 0.51758 0.50796 0.0
C2907 C 0.86833 0.43566 0.50136 0.0
C2908 C 0.91613 0.46653 0.51336 0.0
H2909 H 0.94955 0.50695 0.52832 0.0
C2910 C 0.92665 0.45494 0.50358 0.0
C2911 C 0.92453 0.48603 0.52138 0.0
C2912 C 0.91436 0.5007 0.53 0.0
C2913 C 0.94495 0.46213 0.50163 0.0
C2914 C 0.95362 0.4809 0.51124 0.0
C2915 C 0.94317 0.49249 0.52098 0.0
C2916 C 0.97341 0.48894 0.51168 0.0
C2917 C 0.95445 0.44963 0.48875 0.0
C2918 C 0.98605 0.47788 0.51518 0.0
C2919 C 1.00456 0.48606 0.51687 0.0
C2920 C 0.0108 0.50573 0.51608 0.0
C2921 C 0.99819 0.51692 0.51342 0.0
C2922 C 0.9798 0.50851 0.51049 0.0
H2923 H 0.94484 0.44025 0.47724 0.0
H2924 H 0.96553 0.45846 0.48256 0.0
H2925 H 0.96006 0.4399 0.49659 0.0
H2926 H 0.98169 0.46308 0.51719 0.0
H2927 H 0.01397 0.47718 0.51952 0.0
H2928 H 0.39431 0.09361 0.28756 0.0
H2929 H 0.37379 0.11452 0.28186 0.0
H2930 H 0.34299 0.09668 0.32613 0.0
H2931 H 0.36319 0.07557 0.33176 0.0
H2932 H 0.32192 0.09259 0.29355 0.0
H2933 H 0.36709 0.16586 0.31064 0.0
H2934 H 0.37542 0.14903 0.29423 0.0
H2935 H 0.37311 0.14487 0.31762 0.0
C2936 C 0.38342 0.09447 0.29636 0.0
C2937 C 0.38037 0.08287 0.31007 0.0
C2938 C 0.37171 0.10644 0.29309 0.0
C2939 C 0.35692 0.10719 0.30364 0.0
C2940 C 0.3543 0.09626 0.31782 0.0
H2941 H 0.28908 0.18964 0.29999 0.0
H2942 H 0.30744 0.16847 0.31028 0.0
C2943 C 0.36591 0.08424 0.32103 0.0
C2944 C 0.34342 0.11824 0.29907 0.0
H2945 H 0.33829 0.16345 0.29488 0.0
C2946 C 0.32545 0.10811 0.29395 0.0
C2947 C 0.34805 0.13849 0.29977 0.0
C2948 C 0.36693 0.15026 0.30603 0.0
C2949 C 0.31202 0.11767 0.28924 0.0
C2950 C 0.31678 0.1378 0.28935 0.0
C2951 C 0.33469 0.14797 0.29473 0.0
C2952 C 0.30351 0.14874 0.28385 0.0
C2953 C 0.29284 0.10617 0.28443 0.0
C2954 C 0.29479 0.14432 0.26575 0.0
C2955 C 0.28415 0.15631 0.25991 0.0
C2956 C 0.28232 0.173 0.27202 0.0
C2957 C 0.29035 0.17686 0.29039 0.0
C2958 C 0.30085 0.16483 0.29625 0.0
H2959 H 0.29056 0.09246 0.29001 0.0
H2960 H 0.28308 0.11473 0.28994 0.0
H2961 H 0.29002 0.10235 0.26908 0.0
H2962 H 0.29693 0.13217 0.25586 0.0
H2963 H 0.2783 0.15321 0.24561 0.0
H2964 H 0.34833 0.18333 0.53582 0.0
H2965 H 0.37377 0.16889 0.54354 0.0
H2966 H 0.36433 0.13226 0.48938 0.0
H2967 H 0.33913 0.14639 0.48163 0.0
H2968 H 0.36506 0.11183 0.51848 0.0
H2969 H 0.42524 0.17274 0.5261 0.0
H2970 H 0.40665 0.17747 0.53892 0.0
H2971 H 0.40403 0.17313 0.51396 0.0
C2972 C 0.35196 0.17254 0.52541 0.0
C2973 C 0.34155 0.16601 0.50813 0.0
C2974 C 0.36653 0.16428 0.52984 0.0
C2975 C 0.37103 0.14946 0.51702 0.0
C2976 C 0.36115 0.1436 0.49953 0.0
H2977 H 0.4578 0.08672 0.51486 0.0
H2978 H 0.43778 0.10844 0.50963 0.0
C2979 C 0.34668 0.15176 0.49513 0.0
C2980 C 0.38487 0.13872 0.5221 0.0
H2981 H 0.43003 0.14309 0.53334 0.0
C2982 C 0.37925 0.11872 0.52178 0.0
C2983 C 0.40344 0.14761 0.52624 0.0
C2984 C 0.41033 0.16889 0.52622 0.0
C2985 C 0.39158 0.1074 0.52547 0.0
C2986 C 0.41012 0.11629 0.52984 0.0
C2987 C 0.41582 0.13629 0.53009 0.0
C2988 C 0.42361 0.10482 0.53405 0.0
C2989 C 0.3847 0.08588 0.52431 0.0
C2990 C 0.42269 0.09598 0.54978 0.0
C2991 C 0.43414 0.08365 0.55286 0.0
C2992 C 0.44684 0.07979 0.54026 0.0
C2993 C 0.44828 0.08937 0.52491 0.0
C2994 C 0.43679 0.10177 0.52186 0.0
H2995 H 0.37097 0.08066 0.51686 0.0
H2996 H 0.39394 0.07765 0.51709 0.0
H2997 H 0.38404 0.08262 0.53858 0.0
H2998 H 0.41284 0.09835 0.55955 0.0
H2999 H 0.43288 0.07695 0.56506 0.0
H3000 H 0.68225 0.58584 0.29229 0.0
H3001 H 0.69978 0.61905 0.29326 0.0
H3002 H 0.73915 0.59624 0.26175 0.0
H3003 H 0.72159 0.56308 0.26078 0.0
H3004 H 0.73475 0.63933 0.30739 0.0
H3005 H 0.7286 0.63568 0.23116 0.0
H3006 H 0.7151 0.61768 0.24218 0.0
H3007 H 0.73812 0.61693 0.23845 0.0
C3008 C 0.69472 0.58784 0.28567 0.0
C3009 C 0.70058 0.57143 0.27689 0.0
C3010 C 0.70484 0.60702 0.28622 0.0
C3011 C 0.721 0.61074 0.27745 0.0
C3012 C 0.72676 0.5943 0.26849 0.0
H3013 H 0.801 0.72559 0.29614 0.0
H3014 H 0.78523 0.69205 0.29631 0.0
C3015 C 0.71674 0.57512 0.26814 0.0
C3016 C 0.73155 0.6316 0.27756 0.0
H3017 H 0.74782 0.66381 0.24906 0.0
C3018 C 0.73758 0.64456 0.29457 0.0
C3019 C 0.73536 0.63908 0.26101 0.0
C3020 C 0.72885 0.62674 0.24214 0.0
C3021 C 0.74721 0.66412 0.29547 0.0
C3022 C 0.75131 0.6715 0.2789 0.0
C3023 C 0.74506 0.65859 0.26191 0.0
C3024 C 0.76147 0.69252 0.27885 0.0
C3025 C 0.75246 0.6769 0.31433 0.0
C3026 C 0.75406 0.70461 0.26869 0.0
C3027 C 0.76321 0.72399 0.26852 0.0
C3028 C 0.78041 0.73226 0.27829 0.0
C3029 C 0.78793 0.72011 0.28832 0.0
C3030 C 0.77869 0.70072 0.28859 0.0
H3031 H 0.74425 0.67115 0.32508 0.0
H3032 H 0.76683 0.67754 0.31858 0.0
H3033 H 0.75088 0.69187 0.31401 0.0
H3034 H 0.74095 0.69911 0.26092 0.0
H3035 H 0.75672 0.7325 0.26055 0.0
H3036 H 0.9228 0.49662 0.82351 0.0
H3037 H 0.90516 0.46301 0.81966 0.0
H3038 H 0.86732 0.47509 0.77965 0.0
H3039 H 0.88485 0.50852 0.78347 0.0
H3040 H 0.8635 0.45019 0.82253 0.0
H3041 H 0.88853 0.42684 0.75432 0.0
H3042 H 0.90095 0.44731 0.77123 0.0
H3043 H 0.8814 0.44946 0.75761 0.0
C3044 C 0.91059 0.49205 0.81408 0.0
C3045 C 0.90479 0.50514 0.80419 0.0
C3046 C 0.90058 0.47296 0.8119 0.0
C3047 C 0.885 0.46669 0.79938 0.0
C3048 C 0.87932 0.47973 0.78937 0.0
H3049 H 0.81211 0.35897 0.75127 0.0
H3050 H 0.82844 0.3928 0.76059 0.0
C3051 C 0.88922 0.49879 0.79168 0.0
C3052 C 0.87483 0.44635 0.79627 0.0
H3053 H 0.86494 0.40465 0.76393 0.0
C3054 C 0.86386 0.44012 0.80982 0.0
C3055 C 0.87537 0.43342 0.77962 0.0
C3056 C 0.88726 0.43945 0.76485 0.0
C3057 C 0.8529 0.42132 0.80686 0.0
C3058 C 0.85328 0.40838 0.7901 0.0
C3059 C 0.86458 0.4146 0.77674 0.0
C3060 C 0.84191 0.38841 0.78582 0.0
C3061 C 0.84041 0.41578 0.82127 0.0
C3062 C 0.84391 0.37473 0.79701 0.0
C3063 C 0.83448 0.35543 0.79174 0.0
C3064 C 0.82293 0.34954 0.77522 0.0
C3065 C 0.82076 0.36326 0.7642 0.0
C3066 C 0.83009 0.38254 0.76949 0.0
H3067 H 0.83897 0.4286 0.83143 0.0
H3068 H 0.82688 0.40813 0.81443 0.0
H3069 H 0.84578 0.40587 0.82906 0.0
H3070 H 0.85331 0.37878 0.80939 0.0
H3071 H 0.83673 0.34499 0.80022 0.0
H3072 H 0.05834 0.8475 0.07065 0.0
H3073 H 0.05679 0.87782 0.06093 0.0
H3074 H 0.09581 0.909 0.10638 0.0
H3075 H 0.09766 0.87818 0.11628 0.0
H3076 H 0.04577 0.90881 0.07725 0.0
H3077 H 0.11733 0.9325 0.06387 0.0
H3078 H 0.10802 0.90838 0.06781 0.0
H3079 H 0.11405 0.92834 0.08708 0.0
C3080 C 0.06675 0.86068 0.07873 0.0
C3081 C 0.07819 0.86003 0.09441 0.0
C3082 C 0.06577 0.87822 0.07306 0.0
C3083 C 0.07623 0.89602 0.08267 0.0
C3084 C 0.08776 0.89559 0.09837 0.0
H3085 H 0.05176 1.00708 0.05972 0.0
H3086 H 0.05419 0.97902 0.07421 0.0
C3087 C 0.08876 0.87787 0.10412 0.0
C3088 C 0.07457 0.91465 0.07611 0.0
H3089 H 0.09823 0.95374 0.05966 0.0
C3090 C 0.05732 0.91867 0.07354 0.0
C3091 C 0.08946 0.92762 0.07091 0.0
C3092 C 0.10825 0.92399 0.07237 0.0
C3093 C 0.05455 0.93487 0.06595 0.0
C3094 C 0.06944 0.94793 0.06089 0.0
C3095 C 0.08672 0.944 0.06356 0.0
C3096 C 0.06735 0.96511 0.05201 0.0
C3097 C 0.0355 0.93738 0.06274 0.0
C3098 C 0.07404 0.96717 0.03473 0.0
C3099 C 0.07262 0.98322 0.02645 0.0
C3100 C 0.06438 0.99781 0.03505 0.0
C3101 C 0.0577 0.99589 0.05239 0.0
C3102 C 0.05913 0.97977 0.06071 0.0
H3103 H 0.02539 0.92374 0.06272 0.0
H3104 H 0.03297 0.94858 0.07407 0.0
H3105 H 0.03339 0.94221 0.04931 0.0
H3106 H 0.08049 0.95631 0.0276 0.0
H3107 H 0.0782 0.98435 0.01328 0.0
H3108 H 0.96962 0.29349 0.91714 0.0
H3109 H 0.94205 0.29624 0.90022 0.0
H3110 H 0.9447 0.2459 0.85972 0.0
H3111 H 0.97362 0.24504 0.87546 0.0
H3112 H 0.93401 0.26455 0.84105 0.0
H3113 H 0.89185 0.27632 0.89813 0.0
H3114 H 0.9117 0.29534 0.90317 0.0
H3115 H 0.91337 0.27037 0.90208 0.0
C3116 C 0.9642 0.28299 0.90465 0.0
C3117 C 0.97402 0.26937 0.8974 0.0
C3118 C 0.94807 0.28428 0.89505 0.0
C3119 C 0.94051 0.27108 0.87857 0.0
C3120 C 0.94994 0.25661 0.8721 0.0
H3121 H 0.83311 0.27773 0.82967 0.0
H3122 H 0.85798 0.27085 0.84827 0.0
C3123 C 0.96653 0.25596 0.8812 0.0
C3124 C 0.92386 0.27328 0.8673 0.0
H3125 H 0.88383 0.28802 0.87046 0.0
C3126 C 0.92317 0.26969 0.84771 0.0
C3127 C 0.90874 0.27899 0.87535 0.0
C3128 C 0.90638 0.2802 0.89581 0.0
C3129 C 0.9087 0.27239 0.83625 0.0
C3130 C 0.89454 0.27995 0.8444 0.0
C3131 C 0.89478 0.28283 0.86394 0.0
C3132 C 0.87919 0.28441 0.833 0.0
C3133 C 0.90865 0.26634 0.81549 0.0
C3134 C 0.8824 0.29464 0.81819 0.0
C3135 C 0.86805 0.29796 0.80713 0.0
C3136 C 0.85009 0.29203 0.81109 0.0
C3137 C 0.84682 0.28261 0.82634 0.0
C3138 C 0.86112 0.27869 0.83701 0.0
H3139 H 0.91608 0.25461 0.81209 0.0
H3140 H 0.89473 0.2611 0.80856 0.0
H3141 H 0.91565 0.27888 0.80961 0.0
H3142 H 0.89605 0.30013 0.8151 0.0
H3143 H 0.87103 0.30546 0.79561 0.0
H3144 H 0.59208 0.26548 0.57806 0.0
H3145 H 0.58791 0.23083 0.56512 0.0
H3146 H 0.56465 0.21679 0.61486 0.0
H3147 H 0.56737 0.25125 0.6269 0.0
H3148 H 0.6008 0.20341 0.57357 0.0
H3149 H 0.52801 0.18033 0.57991 0.0
H3150 H 0.53939 0.20546 0.58564 0.0
H3151 H 0.53953 0.18994 0.60257 0.0
C3152 C 0.58536 0.25493 0.58583 0.0
C3153 C 0.57905 0.26114 0.603 0.0
C3154 C 0.58327 0.23504 0.57858 0.0
C3155 C 0.57532 0.22078 0.58859 0.0
C3156 C 0.56997 0.22714 0.60627 0.0
H3157 H 0.56398 0.09788 0.58414 0.0
H3158 H 0.5694 0.13323 0.59183 0.0
C3159 C 0.57169 0.24696 0.61328 0.0
C3160 C 0.57342 0.19943 0.58104 0.0
H3161 H 0.5445 0.15482 0.57591 0.0
C3162 C 0.58834 0.19291 0.57382 0.0
C3163 C 0.55724 0.18532 0.58128 0.0
C3164 C 0.54013 0.19069 0.5876 0.0
C3165 C 0.58771 0.173 0.56754 0.0
C3166 C 0.57176 0.15904 0.56843 0.0
C3167 C 0.55678 0.16547 0.57526 0.0
C3168 C 0.57054 0.13762 0.5634 0.0
C3169 C 0.60434 0.16685 0.5608 0.0
C3170 C 0.56962 0.1281 0.54479 0.0
C3171 C 0.56641 0.10769 0.54031 0.0
C3172 C 0.56423 0.09643 0.55439 0.0
C3173 C 0.56574 0.1061 0.57297 0.0
C3174 C 0.56881 0.12635 0.57741 0.0
H3175 H 0.61599 0.17934 0.56172 0.0
H3176 H 0.60811 0.15653 0.56922 0.0
H3177 H 0.60146 0.15921 0.54612 0.0
H3178 H 0.57069 0.1364 0.53367 0.0
H3179 H 0.56494 0.10072 0.52584 0.0
H3180 H 0.5743 0.75422 0.40291 0.0
H3181 H 0.60386 0.75417 0.39058 0.0
H3182 H 0.60509 0.81029 0.37629 0.0
H3183 H 0.57603 0.81044 0.38851 0.0
H3184 H 0.6113 0.75602 0.35363 0.0
H3185 H 0.65582 0.818 0.40076 0.0
H3186 H 0.63399 0.80632 0.40663 0.0
H3187 H 0.63584 0.82437 0.39202 0.0
C3188 C 0.58118 0.76675 0.39764 0.0
C3189 C 0.57285 0.78238 0.3968 0.0
C3190 C 0.59799 0.76665 0.39044 0.0
C3191 C 0.6069 0.78235 0.38266 0.0
C3192 C 0.59881 0.79819 0.38252 0.0
H3193 H 0.68468 0.81957 0.31044 0.0
H3194 H 0.66214 0.8144 0.33265 0.0
C3195 C 0.58208 0.79821 0.38947 0.0
C3196 C 0.6238 0.78188 0.37321 0.0
H3197 H 0.66559 0.80971 0.37015 0.0
C3198 C 0.62335 0.76749 0.35749 0.0
C3199 C 0.63957 0.79686 0.37816 0.0
C3200 C 0.64143 0.81215 0.39544 0.0
C3201 C 0.63768 0.76839 0.34598 0.0
C3202 C 0.65302 0.78397 0.35041 0.0
C3203 C 0.65383 0.79781 0.36664 0.0
C3204 C 0.66756 0.78717 0.33756 0.0
C3205 C 0.63582 0.75328 0.32857 0.0
C3206 C 0.67852 0.7738 0.33314 0.0
C3207 C 0.69152 0.77674 0.32034 0.0
C3208 C 0.69377 0.79306 0.31163 0.0
C3209 C 0.68315 0.80667 0.31659 0.0
C3210 C 0.67029 0.80379 0.3294 0.0
H3211 H 0.6219 0.74419 0.32546 0.0
H3212 H 0.6395 0.76023 0.31644 0.0
H3213 H 0.64517 0.74362 0.33036 0.0
H3214 H 0.67693 0.76102 0.33946 0.0
H3215 H 0.69942 0.76594 0.31685 0.0
H3216 H 0.06803 0.25466 0.40399 0.0
H3217 H 0.06233 0.232 0.4257 0.0
H3218 H 0.10069 0.27205 0.46714 0.0
H3219 H 0.10636 0.29483 0.44564 0.0
H3220 H 0.08661 0.21476 0.44451 0.0
H3221 H 0.05425 0.26177 0.49383 0.0
H3222 H 0.05782 0.26581 0.47051 0.0
H3223 H 0.07624 0.27313 0.48846 0.0
C3224 C 0.07533 0.25859 0.41768 0.0
C3225 C 0.08756 0.27659 0.42314 0.0
C3226 C 0.07204 0.24565 0.43007 0.0
C3227 C 0.08083 0.25053 0.44813 0.0
C3228 C 0.09348 0.26819 0.45339 0.0
H3229 H 0.07666 0.19172 0.54318 0.0
H3230 H 0.08276 0.21525 0.52228 0.0
C3231 C 0.09679 0.28113 0.44103 0.0
C3232 C 0.07674 0.23716 0.46147 0.0
H3233 H 0.05953 0.23319 0.50313 0.0
C3234 C 0.08064 0.21875 0.4573 0.0
C3235 C 0.069 0.24246 0.47816 0.0
C3236 C 0.06392 0.2618 0.483 0.0
C3237 C 0.07721 0.20554 0.46951 0.0
C3238 C 0.06936 0.21079 0.48615 0.0
C3239 C 0.06555 0.22924 0.49037 0.0
C3240 C 0.0648 0.19716 0.49919 0.0
C3241 C 0.08233 0.18622 0.46465 0.0
C3242 C 0.05224 0.17953 0.49332 0.0
C3243 C 0.0487 0.16615 0.5052 0.0
C3244 C 0.05758 0.17019 0.52325 0.0
C3245 C 0.06956 0.18824 0.5294 0.0
C3246 C 0.07312 0.20163 0.51745 0.0
H3247 H 0.09238 0.18647 0.45418 0.0
H3248 H 0.088 0.18192 0.4772 0.0
H3249 H 0.07011 0.17497 0.45866 0.0
H3250 H 0.04532 0.17602 0.47945 0.0
H3251 H 0.03914 0.15252 0.5002 0.0
H3252 H 0.57078 0.27174 0.13702 0.0
H3253 H 0.5999 0.27005 0.15172 0.0
H3254 H 0.58982 0.30473 0.20237 0.0
H3255 H 0.56059 0.30649 0.18784 0.0
H3256 H 0.6296 0.31054 0.18774 0.0
H3257 H 0.59408 0.23705 0.19731 0.0
H3258 H 0.59093 0.24348 0.1748 0.0
H3259 H 0.58214 0.25577 0.19439 0.0
C3260 C 0.57494 0.27947 0.15112 0.0
C3261 C 0.56329 0.28906 0.16136 0.0
C3262 C 0.59158 0.27847 0.15947 0.0
C3263 C 0.59683 0.28713 0.17812 0.0
C3264 C 0.58593 0.29799 0.18794 0.0
H3265 H 0.67031 0.2546 0.25537 0.0
H3266 H 0.64554 0.26565 0.24093 0.0
C3267 C 0.56924 0.29896 0.17961 0.0
C3268 C 0.61243 0.28266 0.18798 0.0
H3269 H 0.62519 0.24659 0.20676 0.0
C3270 C 0.62871 0.2966 0.19194 0.0
C3271 C 0.61102 0.26454 0.19358 0.0
C3272 C 0.59361 0.2493 0.18995 0.0
C3273 C 0.64384 0.29268 0.20117 0.0
C3274 C 0.64253 0.27436 0.20639 0.0
C3275 C 0.62612 0.2606 0.20268 0.0
C3276 C 0.65806 0.26893 0.2155 0.0
C3277 C 0.66103 0.30817 0.20544 0.0
C3278 C 0.67319 0.26699 0.20588 0.0
C3279 C 0.68726 0.26046 0.21398 0.0
C3280 C 0.68642 0.25572 0.23185 0.0
C3281 C 0.67127 0.25787 0.2415 0.0
C3282 C 0.65719 0.26433 0.23335 0.0
H3283 H 0.65863 0.32273 0.20443 0.0
H3284 H 0.66735 0.30866 0.21959 0.0
H3285 H 0.67074 0.30478 0.1953 0.0
H3286 H 0.67391 0.27005 0.19191 0.0
H3287 H 0.69858 0.25867 0.20605 0.0
H3288 H 0.6117 0.85973 0.92568 0.0
H3289 H 0.61267 0.88859 0.94906 0.0
H3290 H 0.60193 0.91987 0.90583 0.0
H3291 H 0.60128 0.89128 0.88229 0.0
H3292 H 0.62651 0.94271 0.93632 0.0
H3293 H 0.56332 0.90158 0.9586 0.0
H3294 H 0.58243 0.89059 0.95943 0.0
H3295 H 0.57255 0.89318 0.9374 0.0
C3296 C 0.60986 0.87283 0.92108 0.0
C3297 C 0.60603 0.87304 0.9021 0.0
C3298 C 0.61042 0.8893 0.93448 0.0
C3299 C 0.60701 0.90618 0.92915 0.0
C3300 C 0.60452 0.90692 0.9102 0.0
H3301 H 0.55477 0.99155 0.97964 0.0
H3302 H 0.56603 0.96628 0.96056 0.0
C3303 C 0.60408 0.89051 0.89677 0.0
C3304 C 0.60397 0.92226 0.94319 0.0
H3305 H 0.57409 0.93373 0.97391 0.0
C3306 C 0.61519 0.94077 0.94472 0.0
C3307 C 0.58902 0.91963 0.95391 0.0
C3308 C 0.57602 0.90024 0.95222 0.0
C3309 C 0.61163 0.95686 0.95651 0.0
C3310 C 0.59659 0.9542 0.96705 0.0
C3311 C 0.58567 0.93562 0.96584 0.0
C3312 C 0.59084 0.97062 0.97819 0.0
C3313 C 0.62348 0.97667 0.95707 0.0
C3314 C 0.60118 0.98156 0.99436 0.0
C3315 C 0.59478 0.99615 1.00537 0.0
C3316 C 0.57787 0.99984 1.00043 0.0
C3317 C 0.56779 0.98907 0.98397 0.0
C3318 C 0.5742 0.97459 0.97302 0.0
H3319 H 0.6329 0.97667 0.94601 0.0
H3320 H 0.61509 0.98734 0.95548 0.0
H3321 H 0.63156 0.98155 0.97076 0.0
H3322 H 0.614 0.97856 0.99865 0.0
H3323 H 0.60302 1.00439 0.01778 0.0
H3324 H 0.99135 0.80493 0.71018 0.0
H3325 H 0.96461 0.80191 0.72718 0.0
H3326 H 0.93274 0.76553 0.67869 0.0
H3327 H 0.95968 0.7679 0.66167 0.0
H3328 H 0.93478 0.81342 0.72059 0.0
H3329 H 0.91755 0.73398 0.71805 0.0
H3330 H 0.93879 0.74637 0.71148 0.0
H3331 H 0.9188 0.74048 0.69546 0.0
C3332 C 0.97868 0.79625 0.70307 0.0
C3333 C 0.97767 0.78665 0.68454 0.0
C3334 C 0.9634 0.79448 0.71286 0.0
C3335 C 0.94674 0.7832 0.70433 0.0
C3336 C 0.94556 0.77385 0.68572 0.0
H3337 H 0.84505 0.79954 0.74272 0.0
H3338 H 0.87252 0.79995 0.72731 0.0
C3339 C 0.96093 0.7754 0.67595 0.0
C3340 C 0.93051 0.7823 0.71471 0.0
H3341 H 0.89564 0.75142 0.72898 0.0
C3342 C 0.92628 0.79985 0.7225 0.0
C3343 C 0.91957 0.7646 0.71743 0.0
C3344 C 0.92399 0.74529 0.71033 0.0
C3345 C 0.91136 0.80026 0.73277 0.0
C3346 C 0.89991 0.78257 0.73482 0.0
C3347 C 0.90429 0.76498 0.72728 0.0
C3348 C 0.88312 0.78207 0.74426 0.0
C3349 C 0.90836 0.81974 0.74161 0.0
C3350 C 0.87946 0.7712 0.75846 0.0
C3351 C 0.86339 0.77052 0.76698 0.0
C3352 C 0.85096 0.78098 0.76168 0.0
C3353 C 0.85465 0.79184 0.74753 0.0
C3354 C 0.8704 0.79211 0.73871 0.0
H3355 H 0.92133 0.83065 0.74517 0.0
H3356 H 0.89993 0.82503 0.73165 0.0
H3357 H 0.90144 0.81878 0.75441 0.0
H3358 H 0.88899 0.76317 0.76286 0.0
H3359 H 0.86066 0.76186 0.77771 0.0
H3360 H 0.17806 0.03405 0.84544 0.0
H3361 H 0.16128 0.03657 0.87283 0.0
H3362 H 0.11177 0.01017 0.83854 0.0
H3363 H 0.12869 0.0078 0.81066 0.0
H3364 H 0.136 0.0559 0.88498 0.0
H3365 H 0.10375 0.97837 0.87936 0.0
H3366 H 0.12174 0.98648 0.8655 0.0
H3367 H 0.09912 0.98846 0.85924 0.0
C3368 C 0.16358 0.0286 0.84338 0.0
C3369 C 0.15518 0.02054 0.82508 0.0
C3370 C 0.15379 0.03014 0.85947 0.0
C3371 C 0.13485 0.0234 0.85864 0.0
C3372 C 0.12628 0.01529 0.84038 0.0
H3373 H 0.05764 0.017 0.94962 0.0
H3374 H 0.0718 0.01394 0.92019 0.0
C3375 C 0.13612 0.014 0.82408 0.0
C3376 C 0.12459 0.02542 0.87669 0.0
H3377 H 0.0956 1.00006 0.90364 0.0
C3378 C 0.12721 0.04353 0.8889 0.0
C3379 C 0.11271 0.00973 0.88257 0.0
C3380 C 0.1092 0.9896 0.87114 0.0
C3381 C 0.1185 0.04642 0.90579 0.0
C3382 C 0.10699 0.03063 0.91204 0.0
C3383 C 0.10425 0.0125 0.8997 0.0
C3384 C 0.09784 0.03259 0.9309 0.0
C3385 C 0.12131 0.06692 0.91629 0.0
C3386 C 0.10706 0.04378 0.94792 0.0
C3387 C 0.09866 0.04588 0.96496 0.0
C3388 C 0.08051 0.03656 0.96641 0.0
C3389 C 0.0714 0.02483 0.9496 0.0
C3390 C 0.07975 0.02294 0.93244 0.0
H3391 H 0.12439 0.07758 0.90688 0.0
H3392 H 0.10922 0.06936 0.92332 0.0
H3393 H 0.13302 0.06988 0.92687 0.0
H3394 H 0.12111 0.05088 0.94829 0.0
H3395 H 0.10665 0.05482 0.97722 0.0
H3396 H 0.81022 0.3738 0.56459 0.0
H3397 H 0.81496 0.36541 0.59518 0.0
H3398 H 0.81775 0.42472 0.62112 0.0
H3399 H 0.81405 0.43334 0.59044 0.0
H3400 H 0.84428 0.41379 0.63488 0.0
H3401 H 0.78452 0.35549 0.63595 0.0
H3402 H 0.79602 0.34948 0.61585 0.0
H3403 H 0.78615 0.37043 0.61833 0.0
C3404 C 0.81152 0.38495 0.57685 0.0
C3405 C 0.8118 0.40422 0.57518 0.0
C3406 C 0.81408 0.38012 0.59438 0.0
C3407 C 0.81641 0.39434 0.61058 0.0
C3408 C 0.81596 0.41346 0.60888 0.0
H3409 H 0.82829 0.35682 0.71812 0.0
H3410 H 0.81646 0.37001 0.69237 0.0
C3411 C 0.81382 0.41838 0.59135 0.0
C3412 C 0.82117 0.38974 0.62903 0.0
H3413 H 0.81054 0.35602 0.65683 0.0
C3414 C 0.83668 0.40133 0.63979 0.0
C3415 C 0.81114 0.37374 0.63577 0.0
C3416 C 0.79342 0.36174 0.62594 0.0
C3417 C 0.84288 0.3969 0.65658 0.0
C3418 C 0.83377 0.37991 0.66243 0.0
C3419 C 0.81776 0.36884 0.65219 0.0
C3420 C 0.8411 0.37288 0.67857 0.0
C3421 C 0.85911 0.41056 0.66785 0.0
C3422 C 0.85881 0.37 0.67934 0.0
C3423 C 0.86563 0.36282 0.69414 0.0
C3424 C 0.85474 0.3579 0.70822 0.0
C3425 C 0.83695 0.36054 0.7074 0.0
C3426 C 0.8302 0.36805 0.69272 0.0
H3427 H 0.86014 0.42563 0.66546 0.0
H3428 H 0.85858 0.41057 0.68297 0.0
H3429 H 0.87155 0.40605 0.66346 0.0
H3430 H 0.86727 0.37294 0.66828 0.0
H3431 H 0.87927 0.36054 0.69427 0.0
H3432 H 0.4188 0.04112 0.37674 0.0
H3433 H 0.44145 0.04731 0.40332 0.0
H3434 H 0.47936 0.08277 0.37464 0.0
H3435 H 0.4569 0.07672 0.34798 0.0
H3436 H 0.47651 0.03673 0.39814 0.0
H3437 H 0.48261 0.1144 0.42916 0.0
H3438 H 0.46258 0.0999 0.41514 0.0
H3439 H 0.48255 0.10832 0.40428 0.0
C3440 C 0.43181 0.05056 0.37619 0.0
C3441 C 0.43607 0.05827 0.36013 0.0
C3442 C 0.44474 0.05404 0.39138 0.0
C3443 C 0.46201 0.06551 0.39088 0.0
C3444 C 0.46603 0.07403 0.37532 0.0
H3445 H 0.55525 0.05847 0.46364 0.0
H3446 H 0.53779 0.06349 0.43634 0.0
C3447 C 0.45318 0.07047 0.36007 0.0
C3448 C 0.47631 0.06696 0.40585 0.0
H3449 H 0.50252 0.09798 0.44235 0.0
C3450 C 0.4823 0.05013 0.40775 0.0
C3451 C 0.48381 0.08451 0.41822 0.0
C3452 C 0.47756 0.10285 0.41678 0.0
C3453 C 0.49541 0.05028 0.422 0.0
C3454 C 0.50278 0.06777 0.43455 0.0
C3455 C 0.49699 0.08469 0.43249 0.0
C3456 C 0.51476 0.068 0.45118 0.0
C3457 C 0.50079 0.03158 0.424 0.0
C3458 C 0.50781 0.0696 0.46853 0.0
C3459 C 0.51768 0.0667 0.48398 0.0
C3460 C 0.53475 0.06234 0.48238 0.0
C3461 C 0.54222 0.06196 0.46526 0.0
C3462 C 0.53222 0.0647 0.44968 0.0
H3463 H 0.49212 0.01885 0.41456 0.0
H3464 H 0.51497 0.0325 0.4207 0.0
H3465 H 0.5 0.02914 0.43855 0.0
H3466 H 0.49437 0.07215 0.46995 0.0
H3467 H 0.51173 0.06737 0.4971 0.0
H3468 H 0.79259 0.69243 0.07721 0.0
H3469 H 0.79228 0.70717 0.1097 0.0
H3470 H 0.81112 0.76389 0.09647 0.0
H3471 H 0.81176 0.74912 0.06378 0.0
H3472 H 0.82835 0.76003 0.1291 0.0
H3473 H 0.75477 0.73487 0.1308 0.0
H3474 H 0.76532 0.71518 0.12316 0.0
H3475 H 0.76542 0.73374 0.10934 0.0
C3476 C 0.79673 0.70805 0.08116 0.0
C3477 C 0.80211 0.71957 0.06778 0.0
C3478 C 0.79639 0.7165 0.09978 0.0
C3479 C 0.80121 0.73673 0.10557 0.0
C3480 C 0.80714 0.74827 0.09238 0.0
H3481 H 0.80819 0.80134 0.22207 0.0
H3482 H 0.80539 0.79511 0.18771 0.0
C3483 C 0.80754 0.7398 0.07368 0.0
C3484 C 0.80026 0.74559 0.12542 0.0
H3485 H 0.77226 0.74532 0.16049 0.0
C3486 C 0.81601 0.75709 0.13588 0.0
C3487 C 0.78412 0.74197 0.13435 0.0
C3488 C 0.76641 0.73094 0.12378 0.0
C3489 C 0.8163 0.76403 0.15512 0.0
C3490 C 0.80038 0.75954 0.16418 0.0
C3491 C 0.78447 0.74875 0.15359 0.0
C3492 C 0.8005 0.76388 0.18487 0.0
C3493 C 0.83385 0.77528 0.16586 0.0
C3494 C 0.7981 0.74847 0.19467 0.0
C3495 C 0.79968 0.75199 0.2141 0.0
C3496 C 0.80334 0.77101 0.2243 0.0
C3497 C 0.80509 0.78653 0.21456 0.0
C3498 C 0.80367 0.78298 0.19496 0.0
H3499 H 0.84544 0.77556 0.15724 0.0
H3500 H 0.83281 0.79044 0.17089 0.0
H3501 H 0.83664 0.76889 0.17822 0.0
H3502 H 0.79562 0.73364 0.18726 0.0
H3503 H 0.79841 0.73977 0.22123 0.0
H3504 H 0.12151 0.00798 0.71869 0.0
H3505 H 0.10742 0.0123 0.68905 0.0
H3506 H 0.15998 0.0287 0.67012 0.0
H3507 H 0.17403 0.02432 0.69966 0.0
H3508 H 0.10614 0.04129 0.67019 0.0
H3509 H 0.13794 0.99186 0.62399 0.0
H3510 H 0.13936 0.99298 0.64882 0.0
H3511 H 0.1543 0.01071 0.6388 0.0
C3512 C 0.13022 0.01229 0.70822 0.0
C3513 C 0.14923 0.01541 0.71215 0.0
C3514 C 0.12199 0.01492 0.69096 0.0
C3515 C 0.13218 0.02061 0.67632 0.0
C3516 C 0.15121 0.02382 0.68032 0.0
H3517 H 0.11077 0.04082 0.55994 0.0
H3518 H 0.12278 0.0372 0.59041 0.0
C3519 C 0.15944 0.02134 0.69762 0.0
C3520 C 0.12309 0.02338 0.65737 0.0
H3521 H 0.12256 0.01165 0.60937 0.0
C3522 C 0.10981 0.03463 0.65697 0.0
C3523 C 0.12728 0.01502 0.63942 0.0
C3524 C 0.14035 1.00181 0.63768 0.0
C3525 C 0.10147 0.03815 0.64003 0.0
C3526 C 0.10571 0.02981 0.62206 0.0
C3527 C 0.11887 0.0184 0.62253 0.0
C3528 C 0.09744 0.03304 0.60287 0.0
C3529 C 0.08866 0.05162 0.64181 0.0
C3530 C 0.07874 0.03227 0.59833 0.0
C3531 C 0.07166 0.03465 0.58037 0.0
C3532 C 0.08286 0.03783 0.56579 0.0
C3533 C 0.10141 0.03861 0.5704 0.0
C3534 C 0.10843 0.03635 0.58819 0.0
H3535 H 0.09109 0.06146 0.65556 0.0
H3536 H 0.08993 0.0606 0.63079 0.0
H3537 H 0.07461 0.04294 0.64056 0.0
H3538 H 0.06928 0.02922 0.60849 0.0
H3539 H 0.05729 0.03346 0.57779 0.0
H3540 H 0.78797 0.41524 0.45265 0.0
H3541 H 0.78395 0.39316 0.42271 0.0
H3542 H 0.80682 0.35266 0.44847 0.0
H3543 H 0.81007 0.37422 0.47854 0.0
H3544 H 0.80928 0.38342 0.40398 0.0
H3545 H 0.76591 0.31579 0.41696 0.0
H3546 H 0.76919 0.33843 0.43308 0.0
H3547 H 0.78552 0.32353 0.43335 0.0
C3548 C 0.79174 0.40141 0.45199 0.0
C3549 C 0.79926 0.39643 0.46796 0.0
C3550 C 0.78947 0.38882 0.43488 0.0
C3551 C 0.79488 0.3711 0.43332 0.0
C3552 C 0.80202 0.36593 0.44935 0.0
H3553 H 0.82917 0.31702 0.33043 0.0
H3554 H 0.82761 0.33349 0.36219 0.0
C3555 C 0.80398 0.37835 0.46655 0.0
C3556 C 0.79473 0.35904 0.41472 0.0
H3557 H 0.78259 0.31278 0.39005 0.0
C3558 C 0.80326 0.36801 0.40091 0.0
C3559 C 0.78672 0.33896 0.41057 0.0
C3560 C 0.77616 0.32868 0.42423 0.0
C3561 C 0.80427 0.35746 0.38322 0.0
C3562 C 0.79722 0.33718 0.37944 0.0
C3563 C 0.78833 0.32825 0.39309 0.0
C3564 C 0.79847 0.32518 0.3612 0.0
C3565 C 0.81254 0.36832 0.36868 0.0
C3566 C 0.78275 0.31399 0.35055 0.0
C3567 C 0.78369 0.30417 0.3326 0.0
C3568 C 0.80034 0.30545 0.32498 0.0
C3569 C 0.81614 0.31591 0.33595 0.0
C3570 C 0.81524 0.32545 0.35402 0.0
H3571 H 0.81208 0.38389 0.37187 0.0
H3572 H 0.82692 0.36751 0.36838 0.0
H3573 H 0.8055 0.36202 0.35463 0.0
H3574 H 0.76966 0.31351 0.35581 0.0
H3575 H 0.77129 0.29657 0.32436 0.0
H3576 H 0.42184 0.03699 0.23809 0.0
H3577 H 0.44128 0.03559 0.21257 0.0
H3578 H 0.48303 0.08004 0.24614 0.0
H3579 H 0.46367 0.08175 0.27159 0.0
H3580 H 0.48021 0.08217 0.20721 0.0
H3581 H 0.48372 0.00891 0.2207 0.0
H3582 H 0.46143 0.01239 0.21537 0.0
H3583 H 0.47449 0.0257 0.23645 0.0
C3584 C 0.43495 0.04686 0.23985 0.0
C3585 C 0.44136 0.05925 0.25694 0.0
C3586 C 0.44607 0.04595 0.2253 0.0
C3587 C 0.46371 0.05738 0.2277 0.0
C3588 C 0.4695 0.071 0.24411 0.0
H3589 H 0.56147 0.06184 0.17098 0.0
H3590 H 0.53888 0.06747 0.19268 0.0
C3591 C 0.45841 0.07193 0.25863 0.0
C3592 C 0.47681 0.05372 0.21413 0.0
H3593 H 0.50013 0.01996 0.19681 0.0
C3594 C 0.48454 0.06857 0.20484 0.0
C3595 C 0.48253 0.036 0.21129 0.0
C3596 C 0.47526 0.01986 0.22156 0.0
C3597 C 0.49772 0.06605 0.19253 0.0
C3598 C 0.50349 0.04836 0.18979 0.0
C3599 C 0.49567 0.0335 0.199 0.0
C3600 C 0.51739 0.04475 0.17714 0.0
C3601 C 0.50516 0.08218 0.18235 0.0
C3602 C 0.51294 0.02963 0.16171 0.0
C3603 C 0.52582 0.02624 0.14951 0.0
C3604 C 0.54342 0.03788 0.15253 0.0
C3605 C 0.54804 0.0526 0.16836 0.0
C3606 C 0.5351 0.056 0.1806 0.0
H3607 H 0.49633 0.09272 0.18253 0.0
H3608 H 0.51864 0.09011 0.18918 0.0
H3609 H 0.50676 0.07631 0.16766 0.0
H3610 H 0.4994 0.02064 0.15896 0.0
H3611 H 0.52195 0.01461 0.13756 0.0
H3612 H 0.80758 0.73663 0.97494 0.0
H3613 H 0.80982 0.75354 0.9482 0.0
H3614 H 0.79754 0.69857 0.91065 0.0
H3615 H 0.79533 0.6817 0.93683 0.0
H3616 H 0.83258 0.74964 0.91628 0.0
H3617 H 0.75924 0.72777 0.89408 0.0
H3618 H 0.76841 0.72726 0.91723 0.0
H3619 H 0.76936 0.7082 0.89822 0.0
C3620 C 0.80545 0.72815 0.961 0.0
C3621 C 0.80119 0.70772 0.95822 0.0
C3622 C 0.80673 0.73784 0.9457 0.0
C3623 C 0.80358 0.72733 0.92735 0.0
C3624 C 0.79975 0.70704 0.92461 0.0
H3625 H 0.79707 0.74222 0.81283 0.0
H3626 H 0.79627 0.73128 0.8426 0.0
C3627 C 0.79857 0.6974 0.93974 0.0
C3628 C 0.80413 0.73719 0.91085 0.0
H3629 H 0.77826 0.74029 0.87221 0.0
C3630 C 0.82067 0.74785 0.90676 0.0
C3631 C 0.78863 0.73476 0.89832 0.0
C3632 C 0.77035 0.72402 0.9022 0.0
C3633 C 0.82227 0.75542 0.89016 0.0
C3634 C 0.80679 0.75266 0.87742 0.0
C3635 C 0.79017 0.74241 0.88182 0.0
C3636 C 0.80755 0.75963 0.8592 0.0
C3637 C 0.84069 0.76555 0.88607 0.0
C3638 C 0.81399 0.7793 0.85835 0.0
C3639 C 0.81449 0.78561 0.84118 0.0
C3640 C 0.80834 0.77248 0.82435 0.0
C3641 C 0.80176 0.75285 0.82531 0.0
C3642 C 0.80135 0.74653 0.84245 0.0
H3643 H 0.85165 0.76188 0.89448 0.0
H3644 H 0.84268 0.76169 0.87112 0.0
H3645 H 0.84199 0.78146 0.88953 0.0
H3646 H 0.81844 0.78987 0.871 0.0
H3647 H 0.81955 0.80088 0.84117 0.0
H3648 H 0.84216 0.14396 0.02836 0.0
H3649 H 0.86887 0.12961 0.02776 0.0
H3650 H 0.84865 0.09555 0.97363 0.0
H3651 H 0.82202 0.10948 0.97418 0.0
H3652 H 0.86372 0.08452 0.02047 0.0
H3653 H 0.90444 0.12273 0.97148 0.0
H3654 H 0.88901 0.13352 0.98545 0.0
H3655 H 0.88045 0.11516 0.96533 0.0
C3656 C 0.84362 0.13368 0.01621 0.0
C3657 C 0.82999 0.12777 1.00135 0.0
C3658 C 0.8588 0.12548 0.01592 0.0
C3659 C 0.8607 0.11164 1.0006 0.0
C3660 C 0.84747 0.10633 0.98549 0.0
H3661 H 0.92929 0.03521 0.96216 0.0
H3662 H 0.90733 0.0557 0.96621 0.0
C3663 C 0.83224 0.11425 0.98588 0.0
C3664 C 0.87559 0.10134 1.00077 0.0
H3665 H 0.91258 0.09441 0.97857 0.0
C3666 C 0.8746 0.08683 0.01156 0.0
C3667 C 0.8895 0.10427 0.98888 0.0
C3668 C 0.89109 0.11984 0.97717 0.0
C3669 C 0.88685 0.07461 0.01028 0.0
C3670 C 0.90074 0.07738 0.99823 0.0
C3671 C 0.90193 0.09226 0.98777 0.0
C3672 C 0.9139 0.06474 0.99594 0.0
C3673 C 0.88425 0.05829 0.02118 0.0
C3674 C 0.92493 0.06305 0.01128 0.0
C3675 C 0.93723 0.05106 0.00908 0.0
C3676 C 0.93904 0.04077 0.99139 0.0
C3677 C 0.92807 0.04265 0.97601 0.0
C3678 C 0.91564 0.05452 0.97827 0.0
H3679 H 0.8703 0.05482 0.0254 0.0
H3680 H 0.88708 0.04495 0.01297 0.0
H3681 H 0.89367 0.06267 0.03402 0.0
H3682 H 0.9241 0.07108 0.02499 0.0
H3683 H 0.94527 0.04981 0.02129 0.0
H3684 H 0.37132 0.3939 0.01782 0.0
H3685 H 0.4028 0.41156 0.01843 0.0
H3686 H 0.39147 0.4599 0.05586 0.0
H3687 H 0.36025 0.442 0.05562 0.0
H3688 H 0.41488 0.4442 0.00651 0.0
H3689 H 0.43817 0.456 0.08108 0.0
H3690 H 0.41743 0.43922 0.07113 0.0
H3691 H 0.41806 0.46472 0.07754 0.0
C3692 C 0.37569 0.40823 0.0263 0.0
C3693 C 0.36332 0.4169 0.03621 0.0
C3694 C 0.39364 0.41831 0.02666 0.0
C3695 C 0.39966 0.43705 0.03733 0.0
C3696 C 0.38738 0.44535 0.04783 0.0
H3697 H 0.49545 0.53031 0.05013 0.0
H3698 H 0.46624 0.50921 0.05214 0.0
C3699 C 0.36945 0.43526 0.04744 0.0
C3700 C 0.41829 0.44849 0.03636 0.0
H3701 H 0.45626 0.47585 0.06281 0.0
C3702 C 0.42381 0.45127 0.01884 0.0
C3703 C 0.43028 0.45732 0.0524 0.0
C3704 C 0.42576 0.454 0.07157 0.0
C3705 C 0.44036 0.46351 0.01694 0.0
C3706 C 0.45236 0.47244 0.03297 0.0
C3707 C 0.4471 0.46918 0.05049 0.0
C3708 C 0.47036 0.48523 0.03186 0.0
C3709 C 0.44437 0.46731 0.99776 0.0
C3710 C 0.4827 0.4788 0.0201 0.0
C3711 C 0.49923 0.49111 0.01851 0.0
C3712 C 0.50406 0.51006 0.029 0.0
C3713 C 0.49204 0.51613 0.04142 0.0
C3714 C 0.47535 0.50393 0.04274 0.0
H3715 H 0.43178 0.46482 0.98841 0.0
H3716 H 0.45202 0.4824 0.99827 0.0
H3717 H 0.45253 0.45719 0.9915 0.0
H3718 H 0.47958 0.46422 0.01208 0.0
H3719 H 0.50819 0.48569 0.00903 0.0
H3720 H 0.38135 0.60532 0.78843 0.0
H3721 H 0.36728 0.63231 0.78626 0.0
H3722 H 0.41545 0.66253 0.76653 0.0
H3723 H 0.42921 0.6345 0.76749 0.0
H3724 H 0.36593 0.66429 0.79951 0.0
H3725 H 0.38705 0.681 0.73228 0.0
H3726 H 0.39105 0.65978 0.74033 0.0
H3727 H 0.4062 0.68311 0.74843 0.0
C3728 C 0.38919 0.61751 0.78338 0.0
C3729 C 0.40684 0.61679 0.77806 0.0
C3730 C 0.38088 0.63349 0.78222 0.0
C3731 C 0.38951 0.65044 0.77584 0.0
C3732 C 0.40742 0.65001 0.77083 0.0
H3733 H 0.33414 0.75442 0.79994 0.0
H3734 H 0.35014 0.72847 0.80282 0.0
C3735 C 0.41568 0.63367 0.77164 0.0
C3736 C 0.37974 0.66794 0.77501 0.0
H3737 H 0.3737 0.70382 0.75017 0.0
C3738 C 0.36775 0.67265 0.78846 0.0
C3739 C 0.3811 0.67966 0.76081 0.0
C3740 C 0.39187 0.67555 0.74453 0.0
C3741 C 0.3577 0.68766 0.78821 0.0
C3742 C 0.3597 0.69996 0.7745 0.0
C3743 C 0.37167 0.69524 0.76103 0.0
C3744 C 0.34932 0.7169 0.77328 0.0
C3745 C 0.34432 0.68936 0.80248 0.0
C3746 C 0.34346 0.72102 0.75591 0.0
C3747 C 0.33459 0.73654 0.75431 0.0
C3748 C 0.33031 0.74894 0.7699 0.0
C3749 C 0.33619 0.74512 0.78737 0.0
C3750 C 0.34549 0.72976 0.78899 0.0
H3751 H 0.33981 0.67549 0.80748 0.0
H3752 H 0.35083 0.70048 0.81471 0.0
H3753 H 0.3322 0.69353 0.79677 0.0
H3754 H 0.34574 0.71215 0.74318 0.0
H3755 H 0.33096 0.73884 0.74048 0.0
H3756 H 0.24643 0.61882 0.51985 0.0
H3757 H 0.21417 0.60433 0.51917 0.0
H3758 H 0.20146 0.64584 0.48716 0.0
H3759 H 0.23386 0.66023 0.48762 0.0
H3760 H 0.1884 0.62963 0.53341 0.0
H3761 H 0.17052 0.59002 0.46034 0.0
H3762 H 0.19245 0.59253 0.47217 0.0
H3763 H 0.18635 0.61325 0.4651 0.0
C3764 C 0.23675 0.62442 0.51217 0.0
C3765 C 0.24252 0.6402 0.50329 0.0
C3766 C 0.21838 0.61629 0.51195 0.0
C3767 C 0.20551 0.62395 0.50298 0.0
C3768 C 0.21124 0.63959 0.49391 0.0
H3769 H 0.08965 0.59709 0.51849 0.0
H3770 H 0.12092 0.61512 0.51876 0.0
C3771 C 0.22966 0.64777 0.49419 0.0
C3772 C 0.18612 0.61648 0.5045 0.0
H3773 H 0.14783 0.5872 0.48056 0.0
C3774 C 0.17943 0.62046 0.52186 0.0
C3775 C 0.17452 0.60474 0.48934 0.0
C3776 C 0.18118 0.59982 0.47058 0.0
C3777 C 0.16152 0.61243 0.52461 0.0
C3778 C 0.15013 0.59999 0.5096 0.0
C3779 C 0.15667 0.5966 0.49209 0.0
C3780 C 0.13168 0.58944 0.51178 0.0
C3781 C 0.15517 0.61674 0.54366 0.0
C3782 C 0.12737 0.56909 0.50768 0.0
C3783 C 0.10958 0.55888 0.50731 0.0
C3784 C 0.09593 0.56885 0.51152 0.0
C3785 C 0.1002 0.58917 0.516 0.0
C3786 C 0.118 0.59943 0.51613 0.0
H3787 H 0.16649 0.62402 0.55441 0.0
H3788 H 0.14552 0.62635 0.54342 0.0
H3789 H 0.14808 0.60317 0.54771 0.0
H3790 H 0.1377 0.56113 0.50409 0.0
H3791 H 0.1064 0.54325 0.50318 0.0
H3792 H 0.70929 0.98468 0.74462 0.0
H3793 H 0.7185 0.9557 0.75194 0.0
H3794 H 0.71088 0.97348 0.80972 0.0
H3795 H 0.70267 1.00274 0.80256 0.0
H3796 H 0.74291 0.96721 0.80671 0.0
H3797 H 0.6944 0.90451 0.76412 0.0
H3798 H 0.70514 0.9215 0.75054 0.0
H3799 H 0.69052 0.92877 0.76755 0.0
C3800 C 0.70921 0.98206 0.75876 0.0
C3801 C 0.70538 0.99583 0.77307 0.0
C3802 C 0.71436 0.96548 0.76294 0.0
C3803 C 0.71527 0.96231 0.78139 0.0
C3804 C 0.71034 0.9756 0.79541 0.0
H3805 H 0.74148 0.86314 0.82262 0.0
H3806 H 0.72575 0.88625 0.81178 0.0
C3807 C 0.70564 0.99229 0.79133 0.0
C3808 C 0.72342 0.94666 0.78668 0.0
H3809 H 0.72113 0.89787 0.77801 0.0
C3810 C 0.73801 0.95203 0.8005 0.0
C3811 C 0.71699 0.92684 0.77871 0.0
C3812 C 0.70078 0.92001 0.76454 0.0
C3813 C 0.74637 0.93826 0.80655 0.0
C3814 C 0.74048 0.91854 0.79803 0.0
C3815 C 0.72576 0.91304 0.78435 0.0
C3816 C 0.74962 0.9036 0.80321 0.0
C3817 C 0.76123 0.94499 0.82228 0.0
C3818 C 0.76815 0.90544 0.80161 0.0
C3819 C 0.77725 0.89258 0.80819 0.0
C3820 C 0.76794 0.87723 0.81612 0.0
C3821 C 0.74917 0.87493 0.81694 0.0
C3822 C 0.7401 0.88801 0.81055 0.0
H3823 H 0.76027 0.959 0.83084 0.0
H3824 H 0.76082 0.93413 0.8315 0.0
H3825 H 0.7745 0.9472 0.81643 0.0
H3826 H 0.77569 0.91715 0.79566 0.0
H3827 H 0.7917 0.89507 0.8075 0.0
H3828 H 0.76636 0.92058 0.55858 0.0
H3829 H 0.74019 0.93565 0.55888 0.0
H3830 H 0.73392 0.92364 0.49889 0.0
H3831 H 0.76029 0.90919 0.49864 0.0
H3832 H 0.73777 0.96118 0.51192 0.0
H3833 H 0.68562 0.92059 0.54924 0.0
H3834 H 0.70757 0.92774 0.56188 0.0
H3835 H 0.70406 0.91072 0.5403 0.0
C3836 C 0.75883 0.92034 0.54552 0.0
C3837 C 0.76517 0.91345 0.52859 0.0
C3838 C 0.7439 0.92906 0.54568 0.0
C3839 C 0.73495 0.93079 0.52889 0.0
C3840 C 0.74052 0.92252 0.51203 0.0
H3841 H 0.64403 0.98558 0.51078 0.0
H3842 H 0.66281 0.96198 0.51343 0.0
C3843 C 0.7555 0.91408 0.51188 0.0
C3844 C 0.7217 0.9435 0.52865 0.0
H3845 H 0.68192 0.95177 0.54434 0.0
C3846 C 0.72551 0.95897 0.51892 0.0
C3847 C 0.70561 0.9407 0.5377 0.0
C3848 C 0.70034 0.92393 0.54773 0.0
C3849 C 0.71392 0.97175 0.51814 0.0
C3850 C 0.69815 0.96938 0.52769 0.0
C3851 C 0.69409 0.95372 0.53717 0.0
C3852 C 0.68595 0.9832 0.52793 0.0
C3853 C 0.71861 0.98762 0.50688 0.0
C3854 C 0.69246 1.00288 0.5357 0.0
C3855 C 0.68181 0.01635 0.53419 0.0
C3856 C 0.6643 0.0105 0.52495 0.0
C3857 C 0.65743 0.99061 0.51801 0.0
C3858 C 0.66816 0.9771 0.51949 0.0
H3859 H 0.72831 0.98444 0.49663 0.0
H3860 H 0.70633 0.98972 0.4993 0.0
H3861 H 0.72496 1.00144 0.51637 0.0
H3862 H 0.706 0.00791 0.54262 0.0
H3863 H 0.68742 0.03146 0.54008 0.0
H3864 H 0.38635 0.5151 0.75666 0.0
H3865 H 0.37018 0.48167 0.75679 0.0
H3866 H 0.41812 0.47063 0.78294 0.0
H3867 H 0.43369 0.50441 0.78402 0.0
H3868 H 0.37066 0.44787 0.74203 0.0
H3869 H 0.38694 0.44606 0.81585 0.0
H3870 H 0.39429 0.46778 0.80664 0.0
H3871 H 0.40709 0.44924 0.8041 0.0
C3872 C 0.39327 0.50576 0.76306 0.0
C3873 C 0.41114 0.51315 0.77132 0.0
C3874 C 0.38403 0.48629 0.76287 0.0
C3875 C 0.39234 0.47305 0.77055 0.0
C3876 C 0.41063 0.48021 0.77776 0.0
H3877 H 0.35916 0.34831 0.78037 0.0
H3878 H 0.375 0.38163 0.78001 0.0
C3879 C 0.41975 0.49974 0.77819 0.0
C3880 C 0.38214 0.45189 0.77031 0.0
H3881 H 0.3739 0.41557 0.79642 0.0
C3882 C 0.37135 0.44105 0.75411 0.0
C3883 C 0.38279 0.44208 0.78573 0.0
C3884 C 0.39326 0.45196 0.80408 0.0
C3885 C 0.36183 0.42138 0.75276 0.0
C3886 C 0.36235 0.4117 0.76823 0.0
C3887 C 0.37315 0.42248 0.7844 0.0
C3888 C 0.3522 0.39057 0.76799 0.0
C3889 C 0.35187 0.41098 0.73429 0.0
C3890 C 0.3337 0.38358 0.76152 0.0
C3891 C 0.32452 0.36413 0.76153 0.0
C3892 C 0.33323 0.35074 0.76832 0.0
C3893 C 0.35168 0.35779 0.77495 0.0
C3894 C 0.36088 0.37717 0.77481 0.0
H3895 H 0.35754 0.41764 0.72263 0.0
H3896 H 0.3524 0.39543 0.73164 0.0
H3897 H 0.33753 0.41205 0.73428 0.0
H3898 H 0.32611 0.39324 0.75665 0.0
H3899 H 0.31047 0.35966 0.75621 0.0
H3900 H 0.21915 0.58848 0.2566 0.0
H3901 H 0.23433 0.62235 0.25911 0.0
H3902 H 0.19228 0.63959 0.29082 0.0
H3903 H 0.17843 0.60535 0.29023 0.0
H3904 H 0.22586 0.64927 0.2466 0.0
H3905 H 0.22231 0.64867 0.31263 0.0
H3906 H 0.20949 0.66708 0.31339 0.0
H3907 H 0.2325 0.6733 0.32322 0.0
C3908 C 0.21369 0.59952 0.26486 0.0
C3909 C 0.19844 0.59441 0.27431 0.0
C3910 C 0.22209 0.61893 0.26595 0.0
C3911 C 0.21482 0.63373 0.27567 0.0
C3912 C 0.19871 0.62858 0.28401 0.0
H3913 H 0.26419 0.75165 0.25859 0.0
H3914 H 0.2431 0.72028 0.25611 0.0
C3915 C 0.1907 0.60904 0.28352 0.0
C3916 C 0.224 0.65433 0.27623 0.0
H3917 H 0.24289 0.69719 0.30525 0.0
C3918 C 0.22963 0.65968 0.2595 0.0
C3919 C 0.22862 0.66821 0.29295 0.0
C3920 C 0.22304 0.66398 0.31156 0.0
C3921 C 0.24069 0.67784 0.25913 0.0
C3922 C 0.24569 0.69146 0.27588 0.0
C3923 C 0.23921 0.68662 0.29245 0.0
C3924 C 0.25848 0.71037 0.27685 0.0
C3925 C 0.24767 0.68174 0.24094 0.0
C3926 C 0.27393 0.71544 0.28959 0.0
C3927 C 0.28571 0.73348 0.2913 0.0
C3928 C 0.28244 0.7466 0.28006 0.0
C3929 C 0.26722 0.74149 0.26705 0.0
C3930 C 0.25519 0.72358 0.26562 0.0
H3931 H 0.24673 0.66814 0.23078 0.0
H3932 H 0.23955 0.69064 0.23469 0.0
H3933 H 0.26193 0.68977 0.24318 0.0
H3934 H 0.27676 0.70552 0.29842 0.0
H3935 H 0.29734 0.73727 0.30149 0.0
H3936 H 0.5204 0.70423 0.41455 0.0
H3937 H 0.52483 0.67582 0.42716 0.0
H3938 H 0.53551 0.7103 0.48234 0.0
H3939 H 0.53166 0.73887 0.46966 0.0
H3940 H 0.55846 0.68786 0.47869 0.0
H3941 H 0.49194 0.64021 0.45252 0.0
H3942 H 0.504 0.64832 0.43394 0.0
H3943 H 0.49706 0.66563 0.45124 0.0
C3944 C 0.52358 0.70579 0.42939 0.0
C3945 C 0.52552 0.72402 0.44101 0.0
C3946 C 0.52598 0.68937 0.43669 0.0
C3947 C 0.53013 0.69045 0.45593 0.0
C3948 C 0.53222 0.70873 0.4675 0.0
H3949 H 0.54503 0.60086 0.52395 0.0
H3950 H 0.54108 0.63137 0.51455 0.0
C3951 C 0.52995 0.72518 0.46019 0.0
C3952 C 0.53283 0.67285 0.46391 0.0
H3953 H 0.51416 0.62484 0.46399 0.0
C3954 C 0.54859 0.6742 0.47562 0.0
C3955 C 0.52011 0.65473 0.46014 0.0
C3956 C 0.50225 0.65215 0.44894 0.0
C3957 C 0.55214 0.65816 0.483 0.0
C3958 C 0.53968 0.63998 0.4788 0.0
C3959 C 0.52384 0.63864 0.46731 0.0
C3960 C 0.54324 0.62196 0.48523 0.0
C3961 C 0.56967 0.66046 0.49459 0.0
C3962 C 0.54591 0.60635 0.47213 0.0
C3963 C 0.54843 0.5891 0.47754 0.0
C3964 C 0.54832 0.58667 0.49626 0.0
C3965 C 0.54568 0.60229 0.50951 0.0
C3966 C 0.54331 0.61976 0.50407 0.0
H3967 H 0.57853 0.6751 0.49571 0.0
H3968 H 0.56689 0.65794 0.50881 0.0
H3969 H 0.57697 0.64947 0.48832 0.0
H3970 H 0.54589 0.60743 0.45756 0.0
H3971 H 0.55021 0.57739 0.46688 0.0
H3972 H 0.64932 0.30795 0.6278 0.0
H3973 H 0.67604 0.30516 0.64659 0.0
H3974 H 0.65998 0.33899 0.69444 0.0
H3975 H 0.63307 0.34163 0.67582 0.0
H3976 H 0.70033 0.34827 0.68641 0.0
H3977 H 0.67115 0.27131 0.69028 0.0
H3978 H 0.66991 0.2783 0.66782 0.0
H3979 H 0.65723 0.28782 0.68561 0.0
C3980 C 0.65158 0.31509 0.64224 0.0
C3981 C 0.63895 0.32509 0.6502 0.0
C3982 C 0.66686 0.31336 0.65302 0.0
C3983 C 0.67004 0.32171 0.67203 0.0
C3984 C 0.65787 0.33237 0.67985 0.0
H3985 H 0.74164 0.30163 0.76138 0.0
H3986 H 0.71621 0.30645 0.74198 0.0
C3987 C 0.64247 0.33392 0.66913 0.0
C3988 C 0.68565 0.31875 0.68387 0.0
H3989 H 0.70081 0.28461 0.70422 0.0
C3990 C 0.70044 0.33434 0.69026 0.0
C3991 C 0.68582 0.30064 0.6891 0.0
C3992 C 0.67018 0.2835 0.683 0.0
C3993 C 0.7154 0.33222 0.70144 0.0
C3994 C 0.71566 0.31404 0.70651 0.0
C3995 C 0.70074 0.29853 0.70033 0.0
C3996 C 0.73124 0.3109 0.71828 0.0
C3997 C 0.73077 0.34953 0.70801 0.0
C3998 C 0.74825 0.31157 0.71148 0.0
C3999 C 0.76281 0.30862 0.72251 0.0
C4000 C 0.76084 0.30501 0.74071 0.0
C4001 C 0.74377 0.30438 0.74748 0.0
C4002 C 0.72915 0.3071 0.73636 0.0
H4003 H 0.72713 0.36328 0.7059 0.0
H4004 H 0.73498 0.35067 0.72299 0.0
H4005 H 0.74253 0.34775 0.70012 0.0
H4006 H 0.75029 0.31435 0.69757 0.0
H4007 H 0.77572 0.30961 0.71686 0.0
H4008 H 0.02766 0.32376 0.96356 0.0
H4009 H 0.02975 0.35624 0.98215 0.0
H4010 H 0.02935 0.38003 0.93191 0.0
H4011 H 0.02722 0.34809 0.91342 0.0
H4012 H 0.05558 0.39199 0.98444 0.0
H4013 H 0.98836 0.39897 0.95767 0.0
H4014 H 0.99501 0.37601 0.95482 0.0
H4015 H 1.00198 0.39267 0.93937 0.0
C4016 C 0.02805 0.3359 0.95647 0.0
C4017 C 0.02713 0.33304 0.93687 0.0
C4018 C 0.02924 0.35452 0.96714 0.0
C4019 C 0.02933 0.37066 0.95848 0.0
C4020 C 0.02886 0.36786 0.93901 0.0
H4021 H 0.04388 0.49314 0.97573 0.0
H4022 H 0.03675 0.45795 0.96588 0.0
C4023 C 0.02775 0.34943 0.9284 0.0
C4024 C 0.03009 0.39054 0.96945 0.0
H4025 H 0.00894 0.42852 0.97222 0.0
C4026 C 0.04522 0.39986 0.98203 0.0
C4027 C 0.01658 0.40093 0.96644 0.0
C4028 C 0.99948 0.39158 0.95399 0.0
C4029 C 0.04771 0.4195 0.99074 0.0
C4030 C 0.03457 0.43013 0.98704 0.0
C4031 C 0.01907 0.42052 0.97509 0.0
C4032 C 0.0375 0.45163 0.99373 0.0
C4033 C 0.06486 0.42901 1.00304 0.0
C4034 C 0.0398 0.46008 0.01279 0.0
C4035 C 0.0438 0.48043 0.0185 0.0
C4036 C 0.04544 0.49266 1.00523 0.0
C4037 C 0.04255 0.48412 0.98628 0.0
C4038 C 0.0385 0.46395 0.98062 0.0
H4039 H 0.07502 0.41988 1.00189 0.0
H4040 H 0.07091 0.44326 0.99946 0.0
H4041 H 0.06173 0.43155 0.01775 0.0
H4042 H 0.0388 0.45098 0.02325 0.0
H4043 H 0.04619 0.48656 0.0332 0.0
H4044 H 0.05003 0.82489 0.16343 0.0
H4045 H 0.02573 0.82303 0.18408 0.0
H4046 H 0.9885 0.78692 0.13924 0.0
H4047 H 0.01248 0.78928 0.11839 0.0
H4048 H 0.97238 0.81196 0.15831 0.0
H4049 H 0.00647 0.77821 0.20851 0.0
H4050 H 0.01947 0.80135 0.20587 0.0
H4051 H 0.0149 0.78143 0.18646 0.0
C4052 C 0.03667 0.8166 0.15792 0.0
C4053 C 0.03336 0.80714 0.13919 0.0
C4054 C 0.02276 0.81541 0.16982 0.0
C4055 C 0.00526 0.80443 0.16343 0.0
C4056 C 1.00184 0.7954 0.14463 0.0
H4057 H 0.92491 0.75878 0.23392 0.0
H4058 H 0.94786 0.76417 0.21214 0.0
C4059 C 0.01565 0.79676 0.13268 0.0
C4060 C 0.99052 0.80217 0.17622 0.0
H4061 H 0.97957 0.78754 0.21709 0.0
C4062 C 0.97397 0.80659 0.17116 0.0
C4063 C 0.99236 0.79488 0.19291 0.0
C4064 C 0.00918 0.7885 0.19869 0.0
C4065 C 0.95934 0.80399 0.18222 0.0
C4066 C 0.96137 0.79725 0.19918 0.0
C4067 C 0.97794 0.79285 0.20422 0.0
C4068 C 0.94642 0.79389 0.2116 0.0
C4069 C 0.94168 0.80789 0.17524 0.0
C4070 C 0.93764 0.80868 0.21857 0.0
C4071 C 0.92424 0.80549 0.2309 0.0
C4072 C 0.91958 0.78758 0.23686 0.0
C4073 C 0.92825 0.77279 0.22973 0.0
C4074 C 0.94142 0.77588 0.21726 0.0
H4075 H 0.94068 0.80724 0.15994 0.0
H4076 H 0.93001 0.79731 0.17866 0.0
H4077 H 0.94071 0.82266 0.18191 0.0
H4078 H 0.94146 0.82287 0.21489 0.0
H4079 H 0.91801 0.81727 0.23632 0.0
H4080 H 0.53244 0.32798 0.12206 0.0
H4081 H 0.54083 0.35168 0.10181 0.0
H4082 H 0.49012 0.32867 0.06826 0.0
H4083 H 0.48164 0.30489 0.08821 0.0
H4084 H 0.52062 0.33074 0.04797 0.0
H4085 H 0.5221 0.40032 0.09532 0.0
H4086 H 0.53487 0.3848 0.10417 0.0
H4087 H 0.51073 0.37716 0.10014 0.0
C4088 C 0.52289 0.32821 0.11062 0.0
C4089 C 0.50638 0.31446 0.10674 0.0
C4090 C 0.52772 0.34177 0.09906 0.0
C4091 C 0.51607 0.3419 0.08358 0.0
C4092 C 0.49931 0.32874 0.08013 0.0
H4093 H 0.52207 0.42712 0.01303 0.0
H4094 H 0.51271 0.40294 0.03252 0.0
C4095 C 0.49448 0.3152 0.0916 0.0
C4096 C 0.52171 0.35485 0.07024 0.0
H4097 H 0.53282 0.40233 0.06581 0.0
C4098 C 0.52329 0.3464 0.05183 0.0
C4099 C 0.52507 0.37522 0.07536 0.0
C4100 C 0.52299 0.38498 0.09478 0.0
C4101 C 0.52815 0.35785 0.03836 0.0
C4102 C 0.5317 0.37823 0.04354 0.0
C4103 C 0.53014 0.38667 0.06194 0.0
C4104 C 0.53661 0.39118 0.03002 0.0
C4105 C 0.52908 0.34807 0.01864 0.0
C4106 C 0.55294 0.3922 0.0218 0.0
C4107 C 0.55831 0.40599 0.01059 0.0
C4108 C 0.54746 0.41903 0.00764 0.0
C4109 C 0.53075 0.41734 0.01522 0.0
C4110 C 0.5254 0.40358 0.02635 0.0
H4111 H 0.52217 0.33249 0.01608 0.0
H4112 H 0.52289 0.35535 0.00857 0.0
H4113 H 0.54343 0.34908 0.01597 0.0
H4114 H 0.56188 0.38291 0.02467 0.0
H4115 H 0.57134 0.40716 1.00509 0.0
H4116 H 0.0398 0.30236 0.35538 0.0
H4117 H 0.01084 0.30942 0.34624 0.0
H4118 H 0.01983 0.35705 0.39281 0.0
H4119 H 0.04965 0.35115 0.40062 0.0
H4120 H 0.98183 0.30855 0.36134 0.0
H4121 H 0.00842 0.38184 0.37894 0.0
H4122 H 0.00698 0.38547 0.35532 0.0
H4123 H 0.02196 0.37136 0.36267 0.0
C4124 C 0.03583 0.31479 0.36315 0.0
C4125 C 0.04735 0.32701 0.37787 0.0
C4126 C 0.01914 0.31863 0.3582 0.0
C4127 C 0.01332 0.3343 0.36839 0.0
C4128 C 0.0243 0.34553 0.38411 0.0
H4129 H 0.91508 0.37421 0.34066 0.0
H4130 H 0.94199 0.36959 0.35782 0.0
C4131 C 0.04126 0.34206 0.38866 0.0
C4132 C 0.99561 0.33831 0.3626 0.0
H4133 H 0.97547 0.37294 0.34944 0.0
C4134 C 0.98052 0.32267 0.35873 0.0
C4135 C 0.99355 0.35689 0.35981 0.0
C4136 C 0.00863 0.37478 0.36429 0.0
C4137 C 0.96381 0.32481 0.35138 0.0
C4138 C 0.96219 0.343 0.34735 0.0
C4139 C 0.97687 0.3589 0.35221 0.0
C4140 C 0.94575 0.34566 0.33724 0.0
C4141 C 0.94806 0.30753 0.3481 0.0
C4142 C 0.93922 0.33407 0.31981 0.0
C4143 C 0.92385 0.3366 0.31012 0.0
C4144 C 0.91495 0.35103 0.3175 0.0
C4145 C 0.92179 0.36305 0.33466 0.0
C4146 C 0.93706 0.36035 0.34448 0.0
H4147 H 0.94954 0.29739 0.35772 0.0
H4148 H 0.93506 0.312 0.34992 0.0
H4149 H 0.94754 0.29947 0.33369 0.0
H4150 H 0.94607 0.32313 0.31362 0.0
H4151 H 0.91897 0.32734 0.29678 0.0
H4152 H 0.01088 0.7086 0.65441 0.0
H4153 H 0.0112 0.67572 0.63908 0.0
H4154 H 0.98474 0.68521 0.58898 0.0
H4155 H 0.98443 0.71818 0.60411 0.0
H4156 H 0.98464 0.64109 0.61493 0.0
H4157 H 0.03908 0.68219 0.5798 0.0
H4158 H 0.03071 0.69312 0.60059 0.0
H4159 H 0.01761 0.68888 0.57857 0.0
C4160 C 1.00458 0.7035 0.64033 0.0
C4161 C 0.998 0.71609 0.63031 0.0
C4162 C 1.00472 0.68468 0.63164 0.0
C4163 C 0.99824 0.67827 0.61288 0.0
C4164 C 0.98989 0.69005 0.60347 0.0
H4165 H 0.00564 0.57389 0.53764 0.0
H4166 H 0.99453 0.59938 0.55692 0.0
C4167 C 0.98975 0.70887 0.61213 0.0
C4168 C 1.00323 0.66106 0.60239 0.0
H4169 H 0.03254 0.64826 0.57159 0.0
C4170 C 0.99502 0.64255 0.60536 0.0
C4171 C 0.01704 0.66321 0.59024 0.0
C4172 C 0.02677 0.6829 0.58713 0.0
C4173 C 1.0002 0.62599 0.59624 0.0
C4174 C 0.01384 0.62818 0.58392 0.0
C4175 C 0.02208 0.64671 0.58107 0.0
C4176 C 0.01993 0.61154 0.57368 0.0
C4177 C 0.99135 0.60634 0.60005 0.0
C4178 C 0.03791 0.61005 0.57671 0.0
C4179 C 0.04436 0.59564 0.56562 0.0
C4180 C 0.03295 0.58263 0.55119 0.0
C4181 C 0.01482 0.58387 0.5485 0.0
C4182 C 0.00837 0.59825 0.55964 0.0
H4183 H 0.98385 0.60748 0.61264 0.0
H4184 H 0.98165 0.59843 0.588 0.0
H4185 H 1.00157 0.59764 0.60189 0.0
H4186 H 0.04703 0.62032 0.58743 0.0
H4187 H 0.05837 0.59501 0.56806 0.0
H4188 H 0.64263 0.79065 0.867 0.0
H4189 H 0.6719 0.78701 0.85601 0.0
H4190 H 0.67678 0.84005 0.83442 0.0
H4191 H 0.6479 0.84384 0.84531 0.0
H4192 H 0.67873 0.78422 0.81776 0.0
H4193 H 0.72668 0.84608 0.86217 0.0
H4194 H 0.70433 0.83661 0.86843 0.0
H4195 H 0.70749 0.85293 0.8521 0.0
C4196 C 0.65015 0.80171 0.86025 0.0
C4197 C 0.64295 0.81747 0.85693 0.0
C4198 C 0.66679 0.79959 0.85396 0.0
C4199 C 0.67652 0.81338 0.84461 0.0
C4200 C 0.66963 0.82943 0.8419 0.0
H4201 H 0.76324 0.83278 0.77619 0.0
H4202 H 0.73598 0.83212 0.79272 0.0
C4203 C 0.65303 0.83147 0.848 0.0
C4204 C 0.69304 0.81036 0.83602 0.0
H4205 H 0.73679 0.8326 0.83348 0.0
C4206 C 0.69152 0.79463 0.82135 0.0
C4207 C 0.70964 0.82402 0.84075 0.0
C4208 C 0.71222 0.84076 0.85685 0.0
C4209 C 0.70598 0.79278 0.81062 0.0
C4210 C 0.72231 0.8069 0.81487 0.0
C4211 C 0.72407 0.82212 0.83004 0.0
C4212 C 0.73776 0.8063 0.80368 0.0
C4213 C 0.70356 0.77617 0.79443 0.0
C4214 C 0.7476 0.79197 0.80438 0.0
C4215 C 0.76314 0.79241 0.7951 0.0
C4216 C 0.76895 0.80701 0.78474 0.0
C4217 C 0.75886 0.82116 0.78378 0.0
C4218 C 0.74339 0.82084 0.79325 0.0
H4219 H 0.71156 0.76574 0.79789 0.0
H4220 H 0.68923 0.76832 0.79111 0.0
H4221 H 0.70862 0.78149 0.78188 0.0
H4222 H 0.74361 0.78084 0.81262 0.0
H4223 H 0.77086 0.78162 0.79653 0.0
H4224 H 0.48503 0.58495 0.72916 0.0
H4225 H 0.49879 0.58263 0.6995 0.0
H4226 H 0.44921 0.54566 0.67201 0.0
H4227 H 0.43528 0.54882 0.70142 0.0
H4228 H 0.50983 0.55976 0.67586 0.0
H4229 H 0.45501 0.57433 0.63206 0.0
H4230 H 0.45471 0.5771 0.65691 0.0
H4231 H 0.44694 0.55353 0.64227 0.0
C4232 C 0.47684 0.57652 0.71679 0.0
C4233 C 0.45864 0.56739 0.7183 0.0
C4234 C 0.48489 0.57507 0.69947 0.0
C4235 C 0.47536 0.56432 0.6824 0.0
C4236 C 0.45724 0.55485 0.68407 0.0
H4237 H 0.5058 0.53068 0.56498 0.0
H4238 H 0.49124 0.53379 0.59417 0.0
C4239 C 0.44912 0.55652 0.70134 0.0
C4240 C 0.48445 0.56265 0.66348 0.0
H4241 H 0.4775 0.56175 0.61594 0.0
C4242 C 0.50256 0.56041 0.66293 0.0
C4243 C 0.47575 0.56339 0.64578 0.0
C4244 C 0.45712 0.56743 0.64426 0.0
C4245 C 0.5116 0.55857 0.64613 0.0
C4246 C 0.50279 0.55903 0.62848 0.0
C4247 C 0.48471 0.5612 0.62895 0.0
C4248 C 0.51197 0.55733 0.60972 0.0
C4249 C 0.5306 0.55556 0.64749 0.0
C4250 C 0.52869 0.56957 0.60744 0.0
C4251 C 0.53702 0.56796 0.59031 0.0
C4252 C 0.52935 0.55391 0.57428 0.0
C4253 C 0.51253 0.54179 0.57651 0.0
C4254 C 0.50405 0.54357 0.59357 0.0
H4255 H 0.5337 0.54995 0.66027 0.0
H4256 H 0.53289 0.54527 0.63522 0.0
H4257 H 0.54021 0.56964 0.64804 0.0
H4258 H 0.53535 0.58079 0.61894 0.0
H4259 H 0.54958 0.578 0.58968 0.0
H4260 H 0.7873 0.1391 0.93804 0.0
H4261 H 0.78434 0.15189 0.90939 0.0
H4262 H 0.77571 0.20498 0.94124 0.0
H4263 H 0.77962 0.1926 0.96999 0.0
H4264 H 0.75687 0.16037 0.89385 0.0
H4265 H 0.81051 0.22726 0.90831 0.0
H4266 H 0.80877 0.20912 0.92283 0.0
H4267 H 0.79546 0.22725 0.92627 0.0
C4268 C 0.78513 0.15366 0.93893 0.0
C4269 C 0.78384 0.16494 0.95625 0.0
C4270 C 0.78338 0.16093 0.92255 0.0
C4271 C 0.78005 0.17953 0.92309 0.0
C4272 C 0.77885 0.19085 0.94042 0.0
H4273 H 0.72448 0.21917 0.83686 0.0
H4274 H 0.73317 0.20222 0.86101 0.0
C4275 C 0.781 0.18374 0.95687 0.0
C4276 C 0.77664 0.18653 0.90549 0.0
H4277 H 0.78709 0.2258 0.88431 0.0
C4278 C 0.76368 0.17459 0.89167 0.0
C4279 C 0.78576 0.20488 0.90235 0.0
C4280 C 0.80104 0.21774 0.91565 0.0
C4281 C 0.75913 0.18076 0.87517 0.0
C4282 C 0.76722 0.19971 0.87275 0.0
C4283 C 0.78065 0.21136 0.88624 0.0
C4284 C 0.76162 0.20812 0.85674 0.0
C4285 C 0.74586 0.16679 0.86048 0.0
C4286 C 0.77468 0.21729 0.84637 0.0
C4287 C 0.76977 0.22736 0.83288 0.0
C4288 C 0.75167 0.2283 0.82933 0.0
C4289 C 0.73849 0.21846 0.83914 0.0
C4290 C 0.74345 0.20867 0.85288 0.0
H4291 H 0.74616 0.15152 0.86122 0.0
H4292 H 0.732 0.16865 0.86284 0.0
H4293 H 0.74868 0.16931 0.84626 0.0
H4294 H 0.78878 0.2171 0.84906 0.0
H4295 H 0.7802 0.23481 0.82553 0.0
H4296 H 0.12393 0.5117 0.2276 0.0
H4297 H 0.10543 0.50567 0.19784 0.0
H4298 H 0.15128 0.53384 0.17281 0.0
H4299 H 0.16986 0.53954 0.20224 0.0
H4300 H 0.09726 0.53265 0.17901 0.0
H4301 H 0.13264 0.48555 0.13421 0.0
H4302 H 0.1365 0.49018 0.15926 0.0
H4303 H 0.14796 0.50727 0.14601 0.0
C4304 C 0.13013 0.51632 0.21566 0.0
C4305 C 0.14838 0.52605 0.21725 0.0
C4306 C 0.11954 0.51288 0.19869 0.0
C4307 C 0.12703 0.519 0.18301 0.0
C4308 C 0.14531 0.52851 0.18455 0.0
H4309 H 0.0995 0.54813 0.08057 0.0
H4310 H 0.11223 0.54172 0.10948 0.0
C4311 C 0.15589 0.53189 0.20146 0.0
C4312 C 0.11558 0.51695 0.1654 0.0
H4313 H 0.11426 0.50276 0.11836 0.0
C4314 C 0.10072 0.52574 0.16578 0.0
C4315 C 0.12005 0.50784 0.14815 0.0
C4316 C 0.13505 0.497 0.14689 0.0
C4317 C 0.09094 0.52673 0.14927 0.0
C4318 C 0.09613 0.51865 0.13202 0.0
C4319 C 0.1104 0.50904 0.13165 0.0
C4320 C 0.08812 0.52175 0.11421 0.0
C4321 C 0.07576 0.53733 0.15028 0.0
C4322 C 0.07036 0.51243 0.1072 0.0
C4323 C 0.06299 0.51598 0.09051 0.0
C4324 C 0.07323 0.52904 0.08069 0.0
C4325 C 0.09112 0.53809 0.08774 0.0
C4326 C 0.09847 0.53443 0.10428 0.0
H4327 H 0.0745 0.54434 0.16472 0.0
H4328 H 0.07793 0.5486 0.14142 0.0
H4329 H 0.06283 0.52695 0.14487 0.0
H4330 H 0.06224 0.50241 0.11461 0.0
H4331 H 0.04932 0.50846 0.08532 0.0
H4332 H 0.80881 0.84929 0.486 0.0
H4333 H 0.80964 0.8296 0.4552 0.0
H4334 H 0.8196 0.88136 0.43133 0.0
H4335 H 0.81879 0.90093 0.46153 0.0
H4336 H 0.78825 0.82733 0.41988 0.0
H4337 H 0.86115 0.85488 0.41548 0.0
H4338 H 0.85096 0.85706 0.43723 0.0
H4339 H 0.84942 0.87391 0.42188 0.0
C4340 C 0.81113 0.85646 0.47419 0.0
C4341 C 0.81381 0.8768 0.47645 0.0
C4342 C 0.81162 0.84518 0.45657 0.0
C4343 C 0.81502 0.85402 0.44097 0.0
C4344 C 0.81731 0.87419 0.44317 0.0
H4345 H 0.8158 0.84382 0.3261 0.0
H4346 H 0.81939 0.85091 0.36003 0.0
C4347 C 0.81673 0.88539 0.46058 0.0
C4348 C 0.81602 0.84259 0.42217 0.0
H4349 H 0.84315 0.84099 0.38645 0.0
C4350 C 0.80036 0.82991 0.41268 0.0
C4351 C 0.83184 0.84588 0.41275 0.0
C4352 C 0.84936 0.85853 0.42241 0.0
C4353 C 0.79975 0.82163 0.39369 0.0
C4354 C 0.81528 0.82595 0.38399 0.0
C4355 C 0.83123 0.83768 0.39381 0.0
C4356 C 0.81455 0.8209 0.36328 0.0
C4357 C 0.78217 0.80937 0.38382 0.0
C4358 C 0.81109 0.8016 0.35363 0.0
C4359 C 0.80915 0.79749 0.33402 0.0
C4360 C 0.81074 0.81265 0.32385 0.0
C4361 C 0.81467 0.83186 0.33358 0.0
C4362 C 0.81672 0.83593 0.353 0.0
H4363 H 0.77084 0.80928 0.39277 0.0
H4364 H 0.77869 0.81477 0.37104 0.0
H4365 H 0.78361 0.79423 0.37957 0.0
H4366 H 0.80957 0.78974 0.36123 0.0
H4367 H 0.80584 0.78254 0.32687 0.0
H4368 H 0.47988 0.56944 0.8193 0.0
H4369 H 0.49671 0.56685 0.84817 0.0
H4370 H 0.44894 0.56679 0.87698 0.0
H4371 H 0.43241 0.56986 0.84855 0.0
H4372 H 0.47396 0.58548 0.90132 0.0
H4373 H 0.50294 0.52377 0.87237 0.0
H4374 H 0.50987 0.54433 0.86142 0.0
H4375 H 0.48645 0.53186 0.85889 0.0
C4376 C 0.47287 0.56905 0.83174 0.0
C4377 C 0.45438 0.57006 0.83085 0.0
C4378 C 0.4826 0.5672 0.84858 0.0
C4379 C 0.47448 0.56605 0.8656 0.0
C4380 C 0.45615 0.56748 0.86467 0.0
H4381 H 0.49792 0.54901 0.98288 0.0
H4382 H 0.4853 0.55244 0.95257 0.0
C4383 C 0.44648 0.56931 0.84798 0.0
C4384 C 0.48461 0.56381 0.88426 0.0
H4385 H 0.51283 0.53841 0.90371 0.0
C4386 C 0.48235 0.57502 0.90153 0.0
C4387 C 0.49601 0.5504 0.88567 0.0
C4388 C 0.49887 0.53676 0.86866 0.0
C4389 C 0.49078 0.57351 0.91916 0.0
C4390 C 0.50196 0.55995 0.92061 0.0
C4391 C 0.50449 0.54889 0.90336 0.0
C4392 C 0.51038 0.55679 0.93969 0.0
C4393 C 0.48789 0.58714 0.93619 0.0
C4394 C 0.52903 0.55709 0.94361 0.0
C4395 C 0.53652 0.55498 0.96151 0.0
C4396 C 0.52567 0.55201 0.97642 0.0
C4397 C 0.50706 0.55123 0.97222 0.0
C4398 C 0.49968 0.55343 0.95456 0.0
H4399 H 0.48461 0.60051 0.93253 0.0
H4400 H 0.47634 0.57986 0.94294 0.0
H4401 H 0.50001 0.59138 0.9464 0.0
H4402 H 0.53806 0.55945 0.93289 0.0
H4403 H 0.55089 0.556 0.9637 0.0
H4404 H 0.81685 0.22034 0.05299 0.0
H4405 H 0.8217 0.24118 0.08383 0.0
H4406 H 0.80552 0.19085 0.10907 0.0
H4407 H 0.8008 0.17001 0.07849 0.0
H4408 H 0.79495 0.24433 0.10802 0.0
H4409 H 0.85102 0.22059 0.14195 0.0
H4410 H 0.84564 0.21551 0.11704 0.0
H4411 H 0.83304 0.20058 0.13146 0.0
C4412 C 0.81471 0.21369 0.06515 0.0
C4413 C 0.80847 0.19351 0.06329 0.0
C4414 C 0.81742 0.22563 0.08275 0.0
C4415 C 0.81416 0.21756 0.09878 0.0
C4416 C 0.80848 0.19738 0.09696 0.0
H4417 H 0.79557 0.24252 0.21161 0.0
H4418 H 0.79983 0.23021 0.17953 0.0
C4419 C 0.8057 0.18548 0.07943 0.0
C4420 C 0.81516 0.23013 0.11728 0.0
H4421 H 0.83268 0.23642 0.16237 0.0
C4422 C 0.80346 0.24293 0.11986 0.0
C4423 C 0.82629 0.22831 0.13269 0.0
C4424 C 0.83984 0.21565 0.13064 0.0
C4425 C 0.80177 0.253 0.13765 0.0
C4426 C 0.81225 0.25038 0.15318 0.0
C4427 C 0.82458 0.23832 0.15045 0.0
C4428 C 0.80944 0.25848 0.17254 0.0
C4429 C 0.7881 0.26551 0.13984 0.0
C4430 C 0.81331 0.27855 0.17929 0.0
C4431 C 0.81079 0.28572 0.19776 0.0
C4432 C 0.80451 0.27292 0.2098 0.0
C4433 C 0.80045 0.25286 0.20282 0.0
C4434 C 0.80295 0.24575 0.18446 0.0
H4435 H 0.77906 0.26352 0.1269 0.0
H4436 H 0.77971 0.26218 0.15132 0.0
H4437 H 0.79525 0.28098 0.14343 0.0
H4438 H 0.81847 0.28864 0.17037 0.0
H4439 H 0.81381 0.30125 0.20261 0.0
H4440 H 0.19743 0.54304 0.34058 0.0
H4441 H 0.18447 0.54657 0.37038 0.0
H4442 H 0.13273 0.54479 0.34213 0.0
H4443 H 0.14543 0.54079 0.31224 0.0
H4444 H 0.17174 0.57697 0.38435 0.0
H4445 H 0.11765 0.51129 0.3799 0.0
H4446 H 0.13499 0.51284 0.36398 0.0
H4447 H 0.11539 0.52254 0.36006 0.0
C4448 C 0.18318 0.54295 0.34064 0.0
C4449 C 0.17249 0.54171 0.32399 0.0
C4450 C 0.1758 0.54496 0.35772 0.0
C4451 C 0.1576 0.54577 0.35851 0.0
C4452 C 0.14671 0.54372 0.34186 0.0
H4453 H 0.10665 0.61335 0.43464 0.0
H4454 H 0.12517 0.60006 0.41192 0.0
C4455 C 0.15403 0.54156 0.32475 0.0
C4456 C 0.15054 0.55114 0.37667 0.0
H4457 H 0.11442 0.53967 0.40149 0.0
C4458 C 0.15938 0.56859 0.38827 0.0
C4459 C 0.13462 0.5401 0.382 0.0
C4460 C 0.12524 0.52054 0.37091 0.0
C4461 C 0.15213 0.57592 0.40441 0.0
C4462 C 0.13537 0.56573 0.40885 0.0
C4463 C 0.12714 0.54764 0.39794 0.0
C4464 C 0.12537 0.57431 0.42365 0.0
C4465 C 0.16236 0.59476 0.41624 0.0
C4466 C 0.11912 0.56414 0.43767 0.0
C4467 C 0.10836 0.57166 0.4506 0.0
C4468 C 0.10368 0.58945 0.44965 0.0
C4469 C 0.11027 0.59976 0.43585 0.0
C4470 C 0.12089 0.5922 0.4229 0.0
H4471 H 0.17716 0.59616 0.41596 0.0
H4472 H 0.15883 0.60702 0.41052 0.0
H4473 H 0.15907 0.59605 0.4309 0.0
H4474 H 0.12236 0.55028 0.43846 0.0
H4475 H 0.10358 0.56351 0.46123 0.0
H4476 H 0.82189 0.90118 0.60169 0.0
H4477 H 0.82093 0.88799 0.63046 0.0
H4478 H 0.79661 0.83113 0.59912 0.0
H4479 H 0.79799 0.84416 0.57024 0.0
H4480 H 0.79393 0.87077 0.64785 0.0
H4481 H 0.83701 0.8185 0.62865 0.0
H4482 H 0.83465 0.83685 0.61519 0.0
H4483 H 0.81754 0.8148 0.61242 0.0
C4484 C 0.81635 0.88585 0.60088 0.0
C4485 C 0.81012 0.87374 0.58355 0.0
C4486 C 0.81581 0.8783 0.6174 0.0
C4487 C 0.80904 0.85842 0.6171 0.0
C4488 C 0.80239 0.84639 0.59983 0.0
H4489 H 0.79316 0.78917 0.70577 0.0
H4490 H 0.79252 0.80081 0.67622 0.0
C4491 C 0.80304 0.85391 0.58327 0.0
C4492 C 0.80873 0.85048 0.63486 0.0
H4493 H 0.82256 0.81639 0.65641 0.0
C4494 C 0.80026 0.85892 0.64968 0.0
C4495 C 0.81697 0.83497 0.63745 0.0
C4496 C 0.82721 0.82586 0.62267 0.0
C4497 C 0.79965 0.85225 0.66676 0.0
C4498 C 0.80786 0.83677 0.66931 0.0
C4499 C 0.81619 0.82819 0.65449 0.0
C4500 C 0.80831 0.82962 0.6874 0.0
C4501 C 0.78997 0.86167 0.68189 0.0
C4502 C 0.81759 0.84177 0.7036 0.0
C4503 C 0.81809 0.83511 0.72055 0.0
C4504 C 0.80928 0.81611 0.72188 0.0
C4505 C 0.80007 0.80392 0.70552 0.0
C4506 C 0.7997 0.81055 0.68851 0.0
H4507 H 0.78075 0.86996 0.67636 0.0
H4508 H 0.78204 0.85065 0.68901 0.0
H4509 H 0.80006 0.87189 0.6924 0.0
H4510 H 0.82462 0.85644 0.70313 0.0
H4511 H 0.82539 0.84497 0.73257 0.0
H4512 H 0.76983 0.46879 0.51126 0.0
H4513 H 0.7416 0.47759 0.51909 0.0
H4514 H 0.7315 0.43314 0.55257 0.0
H4515 H 0.75992 0.424 0.54477 0.0
H4516 H 0.70332 0.44797 0.51516 0.0
H4517 H 0.73122 0.49031 0.58548 0.0
H4518 H 0.74575 0.48743 0.567 0.0
H4519 H 0.7364 0.46708 0.57737 0.0
C4520 C 0.76165 0.46074 0.52023 0.0
C4521 C 0.76722 0.44567 0.52741 0.0
C4522 C 0.74549 0.4658 0.52464 0.0
C4523 C 0.73457 0.456 0.53637 0.0
C4524 C 0.73984 0.44083 0.54347 0.0
H4525 H 0.64612 0.50433 0.58207 0.0
H4526 H 0.66626 0.48192 0.57593 0.0
C4527 C 0.75605 0.43566 0.539 0.0
C4528 C 0.71796 0.46233 0.54145 0.0
H4529 H 0.70274 0.49341 0.57404 0.0
C4530 C 0.703 0.45762 0.52816 0.0
C4531 C 0.71765 0.47481 0.55845 0.0
C4532 C 0.73356 0.48032 0.57299 0.0
C4533 C 0.68791 0.46573 0.53116 0.0
C4534 C 0.68806 0.47921 0.54767 0.0
C4535 C 0.70266 0.48309 0.56137 0.0
C4536 C 0.6742 0.49092 0.55027 0.0
C4537 C 0.67211 0.46008 0.51648 0.0
C4538 C 0.67189 0.50329 0.5378 0.0
C4539 C 0.6605 0.51615 0.54131 0.0
C4540 C 0.6513 0.51701 0.55745 0.0
C4541 C 0.65319 0.50416 0.56962 0.0
C4542 C 0.66461 0.49129 0.5661 0.0
H4543 H 0.67131 0.44541 0.50822 0.0
H4544 H 0.65918 0.46027 0.52276 0.0
H4545 H 0.67384 0.47052 0.50677 0.0
H4546 H 0.67952 0.50361 0.52575 0.0
H4547 H 0.6596 0.52605 0.53182 0.0
H4548 H 0.25648 0.14571 0.51485 0.0
H4549 H 0.22605 0.12597 0.51376 0.0
H4550 H 0.20457 0.16906 0.49072 0.0
H4551 H 0.2354 0.18799 0.49031 0.0
H4552 H 0.19978 0.13146 0.53102 0.0
H4553 H 0.17591 0.1232 0.45685 0.0
H4554 H 0.19895 0.13407 0.46572 0.0
H4555 H 0.182 0.14823 0.46783 0.0
C4556 C 0.2453 0.15057 0.50885 0.0
C4557 C 0.24837 0.16783 0.50173 0.0
C4558 C 0.22782 0.13943 0.50852 0.0
C4559 C 0.2128 0.14563 0.50171 0.0
C4560 C 0.21582 0.16341 0.49532 0.0
H4561 H 0.10581 0.0998 0.53384 0.0
H4562 H 0.1354 0.11924 0.53069 0.0
C4563 C 0.23344 0.17436 0.49526 0.0
C4564 C 0.19413 0.13395 0.50247 0.0
H4565 H 0.15343 0.11379 0.47712 0.0
C4566 C 0.18975 0.12752 0.51913 0.0
C4567 C 0.18087 0.12853 0.487 0.0
C4568 C 0.18471 0.13371 0.46829 0.0
C4569 C 0.17275 0.11596 0.52076 0.0
C4570 C 0.1593 0.11124 0.50555 0.0
C4571 C 0.16363 0.11753 0.48886 0.0
C4572 C 0.14071 0.0998 0.50673 0.0
C4573 C 0.16962 0.10852 0.53869 0.0
C4574 C 0.13324 0.08282 0.49371 0.0
C4575 C 0.11599 0.0718 0.49521 0.0
C4576 C 0.10591 0.07741 0.50988 0.0
C4577 C 0.11322 0.09476 0.52252 0.0
C4578 C 0.1303 0.10588 0.52085 0.0
H4579 H 0.18253 0.10799 0.54624 0.0
H4580 H 0.16312 0.11844 0.5479 0.0
H4581 H 0.16072 0.09377 0.53612 0.0
H4582 H 0.14086 0.07793 0.48251 0.0
H4583 H 0.11065 0.05885 0.48494 0.0
H4584 H 0.20504 0.96818 0.80124 0.0
H4585 H 0.21903 0.94027 0.79948 0.0
H4586 H 0.21119 0.9306 0.73981 0.0
H4587 H 0.19684 0.95871 0.74159 0.0
H4588 H 0.20987 0.90149 0.78777 0.0
H4589 H 0.26337 0.92662 0.7438 0.0
H4590 H 0.24946 0.94224 0.7542 0.0
H4591 H 0.24083 0.9244 0.73365 0.0
C4592 C 0.20591 0.9601 0.78757 0.0
C4593 C 0.1991 0.9663 0.77162 0.0
C4594 C 0.21422 0.9438 0.78658 0.0
C4595 C 0.21696 0.93261 0.76951 0.0
C4596 C 0.20998 0.93856 0.75342 0.0
H4597 H 0.2747 0.83142 0.74354 0.0
H4598 H 0.26026 0.85908 0.74196 0.0
C4599 C 0.20129 0.95479 0.75443 0.0
C4600 C 0.22675 0.91506 0.76899 0.0
H4601 H 0.26201 0.89564 0.75138 0.0
C4602 C 0.22129 0.90047 0.77974 0.0
C4603 C 0.24182 0.91261 0.7586 0.0
C4604 C 0.2494 0.92733 0.74701 0.0
C4605 C 0.22966 0.88421 0.78014 0.0
C4606 C 0.24514 0.88199 0.77022 0.0
C4607 C 0.25052 0.89654 0.7593 0.0
C4608 C 0.25561 0.86508 0.77112 0.0
C4609 C 0.22094 0.869 0.79077 0.0
C4610 C 0.25925 0.85856 0.78795 0.0
C4611 C 0.26748 0.84246 0.78879 0.0
C4612 C 0.2736 0.83198 0.7731 0.0
C4613 C 0.27084 0.8389 0.75627 0.0
C4614 C 0.26224 0.85498 0.75535 0.0
H4615 H 0.20631 0.86861 0.79139 0.0
H4616 H 0.22239 0.85433 0.78435 0.0
H4617 H 0.22727 0.8726 0.8053 0.0
H4618 H 0.25559 0.86587 0.80083 0.0
H4619 H 0.2689 0.83799 0.8021 0.0
H4620 H 0.3671 0.92222 1.00355 0.0
H4621 H 0.39958 0.93491 1.00501 0.0
H4622 H 0.3988 0.96515 0.06121 0.0
H4623 H 0.36599 0.95528 0.05807 0.0
H4624 H 0.41968 0.98673 0.04963 0.0
H4625 H 0.44073 0.91959 0.02259 0.0
H4626 H 0.42583 0.92359 1.0047 0.0
H4627 H 0.41763 0.91924 0.02674 0.0
C4628 C 0.37401 0.9319 0.016 0.0
C4629 C 0.36424 0.93852 0.03037 0.0
C4630 C 0.3927 0.93871 0.01713 0.0
C4631 C 0.40212 0.95079 0.0334 0.0
C4632 C 0.39215 0.95625 0.04827 0.0
H4633 H 0.52011 0.97459 0.03703 0.0
H4634 H 0.48844 0.96002 0.03871 0.0
C4635 C 0.37337 0.95054 0.04659 0.0
C4636 C 0.42201 0.95887 0.03456 0.0
H4637 H 0.46148 0.94932 0.01986 0.0
C4638 C 0.42879 0.97818 0.04357 0.0
C4639 C 0.43438 0.94802 0.02707 0.0
C4640 C 0.42923 0.92642 0.01998 0.0
C4641 C 0.44724 0.98679 0.04538 0.0
C4642 C 0.45922 0.97672 0.0359 0.0
C4643 C 0.45249 0.95741 0.02689 0.0
C4644 C 0.47869 0.98574 0.03529 0.0
C4645 C 0.45345 1.00616 0.05827 0.0
C4646 C 0.48416 1.0051 0.033 0.0
C4647 C 0.50241 0.01383 0.03375 0.0
C4648 C 0.51557 1.00287 0.03444 0.0
C4649 C 0.51019 0.98329 0.03594 0.0
C4650 C 0.492 0.97492 0.03674 0.0
H4651 H 0.44465 0.00746 0.06982 0.0
H4652 H 0.46752 0.00835 0.06449 0.0
H4653 H 0.45239 0.01796 0.05049 0.0
H4654 H 0.47441 0.0137 0.03085 0.0
H4655 H 0.50612 0.02915 0.03362 0.0
H4656 H 0.93187 0.61083 0.78512 0.0
H4657 H 0.92387 0.63803 0.77305 0.0
H4658 H 0.87353 0.62844 0.79804 0.0
H4659 H 0.88131 0.6012 0.81016 0.0
H4660 H 0.87084 0.6295 0.75878 0.0
H4661 H 0.9201 0.69302 0.8 0.0
H4662 H 0.9292 0.67294 0.78972 0.0
H4663 H 0.91425 0.67002 0.80766 0.0
C4664 C 0.91921 0.61466 0.78832 0.0
C4665 C 0.90722 0.60374 0.7986 0.0
C4666 C 0.91471 0.63028 0.78146 0.0
C4667 C 0.89817 0.63528 0.78475 0.0
C4668 C 0.8864 0.62482 0.79542 0.0
H4669 H 0.84989 0.72766 0.76174 0.0
H4670 H 0.86427 0.70534 0.77564 0.0
C4671 C 0.89091 0.60927 0.80238 0.0
C4672 C 0.89246 0.65039 0.77585 0.0
H4673 H 0.90178 0.69899 0.77537 0.0
C4674 C 0.87762 0.64469 0.76236 0.0
C4675 C 0.90133 0.67017 0.78063 0.0
C4676 C 0.91704 0.67704 0.79539 0.0
C4677 C 0.87137 0.65826 0.75351 0.0
C4678 C 0.8803 0.67802 0.75817 0.0
C4679 C 0.89513 0.68377 0.77169 0.0
C4680 C 0.87356 0.69298 0.74997 0.0
C4681 C 0.85498 0.65147 0.73954 0.0
C4682 C 0.87447 0.69376 0.73101 0.0
C4683 C 0.86626 0.70655 0.72299 0.0
C4684 C 0.85692 0.71867 0.7338 0.0
C4685 C 0.85676 0.71837 0.75296 0.0
C4686 C 0.86506 0.7057 0.76097 0.0
H4687 H 0.84795 0.63628 0.73971 0.0
H4688 H 0.84528 0.66098 0.74235 0.0
H4689 H 0.85919 0.65227 0.72537 0.0
H4690 H 0.88111 0.6841 0.72234 0.0
H4691 H 0.8666 0.70638 0.7082 0.0
H4692 H 0.84056 0.67131 0.03984 0.0
H4693 H 0.86564 0.6558 0.04532 0.0
H4694 H 0.87168 0.64612 0.98644 0.0
H4695 H 0.84583 0.6604 0.98093 0.0
H4696 H 0.87173 0.61499 0.99705 0.0
H4697 H 0.9185 0.67011 0.04903 0.0
H4698 H 0.89667 0.6646 0.05738 0.0
H4699 H 0.89944 0.67559 0.03698 0.0
C4700 C 0.8476 0.66635 0.02816 0.0
C4701 C 0.84136 0.66723 0.00998 0.0
C4702 C 0.86204 0.65751 0.03129 0.0
C4703 C 0.87092 0.64991 0.01635 0.0
C4704 C 0.86517 0.65175 0.99827 0.0
H4705 H 0.96587 0.60104 0.03696 0.0
H4706 H 0.94627 0.6221 0.02905 0.0
C4707 C 0.85045 0.66007 0.99511 0.0
C4708 C 0.88485 0.63837 0.01918 0.0
H4709 H 0.92241 0.63733 0.04661 0.0
C4710 C 0.88293 0.62009 0.00776 0.0
C4711 C 0.89977 0.64491 0.0329 0.0
C4712 C 0.90383 0.66497 0.0446 0.0
C4713 C 0.89506 0.60812 0.00991 0.0
C4714 C 0.90916 0.61402 0.02453 0.0
C4715 C 0.91147 0.63253 0.03561 0.0
C4716 C 0.92128 0.60102 0.02881 0.0
C4717 C 0.89272 0.58939 0.99616 0.0
C4718 C 0.91394 0.58209 0.03142 0.0
C4719 C 0.92511 0.56982 0.0354 0.0
C4720 C 0.94406 0.57624 0.03754 0.0
C4721 C 0.95142 0.59533 0.03515 0.0
C4722 C 0.94018 0.60754 0.03082 0.0
H4723 H 0.88624 0.59046 0.98252 0.0
H4724 H 0.90583 0.58533 0.99387 0.0
H4725 H 0.88376 0.5776 1.0015 0.0
H4726 H 0.89946 0.57677 0.03051 0.0
H4727 H 0.91877 0.55521 0.03678 0.0
H4728 H 0.2245 0.06315 0.76701 0.0
H4729 H 0.242 0.09637 0.76817 0.0
H4730 H 0.19642 0.11883 0.78621 0.0
H4731 H 0.17923 0.08565 0.78586 0.0
H4732 H 0.2125 0.13619 0.75657 0.0
H4733 H 0.26592 0.13992 0.81245 0.0
H4734 H 0.26203 0.11912 0.79403 0.0
H4735 H 0.24475 0.1223 0.8093 0.0
C4736 C 0.2184 0.07513 0.772 0.0
C4737 C 0.20055 0.07134 0.77722 0.0
C4738 C 0.22843 0.09436 0.77243 0.0
C4739 C 0.2209 0.11072 0.77756 0.0
C4740 C 0.20292 0.10688 0.78234 0.0
H4741 H 0.25386 0.23829 0.77669 0.0
H4742 H 0.2374 0.20532 0.77726 0.0
C4743 C 0.19301 0.0877 0.7822 0.0
C4744 C 0.23136 0.13154 0.77731 0.0
H4745 H 0.26904 0.16644 0.79701 0.0
C4746 C 0.22484 0.14274 0.76549 0.0
C4747 C 0.24771 0.14058 0.78863 0.0
C4748 C 0.25557 0.13001 0.80196 0.0
C4749 C 0.23411 0.16199 0.76443 0.0
C4750 C 0.25029 0.17126 0.77615 0.0
C4751 C 0.25678 0.15996 0.78794 0.0
C4752 C 0.26068 0.19231 0.77638 0.0
C4753 C 0.22667 0.17173 0.74999 0.0
C4754 C 0.27975 0.19727 0.7768 0.0
C4755 C 0.2894 0.21659 0.77706 0.0
C4756 C 0.2805 0.232 0.7768 0.0
C4757 C 0.26147 0.22712 0.77665 0.0
C4758 C 0.25186 0.20788 0.77673 0.0
H4759 H 0.2188 0.16091 0.73818 0.0
H4760 H 0.21737 0.18042 0.75636 0.0
H4761 H 0.23759 0.18141 0.74439 0.0
H4762 H 0.28733 0.18606 0.77667 0.0
H4763 H 0.30389 0.21932 0.77709 0.0
H4764 H 0.43018 0.98798 0.31335 0.0
H4765 H 0.41944 0.95249 0.30496 0.0
H4766 H 0.37533 0.96011 0.26943 0.0
H4767 H 0.38603 0.99524 0.27769 0.0
H4768 H 0.38549 0.9327 0.31163 0.0
H4769 H 0.39413 0.91777 0.23668 0.0
H4770 H 0.40605 0.93976 0.252 0.0
H4771 H 0.38321 0.93755 0.24256 0.0
C4772 C 0.41831 0.98193 0.30363 0.0
C4773 C 0.40859 0.99412 0.2965 0.0
C4774 C 0.41226 0.96177 0.29879 0.0
C4775 C 0.39678 0.95371 0.28632 0.0
C4776 C 0.38753 0.966 0.27871 0.0
H4777 H 0.31669 0.85172 0.24324 0.0
H4778 H 0.33806 0.88325 0.2504 0.0
C4779 C 0.39346 0.98603 0.28366 0.0
C4780 C 0.38888 0.93265 0.28274 0.0
H4781 H 0.3716 0.89437 0.24771 0.0
C4782 C 0.38252 0.92424 0.29771 0.0
C4783 C 0.38536 0.92158 0.26456 0.0
C4784 C 0.39272 0.92958 0.24805 0.0
C4785 C 0.37117 0.90573 0.29489 0.0
C4786 C 0.36693 0.89483 0.27657 0.0
C4787 C 0.37451 0.90277 0.26171 0.0
C4788 C 0.35402 0.87567 0.27234 0.0
C4789 C 0.36293 0.8988 0.3115 0.0
C4790 C 0.35584 0.86084 0.28215 0.0
C4791 C 0.34315 0.84325 0.27864 0.0
C4792 C 0.32887 0.83984 0.26468 0.0
C4793 C 0.32747 0.85423 0.25425 0.0
C4794 C 0.33975 0.87213 0.25826 0.0
H4795 H 0.36275 0.91105 0.32293 0.0
H4796 H 0.34892 0.89037 0.30762 0.0
H4797 H 0.37103 0.88944 0.317 0.0
H4798 H 0.36712 0.86278 0.29246 0.0
H4799 H 0.34487 0.83209 0.28644 0.0
H4800 H 0.57396 0.35015 0.56595 0.0
H4801 H 0.57266 0.38047 0.5559 0.0
H4802 H 0.58959 0.41145 0.61187 0.0
H4803 H 0.59165 0.38083 0.62192 0.0
H4804 H 0.55216 0.40371 0.5629 0.0
H4805 H 0.6208 0.44802 0.58624 0.0
H4806 H 0.61492 0.42241 0.5866 0.0
H4807 H 0.60939 0.43958 0.60507 0.0
C4808 C 0.57772 0.36339 0.5762 0.0
C4809 C 0.58303 0.36278 0.59485 0.0
C4810 C 0.57688 0.38091 0.57037 0.0
C4811 C 0.58114 0.39871 0.5829 0.0
C4812 C 0.58665 0.39825 0.60158 0.0
H4813 H 0.56399 0.51421 0.57534 0.0
H4814 H 0.56846 0.4841 0.58433 0.0
C4815 C 0.58777 0.38059 0.60742 0.0
C4816 C 0.57876 0.41718 0.57632 0.0
H4817 H 0.59914 0.46473 0.57611 0.0
C4818 C 0.56261 0.41692 0.5657 0.0
C4819 C 0.5922 0.43477 0.57975 0.0
C4820 C 0.61036 0.43622 0.58987 0.0
C4821 C 0.55949 0.43338 0.55882 0.0
C4822 C 0.57275 0.45097 0.56251 0.0
C4823 C 0.58889 0.45135 0.57313 0.0
C4824 C 0.56969 0.46931 0.55638 0.0
C4825 C 0.54172 0.43204 0.54804 0.0
C4826 C 0.56879 0.47141 0.5375 0.0
C4827 C 0.56637 0.48894 0.53225 0.0
C4828 C 0.56444 0.50472 0.54573 0.0
C4829 C 0.56522 0.50241 0.5645 0.0
C4830 C 0.56785 0.48512 0.56972 0.0
H4831 H 0.53202 0.4181 0.54796 0.0
H4832 H 0.5356 0.44413 0.55412 0.0
H4833 H 0.54405 0.43337 0.53344 0.0
H4834 H 0.5703 0.4596 0.52682 0.0
H4835 H 0.56628 0.49024 0.51773 0.0
H4836 H 0.47954 0.75387 0.3693 0.0
H4837 H 0.45189 0.75628 0.35203 0.0
H4838 H 0.43663 0.78767 0.40199 0.0
H4839 H 0.46533 0.78708 0.41853 0.0
H4840 H 0.41931 0.74516 0.35065 0.0
H4841 H 0.42756 0.82433 0.37237 0.0
H4842 H 0.44316 0.81203 0.38166 0.0
H4843 H 0.42206 0.81205 0.39138 0.0
C4844 C 0.47056 0.76189 0.37638 0.0
C4845 C 0.47529 0.7715 0.39489 0.0
C4846 C 0.45447 0.763 0.36658 0.0
C4847 C 0.44222 0.77316 0.3752 0.0
C4848 C 0.44613 0.78091 0.39438 0.0
H4849 H 0.34209 0.80024 0.33205 0.0
H4850 H 0.36694 0.79491 0.35129 0.0
C4851 C 0.46252 0.78033 0.404 0.0
C4852 C 0.42547 0.77519 0.36406 0.0
H4853 H 0.40037 0.80751 0.35428 0.0
C4854 C 0.41537 0.75892 0.35145 0.0
C4855 C 0.41955 0.7929 0.36513 0.0
C4856 C 0.42875 0.8113 0.37827 0.0
C4857 C 0.40001 0.7598 0.34008 0.0
C4858 C 0.39462 0.77766 0.34069 0.0
C4859 C 0.40444 0.79381 0.35349 0.0
C4860 C 0.37878 0.78005 0.32858 0.0
C4861 C 0.38941 0.74129 0.32801 0.0
C4862 C 0.37678 0.7737 0.30914 0.0
C4863 C 0.3621 0.7764 0.29805 0.0
C4864 C 0.34917 0.786 0.30595 0.0
C4865 C 0.35147 0.79271 0.32531 0.0
C4866 C 0.36589 0.78968 0.33643 0.0
H4867 H 0.39133 0.72836 0.33369 0.0
H4868 H 0.37476 0.74103 0.32668 0.0
H4869 H 0.39426 0.74005 0.31394 0.0
H4870 H 0.38671 0.76687 0.3024 0.0
H4871 H 0.36108 0.7712 0.28318 0.0
H4872 H 0.08973 0.76283 0.07736 0.0
H4873 H 0.08566 0.72808 0.06489 0.0
H4874 H 0.06376 0.7148 0.11549 0.0
H4875 H 0.06645 0.74934 0.12713 0.0
H4876 H 0.09902 0.70091 0.07355 0.0
H4877 H 0.02651 0.6779 0.08148 0.0
H4878 H 0.03785 0.70305 0.0866 0.0
H4879 H 0.03849 0.68798 0.10386 0.0
C4880 C 0.08337 0.75242 0.08546 0.0
C4881 C 0.07743 0.75884 0.10276 0.0
C4882 C 0.08132 0.73248 0.07847 0.0
C4883 C 0.07375 0.7184 0.08885 0.0
C4884 C 0.06878 0.725 0.10664 0.0
H4885 H 0.06176 0.59554 0.08532 0.0
H4886 H 0.06757 0.63092 0.09286 0.0
C4887 C 0.07048 0.74487 0.11342 0.0
C4888 C 0.07181 0.69702 0.08153 0.0
H4889 H 0.043 0.65247 0.07728 0.0
C4890 C 0.08662 0.69043 0.07411 0.0
C4891 C 0.05572 0.68295 0.08219 0.0
C4892 C 0.03873 0.68839 0.08879 0.0
C4893 C 0.08595 0.67049 0.06801 0.0
C4894 C 0.07009 0.65658 0.06928 0.0
C4895 C 0.05522 0.66308 0.07634 0.0
C4896 C 0.06881 0.63514 0.06439 0.0
C4897 C 0.10249 0.66428 0.06109 0.0
C4898 C 0.06782 0.62552 0.0458 0.0
C4899 C 0.0644 0.6051 0.04142 0.0
C4900 C 0.06208 0.59393 0.05556 0.0
C4901 C 0.06367 0.60369 0.07412 0.0
C4902 C 0.06696 0.62396 0.07846 0.0
H4903 H 0.11411 0.67675 0.06175 0.0
H4904 H 0.10642 0.65411 0.0696 0.0
H4905 H 0.09945 0.65646 0.04648 0.0
H4906 H 0.06894 0.63374 0.03463 0.0
H4907 H 0.06284 0.59806 0.02696 0.0
H4908 H 0.07035 0.30371 0.87803 0.0
H4909 H 0.09925 0.30339 0.86583 0.0
H4910 H 0.10651 0.25881 0.89649 0.0
H4911 H 0.07687 0.25869 0.90863 0.0
H4912 H 0.13328 0.31072 0.88163 0.0
H4913 H 0.1135 0.23442 0.84379 0.0
H4914 H 0.09727 0.24711 0.85394 0.0
H4915 H 0.11207 0.23813 0.86851 0.0
C4916 C 0.078 0.2938 0.88233 0.0
C4917 C 0.07104 0.28105 0.89423 0.0
C4918 C 0.09468 0.29371 0.87533 0.0
C4919 C 0.10508 0.28089 0.87991 0.0
C4920 C 0.09862 0.2686 0.8924 0.0
H4921 H 0.21218 0.29971 0.83416 0.0
H4922 H 0.18971 0.29473 0.85669 0.0
C4923 C 0.08175 0.26869 0.89951 0.0
C4924 C 0.12228 0.28046 0.87094 0.0
H4925 H 0.14167 0.25263 0.83888 0.0
C4926 C 0.13525 0.29792 0.8725 0.0
C4927 C 0.12483 0.26385 0.85883 0.0
C4928 C 0.11117 0.24481 0.85598 0.0
C4929 C 0.15016 0.29948 0.8618 0.0
C4930 C 0.15254 0.28296 0.8494 0.0
C4931 C 0.13997 0.26529 0.8484 0.0
C4932 C 0.16678 0.28419 0.83599 0.0
C4933 C 0.16259 0.31913 0.86307 0.0
C4934 C 0.16166 0.27904 0.81678 0.0
C4935 C 0.1745 0.28156 0.8039 0.0
C4936 C 0.19292 0.28938 0.80979 0.0
C4937 C 0.19818 0.29369 0.82905 0.0
C4938 C 0.18527 0.29107 0.84199 0.0
H4939 H 0.15662 0.33101 0.87001 0.0
H4940 H 0.17539 0.3196 0.87131 0.0
H4941 H 0.16582 0.32193 0.84903 0.0
H4942 H 0.14758 0.27354 0.81169 0.0
H4943 H 0.16991 0.27759 0.78923 0.0
H4944 H 0.60134 0.77787 0.92858 0.0
H4945 H 0.5941 0.74919 0.94287 0.0
H4946 H 0.56737 0.71558 0.89062 0.0
H4947 H 0.57433 0.74444 0.87623 0.0
H4948 H 0.5463 0.71189 0.91891 0.0
H4949 H 0.61352 0.7006 0.94021 0.0
H4950 H 0.61171 0.72509 0.94821 0.0
H4951 H 0.61027 0.71587 0.92362 0.0
C4952 C 0.5942 0.76432 0.92001 0.0
C4953 C 0.58837 0.76344 0.90127 0.0
C4954 C 0.59019 0.74787 0.92818 0.0
C4955 C 0.58043 0.73015 0.91776 0.0
C4956 C 0.57504 0.72908 0.89889 0.0
H4957 H 0.55494 0.62808 0.97198 0.0
H4958 H 0.5661 0.64904 0.9499 0.0
C4959 C 0.57904 0.74557 0.89068 0.0
C4960 C 0.57427 0.71345 0.92714 0.0
H4961 H 0.58887 0.68656 0.95668 0.0
C4962 C 0.55563 0.70612 0.9269 0.0
C4963 C 0.58643 0.70573 0.93739 0.0
C4964 C 0.6066 0.7121 0.93722 0.0
C4965 C 0.54881 0.69207 0.93745 0.0
C4966 C 0.56094 0.68542 0.94877 0.0
C4967 C 0.57959 0.6919 0.9482 0.0
C4968 C 0.55445 0.6727 0.96213 0.0
C4969 C 0.52864 0.68468 0.9366 0.0
C4970 C 0.54455 0.67924 0.97652 0.0
C4971 C 0.53826 0.6674 0.98914 0.0
C4972 C 0.54181 0.64878 0.98773 0.0
C4973 C 0.55206 0.64239 0.97351 0.0
C4974 C 0.55837 0.65429 0.96084 0.0
H4975 H 0.52174 0.68659 0.92349 0.0
H4976 H 0.52516 0.66911 0.93766 0.0
H4977 H 0.52334 0.693 0.94839 0.0
H4978 H 0.54177 0.69359 0.97804 0.0
H4979 H 0.53077 0.67294 1.00017 0.0
H4980 H 0.0579 0.76987 0.68422 0.0
H4981 H 0.08822 0.76651 0.69343 0.0
H4982 H 0.10628 0.78245 0.64218 0.0
H4983 H 0.07584 0.78659 0.63325 0.0
H4984 H 0.10597 0.74002 0.67201 0.0
H4985 H 0.14562 0.81639 0.68254 0.0
H4986 H 0.12139 0.81071 0.68243 0.0
H4987 H 0.13153 0.80631 0.66111 0.0
C4988 C 0.0685 0.77336 0.67525 0.0
C4989 C 0.06482 0.77923 0.65841 0.0
C4990 C 0.08573 0.77115 0.68037 0.0
C4991 C 0.0995 0.77436 0.66854 0.0
C4992 C 0.0959 0.78023 0.65164 0.0
H4993 H 0.20778 0.77365 0.71607 0.0
H4994 H 0.18475 0.77212 0.6907 0.0
C4995 C 0.07859 0.78257 0.64655 0.0
C4996 C 0.11724 0.77051 0.67388 0.0
H4997 H 0.15963 0.7936 0.69305 0.0
C4998 C 0.11785 0.75165 0.67627 0.0
C4999 C 0.13284 0.78558 0.67892 0.0
C5000 C 0.13299 0.80595 0.6762 0.0
C5001 C 0.13318 0.74779 0.685 0.0
C5002 C 0.14807 0.76329 0.6919 0.0
C5003 C 0.14811 0.78177 0.68792 0.0
C5004 C 0.1622 0.76144 0.70575 0.0
C5005 C 0.13299 0.72728 0.6874 0.0
C5006 C 0.15714 0.75581 0.7225 0.0
C5007 C 0.17017 0.75662 0.73688 0.0
C5008 C 0.18854 0.7633 0.7349 0.0
C5009 C 0.1937 0.7683 0.71789 0.0
C5010 C 0.18059 0.76749 0.70344 0.0
H5011 H 0.12478 0.71669 0.67563 0.0
H5012 H 0.14684 0.72461 0.68838 0.0
H5013 H 0.12673 0.72461 0.70033 0.0
H5014 H 0.14303 0.75158 0.7248 0.0
H5015 H 0.16583 0.7525 0.74977 0.0
H5016 H 0.11707 0.37091 0.42321 0.0
H5017 H 0.11905 0.40411 0.43888 0.0
H5018 H 0.11317 0.42182 0.38588 0.0
H5019 H 0.11102 0.38859 0.36994 0.0
H5020 H 0.13828 0.44478 0.43649 0.0
H5021 H 0.06507 0.42377 0.41143 0.0
H5022 H 0.07891 0.40618 0.41096 0.0
H5023 H 0.08084 0.42191 0.39417 0.0
C5024 C 0.11678 0.38192 0.41479 0.0
C5025 C 0.1133 0.37694 0.39531 0.0
C5026 C 0.11801 0.40094 0.42381 0.0
C5027 C 0.11589 0.41523 0.41351 0.0
C5028 C 0.11464 0.41086 0.39403 0.0
H5029 H 0.06893 0.51229 0.45621 0.0
H5030 H 0.08349 0.49111 0.43568 0.0
C5031 C 0.11338 0.39183 0.38497 0.0
C5032 C 0.11142 0.4332 0.42305 0.0
H5033 H 0.07525 0.45332 0.43167 0.0
C5034 C 0.12459 0.44688 0.43528 0.0
C5035 C 0.0935 0.43574 0.42145 0.0
C5036 C 0.07868 0.42112 0.40891 0.0
C5037 C 0.1202 0.46303 0.44621 0.0
C5038 C 0.10211 0.46514 0.44513 0.0
C5039 C 0.08913 0.45173 0.43243 0.0
C5040 C 0.0958 0.4802 0.45782 0.0
C5041 C 0.13496 0.47758 0.45879 0.0
C5042 C 0.09806 0.48133 0.47715 0.0
C5043 C 0.08987 0.4936 0.48898 0.0
C5044 C 0.07887 0.50459 0.48172 0.0
C5045 C 0.07707 0.50383 0.46236 0.0
C5046 C 0.08548 0.4918 0.45056 0.0
H5047 H 0.14833 0.47783 0.45332 0.0
H5048 H 0.13237 0.49241 0.46047 0.0
H5049 H 0.13566 0.47343 0.4727 0.0
H5050 H 0.10558 0.47219 0.48308 0.0
H5051 H 0.09181 0.49403 0.50375 0.0
H5052 H 0.43745 0.26604 0.14724 0.0
H5053 H 0.41613 0.27046 0.17039 0.0
H5054 H 0.46008 0.29992 0.21164 0.0
H5055 H 0.48169 0.29562 0.18856 0.0
H5056 H 0.41787 0.25684 0.20717 0.0
H5057 H 0.42205 0.33604 0.21166 0.0
H5058 H 0.42813 0.32145 0.19144 0.0
H5059 H 0.44261 0.32738 0.21268 0.0
C5060 C 0.44266 0.27364 0.16116 0.0
C5061 C 0.46132 0.28049 0.16601 0.0
C5062 C 0.43044 0.27606 0.17438 0.0
C5063 C 0.4366 0.28548 0.19264 0.0
C5064 C 0.45513 0.29267 0.19755 0.0
H5065 H 0.35569 0.28136 0.27522 0.0
H5066 H 0.3855 0.28264 0.26317 0.0
C5067 C 0.46742 0.29019 0.18433 0.0
C5068 C 0.42342 0.28735 0.20647 0.0
H5069 H 0.39996 0.31908 0.22762 0.0
C5070 C 0.41414 0.27049 0.21201 0.0
C5071 C 0.41871 0.30521 0.21263 0.0
C5072 C 0.42829 0.32363 0.20682 0.0
C5073 C 0.39958 0.27085 0.22291 0.0
C5074 C 0.39434 0.28856 0.22839 0.0
C5075 C 0.40417 0.30559 0.22354 0.0
C5076 C 0.37715 0.28912 0.23662 0.0
C5077 C 0.38921 0.25212 0.2275 0.0
C5078 C 0.36285 0.29259 0.22575 0.0
C5079 C 0.34603 0.29178 0.23252 0.0
C5080 C 0.34342 0.28813 0.2505 0.0
C5081 C 0.35771 0.2848 0.26153 0.0
C5082 C 0.37457 0.28534 0.25461 0.0
H5083 H 0.39393 0.23933 0.22053 0.0
H5084 H 0.39083 0.25271 0.24275 0.0
H5085 H 0.37459 0.25008 0.22328 0.0
H5086 H 0.36456 0.2953 0.21176 0.0
H5087 H 0.33495 0.29374 0.22363 0.0
H5088 H 0.63037 0.50915 0.31236 0.0
H5089 H 0.61406 0.51166 0.34073 0.0
H5090 H 0.66447 0.53554 0.37417 0.0
H5091 H 0.68061 0.53292 0.34635 0.0
H5092 H 0.61399 0.49632 0.3744 0.0
H5093 H 0.63722 0.57562 0.39521 0.0
H5094 H 0.6399 0.56303 0.37241 0.0
H5095 H 0.65542 0.5634 0.39198 0.0
C5096 C 0.63811 0.51494 0.32568 0.0
C5097 C 0.65723 0.52079 0.3263 0.0
C5098 C 0.62862 0.51641 0.34223 0.0
C5099 C 0.63759 0.52421 0.36037 0.0
C5100 C 0.65662 0.52987 0.36088 0.0
H5101 H 0.60831 0.55486 0.47855 0.0
H5102 H 0.62279 0.55088 0.44939 0.0
C5103 C 0.66605 0.52817 0.34453 0.0
C5104 C 0.62751 0.52633 0.37858 0.0
H5105 H 0.62282 0.5591 0.41767 0.0
C5106 C 0.61592 0.51018 0.38368 0.0
C5107 C 0.62966 0.54415 0.39154 0.0
C5108 C 0.64107 0.56259 0.38751 0.0
C5109 C 0.60728 0.51112 0.40078 0.0
C5110 C 0.60925 0.52903 0.41372 0.0
C5111 C 0.6208 0.54519 0.40848 0.0
C5112 C 0.59988 0.53134 0.43249 0.0
C5113 C 0.59677 0.49234 0.40506 0.0
C5114 C 0.58164 0.52221 0.43402 0.0
C5115 C 0.5733 0.52429 0.45114 0.0
C5116 C 0.58237 0.53603 0.46795 0.0
C5117 C 0.60046 0.54554 0.4664 0.0
C5118 C 0.6089 0.54327 0.44931 0.0
H5119 H 0.60164 0.47974 0.39787 0.0
H5120 H 0.5978 0.49223 0.42021 0.0
H5121 H 0.58237 0.49031 0.4 0.0
H5122 H 0.57345 0.51354 0.4218 0.0
H5123 H 0.55945 0.51672 0.45104 0.0
H5124 H 0.30153 0.87339 0.06368 0.0
H5125 H 0.30568 0.86055 0.09209 0.0
H5126 H 0.31352 0.91812 0.12467 0.0
H5127 H 0.31034 0.9311 0.09617 0.0
H5128 H 0.33989 0.90348 0.13317 0.0
H5129 H 0.27812 0.84767 0.13433 0.0
H5130 H 0.28762 0.8431 0.11263 0.0
H5131 H 0.2794 0.86492 0.11885 0.0
C5132 C 0.30361 0.8832 0.07696 0.0
C5133 C 0.30567 0.90323 0.07776 0.0
C5134 C 0.30589 0.87583 0.09324 0.0
C5135 C 0.30977 0.88831 0.11063 0.0
C5136 C 0.31058 0.90818 0.11146 0.0
H5137 H 0.32688 0.84064 0.21155 0.0
H5138 H 0.31426 0.85628 0.18824 0.0
C5139 C 0.3087 0.91559 0.09517 0.0
C5140 C 0.31539 0.88117 0.12748 0.0
H5141 H 0.30487 0.84445 0.152 0.0
C5142 C 0.33204 0.89075 0.13743 0.0
C5143 C 0.30512 0.86473 0.13333 0.0
C5144 C 0.28649 0.85467 0.12432 0.0
C5145 C 0.339 0.88397 0.15253 0.0
C5146 C 0.32941 0.86666 0.15741 0.0
C5147 C 0.3124 0.85752 0.14803 0.0
C5148 C 0.33711 0.85749 0.17176 0.0
C5149 C 0.35656 0.89552 0.16309 0.0
C5150 C 0.35404 0.85279 0.17017 0.0
C5151 C 0.36136 0.84414 0.18358 0.0
C5152 C 0.35171 0.83962 0.19865 0.0
C5153 C 0.33461 0.844 0.20008 0.0
C5154 C 0.32739 0.8529 0.18678 0.0
H5155 H 0.35872 0.91108 0.16201 0.0
H5156 H 0.35696 0.89437 0.17803 0.0
H5157 H 0.36792 0.88996 0.15703 0.0
H5158 H 0.36154 0.85561 0.1584 0.0
H5159 H 0.37439 0.84056 0.18192 0.0
H5160 H 0.97119 0.58029 0.84345 0.0
H5161 H 0.99269 0.58407 0.87049 0.0
H5162 H 0.94878 0.56921 0.90394 0.0
H5163 H 0.92703 0.56557 0.87698 0.0
H5164 H 0.97965 0.59981 0.92249 0.0
H5165 H 0.99861 0.53283 0.88721 0.0
H5166 H 1.00018 0.5522 0.87424 0.0
H5167 H 0.9785 0.5401 0.87969 0.0
C5168 C 0.96602 0.57813 0.85662 0.0
C5169 C 0.94735 0.57225 0.85794 0.0
C5170 C 0.97837 0.58031 0.87205 0.0
C5171 C 0.97231 0.57656 0.88907 0.0
C5172 C 0.9537 0.57209 0.89085 0.0
H5173 H 0.00971 0.5344 0.98014 0.0
H5174 H 0.99528 0.54272 0.95314 0.0
C5175 C 0.94129 0.56998 0.87542 0.0
C5176 C 0.98527 0.57531 0.90438 0.0
H5177 H 0.01307 0.54699 0.91692 0.0
C5178 C 0.98717 0.58845 0.92124 0.0
C5179 C 0.99493 0.56035 0.90267 0.0
C5180 C 0.99293 0.54544 0.88506 0.0
C5181 C 0.99825 0.58675 0.9366 0.0
C5182 C 0.00758 0.57157 0.93495 0.0
C5183 C 0.00604 0.55876 0.91797 0.0
C5184 C 0.01691 0.56703 0.95131 0.0
C5185 C 0.99934 0.60058 0.95476 0.0
C5186 C 0.03401 0.5779 0.95906 0.0
C5187 C 0.04246 0.57311 0.97458 0.0
C5188 C 0.03383 0.55746 0.98253 0.0
C5189 C 0.01677 0.54658 0.97448 0.0
C5190 C 0.00845 0.55129 0.95902 0.0
H5191 H 0.99087 0.61133 0.95391 0.0
H5192 H 0.9949 0.59234 0.96588 0.0
H5193 H 0.01355 0.60847 0.95887 0.0
H5194 H 0.04076 0.59003 0.95314 0.0
H5195 H 0.05557 0.5818 0.9805 0.0
H5196 H 0.29245 0.19121 0.57495 0.0
H5197 H 0.29203 0.20549 0.60758 0.0
H5198 H 0.31126 0.26253 0.59525 0.0
H5199 H 0.31207 0.24822 0.56249 0.0
H5200 H 0.32817 0.25866 0.62759 0.0
H5201 H 0.25472 0.23266 0.62939 0.0
H5202 H 0.26546 0.21312 0.62179 0.0
H5203 H 0.26532 0.23159 0.6079 0.0
C5204 C 0.29666 0.2068 0.57913 0.0
C5205 C 0.30222 0.21853 0.56598 0.0
C5206 C 0.29624 0.21499 0.59785 0.0
C5207 C 0.30114 0.23519 0.60395 0.0
C5208 C 0.30722 0.24693 0.59096 0.0
H5209 H 0.30786 0.30066 0.72021 0.0
H5210 H 0.3051 0.29391 0.68584 0.0
C5211 C 0.30771 0.23872 0.57219 0.0
C5212 C 0.30017 0.24387 0.62391 0.0
H5213 H 0.27218 0.24343 0.65902 0.0
C5214 C 0.31584 0.25558 0.63437 0.0
C5215 C 0.28407 0.24008 0.63288 0.0
C5216 C 0.2664 0.22885 0.62236 0.0
C5217 C 0.31609 0.26262 0.6536 0.0
C5218 C 0.3002 0.25805 0.66269 0.0
C5219 C 0.28438 0.24696 0.65212 0.0
C5220 C 0.30025 0.26271 0.6834 0.0
C5221 C 0.33357 0.27414 0.66428 0.0
C5222 C 0.29784 0.24751 0.69347 0.0
C5223 C 0.2994 0.25133 0.71292 0.0
C5224 C 0.30304 0.27046 0.7229 0.0
C5225 C 0.30477 0.28577 0.7129 0.0
C5226 C 0.30338 0.28191 0.69328 0.0
H5227 H 0.3452 0.27432 0.65573 0.0
H5228 H 0.33242 0.28932 0.66899 0.0
H5229 H 0.33638 0.26806 0.67684 0.0
H5230 H 0.29539 0.2326 0.68627 0.0
H5231 H 0.29815 0.23925 0.72024 0.0
H5232 H 0.67326 0.52458 0.2002 0.0
H5233 H 0.65861 0.52891 0.17086 0.0
H5234 H 0.60655 0.51107 0.1904 0.0
H5235 H 0.62118 0.50687 0.21972 0.0
H5236 H 0.6374 0.50785 0.14156 0.0
H5237 H 0.59561 0.5568 0.1725 0.0
H5238 H 0.61293 0.55023 0.18629 0.0
H5239 H 0.59111 0.534 0.18027 0.0
C5240 C 0.65866 0.52147 0.19839 0.0
C5241 C 0.64875 0.51523 0.21301 0.0
C5242 C 0.65011 0.52404 0.18128 0.0
C5243 C 0.63104 0.52089 0.17768 0.0
C5244 C 0.62114 0.51436 0.19221 0.0
H5245 H 0.55624 0.53129 0.07874 0.0
H5246 H 0.56884 0.5267 0.10922 0.0
C5247 C 0.62969 0.51166 0.20927 0.0
C5248 C 0.62182 0.52399 0.15892 0.0
H5249 H 0.58971 0.54526 0.13998 0.0
C5250 C 0.62705 0.51617 0.14149 0.0
C5251 C 0.60793 0.53466 0.15775 0.0
C5252 C 0.60164 0.54458 0.17517 0.0
C5253 C 0.61905 0.51823 0.12384 0.0
C5254 C 0.60537 0.52916 0.12264 0.0
C5255 C 0.60001 0.53688 0.14007 0.0
C5256 C 0.597 0.53295 0.10374 0.0
C5257 C 0.62506 0.50775 0.10652 0.0
C5258 C 0.60796 0.53884 0.08977 0.0
C5259 C 0.60068 0.54145 0.07223 0.0
C5260 C 0.58189 0.53888 0.06735 0.0
C5261 C 0.57074 0.53368 0.08147 0.0
C5262 C 0.57811 0.53093 0.09919 0.0
H5263 H 0.63001 0.49489 0.10928 0.0
H5264 H 0.61394 0.50284 0.09516 0.0
H5265 H 0.63641 0.51763 0.10173 0.0
H5266 H 0.62248 0.54152 0.09234 0.0
H5267 H 0.61005 0.54551 0.06221 0.0
H5268 H 0.31048 0.88287 0.98245 0.0
H5269 H 0.30932 0.86366 0.95146 0.0
H5270 H 0.30115 0.91226 0.92701 0.0
H5271 H 0.30327 0.93193 0.95809 0.0
H5272 H 0.28588 0.85111 0.92317 0.0
H5273 H 0.34335 0.90101 0.90136 0.0
H5274 H 0.33716 0.90398 0.92489 0.0
H5275 H 0.32535 0.9128 0.90732 0.0
C5276 C 0.30824 0.88944 0.97049 0.0
C5277 C 0.30708 0.90898 0.97273 0.0
C5278 C 0.30765 0.87844 0.95274 0.0
C5279 C 0.30565 0.88664 0.93684 0.0
C5280 C 0.30337 0.9058 0.93904 0.0
H5281 H 0.27632 0.81736 0.8263 0.0
H5282 H 0.27694 0.83619 0.85734 0.0
C5283 C 0.30436 0.91696 0.95681 0.0
C5284 C 0.30612 0.8751 0.91807 0.0
H5285 H 0.32634 0.87589 0.87761 0.0
C5286 C 0.29481 0.85651 0.91326 0.0
C5287 C 0.31809 0.88188 0.90525 0.0
C5288 C 0.33181 0.90091 0.91003 0.0
C5289 C 0.29492 0.84467 0.89597 0.0
C5290 C 0.30608 0.85194 0.88272 0.0
C5291 C 0.31761 0.87039 0.88763 0.0
C5292 C 0.30584 0.84076 0.86364 0.0
C5293 C 0.28339 0.82433 0.89236 0.0
C5294 C 0.32199 0.83785 0.85635 0.0
C5295 C 0.3217 0.82748 0.83831 0.0
C5296 C 0.30524 0.81961 0.82741 0.0
C5297 C 0.28916 0.82278 0.83461 0.0
C5298 C 0.28949 0.83348 0.85241 0.0
H5299 H 0.28099 0.81889 0.90556 0.0
H5300 H 0.27004 0.82431 0.88545 0.0
H5301 H 0.28973 0.8141 0.88329 0.0
H5302 H 0.33481 0.84349 0.86467 0.0
H5303 H 0.33428 0.82535 0.833 0.0
H5304 H 0.92853 0.53138 0.73655 0.0
H5305 H 0.94435 0.52363 0.70895 0.0
H5306 H 0.99377 0.56061 0.73718 0.0
H5307 H 0.97821 0.56825 0.7648 0.0
H5308 H 0.96483 0.5472 0.68655 0.0
H5309 H 0.00635 0.50718 0.72286 0.0
H5310 H 0.98642 0.51376 0.73185 0.0
H5311 H 0.0075 0.53136 0.73503 0.0
C5312 C 0.94271 0.53804 0.73678 0.0
C5313 C 0.95219 0.55025 0.75289 0.0
C5314 C 0.95172 0.53357 0.72104 0.0
C5315 C 0.97028 0.54122 0.72125 0.0
C5316 C 0.97952 0.55423 0.73695 0.0
H5317 H 0.04127 0.55159 0.63546 0.0
H5318 H 0.02075 0.55549 0.6596 0.0
C5319 C 0.97058 0.55866 0.75266 0.0
C5320 C 0.98024 0.5353 0.70533 0.0
H5321 H 0.01588 0.51509 0.69402 0.0
C5322 C 0.97588 0.54001 0.68808 0.0
C5323 C 0.99437 0.52553 0.70732 0.0
C5324 C 0.99885 0.51897 0.72521 0.0
C5325 C 0.98589 0.53603 0.67295 0.0
C5326 C 1.0008 0.52745 0.67532 0.0
C5327 C 1.00459 0.5219 0.69232 0.0
C5328 C 0.01314 0.52491 0.66065 0.0
C5329 C 0.98043 0.5411 0.65459 0.0
C5330 C 0.01623 0.50651 0.65379 0.0
C5331 C 0.02812 0.50427 0.64011 0.0
C5332 C 0.0371 0.52041 0.63312 0.0
C5333 C 0.03428 0.53885 0.64036 0.0
C5334 C 0.02249 0.54109 0.65406 0.0
H5335 H 0.96593 0.54167 0.65337 0.0
H5336 H 0.98847 0.55564 0.65359 0.0
H5337 H 0.9829 0.53046 0.64271 0.0
H5338 H 0.00927 0.49387 0.65886 0.0
H5339 H 0.02997 0.48988 0.63469 0.0
H5340 H 0.30213 0.18425 0.43534 0.0
H5341 H 0.30591 0.20187 0.40974 0.0
H5342 H 0.31063 0.25575 0.4478 0.0
H5343 H 0.30653 0.23802 0.47385 0.0
H5344 H 0.28807 0.25345 0.41643 0.0
H5345 H 0.3512 0.2338 0.39478 0.0
H5346 H 0.33402 0.21278 0.39586 0.0
H5347 H 0.34283 0.23009 0.41679 0.0
C5348 C 0.30414 0.19988 0.43849 0.0
C5349 C 0.30412 0.20963 0.45691 0.0
C5350 C 0.30643 0.21 0.42369 0.0
C5351 C 0.30894 0.23025 0.42671 0.0
C5352 C 0.30888 0.24014 0.44504 0.0
H5353 H 0.33845 0.29267 0.33439 0.0
H5354 H 0.33875 0.28125 0.36413 0.0
C5355 C 0.3066 0.22997 0.45997 0.0
C5356 C 0.31083 0.24074 0.41053 0.0
H5357 H 0.3342 0.24538 0.37223 0.0
C5358 C 0.2983 0.25184 0.4069 0.0
C5359 C 0.32431 0.23901 0.3981 0.0
C5360 C 0.33897 0.22844 0.40167 0.0
C5361 C 0.2984 0.26049 0.39092 0.0
C5362 C 0.31118 0.25773 0.37789 0.0
C5363 C 0.3242 0.24733 0.38195 0.0
C5364 C 0.31099 0.26505 0.35981 0.0
C5365 C 0.28481 0.27261 0.38824 0.0
C5366 C 0.29547 0.25958 0.34713 0.0
C5367 C 0.29522 0.26626 0.33018 0.0
C5368 C 0.31055 0.27855 0.32527 0.0
C5369 C 0.32625 0.28363 0.33777 0.0
C5370 C 0.32647 0.27697 0.3548 0.0
H5371 H 0.28018 0.27843 0.40172 0.0
H5372 H 0.2905 0.28493 0.38139 0.0
H5373 H 0.27281 0.26344 0.37934 0.0
H5374 H 0.28349 0.24996 0.35025 0.0
H5375 H 0.2829 0.26178 0.32098 0.0
H5376 H 0.33133 0.61199 0.48762 0.0
H5377 H 0.35885 0.60153 0.49481 0.0
H5378 H 0.37334 0.648 0.54228 0.0
H5379 H 0.34541 0.65859 0.53531 0.0
H5380 H 0.39529 0.62108 0.4983 0.0
H5381 H 0.37348 0.59842 0.56418 0.0
H5382 H 0.35797 0.60367 0.54723 0.0
H5383 H 0.37387 0.62309 0.56197 0.0
C5384 C 0.34034 0.62014 0.49958 0.0
C5385 C 0.33602 0.63606 0.511 0.0
C5386 C 0.35614 0.61414 0.50361 0.0
C5387 C 0.36803 0.62382 0.51918 0.0
C5388 C 0.36419 0.64016 0.53032 0.0
H5389 H 0.46922 0.58369 0.53291 0.0
H5390 H 0.44851 0.60551 0.53177 0.0
C5391 C 0.3483 0.64626 0.52625 0.0
C5392 C 0.38398 0.61605 0.5238 0.0
H5393 H 0.40027 0.59085 0.55398 0.0
C5394 C 0.39659 0.61475 0.51063 0.0
C5395 C 0.38546 0.60762 0.53979 0.0
C5396 C 0.37196 0.60808 0.5541 0.0
C5397 C 0.41027 0.60459 0.51263 0.0
C5398 C 0.41151 0.59578 0.52842 0.0
C5399 C 0.3993 0.5977 0.54194 0.0
C5400 C 0.42429 0.58303 0.53027 0.0
C5401 C 0.42263 0.60249 0.49735 0.0
C5402 C 0.41757 0.56328 0.53033 0.0
C5403 C 0.42934 0.55081 0.53101 0.0
C5404 C 0.4481 0.55785 0.53168 0.0
C5405 C 0.45483 0.57775 0.53207 0.0
C5406 C 0.44302 0.59025 0.53144 0.0
H5407 H 0.41762 0.60688 0.48453 0.0
H5408 H 0.43619 0.61183 0.50218 0.0
H5409 H 0.42412 0.58727 0.49378 0.0
H5410 H 0.40316 0.55741 0.52941 0.0
H5411 H 0.4237 0.53554 0.53051 0.0
H5412 H 0.85803 0.94807 0.55715 0.0
H5413 H 0.88929 0.96662 0.5604 0.0
H5414 H 0.90196 0.92446 0.51669 0.0
H5415 H 0.87116 0.90499 0.51496 0.0
H5416 H 0.92827 0.93348 0.54029 0.0
H5417 H 0.9129 1.00401 0.53266 0.0
H5418 H 0.90449 0.99615 0.55315 0.0
H5419 H 0.89573 0.98223 0.53051 0.0
C5420 C 0.86752 0.94294 0.54815 0.0
C5421 C 0.86213 0.92536 0.53549 0.0
C5422 C 0.88542 0.95364 0.54988 0.0
C5423 C 0.89816 0.94744 0.53841 0.0
C5424 C 0.8926 0.92977 0.52573 0.0
H5425 H 1.00412 0.99082 0.50668 0.0
H5426 H 0.97476 0.97172 0.5114 0.0
C5427 C 0.87493 0.91869 0.52459 0.0
C5428 C 0.91735 0.95884 0.53978 0.0
H5429 H 0.94345 1.00406 0.54005 0.0
C5430 C 0.93146 0.9489 0.54013 0.0
C5431 C 0.92194 0.97915 0.54002 0.0
C5432 C 0.90797 0.99104 0.53894 0.0
C5433 C 0.94964 0.95844 0.54018 0.0
C5434 C 0.95397 0.97852 0.53985 0.0
C5435 C 0.9401 0.98864 0.54029 0.0
C5436 C 0.97258 0.98922 0.53791 0.0
C5437 C 0.96408 0.94693 0.54064 0.0
C5438 C 0.9811 1.00564 0.55111 0.0
C5439 C 0.99795 0.0167 0.54843 0.0
C5440 C 0.0065 0.01173 0.53232 0.0
C5441 C 0.998 0.99513 0.51926 0.0
C5442 C 0.98122 0.98404 0.522 0.0
H5443 H 0.95942 0.93355 0.5464 0.0
H5444 H 0.9675 0.94254 0.52625 0.0
H5445 H 0.97654 0.95571 0.54907 0.0
H5446 H 0.97464 0.01001 0.56343 0.0
H5447 H 1.00416 0.02922 0.5589 0.0
H5448 H 0.89225 0.11443 0.30165 0.0
H5449 H 0.8778 0.14137 0.29928 0.0
H5450 H 0.90547 0.15155 0.25106 0.0
H5451 H 0.91998 0.12419 0.25333 0.0
H5452 H 0.88496 0.17884 0.3024 0.0
H5453 H 0.85812 0.15505 0.22883 0.0
H5454 H 0.86839 0.13983 0.2413 0.0
H5455 H 0.88224 0.15894 0.23196 0.0
C5456 C 0.89556 0.12228 0.29045 0.0
C5457 C 0.90782 0.11635 0.2778 0.0
C5458 C 0.88701 0.13811 0.28908 0.0
C5459 C 0.88968 0.1492 0.27473 0.0
C5460 C 0.90221 0.14357 0.26217 0.0
H5461 H 0.84473 0.24748 0.24116 0.0
H5462 H 0.85948 0.22094 0.24432 0.0
C5463 C 0.91096 0.12773 0.26364 0.0
C5464 C 0.87956 0.16627 0.27333 0.0
H5465 H 0.85464 0.18586 0.24326 0.0
C5466 C 0.87835 0.18012 0.28932 0.0
C5467 C 0.87046 0.16896 0.25661 0.0
C5468 C 0.86966 0.15484 0.23872 0.0
C5469 C 0.86934 0.19598 0.28904 0.0
C5470 C 0.86014 0.19865 0.27232 0.0
C5471 C 0.86131 0.18471 0.25635 0.0
C5472 C 0.85005 0.21575 0.27075 0.0
C5473 C 0.87055 0.21025 0.30691 0.0
C5474 C 0.83886 0.22292 0.28416 0.0
C5475 C 0.83023 0.23879 0.28237 0.0
C5476 C 0.8318 0.24831 0.26678 0.0
C5477 C 0.84268 0.24092 0.25339 0.0
C5478 C 0.85132 0.2253 0.25521 0.0
H5479 H 0.88233 0.21014 0.3165 0.0
H5480 H 0.87172 0.22523 0.30426 0.0
H5481 H 0.85822 0.20619 0.31408 0.0
H5482 H 0.8365 0.21614 0.29618 0.0
H5483 H 0.8223 0.24359 0.29331 0.0
H5484 H 0.74532 0.11993 0.02903 0.0
H5485 H 0.71352 0.10752 0.03263 0.0
H5486 H 0.69981 0.1545 0.00904 0.0
H5487 H 0.73142 0.16542 1.00345 0.0
H5488 H 0.69192 0.12101 0.05233 0.0
H5489 H 0.66262 0.11311 0.97983 0.0
H5490 H 0.68651 0.12114 0.98602 0.0
H5491 H 0.67209 0.13804 0.98961 0.0
C5492 C 0.73534 0.12696 0.02379 0.0
C5493 C 0.74053 0.14275 0.01482 0.0
C5494 C 0.71721 0.12017 0.02622 0.0
C5495 C 0.70402 0.12966 0.02055 0.0
C5496 C 0.70947 0.1463 0.0127 0.0
H5497 H 0.58896 0.10718 0.03694 0.0
H5498 H 0.62067 0.12373 0.03687 0.0
C5499 C 0.72755 0.15265 0.00966 0.0
C5500 C 0.68483 0.12252 0.02375 0.0
H5501 H 0.64169 0.10892 1.00276 0.0
C5502 C 0.68102 0.11828 0.04139 0.0
C5503 C 0.6704 0.11922 0.00962 0.0
C5504 C 0.67316 0.12296 0.9902 0.0
C5505 C 0.6634 0.11043 0.04512 0.0
C5506 C 0.64919 0.10693 0.03097 0.0
C5507 C 0.65276 0.11167 0.01356 0.0
C5508 C 0.6306 0.09737 0.03355 0.0
C5509 C 0.65999 0.10579 0.06408 0.0
C5510 C 0.62588 0.07716 0.03187 0.0
C5511 C 0.60784 0.06771 0.03166 0.0
C5512 C 0.59433 0.07839 0.03351 0.0
C5513 C 0.59919 0.09868 0.03576 0.0
C5514 C 0.61722 0.10812 0.03574 0.0
H5515 H 0.67213 0.11127 0.07421 0.0
H5516 H 0.6488 0.11222 0.06946 0.0
H5517 H 0.65583 0.08984 0.06294 0.0
H5518 H 0.63606 0.06866 0.02994 0.0
H5519 H 0.60445 0.05206 0.02938 0.0
H5520 H 0.22986 0.50293 0.28174 0.0
H5521 H 0.23963 0.47306 0.27178 0.0
H5522 H 0.19252 0.45192 0.23241 0.0
H5523 H 0.18258 0.48222 0.24218 0.0
H5524 H 0.22175 0.43422 0.27158 0.0
H5525 H 0.23586 0.44857 0.2007 0.0
H5526 H 0.2326 0.46741 0.21899 0.0
H5527 H 0.21369 0.44876 0.20802 0.0
C5528 C 0.22144 0.49198 0.27101 0.0
C5529 C 0.20547 0.49509 0.26268 0.0
C5530 C 0.22705 0.47484 0.26537 0.0
C5531 C 0.21689 0.46037 0.25126 0.0
C5532 C 0.20065 0.46305 0.24319 0.0
H5533 H 0.27094 0.36235 0.24046 0.0
H5534 H 0.24475 0.37709 0.23802 0.0
C5535 C 0.19496 0.48031 0.24887 0.0
C5536 C 0.22404 0.44296 0.24498 0.0
H5537 H 0.24757 0.42402 0.21094 0.0
C5538 C 0.22702 0.43158 0.25815 0.0
C5539 C 0.23089 0.4397 0.22745 0.0
C5540 C 0.22823 0.45174 0.21292 0.0
C5541 C 0.23796 0.41811 0.2549 0.0
C5542 C 0.24573 0.41563 0.23776 0.0
C5543 C 0.24155 0.42593 0.22402 0.0
C5544 C 0.26052 0.40514 0.23523 0.0
C5545 C 0.24233 0.40794 0.27048 0.0
C5546 C 0.27785 0.41563 0.23321 0.0
C5547 C 0.29271 0.4072 0.23434 0.0
C5548 C 0.2905 0.38816 0.23763 0.0
C5549 C 0.27299 0.37718 0.23825 0.0
C5550 C 0.25807 0.38558 0.2369 0.0
H5551 H 0.23755 0.41393 0.28381 0.0
H5552 H 0.23568 0.39233 0.26676 0.0
H5553 H 0.25711 0.40917 0.27271 0.0
H5554 H 0.28006 0.43074 0.23189 0.0
H5555 H 0.30606 0.41601 0.23388 0.0
H5556 H 0.26209 0.41063 0.05449 0.0
H5557 H 0.23455 0.4237 0.05575 0.0
H5558 H 0.244 0.44241 1.00348 0.0
H5559 H 0.27106 0.42948 1.0021 0.0
H5560 H 0.23324 0.4629 0.05622 0.0
H5561 H 0.19061 0.41638 0.9953 0.0
H5562 H 0.20976 0.40966 0.00597 0.0
H5563 H 0.21292 0.4259 0.98954 0.0
C5564 C 0.258 0.41711 0.04309 0.0
C5565 C 0.26877 0.41897 0.02819 0.0
C5566 C 0.24234 0.42469 0.04387 0.0
C5567 C 0.23703 0.43386 0.02958 0.0
C5568 C 0.24752 0.4351 0.01449 0.0
H5569 H 0.1764 0.51162 0.9989 0.0
H5570 H 0.19494 0.48828 1.00261 0.0
C5571 C 0.26311 0.42777 0.01379 0.0
C5572 C 0.22151 0.44361 0.03076 0.0
H5573 H 0.18433 0.44808 1.00486 0.0
C5574 C 0.22228 0.45938 0.04525 0.0
C5575 C 0.20719 0.43908 0.01642 0.0
C5576 C 0.20495 0.4217 1.00104 0.0
C5577 C 0.20987 0.47147 0.04511 0.0
C5578 C 0.19618 0.46756 0.03019 0.0
C5579 C 0.19487 0.4512 0.01623 0.0
C5580 C 0.18417 0.48117 0.02793 0.0
C5581 C 0.21213 0.489 0.06034 0.0
C5582 C 0.17164 0.48475 0.04075 0.0
C5583 C 0.16096 0.49818 0.03866 0.0
C5584 C 0.16266 0.50836 0.02375 0.0
C5585 C 0.17492 0.50432 0.01072 0.0
C5586 C 0.18547 0.49087 0.01276 0.0
H5587 H 0.22507 0.49172 0.06919 0.0
H5588 H 0.21161 0.50211 0.05432 0.0
H5589 H 0.20091 0.48673 0.06935 0.0
H5590 H 0.17018 0.47725 0.05243 0.0
H5591 H 0.1517 0.50095 0.04898 0.0
H5592 H 0.93196 1.0039 0.28607 0.0
H5593 H 0.91537 0.97041 0.28538 0.0
H5594 H 0.87051 0.98099 0.25331 0.0
H5595 H 0.88729 0.01431 0.25375 0.0
H5596 H 0.88553 0.95402 0.29866 0.0
H5597 H 0.87265 0.93086 0.22245 0.0
H5598 H 0.88773 0.95348 0.23297 0.0
H5599 H 0.86369 0.95157 0.23078 0.0
C5600 C 0.91856 0.99912 0.27883 0.0
C5601 C 0.91091 0.01233 0.27046 0.0
C5602 C 0.90894 0.97977 0.27844 0.0
C5603 C 0.89143 0.97244 0.26913 0.0
C5604 C 0.88399 0.98557 0.26034 0.0
H5605 H 0.81181 0.85814 0.25394 0.0
H5606 H 0.82754 0.89177 0.25405 0.0
C5607 C 0.89357 1.00497 0.26085 0.0
C5608 C 0.88105 0.95145 0.26901 0.0
H5609 H 0.85723 0.90931 0.24062 0.0
C5610 C 0.87947 0.94433 0.28586 0.0
C5611 C 0.87279 0.93822 0.25253 0.0
C5612 C 0.87442 0.94381 0.23364 0.0
C5613 C 0.86994 0.92515 0.28675 0.0
C5614 C 0.86179 0.91187 0.27026 0.0
C5615 C 0.86326 0.91902 0.25342 0.0
C5616 C 0.8519 0.89071 0.27018 0.0
C5617 C 0.86827 0.91959 0.30565 0.0
C5618 C 0.85998 0.87797 0.27884 0.0
C5619 C 0.85086 0.85854 0.27886 0.0
C5620 C 0.83316 0.85072 0.27013 0.0
C5621 C 0.82519 0.86332 0.26113 0.0
C5622 C 0.83436 0.88279 0.26109 0.0
H5623 H 0.86975 0.93255 0.31678 0.0
H5624 H 0.85505 0.9097 0.30623 0.0
H5625 H 0.87915 0.9121 0.30868 0.0
H5626 H 0.87359 0.88295 0.28552 0.0
H5627 H 0.8578 0.84962 0.28583 0.0
H5628 H 0.72998 0.08749 0.74825 0.0
H5629 H 0.74496 0.12154 0.75071 0.0
H5630 H 0.69647 0.13844 0.76849 0.0
H5631 H 0.68227 0.10435 0.76794 0.0
H5632 H 0.74056 0.14832 0.73463 0.0
H5633 H 0.7295 0.17286 0.80818 0.0
H5634 H 0.72068 0.14828 0.79669 0.0
H5635 H 0.70888 0.16675 0.79325 0.0
C5636 C 0.72282 0.09857 0.75336 0.0
C5637 C 0.70551 0.09348 0.75913 0.0
C5638 C 0.73122 0.11804 0.75441 0.0
C5639 C 0.72214 0.1328 0.76049 0.0
C5640 C 0.70416 0.12752 0.76469 0.0
H5641 H 0.77144 0.25397 0.75371 0.0
H5642 H 0.7527 0.22092 0.74613 0.0
C5643 C 0.69599 0.10804 0.76422 0.0
C5644 C 0.73165 0.15351 0.76212 0.0
H5645 H 0.7443 0.19683 0.79224 0.0
C5646 C 0.74131 0.1589 0.74726 0.0
C5647 C 0.73249 0.16759 0.77847 0.0
C5648 C 0.72244 0.16353 0.79508 0.0
C5649 C 0.75232 0.17749 0.74858 0.0
C5650 C 0.75351 0.1912 0.76508 0.0
C5651 C 0.74338 0.18618 0.77963 0.0
C5652 C 0.76588 0.21057 0.76813 0.0
C5653 C 0.7633 0.182 0.73272 0.0
C5654 C 0.77945 0.21567 0.78298 0.0
C5655 C 0.79002 0.23446 0.78735 0.0
C5656 C 0.7873 0.24845 0.77689 0.0
C5657 C 0.77405 0.24327 0.76171 0.0
C5658 C 0.76337 0.22443 0.75737 0.0
H5659 H 0.76303 0.16886 0.72217 0.0
H5660 H 0.75791 0.1925 0.72575 0.0
H5661 H 0.77751 0.18872 0.73809 0.0
H5662 H 0.78153 0.20521 0.79151 0.0
H5663 H 0.80007 0.23824 0.7992 0.0
loop_
_geom_bond_atom_site_label_1
_geom_bond_atom_site_label_2
_geom_bond_distance
_geom_bond_site_symmetry_2
_ccdc_geom_bond_type
Mn0 O5 2.095 . S
Mn0 O15 2.162 . S
Mn0 O16 2.297 . S
Mn0 O24 2.385 . S
Mn0 O25 2.209 . S
Mn0 O26 2.094 . S
Mn1 O6 2.121 . S
Mn1 N8 2.257 . S
Mn1 N17 2.282 . S
Mn1 O25 2.215 . S
Mn1 O27 2.117 . S
C2 O24 1.234 . S
C2 O25 1.283 . S
C3 O15 1.281 . S
C3 O16 1.236 . S
C4 O26 1.240 . S
C4 O27 1.264 . S
O5 Mn0 2.095 . S
O5 C14 1.250 . S
O6 Mn1 2.121 . S
O6 C14 1.258 . S
C7 N8 1.326 . S
C7 C11 1.460 . S
C7 H13 0.929 . S
N8 Mn1 2.257 . S
N8 C7 1.326 . S
N8 C12 1.362 . S
C9 C10 1.258 . S
C9 C12 1.431 . S
C9 C29 1.449 . S
C10 C9 1.258 . S
C10 C11 1.477 . S
C10 H30 0.931 . S
C11 C7 1.460 . S
C11 C10 1.477 . S
C11 H31 0.930 . S
C12 N8 1.362 . S
C12 C9 1.431 . S
C12 C22 1.476 . S
H13 C7 0.929 . S
C14 O5 1.250 . S
C14 O6 1.258 . S
O15 Mn0 2.162 . S
O15 C3 1.281 . S
O16 Mn0 2.297 . S
O16 C3 1.236 . S
N17 Mn1 2.282 . S
N17 C18 1.328 . S
N17 C22 1.318 . S
C18 N17 1.328 . S
C18 C19 1.457 . S
C18 H23 0.929 . S
C19 C18 1.457 . S
C19 C20 1.291 . S
C19 H32 0.931 . S
C20 C19 1.291 . S
C20 C21 1.373 . S
C20 H33 0.929 . S
C21 C20 1.373 . S
C21 C22 1.396 . S
C21 C28 1.403 . S
C22 C12 1.476 . S
C22 N17 1.318 . S
C22 C21 1.396 . S
H23 C18 0.929 . S
O24 Mn0 2.385 . S
O24 C2 1.234 . S
O25 Mn0 2.209 . S
O25 Mn1 2.215 . S
O25 C2 1.283 . S
O26 Mn0 2.094 . S
O26 C4 1.240 . S
O27 Mn1 2.117 . S
O27 C4 1.264 . S
C28 C21 1.403 . S
C28 C29 1.399 . S
C28 H34 0.929 . S
C29 C9 1.449 . S
C29 C28 1.399 . S
C29 H35 0.930 . S
H30 C10 0.931 . S
H31 C11 0.930 . S
H32 C19 0.931 . S
H33 C20 0.929 . S
H34 C28 0.929 . S
H35 C29 0.930 . S
Mn36 O41 2.059 1_455 S
Mn36 O51 2.163 1_455 S
Mn36 O52 2.302 1_455 S
Mn36 O60 2.423 . S
Mn36 O61 2.225 . S
Mn36 O62 2.091 . S
Mn37 O42 2.121 1_455 S
Mn37 N44 2.257 . S
Mn37 N53 2.282 . S
Mn37 O61 2.215 . S
Mn37 O63 2.117 . S
C38 O60 1.234 . S
C38 O61 1.283 . S
C39 O51 1.281 . S
C39 O52 1.236 . S
C40 O62 1.240 . S
C40 O63 1.264 . S
O41 Mn36 2.059 1_655 S
O41 C50 1.250 . S
O42 Mn37 2.121 1_655 S
O42 C50 1.258 . S
C43 N44 1.326 . S
C43 C47 1.460 . S
C43 H49 0.929 1_455 S
N44 Mn37 2.257 . S
N44 C43 1.326 . S
N44 C48 1.362 . S
C45 C46 1.258 . S
C45 C48 1.431 . S
C45 C65 1.449 . S
C46 C45 1.258 . S
C46 C47 1.477 . S
C46 H66 0.931 . S
C47 C43 1.460 . S
C47 C46 1.477 . S
C47 H67 0.930 . S
C48 N44 1.362 . S
C48 C45 1.431 . S
C48 C58 1.476 . S
H49 C43 0.929 1_655 S
C50 O41 1.250 . S
C50 O42 1.258 . S
O51 Mn36 2.163 1_655 S
O51 C39 1.281 . S
O52 Mn36 2.302 1_655 S
O52 C39 1.236 . S
N53 Mn37 2.282 . S
N53 C54 1.328 . S
N53 C58 1.318 . S
C54 N53 1.328 . S
C54 C55 1.457 . S
C54 H59 0.929 . S
C55 C54 1.457 . S
C55 C56 1.291 . S
C55 H68 0.931 . S
C56 C55 1.291 . S
C56 C57 1.373 . S
C56 H69 0.929 . S
C57 C56 1.373 . S
C57 C58 1.396 . S
C57 C64 1.403 . S
C58 C48 1.476 . S
C58 N53 1.318 . S
C58 C57 1.396 . S
H59 C54 0.929 . S
O60 Mn36 2.423 . S
O60 C38 1.234 . S
O61 Mn36 2.225 . S
O61 Mn37 2.215 . S
O61 C38 1.283 . S
O62 Mn36 2.091 . S
O62 C40 1.240 . S
O63 Mn37 2.117 . S
O63 C40 1.264 . S
C64 C57 1.403 . S
C64 C65 1.399 . S
C64 H70 0.929 . S
C65 C45 1.449 . S
C65 C64 1.399 . S
C65 H71 0.930 . S
H66 C46 0.931 . S
H67 C47 0.930 . S
H68 C55 0.931 . S
H69 C56 0.929 . S
H70 C64 0.929 . S
H71 C65 0.930 . S
Mn72 O77 2.095 . S
Mn72 O87 2.162 . S
Mn72 O88 2.297 . S
Mn72 O96 2.385 . S
Mn72 O97 2.209 . S
Mn72 O98 2.094 . S
Mn73 O78 2.121 . S
Mn73 N80 2.257 . S
Mn73 N89 2.282 . S
Mn73 O97 2.215 . S
Mn73 O99 2.117 . S
C74 O96 1.234 . S
C74 O97 1.283 . S
C75 O87 1.281 . S
C75 O88 1.236 . S
C76 O98 1.240 . S
C76 O99 1.264 . S
O77 Mn72 2.095 . S
O77 C86 1.250 . S
O78 Mn73 2.121 . S
O78 C86 1.258 . S
C79 N80 1.326 . S
C79 C83 1.460 . S
C79 H85 0.929 . S
N80 Mn73 2.257 . S
N80 C79 1.326 . S
N80 C84 1.362 . S
C81 C82 1.258 . S
C81 C84 1.431 . S
C81 C101 1.449 . S
C82 C81 1.258 . S
C82 C83 1.477 . S
C82 H102 0.931 . S
C83 C79 1.460 . S
C83 C82 1.477 . S
C83 H103 0.930 . S
C84 N80 1.362 . S
C84 C81 1.431 . S
C84 C94 1.476 . S
H85 C79 0.929 . S
C86 O77 1.250 . S
C86 O78 1.258 . S
O87 Mn72 2.162 . S
O87 C75 1.281 . S
O88 Mn72 2.297 . S
O88 C75 1.236 . S
N89 Mn73 2.282 . S
N89 C90 1.328 . S
N89 C94 1.318 . S
C90 N89 1.328 . S
C90 C91 1.457 . S
C90 H95 0.929 . S
C91 C90 1.457 . S
C91 C92 1.291 . S
C91 H104 0.931 . S
C92 C91 1.291 . S
C92 C93 1.373 . S
C92 H105 0.929 . S
C93 C92 1.373 . S
C93 C94 1.396 . S
C93 C100 1.403 . S
C94 C84 1.476 . S
C94 N89 1.318 . S
C94 C93 1.396 . S
H95 C90 0.929 . S
O96 Mn72 2.385 . S
O96 C74 1.234 . S
O97 Mn72 2.209 . S
O97 Mn73 2.215 . S
O97 C74 1.283 . S
O98 Mn72 2.094 . S
O98 C76 1.240 . S
O99 Mn73 2.117 . S
O99 C76 1.264 . S
C100 C93 1.403 . S
C100 C101 1.399 . S
C100 H106 0.929 . S
C101 C81 1.449 . S
C101 C100 1.399 . S
C101 H107 0.930 . S
H102 C82 0.931 . S
H103 C83 0.930 . S
H104 C91 0.931 . S
H105 C92 0.929 . S
H106 C100 0.929 . S
H107 C101 0.930 . S
Mn108 O113 2.095 . S
Mn108 O123 2.162 . S
Mn108 O124 2.297 . S
Mn108 O132 2.385 . S
Mn108 O133 2.209 . S
Mn108 O134 2.094 . S
Mn109 O114 2.121 . S
Mn109 N116 2.257 . S
Mn109 N125 2.282 . S
Mn109 O133 2.215 . S
Mn109 O135 2.117 . S
C110 O132 1.234 . S
C110 O133 1.283 . S
C111 O123 1.281 . S
C111 O124 1.236 . S
C112 O134 1.240 . S
C112 O135 1.264 . S
O113 Mn108 2.095 . S
O113 C122 1.250 . S
O114 Mn109 2.121 . S
O114 C122 1.258 . S
C115 N116 1.326 . S
C115 C119 1.460 . S
C115 H121 0.929 . S
N116 Mn109 2.257 . S
N116 C115 1.326 . S
N116 C120 1.362 . S
C117 C118 1.258 . S
C117 C120 1.431 . S
C117 C137 1.449 . S
C118 C117 1.258 . S
C118 C119 1.477 . S
C118 H138 0.931 . S
C119 C115 1.460 . S
C119 C118 1.477 . S
C119 H139 0.930 . S
C120 N116 1.362 . S
C120 C117 1.431 . S
C120 C130 1.476 . S
H121 C115 0.929 . S
C122 O113 1.250 . S
C122 O114 1.258 . S
O123 Mn108 2.162 . S
O123 C111 1.281 . S
O124 Mn108 2.297 . S
O124 C111 1.236 . S
N125 Mn109 2.282 . S
N125 C126 1.328 . S
N125 C130 1.318 . S
C126 N125 1.328 . S
C126 C127 1.457 . S
C126 H131 0.929 . S
C127 C126 1.457 . S
C127 C128 1.291 . S
C127 H140 0.931 . S
C128 C127 1.291 . S
C128 C129 1.373 . S
C128 H141 0.929 . S
C129 C128 1.373 . S
C129 C130 1.396 . S
C129 C136 1.403 . S
C130 C120 1.476 . S
C130 N125 1.318 . S
C130 C129 1.396 . S
H131 C126 0.929 . S
O132 Mn108 2.385 . S
O132 C110 1.234 . S
O133 Mn108 2.209 . S
O133 Mn109 2.215 . S
O133 C110 1.283 . S
O134 Mn108 2.094 . S
O134 C112 1.240 . S
O135 Mn109 2.117 . S
O135 C112 1.264 . S
C136 C129 1.403 . S
C136 C137 1.399 . S
C136 H142 0.929 . S
C137 C117 1.449 . S
C137 C136 1.399 . S
C137 H143 0.930 . S
H138 C118 0.931 . S
H139 C119 0.930 . S
H140 C127 0.931 . S
H141 C128 0.929 . S
H142 C136 0.929 . S
H143 C137 0.930 . S
Mn144 O149 2.095 . S
Mn144 O159 2.162 . S
Mn144 O160 2.297 . S
Mn144 O168 2.385 . S
Mn144 O169 2.209 . S
Mn144 O170 2.094 . S
Mn145 O150 2.121 . S
Mn145 N152 2.257 . S
Mn145 N161 2.282 . S
Mn145 O169 2.215 . S
Mn145 O171 2.117 . S
C146 O168 1.234 . S
C146 O169 1.283 . S
C147 O159 1.281 . S
C147 O160 1.236 . S
C148 O170 1.240 . S
C148 O171 1.264 . S
O149 Mn144 2.095 . S
O149 C158 1.250 . S
O150 Mn145 2.121 . S
O150 C158 1.258 . S
C151 N152 1.326 . S
C151 C155 1.460 . S
C151 H157 0.929 . S
N152 Mn145 2.257 . S
N152 C151 1.326 . S
N152 C156 1.362 . S
C153 C154 1.258 . S
C153 C156 1.431 . S
C153 C173 1.449 . S
C154 C153 1.258 . S
C154 C155 1.477 . S
C154 H174 0.931 1_554 S
C155 C151 1.460 . S
C155 C154 1.477 . S
C155 H175 0.930 . S
C156 N152 1.362 . S
C156 C153 1.431 . S
C156 C166 1.476 . S
H157 C151 0.929 . S
C158 O149 1.250 . S
C158 O150 1.258 . S
O159 Mn144 2.162 . S
O159 C147 1.281 . S
O160 Mn144 2.297 . S
O160 C147 1.236 . S
N161 Mn145 2.282 . S
N161 C162 1.328 . S
N161 C166 1.318 . S
C162 N161 1.328 . S
C162 C163 1.457 . S
C162 H167 0.929 . S
C163 C162 1.457 . S
C163 C164 1.291 . S
C163 H176 0.931 . S
C164 C163 1.291 . S
C164 C165 1.373 . S
C164 H177 0.929 . S
C165 C164 1.373 . S
C165 C166 1.396 . S
C165 C172 1.403 . S
C166 C156 1.476 . S
C166 N161 1.318 . S
C166 C165 1.396 . S
H167 C162 0.929 . S
O168 Mn144 2.385 . S
O168 C146 1.234 . S
O169 Mn144 2.209 . S
O169 Mn145 2.215 . S
O169 C146 1.283 . S
O170 Mn144 2.094 . S
O170 C148 1.240 . S
O171 Mn145 2.117 . S
O171 C148 1.264 . S
C172 C165 1.403 . S
C172 C173 1.399 . S
C172 H178 0.929 . S
C173 C153 1.449 . S
C173 C172 1.399 . S
C173 H179 0.930 1_554 S
H174 C154 0.931 1_556 S
H175 C155 0.930 . S
H176 C163 0.931 . S
H177 C164 0.929 . S
H178 C172 0.929 . S
H179 C173 0.930 1_556 S
Mn180 O185 2.095 . S
Mn180 O195 2.162 . S
Mn180 O196 2.297 . S
Mn180 O204 2.385 . S
Mn180 O205 2.209 . S
Mn180 O206 2.094 . S
Mn181 O186 2.121 . S
Mn181 N188 2.257 . S
Mn181 N197 2.282 . S
Mn181 O205 2.215 . S
Mn181 O207 2.117 . S
C182 O204 1.234 . S
C182 O205 1.283 . S
C183 O195 1.281 . S
C183 O196 1.236 . S
C184 O206 1.240 . S
C184 O207 1.264 . S
O185 Mn180 2.095 . S
O185 C194 1.250 . S
O186 Mn181 2.121 . S
O186 C194 1.258 . S
C187 N188 1.326 . S
C187 C191 1.460 . S
C187 H193 0.929 . S
N188 Mn181 2.257 . S
N188 C187 1.326 . S
N188 C192 1.362 . S
C189 C190 1.258 . S
C189 C192 1.431 . S
C189 C209 1.449 . S
C190 C189 1.258 . S
C190 C191 1.477 . S
C190 H210 0.931 . S
C191 C187 1.460 . S
C191 C190 1.477 . S
C191 H211 0.930 . S
C192 N188 1.362 . S
C192 C189 1.431 . S
C192 C202 1.476 . S
H193 C187 0.929 . S
C194 O185 1.250 . S
C194 O186 1.258 . S
O195 Mn180 2.162 . S
O195 C183 1.281 . S
O196 Mn180 2.297 . S
O196 C183 1.236 . S
N197 Mn181 2.282 . S
N197 C198 1.328 . S
N197 C202 1.318 . S
C198 N197 1.328 . S
C198 C199 1.457 . S
C198 H203 0.929 . S
C199 C198 1.457 . S
C199 C200 1.291 . S
C199 H212 0.931 . S
C200 C199 1.291 . S
C200 C201 1.373 . S
C200 H213 0.929 . S
C201 C200 1.373 . S
C201 C202 1.396 . S
C201 C208 1.403 . S
C202 C192 1.476 . S
C202 N197 1.318 . S
C202 C201 1.396 . S
H203 C198 0.929 . S
O204 Mn180 2.385 . S
O204 C182 1.234 . S
O205 Mn180 2.209 . S
O205 Mn181 2.215 . S
O205 C182 1.283 . S
O206 Mn180 2.094 . S
O206 C184 1.240 . S
O207 Mn181 2.117 . S
O207 C184 1.264 . S
C208 C201 1.403 . S
C208 C209 1.399 . S
C208 H214 0.929 . S
C209 C189 1.449 . S
C209 C208 1.399 . S
C209 H215 0.930 . S
H210 C190 0.931 . S
H211 C191 0.930 . S
H212 C199 0.931 . S
H213 C200 0.929 . S
H214 C208 0.929 . S
H215 C209 0.930 . S
Mn216 O221 2.095 . S
Mn216 O231 2.162 . S
Mn216 O232 2.297 . S
Mn216 O240 2.385 . S
Mn216 O241 2.209 . S
Mn216 O242 2.094 . S
Mn217 O222 2.121 . S
Mn217 N224 2.257 . S
Mn217 N233 2.282 . S
Mn217 O241 2.215 . S
Mn217 O243 2.117 . S
C218 O240 1.234 . S
C218 O241 1.283 . S
C219 O231 1.281 . S
C219 O232 1.236 . S
C220 O242 1.240 . S
C220 O243 1.264 . S
O221 Mn216 2.095 . S
O221 C230 1.250 . S
O222 Mn217 2.121 . S
O222 C230 1.258 . S
C223 N224 1.326 . S
C223 C227 1.460 . S
C223 H229 0.929 . S
N224 Mn217 2.257 . S
N224 C223 1.326 . S
N224 C228 1.362 . S
C225 C226 1.258 . S
C225 C228 1.431 . S
C225 C245 1.449 . S
C226 C225 1.258 . S
C226 C227 1.477 . S
C226 H246 0.931 . S
C227 C223 1.460 . S
C227 C226 1.477 . S
C227 H247 0.930 . S
C228 N224 1.362 . S
C228 C225 1.431 . S
C228 C238 1.476 . S
H229 C223 0.929 . S
C230 O221 1.250 . S
C230 O222 1.258 . S
O231 Mn216 2.162 . S
O231 C219 1.281 . S
O232 Mn216 2.297 . S
O232 C219 1.236 . S
N233 Mn217 2.282 . S
N233 C234 1.328 . S
N233 C238 1.318 . S
C234 N233 1.328 . S
C234 C235 1.457 . S
C234 H239 0.929 . S
C235 C234 1.457 . S
C235 C236 1.291 . S
C235 H248 0.931 . S
C236 C235 1.291 . S
C236 C237 1.373 . S
C236 H249 0.929 . S
C237 C236 1.373 . S
C237 C238 1.396 . S
C237 C244 1.403 . S
C238 C228 1.476 . S
C238 N233 1.318 . S
C238 C237 1.396 . S
H239 C234 0.929 . S
O240 Mn216 2.385 . S
O240 C218 1.234 . S
O241 Mn216 2.209 . S
O241 Mn217 2.215 . S
O241 C218 1.283 . S
O242 Mn216 2.094 . S
O242 C220 1.240 . S
O243 Mn217 2.117 . S
O243 C220 1.264 . S
C244 C237 1.403 . S
C244 C245 1.399 . S
C244 H250 0.929 . S
C245 C225 1.449 . S
C245 C244 1.399 . S
C245 H251 0.930 . S
H246 C226 0.931 . S
H247 C227 0.930 . S
H248 C235 0.931 . S
H249 C236 0.929 . S
H250 C244 0.929 . S
H251 C245 0.930 . S
Mn252 O257 2.095 . S
Mn252 O267 2.162 . S
Mn252 O268 2.297 . S
Mn252 O276 2.385 1_455 S
Mn252 O277 2.209 . S
Mn252 O278 2.094 . S
Mn253 O258 2.121 . S
Mn253 N260 2.257 . S
Mn253 N269 2.282 1_455 S
Mn253 O277 2.215 . S
Mn253 O279 2.117 . S
C254 O276 1.234 . S
C254 O277 1.283 1_655 S
C255 O267 1.281 . S
C255 O268 1.236 . S
C256 O278 1.240 . S
C256 O279 1.264 . S
O257 Mn252 2.095 . S
O257 C266 1.250 . S
O258 Mn253 2.121 . S
O258 C266 1.258 . S
C259 N260 1.326 . S
C259 C263 1.460 . S
C259 H265 0.929 . S
N260 Mn253 2.257 . S
N260 C259 1.326 . S
N260 C264 1.362 1_455 S
C261 C262 1.258 . S
C261 C264 1.431 . S
C261 C281 1.449 . S
C262 C261 1.258 . S
C262 C263 1.477 1_655 S
C262 H282 0.931 . S
C263 C259 1.460 . S
C263 C262 1.477 1_455 S
C263 H283 0.930 . S
C264 N260 1.362 1_655 S
C264 C261 1.431 . S
C264 C274 1.476 . S
H265 C259 0.929 . S
C266 O257 1.250 . S
C266 O258 1.258 . S
O267 Mn252 2.162 . S
O267 C255 1.281 . S
O268 Mn252 2.297 . S
O268 C255 1.236 . S
N269 Mn253 2.282 1_655 S
N269 C270 1.328 . S
N269 C274 1.318 . S
C270 N269 1.328 . S
C270 C271 1.457 . S
C270 H275 0.929 . S
C271 C270 1.457 . S
C271 C272 1.291 . S
C271 H284 0.931 . S
C272 C271 1.291 . S
C272 C273 1.373 . S
C272 H285 0.929 . S
C273 C272 1.373 . S
C273 C274 1.396 . S
C273 C280 1.403 . S
C274 C264 1.476 . S
C274 N269 1.318 . S
C274 C273 1.396 . S
H275 C270 0.929 . S
O276 Mn252 2.385 1_655 S
O276 C254 1.234 . S
O277 Mn252 2.209 . S
O277 Mn253 2.215 . S
O277 C254 1.283 1_455 S
O278 Mn252 2.094 . S
O278 C256 1.240 . S
O279 Mn253 2.117 . S
O279 C256 1.264 . S
C280 C273 1.403 . S
C280 C281 1.399 . S
C280 H286 0.929 . S
C281 C261 1.449 . S
C281 C280 1.399 . S
C281 H287 0.930 . S
H282 C262 0.931 . S
H283 C263 0.930 . S
H284 C271 0.931 . S
H285 C272 0.929 . S
H286 C280 0.929 . S
H287 C281 0.930 . S
Mn288 O293 2.095 . S
Mn288 O303 2.162 . S
Mn288 O304 2.297 . S
Mn288 O312 2.385 1_545 S
Mn288 O313 2.209 . S
Mn288 O314 2.094 . S
Mn289 O294 2.121 . S
Mn289 N296 2.257 . S
Mn289 N305 2.282 1_545 S
Mn289 O313 2.215 . S
Mn289 O315 2.117 . S
C290 O312 1.234 . S
C290 O313 1.283 1_565 S
C291 O303 1.281 . S
C291 O304 1.236 . S
C292 O314 1.240 . S
C292 O315 1.264 . S
O293 Mn288 2.095 . S
O293 C302 1.250 . S
O294 Mn289 2.121 . S
O294 C302 1.258 . S
C295 N296 1.326 . S
C295 C299 1.460 . S
C295 H301 0.929 . S
N296 Mn289 2.257 . S
N296 C295 1.326 . S
N296 C300 1.362 1_545 S
C297 C298 1.258 . S
C297 C300 1.431 . S
C297 C317 1.449 . S
C298 C297 1.258 . S
C298 C299 1.477 1_565 S
C298 H318 0.931 . S
C299 C295 1.460 . S
C299 C298 1.477 1_545 S
C299 H319 0.930 . S
C300 N296 1.362 1_565 S
C300 C297 1.431 . S
C300 C310 1.476 . S
H301 C295 0.929 . S
C302 O293 1.250 . S
C302 O294 1.258 . S
O303 Mn288 2.162 . S
O303 C291 1.281 . S
O304 Mn288 2.297 . S
O304 C291 1.236 . S
N305 Mn289 2.282 1_565 S
N305 C306 1.328 . S
N305 C310 1.318 . S
C306 N305 1.328 . S
C306 C307 1.457 . S
C306 H311 0.929 . S
C307 C306 1.457 . S
C307 C308 1.291 . S
C307 H320 0.931 . S
C308 C307 1.291 . S
C308 C309 1.373 . S
C308 H321 0.929 . S
C309 C308 1.373 . S
C309 C310 1.396 . S
C309 C316 1.403 . S
C310 C300 1.476 . S
C310 N305 1.318 . S
C310 C309 1.396 . S
H311 C306 0.929 . S
O312 Mn288 2.385 1_565 S
O312 C290 1.234 . S
O313 Mn288 2.209 . S
O313 Mn289 2.215 . S
O313 C290 1.283 1_545 S
O314 Mn288 2.094 . S
O314 C292 1.240 . S
O315 Mn289 2.117 . S
O315 C292 1.264 . S
C316 C309 1.403 . S
C316 C317 1.399 . S
C316 H322 0.929 . S
C317 C297 1.449 . S
C317 C316 1.399 . S
C317 H323 0.930 . S
H318 C298 0.931 . S
H319 C299 0.930 . S
H320 C307 0.931 . S
H321 C308 0.929 . S
H322 C316 0.929 . S
H323 C317 0.930 . S
Mn324 O329 2.095 . S
Mn324 O339 2.162 . S
Mn324 O340 2.297 . S
Mn324 O348 2.385 . S
Mn324 O349 2.209 . S
Mn324 O350 2.094 . S
Mn325 O330 2.121 . S
Mn325 N332 2.257 . S
Mn325 N341 2.282 . S
Mn325 O349 2.215 . S
Mn325 O351 2.117 . S
C326 O348 1.234 . S
C326 O349 1.283 . S
C327 O339 1.281 . S
C327 O340 1.236 . S
C328 O350 1.240 . S
C328 O351 1.264 . S
O329 Mn324 2.095 . S
O329 C338 1.250 . S
O330 Mn325 2.121 . S
O330 C338 1.258 . S
C331 N332 1.326 . S
C331 C335 1.460 . S
C331 H337 0.929 . S
N332 Mn325 2.257 . S
N332 C331 1.326 . S
N332 C336 1.362 . S
C333 C334 1.258 . S
C333 C336 1.431 . S
C333 C353 1.449 . S
C334 C333 1.258 . S
C334 C335 1.477 . S
C334 H354 0.931 . S
C335 C331 1.460 . S
C335 C334 1.477 . S
C335 H355 0.930 . S
C336 N332 1.362 . S
C336 C333 1.431 . S
C336 C346 1.476 . S
H337 C331 0.929 . S
C338 O329 1.250 . S
C338 O330 1.258 . S
O339 Mn324 2.162 . S
O339 C327 1.281 . S
O340 Mn324 2.297 . S
O340 C327 1.236 . S
N341 Mn325 2.282 . S
N341 C342 1.328 . S
N341 C346 1.318 . S
C342 N341 1.328 . S
C342 C343 1.457 . S
C342 H347 0.929 . S
C343 C342 1.457 . S
C343 C344 1.291 . S
C343 H356 0.931 . S
C344 C343 1.291 . S
C344 C345 1.373 . S
C344 H357 0.929 . S
C345 C344 1.373 . S
C345 C346 1.396 . S
C345 C352 1.403 . S
C346 C336 1.476 . S
C346 N341 1.318 . S
C346 C345 1.396 . S
H347 C342 0.929 . S
O348 Mn324 2.385 . S
O348 C326 1.234 . S
O349 Mn324 2.209 . S
O349 Mn325 2.215 . S
O349 C326 1.283 . S
O350 Mn324 2.094 . S
O350 C328 1.240 . S
O351 Mn325 2.117 . S
O351 C328 1.264 . S
C352 C345 1.403 . S
C352 C353 1.399 . S
C352 H358 0.929 . S
C353 C333 1.449 . S
C353 C352 1.399 . S
C353 H359 0.930 . S
H354 C334 0.931 . S
H355 C335 0.930 . S
H356 C343 0.931 . S
H357 C344 0.929 . S
H358 C352 0.929 . S
H359 C353 0.930 . S
Mn360 O365 2.103 . S
Mn360 O375 2.161 . S
Mn360 O376 2.296 . S
Mn360 O384 2.377 1_565 S
Mn360 O385 2.206 1_565 S
Mn360 O386 2.093 . S
Mn361 O366 2.121 1_545 S
Mn361 N368 2.257 . S
Mn361 N377 2.282 . S
Mn361 O385 2.215 . S
Mn361 O387 2.117 . S
C362 O384 1.234 . S
C362 O385 1.283 . S
C363 O375 1.281 . S
C363 O376 1.236 . S
C364 O386 1.245 1_545 S
C364 O387 1.264 . S
O365 Mn360 2.103 . S
O365 C374 1.250 . S
O366 Mn361 2.121 1_565 S
O366 C374 1.258 . S
C367 N368 1.326 . S
C367 C371 1.460 . S
C367 H373 0.921 1_545 S
N368 Mn361 2.257 . S
N368 C367 1.326 . S
N368 C372 1.362 . S
C369 C370 1.258 . S
C369 C372 1.431 . S
C369 C389 1.449 . S
C370 C369 1.258 . S
C370 C371 1.477 . S
C370 H390 0.931 . S
C371 C367 1.460 . S
C371 C370 1.477 . S
C371 H391 0.930 . S
C372 N368 1.362 . S
C372 C369 1.431 . S
C372 C382 1.476 . S
H373 C367 0.921 1_565 S
C374 O365 1.250 . S
C374 O366 1.258 . S
O375 Mn360 2.161 . S
O375 C363 1.281 . S
O376 Mn360 2.296 . S
O376 C363 1.236 . S
N377 Mn361 2.282 . S
N377 C378 1.328 . S
N377 C382 1.318 . S
C378 N377 1.328 . S
C378 C379 1.457 . S
C378 H383 0.929 . S
C379 C378 1.457 . S
C379 C380 1.291 . S
C379 H392 0.931 . S
C380 C379 1.291 . S
C380 C381 1.373 . S
C380 H393 0.929 . S
C381 C380 1.373 . S
C381 C382 1.396 . S
C381 C388 1.403 . S
C382 C372 1.476 . S
C382 N377 1.318 . S
C382 C381 1.396 . S
H383 C378 0.929 . S
O384 Mn360 2.377 1_545 S
O384 C362 1.234 . S
O385 Mn360 2.206 1_545 S
O385 Mn361 2.215 . S
O385 C362 1.283 . S
O386 Mn360 2.093 . S
O386 C364 1.245 1_565 S
O387 Mn361 2.117 . S
O387 C364 1.264 . S
C388 C381 1.403 . S
C388 C389 1.399 . S
C388 H394 0.929 . S
C389 C369 1.449 . S
C389 C388 1.399 . S
C389 H395 0.930 . S
H390 C370 0.931 . S
H391 C371 0.930 . S
H392 C379 0.931 . S
H393 C380 0.929 . S
H394 C388 0.929 . S
H395 C389 0.930 . S
Mn396 O401 2.095 . S
Mn396 O411 2.162 . S
Mn396 O412 2.297 . S
Mn396 O420 2.385 . S
Mn396 O421 2.209 . S
Mn396 O422 2.094 1_554 S
Mn397 O402 2.121 1_556 S
Mn397 N404 2.257 . S
Mn397 N413 2.282 . S
Mn397 O421 2.215 1_556 S
Mn397 O423 2.117 . S
C398 O420 1.234 . S
C398 O421 1.283 . S
C399 O411 1.281 . S
C399 O412 1.236 . S
C400 O422 1.240 . S
C400 O423 1.264 . S
O401 Mn396 2.095 . S
O401 C410 1.250 . S
O402 Mn397 2.121 1_554 S
O402 C410 1.258 . S
C403 N404 1.326 1_554 S
C403 C407 1.460 1_565 S
C403 H409 0.929 . S
N404 Mn397 2.257 . S
N404 C403 1.326 1_556 S
N404 C408 1.362 . S
C405 C406 1.237 1_556 S
C405 C408 1.431 1_545 S
C405 C425 1.449 . S
C406 C405 1.237 1_554 S
C406 C407 1.504 . S
C406 H426 0.927 . S
C407 C403 1.460 1_545 S
C407 C406 1.504 . S
C407 H427 0.930 . S
C408 N404 1.362 . S
C408 C405 1.431 1_565 S
C408 C418 1.476 . S
H409 C403 0.929 . S
C410 O401 1.250 . S
C410 O402 1.258 . S
O411 Mn396 2.162 . S
O411 C399 1.281 . S
O412 Mn396 2.297 . S
O412 C399 1.236 . S
N413 Mn397 2.282 . S
N413 C414 1.328 . S
N413 C418 1.318 . S
C414 N413 1.328 . S
C414 C415 1.457 . S
C414 H419 0.929 . S
C415 C414 1.457 . S
C415 C416 1.291 . S
C415 H428 0.931 . S
C416 C415 1.291 . S
C416 C417 1.373 . S
C416 H429 0.929 . S
C417 C416 1.373 . S
C417 C418 1.396 . S
C417 C424 1.403 1_565 S
C418 C408 1.476 . S
C418 N413 1.318 . S
C418 C417 1.396 . S
H419 C414 0.929 . S
O420 Mn396 2.385 . S
O420 C398 1.234 . S
O421 Mn396 2.209 . S
O421 Mn397 2.215 1_554 S
O421 C398 1.283 . S
O422 Mn396 2.094 1_556 S
O422 C400 1.240 . S
O423 Mn397 2.117 . S
O423 C400 1.264 . S
C424 C417 1.403 1_545 S
C424 C425 1.399 . S
C424 H430 0.929 . S
C425 C405 1.449 . S
C425 C424 1.399 . S
C425 H431 0.930 . S
H426 C406 0.927 . S
H427 C407 0.930 . S
H428 C415 0.931 . S
H429 C416 0.929 . S
H430 C424 0.929 . S
H431 C425 0.930 . S
Mn432 O437 2.095 . S
Mn432 O447 2.162 . S
Mn432 O448 2.297 . S
Mn432 O456 2.385 . S
Mn432 O457 2.209 . S
Mn432 O458 2.094 . S
Mn433 O438 2.121 . S
Mn433 N440 2.257 . S
Mn433 N449 2.282 1_554 S
Mn433 O457 2.215 . S
Mn433 O459 2.117 1_554 S
C434 O456 1.234 . S
C434 O457 1.283 . S
C435 O447 1.281 . S
C435 O448 1.236 . S
C436 O458 1.240 1_556 S
C436 O459 1.264 . S
O437 Mn432 2.095 . S
O437 C446 1.250 . S
O438 Mn433 2.121 . S
O438 C446 1.258 . S
C439 N440 1.326 . S
C439 C443 1.460 . S
C439 H445 0.929 . S
N440 Mn433 2.257 . S
N440 C439 1.326 . S
N440 C444 1.362 . S
C441 C442 1.258 . S
C441 C444 1.431 . S
C441 C461 1.449 . S
C442 C441 1.258 . S
C442 C443 1.477 . S
C442 H462 0.931 . S
C443 C439 1.460 . S
C443 C442 1.477 . S
C443 H463 0.930 . S
C444 N440 1.362 . S
C444 C441 1.431 . S
C444 C454 1.476 . S
H445 C439 0.929 . S
C446 O437 1.250 . S
C446 O438 1.258 . S
O447 Mn432 2.162 . S
O447 C435 1.281 . S
O448 Mn432 2.297 . S
O448 C435 1.236 . S
N449 Mn433 2.282 1_556 S
N449 C450 1.328 . S
N449 C454 1.318 1_556 S
C450 N449 1.328 . S
C450 C451 1.457 . S
C450 H455 0.929 . S
C451 C450 1.457 . S
C451 C452 1.291 . S
C451 H464 0.931 . S
C452 C451 1.291 . S
C452 C453 1.373 . S
C452 H465 0.929 . S
C453 C452 1.373 . S
C453 C454 1.396 1_556 S
C453 C460 1.403 . S
C454 C444 1.476 . S
C454 N449 1.318 1_554 S
C454 C453 1.396 1_554 S
H455 C450 0.929 . S
O456 Mn432 2.385 . S
O456 C434 1.234 . S
O457 Mn432 2.209 . S
O457 Mn433 2.215 . S
O457 C434 1.283 . S
O458 Mn432 2.094 . S
O458 C436 1.240 1_554 S
O459 Mn433 2.117 1_556 S
O459 C436 1.264 . S
C460 C453 1.403 . S
C460 C461 1.399 1_556 S
C460 H466 0.929 . S
C461 C441 1.449 . S
C461 C460 1.399 1_554 S
C461 H467 0.930 . S
H462 C442 0.931 . S
H463 C443 0.930 . S
H464 C451 0.931 . S
H465 C452 0.929 . S
H466 C460 0.929 . S
H467 C461 0.930 . S
Mn468 O473 2.095 . S
Mn468 O483 2.162 . S
Mn468 O484 2.297 . S
Mn468 O492 2.385 . S
Mn468 O493 2.209 . S
Mn468 O494 2.094 . S
Mn469 O474 2.121 1_556 S
Mn469 N476 2.257 . S
Mn469 N485 2.282 . S
Mn469 O493 2.215 1_556 S
Mn469 O495 2.117 . S
C470 O492 1.234 . S
C470 O493 1.283 . S
C471 O483 1.281 . S
C471 O484 1.236 . S
C472 O494 1.240 1_556 S
C472 O495 1.264 . S
O473 Mn468 2.095 . S
O473 C482 1.250 . S
O474 Mn469 2.121 1_554 S
O474 C482 1.258 . S
C475 N476 1.326 . S
C475 C479 1.460 . S
C475 H481 0.929 1_556 S
N476 Mn469 2.257 . S
N476 C475 1.326 . S
N476 C480 1.362 . S
C477 C478 1.258 . S
C477 C480 1.431 . S
C477 C497 1.449 . S
C478 C477 1.258 . S
C478 C479 1.477 . S
C478 H498 0.931 . S
C479 C475 1.460 . S
C479 C478 1.477 . S
C479 H499 0.943 . S
C480 N476 1.362 . S
C480 C477 1.431 . S
C480 C490 1.476 . S
H481 C475 0.929 1_554 S
C482 O473 1.250 . S
C482 O474 1.258 . S
O483 Mn468 2.162 . S
O483 C471 1.281 . S
O484 Mn468 2.297 . S
O484 C471 1.236 . S
N485 Mn469 2.282 . S
N485 C486 1.328 . S
N485 C490 1.318 . S
C486 N485 1.328 . S
C486 C487 1.457 . S
C486 H491 0.929 . S
C487 C486 1.457 . S
C487 C488 1.291 . S
C487 H500 0.931 . S
C488 C487 1.291 . S
C488 C489 1.373 . S
C488 H501 0.929 . S
C489 C488 1.373 . S
C489 C490 1.396 . S
C489 C496 1.403 . S
C490 C480 1.476 . S
C490 N485 1.318 . S
C490 C489 1.396 . S
H491 C486 0.929 . S
O492 Mn468 2.385 . S
O492 C470 1.234 . S
O493 Mn468 2.209 . S
O493 Mn469 2.215 1_554 S
O493 C470 1.283 . S
O494 Mn468 2.094 . S
O494 C472 1.240 1_554 S
O495 Mn469 2.117 . S
O495 C472 1.264 . S
C496 C489 1.403 . S
C496 C497 1.399 . S
C496 H502 0.929 . S
C497 C477 1.449 . S
C497 C496 1.399 . S
C497 H503 0.930 . S
H498 C478 0.931 . S
H499 C479 0.943 . S
H500 C487 0.931 . S
H501 C488 0.929 . S
H502 C496 0.929 . S
H503 C497 0.930 . S
Mn504 O509 2.095 . S
Mn504 O519 2.162 . S
Mn504 O520 2.297 . S
Mn504 O528 2.385 . S
Mn504 O529 2.209 . S
Mn504 O530 2.094 . S
Mn505 O510 2.121 . S
Mn505 N512 2.257 . S
Mn505 N521 2.282 . S
Mn505 O529 2.215 . S
Mn505 O531 2.117 . S
C506 O528 1.234 . S
C506 O529 1.283 . S
C507 O519 1.281 . S
C507 O520 1.236 . S
C508 O530 1.240 . S
C508 O531 1.264 . S
O509 Mn504 2.095 . S
O509 C518 1.250 . S
O510 Mn505 2.121 . S
O510 C518 1.258 . S
C511 N512 1.326 . S
C511 C515 1.460 . S
C511 H517 0.929 . S
N512 Mn505 2.257 . S
N512 C511 1.326 . S
N512 C516 1.362 . S
C513 C514 1.258 . S
C513 C516 1.431 . S
C513 C533 1.449 . S
C514 C513 1.258 . S
C514 C515 1.477 . S
C514 H534 0.931 . S
C515 C511 1.460 . S
C515 C514 1.477 . S
C515 H535 0.930 . S
C516 N512 1.362 . S
C516 C513 1.431 . S
C516 C526 1.476 . S
H517 C511 0.929 . S
C518 O509 1.250 . S
C518 O510 1.258 . S
O519 Mn504 2.162 . S
O519 C507 1.281 . S
O520 Mn504 2.297 . S
O520 C507 1.236 . S
N521 Mn505 2.282 . S
N521 C522 1.328 . S
N521 C526 1.318 . S
C522 N521 1.328 . S
C522 C523 1.457 . S
C522 H527 0.929 . S
C523 C522 1.457 . S
C523 C524 1.291 . S
C523 H536 0.931 . S
C524 C523 1.291 . S
C524 C525 1.373 . S
C524 H537 0.929 . S
C525 C524 1.373 . S
C525 C526 1.396 . S
C525 C532 1.403 . S
C526 C516 1.476 . S
C526 N521 1.318 . S
C526 C525 1.396 . S
H527 C522 0.929 . S
O528 Mn504 2.385 . S
O528 C506 1.234 . S
O529 Mn504 2.209 . S
O529 Mn505 2.215 . S
O529 C506 1.283 . S
O530 Mn504 2.094 . S
O530 C508 1.240 . S
O531 Mn505 2.117 . S
O531 C508 1.264 . S
C532 C525 1.403 . S
C532 C533 1.399 . S
C532 H538 0.929 . S
C533 C513 1.449 . S
C533 C532 1.399 . S
C533 H539 0.930 . S
H534 C514 0.931 . S
H535 C515 0.930 . S
H536 C523 0.931 . S
H537 C524 0.929 . S
H538 C532 0.929 . S
H539 C533 0.930 . S
Mn540 O545 2.095 . S
Mn540 O555 2.162 . S
Mn540 O556 2.297 . S
Mn540 O564 2.385 . S
Mn540 O565 2.209 . S
Mn540 O566 2.094 . S
Mn541 O546 2.121 . S
Mn541 N548 2.257 . S
Mn541 N557 2.282 . S
Mn541 O565 2.215 . S
Mn541 O567 2.117 . S
C542 O564 1.234 . S
C542 O565 1.283 . S
C543 O555 1.281 . S
C543 O556 1.236 . S
C544 O566 1.240 . S
C544 O567 1.264 . S
O545 Mn540 2.095 . S
O545 C554 1.250 . S
O546 Mn541 2.121 . S
O546 C554 1.258 . S
C547 N548 1.326 . S
C547 C551 1.460 . S
C547 H553 0.929 . S
N548 Mn541 2.257 . S
N548 C547 1.326 . S
N548 C552 1.362 . S
C549 C550 1.258 . S
C549 C552 1.431 . S
C549 C569 1.449 . S
C550 C549 1.258 . S
C550 C551 1.477 . S
C550 H570 0.931 . S
C551 C547 1.460 . S
C551 C550 1.477 . S
C551 H571 0.930 . S
C552 N548 1.362 . S
C552 C549 1.431 . S
C552 C562 1.476 . S
H553 C547 0.929 . S
C554 O545 1.250 . S
C554 O546 1.258 . S
O555 Mn540 2.162 . S
O555 C543 1.281 . S
O556 Mn540 2.297 . S
O556 C543 1.236 . S
N557 Mn541 2.282 . S
N557 C558 1.328 . S
N557 C562 1.318 . S
C558 N557 1.328 . S
C558 C559 1.457 . S
C558 H563 0.929 . S
C559 C558 1.457 . S
C559 C560 1.291 . S
C559 H572 0.931 . S
C560 C559 1.291 . S
C560 C561 1.373 . S
C560 H573 0.929 . S
C561 C560 1.373 . S
C561 C562 1.396 . S
C561 C568 1.403 . S
C562 C552 1.476 . S
C562 N557 1.318 . S
C562 C561 1.396 . S
H563 C558 0.929 . S
O564 Mn540 2.385 . S
O564 C542 1.234 . S
O565 Mn540 2.209 . S
O565 Mn541 2.215 . S
O565 C542 1.283 . S
O566 Mn540 2.094 . S
O566 C544 1.240 . S
O567 Mn541 2.117 . S
O567 C544 1.264 . S
C568 C561 1.403 . S
C568 C569 1.399 . S
C568 H574 0.929 . S
C569 C549 1.449 . S
C569 C568 1.399 . S
C569 H575 0.930 . S
H570 C550 0.931 . S
H571 C551 0.930 . S
H572 C559 0.931 . S
H573 C560 0.929 . S
H574 C568 0.929 . S
H575 C569 0.930 . S
Mn576 O581 2.095 . S
Mn576 O591 2.162 . S
Mn576 O592 2.297 . S
Mn576 O600 2.385 . S
Mn576 O601 2.209 . S
Mn576 O602 2.094 . S
Mn577 O582 2.121 . S
Mn577 N584 2.257 . S
Mn577 N593 2.282 . S
Mn577 O601 2.215 . S
Mn577 O603 2.117 . S
C578 O600 1.234 . S
C578 O601 1.283 . S
C579 O591 1.281 . S
C579 O592 1.236 . S
C580 O602 1.240 . S
C580 O603 1.264 . S
O581 Mn576 2.095 . S
O581 C590 1.250 . S
O582 Mn577 2.121 . S
O582 C590 1.258 . S
C583 N584 1.326 . S
C583 C587 1.460 . S
C583 H589 0.929 . S
N584 Mn577 2.257 . S
N584 C583 1.326 . S
N584 C588 1.362 . S
C585 C586 1.258 . S
C585 C588 1.431 . S
C585 C605 1.449 . S
C586 C585 1.258 . S
C586 C587 1.477 . S
C586 H606 0.931 . S
C587 C583 1.460 . S
C587 C586 1.477 . S
C587 H607 0.930 . S
C588 N584 1.362 . S
C588 C585 1.431 . S
C588 C598 1.476 . S
H589 C583 0.929 . S
C590 O581 1.250 . S
C590 O582 1.258 . S
O591 Mn576 2.162 . S
O591 C579 1.281 . S
O592 Mn576 2.297 . S
O592 C579 1.236 . S
N593 Mn577 2.282 . S
N593 C594 1.328 . S
N593 C598 1.318 . S
C594 N593 1.328 . S
C594 C595 1.457 . S
C594 H599 0.929 . S
C595 C594 1.457 . S
C595 C596 1.291 . S
C595 H608 0.931 . S
C596 C595 1.291 . S
C596 C597 1.373 . S
C596 H609 0.929 1_545 S
C597 C596 1.373 . S
C597 C598 1.396 . S
C597 C604 1.403 . S
C598 C588 1.476 . S
C598 N593 1.318 . S
C598 C597 1.396 . S
H599 C594 0.929 . S
O600 Mn576 2.385 . S
O600 C578 1.234 . S
O601 Mn576 2.209 . S
O601 Mn577 2.215 . S
O601 C578 1.283 . S
O602 Mn576 2.094 . S
O602 C580 1.240 . S
O603 Mn577 2.117 . S
O603 C580 1.264 . S
C604 C597 1.403 . S
C604 C605 1.399 . S
C604 H610 0.929 1_545 S
C605 C585 1.449 . S
C605 C604 1.399 . S
C605 H611 0.930 . S
H606 C586 0.931 . S
H607 C587 0.930 . S
H608 C595 0.931 . S
H609 C596 0.929 1_565 S
H610 C604 0.929 1_565 S
H611 C605 0.930 . S
Mn612 O617 2.095 . S
Mn612 O627 2.162 . S
Mn612 O628 2.297 . S
Mn612 O636 2.385 . S
Mn612 O637 2.209 . S
Mn612 O638 2.094 . S
Mn613 O618 2.121 . S
Mn613 N620 2.257 . S
Mn613 N629 2.282 . S
Mn613 O637 2.215 . S
Mn613 O639 2.117 . S
C614 O636 1.234 . S
C614 O637 1.283 . S
C615 O627 1.281 . S
C615 O628 1.236 . S
C616 O638 1.240 . S
C616 O639 1.264 . S
O617 Mn612 2.095 . S
O617 C626 1.250 . S
O618 Mn613 2.121 . S
O618 C626 1.258 . S
C619 N620 1.326 . S
C619 C623 1.460 . S
C619 H625 0.929 . S
N620 Mn613 2.257 . S
N620 C619 1.326 . S
N620 C624 1.362 . S
C621 C622 1.258 . S
C621 C624 1.431 . S
C621 C641 1.449 . S
C622 C621 1.258 . S
C622 C623 1.477 . S
C622 H642 0.931 . S
C623 C619 1.460 . S
C623 C622 1.477 . S
C623 H643 0.930 . S
C624 N620 1.362 . S
C624 C621 1.431 . S
C624 C634 1.476 . S
H625 C619 0.929 . S
C626 O617 1.250 . S
C626 O618 1.258 . S
O627 Mn612 2.162 . S
O627 C615 1.281 . S
O628 Mn612 2.297 . S
O628 C615 1.236 . S
N629 Mn613 2.282 . S
N629 C630 1.328 . S
N629 C634 1.318 . S
C630 N629 1.328 . S
C630 C631 1.457 . S
C630 H635 0.929 . S
C631 C630 1.457 . S
C631 C632 1.291 . S
C631 H644 0.931 . S
C632 C631 1.291 . S
C632 C633 1.373 . S
C632 H645 0.929 . S
C633 C632 1.373 . S
C633 C634 1.396 . S
C633 C640 1.403 . S
C634 C624 1.476 . S
C634 N629 1.318 . S
C634 C633 1.396 . S
H635 C630 0.929 . S
O636 Mn612 2.385 . S
O636 C614 1.234 . S
O637 Mn612 2.209 . S
O637 Mn613 2.215 . S
O637 C614 1.283 . S
O638 Mn612 2.094 . S
O638 C616 1.240 . S
O639 Mn613 2.117 . S
O639 C616 1.264 . S
C640 C633 1.403 . S
C640 C641 1.399 . S
C640 H646 0.929 . S
C641 C621 1.449 . S
C641 C640 1.399 . S
C641 H647 0.930 . S
H642 C622 0.931 . S
H643 C623 0.930 . S
H644 C631 0.931 . S
H645 C632 0.929 . S
H646 C640 0.929 . S
H647 C641 0.930 . S
Mn648 O653 2.095 . S
Mn648 O663 2.162 . S
Mn648 O664 2.297 . S
Mn648 O672 2.385 . S
Mn648 O673 2.209 . S
Mn648 O674 2.094 . S
Mn649 O654 2.121 . S
Mn649 N656 2.257 . S
Mn649 N665 2.282 . S
Mn649 O673 2.215 . S
Mn649 O675 2.117 . S
C650 O672 1.234 . S
C650 O673 1.283 . S
C651 O663 1.281 . S
C651 O664 1.236 . S
C652 O674 1.240 . S
C652 O675 1.264 . S
O653 Mn648 2.095 . S
O653 C662 1.250 . S
O654 Mn649 2.121 . S
O654 C662 1.258 . S
C655 N656 1.326 . S
C655 C659 1.460 . S
C655 H661 0.929 . S
N656 Mn649 2.257 . S
N656 C655 1.326 . S
N656 C660 1.362 . S
C657 C658 1.258 . S
C657 C660 1.431 . S
C657 C677 1.449 . S
C658 C657 1.258 . S
C658 C659 1.477 . S
C658 H678 0.931 . S
C659 C655 1.460 . S
C659 C658 1.477 . S
C659 H679 0.930 . S
C660 N656 1.362 . S
C660 C657 1.431 . S
C660 C670 1.476 . S
H661 C655 0.929 . S
C662 O653 1.250 . S
C662 O654 1.258 . S
O663 Mn648 2.162 . S
O663 C651 1.281 . S
O664 Mn648 2.297 . S
O664 C651 1.236 . S
N665 Mn649 2.282 . S
N665 C666 1.328 . S
N665 C670 1.318 . S
C666 N665 1.328 . S
C666 C667 1.457 . S
C666 H671 0.929 . S
C667 C666 1.457 . S
C667 C668 1.291 . S
C667 H680 0.931 . S
C668 C667 1.291 . S
C668 C669 1.373 . S
C668 H681 0.929 . S
C669 C668 1.373 . S
C669 C670 1.396 . S
C669 C676 1.403 . S
C670 C660 1.476 . S
C670 N665 1.318 . S
C670 C669 1.396 . S
H671 C666 0.929 . S
O672 Mn648 2.385 . S
O672 C650 1.234 . S
O673 Mn648 2.209 . S
O673 Mn649 2.215 . S
O673 C650 1.283 . S
O674 Mn648 2.094 . S
O674 C652 1.240 . S
O675 Mn649 2.117 . S
O675 C652 1.264 . S
C676 C669 1.403 . S
C676 C677 1.399 . S
C676 H682 0.929 . S
C677 C657 1.449 . S
C677 C676 1.399 . S
C677 H683 0.930 . S
H678 C658 0.931 . S
H679 C659 0.930 . S
H680 C667 0.931 . S
H681 C668 0.929 . S
H682 C676 0.929 . S
H683 C677 0.930 . S
Mn684 O689 2.095 . S
Mn684 O699 2.162 . S
Mn684 O700 2.297 . S
Mn684 O708 2.385 . S
Mn684 O709 2.209 . S
Mn684 O710 2.094 . S
Mn685 O690 2.121 . S
Mn685 N692 2.257 . S
Mn685 N701 2.282 . S
Mn685 O709 2.215 . S
Mn685 O711 2.117 . S
C686 O708 1.234 . S
C686 O709 1.283 . S
C687 O699 1.281 . S
C687 O700 1.236 . S
C688 O710 1.240 . S
C688 O711 1.264 . S
O689 Mn684 2.095 . S
O689 C698 1.250 . S
O690 Mn685 2.121 . S
O690 C698 1.258 . S
C691 N692 1.326 . S
C691 C695 1.460 . S
C691 H697 0.929 . S
N692 Mn685 2.257 . S
N692 C691 1.326 . S
N692 C696 1.362 . S
C693 C694 1.258 . S
C693 C696 1.431 . S
C693 C713 1.449 . S
C694 C693 1.258 . S
C694 C695 1.477 . S
C694 H714 0.931 . S
C695 C691 1.460 . S
C695 C694 1.477 . S
C695 H715 0.930 . S
C696 N692 1.362 . S
C696 C693 1.431 . S
C696 C706 1.476 . S
H697 C691 0.929 . S
C698 O689 1.250 . S
C698 O690 1.258 . S
O699 Mn684 2.162 . S
O699 C687 1.281 . S
O700 Mn684 2.297 . S
O700 C687 1.236 . S
N701 Mn685 2.282 . S
N701 C702 1.328 . S
N701 C706 1.318 . S
C702 N701 1.328 . S
C702 C703 1.457 . S
C702 H707 0.929 . S
C703 C702 1.457 . S
C703 C704 1.291 . S
C703 H716 0.931 . S
C704 C703 1.291 . S
C704 C705 1.373 . S
C704 H717 0.929 . S
C705 C704 1.373 . S
C705 C706 1.396 . S
C705 C712 1.403 . S
C706 C696 1.476 . S
C706 N701 1.318 . S
C706 C705 1.396 . S
H707 C702 0.929 . S
O708 Mn684 2.385 . S
O708 C686 1.234 . S
O709 Mn684 2.209 . S
O709 Mn685 2.215 . S
O709 C686 1.283 . S
O710 Mn684 2.094 . S
O710 C688 1.240 . S
O711 Mn685 2.117 . S
O711 C688 1.264 . S
C712 C705 1.403 . S
C712 C713 1.399 . S
C712 H718 0.929 . S
C713 C693 1.449 . S
C713 C712 1.399 . S
C713 H719 0.930 . S
H714 C694 0.931 . S
H715 C695 0.930 . S
H716 C703 0.931 . S
H717 C704 0.929 . S
H718 C712 0.929 . S
H719 C713 0.930 . S
Mn720 O725 2.095 1_554 S
Mn720 O735 2.162 . S
Mn720 O736 2.297 . S
Mn720 O744 2.385 . S
Mn720 O745 2.209 1_554 S
Mn720 O746 2.094 1_554 S
Mn721 O726 2.121 . S
Mn721 N728 2.257 . S
Mn721 N737 2.282 . S
Mn721 O745 2.215 . S
Mn721 O747 2.117 . S
C722 O744 1.234 1_556 S
C722 O745 1.283 . S
C723 O735 1.281 . S
C723 O736 1.236 . S
C724 O746 1.240 . S
C724 O747 1.264 . S
O725 Mn720 2.095 1_556 S
O725 C734 1.250 . S
O726 Mn721 2.121 . S
O726 C734 1.258 . S
C727 N728 1.326 . S
C727 C731 1.460 . S
C727 H733 0.929 . S
N728 Mn721 2.257 . S
N728 C727 1.326 . S
N728 C732 1.362 . S
C729 C730 1.258 . S
C729 C732 1.431 . S
C729 C749 1.449 . S
C730 C729 1.258 . S
C730 C731 1.477 . S
C730 H750 0.931 . S
C731 C727 1.460 . S
C731 C730 1.477 . S
C731 H751 0.930 . S
C732 N728 1.362 . S
C732 C729 1.431 . S
C732 C742 1.476 . S
H733 C727 0.929 . S
C734 O725 1.250 . S
C734 O726 1.258 . S
O735 Mn720 2.162 . S
O735 C723 1.281 . S
O736 Mn720 2.297 . S
O736 C723 1.236 . S
N737 Mn721 2.282 . S
N737 C738 1.328 . S
N737 C742 1.318 . S
C738 N737 1.328 . S
C738 C739 1.457 . S
C738 H743 0.929 . S
C739 C738 1.457 . S
C739 C740 1.291 . S
C739 H752 0.931 . S
C740 C739 1.291 . S
C740 C741 1.373 . S
C740 H753 0.929 . S
C741 C740 1.373 . S
C741 C742 1.396 . S
C741 C748 1.403 . S
C742 C732 1.476 . S
C742 N737 1.318 . S
C742 C741 1.396 . S
H743 C738 0.929 . S
O744 Mn720 2.385 . S
O744 C722 1.234 1_554 S
O745 Mn720 2.209 1_556 S
O745 Mn721 2.215 . S
O745 C722 1.283 . S
O746 Mn720 2.094 1_556 S
O746 C724 1.240 . S
O747 Mn721 2.117 . S
O747 C724 1.264 . S
C748 C741 1.403 . S
C748 C749 1.399 . S
C748 H754 0.929 . S
C749 C729 1.449 . S
C749 C748 1.399 . S
C749 H755 0.930 . S
H750 C730 0.931 . S
H751 C731 0.930 . S
H752 C739 0.931 . S
H753 C740 0.929 . S
H754 C748 0.929 . S
H755 C749 0.930 . S
Mn756 O761 2.095 . S
Mn756 O771 2.162 . S
Mn756 O772 2.297 . S
Mn756 O780 2.385 . S
Mn756 O781 2.209 . S
Mn756 O782 2.094 . S
Mn757 O762 2.121 . S
Mn757 N764 2.257 . S
Mn757 N773 2.282 . S
Mn757 O781 2.215 . S
Mn757 O783 2.117 . S
C758 O780 1.234 . S
C758 O781 1.283 . S
C759 O771 1.281 . S
C759 O772 1.236 . S
C760 O782 1.240 . S
C760 O783 1.264 . S
O761 Mn756 2.095 . S
O761 C770 1.250 . S
O762 Mn757 2.121 . S
O762 C770 1.258 . S
C763 N764 1.326 . S
C763 C767 1.460 . S
C763 H769 0.929 . S
N764 Mn757 2.257 . S
N764 C763 1.326 . S
N764 C768 1.362 . S
C765 C766 1.258 . S
C765 C768 1.431 . S
C765 C785 1.449 . S
C766 C765 1.258 . S
C766 C767 1.477 . S
C766 H786 0.931 . S
C767 C763 1.460 . S
C767 C766 1.477 . S
C767 H787 0.930 . S
C768 N764 1.362 . S
C768 C765 1.431 . S
C768 C778 1.476 . S
H769 C763 0.929 . S
C770 O761 1.250 . S
C770 O762 1.258 . S
O771 Mn756 2.162 . S
O771 C759 1.281 . S
O772 Mn756 2.297 . S
O772 C759 1.236 . S
N773 Mn757 2.282 . S
N773 C774 1.328 . S
N773 C778 1.318 . S
C774 N773 1.328 . S
C774 C775 1.457 . S
C774 H779 0.929 . S
C775 C774 1.457 . S
C775 C776 1.291 . S
C775 H788 0.931 . S
C776 C775 1.291 . S
C776 C777 1.373 . S
C776 H789 0.929 . S
C777 C776 1.373 . S
C777 C778 1.396 . S
C777 C784 1.403 . S
C778 C768 1.476 . S
C778 N773 1.318 . S
C778 C777 1.396 . S
H779 C774 0.929 . S
O780 Mn756 2.385 . S
O780 C758 1.234 . S
O781 Mn756 2.209 . S
O781 Mn757 2.215 . S
O781 C758 1.283 . S
O782 Mn756 2.094 . S
O782 C760 1.240 . S
O783 Mn757 2.117 . S
O783 C760 1.264 . S
C784 C777 1.403 . S
C784 C785 1.399 . S
C784 H790 0.929 . S
C785 C765 1.449 . S
C785 C784 1.399 . S
C785 H791 0.930 . S
H786 C766 0.931 . S
H787 C767 0.930 . S
H788 C775 0.931 . S
H789 C776 0.929 . S
H790 C784 0.929 . S
H791 C785 0.930 . S
Mn792 O797 2.095 . S
Mn792 O807 2.162 . S
Mn792 O808 2.297 . S
Mn792 O816 2.385 . S
Mn792 O817 2.209 . S
Mn792 O818 2.094 . S
Mn793 O798 2.121 . S
Mn793 N800 2.257 . S
Mn793 N809 2.282 . S
Mn793 O817 2.215 . S
Mn793 O819 2.117 . S
C794 O816 1.234 . S
C794 O817 1.283 . S
C795 O807 1.281 . S
C795 O808 1.236 . S
C796 O818 1.240 . S
C796 O819 1.264 . S
O797 Mn792 2.095 . S
O797 C806 1.250 . S
O798 Mn793 2.121 . S
O798 C806 1.258 . S
C799 N800 1.326 . S
C799 C803 1.460 . S
C799 H805 0.929 . S
N800 Mn793 2.257 . S
N800 C799 1.326 . S
N800 C804 1.362 . S
C801 C802 1.258 . S
C801 C804 1.431 . S
C801 C821 1.449 . S
C802 C801 1.258 . S
C802 C803 1.477 . S
C802 H822 0.931 . S
C803 C799 1.460 . S
C803 C802 1.477 . S
C803 H823 0.930 . S
C804 N800 1.362 . S
C804 C801 1.431 . S
C804 C814 1.476 . S
H805 C799 0.929 . S
C806 O797 1.250 . S
C806 O798 1.258 . S
O807 Mn792 2.162 . S
O807 C795 1.281 . S
O808 Mn792 2.297 . S
O808 C795 1.236 . S
N809 Mn793 2.282 . S
N809 C810 1.328 . S
N809 C814 1.318 . S
C810 N809 1.328 . S
C810 C811 1.457 . S
C810 H815 0.929 . S
C811 C810 1.457 . S
C811 C812 1.291 . S
C811 H824 0.931 . S
C812 C811 1.291 . S
C812 C813 1.373 . S
C812 H825 0.929 . S
C813 C812 1.373 . S
C813 C814 1.396 . S
C813 C820 1.403 . S
C814 C804 1.476 . S
C814 N809 1.318 . S
C814 C813 1.396 . S
H815 C810 0.929 . S
O816 Mn792 2.385 . S
O816 C794 1.234 . S
O817 Mn792 2.209 . S
O817 Mn793 2.215 . S
O817 C794 1.283 . S
O818 Mn792 2.094 . S
O818 C796 1.240 . S
O819 Mn793 2.117 . S
O819 C796 1.264 . S
C820 C813 1.403 . S
C820 C821 1.399 . S
C820 H826 0.929 . S
C821 C801 1.449 . S
C821 C820 1.399 . S
C821 H827 0.930 . S
H822 C802 0.931 . S
H823 C803 0.930 . S
H824 C811 0.931 . S
H825 C812 0.929 . S
H826 C820 0.929 . S
H827 C821 0.930 . S
Mn828 O833 2.095 . S
Mn828 O843 2.162 . S
Mn828 O844 2.297 . S
Mn828 O852 2.385 . S
Mn828 O853 2.209 . S
Mn828 O854 2.094 . S
Mn829 O834 2.121 . S
Mn829 N836 2.257 . S
Mn829 N845 2.282 . S
Mn829 O853 2.215 . S
Mn829 O855 2.117 . S
C830 O852 1.234 . S
C830 O853 1.283 . S
C831 O843 1.281 . S
C831 O844 1.236 . S
C832 O854 1.240 . S
C832 O855 1.264 . S
O833 Mn828 2.095 . S
O833 C842 1.250 . S
O834 Mn829 2.121 . S
O834 C842 1.258 . S
C835 N836 1.326 . S
C835 C839 1.460 . S
C835 H841 0.929 . S
N836 Mn829 2.257 . S
N836 C835 1.326 . S
N836 C840 1.362 . S
C837 C838 1.258 . S
C837 C840 1.431 . S
C837 C857 1.449 . S
C838 C837 1.258 . S
C838 C839 1.477 . S
C838 H858 0.931 . S
C839 C835 1.460 . S
C839 C838 1.477 . S
C839 H859 0.930 . S
C840 N836 1.362 . S
C840 C837 1.431 . S
C840 C850 1.476 . S
H841 C835 0.929 . S
C842 O833 1.250 . S
C842 O834 1.258 . S
O843 Mn828 2.162 . S
O843 C831 1.281 . S
O844 Mn828 2.297 . S
O844 C831 1.236 . S
N845 Mn829 2.282 . S
N845 C846 1.328 . S
N845 C850 1.318 . S
C846 N845 1.328 . S
C846 C847 1.457 . S
C846 H851 0.929 . S
C847 C846 1.457 . S
C847 C848 1.291 . S
C847 H860 0.931 . S
C848 C847 1.291 . S
C848 C849 1.373 . S
C848 H861 0.929 . S
C849 C848 1.373 . S
C849 C850 1.396 . S
C849 C856 1.403 . S
C850 C840 1.476 . S
C850 N845 1.318 . S
C850 C849 1.396 . S
H851 C846 0.929 . S
O852 Mn828 2.385 . S
O852 C830 1.234 . S
O853 Mn828 2.209 . S
O853 Mn829 2.215 . S
O853 C830 1.283 . S
O854 Mn828 2.094 . S
O854 C832 1.240 . S
O855 Mn829 2.117 . S
O855 C832 1.264 . S
C856 C849 1.403 . S
C856 C857 1.399 . S
C856 H862 0.929 . S
C857 C837 1.449 . S
C857 C856 1.399 . S
C857 H863 0.930 . S
H858 C838 0.931 . S
H859 C839 0.930 . S
H860 C847 0.931 . S
H861 C848 0.929 . S
H862 C856 0.929 . S
H863 C857 0.930 . S
Eu864 N895 2.657 1_545 S
Eu864 N902 2.609 1_544 S
Eu864 O908 2.558 1_454 S
Eu864 O909 2.612 . S
Eu864 O911 2.339 . S
Eu864 O912 2.579 . S
Eu864 O913 2.419 1_455 S
Eu864 O915 2.380 . S
Eu864 O916 2.432 1_554 S
Eu864 C928 2.848 1_454 S
C865 C868 1.429 . S
C865 C869 1.411 . S
C865 N872 1.377 . S
C866 C868 1.420 . S
C866 C870 1.423 . S
C866 C878 1.392 1_554 S
C867 C869 1.420 . S
C867 C870 1.351 . S
C867 H890 0.931 . S
C868 C865 1.429 . S
C868 C866 1.420 . S
C868 N876 1.362 . S
C869 C865 1.411 . S
C869 C867 1.420 . S
C869 C874 1.395 . S
C870 C866 1.423 . S
C870 C867 1.351 . S
C870 H882 0.930 . S
C871 C873 1.400 . S
C871 C874 1.386 . S
C871 H883 0.930 . S
N872 C865 1.377 . S
N872 C873 1.321 . S
N872 Eu875 2.609 . S
C873 C871 1.400 . S
C873 N872 1.321 . S
C873 H880 0.930 . S
C874 C869 1.395 . S
C874 C871 1.386 . S
C874 H893 0.930 . S
Eu875 N872 2.609 . S
Eu875 N876 2.657 . S
Eu875 O909 2.380 . S
Eu875 O910 2.432 . S
Eu875 O914 2.558 . S
Eu875 O915 2.612 . S
Eu875 O917 2.339 1_554 S
Eu875 O918 2.563 . S
Eu875 O919 2.419 . S
Eu875 C939 2.848 . S
N876 C868 1.362 . S
N876 Eu875 2.657 . S
N876 C877 1.334 1_554 S
C877 N876 1.334 1_556 S
C877 C879 1.413 . S
C877 H884 0.929 . S
C878 C866 1.392 1_556 S
C878 C879 1.367 . S
C878 H886 0.930 . S
C879 C877 1.413 . S
C879 C878 1.367 . S
C879 H881 0.930 . S
H880 C873 0.930 . S
H881 C879 0.930 . S
H882 C870 0.930 . S
H883 C871 0.930 . S
H884 C877 0.929 . S
H885 C899 0.930 . S
H886 C878 0.930 . S
H887 C905 0.956 . S
H888 C896 0.929 1_545 S
H889 C903 0.930 . S
H890 C867 0.931 . S
H891 C897 0.930 . S
H892 C930 0.930 . S
H893 C874 0.930 . S
H894 C929 0.931 . S
N895 Eu864 2.657 1_565 S
N895 C896 1.334 . S
N895 C900 1.356 1_455 S
C896 H888 0.929 1_565 S
C896 N895 1.334 . S
C896 C899 1.413 . S
C897 H891 0.930 . S
C897 C898 1.392 . S
C897 C899 1.367 1_655 S
C898 C897 1.392 . S
C898 C900 1.427 . S
C898 C930 1.423 . S
C899 H885 0.930 . S
C899 C896 1.413 . S
C899 C897 1.367 1_455 S
C900 N895 1.356 1_655 S
C900 C898 1.427 . S
C900 C904 1.430 1_554 S
H901 C906 0.930 . S
N902 Eu864 2.609 1_566 S
N902 C904 1.358 1_455 S
N902 C905 1.321 . S
C903 H889 0.930 . S
C903 C905 1.400 1_655 S
C903 C906 1.386 . S
C904 C900 1.430 1_556 S
C904 N902 1.358 1_655 S
C904 C907 1.428 . S
C905 H887 0.956 . S
C905 N902 1.321 . S
C905 C903 1.400 1_455 S
C906 H901 0.930 . S
C906 C903 1.386 . S
C906 C907 1.395 . S
C907 C904 1.428 . S
C907 C906 1.395 . S
C907 C929 1.420 . S
O908 Eu864 2.558 1_656 S
O908 C928 1.257 . S
O909 Eu864 2.612 . S
O909 Eu875 2.380 . S
O909 C920 1.276 . S
O910 Eu875 2.432 . S
O910 C927 1.264 . S
O911 Eu864 2.339 . S
O911 C927 1.254 . S
O912 Eu864 2.579 . S
O912 C920 1.261 . S
O913 Eu864 2.419 1_655 S
O913 C928 1.249 1_554 S
O914 Eu875 2.558 . S
O914 C939 1.257 . S
O915 Eu864 2.380 . S
O915 Eu875 2.612 . S
O915 C931 1.252 1_545 S
O916 Eu864 2.432 1_556 S
O916 C938 1.264 . S
O917 Eu875 2.339 1_556 S
O917 C938 1.254 . S
O918 Eu875 2.563 . S
O918 C931 1.233 1_545 S
O919 Eu875 2.419 . S
O919 C939 1.249 . S
C920 O909 1.276 . S
C920 O912 1.261 . S
C921 C923 1.393 1_556 S
C921 C925 1.395 . S
C921 C928 1.492 . S
C922 C923 1.389 1_556 S
C922 C924 1.400 . S
C923 C921 1.393 1_554 S
C923 C922 1.389 1_554 S
C923 H940 0.930 . S
C924 C922 1.400 . S
C924 C926 1.395 . S
C924 H941 0.930 . S
C925 C921 1.395 . S
C925 C926 1.379 . S
C925 H942 0.930 . S
C926 C924 1.395 . S
C926 C925 1.379 . S
C926 H943 0.930 . S
C927 O910 1.264 . S
C927 O911 1.254 . S
C928 Eu864 2.848 1_656 S
C928 O908 1.257 . S
C928 O913 1.249 1_556 S
C928 C921 1.492 . S
C929 H894 0.931 . S
C929 C907 1.420 . S
C929 C930 1.349 1_556 S
C930 H892 0.930 . S
C930 C898 1.423 . S
C930 C929 1.349 1_554 S
C931 O915 1.252 1_565 S
C931 O918 1.233 1_565 S
C932 C933 1.393 . S
C932 C936 1.395 . S
C932 C939 1.492 . S
C933 C932 1.393 . S
C933 C934 1.392 . S
C933 H944 0.930 . S
C934 C933 1.392 . S
C934 C935 1.386 . S
C935 C934 1.386 . S
C935 C937 1.395 . S
C935 H945 0.930 . S
C936 C932 1.395 . S
C936 C937 1.379 . S
C936 H946 0.930 . S
C937 C935 1.395 . S
C937 C936 1.379 . S
C937 H947 0.930 . S
C938 O916 1.264 . S
C938 O917 1.254 . S
C939 Eu875 2.848 . S
C939 O914 1.257 . S
C939 O919 1.249 . S
C939 C932 1.492 . S
H940 C923 0.930 . S
H941 C924 0.930 . S
H942 C925 0.930 . S
H943 C926 0.930 . S
H944 C933 0.930 . S
H945 C935 0.930 . S
H946 C936 0.930 . S
H947 C937 0.930 . S
Eu948 N979 2.657 . S
Eu948 N986 2.609 . S
Eu948 O992 2.558 . S
Eu948 O993 2.612 . S
Eu948 O995 2.339 . S
Eu948 O996 2.563 . S
Eu948 O997 2.419 . S
Eu948 O999 2.380 . S
Eu948 O1000 2.432 . S
Eu948 C1012 2.848 . S
C949 C952 1.429 . S
C949 C953 1.411 . S
C949 N956 1.377 . S
C950 C952 1.420 . S
C950 C954 1.423 . S
C950 C962 1.392 . S
C951 C953 1.420 . S
C951 C954 1.351 . S
C951 H974 0.931 . S
C952 C949 1.429 . S
C952 C950 1.420 . S
C952 N960 1.362 . S
C953 C949 1.411 . S
C953 C951 1.420 . S
C953 C958 1.395 . S
C954 C950 1.423 . S
C954 C951 1.351 . S
C954 H966 0.930 . S
C955 C957 1.400 . S
C955 C958 1.386 . S
C955 H967 0.930 . S
N956 C949 1.377 . S
N956 C957 1.321 . S
N956 Eu959 2.609 . S
C957 C955 1.400 . S
C957 N956 1.321 . S
C957 H964 0.930 . S
C958 C953 1.395 . S
C958 C955 1.386 . S
C958 H977 0.930 . S
Eu959 N956 2.609 . S
Eu959 N960 2.657 . S
Eu959 O993 2.380 . S
Eu959 O994 2.432 . S
Eu959 O998 2.558 . S
Eu959 O999 2.612 . S
Eu959 O1001 2.339 . S
Eu959 O1002 2.563 . S
Eu959 O1003 2.419 . S
Eu959 C1023 2.848 . S
N960 C952 1.362 . S
N960 Eu959 2.657 . S
N960 C961 1.334 . S
C961 N960 1.334 . S
C961 C963 1.413 . S
C961 H968 0.929 . S
C962 C950 1.392 . S
C962 C963 1.367 . S
C962 H970 0.930 . S
C963 C961 1.413 . S
C963 C962 1.367 . S
C963 H965 0.930 . S
H964 C957 0.930 . S
H965 C963 0.930 . S
H966 C954 0.930 . S
H967 C955 0.930 . S
H968 C961 0.929 . S
H969 C983 0.930 . S
H970 C962 0.930 . S
H971 C989 0.930 . S
H972 C980 0.929 . S
H973 C987 0.930 . S
H974 C951 0.931 . S
H975 C981 0.930 . S
H976 C1014 0.930 . S
H977 C958 0.930 . S
H978 C1013 0.931 . S
N979 Eu948 2.657 . S
N979 C980 1.334 . S
N979 C984 1.362 . S
C980 H972 0.929 . S
C980 N979 1.334 . S
C980 C983 1.413 . S
C981 H975 0.930 . S
C981 C982 1.392 . S
C981 C983 1.367 . S
C982 C981 1.392 . S
C982 C984 1.420 . S
C982 C1014 1.423 . S
C983 H969 0.930 . S
C983 C980 1.413 . S
C983 C981 1.367 . S
C984 N979 1.362 . S
C984 C982 1.420 . S
C984 C988 1.429 . S
H985 C990 0.930 . S
N986 Eu948 2.609 . S
N986 C988 1.377 . S
N986 C989 1.321 . S
C987 H973 0.930 . S
C987 C989 1.400 . S
C987 C990 1.386 . S
C988 C984 1.429 . S
C988 N986 1.377 . S
C988 C991 1.411 . S
C989 H971 0.930 . S
C989 N986 1.321 . S
C989 C987 1.400 . S
C990 H985 0.930 . S
C990 C987 1.386 . S
C990 C991 1.395 . S
C991 C988 1.411 . S
C991 C990 1.395 . S
C991 C1013 1.420 . S
O992 Eu948 2.558 . S
O992 C1012 1.257 . S
O993 Eu948 2.612 . S
O993 Eu959 2.380 . S
O993 C1004 1.276 . S
O994 Eu959 2.432 . S
O994 C1011 1.264 . S
O995 Eu948 2.339 . S
O995 C1011 1.254 . S
O996 Eu948 2.563 . S
O996 C1004 1.235 . S
O997 Eu948 2.419 . S
O997 C1012 1.249 . S
O998 Eu959 2.558 . S
O998 C1023 1.257 . S
O999 Eu948 2.380 . S
O999 Eu959 2.612 . S
O999 C1015 1.276 . S
O1000 Eu948 2.432 . S
O1000 C1022 1.264 . S
O1001 Eu959 2.339 . S
O1001 C1022 1.254 . S
O1002 Eu959 2.563 . S
O1002 C1015 1.235 . S
O1003 Eu959 2.419 . S
O1003 C1023 1.249 . S
C1004 O993 1.276 . S
C1004 O996 1.235 . S
C1005 C1007 1.393 . S
C1005 C1009 1.395 . S
C1005 C1012 1.492 . S
C1006 C1007 1.392 . S
C1006 C1008 1.386 . S
C1007 C1005 1.393 . S
C1007 C1006 1.392 . S
C1007 H1024 0.930 . S
C1008 C1006 1.386 . S
C1008 C1010 1.395 . S
C1008 H1025 0.930 . S
C1009 C1005 1.395 . S
C1009 C1010 1.379 . S
C1009 H1026 0.930 . S
C1010 C1008 1.395 . S
C1010 C1009 1.379 . S
C1010 H1027 0.930 . S
C1011 O994 1.264 . S
C1011 O995 1.254 . S
C1012 Eu948 2.848 . S
C1012 O992 1.257 . S
C1012 O997 1.249 . S
C1012 C1005 1.492 . S
C1013 H978 0.931 . S
C1013 C991 1.420 . S
C1013 C1014 1.351 . S
C1014 H976 0.930 . S
C1014 C982 1.423 . S
C1014 C1013 1.351 . S
C1015 O999 1.276 . S
C1015 O1002 1.235 . S
C1016 C1017 1.393 . S
C1016 C1020 1.395 . S
C1016 C1023 1.492 . S
C1017 C1016 1.393 . S
C1017 C1018 1.392 . S
C1017 H1028 0.930 . S
C1018 C1017 1.392 . S
C1018 C1019 1.386 . S
C1019 C1018 1.386 . S
C1019 C1021 1.395 . S
C1019 H1029 0.930 . S
C1020 C1016 1.395 . S
C1020 C1021 1.379 . S
C1020 H1030 0.930 . S
C1021 C1019 1.395 . S
C1021 C1020 1.379 . S
C1021 H1031 0.930 . S
C1022 O1000 1.264 . S
C1022 O1001 1.254 . S
C1023 Eu959 2.848 . S
C1023 O998 1.257 . S
C1023 O1003 1.249 . S
C1023 C1016 1.492 . S
H1024 C1007 0.930 . S
H1025 C1008 0.930 . S
H1026 C1009 0.930 . S
H1027 C1010 0.930 . S
H1028 C1017 0.930 . S
H1029 C1019 0.930 . S
H1030 C1020 0.930 . S
H1031 C1021 0.930 . S
Eu1032 N1063 2.657 . S
Eu1032 N1070 2.609 . S
Eu1032 O1076 2.558 . S
Eu1032 O1077 2.612 . S
Eu1032 O1079 2.339 . S
Eu1032 O1080 2.563 . S
Eu1032 O1081 2.419 . S
Eu1032 O1083 2.380 . S
Eu1032 O1084 2.432 . S
Eu1032 C1096 2.848 . S
C1033 C1036 1.428 1_545 S
C1033 C1037 1.408 1_545 S
C1033 N1040 1.380 . S
C1034 C1036 1.420 . S
C1034 C1038 1.423 . S
C1034 C1046 1.392 . S
C1035 C1037 1.420 . S
C1035 C1038 1.351 . S
C1035 H1058 0.931 . S
C1036 C1033 1.428 1_565 S
C1036 C1034 1.420 . S
C1036 N1044 1.362 1_565 S
C1037 C1033 1.408 1_565 S
C1037 C1035 1.420 . S
C1037 C1042 1.395 . S
C1038 C1034 1.423 . S
C1038 C1035 1.351 . S
C1038 H1050 0.930 . S
C1039 C1041 1.400 . S
C1039 C1042 1.386 1_545 S
C1039 H1051 0.930 . S
N1040 C1033 1.380 . S
N1040 C1041 1.321 . S
N1040 Eu1043 2.609 . S
C1041 C1039 1.400 . S
C1041 N1040 1.321 . S
C1041 H1048 0.930 . S
C1042 C1037 1.395 . S
C1042 C1039 1.386 1_565 S
C1042 H1061 0.930 . S
Eu1043 N1040 2.609 . S
Eu1043 N1044 2.657 . S
Eu1043 O1077 2.380 . S
Eu1043 O1078 2.432 . S
Eu1043 O1082 2.558 . S
Eu1043 O1083 2.612 . S
Eu1043 O1085 2.339 . S
Eu1043 O1086 2.563 . S
Eu1043 O1087 2.419 . S
Eu1043 C1107 2.848 . S
N1044 C1036 1.362 1_545 S
N1044 Eu1043 2.657 . S
N1044 C1045 1.341 . S
C1045 N1044 1.341 . S
C1045 C1047 1.369 1_545 S
C1045 H1052 0.971 . S
C1046 C1034 1.392 . S
C1046 C1047 1.367 . S
C1046 H1054 0.930 . S
C1047 C1045 1.369 1_565 S
C1047 C1046 1.367 . S
C1047 H1049 0.930 . S
H1048 C1041 0.930 . S
H1049 C1047 0.930 . S
H1050 C1038 0.930 . S
H1051 C1039 0.930 . S
H1052 C1045 0.971 . S
H1053 C1067 0.930 . S
H1054 C1046 0.930 . S
H1055 C1073 0.930 . S
H1056 C1064 0.929 . S
H1057 C1071 0.930 . S
H1058 C1035 0.931 . S
H1059 C1065 0.930 . S
H1060 C1098 0.930 . S
H1061 C1042 0.930 . S
H1062 C1097 0.931 . S
N1063 Eu1032 2.657 . S
N1063 C1064 1.334 . S
N1063 C1068 1.362 . S
C1064 H1056 0.929 . S
C1064 N1063 1.334 . S
C1064 C1067 1.413 . S
C1065 H1059 0.930 . S
C1065 C1066 1.392 . S
C1065 C1067 1.367 . S
C1066 C1065 1.392 . S
C1066 C1068 1.420 . S
C1066 C1098 1.423 . S
C1067 H1053 0.930 . S
C1067 C1064 1.413 . S
C1067 C1065 1.367 . S
C1068 N1063 1.362 . S
C1068 C1066 1.420 . S
C1068 C1072 1.429 . S
H1069 C1074 0.930 . S
N1070 Eu1032 2.609 . S
N1070 C1072 1.377 . S
N1070 C1073 1.321 . S
C1071 H1057 0.930 . S
C1071 C1073 1.400 . S
C1071 C1074 1.386 . S
C1072 C1068 1.429 . S
C1072 N1070 1.377 . S
C1072 C1075 1.411 . S
C1073 H1055 0.930 . S
C1073 N1070 1.321 . S
C1073 C1071 1.400 . S
C1074 H1069 0.930 . S
C1074 C1071 1.386 . S
C1074 C1075 1.395 . S
C1075 C1072 1.411 . S
C1075 C1074 1.395 . S
C1075 C1097 1.420 . S
O1076 Eu1032 2.558 . S
O1076 C1096 1.257 . S
O1077 Eu1032 2.612 . S
O1077 Eu1043 2.380 . S
O1077 C1088 1.276 . S
O1078 Eu1043 2.432 . S
O1078 C1095 1.264 . S
O1079 Eu1032 2.339 . S
O1079 C1095 1.254 . S
O1080 Eu1032 2.563 . S
O1080 C1088 1.235 . S
O1081 Eu1032 2.419 . S
O1081 C1096 1.249 . S
O1082 Eu1043 2.558 . S
O1082 C1107 1.257 . S
O1083 Eu1032 2.380 . S
O1083 Eu1043 2.612 . S
O1083 C1099 1.276 . S
O1084 Eu1032 2.432 . S
O1084 C1106 1.264 . S
O1085 Eu1043 2.339 . S
O1085 C1106 1.254 . S
O1086 Eu1043 2.563 . S
O1086 C1099 1.235 . S
O1087 Eu1043 2.419 . S
O1087 C1107 1.249 . S
C1088 O1077 1.276 . S
C1088 O1080 1.235 . S
C1089 C1091 1.393 . S
C1089 C1093 1.395 . S
C1089 C1096 1.492 . S
C1090 C1091 1.403 . S
C1090 C1092 1.383 . S
C1091 C1089 1.393 . S
C1091 C1090 1.403 . S
C1091 H1108 0.930 . S
C1092 C1090 1.383 . S
C1092 C1094 1.436 . S
C1092 H1109 0.895 1_545 S
C1093 C1089 1.395 . S
C1093 C1094 1.379 . S
C1093 H1110 0.930 . S
C1094 C1092 1.436 . S
C1094 C1093 1.379 . S
C1094 H1111 0.930 . S
C1095 O1078 1.264 . S
C1095 O1079 1.254 . S
C1096 Eu1032 2.848 . S
C1096 O1076 1.257 . S
C1096 O1081 1.249 . S
C1096 C1089 1.492 . S
C1097 H1062 0.931 . S
C1097 C1075 1.420 . S
C1097 C1098 1.351 . S
C1098 H1060 0.930 . S
C1098 C1066 1.423 . S
C1098 C1097 1.351 . S
C1099 O1083 1.276 . S
C1099 O1086 1.235 . S
C1100 C1101 1.393 . S
C1100 C1104 1.395 . S
C1100 C1107 1.492 . S
C1101 C1100 1.393 . S
C1101 C1102 1.392 . S
C1101 H1112 0.930 . S
C1102 C1101 1.392 . S
C1102 C1103 1.386 . S
C1103 C1102 1.386 . S
C1103 C1105 1.395 . S
C1103 H1113 0.930 . S
C1104 C1100 1.395 . S
C1104 C1105 1.379 . S
C1104 H1114 0.930 . S
C1105 C1103 1.395 . S
C1105 C1104 1.379 . S
C1105 H1115 0.930 . S
C1106 O1084 1.264 . S
C1106 O1085 1.254 . S
C1107 Eu1043 2.848 . S
C1107 O1082 1.257 . S
C1107 O1087 1.249 . S
C1107 C1100 1.492 . S
H1108 C1091 0.930 . S
H1109 C1092 0.895 1_565 S
H1110 C1093 0.930 . S
H1111 C1094 0.930 . S
H1112 C1101 0.930 . S
H1113 C1103 0.930 . S
H1114 C1104 0.930 . S
H1115 C1105 0.930 . S
Eu1116 N1147 2.657 . S
Eu1116 N1154 2.609 . S
Eu1116 O1160 2.558 . S
Eu1116 O1161 2.612 . S
Eu1116 O1163 2.339 . S
Eu1116 O1164 2.563 . S
Eu1116 O1165 2.419 . S
Eu1116 O1167 2.380 . S
Eu1116 O1168 2.432 . S
Eu1116 C1180 2.848 . S
C1117 C1120 1.429 . S
C1117 C1121 1.411 . S
C1117 N1124 1.377 . S
C1118 C1120 1.420 . S
C1118 C1122 1.423 . S
C1118 C1130 1.392 . S
C1119 C1121 1.420 . S
C1119 C1122 1.351 . S
C1119 H1142 0.931 . S
C1120 C1117 1.429 . S
C1120 C1118 1.420 . S
C1120 N1128 1.362 . S
C1121 C1117 1.411 . S
C1121 C1119 1.420 . S
C1121 C1126 1.395 . S
C1122 C1118 1.423 . S
C1122 C1119 1.351 . S
C1122 H1134 0.930 . S
C1123 C1125 1.400 . S
C1123 C1126 1.386 . S
C1123 H1135 0.930 . S
N1124 C1117 1.377 . S
N1124 C1125 1.321 . S
N1124 Eu1127 2.609 . S
C1125 C1123 1.400 . S
C1125 N1124 1.321 . S
C1125 H1132 0.930 . S
C1126 C1121 1.395 . S
C1126 C1123 1.386 . S
C1126 H1145 0.930 . S
Eu1127 N1124 2.609 . S
Eu1127 N1128 2.657 . S
Eu1127 O1161 2.380 . S
Eu1127 O1162 2.432 . S
Eu1127 O1166 2.558 . S
Eu1127 O1167 2.612 . S
Eu1127 O1169 2.339 . S
Eu1127 O1170 2.563 . S
Eu1127 O1171 2.419 . S
Eu1127 C1191 2.848 . S
N1128 C1120 1.362 . S
N1128 Eu1127 2.657 . S
N1128 C1129 1.334 . S
C1129 N1128 1.334 . S
C1129 C1131 1.413 . S
C1129 H1136 0.929 . S
C1130 C1118 1.392 . S
C1130 C1131 1.367 . S
C1130 H1138 0.930 . S
C1131 C1129 1.413 . S
C1131 C1130 1.367 . S
C1131 H1133 0.930 . S
H1132 C1125 0.930 . S
H1133 C1131 0.930 . S
H1134 C1122 0.930 . S
H1135 C1123 0.930 . S
H1136 C1129 0.929 . S
H1137 C1151 0.930 . S
H1138 C1130 0.930 . S
H1139 C1157 0.930 . S
H1140 C1148 0.929 . S
H1141 C1155 0.930 . S
H1142 C1119 0.931 . S
H1143 C1149 0.930 . S
H1144 C1182 0.930 . S
H1145 C1126 0.930 . S
H1146 C1181 0.931 . S
N1147 Eu1116 2.657 . S
N1147 C1148 1.334 . S
N1147 C1152 1.362 . S
C1148 H1140 0.929 . S
C1148 N1147 1.334 . S
C1148 C1151 1.413 . S
C1149 H1143 0.930 . S
C1149 C1150 1.392 . S
C1149 C1151 1.367 . S
C1150 C1149 1.392 . S
C1150 C1152 1.420 . S
C1150 C1182 1.423 . S
C1151 H1137 0.930 . S
C1151 C1148 1.413 . S
C1151 C1149 1.367 . S
C1152 N1147 1.362 . S
C1152 C1150 1.420 . S
C1152 C1156 1.429 . S
H1153 C1158 0.930 . S
N1154 Eu1116 2.609 . S
N1154 C1156 1.377 . S
N1154 C1157 1.321 . S
C1155 H1141 0.930 . S
C1155 C1157 1.400 . S
C1155 C1158 1.386 . S
C1156 C1152 1.429 . S
C1156 N1154 1.377 . S
C1156 C1159 1.411 . S
C1157 H1139 0.930 . S
C1157 N1154 1.321 . S
C1157 C1155 1.400 . S
C1158 H1153 0.930 . S
C1158 C1155 1.386 . S
C1158 C1159 1.395 . S
C1159 C1156 1.411 . S
C1159 C1158 1.395 . S
C1159 C1181 1.420 . S
O1160 Eu1116 2.558 . S
O1160 C1180 1.257 . S
O1161 Eu1116 2.612 . S
O1161 Eu1127 2.380 . S
O1161 C1172 1.276 . S
O1162 Eu1127 2.432 . S
O1162 C1179 1.264 . S
O1163 Eu1116 2.339 . S
O1163 C1179 1.254 . S
O1164 Eu1116 2.563 . S
O1164 C1172 1.235 . S
O1165 Eu1116 2.419 . S
O1165 C1180 1.249 . S
O1166 Eu1127 2.558 . S
O1166 C1191 1.257 . S
O1167 Eu1116 2.380 . S
O1167 Eu1127 2.612 . S
O1167 C1183 1.276 . S
O1168 Eu1116 2.432 . S
O1168 C1190 1.264 . S
O1169 Eu1127 2.339 . S
O1169 C1190 1.254 . S
O1170 Eu1127 2.563 . S
O1170 C1183 1.235 . S
O1171 Eu1127 2.419 . S
O1171 C1191 1.249 . S
C1172 O1161 1.276 . S
C1172 O1164 1.235 . S
C1173 C1175 1.393 . S
C1173 C1177 1.395 . S
C1173 C1180 1.492 . S
C1174 C1175 1.392 . S
C1174 C1176 1.386 . S
C1175 C1173 1.393 . S
C1175 C1174 1.392 . S
C1175 H1192 0.930 . S
C1176 C1174 1.386 . S
C1176 C1178 1.395 . S
C1176 H1193 0.930 . S
C1177 C1173 1.395 . S
C1177 C1178 1.379 . S
C1177 H1194 0.930 . S
C1178 C1176 1.395 . S
C1178 C1177 1.379 . S
C1178 H1195 0.930 . S
C1179 O1162 1.264 . S
C1179 O1163 1.254 . S
C1180 Eu1116 2.848 . S
C1180 O1160 1.257 . S
C1180 O1165 1.249 . S
C1180 C1173 1.492 . S
C1181 H1146 0.931 . S
C1181 C1159 1.420 . S
C1181 C1182 1.351 . S
C1182 H1144 0.930 . S
C1182 C1150 1.423 . S
C1182 C1181 1.351 . S
C1183 O1167 1.276 . S
C1183 O1170 1.235 . S
C1184 C1185 1.393 . S
C1184 C1188 1.395 . S
C1184 C1191 1.492 . S
C1185 C1184 1.393 . S
C1185 C1186 1.392 . S
C1185 H1196 0.930 . S
C1186 C1185 1.392 . S
C1186 C1187 1.386 . S
C1187 C1186 1.386 . S
C1187 C1189 1.395 . S
C1187 H1197 0.930 . S
C1188 C1184 1.395 . S
C1188 C1189 1.379 . S
C1188 H1198 0.930 . S
C1189 C1187 1.395 . S
C1189 C1188 1.379 . S
C1189 H1199 0.930 . S
C1190 O1168 1.264 . S
C1190 O1169 1.254 . S
C1191 Eu1127 2.848 . S
C1191 O1166 1.257 . S
C1191 O1171 1.249 . S
C1191 C1184 1.492 . S
H1192 C1175 0.930 . S
H1193 C1176 0.930 . S
H1194 C1177 0.930 . S
H1195 C1178 0.930 . S
H1196 C1185 0.930 . S
H1197 C1187 0.930 . S
H1198 C1188 0.930 . S
H1199 C1189 0.930 . S
Eu1200 N1231 2.657 . S
Eu1200 N1238 2.609 . S
Eu1200 O1244 2.558 . S
Eu1200 O1245 2.612 . S
Eu1200 O1247 2.339 . S
Eu1200 O1248 2.563 . S
Eu1200 O1249 2.419 . S
Eu1200 O1251 2.380 . S
Eu1200 O1252 2.432 . S
Eu1200 C1264 2.848 . S
C1201 C1204 1.429 . S
C1201 C1205 1.411 . S
C1201 N1208 1.387 . S
C1202 C1204 1.420 . S
C1202 C1206 1.423 . S
C1202 C1214 1.392 . S
C1203 C1205 1.420 . S
C1203 C1206 1.351 . S
C1203 H1226 0.931 . S
C1204 C1201 1.429 . S
C1204 C1202 1.420 . S
C1204 N1212 1.362 . S
C1205 C1201 1.411 . S
C1205 C1203 1.420 . S
C1205 C1210 1.395 . S
C1206 C1202 1.423 . S
C1206 C1203 1.351 . S
C1206 H1218 0.930 . S
C1207 C1209 1.400 1_565 S
C1207 C1210 1.386 . S
C1207 H1219 0.930 . S
N1208 C1201 1.387 . S
N1208 C1209 1.326 1_565 S
N1208 Eu1211 2.600 1_565 S
C1209 C1207 1.400 1_545 S
C1209 N1208 1.326 1_545 S
C1209 H1216 0.930 . S
C1210 C1205 1.395 . S
C1210 C1207 1.386 . S
C1210 H1229 0.930 . S
Eu1211 N1208 2.600 1_545 S
Eu1211 N1212 2.657 1_545 S
Eu1211 O1245 2.380 . S
Eu1211 O1246 2.432 . S
Eu1211 O1250 2.558 1_545 S
Eu1211 O1251 2.612 . S
Eu1211 O1253 2.339 . S
Eu1211 O1254 2.563 . S
Eu1211 O1255 2.419 1_545 S
Eu1211 C1275 2.848 1_545 S
N1212 C1204 1.362 . S
N1212 Eu1211 2.657 1_565 S
N1212 C1213 1.334 . S
C1213 N1212 1.334 . S
C1213 C1215 1.413 . S
C1213 H1220 0.929 . S
C1214 C1202 1.392 . S
C1214 C1215 1.367 . S
C1214 H1222 0.930 . S
C1215 C1213 1.413 . S
C1215 C1214 1.367 . S
C1215 H1217 0.930 1_455 S
H1216 C1209 0.930 . S
H1217 C1215 0.930 1_655 S
H1218 C1206 0.930 . S
H1219 C1207 0.930 . S
H1220 C1213 0.929 . S
H1221 C1235 0.930 . S
H1222 C1214 0.930 . S
H1223 C1241 0.930 . S
H1224 C1232 0.929 . S
H1225 C1239 0.931 . S
H1226 C1203 0.931 . S
H1227 C1233 0.930 . S
H1228 C1266 0.930 . S
H1229 C1210 0.930 . S
H1230 C1265 0.931 . S
N1231 Eu1200 2.657 . S
N1231 C1232 1.334 . S
N1231 C1236 1.362 . S
C1232 H1224 0.929 . S
C1232 N1231 1.334 . S
C1232 C1235 1.413 . S
C1233 H1227 0.930 . S
C1233 C1234 1.392 . S
C1233 C1235 1.367 . S
C1234 C1233 1.392 . S
C1234 C1236 1.420 . S
C1234 C1266 1.423 . S
C1235 H1221 0.930 . S
C1235 C1232 1.413 . S
C1235 C1233 1.367 . S
C1236 N1231 1.362 . S
C1236 C1234 1.420 . S
C1236 C1240 1.429 . S
H1237 C1242 0.930 . S
N1238 Eu1200 2.609 . S
N1238 C1240 1.377 . S
N1238 C1241 1.321 . S
C1239 H1225 0.931 . S
C1239 C1241 1.399 1_655 S
C1239 C1242 1.385 1_655 S
C1240 C1236 1.429 . S
C1240 N1238 1.377 . S
C1240 C1243 1.411 . S
C1241 H1223 0.930 . S
C1241 N1238 1.321 . S
C1241 C1239 1.399 1_455 S
C1242 H1237 0.930 . S
C1242 C1239 1.385 1_455 S
C1242 C1243 1.395 . S
C1243 C1240 1.411 . S
C1243 C1242 1.395 . S
C1243 C1265 1.420 . S
O1244 Eu1200 2.558 . S
O1244 C1264 1.257 . S
O1245 Eu1200 2.612 . S
O1245 Eu1211 2.380 . S
O1245 C1256 1.276 . S
O1246 Eu1211 2.432 . S
O1246 C1263 1.264 . S
O1247 Eu1200 2.339 . S
O1247 C1263 1.254 . S
O1248 Eu1200 2.563 . S
O1248 C1256 1.235 . S
O1249 Eu1200 2.419 . S
O1249 C1264 1.249 . S
O1250 Eu1211 2.558 1_565 S
O1250 C1275 1.257 . S
O1251 Eu1200 2.380 . S
O1251 Eu1211 2.612 . S
O1251 C1267 1.276 . S
O1252 Eu1200 2.432 . S
O1252 C1274 1.264 . S
O1253 Eu1211 2.339 . S
O1253 C1274 1.254 . S
O1254 Eu1211 2.563 . S
O1254 C1267 1.235 . S
O1255 Eu1211 2.419 1_565 S
O1255 C1275 1.249 . S
C1256 O1245 1.276 . S
C1256 O1248 1.235 . S
C1257 C1259 1.393 . S
C1257 C1261 1.395 . S
C1257 C1264 1.492 . S
C1258 C1259 1.392 . S
C1258 C1260 1.386 . S
C1259 C1257 1.393 . S
C1259 C1258 1.392 . S
C1259 H1276 0.930 . S
C1260 C1258 1.386 . S
C1260 C1262 1.395 . S
C1260 H1277 0.930 . S
C1261 C1257 1.395 . S
C1261 C1262 1.379 . S
C1261 H1278 0.930 . S
C1262 C1260 1.395 . S
C1262 C1261 1.379 . S
C1262 H1279 0.930 . S
C1263 O1246 1.264 . S
C1263 O1247 1.254 . S
C1264 Eu1200 2.848 . S
C1264 O1244 1.257 . S
C1264 O1249 1.249 . S
C1264 C1257 1.492 . S
C1265 H1230 0.931 . S
C1265 C1243 1.420 . S
C1265 C1266 1.351 . S
C1266 H1228 0.930 . S
C1266 C1234 1.423 . S
C1266 C1265 1.351 . S
C1267 O1251 1.276 . S
C1267 O1254 1.235 . S
C1268 C1269 1.393 . S
C1268 C1272 1.395 . S
C1268 C1275 1.492 . S
C1269 C1268 1.393 . S
C1269 C1270 1.392 . S
C1269 H1280 0.930 . S
C1270 C1269 1.392 . S
C1270 C1271 1.386 . S
C1271 C1270 1.386 . S
C1271 C1273 1.395 . S
C1271 H1281 0.930 . S
C1272 C1268 1.395 . S
C1272 C1273 1.379 . S
C1272 H1282 0.930 . S
C1273 C1271 1.395 . S
C1273 C1272 1.379 . S
C1273 H1283 0.930 . S
C1274 O1252 1.264 . S
C1274 O1253 1.254 . S
C1275 Eu1211 2.848 1_565 S
C1275 O1250 1.257 . S
C1275 O1255 1.249 . S
C1275 C1268 1.492 . S
H1276 C1259 0.930 . S
H1277 C1260 0.930 . S
H1278 C1261 0.930 . S
H1279 C1262 0.930 . S
H1280 C1269 0.930 . S
H1281 C1271 0.930 . S
H1282 C1272 0.930 . S
H1283 C1273 0.930 . S
Eu1284 N1315 2.657 . S
Eu1284 N1322 2.609 . S
Eu1284 O1328 2.558 . S
Eu1284 O1329 2.612 . S
Eu1284 O1331 2.339 . S
Eu1284 O1332 2.563 . S
Eu1284 O1333 2.419 . S
Eu1284 O1335 2.380 . S
Eu1284 O1336 2.432 . S
Eu1284 C1348 2.848 . S
C1285 C1288 1.429 . S
C1285 C1289 1.411 . S
C1285 N1292 1.377 . S
C1286 C1288 1.420 . S
C1286 C1290 1.423 . S
C1286 C1298 1.392 . S
C1287 C1289 1.420 . S
C1287 C1290 1.351 . S
C1287 H1310 0.931 . S
C1288 C1285 1.429 . S
C1288 C1286 1.420 . S
C1288 N1296 1.362 . S
C1289 C1285 1.411 . S
C1289 C1287 1.420 . S
C1289 C1294 1.395 . S
C1290 C1286 1.423 . S
C1290 C1287 1.351 . S
C1290 H1302 0.930 . S
C1291 C1293 1.400 . S
C1291 C1294 1.386 . S
C1291 H1303 0.930 . S
N1292 C1285 1.377 . S
N1292 C1293 1.321 . S
N1292 Eu1295 2.609 . S
C1293 C1291 1.400 . S
C1293 N1292 1.321 . S
C1293 H1300 0.930 . S
C1294 C1289 1.395 . S
C1294 C1291 1.386 . S
C1294 H1313 0.930 . S
Eu1295 N1292 2.609 . S
Eu1295 N1296 2.657 . S
Eu1295 O1329 2.380 . S
Eu1295 O1330 2.432 . S
Eu1295 O1334 2.558 . S
Eu1295 O1335 2.612 . S
Eu1295 O1337 2.339 . S
Eu1295 O1338 2.563 . S
Eu1295 O1339 2.419 . S
Eu1295 C1359 2.848 . S
N1296 C1288 1.362 . S
N1296 Eu1295 2.657 . S
N1296 C1297 1.334 . S
C1297 N1296 1.334 . S
C1297 C1299 1.413 . S
C1297 H1304 0.929 . S
C1298 C1286 1.392 . S
C1298 C1299 1.367 . S
C1298 H1306 0.930 . S
C1299 C1297 1.413 . S
C1299 C1298 1.367 . S
C1299 H1301 0.930 . S
H1300 C1293 0.930 . S
H1301 C1299 0.930 . S
H1302 C1290 0.930 . S
H1303 C1291 0.930 . S
H1304 C1297 0.929 . S
H1305 C1319 0.930 . S
H1306 C1298 0.930 . S
H1307 C1325 0.930 . S
H1308 C1316 0.929 . S
H1309 C1323 0.930 . S
H1310 C1287 0.931 . S
H1311 C1317 0.930 . S
H1312 C1350 0.930 . S
H1313 C1294 0.930 . S
H1314 C1349 0.931 . S
N1315 Eu1284 2.657 . S
N1315 C1316 1.334 . S
N1315 C1320 1.362 . S
C1316 H1308 0.929 . S
C1316 N1315 1.334 . S
C1316 C1319 1.413 . S
C1317 H1311 0.930 . S
C1317 C1318 1.392 . S
C1317 C1319 1.367 . S
C1318 C1317 1.392 . S
C1318 C1320 1.420 . S
C1318 C1350 1.423 . S
C1319 H1305 0.930 . S
C1319 C1316 1.413 . S
C1319 C1317 1.367 . S
C1320 N1315 1.362 . S
C1320 C1318 1.420 . S
C1320 C1324 1.429 . S
H1321 C1326 0.930 . S
N1322 Eu1284 2.609 . S
N1322 C1324 1.377 . S
N1322 C1325 1.321 . S
C1323 H1309 0.930 . S
C1323 C1325 1.400 . S
C1323 C1326 1.386 . S
C1324 C1320 1.429 . S
C1324 N1322 1.377 . S
C1324 C1327 1.411 . S
C1325 H1307 0.930 . S
C1325 N1322 1.321 . S
C1325 C1323 1.400 . S
C1326 H1321 0.930 . S
C1326 C1323 1.386 . S
C1326 C1327 1.395 . S
C1327 C1324 1.411 . S
C1327 C1326 1.395 . S
C1327 C1349 1.420 . S
O1328 Eu1284 2.558 . S
O1328 C1348 1.257 . S
O1329 Eu1284 2.612 . S
O1329 Eu1295 2.380 . S
O1329 C1340 1.276 . S
O1330 Eu1295 2.432 . S
O1330 C1347 1.264 . S
O1331 Eu1284 2.339 . S
O1331 C1347 1.254 . S
O1332 Eu1284 2.563 . S
O1332 C1340 1.235 . S
O1333 Eu1284 2.419 . S
O1333 C1348 1.249 . S
O1334 Eu1295 2.558 . S
O1334 C1359 1.257 . S
O1335 Eu1284 2.380 . S
O1335 Eu1295 2.612 . S
O1335 C1351 1.276 . S
O1336 Eu1284 2.432 . S
O1336 C1358 1.264 . S
O1337 Eu1295 2.339 . S
O1337 C1358 1.254 . S
O1338 Eu1295 2.563 . S
O1338 C1351 1.235 . S
O1339 Eu1295 2.419 . S
O1339 C1359 1.249 . S
C1340 O1329 1.276 . S
C1340 O1332 1.235 . S
C1341 C1343 1.393 . S
C1341 C1345 1.395 . S
C1341 C1348 1.492 . S
C1342 C1343 1.392 . S
C1342 C1344 1.386 . S
C1343 C1341 1.393 . S
C1343 C1342 1.392 . S
C1343 H1360 0.930 . S
C1344 C1342 1.386 . S
C1344 C1346 1.395 . S
C1344 H1361 0.930 . S
C1345 C1341 1.395 . S
C1345 C1346 1.379 . S
C1345 H1362 0.930 . S
C1346 C1344 1.395 . S
C1346 C1345 1.379 . S
C1346 H1363 0.930 . S
C1347 O1330 1.264 . S
C1347 O1331 1.254 . S
C1348 Eu1284 2.848 . S
C1348 O1328 1.257 . S
C1348 O1333 1.249 . S
C1348 C1341 1.492 . S
C1349 H1314 0.931 . S
C1349 C1327 1.420 . S
C1349 C1350 1.351 . S
C1350 H1312 0.930 . S
C1350 C1318 1.423 . S
C1350 C1349 1.351 . S
C1351 O1335 1.276 . S
C1351 O1338 1.235 . S
C1352 C1353 1.393 . S
C1352 C1356 1.395 . S
C1352 C1359 1.492 . S
C1353 C1352 1.393 . S
C1353 C1354 1.392 . S
C1353 H1364 0.930 . S
C1354 C1353 1.392 . S
C1354 C1355 1.386 . S
C1355 C1354 1.386 . S
C1355 C1357 1.395 . S
C1355 H1365 0.930 . S
C1356 C1352 1.395 . S
C1356 C1357 1.379 . S
C1356 H1366 0.930 . S
C1357 C1355 1.395 . S
C1357 C1356 1.379 . S
C1357 H1367 0.930 . S
C1358 O1336 1.264 . S
C1358 O1337 1.254 . S
C1359 Eu1295 2.848 . S
C1359 O1334 1.257 . S
C1359 O1339 1.249 . S
C1359 C1352 1.492 . S
H1360 C1343 0.930 . S
H1361 C1344 0.930 . S
H1362 C1345 0.930 . S
H1363 C1346 0.930 . S
H1364 C1353 0.930 . S
H1365 C1355 0.930 . S
H1366 C1356 0.930 . S
H1367 C1357 0.930 . S
Eu1368 N1399 2.657 . S
Eu1368 N1406 2.609 . S
Eu1368 O1412 2.558 . S
Eu1368 O1413 2.612 . S
Eu1368 O1415 2.339 . S
Eu1368 O1416 2.563 . S
Eu1368 O1417 2.419 . S
Eu1368 O1419 2.380 . S
Eu1368 O1420 2.432 . S
Eu1368 C1432 2.848 . S
C1369 C1372 1.429 . S
C1369 C1373 1.411 . S
C1369 N1376 1.377 . S
C1370 C1372 1.420 . S
C1370 C1374 1.423 . S
C1370 C1382 1.392 1_545 S
C1371 C1373 1.420 . S
C1371 C1374 1.351 . S
C1371 H1394 0.931 . S
C1372 C1369 1.429 . S
C1372 C1370 1.420 . S
C1372 N1380 1.362 . S
C1373 C1369 1.411 . S
C1373 C1371 1.420 . S
C1373 C1378 1.395 . S
C1374 C1370 1.423 . S
C1374 C1371 1.351 . S
C1374 H1386 0.930 . S
C1375 C1377 1.400 . S
C1375 C1378 1.386 . S
C1375 H1387 0.930 . S
N1376 C1369 1.377 . S
N1376 C1377 1.321 . S
N1376 Eu1379 2.609 . S
C1377 C1375 1.400 . S
C1377 N1376 1.321 . S
C1377 H1384 0.930 . S
C1378 C1373 1.395 . S
C1378 C1375 1.386 . S
C1378 H1397 0.930 . S
Eu1379 N1376 2.609 . S
Eu1379 N1380 2.657 . S
Eu1379 O1413 2.380 1_556 S
Eu1379 O1414 2.432 1_556 S
Eu1379 O1418 2.558 . S
Eu1379 O1419 2.612 1_556 S
Eu1379 O1421 2.339 . S
Eu1379 O1422 2.564 . S
Eu1379 O1423 2.419 . S
Eu1379 C1443 2.848 . S
N1380 C1372 1.362 . S
N1380 Eu1379 2.657 . S
N1380 C1381 1.334 . S
C1381 N1380 1.334 . S
C1381 C1383 1.413 1_545 S
C1381 H1388 0.929 . S
C1382 C1370 1.392 1_565 S
C1382 C1383 1.367 . S
C1382 H1390 0.930 . S
C1383 C1381 1.413 1_565 S
C1383 C1382 1.367 . S
C1383 H1385 0.930 . S
H1384 C1377 0.930 . S
H1385 C1383 0.930 . S
H1386 C1374 0.930 . S
H1387 C1375 0.930 . S
H1388 C1381 0.929 . S
H1389 C1403 0.930 . S
H1390 C1382 0.930 . S
H1391 C1409 0.941 . S
H1392 C1400 0.929 . S
H1393 C1407 0.930 . S
H1394 C1371 0.931 . S
H1395 C1401 0.930 . S
H1396 C1434 0.930 . S
H1397 C1378 0.930 . S
H1398 C1433 0.931 . S
N1399 Eu1368 2.657 . S
N1399 C1400 1.334 . S
N1399 C1404 1.362 . S
C1400 H1392 0.929 . S
C1400 N1399 1.334 . S
C1400 C1403 1.413 . S
C1401 H1395 0.930 . S
C1401 C1402 1.392 . S
C1401 C1403 1.367 . S
C1402 C1401 1.392 . S
C1402 C1404 1.420 . S
C1402 C1434 1.423 . S
C1403 H1389 0.930 . S
C1403 C1400 1.413 . S
C1403 C1401 1.367 . S
C1404 N1399 1.362 . S
C1404 C1402 1.420 . S
C1404 C1408 1.429 . S
H1405 C1410 0.930 1_565 S
N1406 Eu1368 2.609 . S
N1406 C1408 1.377 . S
N1406 C1409 1.287 1_545 S
C1407 H1393 0.930 . S
C1407 C1409 1.424 . S
C1407 C1410 1.386 1_565 S
C1408 C1404 1.429 . S
C1408 N1406 1.377 . S
C1408 C1411 1.411 . S
C1409 H1391 0.941 . S
C1409 N1406 1.287 1_565 S
C1409 C1407 1.424 . S
C1410 H1405 0.930 1_545 S
C1410 C1407 1.386 1_545 S
C1410 C1411 1.395 . S
C1411 C1408 1.411 . S
C1411 C1410 1.395 . S
C1411 C1433 1.420 . S
O1412 Eu1368 2.558 . S
O1412 C1432 1.257 . S
O1413 Eu1368 2.612 . S
O1413 Eu1379 2.380 1_554 S
O1413 C1424 1.276 . S
O1414 Eu1379 2.432 1_554 S
O1414 C1431 1.264 . S
O1415 Eu1368 2.339 . S
O1415 C1431 1.254 . S
O1416 Eu1368 2.563 . S
O1416 C1424 1.235 . S
O1417 Eu1368 2.419 . S
O1417 C1432 1.249 . S
O1418 Eu1379 2.558 . S
O1418 C1443 1.257 . S
O1419 Eu1368 2.380 . S
O1419 Eu1379 2.612 1_554 S
O1419 C1435 1.276 . S
O1420 Eu1368 2.432 . S
O1420 C1442 1.264 . S
O1421 Eu1379 2.339 . S
O1421 C1442 1.254 1_556 S
O1422 Eu1379 2.564 . S
O1422 C1435 1.217 1_556 S
O1423 Eu1379 2.419 . S
O1423 C1443 1.249 . S
C1424 O1413 1.276 . S
C1424 O1416 1.235 . S
C1425 C1427 1.393 . S
C1425 C1429 1.395 . S
C1425 C1432 1.492 . S
C1426 C1427 1.392 . S
C1426 C1428 1.386 . S
C1427 C1425 1.393 . S
C1427 C1426 1.392 . S
C1427 H1444 0.930 . S
C1428 C1426 1.386 . S
C1428 C1430 1.395 1_545 S
C1428 H1445 0.930 . S
C1429 C1425 1.395 . S
C1429 C1430 1.379 1_545 S
C1429 H1446 0.930 1_545 S
C1430 C1428 1.395 1_565 S
C1430 C1429 1.379 1_565 S
C1430 H1447 0.930 . S
C1431 O1414 1.264 . S
C1431 O1415 1.254 . S
C1432 Eu1368 2.848 . S
C1432 O1412 1.257 . S
C1432 O1417 1.249 . S
C1432 C1425 1.492 . S
C1433 H1398 0.931 . S
C1433 C1411 1.420 . S
C1433 C1434 1.351 . S
C1434 H1396 0.930 . S
C1434 C1402 1.423 . S
C1434 C1433 1.351 . S
C1435 O1419 1.276 . S
C1435 O1422 1.217 1_554 S
C1436 C1437 1.393 . S
C1436 C1440 1.395 . S
C1436 C1443 1.492 . S
C1437 C1436 1.393 . S
C1437 C1438 1.392 . S
C1437 H1448 0.930 . S
C1438 C1437 1.392 . S
C1438 C1439 1.386 . S
C1439 C1438 1.386 . S
C1439 C1441 1.395 . S
C1439 H1449 0.930 . S
C1440 C1436 1.395 . S
C1440 C1441 1.379 . S
C1440 H1450 0.930 . S
C1441 C1439 1.395 . S
C1441 C1440 1.379 . S
C1441 H1451 0.930 . S
C1442 O1420 1.264 . S
C1442 O1421 1.254 1_554 S
C1443 Eu1379 2.848 . S
C1443 O1418 1.257 . S
C1443 O1423 1.249 . S
C1443 C1436 1.492 . S
H1444 C1427 0.930 . S
H1445 C1428 0.930 . S
H1446 C1429 0.930 1_565 S
H1447 C1430 0.930 . S
H1448 C1437 0.930 . S
H1449 C1439 0.930 . S
H1450 C1440 0.930 . S
H1451 C1441 0.930 . S
Eu1452 N1483 2.657 . S
Eu1452 N1490 2.609 . S
Eu1452 O1496 2.558 . S
Eu1452 O1497 2.612 . S
Eu1452 O1499 2.339 . S
Eu1452 O1500 2.563 . S
Eu1452 O1501 2.419 . S
Eu1452 O1503 2.380 . S
Eu1452 O1504 2.432 . S
Eu1452 C1516 2.848 . S
C1453 C1456 1.429 . S
C1453 C1457 1.411 . S
C1453 N1460 1.377 . S
C1454 C1456 1.420 . S
C1454 C1458 1.423 . S
C1454 C1466 1.392 . S
C1455 C1457 1.420 . S
C1455 C1458 1.351 . S
C1455 H1478 0.931 . S
C1456 C1453 1.429 . S
C1456 C1454 1.420 . S
C1456 N1464 1.362 . S
C1457 C1453 1.411 . S
C1457 C1455 1.420 . S
C1457 C1462 1.395 . S
C1458 C1454 1.423 . S
C1458 C1455 1.351 . S
C1458 H1470 0.930 . S
C1459 C1461 1.400 . S
C1459 C1462 1.386 . S
C1459 H1471 0.930 . S
N1460 C1453 1.377 . S
N1460 C1461 1.321 . S
N1460 Eu1463 2.609 . S
C1461 C1459 1.400 . S
C1461 N1460 1.321 . S
C1461 H1468 0.930 . S
C1462 C1457 1.395 . S
C1462 C1459 1.386 . S
C1462 H1481 0.930 . S
Eu1463 N1460 2.609 . S
Eu1463 N1464 2.657 . S
Eu1463 O1497 2.380 . S
Eu1463 O1498 2.432 . S
Eu1463 O1502 2.558 . S
Eu1463 O1503 2.612 . S
Eu1463 O1505 2.339 . S
Eu1463 O1506 2.563 . S
Eu1463 O1507 2.419 . S
Eu1463 C1527 2.848 . S
N1464 C1456 1.362 . S
N1464 Eu1463 2.657 . S
N1464 C1465 1.334 . S
C1465 N1464 1.334 . S
C1465 C1467 1.413 . S
C1465 H1472 0.929 . S
C1466 C1454 1.392 . S
C1466 C1467 1.367 . S
C1466 H1474 0.930 . S
C1467 C1465 1.413 . S
C1467 C1466 1.367 . S
C1467 H1469 0.930 . S
H1468 C1461 0.930 . S
H1469 C1467 0.930 . S
H1470 C1458 0.930 . S
H1471 C1459 0.930 . S
H1472 C1465 0.929 . S
H1473 C1487 0.930 . S
H1474 C1466 0.930 . S
H1475 C1493 0.930 . S
H1476 C1484 0.929 . S
H1477 C1491 0.930 . S
H1478 C1455 0.931 . S
H1479 C1485 0.930 . S
H1480 C1518 0.930 . S
H1481 C1462 0.930 . S
H1482 C1517 0.931 . S
N1483 Eu1452 2.657 . S
N1483 C1484 1.334 . S
N1483 C1488 1.362 . S
C1484 H1476 0.929 . S
C1484 N1483 1.334 . S
C1484 C1487 1.413 . S
C1485 H1479 0.930 . S
C1485 C1486 1.392 . S
C1485 C1487 1.367 . S
C1486 C1485 1.392 . S
C1486 C1488 1.420 . S
C1486 C1518 1.423 . S
C1487 H1473 0.930 . S
C1487 C1484 1.413 . S
C1487 C1485 1.367 . S
C1488 N1483 1.362 . S
C1488 C1486 1.420 . S
C1488 C1492 1.429 . S
H1489 C1494 0.930 . S
N1490 Eu1452 2.609 . S
N1490 C1492 1.377 . S
N1490 C1493 1.321 . S
C1491 H1477 0.930 . S
C1491 C1493 1.400 . S
C1491 C1494 1.386 . S
C1492 C1488 1.429 . S
C1492 N1490 1.377 . S
C1492 C1495 1.411 . S
C1493 H1475 0.930 . S
C1493 N1490 1.321 . S
C1493 C1491 1.400 . S
C1494 H1489 0.930 . S
C1494 C1491 1.386 . S
C1494 C1495 1.395 . S
C1495 C1492 1.411 . S
C1495 C1494 1.395 . S
C1495 C1517 1.420 . S
O1496 Eu1452 2.558 . S
O1496 C1516 1.257 . S
O1497 Eu1452 2.612 . S
O1497 Eu1463 2.380 . S
O1497 C1508 1.276 . S
O1498 Eu1463 2.432 . S
O1498 C1515 1.264 . S
O1499 Eu1452 2.339 . S
O1499 C1515 1.254 . S
O1500 Eu1452 2.563 . S
O1500 C1508 1.235 . S
O1501 Eu1452 2.419 . S
O1501 C1516 1.249 . S
O1502 Eu1463 2.558 . S
O1502 C1527 1.257 . S
O1503 Eu1452 2.380 . S
O1503 Eu1463 2.612 . S
O1503 C1519 1.276 . S
O1504 Eu1452 2.432 . S
O1504 C1526 1.264 . S
O1505 Eu1463 2.339 . S
O1505 C1526 1.254 . S
O1506 Eu1463 2.563 . S
O1506 C1519 1.235 . S
O1507 Eu1463 2.419 . S
O1507 C1527 1.249 . S
C1508 O1497 1.276 . S
C1508 O1500 1.235 . S
C1509 C1511 1.393 . S
C1509 C1513 1.395 . S
C1509 C1516 1.492 . S
C1510 C1511 1.392 . S
C1510 C1512 1.386 . S
C1511 C1509 1.393 . S
C1511 C1510 1.392 . S
C1511 H1528 0.930 . S
C1512 C1510 1.386 . S
C1512 C1514 1.395 . S
C1512 H1529 0.930 . S
C1513 C1509 1.395 . S
C1513 C1514 1.379 . S
C1513 H1530 0.930 . S
C1514 C1512 1.395 . S
C1514 C1513 1.379 . S
C1514 H1531 0.930 . S
C1515 O1498 1.264 . S
C1515 O1499 1.254 . S
C1516 Eu1452 2.848 . S
C1516 O1496 1.257 . S
C1516 O1501 1.249 . S
C1516 C1509 1.492 . S
C1517 H1482 0.931 . S
C1517 C1495 1.420 . S
C1517 C1518 1.351 . S
C1518 H1480 0.930 . S
C1518 C1486 1.423 . S
C1518 C1517 1.351 . S
C1519 O1503 1.276 . S
C1519 O1506 1.235 . S
C1520 C1521 1.393 . S
C1520 C1524 1.395 . S
C1520 C1527 1.492 . S
C1521 C1520 1.393 . S
C1521 C1522 1.392 . S
C1521 H1532 0.930 . S
C1522 C1521 1.392 . S
C1522 C1523 1.386 . S
C1523 C1522 1.386 . S
C1523 C1525 1.395 . S
C1523 H1533 0.930 . S
C1524 C1520 1.395 . S
C1524 C1525 1.379 . S
C1524 H1534 0.930 . S
C1525 C1523 1.395 . S
C1525 C1524 1.379 . S
C1525 H1535 0.930 . S
C1526 O1504 1.264 . S
C1526 O1505 1.254 . S
C1527 Eu1463 2.848 . S
C1527 O1502 1.257 . S
C1527 O1507 1.249 . S
C1527 C1520 1.492 . S
H1528 C1511 0.930 . S
H1529 C1512 0.930 . S
H1530 C1513 0.930 . S
H1531 C1514 0.930 . S
H1532 C1521 0.930 . S
H1533 C1523 0.930 . S
H1534 C1524 0.930 . S
H1535 C1525 0.930 . S
Eu1536 N1567 2.657 . S
Eu1536 N1574 2.609 . S
Eu1536 O1580 2.558 . S
Eu1536 O1581 2.612 1_554 S
Eu1536 O1583 2.339 . S
Eu1536 O1584 2.563 1_554 S
Eu1536 O1585 2.419 . S
Eu1536 O1587 2.380 . S
Eu1536 O1588 2.432 . S
Eu1536 C1600 2.848 . S
C1537 C1540 1.429 . S
C1537 C1541 1.411 . S
C1537 N1544 1.377 . S
C1538 C1540 1.420 . S
C1538 C1542 1.423 . S
C1538 C1550 1.392 . S
C1539 C1541 1.420 . S
C1539 C1542 1.351 . S
C1539 H1562 0.931 . S
C1540 C1537 1.429 . S
C1540 C1538 1.420 . S
C1540 N1548 1.362 . S
C1541 C1537 1.411 . S
C1541 C1539 1.420 . S
C1541 C1546 1.395 . S
C1542 C1538 1.423 . S
C1542 C1539 1.351 . S
C1542 H1554 0.930 . S
C1543 C1545 1.400 . S
C1543 C1546 1.386 . S
C1543 H1555 0.930 . S
N1544 C1537 1.377 . S
N1544 C1545 1.321 . S
N1544 Eu1547 2.609 1_556 S
C1545 C1543 1.400 . S
C1545 N1544 1.321 . S
C1545 H1552 0.930 . S
C1546 C1541 1.395 . S
C1546 C1543 1.386 . S
C1546 H1565 0.930 . S
Eu1547 N1544 2.609 1_554 S
Eu1547 N1548 2.657 1_554 S
Eu1547 O1581 2.380 1_554 S
Eu1547 O1582 2.432 . S
Eu1547 O1586 2.558 . S
Eu1547 O1587 2.612 . S
Eu1547 O1589 2.339 . S
Eu1547 O1590 2.563 . S
Eu1547 O1591 2.419 . S
Eu1547 C1611 2.848 . S
N1548 C1540 1.362 . S
N1548 Eu1547 2.657 1_556 S
N1548 C1549 1.334 . S
C1549 N1548 1.334 . S
C1549 C1551 1.413 . S
C1549 H1556 0.929 . S
C1550 C1538 1.392 . S
C1550 C1551 1.367 . S
C1550 H1558 0.930 . S
C1551 C1549 1.413 . S
C1551 C1550 1.367 . S
C1551 H1553 0.930 . S
H1552 C1545 0.930 . S
H1553 C1551 0.930 . S
H1554 C1542 0.930 . S
H1555 C1543 0.930 . S
H1556 C1549 0.929 . S
H1557 C1571 0.930 . S
H1558 C1550 0.930 . S
H1559 C1577 0.930 . S
H1560 C1568 0.929 . S
H1561 C1575 0.930 . S
H1562 C1539 0.931 . S
H1563 C1569 0.930 . S
H1564 C1602 0.930 . S
H1565 C1546 0.930 . S
H1566 C1601 0.931 . S
N1567 Eu1536 2.657 . S
N1567 C1568 1.334 . S
N1567 C1572 1.362 . S
C1568 H1560 0.929 . S
C1568 N1567 1.334 . S
C1568 C1571 1.413 . S
C1569 H1563 0.930 . S
C1569 C1570 1.392 . S
C1569 C1571 1.367 . S
C1570 C1569 1.392 . S
C1570 C1572 1.420 . S
C1570 C1602 1.423 . S
C1571 H1557 0.930 . S
C1571 C1568 1.413 . S
C1571 C1569 1.367 . S
C1572 N1567 1.362 . S
C1572 C1570 1.420 . S
C1572 C1576 1.429 . S
H1573 C1578 0.930 . S
N1574 Eu1536 2.609 . S
N1574 C1576 1.377 . S
N1574 C1577 1.321 . S
C1575 H1561 0.930 . S
C1575 C1577 1.400 . S
C1575 C1578 1.386 . S
C1576 C1572 1.429 . S
C1576 N1574 1.377 . S
C1576 C1579 1.411 . S
C1577 H1559 0.930 . S
C1577 N1574 1.321 . S
C1577 C1575 1.400 . S
C1578 H1573 0.930 . S
C1578 C1575 1.386 . S
C1578 C1579 1.395 . S
C1579 C1576 1.411 . S
C1579 C1578 1.395 . S
C1579 C1601 1.420 . S
O1580 Eu1536 2.558 . S
O1580 C1600 1.257 . S
O1581 Eu1536 2.612 1_556 S
O1581 Eu1547 2.380 1_556 S
O1581 C1592 1.276 . S
O1582 Eu1547 2.432 . S
O1582 C1599 1.264 . S
O1583 Eu1536 2.339 . S
O1583 C1599 1.254 . S
O1584 Eu1536 2.563 1_556 S
O1584 C1592 1.235 . S
O1585 Eu1536 2.419 . S
O1585 C1600 1.249 . S
O1586 Eu1547 2.558 . S
O1586 C1611 1.257 . S
O1587 Eu1536 2.380 . S
O1587 Eu1547 2.612 . S
O1587 C1603 1.276 . S
O1588 Eu1536 2.432 . S
O1588 C1610 1.264 . S
O1589 Eu1547 2.339 . S
O1589 C1610 1.254 . S
O1590 Eu1547 2.563 . S
O1590 C1603 1.235 . S
O1591 Eu1547 2.419 . S
O1591 C1611 1.249 . S
C1592 O1581 1.276 . S
C1592 O1584 1.235 . S
C1593 C1595 1.393 . S
C1593 C1597 1.395 . S
C1593 C1600 1.492 . S
C1594 C1595 1.392 1_556 S
C1594 C1596 1.386 1_556 S
C1595 C1593 1.393 . S
C1595 C1594 1.392 1_554 S
C1595 H1612 0.921 1_554 S
C1596 C1594 1.386 1_554 S
C1596 C1598 1.395 . S
C1596 H1613 0.906 1_554 S
C1597 C1593 1.395 . S
C1597 C1598 1.379 . S
C1597 H1614 0.930 . S
C1598 C1596 1.395 . S
C1598 C1597 1.379 . S
C1598 H1615 0.930 . S
C1599 O1582 1.264 . S
C1599 O1583 1.254 . S
C1600 Eu1536 2.848 . S
C1600 O1580 1.257 . S
C1600 O1585 1.249 . S
C1600 C1593 1.492 . S
C1601 H1566 0.931 . S
C1601 C1579 1.420 . S
C1601 C1602 1.351 . S
C1602 H1564 0.930 . S
C1602 C1570 1.423 . S
C1602 C1601 1.351 . S
C1603 O1587 1.276 . S
C1603 O1590 1.235 . S
C1604 C1605 1.393 . S
C1604 C1608 1.395 . S
C1604 C1611 1.492 . S
C1605 C1604 1.393 . S
C1605 C1606 1.392 . S
C1605 H1616 0.930 . S
C1606 C1605 1.392 . S
C1606 C1607 1.386 . S
C1607 C1606 1.386 . S
C1607 C1609 1.395 . S
C1607 H1617 0.930 . S
C1608 C1604 1.395 . S
C1608 C1609 1.379 . S
C1608 H1618 0.930 . S
C1609 C1607 1.395 . S
C1609 C1608 1.379 . S
C1609 H1619 0.930 . S
C1610 O1588 1.264 . S
C1610 O1589 1.254 . S
C1611 Eu1547 2.848 . S
C1611 O1586 1.257 . S
C1611 O1591 1.249 . S
C1611 C1604 1.492 . S
H1612 C1595 0.921 1_556 S
H1613 C1596 0.906 1_556 S
H1614 C1597 0.930 . S
H1615 C1598 0.930 . S
H1616 C1605 0.930 . S
H1617 C1607 0.930 . S
H1618 C1608 0.930 . S
H1619 C1609 0.930 . S
Eu1620 N1651 2.657 . S
Eu1620 N1658 2.609 . S
Eu1620 O1664 2.558 . S
Eu1620 O1665 2.612 . S
Eu1620 O1667 2.339 . S
Eu1620 O1668 2.563 . S
Eu1620 O1669 2.419 . S
Eu1620 O1671 2.380 . S
Eu1620 O1672 2.432 . S
Eu1620 C1684 2.848 . S
C1621 C1624 1.429 . S
C1621 C1625 1.411 . S
C1621 N1628 1.377 . S
C1622 C1624 1.420 . S
C1622 C1626 1.423 . S
C1622 C1634 1.392 . S
C1623 C1625 1.420 . S
C1623 C1626 1.351 . S
C1623 H1646 0.931 . S
C1624 C1621 1.429 . S
C1624 C1622 1.420 . S
C1624 N1632 1.362 . S
C1625 C1621 1.411 . S
C1625 C1623 1.420 . S
C1625 C1630 1.395 . S
C1626 C1622 1.423 . S
C1626 C1623 1.351 . S
C1626 H1638 0.930 . S
C1627 C1629 1.400 . S
C1627 C1630 1.386 . S
C1627 H1639 0.930 . S
N1628 C1621 1.377 . S
N1628 C1629 1.321 . S
N1628 Eu1631 2.609 . S
C1629 C1627 1.400 . S
C1629 N1628 1.321 . S
C1629 H1636 0.930 . S
C1630 C1625 1.395 . S
C1630 C1627 1.386 . S
C1630 H1649 0.930 . S
Eu1631 N1628 2.609 . S
Eu1631 N1632 2.657 . S
Eu1631 O1665 2.380 . S
Eu1631 O1666 2.432 . S
Eu1631 O1670 2.558 . S
Eu1631 O1671 2.612 . S
Eu1631 O1673 2.339 . S
Eu1631 O1674 2.563 . S
Eu1631 O1675 2.419 . S
Eu1631 C1695 2.848 . S
N1632 C1624 1.362 . S
N1632 Eu1631 2.657 . S
N1632 C1633 1.334 . S
C1633 N1632 1.334 . S
C1633 C1635 1.413 . S
C1633 H1640 0.929 . S
C1634 C1622 1.392 . S
C1634 C1635 1.367 . S
C1634 H1642 0.930 . S
C1635 C1633 1.413 . S
C1635 C1634 1.367 . S
C1635 H1637 0.930 . S
H1636 C1629 0.930 . S
H1637 C1635 0.930 . S
H1638 C1626 0.930 . S
H1639 C1627 0.930 . S
H1640 C1633 0.929 . S
H1641 C1655 0.930 . S
H1642 C1634 0.930 . S
H1643 C1661 0.930 . S
H1644 C1652 0.929 . S
H1645 C1659 0.930 . S
H1646 C1623 0.931 . S
H1647 C1653 0.930 . S
H1648 C1686 0.930 . S
H1649 C1630 0.930 . S
H1650 C1685 0.931 . S
N1651 Eu1620 2.657 . S
N1651 C1652 1.334 . S
N1651 C1656 1.362 . S
C1652 H1644 0.929 . S
C1652 N1651 1.334 . S
C1652 C1655 1.413 . S
C1653 H1647 0.930 . S
C1653 C1654 1.392 . S
C1653 C1655 1.367 . S
C1654 C1653 1.392 . S
C1654 C1656 1.420 . S
C1654 C1686 1.423 . S
C1655 H1641 0.930 . S
C1655 C1652 1.413 . S
C1655 C1653 1.367 . S
C1656 N1651 1.362 . S
C1656 C1654 1.420 . S
C1656 C1660 1.429 . S
H1657 C1662 0.930 . S
N1658 Eu1620 2.609 . S
N1658 C1660 1.377 . S
N1658 C1661 1.321 . S
C1659 H1645 0.930 . S
C1659 C1661 1.400 . S
C1659 C1662 1.386 . S
C1660 C1656 1.429 . S
C1660 N1658 1.377 . S
C1660 C1663 1.411 . S
C1661 H1643 0.930 . S
C1661 N1658 1.321 . S
C1661 C1659 1.400 . S
C1662 H1657 0.930 . S
C1662 C1659 1.386 . S
C1662 C1663 1.395 . S
C1663 C1660 1.411 . S
C1663 C1662 1.395 . S
C1663 C1685 1.420 . S
O1664 Eu1620 2.558 . S
O1664 C1684 1.257 . S
O1665 Eu1620 2.612 . S
O1665 Eu1631 2.380 . S
O1665 C1676 1.276 . S
O1666 Eu1631 2.432 . S
O1666 C1683 1.264 . S
O1667 Eu1620 2.339 . S
O1667 C1683 1.254 . S
O1668 Eu1620 2.563 . S
O1668 C1676 1.235 . S
O1669 Eu1620 2.419 . S
O1669 C1684 1.249 . S
O1670 Eu1631 2.558 . S
O1670 C1695 1.257 . S
O1671 Eu1620 2.380 . S
O1671 Eu1631 2.612 . S
O1671 C1687 1.276 . S
O1672 Eu1620 2.432 . S
O1672 C1694 1.264 . S
O1673 Eu1631 2.339 . S
O1673 C1694 1.254 . S
O1674 Eu1631 2.563 . S
O1674 C1687 1.235 . S
O1675 Eu1631 2.419 . S
O1675 C1695 1.249 . S
C1676 O1665 1.276 . S
C1676 O1668 1.235 . S
C1677 C1679 1.393 . S
C1677 C1681 1.395 . S
C1677 C1684 1.492 . S
C1678 C1679 1.392 . S
C1678 C1680 1.386 . S
C1679 C1677 1.393 . S
C1679 C1678 1.392 . S
C1679 H1696 0.930 . S
C1680 C1678 1.386 . S
C1680 C1682 1.395 . S
C1680 H1697 0.930 . S
C1681 C1677 1.395 . S
C1681 C1682 1.379 . S
C1681 H1698 0.930 . S
C1682 C1680 1.395 . S
C1682 C1681 1.379 . S
C1682 H1699 0.930 . S
C1683 O1666 1.264 . S
C1683 O1667 1.254 . S
C1684 Eu1620 2.848 . S
C1684 O1664 1.257 . S
C1684 O1669 1.249 . S
C1684 C1677 1.492 . S
C1685 H1650 0.931 . S
C1685 C1663 1.420 . S
C1685 C1686 1.351 . S
C1686 H1648 0.930 . S
C1686 C1654 1.423 . S
C1686 C1685 1.351 . S
C1687 O1671 1.276 . S
C1687 O1674 1.235 . S
C1688 C1689 1.393 . S
C1688 C1692 1.395 . S
C1688 C1695 1.492 . S
C1689 C1688 1.393 . S
C1689 C1690 1.392 . S
C1689 H1700 0.930 . S
C1690 C1689 1.392 . S
C1690 C1691 1.386 . S
C1691 C1690 1.386 . S
C1691 C1693 1.395 . S
C1691 H1701 0.930 . S
C1692 C1688 1.395 . S
C1692 C1693 1.379 . S
C1692 H1702 0.930 . S
C1693 C1691 1.395 . S
C1693 C1692 1.379 . S
C1693 H1703 0.930 . S
C1694 O1672 1.264 . S
C1694 O1673 1.254 . S
C1695 Eu1631 2.848 . S
C1695 O1670 1.257 . S
C1695 O1675 1.249 . S
C1695 C1688 1.492 . S
H1696 C1679 0.930 . S
H1697 C1680 0.930 . S
H1698 C1681 0.930 . S
H1699 C1682 0.930 . S
H1700 C1689 0.930 . S
H1701 C1691 0.930 . S
H1702 C1692 0.930 . S
H1703 C1693 0.930 . S
Eu1704 N1735 2.657 . S
Eu1704 N1742 2.609 . S
Eu1704 O1748 2.558 . S
Eu1704 O1749 2.612 . S
Eu1704 O1751 2.339 . S
Eu1704 O1752 2.563 . S
Eu1704 O1753 2.419 . S
Eu1704 O1755 2.380 . S
Eu1704 O1756 2.432 . S
Eu1704 C1768 2.848 . S
C1705 C1708 1.429 . S
C1705 C1709 1.411 1_455 S
C1705 N1712 1.377 . S
C1706 C1708 1.420 1_655 S
C1706 C1710 1.423 . S
C1706 C1718 1.392 . S
C1707 C1709 1.420 . S
C1707 C1710 1.351 . S
C1707 H1730 0.931 . S
C1708 C1705 1.429 . S
C1708 C1706 1.420 1_455 S
C1708 N1716 1.362 . S
C1709 C1705 1.411 1_655 S
C1709 C1707 1.420 . S
C1709 C1714 1.395 . S
C1710 C1706 1.423 . S
C1710 C1707 1.351 . S
C1710 H1722 0.930 . S
C1711 C1713 1.400 . S
C1711 C1714 1.386 1_455 S
C1711 H1723 0.930 . S
N1712 C1705 1.377 . S
N1712 C1713 1.321 . S
N1712 Eu1715 2.609 . S
C1713 C1711 1.400 . S
C1713 N1712 1.321 . S
C1713 H1720 0.930 . S
C1714 C1709 1.395 . S
C1714 C1711 1.386 1_655 S
C1714 H1733 0.930 . S
Eu1715 N1712 2.609 . S
Eu1715 N1716 2.657 . S
Eu1715 O1749 2.380 . S
Eu1715 O1750 2.432 . S
Eu1715 O1754 2.558 . S
Eu1715 O1755 2.612 . S
Eu1715 O1757 2.339 . S
Eu1715 O1758 2.563 . S
Eu1715 O1759 2.419 . S
Eu1715 C1779 2.848 . S
N1716 C1708 1.362 . S
N1716 Eu1715 2.657 . S
N1716 C1717 1.334 . S
C1717 N1716 1.334 . S
C1717 C1719 1.413 . S
C1717 H1724 0.929 . S
C1718 C1706 1.392 . S
C1718 C1719 1.367 1_655 S
C1718 H1726 0.930 . S
C1719 C1717 1.413 . S
C1719 C1718 1.367 1_455 S
C1719 H1721 0.930 . S
H1720 C1713 0.930 . S
H1721 C1719 0.930 . S
H1722 C1710 0.930 . S
H1723 C1711 0.930 . S
H1724 C1717 0.929 . S
H1725 C1739 0.930 . S
H1726 C1718 0.930 . S
H1727 C1745 0.930 . S
H1728 C1736 0.929 . S
H1729 C1743 0.930 . S
H1730 C1707 0.931 . S
H1731 C1737 0.930 . S
H1732 C1770 0.930 . S
H1733 C1714 0.930 . S
H1734 C1769 0.931 . S
N1735 Eu1704 2.657 . S
N1735 C1736 1.334 . S
N1735 C1740 1.362 . S
C1736 H1728 0.929 . S
C1736 N1735 1.334 . S
C1736 C1739 1.413 . S
C1737 H1731 0.930 . S
C1737 C1738 1.392 . S
C1737 C1739 1.367 . S
C1738 C1737 1.392 . S
C1738 C1740 1.420 . S
C1738 C1770 1.423 . S
C1739 H1725 0.930 . S
C1739 C1736 1.413 . S
C1739 C1737 1.367 . S
C1740 N1735 1.362 . S
C1740 C1738 1.420 . S
C1740 C1744 1.429 . S
H1741 C1746 0.930 . S
N1742 Eu1704 2.609 . S
N1742 C1744 1.377 . S
N1742 C1745 1.321 . S
C1743 H1729 0.930 . S
C1743 C1745 1.400 . S
C1743 C1746 1.386 . S
C1744 C1740 1.429 . S
C1744 N1742 1.377 . S
C1744 C1747 1.411 . S
C1745 H1727 0.930 . S
C1745 N1742 1.321 . S
C1745 C1743 1.400 . S
C1746 H1741 0.930 . S
C1746 C1743 1.386 . S
C1746 C1747 1.395 . S
C1747 C1744 1.411 . S
C1747 C1746 1.395 . S
C1747 C1769 1.420 . S
O1748 Eu1704 2.558 . S
O1748 C1768 1.257 . S
O1749 Eu1704 2.612 . S
O1749 Eu1715 2.380 . S
O1749 C1760 1.276 . S
O1750 Eu1715 2.432 . S
O1750 C1767 1.264 . S
O1751 Eu1704 2.339 . S
O1751 C1767 1.254 . S
O1752 Eu1704 2.563 . S
O1752 C1760 1.235 . S
O1753 Eu1704 2.419 . S
O1753 C1768 1.249 . S
O1754 Eu1715 2.558 . S
O1754 C1779 1.257 . S
O1755 Eu1704 2.380 . S
O1755 Eu1715 2.612 . S
O1755 C1771 1.276 . S
O1756 Eu1704 2.432 . S
O1756 C1778 1.264 . S
O1757 Eu1715 2.339 . S
O1757 C1778 1.254 . S
O1758 Eu1715 2.563 . S
O1758 C1771 1.235 . S
O1759 Eu1715 2.419 . S
O1759 C1779 1.249 . S
C1760 O1749 1.276 . S
C1760 O1752 1.235 . S
C1761 C1763 1.393 . S
C1761 C1765 1.395 . S
C1761 C1768 1.492 . S
C1762 C1763 1.392 . S
C1762 C1764 1.386 . S
C1763 C1761 1.393 . S
C1763 C1762 1.392 . S
C1763 H1780 0.930 . S
C1764 C1762 1.386 . S
C1764 C1766 1.395 . S
C1764 H1781 0.930 . S
C1765 C1761 1.395 . S
C1765 C1766 1.379 . S
C1765 H1782 0.930 . S
C1766 C1764 1.395 . S
C1766 C1765 1.379 . S
C1766 H1783 0.930 . S
C1767 O1750 1.264 . S
C1767 O1751 1.254 . S
C1768 Eu1704 2.848 . S
C1768 O1748 1.257 . S
C1768 O1753 1.249 . S
C1768 C1761 1.492 . S
C1769 H1734 0.931 . S
C1769 C1747 1.420 . S
C1769 C1770 1.351 . S
C1770 H1732 0.930 . S
C1770 C1738 1.423 . S
C1770 C1769 1.351 . S
C1771 O1755 1.276 . S
C1771 O1758 1.235 . S
C1772 C1773 1.393 . S
C1772 C1776 1.395 . S
C1772 C1779 1.492 . S
C1773 C1772 1.393 . S
C1773 C1774 1.392 . S
C1773 H1784 0.930 . S
C1774 C1773 1.392 . S
C1774 C1775 1.386 . S
C1775 C1774 1.386 . S
C1775 C1777 1.395 . S
C1775 H1785 0.930 . S
C1776 C1772 1.395 . S
C1776 C1777 1.379 . S
C1776 H1786 0.930 . S
C1777 C1775 1.395 . S
C1777 C1776 1.379 . S
C1777 H1787 0.930 . S
C1778 O1756 1.264 . S
C1778 O1757 1.254 . S
C1779 Eu1715 2.848 . S
C1779 O1754 1.257 . S
C1779 O1759 1.249 . S
C1779 C1772 1.492 . S
H1780 C1763 0.930 . S
H1781 C1764 0.930 . S
H1782 C1765 0.930 . S
H1783 C1766 0.930 . S
H1784 C1773 0.930 . S
H1785 C1775 0.930 . S
H1786 C1776 0.930 . S
H1787 C1777 0.930 . S
Eu1788 N1819 2.657 . S
Eu1788 N1826 2.609 . S
Eu1788 O1832 2.558 . S
Eu1788 O1833 2.612 . S
Eu1788 O1835 2.339 . S
Eu1788 O1836 2.563 . S
Eu1788 O1837 2.419 . S
Eu1788 O1839 2.380 . S
Eu1788 O1840 2.432 . S
Eu1788 C1852 2.848 . S
C1789 C1792 1.429 . S
C1789 C1793 1.411 . S
C1789 N1796 1.377 . S
C1790 C1792 1.420 . S
C1790 C1794 1.423 . S
C1790 C1802 1.392 . S
C1791 C1793 1.420 . S
C1791 C1794 1.351 . S
C1791 H1814 0.931 . S
C1792 C1789 1.429 . S
C1792 C1790 1.420 . S
C1792 N1800 1.362 . S
C1793 C1789 1.411 . S
C1793 C1791 1.420 . S
C1793 C1798 1.395 . S
C1794 C1790 1.423 . S
C1794 C1791 1.351 . S
C1794 H1806 0.930 . S
C1795 C1797 1.400 . S
C1795 C1798 1.386 . S
C1795 H1807 0.930 . S
N1796 C1789 1.377 . S
N1796 C1797 1.321 . S
N1796 Eu1799 2.609 . S
C1797 C1795 1.400 . S
C1797 N1796 1.321 . S
C1797 H1804 0.930 . S
C1798 C1793 1.395 . S
C1798 C1795 1.386 . S
C1798 H1817 0.930 . S
Eu1799 N1796 2.609 . S
Eu1799 N1800 2.657 . S
Eu1799 O1833 2.380 . S
Eu1799 O1834 2.432 . S
Eu1799 O1838 2.558 . S
Eu1799 O1839 2.612 . S
Eu1799 O1841 2.339 . S
Eu1799 O1842 2.563 . S
Eu1799 O1843 2.419 . S
Eu1799 C1863 2.848 . S
N1800 C1792 1.362 . S
N1800 Eu1799 2.657 . S
N1800 C1801 1.334 . S
C1801 N1800 1.334 . S
C1801 C1803 1.413 . S
C1801 H1808 0.929 . S
C1802 C1790 1.392 . S
C1802 C1803 1.367 . S
C1802 H1810 0.930 . S
C1803 C1801 1.413 . S
C1803 C1802 1.367 . S
C1803 H1805 0.930 . S
H1804 C1797 0.930 . S
H1805 C1803 0.930 . S
H1806 C1794 0.930 . S
H1807 C1795 0.930 . S
H1808 C1801 0.929 . S
H1809 C1823 0.930 . S
H1810 C1802 0.930 . S
H1811 C1829 0.930 . S
H1812 C1820 0.929 . S
H1813 C1827 0.930 . S
H1814 C1791 0.931 . S
H1815 C1821 0.930 . S
H1816 C1854 0.930 . S
H1817 C1798 0.930 . S
H1818 C1853 0.931 . S
N1819 Eu1788 2.657 . S
N1819 C1820 1.334 . S
N1819 C1824 1.362 . S
C1820 H1812 0.929 . S
C1820 N1819 1.334 . S
C1820 C1823 1.413 . S
C1821 H1815 0.930 . S
C1821 C1822 1.392 . S
C1821 C1823 1.367 . S
C1822 C1821 1.392 . S
C1822 C1824 1.420 . S
C1822 C1854 1.423 . S
C1823 H1809 0.930 . S
C1823 C1820 1.413 . S
C1823 C1821 1.367 . S
C1824 N1819 1.362 . S
C1824 C1822 1.420 . S
C1824 C1828 1.429 . S
H1825 C1830 0.930 . S
N1826 Eu1788 2.609 . S
N1826 C1828 1.377 . S
N1826 C1829 1.321 . S
C1827 H1813 0.930 . S
C1827 C1829 1.400 . S
C1827 C1830 1.386 . S
C1828 C1824 1.429 . S
C1828 N1826 1.377 . S
C1828 C1831 1.411 . S
C1829 H1811 0.930 . S
C1829 N1826 1.321 . S
C1829 C1827 1.400 . S
C1830 H1825 0.930 . S
C1830 C1827 1.386 . S
C1830 C1831 1.395 . S
C1831 C1828 1.411 . S
C1831 C1830 1.395 . S
C1831 C1853 1.420 . S
O1832 Eu1788 2.558 . S
O1832 C1852 1.257 . S
O1833 Eu1788 2.612 . S
O1833 Eu1799 2.380 . S
O1833 C1844 1.276 . S
O1834 Eu1799 2.432 . S
O1834 C1851 1.264 . S
O1835 Eu1788 2.339 . S
O1835 C1851 1.254 . S
O1836 Eu1788 2.563 . S
O1836 C1844 1.235 . S
O1837 Eu1788 2.419 . S
O1837 C1852 1.249 . S
O1838 Eu1799 2.558 . S
O1838 C1863 1.257 . S
O1839 Eu1788 2.380 . S
O1839 Eu1799 2.612 . S
O1839 C1855 1.276 . S
O1840 Eu1788 2.432 . S
O1840 C1862 1.264 . S
O1841 Eu1799 2.339 . S
O1841 C1862 1.254 . S
O1842 Eu1799 2.563 . S
O1842 C1855 1.235 . S
O1843 Eu1799 2.419 . S
O1843 C1863 1.249 . S
C1844 O1833 1.276 . S
C1844 O1836 1.235 . S
C1845 C1847 1.393 . S
C1845 C1849 1.395 . S
C1845 C1852 1.492 . S
C1846 C1847 1.392 . S
C1846 C1848 1.386 . S
C1847 C1845 1.393 . S
C1847 C1846 1.392 . S
C1847 H1864 0.930 . S
C1848 C1846 1.386 . S
C1848 C1850 1.395 . S
C1848 H1865 0.930 . S
C1849 C1845 1.395 . S
C1849 C1850 1.379 . S
C1849 H1866 0.930 . S
C1850 C1848 1.395 . S
C1850 C1849 1.379 . S
C1850 H1867 0.930 . S
C1851 O1834 1.264 . S
C1851 O1835 1.254 . S
C1852 Eu1788 2.848 . S
C1852 O1832 1.257 . S
C1852 O1837 1.249 . S
C1852 C1845 1.492 . S
C1853 H1818 0.931 . S
C1853 C1831 1.420 . S
C1853 C1854 1.351 . S
C1854 H1816 0.930 . S
C1854 C1822 1.423 . S
C1854 C1853 1.351 . S
C1855 O1839 1.276 . S
C1855 O1842 1.235 . S
C1856 C1857 1.393 . S
C1856 C1860 1.395 . S
C1856 C1863 1.492 . S
C1857 C1856 1.393 . S
C1857 C1858 1.392 . S
C1857 H1868 0.930 . S
C1858 C1857 1.392 . S
C1858 C1859 1.386 . S
C1859 C1858 1.386 . S
C1859 C1861 1.395 . S
C1859 H1869 0.930 . S
C1860 C1856 1.395 . S
C1860 C1861 1.379 . S
C1860 H1870 0.930 . S
C1861 C1859 1.395 . S
C1861 C1860 1.379 . S
C1861 H1871 0.930 . S
C1862 O1840 1.264 . S
C1862 O1841 1.254 . S
C1863 Eu1799 2.848 . S
C1863 O1838 1.257 . S
C1863 O1843 1.249 . S
C1863 C1856 1.492 . S
H1864 C1847 0.930 . S
H1865 C1848 0.930 . S
H1866 C1849 0.930 . S
H1867 C1850 0.930 . S
H1868 C1857 0.930 . S
H1869 C1859 0.930 . S
H1870 C1860 0.930 . S
H1871 C1861 0.930 . S
Eu1872 N1903 2.657 . S
Eu1872 N1910 2.609 . S
Eu1872 O1916 2.558 . S
Eu1872 O1917 2.612 . S
Eu1872 O1919 2.339 . S
Eu1872 O1920 2.563 . S
Eu1872 O1921 2.419 . S
Eu1872 O1923 2.380 . S
Eu1872 O1924 2.432 . S
Eu1872 C1936 2.848 . S
C1873 C1876 1.429 . S
C1873 C1877 1.411 . S
C1873 N1880 1.377 . S
C1874 C1876 1.420 . S
C1874 C1878 1.423 . S
C1874 C1886 1.392 . S
C1875 C1877 1.420 . S
C1875 C1878 1.351 . S
C1875 H1898 0.931 . S
C1876 C1873 1.429 . S
C1876 C1874 1.420 . S
C1876 N1884 1.362 . S
C1877 C1873 1.411 . S
C1877 C1875 1.420 . S
C1877 C1882 1.395 . S
C1878 C1874 1.423 . S
C1878 C1875 1.351 . S
C1878 H1890 0.930 . S
C1879 C1881 1.400 . S
C1879 C1882 1.386 . S
C1879 H1891 0.930 . S
N1880 C1873 1.377 . S
N1880 C1881 1.321 . S
N1880 Eu1883 2.609 . S
C1881 C1879 1.400 . S
C1881 N1880 1.321 . S
C1881 H1888 0.930 . S
C1882 C1877 1.395 . S
C1882 C1879 1.386 . S
C1882 H1901 0.930 . S
Eu1883 N1880 2.609 . S
Eu1883 N1884 2.657 . S
Eu1883 O1917 2.380 . S
Eu1883 O1918 2.432 . S
Eu1883 O1922 2.558 . S
Eu1883 O1923 2.612 . S
Eu1883 O1925 2.339 . S
Eu1883 O1926 2.563 . S
Eu1883 O1927 2.419 . S
Eu1883 C1947 2.848 . S
N1884 C1876 1.362 . S
N1884 Eu1883 2.657 . S
N1884 C1885 1.334 . S
C1885 N1884 1.334 . S
C1885 C1887 1.413 . S
C1885 H1892 0.929 . S
C1886 C1874 1.392 . S
C1886 C1887 1.367 . S
C1886 H1894 0.930 . S
C1887 C1885 1.413 . S
C1887 C1886 1.367 . S
C1887 H1889 0.930 . S
H1888 C1881 0.930 . S
H1889 C1887 0.930 . S
H1890 C1878 0.930 . S
H1891 C1879 0.930 . S
H1892 C1885 0.929 . S
H1893 C1907 0.930 . S
H1894 C1886 0.930 . S
H1895 C1913 0.930 . S
H1896 C1904 0.929 . S
H1897 C1911 0.930 . S
H1898 C1875 0.931 . S
H1899 C1905 0.930 . S
H1900 C1938 0.930 . S
H1901 C1882 0.930 . S
H1902 C1937 0.931 . S
N1903 Eu1872 2.657 . S
N1903 C1904 1.334 . S
N1903 C1908 1.362 . S
C1904 H1896 0.929 . S
C1904 N1903 1.334 . S
C1904 C1907 1.413 . S
C1905 H1899 0.930 . S
C1905 C1906 1.392 . S
C1905 C1907 1.367 . S
C1906 C1905 1.392 . S
C1906 C1908 1.420 . S
C1906 C1938 1.423 . S
C1907 H1893 0.930 . S
C1907 C1904 1.413 . S
C1907 C1905 1.367 . S
C1908 N1903 1.362 . S
C1908 C1906 1.420 . S
C1908 C1912 1.429 . S
H1909 C1914 0.930 . S
N1910 Eu1872 2.609 . S
N1910 C1912 1.377 . S
N1910 C1913 1.321 . S
C1911 H1897 0.930 . S
C1911 C1913 1.400 . S
C1911 C1914 1.386 . S
C1912 C1908 1.429 . S
C1912 N1910 1.377 . S
C1912 C1915 1.411 . S
C1913 H1895 0.930 . S
C1913 N1910 1.321 . S
C1913 C1911 1.400 . S
C1914 H1909 0.930 . S
C1914 C1911 1.386 . S
C1914 C1915 1.395 . S
C1915 C1912 1.411 . S
C1915 C1914 1.395 . S
C1915 C1937 1.420 . S
O1916 Eu1872 2.558 . S
O1916 C1936 1.257 . S
O1917 Eu1872 2.612 . S
O1917 Eu1883 2.380 . S
O1917 C1928 1.276 . S
O1918 Eu1883 2.432 . S
O1918 C1935 1.264 . S
O1919 Eu1872 2.339 . S
O1919 C1935 1.254 . S
O1920 Eu1872 2.563 . S
O1920 C1928 1.235 . S
O1921 Eu1872 2.419 . S
O1921 C1936 1.249 . S
O1922 Eu1883 2.558 . S
O1922 C1947 1.257 . S
O1923 Eu1872 2.380 . S
O1923 Eu1883 2.612 . S
O1923 C1939 1.276 . S
O1924 Eu1872 2.432 . S
O1924 C1946 1.264 . S
O1925 Eu1883 2.339 . S
O1925 C1946 1.254 . S
O1926 Eu1883 2.563 . S
O1926 C1939 1.235 . S
O1927 Eu1883 2.419 . S
O1927 C1947 1.249 . S
C1928 O1917 1.276 . S
C1928 O1920 1.235 . S
C1929 C1931 1.393 . S
C1929 C1933 1.395 . S
C1929 C1936 1.492 . S
C1930 C1931 1.392 . S
C1930 C1932 1.386 . S
C1931 C1929 1.393 . S
C1931 C1930 1.392 . S
C1931 H1948 0.930 . S
C1932 C1930 1.386 . S
C1932 C1934 1.395 . S
C1932 H1949 0.930 . S
C1933 C1929 1.395 . S
C1933 C1934 1.379 . S
C1933 H1950 0.930 . S
C1934 C1932 1.395 . S
C1934 C1933 1.379 . S
C1934 H1951 0.930 . S
C1935 O1918 1.264 . S
C1935 O1919 1.254 . S
C1936 Eu1872 2.848 . S
C1936 O1916 1.257 . S
C1936 O1921 1.249 . S
C1936 C1929 1.492 . S
C1937 H1902 0.931 . S
C1937 C1915 1.420 . S
C1937 C1938 1.351 . S
C1938 H1900 0.930 . S
C1938 C1906 1.423 . S
C1938 C1937 1.351 . S
C1939 O1923 1.276 . S
C1939 O1926 1.235 . S
C1940 C1941 1.393 . S
C1940 C1944 1.395 . S
C1940 C1947 1.492 . S
C1941 C1940 1.393 . S
C1941 C1942 1.392 . S
C1941 H1952 0.930 . S
C1942 C1941 1.392 . S
C1942 C1943 1.386 . S
C1943 C1942 1.386 . S
C1943 C1945 1.395 . S
C1943 H1953 0.930 . S
C1944 C1940 1.395 . S
C1944 C1945 1.379 . S
C1944 H1954 0.930 . S
C1945 C1943 1.395 . S
C1945 C1944 1.379 . S
C1945 H1955 0.930 . S
C1946 O1924 1.264 . S
C1946 O1925 1.254 . S
C1947 Eu1883 2.848 . S
C1947 O1922 1.257 . S
C1947 O1927 1.249 . S
C1947 C1940 1.492 . S
H1948 C1931 0.930 . S
H1949 C1932 0.930 . S
H1950 C1933 0.930 . S
H1951 C1934 0.930 . S
H1952 C1941 0.930 . S
H1953 C1943 0.930 . S
H1954 C1944 0.930 . S
H1955 C1945 0.930 . S
Eu1956 N1987 2.657 . S
Eu1956 N1994 2.609 . S
Eu1956 O2000 2.558 . S
Eu1956 O2001 2.612 . S
Eu1956 O2003 2.339 . S
Eu1956 O2004 2.563 . S
Eu1956 O2005 2.419 . S
Eu1956 O2007 2.380 . S
Eu1956 O2008 2.432 . S
Eu1956 C2020 2.848 . S
C1957 C1960 1.429 . S
C1957 C1961 1.411 . S
C1957 N1964 1.377 . S
C1958 C1960 1.420 . S
C1958 C1962 1.423 . S
C1958 C1970 1.392 . S
C1959 C1961 1.420 . S
C1959 C1962 1.351 . S
C1959 H1982 0.931 . S
C1960 C1957 1.429 . S
C1960 C1958 1.420 . S
C1960 N1968 1.362 . S
C1961 C1957 1.411 . S
C1961 C1959 1.420 . S
C1961 C1966 1.395 . S
C1962 C1958 1.423 . S
C1962 C1959 1.351 . S
C1962 H1974 0.930 . S
C1963 C1965 1.400 . S
C1963 C1966 1.386 . S
C1963 H1975 0.930 . S
N1964 C1957 1.377 . S
N1964 C1965 1.321 . S
N1964 Eu1967 2.609 . S
C1965 C1963 1.400 . S
C1965 N1964 1.321 . S
C1965 H1972 0.930 . S
C1966 C1961 1.395 . S
C1966 C1963 1.386 . S
C1966 H1985 0.930 . S
Eu1967 N1964 2.609 . S
Eu1967 N1968 2.657 . S
Eu1967 O2001 2.380 . S
Eu1967 O2002 2.432 . S
Eu1967 O2006 2.558 . S
Eu1967 O2007 2.612 . S
Eu1967 O2009 2.339 . S
Eu1967 O2010 2.563 . S
Eu1967 O2011 2.419 . S
Eu1967 C2031 2.848 . S
N1968 C1960 1.362 . S
N1968 Eu1967 2.657 . S
N1968 C1969 1.334 . S
C1969 N1968 1.334 . S
C1969 C1971 1.413 . S
C1969 H1976 0.929 . S
C1970 C1958 1.392 . S
C1970 C1971 1.367 . S
C1970 H1978 0.930 . S
C1971 C1969 1.413 . S
C1971 C1970 1.367 . S
C1971 H1973 0.930 . S
H1972 C1965 0.930 . S
H1973 C1971 0.930 . S
H1974 C1962 0.930 . S
H1975 C1963 0.930 . S
H1976 C1969 0.929 . S
H1977 C1991 0.930 . S
H1978 C1970 0.930 . S
H1979 C1997 0.930 . S
H1980 C1988 0.929 . S
H1981 C1995 0.930 . S
H1982 C1959 0.931 . S
H1983 C1989 0.930 . S
H1984 C2022 0.930 . S
H1985 C1966 0.930 . S
H1986 C2021 0.931 . S
N1987 Eu1956 2.657 . S
N1987 C1988 1.334 . S
N1987 C1992 1.362 . S
C1988 H1980 0.929 . S
C1988 N1987 1.334 . S
C1988 C1991 1.413 . S
C1989 H1983 0.930 . S
C1989 C1990 1.392 . S
C1989 C1991 1.367 . S
C1990 C1989 1.392 . S
C1990 C1992 1.420 . S
C1990 C2022 1.423 . S
C1991 H1977 0.930 . S
C1991 C1988 1.413 . S
C1991 C1989 1.367 . S
C1992 N1987 1.362 . S
C1992 C1990 1.420 . S
C1992 C1996 1.429 . S
H1993 C1998 0.930 . S
N1994 Eu1956 2.609 . S
N1994 C1996 1.377 . S
N1994 C1997 1.321 . S
C1995 H1981 0.930 . S
C1995 C1997 1.400 . S
C1995 C1998 1.386 . S
C1996 C1992 1.429 . S
C1996 N1994 1.377 . S
C1996 C1999 1.411 . S
C1997 H1979 0.930 . S
C1997 N1994 1.321 . S
C1997 C1995 1.400 . S
C1998 H1993 0.930 . S
C1998 C1995 1.386 . S
C1998 C1999 1.395 . S
C1999 C1996 1.411 . S
C1999 C1998 1.395 . S
C1999 C2021 1.420 . S
O2000 Eu1956 2.558 . S
O2000 C2020 1.257 . S
O2001 Eu1956 2.612 . S
O2001 Eu1967 2.380 . S
O2001 C2012 1.276 . S
O2002 Eu1967 2.432 . S
O2002 C2019 1.264 . S
O2003 Eu1956 2.339 . S
O2003 C2019 1.254 . S
O2004 Eu1956 2.563 . S
O2004 C2012 1.235 . S
O2005 Eu1956 2.419 . S
O2005 C2020 1.249 . S
O2006 Eu1967 2.558 . S
O2006 C2031 1.257 . S
O2007 Eu1956 2.380 . S
O2007 Eu1967 2.612 . S
O2007 C2023 1.276 . S
O2008 Eu1956 2.432 . S
O2008 C2030 1.264 . S
O2009 Eu1967 2.339 . S
O2009 C2030 1.254 . S
O2010 Eu1967 2.563 . S
O2010 C2023 1.235 . S
O2011 Eu1967 2.419 . S
O2011 C2031 1.249 . S
C2012 O2001 1.276 . S
C2012 O2004 1.235 . S
C2013 C2015 1.393 . S
C2013 C2017 1.395 . S
C2013 C2020 1.492 . S
C2014 C2015 1.392 . S
C2014 C2016 1.386 . S
C2015 C2013 1.393 . S
C2015 C2014 1.392 . S
C2015 H2032 0.930 . S
C2016 C2014 1.386 . S
C2016 C2018 1.395 . S
C2016 H2033 0.930 . S
C2017 C2013 1.395 . S
C2017 C2018 1.379 . S
C2017 H2034 0.930 . S
C2018 C2016 1.395 . S
C2018 C2017 1.379 . S
C2018 H2035 0.930 . S
C2019 O2002 1.264 . S
C2019 O2003 1.254 . S
C2020 Eu1956 2.848 . S
C2020 O2000 1.257 . S
C2020 O2005 1.249 . S
C2020 C2013 1.492 . S
C2021 H1986 0.931 . S
C2021 C1999 1.420 . S
C2021 C2022 1.351 . S
C2022 H1984 0.930 . S
C2022 C1990 1.423 . S
C2022 C2021 1.351 . S
C2023 O2007 1.276 . S
C2023 O2010 1.235 . S
C2024 C2025 1.393 . S
C2024 C2028 1.395 . S
C2024 C2031 1.492 . S
C2025 C2024 1.393 . S
C2025 C2026 1.392 . S
C2025 H2036 0.930 . S
C2026 C2025 1.392 . S
C2026 C2027 1.386 . S
C2027 C2026 1.386 . S
C2027 C2029 1.395 . S
C2027 H2037 0.930 . S
C2028 C2024 1.395 . S
C2028 C2029 1.379 . S
C2028 H2038 0.930 . S
C2029 C2027 1.395 . S
C2029 C2028 1.379 . S
C2029 H2039 0.930 . S
C2030 O2008 1.264 . S
C2030 O2009 1.254 . S
C2031 Eu1967 2.848 . S
C2031 O2006 1.257 . S
C2031 O2011 1.249 . S
C2031 C2024 1.492 . S
H2032 C2015 0.930 . S
H2033 C2016 0.930 . S
H2034 C2017 0.930 . S
H2035 C2018 0.930 . S
H2036 C2025 0.930 . S
H2037 C2027 0.930 . S
H2038 C2028 0.930 . S
H2039 C2029 0.930 . S
Eu2040 N2071 2.657 . S
Eu2040 N2078 2.609 . S
Eu2040 O2084 2.558 . S
Eu2040 O2085 2.612 . S
Eu2040 O2087 2.339 . S
Eu2040 O2088 2.563 . S
Eu2040 O2089 2.419 . S
Eu2040 O2091 2.380 . S
Eu2040 O2092 2.432 . S
Eu2040 C2104 2.848 . S
C2041 C2044 1.429 . S
C2041 C2045 1.411 . S
C2041 N2048 1.377 . S
C2042 C2044 1.420 . S
C2042 C2046 1.423 . S
C2042 C2054 1.392 . S
C2043 C2045 1.420 . S
C2043 C2046 1.351 . S
C2043 H2066 0.931 . S
C2044 C2041 1.429 . S
C2044 C2042 1.420 . S
C2044 N2052 1.362 . S
C2045 C2041 1.411 . S
C2045 C2043 1.420 . S
C2045 C2050 1.395 . S
C2046 C2042 1.423 . S
C2046 C2043 1.351 . S
C2046 H2058 0.930 . S
C2047 C2049 1.400 . S
C2047 C2050 1.386 . S
C2047 H2059 0.930 . S
N2048 C2041 1.377 . S
N2048 C2049 1.321 . S
N2048 Eu2051 2.609 . S
C2049 C2047 1.400 . S
C2049 N2048 1.321 . S
C2049 H2056 0.930 . S
C2050 C2045 1.395 . S
C2050 C2047 1.386 . S
C2050 H2069 0.930 . S
Eu2051 N2048 2.609 . S
Eu2051 N2052 2.657 . S
Eu2051 O2085 2.380 . S
Eu2051 O2086 2.432 . S
Eu2051 O2090 2.558 . S
Eu2051 O2091 2.612 . S
Eu2051 O2093 2.339 . S
Eu2051 O2094 2.563 . S
Eu2051 O2095 2.419 . S
Eu2051 C2115 2.848 . S
N2052 C2044 1.362 . S
N2052 Eu2051 2.657 . S
N2052 C2053 1.334 . S
C2053 N2052 1.334 . S
C2053 C2055 1.413 . S
C2053 H2060 0.929 . S
C2054 C2042 1.392 . S
C2054 C2055 1.367 . S
C2054 H2062 0.930 . S
C2055 C2053 1.413 . S
C2055 C2054 1.367 . S
C2055 H2057 0.930 . S
H2056 C2049 0.930 . S
H2057 C2055 0.930 . S
H2058 C2046 0.930 . S
H2059 C2047 0.930 . S
H2060 C2053 0.929 . S
H2061 C2075 0.930 . S
H2062 C2054 0.930 . S
H2063 C2081 0.930 . S
H2064 C2072 0.929 . S
H2065 C2079 0.930 . S
H2066 C2043 0.931 . S
H2067 C2073 0.930 . S
H2068 C2106 0.930 . S
H2069 C2050 0.930 . S
H2070 C2105 0.931 . S
N2071 Eu2040 2.657 . S
N2071 C2072 1.334 . S
N2071 C2076 1.362 . S
C2072 H2064 0.929 . S
C2072 N2071 1.334 . S
C2072 C2075 1.413 . S
C2073 H2067 0.930 . S
C2073 C2074 1.392 . S
C2073 C2075 1.367 . S
C2074 C2073 1.392 . S
C2074 C2076 1.420 . S
C2074 C2106 1.423 . S
C2075 H2061 0.930 . S
C2075 C2072 1.413 . S
C2075 C2073 1.367 . S
C2076 N2071 1.362 . S
C2076 C2074 1.420 . S
C2076 C2080 1.429 . S
H2077 C2082 0.930 . S
N2078 Eu2040 2.609 . S
N2078 C2080 1.377 . S
N2078 C2081 1.321 . S
C2079 H2065 0.930 . S
C2079 C2081 1.400 . S
C2079 C2082 1.386 . S
C2080 C2076 1.429 . S
C2080 N2078 1.377 . S
C2080 C2083 1.411 . S
C2081 H2063 0.930 . S
C2081 N2078 1.321 . S
C2081 C2079 1.400 . S
C2082 H2077 0.930 . S
C2082 C2079 1.386 . S
C2082 C2083 1.395 . S
C2083 C2080 1.411 . S
C2083 C2082 1.395 . S
C2083 C2105 1.420 . S
O2084 Eu2040 2.558 . S
O2084 C2104 1.257 . S
O2085 Eu2040 2.612 . S
O2085 Eu2051 2.380 . S
O2085 C2096 1.276 . S
O2086 Eu2051 2.432 . S
O2086 C2103 1.264 . S
O2087 Eu2040 2.339 . S
O2087 C2103 1.254 . S
O2088 Eu2040 2.563 . S
O2088 C2096 1.235 . S
O2089 Eu2040 2.419 . S
O2089 C2104 1.249 . S
O2090 Eu2051 2.558 . S
O2090 C2115 1.257 . S
O2091 Eu2040 2.380 . S
O2091 Eu2051 2.612 . S
O2091 C2107 1.276 . S
O2092 Eu2040 2.432 . S
O2092 C2114 1.264 . S
O2093 Eu2051 2.339 . S
O2093 C2114 1.254 . S
O2094 Eu2051 2.563 . S
O2094 C2107 1.235 . S
O2095 Eu2051 2.419 . S
O2095 C2115 1.249 . S
C2096 O2085 1.276 . S
C2096 O2088 1.235 . S
C2097 C2099 1.393 . S
C2097 C2101 1.395 . S
C2097 C2104 1.492 . S
C2098 C2099 1.392 . S
C2098 C2100 1.386 . S
C2099 C2097 1.393 . S
C2099 C2098 1.392 . S
C2099 H2116 0.930 . S
C2100 C2098 1.386 . S
C2100 C2102 1.395 . S
C2100 H2117 0.930 . S
C2101 C2097 1.395 . S
C2101 C2102 1.379 . S
C2101 H2118 0.930 . S
C2102 C2100 1.395 . S
C2102 C2101 1.379 . S
C2102 H2119 0.930 . S
C2103 O2086 1.264 . S
C2103 O2087 1.254 . S
C2104 Eu2040 2.848 . S
C2104 O2084 1.257 . S
C2104 O2089 1.249 . S
C2104 C2097 1.492 . S
C2105 H2070 0.931 . S
C2105 C2083 1.420 . S
C2105 C2106 1.351 . S
C2106 H2068 0.930 . S
C2106 C2074 1.423 . S
C2106 C2105 1.351 . S
C2107 O2091 1.276 . S
C2107 O2094 1.235 . S
C2108 C2109 1.393 . S
C2108 C2112 1.395 . S
C2108 C2115 1.492 . S
C2109 C2108 1.393 . S
C2109 C2110 1.392 . S
C2109 H2120 0.930 . S
C2110 C2109 1.392 . S
C2110 C2111 1.386 . S
C2111 C2110 1.386 . S
C2111 C2113 1.395 . S
C2111 H2121 0.930 . S
C2112 C2108 1.395 . S
C2112 C2113 1.379 . S
C2112 H2122 0.930 . S
C2113 C2111 1.395 . S
C2113 C2112 1.379 . S
C2113 H2123 0.930 . S
C2114 O2092 1.264 . S
C2114 O2093 1.254 . S
C2115 Eu2051 2.848 . S
C2115 O2090 1.257 . S
C2115 O2095 1.249 . S
C2115 C2108 1.492 . S
H2116 C2099 0.930 . S
H2117 C2100 0.930 . S
H2118 C2101 0.930 . S
H2119 C2102 0.930 . S
H2120 C2109 0.930 . S
H2121 C2111 0.930 . S
H2122 C2112 0.930 . S
H2123 C2113 0.930 . S
Eu2124 N2155 2.657 . S
Eu2124 N2162 2.609 1_554 S
Eu2124 O2168 2.558 1_554 S
Eu2124 O2169 2.612 . S
Eu2124 O2171 2.339 . S
Eu2124 O2172 2.563 . S
Eu2124 O2173 2.419 . S
Eu2124 O2175 2.380 . S
Eu2124 O2176 2.432 1_554 S
Eu2124 C2188 2.848 1_554 S
C2125 C2128 1.428 1_455 S
C2125 C2129 1.409 1_455 S
C2125 N2132 1.380 . S
C2126 C2128 1.420 . S
C2126 C2130 1.423 . S
C2126 C2138 1.392 1_554 S
C2127 C2129 1.420 . S
C2127 C2130 1.351 . S
C2127 H2150 0.931 . S
C2128 C2125 1.428 1_655 S
C2128 C2126 1.420 . S
C2128 N2136 1.362 1_655 S
C2129 C2125 1.409 1_655 S
C2129 C2127 1.420 . S
C2129 C2134 1.395 . S
C2130 C2126 1.423 . S
C2130 C2127 1.351 . S
C2130 H2142 0.930 . S
C2131 C2133 1.400 . S
C2131 C2134 1.386 1_455 S
C2131 H2143 0.930 . S
N2132 C2125 1.380 . S
N2132 C2133 1.321 . S
N2132 Eu2135 2.609 . S
C2133 C2131 1.400 . S
C2133 N2132 1.321 . S
C2133 H2140 0.930 . S
C2134 C2129 1.395 . S
C2134 C2131 1.386 1_655 S
C2134 H2153 0.930 . S
Eu2135 N2132 2.609 . S
Eu2135 N2136 2.657 . S
Eu2135 O2169 2.380 . S
Eu2135 O2170 2.432 . S
Eu2135 O2174 2.558 . S
Eu2135 O2175 2.612 . S
Eu2135 O2177 2.339 1_554 S
Eu2135 O2178 2.563 . S
Eu2135 O2179 2.367 1_455 S
Eu2135 C2199 2.848 1_455 S
N2136 C2128 1.362 1_455 S
N2136 Eu2135 2.657 . S
N2136 C2137 1.334 1_554 S
C2137 N2136 1.334 1_556 S
C2137 C2139 1.413 1_455 S
C2137 H2144 0.929 . S
C2138 C2126 1.392 1_556 S
C2138 C2139 1.367 . S
C2138 H2146 0.930 . S
C2139 C2137 1.413 1_655 S
C2139 C2138 1.367 . S
C2139 H2141 0.930 . S
H2140 C2133 0.930 . S
H2141 C2139 0.930 . S
H2142 C2130 0.930 . S
H2143 C2131 0.930 . S
H2144 C2137 0.929 . S
H2145 C2159 0.930 . S
H2146 C2138 0.930 . S
H2147 C2165 0.930 . S
H2148 C2156 0.929 . S
H2149 C2163 0.930 . S
H2150 C2127 0.931 . S
H2151 C2157 0.930 . S
H2152 C2190 0.930 . S
H2153 C2134 0.930 . S
H2154 C2189 0.931 . S
N2155 Eu2124 2.657 . S
N2155 C2156 1.334 . S
N2155 C2160 1.362 . S
C2156 H2148 0.929 . S
C2156 N2155 1.334 . S
C2156 C2159 1.413 . S
C2157 H2151 0.930 . S
C2157 C2158 1.392 . S
C2157 C2159 1.367 . S
C2158 C2157 1.392 . S
C2158 C2160 1.420 . S
C2158 C2190 1.423 . S
C2159 H2145 0.930 . S
C2159 C2156 1.413 . S
C2159 C2157 1.367 . S
C2160 N2155 1.362 . S
C2160 C2158 1.420 . S
C2160 C2164 1.429 1_554 S
H2161 C2166 0.930 . S
N2162 Eu2124 2.609 1_556 S
N2162 C2164 1.377 . S
N2162 C2165 1.321 . S
C2163 H2149 0.930 . S
C2163 C2165 1.400 . S
C2163 C2166 1.386 . S
C2164 C2160 1.429 1_556 S
C2164 N2162 1.377 . S
C2164 C2167 1.411 . S
C2165 H2147 0.930 . S
C2165 N2162 1.321 . S
C2165 C2163 1.400 . S
C2166 H2161 0.930 . S
C2166 C2163 1.386 . S
C2166 C2167 1.395 . S
C2167 C2164 1.411 . S
C2167 C2166 1.395 . S
C2167 C2189 1.420 . S
O2168 Eu2124 2.558 1_556 S
O2168 C2188 1.257 . S
O2169 Eu2124 2.612 . S
O2169 Eu2135 2.380 . S
O2169 C2180 1.276 . S
O2170 Eu2135 2.432 . S
O2170 C2187 1.264 . S
O2171 Eu2124 2.339 . S
O2171 C2187 1.254 . S
O2172 Eu2124 2.563 . S
O2172 C2180 1.235 . S
O2173 Eu2124 2.419 . S
O2173 C2188 1.249 1_554 S
O2174 Eu2135 2.558 . S
O2174 C2199 1.257 1_455 S
O2175 Eu2124 2.380 . S
O2175 Eu2135 2.612 . S
O2175 C2191 1.276 . S
O2176 Eu2124 2.432 1_556 S
O2176 C2198 1.264 . S
O2177 Eu2135 2.339 1_556 S
O2177 C2198 1.254 . S
O2178 Eu2135 2.563 . S
O2178 C2191 1.235 . S
O2179 Eu2135 2.367 1_655 S
O2179 C2199 1.265 . S
C2180 O2169 1.276 . S
C2180 O2172 1.235 . S
C2181 C2183 1.393 1_556 S
C2181 C2185 1.395 . S
C2181 C2188 1.492 . S
C2182 C2183 1.392 . S
C2182 C2184 1.386 1_554 S
C2183 C2181 1.393 1_554 S
C2183 C2182 1.392 . S
C2183 H2200 0.930 . S
C2184 C2182 1.386 1_556 S
C2184 C2186 1.395 . S
C2184 H2201 0.930 . S
C2185 C2181 1.395 . S
C2185 C2186 1.379 . S
C2185 H2202 0.930 . S
C2186 C2184 1.395 . S
C2186 C2185 1.379 . S
C2186 H2203 0.930 . S
C2187 O2170 1.264 . S
C2187 O2171 1.254 . S
C2188 Eu2124 2.848 1_556 S
C2188 O2168 1.257 . S
C2188 O2173 1.249 1_556 S
C2188 C2181 1.492 . S
C2189 H2154 0.931 . S
C2189 C2167 1.420 . S
C2189 C2190 1.351 1_556 S
C2190 H2152 0.930 . S
C2190 C2158 1.423 . S
C2190 C2189 1.351 1_554 S
C2191 O2175 1.276 . S
C2191 O2178 1.235 . S
C2192 C2193 1.393 . S
C2192 C2196 1.395 . S
C2192 C2199 1.492 . S
C2193 C2192 1.393 . S
C2193 C2194 1.392 . S
C2193 H2204 0.930 . S
C2194 C2193 1.392 . S
C2194 C2195 1.386 . S
C2195 C2194 1.386 . S
C2195 C2197 1.395 . S
C2195 H2205 0.930 . S
C2196 C2192 1.395 . S
C2196 C2197 1.379 . S
C2196 H2206 0.930 . S
C2197 C2195 1.395 . S
C2197 C2196 1.379 . S
C2197 H2207 0.930 . S
C2198 O2176 1.264 . S
C2198 O2177 1.254 . S
C2199 Eu2135 2.848 1_655 S
C2199 O2174 1.257 1_655 S
C2199 O2179 1.265 . S
C2199 C2192 1.492 . S
H2200 C2183 0.930 . S
H2201 C2184 0.930 . S
H2202 C2185 0.930 . S
H2203 C2186 0.930 . S
H2204 C2193 0.930 . S
H2205 C2195 0.930 . S
H2206 C2196 0.930 . S
H2207 C2197 0.930 . S
H2208 C2216 0.929 . S
H2209 C2218 0.930 . S
H2210 C2220 0.930 . S
H2211 C2223 0.930 1_655 S
H2212 C2226 0.930 1_554 S
H2213 C2228 0.960 . S
H2214 C2228 0.960 . S
H2215 C2228 0.960 . S
C2216 H2208 0.929 . S
C2216 C2217 1.377 . S
C2216 C2218 1.384 . S
C2217 C2216 1.377 . S
C2217 C2223 1.390 . S
C2218 H2209 0.930 . S
C2218 C2216 1.384 . S
C2218 C2219 1.372 . S
C2219 C2218 1.372 . S
C2219 C2220 1.400 . S
C2219 C2224 1.490 . S
C2220 H2210 0.930 . S
C2220 C2219 1.400 . S
C2220 C2223 1.386 . S
H2221 C2237 0.930 . S
H2222 C2238 0.931 . S
C2223 H2211 0.930 1_455 S
C2223 C2217 1.390 . S
C2223 C2220 1.386 . S
C2224 C2219 1.490 . S
C2224 C2226 1.395 . S
C2224 C2227 1.403 . S
H2225 C2231 0.930 . S
C2226 H2212 0.930 1_556 S
C2226 C2224 1.395 . S
C2226 C2229 1.403 1_556 S
C2227 C2224 1.403 . S
C2227 C2228 1.524 . S
C2227 C2231 1.400 . S
C2228 H2213 0.960 . S
C2228 H2214 0.960 . S
C2228 H2215 0.960 . S
C2228 C2227 1.524 . S
C2229 C2226 1.403 1_554 S
C2229 C2230 1.392 1_554 S
C2229 C2233 1.495 . S
C2230 C2229 1.392 1_556 S
C2230 C2231 1.385 . S
C2230 C2232 1.510 . S
C2231 H2225 0.930 . S
C2231 C2227 1.400 . S
C2231 C2230 1.385 . S
C2232 C2230 1.510 . S
C2232 C2234 1.337 1_556 S
C2232 C2238 1.400 . S
C2233 C2229 1.495 . S
C2233 H2239 0.959 . S
C2233 H2240 0.961 . S
C2233 H2241 0.960 . S
C2234 C2232 1.337 1_554 S
C2234 C2235 1.394 . S
C2234 H2242 0.930 . S
C2235 C2234 1.394 . S
C2235 C2236 1.383 . S
C2235 H2243 0.929 . S
C2236 C2235 1.383 . S
C2236 C2237 1.377 1_554 S
C2237 H2221 0.930 . S
C2237 C2236 1.377 1_556 S
C2237 C2238 1.379 . S
C2238 H2222 0.931 . S
C2238 C2232 1.400 . S
C2238 C2237 1.379 . S
H2239 C2233 0.959 . S
H2240 C2233 0.961 . S
H2241 C2233 0.960 . S
H2242 C2234 0.930 . S
H2243 C2235 0.929 . S
H2244 C2252 0.929 . S
H2245 C2254 0.930 . S
H2246 C2256 0.930 . S
H2247 C2259 0.929 . S
H2248 C2262 0.930 . S
H2249 C2264 0.960 . S
H2250 C2264 0.960 . S
H2251 C2264 0.960 . S
C2252 H2244 0.929 . S
C2252 C2253 1.377 . S
C2252 C2254 1.384 . S
C2253 C2252 1.377 . S
C2253 C2259 1.390 . S
C2254 H2245 0.930 . S
C2254 C2252 1.384 . S
C2254 C2255 1.372 . S
C2255 C2254 1.372 . S
C2255 C2256 1.400 . S
C2255 C2260 1.490 . S
C2256 H2246 0.930 . S
C2256 C2255 1.400 . S
C2256 C2259 1.386 . S
H2257 C2273 0.930 . S
H2258 C2274 0.931 . S
C2259 H2247 0.929 . S
C2259 C2253 1.390 . S
C2259 C2256 1.386 . S
C2260 C2255 1.490 . S
C2260 C2262 1.395 . S
C2260 C2263 1.403 . S
H2261 C2267 0.930 . S
C2262 H2248 0.930 . S
C2262 C2260 1.395 . S
C2262 C2265 1.403 . S
C2263 C2260 1.403 . S
C2263 C2264 1.524 . S
C2263 C2267 1.400 . S
C2264 H2249 0.960 . S
C2264 H2250 0.960 . S
C2264 H2251 0.960 . S
C2264 C2263 1.524 . S
C2265 C2262 1.403 . S
C2265 C2266 1.392 . S
C2265 C2269 1.495 . S
C2266 C2265 1.392 . S
C2266 C2267 1.385 . S
C2266 C2268 1.478 . S
C2267 H2261 0.930 . S
C2267 C2263 1.400 . S
C2267 C2266 1.385 . S
C2268 C2266 1.478 . S
C2268 C2270 1.381 . S
C2268 C2274 1.383 . S
C2269 C2265 1.495 . S
C2269 H2275 0.959 . S
C2269 H2276 0.961 . S
C2269 H2277 0.960 . S
C2270 C2268 1.381 . S
C2270 C2271 1.394 . S
C2270 H2278 0.930 . S
C2271 C2270 1.394 . S
C2271 C2272 1.383 . S
C2271 H2279 0.929 . S
C2272 C2271 1.383 . S
C2272 C2273 1.377 . S
C2273 H2257 0.930 . S
C2273 C2272 1.377 . S
C2273 C2274 1.379 . S
C2274 H2258 0.931 . S
C2274 C2268 1.383 . S
C2274 C2273 1.379 . S
H2275 C2269 0.959 . S
H2276 C2269 0.961 . S
H2277 C2269 0.960 . S
H2278 C2270 0.930 . S
H2279 C2271 0.929 . S
H2280 C2288 0.929 . S
H2281 C2290 0.930 . S
H2282 C2292 0.930 . S
H2283 C2295 0.929 . S
H2284 C2298 0.930 . S
H2285 C2300 0.960 . S
H2286 C2300 0.960 . S
H2287 C2300 0.960 . S
C2288 H2280 0.929 . S
C2288 C2289 1.377 . S
C2288 C2290 1.384 . S
C2289 C2288 1.377 . S
C2289 C2295 1.390 . S
C2290 H2281 0.930 . S
C2290 C2288 1.384 . S
C2290 C2291 1.372 . S
C2291 C2290 1.372 . S
C2291 C2292 1.400 . S
C2291 C2296 1.490 . S
C2292 H2282 0.930 . S
C2292 C2291 1.400 . S
C2292 C2295 1.386 . S
H2293 C2309 0.930 . S
H2294 C2310 0.931 . S
C2295 H2283 0.929 . S
C2295 C2289 1.390 . S
C2295 C2292 1.386 . S
C2296 C2291 1.490 . S
C2296 C2298 1.395 . S
C2296 C2299 1.403 . S
H2297 C2303 0.930 . S
C2298 H2284 0.930 . S
C2298 C2296 1.395 . S
C2298 C2301 1.403 . S
C2299 C2296 1.403 . S
C2299 C2300 1.524 . S
C2299 C2303 1.400 . S
C2300 H2285 0.960 . S
C2300 H2286 0.960 . S
C2300 H2287 0.960 . S
C2300 C2299 1.524 . S
C2301 C2298 1.403 . S
C2301 C2302 1.392 . S
C2301 C2305 1.495 . S
C2302 C2301 1.392 . S
C2302 C2303 1.385 . S
C2302 C2304 1.478 . S
C2303 H2297 0.930 . S
C2303 C2299 1.400 . S
C2303 C2302 1.385 . S
C2304 C2302 1.478 . S
C2304 C2306 1.381 . S
C2304 C2310 1.383 . S
C2305 C2301 1.495 . S
C2305 H2311 0.959 . S
C2305 H2312 0.961 . S
C2305 H2313 0.960 . S
C2306 C2304 1.381 . S
C2306 C2307 1.394 . S
C2306 H2314 0.930 . S
C2307 C2306 1.394 . S
C2307 C2308 1.383 . S
C2307 H2315 0.929 . S
C2308 C2307 1.383 . S
C2308 C2309 1.377 . S
C2309 H2293 0.930 . S
C2309 C2308 1.377 . S
C2309 C2310 1.379 . S
C2310 H2294 0.931 . S
C2310 C2304 1.383 . S
C2310 C2309 1.379 . S
H2311 C2305 0.959 . S
H2312 C2305 0.961 . S
H2313 C2305 0.960 . S
H2314 C2306 0.930 . S
H2315 C2307 0.929 . S
H2316 C2324 0.929 . S
H2317 C2326 0.930 . S
H2318 C2328 0.930 . S
H2319 C2331 0.929 . S
H2320 C2334 0.930 . S
H2321 C2336 0.960 . S
H2322 C2336 0.960 . S
H2323 C2336 0.960 . S
C2324 H2316 0.929 . S
C2324 C2325 1.377 . S
C2324 C2326 1.384 . S
C2325 C2324 1.377 . S
C2325 C2331 1.390 . S
C2326 H2317 0.930 . S
C2326 C2324 1.384 . S
C2326 C2327 1.372 . S
C2327 C2326 1.372 . S
C2327 C2328 1.400 . S
C2327 C2332 1.490 . S
C2328 H2318 0.930 . S
C2328 C2327 1.400 . S
C2328 C2331 1.386 . S
H2329 C2345 0.930 . S
H2330 C2346 0.931 . S
C2331 H2319 0.929 . S
C2331 C2325 1.390 . S
C2331 C2328 1.386 . S
C2332 C2327 1.490 . S
C2332 C2334 1.395 . S
C2332 C2335 1.403 . S
H2333 C2339 0.930 . S
C2334 H2320 0.930 . S
C2334 C2332 1.395 . S
C2334 C2337 1.403 . S
C2335 C2332 1.403 . S
C2335 C2336 1.524 . S
C2335 C2339 1.400 . S
C2336 H2321 0.960 . S
C2336 H2322 0.960 . S
C2336 H2323 0.960 . S
C2336 C2335 1.524 . S
C2337 C2334 1.403 . S
C2337 C2338 1.392 . S
C2337 C2341 1.495 . S
C2338 C2337 1.392 . S
C2338 C2339 1.385 . S
C2338 C2340 1.478 . S
C2339 H2333 0.930 . S
C2339 C2335 1.400 . S
C2339 C2338 1.385 . S
C2340 C2338 1.478 . S
C2340 C2342 1.381 . S
C2340 C2346 1.383 . S
C2341 C2337 1.495 . S
C2341 H2347 0.959 . S
C2341 H2348 0.961 . S
C2341 H2349 0.960 . S
C2342 C2340 1.381 . S
C2342 C2343 1.394 . S
C2342 H2350 0.930 . S
C2343 C2342 1.394 . S
C2343 C2344 1.383 . S
C2343 H2351 0.929 . S
C2344 C2343 1.383 . S
C2344 C2345 1.377 . S
C2345 H2329 0.930 . S
C2345 C2344 1.377 . S
C2345 C2346 1.379 . S
C2346 H2330 0.931 . S
C2346 C2340 1.383 . S
C2346 C2345 1.379 . S
H2347 C2341 0.959 . S
H2348 C2341 0.961 . S
H2349 C2341 0.960 . S
H2350 C2342 0.930 . S
H2351 C2343 0.929 . S
H2352 C2360 0.929 . S
H2353 C2362 0.930 . S
H2354 C2364 0.930 . S
H2355 C2367 0.929 1_655 S
H2356 C2370 0.930 . S
H2357 C2372 0.960 . S
H2358 C2372 0.960 . S
H2359 C2372 0.960 . S
C2360 H2352 0.929 . S
C2360 C2361 1.377 . S
C2360 C2362 1.384 . S
C2361 C2360 1.377 . S
C2361 C2367 1.390 . S
C2362 H2353 0.930 . S
C2362 C2360 1.384 . S
C2362 C2363 1.372 . S
C2363 C2362 1.372 . S
C2363 C2364 1.400 . S
C2363 C2368 1.490 . S
C2364 H2354 0.930 . S
C2364 C2363 1.400 . S
C2364 C2367 1.386 . S
H2365 C2381 0.930 . S
H2366 C2382 0.931 . S
C2367 H2355 0.929 1_455 S
C2367 C2361 1.390 . S
C2367 C2364 1.386 . S
C2368 C2363 1.490 . S
C2368 C2370 1.395 . S
C2368 C2371 1.403 . S
H2369 C2375 0.930 . S
C2370 H2356 0.930 . S
C2370 C2368 1.395 . S
C2370 C2373 1.403 . S
C2371 C2368 1.403 . S
C2371 C2372 1.524 . S
C2371 C2375 1.400 . S
C2372 H2357 0.960 . S
C2372 H2358 0.960 . S
C2372 H2359 0.960 . S
C2372 C2371 1.524 . S
C2373 C2370 1.403 . S
C2373 C2374 1.392 . S
C2373 C2377 1.495 . S
C2374 C2373 1.392 . S
C2374 C2375 1.385 . S
C2374 C2376 1.478 . S
C2375 H2369 0.930 . S
C2375 C2371 1.400 . S
C2375 C2374 1.385 . S
C2376 C2374 1.478 . S
C2376 C2378 1.381 . S
C2376 C2382 1.383 . S
C2377 C2373 1.495 . S
C2377 H2383 0.959 1_455 S
C2377 H2384 0.961 1_455 S
C2377 H2385 0.960 . S
C2378 C2376 1.381 . S
C2378 C2379 1.394 . S
C2378 H2386 0.930 . S
C2379 C2378 1.394 . S
C2379 C2380 1.383 . S
C2379 H2387 0.929 . S
C2380 C2379 1.383 . S
C2380 C2381 1.377 . S
C2381 H2365 0.930 . S
C2381 C2380 1.377 . S
C2381 C2382 1.379 . S
C2382 H2366 0.931 . S
C2382 C2376 1.383 . S
C2382 C2381 1.379 . S
H2383 C2377 0.959 1_655 S
H2384 C2377 0.961 1_655 S
H2385 C2377 0.960 . S
H2386 C2378 0.930 . S
H2387 C2379 0.929 . S
H2388 C2396 0.929 . S
H2389 C2398 0.930 . S
H2390 C2400 0.930 . S
H2391 C2403 0.929 . S
H2392 C2406 0.930 . S
H2393 C2408 0.960 . S
H2394 C2408 0.960 . S
H2395 C2408 0.960 . S
C2396 H2388 0.929 . S
C2396 C2397 1.377 . S
C2396 C2398 1.384 . S
C2397 C2396 1.377 . S
C2397 C2403 1.390 . S
C2398 H2389 0.930 . S
C2398 C2396 1.384 . S
C2398 C2399 1.372 . S
C2399 C2398 1.372 . S
C2399 C2400 1.400 . S
C2399 C2404 1.490 . S
C2400 H2390 0.930 . S
C2400 C2399 1.400 . S
C2400 C2403 1.386 . S
H2401 C2417 0.930 . S
H2402 C2418 0.931 . S
C2403 H2391 0.929 . S
C2403 C2397 1.390 . S
C2403 C2400 1.386 . S
C2404 C2399 1.490 . S
C2404 C2406 1.395 . S
C2404 C2407 1.403 . S
H2405 C2411 0.930 . S
C2406 H2392 0.930 . S
C2406 C2404 1.395 . S
C2406 C2409 1.403 . S
C2407 C2404 1.403 . S
C2407 C2408 1.524 . S
C2407 C2411 1.400 . S
C2408 H2393 0.960 . S
C2408 H2394 0.960 . S
C2408 H2395 0.960 . S
C2408 C2407 1.524 . S
C2409 C2406 1.403 . S
C2409 C2410 1.392 . S
C2409 C2413 1.495 . S
C2410 C2409 1.392 . S
C2410 C2411 1.385 . S
C2410 C2412 1.478 . S
C2411 H2405 0.930 . S
C2411 C2407 1.400 . S
C2411 C2410 1.385 . S
C2412 C2410 1.478 . S
C2412 C2414 1.381 . S
C2412 C2418 1.383 . S
C2413 C2409 1.495 . S
C2413 H2419 0.959 . S
C2413 H2420 0.961 . S
C2413 H2421 0.960 . S
C2414 C2412 1.381 . S
C2414 C2415 1.394 . S
C2414 H2422 0.930 . S
C2415 C2414 1.394 . S
C2415 C2416 1.383 . S
C2415 H2423 0.929 . S
C2416 C2415 1.383 . S
C2416 C2417 1.377 . S
C2417 H2401 0.930 . S
C2417 C2416 1.377 . S
C2417 C2418 1.379 . S
C2418 H2402 0.931 . S
C2418 C2412 1.383 . S
C2418 C2417 1.379 . S
H2419 C2413 0.959 . S
H2420 C2413 0.961 . S
H2421 C2413 0.960 . S
H2422 C2414 0.930 . S
H2423 C2415 0.929 . S
H2424 C2432 0.929 . S
H2425 C2434 0.930 . S
H2426 C2436 0.930 . S
H2427 C2439 0.929 . S
H2428 C2442 0.930 . S
H2429 C2444 0.960 . S
H2430 C2444 0.960 . S
H2431 C2444 0.960 . S
C2432 H2424 0.929 . S
C2432 C2433 1.377 . S
C2432 C2434 1.384 . S
C2433 C2432 1.377 . S
C2433 C2439 1.390 . S
C2434 H2425 0.930 . S
C2434 C2432 1.384 . S
C2434 C2435 1.372 . S
C2435 C2434 1.372 . S
C2435 C2436 1.400 . S
C2435 C2440 1.490 . S
C2436 H2426 0.930 . S
C2436 C2435 1.400 . S
C2436 C2439 1.386 . S
H2437 C2453 0.930 . S
H2438 C2454 0.931 . S
C2439 H2427 0.929 . S
C2439 C2433 1.390 . S
C2439 C2436 1.386 . S
C2440 C2435 1.490 . S
C2440 C2442 1.395 . S
C2440 C2443 1.403 . S
H2441 C2447 0.930 . S
C2442 H2428 0.930 . S
C2442 C2440 1.395 . S
C2442 C2445 1.403 . S
C2443 C2440 1.403 . S
C2443 C2444 1.524 . S
C2443 C2447 1.400 . S
C2444 H2429 0.960 . S
C2444 H2430 0.960 . S
C2444 H2431 0.960 . S
C2444 C2443 1.524 . S
C2445 C2442 1.403 . S
C2445 C2446 1.392 . S
C2445 C2449 1.495 . S
C2446 C2445 1.392 . S
C2446 C2447 1.385 . S
C2446 C2448 1.478 . S
C2447 H2441 0.930 . S
C2447 C2443 1.400 . S
C2447 C2446 1.385 . S
C2448 C2446 1.478 . S
C2448 C2450 1.381 . S
C2448 C2454 1.383 . S
C2449 C2445 1.495 . S
C2449 H2455 0.959 . S
C2449 H2456 0.961 . S
C2449 H2457 0.960 . S
C2450 C2448 1.381 . S
C2450 C2451 1.394 . S
C2450 H2458 0.930 . S
C2451 C2450 1.394 . S
C2451 C2452 1.383 . S
C2451 H2459 0.929 . S
C2452 C2451 1.383 . S
C2452 C2453 1.377 . S
C2453 H2437 0.930 . S
C2453 C2452 1.377 . S
C2453 C2454 1.379 . S
C2454 H2438 0.931 . S
C2454 C2448 1.383 . S
C2454 C2453 1.379 . S
H2455 C2449 0.959 . S
H2456 C2449 0.961 . S
H2457 C2449 0.960 . S
H2458 C2450 0.930 . S
H2459 C2451 0.929 . S
H2460 C2468 0.929 . S
H2461 C2470 0.930 . S
H2462 C2472 0.930 . S
H2463 C2475 0.929 . S
H2464 C2478 0.930 . S
H2465 C2480 0.960 . S
H2466 C2480 0.960 . S
H2467 C2480 0.960 . S
C2468 H2460 0.929 . S
C2468 C2469 1.377 . S
C2468 C2470 1.384 . S
C2469 C2468 1.377 . S
C2469 C2475 1.390 . S
C2470 H2461 0.930 . S
C2470 C2468 1.384 . S
C2470 C2471 1.372 . S
C2471 C2470 1.372 . S
C2471 C2472 1.400 . S
C2471 C2476 1.490 . S
C2472 H2462 0.930 . S
C2472 C2471 1.400 . S
C2472 C2475 1.386 . S
H2473 C2489 0.930 . S
H2474 C2490 0.931 . S
C2475 H2463 0.929 . S
C2475 C2469 1.390 . S
C2475 C2472 1.386 . S
C2476 C2471 1.490 . S
C2476 C2478 1.395 . S
C2476 C2479 1.403 . S
H2477 C2483 0.930 . S
C2478 H2464 0.930 . S
C2478 C2476 1.395 . S
C2478 C2481 1.403 . S
C2479 C2476 1.403 . S
C2479 C2480 1.524 . S
C2479 C2483 1.400 . S
C2480 H2465 0.960 . S
C2480 H2466 0.960 . S
C2480 H2467 0.960 . S
C2480 C2479 1.524 . S
C2481 C2478 1.403 . S
C2481 C2482 1.392 . S
C2481 C2485 1.495 . S
C2482 C2481 1.392 . S
C2482 C2483 1.385 . S
C2482 C2484 1.478 . S
C2483 H2477 0.930 . S
C2483 C2479 1.400 . S
C2483 C2482 1.385 . S
C2484 C2482 1.478 . S
C2484 C2486 1.381 . S
C2484 C2490 1.383 . S
C2485 C2481 1.495 . S
C2485 H2491 0.959 . S
C2485 H2492 0.961 . S
C2485 H2493 0.960 . S
C2486 C2484 1.381 . S
C2486 C2487 1.394 . S
C2486 H2494 0.930 . S
C2487 C2486 1.394 . S
C2487 C2488 1.383 . S
C2487 H2495 0.929 . S
C2488 C2487 1.383 . S
C2488 C2489 1.377 . S
C2489 H2473 0.930 . S
C2489 C2488 1.377 . S
C2489 C2490 1.379 . S
C2490 H2474 0.931 . S
C2490 C2484 1.383 . S
C2490 C2489 1.379 . S
H2491 C2485 0.959 . S
H2492 C2485 0.961 . S
H2493 C2485 0.960 . S
H2494 C2486 0.930 . S
H2495 C2487 0.929 . S
H2496 C2504 0.929 . S
H2497 C2506 0.930 . S
H2498 C2508 0.930 . S
H2499 C2511 0.929 . S
H2500 C2514 0.930 . S
H2501 C2516 0.960 . S
H2502 C2516 0.960 . S
H2503 C2516 0.960 . S
C2504 H2496 0.929 . S
C2504 C2505 1.377 . S
C2504 C2506 1.384 . S
C2505 C2504 1.377 . S
C2505 C2511 1.390 . S
C2506 H2497 0.930 . S
C2506 C2504 1.384 . S
C2506 C2507 1.372 . S
C2507 C2506 1.372 . S
C2507 C2508 1.400 . S
C2507 C2512 1.490 . S
C2508 H2498 0.930 . S
C2508 C2507 1.400 . S
C2508 C2511 1.386 . S
H2509 C2525 0.930 . S
H2510 C2526 0.931 . S
C2511 H2499 0.929 . S
C2511 C2505 1.390 . S
C2511 C2508 1.386 . S
C2512 C2507 1.490 . S
C2512 C2514 1.395 . S
C2512 C2515 1.403 1_655 S
H2513 C2519 0.930 . S
C2514 H2500 0.930 . S
C2514 C2512 1.395 . S
C2514 C2517 1.403 . S
C2515 C2512 1.403 1_455 S
C2515 C2516 1.524 . S
C2515 C2519 1.400 . S
C2516 H2501 0.960 . S
C2516 H2502 0.960 . S
C2516 H2503 0.960 . S
C2516 C2515 1.524 . S
C2517 C2514 1.403 . S
C2517 C2518 1.387 . S
C2517 C2521 1.495 . S
C2518 C2517 1.387 . S
C2518 C2519 1.388 1_655 S
C2518 C2520 1.480 1_655 S
C2519 H2513 0.930 . S
C2519 C2515 1.400 . S
C2519 C2518 1.388 1_455 S
C2520 C2518 1.480 1_455 S
C2520 C2522 1.381 . S
C2520 C2526 1.383 . S
C2521 C2517 1.495 . S
C2521 H2527 0.959 . S
C2521 H2528 0.961 . S
C2521 H2529 0.960 . S
C2522 C2520 1.381 . S
C2522 C2523 1.394 . S
C2522 H2530 0.945 . S
C2523 C2522 1.394 . S
C2523 C2524 1.383 . S
C2523 H2531 0.929 . S
C2524 C2523 1.383 . S
C2524 C2525 1.377 . S
C2525 H2509 0.930 . S
C2525 C2524 1.377 . S
C2525 C2526 1.379 . S
C2526 H2510 0.931 . S
C2526 C2520 1.383 . S
C2526 C2525 1.379 . S
H2527 C2521 0.959 . S
H2528 C2521 0.961 . S
H2529 C2521 0.960 . S
H2530 C2522 0.945 . S
H2531 C2523 0.929 . S
H2532 C2540 0.929 . S
H2533 C2542 0.930 . S
H2534 C2544 0.930 . S
H2535 C2547 0.929 . S
H2536 C2550 0.930 . S
H2537 C2552 0.960 . S
H2538 C2552 0.960 . S
H2539 C2552 0.960 . S
C2540 H2532 0.929 . S
C2540 C2541 1.377 . S
C2540 C2542 1.384 . S
C2541 C2540 1.377 . S
C2541 C2547 1.390 . S
C2542 H2533 0.930 . S
C2542 C2540 1.384 . S
C2542 C2543 1.372 . S
C2543 C2542 1.372 . S
C2543 C2544 1.400 . S
C2543 C2548 1.490 . S
C2544 H2534 0.930 . S
C2544 C2543 1.400 . S
C2544 C2547 1.386 . S
H2545 C2561 0.930 . S
H2546 C2562 0.931 . S
C2547 H2535 0.929 . S
C2547 C2541 1.390 . S
C2547 C2544 1.386 . S
C2548 C2543 1.490 . S
C2548 C2550 1.395 . S
C2548 C2551 1.403 . S
H2549 C2555 0.930 . S
C2550 H2536 0.930 . S
C2550 C2548 1.395 . S
C2550 C2553 1.403 . S
C2551 C2548 1.403 . S
C2551 C2552 1.524 . S
C2551 C2555 1.400 . S
C2552 H2537 0.960 . S
C2552 H2538 0.960 . S
C2552 H2539 0.960 . S
C2552 C2551 1.524 . S
C2553 C2550 1.403 . S
C2553 C2554 1.392 . S
C2553 C2557 1.495 . S
C2554 C2553 1.392 . S
C2554 C2555 1.385 . S
C2554 C2556 1.478 . S
C2555 H2549 0.930 . S
C2555 C2551 1.400 . S
C2555 C2554 1.385 . S
C2556 C2554 1.478 . S
C2556 C2558 1.381 . S
C2556 C2562 1.383 . S
C2557 C2553 1.495 . S
C2557 H2563 0.959 . S
C2557 H2564 0.961 . S
C2557 H2565 0.960 . S
C2558 C2556 1.381 . S
C2558 C2559 1.394 . S
C2558 H2566 0.930 . S
C2559 C2558 1.394 . S
C2559 C2560 1.383 . S
C2559 H2567 0.929 . S
C2560 C2559 1.383 . S
C2560 C2561 1.377 . S
C2561 H2545 0.930 . S
C2561 C2560 1.377 . S
C2561 C2562 1.379 . S
C2562 H2546 0.931 . S
C2562 C2556 1.383 . S
C2562 C2561 1.379 . S
H2563 C2557 0.959 . S
H2564 C2557 0.961 . S
H2565 C2557 0.960 . S
H2566 C2558 0.930 . S
H2567 C2559 0.929 . S
H2568 C2576 0.929 . S
H2569 C2578 0.930 . S
H2570 C2580 0.930 . S
H2571 C2583 0.929 . S
H2572 C2586 0.930 . S
H2573 C2588 0.960 . S
H2574 C2588 0.960 . S
H2575 C2588 0.960 . S
C2576 H2568 0.929 . S
C2576 C2577 1.377 . S
C2576 C2578 1.384 . S
C2577 C2576 1.377 . S
C2577 C2583 1.390 . S
C2578 H2569 0.930 . S
C2578 C2576 1.384 . S
C2578 C2579 1.372 . S
C2579 C2578 1.372 . S
C2579 C2580 1.400 . S
C2579 C2584 1.490 . S
C2580 H2570 0.930 . S
C2580 C2579 1.400 . S
C2580 C2583 1.386 . S
H2581 C2597 0.930 . S
H2582 C2598 0.931 . S
C2583 H2571 0.929 . S
C2583 C2577 1.390 . S
C2583 C2580 1.386 . S
C2584 C2579 1.490 . S
C2584 C2586 1.395 . S
C2584 C2587 1.403 . S
H2585 C2591 0.930 . S
C2586 H2572 0.930 . S
C2586 C2584 1.395 . S
C2586 C2589 1.403 . S
C2587 C2584 1.403 . S
C2587 C2588 1.524 . S
C2587 C2591 1.400 . S
C2588 H2573 0.960 . S
C2588 H2574 0.960 . S
C2588 H2575 0.960 . S
C2588 C2587 1.524 . S
C2589 C2586 1.403 . S
C2589 C2590 1.392 . S
C2589 C2593 1.495 . S
C2590 C2589 1.392 . S
C2590 C2591 1.385 . S
C2590 C2592 1.478 . S
C2591 H2585 0.930 . S
C2591 C2587 1.400 . S
C2591 C2590 1.385 . S
C2592 C2590 1.478 . S
C2592 C2594 1.381 . S
C2592 C2598 1.383 . S
C2593 C2589 1.495 . S
C2593 H2599 0.959 . S
C2593 H2600 0.961 . S
C2593 H2601 0.960 . S
C2594 C2592 1.381 . S
C2594 C2595 1.394 . S
C2594 H2602 0.930 . S
C2595 C2594 1.394 . S
C2595 C2596 1.383 . S
C2595 H2603 0.929 . S
C2596 C2595 1.383 . S
C2596 C2597 1.377 . S
C2597 H2581 0.930 . S
C2597 C2596 1.377 . S
C2597 C2598 1.379 . S
C2598 H2582 0.931 . S
C2598 C2592 1.383 . S
C2598 C2597 1.379 . S
H2599 C2593 0.959 . S
H2600 C2593 0.961 . S
H2601 C2593 0.960 . S
H2602 C2594 0.930 . S
H2603 C2595 0.929 . S
H2604 C2612 0.929 . S
H2605 C2614 0.930 . S
H2606 C2616 0.930 . S
H2607 C2619 0.929 . S
H2608 C2622 0.930 . S
H2609 C2624 0.960 . S
H2610 C2624 0.960 . S
H2611 C2624 0.960 . S
C2612 H2604 0.929 . S
C2612 C2613 1.377 . S
C2612 C2614 1.384 . S
C2613 C2612 1.377 . S
C2613 C2619 1.390 . S
C2614 H2605 0.930 . S
C2614 C2612 1.384 . S
C2614 C2615 1.372 . S
C2615 C2614 1.372 . S
C2615 C2616 1.400 . S
C2615 C2620 1.490 . S
C2616 H2606 0.930 . S
C2616 C2615 1.400 . S
C2616 C2619 1.386 . S
H2617 C2633 0.930 . S
H2618 C2634 0.931 . S
C2619 H2607 0.929 . S
C2619 C2613 1.390 . S
C2619 C2616 1.386 . S
C2620 C2615 1.490 . S
C2620 C2622 1.395 . S
C2620 C2623 1.403 . S
H2621 C2627 0.930 . S
C2622 H2608 0.930 . S
C2622 C2620 1.395 . S
C2622 C2625 1.403 . S
C2623 C2620 1.403 . S
C2623 C2624 1.524 . S
C2623 C2627 1.400 . S
C2624 H2609 0.960 . S
C2624 H2610 0.960 . S
C2624 H2611 0.960 . S
C2624 C2623 1.524 . S
C2625 C2622 1.403 . S
C2625 C2626 1.392 . S
C2625 C2629 1.495 . S
C2626 C2625 1.392 . S
C2626 C2627 1.385 . S
C2626 C2628 1.478 . S
C2627 H2621 0.930 . S
C2627 C2623 1.400 . S
C2627 C2626 1.385 . S
C2628 C2626 1.478 . S
C2628 C2630 1.381 . S
C2628 C2634 1.383 . S
C2629 C2625 1.495 . S
C2629 H2635 0.959 . S
C2629 H2636 0.961 . S
C2629 H2637 0.960 . S
C2630 C2628 1.381 . S
C2630 C2631 1.394 . S
C2630 H2638 0.930 . S
C2631 C2630 1.394 . S
C2631 C2632 1.383 . S
C2631 H2639 0.929 . S
C2632 C2631 1.383 . S
C2632 C2633 1.377 . S
C2633 H2617 0.930 . S
C2633 C2632 1.377 . S
C2633 C2634 1.379 . S
C2634 H2618 0.931 . S
C2634 C2628 1.383 . S
C2634 C2633 1.379 . S
H2635 C2629 0.959 . S
H2636 C2629 0.961 . S
H2637 C2629 0.960 . S
H2638 C2630 0.930 . S
H2639 C2631 0.929 . S
H2640 C2648 0.929 . S
H2641 C2650 0.930 . S
H2642 C2652 0.930 1_455 S
H2643 C2655 0.929 . S
H2644 C2658 0.930 . S
H2645 C2660 0.960 . S
H2646 C2660 0.960 1_655 S
H2647 C2660 0.960 . S
C2648 H2640 0.929 . S
C2648 C2649 1.377 . S
C2648 C2650 1.384 . S
C2649 C2648 1.377 . S
C2649 C2655 1.390 . S
C2650 H2641 0.930 . S
C2650 C2648 1.384 . S
C2650 C2651 1.372 . S
C2651 C2650 1.372 . S
C2651 C2652 1.400 . S
C2651 C2656 1.490 . S
C2652 H2642 0.930 1_655 S
C2652 C2651 1.400 . S
C2652 C2655 1.386 . S
H2653 C2669 0.930 . S
H2654 C2670 0.931 . S
C2655 H2643 0.929 . S
C2655 C2649 1.390 . S
C2655 C2652 1.386 . S
C2656 C2651 1.490 . S
C2656 C2658 1.395 . S
C2656 C2659 1.403 1_655 S
H2657 C2663 0.930 . S
C2658 H2644 0.930 . S
C2658 C2656 1.395 . S
C2658 C2661 1.403 . S
C2659 C2656 1.403 1_455 S
C2659 C2660 1.524 . S
C2659 C2663 1.400 . S
C2660 H2645 0.960 . S
C2660 H2646 0.960 1_455 S
C2660 H2647 0.960 . S
C2660 C2659 1.524 . S
C2661 C2658 1.403 . S
C2661 C2662 1.392 1_655 S
C2661 C2665 1.495 . S
C2662 C2661 1.392 1_455 S
C2662 C2663 1.385 . S
C2662 C2664 1.478 . S
C2663 H2657 0.930 . S
C2663 C2659 1.400 . S
C2663 C2662 1.385 . S
C2664 C2662 1.478 . S
C2664 C2666 1.381 . S
C2664 C2670 1.383 . S
C2665 C2661 1.495 . S
C2665 H2671 0.959 . S
C2665 H2672 0.961 1_655 S
C2665 H2673 0.960 . S
C2666 C2664 1.381 . S
C2666 C2667 1.394 . S
C2666 H2674 0.930 1_455 S
C2667 C2666 1.394 . S
C2667 C2668 1.383 . S
C2667 H2675 0.929 . S
C2668 C2667 1.383 . S
C2668 C2669 1.377 . S
C2669 H2653 0.930 . S
C2669 C2668 1.377 . S
C2669 C2670 1.379 . S
C2670 H2654 0.931 . S
C2670 C2664 1.383 . S
C2670 C2669 1.379 . S
H2671 C2665 0.959 . S
H2672 C2665 0.961 1_455 S
H2673 C2665 0.960 . S
H2674 C2666 0.930 1_655 S
H2675 C2667 0.929 . S
H2676 C2684 0.929 . S
H2677 C2686 0.930 . S
H2678 C2688 0.930 . S
H2679 C2691 0.929 . S
H2680 C2694 0.930 . S
H2681 C2696 0.960 . S
H2682 C2696 0.960 . S
H2683 C2696 0.960 . S
C2684 H2676 0.929 . S
C2684 C2685 1.377 . S
C2684 C2686 1.384 . S
C2685 C2684 1.377 . S
C2685 C2691 1.390 . S
C2686 H2677 0.930 . S
C2686 C2684 1.384 . S
C2686 C2687 1.372 . S
C2687 C2686 1.372 . S
C2687 C2688 1.400 . S
C2687 C2692 1.490 . S
C2688 H2678 0.930 . S
C2688 C2687 1.400 . S
C2688 C2691 1.386 . S
H2689 C2705 0.930 . S
H2690 C2706 0.931 . S
C2691 H2679 0.929 . S
C2691 C2685 1.390 . S
C2691 C2688 1.386 . S
C2692 C2687 1.490 . S
C2692 C2694 1.395 . S
C2692 C2695 1.403 . S
H2693 C2699 0.930 . S
C2694 H2680 0.930 . S
C2694 C2692 1.395 . S
C2694 C2697 1.403 . S
C2695 C2692 1.403 . S
C2695 C2696 1.524 . S
C2695 C2699 1.400 . S
C2696 H2681 0.960 . S
C2696 H2682 0.960 . S
C2696 H2683 0.960 . S
C2696 C2695 1.524 . S
C2697 C2694 1.403 . S
C2697 C2698 1.392 . S
C2697 C2701 1.495 . S
C2698 C2697 1.392 . S
C2698 C2699 1.385 . S
C2698 C2700 1.478 . S
C2699 H2693 0.930 . S
C2699 C2695 1.400 . S
C2699 C2698 1.385 . S
C2700 C2698 1.478 . S
C2700 C2702 1.381 . S
C2700 C2706 1.383 . S
C2701 C2697 1.495 . S
C2701 H2707 0.959 . S
C2701 H2708 0.961 . S
C2701 H2709 0.960 . S
C2702 C2700 1.381 . S
C2702 C2703 1.394 . S
C2702 H2710 0.930 . S
C2703 C2702 1.394 . S
C2703 C2704 1.383 . S
C2703 H2711 0.929 . S
C2704 C2703 1.383 . S
C2704 C2705 1.377 . S
C2705 H2689 0.930 . S
C2705 C2704 1.377 . S
C2705 C2706 1.379 . S
C2706 H2690 0.931 . S
C2706 C2700 1.383 . S
C2706 C2705 1.379 . S
H2707 C2701 0.959 . S
H2708 C2701 0.961 . S
H2709 C2701 0.960 . S
H2710 C2702 0.930 . S
H2711 C2703 0.929 . S
H2712 C2720 0.929 . S
H2713 C2722 0.930 . S
H2714 C2724 0.930 . S
H2715 C2727 0.929 . S
H2716 C2730 0.930 . S
H2717 C2732 0.960 . S
H2718 C2732 0.960 . S
H2719 C2732 0.960 . S
C2720 H2712 0.929 . S
C2720 C2721 1.377 . S
C2720 C2722 1.384 . S
C2721 C2720 1.377 . S
C2721 C2727 1.390 . S
C2722 H2713 0.930 . S
C2722 C2720 1.384 . S
C2722 C2723 1.372 . S
C2723 C2722 1.372 . S
C2723 C2724 1.400 . S
C2723 C2728 1.490 . S
C2724 H2714 0.930 . S
C2724 C2723 1.400 . S
C2724 C2727 1.386 . S
H2725 C2741 0.930 . S
H2726 C2742 0.931 . S
C2727 H2715 0.929 . S
C2727 C2721 1.390 . S
C2727 C2724 1.386 . S
C2728 C2723 1.490 . S
C2728 C2730 1.395 . S
C2728 C2731 1.403 . S
H2729 C2735 0.930 . S
C2730 H2716 0.930 . S
C2730 C2728 1.395 . S
C2730 C2733 1.403 . S
C2731 C2728 1.403 . S
C2731 C2732 1.524 . S
C2731 C2735 1.400 . S
C2732 H2717 0.960 . S
C2732 H2718 0.960 . S
C2732 H2719 0.960 . S
C2732 C2731 1.524 . S
C2733 C2730 1.403 . S
C2733 C2734 1.392 . S
C2733 C2737 1.495 . S
C2734 C2733 1.392 . S
C2734 C2735 1.385 . S
C2734 C2736 1.478 . S
C2735 H2729 0.930 . S
C2735 C2731 1.400 . S
C2735 C2734 1.385 . S
C2736 C2734 1.478 . S
C2736 C2738 1.381 . S
C2736 C2742 1.383 . S
C2737 C2733 1.495 . S
C2737 H2743 0.999 . S
C2737 H2744 0.961 . S
C2737 H2745 0.960 . S
C2738 C2736 1.381 . S
C2738 C2739 1.394 . S
C2738 H2746 0.930 . S
C2739 C2738 1.394 . S
C2739 C2740 1.383 . S
C2739 H2747 0.929 . S
C2740 C2739 1.383 . S
C2740 C2741 1.377 . S
C2741 H2725 0.930 . S
C2741 C2740 1.377 . S
C2741 C2742 1.379 . S
C2742 H2726 0.931 . S
C2742 C2736 1.383 . S
C2742 C2741 1.379 . S
H2743 C2737 0.999 . S
H2744 C2737 0.961 . S
H2745 C2737 0.960 . S
H2746 C2738 0.930 . S
H2747 C2739 0.929 . S
H2748 C2756 0.929 . S
H2749 C2758 0.930 . S
H2750 C2760 0.930 . S
H2751 C2763 0.929 . S
H2752 C2766 0.930 . S
H2753 C2768 0.960 . S
H2754 C2768 0.960 . S
H2755 C2768 0.960 . S
C2756 H2748 0.929 . S
C2756 C2757 1.377 . S
C2756 C2758 1.384 . S
C2757 C2756 1.377 . S
C2757 C2763 1.390 . S
C2758 H2749 0.930 . S
C2758 C2756 1.384 . S
C2758 C2759 1.372 . S
C2759 C2758 1.372 . S
C2759 C2760 1.400 . S
C2759 C2764 1.490 . S
C2760 H2750 0.930 . S
C2760 C2759 1.400 . S
C2760 C2763 1.386 . S
H2761 C2777 0.930 . S
H2762 C2778 0.931 . S
C2763 H2751 0.929 . S
C2763 C2757 1.390 . S
C2763 C2760 1.386 . S
C2764 C2759 1.490 . S
C2764 C2766 1.395 . S
C2764 C2767 1.403 . S
H2765 C2771 0.930 . S
C2766 H2752 0.930 . S
C2766 C2764 1.395 . S
C2766 C2769 1.403 . S
C2767 C2764 1.403 . S
C2767 C2768 1.524 . S
C2767 C2771 1.400 . S
C2768 H2753 0.960 . S
C2768 H2754 0.960 . S
C2768 H2755 0.960 . S
C2768 C2767 1.524 . S
C2769 C2766 1.403 . S
C2769 C2770 1.392 . S
C2769 C2773 1.495 . S
C2770 C2769 1.392 . S
C2770 C2771 1.385 . S
C2770 C2772 1.478 . S
C2771 H2765 0.930 . S
C2771 C2767 1.400 . S
C2771 C2770 1.385 . S
C2772 C2770 1.478 . S
C2772 C2774 1.381 . S
C2772 C2778 1.383 . S
C2773 C2769 1.495 . S
C2773 H2779 0.959 . S
C2773 H2780 0.961 . S
C2773 H2781 0.960 . S
C2774 C2772 1.381 . S
C2774 C2775 1.394 . S
C2774 H2782 0.930 . S
C2775 C2774 1.394 . S
C2775 C2776 1.383 . S
C2775 H2783 0.929 . S
C2776 C2775 1.383 . S
C2776 C2777 1.377 . S
C2777 H2761 0.930 . S
C2777 C2776 1.377 . S
C2777 C2778 1.379 . S
C2778 H2762 0.931 . S
C2778 C2772 1.383 . S
C2778 C2777 1.379 . S
H2779 C2773 0.959 . S
H2780 C2773 0.961 . S
H2781 C2773 0.960 . S
H2782 C2774 0.930 . S
H2783 C2775 0.929 . S
H2784 C2792 0.912 1_556 S
H2785 C2794 0.949 . S
H2786 C2796 0.930 . S
H2787 C2799 0.929 . S
H2788 C2802 0.930 . S
H2789 C2804 0.960 1_545 S
H2790 C2804 0.960 . S
H2791 C2804 0.961 1_544 S
C2792 H2784 0.912 1_554 S
C2792 C2793 1.377 . S
C2792 C2794 1.384 . S
C2793 C2792 1.377 . S
C2793 C2799 1.390 . S
C2794 H2785 0.949 . S
C2794 C2792 1.384 . S
C2794 C2795 1.372 . S
C2795 C2794 1.372 . S
C2795 C2796 1.400 . S
C2795 C2800 1.490 . S
C2796 H2786 0.930 . S
C2796 C2795 1.400 . S
C2796 C2799 1.386 . S
H2797 C2813 0.930 . S
H2798 C2814 0.931 . S
C2799 H2787 0.929 . S
C2799 C2793 1.390 . S
C2799 C2796 1.386 . S
C2800 C2795 1.490 . S
C2800 C2802 1.395 . S
C2800 C2803 1.403 . S
H2801 C2807 0.891 1_545 S
C2802 H2788 0.930 . S
C2802 C2800 1.395 . S
C2802 C2805 1.403 . S
C2803 C2800 1.403 . S
C2803 C2804 1.524 1_554 S
C2803 C2807 1.400 . S
C2804 H2789 0.960 1_565 S
C2804 H2790 0.960 . S
C2804 H2791 0.961 1_566 S
C2804 C2803 1.524 1_556 S
C2805 C2802 1.403 . S
C2805 C2806 1.392 . S
C2805 C2809 1.495 . S
C2806 C2805 1.392 . S
C2806 C2807 1.385 . S
C2806 C2808 1.478 . S
C2807 H2801 0.891 1_565 S
C2807 C2803 1.400 . S
C2807 C2806 1.385 . S
C2808 C2806 1.478 . S
C2808 C2810 1.381 . S
C2808 C2814 1.383 1_565 S
C2809 C2805 1.495 . S
C2809 H2815 0.959 . S
C2809 H2816 0.961 . S
C2809 H2817 0.960 . S
C2810 C2808 1.381 . S
C2810 C2811 1.394 . S
C2810 H2818 0.930 . S
C2811 C2810 1.394 . S
C2811 C2812 1.383 1_565 S
C2811 H2819 0.929 . S
C2812 C2811 1.383 1_545 S
C2812 C2813 1.377 . S
C2813 H2797 0.930 . S
C2813 C2812 1.377 . S
C2813 C2814 1.379 . S
C2814 H2798 0.931 . S
C2814 C2808 1.383 1_545 S
C2814 C2813 1.379 . S
H2815 C2809 0.959 . S
H2816 C2809 0.961 . S
H2817 C2809 0.960 . S
H2818 C2810 0.930 . S
H2819 C2811 0.929 . S
H2820 C2828 0.929 . S
H2821 C2830 0.930 . S
H2822 C2832 0.930 . S
H2823 C2835 0.929 . S
H2824 C2838 0.930 . S
H2825 C2840 0.960 . S
H2826 C2840 0.960 . S
H2827 C2840 0.960 . S
C2828 H2820 0.929 . S
C2828 C2829 1.377 . S
C2828 C2830 1.384 . S
C2829 C2828 1.377 . S
C2829 C2835 1.390 1_556 S
C2830 H2821 0.930 . S
C2830 C2828 1.384 . S
C2830 C2831 1.372 . S
C2831 C2830 1.372 . S
C2831 C2832 1.400 1_556 S
C2831 C2836 1.490 . S
C2832 H2822 0.930 . S
C2832 C2831 1.400 1_554 S
C2832 C2835 1.386 . S
H2833 C2849 0.930 . S
H2834 C2850 0.931 . S
C2835 H2823 0.929 . S
C2835 C2829 1.390 1_554 S
C2835 C2832 1.386 . S
C2836 C2831 1.490 . S
C2836 C2838 1.395 1_556 S
C2836 C2839 1.403 . S
H2837 C2843 0.930 . S
C2838 H2824 0.930 . S
C2838 C2836 1.395 1_554 S
C2838 C2841 1.403 . S
C2839 C2836 1.403 . S
C2839 C2840 1.524 . S
C2839 C2843 1.400 . S
C2840 H2825 0.960 . S
C2840 H2826 0.960 . S
C2840 H2827 0.960 . S
C2840 C2839 1.524 . S
C2841 C2838 1.403 . S
C2841 C2842 1.392 . S
C2841 C2845 1.495 . S
C2842 C2841 1.392 . S
C2842 C2843 1.385 1_554 S
C2842 C2844 1.478 . S
C2843 H2837 0.930 . S
C2843 C2839 1.400 . S
C2843 C2842 1.385 1_556 S
C2844 C2842 1.478 . S
C2844 C2846 1.381 1_554 S
C2844 C2850 1.383 . S
C2845 C2841 1.495 . S
C2845 H2851 0.959 . S
C2845 H2852 0.961 . S
C2845 H2853 0.960 . S
C2846 C2844 1.381 1_556 S
C2846 C2847 1.394 . S
C2846 H2854 0.930 . S
C2847 C2846 1.394 . S
C2847 C2848 1.383 1_556 S
C2847 H2855 0.929 . S
C2848 C2847 1.383 1_554 S
C2848 C2849 1.377 . S
C2849 H2833 0.930 . S
C2849 C2848 1.377 . S
C2849 C2850 1.379 . S
C2850 H2834 0.931 . S
C2850 C2844 1.383 . S
C2850 C2849 1.379 . S
H2851 C2845 0.959 . S
H2852 C2845 0.961 . S
H2853 C2845 0.960 . S
H2854 C2846 0.930 . S
H2855 C2847 0.929 . S
H2856 C2864 0.929 . S
H2857 C2866 0.930 . S
H2858 C2868 0.930 . S
H2859 C2871 0.929 . S
H2860 C2874 0.930 . S
H2861 C2876 0.960 . S
H2862 C2876 0.960 . S
H2863 C2876 0.960 . S
C2864 H2856 0.929 . S
C2864 C2865 1.377 . S
C2864 C2866 1.384 . S
C2865 C2864 1.377 . S
C2865 C2871 1.390 . S
C2866 H2857 0.930 . S
C2866 C2864 1.384 . S
C2866 C2867 1.372 . S
C2867 C2866 1.372 . S
C2867 C2868 1.400 . S
C2867 C2872 1.490 . S
C2868 H2858 0.930 . S
C2868 C2867 1.400 . S
C2868 C2871 1.386 . S
H2869 C2885 0.930 . S
H2870 C2886 0.931 . S
C2871 H2859 0.929 . S
C2871 C2865 1.390 . S
C2871 C2868 1.386 . S
C2872 C2867 1.490 . S
C2872 C2874 1.395 . S
C2872 C2875 1.403 . S
H2873 C2879 0.930 . S
C2874 H2860 0.930 . S
C2874 C2872 1.395 . S
C2874 C2877 1.403 . S
C2875 C2872 1.403 . S
C2875 C2876 1.524 . S
C2875 C2879 1.400 . S
C2876 H2861 0.960 . S
C2876 H2862 0.960 . S
C2876 H2863 0.960 . S
C2876 C2875 1.524 . S
C2877 C2874 1.403 . S
C2877 C2878 1.392 . S
C2877 C2881 1.495 . S
C2878 C2877 1.392 . S
C2878 C2879 1.385 . S
C2878 C2880 1.478 . S
C2879 H2873 0.930 . S
C2879 C2875 1.400 . S
C2879 C2878 1.385 . S
C2880 C2878 1.478 . S
C2880 C2882 1.381 . S
C2880 C2886 1.383 . S
C2881 C2877 1.495 . S
C2881 H2887 0.959 . S
C2881 H2888 0.961 . S
C2881 H2889 0.960 . S
C2882 C2880 1.381 . S
C2882 C2883 1.394 . S
C2882 H2890 0.930 . S
C2883 C2882 1.394 . S
C2883 C2884 1.383 . S
C2883 H2891 0.929 . S
C2884 C2883 1.383 . S
C2884 C2885 1.377 . S
C2885 H2869 0.930 . S
C2885 C2884 1.377 . S
C2885 C2886 1.379 . S
C2886 H2870 0.931 . S
C2886 C2880 1.383 . S
C2886 C2885 1.379 . S
H2887 C2881 0.959 . S
H2888 C2881 0.961 . S
H2889 C2881 0.960 . S
H2890 C2882 0.930 . S
H2891 C2883 0.929 . S
H2892 C2900 0.929 . S
H2893 C2902 0.930 . S
H2894 C2904 0.930 . S
H2895 C2907 0.929 . S
H2896 C2910 0.930 . S
H2897 C2912 0.960 . S
H2898 C2912 0.960 . S
H2899 C2912 0.960 . S
C2900 H2892 0.929 . S
C2900 C2901 1.377 . S
C2900 C2902 1.384 . S
C2901 C2900 1.377 . S
C2901 C2907 1.390 . S
C2902 H2893 0.930 . S
C2902 C2900 1.384 . S
C2902 C2903 1.372 . S
C2903 C2902 1.372 . S
C2903 C2904 1.400 . S
C2903 C2908 1.490 . S
C2904 H2894 0.930 . S
C2904 C2903 1.400 . S
C2904 C2907 1.386 . S
H2905 C2921 0.930 . S
H2906 C2922 0.931 . S
C2907 H2895 0.929 . S
C2907 C2901 1.390 . S
C2907 C2904 1.386 . S
C2908 C2903 1.490 . S
C2908 C2910 1.395 . S
C2908 C2911 1.403 . S
H2909 C2915 0.930 . S
C2910 H2896 0.930 . S
C2910 C2908 1.395 . S
C2910 C2913 1.403 . S
C2911 C2908 1.403 . S
C2911 C2912 1.524 . S
C2911 C2915 1.400 . S
C2912 H2897 0.960 . S
C2912 H2898 0.960 . S
C2912 H2899 0.960 . S
C2912 C2911 1.524 . S
C2913 C2910 1.403 . S
C2913 C2914 1.392 . S
C2913 C2917 1.495 . S
C2914 C2913 1.392 . S
C2914 C2915 1.385 . S
C2914 C2916 1.478 . S
C2915 H2909 0.930 . S
C2915 C2911 1.400 . S
C2915 C2914 1.385 . S
C2916 C2914 1.478 . S
C2916 C2918 1.381 . S
C2916 C2922 1.383 . S
C2917 C2913 1.495 . S
C2917 H2923 0.959 . S
C2917 H2924 0.961 . S
C2917 H2925 0.960 . S
C2918 C2916 1.381 . S
C2918 C2919 1.394 1_655 S
C2918 H2926 0.930 . S
C2919 C2918 1.394 1_455 S
C2919 C2920 1.383 . S
C2919 H2927 0.929 . S
C2920 C2919 1.383 . S
C2920 C2921 1.377 . S
C2921 H2905 0.930 . S
C2921 C2920 1.377 . S
C2921 C2922 1.379 1_455 S
C2922 H2906 0.931 . S
C2922 C2916 1.383 . S
C2922 C2921 1.379 1_655 S
H2923 C2917 0.959 . S
H2924 C2917 0.961 . S
H2925 C2917 0.960 . S
H2926 C2918 0.930 . S
H2927 C2919 0.929 . S
H2928 C2936 0.929 . S
H2929 C2938 0.930 . S
H2930 C2940 0.930 . S
H2931 C2943 0.929 . S
H2932 C2946 0.930 . S
H2933 C2948 0.960 . S
H2934 C2948 0.960 . S
H2935 C2948 0.960 . S
C2936 H2928 0.929 . S
C2936 C2937 1.377 . S
C2936 C2938 1.384 . S
C2937 C2936 1.377 . S
C2937 C2943 1.390 . S
C2938 H2929 0.930 . S
C2938 C2936 1.384 . S
C2938 C2939 1.372 . S
C2939 C2938 1.372 . S
C2939 C2940 1.400 . S
C2939 C2944 1.490 . S
C2940 H2930 0.930 . S
C2940 C2939 1.400 . S
C2940 C2943 1.386 . S
H2941 C2957 0.930 . S
H2942 C2958 0.931 . S
C2943 H2931 0.929 . S
C2943 C2937 1.390 . S
C2943 C2940 1.386 . S
C2944 C2939 1.490 . S
C2944 C2946 1.395 . S
C2944 C2947 1.403 . S
H2945 C2951 0.930 . S
C2946 H2932 0.930 . S
C2946 C2944 1.395 . S
C2946 C2949 1.403 . S
C2947 C2944 1.403 . S
C2947 C2948 1.524 . S
C2947 C2951 1.400 . S
C2948 H2933 0.960 . S
C2948 H2934 0.960 . S
C2948 H2935 0.960 . S
C2948 C2947 1.524 . S
C2949 C2946 1.403 . S
C2949 C2950 1.392 . S
C2949 C2953 1.495 . S
C2950 C2949 1.392 . S
C2950 C2951 1.385 . S
C2950 C2952 1.478 . S
C2951 H2945 0.930 . S
C2951 C2947 1.400 . S
C2951 C2950 1.385 . S
C2952 C2950 1.478 . S
C2952 C2954 1.381 . S
C2952 C2958 1.383 . S
C2953 C2949 1.495 . S
C2953 H2959 0.959 . S
C2953 H2960 0.961 . S
C2953 H2961 0.960 . S
C2954 C2952 1.381 . S
C2954 C2955 1.394 . S
C2954 H2962 0.930 . S
C2955 C2954 1.394 . S
C2955 C2956 1.383 . S
C2955 H2963 0.929 . S
C2956 C2955 1.383 . S
C2956 C2957 1.377 . S
C2957 H2941 0.930 . S
C2957 C2956 1.377 . S
C2957 C2958 1.379 . S
C2958 H2942 0.931 . S
C2958 C2952 1.383 . S
C2958 C2957 1.379 . S
H2959 C2953 0.959 . S
H2960 C2953 0.961 . S
H2961 C2953 0.960 . S
H2962 C2954 0.930 . S
H2963 C2955 0.929 . S
H2964 C2972 0.929 . S
H2965 C2974 0.930 . S
H2966 C2976 0.930 . S
H2967 C2979 0.929 . S
H2968 C2982 0.930 . S
H2969 C2984 0.960 . S
H2970 C2984 0.960 . S
H2971 C2984 0.960 . S
C2972 H2964 0.929 . S
C2972 C2973 1.377 . S
C2972 C2974 1.384 . S
C2973 C2972 1.377 . S
C2973 C2979 1.390 . S
C2974 H2965 0.930 . S
C2974 C2972 1.384 . S
C2974 C2975 1.372 . S
C2975 C2974 1.372 . S
C2975 C2976 1.400 . S
C2975 C2980 1.490 . S
C2976 H2966 0.930 . S
C2976 C2975 1.400 . S
C2976 C2979 1.386 . S
H2977 C2993 0.930 . S
H2978 C2994 0.931 . S
C2979 H2967 0.929 . S
C2979 C2973 1.390 . S
C2979 C2976 1.386 . S
C2980 C2975 1.490 . S
C2980 C2982 1.395 . S
C2980 C2983 1.403 . S
H2981 C2987 0.930 . S
C2982 H2968 0.930 . S
C2982 C2980 1.395 . S
C2982 C2985 1.403 . S
C2983 C2980 1.403 . S
C2983 C2984 1.524 . S
C2983 C2987 1.400 . S
C2984 H2969 0.960 . S
C2984 H2970 0.960 . S
C2984 H2971 0.960 . S
C2984 C2983 1.524 . S
C2985 C2982 1.403 . S
C2985 C2986 1.392 . S
C2985 C2989 1.495 . S
C2986 C2985 1.392 . S
C2986 C2987 1.385 . S
C2986 C2988 1.478 . S
C2987 H2981 0.930 . S
C2987 C2983 1.400 . S
C2987 C2986 1.385 . S
C2988 C2986 1.478 . S
C2988 C2990 1.381 . S
C2988 C2994 1.383 . S
C2989 C2985 1.495 . S
C2989 H2995 0.959 . S
C2989 H2996 0.961 . S
C2989 H2997 0.960 . S
C2990 C2988 1.381 . S
C2990 C2991 1.394 . S
C2990 H2998 0.930 . S
C2991 C2990 1.394 . S
C2991 C2992 1.383 . S
C2991 H2999 0.929 . S
C2992 C2991 1.383 . S
C2992 C2993 1.377 . S
C2993 H2977 0.930 . S
C2993 C2992 1.377 . S
C2993 C2994 1.379 . S
C2994 H2978 0.931 . S
C2994 C2988 1.383 . S
C2994 C2993 1.379 . S
H2995 C2989 0.959 . S
H2996 C2989 0.961 . S
H2997 C2989 0.960 . S
H2998 C2990 0.930 . S
H2999 C2991 0.929 . S
H3000 C3008 0.929 . S
H3001 C3010 0.930 . S
H3002 C3012 0.930 . S
H3003 C3015 0.929 . S
H3004 C3018 0.930 . S
H3005 C3020 0.960 . S
H3006 C3020 0.960 . S
H3007 C3020 0.960 . S
C3008 H3000 0.929 . S
C3008 C3009 1.377 . S
C3008 C3010 1.384 . S
C3009 C3008 1.377 . S
C3009 C3015 1.390 . S
C3010 H3001 0.930 . S
C3010 C3008 1.384 . S
C3010 C3011 1.372 . S
C3011 C3010 1.372 . S
C3011 C3012 1.400 . S
C3011 C3016 1.490 . S
C3012 H3002 0.930 . S
C3012 C3011 1.400 . S
C3012 C3015 1.386 . S
H3013 C3029 0.930 . S
H3014 C3030 0.931 . S
C3015 H3003 0.929 . S
C3015 C3009 1.390 . S
C3015 C3012 1.386 . S
C3016 C3011 1.490 . S
C3016 C3018 1.395 . S
C3016 C3019 1.403 . S
H3017 C3023 0.930 . S
C3018 H3004 0.930 . S
C3018 C3016 1.395 . S
C3018 C3021 1.403 . S
C3019 C3016 1.403 . S
C3019 C3020 1.524 . S
C3019 C3023 1.400 . S
C3020 H3005 0.960 . S
C3020 H3006 0.960 . S
C3020 H3007 0.960 . S
C3020 C3019 1.524 . S
C3021 C3018 1.403 . S
C3021 C3022 1.392 . S
C3021 C3025 1.495 . S
C3022 C3021 1.392 . S
C3022 C3023 1.385 . S
C3022 C3024 1.478 . S
C3023 H3017 0.930 . S
C3023 C3019 1.400 . S
C3023 C3022 1.385 . S
C3024 C3022 1.478 . S
C3024 C3026 1.381 . S
C3024 C3030 1.383 . S
C3025 C3021 1.495 . S
C3025 H3031 0.959 . S
C3025 H3032 0.961 . S
C3025 H3033 0.960 . S
C3026 C3024 1.381 . S
C3026 C3027 1.394 . S
C3026 H3034 0.930 . S
C3027 C3026 1.394 . S
C3027 C3028 1.383 . S
C3027 H3035 0.929 . S
C3028 C3027 1.383 . S
C3028 C3029 1.377 . S
C3029 H3013 0.930 . S
C3029 C3028 1.377 . S
C3029 C3030 1.379 . S
C3030 H3014 0.931 . S
C3030 C3024 1.383 . S
C3030 C3029 1.379 . S
H3031 C3025 0.959 . S
H3032 C3025 0.961 . S
H3033 C3025 0.960 . S
H3034 C3026 0.930 . S
H3035 C3027 0.929 . S
H3036 C3044 0.929 . S
H3037 C3046 0.930 . S
H3038 C3048 0.930 . S
H3039 C3051 0.929 . S
H3040 C3054 0.930 . S
H3041 C3056 0.960 . S
H3042 C3056 0.960 . S
H3043 C3056 0.960 . S
C3044 H3036 0.929 . S
C3044 C3045 1.377 . S
C3044 C3046 1.384 . S
C3045 C3044 1.377 . S
C3045 C3051 1.390 . S
C3046 H3037 0.930 . S
C3046 C3044 1.384 . S
C3046 C3047 1.372 . S
C3047 C3046 1.372 . S
C3047 C3048 1.400 . S
C3047 C3052 1.490 . S
C3048 H3038 0.930 . S
C3048 C3047 1.400 . S
C3048 C3051 1.386 . S
H3049 C3065 0.930 . S
H3050 C3066 0.931 . S
C3051 H3039 0.929 . S
C3051 C3045 1.390 . S
C3051 C3048 1.386 . S
C3052 C3047 1.490 . S
C3052 C3054 1.395 . S
C3052 C3055 1.403 . S
H3053 C3059 0.930 . S
C3054 H3040 0.930 . S
C3054 C3052 1.395 . S
C3054 C3057 1.403 . S
C3055 C3052 1.403 . S
C3055 C3056 1.524 . S
C3055 C3059 1.400 . S
C3056 H3041 0.960 . S
C3056 H3042 0.960 . S
C3056 H3043 0.960 . S
C3056 C3055 1.524 . S
C3057 C3054 1.403 . S
C3057 C3058 1.392 . S
C3057 C3061 1.495 . S
C3058 C3057 1.392 . S
C3058 C3059 1.385 . S
C3058 C3060 1.478 . S
C3059 H3053 0.930 . S
C3059 C3055 1.400 . S
C3059 C3058 1.385 . S
C3060 C3058 1.478 . S
C3060 C3062 1.381 . S
C3060 C3066 1.383 . S
C3061 C3057 1.495 . S
C3061 H3067 0.959 . S
C3061 H3068 0.961 . S
C3061 H3069 0.960 . S
C3062 C3060 1.381 . S
C3062 C3063 1.394 . S
C3062 H3070 0.930 . S
C3063 C3062 1.394 . S
C3063 C3064 1.383 . S
C3063 H3071 0.929 . S
C3064 C3063 1.383 . S
C3064 C3065 1.377 . S
C3065 H3049 0.930 . S
C3065 C3064 1.377 . S
C3065 C3066 1.379 . S
C3066 H3050 0.931 . S
C3066 C3060 1.383 . S
C3066 C3065 1.379 . S
H3067 C3061 0.959 . S
H3068 C3061 0.961 . S
H3069 C3061 0.960 . S
H3070 C3062 0.930 . S
H3071 C3063 0.929 . S
H3072 C3080 0.929 . S
H3073 C3082 0.930 . S
H3074 C3084 0.930 . S
H3075 C3087 0.929 . S
H3076 C3090 0.930 . S
H3077 C3092 0.960 . S
H3078 C3092 0.960 . S
H3079 C3092 0.960 . S
C3080 H3072 0.929 . S
C3080 C3081 1.377 . S
C3080 C3082 1.384 . S
C3081 C3080 1.377 . S
C3081 C3087 1.390 . S
C3082 H3073 0.930 . S
C3082 C3080 1.384 . S
C3082 C3083 1.372 . S
C3083 C3082 1.372 . S
C3083 C3084 1.400 . S
C3083 C3088 1.490 . S
C3084 H3074 0.930 . S
C3084 C3083 1.400 . S
C3084 C3087 1.386 . S
H3085 C3101 0.930 . S
H3086 C3102 0.931 . S
C3087 H3075 0.929 . S
C3087 C3081 1.390 . S
C3087 C3084 1.386 . S
C3088 C3083 1.490 . S
C3088 C3090 1.395 . S
C3088 C3091 1.403 . S
H3089 C3095 0.930 . S
C3090 H3076 0.930 . S
C3090 C3088 1.395 . S
C3090 C3093 1.403 . S
C3091 C3088 1.403 . S
C3091 C3092 1.524 . S
C3091 C3095 1.400 . S
C3092 H3077 0.960 . S
C3092 H3078 0.960 . S
C3092 H3079 0.960 . S
C3092 C3091 1.524 . S
C3093 C3090 1.403 . S
C3093 C3094 1.392 . S
C3093 C3097 1.495 . S
C3094 C3093 1.392 . S
C3094 C3095 1.385 . S
C3094 C3096 1.478 . S
C3095 H3089 0.930 . S
C3095 C3091 1.400 . S
C3095 C3094 1.385 . S
C3096 C3094 1.478 . S
C3096 C3098 1.381 . S
C3096 C3102 1.383 . S
C3097 C3093 1.495 . S
C3097 H3103 0.959 . S
C3097 H3104 0.961 . S
C3097 H3105 0.960 . S
C3098 C3096 1.381 . S
C3098 C3099 1.394 . S
C3098 H3106 0.930 . S
C3099 C3098 1.394 . S
C3099 C3100 1.383 . S
C3099 H3107 0.929 . S
C3100 C3099 1.383 . S
C3100 C3101 1.377 . S
C3101 H3085 0.930 . S
C3101 C3100 1.377 . S
C3101 C3102 1.379 . S
C3102 H3086 0.931 . S
C3102 C3096 1.383 . S
C3102 C3101 1.379 . S
H3103 C3097 0.959 . S
H3104 C3097 0.961 . S
H3105 C3097 0.960 . S
H3106 C3098 0.930 . S
H3107 C3099 0.929 . S
H3108 C3116 0.929 . S
H3109 C3118 0.930 . S
H3110 C3120 0.930 . S
H3111 C3123 0.929 . S
H3112 C3126 0.930 . S
H3113 C3128 0.960 . S
H3114 C3128 0.960 . S
H3115 C3128 0.960 . S
C3116 H3108 0.929 . S
C3116 C3117 1.377 . S
C3116 C3118 1.384 . S
C3117 C3116 1.377 . S
C3117 C3123 1.390 . S
C3118 H3109 0.930 . S
C3118 C3116 1.384 . S
C3118 C3119 1.372 . S
C3119 C3118 1.372 . S
C3119 C3120 1.400 . S
C3119 C3124 1.490 . S
C3120 H3110 0.930 . S
C3120 C3119 1.400 . S
C3120 C3123 1.386 . S
H3121 C3137 0.930 . S
H3122 C3138 0.931 . S
C3123 H3111 0.929 . S
C3123 C3117 1.390 . S
C3123 C3120 1.386 . S
C3124 C3119 1.490 . S
C3124 C3126 1.395 . S
C3124 C3127 1.403 . S
H3125 C3131 0.930 . S
C3126 H3112 0.930 . S
C3126 C3124 1.395 . S
C3126 C3129 1.403 . S
C3127 C3124 1.403 . S
C3127 C3128 1.524 . S
C3127 C3131 1.400 . S
C3128 H3113 0.960 . S
C3128 H3114 0.960 . S
C3128 H3115 0.960 . S
C3128 C3127 1.524 . S
C3129 C3126 1.403 . S
C3129 C3130 1.392 . S
C3129 C3133 1.495 . S
C3130 C3129 1.392 . S
C3130 C3131 1.385 . S
C3130 C3132 1.478 . S
C3131 H3125 0.930 . S
C3131 C3127 1.400 . S
C3131 C3130 1.385 . S
C3132 C3130 1.478 . S
C3132 C3134 1.381 . S
C3132 C3138 1.383 . S
C3133 C3129 1.495 . S
C3133 H3139 0.959 . S
C3133 H3140 0.961 . S
C3133 H3141 0.960 . S
C3134 C3132 1.381 . S
C3134 C3135 1.394 . S
C3134 H3142 0.930 . S
C3135 C3134 1.394 . S
C3135 C3136 1.383 . S
C3135 H3143 0.929 . S
C3136 C3135 1.383 . S
C3136 C3137 1.377 . S
C3137 H3121 0.930 . S
C3137 C3136 1.377 . S
C3137 C3138 1.379 . S
C3138 H3122 0.931 . S
C3138 C3132 1.383 . S
C3138 C3137 1.379 . S
H3139 C3133 0.959 . S
H3140 C3133 0.961 . S
H3141 C3133 0.960 . S
H3142 C3134 0.930 . S
H3143 C3135 0.929 . S
H3144 C3152 0.929 . S
H3145 C3154 0.930 . S
H3146 C3156 0.930 . S
H3147 C3159 0.929 . S
H3148 C3162 0.930 . S
H3149 C3164 0.960 . S
H3150 C3164 0.960 . S
H3151 C3164 0.960 . S
C3152 H3144 0.929 . S
C3152 C3153 1.377 . S
C3152 C3154 1.384 . S
C3153 C3152 1.377 . S
C3153 C3159 1.390 . S
C3154 H3145 0.930 . S
C3154 C3152 1.384 . S
C3154 C3155 1.372 . S
C3155 C3154 1.372 . S
C3155 C3156 1.400 . S
C3155 C3160 1.490 . S
C3156 H3146 0.930 . S
C3156 C3155 1.400 . S
C3156 C3159 1.386 . S
H3157 C3173 0.930 . S
H3158 C3174 0.931 . S
C3159 H3147 0.929 . S
C3159 C3153 1.390 . S
C3159 C3156 1.386 . S
C3160 C3155 1.490 . S
C3160 C3162 1.395 . S
C3160 C3163 1.403 . S
H3161 C3167 0.930 . S
C3162 H3148 0.930 . S
C3162 C3160 1.395 . S
C3162 C3165 1.403 . S
C3163 C3160 1.403 . S
C3163 C3164 1.524 . S
C3163 C3167 1.400 . S
C3164 H3149 0.960 . S
C3164 H3150 0.960 . S
C3164 H3151 0.960 . S
C3164 C3163 1.524 . S
C3165 C3162 1.403 . S
C3165 C3166 1.392 . S
C3165 C3169 1.495 . S
C3166 C3165 1.392 . S
C3166 C3167 1.385 . S
C3166 C3168 1.478 . S
C3167 H3161 0.930 . S
C3167 C3163 1.400 . S
C3167 C3166 1.385 . S
C3168 C3166 1.478 . S
C3168 C3170 1.381 . S
C3168 C3174 1.383 . S
C3169 C3165 1.495 . S
C3169 H3175 0.959 . S
C3169 H3176 0.961 . S
C3169 H3177 0.960 . S
C3170 C3168 1.381 . S
C3170 C3171 1.394 . S
C3170 H3178 0.930 . S
C3171 C3170 1.394 . S
C3171 C3172 1.383 . S
C3171 H3179 0.929 . S
C3172 C3171 1.383 . S
C3172 C3173 1.377 . S
C3173 H3157 0.930 . S
C3173 C3172 1.377 . S
C3173 C3174 1.379 . S
C3174 H3158 0.931 . S
C3174 C3168 1.383 . S
C3174 C3173 1.379 . S
H3175 C3169 0.959 . S
H3176 C3169 0.961 . S
H3177 C3169 0.960 . S
H3178 C3170 0.930 . S
H3179 C3171 0.929 . S
H3180 C3188 0.929 . S
H3181 C3190 0.930 . S
H3182 C3192 0.930 . S
H3183 C3195 0.929 . S
H3184 C3198 0.930 . S
H3185 C3200 0.960 . S
H3186 C3200 0.960 . S
H3187 C3200 0.960 . S
C3188 H3180 0.929 . S
C3188 C3189 1.377 . S
C3188 C3190 1.384 . S
C3189 C3188 1.377 . S
C3189 C3195 1.390 . S
C3190 H3181 0.930 . S
C3190 C3188 1.384 . S
C3190 C3191 1.372 . S
C3191 C3190 1.372 . S
C3191 C3192 1.400 . S
C3191 C3196 1.490 . S
C3192 H3182 0.930 . S
C3192 C3191 1.400 . S
C3192 C3195 1.386 . S
H3193 C3209 0.930 . S
H3194 C3210 0.931 . S
C3195 H3183 0.929 . S
C3195 C3189 1.390 . S
C3195 C3192 1.386 . S
C3196 C3191 1.490 . S
C3196 C3198 1.395 . S
C3196 C3199 1.403 . S
H3197 C3203 0.930 . S
C3198 H3184 0.930 . S
C3198 C3196 1.395 . S
C3198 C3201 1.403 . S
C3199 C3196 1.403 . S
C3199 C3200 1.524 . S
C3199 C3203 1.400 . S
C3200 H3185 0.960 . S
C3200 H3186 0.960 . S
C3200 H3187 0.960 . S
C3200 C3199 1.524 . S
C3201 C3198 1.403 . S
C3201 C3202 1.392 . S
C3201 C3205 1.495 . S
C3202 C3201 1.392 . S
C3202 C3203 1.385 . S
C3202 C3204 1.478 . S
C3203 H3197 0.930 . S
C3203 C3199 1.400 . S
C3203 C3202 1.385 . S
C3204 C3202 1.478 . S
C3204 C3206 1.381 . S
C3204 C3210 1.383 . S
C3205 C3201 1.495 . S
C3205 H3211 0.959 . S
C3205 H3212 0.961 . S
C3205 H3213 0.960 . S
C3206 C3204 1.381 . S
C3206 C3207 1.394 . S
C3206 H3214 0.930 . S
C3207 C3206 1.394 . S
C3207 C3208 1.383 . S
C3207 H3215 0.929 . S
C3208 C3207 1.383 . S
C3208 C3209 1.377 . S
C3209 H3193 0.930 . S
C3209 C3208 1.377 . S
C3209 C3210 1.379 . S
C3210 H3194 0.931 . S
C3210 C3204 1.383 . S
C3210 C3209 1.379 . S
H3211 C3205 0.959 . S
H3212 C3205 0.961 . S
H3213 C3205 0.960 . S
H3214 C3206 0.930 . S
H3215 C3207 0.929 . S
H3216 C3224 0.929 . S
H3217 C3226 0.930 . S
H3218 C3228 0.930 . S
H3219 C3231 0.929 . S
H3220 C3234 0.930 . S
H3221 C3236 0.960 . S
H3222 C3236 0.960 . S
H3223 C3236 0.960 . S
C3224 H3216 0.929 . S
C3224 C3225 1.377 . S
C3224 C3226 1.384 . S
C3225 C3224 1.377 . S
C3225 C3231 1.390 . S
C3226 H3217 0.930 . S
C3226 C3224 1.384 . S
C3226 C3227 1.372 . S
C3227 C3226 1.372 . S
C3227 C3228 1.400 . S
C3227 C3232 1.490 . S
C3228 H3218 0.930 . S
C3228 C3227 1.400 . S
C3228 C3231 1.386 . S
H3229 C3245 0.930 . S
H3230 C3246 0.931 . S
C3231 H3219 0.929 . S
C3231 C3225 1.390 . S
C3231 C3228 1.386 . S
C3232 C3227 1.490 . S
C3232 C3234 1.395 . S
C3232 C3235 1.403 . S
H3233 C3239 0.930 . S
C3234 H3220 0.930 . S
C3234 C3232 1.395 . S
C3234 C3237 1.403 . S
C3235 C3232 1.403 . S
C3235 C3236 1.524 . S
C3235 C3239 1.400 . S
C3236 H3221 0.960 . S
C3236 H3222 0.960 . S
C3236 H3223 0.960 . S
C3236 C3235 1.524 . S
C3237 C3234 1.403 . S
C3237 C3238 1.392 . S
C3237 C3241 1.495 . S
C3238 C3237 1.392 . S
C3238 C3239 1.385 . S
C3238 C3240 1.478 . S
C3239 H3233 0.930 . S
C3239 C3235 1.400 . S
C3239 C3238 1.385 . S
C3240 C3238 1.478 . S
C3240 C3242 1.381 . S
C3240 C3246 1.383 . S
C3241 C3237 1.495 . S
C3241 H3247 0.959 . S
C3241 H3248 0.961 . S
C3241 H3249 0.960 . S
C3242 C3240 1.381 . S
C3242 C3243 1.394 . S
C3242 H3250 0.930 . S
C3243 C3242 1.394 . S
C3243 C3244 1.383 . S
C3243 H3251 0.929 . S
C3244 C3243 1.383 . S
C3244 C3245 1.377 . S
C3245 H3229 0.930 . S
C3245 C3244 1.377 . S
C3245 C3246 1.379 . S
C3246 H3230 0.931 . S
C3246 C3240 1.383 . S
C3246 C3245 1.379 . S
H3247 C3241 0.959 . S
H3248 C3241 0.961 . S
H3249 C3241 0.960 . S
H3250 C3242 0.930 . S
H3251 C3243 0.929 . S
H3252 C3260 0.929 . S
H3253 C3262 0.930 . S
H3254 C3264 0.930 . S
H3255 C3267 0.929 . S
H3256 C3270 0.930 . S
H3257 C3272 0.960 . S
H3258 C3272 0.960 . S
H3259 C3272 0.960 . S
C3260 H3252 0.929 . S
C3260 C3261 1.377 . S
C3260 C3262 1.384 . S
C3261 C3260 1.377 . S
C3261 C3267 1.390 . S
C3262 H3253 0.930 . S
C3262 C3260 1.384 . S
C3262 C3263 1.372 . S
C3263 C3262 1.372 . S
C3263 C3264 1.400 . S
C3263 C3268 1.490 . S
C3264 H3254 0.930 . S
C3264 C3263 1.400 . S
C3264 C3267 1.386 . S
H3265 C3281 0.930 . S
H3266 C3282 0.931 . S
C3267 H3255 0.929 . S
C3267 C3261 1.390 . S
C3267 C3264 1.386 . S
C3268 C3263 1.490 . S
C3268 C3270 1.395 . S
C3268 C3271 1.403 . S
H3269 C3275 0.930 . S
C3270 H3256 0.930 . S
C3270 C3268 1.395 . S
C3270 C3273 1.403 . S
C3271 C3268 1.403 . S
C3271 C3272 1.524 . S
C3271 C3275 1.400 . S
C3272 H3257 0.960 . S
C3272 H3258 0.960 . S
C3272 H3259 0.960 . S
C3272 C3271 1.524 . S
C3273 C3270 1.403 . S
C3273 C3274 1.392 . S
C3273 C3277 1.495 . S
C3274 C3273 1.392 . S
C3274 C3275 1.385 . S
C3274 C3276 1.478 . S
C3275 H3269 0.930 . S
C3275 C3271 1.400 . S
C3275 C3274 1.385 . S
C3276 C3274 1.478 . S
C3276 C3278 1.381 . S
C3276 C3282 1.383 . S
C3277 C3273 1.495 . S
C3277 H3283 0.959 . S
C3277 H3284 0.961 . S
C3277 H3285 0.960 . S
C3278 C3276 1.381 . S
C3278 C3279 1.394 . S
C3278 H3286 0.930 . S
C3279 C3278 1.394 . S
C3279 C3280 1.383 . S
C3279 H3287 0.929 . S
C3280 C3279 1.383 . S
C3280 C3281 1.377 . S
C3281 H3265 0.930 . S
C3281 C3280 1.377 . S
C3281 C3282 1.379 . S
C3282 H3266 0.931 . S
C3282 C3276 1.383 . S
C3282 C3281 1.379 . S
H3283 C3277 0.959 . S
H3284 C3277 0.961 . S
H3285 C3277 0.960 . S
H3286 C3278 0.930 . S
H3287 C3279 0.929 . S
H3288 C3296 0.929 . S
H3289 C3298 0.930 . S
H3290 C3300 0.930 . S
H3291 C3303 0.929 . S
H3292 C3306 0.930 . S
H3293 C3308 0.960 . S
H3294 C3308 0.960 . S
H3295 C3308 0.960 . S
C3296 H3288 0.929 . S
C3296 C3297 1.377 . S
C3296 C3298 1.384 . S
C3297 C3296 1.377 . S
C3297 C3303 1.390 . S
C3298 H3289 0.930 . S
C3298 C3296 1.384 . S
C3298 C3299 1.372 . S
C3299 C3298 1.372 . S
C3299 C3300 1.400 . S
C3299 C3304 1.490 . S
C3300 H3290 0.930 . S
C3300 C3299 1.400 . S
C3300 C3303 1.386 . S
H3301 C3317 0.930 . S
H3302 C3318 0.931 . S
C3303 H3291 0.929 . S
C3303 C3297 1.390 . S
C3303 C3300 1.386 . S
C3304 C3299 1.490 . S
C3304 C3306 1.395 . S
C3304 C3307 1.403 . S
H3305 C3311 0.930 . S
C3306 H3292 0.930 . S
C3306 C3304 1.395 . S
C3306 C3309 1.403 . S
C3307 C3304 1.403 . S
C3307 C3308 1.524 . S
C3307 C3311 1.400 . S
C3308 H3293 0.960 . S
C3308 H3294 0.960 . S
C3308 H3295 0.960 . S
C3308 C3307 1.524 . S
C3309 C3306 1.403 . S
C3309 C3310 1.392 . S
C3309 C3313 1.495 . S
C3310 C3309 1.392 . S
C3310 C3311 1.385 . S
C3310 C3312 1.478 . S
C3311 H3305 0.930 . S
C3311 C3307 1.400 . S
C3311 C3310 1.385 . S
C3312 C3310 1.478 . S
C3312 C3314 1.381 . S
C3312 C3318 1.383 . S
C3313 C3309 1.495 . S
C3313 H3319 0.959 . S
C3313 H3320 0.961 . S
C3313 H3321 0.960 . S
C3314 C3312 1.381 . S
C3314 C3315 1.394 1_556 S
C3314 H3322 0.937 . S
C3315 C3314 1.394 1_554 S
C3315 C3316 1.383 1_564 S
C3315 H3323 0.929 . S
C3316 C3315 1.383 1_546 S
C3316 C3317 1.377 . S
C3317 H3301 0.930 . S
C3317 C3316 1.377 . S
C3317 C3318 1.379 1_545 S
C3318 H3302 0.931 . S
C3318 C3312 1.383 . S
C3318 C3317 1.379 1_565 S
H3319 C3313 0.959 . S
H3320 C3313 0.961 . S
H3321 C3313 0.960 . S
H3322 C3314 0.937 . S
H3323 C3315 0.929 . S
H3324 C3332 0.929 . S
H3325 C3334 0.930 . S
H3326 C3336 0.930 . S
H3327 C3339 0.929 . S
H3328 C3342 0.930 . S
H3329 C3344 0.960 . S
H3330 C3344 0.960 . S
H3331 C3344 0.960 . S
C3332 H3324 0.929 . S
C3332 C3333 1.377 . S
C3332 C3334 1.384 . S
C3333 C3332 1.377 . S
C3333 C3339 1.390 . S
C3334 H3325 0.930 . S
C3334 C3332 1.384 . S
C3334 C3335 1.372 . S
C3335 C3334 1.372 . S
C3335 C3336 1.400 . S
C3335 C3340 1.490 . S
C3336 H3326 0.930 . S
C3336 C3335 1.400 . S
C3336 C3339 1.386 . S
H3337 C3353 0.930 . S
H3338 C3354 0.931 . S
C3339 H3327 0.929 . S
C3339 C3333 1.390 . S
C3339 C3336 1.386 . S
C3340 C3335 1.490 . S
C3340 C3342 1.395 . S
C3340 C3343 1.403 . S
H3341 C3347 0.930 . S
C3342 H3328 0.930 . S
C3342 C3340 1.395 . S
C3342 C3345 1.403 . S
C3343 C3340 1.403 . S
C3343 C3344 1.524 . S
C3343 C3347 1.400 . S
C3344 H3329 0.960 . S
C3344 H3330 0.960 . S
C3344 H3331 0.960 . S
C3344 C3343 1.524 . S
C3345 C3342 1.403 . S
C3345 C3346 1.392 . S
C3345 C3349 1.495 . S
C3346 C3345 1.392 . S
C3346 C3347 1.385 . S
C3346 C3348 1.478 . S
C3347 H3341 0.930 . S
C3347 C3343 1.400 . S
C3347 C3346 1.385 . S
C3348 C3346 1.478 . S
C3348 C3350 1.381 . S
C3348 C3354 1.383 . S
C3349 C3345 1.495 . S
C3349 H3355 0.959 . S
C3349 H3356 0.961 . S
C3349 H3357 0.960 . S
C3350 C3348 1.381 . S
C3350 C3351 1.394 . S
C3350 H3358 0.930 . S
C3351 C3350 1.394 . S
C3351 C3352 1.383 . S
C3351 H3359 0.929 . S
C3352 C3351 1.383 . S
C3352 C3353 1.377 . S
C3353 H3337 0.930 . S
C3353 C3352 1.377 . S
C3353 C3354 1.379 . S
C3354 H3338 0.931 . S
C3354 C3348 1.383 . S
C3354 C3353 1.379 . S
H3355 C3349 0.959 . S
H3356 C3349 0.961 . S
H3357 C3349 0.960 . S
H3358 C3350 0.930 . S
H3359 C3351 0.929 . S
H3360 C3368 0.929 . S
H3361 C3370 0.930 . S
H3362 C3372 0.930 . S
H3363 C3375 0.929 . S
H3364 C3378 0.930 . S
H3365 C3380 0.960 . S
H3366 C3380 0.960 1_565 S
H3367 C3380 0.960 . S
C3368 H3360 0.929 . S
C3368 C3369 1.377 1_565 S
C3368 C3370 1.384 . S
C3369 C3368 1.377 1_545 S
C3369 C3375 1.390 . S
C3370 H3361 0.930 . S
C3370 C3368 1.384 . S
C3370 C3371 1.372 1_565 S
C3371 C3370 1.372 1_545 S
C3371 C3372 1.400 . S
C3371 C3376 1.490 . S
C3372 H3362 0.930 . S
C3372 C3371 1.400 . S
C3372 C3375 1.386 . S
H3373 C3389 0.930 . S
H3374 C3390 0.931 . S
C3375 H3363 0.929 . S
C3375 C3369 1.390 . S
C3375 C3372 1.386 . S
C3376 C3371 1.490 . S
C3376 C3378 1.395 . S
C3376 C3379 1.403 . S
H3377 C3383 0.930 . S
C3378 H3364 0.930 . S
C3378 C3376 1.395 . S
C3378 C3381 1.403 . S
C3379 C3376 1.403 . S
C3379 C3380 1.524 . S
C3379 C3383 1.400 . S
C3380 H3365 0.960 . S
C3380 H3366 0.960 1_545 S
C3380 H3367 0.960 . S
C3380 C3379 1.524 . S
C3381 C3378 1.403 . S
C3381 C3382 1.392 . S
C3381 C3385 1.495 . S
C3382 C3381 1.392 . S
C3382 C3383 1.385 . S
C3382 C3384 1.478 . S
C3383 H3377 0.930 . S
C3383 C3379 1.400 . S
C3383 C3382 1.385 . S
C3384 C3382 1.478 . S
C3384 C3386 1.381 1_545 S
C3384 C3390 1.383 . S
C3385 C3381 1.495 . S
C3385 H3391 0.959 . S
C3385 H3392 0.961 . S
C3385 H3393 0.960 1_545 S
C3386 C3384 1.381 1_565 S
C3386 C3387 1.394 . S
C3386 H3394 0.930 . S
C3387 C3386 1.394 . S
C3387 C3388 1.383 1_565 S
C3387 H3395 0.929 . S
C3388 C3387 1.383 1_545 S
C3388 C3389 1.377 . S
C3389 H3373 0.930 . S
C3389 C3388 1.377 . S
C3389 C3390 1.379 . S
C3390 H3374 0.931 . S
C3390 C3384 1.383 . S
C3390 C3389 1.379 . S
H3391 C3385 0.959 . S
H3392 C3385 0.961 . S
H3393 C3385 0.960 1_565 S
H3394 C3386 0.930 . S
H3395 C3387 0.929 . S
H3396 C3404 0.929 . S
H3397 C3406 0.930 . S
H3398 C3408 0.930 . S
H3399 C3411 0.929 . S
H3400 C3414 0.930 . S
H3401 C3416 0.960 . S
H3402 C3416 0.960 . S
H3403 C3416 0.960 . S
C3404 H3396 0.929 . S
C3404 C3405 1.377 . S
C3404 C3406 1.384 . S
C3405 C3404 1.377 . S
C3405 C3411 1.390 . S
C3406 H3397 0.930 . S
C3406 C3404 1.384 . S
C3406 C3407 1.372 . S
C3407 C3406 1.372 . S
C3407 C3408 1.400 . S
C3407 C3412 1.490 . S
C3408 H3398 0.930 . S
C3408 C3407 1.400 . S
C3408 C3411 1.386 . S
H3409 C3425 0.930 . S
H3410 C3426 0.931 . S
C3411 H3399 0.929 . S
C3411 C3405 1.390 . S
C3411 C3408 1.386 . S
C3412 C3407 1.490 . S
C3412 C3414 1.395 . S
C3412 C3415 1.403 . S
H3413 C3419 0.930 . S
C3414 H3400 0.930 . S
C3414 C3412 1.395 . S
C3414 C3417 1.403 . S
C3415 C3412 1.403 . S
C3415 C3416 1.524 . S
C3415 C3419 1.400 . S
C3416 H3401 0.960 . S
C3416 H3402 0.960 . S
C3416 H3403 0.960 . S
C3416 C3415 1.524 . S
C3417 C3414 1.403 . S
C3417 C3418 1.392 . S
C3417 C3421 1.495 . S
C3418 C3417 1.392 . S
C3418 C3419 1.385 . S
C3418 C3420 1.478 . S
C3419 H3413 0.930 . S
C3419 C3415 1.400 . S
C3419 C3418 1.385 . S
C3420 C3418 1.478 . S
C3420 C3422 1.381 . S
C3420 C3426 1.383 . S
C3421 C3417 1.495 . S
C3421 H3427 0.959 . S
C3421 H3428 0.961 . S
C3421 H3429 0.960 . S
C3422 C3420 1.381 . S
C3422 C3423 1.394 . S
C3422 H3430 0.930 . S
C3423 C3422 1.394 . S
C3423 C3424 1.383 . S
C3423 H3431 0.929 . S
C3424 C3423 1.383 . S
C3424 C3425 1.377 . S
C3425 H3409 0.930 . S
C3425 C3424 1.377 . S
C3425 C3426 1.379 . S
C3426 H3410 0.931 . S
C3426 C3420 1.383 . S
C3426 C3425 1.379 . S
H3427 C3421 0.959 . S
H3428 C3421 0.961 . S
H3429 C3421 0.960 . S
H3430 C3422 0.930 . S
H3431 C3423 0.929 . S
H3432 C3440 0.929 . S
H3433 C3442 0.930 . S
H3434 C3444 0.930 . S
H3435 C3447 0.929 . S
H3436 C3450 0.930 . S
H3437 C3452 0.960 . S
H3438 C3452 0.960 . S
H3439 C3452 0.960 . S
C3440 H3432 0.929 . S
C3440 C3441 1.377 . S
C3440 C3442 1.384 . S
C3441 C3440 1.377 . S
C3441 C3447 1.390 . S
C3442 H3433 0.930 . S
C3442 C3440 1.384 . S
C3442 C3443 1.372 . S
C3443 C3442 1.372 . S
C3443 C3444 1.400 . S
C3443 C3448 1.490 . S
C3444 H3434 0.930 . S
C3444 C3443 1.400 . S
C3444 C3447 1.386 . S
H3445 C3461 0.930 . S
H3446 C3462 0.931 . S
C3447 H3435 0.929 . S
C3447 C3441 1.390 . S
C3447 C3444 1.386 . S
C3448 C3443 1.490 . S
C3448 C3450 1.395 . S
C3448 C3451 1.403 . S
H3449 C3455 0.930 . S
C3450 H3436 0.930 . S
C3450 C3448 1.395 . S
C3450 C3453 1.403 . S
C3451 C3448 1.403 . S
C3451 C3452 1.524 . S
C3451 C3455 1.400 . S
C3452 H3437 0.960 . S
C3452 H3438 0.960 . S
C3452 H3439 0.960 . S
C3452 C3451 1.524 . S
C3453 C3450 1.403 . S
C3453 C3454 1.392 . S
C3453 C3457 1.495 . S
C3454 C3453 1.392 . S
C3454 C3455 1.385 . S
C3454 C3456 1.478 . S
C3455 H3449 0.930 . S
C3455 C3451 1.400 . S
C3455 C3454 1.385 . S
C3456 C3454 1.478 . S
C3456 C3458 1.381 . S
C3456 C3462 1.383 . S
C3457 C3453 1.495 . S
C3457 H3463 0.959 . S
C3457 H3464 0.961 . S
C3457 H3465 0.960 . S
C3458 C3456 1.381 . S
C3458 C3459 1.394 . S
C3458 H3466 0.930 . S
C3459 C3458 1.394 . S
C3459 C3460 1.383 . S
C3459 H3467 0.929 . S
C3460 C3459 1.383 . S
C3460 C3461 1.377 . S
C3461 H3445 0.930 . S
C3461 C3460 1.377 . S
C3461 C3462 1.379 . S
C3462 H3446 0.931 . S
C3462 C3456 1.383 . S
C3462 C3461 1.379 . S
H3463 C3457 0.959 . S
H3464 C3457 0.961 . S
H3465 C3457 0.960 . S
H3466 C3458 0.930 . S
H3467 C3459 0.929 . S
H3468 C3476 0.929 . S
H3469 C3478 0.930 . S
H3470 C3480 0.930 . S
H3471 C3483 0.929 . S
H3472 C3486 0.930 . S
H3473 C3488 0.960 . S
H3474 C3488 0.960 . S
H3475 C3488 0.960 . S
C3476 H3468 0.929 . S
C3476 C3477 1.377 . S
C3476 C3478 1.384 . S
C3477 C3476 1.377 . S
C3477 C3483 1.390 . S
C3478 H3469 0.930 . S
C3478 C3476 1.384 . S
C3478 C3479 1.372 . S
C3479 C3478 1.372 . S
C3479 C3480 1.400 . S
C3479 C3484 1.490 . S
C3480 H3470 0.930 . S
C3480 C3479 1.400 . S
C3480 C3483 1.386 . S
H3481 C3497 0.930 . S
H3482 C3498 0.931 . S
C3483 H3471 0.929 . S
C3483 C3477 1.390 . S
C3483 C3480 1.386 . S
C3484 C3479 1.490 . S
C3484 C3486 1.395 . S
C3484 C3487 1.403 . S
H3485 C3491 0.930 . S
C3486 H3472 0.930 . S
C3486 C3484 1.395 . S
C3486 C3489 1.403 . S
C3487 C3484 1.403 . S
C3487 C3488 1.524 . S
C3487 C3491 1.400 . S
C3488 H3473 0.960 . S
C3488 H3474 0.960 . S
C3488 H3475 0.960 . S
C3488 C3487 1.524 . S
C3489 C3486 1.403 . S
C3489 C3490 1.392 . S
C3489 C3493 1.495 . S
C3490 C3489 1.392 . S
C3490 C3491 1.385 . S
C3490 C3492 1.478 . S
C3491 H3485 0.930 . S
C3491 C3487 1.400 . S
C3491 C3490 1.385 . S
C3492 C3490 1.478 . S
C3492 C3494 1.381 . S
C3492 C3498 1.383 . S
C3493 C3489 1.495 . S
C3493 H3499 0.959 . S
C3493 H3500 0.961 . S
C3493 H3501 0.960 . S
C3494 C3492 1.381 . S
C3494 C3495 1.394 . S
C3494 H3502 0.930 . S
C3495 C3494 1.394 . S
C3495 C3496 1.383 . S
C3495 H3503 0.929 . S
C3496 C3495 1.383 . S
C3496 C3497 1.377 . S
C3497 H3481 0.930 . S
C3497 C3496 1.377 . S
C3497 C3498 1.379 . S
C3498 H3482 0.931 . S
C3498 C3492 1.383 . S
C3498 C3497 1.379 . S
H3499 C3493 0.959 . S
H3500 C3493 0.961 . S
H3501 C3493 0.960 . S
H3502 C3494 0.930 . S
H3503 C3495 0.929 . S
H3504 C3512 0.929 . S
H3505 C3514 0.930 . S
H3506 C3516 0.930 . S
H3507 C3519 0.929 . S
H3508 C3522 0.930 . S
H3509 C3524 0.960 . S
H3510 C3524 0.960 . S
H3511 C3524 0.960 . S
C3512 H3504 0.929 . S
C3512 C3513 1.377 . S
C3512 C3514 1.384 . S
C3513 C3512 1.377 . S
C3513 C3519 1.390 1_565 S
C3514 H3505 0.930 . S
C3514 C3512 1.384 . S
C3514 C3515 1.372 1_565 S
C3515 C3514 1.372 1_545 S
C3515 C3516 1.400 . S
C3515 C3520 1.490 . S
C3516 H3506 0.930 . S
C3516 C3515 1.400 . S
C3516 C3519 1.386 . S
H3517 C3533 0.930 . S
H3518 C3534 0.931 . S
C3519 H3507 0.929 . S
C3519 C3513 1.390 1_545 S
C3519 C3516 1.386 . S
C3520 C3515 1.490 . S
C3520 C3522 1.395 . S
C3520 C3523 1.403 . S
H3521 C3527 0.930 . S
C3522 H3508 0.930 . S
C3522 C3520 1.395 . S
C3522 C3525 1.403 . S
C3523 C3520 1.403 . S
C3523 C3524 1.524 1_545 S
C3523 C3527 1.400 . S
C3524 H3509 0.960 . S
C3524 H3510 0.960 . S
C3524 H3511 0.960 . S
C3524 C3523 1.524 1_565 S
C3525 C3522 1.403 . S
C3525 C3526 1.392 . S
C3525 C3529 1.495 . S
C3526 C3525 1.392 . S
C3526 C3527 1.385 . S
C3526 C3528 1.478 . S
C3527 H3521 0.930 . S
C3527 C3523 1.400 . S
C3527 C3526 1.385 . S
C3528 C3526 1.478 . S
C3528 C3530 1.381 . S
C3528 C3534 1.383 . S
C3529 C3525 1.495 . S
C3529 H3535 0.959 . S
C3529 H3536 0.961 . S
C3529 H3537 0.960 . S
C3530 C3528 1.381 . S
C3530 C3531 1.394 . S
C3530 H3538 0.930 . S
C3531 C3530 1.394 . S
C3531 C3532 1.383 . S
C3531 H3539 0.929 . S
C3532 C3531 1.383 . S
C3532 C3533 1.377 . S
C3533 H3517 0.930 . S
C3533 C3532 1.377 . S
C3533 C3534 1.379 . S
C3534 H3518 0.931 . S
C3534 C3528 1.383 . S
C3534 C3533 1.379 . S
H3535 C3529 0.959 . S
H3536 C3529 0.961 . S
H3537 C3529 0.960 . S
H3538 C3530 0.930 . S
H3539 C3531 0.929 . S
H3540 C3548 0.929 . S
H3541 C3550 0.930 . S
H3542 C3552 0.930 . S
H3543 C3555 0.929 . S
H3544 C3558 0.930 . S
H3545 C3560 0.960 . S
H3546 C3560 0.960 . S
H3547 C3560 0.960 . S
C3548 H3540 0.929 . S
C3548 C3549 1.377 . S
C3548 C3550 1.384 . S
C3549 C3548 1.377 . S
C3549 C3555 1.390 . S
C3550 H3541 0.930 . S
C3550 C3548 1.384 . S
C3550 C3551 1.372 . S
C3551 C3550 1.372 . S
C3551 C3552 1.400 . S
C3551 C3556 1.490 . S
C3552 H3542 0.930 . S
C3552 C3551 1.400 . S
C3552 C3555 1.386 . S
H3553 C3569 0.930 . S
H3554 C3570 0.931 . S
C3555 H3543 0.929 . S
C3555 C3549 1.390 . S
C3555 C3552 1.386 . S
C3556 C3551 1.490 . S
C3556 C3558 1.395 . S
C3556 C3559 1.403 . S
H3557 C3563 0.930 . S
C3558 H3544 0.930 . S
C3558 C3556 1.395 . S
C3558 C3561 1.403 . S
C3559 C3556 1.403 . S
C3559 C3560 1.524 . S
C3559 C3563 1.400 . S
C3560 H3545 0.960 . S
C3560 H3546 0.960 . S
C3560 H3547 0.960 . S
C3560 C3559 1.524 . S
C3561 C3558 1.403 . S
C3561 C3562 1.392 . S
C3561 C3565 1.495 . S
C3562 C3561 1.392 . S
C3562 C3563 1.385 . S
C3562 C3564 1.478 . S
C3563 H3557 0.930 . S
C3563 C3559 1.400 . S
C3563 C3562 1.385 . S
C3564 C3562 1.478 . S
C3564 C3566 1.381 . S
C3564 C3570 1.383 . S
C3565 C3561 1.495 . S
C3565 H3571 0.959 . S
C3565 H3572 0.961 . S
C3565 H3573 0.960 . S
C3566 C3564 1.381 . S
C3566 C3567 1.394 . S
C3566 H3574 0.930 . S
C3567 C3566 1.394 . S
C3567 C3568 1.383 . S
C3567 H3575 0.929 . S
C3568 C3567 1.383 . S
C3568 C3569 1.377 . S
C3569 H3553 0.930 . S
C3569 C3568 1.377 . S
C3569 C3570 1.379 . S
C3570 H3554 0.931 . S
C3570 C3564 1.383 . S
C3570 C3569 1.379 . S
H3571 C3565 0.959 . S
H3572 C3565 0.961 . S
H3573 C3565 0.960 . S
H3574 C3566 0.930 . S
H3575 C3567 0.929 . S
H3576 C3584 0.929 . S
H3577 C3586 0.930 . S
H3578 C3588 0.930 . S
H3579 C3591 0.929 . S
H3580 C3594 0.930 . S
H3581 C3596 0.960 . S
H3582 C3596 0.960 1_545 S
H3583 C3596 0.960 . S
C3584 H3576 0.929 . S
C3584 C3585 1.377 . S
C3584 C3586 1.384 . S
C3585 C3584 1.377 . S
C3585 C3591 1.390 . S
C3586 H3577 0.930 . S
C3586 C3584 1.384 . S
C3586 C3587 1.372 . S
C3587 C3586 1.372 . S
C3587 C3588 1.400 . S
C3587 C3592 1.490 . S
C3588 H3578 0.930 . S
C3588 C3587 1.400 . S
C3588 C3591 1.386 . S
H3589 C3605 0.930 . S
H3590 C3606 0.931 . S
C3591 H3579 0.929 . S
C3591 C3585 1.390 . S
C3591 C3588 1.386 . S
C3592 C3587 1.490 . S
C3592 C3594 1.395 . S
C3592 C3595 1.403 . S
H3593 C3599 0.930 . S
C3594 H3580 0.930 . S
C3594 C3592 1.395 . S
C3594 C3597 1.403 . S
C3595 C3592 1.403 . S
C3595 C3596 1.524 1_545 S
C3595 C3599 1.400 . S
C3596 H3581 0.960 . S
C3596 H3582 0.960 1_565 S
C3596 H3583 0.960 . S
C3596 C3595 1.524 1_565 S
C3597 C3594 1.403 . S
C3597 C3598 1.392 . S
C3597 C3601 1.495 . S
C3598 C3597 1.392 . S
C3598 C3599 1.385 . S
C3598 C3600 1.478 . S
C3599 H3593 0.930 . S
C3599 C3595 1.400 . S
C3599 C3598 1.385 . S
C3600 C3598 1.478 . S
C3600 C3602 1.381 . S
C3600 C3606 1.383 . S
C3601 C3597 1.495 . S
C3601 H3607 0.959 . S
C3601 H3608 0.961 . S
C3601 H3609 0.960 . S
C3602 C3600 1.381 . S
C3602 C3603 1.394 . S
C3602 H3610 0.930 . S
C3603 C3602 1.394 . S
C3603 C3604 1.383 . S
C3603 H3611 0.929 . S
C3604 C3603 1.383 . S
C3604 C3605 1.377 . S
C3605 H3589 0.930 . S
C3605 C3604 1.377 . S
C3605 C3606 1.379 . S
C3606 H3590 0.931 . S
C3606 C3600 1.383 . S
C3606 C3605 1.379 . S
H3607 C3601 0.959 . S
H3608 C3601 0.961 . S
H3609 C3601 0.960 . S
H3610 C3602 0.930 . S
H3611 C3603 0.929 . S
H3612 C3620 0.929 . S
H3613 C3622 0.930 . S
H3614 C3624 0.930 . S
H3615 C3627 0.929 . S
H3616 C3630 0.930 . S
H3617 C3632 0.960 . S
H3618 C3632 0.960 . S
H3619 C3632 0.960 . S
C3620 H3612 0.929 . S
C3620 C3621 1.377 . S
C3620 C3622 1.384 . S
C3621 C3620 1.377 . S
C3621 C3627 1.390 . S
C3622 H3613 0.930 . S
C3622 C3620 1.384 . S
C3622 C3623 1.372 . S
C3623 C3622 1.372 . S
C3623 C3624 1.400 . S
C3623 C3628 1.490 . S
C3624 H3614 0.930 . S
C3624 C3623 1.400 . S
C3624 C3627 1.386 . S
H3625 C3641 0.930 . S
H3626 C3642 0.931 . S
C3627 H3615 0.929 . S
C3627 C3621 1.390 . S
C3627 C3624 1.386 . S
C3628 C3623 1.490 . S
C3628 C3630 1.395 . S
C3628 C3631 1.403 . S
H3629 C3635 0.930 . S
C3630 H3616 0.930 . S
C3630 C3628 1.395 . S
C3630 C3633 1.403 . S
C3631 C3628 1.403 . S
C3631 C3632 1.524 . S
C3631 C3635 1.400 . S
C3632 H3617 0.960 . S
C3632 H3618 0.960 . S
C3632 H3619 0.960 . S
C3632 C3631 1.524 . S
C3633 C3630 1.403 . S
C3633 C3634 1.392 . S
C3633 C3637 1.495 . S
C3634 C3633 1.392 . S
C3634 C3635 1.385 . S
C3634 C3636 1.478 . S
C3635 H3629 0.930 . S
C3635 C3631 1.400 . S
C3635 C3634 1.385 . S
C3636 C3634 1.478 . S
C3636 C3638 1.381 . S
C3636 C3642 1.383 . S
C3637 C3633 1.495 . S
C3637 H3643 0.959 . S
C3637 H3644 0.961 . S
C3637 H3645 0.960 . S
C3638 C3636 1.381 . S
C3638 C3639 1.394 . S
C3638 H3646 0.930 . S
C3639 C3638 1.394 . S
C3639 C3640 1.383 . S
C3639 H3647 0.929 . S
C3640 C3639 1.383 . S
C3640 C3641 1.377 . S
C3641 H3625 0.930 . S
C3641 C3640 1.377 . S
C3641 C3642 1.379 . S
C3642 H3626 0.931 . S
C3642 C3636 1.383 . S
C3642 C3641 1.379 . S
H3643 C3637 0.959 . S
H3644 C3637 0.961 . S
H3645 C3637 0.960 . S
H3646 C3638 0.930 . S
H3647 C3639 0.929 . S
H3648 C3656 0.929 . S
H3649 C3658 0.930 . S
H3650 C3660 0.930 1_556 S
H3651 C3663 0.929 1_556 S
H3652 C3666 0.930 . S
H3653 C3668 0.960 . S
H3654 C3668 0.960 1_554 S
H3655 C3668 0.960 . S
C3656 H3648 0.929 . S
C3656 C3657 1.377 . S
C3656 C3658 1.384 . S
C3657 C3656 1.377 . S
C3657 C3663 1.390 . S
C3658 H3649 0.930 . S
C3658 C3656 1.384 . S
C3658 C3659 1.372 . S
C3659 C3658 1.372 . S
C3659 C3660 1.400 . S
C3659 C3664 1.490 . S
C3660 H3650 0.930 1_554 S
C3660 C3659 1.400 . S
C3660 C3663 1.386 . S
H3661 C3677 0.930 . S
H3662 C3678 0.931 . S
C3663 H3651 0.929 1_554 S
C3663 C3657 1.390 . S
C3663 C3660 1.386 . S
C3664 C3659 1.490 . S
C3664 C3666 1.395 . S
C3664 C3667 1.403 . S
H3665 C3671 0.930 1_556 S
C3666 H3652 0.930 . S
C3666 C3664 1.395 . S
C3666 C3669 1.403 . S
C3667 C3664 1.403 . S
C3667 C3668 1.524 1_554 S
C3667 C3671 1.400 . S
C3668 H3653 0.960 . S
C3668 H3654 0.960 1_556 S
C3668 H3655 0.960 . S
C3668 C3667 1.524 1_556 S
C3669 C3666 1.403 . S
C3669 C3670 1.392 . S
C3669 C3673 1.495 . S
C3670 C3669 1.392 . S
C3670 C3671 1.385 . S
C3670 C3672 1.478 . S
C3671 H3665 0.930 1_554 S
C3671 C3667 1.400 . S
C3671 C3670 1.385 . S
C3672 C3670 1.478 . S
C3672 C3674 1.381 . S
C3672 C3678 1.383 1_554 S
C3673 C3669 1.495 . S
C3673 H3679 0.959 . S
C3673 H3680 0.961 . S
C3673 H3681 0.960 . S
C3674 C3672 1.381 . S
C3674 C3675 1.394 . S
C3674 H3682 0.930 . S
C3675 C3674 1.394 . S
C3675 C3676 1.383 . S
C3675 H3683 0.929 . S
C3676 C3675 1.383 . S
C3676 C3677 1.377 1_554 S
C3677 H3661 0.930 . S
C3677 C3676 1.377 1_556 S
C3677 C3678 1.379 . S
C3678 H3662 0.931 . S
C3678 C3672 1.383 1_556 S
C3678 C3677 1.379 . S
H3679 C3673 0.959 . S
H3680 C3673 0.961 . S
H3681 C3673 0.960 . S
H3682 C3674 0.930 . S
H3683 C3675 0.929 . S
H3684 C3692 0.929 . S
H3685 C3694 0.930 . S
H3686 C3696 0.930 . S
H3687 C3699 0.929 . S
H3688 C3702 0.930 . S
H3689 C3704 0.960 . S
H3690 C3704 0.960 . S
H3691 C3704 0.960 . S
C3692 H3684 0.929 . S
C3692 C3693 1.377 . S
C3692 C3694 1.384 . S
C3693 C3692 1.377 . S
C3693 C3699 1.390 . S
C3694 H3685 0.930 . S
C3694 C3692 1.384 . S
C3694 C3695 1.372 . S
C3695 C3694 1.372 . S
C3695 C3696 1.400 . S
C3695 C3700 1.490 . S
C3696 H3686 0.930 . S
C3696 C3695 1.400 . S
C3696 C3699 1.386 . S
H3697 C3713 0.930 . S
H3698 C3714 0.931 . S
C3699 H3687 0.929 . S
C3699 C3693 1.390 . S
C3699 C3696 1.386 . S
C3700 C3695 1.490 . S
C3700 C3702 1.395 . S
C3700 C3703 1.403 . S
H3701 C3707 0.930 . S
C3702 H3688 0.930 . S
C3702 C3700 1.395 . S
C3702 C3705 1.403 . S
C3703 C3700 1.403 . S
C3703 C3704 1.524 . S
C3703 C3707 1.400 . S
C3704 H3689 0.960 . S
C3704 H3690 0.960 . S
C3704 H3691 0.960 . S
C3704 C3703 1.524 . S
C3705 C3702 1.403 . S
C3705 C3706 1.392 . S
C3705 C3709 1.495 1_554 S
C3706 C3705 1.392 . S
C3706 C3707 1.385 . S
C3706 C3708 1.478 . S
C3707 H3701 0.930 . S
C3707 C3703 1.400 . S
C3707 C3706 1.385 . S
C3708 C3706 1.478 . S
C3708 C3710 1.381 . S
C3708 C3714 1.383 . S
C3709 C3705 1.495 1_556 S
C3709 H3715 0.959 . S
C3709 H3716 0.961 . S
C3709 H3717 0.960 . S
C3710 C3708 1.381 . S
C3710 C3711 1.394 . S
C3710 H3718 0.930 . S
C3711 C3710 1.394 . S
C3711 C3712 1.383 . S
C3711 H3719 0.929 . S
C3712 C3711 1.383 . S
C3712 C3713 1.377 . S
C3713 H3697 0.930 . S
C3713 C3712 1.377 . S
C3713 C3714 1.379 . S
C3714 H3698 0.931 . S
C3714 C3708 1.383 . S
C3714 C3713 1.379 . S
H3715 C3709 0.959 . S
H3716 C3709 0.961 . S
H3717 C3709 0.960 . S
H3718 C3710 0.930 . S
H3719 C3711 0.929 . S
H3720 C3728 0.929 . S
H3721 C3730 0.930 . S
H3722 C3732 0.930 . S
H3723 C3735 0.929 . S
H3724 C3738 0.930 . S
H3725 C3740 0.960 . S
H3726 C3740 0.960 . S
H3727 C3740 0.960 . S
C3728 H3720 0.929 . S
C3728 C3729 1.377 . S
C3728 C3730 1.384 . S
C3729 C3728 1.377 . S
C3729 C3735 1.390 . S
C3730 H3721 0.930 . S
C3730 C3728 1.384 . S
C3730 C3731 1.372 . S
C3731 C3730 1.372 . S
C3731 C3732 1.400 . S
C3731 C3736 1.490 . S
C3732 H3722 0.930 . S
C3732 C3731 1.400 . S
C3732 C3735 1.386 . S
H3733 C3749 0.930 . S
H3734 C3750 0.931 . S
C3735 H3723 0.929 . S
C3735 C3729 1.390 . S
C3735 C3732 1.386 . S
C3736 C3731 1.490 . S
C3736 C3738 1.395 . S
C3736 C3739 1.403 . S
H3737 C3743 0.930 . S
C3738 H3724 0.930 . S
C3738 C3736 1.395 . S
C3738 C3741 1.403 . S
C3739 C3736 1.403 . S
C3739 C3740 1.524 . S
C3739 C3743 1.400 . S
C3740 H3725 0.960 . S
C3740 H3726 0.960 . S
C3740 H3727 0.960 . S
C3740 C3739 1.524 . S
C3741 C3738 1.403 . S
C3741 C3742 1.392 . S
C3741 C3745 1.495 . S
C3742 C3741 1.392 . S
C3742 C3743 1.385 . S
C3742 C3744 1.478 . S
C3743 H3737 0.930 . S
C3743 C3739 1.400 . S
C3743 C3742 1.385 . S
C3744 C3742 1.478 . S
C3744 C3746 1.381 . S
C3744 C3750 1.383 . S
C3745 C3741 1.495 . S
C3745 H3751 0.959 . S
C3745 H3752 0.961 . S
C3745 H3753 0.960 . S
C3746 C3744 1.381 . S
C3746 C3747 1.394 . S
C3746 H3754 0.930 . S
C3747 C3746 1.394 . S
C3747 C3748 1.383 . S
C3747 H3755 0.929 . S
C3748 C3747 1.383 . S
C3748 C3749 1.377 . S
C3749 H3733 0.930 . S
C3749 C3748 1.377 . S
C3749 C3750 1.379 . S
C3750 H3734 0.931 . S
C3750 C3744 1.383 . S
C3750 C3749 1.379 . S
H3751 C3745 0.959 . S
H3752 C3745 0.961 . S
H3753 C3745 0.960 . S
H3754 C3746 0.930 . S
H3755 C3747 0.929 . S
H3756 C3764 0.929 . S
H3757 C3766 0.930 . S
H3758 C3768 0.930 . S
H3759 C3771 0.929 . S
H3760 C3774 0.930 . S
H3761 C3776 0.960 . S
H3762 C3776 0.960 . S
H3763 C3776 0.960 . S
C3764 H3756 0.929 . S
C3764 C3765 1.377 . S
C3764 C3766 1.384 . S
C3765 C3764 1.377 . S
C3765 C3771 1.390 . S
C3766 H3757 0.930 . S
C3766 C3764 1.384 . S
C3766 C3767 1.372 . S
C3767 C3766 1.372 . S
C3767 C3768 1.400 . S
C3767 C3772 1.490 . S
C3768 H3758 0.930 . S
C3768 C3767 1.400 . S
C3768 C3771 1.386 . S
H3769 C3785 0.930 . S
H3770 C3786 0.931 . S
C3771 H3759 0.929 . S
C3771 C3765 1.390 . S
C3771 C3768 1.386 . S
C3772 C3767 1.490 . S
C3772 C3774 1.395 . S
C3772 C3775 1.403 . S
H3773 C3779 0.930 . S
C3774 H3760 0.930 . S
C3774 C3772 1.395 . S
C3774 C3777 1.403 . S
C3775 C3772 1.403 . S
C3775 C3776 1.524 . S
C3775 C3779 1.400 . S
C3776 H3761 0.960 . S
C3776 H3762 0.960 . S
C3776 H3763 0.960 . S
C3776 C3775 1.524 . S
C3777 C3774 1.403 . S
C3777 C3778 1.392 . S
C3777 C3781 1.495 . S
C3778 C3777 1.392 . S
C3778 C3779 1.385 . S
C3778 C3780 1.478 . S
C3779 H3773 0.930 . S
C3779 C3775 1.400 . S
C3779 C3778 1.385 . S
C3780 C3778 1.478 . S
C3780 C3782 1.381 . S
C3780 C3786 1.383 . S
C3781 C3777 1.495 . S
C3781 H3787 0.959 . S
C3781 H3788 0.961 . S
C3781 H3789 0.960 . S
C3782 C3780 1.381 . S
C3782 C3783 1.394 . S
C3782 H3790 0.930 . S
C3783 C3782 1.394 . S
C3783 C3784 1.383 . S
C3783 H3791 0.929 . S
C3784 C3783 1.383 . S
C3784 C3785 1.377 . S
C3785 H3769 0.930 . S
C3785 C3784 1.377 . S
C3785 C3786 1.379 . S
C3786 H3770 0.931 . S
C3786 C3780 1.383 . S
C3786 C3785 1.379 . S
H3787 C3781 0.959 . S
H3788 C3781 0.961 . S
H3789 C3781 0.960 . S
H3790 C3782 0.930 . S
H3791 C3783 0.929 . S
H3792 C3800 0.928 . S
H3793 C3802 0.930 . S
H3794 C3804 0.930 . S
H3795 C3807 0.929 . S
H3796 C3810 0.930 . S
H3797 C3812 0.960 . S
H3798 C3812 0.960 . S
H3799 C3812 0.960 . S
C3800 H3792 0.928 . S
C3800 C3801 1.376 . S
C3800 C3802 1.387 1_545 S
C3801 C3800 1.376 . S
C3801 C3807 1.390 . S
C3802 H3793 0.930 . S
C3802 C3800 1.387 1_565 S
C3802 C3803 1.372 . S
C3803 C3802 1.372 . S
C3803 C3804 1.400 . S
C3803 C3808 1.490 . S
C3804 H3794 0.930 . S
C3804 C3803 1.400 . S
C3804 C3807 1.386 1_565 S
H3805 C3821 0.930 . S
H3806 C3822 0.931 . S
C3807 H3795 0.929 . S
C3807 C3801 1.390 . S
C3807 C3804 1.386 1_545 S
C3808 C3803 1.490 . S
C3808 C3810 1.395 . S
C3808 C3811 1.403 . S
H3809 C3815 0.930 . S
C3810 H3796 0.930 . S
C3810 C3808 1.395 . S
C3810 C3813 1.403 . S
C3811 C3808 1.403 . S
C3811 C3812 1.524 . S
C3811 C3815 1.400 . S
C3812 H3797 0.960 . S
C3812 H3798 0.960 . S
C3812 H3799 0.960 . S
C3812 C3811 1.524 . S
C3813 C3810 1.403 . S
C3813 C3814 1.392 . S
C3813 C3817 1.495 . S
C3814 C3813 1.392 . S
C3814 C3815 1.385 . S
C3814 C3816 1.478 . S
C3815 H3809 0.930 . S
C3815 C3811 1.400 . S
C3815 C3814 1.385 . S
C3816 C3814 1.478 . S
C3816 C3818 1.381 . S
C3816 C3822 1.383 . S
C3817 C3813 1.495 . S
C3817 H3823 0.959 . S
C3817 H3824 0.961 . S
C3817 H3825 0.960 . S
C3818 C3816 1.381 . S
C3818 C3819 1.394 . S
C3818 H3826 0.930 . S
C3819 C3818 1.394 . S
C3819 C3820 1.383 . S
C3819 H3827 0.929 . S
C3820 C3819 1.383 . S
C3820 C3821 1.377 . S
C3821 H3805 0.930 . S
C3821 C3820 1.377 . S
C3821 C3822 1.379 . S
C3822 H3806 0.931 . S
C3822 C3816 1.383 . S
C3822 C3821 1.379 . S
H3823 C3817 0.959 . S
H3824 C3817 0.961 . S
H3825 C3817 0.960 . S
H3826 C3818 0.930 . S
H3827 C3819 0.929 . S
H3828 C3836 0.929 . S
H3829 C3838 0.930 . S
H3830 C3840 0.930 . S
H3831 C3843 0.929 . S
H3832 C3846 0.930 . S
H3833 C3848 0.960 . S
H3834 C3848 0.960 . S
H3835 C3848 0.960 . S
C3836 H3828 0.929 . S
C3836 C3837 1.377 . S
C3836 C3838 1.384 . S
C3837 C3836 1.377 . S
C3837 C3843 1.390 . S
C3838 H3829 0.930 . S
C3838 C3836 1.384 . S
C3838 C3839 1.372 . S
C3839 C3838 1.372 . S
C3839 C3840 1.400 . S
C3839 C3844 1.490 . S
C3840 H3830 0.930 . S
C3840 C3839 1.400 . S
C3840 C3843 1.386 . S
H3841 C3857 0.930 . S
H3842 C3858 0.931 . S
C3843 H3831 0.929 . S
C3843 C3837 1.390 . S
C3843 C3840 1.386 . S
C3844 C3839 1.490 . S
C3844 C3846 1.395 . S
C3844 C3847 1.403 . S
H3845 C3851 0.930 . S
C3846 H3832 0.930 . S
C3846 C3844 1.395 . S
C3846 C3849 1.403 . S
C3847 C3844 1.403 . S
C3847 C3848 1.524 . S
C3847 C3851 1.400 . S
C3848 H3833 0.960 . S
C3848 H3834 0.960 . S
C3848 H3835 0.960 . S
C3848 C3847 1.524 . S
C3849 C3846 1.403 . S
C3849 C3850 1.392 . S
C3849 C3853 1.495 . S
C3850 C3849 1.392 . S
C3850 C3851 1.385 . S
C3850 C3852 1.478 . S
C3851 H3845 0.930 . S
C3851 C3847 1.400 . S
C3851 C3850 1.385 . S
C3852 C3850 1.478 . S
C3852 C3854 1.381 . S
C3852 C3858 1.383 . S
C3853 C3849 1.495 . S
C3853 H3859 0.959 . S
C3853 H3860 0.961 . S
C3853 H3861 0.960 . S
C3854 C3852 1.381 . S
C3854 C3855 1.410 . S
C3854 H3862 0.930 . S
C3855 C3854 1.410 . S
C3855 C3856 1.388 . S
C3855 H3863 0.909 1_565 S
C3856 C3855 1.388 . S
C3856 C3857 1.377 . S
C3857 H3841 0.930 . S
C3857 C3856 1.377 . S
C3857 C3858 1.379 . S
C3858 H3842 0.931 . S
C3858 C3852 1.383 . S
C3858 C3857 1.379 . S
H3859 C3853 0.959 . S
H3860 C3853 0.961 . S
H3861 C3853 0.960 . S
H3862 C3854 0.930 . S
H3863 C3855 0.909 1_545 S
H3864 C3872 0.929 . S
H3865 C3874 0.930 . S
H3866 C3876 0.930 . S
H3867 C3879 0.929 . S
H3868 C3882 0.930 . S
H3869 C3884 0.960 . S
H3870 C3884 0.960 . S
H3871 C3884 0.960 . S
C3872 H3864 0.929 . S
C3872 C3873 1.377 . S
C3872 C3874 1.384 . S
C3873 C3872 1.377 . S
C3873 C3879 1.390 . S
C3874 H3865 0.930 . S
C3874 C3872 1.384 . S
C3874 C3875 1.372 . S
C3875 C3874 1.372 . S
C3875 C3876 1.400 . S
C3875 C3880 1.490 . S
C3876 H3866 0.930 . S
C3876 C3875 1.400 . S
C3876 C3879 1.386 . S
H3877 C3893 0.930 . S
H3878 C3894 0.931 . S
C3879 H3867 0.929 . S
C3879 C3873 1.390 . S
C3879 C3876 1.386 . S
C3880 C3875 1.490 . S
C3880 C3882 1.395 . S
C3880 C3883 1.403 . S
H3881 C3887 0.930 . S
C3882 H3868 0.930 . S
C3882 C3880 1.395 . S
C3882 C3885 1.403 . S
C3883 C3880 1.403 . S
C3883 C3884 1.524 . S
C3883 C3887 1.400 . S
C3884 H3869 0.960 . S
C3884 H3870 0.960 . S
C3884 H3871 0.960 . S
C3884 C3883 1.524 . S
C3885 C3882 1.403 . S
C3885 C3886 1.392 . S
C3885 C3889 1.495 . S
C3886 C3885 1.392 . S
C3886 C3887 1.385 . S
C3886 C3888 1.478 . S
C3887 H3881 0.930 . S
C3887 C3883 1.400 . S
C3887 C3886 1.385 . S
C3888 C3886 1.478 . S
C3888 C3890 1.381 . S
C3888 C3894 1.383 . S
C3889 C3885 1.495 . S
C3889 H3895 0.959 . S
C3889 H3896 0.961 . S
C3889 H3897 0.960 . S
C3890 C3888 1.381 . S
C3890 C3891 1.394 . S
C3890 H3898 0.930 . S
C3891 C3890 1.394 . S
C3891 C3892 1.383 . S
C3891 H3899 0.929 . S
C3892 C3891 1.383 . S
C3892 C3893 1.377 . S
C3893 H3877 0.930 . S
C3893 C3892 1.377 . S
C3893 C3894 1.379 . S
C3894 H3878 0.931 . S
C3894 C3888 1.383 . S
C3894 C3893 1.379 . S
H3895 C3889 0.959 . S
H3896 C3889 0.961 . S
H3897 C3889 0.960 . S
H3898 C3890 0.930 . S
H3899 C3891 0.929 . S
H3900 C3908 0.929 . S
H3901 C3910 0.930 . S
H3902 C3912 0.930 . S
H3903 C3915 0.929 . S
H3904 C3918 0.930 . S
H3905 C3920 0.960 . S
H3906 C3920 0.960 . S
H3907 C3920 0.960 . S
C3908 H3900 0.929 . S
C3908 C3909 1.377 . S
C3908 C3910 1.384 . S
C3909 C3908 1.377 . S
C3909 C3915 1.390 . S
C3910 H3901 0.930 . S
C3910 C3908 1.384 . S
C3910 C3911 1.372 . S
C3911 C3910 1.372 . S
C3911 C3912 1.400 . S
C3911 C3916 1.490 . S
C3912 H3902 0.930 . S
C3912 C3911 1.400 . S
C3912 C3915 1.386 . S
H3913 C3929 0.930 . S
H3914 C3930 0.931 . S
C3915 H3903 0.929 . S
C3915 C3909 1.390 . S
C3915 C3912 1.386 . S
C3916 C3911 1.490 . S
C3916 C3918 1.395 . S
C3916 C3919 1.403 . S
H3917 C3923 0.930 . S
C3918 H3904 0.930 . S
C3918 C3916 1.395 . S
C3918 C3921 1.403 . S
C3919 C3916 1.403 . S
C3919 C3920 1.524 . S
C3919 C3923 1.400 . S
C3920 H3905 0.960 . S
C3920 H3906 0.960 . S
C3920 H3907 0.960 . S
C3920 C3919 1.524 . S
C3921 C3918 1.403 . S
C3921 C3922 1.392 . S
C3921 C3925 1.495 . S
C3922 C3921 1.392 . S
C3922 C3923 1.385 . S
C3922 C3924 1.478 . S
C3923 H3917 0.930 . S
C3923 C3919 1.400 . S
C3923 C3922 1.385 . S
C3924 C3922 1.478 . S
C3924 C3926 1.381 . S
C3924 C3930 1.383 . S
C3925 C3921 1.495 . S
C3925 H3931 0.959 . S
C3925 H3932 0.961 . S
C3925 H3933 0.960 . S
C3926 C3924 1.381 . S
C3926 C3927 1.394 . S
C3926 H3934 0.930 . S
C3927 C3926 1.394 . S
C3927 C3928 1.383 . S
C3927 H3935 0.929 . S
C3928 C3927 1.383 . S
C3928 C3929 1.377 . S
C3929 H3913 0.930 . S
C3929 C3928 1.377 . S
C3929 C3930 1.379 . S
C3930 H3914 0.931 . S
C3930 C3924 1.383 . S
C3930 C3929 1.379 . S
H3931 C3925 0.959 . S
H3932 C3925 0.961 . S
H3933 C3925 0.960 . S
H3934 C3926 0.930 . S
H3935 C3927 0.929 . S
H3936 C3944 0.929 . S
H3937 C3946 0.930 . S
H3938 C3948 0.930 . S
H3939 C3951 0.929 . S
H3940 C3954 0.930 . S
H3941 C3956 0.960 . S
H3942 C3956 0.960 . S
H3943 C3956 0.960 . S
C3944 H3936 0.929 . S
C3944 C3945 1.377 . S
C3944 C3946 1.384 . S
C3945 C3944 1.377 . S
C3945 C3951 1.390 . S
C3946 H3937 0.930 . S
C3946 C3944 1.384 . S
C3946 C3947 1.372 . S
C3947 C3946 1.372 . S
C3947 C3948 1.400 . S
C3947 C3952 1.490 . S
C3948 H3938 0.930 . S
C3948 C3947 1.400 . S
C3948 C3951 1.386 . S
H3949 C3965 0.930 . S
H3950 C3966 0.931 . S
C3951 H3939 0.929 . S
C3951 C3945 1.390 . S
C3951 C3948 1.386 . S
C3952 C3947 1.490 . S
C3952 C3954 1.395 . S
C3952 C3955 1.403 . S
H3953 C3959 0.930 . S
C3954 H3940 0.930 . S
C3954 C3952 1.395 . S
C3954 C3957 1.403 . S
C3955 C3952 1.403 . S
C3955 C3956 1.524 . S
C3955 C3959 1.400 . S
C3956 H3941 0.960 . S
C3956 H3942 0.960 . S
C3956 H3943 0.960 . S
C3956 C3955 1.524 . S
C3957 C3954 1.403 . S
C3957 C3958 1.392 . S
C3957 C3961 1.495 . S
C3958 C3957 1.392 . S
C3958 C3959 1.385 . S
C3958 C3960 1.478 . S
C3959 H3953 0.930 . S
C3959 C3955 1.400 . S
C3959 C3958 1.385 . S
C3960 C3958 1.478 . S
C3960 C3962 1.381 . S
C3960 C3966 1.383 . S
C3961 C3957 1.495 . S
C3961 H3967 0.959 . S
C3961 H3968 0.961 . S
C3961 H3969 0.960 . S
C3962 C3960 1.381 . S
C3962 C3963 1.394 . S
C3962 H3970 0.930 . S
C3963 C3962 1.394 . S
C3963 C3964 1.383 . S
C3963 H3971 0.929 . S
C3964 C3963 1.383 . S
C3964 C3965 1.377 . S
C3965 H3949 0.930 . S
C3965 C3964 1.377 . S
C3965 C3966 1.379 . S
C3966 H3950 0.931 . S
C3966 C3960 1.383 . S
C3966 C3965 1.379 . S
H3967 C3961 0.959 . S
H3968 C3961 0.961 . S
H3969 C3961 0.960 . S
H3970 C3962 0.930 . S
H3971 C3963 0.929 . S
H3972 C3980 0.929 . S
H3973 C3982 0.930 . S
H3974 C3984 0.930 . S
H3975 C3987 0.929 . S
H3976 C3990 0.930 . S
H3977 C3992 0.960 . S
H3978 C3992 0.960 . S
H3979 C3992 0.960 . S
C3980 H3972 0.929 . S
C3980 C3981 1.377 . S
C3980 C3982 1.384 . S
C3981 C3980 1.377 . S
C3981 C3987 1.390 . S
C3982 H3973 0.930 . S
C3982 C3980 1.384 . S
C3982 C3983 1.372 . S
C3983 C3982 1.372 . S
C3983 C3984 1.400 . S
C3983 C3988 1.490 . S
C3984 H3974 0.930 . S
C3984 C3983 1.400 . S
C3984 C3987 1.386 . S
H3985 C4001 0.930 . S
H3986 C4002 0.931 . S
C3987 H3975 0.929 . S
C3987 C3981 1.390 . S
C3987 C3984 1.386 . S
C3988 C3983 1.490 . S
C3988 C3990 1.395 . S
C3988 C3991 1.403 . S
H3989 C3995 0.930 . S
C3990 H3976 0.930 . S
C3990 C3988 1.395 . S
C3990 C3993 1.403 . S
C3991 C3988 1.403 . S
C3991 C3992 1.524 . S
C3991 C3995 1.400 . S
C3992 H3977 0.960 . S
C3992 H3978 0.960 . S
C3992 H3979 0.960 . S
C3992 C3991 1.524 . S
C3993 C3990 1.403 . S
C3993 C3994 1.392 . S
C3993 C3997 1.495 . S
C3994 C3993 1.392 . S
C3994 C3995 1.385 . S
C3994 C3996 1.478 . S
C3995 H3989 0.930 . S
C3995 C3991 1.400 . S
C3995 C3994 1.385 . S
C3996 C3994 1.478 . S
C3996 C3998 1.381 . S
C3996 C4002 1.383 . S
C3997 C3993 1.495 . S
C3997 H4003 0.959 . S
C3997 H4004 0.961 . S
C3997 H4005 0.960 . S
C3998 C3996 1.381 . S
C3998 C3999 1.394 . S
C3998 H4006 0.930 . S
C3999 C3998 1.394 . S
C3999 C4000 1.383 . S
C3999 H4007 0.929 . S
C4000 C3999 1.383 . S
C4000 C4001 1.377 . S
C4001 H3985 0.930 . S
C4001 C4000 1.377 . S
C4001 C4002 1.379 . S
C4002 H3986 0.931 . S
C4002 C3996 1.383 . S
C4002 C4001 1.379 . S
H4003 C3997 0.959 . S
H4004 C3997 0.961 . S
H4005 C3997 0.960 . S
H4006 C3998 0.930 . S
H4007 C3999 0.929 . S
H4008 C4016 0.929 . S
H4009 C4018 0.930 . S
H4010 C4020 0.930 . S
H4011 C4023 0.929 . S
H4012 C4026 0.930 1_554 S
H4013 C4028 0.960 . S
H4014 C4028 0.960 . S
H4015 C4028 0.960 . S
C4016 H4008 0.929 . S
C4016 C4017 1.377 . S
C4016 C4018 1.384 . S
C4017 C4016 1.377 . S
C4017 C4023 1.390 . S
C4018 H4009 0.930 . S
C4018 C4016 1.384 . S
C4018 C4019 1.372 . S
C4019 C4018 1.372 . S
C4019 C4020 1.400 . S
C4019 C4024 1.490 . S
C4020 H4010 0.930 . S
C4020 C4019 1.400 . S
C4020 C4023 1.386 . S
H4021 C4037 0.930 . S
H4022 C4038 0.945 . S
C4023 H4011 0.929 . S
C4023 C4017 1.390 . S
C4023 C4020 1.386 . S
C4024 C4019 1.490 . S
C4024 C4026 1.395 . S
C4024 C4027 1.403 . S
H4025 C4031 0.930 . S
C4026 H4012 0.930 1_556 S
C4026 C4024 1.395 . S
C4026 C4029 1.403 1_556 S
C4027 C4024 1.403 . S
C4027 C4028 1.524 . S
C4027 C4031 1.400 . S
C4028 H4013 0.960 . S
C4028 H4014 0.960 . S
C4028 H4015 0.960 . S
C4028 C4027 1.524 . S
C4029 C4026 1.403 1_554 S
C4029 C4030 1.392 1_554 S
C4029 C4033 1.495 . S
C4030 C4029 1.392 1_556 S
C4030 C4031 1.385 . S
C4030 C4032 1.471 1_556 S
C4031 H4025 0.930 . S
C4031 C4027 1.400 . S
C4031 C4030 1.385 . S
C4032 C4030 1.471 1_554 S
C4032 C4034 1.401 . S
C4032 C4038 1.361 1_554 S
C4033 C4029 1.495 . S
C4033 H4039 0.959 . S
C4033 H4040 0.961 . S
C4033 H4041 0.960 . S
C4034 C4032 1.401 . S
C4034 C4035 1.394 . S
C4034 H4042 0.930 . S
C4035 C4034 1.394 . S
C4035 C4036 1.383 . S
C4035 H4043 0.929 . S
C4036 C4035 1.383 . S
C4036 C4037 1.377 . S
C4037 H4021 0.930 . S
C4037 C4036 1.377 . S
C4037 C4038 1.378 1_554 S
C4038 H4022 0.945 . S
C4038 C4032 1.361 1_556 S
C4038 C4037 1.378 1_556 S
H4039 C4033 0.959 . S
H4040 C4033 0.961 . S
H4041 C4033 0.960 . S
H4042 C4034 0.930 . S
H4043 C4035 0.929 . S
H4044 C4052 0.929 . S
H4045 C4054 0.930 . S
H4046 C4056 0.930 1_655 S
H4047 C4059 0.929 . S
H4048 C4062 0.930 . S
H4049 C4064 0.960 . S
H4050 C4064 0.960 1_455 S
H4051 C4064 0.960 . S
C4052 H4044 0.929 . S
C4052 C4053 1.377 . S
C4052 C4054 1.384 . S
C4053 C4052 1.377 . S
C4053 C4059 1.390 . S
C4054 H4045 0.930 . S
C4054 C4052 1.384 . S
C4054 C4055 1.372 1_455 S
C4055 C4054 1.372 1_655 S
C4055 C4056 1.400 1_655 S
C4055 C4060 1.490 . S
C4056 H4046 0.930 1_455 S
C4056 C4055 1.400 1_455 S
C4056 C4059 1.386 . S
H4057 C4073 0.930 . S
H4058 C4074 0.931 . S
C4059 H4047 0.929 . S
C4059 C4053 1.390 . S
C4059 C4056 1.386 . S
C4060 C4055 1.490 . S
C4060 C4062 1.395 . S
C4060 C4063 1.403 . S
H4061 C4067 0.930 . S
C4062 H4048 0.930 . S
C4062 C4060 1.395 . S
C4062 C4065 1.403 . S
C4063 C4060 1.403 . S
C4063 C4064 1.524 . S
C4063 C4067 1.400 . S
C4064 H4049 0.960 . S
C4064 H4050 0.960 1_655 S
C4064 H4051 0.960 . S
C4064 C4063 1.524 . S
C4065 C4062 1.403 . S
C4065 C4066 1.392 . S
C4065 C4069 1.495 . S
C4066 C4065 1.392 . S
C4066 C4067 1.385 . S
C4066 C4068 1.478 . S
C4067 H4061 0.930 . S
C4067 C4063 1.400 . S
C4067 C4066 1.385 . S
C4068 C4066 1.478 . S
C4068 C4070 1.381 . S
C4068 C4074 1.383 . S
C4069 C4065 1.495 . S
C4069 H4075 0.959 . S
C4069 H4076 0.961 . S
C4069 H4077 0.960 . S
C4070 C4068 1.381 . S
C4070 C4071 1.394 . S
C4070 H4078 0.930 . S
C4071 C4070 1.394 . S
C4071 C4072 1.383 . S
C4071 H4079 0.929 . S
C4072 C4071 1.383 . S
C4072 C4073 1.377 . S
C4073 H4057 0.930 . S
C4073 C4072 1.377 . S
C4073 C4074 1.379 . S
C4074 H4058 0.931 . S
C4074 C4068 1.383 . S
C4074 C4073 1.379 . S
H4075 C4069 0.959 . S
H4076 C4069 0.961 . S
H4077 C4069 0.960 . S
H4078 C4070 0.930 . S
H4079 C4071 0.929 . S
H4080 C4088 0.929 . S
H4081 C4090 0.930 . S
H4082 C4092 0.930 . S
H4083 C4095 0.929 . S
H4084 C4098 0.930 . S
H4085 C4100 0.960 . S
H4086 C4100 0.960 . S
H4087 C4100 0.960 . S
C4088 H4080 0.929 . S
C4088 C4089 1.377 . S
C4088 C4090 1.384 . S
C4089 C4088 1.377 . S
C4089 C4095 1.390 . S
C4090 H4081 0.930 . S
C4090 C4088 1.384 . S
C4090 C4091 1.372 . S
C4091 C4090 1.372 . S
C4091 C4092 1.400 . S
C4091 C4096 1.490 . S
C4092 H4082 0.930 . S
C4092 C4091 1.400 . S
C4092 C4095 1.386 . S
H4093 C4109 0.930 . S
H4094 C4110 0.931 . S
C4095 H4083 0.929 . S
C4095 C4089 1.390 . S
C4095 C4092 1.386 . S
C4096 C4091 1.490 . S
C4096 C4098 1.395 . S
C4096 C4099 1.403 . S
H4097 C4103 0.930 . S
C4098 H4084 0.930 . S
C4098 C4096 1.395 . S
C4098 C4101 1.403 . S
C4099 C4096 1.403 . S
C4099 C4100 1.524 . S
C4099 C4103 1.400 . S
C4100 H4085 0.960 . S
C4100 H4086 0.960 . S
C4100 H4087 0.960 . S
C4100 C4099 1.524 . S
C4101 C4098 1.403 . S
C4101 C4102 1.392 . S
C4101 C4105 1.495 . S
C4102 C4101 1.392 . S
C4102 C4103 1.385 . S
C4102 C4104 1.478 . S
C4103 H4097 0.930 . S
C4103 C4099 1.400 . S
C4103 C4102 1.385 . S
C4104 C4102 1.478 . S
C4104 C4106 1.381 . S
C4104 C4110 1.383 . S
C4105 C4101 1.495 . S
C4105 H4111 0.959 . S
C4105 H4112 0.961 . S
C4105 H4113 0.960 . S
C4106 C4104 1.381 . S
C4106 C4107 1.394 . S
C4106 H4114 0.930 . S
C4107 C4106 1.394 . S
C4107 C4108 1.383 . S
C4107 H4115 0.929 . S
C4108 C4107 1.383 . S
C4108 C4109 1.377 . S
C4109 H4093 0.930 . S
C4109 C4108 1.377 . S
C4109 C4110 1.379 . S
C4110 H4094 0.931 . S
C4110 C4104 1.383 . S
C4110 C4109 1.379 . S
H4111 C4105 0.959 . S
H4112 C4105 0.961 . S
H4113 C4105 0.960 . S
H4114 C4106 0.930 . S
H4115 C4107 0.929 . S
H4116 C4124 0.929 . S
H4117 C4126 0.930 . S
H4118 C4128 0.930 . S
H4119 C4131 0.929 . S
H4120 C4134 0.930 . S
H4121 C4136 0.960 . S
H4122 C4136 0.960 . S
H4123 C4136 0.960 . S
C4124 H4116 0.929 . S
C4124 C4125 1.377 . S
C4124 C4126 1.384 . S
C4125 C4124 1.377 . S
C4125 C4131 1.390 . S
C4126 H4117 0.930 . S
C4126 C4124 1.384 . S
C4126 C4127 1.372 . S
C4127 C4126 1.372 . S
C4127 C4128 1.400 . S
C4127 C4132 1.490 . S
C4128 H4118 0.930 . S
C4128 C4127 1.400 . S
C4128 C4131 1.386 . S
H4129 C4145 0.930 . S
H4130 C4146 0.931 . S
C4131 H4119 0.929 . S
C4131 C4125 1.390 . S
C4131 C4128 1.386 . S
C4132 C4127 1.490 . S
C4132 C4134 1.395 1_455 S
C4132 C4135 1.397 1_455 S
H4133 C4139 0.930 . S
C4134 H4120 0.930 . S
C4134 C4132 1.395 1_655 S
C4134 C4137 1.403 . S
C4135 C4132 1.397 1_655 S
C4135 C4136 1.507 1_655 S
C4135 C4139 1.424 . S
C4136 H4121 0.960 . S
C4136 H4122 0.960 . S
C4136 H4123 0.960 . S
C4136 C4135 1.507 1_455 S
C4137 C4134 1.403 . S
C4137 C4138 1.392 . S
C4137 C4141 1.495 . S
C4138 C4137 1.392 . S
C4138 C4139 1.385 . S
C4138 C4140 1.478 . S
C4139 H4133 0.930 . S
C4139 C4135 1.424 . S
C4139 C4138 1.385 . S
C4140 C4138 1.478 . S
C4140 C4142 1.381 . S
C4140 C4146 1.383 . S
C4141 C4137 1.495 . S
C4141 H4147 0.959 . S
C4141 H4148 0.961 . S
C4141 H4149 0.960 . S
C4142 C4140 1.381 . S
C4142 C4143 1.394 . S
C4142 H4150 0.930 . S
C4143 C4142 1.394 . S
C4143 C4144 1.383 . S
C4143 H4151 0.929 . S
C4144 C4143 1.383 . S
C4144 C4145 1.377 . S
C4145 H4129 0.930 . S
C4145 C4144 1.377 . S
C4145 C4146 1.379 . S
C4146 H4130 0.931 . S
C4146 C4140 1.383 . S
C4146 C4145 1.379 . S
H4147 C4141 0.959 . S
H4148 C4141 0.961 . S
H4149 C4141 0.960 . S
H4150 C4142 0.930 . S
H4151 C4143 0.929 . S
H4152 C4160 0.929 . S
H4153 C4162 0.930 . S
H4154 C4164 0.930 . S
H4155 C4167 0.929 . S
H4156 C4170 0.930 . S
H4157 C4172 0.960 . S
H4158 C4172 0.960 . S
H4159 C4172 0.960 . S
C4160 H4152 0.929 . S
C4160 C4161 1.377 1_455 S
C4160 C4162 1.384 . S
C4161 C4160 1.377 1_655 S
C4161 C4167 1.390 . S
C4162 H4153 0.930 . S
C4162 C4160 1.384 . S
C4162 C4163 1.372 . S
C4163 C4162 1.372 . S
C4163 C4164 1.400 1_455 S
C4163 C4168 1.490 . S
C4164 H4154 0.930 . S
C4164 C4163 1.400 1_655 S
C4164 C4167 1.386 . S
H4165 C4181 0.930 . S
H4166 C4182 0.931 . S
C4167 H4155 0.929 . S
C4167 C4161 1.390 . S
C4167 C4164 1.386 . S
C4168 C4163 1.490 . S
C4168 C4170 1.395 . S
C4168 C4171 1.403 . S
H4169 C4175 0.930 . S
C4170 H4156 0.930 . S
C4170 C4168 1.395 . S
C4170 C4173 1.403 . S
C4171 C4168 1.403 . S
C4171 C4172 1.524 . S
C4171 C4175 1.400 . S
C4172 H4157 0.960 . S
C4172 H4158 0.960 . S
C4172 H4159 0.960 . S
C4172 C4171 1.524 . S
C4173 C4170 1.403 . S
C4173 C4174 1.392 . S
C4173 C4177 1.495 . S
C4174 C4173 1.392 . S
C4174 C4175 1.385 . S
C4174 C4176 1.478 . S
C4175 H4169 0.930 . S
C4175 C4171 1.400 . S
C4175 C4174 1.385 . S
C4176 C4174 1.478 . S
C4176 C4178 1.381 . S
C4176 C4182 1.383 . S
C4177 C4173 1.495 . S
C4177 H4183 0.959 . S
C4177 H4184 0.951 1_455 S
C4177 H4185 0.960 . S
C4178 C4176 1.381 . S
C4178 C4179 1.394 . S
C4178 H4186 0.930 . S
C4179 C4178 1.394 . S
C4179 C4180 1.383 . S
C4179 H4187 0.929 . S
C4180 C4179 1.383 . S
C4180 C4181 1.377 . S
C4181 H4165 0.930 . S
C4181 C4180 1.377 . S
C4181 C4182 1.379 . S
C4182 H4166 0.931 . S
C4182 C4176 1.383 . S
C4182 C4181 1.379 . S
H4183 C4177 0.959 . S
H4184 C4177 0.951 1_655 S
H4185 C4177 0.960 . S
H4186 C4178 0.930 . S
H4187 C4179 0.929 . S
H4188 C4196 0.929 . S
H4189 C4198 0.930 . S
H4190 C4200 0.930 . S
H4191 C4203 0.929 . S
H4192 C4206 0.930 . S
H4193 C4208 0.960 . S
H4194 C4208 0.960 . S
H4195 C4208 0.960 . S
C4196 H4188 0.929 . S
C4196 C4197 1.377 . S
C4196 C4198 1.384 . S
C4197 C4196 1.377 . S
C4197 C4203 1.390 . S
C4198 H4189 0.930 . S
C4198 C4196 1.384 . S
C4198 C4199 1.372 . S
C4199 C4198 1.372 . S
C4199 C4200 1.400 . S
C4199 C4204 1.490 . S
C4200 H4190 0.930 . S
C4200 C4199 1.400 . S
C4200 C4203 1.386 . S
H4201 C4217 0.930 . S
H4202 C4218 0.931 . S
C4203 H4191 0.929 . S
C4203 C4197 1.390 . S
C4203 C4200 1.386 . S
C4204 C4199 1.490 . S
C4204 C4206 1.395 . S
C4204 C4207 1.403 . S
H4205 C4211 0.930 . S
C4206 H4192 0.930 . S
C4206 C4204 1.395 . S
C4206 C4209 1.403 . S
C4207 C4204 1.403 . S
C4207 C4208 1.524 . S
C4207 C4211 1.400 . S
C4208 H4193 0.960 . S
C4208 H4194 0.960 . S
C4208 H4195 0.960 . S
C4208 C4207 1.524 . S
C4209 C4206 1.403 . S
C4209 C4210 1.392 . S
C4209 C4213 1.495 . S
C4210 C4209 1.392 . S
C4210 C4211 1.385 . S
C4210 C4212 1.478 . S
C4211 H4205 0.930 . S
C4211 C4207 1.400 . S
C4211 C4210 1.385 . S
C4212 C4210 1.478 . S
C4212 C4214 1.381 . S
C4212 C4218 1.383 . S
C4213 C4209 1.495 . S
C4213 H4219 0.959 . S
C4213 H4220 0.961 . S
C4213 H4221 0.960 . S
C4214 C4212 1.381 . S
C4214 C4215 1.394 . S
C4214 H4222 0.930 . S
C4215 C4214 1.394 . S
C4215 C4216 1.383 . S
C4215 H4223 0.929 . S
C4216 C4215 1.383 . S
C4216 C4217 1.377 . S
C4217 H4201 0.930 . S
C4217 C4216 1.377 . S
C4217 C4218 1.379 . S
C4218 H4202 0.931 . S
C4218 C4212 1.383 . S
C4218 C4217 1.379 . S
H4219 C4213 0.959 . S
H4220 C4213 0.961 . S
H4221 C4213 0.960 . S
H4222 C4214 0.930 . S
H4223 C4215 0.929 . S
H4224 C4232 0.929 . S
H4225 C4234 0.930 . S
H4226 C4236 0.930 . S
H4227 C4239 0.929 . S
H4228 C4242 0.930 . S
H4229 C4244 0.960 . S
H4230 C4244 0.960 . S
H4231 C4244 0.960 . S
C4232 H4224 0.929 . S
C4232 C4233 1.377 . S
C4232 C4234 1.384 . S
C4233 C4232 1.377 . S
C4233 C4239 1.390 . S
C4234 H4225 0.930 . S
C4234 C4232 1.384 . S
C4234 C4235 1.372 . S
C4235 C4234 1.372 . S
C4235 C4236 1.400 . S
C4235 C4240 1.490 . S
C4236 H4226 0.930 . S
C4236 C4235 1.400 . S
C4236 C4239 1.386 . S
H4237 C4253 0.930 . S
H4238 C4254 0.931 . S
C4239 H4227 0.929 . S
C4239 C4233 1.390 . S
C4239 C4236 1.386 . S
C4240 C4235 1.490 . S
C4240 C4242 1.395 . S
C4240 C4243 1.403 . S
H4241 C4247 0.930 . S
C4242 H4228 0.930 . S
C4242 C4240 1.395 . S
C4242 C4245 1.403 . S
C4243 C4240 1.403 . S
C4243 C4244 1.524 . S
C4243 C4247 1.400 . S
C4244 H4229 0.960 . S
C4244 H4230 0.960 . S
C4244 H4231 0.960 . S
C4244 C4243 1.524 . S
C4245 C4242 1.403 . S
C4245 C4246 1.392 . S
C4245 C4249 1.495 . S
C4246 C4245 1.392 . S
C4246 C4247 1.385 . S
C4246 C4248 1.478 . S
C4247 H4241 0.930 . S
C4247 C4243 1.400 . S
C4247 C4246 1.385 . S
C4248 C4246 1.478 . S
C4248 C4250 1.381 . S
C4248 C4254 1.383 . S
C4249 C4245 1.495 . S
C4249 H4255 0.959 . S
C4249 H4256 0.961 . S
C4249 H4257 0.960 . S
C4250 C4248 1.381 . S
C4250 C4251 1.394 . S
C4250 H4258 0.930 . S
C4251 C4250 1.394 . S
C4251 C4252 1.383 . S
C4251 H4259 0.929 . S
C4252 C4251 1.383 . S
C4252 C4253 1.377 . S
C4253 H4237 0.930 . S
C4253 C4252 1.377 . S
C4253 C4254 1.379 . S
C4254 H4238 0.931 . S
C4254 C4248 1.383 . S
C4254 C4253 1.379 . S
H4255 C4249 0.959 . S
H4256 C4249 0.961 . S
H4257 C4249 0.960 . S
H4258 C4250 0.930 . S
H4259 C4251 0.929 . S
H4260 C4268 0.929 . S
H4261 C4270 0.930 . S
H4262 C4272 0.930 . S
H4263 C4275 0.929 . S
H4264 C4278 0.930 . S
H4265 C4280 0.960 . S
H4266 C4280 0.960 . S
H4267 C4280 0.960 . S
C4268 H4260 0.929 . S
C4268 C4269 1.377 . S
C4268 C4270 1.384 . S
C4269 C4268 1.377 . S
C4269 C4275 1.390 . S
C4270 H4261 0.930 . S
C4270 C4268 1.384 . S
C4270 C4271 1.372 . S
C4271 C4270 1.372 . S
C4271 C4272 1.400 . S
C4271 C4276 1.490 . S
C4272 H4262 0.930 . S
C4272 C4271 1.400 . S
C4272 C4275 1.386 . S
H4273 C4289 0.930 . S
H4274 C4290 0.931 . S
C4275 H4263 0.929 . S
C4275 C4269 1.390 . S
C4275 C4272 1.386 . S
C4276 C4271 1.490 . S
C4276 C4278 1.395 . S
C4276 C4279 1.403 . S
H4277 C4283 0.930 . S
C4278 H4264 0.930 . S
C4278 C4276 1.395 . S
C4278 C4281 1.403 . S
C4279 C4276 1.403 . S
C4279 C4280 1.524 . S
C4279 C4283 1.400 . S
C4280 H4265 0.960 . S
C4280 H4266 0.960 . S
C4280 H4267 0.960 . S
C4280 C4279 1.524 . S
C4281 C4278 1.403 . S
C4281 C4282 1.392 . S
C4281 C4285 1.495 . S
C4282 C4281 1.392 . S
C4282 C4283 1.385 . S
C4282 C4284 1.478 . S
C4283 H4277 0.930 . S
C4283 C4279 1.400 . S
C4283 C4282 1.385 . S
C4284 C4282 1.478 . S
C4284 C4286 1.381 . S
C4284 C4290 1.383 . S
C4285 C4281 1.495 . S
C4285 H4291 0.959 . S
C4285 H4292 0.961 . S
C4285 H4293 0.960 . S
C4286 C4284 1.381 . S
C4286 C4287 1.394 . S
C4286 H4294 0.930 . S
C4287 C4286 1.394 . S
C4287 C4288 1.383 . S
C4287 H4295 0.929 . S
C4288 C4287 1.383 . S
C4288 C4289 1.377 . S
C4289 H4273 0.930 . S
C4289 C4288 1.377 . S
C4289 C4290 1.379 . S
C4290 H4274 0.931 . S
C4290 C4284 1.383 . S
C4290 C4289 1.379 . S
H4291 C4285 0.959 . S
H4292 C4285 0.961 . S
H4293 C4285 0.960 . S
H4294 C4286 0.930 . S
H4295 C4287 0.929 . S
H4296 C4304 0.929 . S
H4297 C4306 0.930 . S
H4298 C4308 0.930 . S
H4299 C4311 0.929 . S
H4300 C4314 0.930 . S
H4301 C4316 0.960 . S
H4302 C4316 0.960 . S
H4303 C4316 0.960 . S
C4304 H4296 0.929 . S
C4304 C4305 1.377 . S
C4304 C4306 1.384 . S
C4305 C4304 1.377 . S
C4305 C4311 1.390 . S
C4306 H4297 0.930 . S
C4306 C4304 1.384 . S
C4306 C4307 1.372 . S
C4307 C4306 1.372 . S
C4307 C4308 1.400 . S
C4307 C4312 1.490 . S
C4308 H4298 0.930 . S
C4308 C4307 1.400 . S
C4308 C4311 1.386 . S
H4309 C4325 0.930 . S
H4310 C4326 0.931 . S
C4311 H4299 0.929 . S
C4311 C4305 1.390 . S
C4311 C4308 1.386 . S
C4312 C4307 1.490 . S
C4312 C4314 1.395 . S
C4312 C4315 1.403 . S
H4313 C4319 0.930 . S
C4314 H4300 0.930 . S
C4314 C4312 1.395 . S
C4314 C4317 1.403 . S
C4315 C4312 1.403 . S
C4315 C4316 1.524 . S
C4315 C4319 1.400 . S
C4316 H4301 0.960 . S
C4316 H4302 0.960 . S
C4316 H4303 0.960 . S
C4316 C4315 1.524 . S
C4317 C4314 1.403 . S
C4317 C4318 1.392 . S
C4317 C4321 1.495 . S
C4318 C4317 1.392 . S
C4318 C4319 1.385 . S
C4318 C4320 1.478 . S
C4319 H4313 0.930 . S
C4319 C4315 1.400 . S
C4319 C4318 1.385 . S
C4320 C4318 1.478 . S
C4320 C4322 1.381 . S
C4320 C4326 1.383 . S
C4321 C4317 1.495 . S
C4321 H4327 0.959 . S
C4321 H4328 0.961 . S
C4321 H4329 0.960 . S
C4322 C4320 1.381 . S
C4322 C4323 1.394 . S
C4322 H4330 0.930 . S
C4323 C4322 1.394 . S
C4323 C4324 1.383 . S
C4323 H4331 0.929 . S
C4324 C4323 1.383 . S
C4324 C4325 1.377 . S
C4325 H4309 0.930 . S
C4325 C4324 1.377 . S
C4325 C4326 1.379 . S
C4326 H4310 0.931 . S
C4326 C4320 1.383 . S
C4326 C4325 1.379 . S
H4327 C4321 0.959 . S
H4328 C4321 0.961 . S
H4329 C4321 0.960 . S
H4330 C4322 0.930 . S
H4331 C4323 0.929 . S
H4332 C4340 0.929 . S
H4333 C4342 0.930 . S
H4334 C4344 0.930 . S
H4335 C4347 0.929 . S
H4336 C4350 0.930 . S
H4337 C4352 0.960 . S
H4338 C4352 0.960 . S
H4339 C4352 0.960 . S
C4340 H4332 0.929 . S
C4340 C4341 1.377 . S
C4340 C4342 1.384 . S
C4341 C4340 1.377 . S
C4341 C4347 1.390 . S
C4342 H4333 0.930 . S
C4342 C4340 1.384 . S
C4342 C4343 1.372 . S
C4343 C4342 1.372 . S
C4343 C4344 1.400 . S
C4343 C4348 1.490 . S
C4344 H4334 0.930 . S
C4344 C4343 1.400 . S
C4344 C4347 1.386 . S
H4345 C4361 0.930 . S
H4346 C4362 0.931 . S
C4347 H4335 0.929 . S
C4347 C4341 1.390 . S
C4347 C4344 1.386 . S
C4348 C4343 1.490 . S
C4348 C4350 1.395 . S
C4348 C4351 1.403 . S
H4349 C4355 0.930 . S
C4350 H4336 0.930 . S
C4350 C4348 1.395 . S
C4350 C4353 1.403 . S
C4351 C4348 1.403 . S
C4351 C4352 1.524 . S
C4351 C4355 1.400 . S
C4352 H4337 0.960 . S
C4352 H4338 0.960 . S
C4352 H4339 0.960 . S
C4352 C4351 1.524 . S
C4353 C4350 1.403 . S
C4353 C4354 1.392 . S
C4353 C4357 1.495 . S
C4354 C4353 1.392 . S
C4354 C4355 1.385 . S
C4354 C4356 1.478 . S
C4355 H4349 0.930 . S
C4355 C4351 1.400 . S
C4355 C4354 1.385 . S
C4356 C4354 1.478 . S
C4356 C4358 1.381 . S
C4356 C4362 1.383 . S
C4357 C4353 1.495 . S
C4357 H4363 0.959 . S
C4357 H4364 0.961 . S
C4357 H4365 0.960 . S
C4358 C4356 1.381 . S
C4358 C4359 1.394 . S
C4358 H4366 0.930 . S
C4359 C4358 1.394 . S
C4359 C4360 1.383 . S
C4359 H4367 0.929 . S
C4360 C4359 1.383 . S
C4360 C4361 1.377 . S
C4361 H4345 0.930 . S
C4361 C4360 1.377 . S
C4361 C4362 1.379 . S
C4362 H4346 0.931 . S
C4362 C4356 1.383 . S
C4362 C4361 1.379 . S
H4363 C4357 0.959 . S
H4364 C4357 0.961 . S
H4365 C4357 0.960 . S
H4366 C4358 0.930 . S
H4367 C4359 0.929 . S
H4368 C4376 0.929 . S
H4369 C4378 0.930 . S
H4370 C4380 0.930 . S
H4371 C4383 0.929 . S
H4372 C4386 0.930 . S
H4373 C4388 0.960 . S
H4374 C4388 0.960 . S
H4375 C4388 0.960 . S
C4376 H4368 0.929 . S
C4376 C4377 1.377 . S
C4376 C4378 1.384 . S
C4377 C4376 1.377 . S
C4377 C4383 1.390 . S
C4378 H4369 0.930 . S
C4378 C4376 1.384 . S
C4378 C4379 1.372 . S
C4379 C4378 1.372 . S
C4379 C4380 1.400 . S
C4379 C4384 1.490 . S
C4380 H4370 0.930 . S
C4380 C4379 1.400 . S
C4380 C4383 1.386 . S
H4381 C4397 0.930 . S
H4382 C4398 0.931 . S
C4383 H4371 0.929 . S
C4383 C4377 1.390 . S
C4383 C4380 1.386 . S
C4384 C4379 1.490 . S
C4384 C4386 1.395 . S
C4384 C4387 1.403 . S
H4385 C4391 0.930 . S
C4386 H4372 0.930 . S
C4386 C4384 1.395 . S
C4386 C4389 1.403 . S
C4387 C4384 1.403 . S
C4387 C4388 1.524 . S
C4387 C4391 1.400 . S
C4388 H4373 0.960 . S
C4388 H4374 0.960 . S
C4388 H4375 0.960 . S
C4388 C4387 1.524 . S
C4389 C4386 1.403 . S
C4389 C4390 1.392 . S
C4389 C4393 1.495 . S
C4390 C4389 1.392 . S
C4390 C4391 1.385 . S
C4390 C4392 1.478 . S
C4391 H4385 0.930 . S
C4391 C4387 1.400 . S
C4391 C4390 1.385 . S
C4392 C4390 1.478 . S
C4392 C4394 1.381 . S
C4392 C4398 1.383 . S
C4393 C4389 1.495 . S
C4393 H4399 0.959 . S
C4393 H4400 0.961 . S
C4393 H4401 0.960 . S
C4394 C4392 1.381 . S
C4394 C4395 1.394 . S
C4394 H4402 0.930 . S
C4395 C4394 1.394 . S
C4395 C4396 1.383 . S
C4395 H4403 0.929 . S
C4396 C4395 1.383 . S
C4396 C4397 1.377 . S
C4397 H4381 0.930 . S
C4397 C4396 1.377 . S
C4397 C4398 1.379 . S
C4398 H4382 0.931 . S
C4398 C4392 1.383 . S
C4398 C4397 1.379 . S
H4399 C4393 0.959 . S
H4400 C4393 0.961 . S
H4401 C4393 0.960 . S
H4402 C4394 0.930 . S
H4403 C4395 0.929 . S
H4404 C4412 0.929 . S
H4405 C4414 0.930 . S
H4406 C4416 0.930 . S
H4407 C4419 0.929 . S
H4408 C4422 0.930 . S
H4409 C4424 0.960 . S
H4410 C4424 0.960 . S
H4411 C4424 0.960 . S
C4412 H4404 0.929 . S
C4412 C4413 1.377 . S
C4412 C4414 1.384 . S
C4413 C4412 1.377 . S
C4413 C4419 1.390 . S
C4414 H4405 0.930 . S
C4414 C4412 1.384 . S
C4414 C4415 1.372 . S
C4415 C4414 1.372 . S
C4415 C4416 1.400 . S
C4415 C4420 1.490 . S
C4416 H4406 0.930 . S
C4416 C4415 1.400 . S
C4416 C4419 1.386 . S
H4417 C4433 0.930 . S
H4418 C4434 0.931 . S
C4419 H4407 0.929 . S
C4419 C4413 1.390 . S
C4419 C4416 1.386 . S
C4420 C4415 1.490 . S
C4420 C4422 1.395 . S
C4420 C4423 1.403 . S
H4421 C4427 0.930 . S
C4422 H4408 0.930 . S
C4422 C4420 1.395 . S
C4422 C4425 1.403 . S
C4423 C4420 1.403 . S
C4423 C4424 1.524 . S
C4423 C4427 1.400 . S
C4424 H4409 0.960 . S
C4424 H4410 0.960 . S
C4424 H4411 0.960 . S
C4424 C4423 1.524 . S
C4425 C4422 1.403 . S
C4425 C4426 1.392 . S
C4425 C4429 1.495 . S
C4426 C4425 1.392 . S
C4426 C4427 1.385 . S
C4426 C4428 1.478 . S
C4427 H4421 0.930 . S
C4427 C4423 1.400 . S
C4427 C4426 1.385 . S
C4428 C4426 1.478 . S
C4428 C4430 1.381 . S
C4428 C4434 1.383 . S
C4429 C4425 1.495 . S
C4429 H4435 0.959 . S
C4429 H4436 0.961 . S
C4429 H4437 0.960 . S
C4430 C4428 1.381 . S
C4430 C4431 1.394 . S
C4430 H4438 0.930 . S
C4431 C4430 1.394 . S
C4431 C4432 1.383 . S
C4431 H4439 0.929 . S
C4432 C4431 1.383 . S
C4432 C4433 1.377 . S
C4433 H4417 0.930 . S
C4433 C4432 1.377 . S
C4433 C4434 1.379 . S
C4434 H4418 0.931 . S
C4434 C4428 1.383 . S
C4434 C4433 1.379 . S
H4435 C4429 0.959 . S
H4436 C4429 0.961 . S
H4437 C4429 0.960 . S
H4438 C4430 0.930 . S
H4439 C4431 0.929 . S
H4440 C4448 0.929 . S
H4441 C4450 0.930 . S
H4442 C4452 0.930 . S
H4443 C4455 0.929 . S
H4444 C4458 0.930 . S
H4445 C4460 0.960 . S
H4446 C4460 0.960 . S
H4447 C4460 0.960 . S
C4448 H4440 0.929 . S
C4448 C4449 1.377 . S
C4448 C4450 1.384 . S
C4449 C4448 1.377 . S
C4449 C4455 1.390 . S
C4450 H4441 0.930 . S
C4450 C4448 1.384 . S
C4450 C4451 1.372 . S
C4451 C4450 1.372 . S
C4451 C4452 1.400 . S
C4451 C4456 1.490 . S
C4452 H4442 0.930 . S
C4452 C4451 1.400 . S
C4452 C4455 1.386 . S
H4453 C4469 0.930 . S
H4454 C4470 0.931 . S
C4455 H4443 0.929 . S
C4455 C4449 1.390 . S
C4455 C4452 1.386 . S
C4456 C4451 1.490 . S
C4456 C4458 1.395 . S
C4456 C4459 1.403 . S
H4457 C4463 0.930 . S
C4458 H4444 0.930 . S
C4458 C4456 1.395 . S
C4458 C4461 1.403 . S
C4459 C4456 1.403 . S
C4459 C4460 1.524 . S
C4459 C4463 1.400 . S
C4460 H4445 0.960 . S
C4460 H4446 0.960 . S
C4460 H4447 0.960 . S
C4460 C4459 1.524 . S
C4461 C4458 1.403 . S
C4461 C4462 1.392 . S
C4461 C4465 1.495 . S
C4462 C4461 1.392 . S
C4462 C4463 1.385 . S
C4462 C4464 1.478 . S
C4463 H4457 0.930 . S
C4463 C4459 1.400 . S
C4463 C4462 1.385 . S
C4464 C4462 1.478 . S
C4464 C4466 1.381 . S
C4464 C4470 1.383 . S
C4465 C4461 1.495 . S
C4465 H4471 0.959 . S
C4465 H4472 0.961 . S
C4465 H4473 0.960 . S
C4466 C4464 1.381 . S
C4466 C4467 1.394 . S
C4466 H4474 0.930 . S
C4467 C4466 1.394 . S
C4467 C4468 1.383 . S
C4467 H4475 0.929 . S
C4468 C4467 1.383 . S
C4468 C4469 1.377 . S
C4469 H4453 0.930 . S
C4469 C4468 1.377 . S
C4469 C4470 1.379 . S
C4470 H4454 0.931 . S
C4470 C4464 1.383 . S
C4470 C4469 1.379 . S
H4471 C4465 0.959 . S
H4472 C4465 0.961 . S
H4473 C4465 0.960 . S
H4474 C4466 0.930 . S
H4475 C4467 0.929 . S
H4476 C4484 0.929 . S
H4477 C4486 0.930 . S
H4478 C4488 0.930 . S
H4479 C4491 0.929 . S
H4480 C4494 0.930 . S
H4481 C4496 0.960 . S
H4482 C4496 0.960 . S
H4483 C4496 0.960 . S
C4484 H4476 0.929 . S
C4484 C4485 1.377 . S
C4484 C4486 1.384 . S
C4485 C4484 1.377 . S
C4485 C4491 1.390 . S
C4486 H4477 0.930 . S
C4486 C4484 1.384 . S
C4486 C4487 1.372 . S
C4487 C4486 1.372 . S
C4487 C4488 1.400 . S
C4487 C4492 1.490 . S
C4488 H4478 0.930 . S
C4488 C4487 1.400 . S
C4488 C4491 1.386 . S
H4489 C4505 0.930 . S
H4490 C4506 0.931 . S
C4491 H4479 0.929 . S
C4491 C4485 1.390 . S
C4491 C4488 1.386 . S
C4492 C4487 1.490 . S
C4492 C4494 1.395 . S
C4492 C4495 1.403 . S
H4493 C4499 0.930 . S
C4494 H4480 0.930 . S
C4494 C4492 1.395 . S
C4494 C4497 1.403 . S
C4495 C4492 1.403 . S
C4495 C4496 1.524 . S
C4495 C4499 1.400 . S
C4496 H4481 0.960 . S
C4496 H4482 0.960 . S
C4496 H4483 0.960 . S
C4496 C4495 1.524 . S
C4497 C4494 1.403 . S
C4497 C4498 1.392 . S
C4497 C4501 1.495 . S
C4498 C4497 1.392 . S
C4498 C4499 1.385 . S
C4498 C4500 1.478 . S
C4499 H4493 0.930 . S
C4499 C4495 1.400 . S
C4499 C4498 1.385 . S
C4500 C4498 1.478 . S
C4500 C4502 1.381 . S
C4500 C4506 1.383 . S
C4501 C4497 1.495 . S
C4501 H4507 0.959 . S
C4501 H4508 0.961 . S
C4501 H4509 0.960 . S
C4502 C4500 1.381 . S
C4502 C4503 1.394 . S
C4502 H4510 0.930 . S
C4503 C4502 1.394 . S
C4503 C4504 1.383 . S
C4503 H4511 0.929 . S
C4504 C4503 1.383 . S
C4504 C4505 1.377 . S
C4505 H4489 0.930 . S
C4505 C4504 1.377 . S
C4505 C4506 1.379 . S
C4506 H4490 0.931 . S
C4506 C4500 1.383 . S
C4506 C4505 1.379 . S
H4507 C4501 0.959 . S
H4508 C4501 0.961 . S
H4509 C4501 0.960 . S
H4510 C4502 0.930 . S
H4511 C4503 0.929 . S
H4512 C4520 0.929 . S
H4513 C4522 0.930 . S
H4514 C4524 0.930 . S
H4515 C4527 0.929 . S
H4516 C4530 0.930 . S
H4517 C4532 0.960 . S
H4518 C4532 0.960 . S
H4519 C4532 0.960 . S
C4520 H4512 0.929 . S
C4520 C4521 1.377 . S
C4520 C4522 1.384 . S
C4521 C4520 1.377 . S
C4521 C4527 1.390 . S
C4522 H4513 0.930 . S
C4522 C4520 1.384 . S
C4522 C4523 1.372 . S
C4523 C4522 1.372 . S
C4523 C4524 1.400 . S
C4523 C4528 1.490 . S
C4524 H4514 0.930 . S
C4524 C4523 1.400 . S
C4524 C4527 1.386 . S
H4525 C4541 0.930 . S
H4526 C4542 0.931 . S
C4527 H4515 0.929 . S
C4527 C4521 1.390 . S
C4527 C4524 1.386 . S
C4528 C4523 1.490 . S
C4528 C4530 1.395 . S
C4528 C4531 1.403 . S
H4529 C4535 0.930 . S
C4530 H4516 0.930 . S
C4530 C4528 1.395 . S
C4530 C4533 1.403 . S
C4531 C4528 1.403 . S
C4531 C4532 1.524 . S
C4531 C4535 1.400 . S
C4532 H4517 0.960 . S
C4532 H4518 0.960 . S
C4532 H4519 0.960 . S
C4532 C4531 1.524 . S
C4533 C4530 1.403 . S
C4533 C4534 1.392 . S
C4533 C4537 1.495 . S
C4534 C4533 1.392 . S
C4534 C4535 1.385 . S
C4534 C4536 1.478 . S
C4535 H4529 0.930 . S
C4535 C4531 1.400 . S
C4535 C4534 1.385 . S
C4536 C4534 1.478 . S
C4536 C4538 1.381 . S
C4536 C4542 1.383 . S
C4537 C4533 1.495 . S
C4537 H4543 0.959 . S
C4537 H4544 0.961 . S
C4537 H4545 0.960 . S
C4538 C4536 1.381 . S
C4538 C4539 1.394 . S
C4538 H4546 0.930 . S
C4539 C4538 1.394 . S
C4539 C4540 1.383 . S
C4539 H4547 0.929 . S
C4540 C4539 1.383 . S
C4540 C4541 1.377 . S
C4541 H4525 0.930 . S
C4541 C4540 1.377 . S
C4541 C4542 1.379 . S
C4542 H4526 0.931 . S
C4542 C4536 1.383 . S
C4542 C4541 1.379 . S
H4543 C4537 0.959 . S
H4544 C4537 0.961 . S
H4545 C4537 0.960 . S
H4546 C4538 0.930 . S
H4547 C4539 0.929 . S
H4548 C4556 0.929 . S
H4549 C4558 0.930 . S
H4550 C4560 0.930 . S
H4551 C4563 0.929 . S
H4552 C4566 0.930 . S
H4553 C4568 0.960 . S
H4554 C4568 0.960 . S
H4555 C4568 0.960 . S
C4556 H4548 0.929 . S
C4556 C4557 1.377 . S
C4556 C4558 1.384 . S
C4557 C4556 1.377 . S
C4557 C4563 1.390 . S
C4558 H4549 0.930 . S
C4558 C4556 1.384 . S
C4558 C4559 1.372 . S
C4559 C4558 1.372 . S
C4559 C4560 1.400 . S
C4559 C4564 1.490 . S
C4560 H4550 0.930 . S
C4560 C4559 1.400 . S
C4560 C4563 1.386 . S
H4561 C4577 0.930 . S
H4562 C4578 0.931 . S
C4563 H4551 0.929 . S
C4563 C4557 1.390 . S
C4563 C4560 1.386 . S
C4564 C4559 1.490 . S
C4564 C4566 1.395 . S
C4564 C4567 1.403 . S
H4565 C4571 0.930 . S
C4566 H4552 0.930 . S
C4566 C4564 1.395 . S
C4566 C4569 1.403 . S
C4567 C4564 1.403 . S
C4567 C4568 1.524 . S
C4567 C4571 1.400 . S
C4568 H4553 0.960 . S
C4568 H4554 0.960 . S
C4568 H4555 0.960 . S
C4568 C4567 1.524 . S
C4569 C4566 1.403 . S
C4569 C4570 1.392 . S
C4569 C4573 1.495 . S
C4570 C4569 1.392 . S
C4570 C4571 1.385 . S
C4570 C4572 1.478 . S
C4571 H4565 0.930 . S
C4571 C4567 1.400 . S
C4571 C4570 1.385 . S
C4572 C4570 1.478 . S
C4572 C4574 1.381 . S
C4572 C4578 1.383 . S
C4573 C4569 1.495 . S
C4573 H4579 0.959 . S
C4573 H4580 0.961 . S
C4573 H4581 0.960 . S
C4574 C4572 1.381 . S
C4574 C4575 1.394 . S
C4574 H4582 0.930 . S
C4575 C4574 1.394 . S
C4575 C4576 1.383 . S
C4575 H4583 0.929 . S
C4576 C4575 1.383 . S
C4576 C4577 1.377 . S
C4577 H4561 0.930 . S
C4577 C4576 1.377 . S
C4577 C4578 1.379 . S
C4578 H4562 0.931 . S
C4578 C4572 1.383 . S
C4578 C4577 1.379 . S
H4579 C4573 0.959 . S
H4580 C4573 0.961 . S
H4581 C4573 0.960 . S
H4582 C4574 0.930 . S
H4583 C4575 0.929 . S
H4584 C4592 0.929 . S
H4585 C4594 0.930 . S
H4586 C4596 0.930 . S
H4587 C4599 0.929 . S
H4588 C4602 0.930 . S
H4589 C4604 0.960 . S
H4590 C4604 0.960 . S
H4591 C4604 0.960 . S
C4592 H4584 0.929 . S
C4592 C4593 1.377 . S
C4592 C4594 1.384 . S
C4593 C4592 1.377 . S
C4593 C4599 1.390 . S
C4594 H4585 0.930 . S
C4594 C4592 1.384 . S
C4594 C4595 1.372 . S
C4595 C4594 1.372 . S
C4595 C4596 1.400 . S
C4595 C4600 1.490 . S
C4596 H4586 0.930 . S
C4596 C4595 1.400 . S
C4596 C4599 1.386 . S
H4597 C4613 0.930 . S
H4598 C4614 0.931 . S
C4599 H4587 0.929 . S
C4599 C4593 1.390 . S
C4599 C4596 1.386 . S
C4600 C4595 1.490 . S
C4600 C4602 1.395 . S
C4600 C4603 1.403 . S
H4601 C4607 0.930 . S
C4602 H4588 0.930 . S
C4602 C4600 1.395 . S
C4602 C4605 1.403 . S
C4603 C4600 1.403 . S
C4603 C4604 1.524 . S
C4603 C4607 1.400 . S
C4604 H4589 0.960 . S
C4604 H4590 0.960 . S
C4604 H4591 0.960 . S
C4604 C4603 1.524 . S
C4605 C4602 1.403 . S
C4605 C4606 1.392 . S
C4605 C4609 1.495 . S
C4606 C4605 1.392 . S
C4606 C4607 1.385 . S
C4606 C4608 1.478 . S
C4607 H4601 0.930 . S
C4607 C4603 1.400 . S
C4607 C4606 1.385 . S
C4608 C4606 1.478 . S
C4608 C4610 1.381 . S
C4608 C4614 1.383 . S
C4609 C4605 1.495 . S
C4609 H4615 0.959 . S
C4609 H4616 0.961 . S
C4609 H4617 0.960 . S
C4610 C4608 1.381 . S
C4610 C4611 1.394 . S
C4610 H4618 0.930 . S
C4611 C4610 1.394 . S
C4611 C4612 1.383 . S
C4611 H4619 0.929 . S
C4612 C4611 1.383 . S
C4612 C4613 1.377 . S
C4613 H4597 0.930 . S
C4613 C4612 1.377 . S
C4613 C4614 1.379 . S
C4614 H4598 0.931 . S
C4614 C4608 1.383 . S
C4614 C4613 1.379 . S
H4615 C4609 0.959 . S
H4616 C4609 0.961 . S
H4617 C4609 0.960 . S
H4618 C4610 0.930 . S
H4619 C4611 0.929 . S
H4620 C4628 0.899 1_556 S
H4621 C4630 0.896 1_556 S
H4622 C4632 0.930 . S
H4623 C4635 0.929 . S
H4624 C4638 0.930 1_545 S
H4625 C4640 0.960 . S
H4626 C4640 0.960 . S
H4627 C4640 0.960 . S
C4628 H4620 0.899 1_554 S
C4628 C4629 1.414 . S
C4628 C4630 1.383 . S
C4629 C4628 1.414 . S
C4629 C4635 1.390 . S
C4630 H4621 0.896 1_554 S
C4630 C4628 1.383 . S
C4630 C4631 1.400 . S
C4631 C4630 1.400 . S
C4631 C4632 1.400 . S
C4631 C4636 1.490 . S
C4632 H4622 0.930 . S
C4632 C4631 1.400 . S
C4632 C4635 1.386 . S
H4633 C4649 0.930 . S
H4634 C4650 0.931 . S
C4635 H4623 0.929 . S
C4635 C4629 1.390 . S
C4635 C4632 1.386 . S
C4636 C4631 1.490 . S
C4636 C4638 1.395 . S
C4636 C4639 1.403 . S
H4637 C4643 0.930 . S
C4638 H4624 0.930 1_565 S
C4638 C4636 1.395 . S
C4638 C4641 1.403 1_565 S
C4639 C4636 1.403 . S
C4639 C4640 1.524 . S
C4639 C4643 1.400 . S
C4640 H4625 0.960 . S
C4640 H4626 0.960 . S
C4640 H4627 0.960 . S
C4640 C4639 1.524 . S
C4641 C4638 1.403 1_545 S
C4641 C4642 1.392 . S
C4641 C4645 1.495 . S
C4642 C4641 1.392 . S
C4642 C4643 1.385 1_545 S
C4642 C4644 1.478 . S
C4643 H4637 0.930 . S
C4643 C4639 1.400 . S
C4643 C4642 1.385 1_565 S
C4644 C4642 1.478 . S
C4644 C4646 1.381 . S
C4644 C4650 1.383 . S
C4645 C4641 1.495 . S
C4645 H4651 0.959 . S
C4645 H4652 0.961 . S
C4645 H4653 0.917 1_554 S
C4646 C4644 1.381 . S
C4646 C4647 1.394 . S
C4646 H4654 0.930 1_554 S
C4647 C4646 1.394 . S
C4647 C4648 1.383 . S
C4647 H4655 0.929 1_554 S
C4648 C4647 1.383 . S
C4648 C4649 1.377 . S
C4649 H4633 0.930 . S
C4649 C4648 1.377 . S
C4649 C4650 1.379 . S
C4650 H4634 0.931 . S
C4650 C4644 1.383 . S
C4650 C4649 1.379 . S
H4651 C4645 0.959 . S
H4652 C4645 0.961 . S
H4653 C4645 0.917 1_556 S
H4654 C4646 0.930 1_556 S
H4655 C4647 0.929 1_556 S
H4656 C4664 0.929 . S
H4657 C4666 0.930 . S
H4658 C4668 0.930 . S
H4659 C4671 0.929 . S
H4660 C4674 0.930 . S
H4661 C4676 0.960 . S
H4662 C4676 0.960 . S
H4663 C4676 0.960 . S
C4664 H4656 0.929 . S
C4664 C4665 1.377 . S
C4664 C4666 1.384 . S
C4665 C4664 1.377 . S
C4665 C4671 1.390 . S
C4666 H4657 0.930 . S
C4666 C4664 1.384 . S
C4666 C4667 1.372 . S
C4667 C4666 1.372 . S
C4667 C4668 1.400 . S
C4667 C4672 1.490 . S
C4668 H4658 0.930 . S
C4668 C4667 1.400 . S
C4668 C4671 1.386 . S
H4669 C4685 0.930 . S
H4670 C4686 0.931 . S
C4671 H4659 0.929 . S
C4671 C4665 1.390 . S
C4671 C4668 1.386 . S
C4672 C4667 1.490 . S
C4672 C4674 1.395 . S
C4672 C4675 1.403 . S
H4673 C4679 0.930 . S
C4674 H4660 0.930 . S
C4674 C4672 1.395 . S
C4674 C4677 1.403 . S
C4675 C4672 1.403 . S
C4675 C4676 1.524 . S
C4675 C4679 1.400 . S
C4676 H4661 0.960 . S
C4676 H4662 0.960 . S
C4676 H4663 0.960 . S
C4676 C4675 1.524 . S
C4677 C4674 1.403 . S
C4677 C4678 1.392 . S
C4677 C4681 1.495 . S
C4678 C4677 1.392 . S
C4678 C4679 1.385 . S
C4678 C4680 1.478 . S
C4679 H4673 0.930 . S
C4679 C4675 1.400 . S
C4679 C4678 1.385 . S
C4680 C4678 1.478 . S
C4680 C4682 1.381 . S
C4680 C4686 1.383 . S
C4681 C4677 1.495 . S
C4681 H4687 0.959 . S
C4681 H4688 0.961 . S
C4681 H4689 0.960 . S
C4682 C4680 1.381 . S
C4682 C4683 1.394 . S
C4682 H4690 0.930 . S
C4683 C4682 1.394 . S
C4683 C4684 1.383 . S
C4683 H4691 0.929 . S
C4684 C4683 1.383 . S
C4684 C4685 1.377 . S
C4685 H4669 0.930 . S
C4685 C4684 1.377 . S
C4685 C4686 1.379 . S
C4686 H4670 0.931 . S
C4686 C4680 1.383 . S
C4686 C4685 1.379 . S
H4687 C4681 0.959 . S
H4688 C4681 0.961 . S
H4689 C4681 0.960 . S
H4690 C4682 0.930 . S
H4691 C4683 0.929 . S
H4692 C4700 0.929 . S
H4693 C4702 0.930 . S
H4694 C4704 0.930 . S
H4695 C4707 0.929 . S
H4696 C4710 0.940 . S
H4697 C4712 0.960 . S
H4698 C4712 0.960 . S
H4699 C4712 0.960 . S
C4700 H4692 0.929 . S
C4700 C4701 1.376 . S
C4700 C4702 1.384 . S
C4701 C4700 1.376 . S
C4701 C4707 1.391 1_554 S
C4702 H4693 0.930 . S
C4702 C4700 1.384 . S
C4702 C4703 1.372 . S
C4703 C4702 1.372 . S
C4703 C4704 1.400 1_554 S
C4703 C4708 1.490 . S
C4704 H4694 0.930 . S
C4704 C4703 1.400 1_556 S
C4704 C4707 1.386 . S
H4705 C4721 0.930 . S
H4706 C4722 0.931 1_556 S
C4707 H4695 0.929 . S
C4707 C4701 1.391 1_556 S
C4707 C4704 1.386 . S
C4708 C4703 1.490 . S
C4708 C4710 1.395 . S
C4708 C4711 1.403 . S
H4709 C4715 0.930 . S
C4710 H4696 0.940 . S
C4710 C4708 1.395 . S
C4710 C4713 1.403 . S
C4711 C4708 1.403 . S
C4711 C4712 1.524 . S
C4711 C4715 1.400 . S
C4712 H4697 0.960 . S
C4712 H4698 0.960 . S
C4712 H4699 0.960 . S
C4712 C4711 1.524 . S
C4713 C4710 1.403 . S
C4713 C4714 1.392 . S
C4713 C4717 1.495 . S
C4714 C4713 1.392 . S
C4714 C4715 1.385 . S
C4714 C4716 1.478 . S
C4715 H4709 0.930 . S
C4715 C4711 1.400 . S
C4715 C4714 1.385 . S
C4716 C4714 1.478 . S
C4716 C4718 1.381 . S
C4716 C4722 1.383 . S
C4717 C4713 1.495 . S
C4717 H4723 0.959 1_554 S
C4717 H4724 0.961 1_554 S
C4717 H4725 0.960 . S
C4718 C4716 1.381 . S
C4718 C4719 1.394 . S
C4718 H4726 0.930 . S
C4719 C4718 1.394 . S
C4719 C4720 1.383 . S
C4719 H4727 0.929 . S
C4720 C4719 1.383 . S
C4720 C4721 1.377 . S
C4721 H4705 0.930 . S
C4721 C4720 1.377 . S
C4721 C4722 1.379 . S
C4722 H4706 0.931 1_554 S
C4722 C4716 1.383 . S
C4722 C4721 1.379 . S
H4723 C4717 0.959 1_556 S
H4724 C4717 0.961 1_556 S
H4725 C4717 0.960 . S
H4726 C4718 0.930 . S
H4727 C4719 0.929 . S
H4728 C4736 0.929 . S
H4729 C4738 0.930 . S
H4730 C4740 0.930 . S
H4731 C4743 0.929 . S
H4732 C4746 0.930 . S
H4733 C4748 0.960 . S
H4734 C4748 0.960 . S
H4735 C4748 0.960 . S
C4736 H4728 0.929 . S
C4736 C4737 1.377 . S
C4736 C4738 1.384 . S
C4737 C4736 1.377 . S
C4737 C4743 1.390 . S
C4738 H4729 0.930 . S
C4738 C4736 1.384 . S
C4738 C4739 1.372 . S
C4739 C4738 1.372 . S
C4739 C4740 1.400 . S
C4739 C4744 1.490 . S
C4740 H4730 0.930 . S
C4740 C4739 1.400 . S
C4740 C4743 1.386 . S
H4741 C4757 0.930 . S
H4742 C4758 0.931 . S
C4743 H4731 0.929 . S
C4743 C4737 1.390 . S
C4743 C4740 1.386 . S
C4744 C4739 1.490 . S
C4744 C4746 1.395 . S
C4744 C4747 1.403 . S
H4745 C4751 0.930 . S
C4746 H4732 0.930 . S
C4746 C4744 1.395 . S
C4746 C4749 1.403 . S
C4747 C4744 1.403 . S
C4747 C4748 1.524 . S
C4747 C4751 1.400 . S
C4748 H4733 0.960 . S
C4748 H4734 0.960 . S
C4748 H4735 0.960 . S
C4748 C4747 1.524 . S
C4749 C4746 1.403 . S
C4749 C4750 1.392 . S
C4749 C4753 1.495 . S
C4750 C4749 1.392 . S
C4750 C4751 1.385 . S
C4750 C4752 1.478 . S
C4751 H4745 0.930 . S
C4751 C4747 1.400 . S
C4751 C4750 1.385 . S
C4752 C4750 1.478 . S
C4752 C4754 1.381 . S
C4752 C4758 1.383 . S
C4753 C4749 1.495 . S
C4753 H4759 0.959 . S
C4753 H4760 0.961 . S
C4753 H4761 0.960 . S
C4754 C4752 1.381 . S
C4754 C4755 1.394 . S
C4754 H4762 0.930 . S
C4755 C4754 1.394 . S
C4755 C4756 1.383 . S
C4755 H4763 0.929 . S
C4756 C4755 1.383 . S
C4756 C4757 1.377 . S
C4757 H4741 0.930 . S
C4757 C4756 1.377 . S
C4757 C4758 1.379 . S
C4758 H4742 0.931 . S
C4758 C4752 1.383 . S
C4758 C4757 1.379 . S
H4759 C4753 0.959 . S
H4760 C4753 0.961 . S
H4761 C4753 0.960 . S
H4762 C4754 0.930 . S
H4763 C4755 0.929 . S
H4764 C4772 0.929 . S
H4765 C4774 0.930 . S
H4766 C4776 0.930 . S
H4767 C4779 0.929 . S
H4768 C4782 0.930 . S
H4769 C4784 0.960 . S
H4770 C4784 0.960 . S
H4771 C4784 0.960 . S
C4772 H4764 0.929 . S
C4772 C4773 1.377 . S
C4772 C4774 1.384 . S
C4773 C4772 1.377 . S
C4773 C4779 1.390 . S
C4774 H4765 0.930 . S
C4774 C4772 1.384 . S
C4774 C4775 1.372 . S
C4775 C4774 1.372 . S
C4775 C4776 1.400 . S
C4775 C4780 1.490 . S
C4776 H4766 0.930 . S
C4776 C4775 1.400 . S
C4776 C4779 1.386 . S
H4777 C4793 0.930 . S
H4778 C4794 0.931 . S
C4779 H4767 0.929 . S
C4779 C4773 1.390 . S
C4779 C4776 1.386 . S
C4780 C4775 1.490 . S
C4780 C4782 1.395 . S
C4780 C4783 1.403 . S
H4781 C4787 0.930 . S
C4782 H4768 0.930 . S
C4782 C4780 1.395 . S
C4782 C4785 1.403 . S
C4783 C4780 1.403 . S
C4783 C4784 1.524 . S
C4783 C4787 1.400 . S
C4784 H4769 0.960 . S
C4784 H4770 0.960 . S
C4784 H4771 0.960 . S
C4784 C4783 1.524 . S
C4785 C4782 1.403 . S
C4785 C4786 1.392 . S
C4785 C4789 1.495 . S
C4786 C4785 1.392 . S
C4786 C4787 1.385 . S
C4786 C4788 1.478 . S
C4787 H4781 0.930 . S
C4787 C4783 1.400 . S
C4787 C4786 1.385 . S
C4788 C4786 1.478 . S
C4788 C4790 1.381 . S
C4788 C4794 1.383 . S
C4789 C4785 1.495 . S
C4789 H4795 0.959 . S
C4789 H4796 0.961 . S
C4789 H4797 0.960 . S
C4790 C4788 1.381 . S
C4790 C4791 1.394 . S
C4790 H4798 0.930 . S
C4791 C4790 1.394 . S
C4791 C4792 1.383 . S
C4791 H4799 0.929 . S
C4792 C4791 1.383 . S
C4792 C4793 1.377 . S
C4793 H4777 0.930 . S
C4793 C4792 1.377 . S
C4793 C4794 1.379 . S
C4794 H4778 0.931 . S
C4794 C4788 1.383 . S
C4794 C4793 1.379 . S
H4795 C4789 0.959 . S
H4796 C4789 0.961 . S
H4797 C4789 0.960 . S
H4798 C4790 0.930 . S
H4799 C4791 0.929 . S
H4800 C4808 0.929 . S
H4801 C4810 0.930 . S
H4802 C4812 0.930 . S
H4803 C4815 0.929 . S
H4804 C4818 0.930 . S
H4805 C4820 0.960 . S
H4806 C4820 0.960 . S
H4807 C4820 0.960 . S
C4808 H4800 0.929 . S
C4808 C4809 1.377 . S
C4808 C4810 1.384 . S
C4809 C4808 1.377 . S
C4809 C4815 1.390 . S
C4810 H4801 0.930 . S
C4810 C4808 1.384 . S
C4810 C4811 1.372 . S
C4811 C4810 1.372 . S
C4811 C4812 1.400 . S
C4811 C4816 1.490 . S
C4812 H4802 0.930 . S
C4812 C4811 1.400 . S
C4812 C4815 1.386 . S
H4813 C4829 0.930 . S
H4814 C4830 0.931 . S
C4815 H4803 0.929 . S
C4815 C4809 1.390 . S
C4815 C4812 1.386 . S
C4816 C4811 1.490 . S
C4816 C4818 1.395 . S
C4816 C4819 1.403 . S
H4817 C4823 0.930 . S
C4818 H4804 0.930 . S
C4818 C4816 1.395 . S
C4818 C4821 1.403 . S
C4819 C4816 1.403 . S
C4819 C4820 1.524 . S
C4819 C4823 1.400 . S
C4820 H4805 0.960 . S
C4820 H4806 0.960 . S
C4820 H4807 0.960 . S
C4820 C4819 1.524 . S
C4821 C4818 1.403 . S
C4821 C4822 1.392 . S
C4821 C4825 1.495 . S
C4822 C4821 1.392 . S
C4822 C4823 1.385 . S
C4822 C4824 1.478 . S
C4823 H4817 0.930 . S
C4823 C4819 1.400 . S
C4823 C4822 1.385 . S
C4824 C4822 1.478 . S
C4824 C4826 1.381 . S
C4824 C4830 1.383 . S
C4825 C4821 1.495 . S
C4825 H4831 0.959 . S
C4825 H4832 0.961 . S
C4825 H4833 0.960 . S
C4826 C4824 1.381 . S
C4826 C4827 1.394 . S
C4826 H4834 0.930 . S
C4827 C4826 1.394 . S
C4827 C4828 1.383 . S
C4827 H4835 0.929 . S
C4828 C4827 1.383 . S
C4828 C4829 1.377 . S
C4829 H4813 0.930 . S
C4829 C4828 1.377 . S
C4829 C4830 1.379 . S
C4830 H4814 0.931 . S
C4830 C4824 1.383 . S
C4830 C4829 1.379 . S
H4831 C4825 0.959 . S
H4832 C4825 0.961 . S
H4833 C4825 0.960 . S
H4834 C4826 0.930 . S
H4835 C4827 0.929 . S
H4836 C4844 0.929 . S
H4837 C4846 0.930 . S
H4838 C4848 0.930 . S
H4839 C4851 0.929 . S
H4840 C4854 0.930 . S
H4841 C4856 0.960 . S
H4842 C4856 0.960 . S
H4843 C4856 0.960 . S
C4844 H4836 0.929 . S
C4844 C4845 1.377 . S
C4844 C4846 1.384 . S
C4845 C4844 1.377 . S
C4845 C4851 1.390 . S
C4846 H4837 0.930 . S
C4846 C4844 1.384 . S
C4846 C4847 1.372 . S
C4847 C4846 1.372 . S
C4847 C4848 1.400 . S
C4847 C4852 1.490 . S
C4848 H4838 0.930 . S
C4848 C4847 1.400 . S
C4848 C4851 1.386 . S
H4849 C4865 0.930 . S
H4850 C4866 0.931 . S
C4851 H4839 0.929 . S
C4851 C4845 1.390 . S
C4851 C4848 1.386 . S
C4852 C4847 1.490 . S
C4852 C4854 1.395 . S
C4852 C4855 1.403 . S
H4853 C4859 0.930 . S
C4854 H4840 0.930 . S
C4854 C4852 1.395 . S
C4854 C4857 1.403 . S
C4855 C4852 1.403 . S
C4855 C4856 1.524 . S
C4855 C4859 1.400 . S
C4856 H4841 0.960 . S
C4856 H4842 0.960 . S
C4856 H4843 0.960 . S
C4856 C4855 1.524 . S
C4857 C4854 1.403 . S
C4857 C4858 1.392 . S
C4857 C4861 1.495 . S
C4858 C4857 1.392 . S
C4858 C4859 1.385 . S
C4858 C4860 1.478 . S
C4859 H4853 0.930 . S
C4859 C4855 1.400 . S
C4859 C4858 1.385 . S
C4860 C4858 1.478 . S
C4860 C4862 1.381 . S
C4860 C4866 1.383 . S
C4861 C4857 1.495 . S
C4861 H4867 0.959 . S
C4861 H4868 0.961 . S
C4861 H4869 0.960 . S
C4862 C4860 1.381 . S
C4862 C4863 1.394 . S
C4862 H4870 0.930 . S
C4863 C4862 1.394 . S
C4863 C4864 1.383 . S
C4863 H4871 0.929 . S
C4864 C4863 1.383 . S
C4864 C4865 1.377 . S
C4865 H4849 0.930 . S
C4865 C4864 1.377 . S
C4865 C4866 1.379 . S
C4866 H4850 0.931 . S
C4866 C4860 1.383 . S
C4866 C4865 1.379 . S
H4867 C4861 0.959 . S
H4868 C4861 0.961 . S
H4869 C4861 0.960 . S
H4870 C4862 0.930 . S
H4871 C4863 0.929 . S
H4872 C4880 0.929 . S
H4873 C4882 0.930 . S
H4874 C4884 0.930 . S
H4875 C4887 0.929 . S
H4876 C4890 0.930 . S
H4877 C4892 0.960 . S
H4878 C4892 0.960 . S
H4879 C4892 0.960 . S
C4880 H4872 0.929 . S
C4880 C4881 1.377 . S
C4880 C4882 1.384 . S
C4881 C4880 1.377 . S
C4881 C4887 1.390 . S
C4882 H4873 0.930 . S
C4882 C4880 1.384 . S
C4882 C4883 1.372 . S
C4883 C4882 1.372 . S
C4883 C4884 1.400 . S
C4883 C4888 1.490 . S
C4884 H4874 0.930 . S
C4884 C4883 1.400 . S
C4884 C4887 1.386 . S
H4885 C4901 0.930 . S
H4886 C4902 0.931 . S
C4887 H4875 0.929 . S
C4887 C4881 1.390 . S
C4887 C4884 1.386 . S
C4888 C4883 1.490 . S
C4888 C4890 1.395 . S
C4888 C4891 1.403 . S
H4889 C4895 0.930 . S
C4890 H4876 0.930 . S
C4890 C4888 1.395 . S
C4890 C4893 1.403 . S
C4891 C4888 1.403 . S
C4891 C4892 1.524 . S
C4891 C4895 1.400 . S
C4892 H4877 0.960 . S
C4892 H4878 0.960 . S
C4892 H4879 0.960 . S
C4892 C4891 1.524 . S
C4893 C4890 1.403 . S
C4893 C4894 1.392 . S
C4893 C4897 1.495 . S
C4894 C4893 1.392 . S
C4894 C4895 1.385 . S
C4894 C4896 1.478 . S
C4895 H4889 0.930 . S
C4895 C4891 1.400 . S
C4895 C4894 1.385 . S
C4896 C4894 1.478 . S
C4896 C4898 1.381 . S
C4896 C4902 1.383 . S
C4897 C4893 1.495 . S
C4897 H4903 0.959 . S
C4897 H4904 0.961 . S
C4897 H4905 0.960 . S
C4898 C4896 1.381 . S
C4898 C4899 1.394 . S
C4898 H4906 0.930 . S
C4899 C4898 1.394 . S
C4899 C4900 1.383 . S
C4899 H4907 0.976 . S
C4900 C4899 1.383 . S
C4900 C4901 1.377 . S
C4901 H4885 0.930 . S
C4901 C4900 1.377 . S
C4901 C4902 1.379 . S
C4902 H4886 0.931 . S
C4902 C4896 1.383 . S
C4902 C4901 1.379 . S
H4903 C4897 0.959 . S
H4904 C4897 0.961 . S
H4905 C4897 0.960 . S
H4906 C4898 0.930 . S
H4907 C4899 0.976 . S
H4908 C4916 0.929 . S
H4909 C4918 0.930 . S
H4910 C4920 0.930 . S
H4911 C4923 0.929 . S
H4912 C4926 0.930 . S
H4913 C4928 0.960 . S
H4914 C4928 0.960 . S
H4915 C4928 0.960 . S
C4916 H4908 0.929 . S
C4916 C4917 1.377 . S
C4916 C4918 1.384 . S
C4917 C4916 1.377 . S
C4917 C4923 1.390 . S
C4918 H4909 0.930 . S
C4918 C4916 1.384 . S
C4918 C4919 1.372 . S
C4919 C4918 1.372 . S
C4919 C4920 1.400 . S
C4919 C4924 1.490 . S
C4920 H4910 0.930 . S
C4920 C4919 1.400 . S
C4920 C4923 1.386 . S
H4921 C4937 0.930 . S
H4922 C4938 0.931 . S
C4923 H4911 0.929 . S
C4923 C4917 1.390 . S
C4923 C4920 1.386 . S
C4924 C4919 1.490 . S
C4924 C4926 1.395 . S
C4924 C4927 1.403 . S
H4925 C4931 0.930 . S
C4926 H4912 0.930 . S
C4926 C4924 1.395 . S
C4926 C4929 1.403 . S
C4927 C4924 1.403 . S
C4927 C4928 1.524 . S
C4927 C4931 1.400 . S
C4928 H4913 0.960 . S
C4928 H4914 0.960 . S
C4928 H4915 0.960 . S
C4928 C4927 1.524 . S
C4929 C4926 1.403 . S
C4929 C4930 1.392 . S
C4929 C4933 1.495 . S
C4930 C4929 1.392 . S
C4930 C4931 1.385 . S
C4930 C4932 1.478 . S
C4931 H4925 0.930 . S
C4931 C4927 1.400 . S
C4931 C4930 1.385 . S
C4932 C4930 1.478 . S
C4932 C4934 1.381 . S
C4932 C4938 1.383 . S
C4933 C4929 1.495 . S
C4933 H4939 0.959 . S
C4933 H4940 0.961 . S
C4933 H4941 0.960 . S
C4934 C4932 1.381 . S
C4934 C4935 1.394 . S
C4934 H4942 0.930 . S
C4935 C4934 1.394 . S
C4935 C4936 1.383 . S
C4935 H4943 0.929 . S
C4936 C4935 1.383 . S
C4936 C4937 1.377 . S
C4937 H4921 0.930 . S
C4937 C4936 1.377 . S
C4937 C4938 1.379 . S
C4938 H4922 0.931 . S
C4938 C4932 1.383 . S
C4938 C4937 1.379 . S
H4939 C4933 0.959 . S
H4940 C4933 0.961 . S
H4941 C4933 0.960 . S
H4942 C4934 0.930 . S
H4943 C4935 0.929 . S
H4944 C4952 0.929 . S
H4945 C4954 0.930 . S
H4946 C4956 0.930 . S
H4947 C4959 0.929 . S
H4948 C4962 0.930 . S
H4949 C4964 0.960 . S
H4950 C4964 0.960 . S
H4951 C4964 0.960 . S
C4952 H4944 0.929 . S
C4952 C4953 1.377 . S
C4952 C4954 1.384 . S
C4953 C4952 1.377 . S
C4953 C4959 1.390 . S
C4954 H4945 0.930 . S
C4954 C4952 1.384 . S
C4954 C4955 1.372 . S
C4955 C4954 1.372 . S
C4955 C4956 1.400 . S
C4955 C4960 1.490 . S
C4956 H4946 0.930 . S
C4956 C4955 1.400 . S
C4956 C4959 1.386 . S
H4957 C4973 0.930 . S
H4958 C4974 0.931 . S
C4959 H4947 0.929 . S
C4959 C4953 1.390 . S
C4959 C4956 1.386 . S
C4960 C4955 1.490 . S
C4960 C4962 1.395 . S
C4960 C4963 1.403 . S
H4961 C4967 0.930 . S
C4962 H4948 0.930 . S
C4962 C4960 1.395 . S
C4962 C4965 1.403 . S
C4963 C4960 1.403 . S
C4963 C4964 1.524 . S
C4963 C4967 1.400 . S
C4964 H4949 0.960 . S
C4964 H4950 0.960 . S
C4964 H4951 0.960 . S
C4964 C4963 1.524 . S
C4965 C4962 1.403 . S
C4965 C4966 1.392 . S
C4965 C4969 1.495 . S
C4966 C4965 1.392 . S
C4966 C4967 1.385 . S
C4966 C4968 1.478 . S
C4967 H4961 0.930 . S
C4967 C4963 1.400 . S
C4967 C4966 1.385 . S
C4968 C4966 1.478 . S
C4968 C4970 1.381 . S
C4968 C4974 1.383 . S
C4969 C4965 1.495 . S
C4969 H4975 0.959 . S
C4969 H4976 0.961 . S
C4969 H4977 0.960 . S
C4970 C4968 1.381 . S
C4970 C4971 1.394 . S
C4970 H4978 0.930 . S
C4971 C4970 1.394 . S
C4971 C4972 1.383 . S
C4971 H4979 0.929 . S
C4972 C4971 1.383 . S
C4972 C4973 1.377 . S
C4973 H4957 0.930 . S
C4973 C4972 1.377 . S
C4973 C4974 1.379 . S
C4974 H4958 0.931 . S
C4974 C4968 1.383 . S
C4974 C4973 1.379 . S
H4975 C4969 0.959 . S
H4976 C4969 0.961 . S
H4977 C4969 0.960 . S
H4978 C4970 0.930 . S
H4979 C4971 0.929 . S
H4980 C4988 0.929 . S
H4981 C4990 0.930 . S
H4982 C4992 0.930 . S
H4983 C4995 0.929 . S
H4984 C4998 0.930 . S
H4985 C5000 0.960 . S
H4986 C5000 0.960 . S
H4987 C5000 0.960 . S
C4988 H4980 0.929 . S
C4988 C4989 1.377 . S
C4988 C4990 1.384 . S
C4989 C4988 1.377 . S
C4989 C4995 1.390 . S
C4990 H4981 0.930 . S
C4990 C4988 1.384 . S
C4990 C4991 1.372 . S
C4991 C4990 1.372 . S
C4991 C4992 1.400 . S
C4991 C4996 1.490 . S
C4992 H4982 0.930 . S
C4992 C4991 1.400 . S
C4992 C4995 1.386 . S
H4993 C5009 0.930 . S
H4994 C5010 0.931 . S
C4995 H4983 0.929 . S
C4995 C4989 1.390 . S
C4995 C4992 1.386 . S
C4996 C4991 1.490 . S
C4996 C4998 1.395 . S
C4996 C4999 1.403 . S
H4997 C5003 0.930 . S
C4998 H4984 0.930 . S
C4998 C4996 1.395 . S
C4998 C5001 1.403 . S
C4999 C4996 1.403 . S
C4999 C5000 1.524 . S
C4999 C5003 1.400 . S
C5000 H4985 0.960 . S
C5000 H4986 0.960 . S
C5000 H4987 0.960 . S
C5000 C4999 1.524 . S
C5001 C4998 1.403 . S
C5001 C5002 1.392 . S
C5001 C5005 1.495 . S
C5002 C5001 1.392 . S
C5002 C5003 1.385 . S
C5002 C5004 1.478 . S
C5003 H4997 0.930 . S
C5003 C4999 1.400 . S
C5003 C5002 1.385 . S
C5004 C5002 1.478 . S
C5004 C5006 1.381 . S
C5004 C5010 1.383 . S
C5005 C5001 1.495 . S
C5005 H5011 0.959 . S
C5005 H5012 0.961 . S
C5005 H5013 0.960 . S
C5006 C5004 1.381 . S
C5006 C5007 1.394 . S
C5006 H5014 0.930 . S
C5007 C5006 1.394 . S
C5007 C5008 1.383 . S
C5007 H5015 0.929 . S
C5008 C5007 1.383 . S
C5008 C5009 1.377 . S
C5009 H4993 0.930 . S
C5009 C5008 1.377 . S
C5009 C5010 1.379 . S
C5010 H4994 0.931 . S
C5010 C5004 1.383 . S
C5010 C5009 1.379 . S
H5011 C5005 0.959 . S
H5012 C5005 0.961 . S
H5013 C5005 0.960 . S
H5014 C5006 0.930 . S
H5015 C5007 0.929 . S
H5016 C5024 0.929 . S
H5017 C5026 0.930 . S
H5018 C5028 0.930 . S
H5019 C5031 0.929 . S
H5020 C5034 0.930 . S
H5021 C5036 0.960 . S
H5022 C5036 0.960 . S
H5023 C5036 0.960 . S
C5024 H5016 0.929 . S
C5024 C5025 1.377 . S
C5024 C5026 1.384 . S
C5025 C5024 1.377 . S
C5025 C5031 1.390 . S
C5026 H5017 0.930 . S
C5026 C5024 1.384 . S
C5026 C5027 1.372 . S
C5027 C5026 1.372 . S
C5027 C5028 1.400 . S
C5027 C5032 1.490 . S
C5028 H5018 0.930 . S
C5028 C5027 1.400 . S
C5028 C5031 1.386 . S
H5029 C5045 0.930 . S
H5030 C5046 0.931 . S
C5031 H5019 0.929 . S
C5031 C5025 1.390 . S
C5031 C5028 1.386 . S
C5032 C5027 1.490 . S
C5032 C5034 1.395 . S
C5032 C5035 1.403 . S
H5033 C5039 0.930 . S
C5034 H5020 0.930 . S
C5034 C5032 1.395 . S
C5034 C5037 1.403 . S
C5035 C5032 1.403 . S
C5035 C5036 1.524 . S
C5035 C5039 1.400 . S
C5036 H5021 0.960 . S
C5036 H5022 0.960 . S
C5036 H5023 0.960 . S
C5036 C5035 1.524 . S
C5037 C5034 1.403 . S
C5037 C5038 1.392 . S
C5037 C5041 1.495 . S
C5038 C5037 1.392 . S
C5038 C5039 1.385 . S
C5038 C5040 1.478 . S
C5039 H5033 0.930 . S
C5039 C5035 1.400 . S
C5039 C5038 1.385 . S
C5040 C5038 1.478 . S
C5040 C5042 1.381 . S
C5040 C5046 1.383 . S
C5041 C5037 1.495 . S
C5041 H5047 0.959 . S
C5041 H5048 0.961 . S
C5041 H5049 0.960 . S
C5042 C5040 1.381 . S
C5042 C5043 1.394 . S
C5042 H5050 0.930 . S
C5043 C5042 1.394 . S
C5043 C5044 1.383 . S
C5043 H5051 0.929 . S
C5044 C5043 1.383 . S
C5044 C5045 1.377 . S
C5045 H5029 0.930 . S
C5045 C5044 1.377 . S
C5045 C5046 1.379 . S
C5046 H5030 0.931 . S
C5046 C5040 1.383 . S
C5046 C5045 1.379 . S
H5047 C5041 0.959 . S
H5048 C5041 0.961 . S
H5049 C5041 0.960 . S
H5050 C5042 0.930 . S
H5051 C5043 0.929 . S
H5052 C5060 0.929 . S
H5053 C5062 0.930 . S
H5054 C5064 0.930 . S
H5055 C5067 0.929 . S
H5056 C5070 0.930 . S
H5057 C5072 0.960 . S
H5058 C5072 0.960 . S
H5059 C5072 0.960 . S
C5060 H5052 0.929 . S
C5060 C5061 1.377 . S
C5060 C5062 1.384 . S
C5061 C5060 1.377 . S
C5061 C5067 1.390 . S
C5062 H5053 0.930 . S
C5062 C5060 1.384 . S
C5062 C5063 1.372 . S
C5063 C5062 1.372 . S
C5063 C5064 1.400 . S
C5063 C5068 1.490 . S
C5064 H5054 0.930 . S
C5064 C5063 1.400 . S
C5064 C5067 1.386 . S
H5065 C5081 0.930 . S
H5066 C5082 0.931 . S
C5067 H5055 0.929 . S
C5067 C5061 1.390 . S
C5067 C5064 1.386 . S
C5068 C5063 1.490 . S
C5068 C5070 1.395 . S
C5068 C5071 1.403 . S
H5069 C5075 0.930 . S
C5070 H5056 0.930 . S
C5070 C5068 1.395 . S
C5070 C5073 1.403 . S
C5071 C5068 1.403 . S
C5071 C5072 1.524 . S
C5071 C5075 1.400 . S
C5072 H5057 0.960 . S
C5072 H5058 0.960 . S
C5072 H5059 0.960 . S
C5072 C5071 1.524 . S
C5073 C5070 1.403 . S
C5073 C5074 1.392 . S
C5073 C5077 1.495 . S
C5074 C5073 1.392 . S
C5074 C5075 1.385 . S
C5074 C5076 1.478 . S
C5075 H5069 0.930 . S
C5075 C5071 1.400 . S
C5075 C5074 1.385 . S
C5076 C5074 1.478 . S
C5076 C5078 1.381 . S
C5076 C5082 1.383 . S
C5077 C5073 1.495 . S
C5077 H5083 0.959 . S
C5077 H5084 0.961 . S
C5077 H5085 0.960 . S
C5078 C5076 1.381 . S
C5078 C5079 1.394 . S
C5078 H5086 0.930 . S
C5079 C5078 1.394 . S
C5079 C5080 1.383 . S
C5079 H5087 0.929 . S
C5080 C5079 1.383 . S
C5080 C5081 1.377 . S
C5081 H5065 0.930 . S
C5081 C5080 1.377 . S
C5081 C5082 1.379 . S
C5082 H5066 0.931 . S
C5082 C5076 1.383 . S
C5082 C5081 1.379 . S
H5083 C5077 0.959 . S
H5084 C5077 0.961 . S
H5085 C5077 0.960 . S
H5086 C5078 0.930 . S
H5087 C5079 0.929 . S
H5088 C5096 0.929 . S
H5089 C5098 0.930 . S
H5090 C5100 0.930 . S
H5091 C5103 0.929 . S
H5092 C5106 0.930 . S
H5093 C5108 0.960 . S
H5094 C5108 0.960 . S
H5095 C5108 0.960 . S
C5096 H5088 0.929 . S
C5096 C5097 1.377 . S
C5096 C5098 1.384 . S
C5097 C5096 1.377 . S
C5097 C5103 1.390 . S
C5098 H5089 0.930 . S
C5098 C5096 1.384 . S
C5098 C5099 1.372 . S
C5099 C5098 1.372 . S
C5099 C5100 1.400 . S
C5099 C5104 1.490 . S
C5100 H5090 0.930 . S
C5100 C5099 1.400 . S
C5100 C5103 1.386 . S
H5101 C5117 0.930 . S
H5102 C5118 0.931 . S
C5103 H5091 0.929 . S
C5103 C5097 1.390 . S
C5103 C5100 1.386 . S
C5104 C5099 1.490 . S
C5104 C5106 1.395 . S
C5104 C5107 1.403 . S
H5105 C5111 0.930 . S
C5106 H5092 0.930 . S
C5106 C5104 1.395 . S
C5106 C5109 1.403 . S
C5107 C5104 1.403 . S
C5107 C5108 1.524 . S
C5107 C5111 1.400 . S
C5108 H5093 0.960 . S
C5108 H5094 0.960 . S
C5108 H5095 0.960 . S
C5108 C5107 1.524 . S
C5109 C5106 1.403 . S
C5109 C5110 1.392 . S
C5109 C5113 1.495 . S
C5110 C5109 1.392 . S
C5110 C5111 1.385 . S
C5110 C5112 1.478 . S
C5111 H5105 0.930 . S
C5111 C5107 1.400 . S
C5111 C5110 1.385 . S
C5112 C5110 1.478 . S
C5112 C5114 1.381 . S
C5112 C5118 1.383 . S
C5113 C5109 1.495 . S
C5113 H5119 0.959 . S
C5113 H5120 0.961 . S
C5113 H5121 0.960 . S
C5114 C5112 1.381 . S
C5114 C5115 1.394 . S
C5114 H5122 0.930 . S
C5115 C5114 1.394 . S
C5115 C5116 1.383 . S
C5115 H5123 0.929 . S
C5116 C5115 1.383 . S
C5116 C5117 1.377 . S
C5117 H5101 0.930 . S
C5117 C5116 1.377 . S
C5117 C5118 1.379 . S
C5118 H5102 0.931 . S
C5118 C5112 1.383 . S
C5118 C5117 1.379 . S
H5119 C5113 0.959 . S
H5120 C5113 0.961 . S
H5121 C5113 0.960 . S
H5122 C5114 0.930 . S
H5123 C5115 0.929 . S
H5124 C5132 0.929 . S
H5125 C5134 0.930 . S
H5126 C5136 0.930 . S
H5127 C5139 0.929 . S
H5128 C5142 0.930 . S
H5129 C5144 0.960 . S
H5130 C5144 0.960 . S
H5131 C5144 0.960 . S
C5132 H5124 0.929 . S
C5132 C5133 1.377 . S
C5132 C5134 1.384 . S
C5133 C5132 1.377 . S
C5133 C5139 1.390 . S
C5134 H5125 0.930 . S
C5134 C5132 1.384 . S
C5134 C5135 1.372 . S
C5135 C5134 1.372 . S
C5135 C5136 1.400 . S
C5135 C5140 1.490 . S
C5136 H5126 0.930 . S
C5136 C5135 1.400 . S
C5136 C5139 1.386 . S
H5137 C5153 0.930 . S
H5138 C5154 0.931 . S
C5139 H5127 0.929 . S
C5139 C5133 1.390 . S
C5139 C5136 1.386 . S
C5140 C5135 1.490 . S
C5140 C5142 1.395 . S
C5140 C5143 1.403 . S
H5141 C5147 0.930 . S
C5142 H5128 0.930 . S
C5142 C5140 1.395 . S
C5142 C5145 1.403 . S
C5143 C5140 1.403 . S
C5143 C5144 1.524 . S
C5143 C5147 1.400 . S
C5144 H5129 0.960 . S
C5144 H5130 0.960 . S
C5144 H5131 0.960 . S
C5144 C5143 1.524 . S
C5145 C5142 1.403 . S
C5145 C5146 1.392 . S
C5145 C5149 1.495 . S
C5146 C5145 1.392 . S
C5146 C5147 1.385 . S
C5146 C5148 1.478 . S
C5147 H5141 0.930 . S
C5147 C5143 1.400 . S
C5147 C5146 1.385 . S
C5148 C5146 1.478 . S
C5148 C5150 1.381 . S
C5148 C5154 1.383 . S
C5149 C5145 1.495 . S
C5149 H5155 0.959 . S
C5149 H5156 0.961 . S
C5149 H5157 0.960 . S
C5150 C5148 1.381 . S
C5150 C5151 1.394 . S
C5150 H5158 0.930 . S
C5151 C5150 1.394 . S
C5151 C5152 1.383 . S
C5151 H5159 0.929 . S
C5152 C5151 1.383 . S
C5152 C5153 1.377 . S
C5153 H5137 0.930 . S
C5153 C5152 1.377 . S
C5153 C5154 1.379 . S
C5154 H5138 0.931 . S
C5154 C5148 1.383 . S
C5154 C5153 1.379 . S
H5155 C5149 0.959 . S
H5156 C5149 0.961 . S
H5157 C5149 0.960 . S
H5158 C5150 0.930 . S
H5159 C5151 0.929 . S
H5160 C5168 0.929 . S
H5161 C5170 0.930 . S
H5162 C5172 0.930 . S
H5163 C5175 0.929 . S
H5164 C5178 0.930 . S
H5165 C5180 0.960 . S
H5166 C5180 0.960 . S
H5167 C5180 0.960 . S
C5168 H5160 0.929 . S
C5168 C5169 1.377 . S
C5168 C5170 1.384 . S
C5169 C5168 1.377 . S
C5169 C5175 1.390 . S
C5170 H5161 0.930 . S
C5170 C5168 1.384 . S
C5170 C5171 1.372 . S
C5171 C5170 1.372 . S
C5171 C5172 1.400 . S
C5171 C5176 1.490 . S
C5172 H5162 0.930 . S
C5172 C5171 1.400 . S
C5172 C5175 1.386 . S
H5173 C5189 0.930 . S
H5174 C5190 0.931 1_655 S
C5175 H5163 0.929 . S
C5175 C5169 1.390 . S
C5175 C5172 1.386 . S
C5176 C5171 1.490 . S
C5176 C5178 1.395 . S
C5176 C5179 1.403 . S
H5177 C5183 0.930 . S
C5178 H5164 0.930 . S
C5178 C5176 1.395 . S
C5178 C5181 1.403 1_655 S
C5179 C5176 1.403 . S
C5179 C5180 1.524 . S
C5179 C5183 1.400 . S
C5180 H5165 0.960 . S
C5180 H5166 0.960 . S
C5180 H5167 0.960 . S
C5180 C5179 1.524 . S
C5181 C5178 1.403 1_455 S
C5181 C5182 1.392 1_455 S
C5181 C5185 1.495 . S
C5182 C5181 1.392 1_655 S
C5182 C5183 1.385 . S
C5182 C5184 1.478 1_655 S
C5183 H5177 0.930 . S
C5183 C5179 1.400 . S
C5183 C5182 1.385 . S
C5184 C5182 1.478 1_455 S
C5184 C5186 1.381 . S
C5184 C5190 1.383 . S
C5185 C5181 1.495 . S
C5185 H5191 0.959 . S
C5185 H5192 0.961 . S
C5185 H5193 0.960 . S
C5186 C5184 1.381 . S
C5186 C5187 1.394 . S
C5186 H5194 0.930 . S
C5187 C5186 1.394 . S
C5187 C5188 1.383 . S
C5187 H5195 0.929 . S
C5188 C5187 1.383 . S
C5188 C5189 1.377 . S
C5189 H5173 0.930 . S
C5189 C5188 1.377 . S
C5189 C5190 1.379 . S
C5190 H5174 0.931 1_455 S
C5190 C5184 1.383 . S
C5190 C5189 1.379 . S
H5191 C5185 0.959 . S
H5192 C5185 0.961 . S
H5193 C5185 0.960 . S
H5194 C5186 0.930 . S
H5195 C5187 0.929 . S
H5196 C5204 0.929 . S
H5197 C5206 0.930 . S
H5198 C5208 0.930 . S
H5199 C5211 0.929 . S
H5200 C5214 0.930 . S
H5201 C5216 0.960 . S
H5202 C5216 0.960 . S
H5203 C5216 0.960 . S
C5204 H5196 0.929 . S
C5204 C5205 1.377 . S
C5204 C5206 1.384 . S
C5205 C5204 1.377 . S
C5205 C5211 1.390 . S
C5206 H5197 0.930 . S
C5206 C5204 1.384 . S
C5206 C5207 1.372 . S
C5207 C5206 1.372 . S
C5207 C5208 1.400 . S
C5207 C5212 1.490 . S
C5208 H5198 0.930 . S
C5208 C5207 1.400 . S
C5208 C5211 1.386 . S
H5209 C5225 0.930 . S
H5210 C5226 0.931 . S
C5211 H5199 0.929 . S
C5211 C5205 1.390 . S
C5211 C5208 1.386 . S
C5212 C5207 1.490 . S
C5212 C5214 1.395 . S
C5212 C5215 1.403 . S
H5213 C5219 0.930 . S
C5214 H5200 0.930 . S
C5214 C5212 1.395 . S
C5214 C5217 1.403 . S
C5215 C5212 1.403 . S
C5215 C5216 1.524 . S
C5215 C5219 1.400 . S
C5216 H5201 0.960 . S
C5216 H5202 0.960 . S
C5216 H5203 0.960 . S
C5216 C5215 1.524 . S
C5217 C5214 1.403 . S
C5217 C5218 1.392 . S
C5217 C5221 1.495 . S
C5218 C5217 1.392 . S
C5218 C5219 1.385 . S
C5218 C5220 1.478 . S
C5219 H5213 0.930 . S
C5219 C5215 1.400 . S
C5219 C5218 1.385 . S
C5220 C5218 1.478 . S
C5220 C5222 1.381 . S
C5220 C5226 1.383 . S
C5221 C5217 1.495 . S
C5221 H5227 0.959 . S
C5221 H5228 0.961 . S
C5221 H5229 0.960 . S
C5222 C5220 1.381 . S
C5222 C5223 1.394 . S
C5222 H5230 0.930 . S
C5223 C5222 1.394 . S
C5223 C5224 1.383 . S
C5223 H5231 0.929 . S
C5224 C5223 1.383 . S
C5224 C5225 1.377 . S
C5225 H5209 0.930 . S
C5225 C5224 1.377 . S
C5225 C5226 1.379 . S
C5226 H5210 0.931 . S
C5226 C5220 1.383 . S
C5226 C5225 1.379 . S
H5227 C5221 0.959 . S
H5228 C5221 0.961 . S
H5229 C5221 0.960 . S
H5230 C5222 0.930 . S
H5231 C5223 0.929 . S
H5232 C5240 0.929 . S
H5233 C5242 0.930 . S
H5234 C5244 0.930 . S
H5235 C5247 0.929 . S
H5236 C5250 0.930 . S
H5237 C5252 0.960 . S
H5238 C5252 0.960 . S
H5239 C5252 0.960 . S
C5240 H5232 0.929 . S
C5240 C5241 1.377 . S
C5240 C5242 1.384 . S
C5241 C5240 1.377 . S
C5241 C5247 1.390 . S
C5242 H5233 0.930 . S
C5242 C5240 1.384 . S
C5242 C5243 1.372 . S
C5243 C5242 1.372 . S
C5243 C5244 1.400 . S
C5243 C5248 1.490 . S
C5244 H5234 0.930 . S
C5244 C5243 1.400 . S
C5244 C5247 1.386 . S
H5245 C5261 0.930 . S
H5246 C5262 0.931 . S
C5247 H5235 0.929 . S
C5247 C5241 1.390 . S
C5247 C5244 1.386 . S
C5248 C5243 1.490 . S
C5248 C5250 1.395 . S
C5248 C5251 1.403 . S
H5249 C5255 0.930 . S
C5250 H5236 0.930 . S
C5250 C5248 1.395 . S
C5250 C5253 1.403 . S
C5251 C5248 1.403 . S
C5251 C5252 1.524 . S
C5251 C5255 1.400 . S
C5252 H5237 0.960 . S
C5252 H5238 0.960 . S
C5252 H5239 0.960 . S
C5252 C5251 1.524 . S
C5253 C5250 1.403 . S
C5253 C5254 1.392 . S
C5253 C5257 1.495 . S
C5254 C5253 1.392 . S
C5254 C5255 1.385 . S
C5254 C5256 1.478 . S
C5255 H5249 0.930 . S
C5255 C5251 1.400 . S
C5255 C5254 1.385 . S
C5256 C5254 1.478 . S
C5256 C5258 1.381 . S
C5256 C5262 1.383 . S
C5257 C5253 1.495 . S
C5257 H5263 0.959 . S
C5257 H5264 0.961 . S
C5257 H5265 0.960 . S
C5258 C5256 1.381 . S
C5258 C5259 1.394 . S
C5258 H5266 0.930 . S
C5259 C5258 1.394 . S
C5259 C5260 1.383 . S
C5259 H5267 0.929 . S
C5260 C5259 1.383 . S
C5260 C5261 1.377 . S
C5261 H5245 0.930 . S
C5261 C5260 1.377 . S
C5261 C5262 1.379 . S
C5262 H5246 0.931 . S
C5262 C5256 1.383 . S
C5262 C5261 1.379 . S
H5263 C5257 0.959 . S
H5264 C5257 0.961 . S
H5265 C5257 0.960 . S
H5266 C5258 0.930 . S
H5267 C5259 0.929 . S
H5268 C5276 0.929 . S
H5269 C5278 0.930 . S
H5270 C5280 0.930 . S
H5271 C5283 0.929 . S
H5272 C5286 0.930 . S
H5273 C5288 0.960 . S
H5274 C5288 0.960 . S
H5275 C5288 0.960 . S
C5276 H5268 0.929 . S
C5276 C5277 1.377 . S
C5276 C5278 1.384 . S
C5277 C5276 1.377 . S
C5277 C5283 1.390 . S
C5278 H5269 0.930 . S
C5278 C5276 1.384 . S
C5278 C5279 1.372 . S
C5279 C5278 1.372 . S
C5279 C5280 1.400 . S
C5279 C5284 1.490 . S
C5280 H5270 0.930 . S
C5280 C5279 1.400 . S
C5280 C5283 1.386 . S
H5281 C5297 0.930 . S
H5282 C5298 0.931 . S
C5283 H5271 0.929 . S
C5283 C5277 1.390 . S
C5283 C5280 1.386 . S
C5284 C5279 1.490 . S
C5284 C5286 1.395 . S
C5284 C5287 1.403 . S
H5285 C5291 0.930 . S
C5286 H5272 0.930 . S
C5286 C5284 1.395 . S
C5286 C5289 1.403 . S
C5287 C5284 1.403 . S
C5287 C5288 1.524 . S
C5287 C5291 1.400 . S
C5288 H5273 0.960 . S
C5288 H5274 0.960 . S
C5288 H5275 0.960 . S
C5288 C5287 1.524 . S
C5289 C5286 1.403 . S
C5289 C5290 1.392 . S
C5289 C5293 1.495 . S
C5290 C5289 1.392 . S
C5290 C5291 1.385 . S
C5290 C5292 1.478 . S
C5291 H5285 0.930 . S
C5291 C5287 1.400 . S
C5291 C5290 1.385 . S
C5292 C5290 1.478 . S
C5292 C5294 1.381 . S
C5292 C5298 1.383 . S
C5293 C5289 1.495 . S
C5293 H5299 0.959 . S
C5293 H5300 0.961 . S
C5293 H5301 0.960 . S
C5294 C5292 1.381 . S
C5294 C5295 1.394 . S
C5294 H5302 0.930 . S
C5295 C5294 1.394 . S
C5295 C5296 1.383 . S
C5295 H5303 0.929 . S
C5296 C5295 1.383 . S
C5296 C5297 1.377 . S
C5297 H5281 0.930 . S
C5297 C5296 1.377 . S
C5297 C5298 1.379 . S
C5298 H5282 0.931 . S
C5298 C5292 1.383 . S
C5298 C5297 1.379 . S
H5299 C5293 0.959 . S
H5300 C5293 0.961 . S
H5301 C5293 0.960 . S
H5302 C5294 0.930 . S
H5303 C5295 0.929 . S
H5304 C5312 0.929 . S
H5305 C5314 0.930 . S
H5306 C5316 0.930 . S
H5307 C5319 0.929 . S
H5308 C5322 0.930 . S
H5309 C5324 0.960 . S
H5310 C5324 0.960 . S
H5311 C5324 0.960 . S
C5312 H5304 0.929 . S
C5312 C5313 1.377 . S
C5312 C5314 1.384 . S
C5313 C5312 1.377 . S
C5313 C5319 1.390 . S
C5314 H5305 0.930 . S
C5314 C5312 1.384 . S
C5314 C5315 1.372 . S
C5315 C5314 1.372 . S
C5315 C5316 1.400 . S
C5315 C5320 1.490 . S
C5316 H5306 0.930 . S
C5316 C5315 1.400 . S
C5316 C5319 1.386 . S
H5317 C5333 0.930 . S
H5318 C5334 0.931 . S
C5319 H5307 0.929 . S
C5319 C5313 1.390 . S
C5319 C5316 1.386 . S
C5320 C5315 1.490 . S
C5320 C5322 1.395 . S
C5320 C5323 1.403 . S
H5321 C5327 0.930 . S
C5322 H5308 0.930 . S
C5322 C5320 1.395 . S
C5322 C5325 1.403 . S
C5323 C5320 1.403 . S
C5323 C5324 1.524 . S
C5323 C5327 1.400 . S
C5324 H5309 0.960 . S
C5324 H5310 0.960 . S
C5324 H5311 0.960 . S
C5324 C5323 1.524 . S
C5325 C5322 1.403 . S
C5325 C5326 1.392 . S
C5325 C5329 1.495 . S
C5326 C5325 1.392 . S
C5326 C5327 1.385 . S
C5326 C5328 1.478 . S
C5327 H5321 0.930 . S
C5327 C5323 1.400 . S
C5327 C5326 1.385 . S
C5328 C5326 1.478 . S
C5328 C5330 1.381 . S
C5328 C5334 1.383 1_655 S
C5329 C5325 1.495 . S
C5329 H5335 0.959 . S
C5329 H5336 0.961 . S
C5329 H5337 0.960 . S
C5330 C5328 1.381 . S
C5330 C5331 1.394 . S
C5330 H5338 0.930 . S
C5331 C5330 1.394 . S
C5331 C5332 1.383 1_655 S
C5331 H5339 0.929 . S
C5332 C5331 1.383 1_455 S
C5332 C5333 1.377 . S
C5333 H5317 0.930 . S
C5333 C5332 1.377 . S
C5333 C5334 1.379 . S
C5334 H5318 0.931 . S
C5334 C5328 1.383 1_455 S
C5334 C5333 1.379 . S
H5335 C5329 0.959 . S
H5336 C5329 0.961 . S
H5337 C5329 0.960 . S
H5338 C5330 0.930 . S
H5339 C5331 0.929 . S
H5340 C5348 0.929 . S
H5341 C5350 0.930 . S
H5342 C5352 0.930 . S
H5343 C5355 0.929 . S
H5344 C5358 0.930 . S
H5345 C5360 0.960 . S
H5346 C5360 0.960 . S
H5347 C5360 0.960 . S
C5348 H5340 0.929 . S
C5348 C5349 1.377 . S
C5348 C5350 1.384 . S
C5349 C5348 1.377 . S
C5349 C5355 1.390 . S
C5350 H5341 0.930 . S
C5350 C5348 1.384 . S
C5350 C5351 1.372 . S
C5351 C5350 1.372 . S
C5351 C5352 1.400 . S
C5351 C5356 1.490 . S
C5352 H5342 0.930 . S
C5352 C5351 1.400 . S
C5352 C5355 1.386 . S
H5353 C5369 0.930 . S
H5354 C5370 0.931 . S
C5355 H5343 0.929 . S
C5355 C5349 1.390 . S
C5355 C5352 1.386 . S
C5356 C5351 1.490 . S
C5356 C5358 1.395 . S
C5356 C5359 1.403 . S
H5357 C5363 0.930 . S
C5358 H5344 0.930 . S
C5358 C5356 1.395 . S
C5358 C5361 1.403 . S
C5359 C5356 1.403 . S
C5359 C5360 1.524 . S
C5359 C5363 1.400 . S
C5360 H5345 0.960 . S
C5360 H5346 0.960 . S
C5360 H5347 0.960 . S
C5360 C5359 1.524 . S
C5361 C5358 1.403 . S
C5361 C5362 1.392 . S
C5361 C5365 1.495 . S
C5362 C5361 1.392 . S
C5362 C5363 1.385 . S
C5362 C5364 1.478 . S
C5363 H5357 0.930 . S
C5363 C5359 1.400 . S
C5363 C5362 1.385 . S
C5364 C5362 1.478 . S
C5364 C5366 1.381 . S
C5364 C5370 1.383 . S
C5365 C5361 1.495 . S
C5365 H5371 0.959 . S
C5365 H5372 0.961 . S
C5365 H5373 0.960 . S
C5366 C5364 1.381 . S
C5366 C5367 1.394 . S
C5366 H5374 0.930 . S
C5367 C5366 1.394 . S
C5367 C5368 1.383 . S
C5367 H5375 0.929 . S
C5368 C5367 1.383 . S
C5368 C5369 1.377 . S
C5369 H5353 0.930 . S
C5369 C5368 1.377 . S
C5369 C5370 1.379 . S
C5370 H5354 0.931 . S
C5370 C5364 1.383 . S
C5370 C5369 1.379 . S
H5371 C5365 0.959 . S
H5372 C5365 0.961 . S
H5373 C5365 0.960 . S
H5374 C5366 0.930 . S
H5375 C5367 0.929 . S
H5376 C5384 0.929 . S
H5377 C5386 0.930 . S
H5378 C5388 0.930 . S
H5379 C5391 0.929 . S
H5380 C5394 0.930 . S
H5381 C5396 0.960 . S
H5382 C5396 0.960 . S
H5383 C5396 0.960 . S
C5384 H5376 0.929 . S
C5384 C5385 1.377 . S
C5384 C5386 1.384 . S
C5385 C5384 1.377 . S
C5385 C5391 1.390 . S
C5386 H5377 0.930 . S
C5386 C5384 1.384 . S
C5386 C5387 1.372 . S
C5387 C5386 1.372 . S
C5387 C5388 1.400 . S
C5387 C5392 1.490 . S
C5388 H5378 0.930 . S
C5388 C5387 1.400 . S
C5388 C5391 1.386 . S
H5389 C5405 0.930 . S
H5390 C5406 0.931 . S
C5391 H5379 0.929 . S
C5391 C5385 1.390 . S
C5391 C5388 1.386 . S
C5392 C5387 1.490 . S
C5392 C5394 1.395 . S
C5392 C5395 1.403 . S
H5393 C5399 0.930 . S
C5394 H5380 0.930 . S
C5394 C5392 1.395 . S
C5394 C5397 1.403 . S
C5395 C5392 1.403 . S
C5395 C5396 1.524 . S
C5395 C5399 1.400 . S
C5396 H5381 0.960 . S
C5396 H5382 0.960 . S
C5396 H5383 0.960 . S
C5396 C5395 1.524 . S
C5397 C5394 1.403 . S
C5397 C5398 1.392 . S
C5397 C5401 1.495 . S
C5398 C5397 1.392 . S
C5398 C5399 1.385 . S
C5398 C5400 1.478 . S
C5399 H5393 0.930 . S
C5399 C5395 1.400 . S
C5399 C5398 1.385 . S
C5400 C5398 1.478 . S
C5400 C5402 1.381 . S
C5400 C5406 1.383 . S
C5401 C5397 1.495 . S
C5401 H5407 0.959 . S
C5401 H5408 0.961 . S
C5401 H5409 0.960 . S
C5402 C5400 1.381 . S
C5402 C5403 1.394 . S
C5402 H5410 0.930 . S
C5403 C5402 1.394 . S
C5403 C5404 1.383 . S
C5403 H5411 0.929 . S
C5404 C5403 1.383 . S
C5404 C5405 1.377 . S
C5405 H5389 0.930 . S
C5405 C5404 1.377 . S
C5405 C5406 1.379 . S
C5406 H5390 0.931 . S
C5406 C5400 1.383 . S
C5406 C5405 1.379 . S
H5407 C5401 0.959 . S
H5408 C5401 0.961 . S
H5409 C5401 0.960 . S
H5410 C5402 0.930 . S
H5411 C5403 0.929 . S
H5412 C5420 0.929 . S
H5413 C5422 0.930 . S
H5414 C5424 0.930 . S
H5415 C5427 0.929 . S
H5416 C5430 0.930 . S
H5417 C5432 0.960 . S
H5418 C5432 0.960 . S
H5419 C5432 0.960 . S
C5420 H5412 0.929 . S
C5420 C5421 1.377 . S
C5420 C5422 1.384 . S
C5421 C5420 1.377 . S
C5421 C5427 1.390 . S
C5422 H5413 0.930 . S
C5422 C5420 1.384 . S
C5422 C5423 1.372 . S
C5423 C5422 1.372 . S
C5423 C5424 1.400 . S
C5423 C5428 1.490 . S
C5424 H5414 0.930 . S
C5424 C5423 1.400 . S
C5424 C5427 1.386 . S
H5425 C5441 0.930 1_545 S
H5426 C5442 0.931 . S
C5427 H5415 0.929 . S
C5427 C5421 1.390 . S
C5427 C5424 1.386 . S
C5428 C5423 1.490 . S
C5428 C5430 1.395 . S
C5428 C5431 1.403 . S
H5429 C5435 0.930 . S
C5430 H5416 0.930 . S
C5430 C5428 1.395 . S
C5430 C5433 1.403 . S
C5431 C5428 1.403 . S
C5431 C5432 1.524 . S
C5431 C5435 1.400 . S
C5432 H5417 0.960 . S
C5432 H5418 0.960 . S
C5432 H5419 0.960 . S
C5432 C5431 1.524 . S
C5433 C5430 1.403 . S
C5433 C5434 1.392 . S
C5433 C5437 1.495 . S
C5434 C5433 1.392 . S
C5434 C5435 1.385 . S
C5434 C5436 1.478 . S
C5435 H5429 0.930 . S
C5435 C5431 1.400 . S
C5435 C5434 1.385 . S
C5436 C5434 1.478 . S
C5436 C5438 1.381 . S
C5436 C5442 1.383 . S
C5437 C5433 1.495 . S
C5437 H5443 0.959 . S
C5437 H5444 0.961 . S
C5437 H5445 0.960 . S
C5438 C5436 1.381 . S
C5438 C5439 1.394 . S
C5438 H5446 0.930 . S
C5439 C5438 1.394 . S
C5439 C5440 1.383 1_565 S
C5439 H5447 0.931 1_565 S
C5440 C5439 1.383 1_545 S
C5440 C5441 1.377 1_545 S
C5441 H5425 0.930 1_565 S
C5441 C5440 1.377 1_565 S
C5441 C5442 1.379 . S
C5442 H5426 0.931 . S
C5442 C5436 1.383 . S
C5442 C5441 1.379 . S
H5443 C5437 0.959 . S
H5444 C5437 0.961 . S
H5445 C5437 0.960 . S
H5446 C5438 0.930 . S
H5447 C5439 0.931 1_545 S
H5448 C5456 0.929 . S
H5449 C5458 0.930 . S
H5450 C5460 0.930 . S
H5451 C5463 0.929 . S
H5452 C5466 0.930 . S
H5453 C5468 0.960 . S
H5454 C5468 0.960 . S
H5455 C5468 0.960 . S
C5456 H5448 0.929 . S
C5456 C5457 1.377 . S
C5456 C5458 1.384 . S
C5457 C5456 1.377 . S
C5457 C5463 1.390 . S
C5458 H5449 0.930 . S
C5458 C5456 1.384 . S
C5458 C5459 1.372 . S
C5459 C5458 1.372 . S
C5459 C5460 1.400 . S
C5459 C5464 1.490 . S
C5460 H5450 0.930 . S
C5460 C5459 1.400 . S
C5460 C5463 1.386 . S
H5461 C5477 0.930 . S
H5462 C5478 0.931 . S
C5463 H5451 0.929 . S
C5463 C5457 1.390 . S
C5463 C5460 1.386 . S
C5464 C5459 1.490 . S
C5464 C5466 1.395 . S
C5464 C5467 1.403 . S
H5465 C5471 0.930 . S
C5466 H5452 0.930 . S
C5466 C5464 1.395 . S
C5466 C5469 1.403 . S
C5467 C5464 1.403 . S
C5467 C5468 1.524 . S
C5467 C5471 1.400 . S
C5468 H5453 0.960 . S
C5468 H5454 0.960 . S
C5468 H5455 0.960 . S
C5468 C5467 1.524 . S
C5469 C5466 1.403 . S
C5469 C5470 1.392 . S
C5469 C5473 1.495 . S
C5470 C5469 1.392 . S
C5470 C5471 1.385 . S
C5470 C5472 1.478 . S
C5471 H5465 0.930 . S
C5471 C5467 1.400 . S
C5471 C5470 1.385 . S
C5472 C5470 1.478 . S
C5472 C5474 1.381 . S
C5472 C5478 1.383 . S
C5473 C5469 1.495 . S
C5473 H5479 0.959 . S
C5473 H5480 0.961 . S
C5473 H5481 0.960 . S
C5474 C5472 1.381 . S
C5474 C5475 1.394 . S
C5474 H5482 0.930 . S
C5475 C5474 1.394 . S
C5475 C5476 1.383 . S
C5475 H5483 0.929 . S
C5476 C5475 1.383 . S
C5476 C5477 1.377 . S
C5477 H5461 0.930 . S
C5477 C5476 1.377 . S
C5477 C5478 1.379 . S
C5478 H5462 0.931 . S
C5478 C5472 1.383 . S
C5478 C5477 1.379 . S
H5479 C5473 0.959 . S
H5480 C5473 0.961 . S
H5481 C5473 0.960 . S
H5482 C5474 0.930 . S
H5483 C5475 0.929 . S
H5484 C5492 0.929 1_556 S
H5485 C5494 0.930 1_556 S
H5486 C5496 0.930 . S
H5487 C5499 0.929 . S
H5488 C5502 0.930 . S
H5489 C5504 0.960 . S
H5490 C5504 0.960 . S
H5491 C5504 0.960 . S
C5492 H5484 0.929 1_554 S
C5492 C5493 1.377 . S
C5492 C5494 1.384 . S
C5493 C5492 1.377 . S
C5493 C5499 1.390 . S
C5494 H5485 0.930 1_554 S
C5494 C5492 1.384 . S
C5494 C5495 1.372 . S
C5495 C5494 1.372 . S
C5495 C5496 1.400 . S
C5495 C5500 1.490 . S
C5496 H5486 0.930 . S
C5496 C5495 1.400 . S
C5496 C5499 1.386 . S
H5497 C5513 0.930 . S
H5498 C5514 0.931 . S
C5499 H5487 0.929 . S
C5499 C5493 1.390 . S
C5499 C5496 1.386 . S
C5500 C5495 1.490 . S
C5500 C5502 1.395 . S
C5500 C5503 1.403 . S
H5501 C5507 0.930 . S
C5502 H5488 0.930 . S
C5502 C5500 1.395 . S
C5502 C5505 1.403 . S
C5503 C5500 1.403 . S
C5503 C5504 1.524 . S
C5503 C5507 1.400 . S
C5504 H5489 0.960 . S
C5504 H5490 0.960 . S
C5504 H5491 0.960 . S
C5504 C5503 1.524 . S
C5505 C5502 1.403 . S
C5505 C5506 1.392 . S
C5505 C5509 1.495 . S
C5506 C5505 1.392 . S
C5506 C5507 1.385 . S
C5506 C5508 1.478 . S
C5507 H5501 0.930 . S
C5507 C5503 1.400 . S
C5507 C5506 1.385 . S
C5508 C5506 1.478 . S
C5508 C5510 1.381 . S
C5508 C5514 1.383 . S
C5509 C5505 1.495 . S
C5509 H5515 0.959 . S
C5509 H5516 0.961 . S
C5509 H5517 0.960 . S
C5510 C5508 1.381 . S
C5510 C5511 1.394 . S
C5510 H5518 0.930 1_554 S
C5511 C5510 1.394 . S
C5511 C5512 1.383 . S
C5511 H5519 0.929 1_554 S
C5512 C5511 1.383 . S
C5512 C5513 1.377 . S
C5513 H5497 0.930 . S
C5513 C5512 1.377 . S
C5513 C5514 1.379 . S
C5514 H5498 0.931 . S
C5514 C5508 1.383 . S
C5514 C5513 1.379 . S
H5515 C5509 0.959 . S
H5516 C5509 0.961 . S
H5517 C5509 0.960 . S
H5518 C5510 0.930 1_556 S
H5519 C5511 0.929 1_556 S
H5520 C5528 0.929 . S
H5521 C5530 0.930 . S
H5522 C5532 0.930 . S
H5523 C5535 0.929 . S
H5524 C5538 0.930 . S
H5525 C5540 0.960 . S
H5526 C5540 0.960 . S
H5527 C5540 0.960 . S
C5528 H5520 0.929 . S
C5528 C5529 1.377 . S
C5528 C5530 1.384 . S
C5529 C5528 1.377 . S
C5529 C5535 1.390 . S
C5530 H5521 0.930 . S
C5530 C5528 1.384 . S
C5530 C5531 1.372 . S
C5531 C5530 1.372 . S
C5531 C5532 1.400 . S
C5531 C5536 1.490 . S
C5532 H5522 0.930 . S
C5532 C5531 1.400 . S
C5532 C5535 1.386 . S
H5533 C5549 0.930 . S
H5534 C5550 0.931 . S
C5535 H5523 0.929 . S
C5535 C5529 1.390 . S
C5535 C5532 1.386 . S
C5536 C5531 1.490 . S
C5536 C5538 1.395 . S
C5536 C5539 1.403 . S
H5537 C5543 0.930 . S
C5538 H5524 0.930 . S
C5538 C5536 1.395 . S
C5538 C5541 1.403 . S
C5539 C5536 1.403 . S
C5539 C5540 1.524 . S
C5539 C5543 1.400 . S
C5540 H5525 0.960 . S
C5540 H5526 0.960 . S
C5540 H5527 0.960 . S
C5540 C5539 1.524 . S
C5541 C5538 1.403 . S
C5541 C5542 1.392 . S
C5541 C5545 1.495 . S
C5542 C5541 1.392 . S
C5542 C5543 1.385 . S
C5542 C5544 1.478 . S
C5543 H5537 0.930 . S
C5543 C5539 1.400 . S
C5543 C5542 1.385 . S
C5544 C5542 1.478 . S
C5544 C5546 1.381 . S
C5544 C5550 1.383 . S
C5545 C5541 1.495 . S
C5545 H5551 0.959 . S
C5545 H5552 0.961 . S
C5545 H5553 0.960 . S
C5546 C5544 1.381 . S
C5546 C5547 1.394 . S
C5546 H5554 0.930 . S
C5547 C5546 1.394 . S
C5547 C5548 1.383 . S
C5547 H5555 0.929 . S
C5548 C5547 1.383 . S
C5548 C5549 1.377 . S
C5549 H5533 0.930 . S
C5549 C5548 1.377 . S
C5549 C5550 1.379 . S
C5550 H5534 0.931 . S
C5550 C5544 1.383 . S
C5550 C5549 1.379 . S
H5551 C5545 0.959 . S
H5552 C5545 0.961 . S
H5553 C5545 0.960 . S
H5554 C5546 0.930 . S
H5555 C5547 0.929 . S
H5556 C5564 0.929 . S
H5557 C5566 0.930 . S
H5558 C5568 0.930 . S
H5559 C5571 0.929 . S
H5560 C5574 0.930 . S
H5561 C5576 0.960 . S
H5562 C5576 0.960 . S
H5563 C5576 0.960 . S
C5564 H5556 0.929 . S
C5564 C5565 1.377 . S
C5564 C5566 1.384 . S
C5565 C5564 1.377 . S
C5565 C5571 1.390 . S
C5566 H5557 0.930 . S
C5566 C5564 1.384 . S
C5566 C5567 1.372 . S
C5567 C5566 1.372 . S
C5567 C5568 1.400 . S
C5567 C5572 1.490 . S
C5568 H5558 0.930 . S
C5568 C5567 1.400 . S
C5568 C5571 1.386 . S
H5569 C5585 0.930 . S
H5570 C5586 0.930 1_556 S
C5571 H5559 0.929 . S
C5571 C5565 1.390 . S
C5571 C5568 1.386 . S
C5572 C5567 1.490 . S
C5572 C5574 1.395 . S
C5572 C5575 1.403 . S
H5573 C5579 0.930 . S
C5574 H5560 0.930 . S
C5574 C5572 1.395 . S
C5574 C5577 1.403 . S
C5575 C5572 1.403 . S
C5575 C5576 1.524 . S
C5575 C5579 1.400 . S
C5576 H5561 0.960 . S
C5576 H5562 0.960 . S
C5576 H5563 0.960 . S
C5576 C5575 1.524 . S
C5577 C5574 1.403 . S
C5577 C5578 1.392 . S
C5577 C5581 1.495 . S
C5578 C5577 1.392 . S
C5578 C5579 1.385 . S
C5578 C5580 1.478 . S
C5579 H5573 0.930 . S
C5579 C5575 1.400 . S
C5579 C5578 1.385 . S
C5580 C5578 1.478 . S
C5580 C5582 1.381 . S
C5580 C5586 1.383 . S
C5581 C5577 1.495 . S
C5581 H5587 0.959 . S
C5581 H5588 0.939 1_554 S
C5581 H5589 0.960 . S
C5582 C5580 1.381 . S
C5582 C5583 1.394 . S
C5582 H5590 0.930 . S
C5583 C5582 1.394 . S
C5583 C5584 1.383 . S
C5583 H5591 0.929 . S
C5584 C5583 1.383 . S
C5584 C5585 1.377 1_554 S
C5585 H5569 0.930 . S
C5585 C5584 1.377 1_556 S
C5585 C5586 1.379 1_556 S
C5586 H5570 0.930 1_554 S
C5586 C5580 1.383 . S
C5586 C5585 1.379 1_554 S
H5587 C5581 0.959 . S
H5588 C5581 0.939 1_556 S
H5589 C5581 0.960 . S
H5590 C5582 0.930 . S
H5591 C5583 0.929 . S
H5592 C5600 0.929 . S
H5593 C5602 0.930 . S
H5594 C5604 0.930 . S
H5595 C5607 0.929 . S
H5596 C5610 0.930 . S
H5597 C5612 0.960 . S
H5598 C5612 0.960 . S
H5599 C5612 0.960 . S
C5600 H5592 0.929 . S
C5600 C5601 1.377 1_565 S
C5600 C5602 1.384 . S
C5601 C5600 1.377 1_545 S
C5601 C5607 1.390 . S
C5602 H5593 0.930 . S
C5602 C5600 1.384 . S
C5602 C5603 1.372 . S
C5603 C5602 1.372 . S
C5603 C5604 1.400 . S
C5603 C5608 1.490 . S
C5604 H5594 0.930 . S
C5604 C5603 1.400 . S
C5604 C5607 1.386 1_565 S
H5605 C5621 0.930 . S
H5606 C5622 0.931 . S
C5607 H5595 0.929 . S
C5607 C5601 1.390 . S
C5607 C5604 1.386 1_545 S
C5608 C5603 1.490 . S
C5608 C5610 1.395 . S
C5608 C5611 1.403 . S
H5609 C5615 0.930 . S
C5610 H5596 0.930 . S
C5610 C5608 1.395 . S
C5610 C5613 1.403 . S
C5611 C5608 1.403 . S
C5611 C5612 1.524 . S
C5611 C5615 1.400 . S
C5612 H5597 0.960 . S
C5612 H5598 0.960 . S
C5612 H5599 0.960 . S
C5612 C5611 1.524 . S
C5613 C5610 1.403 . S
C5613 C5614 1.392 . S
C5613 C5617 1.495 . S
C5614 C5613 1.392 . S
C5614 C5615 1.385 . S
C5614 C5616 1.478 . S
C5615 H5609 0.930 . S
C5615 C5611 1.400 . S
C5615 C5614 1.385 . S
C5616 C5614 1.478 . S
C5616 C5618 1.381 . S
C5616 C5622 1.383 . S
C5617 C5613 1.495 . S
C5617 H5623 0.959 . S
C5617 H5624 0.961 . S
C5617 H5625 0.960 . S
C5618 C5616 1.381 . S
C5618 C5619 1.394 . S
C5618 H5626 0.930 . S
C5619 C5618 1.394 . S
C5619 C5620 1.383 . S
C5619 H5627 0.929 . S
C5620 C5619 1.383 . S
C5620 C5621 1.377 . S
C5621 H5605 0.930 . S
C5621 C5620 1.377 . S
C5621 C5622 1.379 . S
C5622 H5606 0.931 . S
C5622 C5616 1.383 . S
C5622 C5621 1.379 . S
H5623 C5617 0.959 . S
H5624 C5617 0.961 . S
H5625 C5617 0.960 . S
H5626 C5618 0.930 . S
H5627 C5619 0.929 . S
H5628 C5636 0.929 . S
H5629 C5638 0.930 . S
H5630 C5640 0.930 . S
H5631 C5643 0.929 . S
H5632 C5646 0.930 . S
H5633 C5648 0.960 . S
H5634 C5648 0.960 . S
H5635 C5648 0.960 . S
C5636 H5628 0.929 . S
C5636 C5637 1.377 . S
C5636 C5638 1.384 . S
C5637 C5636 1.377 . S
C5637 C5643 1.390 . S
C5638 H5629 0.930 . S
C5638 C5636 1.384 . S
C5638 C5639 1.372 . S
C5639 C5638 1.372 . S
C5639 C5640 1.400 . S
C5639 C5644 1.490 . S
C5640 H5630 0.930 . S
C5640 C5639 1.400 . S
C5640 C5643 1.386 . S
H5641 C5657 0.930 . S
H5642 C5658 0.931 . S
C5643 H5631 0.929 . S
C5643 C5637 1.390 . S
C5643 C5640 1.386 . S
C5644 C5639 1.490 . S
C5644 C5646 1.395 . S
C5644 C5647 1.403 . S
H5645 C5651 0.930 . S
C5646 H5632 0.930 . S
C5646 C5644 1.395 . S
C5646 C5649 1.403 . S
C5647 C5644 1.403 . S
C5647 C5648 1.524 . S
C5647 C5651 1.400 . S
C5648 H5633 0.960 . S
C5648 H5634 0.960 . S
C5648 H5635 0.960 . S
C5648 C5647 1.524 . S
C5649 C5646 1.403 . S
C5649 C5650 1.392 . S
C5649 C5653 1.495 . S
C5650 C5649 1.392 . S
C5650 C5651 1.385 . S
C5650 C5652 1.478 . S
C5651 H5645 0.930 . S
C5651 C5647 1.400 . S
C5651 C5650 1.385 . S
C5652 C5650 1.478 . S
C5652 C5654 1.381 . S
C5652 C5658 1.383 . S
C5653 C5649 1.495 . S
C5653 H5659 0.959 . S
C5653 H5660 0.961 . S
C5653 H5661 0.960 . S
C5654 C5652 1.381 . S
C5654 C5655 1.394 . S
C5654 H5662 0.930 . S
C5655 C5654 1.394 . S
C5655 C5656 1.383 . S
C5655 H5663 0.929 . S
C5656 C5655 1.383 . S
C5656 C5657 1.377 . S
C5657 H5641 0.930 . S
C5657 C5656 1.377 . S
C5657 C5658 1.379 . S
C5658 H5642 0.931 . S
C5658 C5652 1.383 . S
C5658 C5657 1.379 . S
H5659 C5653 0.959 . S
H5660 C5653 0.961 . S
H5661 C5653 0.960 . S
H5662 C5654 0.930 . S
H5663 C5655 0.929 . S
C2217 C255 1.573 . S
C2236 C920 1.481 . S
C2253 C147 2.183 . S
C2272 C1011 2.150 . S
C2289 C184 1.379 . S
C2308 C1088 1.295 1_565 S
C2344 C1186 1.563 . S
C2325 C220 1.724 . S
C2361 C40 1.543 . S
C2380 C1270 1.474 . S
C2416 C1342 0.861 . S
C2397 C74 0.973 . S
C2452 C1431 0.632 . S
C2433 C110 0.680 . S
C2469 C14 1.195 . S
C2488 C1508 1.034 . S
C2524 C927 1.992 . S
C2505 C579 2.094 . S
C2541 C616 0.586 . S
C2560 C1018 0.644 . S
C2596 C1095 1.214 . S
C2577 C687 1.259 . S
C2632 C1172 1.510 . S
C2613 C436 1.625 . S
C2649 C580 2.037 . S
C2668 C1256 1.923 . S
C2704 C1358 1.111 . S
C2685 C615 1.133 . S
C2740 C1438 0.796 . S
C2721 C688 0.738 . S
C2776 C1515 1.382 . S
C2757 C435 1.487 . S
C2812 C934 1.428 . S
C2793 C410 1.516 . S
C2829 C722 2.066 . S
C2848 C1599 1.970 . S
C2884 C1687 2.234 . S
C2865 C842 2.329 . S
C2920 C1760 0.424 . S
C2901 C794 0.395 . S
C2937 C302 0.717 . S
C2956 C1522 0.674 . S
C2973 C338 1.438 . S
C2992 C1102 1.356 . S
C3009 C830 2.424 . S
C3028 C1851 2.355 . S
C3064 C1928 0.838 . S
C3045 C758 0.780 . S
C3100 C931 1.445 . S
C3081 C158 1.438 . S
C3136 C1946 2.109 . S
C3117 C254 2.175 . S
C3153 C218 1.369 . S
C3172 C1099 1.345 . S
C3189 C194 1.621 . S
C3208 C1846 1.532 . S
C3244 C1258 1.497 . S
C3225 C3 1.541 . S
C3261 C111 0.839 . S
C3280 C1690 0.873 . S
C3316 C1442 0.708 1_556 S
C3297 C76 0.659 . S
C3352 C2023 1.204 . S
C3333 C50 1.210 . S
C3388 C938 1.935 . S
C3369 C364 2.029 . S
C3424 C1930 0.526 . S
C3405 C795 0.533 . S
C3441 C292 1.202 . S
C3460 C1106 1.128 . S
C3477 C723 1.569 . S
C3496 C1855 1.468 . S
C3513 C363 2.038 . S
C3532 C1267 1.901 . S
C3568 C1683 1.008 . S
C3549 C796 1.114 . S
C3585 C291 0.706 . S
C3604 C1426 0.733 . S
C3621 C724 1.468 . S
C3640 C2030 1.373 . S
C3657 C482 1.486 . S
C3676 C922 1.424 1_554 S
C3693 C434 2.026 . S
C3712 C1610 1.931 . S
C3729 C662 2.283 . S
C3748 C1340 2.205 . S
C3765 C614 0.341 . S
C3784 C1771 0.589 . S
C3820 C2014 0.667 . S
C3801 C698 0.721 . S
C3837 C554 1.373 . S
C3856 C1090 1.342 1_565 S
C3892 C1190 2.288 . S
C3873 C650 2.351 . S
C3928 C1015 0.731 . S
C3909 C506 0.712 . S
C3945 C183 1.574 . S
C3964 C2096 1.497 . S
C4000 C1935 2.147 . S
C3981 C219 2.185 . S
C4017 C256 1.368 . S
C4036 C2180 1.337 . S
C4053 C148 1.722 . S
C4072 C1858 1.604 . S
C4089 C122 1.581 . S
C4108 C1606 1.510 . S
C4144 C1678 0.947 . S
C4125 C2 0.935 . S
C4180 C1767 0.640 . S
C4161 C39 0.604 . S
C4216 C2012 1.190 . S
C4197 C86 1.291 . S
C4252 C2103 1.983 . S
C4233 C651 2.105 . S
C4269 C472 0.588 . S
C4288 C1942 0.671 . S
C4324 C2187 1.208 . S
C4305 C507 1.247 . S
C4360 C1844 1.516 . S
C4341 C544 1.631 . S
C4396 C1592 1.881 . S
C4377 C652 2.043 . S
C4413 C471 1.121 . S
C4432 C1694 1.103 . S
C4468 C1774 0.758 . S
C4449 C508 0.737 . S
C4485 C543 1.515 . S
C4504 C2019 1.434 . S
C4540 C2110 1.477 . S
C4521 C806 1.536 . S
C4557 C326 2.038 . S
C4576 C1263 1.939 . S
C4612 C1351 2.189 . S
C4593 C374 2.300 . S
C4648 C1424 0.602 . S
C4629 C398 0.401 . S
C4684 C2026 0.680 . S
C4665 C770 0.694 . S
C4701 C734 1.426 1_554 S
C4720 C2194 1.356 . S
C4756 C1179 2.326 . S
C4737 C362 2.409 . S
C4792 C1004 0.766 . S
C4773 C290 0.809 . S
C4809 C230 1.440 . S
C4828 C2107 1.438 . S
C4864 C1022 2.118 . S
C4845 C182 2.182 . S
C4881 C146 1.371 . S
C4900 C2191 1.349 . S
C4917 C266 1.621 . S
C4936 C1174 1.513 . S
C4953 C75 1.581 . S
C4972 C1594 1.494 . S
C5008 C1354 0.910 . S
C4989 C38 0.968 . S
C5025 C4 0.569 . S
C5044 C1778 0.592 . S
C5061 C112 1.237 . S
C5080 C1519 1.125 . S
C5116 C2114 1.952 . S
C5097 C832 2.028 . S
C5133 C399 0.553 . S
C5152 C1006 0.538 . S
C5188 C2198 1.175 . S
C5169 C760 1.188 . S
C5205 C327 1.566 . S
C5224 C1183 1.467 . S
C5241 C831 2.073 . S
C5260 C1603 1.883 . S
C5296 C1347 1.088 . S
C5277 C400 1.111 . S
C5313 C759 0.717 . S
C5332 C1762 0.794 . S
C5368 C1526 1.354 . S
C5349 C328 1.477 . S
C5404 C2098 1.448 . S
C5385 C626 1.482 . S
C5440 C1274 1.959 1_655 S
C5421 C542 2.033 . S
C5457 C590 2.241 . S
C5476 C1676 2.161 . S
C5512 C1435 0.562 . S
C5493 C470 0.338 . S
C5529 C518 0.659 . S
C5548 C1510 0.714 . S
C5565 C446 1.363 . S
C5584 C2182 1.347 . S
C5620 C1862 2.278 . S
C5601 C578 2.363 . S
C5656 C1939 0.773 . S
C5637 C686 0.682 . S
