# Generated by pormake.
# Topology ssa, (4,4)-cn, num edge types: 1
# Building blocks:
#     Node 0, Type 0, BuildingBlock: KOZSID_clean_sbu_0, # of connection points: 4
#     Node 1, Type 0, BuildingBlock: KOZSID_clean_sbu_0, # of connection points: 4
#     Node 2, Type 0, BuildingBlock: KOZSID_clean_sbu_0, # of connection points: 4
#     Node 3, Type 0, BuildingBlock: KOZSID_clean_sbu_0, # of connection points: 4
#     Node 4, Type 0, BuildingBlock: KOZSID_clean_sbu_0, # of connection points: 4
#     Node 5, Type 0, BuildingBlock: KOZSID_clean_sbu_0, # of connection points: 4
#     Node 6, Type 1, BuildingBlock: MUDLON_clean_sbu_0, # of connection points: 4
#     Node 7, Type 1, BuildingBlock: MUDLON_clean_sbu_0, # of connection points: 4
#     Node 8, Type 1, BuildingBlock: MUDLON_clean_sbu_0, # of connection points: 4
#     Node 9, Type 1, BuildingBlock: MUDLON_clean_sbu_0, # of connection points: 4
#     Node 10, Type 1, BuildingBlock: MUDLON_clean_sbu_0, # of connection points: 4
#     Node 11, Type 1, BuildingBlock: MUDLON_clean_sbu_0, # of connection points: 4
#     Edge 12, Type (0, 1), BuildingBlock: XIVTED_clean_linker_0, # of connection points: 2
#     Edge 13, Type (0, 1), BuildingBlock: XIVTED_clean_linker_0, # of connection points: 2
#     Edge 14, Type (0, 1), BuildingBlock: XIVTED_clean_linker_0, # of connection points: 2
#     Edge 15, Type (0, 1), BuildingBlock: XIVTED_clean_linker_0, # of connection points: 2
#     Edge 16, Type (0, 1), BuildingBlock: XIVTED_clean_linker_0, # of connection points: 2
#     Edge 17, Type (0, 1), BuildingBlock: XIVTED_clean_linker_0, # of connection points: 2
#     Edge 18, Type (0, 1), BuildingBlock: XIVTED_clean_linker_0, # of connection points: 2
#     Edge 19, Type (0, 1), BuildingBlock: XIVTED_clean_linker_0, # of connection points: 2
#     Edge 20, Type (0, 1), BuildingBlock: XIVTED_clean_linker_0, # of connection points: 2
#     Edge 21, Type (0, 1), BuildingBlock: XIVTED_clean_linker_0, # of connection points: 2
#     Edge 22, Type (0, 1), BuildingBlock: XIVTED_clean_linker_0, # of connection points: 2
#     Edge 23, Type (0, 1), BuildingBlock: XIVTED_clean_linker_0, # of connection points: 2
#     Edge 24, Type (0, 1), BuildingBlock: XIVTED_clean_linker_0, # of connection points: 2
#     Edge 25, Type (0, 1), BuildingBlock: XIVTED_clean_linker_0, # of connection points: 2
#     Edge 26, Type (0, 1), BuildingBlock: XIVTED_clean_linker_0, # of connection points: 2
#     Edge 27, Type (0, 1), BuildingBlock: XIVTED_clean_linker_0, # of connection points: 2
#     Edge 28, Type (0, 1), BuildingBlock: XIVTED_clean_linker_0, # of connection points: 2
#     Edge 29, Type (0, 1), BuildingBlock: XIVTED_clean_linker_0, # of connection points: 2
#     Edge 30, Type (0, 1), BuildingBlock: XIVTED_clean_linker_0, # of connection points: 2
#     Edge 31, Type (0, 1), BuildingBlock: XIVTED_clean_linker_0, # of connection points: 2
#     Edge 32, Type (0, 1), BuildingBlock: XIVTED_clean_linker_0, # of connection points: 2
#     Edge 33, Type (0, 1), BuildingBlock: XIVTED_clean_linker_0, # of connection points: 2
#     Edge 34, Type (0, 1), BuildingBlock: XIVTED_clean_linker_0, # of connection points: 2
#     Edge 35, Type (0, 1), BuildingBlock: XIVTED_clean_linker_0, # of connection points: 2
# Relax obj value: 0.015
# Max RMSD: 0.035
# Mean RMSD: 0.022
data_MOF--net-ssa--node1-KOZSID_clean_sbu_0--node2-MUDLON_clean_sbu_0--edge1-XIVTED_clean_linker_0
_symmetry_space_group_name_H-M    P1
_symmetry_Int_Tables_number       1
_symmetry_cell_setting            triclinic
loop_
_symmetry_equiv_pos_as_xyz
'x, y, z'
_cell_length_a     47.74031
_cell_length_b     49.153263
_cell_length_c     45.498182
_cell_angle_alpha  87.149867
_cell_angle_beta   90.270716
_cell_angle_gamma 122.82864
loop_
_atom_site_label
_atom_site_type_symbol
_atom_site_fract_x
_atom_site_fract_y
_atom_site_fract_z
_atom_type_partial_charge
C0 C 0.97167 0.5144 0.99964 0.0
C1 C 0.94088 0.50752 0.00944 0.0
C2 C 0.93164 0.48629 0.03337 0.0
C3 C 0.95728 0.48158 0.03684 0.0
N4 N 0.98282 0.49924 0.01714 0.0
Co5 Co 0.0241 0.49833 0.01305 0.0
N6 N 0.00876 0.4642 0.04596 0.0
C7 C 0.98009 0.45035 0.06217 0.0
C8 C 0.97689 0.42843 0.08388 0.0
C9 C 0.00564 0.42889 0.08195 0.0
C10 C 0.02483 0.4513 0.05917 0.0
N11 N 0.06495 0.49671 0.00839 0.0
C12 C 0.07575 0.48077 0.02529 0.0
C13 C 0.10644 0.48769 0.01514 0.0
C14 C 0.11545 0.50891 0.99121 0.0
C15 C 0.08997 0.51389 0.98811 0.0
N16 N 0.03963 0.53314 0.98059 0.0
C17 C 0.06916 0.54837 0.96555 0.0
C18 C 0.07189 0.56966 0.94336 0.0
C19 C 0.04211 0.56745 0.94385 0.0
C20 C 0.02286 0.54489 0.96646 0.0
N21 N 0.04742 0.53206 0.04244 0.0
C22 C 0.08362 0.57317 0.08841 0.0
C23 C 0.09929 0.57523 0.06173 0.0
C24 C 0.08087 0.5551 0.03919 0.0
C25 C 0.04897 0.55129 0.09083 0.0
C26 C 0.03157 0.53113 0.06787 0.0
N27 N 1.00121 0.46443 0.98385 0.0
C28 C 1.00013 0.44532 0.93557 0.0
C29 C 0.96968 0.41619 0.94217 0.0
C30 C 0.95516 0.41196 0.97011 0.0
C31 C 0.971 0.43629 0.99027 0.0
C32 C 0.0154 0.4686 0.95654 0.0
H33 H 0.95834 0.43176 0.01092 0.0
H34 H 0.03868 0.4899 0.94997 0.0
H35 H 0.09459 0.55801 0.01968 0.0
H36 H 0.00543 0.51451 0.07149 0.0
C37 C 0.95719 0.45926 0.05708 0.0
C38 C 0.98791 0.53324 0.97224 0.0
C39 C 0.05898 0.46108 0.05232 0.0
C40 C 0.09107 0.53793 0.96936 0.0
H41 H 0.92611 0.51603 0.99958 0.0
H42 H 0.90843 0.47469 0.04599 0.0
H43 H 0.9565 0.41445 0.09972 0.0
H44 H 0.01222 0.41503 0.09624 0.0
H45 H 0.1215 0.47938 0.02465 0.0
H46 H 0.1387 0.52073 0.97861 0.0
H47 H 0.09223 0.58352 0.92744 0.0
H48 H 0.03493 0.57994 0.92844 0.0
H49 H 0.12597 0.59154 0.05833 0.0
H50 H 0.03513 0.54933 0.11046 0.0
H51 H 0.01225 0.45061 0.91413 0.0
H52 H 0.93178 0.38989 0.97672 0.0
C53 C 0.55349 0.00156 0.57986 0.0
C54 C 0.54794 0.98647 0.6078 0.0
C55 C 0.51516 0.96191 0.60977 0.0
C56 C 0.5024 0.96345 0.58321 0.0
N57 N 0.52517 0.98717 0.56409 0.0
Co58 Co 0.51611 1.00001 0.52436 0.0
N59 N 0.46734 0.9652 0.52817 0.0
C60 C 0.45121 0.94454 0.55176 0.0
C61 C 0.41885 0.92071 0.54659 0.0
C62 C 0.41436 0.92567 0.51765 0.0
C63 C 0.44433 0.95254 0.50683 0.0
N64 N 0.50693 0.01283 0.48475 0.0
C65 C 0.47986 0.99593 0.46791 0.0
C66 C 0.48404 0.01172 0.44064 0.0
C67 C 0.51552 0.03899 0.43976 0.0
C68 C 0.52862 0.03831 0.4665 0.0
N69 N 0.56487 0.03439 0.52002 0.0
C70 C 0.58056 0.05558 0.49658 0.0
C71 C 0.61415 0.07646 0.50001 0.0
C72 C 0.62016 0.0686 0.52749 0.0
C73 C 0.5897 0.04347 0.53942 0.0
N74 N 0.52351 0.96889 0.50547 0.0
C75 C 0.52174 0.92156 0.47157 0.0
C76 C 0.53932 0.95422 0.46163 0.0
C77 C 0.5403 0.97727 0.47894 0.0
C78 C 0.50726 0.91353 0.49994 0.0
C79 C 0.50857 0.93746 0.51647 0.0
N80 N 0.50861 0.03143 0.54328 0.0
C81 C 0.52394 0.08676 0.54802 0.0
C82 C 0.50558 0.07825 0.57443 0.0
C83 C 0.4874 0.04553 0.58419 0.0
C84 C 0.48911 0.02275 0.56835 0.0
C85 C 0.52492 0.06322 0.53291 0.0
H86 H 0.47489 0.9984 0.5772 0.0
H87 H 0.53981 0.07167 0.51328 0.0
H88 H 0.55342 0.00151 0.46971 0.0
H89 H 0.49631 0.92984 0.53761 0.0
C90 C 0.46869 0.94462 0.57646 0.0
C91 C 0.58531 0.03078 0.56998 0.0
C92 C 0.45142 0.96331 0.47569 0.0
C93 C 0.56262 0.05689 0.47267 0.0
H94 H 0.56522 0.99303 0.62553 0.0
H95 H 0.50189 0.94573 0.62877 0.0
H96 H 0.40145 0.90056 0.5614 0.0
H97 H 0.39209 0.90998 0.50575 0.0
H98 H 0.46686 0.00326 0.42266 0.0
H99 H 0.52826 0.05576 0.42097 0.0
H100 H 0.63194 0.09583 0.48478 0.0
H101 H 0.64407 0.08072 0.53799 0.0
H102 H 0.55098 0.96208 0.4399 0.0
H103 H 0.49436 0.88883 0.50921 0.0
H104 H 0.53853 0.11173 0.5394 0.0
H105 H 0.47199 0.03744 0.6041 0.0
C106 C 0.55287 0.55335 0.95879 0.0
C107 C 0.56046 0.57315 0.93343 0.0
C108 C 0.53337 0.57511 0.92824 0.0
C109 C 0.51094 0.55641 0.95067 0.0
N110 N 0.52262 0.54372 0.9705 0.0
Co111 Co 0.497 0.51109 0.00378 0.0
N112 N 0.45515 0.50928 0.99363 0.0
C113 C 0.45108 0.52597 0.97132 0.0
C114 C 0.42086 0.52311 0.97246 0.0
C115 C 0.40526 0.50455 0.99765 0.0
C116 C 0.42696 0.49716 0.01033 0.0
N117 N 0.47109 0.47751 0.03635 0.0
C118 C 0.44057 0.46712 0.04794 0.0
C119 C 0.43244 0.44534 0.07194 0.0
C120 C 0.45926 0.44275 0.07618 0.0
C121 C 0.48218 0.46302 0.05467 0.0
N122 N 0.53916 0.51392 0.01478 0.0
C123 C 0.54355 0.4987 0.0382 0.0
C124 C 0.57468 0.5036 0.03869 0.0
C125 C 0.59067 0.52212 0.0136 0.0
C126 C 0.56828 0.52753 0.99921 0.0
N127 N 0.50729 0.54575 0.03074 0.0
C128 C 0.50839 0.58805 0.07107 0.0
C129 C 0.51166 0.56241 0.08052 0.0
C130 C 0.51158 0.54207 0.06013 0.0
C131 C 0.50694 0.59342 0.04079 0.0
C132 C 0.50651 0.57221 0.02119 0.0
N133 N 0.48685 0.47654 0.97663 0.0
C134 C 0.49866 0.43725 0.96132 0.0
C135 C 0.49006 0.44006 0.93242 0.0
C136 C 0.47647 0.4588 0.92689 0.0
C137 C 0.47487 0.47651 0.9492 0.0
C138 C 0.49636 0.45518 0.983 0.0
H139 H 0.46523 0.4911 0.94335 0.0
H140 H 0.5041 0.45261 0.0044 0.0
H141 H 0.51373 0.52278 0.06883 0.0
H142 H 0.50452 0.5772 0.99851 0.0
C143 C 0.47767 0.54741 0.95203 0.0
C144 C 0.57339 0.54134 0.96909 0.0
C145 C 0.42116 0.481 0.03943 0.0
C146 C 0.51617 0.47457 0.05529 0.0
H147 H 0.58254 0.58354 0.91935 0.0
H148 H 0.52967 0.58703 0.90939 0.0
H149 H 0.41215 0.53489 0.95783 0.0
H150 H 0.38141 0.49847 0.00652 0.0
H151 H 0.41049 0.43418 0.08621 0.0
H152 H 0.46278 0.42998 0.09442 0.0
H153 H 0.58365 0.49262 0.05402 0.0
H154 H 0.61515 0.52887 0.00602 0.0
H155 H 0.513 0.5571 0.10367 0.0
H156 H 0.50565 0.61363 0.03214 0.0
H157 H 0.50881 0.42268 0.96702 0.0
H158 H 0.46802 0.46067 0.9052 0.0
C159 C 0.93969 0.44476 0.51447 0.0
C160 C 0.91078 0.41957 0.50283 0.0
C161 C 0.90389 0.43261 0.47884 0.0
C162 C 0.92882 0.46488 0.47728 0.0
N163 N 0.95188 0.47297 0.49821 0.0
Co164 Co 0.98994 0.51758 0.50676 0.0
N165 N 0.97534 0.53795 0.47641 0.0
C166 C 0.94831 0.52274 0.45934 0.0
C167 C 0.94616 0.5433 0.43929 0.0
C168 C 0.97393 0.57326 0.44331 0.0
C169 C 0.99135 0.56912 0.46565 0.0
N170 N 0.02794 0.56216 0.51542 0.0
C171 C 0.0386 0.5909 0.50067 0.0
C172 C 0.06736 0.61612 0.51245 0.0
C173 C 0.07566 0.60266 0.53506 0.0
C174 C 0.05161 0.57012 0.53573 0.0
N175 N 0.00428 0.49716 0.53737 0.0
C176 C 0.0317 0.51221 0.554 0.0
C177 C 0.03275 0.49194 0.5752 0.0
C178 C 0.00374 0.46251 0.57259 0.0
C179 C 0.98669 0.46665 0.5499 0.0
N180 N 0.01858 0.51553 0.47622 0.0
C181 C 0.06001 0.51516 0.43204 0.0
C182 C 0.07201 0.5258 0.45998 0.0
C183 C 0.05107 0.52566 0.48153 0.0
C184 C 0.02687 0.50475 0.42665 0.0
C185 C 0.00684 0.50515 0.44878 0.0
N186 N 0.96141 0.51934 0.53727 0.0
C187 C 0.95199 0.52344 0.58851 0.0
C188 C 0.91782 0.50861 0.58432 0.0
C189 C 0.90626 0.50167 0.55568 0.0
C190 C 0.92839 0.50739 0.53259 0.0
C191 C 0.97319 0.52881 0.56485 0.0
H192 H 0.91799 0.50076 0.51137 0.0
H193 H 0.99882 0.53952 0.56966 0.0
H194 H 0.06185 0.53394 0.5023 0.0
H195 H 0.98202 0.49719 0.44302 0.0
C196 C 0.9279 0.48886 0.4602 0.0
C197 C 0.95256 0.44203 0.54282 0.0
C198 C 0.02491 0.59451 0.47319 0.0
C199 C 0.05258 0.5461 0.55273 0.0
H200 H 0.89517 0.39483 0.51172 0.0
H201 H 0.88188 0.42053 0.46562 0.0
H202 H 0.92769 0.53697 0.42258 0.0
H203 H 0.98156 0.59537 0.43032 0.0
H204 H 0.08173 0.64131 0.50453 0.0
H205 H 0.09765 0.61486 0.54831 0.0
H206 H 0.05113 0.49835 0.592 0.0
H207 H 0.99516 0.44094 0.58677 0.0
H208 H 0.09731 0.53364 0.4655 0.0
H209 H 0.01637 0.49662 0.40528 0.0
H210 H 0.96235 0.53036 0.61013 0.0
H211 H 0.88004 0.4906 0.55124 0.0
C212 C 0.46643 0.00874 0.07683 0.0
C213 C 0.46684 0.02236 0.10298 0.0
C214 C 0.49612 0.05188 0.10282 0.0
C215 C 0.51198 0.05452 0.07683 0.0
N216 N 0.49439 0.02871 0.06008 0.0
Co217 Co 0.50952 0.02145 0.0218 0.0
N218 N 0.55287 0.06471 0.02183 0.0
C219 C 0.56301 0.0869 0.04246 0.0
C220 C 0.59254 0.11546 0.03531 0.0
C221 C 0.60149 0.11163 0.00816 0.0
C222 C 0.57688 0.08072 1.00037 0.0
N223 N 0.52505 0.01381 0.98401 0.0
C224 C 0.55223 0.03428 0.96661 0.0
C225 C 0.55349 0.01948 0.9419 0.0
C226 C 0.5256 0.98883 0.94333 0.0
C227 C 0.50908 0.98661 0.9688 0.0
N228 N 0.46573 0.97888 0.021 0.0
C229 C 0.45507 0.95736 0.99971 0.0
C230 C 0.42357 0.93057 0.00498 0.0
C231 C 0.41362 0.93508 0.03137 0.0
C232 C 0.43988 0.96436 0.0408 0.0
N233 N 0.48984 0.04254 0.99934 0.0
C234 C 0.46848 0.07672 0.96439 0.0
C235 C 0.46491 0.04836 0.955 0.0
C236 C 0.47538 0.03165 0.97277 0.0
C237 C 0.48123 0.08654 0.99236 0.0
C238 C 0.49178 0.06936 0.00924 0.0
N239 N 0.52919 1.00017 0.04444 0.0
C240 C 0.53115 0.95264 0.05656 0.0
C241 C 0.55174 0.96736 0.08033 0.0
C242 C 0.56182 0.99931 0.08506 0.0
C243 C 0.55049 0.01512 0.06699 0.0
C244 C 0.5204 0.96932 0.03904 0.0
H245 H 0.55895 0.03927 0.07204 0.0
H246 H 0.5044 0.95642 0.02164 0.0
H247 H 0.47239 0.0105 0.96415 0.0
H248 H 0.50213 0.07869 0.02995 0.0
C249 C 0.54334 0.08087 0.06753 0.0
C250 C 0.43989 0.97612 0.06962 0.0
C251 C 0.57637 0.06831 0.97175 0.0
C252 C 0.47639 0.96159 0.97651 0.0
H253 H 0.44827 0.01191 0.12066 0.0
H254 H 0.50504 0.06913 0.11986 0.0
H255 H 0.6054 0.13693 0.04787 0.0
H256 H 0.62317 0.12992 0.99522 0.0
H257 H 0.57202 0.03014 0.92415 0.0
H258 H 0.51743 0.97096 0.92693 0.0
H259 H 0.4099 0.90974 0.99171 0.0
H260 H 0.39012 0.91828 0.04285 0.0
H261 H 0.45535 0.03966 0.93352 0.0
H262 H 0.48371 0.10783 1.00109 0.0
H263 H 0.52237 0.92788 0.05193 0.0
H264 H 0.57835 0.01215 0.10274 0.0
C265 C 0.54256 0.59372 0.50526 0.0
C266 C 0.53457 0.61602 0.5119 0.0
C267 C 0.51429 0.6036 0.53647 0.0
C268 C 0.5109 0.57447 0.5433 0.0
N269 N 0.5285 0.56788 0.52507 0.0
Co270 Co 0.52756 0.52652 0.5248 0.0
N271 N 0.49322 0.50583 0.55766 0.0
C272 C 0.48021 0.51986 0.57247 0.0
C273 C 0.45717 0.49979 0.59395 0.0
C274 C 0.45565 0.47132 0.59311 0.0
C275 C 0.47813 0.47575 0.57118 0.0
N276 N 0.52586 0.48486 0.52364 0.0
C277 C 0.50758 0.45664 0.54022 0.0
C278 C 0.51473 0.43401 0.5324 0.0
C279 C 0.53805 0.44829 0.51006 0.0
C280 C 0.54402 0.47875 0.50553 0.0
N281 N 0.56243 0.54752 0.49242 0.0
C282 C 0.57845 0.53516 0.47981 0.0
C283 C 0.60037 0.55497 0.45749 0.0
C284 C 0.59766 0.58125 0.45532 0.0
C285 C 0.57405 0.57579 0.47644 0.0
N286 N 0.56339 0.54254 0.55462 0.0
C287 C 0.612 0.56203 0.59872 0.0
C288 C 0.61172 0.54491 0.57495 0.0
C289 C 0.58765 0.5357 0.55337 0.0
C290 C 0.58783 0.5698 0.59957 0.0
C291 C 0.56403 0.55989 0.57761 0.0
N292 N 0.49201 0.51065 0.49521 0.0
C293 C 0.47215 0.49119 0.44688 0.0
C294 C 0.4445 0.49351 0.45089 0.0
C295 C 0.44046 0.50343 0.47794 0.0
C296 C 0.46432 0.51186 0.49959 0.0
C297 C 0.49527 0.4996 0.46919 0.0
H298 H 0.46026 0.52 0.51946 0.0
H299 H 0.51596 0.49755 0.46472 0.0
H300 H 0.58906 0.52265 0.53616 0.0
H301 H 0.54629 0.56639 0.57998 0.0
C302 C 0.48909 0.55151 0.56491 0.0
C303 C 0.56136 0.5967 0.47877 0.0
C304 C 0.48461 0.45082 0.56449 0.0
C305 C 0.56842 0.50298 0.48614 0.0
H306 H 0.5416 0.63838 0.49972 0.0
H307 H 0.50215 0.61384 0.54722 0.0
H308 H 0.44301 0.50514 0.60838 0.0
H309 H 0.43981 0.44975 0.60713 0.0
H310 H 0.50487 0.40992 0.54222 0.0
H311 H 0.54999 0.43801 0.49903 0.0
H312 H 0.61503 0.54999 0.4433 0.0
H313 H 0.61039 0.60146 0.43919 0.0
H314 H 0.62948 0.5378 0.57322 0.0
H315 H 0.58715 0.58356 0.6171 0.0
H316 H 0.47612 0.48312 0.42649 0.0
H317 H 0.4196 0.50585 0.48207 0.0
Mg318 Mg 0.2433 0.47793 0.25244 0.0
C319 C 0.19633 0.43584 0.2037 0.0
O320 O 0.22319 0.43904 0.19225 0.0
C321 C 0.29345 0.48314 0.29199 0.0
O322 O 0.30704 0.51081 0.27638 0.0
C323 C 0.2 0.48369 0.2906 0.0
O324 O 0.18959 0.45297 0.28919 0.0
O325 O 0.22668 0.50476 0.27627 0.0
O326 O 0.19721 0.44499 0.22959 0.0
O327 O 0.28166 0.49922 0.21683 0.0
C328 C 0.29096 0.4799 0.2119 0.0
O329 O 0.27909 0.45366 0.22939 0.0
O330 O 0.2633 0.46101 0.28719 0.0
Mg331 Mg 0.78023 0.22905 0.75267 0.0
C332 C 0.73919 0.1597 0.72877 0.0
O333 O 0.72564 0.14998 0.75534 0.0
C334 C 0.84994 0.27143 0.77839 0.0
O335 O 0.85632 0.28908 0.75374 0.0
C336 C 0.7415 0.19689 0.80621 0.0
O337 O 0.76599 0.19206 0.80559 0.0
O338 O 0.7393 0.21326 0.78471 0.0
O339 O 0.76332 0.18893 0.72372 0.0
O340 O 0.7962 0.27026 0.72089 0.0
C341 C 0.81266 0.26896 0.6996 0.0
O342 O 0.81691 0.24469 0.69999 0.0
O343 O 0.82251 0.24401 0.78153 0.0
Mg344 Mg 0.53905 0.76934 0.27073 0.0
C345 C 0.57635 0.81609 0.21697 0.0
O346 O 0.57318 0.79031 0.20612 0.0
C347 C 0.55078 0.72341 0.30444 0.0
O348 O 0.52612 0.70493 0.2873 0.0
C349 C 0.50006 0.76773 0.32439 0.0
O350 O 0.50333 0.74396 0.33397 0.0
O351 O 0.50888 0.77921 0.29801 0.0
O352 O 0.56818 0.81475 0.24385 0.0
O353 O 0.51273 0.73042 0.2409 0.0
C354 C 0.50038 0.73054 0.21614 0.0
O355 O 0.49898 0.75562 0.20726 0.0
O356 O 0.56407 0.75401 0.30179 0.0
Mg357 Mg 0.77935 0.53982 0.79447 0.0
C358 C 0.75663 0.58263 0.76728 0.0
O359 O 0.74456 0.57931 0.79402 0.0
C360 C 0.81862 0.53498 0.84144 0.0
O361 O 0.78809 0.50946 0.8453 0.0
C362 C 0.70809 0.5109 0.82113 0.0
O363 O 0.69803 0.50433 0.79399 0.0
O364 O 0.73867 0.52291 0.82656 0.0
O365 O 0.77639 0.57328 0.76288 0.0
O366 O 0.77568 0.50502 0.76419 0.0
C367 C 0.79559 0.49535 0.76506 0.0
O368 O 0.8142 0.50104 0.78814 0.0
O369 O 0.82425 0.55571 0.82049 0.0
Mg370 Mg 0.25549 0.77825 0.28261 0.0
C371 C 0.20822 0.72006 0.25031 0.0
O372 O 0.18964 0.73016 0.25982 0.0
C373 C 0.32372 0.81914 0.31225 0.0
O374 O 0.33405 0.83368 0.28596 0.0
C375 C 0.2063 0.73777 0.32533 0.0
O376 O 0.22719 0.72848 0.32196 0.0
O377 O 0.21183 0.76298 0.3105 0.0
O378 O 0.23879 0.73498 0.25735 0.0
O379 O 0.27403 0.81698 0.24812 0.0
C380 C 0.29253 0.81378 0.23041 0.0
O381 O 0.2965 0.78957 0.23578 0.0
O382 O 0.29425 0.79412 0.31573 0.0
Mg383 Mg 0.47232 0.25432 0.74998 0.0
C384 C 0.50405 0.24284 0.69603 0.0
O385 O 0.50643 0.2687 0.6835 0.0
C386 C 0.50964 0.32437 0.76773 0.0
O387 O 0.49788 0.3287 0.74301 0.0
C388 C 0.46879 0.22153 0.80514 0.0
O389 O 0.50028 0.24426 0.79967 0.0
O390 O 0.44729 0.21806 0.78644 0.0
O391 O 0.49322 0.23411 0.72251 0.0
O392 O 0.44366 0.26949 0.72476 0.0
C393 C 0.43455 0.26304 0.69834 0.0
O394 O 0.43595 0.24012 0.68615 0.0
O395 O 0.50694 0.29743 0.77335 0.0
H396 H 0.08362 0.42214 0.04836 0.0
H397 H 0.14666 0.44663 0.21422 0.0
H398 H 0.07473 0.48307 0.1074 0.0
H399 H 0.18498 0.41463 0.14765 0.0
H400 H 0.11035 0.44938 0.17782 0.0
H401 H 0.1127 0.41021 0.08663 0.0
C402 C 0.08806 0.43314 0.06934 0.0
C403 C 0.07743 0.45405 0.07469 0.0
C404 C 0.12643 0.44138 0.17129 0.0
C405 C 0.10947 0.43979 0.11868 0.0
C406 C 0.14697 0.43949 0.19214 0.0
C407 C 0.16922 0.43069 0.18395 0.0
C408 C 0.12787 0.43416 0.14207 0.0
C409 C 0.16845 0.42179 0.15491 0.0
C410 C 0.10439 0.42619 0.09117 0.0
C411 C 0.08291 0.46708 0.10242 0.0
N412 N 0.14833 0.42399 0.13496 0.0
N413 N 0.09853 0.45974 0.12339 0.0
H414 H 0.60906 0.09266 0.58436 0.0
H415 H 0.69809 0.09333 0.72878 0.0
H416 H 0.6212 0.01306 0.60441 0.0
H417 H 0.73966 0.18009 0.67177 0.0
H418 H 0.66359 0.06141 0.68806 0.0
H419 H 0.6508 0.12408 0.62103 0.0
C420 C 0.6206 0.08187 0.59649 0.0
C421 C 0.61144 0.05013 0.59169 0.0
C422 C 0.68067 0.08739 0.68449 0.0
C423 C 0.65845 0.08553 0.63397 0.0
C424 C 0.7003 0.10557 0.70763 0.0
C425 C 0.72183 0.13939 0.70365 0.0
C426 C 0.68185 0.10331 0.6576 0.0
C427 C 0.72359 0.15406 0.67581 0.0
C428 C 0.64435 0.09976 0.61732 0.0
C429 C 0.62716 0.03725 0.60793 0.0
N430 N 0.70339 0.13603 0.65404 0.0
N431 N 0.64953 0.05479 0.62877 0.0
H432 H 0.53946 0.60729 0.12402 0.0
H433 H 0.4794 0.72451 0.15889 0.0
H434 H 0.4709 0.61532 0.06761 0.0
H435 H 0.50935 0.68056 0.2259 0.0
H436 H 0.47896 0.68826 0.12335 0.0
H437 H 0.53282 0.63868 0.15985 0.0
C438 C 0.52284 0.61542 0.11915 0.0
C439 C 0.50566 0.60842 0.09264 0.0
C440 C 0.48523 0.68642 0.14595 0.0
C441 C 0.49851 0.64512 0.13356 0.0
C442 C 0.4854 0.707 0.16625 0.0
C443 C 0.49468 0.70581 0.19539 0.0
C444 C 0.49491 0.66495 0.15483 0.0
C445 C 0.50225 0.68261 0.20367 0.0
C446 C 0.51915 0.63347 0.13965 0.0
C447 C 0.48513 0.6205 0.08744 0.0
N448 N 0.50263 0.66346 0.18343 0.0
N449 N 0.48225 0.6384 0.10765 0.0
H450 H 0.91822 0.48136 0.63801 0.0
H451 H 0.77538 0.49759 0.7088 0.0
H452 H 0.86414 0.51496 0.58873 0.0
H453 H 0.83678 0.47328 0.7587 0.0
H454 H 0.80031 0.49441 0.66331 0.0
H455 H 0.88227 0.46986 0.68095 0.0
C456 C 0.89879 0.4864 0.63625 0.0
C457 C 0.8946 0.49974 0.60988 0.0
C458 C 0.80795 0.48929 0.68421 0.0
C459 C 0.85297 0.48622 0.65899 0.0
C460 C 0.79354 0.49087 0.71023 0.0
C461 C 0.80436 0.48617 0.73768 0.0
C462 C 0.8333 0.48294 0.68566 0.0
C463 C 0.82796 0.4775 0.73808 0.0
C464 C 0.8781 0.47958 0.66073 0.0
C465 C 0.86835 0.50481 0.60863 0.0
N466 N 0.84191 0.47656 0.7125 0.0
N467 N 0.84874 0.49836 0.63294 0.0
H468 H 0.38854 0.97529 0.09777 0.0
H469 H 0.33146 0.80988 0.18993 0.0
H470 H 0.43832 0.92406 0.09421 0.0
H471 H 0.29691 0.87106 0.21369 0.0
H472 H 0.36559 0.84909 0.15057 0.0
H473 H 0.35042 0.93559 0.13666 0.0
C474 C 0.39137 0.95568 0.10531 0.0
C475 C 0.41652 0.95281 0.09311 0.0
C476 C 0.35061 0.85409 0.16432 0.0
C477 C 0.37316 0.90745 0.1368 0.0
C478 C 0.33094 0.8316 0.18686 0.0
C479 C 0.31142 0.83726 0.2054 0.0
C480 C 0.35091 0.88267 0.15994 0.0
C481 C 0.31169 0.8658 0.19999 0.0
C482 C 0.36973 0.93313 0.12737 0.0
C483 C 0.4192 0.92699 0.10319 0.0
N484 N 0.33126 0.88758 0.17772 0.0
N485 N 0.39777 0.9053 0.12439 0.0
H486 H 0.44092 0.38725 0.55181 0.0
H487 H 0.43969 0.31832 0.71509 0.0
H488 H 0.49711 0.44734 0.62258 0.0
H489 H 0.42288 0.26268 0.63898 0.0
H490 H 0.4466 0.3628 0.6828 0.0
H491 H 0.42148 0.33876 0.58494 0.0
C492 C 0.44893 0.39013 0.57439 0.0
C493 C 0.47087 0.42115 0.58452 0.0
C494 C 0.44098 0.34068 0.67323 0.0
C495 C 0.44826 0.36626 0.62247 0.0
C496 C 0.43685 0.31514 0.69164 0.0
C497 C 0.43128 0.28682 0.67973 0.0
C498 C 0.43914 0.33785 0.64265 0.0
C499 C 0.42748 0.28414 0.64914 0.0
C500 C 0.43785 0.36259 0.59321 0.0
C501 C 0.48029 0.42378 0.61398 0.0
N502 N 0.43178 0.30948 0.6316 0.0
N503 N 0.46894 0.39671 0.63193 0.0
H504 H 0.5656 0.92664 0.42923 0.0
H505 H 0.47373 0.74911 0.3809 0.0
H506 H 0.46782 0.85848 0.4683 0.0
H507 H 0.51722 0.83036 0.31688 0.0
H508 H 0.47636 0.785 0.41826 0.0
H509 H 0.55519 0.88757 0.393 0.0
C510 C 0.5419 0.90359 0.43029 0.0
C511 C 0.51734 0.89629 0.45174 0.0
C512 C 0.48479 0.79461 0.39587 0.0
C513 C 0.50598 0.851 0.41073 0.0
C514 C 0.48326 0.77426 0.37458 0.0
C515 C 0.49537 0.78677 0.34575 0.0
C516 C 0.49942 0.8277 0.38833 0.0
C517 C 0.50757 0.81958 0.33877 0.0
C518 C 0.53612 0.88128 0.40962 0.0
C519 C 0.48767 0.86525 0.45244 0.0
N520 N 0.5099 0.83903 0.36005 0.0
N521 N 0.48282 0.84364 0.43224 0.0
H522 H 0.64115 0.56955 0.96625 0.0
H523 H 0.64135 0.48847 0.81827 0.0
H524 H 0.55095 0.50334 0.92216 0.0
H525 H 0.72472 0.53359 0.87631 0.0
H526 H 0.60775 0.49476 0.85461 0.0
H527 H 0.67283 0.5591 0.9314 0.0
C528 C 0.62804 0.55254 0.94936 0.0
C529 C 0.59339 0.53657 0.94743 0.0
C530 C 0.63334 0.50305 0.85942 0.0
C531 C 0.62931 0.52499 0.90712 0.0
C532 C 0.65251 0.49938 0.83873 0.0
C533 C 0.68599 0.51063 0.84413 0.0
C534 C 0.64792 0.51848 0.8855 0.0
C535 C 0.69908 0.52459 0.87107 0.0
C536 C 0.64605 0.54661 0.92945 0.0
C537 C 0.57762 0.51564 0.92455 0.0
N538 N 0.68015 0.52839 0.89056 0.0
N539 N 0.59567 0.5104 0.90526 0.0
H540 H 0.053 0.66011 0.46365 0.0
H541 H 0.17609 0.67359 0.33792 0.0
H542 H 0.04951 0.57851 0.42873 0.0
H543 H 0.16795 0.75455 0.35542 0.0
H544 H 0.12934 0.63908 0.37155 0.0
H545 H 0.09459 0.69595 0.42486 0.0
C546 C 0.0609 0.64986 0.44762 0.0
C547 C 0.04822 0.61657 0.44921 0.0
C548 C 0.13746 0.6643 0.36803 0.0
C549 C 0.0953 0.65687 0.40528 0.0
C550 C 0.16433 0.68412 0.34886 0.0
C551 C 0.1761 0.71706 0.3441 0.0
C552 C 0.12228 0.67745 0.38306 0.0
C553 C 0.15958 0.72924 0.35857 0.0
C554 C 0.08444 0.67016 0.42554 0.0
C555 C 0.05888 0.60413 0.42812 0.0
N556 N 0.13363 0.70946 0.37777 0.0
N557 N 0.08195 0.62431 0.40717 0.0
H558 H 0.419 0.05753 0.92334 0.0
H559 H 0.49865 0.23905 0.85731 0.0
H560 H 0.50263 0.143 0.95907 0.0
H561 H 0.42031 0.15633 0.81427 0.0
H562 H 0.49277 0.20367 0.89933 0.0
H563 H 0.41268 0.09249 0.88728 0.0
C564 C 0.4359 0.08357 0.9238 0.0
C565 C 0.46155 0.09721 0.94432 0.0
C566 C 0.47652 0.19309 0.88093 0.0
C567 C 0.45408 0.13729 0.90333 0.0
C568 C 0.47983 0.21334 0.85694 0.0
C569 C 0.46017 0.20049 0.83222 0.0
C570 C 0.45376 0.15949 0.88013 0.0
C571 C 0.43593 0.16711 0.83298 0.0
C572 C 0.4321 0.10349 0.9033 0.0
C573 C 0.48221 0.13117 0.94411 0.0
N574 N 0.43375 0.14757 0.85642 0.0
N575 N 0.47813 0.14988 0.92389 0.0
H576 H 0.46011 0.51243 0.39261 0.0
H577 H 0.27254 0.44204 0.34216 0.0
H578 H 0.37585 0.46128 0.45349 0.0
H579 H 0.36079 0.51526 0.2927 0.0
H580 H 0.30847 0.44082 0.38067 0.0
H581 H 0.42236 0.50535 0.35314 0.0
C582 C 0.43359 0.49932 0.39763 0.0
C583 C 0.42119 0.48748 0.42648 0.0
C584 C 0.31983 0.45695 0.36124 0.0
C585 C 0.37765 0.47957 0.38123 0.0
C586 C 0.29939 0.4575 0.33924 0.0
C587 C 0.31372 0.47895 0.31432 0.0
C588 C 0.35473 0.47761 0.35795 0.0
C589 C 0.34863 0.49858 0.31167 0.0
C590 C 0.41204 0.49549 0.37509 0.0
C591 C 0.38655 0.47113 0.43165 0.0
N592 N 0.36784 0.49744 0.33314 0.0
N593 N 0.36597 0.46769 0.40927 0.0
H594 H 0.99921 0.40187 0.8986 0.0
H595 H 0.82995 0.2568 0.83644 0.0
H596 H 0.9023 0.37216 0.93443 0.0
H597 H 0.91516 0.32204 0.77972 0.0
H598 H 0.86006 0.28916 0.87823 0.0
H599 H 0.97181 0.36357 0.86014 0.0
C600 C 0.97224 0.38752 0.89851 0.0
C601 C 0.95323 0.39095 0.91985 0.0
C602 C 0.87227 0.29603 0.85669 0.0
C603 C 0.92181 0.34589 0.87627 0.0
C604 C 0.85529 0.27744 0.83287 0.0
C605 C 0.87007 0.28681 0.80449 0.0
C606 C 0.90449 0.32379 0.85222 0.0
C607 C 0.90282 0.31403 0.80119 0.0
C608 C 0.95668 0.36541 0.87661 0.0
C609 C 0.91826 0.37045 0.91887 0.0
N610 N 0.91895 0.33161 0.82477 0.0
N611 N 0.90374 0.34886 0.89748 0.0
H612 H 0.99089 0.58815 0.95016 0.0
H613 H 0.81572 0.48567 0.87385 0.0
H614 H 0.93701 0.48469 0.94319 0.0
H615 H 0.88319 0.58736 0.84932 0.0
H616 H 0.85897 0.48666 0.9029 0.0
H617 H 0.95176 0.59037 0.916 0.0
C618 C 0.97118 0.56604 0.94099 0.0
C619 C 0.96723 0.53621 0.94919 0.0
C620 C 0.86451 0.50881 0.89114 0.0
C621 C 0.92207 0.53839 0.91106 0.0
C622 C 0.83967 0.50836 0.87462 0.0
C623 C 0.8457 0.53654 0.8591 0.0
C624 C 0.8958 0.53778 0.89275 0.0
C625 C 0.87746 0.56508 0.86091 0.0
C626 C 0.94884 0.56729 0.92166 0.0
C627 C 0.94092 0.50815 0.93729 0.0
N628 N 0.90132 0.56506 0.87765 0.0
N629 N 0.91925 0.50989 0.91908 0.0
H630 H 0.47651 0.9425 0.43506 0.0
H631 H 0.30104 0.81377 0.36875 0.0
H632 H 0.38519 0.9333 0.46187 0.0
H633 H 0.39115 0.86325 0.31476 0.0
H634 H 0.33253 0.84768 0.40932 0.0
H635 H 0.4464 0.90476 0.39613 0.0
C636 C 0.45007 0.9323 0.43286 0.0
C637 C 0.4331 0.9404 0.45209 0.0
C638 C 0.34542 0.85082 0.38867 0.0
C639 C 0.39857 0.89711 0.40803 0.0
C640 C 0.32757 0.83129 0.36559 0.0
C641 C 0.34348 0.83572 0.33826 0.0
C642 C 0.37956 0.8745 0.38465 0.0
C643 C 0.37788 0.85909 0.33541 0.0
C644 C 0.43297 0.91084 0.41072 0.0
C645 C 0.39894 0.92687 0.44812 0.0
N646 N 0.39481 0.87759 0.35833 0.0
N647 N 0.38271 0.90565 0.42673 0.0
H648 H 0.51224 0.46533 0.876 0.0
H649 H 0.51762 0.31435 0.8262 0.0
H650 H 0.48472 0.38126 0.9332 0.0
H651 H 0.51668 0.38365 0.76473 0.0
H652 H 0.51723 0.34483 0.86682 0.0
H653 H 0.52375 0.44086 0.83623 0.0
C654 C 0.50829 0.44159 0.88019 0.0
C655 C 0.49695 0.42516 0.90801 0.0
C656 C 0.51752 0.35357 0.84443 0.0
C657 C 0.51104 0.39741 0.8626 0.0
C658 C 0.51805 0.33635 0.82116 0.0
C659 C 0.51681 0.34624 0.79193 0.0
C660 C 0.51599 0.38103 0.83848 0.0
C661 C 0.51737 0.37496 0.78689 0.0
C662 C 0.51522 0.42781 0.85751 0.0
C663 C 0.49348 0.39495 0.91225 0.0
N664 N 0.51663 0.39119 0.80993 0.0
N665 N 0.50039 0.38203 0.8898 0.0
H666 H 0.1269 0.55908 0.41847 0.0
H667 H 0.13421 0.44476 0.30398 0.0
H668 H 0.04203 0.46779 0.39325 0.0
H669 H 0.21914 0.54081 0.31735 0.0
H670 H 0.1006 0.45451 0.33615 0.0
H671 H 0.16151 0.55438 0.38185 0.0
C672 C 0.11551 0.53807 0.40527 0.0
C673 C 0.0814 0.51374 0.40909 0.0
C674 C 0.1265 0.47367 0.33206 0.0
C675 C 0.12089 0.50838 0.36701 0.0
C676 C 0.14583 0.46809 0.31364 0.0
C677 C 0.17967 0.49193 0.30808 0.0
C678 C 0.14098 0.50328 0.34558 0.0
C679 C 0.19313 0.52179 0.32103 0.0
C680 C 0.13526 0.53555 0.38423 0.0
C681 C 0.068 0.48735 0.39099 0.0
N682 N 0.1738 0.52653 0.33948 0.0
N683 N 0.08775 0.48534 0.37099 0.0
H684 H 0.64269 0.09167 0.96948 0.0
H685 H 0.67777 0.18492 0.81045 0.0
H686 H 0.56588 0.09296 0.92071 0.0
H687 H 0.74966 0.17467 0.85909 0.0
H688 H 0.63717 0.15544 0.85158 0.0
H689 H 0.68318 0.12598 0.9301 0.0
C690 C 0.63453 0.09943 0.95042 0.0
C691 C 0.60119 0.08981 0.94821 0.0
C692 C 0.66193 0.15987 0.8532 0.0
C693 C 0.64706 0.12879 0.90289 0.0
C694 C 0.68511 0.1768 0.82982 0.0
C695 C 0.71706 0.18205 0.83123 0.0
C696 C 0.67099 0.1484 0.87811 0.0
C697 C 0.72524 0.17092 0.85683 0.0
C698 C 0.65753 0.11895 0.92792 0.0
C699 C 0.59156 0.10013 0.92307 0.0
N700 N 0.70242 0.15463 0.87908 0.0
N701 N 0.6144 0.11909 0.90129 0.0
H702 H 0.5301 0.57494 0.42735 0.0
H703 H 0.58713 0.7499 0.35436 0.0
H704 H 0.59632 0.66323 0.47027 0.0
H705 H 0.53249 0.66056 0.30974 0.0
H706 H 0.59282 0.72007 0.39657 0.0
H707 H 0.53179 0.60697 0.38372 0.0
C708 C 0.54501 0.60118 0.42745 0.0
C709 C 0.56275 0.61657 0.45238 0.0
C710 C 0.5799 0.70715 0.37737 0.0
C711 C 0.56497 0.65358 0.40261 0.0
C712 C 0.5768 0.72419 0.35323 0.0
C713 C 0.55909 0.70768 0.32855 0.0
C714 C 0.56509 0.67343 0.37674 0.0
C715 C 0.54607 0.67431 0.32836 0.0
C716 C 0.54606 0.6195 0.40259 0.0
C717 C 0.5819 0.65059 0.45151 0.0
N718 N 0.54911 0.65835 0.35209 0.0
N719 N 0.58236 0.66803 0.42706 0.0
H720 H 0.50616 0.13241 0.55447 0.0
H721 H 0.50492 0.18979 0.71581 0.0
H722 H 0.50698 0.08189 0.63452 0.0
H723 H 0.51355 0.2456 0.63614 0.0
H724 H 0.50666 0.15062 0.68628 0.0
H725 H 0.50924 0.17426 0.58378 0.0
C726 C 0.50711 0.13012 0.57819 0.0
C727 C 0.50624 0.10343 0.59197 0.0
C728 C 0.50841 0.17153 0.67522 0.0
C729 C 0.50953 0.15131 0.62576 0.0
C730 C 0.50749 0.194 0.6921 0.0
C731 C 0.50898 0.22104 0.67846 0.0
C732 C 0.5106 0.17589 0.64438 0.0
C733 C 0.51237 0.22517 0.64763 0.0
C734 C 0.50878 0.15403 0.59493 0.0
C735 C 0.50703 0.10165 0.62287 0.0
N736 N 0.51281 0.20271 0.63163 0.0
N737 N 0.50861 0.1252 0.63866 0.0
H738 H 0.36069 0.43133 0.06141 0.0
H739 H 0.33217 0.53433 0.17495 0.0
H740 H 0.43177 0.53381 0.06709 0.0
H741 H 0.29221 0.43183 0.18678 0.0
H742 H 0.36257 0.53637 0.13018 0.0
H743 H 0.32768 0.4328 0.10166 0.0
C744 C 0.36912 0.45416 0.0711 0.0
C745 C 0.39911 0.48233 0.06148 0.0
C746 C 0.34705 0.51353 0.14271 0.0
C747 C 0.36158 0.48443 0.10726 0.0
C748 C 0.32973 0.51236 0.16815 0.0
C749 C 0.30985 0.48295 0.18479 0.0
C750 C 0.34369 0.48494 0.13365 0.0
C751 C 0.30749 0.45515 0.17494 0.0
C752 C 0.35041 0.45505 0.09405 0.0
C753 C 0.40883 0.51153 0.07427 0.0
N754 N 0.324 0.45683 0.15008 0.0
N755 N 0.3902 0.51186 0.09671 0.0
H756 H 0.93055 0.37795 0.54429 0.0
H757 H 0.82663 0.33165 0.69713 0.0
H758 H 0.92476 0.44814 0.59228 0.0
H759 H 0.83679 0.26479 0.64745 0.0
H760 H 0.85944 0.37436 0.65829 0.0
H761 H 0.8937 0.3357 0.5815 0.0
C762 C 0.92132 0.38429 0.56273 0.0
C763 C 0.93033 0.41626 0.56532 0.0
C764 C 0.85425 0.35024 0.65591 0.0
C765 C 0.88837 0.36835 0.60813 0.0
C766 C 0.83539 0.32586 0.67797 0.0
C767 C 0.82915 0.29467 0.67564 0.0
C768 C 0.86671 0.34319 0.63142 0.0
C769 C 0.84122 0.28853 0.6504 0.0
C770 C 0.90032 0.36028 0.58399 0.0
C771 C 0.91812 0.42357 0.58966 0.0
N772 N 0.85943 0.3125 0.62945 0.0
N773 N 0.8977 0.39977 0.6102 0.0
H774 H 0.55739 0.96927 0.14049 0.0
H775 H 0.58685 0.82374 0.15702 0.0
H776 H 0.56805 0.92348 0.0666 0.0
H777 H 0.57695 0.87024 0.2307 0.0
H778 H 0.58592 0.8637 0.12355 0.0
H779 H 0.56996 0.93683 0.17357 0.0
C780 C 0.56279 0.95272 0.13111 0.0
C781 C 0.56146 0.94911 0.10058 0.0
C782 C 0.58433 0.8654 0.14705 0.0
C783 C 0.57547 0.91134 0.13863 0.0
C784 C 0.58503 0.84264 0.16623 0.0
C785 C 0.58171 0.84337 0.1968 0.0
C786 C 0.58017 0.88909 0.15843 0.0
C787 C 0.57942 0.86853 0.20733 0.0
C788 C 0.56979 0.93402 0.15011 0.0
C789 C 0.56819 0.92678 0.08995 0.0
N790 N 0.57836 0.89013 0.1882 0.0
N791 N 0.57471 0.90868 0.10892 0.0
H792 H 0.67759 0.57965 0.59451 0.0
H793 H 0.70526 0.5923 0.76841 0.0
H794 H 0.60281 0.56435 0.65812 0.0
H795 H 0.77048 0.58556 0.70805 0.0
H796 H 0.67247 0.59194 0.72691 0.0
H797 H 0.71591 0.59027 0.63462 0.0
C798 C 0.6691 0.57847 0.61683 0.0
C799 C 0.63659 0.57076 0.62274 0.0
C800 C 0.69417 0.59089 0.72269 0.0
C801 C 0.68089 0.58364 0.66888 0.0
C802 C 0.71311 0.59133 0.7464 0.0
C803 C 0.74063 0.5887 0.74185 0.0
C804 C 0.70275 0.58792 0.69408 0.0
C805 C 0.74943 0.58749 0.7127 0.0
C806 C 0.69117 0.58478 0.63973 0.0
C807 C 0.62759 0.57049 0.65222 0.0
N808 N 0.73041 0.58685 0.68999 0.0
N809 N 0.64951 0.57668 0.67409 0.0
H810 H 0.07096 0.55766 0.14812 0.0
H811 H 0.23726 0.71623 0.20005 0.0
H812 H 0.14199 0.63425 0.08664 0.0
H813 H 0.14567 0.66619 0.25183 0.0
H814 H 0.20824 0.67854 0.16072 0.0
H815 H 0.10326 0.59053 0.18864 0.0
C816 C 0.09312 0.58137 0.14294 0.0
C817 C 0.10333 0.59305 0.11355 0.0
C818 C 0.19473 0.67558 0.18092 0.0
C819 C 0.14126 0.63032 0.16029 0.0
C820 C 0.21134 0.69678 0.20344 0.0
C821 C 0.19378 0.69418 0.22916 0.0
C822 C 0.1606 0.65135 0.18453 0.0
C823 C 0.16005 0.66897 0.23228 0.0
C824 C 0.11175 0.59997 0.16622 0.0
C825 C 0.1331 0.62373 0.1087 0.0
N826 N 0.14456 0.64853 0.21026 0.0
N827 N 0.15098 0.6412 0.13177 0.0
loop_
_geom_bond_atom_site_label_1
_geom_bond_atom_site_label_2
_geom_bond_distance
_geom_bond_site_symmetry_2
_ccdc_geom_bond_type
C0 C1 1.443 . S
C0 N4 1.376 1_556 S
C0 C38 1.389 . S
C1 C0 1.443 . S
C1 C2 1.340 1_556 S
C1 H41 0.951 . S
C2 C1 1.340 1_554 S
C2 C3 1.439 . S
C2 H42 0.950 . S
C3 C2 1.439 . S
C3 N4 1.374 . S
C3 C37 1.395 . S
N4 C0 1.376 1_554 S
N4 C3 1.374 . S
N4 Co5 2.008 1_655 S
Co5 N4 2.008 1_455 S
Co5 N6 1.994 . S
Co5 N11 2.008 . S
Co5 N16 1.995 1_554 S
Co5 N21 2.282 . S
Co5 N27 2.282 1_454 S
N6 Co5 1.994 . S
N6 C7 1.363 1_455 S
N6 C10 1.398 . S
C7 N6 1.363 1_655 S
C7 C8 1.446 . S
C7 C37 1.391 . S
C8 C7 1.446 . S
C8 C9 1.339 1_655 S
C8 H43 0.949 . S
C9 C8 1.339 1_455 S
C9 C10 1.439 . S
C9 H44 0.950 . S
C10 N6 1.398 . S
C10 C9 1.439 . S
C10 C39 1.392 . S
N11 Co5 2.008 . S
N11 C12 1.376 . S
N11 C15 1.374 1_554 S
C12 N11 1.376 . S
C12 C13 1.443 . S
C12 C39 1.389 . S
C13 C12 1.443 . S
C13 C14 1.340 . S
C13 H45 0.951 . S
C14 C13 1.340 . S
C14 C15 1.439 1_554 S
C14 H46 0.950 1_554 S
C15 N11 1.374 1_556 S
C15 C14 1.439 1_556 S
C15 C40 1.395 . S
N16 Co5 1.995 1_556 S
N16 C17 1.376 . S
N16 C20 1.383 . S
C17 N16 1.376 . S
C17 C18 1.446 . S
C17 C40 1.391 . S
C18 C17 1.446 . S
C18 C19 1.339 . S
C18 H47 0.949 . S
C19 C18 1.339 . S
C19 C20 1.439 . S
C19 H48 0.950 . S
C20 N16 1.383 . S
C20 C19 1.439 . S
C20 C38 1.392 1_455 S
N21 Co5 2.282 . S
N21 C24 1.332 . S
N21 C26 1.332 . S
C22 C23 1.386 . S
C22 C25 1.388 . S
C23 C22 1.386 . S
C23 C24 1.382 . S
C23 H49 0.950 . S
C24 N21 1.332 . S
C24 C23 1.382 . S
C24 H35 0.952 . S
C25 C22 1.388 . S
C25 C26 1.382 . S
C25 H50 0.950 . S
C26 N21 1.332 . S
C26 C25 1.382 . S
C26 H36 0.948 . S
N27 Co5 2.282 1_656 S
N27 C31 1.332 . S
N27 C32 1.332 1_655 S
C28 C29 1.388 . S
C28 C32 1.382 1_655 S
C28 H51 0.950 . S
C29 C28 1.388 . S
C29 C30 1.386 . S
C30 C29 1.386 . S
C30 C31 1.382 . S
C30 H52 0.950 . S
C31 N27 1.332 . S
C31 C30 1.382 . S
C31 H33 0.952 1_556 S
C32 N27 1.332 1_455 S
C32 C28 1.382 1_455 S
C32 H34 0.948 . S
H33 C31 0.952 1_554 S
H34 C32 0.948 . S
H35 C24 0.952 . S
H36 C26 0.948 . S
C37 C3 1.395 . S
C37 C7 1.391 . S
C38 C0 1.389 . S
C38 C20 1.392 1_655 S
C39 C10 1.392 . S
C39 C12 1.389 . S
C40 C15 1.395 . S
C40 C17 1.391 . S
H41 C1 0.951 . S
H42 C2 0.950 . S
H43 C8 0.949 . S
H44 C9 0.950 . S
H45 C13 0.951 . S
H46 C14 0.950 1_556 S
H47 C18 0.949 . S
H48 C19 0.950 . S
H49 C23 0.950 . S
H50 C25 0.950 . S
H51 C28 0.950 . S
H52 C30 0.950 . S
C53 C54 1.443 . S
C53 N57 1.376 . S
C53 C91 1.389 . S
C54 C53 1.443 . S
C54 C55 1.340 1_545 S
C54 H94 0.951 . S
C55 C54 1.340 1_565 S
C55 C56 1.439 . S
C55 H95 0.950 . S
C56 C55 1.439 . S
C56 N57 1.374 1_565 S
C56 C90 1.395 . S
N57 C53 1.376 . S
N57 C56 1.374 1_545 S
N57 Co58 2.008 . S
Co58 N57 2.008 . S
Co58 N59 1.995 1_545 S
Co58 N64 2.008 . S
Co58 N69 1.995 . S
Co58 N74 2.282 1_545 S
Co58 N80 2.282 . S
N59 Co58 1.995 1_565 S
N59 C60 1.376 . S
N59 C63 1.383 . S
C60 N59 1.376 . S
C60 C61 1.446 . S
C60 C90 1.391 . S
C61 C60 1.446 . S
C61 C62 1.339 . S
C61 H96 0.949 . S
C62 C61 1.339 . S
C62 C63 1.439 . S
C62 H97 0.950 . S
C63 N59 1.383 . S
C63 C62 1.439 . S
C63 C92 1.392 . S
N64 Co58 2.008 . S
N64 C65 1.376 . S
N64 C68 1.374 . S
C65 N64 1.376 . S
C65 C66 1.443 . S
C65 C92 1.389 1_545 S
C66 C65 1.443 . S
C66 C67 1.340 . S
C66 H98 0.951 . S
C67 C66 1.340 . S
C67 C68 1.439 . S
C67 H99 0.950 . S
C68 N64 1.374 . S
C68 C67 1.439 . S
C68 C93 1.395 . S
N69 Co58 1.995 . S
N69 C70 1.376 . S
N69 C73 1.383 . S
C70 N69 1.376 . S
C70 C71 1.446 . S
C70 C93 1.391 . S
C71 C70 1.446 . S
C71 C72 1.339 . S
C71 H100 0.949 . S
C72 C71 1.339 . S
C72 C73 1.439 . S
C72 H101 0.950 . S
C73 N69 1.383 . S
C73 C72 1.439 . S
C73 C91 1.392 . S
N74 Co58 2.282 1_565 S
N74 C77 1.332 1_565 S
N74 C79 1.332 . S
C75 C76 1.386 . S
C75 C78 1.388 . S
C76 C75 1.386 . S
C76 C77 1.382 1_565 S
C76 H102 0.950 1_565 S
C77 N74 1.332 1_545 S
C77 C76 1.382 1_545 S
C77 H88 0.952 . S
C78 C75 1.388 . S
C78 C79 1.382 . S
C78 H103 0.950 . S
C79 N74 1.332 . S
C79 C78 1.382 . S
C79 H89 0.948 . S
N80 Co58 2.282 . S
N80 C84 1.332 . S
N80 C85 1.332 . S
C81 C82 1.388 . S
C81 C85 1.382 . S
C81 H104 0.950 . S
C82 C81 1.388 . S
C82 C83 1.386 . S
C83 C82 1.386 . S
C83 C84 1.382 . S
C83 H105 0.950 . S
C84 N80 1.332 . S
C84 C83 1.382 . S
C84 H86 0.927 1_545 S
C85 N80 1.332 . S
C85 C81 1.382 . S
C85 H87 0.948 . S
H86 C84 0.927 1_565 S
H87 C85 0.948 . S
H88 C77 0.952 . S
H89 C79 0.948 . S
C90 C56 1.395 . S
C90 C60 1.391 . S
C91 C53 1.389 . S
C91 C73 1.392 . S
C92 C63 1.392 . S
C92 C65 1.389 1_565 S
C93 C68 1.395 . S
C93 C70 1.391 . S
H94 C54 0.951 . S
H95 C55 0.950 . S
H96 C61 0.949 . S
H97 C62 0.950 . S
H98 C66 0.951 . S
H99 C67 0.950 . S
H100 C71 0.949 . S
H101 C72 0.950 . S
H102 C76 0.950 1_545 S
H103 C78 0.950 . S
H104 C81 0.950 . S
H105 C83 0.950 . S
C106 C107 1.443 . S
C106 N110 1.376 . S
C106 C144 1.389 . S
C107 C106 1.443 . S
C107 C108 1.340 . S
C107 H147 0.951 . S
C108 C107 1.340 . S
C108 C109 1.439 . S
C108 H148 0.950 . S
C109 C108 1.439 . S
C109 N110 1.374 . S
C109 C143 1.395 . S
N110 C106 1.376 . S
N110 C109 1.374 . S
N110 Co111 2.008 1_556 S
Co111 N110 2.008 1_554 S
Co111 N112 1.995 . S
Co111 N117 2.008 . S
Co111 N122 1.995 . S
Co111 N127 2.282 . S
Co111 N133 2.282 1_554 S
N112 Co111 1.995 . S
N112 C113 1.376 1_554 S
N112 C116 1.383 . S
C113 N112 1.376 1_556 S
C113 C114 1.446 . S
C113 C143 1.391 . S
C114 C113 1.446 . S
C114 C115 1.339 1_556 S
C114 H149 0.949 . S
C115 C114 1.339 1_554 S
C115 C116 1.439 . S
C115 H150 0.950 . S
C116 N112 1.383 . S
C116 C115 1.439 . S
C116 C145 1.392 . S
N117 Co111 2.008 . S
N117 C118 1.376 . S
N117 C121 1.374 . S
C118 N117 1.376 . S
C118 C119 1.443 . S
C118 C145 1.389 . S
C119 C118 1.443 . S
C119 C120 1.340 . S
C119 H151 0.951 . S
C120 C119 1.340 . S
C120 C121 1.439 . S
C120 H152 0.950 . S
C121 N117 1.374 . S
C121 C120 1.439 . S
C121 C146 1.395 . S
N122 Co111 1.995 . S
N122 C123 1.376 . S
N122 C126 1.383 1_554 S
C123 N122 1.376 . S
C123 C124 1.446 . S
C123 C146 1.391 . S
C124 C123 1.446 . S
C124 C125 1.326 1_554 S
C124 H153 0.949 . S
C125 C124 1.326 1_556 S
C125 C126 1.442 . S
C125 H154 0.957 . S
C126 N122 1.383 1_556 S
C126 C125 1.442 . S
C126 C144 1.392 . S
N127 Co111 2.282 . S
N127 C130 1.332 . S
N127 C132 1.332 . S
C128 C129 1.386 . S
C128 C131 1.388 . S
C129 C128 1.386 . S
C129 C130 1.382 . S
C129 H155 0.950 . S
C130 N127 1.332 . S
C130 C129 1.382 . S
C130 H141 0.952 . S
C131 C128 1.388 . S
C131 C132 1.382 . S
C131 H156 0.950 . S
C132 N127 1.332 . S
C132 C131 1.382 . S
C132 H142 0.948 . S
N133 Co111 2.282 1_556 S
N133 C137 1.332 . S
N133 C138 1.332 . S
C134 C135 1.388 . S
C134 C138 1.382 . S
C134 H157 0.950 . S
C135 C134 1.388 . S
C135 C136 1.386 . S
C136 C135 1.386 . S
C136 C137 1.382 . S
C136 H158 0.950 . S
C137 N133 1.332 . S
C137 C136 1.382 . S
C137 H139 0.952 . S
C138 N133 1.332 . S
C138 C134 1.382 . S
C138 H140 0.973 . S
H139 C137 0.952 . S
H140 C138 0.973 . S
H141 C130 0.952 . S
H142 C132 0.948 . S
C143 C109 1.395 . S
C143 C113 1.391 . S
C144 C106 1.389 . S
C144 C126 1.392 . S
C145 C116 1.392 . S
C145 C118 1.389 . S
C146 C121 1.395 . S
C146 C123 1.391 . S
H147 C107 0.951 . S
H148 C108 0.950 . S
H149 C114 0.949 . S
H150 C115 0.950 . S
H151 C119 0.951 . S
H152 C120 0.950 . S
H153 C124 0.949 . S
H154 C125 0.957 . S
H155 C129 0.950 . S
H156 C131 0.950 . S
H157 C134 0.950 . S
H158 C136 0.950 . S
C159 C160 1.443 . S
C159 N163 1.376 . S
C159 C197 1.389 . S
C160 C159 1.443 . S
C160 C161 1.340 . S
C160 H200 0.951 . S
C161 C160 1.340 . S
C161 C162 1.439 . S
C161 H201 0.950 . S
C162 C161 1.439 . S
C162 N163 1.374 . S
C162 C196 1.395 . S
N163 C159 1.376 . S
N163 C162 1.374 . S
N163 Co164 2.008 1_655 S
Co164 N163 2.008 1_455 S
Co164 N165 1.995 1_455 S
Co164 N170 2.008 . S
Co164 N175 1.995 . S
Co164 N180 2.282 . S
Co164 N186 2.282 1_455 S
N165 Co164 1.995 1_655 S
N165 C166 1.376 . S
N165 C169 1.383 1_655 S
C166 N165 1.376 . S
C166 C167 1.446 . S
C166 C196 1.391 . S
C167 C166 1.446 . S
C167 C168 1.339 . S
C167 H202 0.949 . S
C168 C167 1.339 . S
C168 C169 1.439 1_655 S
C168 H203 0.950 1_655 S
C169 N165 1.383 1_455 S
C169 C168 1.439 1_455 S
C169 C198 1.392 . S
N170 Co164 2.008 . S
N170 C171 1.376 . S
N170 C174 1.374 . S
C171 N170 1.376 . S
C171 C172 1.443 . S
C171 C198 1.389 . S
C172 C171 1.443 . S
C172 C173 1.340 . S
C172 H204 0.951 . S
C173 C172 1.340 . S
C173 C174 1.439 . S
C173 H205 0.950 . S
C174 N170 1.374 . S
C174 C173 1.439 . S
C174 C199 1.395 . S
N175 Co164 1.995 . S
N175 C176 1.376 . S
N175 C179 1.383 1_455 S
C176 N175 1.376 . S
C176 C177 1.446 . S
C176 C199 1.391 . S
C177 C176 1.446 . S
C177 C178 1.339 . S
C177 H206 0.949 . S
C178 C177 1.339 . S
C178 C179 1.439 1_455 S
C178 H207 0.950 . S
C179 N175 1.383 1_655 S
C179 C178 1.439 1_655 S
C179 C197 1.392 . S
N180 Co164 2.282 . S
N180 C183 1.332 . S
N180 C185 1.332 . S
C181 C182 1.386 . S
C181 C184 1.388 . S
C182 C181 1.386 . S
C182 C183 1.382 . S
C182 H208 0.950 . S
C183 N180 1.332 . S
C183 C182 1.382 . S
C183 H194 0.952 . S
C184 C181 1.388 . S
C184 C185 1.382 . S
C184 H209 0.950 . S
C185 N180 1.332 . S
C185 C184 1.382 . S
C185 H195 0.948 1_455 S
N186 Co164 2.282 1_655 S
N186 C190 1.332 . S
N186 C191 1.332 . S
C187 C188 1.388 . S
C187 C191 1.382 . S
C187 H210 0.950 . S
C188 C187 1.388 . S
C188 C189 1.386 . S
C189 C188 1.386 . S
C189 C190 1.382 . S
C189 H211 0.950 . S
C190 N186 1.332 . S
C190 C189 1.382 . S
C190 H192 0.952 . S
C191 N186 1.332 . S
C191 C187 1.382 . S
C191 H193 0.948 1_655 S
H192 C190 0.952 . S
H193 C191 0.948 1_455 S
H194 C183 0.952 . S
H195 C185 0.948 1_655 S
C196 C162 1.395 . S
C196 C166 1.391 . S
C197 C159 1.389 . S
C197 C179 1.392 . S
C198 C169 1.392 . S
C198 C171 1.389 . S
C199 C174 1.395 . S
C199 C176 1.391 . S
H200 C160 0.951 . S
H201 C161 0.950 . S
H202 C167 0.949 . S
H203 C168 0.950 1_455 S
H204 C172 0.951 . S
H205 C173 0.950 . S
H206 C177 0.949 . S
H207 C178 0.950 . S
H208 C182 0.950 . S
H209 C184 0.950 . S
H210 C187 0.950 . S
H211 C189 0.950 . S
C212 C213 1.443 1_565 S
C212 N216 1.376 1_565 S
C212 C250 1.389 . S
C213 C212 1.443 1_545 S
C213 C214 1.340 . S
C213 H253 0.951 1_545 S
C214 C213 1.340 . S
C214 C215 1.439 . S
C214 H254 0.950 . S
C215 C214 1.439 . S
C215 N216 1.374 . S
C215 C249 1.395 . S
N216 C212 1.376 1_545 S
N216 C215 1.374 . S
N216 Co217 2.023 . S
Co217 N216 2.023 . S
Co217 N218 2.010 . S
Co217 N223 1.994 1_544 S
Co217 N228 1.980 1_545 S
Co217 N233 2.306 1_554 S
Co217 N239 2.259 1_545 S
N218 Co217 2.010 . S
N218 C219 1.376 . S
N218 C222 1.383 1_554 S
C219 N218 1.376 . S
C219 C220 1.446 . S
C219 C249 1.391 . S
C220 C219 1.446 . S
C220 C221 1.339 1_554 S
C220 H255 0.949 . S
C221 C220 1.339 1_556 S
C221 C222 1.439 . S
C221 H256 0.950 . S
C222 N218 1.383 1_556 S
C222 C221 1.439 . S
C222 C251 1.392 . S
N223 Co217 1.994 1_566 S
N223 C224 1.376 1_565 S
N223 C227 1.374 . S
C224 N223 1.376 1_545 S
C224 C225 1.443 1_545 S
C224 C251 1.389 . S
C225 C224 1.443 1_565 S
C225 C226 1.340 . S
C225 H257 0.951 1_565 S
C226 C225 1.340 . S
C226 C227 1.439 . S
C226 H258 0.950 . S
C227 N223 1.374 . S
C227 C226 1.439 . S
C227 C252 1.395 . S
N228 Co217 1.980 1_565 S
N228 C229 1.376 1_554 S
N228 C232 1.383 . S
C229 N228 1.376 1_556 S
C229 C230 1.446 1_556 S
C229 C252 1.391 . S
C230 C229 1.446 1_554 S
C230 C231 1.339 . S
C230 H259 0.949 1_554 S
C231 C230 1.339 . S
C231 C232 1.439 . S
C231 H260 0.950 . S
C232 N228 1.383 . S
C232 C231 1.439 . S
C232 C250 1.392 . S
N233 Co217 2.306 1_556 S
N233 C236 1.332 . S
N233 C238 1.332 . S
C234 C235 1.386 . S
C234 C237 1.388 . S
C235 C234 1.386 . S
C235 C236 1.382 . S
C235 H261 0.950 . S
C236 N233 1.332 . S
C236 C235 1.382 . S
C236 H247 0.952 1_545 S
C237 C234 1.388 . S
C237 C238 1.382 . S
C237 H262 0.950 . S
C238 N233 1.332 . S
C238 C237 1.382 . S
C238 H248 0.948 . S
N239 Co217 2.259 1_565 S
N239 C243 1.332 . S
N239 C244 1.332 . S
C240 C241 1.388 . S
C240 C244 1.382 . S
C240 H263 0.950 . S
C241 C240 1.388 . S
C241 C242 1.386 . S
C242 C241 1.386 . S
C242 C243 1.382 . S
C242 H264 0.950 . S
C243 N239 1.332 . S
C243 C242 1.382 . S
C243 H245 0.952 1_565 S
C244 N239 1.332 . S
C244 C240 1.382 . S
C244 H246 0.948 . S
H245 C243 0.952 1_545 S
H246 C244 0.948 . S
H247 C236 0.952 1_565 S
H248 C238 0.948 . S
C249 C215 1.395 . S
C249 C219 1.391 . S
C250 C212 1.389 . S
C250 C232 1.392 . S
C251 C222 1.392 . S
C251 C224 1.389 . S
C252 C227 1.395 . S
C252 C229 1.391 . S
H253 C213 0.951 1_565 S
H254 C214 0.950 . S
H255 C220 0.949 . S
H256 C221 0.950 . S
H257 C225 0.951 1_545 S
H258 C226 0.950 . S
H259 C230 0.949 1_556 S
H260 C231 0.950 . S
H261 C235 0.950 . S
H262 C237 0.950 . S
H263 C240 0.950 . S
H264 C242 0.950 . S
C265 C266 1.443 . S
C265 N269 1.376 . S
C265 C303 1.389 . S
C266 C265 1.443 . S
C266 C267 1.340 . S
C266 H306 0.951 . S
C267 C266 1.340 . S
C267 C268 1.439 . S
C267 H307 0.950 . S
C268 C267 1.439 . S
C268 N269 1.374 . S
C268 C302 1.395 . S
N269 C265 1.376 . S
N269 C268 1.374 . S
N269 Co270 2.008 . S
Co270 N269 2.008 . S
Co270 N271 1.995 . S
Co270 N276 2.008 . S
Co270 N281 1.995 . S
Co270 N286 2.282 . S
Co270 N292 2.282 . S
N271 Co270 1.995 . S
N271 C272 1.376 . S
N271 C275 1.383 . S
C272 N271 1.376 . S
C272 C273 1.446 . S
C272 C302 1.391 . S
C273 C272 1.446 . S
C273 C274 1.339 . S
C273 H308 0.949 . S
C274 C273 1.339 . S
C274 C275 1.439 . S
C274 H309 0.950 . S
C275 N271 1.383 . S
C275 C274 1.439 . S
C275 C304 1.392 . S
N276 Co270 2.008 . S
N276 C277 1.376 . S
N276 C280 1.374 . S
C277 N276 1.376 . S
C277 C278 1.443 . S
C277 C304 1.389 . S
C278 C277 1.443 . S
C278 C279 1.340 . S
C278 H310 0.951 . S
C279 C278 1.340 . S
C279 C280 1.439 . S
C279 H311 0.950 . S
C280 N276 1.374 . S
C280 C279 1.439 . S
C280 C305 1.395 . S
N281 Co270 1.995 . S
N281 C282 1.376 . S
N281 C285 1.383 . S
C282 N281 1.376 . S
C282 C283 1.446 . S
C282 C305 1.391 . S
C283 C282 1.446 . S
C283 C284 1.339 . S
C283 H312 0.949 . S
C284 C283 1.339 . S
C284 C285 1.439 . S
C284 H313 0.950 . S
C285 N281 1.383 . S
C285 C284 1.439 . S
C285 C303 1.392 . S
N286 Co270 2.282 . S
N286 C289 1.332 . S
N286 C291 1.332 . S
C287 C288 1.386 . S
C287 C290 1.388 . S
C288 C287 1.386 . S
C288 C289 1.382 . S
C288 H314 0.950 . S
C289 N286 1.332 . S
C289 C288 1.382 . S
C289 H300 0.952 . S
C290 C287 1.388 . S
C290 C291 1.382 . S
C290 H315 0.950 . S
C291 N286 1.332 . S
C291 C290 1.382 . S
C291 H301 0.948 . S
N292 Co270 2.282 . S
N292 C296 1.332 . S
N292 C297 1.332 . S
C293 C294 1.388 . S
C293 C297 1.382 . S
C293 H316 0.950 . S
C294 C293 1.388 . S
C294 C295 1.386 . S
C295 C294 1.386 . S
C295 C296 1.382 . S
C295 H317 0.950 . S
C296 N292 1.332 . S
C296 C295 1.382 . S
C296 H298 0.952 . S
C297 N292 1.332 . S
C297 C293 1.382 . S
C297 H299 0.948 . S
H298 C296 0.952 . S
H299 C297 0.948 . S
H300 C289 0.952 . S
H301 C291 0.948 . S
C302 C268 1.395 . S
C302 C272 1.391 . S
C303 C265 1.389 . S
C303 C285 1.392 . S
C304 C275 1.392 . S
C304 C277 1.389 . S
C305 C280 1.395 . S
C305 C282 1.391 . S
H306 C266 0.951 . S
H307 C267 0.950 . S
H308 C273 0.949 . S
H309 C274 0.950 . S
H310 C278 0.951 . S
H311 C279 0.950 . S
H312 C283 0.949 . S
H313 C284 0.950 . S
H314 C288 0.950 . S
H315 C290 0.950 . S
H316 C293 0.950 . S
H317 C295 0.950 . S
Mg318 O325 2.141 . S
Mg318 O326 2.048 . S
Mg318 O327 2.048 . S
Mg318 O330 2.141 . S
C319 O320 1.313 . S
C319 O326 1.195 . S
O320 C319 1.313 . S
C321 O322 1.245 . S
C321 O330 1.289 . S
O322 C321 1.245 . S
C323 O324 1.245 . S
C323 O325 1.289 . S
O324 C323 1.245 . S
O325 Mg318 2.141 . S
O325 C323 1.289 . S
O326 Mg318 2.048 . S
O326 C319 1.195 . S
O327 Mg318 2.048 . S
O327 C328 1.195 . S
C328 O327 1.195 . S
C328 O329 1.313 . S
O329 C328 1.313 . S
O330 Mg318 2.141 . S
O330 C321 1.289 . S
Mg331 O338 2.141 . S
Mg331 O339 2.048 . S
Mg331 O340 2.048 . S
Mg331 O343 2.141 . S
C332 O333 1.313 . S
C332 O339 1.195 . S
O333 C332 1.313 . S
C334 O335 1.245 . S
C334 O343 1.289 . S
O335 C334 1.245 . S
C336 O337 1.245 . S
C336 O338 1.289 . S
O337 C336 1.245 . S
O338 Mg331 2.141 . S
O338 C336 1.289 . S
O339 Mg331 2.048 . S
O339 C332 1.195 . S
O340 Mg331 2.048 . S
O340 C341 1.195 . S
C341 O340 1.195 . S
C341 O342 1.313 . S
O342 C341 1.313 . S
O343 Mg331 2.141 . S
O343 C334 1.289 . S
Mg344 O351 2.141 . S
Mg344 O352 2.048 . S
Mg344 O353 2.048 . S
Mg344 O356 2.141 . S
C345 O346 1.313 . S
C345 O352 1.195 . S
O346 C345 1.313 . S
C347 O348 1.245 . S
C347 O356 1.289 . S
O348 C347 1.245 . S
C349 O350 1.245 . S
C349 O351 1.289 . S
O350 C349 1.245 . S
O351 Mg344 2.141 . S
O351 C349 1.289 . S
O352 Mg344 2.048 . S
O352 C345 1.195 . S
O353 Mg344 2.048 . S
O353 C354 1.195 . S
C354 O353 1.195 . S
C354 O355 1.313 . S
O355 C354 1.313 . S
O356 Mg344 2.141 . S
O356 C347 1.289 . S
Mg357 O364 2.141 . S
Mg357 O365 2.048 . S
Mg357 O366 2.048 . S
Mg357 O369 2.141 . S
C358 O359 1.313 . S
C358 O365 1.195 . S
O359 C358 1.313 . S
C360 O361 1.245 . S
C360 O369 1.289 . S
O361 C360 1.245 . S
C362 O363 1.245 . S
C362 O364 1.289 . S
O363 C362 1.245 . S
O364 Mg357 2.141 . S
O364 C362 1.289 . S
O365 Mg357 2.048 . S
O365 C358 1.195 . S
O366 Mg357 2.048 . S
O366 C367 1.195 . S
C367 O366 1.195 . S
C367 O368 1.313 . S
O368 C367 1.313 . S
O369 Mg357 2.141 . S
O369 C360 1.289 . S
Mg370 O377 2.141 . S
Mg370 O378 2.048 . S
Mg370 O379 2.048 . S
Mg370 O382 2.141 . S
C371 O372 1.313 . S
C371 O378 1.195 . S
O372 C371 1.313 . S
C373 O374 1.245 . S
C373 O382 1.289 . S
O374 C373 1.245 . S
C375 O376 1.245 . S
C375 O377 1.289 . S
O376 C375 1.245 . S
O377 Mg370 2.141 . S
O377 C375 1.289 . S
O378 Mg370 2.048 . S
O378 C371 1.195 . S
O379 Mg370 2.048 . S
O379 C380 1.195 . S
C380 O379 1.195 . S
C380 O381 1.313 . S
O381 C380 1.313 . S
O382 Mg370 2.141 . S
O382 C373 1.289 . S
Mg383 O390 2.141 . S
Mg383 O391 2.048 . S
Mg383 O392 2.048 . S
Mg383 O395 2.141 . S
C384 O385 1.313 . S
C384 O391 1.195 . S
O385 C384 1.313 . S
C386 O387 1.245 . S
C386 O395 1.289 . S
O387 C386 1.245 . S
C388 O389 1.245 . S
C388 O390 1.289 . S
O389 C388 1.245 . S
O390 Mg383 2.141 . S
O390 C388 1.289 . S
O391 Mg383 2.048 . S
O391 C384 1.195 . S
O392 Mg383 2.048 . S
O392 C393 1.195 . S
C393 O392 1.195 . S
C393 O394 1.313 . S
O394 C393 1.313 . S
O395 Mg383 2.141 . S
O395 C386 1.289 . S
H396 C402 0.930 . S
H397 C406 0.930 . S
H398 C411 0.929 . S
H399 C409 0.929 . S
H400 C404 0.929 . S
H401 C410 0.929 . S
C402 H396 0.930 . S
C402 C403 1.367 . S
C402 C410 1.378 . S
C403 C402 1.367 . S
C403 C411 1.433 . S
C404 H400 0.929 . S
C404 C406 1.378 . S
C404 C408 1.350 . S
C405 C408 1.463 . S
C405 C410 1.350 . S
C405 N413 1.427 . S
C406 H397 0.930 . S
C406 C404 1.378 . S
C406 C407 1.367 . S
C407 C406 1.367 . S
C407 C409 1.433 . S
C408 C404 1.350 . S
C408 C405 1.463 . S
C408 N412 1.427 . S
C409 H399 0.929 . S
C409 C407 1.433 . S
C409 N412 1.384 . S
C410 H401 0.929 . S
C410 C402 1.378 . S
C410 C405 1.350 . S
C411 H398 0.929 . S
C411 C403 1.433 . S
C411 N413 1.384 . S
N412 C408 1.427 . S
N412 C409 1.384 . S
N413 C405 1.427 . S
N413 C411 1.384 . S
H414 C420 0.930 . S
H415 C424 0.930 . S
H416 C429 0.929 . S
H417 C427 0.929 . S
H418 C422 0.929 . S
H419 C428 0.929 . S
C420 H414 0.930 . S
C420 C421 1.367 . S
C420 C428 1.378 . S
C421 C420 1.367 . S
C421 C429 1.433 . S
C422 H418 0.929 . S
C422 C424 1.378 . S
C422 C426 1.350 . S
C423 C426 1.463 . S
C423 C428 1.350 . S
C423 N431 1.427 . S
C424 H415 0.930 . S
C424 C422 1.378 . S
C424 C425 1.367 . S
C425 C424 1.367 . S
C425 C427 1.433 . S
C426 C422 1.350 . S
C426 C423 1.463 . S
C426 N430 1.427 . S
C427 H417 0.929 . S
C427 C425 1.433 . S
C427 N430 1.384 . S
C428 H419 0.929 . S
C428 C420 1.378 . S
C428 C423 1.350 . S
C429 H416 0.929 . S
C429 C421 1.433 . S
C429 N431 1.384 . S
N430 C426 1.427 . S
N430 C427 1.384 . S
N431 C423 1.427 . S
N431 C429 1.384 . S
H432 C438 0.930 . S
H433 C442 0.930 . S
H434 C447 0.929 . S
H435 C445 0.929 . S
H436 C440 0.929 . S
H437 C446 0.929 . S
C438 H432 0.930 . S
C438 C439 1.367 . S
C438 C446 1.378 . S
C439 C438 1.367 . S
C439 C447 1.433 . S
C440 H436 0.929 . S
C440 C442 1.378 . S
C440 C444 1.350 . S
C441 C444 1.463 . S
C441 C446 1.350 . S
C441 N449 1.427 . S
C442 H433 0.930 . S
C442 C440 1.378 . S
C442 C443 1.367 . S
C443 C442 1.367 . S
C443 C445 1.433 . S
C444 C440 1.350 . S
C444 C441 1.463 . S
C444 N448 1.427 . S
C445 H435 0.929 . S
C445 C443 1.433 . S
C445 N448 1.384 . S
C446 H437 0.929 . S
C446 C438 1.378 . S
C446 C441 1.350 . S
C447 H434 0.929 . S
C447 C439 1.433 . S
C447 N449 1.384 . S
N448 C444 1.427 . S
N448 C445 1.384 . S
N449 C441 1.427 . S
N449 C447 1.384 . S
H450 C456 0.930 . S
H451 C460 0.930 . S
H452 C465 0.929 . S
H453 C463 0.929 . S
H454 C458 0.929 . S
H455 C464 0.929 . S
C456 H450 0.930 . S
C456 C457 1.367 . S
C456 C464 1.378 . S
C457 C456 1.367 . S
C457 C465 1.433 . S
C458 H454 0.929 . S
C458 C460 1.378 . S
C458 C462 1.350 . S
C459 C462 1.463 . S
C459 C464 1.350 . S
C459 N467 1.427 . S
C460 H451 0.930 . S
C460 C458 1.378 . S
C460 C461 1.367 . S
C461 C460 1.367 . S
C461 C463 1.433 . S
C462 C458 1.350 . S
C462 C459 1.463 . S
C462 N466 1.427 . S
C463 H453 0.929 . S
C463 C461 1.433 . S
C463 N466 1.384 . S
C464 H455 0.929 . S
C464 C456 1.378 . S
C464 C459 1.350 . S
C465 H452 0.929 . S
C465 C457 1.433 . S
C465 N467 1.384 . S
N466 C462 1.427 . S
N466 C463 1.384 . S
N467 C459 1.427 . S
N467 C465 1.384 . S
H468 C474 0.930 . S
H469 C478 0.930 . S
H470 C483 0.929 . S
H471 C481 0.929 . S
H472 C476 0.929 . S
H473 C482 0.929 . S
C474 H468 0.930 . S
C474 C475 1.367 . S
C474 C482 1.378 . S
C475 C474 1.367 . S
C475 C483 1.433 . S
C476 H472 0.929 . S
C476 C478 1.378 . S
C476 C480 1.350 . S
C477 C480 1.463 . S
C477 C482 1.350 . S
C477 N485 1.427 . S
C478 H469 0.930 . S
C478 C476 1.378 . S
C478 C479 1.367 . S
C479 C478 1.367 . S
C479 C481 1.433 . S
C480 C476 1.350 . S
C480 C477 1.463 . S
C480 N484 1.427 . S
C481 H471 0.929 . S
C481 C479 1.433 . S
C481 N484 1.384 . S
C482 H473 0.929 . S
C482 C474 1.378 . S
C482 C477 1.350 . S
C483 H470 0.929 . S
C483 C475 1.433 . S
C483 N485 1.384 . S
N484 C480 1.427 . S
N484 C481 1.384 . S
N485 C477 1.427 . S
N485 C483 1.384 . S
H486 C492 0.930 . S
H487 C496 0.930 . S
H488 C501 0.929 . S
H489 C499 0.929 . S
H490 C494 0.929 . S
H491 C500 0.929 . S
C492 H486 0.930 . S
C492 C493 1.367 . S
C492 C500 1.378 . S
C493 C492 1.367 . S
C493 C501 1.433 . S
C494 H490 0.929 . S
C494 C496 1.378 . S
C494 C498 1.350 . S
C495 C498 1.463 . S
C495 C500 1.350 . S
C495 N503 1.427 . S
C496 H487 0.930 . S
C496 C494 1.378 . S
C496 C497 1.367 . S
C497 C496 1.367 . S
C497 C499 1.433 . S
C498 C494 1.350 . S
C498 C495 1.463 . S
C498 N502 1.427 . S
C499 H489 0.929 . S
C499 C497 1.433 . S
C499 N502 1.384 . S
C500 H491 0.929 . S
C500 C492 1.378 . S
C500 C495 1.350 . S
C501 H488 0.929 . S
C501 C493 1.433 . S
C501 N503 1.384 . S
N502 C498 1.427 . S
N502 C499 1.384 . S
N503 C495 1.427 . S
N503 C501 1.384 . S
H504 C510 0.930 . S
H505 C514 0.930 . S
H506 C519 0.929 . S
H507 C517 0.929 . S
H508 C512 0.929 . S
H509 C518 0.929 . S
C510 H504 0.930 . S
C510 C511 1.367 . S
C510 C518 1.378 . S
C511 C510 1.367 . S
C511 C519 1.433 . S
C512 H508 0.929 . S
C512 C514 1.378 . S
C512 C516 1.350 . S
C513 C516 1.463 . S
C513 C518 1.350 . S
C513 N521 1.427 . S
C514 H505 0.930 . S
C514 C512 1.378 . S
C514 C515 1.367 . S
C515 C514 1.367 . S
C515 C517 1.433 . S
C516 C512 1.350 . S
C516 C513 1.463 . S
C516 N520 1.427 . S
C517 H507 0.929 . S
C517 C515 1.433 . S
C517 N520 1.384 . S
C518 H509 0.929 . S
C518 C510 1.378 . S
C518 C513 1.350 . S
C519 H506 0.929 . S
C519 C511 1.433 . S
C519 N521 1.384 . S
N520 C516 1.427 . S
N520 C517 1.384 . S
N521 C513 1.427 . S
N521 C519 1.384 . S
H522 C528 0.930 . S
H523 C532 0.930 . S
H524 C537 0.929 . S
H525 C535 0.929 . S
H526 C530 0.929 . S
H527 C536 0.929 . S
C528 H522 0.930 . S
C528 C529 1.367 . S
C528 C536 1.378 . S
C529 C528 1.367 . S
C529 C537 1.433 . S
C530 H526 0.929 . S
C530 C532 1.378 . S
C530 C534 1.350 . S
C531 C534 1.463 . S
C531 C536 1.350 . S
C531 N539 1.427 . S
C532 H523 0.930 . S
C532 C530 1.378 . S
C532 C533 1.367 . S
C533 C532 1.367 . S
C533 C535 1.433 . S
C534 C530 1.350 . S
C534 C531 1.463 . S
C534 N538 1.427 . S
C535 H525 0.929 . S
C535 C533 1.433 . S
C535 N538 1.384 . S
C536 H527 0.929 . S
C536 C528 1.378 . S
C536 C531 1.350 . S
C537 H524 0.929 . S
C537 C529 1.433 . S
C537 N539 1.384 . S
N538 C534 1.427 . S
N538 C535 1.384 . S
N539 C531 1.427 . S
N539 C537 1.384 . S
H540 C546 0.930 . S
H541 C550 0.930 . S
H542 C555 0.929 . S
H543 C553 0.929 . S
H544 C548 0.929 . S
H545 C554 0.929 . S
C546 H540 0.930 . S
C546 C547 1.367 . S
C546 C554 1.378 . S
C547 C546 1.367 . S
C547 C555 1.433 . S
C548 H544 0.929 . S
C548 C550 1.378 . S
C548 C552 1.350 . S
C549 C552 1.463 . S
C549 C554 1.350 . S
C549 N557 1.427 . S
C550 H541 0.930 . S
C550 C548 1.378 . S
C550 C551 1.367 . S
C551 C550 1.367 . S
C551 C553 1.433 . S
C552 C548 1.350 . S
C552 C549 1.463 . S
C552 N556 1.427 . S
C553 H543 0.929 . S
C553 C551 1.433 . S
C553 N556 1.384 . S
C554 H545 0.929 . S
C554 C546 1.378 . S
C554 C549 1.350 . S
C555 H542 0.929 . S
C555 C547 1.433 . S
C555 N557 1.384 . S
N556 C552 1.427 . S
N556 C553 1.384 . S
N557 C549 1.427 . S
N557 C555 1.384 . S
H558 C564 0.930 . S
H559 C568 0.930 . S
H560 C573 0.929 . S
H561 C571 0.929 . S
H562 C566 0.929 . S
H563 C572 0.929 . S
C564 H558 0.930 . S
C564 C565 1.367 . S
C564 C572 1.378 . S
C565 C564 1.367 . S
C565 C573 1.433 . S
C566 H562 0.929 . S
C566 C568 1.378 . S
C566 C570 1.350 . S
C567 C570 1.463 . S
C567 C572 1.350 . S
C567 N575 1.427 . S
C568 H559 0.930 . S
C568 C566 1.378 . S
C568 C569 1.367 . S
C569 C568 1.367 . S
C569 C571 1.433 . S
C570 C566 1.350 . S
C570 C567 1.463 . S
C570 N574 1.427 . S
C571 H561 0.929 . S
C571 C569 1.433 . S
C571 N574 1.384 . S
C572 H563 0.929 . S
C572 C564 1.378 . S
C572 C567 1.350 . S
C573 H560 0.929 . S
C573 C565 1.433 . S
C573 N575 1.384 . S
N574 C570 1.427 . S
N574 C571 1.384 . S
N575 C567 1.427 . S
N575 C573 1.384 . S
H576 C582 0.930 . S
H577 C586 0.930 . S
H578 C591 0.929 . S
H579 C589 0.929 . S
H580 C584 0.929 . S
H581 C590 0.929 . S
C582 H576 0.930 . S
C582 C583 1.367 . S
C582 C590 1.378 . S
C583 C582 1.367 . S
C583 C591 1.433 . S
C584 H580 0.929 . S
C584 C586 1.378 . S
C584 C588 1.350 . S
C585 C588 1.463 . S
C585 C590 1.350 . S
C585 N593 1.427 . S
C586 H577 0.930 . S
C586 C584 1.378 . S
C586 C587 1.367 . S
C587 C586 1.367 . S
C587 C589 1.433 . S
C588 C584 1.350 . S
C588 C585 1.463 . S
C588 N592 1.427 . S
C589 H579 0.929 . S
C589 C587 1.433 . S
C589 N592 1.384 . S
C590 H581 0.929 . S
C590 C582 1.378 . S
C590 C585 1.350 . S
C591 H578 0.929 . S
C591 C583 1.433 . S
C591 N593 1.384 . S
N592 C588 1.427 . S
N592 C589 1.384 . S
N593 C585 1.427 . S
N593 C591 1.384 . S
H594 C600 0.930 . S
H595 C604 0.930 . S
H596 C609 0.929 . S
H597 C607 0.929 . S
H598 C602 0.929 . S
H599 C608 0.929 . S
C600 H594 0.930 . S
C600 C601 1.367 . S
C600 C608 1.378 . S
C601 C600 1.367 . S
C601 C609 1.433 . S
C602 H598 0.929 . S
C602 C604 1.378 . S
C602 C606 1.350 . S
C603 C606 1.463 . S
C603 C608 1.350 . S
C603 N611 1.427 . S
C604 H595 0.930 . S
C604 C602 1.378 . S
C604 C605 1.367 . S
C605 C604 1.367 . S
C605 C607 1.433 . S
C606 C602 1.350 . S
C606 C603 1.463 . S
C606 N610 1.427 . S
C607 H597 0.929 . S
C607 C605 1.433 . S
C607 N610 1.384 . S
C608 H599 0.929 . S
C608 C600 1.378 . S
C608 C603 1.350 . S
C609 H596 0.929 . S
C609 C601 1.433 . S
C609 N611 1.384 . S
N610 C606 1.427 . S
N610 C607 1.384 . S
N611 C603 1.427 . S
N611 C609 1.384 . S
H612 C618 0.930 . S
H613 C622 0.930 . S
H614 C627 0.929 . S
H615 C625 0.929 . S
H616 C620 0.929 . S
H617 C626 0.929 . S
C618 H612 0.930 . S
C618 C619 1.367 . S
C618 C626 1.378 . S
C619 C618 1.367 . S
C619 C627 1.433 . S
C620 H616 0.929 . S
C620 C622 1.378 . S
C620 C624 1.350 . S
C621 C624 1.463 . S
C621 C626 1.350 . S
C621 N629 1.427 . S
C622 H613 0.930 . S
C622 C620 1.378 . S
C622 C623 1.367 . S
C623 C622 1.367 . S
C623 C625 1.433 . S
C624 C620 1.350 . S
C624 C621 1.463 . S
C624 N628 1.427 . S
C625 H615 0.929 . S
C625 C623 1.433 . S
C625 N628 1.384 . S
C626 H617 0.929 . S
C626 C618 1.378 . S
C626 C621 1.350 . S
C627 H614 0.929 . S
C627 C619 1.433 . S
C627 N629 1.384 . S
N628 C624 1.427 . S
N628 C625 1.384 . S
N629 C621 1.427 . S
N629 C627 1.384 . S
H630 C636 0.930 . S
H631 C640 0.930 . S
H632 C645 0.929 . S
H633 C643 0.929 . S
H634 C638 0.929 . S
H635 C644 0.929 . S
C636 H630 0.930 . S
C636 C637 1.367 . S
C636 C644 1.378 . S
C637 C636 1.367 . S
C637 C645 1.433 . S
C638 H634 0.929 . S
C638 C640 1.378 . S
C638 C642 1.350 . S
C639 C642 1.463 . S
C639 C644 1.350 . S
C639 N647 1.427 . S
C640 H631 0.930 . S
C640 C638 1.378 . S
C640 C641 1.367 . S
C641 C640 1.367 . S
C641 C643 1.433 . S
C642 C638 1.350 . S
C642 C639 1.463 . S
C642 N646 1.427 . S
C643 H633 0.929 . S
C643 C641 1.433 . S
C643 N646 1.384 . S
C644 H635 0.929 . S
C644 C636 1.378 . S
C644 C639 1.350 . S
C645 H632 0.929 . S
C645 C637 1.433 . S
C645 N647 1.384 . S
N646 C642 1.427 . S
N646 C643 1.384 . S
N647 C639 1.427 . S
N647 C645 1.384 . S
H648 C654 0.930 . S
H649 C658 0.930 . S
H650 C663 0.929 . S
H651 C661 0.929 . S
H652 C656 0.929 . S
H653 C662 0.929 . S
C654 H648 0.930 . S
C654 C655 1.367 . S
C654 C662 1.378 . S
C655 C654 1.367 . S
C655 C663 1.433 . S
C656 H652 0.929 . S
C656 C658 1.378 . S
C656 C660 1.350 . S
C657 C660 1.463 . S
C657 C662 1.350 . S
C657 N665 1.427 . S
C658 H649 0.930 . S
C658 C656 1.378 . S
C658 C659 1.367 . S
C659 C658 1.367 . S
C659 C661 1.433 . S
C660 C656 1.350 . S
C660 C657 1.463 . S
C660 N664 1.427 . S
C661 H651 0.929 . S
C661 C659 1.433 . S
C661 N664 1.384 . S
C662 H653 0.929 . S
C662 C654 1.378 . S
C662 C657 1.350 . S
C663 H650 0.929 . S
C663 C655 1.433 . S
C663 N665 1.384 . S
N664 C660 1.427 . S
N664 C661 1.384 . S
N665 C657 1.427 . S
N665 C663 1.384 . S
H666 C672 0.930 . S
H667 C676 0.930 . S
H668 C681 0.929 . S
H669 C679 0.929 . S
H670 C674 0.929 . S
H671 C680 0.929 . S
C672 H666 0.930 . S
C672 C673 1.367 . S
C672 C680 1.378 . S
C673 C672 1.367 . S
C673 C681 1.433 . S
C674 H670 0.929 . S
C674 C676 1.378 . S
C674 C678 1.350 . S
C675 C678 1.463 . S
C675 C680 1.350 . S
C675 N683 1.427 . S
C676 H667 0.930 . S
C676 C674 1.378 . S
C676 C677 1.367 . S
C677 C676 1.367 . S
C677 C679 1.433 . S
C678 C674 1.350 . S
C678 C675 1.463 . S
C678 N682 1.427 . S
C679 H669 0.929 . S
C679 C677 1.433 . S
C679 N682 1.384 . S
C680 H671 0.929 . S
C680 C672 1.378 . S
C680 C675 1.350 . S
C681 H668 0.929 . S
C681 C673 1.433 . S
C681 N683 1.384 . S
N682 C678 1.427 . S
N682 C679 1.384 . S
N683 C675 1.427 . S
N683 C681 1.384 . S
H684 C690 0.930 . S
H685 C694 0.930 . S
H686 C699 0.929 . S
H687 C697 0.929 . S
H688 C692 0.929 . S
H689 C698 0.929 . S
C690 H684 0.930 . S
C690 C691 1.367 . S
C690 C698 1.378 . S
C691 C690 1.367 . S
C691 C699 1.433 . S
C692 H688 0.929 . S
C692 C694 1.378 . S
C692 C696 1.350 . S
C693 C696 1.463 . S
C693 C698 1.350 . S
C693 N701 1.427 . S
C694 H685 0.930 . S
C694 C692 1.378 . S
C694 C695 1.367 . S
C695 C694 1.367 . S
C695 C697 1.433 . S
C696 C692 1.350 . S
C696 C693 1.463 . S
C696 N700 1.427 . S
C697 H687 0.929 . S
C697 C695 1.433 . S
C697 N700 1.384 . S
C698 H689 0.929 . S
C698 C690 1.378 . S
C698 C693 1.350 . S
C699 H686 0.929 . S
C699 C691 1.433 . S
C699 N701 1.384 . S
N700 C696 1.427 . S
N700 C697 1.384 . S
N701 C693 1.427 . S
N701 C699 1.384 . S
H702 C708 0.930 . S
H703 C712 0.930 . S
H704 C717 0.929 . S
H705 C715 0.929 . S
H706 C710 0.929 . S
H707 C716 0.929 . S
C708 H702 0.930 . S
C708 C709 1.367 . S
C708 C716 1.378 . S
C709 C708 1.367 . S
C709 C717 1.433 . S
C710 H706 0.929 . S
C710 C712 1.378 . S
C710 C714 1.350 . S
C711 C714 1.463 . S
C711 C716 1.350 . S
C711 N719 1.427 . S
C712 H703 0.930 . S
C712 C710 1.378 . S
C712 C713 1.367 . S
C713 C712 1.367 . S
C713 C715 1.433 . S
C714 C710 1.350 . S
C714 C711 1.463 . S
C714 N718 1.427 . S
C715 H705 0.929 . S
C715 C713 1.433 . S
C715 N718 1.384 . S
C716 H707 0.929 . S
C716 C708 1.378 . S
C716 C711 1.350 . S
C717 H704 0.929 . S
C717 C709 1.433 . S
C717 N719 1.384 . S
N718 C714 1.427 . S
N718 C715 1.384 . S
N719 C711 1.427 . S
N719 C717 1.384 . S
H720 C726 0.930 . S
H721 C730 0.930 . S
H722 C735 0.929 . S
H723 C733 0.929 . S
H724 C728 0.929 . S
H725 C734 0.929 . S
C726 H720 0.930 . S
C726 C727 1.367 . S
C726 C734 1.378 . S
C727 C726 1.367 . S
C727 C735 1.433 . S
C728 H724 0.929 . S
C728 C730 1.378 . S
C728 C732 1.350 . S
C729 C732 1.463 . S
C729 C734 1.350 . S
C729 N737 1.427 . S
C730 H721 0.930 . S
C730 C728 1.378 . S
C730 C731 1.367 . S
C731 C730 1.367 . S
C731 C733 1.433 . S
C732 C728 1.350 . S
C732 C729 1.463 . S
C732 N736 1.427 . S
C733 H723 0.929 . S
C733 C731 1.433 . S
C733 N736 1.384 . S
C734 H725 0.929 . S
C734 C726 1.378 . S
C734 C729 1.350 . S
C735 H722 0.929 . S
C735 C727 1.433 . S
C735 N737 1.384 . S
N736 C732 1.427 . S
N736 C733 1.384 . S
N737 C729 1.427 . S
N737 C735 1.384 . S
H738 C744 0.930 . S
H739 C748 0.930 . S
H740 C753 0.929 . S
H741 C751 0.929 . S
H742 C746 0.929 . S
H743 C752 0.929 . S
C744 H738 0.930 . S
C744 C745 1.367 . S
C744 C752 1.378 . S
C745 C744 1.367 . S
C745 C753 1.433 . S
C746 H742 0.929 . S
C746 C748 1.378 . S
C746 C750 1.350 . S
C747 C750 1.463 . S
C747 C752 1.350 . S
C747 N755 1.427 . S
C748 H739 0.930 . S
C748 C746 1.378 . S
C748 C749 1.367 . S
C749 C748 1.367 . S
C749 C751 1.433 . S
C750 C746 1.350 . S
C750 C747 1.463 . S
C750 N754 1.427 . S
C751 H741 0.929 . S
C751 C749 1.433 . S
C751 N754 1.384 . S
C752 H743 0.929 . S
C752 C744 1.378 . S
C752 C747 1.350 . S
C753 H740 0.929 . S
C753 C745 1.433 . S
C753 N755 1.384 . S
N754 C750 1.427 . S
N754 C751 1.384 . S
N755 C747 1.427 . S
N755 C753 1.384 . S
H756 C762 0.930 . S
H757 C766 0.930 . S
H758 C771 0.929 . S
H759 C769 0.929 . S
H760 C764 0.929 . S
H761 C770 0.929 . S
C762 H756 0.930 . S
C762 C763 1.367 . S
C762 C770 1.378 . S
C763 C762 1.367 . S
C763 C771 1.433 . S
C764 H760 0.929 . S
C764 C766 1.378 . S
C764 C768 1.350 . S
C765 C768 1.463 . S
C765 C770 1.350 . S
C765 N773 1.427 . S
C766 H757 0.930 . S
C766 C764 1.378 . S
C766 C767 1.367 . S
C767 C766 1.367 . S
C767 C769 1.433 . S
C768 C764 1.350 . S
C768 C765 1.463 . S
C768 N772 1.427 . S
C769 H759 0.929 . S
C769 C767 1.433 . S
C769 N772 1.384 . S
C770 H761 0.929 . S
C770 C762 1.378 . S
C770 C765 1.350 . S
C771 H758 0.929 . S
C771 C763 1.433 . S
C771 N773 1.384 . S
N772 C768 1.427 . S
N772 C769 1.384 . S
N773 C765 1.427 . S
N773 C771 1.384 . S
H774 C780 0.930 . S
H775 C784 0.930 . S
H776 C789 0.929 . S
H777 C787 0.929 . S
H778 C782 0.929 . S
H779 C788 0.929 . S
C780 H774 0.930 . S
C780 C781 1.367 . S
C780 C788 1.378 . S
C781 C780 1.367 . S
C781 C789 1.433 . S
C782 H778 0.929 . S
C782 C784 1.378 . S
C782 C786 1.350 . S
C783 C786 1.463 . S
C783 C788 1.350 . S
C783 N791 1.427 . S
C784 H775 0.930 . S
C784 C782 1.378 . S
C784 C785 1.367 . S
C785 C784 1.367 . S
C785 C787 1.433 . S
C786 C782 1.350 . S
C786 C783 1.463 . S
C786 N790 1.427 . S
C787 H777 0.929 . S
C787 C785 1.433 . S
C787 N790 1.384 . S
C788 H779 0.929 . S
C788 C780 1.378 . S
C788 C783 1.350 . S
C789 H776 0.929 . S
C789 C781 1.433 . S
C789 N791 1.384 . S
N790 C786 1.427 . S
N790 C787 1.384 . S
N791 C783 1.427 . S
N791 C789 1.384 . S
H792 C798 0.930 . S
H793 C802 0.930 . S
H794 C807 0.929 . S
H795 C805 0.929 . S
H796 C800 0.929 . S
H797 C806 0.929 . S
C798 H792 0.930 . S
C798 C799 1.367 . S
C798 C806 1.378 . S
C799 C798 1.367 . S
C799 C807 1.433 . S
C800 H796 0.929 . S
C800 C802 1.378 . S
C800 C804 1.350 . S
C801 C804 1.463 . S
C801 C806 1.350 . S
C801 N809 1.427 . S
C802 H793 0.930 . S
C802 C800 1.378 . S
C802 C803 1.367 . S
C803 C802 1.367 . S
C803 C805 1.433 . S
C804 C800 1.350 . S
C804 C801 1.463 . S
C804 N808 1.427 . S
C805 H795 0.929 . S
C805 C803 1.433 . S
C805 N808 1.384 . S
C806 H797 0.929 . S
C806 C798 1.378 . S
C806 C801 1.350 . S
C807 H794 0.929 . S
C807 C799 1.433 . S
C807 N809 1.384 . S
N808 C804 1.427 . S
N808 C805 1.384 . S
N809 C801 1.427 . S
N809 C807 1.384 . S
H810 C816 0.930 . S
H811 C820 0.930 . S
H812 C825 0.929 . S
H813 C823 0.929 . S
H814 C818 0.929 . S
H815 C824 0.929 . S
C816 H810 0.930 . S
C816 C817 1.367 . S
C816 C824 1.378 . S
C817 C816 1.367 . S
C817 C825 1.433 . S
C818 H814 0.929 . S
C818 C820 1.378 . S
C818 C822 1.350 . S
C819 C822 1.463 . S
C819 C824 1.350 . S
C819 N827 1.427 . S
C820 H811 0.930 . S
C820 C818 1.378 . S
C820 C821 1.367 . S
C821 C820 1.367 . S
C821 C823 1.433 . S
C822 C818 1.350 . S
C822 C819 1.463 . S
C822 N826 1.427 . S
C823 H813 0.929 . S
C823 C821 1.433 . S
C823 N826 1.384 . S
C824 H815 0.929 . S
C824 C816 1.378 . S
C824 C819 1.350 . S
C825 H812 0.929 . S
C825 C817 1.433 . S
C825 N827 1.384 . S
N826 C822 1.427 . S
N826 C823 1.384 . S
N827 C819 1.427 . S
N827 C825 1.384 . S
C403 C39 1.727 . S
C407 C319 1.723 . S
C421 C91 1.748 . S
C425 C332 1.745 . S
C443 C354 1.522 . S
C439 C128 1.585 . S
C461 C367 1.505 . S
C457 C188 1.554 . S
C479 C380 1.621 . S
C475 C250 1.680 . S
C497 C393 1.631 . S
C493 C304 1.697 . S
C511 C75 1.584 . S
C515 C349 1.511 . S
C529 C144 1.709 . S
C533 C362 1.633 . S
C551 C375 1.602 . S
C547 C198 1.672 . S
C569 C388 1.446 . S
C565 C234 1.517 . S
C583 C294 1.538 . S
C587 C321 1.536 . S
C605 C334 1.569 . S
C601 C29 1.569 . S
C623 C360 1.642 . S
C619 C38 1.718 . S
C637 C92 1.743 . S
C641 C373 1.678 . S
C659 C386 1.517 . S
C655 C135 1.583 . S
C673 C181 1.550 . S
C677 C323 1.550 . S
C691 C251 1.676 . S
C695 C336 1.676 . S
C709 C303 1.688 . S
C713 C347 1.613 . S
C727 C82 1.592 . S
C731 C384 1.539 . S
C749 C328 1.713 . S
C745 C145 1.717 . S
C763 C197 1.681 . S
C767 C341 1.679 . S
C781 C241 1.526 . S
C785 C345 1.467 . S
C799 C287 1.544 . S
C803 C358 1.492 . S
C817 C22 1.573 . S
C821 C371 1.530 . S
