# Generated by pormake.
# Topology gar, (4,6)-cn, num edge types: 1
# Building blocks:
#     Node 0, Type 0, BuildingBlock: UXUYUI_clean_sbu_0, # of connection points: 4
#     Node 1, Type 0, BuildingBlock: UXUYUI_clean_sbu_0, # of connection points: 4
#     Node 2, Type 0, BuildingBlock: UXUYUI_clean_sbu_0, # of connection points: 4
#     Node 3, Type 0, BuildingBlock: UXUYUI_clean_sbu_0, # of connection points: 4
#     Node 4, Type 0, BuildingBlock: UXUYUI_clean_sbu_0, # of connection points: 4
#     Node 5, Type 0, BuildingBlock: UXUYUI_clean_sbu_0, # of connection points: 4
#     Node 6, Type 0, BuildingBlock: UXUYUI_clean_sbu_0, # of connection points: 4
#     Node 7, Type 0, BuildingBlock: UXUYUI_clean_sbu_0, # of connection points: 4
#     Node 8, Type 0, BuildingBlock: UXUYUI_clean_sbu_0, # of connection points: 4
#     Node 9, Type 0, BuildingBlock: UXUYUI_clean_sbu_0, # of connection points: 4
#     Node 10, Type 0, BuildingBlock: UXUYUI_clean_sbu_0, # of connection points: 4
#     Node 11, Type 0, BuildingBlock: UXUYUI_clean_sbu_0, # of connection points: 4
#     Node 12, Type 0, BuildingBlock: UXUYUI_clean_sbu_0, # of connection points: 4
#     Node 13, Type 0, BuildingBlock: UXUYUI_clean_sbu_0, # of connection points: 4
#     Node 14, Type 0, BuildingBlock: UXUYUI_clean_sbu_0, # of connection points: 4
#     Node 15, Type 0, BuildingBlock: UXUYUI_clean_sbu_0, # of connection points: 4
#     Node 16, Type 0, BuildingBlock: UXUYUI_clean_sbu_0, # of connection points: 4
#     Node 17, Type 0, BuildingBlock: UXUYUI_clean_sbu_0, # of connection points: 4
#     Node 18, Type 0, BuildingBlock: UXUYUI_clean_sbu_0, # of connection points: 4
#     Node 19, Type 0, BuildingBlock: UXUYUI_clean_sbu_0, # of connection points: 4
#     Node 20, Type 0, BuildingBlock: UXUYUI_clean_sbu_0, # of connection points: 4
#     Node 21, Type 0, BuildingBlock: UXUYUI_clean_sbu_0, # of connection points: 4
#     Node 22, Type 0, BuildingBlock: UXUYUI_clean_sbu_0, # of connection points: 4
#     Node 23, Type 0, BuildingBlock: UXUYUI_clean_sbu_0, # of connection points: 4
#     Node 24, Type 1, BuildingBlock: HISSIN_clean_sbu_0, # of connection points: 6
#     Node 25, Type 1, BuildingBlock: HISSIN_clean_sbu_0, # of connection points: 6
#     Node 26, Type 1, BuildingBlock: HISSIN_clean_sbu_0, # of connection points: 6
#     Node 27, Type 1, BuildingBlock: HISSIN_clean_sbu_0, # of connection points: 6
#     Node 28, Type 1, BuildingBlock: HISSIN_clean_sbu_0, # of connection points: 6
#     Node 29, Type 1, BuildingBlock: HISSIN_clean_sbu_0, # of connection points: 6
#     Node 30, Type 1, BuildingBlock: HISSIN_clean_sbu_0, # of connection points: 6
#     Node 31, Type 1, BuildingBlock: HISSIN_clean_sbu_0, # of connection points: 6
#     Node 32, Type 1, BuildingBlock: HISSIN_clean_sbu_0, # of connection points: 6
#     Node 33, Type 1, BuildingBlock: HISSIN_clean_sbu_0, # of connection points: 6
#     Node 34, Type 1, BuildingBlock: HISSIN_clean_sbu_0, # of connection points: 6
#     Node 35, Type 1, BuildingBlock: HISSIN_clean_sbu_0, # of connection points: 6
#     Node 36, Type 1, BuildingBlock: HISSIN_clean_sbu_0, # of connection points: 6
#     Node 37, Type 1, BuildingBlock: HISSIN_clean_sbu_0, # of connection points: 6
#     Node 38, Type 1, BuildingBlock: HISSIN_clean_sbu_0, # of connection points: 6
#     Node 39, Type 1, BuildingBlock: HISSIN_clean_sbu_0, # of connection points: 6
#     Edge 40, Type (0, 1), BuildingBlock: CIFDUS_clean_linker_0, # of connection points: 2
#     Edge 41, Type (0, 1), BuildingBlock: CIFDUS_clean_linker_0, # of connection points: 2
#     Edge 42, Type (0, 1), BuildingBlock: CIFDUS_clean_linker_0, # of connection points: 2
#     Edge 43, Type (0, 1), BuildingBlock: CIFDUS_clean_linker_0, # of connection points: 2
#     Edge 44, Type (0, 1), BuildingBlock: CIFDUS_clean_linker_0, # of connection points: 2
#     Edge 45, Type (0, 1), BuildingBlock: CIFDUS_clean_linker_0, # of connection points: 2
#     Edge 46, Type (0, 1), BuildingBlock: CIFDUS_clean_linker_0, # of connection points: 2
#     Edge 47, Type (0, 1), BuildingBlock: CIFDUS_clean_linker_0, # of connection points: 2
#     Edge 48, Type (0, 1), BuildingBlock: CIFDUS_clean_linker_0, # of connection points: 2
#     Edge 49, Type (0, 1), BuildingBlock: CIFDUS_clean_linker_0, # of connection points: 2
#     Edge 50, Type (0, 1), BuildingBlock: CIFDUS_clean_linker_0, # of connection points: 2
#     Edge 51, Type (0, 1), BuildingBlock: CIFDUS_clean_linker_0, # of connection points: 2
#     Edge 52, Type (0, 1), BuildingBlock: CIFDUS_clean_linker_0, # of connection points: 2
#     Edge 53, Type (0, 1), BuildingBlock: CIFDUS_clean_linker_0, # of connection points: 2
#     Edge 54, Type (0, 1), BuildingBlock: CIFDUS_clean_linker_0, # of connection points: 2
#     Edge 55, Type (0, 1), BuildingBlock: CIFDUS_clean_linker_0, # of connection points: 2
#     Edge 56, Type (0, 1), BuildingBlock: CIFDUS_clean_linker_0, # of connection points: 2
#     Edge 57, Type (0, 1), BuildingBlock: CIFDUS_clean_linker_0, # of connection points: 2
#     Edge 58, Type (0, 1), BuildingBlock: CIFDUS_clean_linker_0, # of connection points: 2
#     Edge 59, Type (0, 1), BuildingBlock: CIFDUS_clean_linker_0, # of connection points: 2
#     Edge 60, Type (0, 1), BuildingBlock: CIFDUS_clean_linker_0, # of connection points: 2
#     Edge 61, Type (0, 1), BuildingBlock: CIFDUS_clean_linker_0, # of connection points: 2
#     Edge 62, Type (0, 1), BuildingBlock: CIFDUS_clean_linker_0, # of connection points: 2
#     Edge 63, Type (0, 1), BuildingBlock: CIFDUS_clean_linker_0, # of connection points: 2
#     Edge 64, Type (0, 1), BuildingBlock: CIFDUS_clean_linker_0, # of connection points: 2
#     Edge 65, Type (0, 1), BuildingBlock: CIFDUS_clean_linker_0, # of connection points: 2
#     Edge 66, Type (0, 1), BuildingBlock: CIFDUS_clean_linker_0, # of connection points: 2
#     Edge 67, Type (0, 1), BuildingBlock: CIFDUS_clean_linker_0, # of connection points: 2
#     Edge 68, Type (0, 1), BuildingBlock: CIFDUS_clean_linker_0, # of connection points: 2
#     Edge 69, Type (0, 1), BuildingBlock: CIFDUS_clean_linker_0, # of connection points: 2
#     Edge 70, Type (0, 1), BuildingBlock: CIFDUS_clean_linker_0, # of connection points: 2
#     Edge 71, Type (0, 1), BuildingBlock: CIFDUS_clean_linker_0, # of connection points: 2
#     Edge 72, Type (0, 1), BuildingBlock: CIFDUS_clean_linker_0, # of connection points: 2
#     Edge 73, Type (0, 1), BuildingBlock: CIFDUS_clean_linker_0, # of connection points: 2
#     Edge 74, Type (0, 1), BuildingBlock: CIFDUS_clean_linker_0, # of connection points: 2
#     Edge 75, Type (0, 1), BuildingBlock: CIFDUS_clean_linker_0, # of connection points: 2
#     Edge 76, Type (0, 1), BuildingBlock: CIFDUS_clean_linker_0, # of connection points: 2
#     Edge 77, Type (0, 1), BuildingBlock: CIFDUS_clean_linker_0, # of connection points: 2
#     Edge 78, Type (0, 1), BuildingBlock: CIFDUS_clean_linker_0, # of connection points: 2
#     Edge 79, Type (0, 1), BuildingBlock: CIFDUS_clean_linker_0, # of connection points: 2
#     Edge 80, Type (0, 1), BuildingBlock: CIFDUS_clean_linker_0, # of connection points: 2
#     Edge 81, Type (0, 1), BuildingBlock: CIFDUS_clean_linker_0, # of connection points: 2
#     Edge 82, Type (0, 1), BuildingBlock: CIFDUS_clean_linker_0, # of connection points: 2
#     Edge 83, Type (0, 1), BuildingBlock: CIFDUS_clean_linker_0, # of connection points: 2
#     Edge 84, Type (0, 1), BuildingBlock: CIFDUS_clean_linker_0, # of connection points: 2
#     Edge 85, Type (0, 1), BuildingBlock: CIFDUS_clean_linker_0, # of connection points: 2
#     Edge 86, Type (0, 1), BuildingBlock: CIFDUS_clean_linker_0, # of connection points: 2
#     Edge 87, Type (0, 1), BuildingBlock: CIFDUS_clean_linker_0, # of connection points: 2
#     Edge 88, Type (0, 1), BuildingBlock: CIFDUS_clean_linker_0, # of connection points: 2
#     Edge 89, Type (0, 1), BuildingBlock: CIFDUS_clean_linker_0, # of connection points: 2
#     Edge 90, Type (0, 1), BuildingBlock: CIFDUS_clean_linker_0, # of connection points: 2
#     Edge 91, Type (0, 1), BuildingBlock: CIFDUS_clean_linker_0, # of connection points: 2
#     Edge 92, Type (0, 1), BuildingBlock: CIFDUS_clean_linker_0, # of connection points: 2
#     Edge 93, Type (0, 1), BuildingBlock: CIFDUS_clean_linker_0, # of connection points: 2
#     Edge 94, Type (0, 1), BuildingBlock: CIFDUS_clean_linker_0, # of connection points: 2
#     Edge 95, Type (0, 1), BuildingBlock: CIFDUS_clean_linker_0, # of connection points: 2
#     Edge 96, Type (0, 1), BuildingBlock: CIFDUS_clean_linker_0, # of connection points: 2
#     Edge 97, Type (0, 1), BuildingBlock: CIFDUS_clean_linker_0, # of connection points: 2
#     Edge 98, Type (0, 1), BuildingBlock: CIFDUS_clean_linker_0, # of connection points: 2
#     Edge 99, Type (0, 1), BuildingBlock: CIFDUS_clean_linker_0, # of connection points: 2
#     Edge 100, Type (0, 1), BuildingBlock: CIFDUS_clean_linker_0, # of connection points: 2
#     Edge 101, Type (0, 1), BuildingBlock: CIFDUS_clean_linker_0, # of connection points: 2
#     Edge 102, Type (0, 1), BuildingBlock: CIFDUS_clean_linker_0, # of connection points: 2
#     Edge 103, Type (0, 1), BuildingBlock: CIFDUS_clean_linker_0, # of connection points: 2
#     Edge 104, Type (0, 1), BuildingBlock: CIFDUS_clean_linker_0, # of connection points: 2
#     Edge 105, Type (0, 1), BuildingBlock: CIFDUS_clean_linker_0, # of connection points: 2
#     Edge 106, Type (0, 1), BuildingBlock: CIFDUS_clean_linker_0, # of connection points: 2
#     Edge 107, Type (0, 1), BuildingBlock: CIFDUS_clean_linker_0, # of connection points: 2
#     Edge 108, Type (0, 1), BuildingBlock: CIFDUS_clean_linker_0, # of connection points: 2
#     Edge 109, Type (0, 1), BuildingBlock: CIFDUS_clean_linker_0, # of connection points: 2
#     Edge 110, Type (0, 1), BuildingBlock: CIFDUS_clean_linker_0, # of connection points: 2
#     Edge 111, Type (0, 1), BuildingBlock: CIFDUS_clean_linker_0, # of connection points: 2
#     Edge 112, Type (0, 1), BuildingBlock: CIFDUS_clean_linker_0, # of connection points: 2
#     Edge 113, Type (0, 1), BuildingBlock: CIFDUS_clean_linker_0, # of connection points: 2
#     Edge 114, Type (0, 1), BuildingBlock: CIFDUS_clean_linker_0, # of connection points: 2
#     Edge 115, Type (0, 1), BuildingBlock: CIFDUS_clean_linker_0, # of connection points: 2
#     Edge 116, Type (0, 1), BuildingBlock: CIFDUS_clean_linker_0, # of connection points: 2
#     Edge 117, Type (0, 1), BuildingBlock: CIFDUS_clean_linker_0, # of connection points: 2
#     Edge 118, Type (0, 1), BuildingBlock: CIFDUS_clean_linker_0, # of connection points: 2
#     Edge 119, Type (0, 1), BuildingBlock: CIFDUS_clean_linker_0, # of connection points: 2
#     Edge 120, Type (0, 1), BuildingBlock: CIFDUS_clean_linker_0, # of connection points: 2
#     Edge 121, Type (0, 1), BuildingBlock: CIFDUS_clean_linker_0, # of connection points: 2
#     Edge 122, Type (0, 1), BuildingBlock: CIFDUS_clean_linker_0, # of connection points: 2
#     Edge 123, Type (0, 1), BuildingBlock: CIFDUS_clean_linker_0, # of connection points: 2
#     Edge 124, Type (0, 1), BuildingBlock: CIFDUS_clean_linker_0, # of connection points: 2
#     Edge 125, Type (0, 1), BuildingBlock: CIFDUS_clean_linker_0, # of connection points: 2
#     Edge 126, Type (0, 1), BuildingBlock: CIFDUS_clean_linker_0, # of connection points: 2
#     Edge 127, Type (0, 1), BuildingBlock: CIFDUS_clean_linker_0, # of connection points: 2
#     Edge 128, Type (0, 1), BuildingBlock: CIFDUS_clean_linker_0, # of connection points: 2
#     Edge 129, Type (0, 1), BuildingBlock: CIFDUS_clean_linker_0, # of connection points: 2
#     Edge 130, Type (0, 1), BuildingBlock: CIFDUS_clean_linker_0, # of connection points: 2
#     Edge 131, Type (0, 1), BuildingBlock: CIFDUS_clean_linker_0, # of connection points: 2
#     Edge 132, Type (0, 1), BuildingBlock: CIFDUS_clean_linker_0, # of connection points: 2
#     Edge 133, Type (0, 1), BuildingBlock: CIFDUS_clean_linker_0, # of connection points: 2
#     Edge 134, Type (0, 1), BuildingBlock: CIFDUS_clean_linker_0, # of connection points: 2
#     Edge 135, Type (0, 1), BuildingBlock: CIFDUS_clean_linker_0, # of connection points: 2
# Relax obj value: 0.195
# Max RMSD: 0.276
# Mean RMSD: 0.186
data_MOF--net-gar--node1-UXUYUI_clean_sbu_0--node2-HISSIN_clean_sbu_0--edge1-CIFDUS_clean_linker_0
_symmetry_space_group_name_H-M    P1
_symmetry_Int_Tables_number       1
_symmetry_cell_setting            triclinic
loop_
_symmetry_equiv_pos_as_xyz
'x, y, z'
_cell_length_a     65.577807
_cell_length_b     65.318032
_cell_length_c     63.510418
_cell_angle_alpha  100.00092
_cell_angle_beta   93.365901
_cell_angle_gamma 100.42307
loop_
_atom_site_label
_atom_site_type_symbol
_atom_site_fract_x
_atom_site_fract_y
_atom_site_fract_z
_atom_type_partial_charge
Li0 Li 0.07968 0.30883 0.37873 0.0
Li1 Li 0.09472 0.33619 0.41154 0.0
Li2 Li 0.11626 0.31439 0.39179 0.0
Li3 Li 0.08843 0.29848 0.41322 0.0
C4 C 0.1131 0.34422 0.36747 0.0
N5 N 0.13752 0.36284 0.33929 0.0
C6 C 0.12452 0.36487 0.3738 0.0
C7 C 0.11381 0.33318 0.3467 0.0
C8 C 0.13685 0.37398 0.35935 0.0
C9 C 0.12633 0.34282 0.33272 0.0
C10 C 0.04979 0.31049 0.41569 0.0
C11 C 0.03032 0.31169 0.44679 0.0
N12 N 1.01328 0.29978 0.43431 0.0
C13 C 0.03203 0.29843 0.40313 0.0
C14 C 0.0489 0.31734 0.43766 0.0
C15 C 1.01374 0.29312 0.41286 0.0
C16 C 0.04809 0.28569 0.34483 0.0
N17 N 0.06033 0.30459 0.35412 0.0
C18 C 0.0435 0.32251 0.33061 0.0
C19 C 0.05841 0.32276 0.34723 0.0
C20 C 0.0303 0.30334 0.32092 0.0
C21 C 0.03302 0.28467 0.32797 0.0
H22 H 0.04938 0.27153 0.35094 0.0
H23 H 0.06797 0.33766 0.35522 0.0
C24 C 0.11053 0.37889 0.4328 0.0
N25 N 0.09319 0.36371 0.42597 0.0
C26 C 0.10868 0.39941 0.44206 0.0
C27 C 0.07123 0.38823 0.43695 0.0
C28 C 0.0738 0.36802 0.42774 0.0
C29 C 0.0888 0.40426 0.44416 0.0
H30 H 0.12577 0.37522 0.43061 0.0
H31 H 0.06029 0.3559 0.4215 0.0
C32 C 0.08894 0.26933 0.36842 0.0
N33 N 0.07491 0.23386 0.33682 0.0
C34 C 0.07587 0.25164 0.37317 0.0
C35 C 0.09508 0.26887 0.34766 0.0
C36 C 0.0689 0.23388 0.35696 0.0
C37 C 0.08775 0.25083 0.33189 0.0
C38 C 0.12298 0.33224 0.44265 0.0
C39 C 0.1434 0.34369 0.44473 0.0
C40 C 0.11145 0.33302 0.46048 0.0
C41 C 0.15182 0.35609 0.46458 0.0
C42 C 0.12042 0.34561 0.48006 0.0
N43 N 0.14024 0.35681 0.48168 0.0
C44 C 0.15781 0.33192 0.38465 0.0
C45 C 0.14684 0.29484 0.37292 0.0
C46 C 0.1769 0.33132 0.37612 0.0
N47 N 0.14316 0.31387 0.38257 0.0
C48 C 0.16565 0.29349 0.36422 0.0
C49 C 0.18094 0.3119 0.36564 0.0
H50 H 0.1546 0.34681 0.39272 0.0
H51 H 0.13506 0.28071 0.37174 0.0
C52 C 0.06179 0.2671 0.43064 0.0
N53 N 0.08138 0.27872 0.43179 0.0
C54 C 0.0568 0.25324 0.44481 0.0
C55 C 0.09241 0.26294 0.46066 0.0
C56 C 0.09666 0.27677 0.4463 0.0
C57 C 0.07221 0.25099 0.46012 0.0
H58 H 0.05002 0.26842 0.41864 0.0
H59 H 0.1122 0.28593 0.44667 0.0
O60 O 0.10116 0.33494 0.38149 0.0
O61 O 0.06783 0.31585 0.40641 0.0
O62 O 0.096 0.28681 0.38414 0.0
O63 O 0.11444 0.32007 0.42332 0.0
H64 H 0.12403 0.3737 0.38976 0.0
H65 H 0.10476 0.31735 0.34142 0.0
H66 H 0.1459 0.38989 0.3641 0.0
H67 H 0.12712 0.3344 0.31663 0.0
H68 H 0.02943 0.31683 0.46379 0.0
H69 H 0.0324 0.2931 0.38609 0.0
H70 H 0.06236 0.32701 0.44755 0.0
H71 H 0.99991 0.28369 0.40335 0.0
H72 H 0.04168 0.33741 0.32621 0.0
H73 H 0.02324 0.26952 0.32097 0.0
H74 H 0.12262 0.41136 0.44741 0.0
H75 H 0.05563 0.39143 0.43782 0.0
H76 H 0.07114 0.2516 0.38916 0.0
H77 H 0.10542 0.28227 0.34376 0.0
H78 H 0.05871 0.22011 0.36039 0.0
H79 H 0.0923 0.25031 0.31574 0.0
H80 H 0.15261 0.34309 0.43114 0.0
H81 H 0.09578 0.32394 0.45925 0.0
H82 H 0.16756 0.36514 0.46639 0.0
H83 H 0.11164 0.34642 0.49397 0.0
H84 H 0.18838 0.34582 0.3778 0.0
H85 H 0.168 0.27821 0.35608 0.0
H86 H 0.04097 0.24451 0.44385 0.0
H87 H 0.10493 0.26143 0.47183 0.0
Li88 Li 0.01666 0.79292 0.63276 0.0
Li89 Li 0.02878 0.77798 0.66428 0.0
Li90 Li 1.00546 0.75601 0.63492 0.0
Li91 Li 0.99305 0.78108 0.65984 0.0
C92 C 0.04303 0.75728 0.6212 0.0
N93 N 0.05889 0.7263 0.59563 0.0
C94 C 0.0541 0.74425 0.63056 0.0
C95 C 0.04016 0.75468 0.59884 0.0
C96 C 0.06196 0.72864 0.61735 0.0
C97 C 0.04829 0.73891 0.58619 0.0
C98 C 0.03279 0.81966 0.6774 0.0
C99 C 0.05096 0.83502 0.71232 0.0
N100 N 0.06324 0.84972 0.70346 0.0
C101 C 0.04559 0.83496 0.66867 0.0
C102 C 0.03547 0.8197 0.69943 0.0
C103 C 0.06089 0.85001 0.6821 0.0
C104 C 1.01061 0.82667 0.61304 0.0
N105 N 0.02342 0.81274 0.61462 0.0
C106 C 0.0446 0.82662 0.58906 0.0
C107 C 0.04031 0.81258 0.60321 0.0
C108 C 0.03148 0.84106 0.58682 0.0
C109 C 0.0144 0.84109 0.59923 0.0
H110 H 0.99737 0.82645 0.62244 0.0
H111 H 0.05035 0.80145 0.60498 0.0
C112 C 0.04799 0.76044 0.6946 0.0
N113 N 0.05119 0.77706 0.68415 0.0
C114 C 0.06353 0.75757 0.70903 0.0
C115 C 0.08556 0.78901 0.70177 0.0
C116 C 0.06963 0.7911 0.68716 0.0
C117 C 0.08256 0.77195 0.71272 0.0
H118 H 0.03352 0.74907 0.6914 0.0
H119 H 0.07202 0.80378 0.67812 0.0
C120 C 0.97567 0.76548 0.60959 0.0
N121 N 0.9512 0.74448 0.57251 0.0
C122 C 0.95923 0.74877 0.61038 0.0
C123 C 0.97962 0.77153 0.58993 0.0
C124 C 0.94707 0.73834 0.59146 0.0
C125 C 0.96707 0.76072 0.57136 0.0
C126 C 0.99013 0.74849 0.67845 0.0
C127 C 0.97297 0.73268 0.66957 0.0
C128 C 0.99247 0.75649 0.70053 0.0
C129 C 0.95829 0.72528 0.68294 0.0
C130 C 0.97742 0.74871 0.71334 0.0
N131 N 0.96077 0.73341 0.70436 0.0
C132 C 1.00731 0.71405 0.63151 0.0
C133 C 0.99679 0.72156 0.59781 0.0
C134 C 1.00961 0.69389 0.62191 0.0
N135 N 1.00142 0.72758 0.61941 0.0
C136 C 0.99855 0.70134 0.58754 0.0
C137 C 1.0057 0.68744 0.59955 0.0
H138 H 1.01164 0.71942 0.64853 0.0
H139 H 0.99306 0.73276 0.5883 0.0
C140 C 0.97584 0.80036 0.69524 0.0
N141 N 0.97072 0.7868 0.67613 0.0
C142 C 0.96109 0.80245 0.70994 0.0
C143 C 0.93561 0.7775 0.68447 0.0
C144 C 0.95099 0.77574 0.67033 0.0
C145 C 0.94071 0.79072 0.70476 0.0
H146 H 0.9916 0.80891 0.69946 0.0
H147 H 0.94734 0.765 0.65508 0.0
O148 O 0.03466 0.77219 0.63387 0.0
O149 O 0.01758 0.80491 0.6645 0.0
O150 O 0.98753 0.77617 0.62799 0.0
O151 O 1.00438 0.75638 0.66553 0.0
H152 H 0.05637 0.74599 0.64784 0.0
H153 H 0.03137 0.76443 0.59134 0.0
H154 H 0.07041 0.71833 0.62437 0.0
H155 H 0.04602 0.73657 0.56887 0.0
H156 H 0.05331 0.83511 0.72934 0.0
H157 H 0.04375 0.83527 0.65172 0.0
H158 H 0.02608 0.80774 0.70647 0.0
H159 H 0.0709 0.86192 0.67553 0.0
H160 H 0.05784 0.8259 0.57974 0.0
H161 H 1.00412 0.85222 0.59842 0.0
H162 H 0.06078 0.74413 0.71708 0.0
H163 H 0.10026 0.80015 0.70397 0.0
H164 H 0.95608 0.74368 0.62536 0.0
H165 H 0.99226 0.78437 0.58894 0.0
H166 H 0.93438 0.72531 0.59183 0.0
H167 H 0.96998 0.76521 0.55604 0.0
H168 H 0.97091 0.72631 0.65252 0.0
H169 H 1.00559 0.76885 0.70763 0.0
H170 H 0.94487 0.71314 0.67627 0.0
H171 H 0.97891 0.75491 0.73042 0.0
H172 H 0.01563 0.68402 0.63183 0.0
H173 H 0.99516 0.69701 0.57028 0.0
H174 H 0.96583 0.81266 0.72544 0.0
H175 H 0.91999 0.76849 0.67962 0.0
Li176 Li 0.56969 0.8087 0.88105 0.0
Li177 Li 0.58872 0.83531 0.91083 0.0
Li178 Li 0.60643 0.81266 0.88677 0.0
Li179 Li 0.58485 0.79849 0.91271 0.0
C180 C 0.58218 0.84314 0.86487 0.0
N181 N 0.5623 0.86038 0.83459 0.0
C182 C 0.57308 0.86073 0.87127 0.0
C183 C 0.58123 0.83441 0.84301 0.0
C184 C 0.5631 0.8692 0.85573 0.0
C185 C 0.57108 0.84331 0.82798 0.0
C186 C 0.54834 0.80617 0.92291 0.0
C187 C 0.53678 0.80103 0.9573 0.0
N188 N 0.52026 0.78618 0.94716 0.0
C189 C 0.5312 0.79094 0.91281 0.0
C190 C 0.55112 0.81137 0.94532 0.0
C191 C 0.51718 0.781 0.92537 0.0
C192 C 0.54524 0.79206 0.84079 0.0
N193 N 0.54679 0.80467 0.86047 0.0
C194 C 0.51898 0.82064 0.84983 0.0
C195 C 0.53365 0.81826 0.86543 0.0
C196 C 0.51781 0.80885 0.82895 0.0
C197 C 0.53064 0.79387 0.82461 0.0
H198 H 0.55608 0.78156 0.8373 0.0
H199 H 0.53546 0.82818 0.8812 0.0
C200 C 0.6063 0.87865 0.92517 0.0
N201 N 0.58961 0.8631 0.92583 0.0
C202 C 0.6063 0.89953 0.93482 0.0
C203 C 0.5716 0.88806 0.9448 0.0
C204 C 0.57244 0.86736 0.93534 0.0
C205 C 0.58869 0.90437 0.94455 0.0
H206 H 0.6194 0.8749 0.91677 0.0
H207 H 0.55919 0.85477 0.93509 0.0
C208 C 0.59651 0.77214 0.8718 0.0
N209 N 0.62107 0.74589 0.85179 0.0
C210 C 0.60577 0.75924 0.88326 0.0
C211 C 0.59965 0.77161 0.85015 0.0
C212 C 0.61814 0.74608 0.87285 0.0
C213 C 0.61217 0.75827 0.84034 0.0
C214 C 0.62369 0.83512 0.93324 0.0
C215 C 0.64284 0.84502 0.92772 0.0
C216 C 0.61762 0.84133 0.95375 0.0
C217 C 0.65558 0.86103 0.94281 0.0
C218 C 0.63078 0.85743 0.96837 0.0
N219 N 0.64933 0.86687 0.96264 0.0
C220 C 0.63432 0.82174 0.85618 0.0
C221 C 0.64588 0.8024 0.88133 0.0
C222 C 0.65273 0.82201 0.84629 0.0
N223 N 0.63125 0.81199 0.87328 0.0
C224 C 0.66467 0.80253 0.87213 0.0
C225 C 0.66822 0.81251 0.85445 0.0
H226 H 0.62268 0.82968 0.85046 0.0
H227 H 0.64304 0.79498 0.89512 0.0
C228 C 0.56595 0.76121 0.92624 0.0
N229 N 0.58118 0.77883 0.93161 0.0
C230 C 0.56235 0.74699 0.94029 0.0
C231 C 0.59063 0.76899 0.9648 0.0
C232 C 0.59358 0.78285 0.95034 0.0
C233 C 0.57478 0.75084 0.95988 0.0
H234 H 0.55653 0.75828 0.91107 0.0
H235 H 0.60574 0.79682 0.95409 0.0
O236 O 0.59163 0.83429 0.8799 0.0
O237 O 0.56249 0.81574 0.91092 0.0
O238 O 0.5847 0.78544 0.88182 0.0
O239 O 0.61094 0.81949 0.91864 0.0
H240 H 0.57347 0.86769 0.88803 0.0
H241 H 0.58774 0.82051 0.83772 0.0
H242 H 0.55592 0.88274 0.86049 0.0
H243 H 0.57003 0.83654 0.81106 0.0
H244 H 0.53882 0.80477 0.97465 0.0
H245 H 0.52889 0.78665 0.89548 0.0
H246 H 0.56433 0.82309 0.95337 0.0
H247 H 0.50391 0.76909 0.91778 0.0
H248 H 0.50901 0.83199 0.85391 0.0
H249 H 0.53006 0.78445 0.8087 0.0
H250 H 0.61964 0.91183 0.93419 0.0
H251 H 0.5578 0.89131 0.95225 0.0
H252 H 0.6036 0.75953 0.90005 0.0
H253 H 0.59284 0.7817 0.84112 0.0
H254 H 0.62547 0.73607 0.88153 0.0
H255 H 0.61488 0.75783 0.82364 0.0
H256 H 0.64776 0.84056 0.9119 0.0
H257 H 0.60278 0.83398 0.95824 0.0
H258 H 0.6704 0.86888 0.93873 0.0
H259 H 0.62622 0.86247 0.98424 0.0
H260 H 0.65513 0.83012 0.83288 0.0
H261 H 0.67633 0.79503 0.87879 0.0
H262 H 0.55021 0.73297 0.93572 0.0
H263 H 0.60052 0.77255 0.97976 0.0
Li264 Li 0.52677 0.30036 0.14387 0.0
Li265 Li 0.53988 0.29103 0.17834 0.0
Li266 Li 0.52678 0.26403 0.14689 0.0
Li267 Li 0.50353 0.2808 0.16728 0.0
C268 C 0.56633 0.27804 0.142 0.0
N269 N 0.59611 0.25638 0.12551 0.0
C270 C 0.5773 0.26774 0.15502 0.0
C271 C 0.57057 0.27739 0.12059 0.0
C272 C 0.59228 0.25685 0.14638 0.0
C273 C 0.58567 0.26635 0.11256 0.0
C274 C 0.52809 0.32862 0.18835 0.0
C275 C 0.5355 0.34807 0.22477 0.0
N276 N 0.54458 0.3655 0.21732 0.0
C277 C 0.53739 0.34678 0.18106 0.0
C278 C 0.52702 0.3293 0.21038 0.0
C279 C 0.54567 0.36525 0.19596 0.0
C280 C 0.51428 0.32699 0.1168 0.0
N281 N 0.53067 0.32024 0.12554 0.0
C282 C 0.55437 0.34077 0.10659 0.0
C283 C 0.55046 0.32705 0.12102 0.0
C284 C 0.53776 0.34785 0.09697 0.0
C285 C 0.51749 0.34091 0.10238 0.0
H286 H 0.49872 0.32136 0.12085 0.0
H287 H 0.56321 0.32165 0.1285 0.0
C288 C 0.56345 0.28467 0.21369 0.0
N289 N 0.56092 0.29942 0.20163 0.0
C290 C 0.58005 0.28866 0.22947 0.0
C291 C 0.59068 0.32341 0.22086 0.0
C292 C 0.57412 0.31851 0.20484 0.0
C293 C 0.59419 0.30816 0.2331 0.0
H294 H 0.55318 0.26933 0.21031 0.0
H295 H 0.57216 0.32973 0.1946 0.0
C296 C 0.4951 0.26163 0.11711 0.0
N297 N 0.47863 0.23315 0.07996 0.0
C298 C 0.48572 0.24088 0.11813 0.0
C299 C 0.49604 0.26791 0.09717 0.0
C300 C 0.47752 0.22671 0.09918 0.0
C301 C 0.48763 0.25328 0.07859 0.0
C302 C 0.50987 0.25264 0.18986 0.0
C303 C 0.49851 0.23216 0.18207 0.0
C304 C 0.50802 0.26267 0.21077 0.0
C305 C 0.48533 0.22214 0.19529 0.0
C306 C 0.49462 0.25215 0.22347 0.0
N307 N 0.48364 0.23227 0.21553 0.0
C308 C 0.53662 0.22335 0.14196 0.0
C309 C 0.53339 0.23602 0.10939 0.0
C310 C 0.54176 0.20477 0.13113 0.0
N311 N 0.53231 0.23837 0.13096 0.0
C312 C 0.53836 0.21768 0.09791 0.0
C313 C 0.54263 0.20175 0.10879 0.0
H314 H 0.53648 0.22599 0.15923 0.0
H315 H 0.53072 0.24854 0.10111 0.0
C316 C 0.47349 0.29361 0.19363 0.0
N317 N 0.47699 0.27774 0.17823 0.0
C318 C 0.45525 0.29118 0.20392 0.0
C319 C 0.44426 0.25632 0.18189 0.0
C320 C 0.46267 0.25949 0.17195 0.0
C321 C 0.44049 0.27221 0.19829 0.0
H322 H 0.48497 0.30806 0.19814 0.0
H323 H 0.4658 0.24709 0.15973 0.0
O324 O 0.55117 0.28824 0.15002 0.0
O325 O 0.51988 0.31039 0.17397 0.0
O326 O 0.50317 0.27582 0.13547 0.0
O327 O 0.52254 0.26291 0.17701 0.0
H328 H 0.57407 0.26786 0.17153 0.0
H329 H 0.56199 0.28496 0.11016 0.0
H330 H 0.60079 0.2487 0.15625 0.0
H331 H 0.58899 0.26558 0.09599 0.0
H332 H 0.5349 0.34876 0.24186 0.0
H333 H 0.53826 0.34664 0.1641 0.0
H334 H 0.51992 0.31543 0.21635 0.0
H335 H 0.55297 0.37939 0.19054 0.0
H336 H 0.5702 0.34549 0.10277 0.0
H337 H 0.50428 0.34625 0.09567 0.0
H338 H 0.58233 0.27605 0.23786 0.0
H339 H 0.60098 0.33872 0.22311 0.0
H340 H 0.48527 0.23558 0.13331 0.0
H341 H 0.50329 0.28386 0.09603 0.0
H342 H 0.47039 0.21055 0.09974 0.0
H343 H 0.4883 0.25792 0.06306 0.0
H344 H 0.4996 0.22418 0.16588 0.0
H345 H 0.51668 0.27849 0.21706 0.0
H346 H 0.47634 0.20636 0.18941 0.0
H347 H 0.49293 0.2598 0.23962 0.0
H348 H 0.54541 0.1931 0.14021 0.0
H349 H 0.53876 0.21599 0.08068 0.0
H350 H 0.45274 0.30406 0.21611 0.0
H351 H 0.43335 0.24141 0.17713 0.0
Li352 Li 0.08604 0.80261 0.11198 0.0
Li353 Li 0.10129 0.78968 0.13992 0.0
Li354 Li 0.08275 0.76507 0.10956 0.0
Li355 Li 0.06404 0.78661 0.13695 0.0
C356 C 0.12663 0.79922 0.10728 0.0
N357 N 0.16347 0.82582 0.10311 0.0
C358 C 0.13243 0.81907 0.12072 0.0
C359 C 0.13956 0.79293 0.09168 0.0
C360 C 0.15111 0.83228 0.11838 0.0
C361 C 0.15812 0.8066 0.08982 0.0
C362 C 0.08785 0.82692 0.16193 0.0
C363 C 0.08112 0.83588 0.19902 0.0
N364 N 0.09236 0.85575 0.20011 0.0
C365 C 0.09914 0.84751 0.16337 0.0
C366 C 0.07858 0.82112 0.17984 0.0
C367 C 0.10133 0.86181 0.18284 0.0
C368 C 0.07712 0.83937 0.101 0.0
N369 N 0.08666 0.82292 0.09441 0.0
C370 C 0.08744 0.83054 0.05905 0.0
C371 C 0.09255 0.81873 0.07419 0.0
C372 C 0.0761 0.84655 0.06496 0.0
C373 C 0.07169 0.85153 0.08643 0.0
H374 H 0.07233 0.84198 0.1171 0.0
H375 H 0.0997 0.80517 0.06938 0.0
C376 C 0.14137 0.7845 0.15258 0.0
N377 N 0.12486 0.79237 0.16024 0.0
C378 C 0.15877 0.78482 0.16637 0.0
C379 C 0.14157 0.80034 0.19599 0.0
C380 C 0.12459 0.79996 0.18155 0.0
C381 C 0.15898 0.79287 0.18834 0.0
H382 H 0.14088 0.7775 0.13582 0.0
H383 H 0.11105 0.80517 0.18755 0.0
C384 C 0.05032 0.7853 0.08766 0.0
N385 N 0.03171 0.79637 0.05225 0.0
C386 C 0.03638 0.7992 0.0903 0.0
C387 C 0.05461 0.77682 0.06701 0.0
C388 C 0.0272 0.80467 0.07219 0.0
C389 C 0.04507 0.78265 0.04931 0.0
C390 C 0.08932 0.75426 0.15428 0.0
C391 C 0.10291 0.74095 0.14702 0.0
C392 C 0.08591 0.75796 0.17601 0.0
C393 C 0.11312 0.73174 0.16175 0.0
C394 C 0.09641 0.74845 0.19022 0.0
N395 N 0.1097 0.73566 0.18286 0.0
C396 C 0.09197 0.73492 0.07547 0.0
C397 C 0.06241 0.72447 0.09377 0.0
C398 C 0.08802 0.71527 0.0616 0.0
N399 N 0.07921 0.73896 0.09112 0.0
C400 C 0.05787 0.70472 0.08033 0.0
C401 C 0.07073 0.69991 0.06397 0.0
H402 H 0.10508 0.74697 0.0737 0.0
H403 H 0.05258 0.72835 0.10637 0.0
C404 C 0.0298 0.80286 0.15263 0.0
N405 N 0.03929 0.78587 0.15046 0.0
C406 C 1.01168 0.80251 0.16312 0.0
C407 C 1.01354 0.76718 0.16881 0.0
C408 C 0.03155 0.76818 0.15812 0.0
C409 C 1.00339 0.78452 0.17147 0.0
H410 H 0.03646 0.81672 0.14639 0.0
H411 H 0.03952 0.75494 0.15613 0.0
O412 O 0.10839 0.78595 0.10919 0.0
O413 O 0.08497 0.813 0.14272 0.0
O414 O 0.05999 0.78029 0.10522 0.0
O415 O 0.07967 0.76388 0.14021 0.0
H416 H 0.12273 0.82417 0.13292 0.0
H417 H 0.13531 0.77763 0.08111 0.0
H418 H 0.15579 0.84765 0.12873 0.0
H419 H 0.16828 0.80191 0.07783 0.0
H420 H 0.0742 0.83152 0.21305 0.0
H421 H 0.10603 0.85246 0.14954 0.0
H422 H 0.06992 0.80526 0.17916 0.0
H423 H 0.11009 0.87777 0.18418 0.0
H424 H 0.091 0.82624 0.04261 0.0
H425 H 0.06322 0.86401 0.09161 0.0
H426 H 0.17177 0.77847 0.15999 0.0
H427 H 0.14117 0.8065 0.2129 0.0
H428 H 0.03294 0.80595 0.10617 0.0
H429 H 0.06542 0.76611 0.06469 0.0
H430 H 0.01655 0.81558 0.074 0.0
H431 H 0.04838 0.77636 0.03324 0.0
H432 H 0.10575 0.738 0.13025 0.0
H433 H 0.07545 0.76826 0.18186 0.0
H434 H 0.1238 0.72152 0.1564 0.0
H435 H 0.09404 0.75128 0.20711 0.0
H436 H 0.09824 0.71216 0.04914 0.0
H437 H 0.04466 0.69318 0.08301 0.0
H438 H 1.00422 0.81613 0.16461 0.0
H439 H 1.00789 0.75314 0.17527 0.0
Li440 Li 0.50976 0.80919 0.44154 0.0
Li441 Li 0.4921 0.78017 0.4151 0.0
Li442 Li 0.50596 0.77369 0.44855 0.0
Li443 Li 0.52955 0.78563 0.4206 0.0
C444 C 0.4669 0.79908 0.44376 0.0
N445 N 0.43262 0.8181 0.44207 0.0
C446 C 0.46502 0.81251 0.42916 0.0
C447 C 0.45133 0.79532 0.4575 0.0
C448 C 0.44758 0.82197 0.42854 0.0
C449 C 0.43413 0.80509 0.45642 0.0
C450 C 0.51527 0.81344 0.39306 0.0
C451 C 0.52662 0.81292 0.35753 0.0
N452 N 0.52081 0.83183 0.35721 0.0
C453 C 0.50944 0.83289 0.39237 0.0
C454 C 0.52396 0.80338 0.37549 0.0
C455 C 0.51234 0.84191 0.3741 0.0
C456 C 0.5269 0.8518 0.4473 0.0
N457 N 0.51198 0.83791 0.45422 0.0
C458 C 0.50247 0.86584 0.47883 0.0
C459 C 0.49992 0.84438 0.46979 0.0
C460 C 0.51776 0.88054 0.47191 0.0
C461 C 0.53007 0.87331 0.45596 0.0
H462 H 0.53642 0.84606 0.43511 0.0
H463 H 0.48851 0.83289 0.47535 0.0
C464 C 0.45024 0.7626 0.40026 0.0
N465 N 0.46867 0.77169 0.39405 0.0
C466 C 0.43183 0.76018 0.38711 0.0
C467 C 0.45196 0.77506 0.36079 0.0
C468 C 0.46993 0.77697 0.37435 0.0
C469 C 0.43247 0.76734 0.36747 0.0
H470 H 0.4497 0.75824 0.41591 0.0
H471 H 0.4847 0.78361 0.36945 0.0
C472 C 0.54102 0.81055 0.46969 0.0
N473 N 0.5582 0.84204 0.50428 0.0
C474 C 0.55983 0.82411 0.46846 0.0
C475 C 0.531 0.81291 0.48854 0.0
C476 C 0.56825 0.83996 0.48612 0.0
C477 C 0.53993 0.82895 0.50585 0.0
C478 C 0.49752 0.74205 0.40451 0.0
C479 C 0.48166 0.72795 0.41119 0.0
C480 C 0.50093 0.73975 0.38278 0.0
C481 C 0.4693 0.7118 0.39593 0.0
C482 C 0.48822 0.7234 0.36802 0.0
N483 N 0.4728 0.70989 0.37484 0.0
C484 C 0.48512 0.74878 0.4764 0.0
C485 C 0.52207 0.75618 0.48053 0.0
C486 C 0.48452 0.7372 0.49301 0.0
N487 N 0.50375 0.75777 0.47049 0.0
C488 C 0.52221 0.745 0.49724 0.0
C489 C 0.50328 0.73522 0.50362 0.0
H490 H 0.4708 0.75046 0.46811 0.0
H491 H 0.5366 0.7635 0.47539 0.0
C492 C 0.56702 0.80343 0.40672 0.0
N493 N 0.55464 0.78464 0.40776 0.0
C494 C 0.5845 0.80389 0.39523 0.0
C495 C 0.57642 0.76557 0.38653 0.0
C496 C 0.55908 0.76586 0.39826 0.0
C497 C 0.58922 0.78479 0.38467 0.0
H498 H 0.56279 0.8181 0.41411 0.0
H499 H 0.54883 0.75118 0.39929 0.0
O500 O 0.48369 0.78937 0.44455 0.0
O501 O 0.51292 0.8046 0.41104 0.0
O502 O 0.53215 0.79539 0.45235 0.0
O503 O 0.50937 0.7583 0.41912 0.0
H504 H 0.47679 0.81549 0.41831 0.0
H505 H 0.45254 0.78492 0.46887 0.0
H506 H 0.44591 0.83235 0.41727 0.0
H507 H 0.42196 0.80232 0.46696 0.0
H508 H 0.53326 0.80526 0.34382 0.0
H509 H 0.50275 0.84099 0.40579 0.0
H510 H 0.52832 0.78821 0.37555 0.0
H511 H 0.50788 0.85694 0.37337 0.0
H512 H 0.49287 0.87085 0.49129 0.0
H513 H 0.5419 0.8842 0.45008 0.0
H514 H 0.41721 0.75363 0.39269 0.0
H515 H 0.45332 0.78087 0.34588 0.0
H516 H 0.56777 0.82251 0.45399 0.0
H517 H 0.51631 0.80267 0.48966 0.0
H518 H 0.58275 0.85065 0.48537 0.0
H519 H 0.53228 0.83105 0.52048 0.0
H520 H 0.47879 0.72961 0.42796 0.0
H521 H 0.51308 0.75062 0.37735 0.0
H522 H 0.45689 0.70083 0.40085 0.0
H523 H 0.49058 0.7215 0.35113 0.0
H524 H 0.46964 0.72978 0.49741 0.0
H525 H 0.53703 0.74341 0.50457 0.0
H526 H 0.59374 0.81906 0.39391 0.0
H527 H 0.57963 0.75051 0.37878 0.0
Li528 Li 0.59946 0.31043 0.62244 0.0
Li529 Li 0.61493 0.2988 0.65346 0.0
Li530 Li 0.60112 0.27264 0.62173 0.0
Li531 Li 0.57909 0.28932 0.64492 0.0
C532 C 0.64003 0.28905 0.61525 0.0
N533 N 0.67058 0.27004 0.59655 0.0
C534 C 0.65196 0.27851 0.62707 0.0
C535 C 0.64365 0.28994 0.59394 0.0
C536 C 0.66734 0.26902 0.61733 0.0
C537 C 0.65916 0.28022 0.58477 0.0
C538 C 0.60443 0.33311 0.67055 0.0
C539 C 0.60998 0.34529 0.7089 0.0
N540 N 0.62484 0.36174 0.70598 0.0
C541 C 0.61975 0.35013 0.66792 0.0
C542 C 0.59948 0.33065 0.69119 0.0
C543 C 0.62988 0.36445 0.68604 0.0
C544 C 0.59191 0.34859 0.61326 0.0
N545 N 0.59766 0.33018 0.60479 0.0
C546 C 0.59082 0.33574 0.56912 0.0
C547 C 0.59767 0.32375 0.58326 0.0
C548 C 0.5836 0.35417 0.5774 0.0
C549 C 0.5849 0.361 0.59975 0.0
H550 H 0.59133 0.35284 0.6304 0.0
H551 H 0.60151 0.30856 0.57707 0.0
C552 C 0.63539 0.29722 0.69315 0.0
N553 N 0.63704 0.30625 0.67545 0.0
C554 C 0.65268 0.2997 0.70786 0.0
C555 C 0.67273 0.32152 0.68625 0.0
C556 C 0.65501 0.31874 0.67206 0.0
C557 C 0.67179 0.31133 0.704 0.0
H558 H 0.62099 0.28719 0.69529 0.0
H559 H 0.65582 0.32561 0.65774 0.0
C560 C 0.557 0.28054 0.60685 0.0
N561 N 0.51463 0.27197 0.59536 0.0
C562 C 0.5463 0.25958 0.6008 0.0
C563 C 0.54622 0.29715 0.60695 0.0
C564 C 0.52486 0.25557 0.59506 0.0
C565 C 0.52478 0.29248 0.60113 0.0
C566 C 0.58551 0.25606 0.66123 0.0
C567 C 0.57827 0.2353 0.65017 0.0
C568 C 0.57984 0.26213 0.68196 0.0
C569 C 0.56549 0.22096 0.66001 0.0
C570 C 0.567 0.24733 0.69123 0.0
N571 N 0.56015 0.22723 0.68016 0.0
C572 C 0.6158 0.2346 0.60915 0.0
C573 C 0.596 0.24546 0.58212 0.0
C574 C 0.61728 0.21611 0.59508 0.0
N575 N 0.60487 0.2485 0.60256 0.0
C576 C 0.59692 0.22712 0.56759 0.0
C577 C 0.60726 0.21198 0.57421 0.0
H578 H 0.62275 0.23756 0.62553 0.0
H579 H 0.58769 0.25703 0.57731 0.0
C580 C 0.54693 0.30461 0.66536 0.0
N581 N 0.55231 0.28637 0.65569 0.0
C582 C 0.52788 0.30416 0.67404 0.0
C583 C 0.51983 0.26617 0.66203 0.0
C584 C 0.53896 0.26741 0.65333 0.0
C585 C 0.51418 0.2847 0.67282 0.0
H586 H 0.55743 0.31959 0.66632 0.0
H587 H 0.5432 0.2532 0.64489 0.0
O588 O 0.62463 0.29811 0.62436 0.0
O589 O 0.59472 0.31861 0.65306 0.0
O590 O 0.5779 0.28477 0.61288 0.0
O591 O 0.59829 0.27024 0.65196 0.0
H592 H 0.64915 0.27735 0.64347 0.0
H593 H 0.63454 0.29799 0.58455 0.0
H594 H 0.67662 0.26072 0.62626 0.0
H595 H 0.6621 0.28074 0.56827 0.0
H596 H 0.60637 0.34354 0.72497 0.0
H597 H 0.624 0.35208 0.65207 0.0
H598 H 0.58779 0.31745 0.69352 0.0
H599 H 0.64184 0.37764 0.68425 0.0
H600 H 0.58975 0.32988 0.55197 0.0
H601 H 0.57951 0.3752 0.60666 0.0
H602 H 0.65146 0.2914 0.72122 0.0
H603 H 0.68725 0.33067 0.68284 0.0
H604 H 0.55443 0.24655 0.60078 0.0
H605 H 0.55429 0.31345 0.61169 0.0
H606 H 0.51633 0.23943 0.59046 0.0
H607 H 0.5162 0.30516 0.60123 0.0
H608 H 0.58228 0.23032 0.63407 0.0
H609 H 0.58494 0.2782 0.69065 0.0
H610 H 0.55974 0.20487 0.6516 0.0
H611 H 0.56238 0.25187 0.70718 0.0
H612 H 0.62516 0.20464 0.60081 0.0
H613 H 0.58908 0.22446 0.55157 0.0
H614 H 0.52394 0.31893 0.68161 0.0
H615 H 0.50981 0.2508 0.6607 0.0
Li616 Li 0.02438 0.31197 0.94823 0.0
Li617 Li 1.00532 0.2865 0.91995 0.0
Li618 Li 0.01854 0.27412 0.95119 0.0
Li619 Li 0.04111 0.28785 0.92425 0.0
C620 C 0.97702 0.28992 0.94776 0.0
N621 N 0.93413 0.28365 0.94106 0.0
C622 C 0.96688 0.30703 0.95232 0.0
C623 C 0.96533 0.26961 0.93981 0.0
C624 C 0.94518 0.30353 0.94884 0.0
C625 C 0.94367 0.26678 0.9365 0.0
C626 C 0.01957 0.31952 0.90187 0.0
C627 C 1.00913 0.31826 0.86451 0.0
N628 N 1.00272 0.337 0.8699 0.0
C629 C 1.01297 0.33883 0.90701 0.0
C630 C 0.01775 0.30921 0.88042 0.0
C631 C 1.00447 0.34739 0.89063 0.0
C632 C 0.04239 0.355 0.96061 0.0
N633 N 0.02811 0.33902 0.96529 0.0
C634 C 0.01804 0.36222 0.99436 0.0
C635 C 0.01638 0.34205 0.98206 0.0
C636 C 0.03208 0.37928 0.98941 0.0
C637 C 0.04471 0.37539 0.9726 0.0
H638 H 0.0517 0.35191 0.94734 0.0
H639 H 1.00549 0.32884 0.98561 0.0
C640 C 0.97678 0.26309 0.88487 0.0
N641 N 0.98214 0.2818 0.899 0.0
C642 C 0.96004 0.25994 0.86924 0.0
C643 C 0.95478 0.29531 0.88316 0.0
C644 C 0.97134 0.29765 0.8986 0.0
C645 C 0.94906 0.27633 0.86819 0.0
H646 H 0.98551 0.25067 0.88572 0.0
H647 H 0.97569 0.31221 0.91024 0.0
C648 C 0.05839 0.30885 0.97112 0.0
N649 N 0.08424 0.33874 1.00204 0.0
C650 C 0.0762 0.32117 0.96545 0.0
C651 C 0.05376 0.31161 0.9925 0.0
C652 C 0.08907 0.33623 0.98133 0.0
C653 C 0.06701 0.32685 1.0079 0.0
C654 C 0.0287 0.24737 0.90933 0.0
C655 C 0.03693 0.23324 0.91996 0.0
C656 C 0.03136 0.24705 0.88761 0.0
C657 C 0.04798 0.21918 0.90871 0.0
C658 C 0.04254 0.23278 0.87694 0.0
N659 N 0.05056 0.21927 0.88763 0.0
C660 C 0.99695 0.24896 0.97854 0.0
C661 C 0.03381 0.25384 0.98141 0.0
C662 C 0.99595 0.2375 0.99521 0.0
N663 N 0.0157 0.25669 0.97195 0.0
C664 C 0.03356 0.24274 0.99823 0.0
C665 C 0.01446 0.23445 1.00533 0.0
H666 H 0.98281 0.25187 0.97113 0.0
H667 H 0.04848 0.26036 0.97594 0.0
C668 C 0.06955 0.29724 0.89478 0.0
N669 N 0.06592 0.28589 0.91062 0.0
C670 C 0.08719 0.29659 0.88375 0.0
C671 C 0.09759 0.27304 0.90597 0.0
C672 C 0.07959 0.2741 0.91658 0.0
C673 C 0.10142 0.28427 0.88918 0.0
H674 H 0.05885 0.30701 0.8908 0.0
H675 H 0.07648 0.2655 0.92951 0.0
O676 O 0.99828 0.29307 0.95075 0.0
O677 O 0.02789 0.31088 0.91774 0.0
O678 O 0.0453 0.29446 0.95573 0.0
O679 O 0.01817 0.26151 0.92015 0.0
H680 H 0.97565 0.3229 0.95821 0.0
H681 H 0.97295 0.25626 0.93575 0.0
H682 H 0.93714 0.31664 0.95221 0.0
H683 H 0.93446 0.25118 0.9302 0.0
H684 H 1.00748 0.31035 0.84789 0.0
H685 H 1.01411 0.347 0.92349 0.0
H686 H 0.02266 0.29421 0.87613 0.0
H687 H 0.99919 0.36225 0.8944 0.0
H688 H 1.00793 0.36453 1.00709 0.0
H689 H 0.05604 0.38801 0.96855 0.0
H690 H 0.95593 0.24505 0.85794 0.0
H691 H 0.94638 0.30814 0.88306 0.0
H692 H 0.07992 0.31928 0.94892 0.0
H693 H 0.03993 0.30226 0.99709 0.0
H694 H 0.10286 0.34597 0.97718 0.0
H695 H 0.06357 0.32926 0.0245 0.0
H696 H 0.03493 0.23323 0.93674 0.0
H697 H 0.02505 0.25786 0.87915 0.0
H698 H 0.05454 0.20823 0.91675 0.0
H699 H 0.04488 0.23248 0.86018 0.0
H700 H 0.98095 0.23129 1.00026 0.0
H701 H 0.04816 0.24033 1.00535 0.0
H702 H 0.08983 0.30595 0.87131 0.0
H703 H 0.10825 0.26341 0.91068 0.0
Li704 Li 0.42085 0.04964 0.32229 0.0
Li705 Li 0.39054 0.02391 0.30355 0.0
Li706 Li 0.42034 0.03498 0.28445 0.0
Li707 Li 0.39729 0.05828 0.29586 0.0
C708 C 0.42847 1.00307 0.30208 0.0
N709 N 0.44713 0.96943 0.28682 0.0
C710 C 0.41701 0.98525 0.2881 0.0
C711 C 0.44942 1.00377 0.30832 0.0
C712 C 0.42672 0.96841 0.28057 0.0
C713 C 0.45857 0.98661 0.30042 0.0
C714 C 0.37471 0.04249 0.33469 0.0
C715 C 0.33796 0.03351 0.3386 0.0
N716 N 0.34225 0.02369 0.35508 0.0
C717 C 0.37874 0.0322 0.35159 0.0
C718 C 0.35414 0.04307 0.32807 0.0
C719 C 0.36213 0.02285 0.36173 0.0
C720 C 0.43283 0.06387 0.36706 0.0
N721 N 0.43944 0.05909 0.34726 0.0
C722 C 0.47463 0.06428 0.3622 0.0
C723 C 0.45991 0.05984 0.34447 0.0
C724 C 0.46813 0.06787 0.38299 0.0
C725 C 0.44698 0.06819 0.38528 0.0
H726 H 0.41652 0.06377 0.36875 0.0
H727 H 0.4647 0.05643 0.32843 0.0
C728 C 0.35341 0.9942 0.2908 0.0
N729 N 0.37047 0.99958 0.30525 0.0
C730 C 0.34089 0.97415 0.28797 0.0
C731 C 0.36287 0.96605 0.31611 0.0
C732 C 0.37503 0.98631 0.31835 0.0
C733 C 0.34615 0.95955 0.30008 0.0
H734 H 0.35027 1.00485 0.28042 0.0
H735 H 0.38893 0.9909 0.32945 0.0
C736 C 0.43533 0.08603 0.3062 0.0
N737 N 0.44968 0.12876 0.32182 0.0
C738 C 0.42692 0.09633 0.32383 0.0
C739 C 0.451 0.09749 0.29649 0.0
C740 C 0.4344 0.11793 0.33149 0.0
C741 C 0.45806 0.11907 0.30463 0.0
C742 C 0.37879 0.03507 0.25821 0.0
C743 C 0.38662 0.03554 0.23824 0.0
C744 C 0.35879 0.03912 0.26109 0.0
C745 C 0.37433 0.04001 0.22153 0.0
C746 C 0.34701 0.04354 0.24399 0.0
N747 N 0.35495 0.04389 0.22473 0.0
C748 C 0.43044 1.00921 0.24754 0.0
C749 C 0.45739 0.03749 0.26479 0.0
C750 C 0.44306 1.0034 0.23151 0.0
N751 N 0.43769 0.02619 0.26349 0.0
C752 C 0.47053 0.0323 0.24908 0.0
C753 C 0.46328 0.01525 0.23196 0.0
H754 H 0.4147 1.00045 0.24706 0.0
H755 H 0.46273 0.0508 0.27783 0.0
C756 C 0.37206 0.08912 0.30059 0.0
N757 N 0.38526 0.08028 0.28785 0.0
C758 C 0.35991 0.10213 0.29288 0.0
C759 C 0.37614 0.09759 0.25961 0.0
C760 C 0.38847 0.08529 0.26828 0.0
C761 C 0.36108 0.10567 0.27169 0.0
H762 H 0.37047 0.08551 0.31645 0.0
H763 H 0.3996 0.07849 0.2588 0.0
O764 O 0.41934 0.01989 0.30936 0.0
O765 O 0.39074 0.05132 0.32424 0.0
O766 O 0.42828 0.0649 0.29827 0.0
O767 O 0.39064 0.03072 0.27477 0.0
H768 H 0.4009 0.98456 0.28275 0.0
H769 H 0.45853 0.01742 0.31911 0.0
H770 H 0.41806 0.95457 0.26965 0.0
H771 H 0.47478 0.98696 0.30508 0.0
H772 H 0.32198 0.03382 0.33362 0.0
H773 H 0.39446 0.03094 0.35648 0.0
H774 H 0.35063 0.05061 0.31481 0.0
H775 H 0.36503 1.01476 0.37475 0.0
H776 H 0.49083 0.06442 0.35965 0.0
H777 H 0.44123 0.07083 0.40097 0.0
H778 H 0.32806 0.96963 0.27549 0.0
H779 H 0.36752 0.95507 0.32554 0.0
H780 H 0.41475 0.08781 0.33156 0.0
H781 H 0.45761 0.08978 0.28277 0.0
H782 H 0.42804 0.12608 0.34513 0.0
H783 H 0.47018 0.12813 0.29727 0.0
H784 H 0.4021 0.03275 0.2357 0.0
H785 H 0.35262 0.03939 0.27652 0.0
H786 H 0.38024 0.04048 0.20604 0.0
H787 H 0.33161 0.04689 0.2461 0.0
H788 H 0.43697 0.98998 0.21876 0.0
H789 H 0.48591 0.04202 0.24993 0.0
H790 H 0.34935 0.10884 0.30329 0.0
H791 H 0.37779 0.09974 0.24324 0.0
Li792 Li 0.29614 0.21323 0.53393 0.0
Li793 Li 0.3096 0.18513 0.51306 0.0
Li794 Li 0.2961 0.21116 0.4946 0.0
Li795 Li 0.27202 0.18497 0.51058 0.0
C796 C 0.33942 0.22157 0.52821 0.0
N797 N 0.37781 0.23187 0.55181 0.0
C798 C 0.34209 0.21451 0.54755 0.0
C799 C 0.35627 0.23381 0.52082 0.0
C800 C 0.36162 0.21991 0.55926 0.0
C801 C 0.37556 0.23887 0.533 0.0
C802 C 0.2855 0.16285 0.53977 0.0
C803 C 0.27945 0.12498 0.52759 0.0
N804 N 0.27562 0.12214 0.5478 0.0
C805 C 0.2815 0.15956 0.56042 0.0
C806 C 0.28448 0.14542 0.5232 0.0
C807 C 0.27654 0.13886 0.56416 0.0
C808 C 0.28562 0.2232 0.5764 0.0
N809 N 0.29901 0.23065 0.56267 0.0
C810 C 0.31726 0.2579 0.59136 0.0
C811 C 0.31438 0.248 0.56963 0.0
C812 C 0.30405 0.2501 0.60607 0.0
C813 C 0.28779 0.23273 0.59815 0.0
H814 H 0.27353 0.2094 0.57055 0.0
H815 H 0.32481 0.25381 0.55849 0.0
C816 C 0.34094 0.16427 0.49518 0.0
N817 N 0.33099 0.1685 0.51315 0.0
C818 C 0.35714 0.15294 0.49518 0.0
C819 C 0.35247 0.15043 0.53215 0.0
C820 C 0.33648 0.16188 0.53146 0.0
C821 C 0.36318 0.14587 0.51389 0.0
H822 H 0.33644 0.16994 0.4809 0.0
H823 H 0.32857 0.16561 0.54566 0.0
C824 C 0.27037 0.2354 0.52346 0.0
N825 N 0.26661 0.27435 0.54636 0.0
C826 C 0.25347 0.23716 0.5356 0.0
C827 C 0.28536 0.25344 0.52294 0.0
C828 C 0.25185 0.25699 0.54708 0.0
C829 C 0.28317 0.27299 0.53462 0.0
C830 C 0.27957 0.17344 0.46679 0.0
C831 C 0.26211 0.18191 0.46207 0.0
C832 C 0.28633 0.15921 0.45094 0.0
C833 C 0.25163 0.17591 0.4415 0.0
C834 C 0.27543 0.15359 0.43057 0.0
N835 N 0.25845 0.16199 0.42631 0.0
C836 C 0.31264 0.21829 0.45522 0.0
C837 C 0.28653 0.23788 0.465 0.0
C838 C 0.31417 0.22603 0.43596 0.0
N839 N 0.29903 0.22434 0.46935 0.0
C840 C 0.28771 0.24617 0.44606 0.0
C841 C 0.30168 0.2403 0.43116 0.0
H842 H 0.32216 0.2072 0.45879 0.0
H843 H 0.27538 0.24204 0.47607 0.0
C844 C 0.23112 0.17192 0.52217 0.0
N845 N 0.24495 0.16661 0.50804 0.0
C846 C 0.21191 0.15839 0.52206 0.0
C847 C 0.22155 0.134 0.49299 0.0
C848 C 0.24052 0.14802 0.49362 0.0
C849 C 0.20694 0.13901 0.50743 0.0
H850 H 0.23523 0.18641 0.53395 0.0
H851 H 0.25189 0.14375 0.48289 0.0
O852 O 0.32053 0.21629 0.51631 0.0
O853 O 0.29014 0.18306 0.53588 0.0
O854 O 0.2727 0.21605 0.51268 0.0
O855 O 0.29035 0.17938 0.48667 0.0
H856 H 0.32922 0.20501 0.5535 0.0
H857 H 0.35445 0.23931 0.50582 0.0
H858 H 0.3639 0.21457 0.57427 0.0
H859 H 0.38874 0.24835 0.52749 0.0
H860 H 0.27859 0.11136 0.51491 0.0
H861 H 0.28223 0.17288 0.57342 0.0
H862 H 0.28753 0.1476 0.50711 0.0
H863 H 0.27341 0.13609 0.58007 0.0
H864 H 0.32984 0.27141 0.59662 0.0
H865 H 0.27731 0.226 0.60881 0.0
H866 H 0.36508 0.15009 0.4808 0.0
H867 H 0.35627 0.14508 0.54684 0.0
H868 H 0.24176 0.22338 0.53624 0.0
H869 H 0.29869 0.2523 0.51384 0.0
H870 H 0.23888 0.25859 0.55659 0.0
H871 H 0.2947 0.28707 0.53444 0.0
H872 H 0.25672 0.19303 0.47412 0.0
H873 H 0.2999 0.15261 0.45434 0.0
H874 H 0.2381 0.18234 0.43761 0.0
H875 H 0.28048 0.14259 0.41813 0.0
H876 H 0.32524 0.22112 0.42508 0.0
H877 H 0.27751 0.25684 0.44297 0.0
H878 H 0.20136 0.16276 0.53378 0.0
H879 H 0.21841 0.11931 0.48137 0.0
Li880 Li 0.19455 0.05359 0.78336 0.0
Li881 Li 0.16522 0.02952 0.80153 0.0
Li882 Li 0.19169 1.00731 0.7786 0.0
Li883 Li 0.16427 0.02672 0.75887 0.0
C884 C 0.20056 0.03589 0.8272 0.0
N885 N 0.20418 0.04103 0.87142 0.0
C886 C 0.20231 0.05603 0.83979 0.0
C887 C 0.20061 0.01835 0.83703 0.0
C888 C 0.20415 0.0583 0.86215 0.0
C889 C 0.20248 0.02129 0.85943 0.0
C890 C 0.14848 0.06284 0.78657 0.0
C891 C 0.11244 0.06589 0.7826 0.0
N892 N 0.11737 0.08568 0.79486 0.0
C893 C 0.15322 0.08318 0.79913 0.0
C894 C 0.12796 0.05408 0.77823 0.0
C895 C 0.13725 0.09448 0.80315 0.0
C896 C 0.19982 0.0972 0.77335 0.0
N897 N 0.21054 0.08531 0.78398 0.0
C898 C 0.23854 0.11668 0.79397 0.0
C899 C 0.22982 0.09494 0.79415 0.0
C900 C 0.22753 0.12947 0.78349 0.0
C901 C 0.20783 0.11887 0.77299 0.0
H902 H 0.18467 0.0899 0.76509 0.0
H903 H 0.23858 0.08591 0.8027 0.0
C904 C 0.14233 1.01296 0.83864 0.0
N905 N 0.14926 0.03105 0.83089 0.0
C906 C 0.13228 1.01325 0.85807 0.0
C907 C 0.1363 0.05077 0.8624 0.0
C908 C 0.14637 0.04982 0.84284 0.0
C909 C 0.12868 0.0323 0.87072 0.0
H910 H 0.14467 0.99797 0.82983 0.0
H911 H 0.15194 0.06443 0.83739 0.0
C912 C 0.19688 0.02694 0.73582 0.0
N913 N 0.19661 0.02215 0.69174 0.0
C914 C 0.19479 1.00676 0.72323 0.0
C915 C 0.1989 0.0447 0.72605 0.0
C916 C 0.19469 1.00467 0.70095 0.0
C917 C 0.1987 0.04194 0.70372 0.0
C918 C 0.14348 0.98791 0.7663 0.0
C919 C 0.14738 0.97117 0.75116 0.0
C920 C 0.12299 0.98969 0.76978 0.0
C921 C 0.1306 0.95642 0.73963 0.0
C922 C 0.10663 0.97462 0.75791 0.0
N923 N 0.11075 0.95845 0.74321 0.0
C924 C 0.19853 0.96082 0.7834 0.0
C925 C 0.22652 0.97937 0.76904 0.0
C926 C 0.20847 0.94267 0.78235 0.0
N927 N 0.20742 0.97925 0.77691 0.0
C928 C 0.23694 0.96164 0.76779 0.0
C929 C 0.22838 0.9424 0.77459 0.0
H930 H 0.18344 0.95992 0.78961 0.0
H931 H 0.23403 0.99337 0.76352 0.0
C932 C 0.14672 0.04767 0.72497 0.0
N933 N 0.14749 0.02785 0.72891 0.0
C934 C 0.13715 0.05096 0.70542 0.0
C935 C 0.12886 1.01352 0.69314 0.0
C936 C 0.13871 1.01088 0.71304 0.0
C937 C 0.12766 0.03389 0.68869 0.0
H938 H 0.15391 0.06133 0.737 0.0
H939 H 0.13936 0.99505 0.71554 0.0
O940 O 0.19775 0.03323 0.80535 0.0
O941 O 0.16384 0.05148 0.78254 0.0
O942 O 0.19605 0.0292 0.75752 0.0
O943 O 0.15968 1.00269 0.77744 0.0
H944 H 0.20202 0.06971 0.83236 0.0
H945 H 0.19901 1.00263 0.82744 0.0
H946 H 0.20544 0.07377 0.87212 0.0
H947 H 0.20248 1.00786 0.86729 0.0
H948 H 0.09648 0.05934 0.77624 0.0
H949 H 0.16903 0.0901 0.80583 0.0
H950 H 0.12409 0.03835 0.76845 0.0
H951 H 0.14067 0.11024 0.81287 0.0
H952 H 0.25367 0.12354 0.80251 0.0
H953 H 0.19847 0.12722 0.76422 0.0
H954 H 0.12765 0.99827 0.86317 0.0
H955 H 0.13433 0.06609 0.87076 0.0
H956 H 0.19305 0.99286 0.73059 0.0
H957 H 0.20032 0.06041 0.7356 0.0
H958 H 0.19299 0.98914 0.69098 0.0
H959 H 0.20012 0.05552 0.69591 0.0
H960 H 0.1632 0.96966 0.74828 0.0
H961 H 0.11977 1.00258 0.78149 0.0
H962 H 0.13336 0.94339 0.72781 0.0
H963 H 0.09067 0.9758 0.76038 0.0
H964 H 0.20052 0.92894 0.78802 0.0
H965 H 0.25179 0.96321 0.76109 0.0
H966 H 0.13767 0.06716 0.70347 0.0
H967 H 0.12204 0.99949 0.68142 0.0
Li968 Li 0.27442 0.97786 1.01047 0.0
Li969 Li 0.29369 0.95423 0.02581 0.0
Li970 Li 0.31575 0.98161 1.01187 0.0
Li971 Li 0.29241 0.94983 0.98637 0.0
C972 C 0.294 0.98896 0.0568 0.0
N973 N 0.28864 0.99486 0.10014 0.0
C974 C 0.27627 0.97801 0.06406 0.0
C975 C 0.30885 1.00318 0.07157 0.0
C976 C 0.27389 0.98111 0.08603 0.0
C977 C 0.3059 1.00588 0.09341 0.0
C978 C 0.25291 0.93027 1.007 0.0
C979 C 0.23592 0.89346 0.99905 0.0
N980 N 0.22061 0.89817 1.0115 0.0
C981 C 0.23684 0.93479 0.01948 0.0
C982 C 0.25232 0.90949 0.99647 0.0
C983 C 0.22071 0.91833 0.02165 0.0
C984 C 0.23305 0.98258 0.99543 0.0
N985 N 0.24802 0.98941 1.01226 0.0
C986 C 0.22366 1.00622 0.03292 0.0
C987 C 0.24366 1.00133 0.03072 0.0
C988 C 0.20762 0.99883 0.01603 0.0
C989 C 0.21293 0.98719 0.99691 0.0
H990 H 0.23649 0.97289 0.98096 0.0
H991 H 0.25546 1.00648 0.04414 0.0
C992 C 0.31338 0.94662 0.06293 0.0
N993 N 0.29605 0.93882 0.04898 0.0
C994 C 0.31847 0.93574 0.07892 0.0
C995 C 0.28744 0.9092 0.06654 0.0
C996 C 0.28297 0.92058 0.05067 0.0
C997 C 0.30561 0.91657 0.08069 0.0
H998 H 0.32367 0.96102 0.06115 0.0
H999 H 0.26942 0.91442 0.03939 0.0
C1000 C 0.3016 0.99726 0.97621 0.0
N1001 N 0.31727 0.02996 0.95583 0.0
C1002 C 0.30944 0.99288 0.95628 0.0
C1003 C 0.30163 0.0182 0.98576 0.0
C1004 C 0.31732 1.00966 0.94623 0.0
C1005 C 0.30966 0.03454 0.9752 0.0
C1006 C 0.32543 0.93566 1.01281 0.0
C1007 C 0.34501 0.94063 0.02443 0.0
C1008 C 0.3149 0.91458 1.00767 0.0
C1009 C 0.35358 0.92443 0.03102 0.0
C1010 C 0.32399 0.89884 1.01455 0.0
N1011 N 0.34297 0.90405 0.02602 0.0
C1012 C 0.35557 1.00021 0.03502 0.0
C1013 C 0.35565 1.00103 0.99802 0.0
C1014 C 0.37738 1.00631 0.03791 0.0
N1015 N 0.34504 0.99737 1.01527 0.0
C1016 C 0.37754 1.00728 1.00022 0.0
C1017 C 0.3889 1.00948 0.0203 0.0
H1018 H 0.34721 0.99629 0.04839 0.0
H1019 H 0.34736 0.99792 0.98225 0.0
C1020 C 0.27407 0.92214 0.94643 0.0
N1021 N 0.2919 0.93029 0.95954 0.0
C1022 C 0.27402 0.90673 0.92802 0.0
C1023 C 0.31069 0.90854 0.93672 0.0
C1024 C 0.31006 0.92402 0.95482 0.0
C1025 C 0.29246 0.89942 0.92303 0.0
H1026 H 0.25979 0.92734 0.95047 0.0
H1027 H 0.32408 0.93071 0.96542 0.0
O1028 O 0.29667 0.98596 0.03534 0.0
O1029 O 0.26873 0.9462 1.00446 0.0
O1030 O 0.294 0.98109 0.98637 0.0
O1031 O 0.31643 0.95136 1.00679 0.0
H1032 H 0.26462 0.96702 0.05287 0.0
H1033 H 0.3224 1.01221 0.06623 0.0
H1034 H 0.26032 0.97258 0.09186 0.0
H1035 H 0.3173 0.0168 0.10502 0.0
H1036 H 0.23534 0.87729 0.99109 0.0
H1037 H 0.23671 0.95083 0.02731 0.0
H1038 H 0.26436 0.90574 0.98638 0.0
H1039 H 0.20823 0.92159 0.03133 0.0
H1040 H 0.22065 0.01504 0.0481 0.0
H1041 H 0.20158 0.98138 0.98313 0.0
H1042 H 0.33251 0.94216 0.08962 0.0
H1043 H 0.27718 0.89438 0.0672 0.0
H1044 H 0.30951 0.9767 0.94873 0.0
H1045 H 0.29559 0.02178 1.0012 0.0
H1046 H 0.3235 1.00654 0.93083 0.0
H1047 H 0.30984 0.05085 0.9824 0.0
H1048 H 0.35344 0.9568 0.02849 0.0
H1049 H 0.29978 0.91046 0.99867 0.0
H1050 H 0.36866 0.92807 0.04016 0.0
H1051 H 0.31592 0.88248 1.01083 0.0
H1052 H 0.38519 1.0079 0.05377 0.0
H1053 H 0.38553 1.0092 0.98604 0.0
H1054 H 0.25961 0.90059 0.91786 0.0
H1055 H 0.32524 0.90339 0.9339 0.0
Li1056 Li 0.3062 0.40418 0.04795 0.0
Li1057 Li 0.32009 0.37898 0.06639 0.0
Li1058 Li 0.34334 0.40567 0.04989 0.0
Li1059 Li 0.32016 0.37582 0.02537 0.0
C1060 C 0.31859 0.42541 0.08796 0.0
N1061 N 0.30322 0.45557 0.11527 0.0
C1062 C 0.30967 0.42039 0.10632 0.0
C1063 C 0.31983 0.44583 0.08358 0.0
C1064 C 0.30196 0.43584 0.11991 0.0
C1065 C 0.31193 0.46083 0.09755 0.0
C1066 C 0.27555 0.37017 0.04726 0.0
C1067 C 0.23919 0.35981 0.03418 0.0
N1068 N 0.23393 0.36599 0.05437 0.0
C1069 C 0.26976 0.37629 0.0679 0.0
C1070 C 0.26014 0.36174 0.03027 0.0
C1071 C 0.24866 0.37409 0.07117 0.0
C1072 C 0.28058 0.42436 0.02545 0.0
N1073 N 0.28406 0.41993 0.04535 0.0
C1074 C 0.25556 0.43588 0.05733 0.0
C1075 C 0.27184 0.42538 0.0612 0.0
C1076 C 0.25179 0.44084 0.03696 0.0
C1077 C 0.2646 0.4349 0.02093 0.0
H1078 H 0.29007 0.41944 1.0129 0.0
H1079 H 0.27452 0.42144 0.07682 0.0
C1080 C 0.33244 0.37141 0.10805 0.0
N1081 N 0.31779 0.36444 0.09097 0.0
C1082 C 0.33042 0.36303 0.12693 0.0
C1083 C 0.2984 0.34018 0.11036 0.0
C1084 C 0.30117 0.34881 0.09172 0.0
C1085 C 0.31304 0.34732 0.12854 0.0
H1086 H 0.34555 0.38385 0.10719 0.0
H1087 H 0.28971 0.34333 0.07802 0.0
C1088 C 0.33627 0.41976 1.01421 0.0
N1089 N 0.36151 0.44739 0.99394 0.0
C1090 C 0.34843 0.41201 0.9985 0.0
C1091 C 0.33678 0.44154 0.01948 0.0
C1092 C 0.36112 0.42624 0.98846 0.0
C1093 C 0.3497 0.45526 1.00909 0.0
C1094 C 0.34669 0.35418 0.04505 0.0
C1095 C 0.36687 0.35008 0.04503 0.0
C1096 C 0.32969 0.33736 0.04293 0.0
C1097 C 0.36974 0.32916 0.04295 0.0
C1098 C 0.33321 0.31668 0.0409 0.0
N1099 N 0.35299 0.31304 0.04095 0.0
C1100 C 0.37418 0.44355 0.0644 0.0
C1101 C 0.38497 0.41749 0.03909 0.0
C1102 C 0.39283 0.45778 0.06403 0.0
N1103 N 0.37043 0.42395 0.05176 0.0
C1104 C 0.40385 0.43123 0.03822 0.0
C1105 C 0.40789 0.45187 0.05055 0.0
H1106 H 0.36256 0.44832 0.0745 0.0
H1107 H 0.38162 0.40186 0.0291 0.0
C1108 C 0.29916 0.36159 0.98464 0.0
N1109 N 0.31652 0.35962 0.99626 0.0
C1110 C 0.29606 0.35397 0.9625 0.0
C1111 C 0.32892 0.34241 0.96427 0.0
C1112 C 0.33122 0.34996 0.98661 0.0
C1113 C 0.31132 0.34481 0.95172 0.0
H1114 H 0.28813 0.37006 0.99243 0.0
H1115 H 0.34525 0.34912 0.996 0.0
O1116 O 0.32633 0.41051 0.07453 0.0
O1117 O 0.29617 0.37251 0.04376 0.0
O1118 O 0.32421 0.40614 0.02468 0.0
O1119 O 0.3437 0.37458 0.04696 0.0
H1120 H 0.30864 0.40473 0.11006 0.0
H1121 H 0.32656 0.44997 0.0694 0.0
H1122 H 0.29495 0.43214 0.13414 0.0
H1123 H 0.31266 0.47664 0.09427 0.0
H1124 H 0.22711 0.35335 0.02115 0.0
H1125 H 0.28145 0.38292 0.08121 0.0
H1126 H 0.26424 0.35659 1.01425 0.0
H1127 H 0.244 0.37891 0.08705 0.0
H1128 H 0.24612 0.4402 0.0702 0.0
H1129 H 0.26203 0.43796 1.00486 0.0
H1130 H 0.34246 0.36886 0.1401 0.0
H1131 H 0.28457 0.32837 0.11059 0.0
H1132 H 0.34833 0.39522 0.99432 0.0
H1133 H 0.32737 0.44778 0.0315 0.0
H1134 H 0.37074 0.42048 0.97638 0.0
H1135 H 0.35034 0.47217 1.01309 0.0
H1136 H 0.38017 0.36294 0.0466 0.0
H1137 H 0.31395 0.34018 0.04283 0.0
H1138 H 0.38528 0.32575 0.04291 0.0
H1139 H 0.32021 0.30351 0.03927 0.0
H1140 H 0.39534 0.47335 0.07413 0.0
H1141 H 0.41484 0.42598 0.02743 0.0
H1142 H 0.282 0.35587 0.95387 0.0
H1143 H 0.34129 0.33576 0.95686 0.0
Li1144 Li 0.82242 0.14622 0.06872 0.0
Li1145 Li 0.84072 0.11913 0.04471 0.0
Li1146 Li 0.82072 0.14166 0.02929 0.0
Li1147 Li 0.79974 0.11388 0.04463 0.0
C1148 C 0.85785 0.16691 0.04282 0.0
N1149 N 0.8813 0.19925 0.02669 0.0
C1150 C 0.87656 0.16421 0.03426 0.0
C1151 C 0.85113 0.18609 0.04327 0.0
C1152 C 0.88818 0.18075 0.02618 0.0
C1153 C 0.86318 0.20223 0.03499 0.0
C1154 C 0.8185 0.09541 0.07462 0.0
C1155 C 0.81858 0.05801 0.06566 0.0
N1156 N 0.81117 0.05544 0.08479 0.0
C1157 C 0.81085 0.09242 0.09417 0.0
C1158 C 0.82236 0.07808 0.06021 0.0
C1159 C 0.80726 0.07208 0.09902 0.0
C1160 C 0.80901 0.1574 0.10991 0.0
N1161 N 0.82173 0.16508 0.09577 0.0
C1162 C 0.82782 0.19983 0.11774 0.0
C1163 C 0.83149 0.18579 0.09961 0.0
C1164 C 0.81432 0.1925 0.1325 0.0
C1165 C 0.80536 0.17071 0.12851 0.0
H1166 H 0.80119 0.14097 0.10643 0.0
H1167 H 0.84141 0.19169 0.08813 0.0
C1168 C 0.87094 0.09372 0.02617 0.0
N1169 N 0.86719 0.10782 0.04334 0.0
C1170 C 0.89091 0.08873 0.02423 0.0
C1171 C 0.90275 0.11193 0.05813 0.0
C1172 C 0.88266 0.11659 0.05933 0.0
C1173 C 0.90749 0.09816 0.04014 0.0
H1174 H 0.8586 0.08669 1.01359 0.0
H1175 H 0.8796 0.12782 0.07286 0.0
C1176 C 0.78339 0.1558 0.04809 0.0
N1177 N 0.75299 0.18009 0.04775 0.0
C1178 C 0.76338 0.14674 0.03823 0.0
C1179 C 0.78794 0.17727 0.05759 0.0
C1180 C 0.74823 0.15927 0.03828 0.0
C1181 C 0.77236 0.18927 0.0573 0.0
C1182 C 0.81299 0.10849 0.99864 0.0
C1183 C 0.7933 0.11113 0.99126 0.0
C1184 C 0.82776 0.10526 0.98404 0.0
C1185 C 0.78869 0.11046 0.96936 0.0
C1186 C 0.82254 0.10465 0.96226 0.0
N1187 N 0.80328 0.10725 0.95544 0.0
C1188 C 0.83648 0.15776 0.99284 0.0
C1189 C 0.80367 0.16569 1.00079 0.0
C1190 C 0.83644 0.16794 0.97519 0.0
N1191 N 0.82031 0.15691 1.00539 0.0
C1192 C 0.80292 0.1759 0.98327 0.0
C1193 C 0.81943 0.17713 0.97016 0.0
H1194 H 0.84933 0.15021 0.99632 0.0
H1195 H 0.79073 0.16459 1.01042 0.0
C1196 C 0.7617 0.10271 0.06247 0.0
N1197 N 0.7714 0.09722 0.04454 0.0
C1198 C 0.74015 0.09594 0.06276 0.0
C1199 C 0.73872 0.0772 0.02636 0.0
C1200 C 0.7604 0.08425 0.0268 0.0
C1201 C 0.72811 0.08336 0.04438 0.0
H1202 H 0.77053 0.11343 0.07623 0.0
H1203 H 0.7682 0.08012 1.01259 0.0
O1204 O 0.84617 0.15082 0.05062 0.0
O1205 O 0.82181 0.11511 0.0694 0.0
O1206 O 0.79843 0.14374 0.0483 0.0
O1207 O 0.81789 0.10967 0.02013 0.0
H1208 H 0.88196 0.14944 0.03368 0.0
H1209 H 0.83656 0.18834 0.04954 0.0
H1210 H 0.90265 0.17885 0.01944 0.0
H1211 H 0.85807 0.21709 0.03508 0.0
H1212 H 0.82149 0.04445 0.05467 0.0
H1213 H 0.80771 0.10563 0.10548 0.0
H1214 H 0.82809 0.08009 0.04492 0.0
H1215 H 0.80135 0.06952 0.11409 0.0
H1216 H 0.83497 0.21639 0.11961 0.0
H1217 H 0.79534 0.16386 0.13945 0.0
H1218 H 0.89341 0.07811 1.00995 0.0
H1219 H 0.91451 0.11931 0.07123 0.0
H1220 H 0.75961 0.1303 0.03039 0.0
H1221 H 0.80335 0.18466 0.06498 0.0
H1222 H 0.7327 0.15245 0.03072 0.0
H1223 H 0.77569 0.20589 0.06462 0.0
H1224 H 0.78186 0.11419 1.00238 0.0
H1225 H 0.8432 0.10362 0.98946 0.0
H1226 H 0.77357 0.11264 0.96347 0.0
H1227 H 0.83385 0.10226 0.9508 0.0
H1228 H 0.84938 0.16823 0.96534 0.0
H1229 H 0.78956 0.18291 0.98013 0.0
H1230 H 0.73288 0.10142 0.07698 0.0
H1231 H 0.73032 0.06729 1.01189 0.0
Li1232 Li 0.22917 0.55709 0.23181 0.0
Li1233 Li 0.20067 0.53896 0.24776 0.0
Li1234 Li 0.22826 0.52163 0.23618 0.0
Li1235 Li 0.20395 0.52872 0.21049 0.0
C1236 C 0.23271 0.56344 0.27622 0.0
N1237 N 0.23807 0.59719 0.31035 0.0
C1238 C 0.22385 0.58111 0.27458 0.0
C1239 C 0.24441 0.56305 0.29522 0.0
C1240 C 0.22671 0.59797 0.292 0.0
C1241 C 0.2469 0.58023 0.3123 0.0
C1242 C 0.17905 0.55824 0.22037 0.0
C1243 C 0.14215 0.54389 0.21616 0.0
N1244 N 0.13855 0.56166 0.20939 0.0
C1245 C 0.17497 0.57638 0.21341 0.0
C1246 C 0.1625 0.54187 0.22179 0.0
C1247 C 0.1544 0.5778 0.20792 0.0
C1248 C 0.2397 0.59707 0.2209 0.0
N1249 N 0.24651 0.58355 0.2324 0.0
C1250 C 0.27556 0.61011 0.24894 0.0
C1251 C 0.26431 0.58946 0.24586 0.0
C1252 C 0.26822 0.62485 0.23832 0.0
C1253 C 0.25036 0.61798 0.22366 0.0
H1254 H 0.22545 0.59185 0.21038 0.0
H1255 H 0.26923 0.57847 0.25504 0.0
C1256 C 0.1765 0.52449 0.27869 0.0
N1257 N 0.18188 0.54147 0.26909 0.0
C1258 C 0.16267 0.52512 0.29454 0.0
C1259 C 0.16039 0.56081 0.29042 0.0
C1260 C 0.17409 0.5594 0.27451 0.0
C1261 C 0.15454 0.5435 0.30061 0.0
H1262 H 0.18303 0.51049 0.27404 0.0
H1263 H 0.17847 0.5726 0.26646 0.0
C1264 C 0.25524 0.53645 0.20677 0.0
N1265 N 0.29697 0.54209 0.2 0.0
C1266 C 0.26129 0.53484 0.18591 0.0
C1267 C 0.27042 0.54091 0.22418 0.0
C1268 C 0.28246 0.53776 0.18281 0.0
C1269 C 0.29143 0.54371 0.22043 0.0
C1270 C 0.1951 0.4889 0.22128 0.0
C1271 C 0.20563 0.48324 0.2033 0.0
C1272 C 0.18154 0.47327 0.2288 0.0
C1273 C 0.20244 0.462 0.19319 0.0
C1274 C 0.17876 0.45219 0.21824 0.0
N1275 N 0.18919 0.44704 0.20081 0.0
C1276 C 0.24917 0.50522 0.26553 0.0
C1277 C 0.25532 0.4917 0.22983 0.0
C1278 C 0.26434 0.49564 0.27372 0.0
N1279 N 0.24535 0.50351 0.24402 0.0
C1280 C 0.27042 0.48147 0.23732 0.0
C1281 C 0.27538 0.48373 0.25958 0.0
H1282 H 0.24089 0.51468 0.27634 0.0
H1283 H 0.25209 0.49083 0.21277 0.0
C1284 C 0.19594 0.53207 0.16836 0.0
N1285 N 0.18865 0.52096 0.18343 0.0
C1286 C 0.18341 0.53124 0.14964 0.0
C1287 C 0.15643 0.50688 0.16203 0.0
C1288 C 0.16958 0.50802 0.18044 0.0
C1289 C 0.16314 0.51907 0.14669 0.0
H1290 H 0.211 0.54258 0.17153 0.0
H1291 H 0.16406 0.49969 0.19293 0.0
O1292 O 0.23038 0.54674 0.2593 0.0
O1293 O 0.1992 0.55656 0.22545 0.0
O1294 O 0.23452 0.53349 0.2099 0.0
O1295 O 0.19787 0.50957 0.23157 0.0
H1296 H 0.215 0.58195 0.25999 0.0
H1297 H 0.25162 0.54968 0.29678 0.0
H1298 H 0.21994 0.61172 0.2909 0.0
H1299 H 0.2559 0.5801 0.32709 0.0
H1300 H 0.12922 0.5313 0.21713 0.0
H1301 H 0.18757 0.58922 0.21222 0.0
H1302 H 0.16529 0.52767 0.22707 0.0
H1303 H 0.15103 0.59174 0.20248 0.0
H1304 H 0.2894 0.61469 0.26016 0.0
H1305 H 0.244 0.62888 0.21534 0.0
H1306 H 0.15865 0.51155 0.3022 0.0
H1307 H 0.15425 0.57516 0.29456 0.0
H1308 H 0.24971 0.53134 0.17224 0.0
H1309 H 0.26607 0.5421 0.24043 0.0
H1310 H 0.28736 0.53655 0.16674 0.0
H1311 H 0.30333 0.54714 0.23378 0.0
H1312 H 0.2161 0.49505 0.19712 0.0
H1313 H 0.17322 0.47739 0.24266 0.0
H1314 H 0.2105 0.4574 0.17928 0.0
H1315 H 0.16831 0.43994 0.22391 0.0
H1316 H 0.26774 0.4981 0.29096 0.0
H1317 H 0.27823 0.47211 0.22582 0.0
H1318 H 0.18902 0.54105 0.13828 0.0
H1319 H 0.14092 0.49724 0.1602 0.0
Li1320 Li 0.80771 0.90651 0.54857 0.0
Li1321 Li 0.82183 0.88229 0.56808 0.0
Li1322 Li 0.8449 0.90837 0.55096 0.0
Li1323 Li 0.82232 0.87749 0.52728 0.0
C1324 C 0.82101 0.93004 0.58782 0.0
N1325 N 0.8074 0.96288 0.61313 0.0
C1326 C 0.81117 0.92669 0.60622 0.0
C1327 C 0.82416 0.95018 0.58249 0.0
C1328 C 0.80436 0.94347 0.61876 0.0
C1329 C 0.81709 0.96655 0.59542 0.0
C1330 C 0.77781 0.87121 0.55039 0.0
C1331 C 0.7412 0.8575 0.54024 0.0
N1332 N 0.73713 0.86391 0.56084 0.0
C1333 C 0.77325 0.87759 0.57146 0.0
C1334 C 0.76166 0.86103 0.53464 0.0
C1335 C 0.7526 0.87379 0.57643 0.0
C1336 C 0.78286 0.92857 0.52691 0.0
N1337 N 0.78585 0.92248 0.54609 0.0
C1338 C 0.75827 0.93907 0.55952 0.0
C1339 C 0.77375 0.92731 0.56223 0.0
C1340 C 0.75508 0.94589 0.53997 0.0
C1341 C 0.76765 0.9404 0.52353 0.0
H1342 H 0.79236 0.92427 0.51415 0.0
H1343 H 0.77601 0.92204 0.57723 0.0
C1344 C 0.8313 0.87859 0.61171 0.0
N1345 N 0.81965 0.86856 0.59309 0.0
C1346 C 0.82919 0.87025 0.63058 0.0
C1347 C 0.8035 0.84104 0.61077 0.0
C1348 C 0.80604 0.84999 0.5923 0.0
C1349 C 0.81507 0.85122 0.63038 0.0
H1350 H 0.84205 0.89333 0.61201 0.0
H1351 H 0.79686 0.84226 0.57741 0.0
C1352 C 0.8369 0.92111 0.51377 0.0
N1353 N 0.85964 0.94844 0.4912 0.0
C1354 C 0.84762 0.9132 0.49677 0.0
C1355 C 0.83749 0.94291 0.51905 0.0
C1356 C 0.8591 0.92727 0.48562 0.0
C1357 C 0.84915 0.95647 0.50752 0.0
C1358 C 0.8488 0.85736 0.54921 0.0
C1359 C 0.8688 0.85388 0.55404 0.0
C1360 C 0.83208 0.84016 0.54417 0.0
C1361 C 0.87177 0.83319 0.55378 0.0
C1362 C 0.83569 0.81971 0.54409 0.0
N1363 N 0.85529 0.81668 0.54886 0.0
C1364 C 0.87741 0.94426 0.56832 0.0
C1365 C 0.88473 0.92167 0.53751 0.0
C1366 C 0.89639 0.95816 0.56846 0.0
N1367 N 0.87181 0.92659 0.55277 0.0
C1368 C 0.90371 0.93523 0.53688 0.0
C1369 C 0.90978 0.95393 0.5524 0.0
H1370 H 0.86712 0.94766 0.58057 0.0
H1371 H 0.88007 0.90737 0.5255 0.0
C1372 C 0.80177 0.85647 0.48664 0.0
N1373 N 0.82002 0.85949 0.49912 0.0
C1374 C 0.80004 0.84666 0.465 0.0
C1375 C 0.83596 0.8432 0.46921 0.0
C1376 C 0.83689 0.85274 0.49093 0.0
C1377 C 0.81743 0.84035 0.45568 0.0
H1378 H 0.78874 0.86245 0.49326 0.0
H1379 H 0.85143 0.8558 0.50095 0.0
O1380 O 0.82772 0.91377 0.57525 0.0
O1381 O 0.79795 0.8749 0.54522 0.0
O1382 O 0.82583 0.9076 0.52512 0.0
O1383 O 0.8457 0.87755 0.54949 0.0
H1384 H 0.80868 0.91129 0.61074 0.0
H1385 H 0.83196 0.95315 0.56851 0.0
H1386 H 0.79662 0.94105 0.63296 0.0
H1387 H 0.81933 0.98218 0.59138 0.0
H1388 H 0.72856 0.84964 0.5282 0.0
H1389 H 0.7855 0.88557 0.58381 0.0
H1390 H 0.76486 0.85583 0.51829 0.0
H1391 H 0.74888 0.87874 0.59267 0.0
H1392 H 0.74875 0.94257 0.57254 0.0
H1393 H 0.76598 0.94544 0.50826 0.0
H1394 H 0.8387 0.87855 0.64513 0.0
H1395 H 0.79227 0.82647 0.60973 0.0
H1396 H 0.84732 0.89641 0.4924 0.0
H1397 H 0.82896 0.9493 0.53183 0.0
H1398 H 0.86761 0.92136 0.47255 0.0
H1399 H 0.84981 0.97338 0.51151 0.0
H1400 H 0.8819 0.86705 0.55796 0.0
H1401 H 0.8165 0.84251 0.54032 0.0
H1402 H 0.88717 0.83026 0.5575 0.0
H1403 H 0.8229 0.80626 0.54023 0.0
H1404 H 0.9005 0.97206 0.58107 0.0
H1405 H 0.91324 0.93129 0.524 0.0
H1406 H 0.78523 0.8445 0.45562 0.0
H1407 H 0.84996 0.839 0.46296 0.0
Li1408 Li 0.94416 0.06919 0.29725 0.0
Li1409 Li 0.91272 0.04229 0.27213 0.0
Li1410 Li 0.94177 0.06613 0.25428 0.0
Li1411 Li 0.91568 0.08842 0.27579 0.0
C1412 C 0.95681 0.03191 0.26418 0.0
N1413 N 0.98348 1.00812 0.24438 0.0
C1414 C 0.94887 1.01376 0.24874 0.0
C1415 C 0.97828 0.03802 0.26956 0.0
C1416 C 0.96262 1.00193 0.23891 0.0
C1417 C 0.99152 0.02575 0.25937 0.0
C1418 C 0.9095 0.06973 0.31927 0.0
C1419 C 0.9064 0.09223 0.35281 0.0
N1420 N 0.90627 0.07551 0.36297 0.0
C1421 C 0.9093 0.05276 0.33 0.0
C1422 C 0.90805 0.08964 0.33071 0.0
C1423 C 0.90768 0.05601 0.35212 0.0
C1424 C 0.96309 0.08601 0.34451 0.0
N1425 N 0.96088 0.06932 0.32763 0.0
C1426 C 0.9782 0.05063 0.35164 0.0
C1427 C 0.96845 0.05181 0.3312 0.0
C1428 C 0.98043 0.06748 0.36955 0.0
C1429 C 0.97264 0.08542 0.36517 0.0
H1430 H 0.95715 0.09996 0.34221 0.0
H1431 H 0.96665 0.03829 0.31824 0.0
C1432 C 0.87724 1.00099 0.26053 0.0
N1433 N 0.89582 1.01092 0.27209 0.0
C1434 C 0.86791 0.97949 0.26124 0.0
C1435 C 0.89649 0.97826 0.28578 0.0
C1436 C 0.90523 0.99959 0.28462 0.0
C1437 C 0.8775 0.96728 0.27386 0.0
H1438 H 0.86953 1.00954 0.2504 0.0
H1439 H 0.91989 1.00706 0.29384 0.0
C1440 C 0.96394 0.10788 0.27547 0.0
N1441 N 0.99675 0.13811 0.26835 0.0
C1442 C 0.9603 0.12348 0.26399 0.0
C1443 C 0.98421 0.10763 0.28338 0.0
C1444 C 0.97712 0.13864 0.26056 0.0
C1445 C 1.00061 0.12306 0.27959 0.0
C1446 C 0.90592 0.05997 0.22809 0.0
C1447 C 0.9093 0.07777 0.21841 0.0
C1448 C 0.89933 0.03981 0.21544 0.0
C1449 C 0.90609 0.07509 0.19607 0.0
C1450 C 0.89626 0.0378 0.19316 0.0
N1451 N 0.89969 0.05533 0.18402 0.0
C1452 C 0.95394 0.04733 0.20838 0.0
C1453 C 0.97496 0.08019 0.22306 0.0
C1454 C 0.96459 0.04621 0.18915 0.0
N1455 N 0.95885 0.0643 0.22525 0.0
C1456 C 0.98599 0.07964 0.20423 0.0
C1457 C 0.98105 0.06261 0.18625 0.0
H1458 H 0.94151 0.03434 0.20955 0.0
H1459 H 0.97957 0.09365 0.23599 0.0
C1460 C 0.90958 0.13689 0.28586 0.0
N1461 N 0.89974 0.11636 0.27719 0.0
C1462 C 0.89943 0.15487 0.28647 0.0
C1463 C 0.86874 0.13136 0.2693 0.0
C1464 C 0.87941 0.11388 0.26891 0.0
C1465 C 0.87831 0.15279 0.27828 0.0
H1466 H 0.92562 0.13968 0.29251 0.0
H1467 H 0.87109 0.09812 0.26171 0.0
O1468 O 0.94366 0.044 0.27352 0.0
O1469 O 0.91195 0.06711 0.29781 0.0
O1470 O 0.94772 0.09294 0.27901 0.0
O1471 O 0.90949 0.06223 0.24985 0.0
H1472 H 0.93227 1.00897 0.24428 0.0
H1473 H 0.98463 0.05214 0.28139 0.0
H1474 H 0.95672 0.98786 0.22688 0.0
H1475 H 1.00819 0.03028 0.26334 0.0
H1476 H 0.90532 0.10756 0.3619 0.0
H1477 H 0.91064 0.03732 0.32138 0.0
H1478 H 0.90837 0.10297 0.32262 0.0
H1479 H 0.90761 0.04305 0.36067 0.0
H1480 H 0.98345 0.0362 0.35342 0.0
H1481 H 0.97391 0.09927 0.37765 0.0
H1482 H 0.85345 0.9724 0.25149 0.0
H1483 H 0.90478 0.97055 0.2963 0.0
H1484 H 0.94467 0.1238 0.25772 0.0
H1485 H 0.98722 0.09563 0.29231 0.0
H1486 H 0.97457 0.15079 0.25166 0.0
H1487 H 0.0164 0.12307 0.28557 0.0
H1488 H 0.91452 0.09346 0.22804 0.0
H1489 H 0.89679 0.02588 0.22275 0.0
H1490 H 0.90873 0.08871 0.18832 0.0
H1491 H 0.89123 0.0223 0.18313 0.0
H1492 H 0.95956 0.03252 0.17646 0.0
H1493 H 0.99865 0.09275 0.20414 0.0
H1494 H 0.90822 0.17042 0.29375 0.0
H1495 H 0.85284 0.12779 0.26214 0.0
Li1496 Li 0.31864 0.6463 0.56397 0.0
Li1497 Li 0.33647 0.6218 0.54114 0.0
Li1498 Li 0.31782 0.64708 0.52522 0.0
Li1499 Li 0.29627 0.61643 0.53897 0.0
C1500 C 0.3602 0.66199 0.56054 0.0
N1501 N 0.39609 0.67796 0.58781 0.0
C1502 C 0.3652 0.65159 0.57704 0.0
C1503 C 0.3734 0.68055 0.55795 0.0
C1504 C 0.38343 0.6599 0.59064 0.0
C1505 C 0.39149 0.68837 0.5719 0.0
C1506 C 0.31829 0.59596 0.56838 0.0
C1507 C 0.31016 0.55779 0.55933 0.0
N1508 N 0.32212 0.55681 0.57723 0.0
C1509 C 0.33039 0.59458 0.58676 0.0
C1510 C 0.30799 0.57744 0.55461 0.0
C1511 C 0.33217 0.57464 0.59092 0.0
C1512 C 0.30487 0.6558 0.60524 0.0
N1513 N 0.31771 0.66418 0.59157 0.0
C1514 C 0.32477 0.69794 0.61548 0.0
C1515 C 0.32762 0.68486 0.59631 0.0
C1516 C 0.31142 0.68979 0.62991 0.0
C1517 C 0.30142 0.66833 0.62443 0.0
H1518 H 0.29676 0.63948 0.6009 0.0
H1519 H 0.3374 0.69136 0.585 0.0
C1520 C 0.37811 0.6236 0.5293 0.0
N1521 N 0.36319 0.61076 0.53765 0.0
C1522 C 0.39812 0.61901 0.52716 0.0
C1523 C 0.38726 0.58719 0.54103 0.0
C1524 C 0.36744 0.59261 0.54332 0.0
C1525 C 0.40317 0.60065 0.53316 0.0
H1526 H 0.37461 0.63776 0.52448 0.0
H1527 H 0.3556 0.58234 0.54979 0.0
C1528 C 0.28538 0.66201 0.5534 0.0
N1529 N 0.26743 0.69346 0.57536 0.0
C1530 C 0.26852 0.65673 0.56521 0.0
C1531 C 0.29304 0.68324 0.55262 0.0
C1532 C 0.25968 0.67288 0.57623 0.0
C1533 C 0.28377 0.69892 0.56387 0.0
C1534 C 0.30996 0.59865 0.49917 0.0
C1535 C 0.2972 0.59963 0.48111 0.0
C1536 C 0.31694 0.57991 0.50062 0.0
C1537 C 0.29126 0.58166 0.46495 0.0
C1538 C 0.31067 0.56228 0.48412 0.0
N1539 N 0.29805 0.5635 0.46679 0.0
C1540 C 0.33404 0.67702 0.49959 0.0
C1541 C 0.29813 0.66169 0.49222 0.0
C1542 C 0.33272 0.68924 0.48369 0.0
N1543 N 0.31685 0.66364 0.50351 0.0
C1544 C 0.29615 0.67345 0.47609 0.0
C1545 C 0.31357 0.68749 0.47166 0.0
H1546 H 0.34873 0.67821 0.50882 0.0
H1547 H 0.2847 0.65104 0.49585 0.0
C1548 C 0.25812 0.59326 0.55176 0.0
N1549 N 0.2671 0.60044 0.53493 0.0
C1550 C 0.23643 0.58603 0.55069 0.0
C1551 C 0.23336 0.59331 0.5149 0.0
C1552 C 0.25508 0.6005 0.51669 0.0
C1553 C 0.22348 0.58619 0.53216 0.0
H1554 H 0.26764 0.5941 0.5665 0.0
H1555 H 0.2622 0.60703 0.50377 0.0
O1556 O 0.34245 0.6541 0.547 0.0
O1557 O 0.3165 0.61537 0.56403 0.0
O1558 O 0.29471 0.64652 0.54311 0.0
O1559 O 0.31597 0.6161 0.51512 0.0
H1560 H 0.35515 0.63724 0.57927 0.0
H1561 H 0.36971 0.68882 0.54531 0.0
H1562 H 0.38751 0.65199 0.60344 0.0
H1563 H 0.40186 0.70271 0.57008 0.0
H1564 H 0.30234 0.54333 0.54876 0.0
H1565 H 0.33835 0.60878 0.59768 0.0
H1566 H 0.29843 0.5782 0.54042 0.0
H1567 H 0.34154 0.57333 0.60505 0.0
H1568 H 0.33301 0.71425 0.61895 0.0
H1569 H 0.29061 0.6613 0.63461 0.0
H1570 H 0.40956 0.62979 0.5207 0.0
H1571 H 0.39026 0.57287 0.54595 0.0
H1572 H 0.2625 0.64037 0.56605 0.0
H1573 H 0.30619 0.68756 0.54366 0.0
H1574 H 0.24671 0.66906 0.58555 0.0
H1575 H 0.2896 0.71544 0.56353 0.0
H1576 H 0.29188 0.6141 0.47961 0.0
H1577 H 0.32712 0.579 0.51431 0.0
H1578 H 0.28129 0.58215 0.45094 0.0
H1579 H 0.31588 0.54764 0.48508 0.0
H1580 H 0.34656 0.69976 0.48068 0.0
H1581 H 0.28104 0.67184 0.46743 0.0
H1582 H 0.22985 0.58121 0.56471 0.0
H1583 H 0.2244 0.59364 0.50014 0.0
Li1584 Li 0.40994 0.54122 0.77123 0.0
Li1585 Li 0.44041 0.56536 0.79666 0.0
Li1586 Li 0.41072 0.58423 0.77403 0.0
Li1587 Li 0.43836 0.56199 0.75105 0.0
C1588 C 0.39256 0.55459 0.80666 0.0
N1589 N 0.35959 0.53249 0.82376 0.0
C1590 C 0.39627 0.54298 0.82251 0.0
C1591 C 0.37211 0.555 0.79951 0.0
C1592 C 0.37939 0.5319 0.83096 0.0
C1593 C 0.35564 0.54372 0.80835 0.0
C1594 C 0.4446 0.52113 0.76745 0.0
C1595 C 0.46221 0.49404 0.77653 0.0
N1596 N 0.45146 0.4801 0.75934 0.0
C1597 C 0.43386 0.50659 0.74977 0.0
C1598 C 0.459 0.51487 0.78087 0.0
C1599 C 0.43748 0.4859 0.74598 0.0
C1600 C 0.37513 0.50041 0.75684 0.0
N1601 N 0.39224 0.50988 0.7709 0.0
C1602 C 0.38896 0.47683 0.78501 0.0
C1603 C 0.39897 0.49815 0.78492 0.0
C1604 C 0.37123 0.46659 0.77072 0.0
C1605 C 0.36456 0.4792 0.75655 0.0
H1606 H 0.36954 0.50914 0.7455 0.0
H1607 H 0.41248 0.50522 0.79615 0.0
C1608 C 0.46894 0.58436 0.8394 0.0
N1609 N 0.45771 0.56607 0.82697 0.0
C1610 C 0.47941 0.58462 0.85989 0.0
C1611 C 0.46737 0.54725 0.85526 0.0
C1612 C 0.45699 0.5477 0.83492 0.0
C1613 C 0.47886 0.56591 0.86864 0.0
H1614 H 0.46975 0.5991 0.83362 0.0
H1615 H 0.44798 0.53306 0.82563 0.0
C1616 C 0.39135 0.54827 0.73207 0.0
N1617 N 0.36047 0.52539 0.70105 0.0
C1618 C 0.3963 0.53424 0.71477 0.0
C1619 C 0.37074 0.55076 0.73356 0.0
C1620 C 0.38045 0.52278 0.69927 0.0
C1621 C 0.35534 0.53903 0.71771 0.0
C1622 C 0.46008 0.60361 0.77352 0.0
C1623 C 0.45712 0.61827 0.76058 0.0
C1624 C 0.47999 0.60396 0.78287 0.0
C1625 C 0.47421 0.63319 0.75729 0.0
C1626 C 0.49668 0.61913 0.77919 0.0
N1627 N 0.49347 0.63331 0.76659 0.0
C1628 C 0.37377 0.61004 0.77272 0.0
C1629 C 0.40599 0.63316 0.7788 0.0
C1630 C 0.36321 0.62762 0.77344 0.0
N1631 N 0.3951 0.61252 0.7754 0.0
C1632 C 0.39596 0.65123 0.7795 0.0
C1633 C 0.37392 0.64917 0.77698 0.0
H1634 H 0.36446 0.59423 0.76998 0.0
H1635 H 0.42279 0.63602 0.78119 0.0
C1636 C 0.45834 0.54062 0.71209 0.0
N1637 N 0.45508 0.56002 0.72198 0.0
C1638 C 0.46804 0.53768 0.69249 0.0
C1639 C 0.47201 0.57468 0.69263 0.0
C1640 C 0.462 0.57694 0.71226 0.0
C1641 C 0.47513 0.55469 0.68183 0.0
H1642 H 0.4532 0.52695 0.71922 0.0
H1643 H 0.45959 0.59246 0.71944 0.0
O1644 O 0.40882 0.56485 0.79756 0.0
O1645 O 0.44096 0.54135 0.77165 0.0
O1646 O 0.40662 0.5595 0.74748 0.0
O1647 O 0.44361 0.58878 0.77681 0.0
H1648 H 0.412 0.54239 0.8281 0.0
H1649 H 0.369 0.56377 0.78712 0.0
H1650 H 0.38203 0.52278 0.84319 0.0
H1651 H 0.33972 0.54383 0.80292 0.0
H1652 H 0.47329 0.48896 0.78681 0.0
H1653 H 0.42263 0.51117 0.73925 0.0
H1654 H 0.46773 0.52602 0.79438 0.0
H1655 H 0.42914 0.47445 0.73246 0.0
H1656 H 0.39505 0.46856 0.79656 0.0
H1657 H 0.35133 0.47266 0.74481 0.0
H1658 H 0.48805 0.59964 0.86875 0.0
H1659 H 0.46585 0.53227 0.86065 0.0
H1660 H 0.4122 0.53224 0.71331 0.0
H1661 H 0.36667 0.56153 0.74686 0.0
H1662 H 0.38405 0.51182 0.68581 0.0
H1663 H 0.3393 0.54075 0.71869 0.0
H1664 H 0.44183 0.61798 0.75299 0.0
H1665 H 0.48252 0.59261 0.79283 0.0
H1666 H 0.47217 0.64462 0.74728 0.0
H1667 H 0.51219 0.61962 0.78634 0.0
H1668 H 0.3464 0.62399 0.7709 0.0
H1669 H 0.40566 0.66689 0.78245 0.0
H1670 H 0.47003 0.52184 0.68582 0.0
H1671 H 0.47677 0.58861 0.68571 0.0
Li1672 Li 0.6939 0.06778 0.76103 0.0
Li1673 Li 0.72708 0.07339 0.74467 0.0
Li1674 Li 0.69475 0.05323 0.72377 0.0
Li1675 Li 0.7124 0.03916 0.75156 0.0
C1676 C 0.69303 0.10078 0.74428 0.0
N1677 N 0.67606 0.13556 0.75967 0.0
C1678 C 0.70572 0.11913 0.7562 0.0
C1679 C 0.67173 0.10013 0.74009 0.0
C1680 C 0.69684 0.13656 0.76385 0.0
C1681 C 0.66345 0.11787 0.74805 0.0
C1682 C 0.73146 0.06006 0.78951 0.0
C1683 C 0.76096 0.04928 0.80579 0.0
N1684 N 0.7502 0.0461 0.82298 0.0
C1685 C 0.72074 0.05682 0.80739 0.0
C1686 C 0.75179 0.05643 0.78875 0.0
C1687 C 0.73048 0.04974 0.82415 0.0
C1688 C 0.65711 0.07087 0.78048 0.0
N1689 N 0.6777 0.0795 0.78191 0.0
C1690 C 0.67532 0.10191 0.81528 0.0
C1691 C 0.68691 0.09501 0.79863 0.0
C1692 C 0.65412 0.09274 0.81454 0.0
C1693 C 0.64493 0.07737 0.79663 0.0
H1694 H 0.6503 0.05839 0.7672 0.0
H1695 H 0.70338 0.10148 0.79936 0.0
C1696 C 0.75633 0.09925 0.72484 0.0
N1697 N 0.75136 0.09371 0.74382 0.0
C1698 C 0.77258 0.11614 0.72439 0.0
C1699 C 0.77804 0.12153 0.76309 0.0
C1700 C 0.76209 0.10414 0.76271 0.0
C1701 C 0.78314 0.12814 0.74378 0.0
H1702 H 0.74715 0.09113 0.7101 0.0
H1703 H 0.75743 0.09975 0.77762 0.0
C1704 C 0.66642 0.02316 0.73537 0.0
N1705 N 0.63465 0.99204 0.71272 0.0
C1706 C 0.66867 1.00199 0.73145 0.0
C1707 C 0.648 0.0285 0.72776 0.0
C1708 C 0.65242 0.98649 0.71998 0.0
C1709 C 0.63213 1.01254 0.71634 0.0
C1710 C 0.73863 0.04724 0.71158 0.0
C1711 C 0.73464 0.04797 0.68988 0.0
C1712 C 0.75907 0.04845 0.72005 0.0
C1713 C 0.75122 0.05013 0.67707 0.0
C1714 C 0.77523 0.05064 0.70672 0.0
N1715 N 0.771 0.05144 0.68569 0.0
C1716 C 0.67926 0.06681 0.68859 0.0
C1717 C 0.6715 0.02934 0.6843 0.0
C1718 C 0.66884 0.06592 0.66867 0.0
N1719 N 0.68016 0.04874 0.69615 0.0
C1720 C 0.66045 0.02773 0.66438 0.0
C1721 C 0.65912 0.04624 0.65648 0.0
H1722 H 0.68674 0.082 0.69802 0.0
H1723 H 0.67306 0.01516 0.69031 0.0
C1724 C 0.71057 1.00877 0.77796 0.0
N1725 N 0.71983 0.01557 0.76117 0.0
C1726 C 0.71868 0.99445 0.78834 0.0
C1727 C 0.74473 0.99341 0.76293 0.0
C1728 C 0.73618 1.0078 0.75314 0.0
C1729 C 0.73636 0.98707 0.78117 0.0
H1730 H 0.69758 0.01535 0.78398 0.0
H1731 H 0.74308 1.01337 0.73965 0.0
O1732 O 0.7013 0.08336 0.73715 0.0
O1733 O 0.72202 0.06651 0.77271 0.0
O1734 O 0.68205 0.03853 0.74679 0.0
O1735 O 0.72258 0.04508 0.72435 0.0
H1736 H 0.72221 0.11985 0.75967 0.0
H1737 H 0.66169 0.08596 0.731 0.0
H1738 H 0.70645 0.15084 0.77318 0.0
H1739 H 0.64697 0.11756 0.74504 0.0
H1740 H 0.77661 0.04622 0.80532 0.0
H1741 H 0.70495 0.05943 0.80819 0.0
H1742 H 0.76031 0.0589 0.77504 0.0
H1743 H 0.72231 0.04701 0.83802 0.0
H1744 H 0.68294 0.11386 0.82881 0.0
H1745 H 0.62875 0.06962 0.79561 0.0
H1746 H 0.7761 0.12032 0.70907 0.0
H1747 H 0.78528 0.13045 0.77851 0.0
H1748 H 0.6828 0.99754 0.73713 0.0
H1749 H 0.64611 0.04483 0.73028 0.0
H1750 H 0.65396 0.97005 0.71682 0.0
H1751 H 0.61786 0.01646 0.71024 0.0
H1752 H 0.71893 0.04691 0.68298 0.0
H1753 H 0.76248 0.048 0.73681 0.0
H1754 H 0.74836 0.05079 0.66027 0.0
H1755 H 0.79113 0.05175 0.71311 0.0
H1756 H 0.66814 0.0805 0.66294 0.0
H1757 H 0.6533 1.01228 0.65514 0.0
H1758 H 0.71178 0.98997 0.80235 0.0
H1759 H 0.75801 0.98762 0.75653 0.0
Li1760 Li 0.79381 0.71776 0.03621 0.0
Li1761 Li 0.80723 0.68892 0.01606 0.0
Li1762 Li 0.79527 0.71506 0.99666 0.0
Li1763 Li 0.76934 0.68817 1.01269 0.0
C1764 C 0.83682 0.72509 0.03305 0.0
N1765 N 0.87302 0.73518 0.06041 0.0
C1766 C 0.83801 0.7162 0.05149 0.0
C1767 C 0.85407 0.73909 0.02852 0.0
C1768 C 0.85644 0.7215 0.06511 0.0
C1769 C 0.87222 0.744 0.04256 0.0
C1770 C 0.78282 0.67107 0.04862 0.0
C1771 C 0.77023 0.63384 0.04772 0.0
N1772 N 0.77394 0.63716 0.06946 0.0
C1773 C 0.78658 0.67411 0.07095 0.0
C1774 C 0.77467 0.65077 0.0369 0.0
C1775 C 0.78196 0.65677 0.08119 0.0
C1776 C 0.78175 0.72898 0.07787 0.0
N1777 N 0.79601 0.73566 0.06458 0.0
C1778 C 0.81474 0.76208 0.09371 0.0
C1779 C 0.81199 0.75234 0.07194 0.0
C1780 C 0.80075 0.75484 0.10803 0.0
C1781 C 0.78379 0.73835 0.09964 0.0
H1782 H 0.76919 0.71569 0.07171 0.0
H1783 H 0.82308 0.75762 0.06115 0.0
C1784 C 0.84387 0.67389 1.00339 0.0
N1785 N 0.829 0.67239 0.01745 0.0
C1786 C 0.86082 0.66375 1.00502 0.0
C1787 C 0.84732 0.65118 0.03596 0.0
C1788 C 0.83055 0.66131 0.03357 0.0
C1789 C 0.86281 0.65239 0.02165 0.0
H1790 H 0.84294 0.68352 0.99129 0.0
H1791 H 0.81922 0.6608 0.04512 0.0
C1792 C 0.76563 0.73755 0.02445 0.0
N1793 N 0.75577 0.77399 0.04706 0.0
C1794 C 0.74859 0.73626 0.0367 0.0
C1795 C 0.77762 0.75733 0.02361 0.0
C1796 C 0.74387 0.75489 0.04804 0.0
C1797 C 0.77239 0.77558 0.03517 0.0
C1798 C 0.79568 0.66913 0.97465 0.0
C1799 C 0.80958 0.67649 0.96052 0.0
C1800 C 0.78962 0.64734 0.97379 0.0
C1801 C 0.81742 0.66192 0.94597 0.0
C1802 C 0.79782 0.63327 0.95901 0.0
N1803 N 0.81145 0.64079 0.94554 0.0
C1804 C 0.81807 0.74033 0.96947 0.0
C1805 C 0.78296 0.72591 0.95652 0.0
C1806 C 0.82142 0.74894 0.9509 0.0
N1807 N 0.79909 0.72899 0.97195 0.0
C1808 C 0.78561 0.73423 0.93768 0.0
C1809 C 0.80511 0.74587 0.93452 0.0
H1810 H 0.83079 0.74232 0.98172 0.0
H1811 H 0.76804 0.71669 0.95869 0.0
C1812 C 0.73066 0.67161 0.02707 0.0
N1813 N 0.74193 0.67049 1.00973 0.0
C1814 C 0.71131 0.65813 0.0263 0.0
C1815 C 0.71538 0.64255 0.98982 0.0
C1816 C 0.73463 0.65642 0.99125 0.0
C1817 C 0.70343 0.6432 1.00754 0.0
H1818 H 0.73695 0.68268 0.0417 0.0
H1819 H 0.74391 0.65575 0.9777 0.0
O1820 O 0.81898 0.72002 0.01935 0.0
O1821 O 0.78728 0.68789 0.03835 0.0
O1822 O 0.77094 0.71952 1.01381 0.0
O1823 O 0.78785 0.68319 0.98901 0.0
H1824 H 0.82486 0.70539 0.05533 0.0
H1825 H 0.85346 0.74611 1.01434 0.0
H1826 H 0.85754 0.71475 0.07943 0.0
H1827 H 0.88568 0.75483 0.03926 0.0
H1828 H 0.76387 0.61806 0.03883 0.0
H1829 H 0.7932 0.68963 0.08027 0.0
H1830 H 0.7718 0.64812 0.01966 0.0
H1831 H 0.78481 0.65889 0.09845 0.0
H1832 H 0.82785 0.77496 0.09932 0.0
H1833 H 0.77267 0.73206 0.10997 0.0
H1834 H 0.8726 0.66536 0.99384 0.0
H1835 H 0.8482 0.64256 0.04898 0.0
H1836 H 0.73922 0.72105 0.03757 0.0
H1837 H 0.79095 0.75853 1.01429 0.0
H1838 H 0.73078 0.75415 0.05767 0.0
H1839 H 0.78158 0.791 0.03476 0.0
H1840 H 0.81448 0.69328 0.96093 0.0
H1841 H 0.77865 0.64129 0.98431 0.0
H1842 H 0.82829 0.66742 0.93505 0.0
H1843 H 0.79331 0.61636 0.95823 0.0
H1844 H 0.83681 0.75748 0.94921 0.0
H1845 H 0.77245 0.73162 0.92577 0.0
H1846 H 0.70288 0.65903 0.04049 0.0
H1847 H 0.70991 0.63146 0.97496 0.0
Li1848 Li 0.88537 0.51591 0.80088 0.0
Li1849 Li 0.91777 0.53597 0.81984 0.0
Li1850 Li 0.89507 0.55393 0.80057 0.0
Li1851 Li 0.91536 0.52928 0.78203 0.0
C1852 C 0.87113 0.54361 0.83409 0.0
N1853 N 0.8351 0.5525 0.85085 0.0
C1854 C 0.87121 0.55129 0.85605 0.0
C1855 C 0.85274 0.54038 0.82068 0.0
C1856 C 0.85283 0.55571 0.86422 0.0
C1857 C 0.83468 0.54498 0.82944 0.0
C1858 C 0.92314 0.49685 0.81245 0.0
C1859 C 0.95503 0.48856 0.82649 0.0
N1860 N 0.9439 0.47571 0.83819 0.0
C1861 C 0.91201 0.48346 0.82452 0.0
C1862 C 0.94482 0.49932 0.81331 0.0
C1863 C 0.92279 0.47293 0.83746 0.0
C1864 C 0.86041 0.47835 0.78086 0.0
N1865 N 0.86338 0.49253 0.79961 0.0
C1866 C 0.83849 0.46969 0.81529 0.0
C1867 C 0.85274 0.48869 0.81672 0.0
C1868 C 0.8353 0.45473 0.79607 0.0
C1869 C 0.84617 0.45943 0.7786 0.0
H1870 H 0.86996 0.48119 0.76804 0.0
H1871 H 0.856 0.49984 0.83177 0.0
C1872 C 0.95594 0.54825 0.84582 0.0
N1873 N 0.93566 0.5386 0.84487 0.0
C1874 C 0.96966 0.54832 0.86346 0.0
C1875 C 0.94112 0.52908 0.87903 0.0
C1876 C 0.92797 0.5294 0.8611 0.0
C1877 C 0.96231 0.53845 0.88024 0.0
H1878 H 0.96155 0.55557 0.83273 0.0
H1879 H 0.91175 0.52178 0.85977 0.0
C1880 C 0.87179 0.52308 0.75851 0.0
N1881 N 0.84349 0.50785 0.7227 0.0
C1882 C 0.87629 0.50842 0.74146 0.0
C1883 C 0.85295 0.53019 0.75715 0.0
C1884 C 0.86176 0.50084 0.72356 0.0
C1885 C 0.83884 0.52226 0.73897 0.0
C1886 C 0.94074 0.56657 0.79031 0.0
C1887 C 0.93751 0.58373 0.78098 0.0
C1888 C 0.95917 0.55886 0.78767 0.0
C1889 C 0.95265 0.5927 0.76891 0.0
C1890 C 0.97391 0.56824 0.77545 0.0
N1891 N 0.97036 0.58482 0.76638 0.0
C1892 C 0.87859 0.59016 0.81692 0.0
C1893 C 0.87864 0.58133 0.77908 0.0
C1894 C 0.86702 0.60577 0.81488 0.0
N1895 N 0.88356 0.57798 0.79909 0.0
C1896 C 0.86715 0.59674 0.77628 0.0
C1897 C 0.86073 0.60879 0.79431 0.0
H1898 H 0.88295 0.58726 0.83265 0.0
H1899 H 0.8831 0.57154 0.76524 0.0
C1900 C 0.93808 0.50536 0.75482 0.0
N1901 N 0.92912 0.52271 0.75719 0.0
C1902 C 0.94884 0.50032 0.73696 0.0
C1903 C 0.94043 0.53082 0.72407 0.0
C1904 C 0.92966 0.53514 0.74209 0.0
C1905 C 0.95037 0.51331 0.72144 0.0
H1906 H 0.93689 0.49544 0.76681 0.0
H1907 H 0.92202 0.54861 0.74426 0.0
O1908 O 0.88911 0.53959 0.82584 0.0
O1909 O 0.91291 0.50771 0.80011 0.0
O1910 O 0.88603 0.53097 0.77603 0.0
O1911 O 0.926 0.55746 0.80202 0.0
H1912 H 0.88536 0.5539 0.86664 0.0
H1913 H 0.8524 0.53422 0.80375 0.0
H1914 H 0.85267 0.56171 0.88118 0.0
H1915 H 0.82033 0.54254 0.81923 0.0
H1916 H 0.97182 0.4905 0.82747 0.0
H1917 H 0.89524 0.48137 0.82409 0.0
H1918 H 0.9537 0.50971 0.80417 0.0
H1919 H 0.91438 0.46261 0.84698 0.0
H1920 H 0.83066 0.46636 0.82922 0.0
H1921 H 0.84476 0.44797 0.76379 0.0
H1922 H 0.98581 0.55599 0.86396 0.0
H1923 H 0.93489 0.52112 0.89154 0.0
H1924 H 0.8907 0.50263 0.74214 0.0
H1925 H 0.84925 0.54185 0.76987 0.0
H1926 H 0.86501 0.48936 0.71037 0.0
H1927 H 0.82421 0.52761 0.73776 0.0
H1928 H 0.92346 0.59005 0.78302 0.0
H1929 H 0.96188 0.54549 0.79462 0.0
H1930 H 0.95031 0.60593 0.76153 0.0
H1931 H 0.98812 0.56228 0.77309 0.0
H1932 H 0.86239 0.61476 0.82917 0.0
H1933 H 0.86303 0.59896 0.76018 0.0
H1934 H 0.9559 0.48644 0.73536 0.0
H1935 H 0.94139 0.54141 0.71265 0.0
Li1936 Li 0.78936 0.45573 0.53005 0.0
Li1937 Li 0.77036 0.47984 0.51476 0.0
Li1938 Li 0.7882 0.45196 0.49069 0.0
Li1939 Li 0.81129 0.48298 0.51526 0.0
C1940 C 0.74798 0.43394 0.514 0.0
N1941 N 0.71465 0.4059 0.52395 0.0
C1942 C 0.73389 0.44127 0.52775 0.0
C1943 C 0.74497 0.41234 0.50516 0.0
C1944 C 0.71716 0.42686 0.53261 0.0
C1945 C 0.72809 0.39842 0.51046 0.0
C1946 C 0.79327 0.48844 0.5611 0.0
C1947 C 0.81215 0.49121 0.59554 0.0
N1948 N 0.79382 0.48855 0.60464 0.0
C1949 C 0.77463 0.48587 0.57079 0.0
C1950 C 0.81221 0.49124 0.57355 0.0
C1951 C 0.77523 0.48593 0.59283 0.0
C1952 C 0.8112 0.44023 0.56143 0.0
N1953 N 0.79146 0.43994 0.55329 0.0
C1954 C 0.7777 0.41805 0.57782 0.0
C1955 C 0.7748 0.42932 0.56139 0.0
C1956 C 0.79795 0.41767 0.58608 0.0
C1957 C 0.81482 0.42911 0.57774 0.0
H1958 H 0.82426 0.4493 0.55537 0.0
H1959 H 0.75922 0.42951 0.55527 0.0
C1960 C 0.72689 0.48245 0.50425 0.0
N1961 N 0.74471 0.49282 0.51666 0.0
C1962 C 0.70787 0.48944 0.50679 0.0
C1963 C 0.72568 0.51825 0.53429 0.0
C1964 C 0.74431 0.51055 0.53145 0.0
C1965 C 0.70689 0.5076 0.52204 0.0
H1966 H 0.72725 0.46829 0.49267 0.0
H1967 H 0.75839 0.51855 0.54146 0.0
C1968 C 0.82051 0.43547 0.51084 0.0
N1969 N 0.8379 0.39992 0.51035 0.0
C1970 C 0.84201 0.43758 0.51523 0.0
C1971 C 0.80787 0.41531 0.50623 0.0
C1972 C 0.8505 0.41941 0.51491 0.0
C1973 C 0.81694 0.39752 0.50604 0.0
C1974 C 0.79924 0.5006 0.48327 0.0
C1975 C 0.8119 0.49847 0.4664 0.0
C1976 C 0.79701 0.52076 0.49334 0.0
C1977 C 0.82223 0.51665 0.45989 0.0
C1978 C 0.80759 0.53855 0.48634 0.0
N1979 N 0.81988 0.53614 0.46992 0.0
C1980 C 0.77257 0.41856 0.45286 0.0
C1981 C 0.80821 0.43485 0.45636 0.0
C1982 C 0.77526 0.40485 0.43398 0.0
N1983 N 0.789 0.4332 0.46363 0.0
C1984 C 0.81155 0.42164 0.43762 0.0
C1985 C 0.79498 0.40635 0.42605 0.0
H1986 H 0.75742 0.41745 0.45892 0.0
H1987 H 0.82109 0.44637 0.46533 0.0
C1988 C 0.84989 0.51431 0.53317 0.0
N1989 N 0.84039 0.49874 0.51655 0.0
C1990 C 0.87163 0.52175 0.53494 0.0
C1991 C 0.8735 0.49763 0.50217 0.0
C1992 C 0.85181 0.4907 0.50102 0.0
C1993 C 0.88399 0.51312 0.51953 0.0
H1994 H 0.84076 0.52049 0.54553 0.0
H1995 H 0.8442 0.47803 0.48816 0.0
O1996 O 0.76417 0.4479 0.50862 0.0
O1997 O 0.79295 0.48779 0.53944 0.0
O1998 O 0.8119 0.4531 0.51127 0.0
O1999 O 0.78947 0.48308 0.4903 0.0
H2000 H 0.73598 0.45785 0.53489 0.0
H2001 H 0.75545 0.40635 0.49421 0.0
H2002 H 0.70623 0.43233 0.54332 0.0
H2003 H 0.72562 0.38167 0.50376 0.0
H2004 H 0.82667 0.49318 0.60535 0.0
H2005 H 0.75986 0.4837 0.56138 0.0
H2006 H 0.82676 0.49302 0.56625 0.0
H2007 H 0.76091 0.48384 0.60053 0.0
H2008 H 0.7642 0.40945 0.58373 0.0
H2009 H 0.8307 0.42971 0.58394 0.0
H2010 H 0.69406 0.48071 0.49672 0.0
H2011 H 0.72593 0.5322 0.54641 0.0
H2012 H 0.85201 0.45309 0.51903 0.0
H2013 H 0.79125 0.41346 0.50291 0.0
H2014 H 0.8671 0.4208 0.51832 0.0
H2015 H 0.80733 0.38181 0.5025 0.0
H2016 H 0.81382 0.48296 0.45851 0.0
H2017 H 0.78734 0.52263 0.50651 0.0
H2018 H 0.83215 0.51526 0.4469 0.0
H2019 H 0.80607 0.55427 0.49401 0.0
H2020 H 0.76199 0.39344 0.42552 0.0
H2021 H 0.82709 0.42322 0.4324 0.0
H2022 H 0.87869 0.53395 0.54849 0.0
H2023 H 0.88203 0.49011 0.48998 0.0
Li2024 Li 0.66475 0.5309 0.30084 0.0
Li2025 Li 0.69398 0.5552 0.28277 0.0
Li2026 Li 0.66424 0.52751 0.25819 0.0
Li2027 Li 0.69209 0.50905 0.27876 0.0
C2028 C 0.64694 0.56285 0.28449 0.0
N2029 N 0.61406 0.58358 0.29107 0.0
C2030 C 0.6506 0.58403 0.2949 0.0
C2031 C 0.62659 0.55218 0.27745 0.0
C2032 C 0.63376 0.59424 0.29808 0.0
C2033 C 0.61017 0.56295 0.28091 0.0
C2034 C 0.70001 0.53836 0.32705 0.0
C2035 C 0.7018 0.52442 0.3597 0.0
N2036 N 0.70342 0.54431 0.37132 0.0
C2037 C 0.70169 0.55866 0.33928 0.0
C2038 C 0.70004 0.52108 0.33728 0.0
C2039 C 0.70341 0.56134 0.36166 0.0
C2040 C 0.64061 0.51641 0.33921 0.0
N2041 N 0.64852 0.53336 0.32997 0.0
C2042 C 0.63682 0.55614 0.35994 0.0
C2043 C 0.64655 0.55302 0.34038 0.0
C2044 C 0.62865 0.53909 0.37017 0.0
C2045 C 0.63076 0.51888 0.3589 0.0
H2046 H 0.64205 0.50068 0.3315 0.0
H2047 H 0.65274 0.56672 0.33367 0.0
C2048 C 0.69953 0.59839 0.27155 0.0
N2049 N 0.70963 0.58711 0.28355 0.0
C2050 C 0.70725 0.62015 0.27128 0.0
C2051 C 0.7364 0.61932 0.29527 0.0
C2052 C 0.728 0.59745 0.29527 0.0
C2053 C 0.72598 0.63149 0.28336 0.0
H2054 H 0.68505 0.59056 0.26215 0.0
H2055 H 0.73623 0.58893 0.30498 0.0
C2056 C 0.64463 0.48808 0.26596 0.0
N2057 N 0.61358 0.45667 0.2427 0.0
C2058 C 0.64972 0.47212 0.25069 0.0
C2059 C 0.62381 0.48807 0.2695 0.0
C2060 C 0.63378 0.45638 0.23907 0.0
C2061 C 0.60832 0.47204 0.25755 0.0
C2062 C 0.69741 0.52794 0.23564 0.0
C2063 C 0.6978 0.50789 0.22382 0.0
C2064 C 0.69741 0.54503 0.22511 0.0
C2065 C 0.69815 0.50525 0.20154 0.0
C2066 C 0.69772 0.54173 0.20281 0.0
N2067 N 0.69808 0.52208 0.19159 0.0
C2068 C 0.64154 0.5452 0.22337 0.0
C2069 C 0.64354 0.50967 0.21145 0.0
C2070 C 0.63189 0.54629 0.20287 0.0
N2071 N 0.64738 0.52707 0.2277 0.0
C2072 C 0.63408 0.51014 0.19072 0.0
C2073 C 0.62804 0.52869 0.18561 0.0
H2074 H 0.64475 0.55931 0.23574 0.0
H2075 H 0.64819 0.49524 0.21426 0.0
C2076 C 0.70032 0.46332 0.28516 0.0
N2077 N 0.70854 0.48144 0.27774 0.0
C2078 C 0.7107 0.44548 0.28448 0.0
C2079 C 0.73822 0.46413 0.26839 0.0
C2080 C 0.72739 0.48155 0.26931 0.0
C2081 C 0.73038 0.44521 0.27614 0.0
H2082 H 0.68545 0.46241 0.29182 0.0
H2083 H 0.73437 0.4953 0.26305 0.0
O2084 O 0.66317 0.55251 0.28138 0.0
O2085 O 0.69733 0.5353 0.30517 0.0
O2086 O 0.65998 0.50379 0.27721 0.0
O2087 O 0.69616 0.53061 0.2573 0.0
H2088 H 0.66627 0.59243 0.30063 0.0
H2089 H 0.62354 0.5358 0.26932 0.0
H2090 H 0.63634 0.61062 0.30615 0.0
H2091 H 0.59433 0.55492 0.27551 0.0
H2092 H 0.70179 0.5112 0.36787 0.0
H2093 H 0.70142 0.57214 0.33153 0.0
H2094 H 0.69852 0.50524 0.32798 0.0
H2095 H 0.70463 0.57694 0.37135 0.0
H2096 H 0.63568 0.57219 0.36682 0.0
H2097 H 0.62521 0.50487 0.36541 0.0
H2098 H 0.6984 0.62798 0.26137 0.0
H2099 H 0.75077 0.62674 0.30508 0.0
H2100 H 0.6658 0.47199 0.24777 0.0
H2101 H 0.61967 0.5003 0.28135 0.0
H2102 H 0.63746 0.44395 0.22713 0.0
H2103 H 0.59212 0.47183 0.26007 0.0
H2104 H 0.69763 0.49448 0.23176 0.0
H2105 H 0.6969 0.56059 0.23405 0.0
H2106 H 0.69837 0.48981 0.19216 0.0
H2107 H 0.69759 0.55478 0.19441 0.0
H2108 H 0.62806 0.5612 0.20046 0.0
H2109 H 0.63152 0.49576 0.17874 0.0
H2110 H 0.70326 0.432 0.29087 0.0
H2111 H 0.75281 0.46567 0.2612 0.0
Eu2112 Eu 0.0679 0.07161 0.03826 0.0
Eu2113 Eu 0.04625 0.02293 0.02093 0.0
C2114 C 0.07461 0.04773 0.9878 0.0
C2115 C 0.07737 0.12946 0.06301 0.0
C2116 C 0.05726 0.12676 0.06985 0.0
C2117 C 0.07939 0.16735 0.06902 0.0
C2118 C 0.04786 0.14427 0.07527 0.0
C2119 C 0.08875 0.14985 0.06365 0.0
C2120 C 0.05842 0.16461 0.07366 0.0
C2121 C 0.08508 0.11123 0.05198 0.0
O2122 O 0.08059 0.02101 0.02583 0.0
O2123 O 0.09417 0.05439 0.04449 0.0
C2124 C 0.09656 0.03527 0.0358 0.0
O2125 O 0.04994 0.06493 0.06752 0.0
O2126 O 0.02861 0.99733 0.99611 0.0
O2127 O 0.03713 0.99134 0.02773 0.0
O2128 O 0.03663 0.02959 0.0561 0.0
C2129 C 0.03857 0.04712 0.07097 0.0
O2130 O 0.03377 0.07385 0.03228 0.0
O2131 O 0.01977 0.03992 1.01514 0.0
O2132 O 0.06261 0.03012 0.99093 0.0
O2133 O 0.08667 0.09634 0.06294 0.0
O2134 O 0.07647 0.10372 0.03243 0.0
O2135 O 0.07766 0.06497 1.00318 0.0
C2136 C 0.03713 0.96417 0.99854 0.0
C2137 C 0.05848 0.96398 1.00087 0.0
C2138 C 0.02985 0.92612 0.98672 0.0
C2139 C 0.06532 0.94477 0.99776 0.0
C2140 C 0.02298 0.94536 0.9902 0.0
C2141 C 0.05085 0.92553 0.99216 0.0
C2142 C 0.02944 0.98307 1.00802 0.0
C2143 C 0.01767 0.05938 0.0229 0.0
H2144 H 0.04829 0.11102 0.06947 0.0
H2145 H 0.08794 0.18273 0.06738 0.0
H2146 H 0.03179 0.14169 0.07899 0.0
H2147 H 0.10429 0.15213 0.05838 0.0
H2148 H 0.06966 0.97848 1.007 0.0
H2149 H 0.01842 0.91158 0.98179 0.0
H2150 H 0.0816 0.94503 1.00207 0.0
H2151 H 1.00646 0.94532 0.98799 0.0
Eu2152 Eu 0.31796 0.79644 0.24701 0.0
Eu2153 Eu 0.29388 0.78841 0.2907 0.0
C2154 C 0.2699 0.79807 0.2491 0.0
C2155 C 0.3305 0.81922 0.19778 0.0
C2156 C 0.31748 0.83376 0.20346 0.0
C2157 C 0.33403 0.83099 0.16371 0.0
C2158 C 0.31258 0.84666 0.18927 0.0
C2159 C 0.33887 0.81803 0.17792 0.0
C2160 C 0.32061 0.84528 0.16911 0.0
C2161 C 0.334 0.8043 0.21187 0.0
O2162 O 0.30211 0.75772 0.27566 0.0
O2163 O 0.30094 0.76253 0.24086 0.0
C2164 C 0.30007 0.75006 0.25502 0.0
O2165 O 0.34022 0.78337 0.26686 0.0
O2166 O 0.26987 0.76987 0.30578 0.0
O2167 O 0.29147 0.79642 0.32523 0.0
O2168 O 0.32841 0.79421 0.29949 0.0
C2169 C 0.34247 0.78699 0.28795 0.0
O2170 O 0.32406 0.8274 0.27038 0.0
O2171 O 0.29619 0.82303 0.29074 0.0
O2172 O 0.26872 0.78658 0.26422 0.0
O2173 O 0.34303 0.81264 0.23109 0.0
O2174 O 0.31804 0.78927 0.21222 0.0
O2175 O 0.28781 0.80751 0.24406 0.0
C2176 C 0.28082 0.7666 0.34107 0.0
C2177 C 0.28689 0.74703 0.33484 0.0
C2178 C 0.28271 0.76164 0.37815 0.0
C2179 C 0.29058 0.73475 0.35012 0.0
C2180 C 0.27884 0.77383 0.36282 0.0
C2181 C 0.28851 0.74192 0.37195 0.0
C2182 C 0.277 0.77982 0.3252 0.0
C2183 C 0.31148 0.83508 0.28364 0.0
H2184 H 0.31081 0.83484 0.21873 0.0
H2185 H 0.34029 0.82937 0.14823 0.0
H2186 H 0.30244 0.85767 0.19405 0.0
H2187 H 0.34879 0.80676 0.1732 0.0
H2188 H 0.28881 0.74124 0.31817 0.0
H2189 H 0.28082 0.7675 0.39481 0.0
H2190 H 0.29527 0.71975 0.3449 0.0
H2191 H 0.27429 0.78892 0.36796 0.0
Eu2192 Eu 0.58572 0.04732 0.50543 0.0
Eu2193 Eu 0.5404 0.04798 0.52698 0.0
C2194 C 0.58154 0.0455 0.55523 0.0
C2195 C 0.63745 0.03142 0.4948 0.0
C2196 C 0.63862 0.02382 0.51413 0.0
C2197 C 0.66636 1.01487 0.48358 0.0
C2198 C 0.65359 1.01183 0.51816 0.0
C2199 C 0.65145 0.02694 0.47962 0.0
C2200 C 0.66754 1.00706 0.50285 0.0
C2201 C 0.62116 0.04321 0.48998 0.0
O2202 O 0.55829 0.08148 0.53404 0.0
O2203 O 0.58218 0.08126 0.50865 0.0
C2204 C 0.57197 0.09125 0.52298 0.0
O2205 O 0.56091 0.04335 0.47804 0.0
O2206 O 0.5218 0.05867 0.55272 0.0
O2207 O 0.50676 0.03715 0.52387 0.0
O2208 O 0.53767 0.06019 0.49634 0.0
C2209 C 0.54494 0.05295 0.47834 0.0
O2210 O 0.57461 0.01541 0.51362 0.0
O2211 O 0.53971 1.01483 0.50931 0.0
O2212 O 0.56134 0.03843 0.55148 0.0
O2213 O 0.60326 0.03164 0.48152 0.0
O2214 O 0.61902 0.05893 0.50491 0.0
O2215 O 0.59245 0.05412 0.54123 0.0
C2216 C 0.48838 0.06277 0.54004 0.0
C2217 C 0.48563 0.07186 0.52182 0.0
C2218 C 0.46074 0.07887 0.5556 0.0
C2219 C 0.47038 0.08417 0.52041 0.0
C2220 C 0.47588 0.06643 0.55691 0.0
C2221 C 0.45775 0.08783 0.5373 0.0
C2222 C 0.50415 0.04946 0.54161 0.0
C2223 C 0.55538 1.00492 0.50974 0.0
H2224 H 0.62779 0.02695 0.52598 0.0
H2225 H 0.67701 1.01171 0.47157 0.0
H2226 H 0.65392 1.00587 0.53303 0.0
H2227 H 0.65074 0.03262 0.46459 0.0
H2228 H 0.49524 0.06941 0.50865 0.0
H2229 H 0.45115 0.08122 0.56879 0.0
H2230 H 0.46864 0.09105 0.50623 0.0
H2231 H 0.47777 0.05958 0.5711 0.0
Eu2232 Eu 0.2832 0.30291 0.77855 0.0
Eu2233 Eu 0.32863 0.29027 0.7794 0.0
C2234 C 0.28704 0.25314 0.78136 0.0
C2235 C 0.2276 0.30695 0.78994 0.0
C2236 C 0.22741 0.29337 0.80481 0.0
C2237 C 0.19218 0.31023 0.79634 0.0
C2238 C 0.20963 0.28821 0.81541 0.0
C2239 C 0.20995 0.31536 0.78577 0.0
C2240 C 0.1918 0.29656 0.81124 0.0
C2241 C 0.24603 0.31228 0.77855 0.0
O2242 O 0.32147 0.29057 0.7441 0.0
O2243 O 0.28658 0.29083 0.74373 0.0
C2244 C 0.30314 0.2886 0.73361 0.0
O2245 O 0.30431 0.33361 0.77219 0.0
O2246 O 0.34897 0.26855 0.76823 0.0
O2247 O 0.36097 0.2962 0.79294 0.0
O2248 O 0.33623 0.32655 0.78159 0.0
C2249 C 0.32477 0.34008 0.77655 0.0
O2250 O 0.29536 0.31162 0.81359 0.0
O2251 O 0.32057 0.29164 0.81373 0.0
O2252 O 0.30661 0.25818 0.77709 0.0
O2253 O 0.26236 0.32405 0.79018 0.0
O2254 O 0.25076 0.29665 0.76531 0.0
O2255 O 0.27578 0.2682 0.7848 0.0
C2256 C 0.38435 0.28378 0.76881 0.0
C2257 C 0.39415 0.30422 0.76672 0.0
C2258 C 0.41022 0.269 0.74855 0.0
C2259 C 0.41199 0.30701 0.75571 0.0
C2260 C 0.39256 0.26625 0.75972 0.0
C2261 C 0.42009 0.28939 0.74643 0.0
C2262 C 0.36537 0.28013 0.77993 0.0
C2263 C 0.30872 0.3034 0.824 0.0
H2264 H 0.24097 0.28671 0.80813 0.0
H2265 H 0.17883 0.31719 0.79304 0.0
H2266 H 0.20975 0.27751 0.82665 0.0
H2267 H 0.20991 0.32592 0.77437 0.0
H2268 H 0.388 0.318 0.77346 0.0
H2269 H 0.4163 0.2552 0.74177 0.0
H2270 H 0.41928 0.32287 0.75416 0.0
H2271 H 0.38522 0.25036 0.76119 0.0
Eu2272 Eu 0.04864 0.06612 0.53703 0.0
Eu2273 Eu 0.06652 0.02546 0.51413 0.0
C2274 C 0.09336 0.07258 0.51743 0.0
C2275 C 0.03776 0.12117 0.54468 0.0
C2276 C 0.05696 0.13496 0.54486 0.0
C2277 C 0.02125 0.14273 0.52391 0.0
C2278 C 0.05836 0.15209 0.53423 0.0
C2279 C 0.01982 0.12562 0.53464 0.0
C2280 C 0.04062 0.15583 0.52317 0.0
C2281 C 0.03673 0.10115 0.55288 0.0
O2282 O 0.07256 0.0249 0.55013 0.0
O2283 O 0.06761 0.05774 0.56571 0.0
C2284 C 0.07419 0.03994 0.5674 0.0
O2285 O 0.025 0.03905 0.54394 0.0
O2286 O 0.09094 1.00663 0.51186 0.0
O2287 O 0.06289 0.99632 0.49027 0.0
O2288 O 0.03406 1.0117 0.52088 0.0
C2289 C 0.02143 0.01916 0.53417 0.0
O2290 O 0.03433 0.06068 0.50148 0.0
O2291 O 0.05418 0.03821 0.48507 0.0
O2292 O 0.09382 0.05251 0.51671 0.0
O2293 O 0.02405 0.08458 0.54173 0.0
O2294 O 0.05448 0.09661 0.55895 0.0
O2295 O 0.07637 0.07999 0.52115 0.0
C2296 C 0.07587 0.97063 0.50568 0.0
C2297 C 0.06073 0.96707 0.52001 0.0
C2298 C 0.08495 0.93662 0.50818 0.0
C2299 C 0.05748 0.94842 0.52814 0.0
C2300 C 0.08802 0.95533 0.49977 0.0
C2301 C 0.06957 0.93301 0.52239 0.0
C2302 C 0.07948 0.99095 0.49828 0.0
C2303 C 0.04011 0.05031 0.48361 0.0
H2304 H 0.07112 0.13209 0.55247 0.0
H2305 H 1.00726 0.14542 0.51577 0.0
H2306 H 0.07354 0.16177 0.53381 0.0
H2307 H 1.0048 0.11538 0.53437 0.0
H2308 H 0.05162 0.97895 0.52523 0.0
H2309 H 0.09452 0.92499 0.50358 0.0
H2310 H 0.04586 0.94631 0.53943 0.0
H2311 H 0.09997 0.95797 0.48894 0.0
Eu2312 Eu 0.32145 0.80965 0.7684 0.0
Eu2313 Eu 0.28027 0.78104 0.77976 0.0
C2314 C 0.3074 0.81807 0.8169 0.0
C2315 C 0.37717 0.82272 0.75759 0.0
C2316 C 0.38029 0.80588 0.76755 0.0
C2317 C 0.41322 0.82791 0.74943 0.0
C2318 C 0.39962 0.80006 0.76853 0.0
C2319 C 0.39361 0.83354 0.74821 0.0
C2320 C 0.4164 0.81123 0.75982 0.0
C2321 C 0.35678 0.82888 0.75755 0.0
O2322 O 0.2691 0.81166 0.77206 0.0
O2323 O 0.29966 0.83438 0.77018 0.0
C2324 C 0.27916 0.83119 0.77107 0.0
O2325 O 0.30213 0.79528 0.73691 0.0
O2326 O 0.25991 0.76544 0.80076 0.0
O2327 O 0.24992 0.76247 0.76693 0.0
O2328 O 0.28889 0.76516 0.74799 0.0
C2329 C 0.295 0.77483 0.73248 0.0
O2330 O 0.33144 0.77725 0.77134 0.0
O2331 O 0.30391 0.75909 0.78529 0.0
O2332 O 0.2898 0.80471 0.81052 0.0
O2333 O 0.34232 0.81653 0.74384 0.0
O2334 O 0.35016 0.83336 0.77641 0.0
O2335 O 0.32269 0.81992 0.80446 0.0
C2336 C 0.22441 0.76435 0.79068 0.0
C2337 C 0.22103 0.78486 0.7902 0.0
C2338 C 0.18733 0.75208 0.79081 0.0
C2339 C 0.2008 0.78864 0.78852 0.0
C2340 C 0.2076 0.74824 0.79208 0.0
C2341 C 0.18367 0.77195 0.78755 0.0
C2342 C 0.24451 0.75901 0.78566 0.0
C2343 C 0.32286 0.75997 0.77861 0.0
H2344 H 0.36793 0.79765 0.77527 0.0
H2345 H 0.42597 0.83685 0.74274 0.0
H2346 H 0.40169 0.78755 0.77716 0.0
H2347 H 0.39142 0.84659 0.74042 0.0
H2348 H 0.23393 0.79752 0.78928 0.0
H2349 H 0.17449 0.73905 0.79075 0.0
H2350 H 0.19867 0.80413 0.78602 0.0
H2351 H 0.21 0.73235 0.79263 0.0
Eu2352 Eu 0.55924 0.03867 0.04344 0.0
Eu2353 Eu 0.55734 0.06321 1.00297 0.0
C2354 C 0.55463 0.08663 0.05105 0.0
C2355 C 0.54541 1.01422 0.09159 0.0
C2356 C 0.5273 0.02279 0.09236 0.0
C2357 C 0.53651 0.99839 0.12245 0.0
C2358 C 0.51395 0.01937 0.10823 0.0
C2359 C 0.54988 1.00187 0.10654 0.0
C2360 C 0.51849 1.00727 0.12356 0.0
C2361 C 0.55966 0.01833 0.07529 0.0
O2362 O 0.5909 0.05944 1.00709 0.0
O2363 O 0.59268 0.05613 0.04247 0.0
C2364 C 0.60194 0.05987 0.02522 0.0
O2365 O 0.57108 0.01909 0.01615 0.0
O2366 O 0.56597 0.09221 0.99036 0.0
O2367 O 0.54669 0.06466 0.97013 0.0
O2368 O 0.55298 0.02837 0.98869 0.0
C2369 C 0.56328 0.01532 0.99614 0.0
O2370 O 0.52497 0.03056 0.02982 0.0
O2371 O 0.52432 0.05834 1.01229 0.0
O2372 O 0.56353 0.08791 0.03327 0.0
O2373 O 0.55261 1.00922 0.05562 0.0
O2374 O 0.56875 0.03811 0.07674 0.0
O2375 O 0.54777 0.06826 0.05623 0.0
C2376 C 0.57102 0.08653 0.95391 0.0
C2377 C 0.58677 0.07472 0.95065 0.0
C2378 C 0.58239 0.10509 0.92549 0.0
C2379 C 0.60023 0.07801 0.93483 0.0
C2380 C 0.5689 0.10175 0.94132 0.0
C2381 C 0.59822 0.09325 0.92207 0.0
C2382 C 0.55743 0.0837 0.97107 0.0
C2383 C 0.5145 0.04245 0.0203 0.0
H2384 H 0.52366 0.03237 0.08085 0.0
H2385 H 0.54029 0.98883 0.13389 0.0
H2386 H 0.50039 0.02669 0.10885 0.0
H2387 H 0.56378 0.99506 0.10602 0.0
H2388 H 0.58866 0.06298 0.96038 0.0
H2389 H 0.58059 0.11709 0.91608 0.0
H2390 H 0.61203 0.0684 0.93239 0.0
H2391 H 0.55693 0.11115 0.94385 0.0
Eu2392 Eu 0.32602 0.31648 0.2953 0.0
Eu2393 Eu 0.29641 0.2739 0.266 0.0
C2394 C 0.30922 0.31584 0.24601 0.0
C2395 C 0.35149 0.37309 0.31473 0.0
C2396 C 0.34924 0.37814 0.29423 0.0
C2397 C 0.34705 0.40834 0.33063 0.0
C2398 C 0.345 0.39777 0.29192 0.0
C2399 C 0.35134 0.38862 0.33294 0.0
C2400 C 0.34278 0.41266 0.31006 0.0
C2401 C 0.34995 0.35091 0.31693 0.0
O2402 O 0.32877 0.27508 0.25633 0.0
O2403 O 0.34622 0.29212 0.28837 0.0
C2404 C 0.3459 0.28061 0.26925 0.0
O2405 O 0.31506 0.29579 0.31883 0.0
O2406 O 0.28216 0.25654 0.23452 0.0
O2407 O 0.2769 0.24242 0.26248 0.0
O2408 O 0.30854 0.26352 0.29614 0.0
C2409 C 0.31131 0.27502 0.31573 0.0
O2410 O 0.29346 0.32344 0.29411 0.0
O2411 O 0.27563 0.289 0.28773 0.0
O2412 O 0.29398 0.30013 0.2474 0.0
O2413 O 0.33231 0.34232 0.32307 0.0
O2414 O 0.35594 0.33844 0.30114 0.0
O2415 O 0.32455 0.32275 0.26133 0.0
C2416 C 0.28334 0.22052 0.23154 0.0
C2417 C 0.30447 0.22266 0.22806 0.0
C2418 C 0.27989 0.18234 0.22429 0.0
C2419 C 0.31351 0.20487 0.22386 0.0
C2420 C 0.27088 0.20028 0.22876 0.0
C2421 C 0.30154 0.18453 0.223 0.0
C2422 C 0.27558 0.23919 0.24159 0.0
C2423 C 0.2768 0.30921 0.29523 0.0
H2424 H 0.34914 0.36638 0.2799 0.0
H2425 H 0.34567 0.41964 0.34488 0.0
H2426 H 0.34156 0.40042 0.27583 0.0
H2427 H 0.353 0.38496 0.34888 0.0
H2428 H 0.31438 0.23817 0.23015 0.0
H2429 H 0.27014 0.16686 0.22323 0.0
H2430 H 0.33022 0.20735 0.22322 0.0
H2431 H 0.25452 0.19836 0.23136 0.0
Eu2432 Eu 0.54423 0.56846 0.03735 0.0
Eu2433 Eu 0.56442 0.52852 0.01693 0.0
C2434 C 0.59054 0.57607 0.01975 0.0
C2435 C 0.53344 0.62263 0.04373 0.0
C2436 C 0.54806 0.62564 0.02876 0.0
C2437 C 0.52482 0.65682 0.04133 0.0
C2438 C 0.55115 0.64406 0.02023 0.0
C2439 C 0.52181 0.63829 0.05002 0.0
C2440 C 0.53957 0.65986 0.02636 0.0
C2441 C 0.53004 0.60261 0.05169 0.0
O2442 O 0.57701 0.53429 0.05285 0.0
O2443 O 0.55692 0.55739 0.06762 0.0
C2444 C 0.57084 0.54526 0.07008 0.0
O2445 O 0.51815 0.54058 0.0367 0.0
O2446 O 0.58941 0.51033 1.01489 0.0
O2447 O 0.5611 0.49911 0.99366 0.0
O2448 O 0.53647 0.51367 0.032 0.0
C2449 C 0.51931 0.52066 0.03613 0.0
O2450 O 0.53727 0.5671 1.00078 0.0
O2451 O 0.54453 0.53452 0.98796 0.0
O2452 O 0.58801 0.55605 1.01059 0.0
O2453 O 0.51917 0.58646 0.03823 0.0
O2454 O 0.54668 0.59795 0.06043 0.0
O2455 O 0.57673 0.58321 0.03164 0.0
C2456 C 0.57539 0.47385 1.00896 0.0
C2457 C 0.55582 0.46427 1.0141 0.0
C2458 C 0.59086 0.44742 0.02324 0.0
C2459 C 0.55384 0.44671 0.02405 0.0
C2460 C 0.59283 0.46503 1.0132 0.0
C2461 C 0.5714 0.43836 0.02915 0.0
C2462 C 0.57798 0.49429 1.00167 0.0
C2463 C 0.53663 0.55114 0.98459 0.0
H2464 H 0.55691 0.61355 0.0234 0.0
H2465 H 0.51568 0.66877 0.04632 0.0
H2466 H 0.56229 0.64569 1.00839 0.0
H2467 H 0.51034 0.63611 0.06144 0.0
H2468 H 0.5421 0.47083 1.01125 0.0
H2469 H 0.60462 0.44119 0.02683 0.0
H2470 H 0.5387 0.44035 0.02869 0.0
H2471 H 0.60807 0.47225 1.00947 0.0
Eu2472 Eu 0.82638 0.31501 0.27718 0.0
Eu2473 Eu 0.78381 0.28428 0.28182 0.0
C2474 C 0.80486 0.32003 0.32191 0.0
C2475 C 0.88323 0.32925 0.27106 0.0
C2476 C 0.90226 0.34323 0.27751 0.0
C2477 C 0.90144 0.29991 0.26397 0.0
C2478 C 0.92077 0.33551 0.2778 0.0
C2479 C 0.88296 0.30768 0.26351 0.0
C2480 C 0.92042 0.31366 0.27187 0.0
C2481 C 0.86374 0.33631 0.27575 0.0
O2482 O 0.77367 0.31641 0.27763 0.0
O2483 O 0.80394 0.33855 0.27362 0.0
C2484 C 0.78352 0.33557 0.27524 0.0
O2485 O 0.81673 0.29845 0.24303 0.0
O2486 O 0.76255 0.2662 0.30016 0.0
O2487 O 0.75271 0.26868 0.26765 0.0
O2488 O 0.79261 0.27063 0.2491 0.0
C2489 C 0.80526 0.2795 0.23656 0.0
O2490 O 0.83647 0.28303 0.28212 0.0
O2491 O 0.80587 0.26011 0.28307 0.0
O2492 O 0.79504 0.30031 0.31606 0.0
O2493 O 0.84923 0.33249 0.25981 0.0
O2494 O 0.85653 0.33136 0.29331 0.0
O2495 O 0.81588 0.32946 0.30858 0.0
C2496 C 0.728 0.26979 0.29242 0.0
C2497 C 0.70906 0.2553 0.28899 0.0
C2498 C 0.7096 0.2987 0.30141 0.0
C2499 C 0.69037 0.26256 0.29109 0.0
C2500 C 0.72826 0.29142 0.29955 0.0
C2501 C 0.69049 0.28441 0.29635 0.0
C2502 C 0.74697 0.26295 0.28544 0.0
C2503 C 0.82643 0.26344 0.28279 0.0
H2504 H 0.90268 0.35988 0.28359 0.0
H2505 H 0.90075 0.28303 0.25919 0.0
H2506 H 0.93514 0.34644 0.2842 0.0
H2507 H 0.86835 0.29664 0.2585 0.0
H2508 H 0.70864 0.23858 0.28338 0.0
H2509 H 0.71007 0.31561 0.3055 0.0
H2510 H 0.67583 0.25124 0.28684 0.0
H2511 H 0.74282 0.3028 0.30232 0.0
Eu2512 Eu 0.05495 0.54602 0.53854 0.0
Eu2513 Eu 0.05151 0.55761 0.49075 0.0
C2514 C 0.0463 0.59101 0.53179 0.0
C2515 C 0.04305 0.52739 0.59062 0.0
C2516 C 0.0227 0.51713 0.58258 0.0
C2517 C 0.03421 0.52563 0.62678 0.0
C2518 C 1.00808 0.51129 0.59666 0.0
C2519 C 0.04881 0.5313 0.6127 0.0
C2520 C 1.01358 0.51584 0.61896 0.0
C2521 C 0.05782 0.53585 0.57645 0.0
O2522 O 0.0851 0.57162 0.50385 0.0
O2523 O 0.08849 0.55172 0.52978 0.0
C2524 C 0.09689 0.56448 0.51733 0.0
O2525 O 0.04645 0.51575 0.51427 0.0
O2526 O 0.05516 0.58025 0.46921 0.0
O2527 O 0.04272 0.54698 0.45637 0.0
O2528 O 0.06502 0.52813 0.48862 0.0
C2529 C 0.05693 0.51232 0.49755 0.0
O2530 O 0.02001 0.5439 0.53183 0.0
O2531 O 0.01867 0.54138 0.49518 0.0
O2532 O 0.03929 0.58286 0.51185 0.0
O2533 O 0.0597 0.52315 0.55874 0.0
O2534 O 0.05675 0.55483 0.57336 0.0
O2535 O 0.05705 0.58126 0.54344 0.0
C2536 C 0.06343 0.56628 0.43477 0.0
C2537 C 0.08513 0.57135 0.4395 0.0
C2538 C 0.06795 0.56108 0.39675 0.0
C2539 C 0.09817 0.57142 0.42292 0.0
C2540 C 0.05491 0.56121 0.41335 0.0
C2541 C 0.08969 0.56615 0.4014 0.0
C2542 C 0.04953 0.56568 0.45198 0.0
C2543 C 1.00925 0.54019 0.51288 0.0
H2544 H 0.01799 0.51417 0.56551 0.0
H2545 H 0.0389 0.52978 0.64385 0.0
H2546 H 0.99239 0.50362 0.59013 0.0
H2547 H 0.06441 0.53944 0.61911 0.0
H2548 H 0.09199 0.57509 0.45599 0.0
H2549 H 0.06105 0.5571 0.38029 0.0
H2550 H 0.11489 0.57513 0.42689 0.0
H2551 H 0.03819 0.5572 0.40947 0.0
Eu2552 Eu 0.77575 0.8052 0.27912 0.0
Eu2553 Eu 0.82289 0.79612 0.28267 0.0
C2554 C 0.78258 0.75672 0.28394 0.0
C2555 C 0.72153 0.81065 0.29302 0.0
C2556 C 0.72655 0.80957 0.31453 0.0
C2557 C 0.68509 0.80715 0.29946 0.0
C2558 C 0.71094 0.80748 0.32849 0.0
C2559 C 0.70075 0.80939 0.28554 0.0
C2560 C 0.69005 0.80623 0.32109 0.0
C2561 C 0.73789 0.81272 0.2783 0.0
O2562 O 0.81576 0.79397 0.24669 0.0
O2563 O 0.78069 0.79401 0.24478 0.0
C2564 C 0.79769 0.79182 0.23548 0.0
O2565 O 0.79597 0.83623 0.27273 0.0
O2566 O 0.84458 0.77516 0.27383 0.0
O2567 O 0.85524 0.80464 0.29641 0.0
O2568 O 0.82915 0.83194 0.28166 0.0
C2569 C 0.8163 0.84409 0.27636 0.0
O2570 O 0.78568 0.81455 0.31442 0.0
O2571 O 0.81541 0.80109 0.31749 0.0
O2572 O 0.80264 0.76323 0.28222 0.0
O2573 O 0.75446 0.8271 0.28549 0.0
O2574 O 0.74251 0.79504 0.26882 0.0
O2575 O 0.76986 0.77043 0.28478 0.0
C2576 C 0.87916 0.79205 0.27348 0.0
C2577 C 0.88342 0.80957 0.26327 0.0
C2578 C 0.90916 0.77958 0.25947 0.0
C2579 C 0.90053 0.81206 0.25118 0.0
C2580 C 0.89221 0.77721 0.27168 0.0
C2581 C 0.91335 0.79689 0.24894 0.0
C2582 C 0.86051 0.78818 0.28491 0.0
C2583 C 0.80088 0.81029 0.32618 0.0
H2584 H 0.74252 0.81031 0.32054 0.0
H2585 H 0.66914 0.80643 0.29338 0.0
H2586 H 0.71519 0.80655 0.34499 0.0
H2587 H 0.69664 0.81013 0.26895 0.0
H2588 H 0.87332 0.82107 0.26432 0.0
H2589 H 0.91896 0.76781 0.25816 0.0
H2590 H 0.90337 0.82545 0.24308 0.0
H2591 H 0.88905 0.76357 0.27941 0.0
Eu2592 Eu 0.82963 0.29831 0.7495 0.0
Eu2593 Eu 0.80662 0.28459 0.79202 0.0
C2594 C 0.78013 0.29118 0.75062 0.0
C2595 C 0.8416 0.32419 0.70066 0.0
C2596 C 0.82094 0.32509 0.69431 0.0
C2597 C 0.85361 0.34709 0.67575 0.0
C2598 C 0.81665 0.33672 0.67856 0.0
C2599 C 0.85786 0.33542 0.6914 0.0
C2600 C 0.83295 0.34774 0.66892 0.0
C2601 C 0.84654 0.31162 0.71678 0.0
O2602 O 0.80416 0.25473 0.76762 0.0
O2603 O 0.83131 0.26395 0.74734 0.0
C2604 C 0.81736 0.2498 0.75372 0.0
O2605 O 0.85476 0.30202 0.77644 0.0
O2606 O 0.78189 0.26627 0.80671 0.0
O2607 O 0.80648 0.28927 0.82678 0.0
O2608 O 0.83856 0.27708 0.79443 0.0
C2609 C 0.85545 0.28901 0.78997 0.0
O2610 O 0.81578 0.32549 0.76507 0.0
O2611 O 0.81924 0.31971 0.79939 0.0
O2612 O 0.78214 0.2945 0.77172 0.0
O2613 O 0.85097 0.32181 0.73656 0.0
O2614 O 0.83464 0.29305 0.7155 0.0
O2615 O 0.79554 0.28728 0.73924 0.0
C2616 C 0.79176 0.25945 0.84096 0.0
C2617 C 0.80931 0.2501 0.84265 0.0
C2618 C 0.77737 0.24217 0.86919 0.0
C2619 C 0.81096 0.237 0.85772 0.0
C2620 C 0.77578 0.25528 0.85421 0.0
C2621 C 0.79503 0.23296 0.87126 0.0
C2622 C 0.79019 0.27433 0.82625 0.0
C2623 C 0.81706 0.33232 0.78584 0.0
H2624 H 0.80813 0.31663 0.70137 0.0
H2625 H 0.86658 0.3557 0.66904 0.0
H2626 H 0.80056 0.3367 0.67361 0.0
H2627 H 0.87391 0.33509 0.69623 0.0
H2628 H 0.82182 0.25312 0.83251 0.0
H2629 H 0.76496 0.23967 0.87954 0.0
H2630 H 0.82465 0.22998 0.85872 0.0
H2631 H 0.76218 0.26245 0.85321 0.0
Eu2632 Eu 0.81774 0.82009 0.79668 0.0
Eu2633 Eu 0.79289 0.77526 0.76705 0.0
C2634 C 0.80494 0.81657 0.74592 0.0
C2635 C 0.8243 0.87629 0.82095 0.0
C2636 C 0.80425 0.87412 0.81086 0.0
C2637 C 0.82603 0.91413 0.83136 0.0
C2638 C 0.79523 0.89175 0.81077 0.0
C2639 C 0.83514 0.8963 0.8314 0.0
C2640 C 0.80602 0.91201 0.82085 0.0
C2641 C 0.83367 0.85747 0.81926 0.0
O2642 O 0.82631 0.77122 0.77086 0.0
O2643 O 0.84211 0.80633 0.77944 0.0
C2644 C 0.84276 0.78642 0.77227 0.0
O2645 O 0.82197 0.79564 0.81705 0.0
O2646 O 0.79011 0.74854 0.74042 0.0
O2647 O 0.76462 0.75091 0.76027 0.0
O2648 O 0.79368 0.7703 0.80149 0.0
C2649 C 0.80793 0.77862 0.81767 0.0
O2650 O 0.78461 0.81508 0.80417 0.0
O2651 O 0.76961 0.79676 0.7716 0.0
O2652 O 0.80323 0.79595 0.74331 0.0
O2653 O 0.82341 0.84214 0.82738 0.0
O2654 O 0.83887 0.85067 0.80019 0.0
O2655 O 0.80576 0.82822 0.76526 0.0
C2656 C 0.77281 0.71716 0.74952 0.0
C2657 C 0.77219 0.71276 0.77038 0.0
C2658 C 0.7823 0.68317 0.73726 0.0
C2659 C 0.77737 0.69409 0.77478 0.0
C2660 C 0.77703 0.70187 0.73283 0.0
C2661 C 0.78343 0.67962 0.75846 0.0
C2662 C 0.77264 0.73873 0.74586 0.0
C2663 C 0.76819 0.80803 0.79043 0.0
H2664 H 0.79575 0.85878 0.80253 0.0
H2665 H 0.83469 0.92954 0.83927 0.0
H2666 H 0.78007 0.88955 0.80202 0.0
H2667 H 0.85068 0.89818 0.8392 0.0
H2668 H 0.76898 0.72428 0.78358 0.0
H2669 H 0.78702 0.67232 0.7244 0.0
H2670 H 0.77784 0.69157 0.79121 0.0
H2671 H 0.77767 0.70503 0.71666 0.0
Eu2672 Eu 0.56314 0.57062 0.53163 0.0
Eu2673 Eu 0.53951 0.52209 0.51982 0.0
C2674 C 0.56795 0.54283 0.48333 0.0
C2675 C 0.57242 0.62866 0.55393 0.0
C2676 C 0.55263 0.62554 0.56154 0.0
C2677 C 0.57326 0.66638 0.55943 0.0
C2678 C 0.54278 0.6427 0.56708 0.0
C2679 C 0.58305 0.6492 0.55381 0.0
C2680 C 0.55261 0.66315 0.56503 0.0
C2681 C 0.58027 0.61052 0.54284 0.0
O2682 O 0.57251 0.51906 0.53033 0.0
O2683 O 0.59017 0.5531 0.53247 0.0
C2684 C 0.59015 0.53288 0.532 0.0
O2685 O 0.55021 0.56484 0.56387 0.0
O2686 O 0.52239 0.49551 0.49578 0.0
O2687 O 0.52795 0.49181 0.52878 0.0
O2688 O 0.52845 0.53261 0.5536 0.0
C2689 C 0.53537 0.54992 0.56836 0.0
O2690 O 0.52878 0.57328 0.52749 0.0
O2691 O 0.51395 0.53925 0.51171 0.0
O2692 O 0.55713 0.52614 0.48968 0.0
O2693 O 0.58333 0.59631 0.55421 0.0
O2694 O 0.57054 0.60209 0.52393 0.0
O2695 O 0.57057 0.56173 0.49603 0.0
C2696 C 0.52869 0.46267 0.50216 0.0
C2697 C 0.55013 0.46303 0.50206 0.0
C2698 C 0.52223 0.42455 0.49853 0.0
C2699 C 0.55767 0.44434 0.50167 0.0
C2700 C 0.51472 0.44329 0.49918 0.0
C2701 C 0.5438 0.42514 0.50132 0.0
C2702 C 0.5213 0.48234 0.50911 0.0
C2703 C 0.51228 0.55893 0.51887 0.0
H2704 H 0.54422 0.60969 0.56171 0.0
H2705 H 0.58118 0.68188 0.55742 0.0
H2706 H 0.52693 0.63976 0.57145 0.0
H2707 H 0.59829 0.65181 0.54788 0.0
H2708 H 0.56108 0.47795 0.50419 0.0
H2709 H 0.51121 0.40988 0.49787 0.0
H2710 H 0.57435 0.44536 0.5039 0.0
H2711 H 0.49811 0.44281 0.49906 0.0
Eu2712 Eu 0.0697 0.53113 1.01142 0.0
Eu2713 Eu 0.02776 0.54282 0.04588 0.0
C2714 C 0.07504 0.53758 0.06421 0.0
C2715 C 0.11278 0.5004 0.9998 0.0
C2716 C 0.11511 0.49699 0.02097 0.0
C2717 C 0.14454 0.48722 0.99269 0.0
C2718 C 0.13203 0.48872 0.02794 0.0
C2719 C 0.12763 0.49552 0.98575 0.0
C2720 C 0.14696 0.48368 1.01387 0.0
C2721 C 0.09502 0.50915 0.99236 0.0
O2722 O 0.04655 0.57167 0.03531 0.0
O2723 O 0.07546 0.56621 0.01619 0.0
C2724 C 0.06323 0.57831 0.02553 0.0
O2725 O 0.04366 0.53376 0.98819 0.0
O2726 O 0.01979 0.56652 0.07123 0.0
O2727 O 0.99584 0.54057 0.05435 0.0
O2728 O 0.01716 0.54007 1.01058 0.0
C2729 C 0.02469 0.53716 0.99156 0.0
O2730 O 0.0441 0.51792 0.02722 0.0
O2731 O 0.01848 0.50675 0.04288 0.0
O2732 O 0.05527 0.53829 0.06719 0.0
O2733 O 0.07674 0.50066 0.99744 0.0
O2734 O 0.0979 0.52986 0.99497 0.0
O2735 O 0.08317 0.53728 0.04562 0.0
C2736 C 0.98584 0.57328 0.06499 0.0
C2737 C 0.98606 0.58301 0.04692 0.0
C2738 C 0.95667 0.58927 0.07634 0.0
C2739 C 0.97155 0.59572 0.04353 0.0
C2740 C 0.97116 0.57661 0.07971 0.0
C2741 C 0.95655 0.5989 0.05814 0.0
C2742 C 0.99986 0.55854 0.06791 0.0
C2743 C 0.03201 0.5012 0.03037 0.0
H2744 H 0.10381 0.50067 0.03209 0.0
H2745 H 0.15555 0.48325 0.98132 0.0
H2746 H 0.13349 0.48646 0.04442 0.0
H2747 H 0.12608 0.49802 0.96935 0.0
H2748 H 0.99725 0.58052 0.03531 0.0
H2749 H 0.94519 0.59105 0.08776 0.0
H2750 H 0.97208 0.60305 0.02948 0.0
H2751 H 0.97063 0.56905 0.09362 0.0
H2752 H 0.03801 0.24374 0.0435 0.0
H2753 H 0.99034 0.19571 1.00448 0.0
H2754 H 0.99637 0.17038 0.02712 0.0
H2755 H 0.02077 0.16007 0.0518 0.0
H2756 H 0.07012 0.20735 0.08943 0.0
H2757 H 0.0576 0.23497 0.07382 0.0
C2758 C 0.02864 0.22785 0.04033 0.0
C2759 C 1.01415 0.22136 0.02211 0.0
C2760 C 0.03268 0.21322 0.05297 0.0
C2761 C 1.00169 0.20097 0.01835 0.0
C2762 C 1.00525 0.18645 0.03119 0.0
C2763 C 0.02828 0.17651 0.05738 0.0
C2764 C 0.0467 0.1816 0.07133 0.0
C2765 C 0.02151 0.1921 0.04773 0.0
C2766 C 0.05618 0.203 0.07833 0.0
C2767 C 0.04911 0.21876 0.06931 0.0
H2768 H 0.19882 0.80853 0.18325 0.0
H2769 H 0.16021 0.77871 0.22633 0.0
H2770 H 0.19124 0.77821 0.24962 0.0
H2771 H 0.22948 0.78504 0.25672 0.0
H2772 H 0.26756 0.8154 0.2133 0.0
H2773 H 0.23659 0.81689 0.19118 0.0
C2774 C 0.19726 0.80192 0.19775 0.0
C2775 C 0.17743 0.79351 0.20306 0.0
C2776 C 0.21503 0.80175 0.21095 0.0
C2777 C 0.17543 0.78531 0.22203 0.0
C2778 C 0.19312 0.78495 0.23525 0.0
C2779 C 0.23098 0.79205 0.24248 0.0
C2780 C 0.25082 0.79996 0.23666 0.0
C2781 C 0.21303 0.79295 0.22974 0.0
C2782 C 0.2525 0.80917 0.21822 0.0
C2783 C 0.23479 0.81 0.20547 0.0
H2784 H 0.55446 0.90722 0.48544 0.0
H2785 H 0.48821 0.9049 0.47901 0.0
H2786 H 0.49392 0.94331 0.49139 0.0
H2787 H 0.51794 0.97767 0.50173 0.0
H2788 H 0.5843 0.97964 0.50742 0.0
H2789 H 0.57831 0.9412 0.49751 0.0
C2790 C 0.54129 0.91516 0.48675 0.0
C2791 C 0.52099 0.90338 0.48113 0.0
C2792 C 0.54471 0.93714 0.4936 0.0
C2793 C 0.50399 0.9137 0.48333 0.0
C2794 C 0.50726 0.93563 0.49027 0.0
C2795 C 0.53109 0.96969 0.50091 0.0
C2796 C 0.55152 0.98155 0.50511 0.0
C2797 C 0.52758 0.94754 0.4951 0.0
C2798 C 0.56839 0.97094 0.50416 0.0
C2799 C 0.56501 0.94894 0.49848 0.0
H2800 H 0.50781 0.30776 0.71097 0.0
H2801 H 0.47613 0.2594 0.6582 0.0
H2802 H 0.44419 0.25676 0.6763 0.0
H2803 H 0.42543 0.26785 0.70735 0.0
H2804 H 0.4568 0.31707 0.75937 0.0
H2805 H 0.48861 0.32022 0.74092 0.0
C2806 C 0.49385 0.2969 0.70319 0.0
C2807 C 0.49445 0.28374 0.68327 0.0
C2808 C 0.47548 0.29569 0.7135 0.0
C2809 C 0.47625 0.26946 0.6737 0.0
C2810 C 0.45793 0.26804 0.68396 0.0
C2811 C 0.43927 0.27925 0.71461 0.0
C2812 C 0.4389 0.29213 0.7347 0.0
C2813 C 0.45743 0.28096 0.70393 0.0
C2814 C 0.45675 0.30708 0.74384 0.0
C2815 C 0.47493 0.3088 0.73337 0.0
H2816 H 0.06907 0.86231 0.57827 0.0
H2817 H 1.00291 0.85352 0.5612 0.0
H2818 H 1.00906 0.88013 0.53857 0.0
H2819 H 0.03298 0.90731 0.52524 0.0
H2820 H 0.0991 0.91596 0.54166 0.0
H2821 H 0.09327 0.88736 0.56227 0.0
C2822 C 0.056 0.86591 0.56932 0.0
C2823 C 0.03552 0.85611 0.57175 0.0
C2824 C 0.05965 0.88111 0.55611 0.0
C2825 C 0.0188 0.86118 0.56011 0.0
C2826 C 0.0223 0.87628 0.54701 0.0
C2827 C 0.04611 0.90278 0.5332 0.0
C2828 C 0.0664 0.91378 0.53212 0.0
C2829 C 0.04261 0.88659 0.54519 0.0
C2830 C 0.08333 0.90762 0.54219 0.0
C2831 C 0.07999 0.89141 0.55412 0.0
H2832 H 0.49099 0.77945 0.79974 0.0
H2833 H 0.5124 0.84686 0.82017 0.0
H2834 H 0.48452 0.85363 0.79675 0.0
H2835 H 0.451 0.84036 0.77542 0.0
H2836 H 0.42868 0.77302 0.75587 0.0
H2837 H 0.46027 0.76619 0.77351 0.0
C2838 C 0.48982 0.79559 0.79862 0.0
C2839 C 0.50333 0.81262 0.81198 0.0
C2840 C 0.47355 0.79936 0.78538 0.0
C2841 C 0.50176 0.83349 0.8104 0.0
C2842 C 0.4859 0.83738 0.79697 0.0
C2843 C 0.4534 0.82422 0.77434 0.0
C2844 C 0.4375 0.80722 0.76464 0.0
C2845 C 0.47123 0.82044 0.78507 0.0
C2846 C 0.44069 0.78635 0.76352 0.0
C2847 C 0.45866 0.78245 0.77368 0.0
H2848 H 0.52957 0.16137 0.11469 0.0
H2849 H 0.56773 0.19812 0.07604 0.0
H2850 H 0.57514 0.16573 0.05512 0.0
H2851 H 0.57008 0.12708 0.04722 0.0
H2852 H 0.5325 0.09021 0.08624 0.0
H2853 H 0.52595 0.12267 0.10792 0.0
C2854 C 0.53975 0.16232 0.10189 0.0
C2855 C 0.54794 0.18212 0.09683 0.0
C2856 C 0.54408 0.14366 0.09002 0.0
C2857 C 0.5609 0.18305 0.08001 0.0
C2858 C 0.56525 0.16456 0.06812 0.0
C2859 C 0.56052 0.12611 0.06052 0.0
C2860 C 0.55171 0.10625 0.06502 0.0
C2861 C 0.55677 0.14478 0.07287 0.0
C2862 C 0.53948 0.10531 0.08241 0.0
C2863 C 0.53567 0.12385 0.09479 0.0
H2864 H 0.20202 0.33881 0.34217 0.0
H2865 H 0.20451 0.28199 0.36755 0.0
H2866 H 0.2348 0.27688 0.34838 0.0
H2867 H 0.25901 0.28707 0.32288 0.0
H2868 H 0.25837 0.34422 0.29788 0.0
H2869 H 0.22901 0.35101 0.31881 0.0
C2870 C 0.20943 0.32553 0.34377 0.0
C2871 C 0.20079 0.31056 0.35595 0.0
C2872 C 0.22699 0.3227 0.33271 0.0
C2873 C 0.21054 0.29342 0.35786 0.0
C2874 C 0.2279 0.29053 0.34699 0.0
C2875 C 0.25241 0.30102 0.32198 0.0
C2876 C 0.26036 0.3149 0.30856 0.0
C2877 C 0.23591 0.30478 0.33404 0.0
C2878 C 0.25224 0.33326 0.308 0.0
C2879 C 0.2355 0.33706 0.3199 0.0
H2880 H 0.98592 0.02863 0.15239 0.0
H2881 H 1.00293 0.09677 0.17041 0.0
H2882 H 0.02181 0.09807 0.13882 0.0
H2883 H 0.03412 0.08055 0.10472 0.0
H2884 H 0.0164 1.01271 0.08565 0.0
H2885 H 0.99779 1.01107 0.11782 0.0
C2886 C 0.99361 0.04391 0.14963 0.0
C2887 C 0.99267 0.06256 0.16514 0.0
C2888 C 1.00472 0.04477 0.13056 0.0
C2889 C 1.00324 0.08184 0.16009 0.0
C2890 C 1.01415 0.08271 0.14148 0.0
C2891 C 0.02632 0.06528 0.10748 0.0
C2892 C 0.02724 0.04672 0.09199 0.0
C2893 C 0.01518 0.06435 0.12646 0.0
C2894 C 0.01649 0.0274 0.09663 0.0
C2895 C 1.00563 0.02643 0.11533 0.0
H2896 H 0.29322 0.67451 0.43163 0.0
H2897 H 0.32958 0.72955 0.47388 0.0
H2898 H 0.32537 0.75116 0.44671 0.0
H2899 H 0.31062 0.75461 0.41121 0.0
H2900 H 0.27431 0.6995 0.36901 0.0
H2901 H 0.27922 0.67775 0.39585 0.0
C2902 C 0.30014 0.69126 0.43492 0.0
C2903 C 0.31162 0.70041 0.4548 0.0
C2904 C 0.29765 0.70359 0.41923 0.0
C2905 C 0.32081 0.72206 0.45866 0.0
C2906 C 0.31831 0.73446 0.44317 0.0
C2907 C 0.30372 0.73786 0.40795 0.0
C2908 C 0.29205 0.72871 0.38817 0.0
C2909 C 0.30664 0.72543 0.42345 0.0
C2910 C 0.28349 0.7069 0.38403 0.0
C2911 C 0.28621 0.69447 0.39942 0.0
H2912 H 0.61831 0.02992 0.64416 0.0
H2913 H 0.67464 0.06137 0.62255 0.0
H2914 H 0.6555 0.06352 0.58906 0.0
H2915 H 0.62283 0.05793 0.56691 0.0
H2916 H 0.56575 0.02763 0.58845 0.0
H2917 H 0.58511 0.02366 0.62118 0.0
C2918 C 0.62632 0.03695 0.63191 0.0
C2919 C 0.64776 0.04541 0.63557 0.0
C2920 C 0.6151 0.03858 0.61295 0.0
C2921 C 0.6581 0.05478 0.61989 0.0
C2922 C 0.64718 0.05606 0.60085 0.0
C2923 C 0.6145 0.05046 0.57871 0.0
C2924 C 0.59282 0.04322 0.57527 0.0
C2925 C 0.62565 0.04831 0.59738 0.0
C2926 C 0.58242 0.03348 0.59075 0.0
C2927 C 0.59348 0.03114 0.60943 0.0
H2928 H 0.32451 0.31222 0.92529 0.0
H2929 H 0.29414 0.36539 0.92316 0.0
H2930 H 0.28981 0.35665 0.88427 0.0
H2931 H 0.29489 0.33449 0.85046 0.0
H2932 H 0.3273 0.28278 0.85169 0.0
H2933 H 0.3308 0.29061 0.89101 0.0
C2934 C 0.31708 0.32203 0.91638 0.0
C2935 C 0.30932 0.33926 0.92756 0.0
C2936 C 0.31502 0.31723 0.89366 0.0
C2937 C 0.2997 0.35162 0.91539 0.0
C2938 C 0.29737 0.34678 0.89297 0.0
C2939 C 0.30265 0.32483 0.85928 0.0
C2940 C 0.31071 0.30797 0.848 0.0
C2941 C 0.30491 0.32962 0.88191 0.0
C2942 C 0.32093 0.29585 0.85985 0.0
C2943 C 0.32293 0.30033 0.8824 0.0
H2944 H 1.01016 0.04408 0.3827 0.0
H2945 H 0.97254 0.08802 0.40973 0.0
H2946 H 0.98702 0.08725 0.44569 0.0
H2947 H 1.01046 0.07401 0.47096 0.0
H2948 H 0.04781 0.0299 0.44388 0.0
H2949 H 0.03348 0.03088 0.40781 0.0
C2950 C 1.0049 0.05351 0.3963 0.0
C2951 C 0.98999 0.06634 0.39243 0.0
C2952 C 1.01342 0.05297 0.41769 0.0
C2953 C 0.98406 0.07829 0.41115 0.0
C2954 C 0.99235 0.07773 0.43217 0.0
C2955 C 0.01558 0.06456 0.45727 0.0
C2956 C 0.03059 0.05183 0.46099 0.0
C2957 C 1.00711 0.06518 0.43587 0.0
C2958 C 0.03655 0.03992 0.44233 0.0
C2959 C 0.02822 0.04044 0.42133 0.0
H2960 H 0.30947 0.73234 0.63806 0.0
H2961 H 0.30581 0.67788 0.66878 0.0
H2962 H 0.29905 0.69892 0.70218 0.0
H2963 H 0.29481 0.73269 0.72316 0.0
H2964 H 0.30083 0.78815 0.69403 0.0
H2965 H 0.30622 0.76687 0.65971 0.0
C2966 C 0.30742 0.72507 0.65208 0.0
C2967 C 0.30796 0.70331 0.65057 0.0
C2968 C 0.3039 0.73746 0.67162 0.0
C2969 C 0.30501 0.69433 0.66906 0.0
C2970 C 0.30127 0.70643 0.68833 0.0
C2971 C 0.29707 0.74017 0.70928 0.0
C2972 C 0.29715 0.76201 0.71118 0.0
C2973 C 0.30063 0.72796 0.6898 0.0
C2974 C 0.30055 0.77138 0.69304 0.0
C2975 C 0.30369 0.7592 0.67341 0.0
H2976 H 0.66663 0.09556 0.85652 0.0
H2977 H 0.61425 0.09969 0.81417 0.0
H2978 H 0.59257 0.10161 0.8442 0.0
H2979 H 0.58776 0.09868 0.88164 0.0
H2980 H 0.64019 0.09453 0.92397 0.0
H2981 H 0.66265 0.09607 0.89473 0.0
C2982 C 0.65062 0.09742 0.85397 0.0
C2983 C 0.64201 0.09738 0.83316 0.0
C2984 C 0.6382 0.09819 0.87121 0.0
C2985 C 0.62114 0.09946 0.83003 0.0
C2986 C 0.60875 0.10054 0.84717 0.0
C2987 C 0.60418 0.09854 0.88459 0.0
C2988 C 0.61223 0.09627 0.90489 0.0
C2989 C 0.61699 0.09938 0.86771 0.0
C2990 C 0.63352 0.09586 0.90837 0.0
C2991 C 0.64639 0.09685 0.8917 0.0
H2992 H 0.32502 0.36746 0.17064 0.0
H2993 H 0.2945 0.30697 0.13277 0.0
H2994 H 0.28903 0.29275 0.16539 0.0
H2995 H 0.29385 0.29676 0.20489 0.0
H2996 H 0.327 0.35613 0.24248 0.0
H2997 H 0.33066 0.37122 0.20993 0.0
C2998 C 0.3174 0.35107 0.16934 0.0
C2999 C 0.31012 0.33852 0.14888 0.0
C3000 C 0.31472 0.34267 0.1883 0.0
C3001 C 0.29994 0.31738 0.14802 0.0
C3002 C 0.29692 0.30907 0.16678 0.0
C3003 C 0.30166 0.31309 0.20598 0.0
C3004 C 0.30997 0.32533 0.22622 0.0
C3005 C 0.30425 0.32153 0.18703 0.0
C3006 C 0.32041 0.34633 0.2272 0.0
C3007 C 0.32255 0.35497 0.20854 0.0
H3008 H 0.19378 0.03295 0.03975 0.0
H3009 H 0.17062 0.97247 0.99809 0.0
H3010 H 0.13504 0.97784 1.0009 0.0
H3011 H 0.10984 0.99988 1.01458 0.0
H3012 H 0.13289 0.06002 0.05678 0.0
H3013 H 0.16852 0.05429 0.05465 0.0
C3014 C 0.18104 0.02077 0.0314 0.0
C3015 C 0.18544 1.00238 0.01843 0.0
C3016 C 0.16022 0.02382 0.03326 0.0
C3017 C 0.16826 0.98707 1.00774 0.0
C3018 C 0.14767 0.99002 1.0095 0.0
C3019 C 0.12258 1.01167 0.02355 0.0
C3020 C 0.11829 0.03039 0.03593 0.0
C3021 C 0.14337 1.00838 0.02212 0.0
C3022 C 0.13535 0.04542 0.04716 0.0
C3023 C 0.15592 0.04219 0.0459 0.0
H3024 H 0.66732 0.65144 0.02343 0.0
H3025 H 0.69391 0.6008 0.98984 0.0
H3026 H 0.66129 0.57577 0.98969 0.0
H3027 H 0.62545 0.56786 1.00041 0.0
H3028 H 0.59934 0.61886 0.03426 0.0
H3029 H 0.63139 0.64386 0.03305 0.0
C3030 C 0.66604 0.63491 0.01615 0.0
C3031 C 0.68317 0.62809 1.00674 0.0
C3032 C 0.64724 0.62053 0.0162 0.0
C3033 C 0.68099 0.60663 0.99703 0.0
C3034 C 0.66233 0.59223 0.99705 0.0
C3035 C 0.6267 0.58446 1.0074 0.0
C3036 C 0.60988 0.59129 0.01752 0.0
C3037 C 0.64537 0.59895 1.00673 0.0
C3038 C 0.61193 0.61295 0.02646 0.0
C3039 C 0.63033 0.62737 0.0258 0.0
H3040 H 0.71721 0.40056 0.27801 0.0
H3041 H 0.77311 0.4456 0.27393 0.0
H3042 H 0.79328 0.41778 0.27267 0.0
H3043 H 0.7966 0.37979 0.273 0.0
H3044 H 0.7411 0.33467 0.27764 0.0
H3045 H 0.72053 0.36249 0.2785 0.0
C3046 C 0.73381 0.40463 0.27689 0.0
C3047 C 0.74282 0.42629 0.27577 0.0
C3048 C 0.74604 0.38793 0.27627 0.0
C3049 C 0.76471 0.42985 0.27431 0.0
C3050 C 0.77668 0.41358 0.27376 0.0
C3051 C 0.77999 0.37577 0.2741 0.0
C3052 C 0.77098 0.35415 0.2751 0.0
C3053 C 0.76772 0.39239 0.27466 0.0
C3054 C 0.74915 0.35045 0.2767 0.0
C3055 C 0.73711 0.36669 0.27724 0.0
H3056 H 0.91113 0.51645 0.48798 0.0
H3057 H 0.9106 0.5237 0.55678 0.0
H3058 H 0.94858 0.53262 0.56097 0.0
H3059 H 0.98254 0.53792 0.54515 0.0
H3060 H 0.98257 0.52997 0.47622 0.0
H3061 H 0.94469 0.52152 0.47226 0.0
C3062 C 0.91921 0.51981 0.50394 0.0
C3063 C 0.90756 0.51936 0.52199 0.0
C3064 C 0.94128 0.52476 0.5063 0.0
C3065 C 0.91875 0.5242 0.54249 0.0
C3066 C 0.94065 0.52916 0.54493 0.0
C3067 C 0.97431 0.5343 0.52924 0.0
C3068 C 0.98577 0.53463 0.51104 0.0
C3069 C 0.95217 0.52944 0.52696 0.0
C3070 C 0.97451 0.52991 0.49062 0.0
C3071 C 0.95267 0.52505 0.48828 0.0
H3072 H 0.36756 0.13036 0.24092 0.0
H3073 H 0.32061 0.10618 0.28024 0.0
H3074 H 0.29719 0.12676 0.2668 0.0
H3075 H 0.29131 0.15393 0.24661 0.0
H3076 H 0.33645 0.17532 0.20434 0.0
H3077 H 0.35899 0.15257 0.21568 0.0
C3078 C 0.35207 0.12907 0.24626 0.0
C3079 C 0.34627 0.1171 0.26214 0.0
C3080 C 0.33826 0.14031 0.23785 0.0
C3081 C 0.32603 0.11594 0.26879 0.0
C3082 C 0.31241 0.12747 0.26085 0.0
C3083 C 0.30569 0.15314 0.2392 0.0
C3084 C 0.31231 0.16671 0.22495 0.0
C3085 C 0.31854 0.14003 0.24572 0.0
C3086 C 0.33117 0.16545 0.21577 0.0
C3087 C 0.3441 0.15248 0.22227 0.0
H3088 H 0.39281 0.14884 0.54696 0.0
H3089 H 0.3726 0.11576 0.48207 0.0
H3090 H 0.40046 0.09563 0.48326 0.0
H3091 H 0.42987 0.08643 0.50317 0.0
H3092 H 0.44918 0.11874 0.56843 0.0
H3093 H 0.42207 0.13975 0.56678 0.0
C3094 C 0.39431 0.13709 0.53312 0.0
C3095 C 0.38048 0.13386 0.51447 0.0
C3096 C 0.41016 0.12528 0.53402 0.0
C3097 C 0.38309 0.11884 0.49656 0.0
C3098 C 0.39896 0.10718 0.49727 0.0
C3099 C 0.42825 0.0982 0.51696 0.0
C3100 C 0.44152 0.10094 0.53592 0.0
C3101 C 0.41253 0.11018 0.51595 0.0
C3102 C 0.43904 0.1161 0.55373 0.0
C3103 C 0.42359 0.1282 0.55277 0.0
H3104 H 0.76696 0.65626 0.28757 0.0
H3105 H 0.70271 0.6626 0.2805 0.0
H3106 H 0.71358 0.70023 0.28019 0.0
H3107 H 0.74143 0.73262 0.28165 0.0
H3108 H 0.80564 0.72611 0.28823 0.0
H3109 H 0.79474 0.68856 0.28913 0.0
C3110 C 0.75519 0.66574 0.28606 0.0
C3111 C 0.73372 0.6556 0.28383 0.0
C3112 C 0.76164 0.68804 0.28581 0.0
C3113 C 0.71924 0.66901 0.2818 0.0
C3114 C 0.72551 0.69095 0.28177 0.0
C3115 C 0.75315 0.72312 0.28336 0.0
C3116 C 0.77463 0.73304 0.2849 0.0
C3117 C 0.74669 0.70083 0.28367 0.0
C3118 C 0.7891 0.71967 0.28697 0.0
C3119 C 0.78282 0.69785 0.2875 0.0
H3120 H 0.83878 0.42909 0.82462 0.0
H3121 H 0.80635 0.43153 0.7643 0.0
H3122 H 0.7954 0.39299 0.75699 0.0
H3123 H 0.80036 0.35879 0.76493 0.0
H3124 H 0.8337 0.35617 0.82472 0.0
H3125 H 0.83875 0.39471 0.8353 0.0
C3126 C 0.82867 0.42123 0.81027 0.0
C3127 C 0.82357 0.43298 0.79486 0.0
C3128 C 0.823 0.39908 0.80591 0.0
C3129 C 0.8106 0.42267 0.77624 0.0
C3130 C 0.80448 0.40068 0.77201 0.0
C3131 C 0.8085 0.36665 0.78039 0.0
C3132 C 0.81711 0.35485 0.79381 0.0
C3133 C 0.81149 0.38872 0.78623 0.0
C3134 C 0.82714 0.36504 0.81403 0.0
C3135 C 0.83007 0.38705 0.82006 0.0
H3136 H 0.09573 0.86361 0.03352 0.0
H3137 H 0.03636 0.852 0.05967 0.0
H3138 H 0.02202 0.87228 0.03576 0.0
H3139 H 0.02786 0.89732 1.01186 0.0
H3140 H 0.0872 0.9105 0.9859 0.0
H3141 H 0.09995 0.88512 1.00498 0.0
C3142 C 0.07958 0.86529 0.03366 0.0
C3143 C 0.06725 0.85689 0.04868 0.0
C3144 C 0.07147 0.87721 0.01999 0.0
C3145 C 0.04629 0.85892 0.04867 0.0
C3146 C 0.03805 0.87036 0.03491 0.0
C3147 C 0.04332 0.89412 1.00957 0.0
C3148 C 0.05661 0.906 0.99762 0.0
C3149 C 0.0507 0.88014 0.02106 0.0
C3150 C 0.07673 0.90177 0.99525 0.0
C3151 C 0.08406 0.88736 1.00625 0.0
H3152 H 0.94314 0.30329 0.84173 0.0
H3153 H 0.91559 0.24381 0.85837 0.0
H3154 H 0.8844 0.24182 0.83433 0.0
H3155 H 0.86414 0.25845 0.81094 0.0
H3156 H 0.89176 0.31804 0.7943 0.0
H3157 H 0.92393 0.31851 0.81598 0.0
C3158 C 0.93032 0.28985 0.83993 0.0
C3159 C 0.93143 0.27382 0.85185 0.0
C3160 C 0.91252 0.28891 0.82624 0.0
C3161 C 0.91499 0.25627 0.84924 0.0
C3162 C 0.89717 0.25521 0.83563 0.0
C3163 C 0.87724 0.27149 0.81196 0.0
C3164 C 0.87551 0.28833 0.80128 0.0
C3165 C 0.89562 0.27167 0.82443 0.0
C3166 C 0.8927 0.30493 0.80244 0.0
C3167 C 0.91106 0.30525 0.81487 0.0
H3168 H 0.57178 0.18706 0.55468 0.0
H3169 H 0.63784 0.18937 0.56417 0.0
H3170 H 0.633 0.15226 0.54596 0.0
H3171 H 0.60927 0.11816 0.53105 0.0
H3172 H 0.54302 0.11575 0.52528 0.0
H3173 H 0.54855 0.15404 0.53789 0.0
C3174 C 0.58517 0.17958 0.55227 0.0
C3175 C 0.60512 0.19082 0.5606 0.0
C3176 C 0.58215 0.15821 0.54255 0.0
C3177 C 0.62233 0.18089 0.55786 0.0
C3178 C 0.61955 0.15973 0.5475 0.0
C3179 C 0.59617 0.12622 0.53215 0.0
C3180 C 0.57581 0.11443 0.5273 0.0
C3181 C 0.59945 0.14807 0.54031 0.0
C3182 C 0.55881 0.12471 0.52904 0.0
C3183 C 0.56196 0.14652 0.53627 0.0
H3184 H 0.62803 0.80929 0.3934 0.0
H3185 H 0.58954 0.76111 0.34484 0.0
H3186 H 0.61751 0.76313 0.32109 0.0
H3187 H 0.65245 0.77947 0.31363 0.0
H3188 H 0.69067 0.82813 0.36189 0.0
H3189 H 0.66323 0.8251 0.38622 0.0
C3190 C 0.62576 0.79927 0.3776 0.0
C3191 C 0.60673 0.78511 0.37089 0.0
C3192 C 0.64181 0.80066 0.36395 0.0
C3193 C 0.60413 0.77197 0.3505 0.0
C3194 C 0.62005 0.77324 0.33684 0.0
C3195 C 0.6547 0.78948 0.32943 0.0
C3196 C 0.6735 0.80407 0.33592 0.0
C3197 C 0.63887 0.78767 0.34331 0.0
C3198 C 0.67638 0.81668 0.35659 0.0
C3199 C 0.66068 0.81501 0.37047 0.0
H3200 H 0.04674 0.21202 0.4517 0.0
H3201 H 0.08676 0.25622 0.50247 0.0
H3202 H 0.08 0.23103 0.52663 0.0
H3203 H 0.06332 0.1961 0.53314 0.0
H3204 H 0.02289 0.15232 0.48248 0.0
H3205 H 0.0286 0.17807 0.45877 0.0
C3206 C 0.05373 0.21636 0.46814 0.0
C3207 C 0.06735 0.236 0.47514 0.0
C3208 C 0.04958 0.20192 0.48206 0.0
C3209 C 0.07653 0.24108 0.49646 0.0
C3210 C 0.07255 0.22674 0.51037 0.0
C3211 C 0.05574 0.19224 0.51692 0.0
C3212 C 0.04272 0.17232 0.5096 0.0
C3213 C 0.05924 0.20704 0.50329 0.0
C3214 C 0.03278 0.16763 0.48862 0.0
C3215 C 0.03618 0.18228 0.47498 0.0
H3216 H 0.59954 0.29331 0.27044 0.0
H3217 H 0.63303 0.3299 0.22832 0.0
H3218 H 0.66578 0.32939 0.24782 0.0
H3219 H 0.68518 0.31312 0.27205 0.0
H3220 H 0.65236 0.27229 0.31067 0.0
H3221 H 0.61913 0.27952 0.29708 0.0
C3222 C 0.61397 0.30121 0.2655 0.0
C3223 C 0.61364 0.3113 0.24761 0.0
C3224 C 0.63296 0.2998 0.27598 0.0
C3225 C 0.63255 0.32212 0.24205 0.0
C3226 C 0.65143 0.32162 0.25305 0.0
C3227 C 0.6708 0.30634 0.278 0.0
C3228 C 0.67111 0.29222 0.29231 0.0
C3229 C 0.65184 0.30977 0.26939 0.0
C3230 C 0.65239 0.28318 0.29961 0.0
C3231 C 0.63344 0.28725 0.29178 0.0
H3232 H 0.55923 0.92682 0.9364 0.0
H3233 H 0.61681 0.93087 0.97474 0.0
H3234 H 0.6146 0.96642 0.99325 0.0
H3235 H 0.59518 0.99514 0.99998 0.0
H3236 H 0.53804 0.99192 0.96118 0.0
H3237 H 0.54126 0.95722 0.94105 0.0
C3238 C 0.57128 0.93561 0.94876 0.0
C3239 C 0.58803 0.92634 0.95447 0.0
C3240 C 0.56997 0.95604 0.95915 0.0
C3241 C 0.6038 0.93783 0.97018 0.0
C3242 C 0.6025 0.95805 0.98077 0.0
C3243 C 0.58349 0.98688 0.98702 0.0
C3244 C 0.56625 0.99582 0.9822 0.0
C3245 C 0.5855 0.96713 0.9756 0.0
C3246 C 0.55143 0.98525 0.96514 0.0
C3247 C 0.55321 0.96541 0.95375 0.0
H3248 H 0.91044 0.75915 0.71301 0.0
H3249 H 0.93554 0.82624 0.73188 0.0
H3250 H 0.90952 0.82961 0.75726 0.0
H3251 H 0.87818 0.81456 0.77169 0.0
H3252 H 0.85007 0.74846 0.75055 0.0
H3253 H 0.87901 0.7436 0.72868 0.0
C3254 C 0.91012 0.77453 0.72256 0.0
C3255 C 0.92493 0.79243 0.72044 0.0
C3256 C 0.89467 0.77653 0.73677 0.0
C3257 C 0.92456 0.81214 0.73332 0.0
C3258 C 0.90959 0.81413 0.74779 0.0
C3259 C 0.87838 0.79896 0.76253 0.0
C3260 C 0.86183 0.78195 0.76259 0.0
C3261 C 0.89442 0.79653 0.74936 0.0
C3262 C 0.86259 0.76185 0.75077 0.0
C3263 C 0.87903 0.75911 0.73812 0.0
H3264 H 0.12881 0.06526 0.90734 0.0
H3265 H 0.10056 0.99974 0.88283 0.0
H3266 H 0.08254 0.99849 0.915 0.0
H3267 H 0.0738 0.01541 0.95115 0.0
H3268 H 0.10108 0.08103 0.97558 0.0
H3269 H 0.11947 0.08247 0.94327 0.0
C3270 C 0.11869 0.0506 0.90871 0.0
C3271 C 0.11694 0.03249 0.8917 0.0
C3272 C 0.10769 0.04988 0.92783 0.0
C3273 C 0.10335 1.01399 0.89499 0.0
C3274 C 0.0926 1.01323 0.9137 0.0
C3275 C 0.08367 0.03017 0.94955 0.0
C3276 C 0.08555 0.04815 0.9666 0.0
C3277 C 0.09455 0.03099 0.93042 0.0
C3278 C 0.09881 0.06681 0.96337 0.0
C3279 C 0.10954 0.06767 0.94459 0.0
H3280 H 0.82686 0.39289 0.58885 0.0
H3281 H 0.77699 0.41482 0.6219 0.0
H3282 H 0.7831 0.39499 0.65019 0.0
H3283 H 0.80321 0.37201 0.66602 0.0
H3284 H 0.85271 0.3498 0.6324 0.0
H3285 H 0.84643 0.36951 0.60423 0.0
C3286 C 0.81742 0.39348 0.60233 0.0
C3287 C 0.80153 0.40541 0.60324 0.0
C3288 C 0.82105 0.38208 0.61857 0.0
C3289 C 0.7892 0.40564 0.62065 0.0
C3290 C 0.79276 0.39437 0.63691 0.0
C3291 C 0.8125 0.3713 0.65244 0.0
C3292 C 0.82855 0.35951 0.65153 0.0
C3293 C 0.80868 0.38256 0.63607 0.0
C3294 C 0.84054 0.35903 0.63384 0.0
C3295 C 0.83687 0.3702 0.61759 0.0
H3296 H 0.49912 0.04581 0.38686 0.0
H3297 H 0.47035 0.09388 0.42223 0.0
H3298 H 0.49228 0.094 0.45468 0.0
H3299 H 0.51818 0.07915 0.4733 0.0
H3300 H 0.54758 0.03171 0.43781 0.0
H3301 H 0.52717 0.03315 0.40482 0.0
C3302 C 0.49794 0.05669 0.40151 0.0
C3303 C 0.48298 0.06972 0.4021 0.0
C3304 C 0.51067 0.05678 0.42005 0.0
C3305 C 0.48146 0.08342 0.42139 0.0
C3306 C 0.49406 0.08358 0.43993 0.0
C3307 C 0.52022 0.06919 0.45833 0.0
C3308 C 0.5342 0.05517 0.45803 0.0
C3309 C 0.50845 0.07006 0.4395 0.0
C3310 C 0.53689 0.04261 0.43846 0.0
C3311 C 0.52518 0.04337 0.41962 0.0
H3312 H 0.77172 0.76405 0.13546 0.0
H3313 H 0.83757 0.76532 0.13399 0.0
H3314 H 0.84284 0.7774 0.17296 0.0
H3315 H 0.82839 0.78622 0.20802 0.0
H3316 H 0.76224 0.78458 0.2085 0.0
H3317 H 0.75761 0.77393 0.16975 0.0
C3318 C 0.78724 0.76691 0.14363 0.0
C3319 C 0.80417 0.76365 0.13167 0.0
C3320 C 0.79016 0.77373 0.16608 0.0
C3321 C 0.82423 0.76786 0.14264 0.0
C3322 C 0.82725 0.77464 0.16502 0.0
C3323 C 0.81298 0.78363 0.19966 0.0
C3324 C 0.79574 0.78619 0.21147 0.0
C3325 C 0.81028 0.77744 0.177 0.0
C3326 C 0.77591 0.78277 0.20013 0.0
C3327 C 0.77316 0.77662 0.17781 0.0
H3328 H 0.11927 1.00827 0.6466 0.0
H3329 H 0.10994 0.06822 0.68152 0.0
H3330 H 0.09378 0.0756 0.64899 0.0
H3331 H 0.08157 0.06566 0.60952 0.0
H3332 H 0.08991 1.00525 0.57498 0.0
H3333 H 0.10631 0.99793 0.60758 0.0
C3334 C 0.11368 0.02298 0.6474 0.0
C3335 C 0.11667 0.03764 0.66746 0.0
C3336 C 0.1038 0.02729 0.62811 0.0
C3337 C 0.10891 0.05652 0.667 0.0
C3338 C 0.09926 0.06081 0.64807 0.0
C3339 C 0.08688 0.05082 0.60896 0.0
C3340 C 0.08411 0.03616 0.58896 0.0
C3341 C 0.09659 0.04643 0.62834 0.0
C3342 C 0.09145 0.01711 0.58949 0.0
C3343 C 0.10101 1.01281 0.60843 0.0
H3344 H 0.78023 0.36357 0.41194 0.0
H3345 H 0.81762 0.41824 0.39403 0.0
H3346 H 0.82475 0.39632 0.36122 0.0
H3347 H 0.82024 0.36192 0.33727 0.0
H3348 H 0.78248 0.30691 0.35416 0.0
H3349 H 0.77575 0.3286 0.38758 0.0
C3350 C 0.78981 0.3707 0.40078 0.0
C3351 C 0.79845 0.3926 0.40564 0.0
C3352 C 0.79392 0.3579 0.38175 0.0
C3353 C 0.811 0.40145 0.39099 0.0
C3354 C 0.81504 0.38891 0.37212 0.0
C3355 C 0.81067 0.35453 0.34829 0.0
C3356 C 0.80201 0.33269 0.34312 0.0
C3357 C 0.80666 0.36714 0.36736 0.0
C3358 C 0.7895 0.32361 0.35767 0.0
C3359 C 0.78555 0.33606 0.37679 0.0
H3360 H 0.45051 1.00559 0.18942 0.0
H3361 H 0.50516 0.0156 0.23408 0.0
H3362 H 0.52698 1.01264 0.20424 0.0
H3363 H 0.53072 1.01004 0.16573 0.0
H3364 H 0.47596 0.99951 0.12111 0.0
H3365 H 0.45391 0.99966 0.15078 0.0
C3366 C 0.46713 1.00664 0.19264 0.0
C3367 C 0.47621 1.01094 0.21394 0.0
C3368 C 0.47956 1.00502 0.17545 0.0
C3369 C 0.49783 1.01261 0.21782 0.0
C3370 C 0.5103 1.01086 0.20078 0.0
C3371 C 0.51393 1.00732 0.16244 0.0
C3372 C 0.50501 1.00495 0.14127 0.0
C3373 C 0.50137 1.00749 0.17956 0.0
C3374 C 0.48324 1.00174 0.13731 0.0
C3375 C 0.47062 1.00174 0.15425 0.0
H3376 H 0.78912 0.72773 0.89313 0.0
H3377 H 0.82877 0.78399 0.93017 0.0
H3378 H 0.83427 0.79845 0.89754 0.0
H3379 H 0.8269 0.79582 0.85836 0.0
H3380 H 0.78642 0.73984 0.82175 0.0
H3381 H 0.78217 0.72486 0.85414 0.0
C3382 C 0.79883 0.74325 0.89417 0.0
C3383 C 0.80845 0.75467 0.91432 0.0
C3384 C 0.80183 0.75162 0.87527 0.0
C3385 C 0.82131 0.7746 0.91503 0.0
C3386 C 0.8244 0.78299 0.89631 0.0
C3387 C 0.81732 0.78025 0.85741 0.0
C3388 C 0.80701 0.76906 0.83746 0.0
C3389 C 0.81469 0.7717 0.87631 0.0
C3390 C 0.79452 0.74895 0.83675 0.0
C3391 C 0.79203 0.74032 0.85534 0.0
H3392 H 0.92076 0.06219 0.0198 0.0
H3393 H 0.94481 0.12564 0.05492 0.0
H3394 H 0.98024 0.11974 0.05238 0.0
H3395 H 1.00506 0.0964 0.04081 0.0
H3396 H 0.98096 0.03347 1.00457 0.0
H3397 H 0.94551 0.03963 1.00657 0.0
C3398 C 0.93365 0.07491 0.02674 0.0
C3399 C 0.92956 0.09431 0.03787 0.0
C3400 C 0.95435 0.07156 0.02493 0.0
C3401 C 0.94694 0.1103 0.04679 0.0
C3402 C 0.96744 0.10702 0.04515 0.0
C3403 C 0.99211 0.08408 0.0331 0.0
C3404 C 0.99606 0.06444 0.02248 0.0
C3405 C 0.97142 0.08768 0.03437 0.0
C3406 C 0.97876 0.04876 1.01282 0.0
C3407 C 0.9583 0.05225 1.01402 0.0
H3408 H 0.44771 0.44481 0.04726 0.0
H3409 H 0.41156 0.49407 0.04954 0.0
H3410 H 0.44268 0.51964 0.04615 0.0
H3411 H 0.48003 0.52803 0.04161 0.0
H3412 H 0.51623 0.47875 0.03875 0.0
H3413 H 0.4853 0.45333 0.04308 0.0
C3414 C 0.44659 0.46111 0.0469 0.0
C3415 C 0.42721 0.46741 0.04876 0.0
C3416 C 0.46461 0.47581 0.04478 0.0
C3417 C 0.42624 0.48873 0.04852 0.0
C3418 C 0.44405 0.5034 0.04642 0.0
C3419 C 0.48124 0.51177 0.04203 0.0
C3420 C 0.50055 0.50542 0.03976 0.0
C3421 C 0.46332 0.49713 0.04448 0.0
C3422 C 0.50165 0.48419 0.04034 0.0
C3423 C 0.48391 0.46957 0.04283 0.0
H3424 H 0.38645 0.69222 0.76987 0.0
H3425 H 0.33357 0.65166 0.78817 0.0
H3426 H 0.31406 0.68015 0.79034 0.0
H3427 H 0.31066 0.7176 0.78724 0.0
H3428 H 0.36329 0.75813 0.7687 0.0
H3429 H 0.38311 0.72971 0.76685 0.0
C3430 C 0.37069 0.68933 0.77443 0.0
C3431 C 0.36208 0.66857 0.77852 0.0
C3432 C 0.35894 0.70644 0.77579 0.0
C3433 C 0.34128 0.66644 0.78431 0.0
C3434 C 0.32983 0.68318 0.78578 0.0
C3435 C 0.32651 0.72049 0.78288 0.0
C3436 C 0.33498 0.74105 0.77834 0.0
C3437 C 0.33828 0.70341 0.78154 0.0
C3438 C 0.35574 0.74326 0.77254 0.0
C3439 C 0.36734 0.72665 0.77139 0.0
H3440 H 0.19283 0.60156 0.51121 0.0
H3441 H 0.20049 0.55549 0.55078 0.0
H3442 H 0.1628 0.54534 0.55031 0.0
H3443 H 0.12718 0.54914 0.53858 0.0
H3444 H 0.11962 0.59411 0.49774 0.0
H3445 H 0.15736 0.60461 0.49861 0.0
C3446 C 0.1864 0.58909 0.51954 0.0
C3447 C 0.19998 0.57951 0.53113 0.0
C3448 C 0.16445 0.58301 0.519 0.0
C3449 C 0.19084 0.5636 0.54203 0.0
C3450 C 0.16911 0.5576 0.54166 0.0
C3451 C 0.13373 0.56128 0.52989 0.0
C3452 C 0.12025 0.57081 0.51818 0.0
C3453 C 0.1557 0.56721 0.53026 0.0
C3454 C 0.12933 0.58642 0.50694 0.0
C3455 C 0.15105 0.59248 0.50741 0.0
H3456 H 0.7777 0.98968 0.79065 0.0
H3457 H 0.71746 0.95354 0.79809 0.0
H3458 H 0.73417 0.92904 0.81473 0.0
H3459 H 0.76565 0.91586 0.82348 0.0
H3460 H 0.82569 0.95004 0.81261 0.0
H3461 H 0.80934 0.97769 0.80157 0.0
C3462 C 0.76823 0.97639 0.79585 0.0
C3463 C 0.74638 0.97319 0.79279 0.0
C3464 C 0.77791 0.96212 0.8049 0.0
C3465 C 0.7343 0.95633 0.80024 0.0
C3466 C 0.74384 0.94228 0.80967 0.0
C3467 C 0.77518 0.92943 0.8188 0.0
C3468 C 0.79681 0.9307 0.81853 0.0
C3469 C 0.7656 0.94472 0.81154 0.0
C3470 C 0.80903 0.94868 0.81306 0.0
C3471 C 0.79966 0.96437 0.80648 0.0
H3472 H 0.72939 0.94322 0.50373 0.0
H3473 H 0.74427 0.97758 0.56892 0.0
H3474 H 0.71824 0.99903 0.56345 0.0
H3475 H 0.69191 1.00882 0.5398 0.0
H3476 H 0.67773 0.97488 0.47443 0.0
H3477 H 0.70318 0.95292 0.4802 0.0
C3478 C 0.72713 0.95553 0.51672 0.0
C3479 C 0.73888 0.95872 0.53671 0.0
C3480 C 0.71233 0.96804 0.51338 0.0
C3481 C 0.73532 0.9745 0.55344 0.0
C3482 C 0.72052 0.98692 0.55028 0.0
C3483 C 0.69428 0.99651 0.52687 0.0
C3484 C 0.68296 0.9936 0.50667 0.0
C3485 C 0.70898 0.98389 0.53029 0.0
C3486 C 0.68642 0.9777 0.49003 0.0
C3487 C 0.7009 0.96503 0.49335 0.0
H3488 H 0.38615 0.4312 0.7817 0.0
H3489 H 0.32918 0.44855 0.76003 0.0
H3490 H 0.31027 0.41268 0.75956 0.0
H3491 H 0.30901 0.37526 0.76547 0.0
H3492 H 0.36621 0.35822 0.78695 0.0
H3493 H 0.38499 0.39408 0.78738 0.0
C3494 C 0.36957 0.4274 0.77695 0.0
C3495 C 0.3596 0.4435 0.77076 0.0
C3496 C 0.35839 0.40617 0.77668 0.0
C3497 C 0.33793 0.43719 0.76455 0.0
C3498 C 0.32684 0.41636 0.76441 0.0
C3499 C 0.32559 0.37924 0.77026 0.0
C3500 C 0.33578 0.36319 0.77621 0.0
C3501 C 0.33678 0.40051 0.7704 0.0
C3502 C 0.35746 0.36951 0.78224 0.0
C3503 C 0.36843 0.39036 0.78252 0.0
H3504 H 0.27519 0.65357 0.21182 0.0
H3505 H 0.28204 0.6474 0.27837 0.0
H3506 H 0.29418 0.68546 0.28904 0.0
H3507 H 0.30002 0.72055 0.27999 0.0
H3508 H 0.2916 0.72756 0.21383 0.0
H3509 H 0.28272 0.68904 0.20253 0.0
C3510 C 0.2794 0.66057 0.22864 0.0
C3511 C 0.2777 0.64765 0.24424 0.0
C3512 C 0.28587 0.68259 0.23478 0.0
C3513 C 0.28351 0.6569 0.26596 0.0
C3514 C 0.29025 0.67871 0.27214 0.0
C3515 C 0.29634 0.71372 0.26306 0.0
C3516 C 0.29623 0.72689 0.2478 0.0
C3517 C 0.29107 0.6917 0.25673 0.0
C3518 C 0.29167 0.71774 0.22593 0.0
C3519 C 0.28658 0.69573 0.21945 0.0
H3520 H 0.52734 0.74346 0.5415 0.0
H3521 H 0.48033 0.69554 0.50138 0.0
H3522 H 0.48839 0.66912 0.52173 0.0
H3523 H 0.5144 0.65835 0.54432 0.0
H3524 H 0.56361 0.70557 0.58218 0.0
H3525 H 0.54903 0.73361 0.56948 0.0
C3526 C 0.51856 0.72732 0.53757 0.0
C3527 C 0.50367 0.7213 0.51965 0.0
C3528 C 0.52394 0.71203 0.54869 0.0
C3529 C 0.49196 0.70054 0.51503 0.0
C3530 C 0.49672 0.68537 0.52652 0.0
C3531 C 0.52147 0.67481 0.55054 0.0
C3532 C 0.54031 0.6799 0.56383 0.0
C3533 C 0.51351 0.69071 0.54247 0.0
C3534 C 0.5493 0.7013 0.57164 0.0
C3535 C 0.54103 0.7173 0.56429 0.0
H3536 H 0.7063 0.30114 0.68797 0.0
H3537 H 0.67992 0.31769 0.74772 0.0
H3538 H 0.71116 0.31245 0.76769 0.0
H3539 H 0.74576 0.30267 0.76781 0.0
H3540 H 0.77115 0.28544 0.70738 0.0
H3541 H 0.74039 0.29142 0.68802 0.0
C3542 C 0.70756 0.30398 0.70539 0.0
C3543 C 0.69109 0.31009 0.71644 0.0
C3544 C 0.72524 0.30058 0.7166 0.0
C3545 C 0.69257 0.3131 0.73895 0.0
C3546 C 0.71034 0.31004 0.75032 0.0
C3547 C 0.74451 0.30011 0.75041 0.0
C3548 C 0.76075 0.29358 0.73912 0.0
C3549 C 0.72672 0.30362 0.73927 0.0
C3550 C 0.7589 0.29042 0.71655 0.0
C3551 C 0.74134 0.2939 0.70541 0.0
H3552 H 0.03498 0.41442 0.97185 0.0
H3553 H 0.0298 0.3932 0.03235 0.0
H3554 H 0.02859 0.42916 0.05039 0.0
H3555 H 0.02895 0.46674 0.04881 0.0
H3556 H 0.03533 0.4877 0.98844 0.0
H3557 H 0.03645 0.4517 0.97042 0.0
C3558 C 0.03398 0.41769 0.98905 0.0
C3559 C 0.03256 0.40119 1.00075 0.0
C3560 C 0.0335 0.43832 0.99929 0.0
C3561 C 0.03072 0.40562 0.02295 0.0
C3562 C 0.0301 0.42616 0.03328 0.0
C3563 C 0.03059 0.46326 0.03172 0.0
C3564 C 0.03239 0.47959 0.01987 0.0
C3565 C 0.03138 0.44261 0.02158 0.0
C3566 C 0.0344 0.47524 0.9978 0.0
C3567 C 0.03493 0.45472 0.98753 0.0
H3568 H 0.99348 0.81646 0.20019 0.0
H3569 H 0.97096 0.75123 0.1694 0.0
H3570 H 0.94105 0.74949 0.19056 0.0
H3571 H 0.92174 0.76618 0.21833 0.0
H3572 H 0.94356 0.83156 0.24857 0.0
H3573 H 0.97311 0.83376 0.22664 0.0
C3574 C 0.98187 0.80197 0.19785 0.0
C3575 C 0.98455 0.78396 0.18335 0.0
C3576 C 0.96461 0.80111 0.20993 0.0
C3577 C 0.96948 0.76521 0.18074 0.0
C3578 C 0.95231 0.76422 0.19273 0.0
C3579 C 0.93303 0.78088 0.22013 0.0
C3580 C 0.93069 0.79862 0.23512 0.0
C3581 C 0.94986 0.78199 0.20752 0.0
C3582 C 0.9451 0.81772 0.23706 0.0
C3583 C 0.962 0.81894 0.22461 0.0
H3584 H 0.57035 0.38072 0.09894 0.0
H3585 H 0.51395 0.34761 0.05999 0.0
H3586 H 0.52002 0.37198 0.0349 0.0
H3587 H 0.54093 0.40315 0.02447 0.0
H3588 H 0.59736 0.43602 0.06343 0.0
H3589 H 0.59216 0.4106 0.08752 0.0
C3590 C 0.55953 0.37858 0.08479 0.0
C3591 C 0.54166 0.3624 0.08146 0.0
C3592 C 0.56324 0.39244 0.07029 0.0
C3593 C 0.52763 0.36016 0.0632 0.0
C3594 C 0.53117 0.37397 0.04873 0.0
C3595 C 0.55212 0.40469 0.03821 0.0
C3596 C 0.56947 0.42147 0.04218 0.0
C3597 C 0.54884 0.39026 0.05221 0.0
C3598 C 0.584 0.4231 0.05985 0.0
C3599 C 0.58093 0.4087 0.07377 0.0
H3600 H 0.99094 0.28024 0.3178 0.0
H3601 H 0.02939 0.32702 0.28927 0.0
H3602 H 0.99859 0.33273 0.26934 0.0
H3603 H 0.96038 0.32773 0.26383 0.0
H3604 H 0.92233 0.28073 0.29233 0.0
H3605 H 0.95343 0.27123 0.30775 0.0
C3606 C 0.99276 0.2912 0.30672 0.0
C3607 C 1.01245 0.30349 0.30542 0.0
C3608 C 0.97501 0.29443 0.29533 0.0
C3609 C 0.01435 0.31775 0.29105 0.0
C3610 C 0.99675 0.32098 0.27958 0.0
C3611 C 0.95897 0.31516 0.2731 0.0
C3612 C 0.93914 0.30511 0.27712 0.0
C3613 C 0.97693 0.30999 0.28224 0.0
C3614 C 0.93743 0.28864 0.2889 0.0
C3615 C 0.95522 0.28332 0.29791 0.0
H3616 H 0.0226 0.67977 0.56148 0.0
H3617 H 1.00101 0.64963 0.61367 0.0
H3618 H 1.01328 0.61778 0.59807 0.0
H3619 H 0.03033 0.59851 0.56969 0.0
H3620 H 0.04829 0.62704 0.51562 0.0
H3621 H 0.03702 0.65957 0.53176 0.0
C3622 C 0.0201 0.66611 0.56925 0.0
C3623 C 1.01098 0.66723 0.58883 0.0
C3624 C 0.02672 0.64766 0.55994 0.0
C3625 C 1.00832 0.64941 0.5988 0.0
C3626 C 0.01526 0.63114 0.58986 0.0
C3627 C 0.03191 0.61198 0.56162 0.0
C3628 C 0.04041 0.61076 0.54181 0.0
C3629 C 0.02467 0.63018 0.57057 0.0
C3630 C 0.04193 0.62791 0.53104 0.0
C3631 C 0.03544 0.64639 0.54021 0.0
H3632 H 0.67499 0.80256 0.81244 0.0
H3633 H 0.70648 0.82599 0.87595 0.0
H3634 H 0.74018 0.82854 0.86118 0.0
H3635 H 0.76045 0.82285 0.83081 0.0
H3636 H 0.7298 0.79726 0.76718 0.0
H3637 H 0.69582 0.79723 0.78136 0.0
C3638 C 0.68929 0.80831 0.82294 0.0
C3639 C 0.68841 0.81396 0.84522 0.0
C3640 C 0.70861 0.80945 0.81435 0.0
C3641 C 0.7069 0.82129 0.85879 0.0
C3642 C 0.72611 0.82287 0.85035 0.0
C3643 C 0.7464 0.81743 0.81989 0.0
C3644 C 0.74765 0.81004 0.79795 0.0
C3645 C 0.72711 0.81682 0.82822 0.0
C3646 C 0.72923 0.80303 0.78414 0.0
C3647 C 0.70983 0.80293 0.79226 0.0
H3648 H 0.50543 0.58173 0.66293 0.0
H3649 H 0.46682 0.51922 0.64895 0.0
H3650 H 0.48126 0.51207 0.61459 0.0
H3651 H 0.50502 0.52297 0.587 0.0
H3652 H 0.54386 0.5853 0.60093 0.0
H3653 H 0.52941 0.59256 0.63543 0.0
C3654 C 0.49998 0.56649 0.6525 0.0
C3655 C 0.48475 0.5511 0.65967 0.0
C3656 C 0.50862 0.56219 0.63202 0.0
C3657 C 0.47856 0.53155 0.64505 0.0
C3658 C 0.48685 0.52737 0.6249 0.0
C3659 C 0.51051 0.53818 0.59749 0.0
C3660 C 0.526 0.55341 0.59052 0.0
C3661 C 0.50199 0.54245 0.61802 0.0
C3662 C 0.5323 0.57294 0.6051 0.0
C3663 C 0.52388 0.57723 0.62518 0.0
H3664 H 0.78645 0.17437 0.94101 0.0
H3665 H 0.85105 0.20423 0.95713 0.0
H3666 H 0.84957 0.22328 0.92733 0.0
H3667 H 0.82935 0.2329 0.89784 0.0
H3668 H 0.7647 0.20297 0.88197 0.0
H3669 H 0.7667 0.18282 0.91072 0.0
C3670 C 0.80019 0.18512 0.93807 0.0
C3671 C 0.81879 0.18796 0.9514 0.0
C3672 C 0.79918 0.19614 0.92102 0.0
C3673 C 0.83657 0.20162 0.94705 0.0
C3674 C 0.83569 0.21262 0.93008 0.0
C3675 C 0.81578 0.22175 0.90046 0.0
C3676 C 0.79686 0.21961 0.88781 0.0
C3677 C 0.81703 0.21016 0.91707 0.0
C3678 C 0.77937 0.20522 0.89165 0.0
C3679 C 0.78052 0.19361 0.90804 0.0
H3680 H 0.12362 0.52562 0.14873 0.0
H3681 H 0.17033 0.51693 0.10465 0.0
H3682 H 0.14732 0.52279 0.07553 0.0
H3683 H 0.11462 0.53095 0.06301 0.0
H3684 H 0.06712 0.53889 0.10646 0.0
H3685 H 0.09004 0.53298 0.13568 0.0
C3686 C 0.12859 0.52468 0.13265 0.0
C3687 C 0.14856 0.52076 0.12874 0.0
C3688 C 0.11535 0.52821 0.11607 0.0
C3689 C 0.15504 0.52 0.10799 0.0
C3690 C 0.14192 0.52337 0.0914 0.0
C3691 C 0.10912 0.53143 0.07882 0.0
C3692 C 0.08909 0.53538 0.08246 0.0
C3693 C 0.12216 0.52767 0.09534 0.0
C3694 C 0.08245 0.53594 0.10317 0.0
C3695 C 0.09551 0.53247 0.11986 0.0
H3696 H 0.79459 0.8508 0.42294 0.0
H3697 H 0.83834 0.81094 0.43432 0.0
H3698 H 0.83767 0.79853 0.39568 0.0
H3699 H 0.82451 0.79887 0.3582 0.0
H3700 H 0.77898 0.83726 0.34802 0.0
H3701 H 0.78019 0.84973 0.38645 0.0
C3702 C 0.80371 0.83907 0.4172 0.0
C3703 C 0.81648 0.83193 0.43192 0.0
C3704 C 0.80293 0.83159 0.39493 0.0
C3705 C 0.82857 0.81711 0.42364 0.0
C3706 C 0.82809 0.80984 0.40143 0.0
C3707 C 0.81484 0.80993 0.3644 0.0
C3708 C 0.80172 0.81707 0.35 0.0
C3709 C 0.81537 0.817 0.38685 0.0
C3710 C 0.78922 0.83134 0.3585 0.0
C3711 C 0.78991 0.83859 0.38059 0.0
H3712 H 0.49586 0.53429 0.88564 0.0
H3713 H 0.48613 0.5982 0.9048 0.0
H3714 H 0.5025 0.59969 0.94063 0.0
H3715 H 0.51981 0.58307 0.96798 0.0
H3716 H 0.52979 0.51931 0.94864 0.0
H3717 H 0.51343 0.51784 0.91273 0.0
C3718 C 0.49714 0.54863 0.89752 0.0
C3719 C 0.48945 0.56619 0.89147 0.0
C3720 C 0.50687 0.54952 0.91877 0.0
C3721 C 0.49188 0.58441 0.90791 0.0
C3722 C 0.50127 0.58527 0.92886 0.0
C3723 C 0.51851 0.56879 0.95601 0.0
C3724 C 0.52643 0.55128 0.96185 0.0
C3725 C 0.50893 0.56798 0.93469 0.0
C3726 C 0.52421 0.53317 0.94539 0.0
C3727 C 0.51468 0.53227 0.92451 0.0
H3728 H 0.83833 0.22998 0.15518 0.0
H3729 H 0.77806 0.18928 0.15281 0.0
H3730 H 0.76995 0.21231 0.18418 0.0
H3731 H 0.77995 0.24384 0.21302 0.0
H3732 H 0.83876 0.28613 0.21334 0.0
H3733 H 0.84689 0.26312 0.1817 0.0
C3734 C 0.82323 0.22618 0.16113 0.0
C3735 C 0.80912 0.20739 0.15148 0.0
C3736 C 0.8182 0.24 0.17888 0.0
C3737 C 0.78974 0.20302 0.16003 0.0
C3738 C 0.78488 0.21641 0.17795 0.0
C3739 C 0.79444 0.24816 0.20602 0.0
C3740 C 0.80867 0.26677 0.21565 0.0
C3741 C 0.79902 0.23488 0.18762 0.0
C3742 C 0.82736 0.27207 0.20625 0.0
C3743 C 0.83213 0.25879 0.1882 0.0
H3744 H 0.15657 0.57545 0.33456 0.0
H3745 H 0.12058 0.51413 0.30488 0.0
H3746 H 0.09706 0.51592 0.33334 0.0
H3747 H 0.08703 0.53479 0.36683 0.0
H3748 H 0.12336 0.59582 0.3969 0.0
H3749 H 0.14652 0.59434 0.36807 0.0
C3750 C 0.14346 0.56259 0.33427 0.0
C3751 C 0.14022 0.54472 0.31769 0.0
C3752 C 0.13015 0.56367 0.35073 0.0
C3753 C 0.12342 0.52797 0.31761 0.0
C3754 C 0.10995 0.52902 0.3338 0.0
C3755 C 0.09992 0.54783 0.36692 0.0
C3756 C 0.10349 0.56541 0.38383 0.0
C3757 C 0.1132 0.54677 0.35045 0.0
C3758 C 0.12043 0.58207 0.38405 0.0
C3759 C 0.1336 0.58126 0.36757 0.0
H3760 H 0.81475 0.8716 0.67223 0.0
H3761 H 0.81009 0.80938 0.63354 0.0
H3762 H 0.80593 0.79349 0.66538 0.0
H3763 H 0.80411 0.79696 0.70419 0.0
H3764 H 0.80922 0.85889 0.74356 0.0
H3765 H 0.81281 0.87506 0.71158 0.0
C3766 C 0.81297 0.85458 0.67075 0.0
C3767 C 0.81266 0.84178 0.65028 0.0
C3768 C 0.81065 0.84542 0.68931 0.0
C3769 C 0.81007 0.8197 0.64885 0.0
C3770 C 0.8078 0.81055 0.66714 0.0
C3771 C 0.80593 0.81402 0.70589 0.0
C3772 C 0.80635 0.82662 0.72644 0.0
C3773 C 0.80807 0.82322 0.68745 0.0
C3774 C 0.80877 0.84871 0.72807 0.0
C3775 C 0.81088 0.85799 0.70974 0.0
H3776 H 0.66682 0.48466 0.52188 0.0
H3777 H 0.70098 0.54879 0.52887 0.0
H3778 H 0.66876 0.56219 0.53337 0.0
H3779 H 0.63041 0.55598 0.53449 0.0
H3780 H 0.59629 0.49186 0.52807 0.0
H3781 H 0.62857 0.47851 0.52423 0.0
C3782 C 0.66728 0.50158 0.52429 0.0
C3783 C 0.68666 0.51558 0.52498 0.0
C3784 C 0.64848 0.50933 0.52705 0.0
C3785 C 0.68661 0.53749 0.52846 0.0
C3786 C 0.66805 0.54523 0.53096 0.0
C3787 C 0.62997 0.53908 0.53247 0.0
C3788 C 0.61057 0.52508 0.53166 0.0
C3789 C 0.64883 0.53135 0.53025 0.0
C3790 C 0.6107 0.5032 0.52888 0.0
C3791 C 0.62929 0.49547 0.52659 0.0
H3792 H 0.168 0.14766 0.51235 0.0
H3793 H 0.20121 0.09593 0.50352 0.0
H3794 H 0.16908 0.07085 0.50493 0.0
H3795 H 0.13171 0.0636 0.50978 0.0
H3796 H 0.09853 0.1154 0.51908 0.0
H3797 H 0.13041 0.1403 0.51648 0.0
C3798 C 0.16824 0.13091 0.51083 0.0
C3799 C 0.18708 0.12377 0.50781 0.0
C3800 C 0.14966 0.11652 0.51177 0.0
C3801 C 0.18695 0.10192 0.50557 0.0
C3802 C 0.16858 0.08754 0.50651 0.0
C3803 C 0.13138 0.08031 0.51113 0.0
C3804 C 0.11264 0.08751 0.51466 0.0
C3805 C 0.14985 0.09465 0.50971 0.0
C3806 C 0.11264 0.10929 0.51636 0.0
C3807 C 0.13092 0.12362 0.51492 0.0
H3808 H 0.21409 0.89743 0.77407 0.0
H3809 H 0.27114 0.94235 0.77406 0.0
H3810 H 0.29072 0.91402 0.77242 0.0
H3811 H 0.29314 0.87565 0.77126 0.0
H3812 H 0.23653 0.83053 0.77174 0.0
H3813 H 0.21652 0.85887 0.77304 0.0
C3814 C 0.23081 0.90135 0.77377 0.0
C3815 C 0.24037 0.92315 0.77391 0.0
C3816 C 0.24267 0.88435 0.77291 0.0
C3817 C 0.26238 0.92653 0.77345 0.0
C3818 C 0.27398 0.90997 0.77268 0.0
C3819 C 0.2764 0.87174 0.77155 0.0
C3820 C 0.26689 0.84999 0.77128 0.0
C3821 C 0.2645 0.88865 0.77234 0.0
C3822 C 0.24494 0.84641 0.77184 0.0
C3823 C 0.23324 0.86296 0.77262 0.0
H3824 H 0.4167 0.03573 1.00089 0.0
H3825 H 0.41464 0.99226 0.04503 0.0
H3826 H 0.4526 0.9983 0.04903 0.0
H3827 H 0.48698 0.0158 0.03988 0.0
H3828 H 0.48872 0.05945 0.99589 0.0
H3829 H 0.45084 0.05328 0.99194 0.0
C3830 C 0.42449 0.02746 1.01132 0.0
C3831 C 0.41247 1.01361 0.02271 0.0
C3832 C 0.44657 0.031 1.01359 0.0
C3833 C 0.42318 1.00331 0.03629 0.0
C3834 C 0.44504 1.00664 0.0385 0.0
C3835 C 0.4791 0.02394 0.02938 0.0
C3836 C 0.49103 0.03809 0.01821 0.0
C3837 C 0.45699 0.02045 0.02723 0.0
C3838 C 0.48026 0.04851 1.00481 0.0
C3839 C 0.45844 0.04498 1.00248 0.0
H3840 H 0.82709 0.60252 0.76542 0.0
H3841 H 0.86347 0.64884 0.81708 0.0
H3842 H 0.84134 0.67416 0.81163 0.0
H3843 H 0.81333 0.6838 0.79069 0.0
H3844 H 0.77757 0.63812 0.73818 0.0
H3845 H 0.79805 0.61178 0.74529 0.0
C3846 C 0.83024 0.61822 0.77539 0.0
C3847 C 0.84699 0.62392 0.79149 0.0
C3848 C 0.81764 0.63272 0.77199 0.0
C3849 C 0.85062 0.64409 0.80465 0.0
C3850 C 0.83804 0.65857 0.80148 0.0
C3851 C 0.8097 0.66793 0.7811 0.0
C3852 C 0.7939 0.6628 0.76404 0.0
C3853 C 0.82168 0.65311 0.78506 0.0
C3854 C 0.7897 0.64237 0.75138 0.0
C3855 C 0.8014 0.62737 0.75543 0.0
H3856 H 0.88657 0.65416 0.05868 0.0
H3857 H 0.88014 0.62787 0.99095 0.0
H3858 H 0.90912 0.6097 0.996 0.0
H3859 H 0.93512 0.59986 0.02007 0.0
H3860 H 0.94181 0.62697 0.08771 0.0
H3861 H 0.91376 0.64599 0.08231 0.0
C3862 C 0.89149 0.6444 0.04503 0.0
C3863 C 0.88109 0.64221 0.0245 0.0
C3864 C 0.90813 0.63404 0.04806 0.0
C3865 C 0.88792 0.62987 1.00691 0.0
C3866 C 0.90443 0.6194 1.00981 0.0
C3867 C 0.93068 0.61017 0.03359 0.0
C3868 C 0.9405 0.61174 0.05433 0.0
C3869 C 0.91454 0.62121 0.03036 0.0
C3870 C 0.9343 0.62507 0.07165 0.0
C3871 C 0.91831 0.63606 0.06857 0.0
H3872 H 0.26868 0.15255 0.78384 0.0
H3873 H 0.20528 0.16192 0.78404 0.0
H3874 H 0.21702 0.19947 0.78365 0.0
H3875 H 0.2455 0.23095 0.783 0.0
H3876 H 0.30874 0.22103 0.78215 0.0
H3877 H 0.29695 0.18372 0.7832 0.0
C3878 C 0.25729 0.16267 0.78392 0.0
C3879 C 0.23578 0.15345 0.78379 0.0
C3880 C 0.26423 0.18486 0.78358 0.0
C3881 C 0.22178 0.16765 0.78373 0.0
C3882 C 0.22857 0.18953 0.78365 0.0
C3883 C 0.25681 0.22075 0.7831 0.0
C3884 C 0.27831 0.22966 0.78249 0.0
C3885 C 0.2498 0.19852 0.78348 0.0
C3886 C 0.29221 0.2154 0.78254 0.0
C3887 C 0.28542 0.1937 0.78316 0.0
H3888 H 0.33022 0.93197 0.32533 0.0
H3889 H 0.34181 0.93646 0.25994 0.0
H3890 H 0.33102 0.89821 0.24892 0.0
H3891 H 0.32116 0.86338 0.25833 0.0
H3892 H 0.30819 0.85804 0.3231 0.0
H3893 H 0.31658 0.89679 0.33403 0.0
C3894 C 0.33008 0.9245 0.30866 0.0
C3895 C 0.33676 0.93689 0.29346 0.0
C3896 C 0.32385 0.90244 0.30241 0.0
C3897 C 0.33647 0.92721 0.27186 0.0
C3898 C 0.33049 0.90535 0.26557 0.0
C3899 C 0.32009 0.87077 0.27481 0.0
C3900 C 0.31448 0.85814 0.29003 0.0
C3901 C 0.32461 0.89282 0.28079 0.0
C3902 C 0.31262 0.86767 0.31121 0.0
C3903 C 0.31746 0.88973 0.31743 0.0
H3904 H 0.59607 0.36681 0.54066 0.0
H3905 H 0.54605 0.36499 0.58194 0.0
H3906 H 0.52786 0.38415 0.55976 0.0
H3907 H 0.52777 0.4042 0.53116 0.0
H3908 H 0.57801 0.40803 0.49023 0.0
H3909 H 0.59444 0.38493 0.50955 0.0
C3910 C 0.58111 0.37049 0.54459 0.0
C3911 C 0.57256 0.36493 0.56308 0.0
C3912 C 0.5708 0.38174 0.53185 0.0
C3913 C 0.55314 0.36963 0.56806 0.0
C3914 C 0.54266 0.38041 0.55532 0.0
C3915 C 0.54196 0.39944 0.52592 0.0
C3916 C 0.55159 0.40767 0.50919 0.0
C3917 C 0.55154 0.38689 0.53747 0.0
C3918 C 0.5703 0.40184 0.50307 0.0
C3919 C 0.57974 0.38877 0.51418 0.0
H3920 H 0.42395 0.76101 0.32387 0.0
H3921 H 0.39751 0.77834 0.38363 0.0
H3922 H 0.36729 0.78533 0.36414 0.0
H3923 H 0.34941 0.78871 0.33068 0.0
H3924 H 0.37612 0.7732 0.27077 0.0
H3925 H 0.40557 0.76394 0.28996 0.0
C3926 C 0.41161 0.76635 0.33265 0.0
C3927 C 0.41308 0.76909 0.35522 0.0
C3928 C 0.39451 0.77105 0.3214 0.0
C3929 C 0.3967 0.77566 0.36626 0.0
C3930 C 0.3795 0.77996 0.35515 0.0
C3931 C 0.36168 0.78339 0.32173 0.0
C3932 C 0.36065 0.78186 0.29932 0.0
C3933 C 0.37844 0.77807 0.3328 0.0
C3934 C 0.3766 0.77468 0.28805 0.0
C3935 C 0.39339 0.76931 0.299 0.0
H3936 H 0.09882 0.67519 0.05203 0.0
H3937 H 0.03319 0.67654 0.04572 0.0
H3938 H 0.02531 0.63883 0.03018 0.0
H3939 H 0.03664 0.60486 0.02356 0.0
H3940 H 0.10208 0.60304 0.02995 0.0
H3941 H 0.11059 0.64178 0.03965 0.0
C3942 C 0.08286 0.66737 0.04668 0.0
C3943 C 0.06656 0.67847 0.05047 0.0
C3944 C 0.07842 0.64563 0.03791 0.0
C3945 C 0.04594 0.66815 0.04346 0.0
C3946 C 0.04143 0.64663 0.03453 0.0
C3947 C 0.05279 0.61301 0.02669 0.0
C3948 C 0.06872 0.60128 0.02648 0.0
C3949 C 0.05747 0.63509 0.03254 0.0
C3950 C 0.08959 0.61186 0.03011 0.0
C3951 C 0.09443 0.63396 0.03581 0.0
H3952 H 0.10356 0.27976 0.84625 0.0
H3953 H 0.14158 0.28779 0.90597 0.0
H3954 H 0.17302 0.29094 0.88687 0.0
H3955 H 0.18971 0.29442 0.85357 0.0
H3956 H 0.15136 0.28682 0.79405 0.0
H3957 H 0.12003 0.2809 0.8128 0.0
C3958 C 0.11874 0.28216 0.85508 0.0
C3959 C 0.12028 0.28376 0.87749 0.0
C3960 C 0.13668 0.2843 0.84407 0.0
C3961 C 0.13999 0.28641 0.88868 0.0
C3962 C 0.15797 0.28837 0.87779 0.0
C3963 C 0.17449 0.29114 0.84465 0.0
C3964 C 0.17288 0.2913 0.82248 0.0
C3965 C 0.1565 0.28775 0.85554 0.0
C3966 C 0.15304 0.28719 0.81119 0.0
C3967 C 0.13511 0.28369 0.82187 0.0
H3968 H 0.53806 0.73181 0.97204 0.0
H3969 H 0.6045 0.73586 0.98117 0.0
H3970 H 0.59947 0.70948 1.00425 0.0
H3971 H 0.57618 0.68372 0.01996 0.0
H3972 H 0.50968 0.67858 1.01004 0.0
H3973 H 0.51473 0.70719 0.98944 0.0
C3974 C 0.55141 0.72688 0.97908 0.0
C3975 C 0.57161 0.73566 0.97479 0.0
C3976 C 0.54839 0.71158 0.99223 0.0
C3977 C 0.58881 0.72944 0.98433 0.0
C3978 C 0.58594 0.71429 0.99745 0.0
C3979 C 0.5628 0.68892 1.01333 0.0
C3980 C 0.54259 0.67893 0.01632 0.0
C3981 C 0.56581 0.70505 1.00124 0.0
C3982 C 0.52539 0.6861 1.00805 0.0
C3983 C 0.52827 0.70232 0.99612 0.0
H3984 H 0.10569 0.79962 0.74624 0.0
H3985 H 0.09739 0.7357 0.71059 0.0
H3986 H 0.12661 0.72934 0.73247 0.0
H3987 H 0.15607 0.74283 0.75926 0.0
H3988 H 0.16457 0.80641 0.796 0.0
H3989 H 0.13358 0.81204 0.77614 0.0
C3990 C 0.11032 0.78432 0.74341 0.0
C3991 C 0.09962 0.76818 0.72682 0.0
C3992 C 0.12707 0.78073 0.75616 0.0
C3993 C 0.10544 0.7483 0.72335 0.0
C3994 C 0.12213 0.74468 0.73581 0.0
C3995 C 0.15086 0.75772 0.76353 0.0
C3996 C 0.16274 0.77419 0.77909 0.0
C3997 C 0.1332 0.76086 0.75204 0.0
C3998 C 0.15587 0.79353 0.78391 0.0
C3999 C 0.13818 0.79678 0.77255 0.0
H4000 H 0.06195 0.41581 0.47275 0.0
H4001 H 0.10974 0.44149 0.4354 0.0
H4002 H 0.10399 0.47726 0.44853 0.0
H4003 H 0.08475 0.50106 0.4699 0.0
H4004 H 0.03706 0.47525 0.50738 0.0
H4005 H 0.04318 0.43962 0.49461 0.0
C4006 C 0.07104 0.42924 0.46743 0.0
C4007 C 0.08619 0.42603 0.45309 0.0
C4008 C 0.06756 0.44968 0.47491 0.0
C4009 C 0.09813 0.44359 0.44661 0.0
C4010 C 0.09474 0.46401 0.45397 0.0
C4011 C 0.07563 0.48763 0.4752 0.0
C4012 C 0.06039 0.49077 0.48945 0.0
C4013 C 0.07938 0.46721 0.46799 0.0
C4014 C 0.04887 0.47325 0.49638 0.0
C4015 C 0.05237 0.45287 0.48911 0.0
H4016 H 0.43641 0.28346 0.24092 0.0
H4017 H 0.4011 0.25414 0.18028 0.0
H4018 H 0.36889 0.25144 0.19783 0.0
H4019 H 0.35064 0.26054 0.22936 0.0
H4020 H 0.38542 0.29207 0.28968 0.0
H4021 H 0.41804 0.29064 0.27325 0.0
C4022 C 0.42166 0.27653 0.23154 0.0
C4023 C 0.42114 0.26923 0.20929 0.0
C4024 C 0.40314 0.27545 0.24164 0.0
C4025 C 0.40196 0.25979 0.19745 0.0
C4026 C 0.38352 0.25834 0.20744 0.0
C4027 C 0.36532 0.26686 0.23907 0.0
C4028 C 0.36556 0.27662 0.26067 0.0
C4029 C 0.38391 0.26653 0.2294 0.0
C4030 C 0.38477 0.28457 0.27298 0.0
C4031 C 0.40343 0.28386 0.26357 0.0
H4032 H 0.59972 0.5113 0.38977 0.0
H4033 H 0.63498 0.57541 0.40238 0.0
H4034 H 0.61974 0.58247 0.43617 0.0
H4035 H 0.5963 0.57107 0.46384 0.0
H4036 H 0.56198 0.50671 0.45191 0.0
H4037 H 0.57676 0.49972 0.4176 0.0
C4038 C 0.60432 0.52689 0.39975 0.0
C4039 C 0.61875 0.54272 0.3922 0.0
C4040 C 0.59543 0.53108 0.42008 0.0
C4041 C 0.62381 0.56267 0.40637 0.0
C4042 C 0.61508 0.56683 0.42627 0.0
C4043 C 0.59186 0.55548 0.45381 0.0
C4044 C 0.57752 0.53959 0.46128 0.0
C4045 C 0.60076 0.55127 0.43349 0.0
C4046 C 0.57265 0.51955 0.44736 0.0
C4047 C 0.58125 0.51543 0.42738 0.0
H4048 H 0.28071 0.89605 0.10658 0.0
H4049 H 0.34419 0.90869 0.09041 0.0
H4050 H 0.35448 0.88812 0.11641 0.0
H4051 H 0.3455 0.8664 0.1437 0.0
H4052 H 0.28194 0.85321 0.15952 0.0
H4053 H 0.27169 0.87414 0.13381 0.0
C4054 C 0.29676 0.89419 0.10866 0.0
C4055 C 0.31165 0.90399 0.09661 0.0
C4056 C 0.30259 0.88228 0.12364 0.0
C4057 C 0.33245 0.9016 0.09969 0.0
C4058 C 0.33834 0.88973 0.11448 0.0
C4059 C 0.32938 0.86798 0.14141 0.0
C4060 C 0.31454 0.85825 0.15356 0.0
C4061 C 0.32355 0.87998 0.12654 0.0
C4062 C 0.29376 0.86075 0.15061 0.0
C4063 C 0.28784 0.87261 0.1358 0.0
H4064 H 0.95527 0.54533 0.92225 0.0
H4065 H 1.00156 0.5299 0.87983 0.0
H4066 H 0.02509 0.52826 0.91054 0.0
H4067 H 0.03222 0.53075 0.94933 0.0
H4068 H 0.98544 0.54583 0.99152 0.0
H4069 H 0.96232 0.54772 0.9609 0.0
C4070 C 0.97044 0.54144 0.91972 0.0
C4071 C 0.97667 0.53773 0.89884 0.0
C4072 C 0.98378 0.54036 0.93736 0.0
C4073 C 0.99651 0.53306 0.89581 0.0
C4074 C 1.00991 0.53199 0.91332 0.0
C4075 C 0.01698 0.53444 0.95188 0.0
C4076 C 1.01066 0.53806 0.97276 0.0
C4077 C 1.00368 0.53557 0.93417 0.0
C4078 C 0.9908 0.54286 0.97567 0.0
C4079 C 0.97751 0.54399 0.95815 0.0
H4080 H 0.2751 0.25836 0.63405 0.0
H4081 H 0.34121 0.26234 0.63128 0.0
H4082 H 0.34705 0.27516 0.6701 0.0
H4083 H 0.33318 0.28389 0.70537 0.0
H4084 H 0.26689 0.27996 0.7075 0.0
H4085 H 0.26147 0.26847 0.66874 0.0
C4086 C 0.2908 0.26201 0.64192 0.0
C4087 C 0.30765 0.25927 0.62962 0.0
C4088 C 0.29406 0.26935 0.66431 0.0
C4089 C 0.32792 0.26445 0.64018 0.0
C4090 C 0.33127 0.27166 0.66247 0.0
C4091 C 0.31756 0.28064 0.69737 0.0
C4092 C 0.30051 0.28278 0.70961 0.0
C4093 C 0.31444 0.274 0.67479 0.0
C4094 C 0.28039 0.27851 0.69874 0.0
C4095 C 0.27722 0.27186 0.67645 0.0
H4096 H 0.60018 0.55366 0.17161 0.0
H4097 H 0.63467 0.50612 0.14601 0.0
H4098 H 0.62066 0.50656 0.10978 0.0
H4099 H 0.59857 0.52042 0.08391 0.0
H4100 H 0.56396 0.56782 0.10931 0.0
H4101 H 0.57791 0.56736 0.14575 0.0
C4102 C 0.60483 0.54336 0.15824 0.0
C4103 C 0.61873 0.52964 0.16259 0.0
C4104 C 0.59653 0.54364 0.13669 0.0
C4105 C 0.62392 0.51659 0.14421 0.0
C4106 C 0.61592 0.51694 0.12304 0.0
C4107 C 0.59396 0.53071 0.09731 0.0
C4108 C 0.57987 0.54421 0.09303 0.0
C4109 C 0.60214 0.53034 0.11887 0.0
C4110 C 0.57452 0.55718 0.11132 0.0
C4111 C 0.58262 0.55696 0.13251 0.0
H4112 H 0.32368 0.89428 0.89646 0.0
H4113 H 0.26152 0.86489 0.90689 0.0
H4114 H 0.26115 0.83688 0.87601 0.0
H4115 H 0.27795 0.82096 0.84545 0.0
H4116 H 0.34035 0.8497 0.83528 0.0
H4117 H 0.34129 0.87716 0.867 0.0
C4118 C 0.31011 0.88164 0.89223 0.0
C4119 C 0.29256 0.88205 0.90411 0.0
C4120 C 0.31008 0.86523 0.87452 0.0
C4121 C 0.2751 0.8655 0.89794 0.0
C4122 C 0.27493 0.84925 0.88034 0.0
C4123 C 0.29191 0.83304 0.85027 0.0
C4124 C 0.30907 0.8331 0.83784 0.0
C4125 C 0.29227 0.849 0.86843 0.0
C4126 C 0.32691 0.84907 0.84445 0.0
C4127 C 0.32742 0.86491 0.86258 0.0
H4128 H 0.94156 0.51708 0.68002 0.0
H4129 H 0.98775 0.50044 0.72181 0.0
H4130 H 1.01014 0.49684 0.69265 0.0
H4131 H 0.01805 0.50171 0.65649 0.0
H4132 H 0.97336 0.5218 0.61587 0.0
H4133 H 0.94885 0.5204 0.64322 0.0
C4134 C 0.95654 0.5127 0.68276 0.0
C4135 C 0.96302 0.50923 0.70313 0.0
C4136 C 0.96963 0.51126 0.66612 0.0
C4137 C 0.98226 0.50304 0.70626 0.0
C4138 C 0.99517 0.50113 0.68963 0.0
C4139 C 1.00294 0.50577 0.6536 0.0
C4140 C 0.99768 0.51207 0.63425 0.0
C4141 C 0.98922 0.50571 0.66969 0.0
C4142 C 0.9778 0.51673 0.63053 0.0
C4143 C 0.96383 0.51615 0.64627 0.0
H4144 H 0.30509 0.22025 0.38985 0.0
H4145 H 0.30253 0.28137 0.42738 0.0
H4146 H 0.3053 0.29712 0.39533 0.0
H4147 H 0.30847 0.29389 0.35683 0.0
H4148 H 0.31043 0.23308 0.31837 0.0
H4149 H 0.30797 0.21697 0.35052 0.0
C4150 C 0.30526 0.23704 0.39103 0.0
C4151 C 0.30352 0.24955 0.41115 0.0
C4152 C 0.30677 0.2461 0.37234 0.0
C4153 C 0.30355 0.27125 0.4122 0.0
C4154 C 0.30525 0.28033 0.39385 0.0
C4155 C 0.30847 0.2771 0.35537 0.0
C4156 C 0.30982 0.2648 0.33508 0.0
C4157 C 0.30685 0.26794 0.37385 0.0
C4158 C 0.30948 0.243 0.33369 0.0
C4159 C 0.30808 0.23378 0.35212 0.0
H4160 H 0.41547 0.56287 0.51778 0.0
H4161 H 0.44043 0.62844 0.54503 0.0
H4162 H 0.47588 0.62199 0.54252 0.0
H4163 H 0.50035 0.59747 0.53317 0.0
H4164 H 0.47499 0.53215 0.5047 0.0
H4165 H 0.4398 0.53881 0.50707 0.0
C4166 C 0.42864 0.57575 0.52327 0.0
C4167 C 0.42499 0.59616 0.53165 0.0
C4168 C 0.44923 0.572 0.52149 0.0
C4169 C 0.4425 0.61261 0.53837 0.0
C4170 C 0.46292 0.60891 0.53699 0.0
C4171 C 0.48717 0.58471 0.52725 0.0
C4172 C 0.49073 0.56426 0.51869 0.0
C4173 C 0.46657 0.58865 0.52857 0.0
C4174 C 0.47313 0.54807 0.51129 0.0
C4175 C 0.4528 0.55184 0.51272 0.0
H4176 H 0.94696 0.94467 0.54019 0.0
H4177 H 0.9176 0.99749 0.56258 0.0
H4178 H 0.94973 0.02218 0.56031 0.0
H4179 H 0.98588 0.02899 0.55045 0.0
H4180 H 1.01404 0.97597 0.52572 0.0
H4181 H 0.98266 0.95137 0.53011 0.0
C4182 C 0.94742 0.96157 0.54438 0.0
C4183 C 0.92969 0.96905 0.55155 0.0
C4184 C 0.96581 0.97577 0.54254 0.0
C4185 C 0.93097 0.9911 0.55734 0.0
C4186 C 0.94934 1.00532 0.55587 0.0
C4187 C 0.9852 1.01205 0.54616 0.0
C4188 C 1.0024 1.00443 0.53778 0.0
C4189 C 0.96684 0.99786 0.54834 0.0
C4190 C 1.00111 0.98239 0.53215 0.0
C4191 C 0.98312 0.96824 0.53466 0.0
H4192 H 0.89241 0.19823 0.28159 0.0
H4193 H 0.83545 0.15225 0.27798 0.0
H4194 H 0.81544 0.1802 0.27889 0.0
H4195 H 0.81266 0.21859 0.28074 0.0
H4196 H 0.86926 0.26485 0.28441 0.0
H4197 H 0.88965 0.23686 0.28363 0.0
C4198 C 0.87562 0.19402 0.28105 0.0
C4199 C 0.86614 0.17194 0.27936 0.0
C4200 C 0.86354 0.21083 0.28168 0.0
C4201 C 0.84404 0.16816 0.27872 0.0
C4202 C 0.83223 0.18456 0.27944 0.0
C4203 C 0.82947 0.22281 0.28147 0.0
C4204 C 0.83886 0.24479 0.28279 0.0
C4205 C 0.8416 0.20609 0.28087 0.0
C4206 C 0.86093 0.24878 0.28349 0.0
C4207 C 0.87285 0.23244 0.28302 0.0
H4208 H 0.69834 0.08118 1.01112 0.0
H4209 H 0.70469 0.07239 0.07678 0.0
H4210 H 0.66685 0.06467 0.07695 0.0
H4211 H 0.63147 0.06063 0.05857 0.0
H4212 H 0.6255 0.06923 0.99276 0.0
H4213 H 0.66323 0.0765 0.99262 0.0
C4214 C 0.69152 0.07732 0.02542 0.0
C4215 C 0.70468 0.07748 0.04393 0.0
C4216 C 0.66956 0.07286 0.02545 0.0
C4217 C 0.69523 0.07273 0.06234 0.0
C4218 C 0.67346 0.0682 0.06244 0.0
C4219 C 0.63838 0.0641 0.04419 0.0
C4220 C 0.62533 0.06435 0.02573 0.0
C4221 C 0.66039 0.06832 0.04413 0.0
C4222 C 0.63486 0.06887 1.00728 0.0
C4223 C 0.65658 0.07306 1.00714 0.0
H4224 H 0.27557 0.46599 0.29522 0.0
H4225 H 0.31247 0.47913 0.24324 0.0
H4226 H 0.33849 0.46075 0.25624 0.0
H4227 H 0.34922 0.43854 0.28074 0.0
H4228 H 0.31178 0.42557 0.33235 0.0
H4229 H 0.28831 0.44768 0.32197 0.0
C4230 C 0.28951 0.46534 0.28696 0.0
C4231 C 0.29187 0.47372 0.2681 0.0
C4232 C 0.30453 0.45509 0.29468 0.0
C4233 C 0.30994 0.47233 0.25747 0.0
C4234 C 0.32496 0.46203 0.26503 0.0
C4235 C 0.33611 0.44087 0.2899 0.0
C4236 C 0.33218 0.43028 0.30715 0.0
C4237 C 0.32219 0.45299 0.28337 0.0
C4238 C 0.31534 0.43369 0.31914 0.0
C4239 C 0.30168 0.44608 0.31301 0.0
H4240 H 0.21209 0.43384 0.04892 0.0
H4241 H 0.25268 0.47269 1.01407 0.0
H4242 H 0.22411 0.48951 1.00421 0.0
H4243 H 0.18744 0.49279 1.00483 0.0
H4244 H 0.14661 0.45373 0.03928 0.0
H4245 H 0.17549 0.43784 0.05034 0.0
C4246 C 0.21475 0.44618 0.0394 0.0
C4247 C 0.23452 0.45187 0.03216 0.0
C4248 C 0.1982 0.45581 0.03372 0.0
C4249 C 0.23758 0.46774 0.01961 0.0
C4250 C 0.22126 0.47745 1.01402 0.0
C4251 C 0.1848 0.48071 1.01464 0.0
C4252 C 0.1648 0.47446 0.02112 0.0
C4253 C 0.20145 0.47146 0.02079 0.0
C4254 C 0.16184 0.45905 0.03421 0.0
C4255 C 0.17834 0.44983 0.04045 0.0
H4256 H 0.8358 0.94337 0.26725 0.0
H4257 H 0.89893 0.93572 0.28115 0.0
H4258 H 0.88642 0.89892 0.28343 0.0
H4259 H 0.8576 0.86759 0.28172 0.0
H4260 H 0.79448 0.87452 0.26705 0.0
H4261 H 0.80688 0.91164 0.26473 0.0
C4262 C 0.847 0.9338 0.27069 0.0
C4263 C 0.86866 0.94349 0.27438 0.0
C4264 C 0.83959 0.91182 0.27185 0.0
C4265 C 0.88229 0.92988 0.27879 0.0
C4266 C 0.87508 0.90834 0.27994 0.0
C4267 C 0.84641 0.87708 0.27797 0.0
C4268 C 0.8248 0.86746 0.27461 0.0
C4269 C 0.85375 0.89897 0.27661 0.0
C4270 C 0.81107 0.88076 0.26977 0.0
C4271 C 0.81824 0.90232 0.26843 0.0
H4272 H 0.77934 0.15619 0.71737 0.0
H4273 H 0.81785 0.14756 0.7715 0.0
H4274 H 0.83446 0.18493 0.77764 0.0
H4275 H 0.83363 0.22099 0.77111 0.0
H4276 H 0.79549 0.22895 0.71672 0.0
H4277 H 0.78365 0.19052 0.7066 0.0
C4278 C 0.79191 0.16209 0.73003 0.0
C4279 C 0.7969 0.14905 0.74427 0.0
C4280 C 0.80142 0.18352 0.73343 0.0
C4281 C 0.81316 0.15734 0.76069 0.0
C4282 C 0.82276 0.1787 0.76417 0.0
C4283 C 0.82333 0.21411 0.75662 0.0
C4284 C 0.81542 0.22741 0.74452 0.0
C4285 C 0.81635 0.1921 0.7512 0.0
C4286 C 0.80186 0.21873 0.726 0.0
C4287 C 0.79497 0.19686 0.72038 0.0
loop_
_geom_bond_atom_site_label_1
_geom_bond_atom_site_label_2
_geom_bond_distance
_geom_bond_site_symmetry_2
_ccdc_geom_bond_type
Li0 N17 1.990 . S
Li0 O60 1.956 . S
Li0 O61 1.970 . S
Li0 O62 1.961 . S
Li1 N25 1.990 . S
Li1 O60 1.970 . S
Li1 O61 1.956 . S
Li1 O63 1.961 . S
Li2 N47 1.990 . S
Li2 O60 1.961 . S
Li2 O62 1.956 . S
Li2 O63 1.970 . S
Li3 N53 1.990 . S
Li3 O61 1.961 . S
Li3 O62 1.970 . S
Li3 O63 1.956 . S
C4 C6 1.348 . S
C4 C7 1.356 . S
C4 O60 1.325 . S
N5 C8 1.314 . S
N5 C9 1.279 . S
C6 C4 1.348 . S
C6 C8 1.353 . S
C6 H64 0.929 . S
C7 C4 1.356 . S
C7 C9 1.358 . S
C7 H65 0.930 . S
C8 N5 1.314 . S
C8 C6 1.353 . S
C8 H66 0.930 . S
C9 N5 1.279 . S
C9 C7 1.358 . S
C9 H67 0.930 . S
C10 C13 1.348 . S
C10 C14 1.356 . S
C10 O61 1.325 . S
C11 N12 1.279 . S
C11 C14 1.358 . S
C11 H68 0.930 . S
N12 C11 1.279 . S
N12 C15 1.314 . S
C13 C10 1.348 . S
C13 C15 1.353 . S
C13 H69 0.929 . S
C14 C10 1.356 . S
C14 C11 1.358 . S
C14 H70 0.930 . S
C15 N12 1.314 . S
C15 C13 1.353 . S
C15 H71 0.894 1_455 S
C16 N17 1.314 . S
C16 C21 1.353 . S
C16 H22 0.930 . S
N17 Li0 1.990 . S
N17 C16 1.314 . S
N17 C19 1.279 . S
C18 C19 1.358 . S
C18 C20 1.356 1_455 S
C18 H72 0.930 . S
C19 N17 1.279 . S
C19 C18 1.358 . S
C19 H23 0.930 . S
C20 C18 1.356 1_655 S
C20 C21 1.348 1_655 S
C21 C16 1.353 . S
C21 C20 1.348 1_455 S
C21 H73 0.929 1_455 S
H22 C16 0.930 . S
H23 C19 0.930 . S
C24 N25 1.314 . S
C24 C26 1.353 . S
C24 H30 0.930 . S
N25 Li1 1.990 . S
N25 C24 1.314 . S
N25 C28 1.279 . S
C26 C24 1.353 . S
C26 C29 1.348 . S
C26 H74 0.929 . S
C27 C28 1.358 . S
C27 C29 1.356 . S
C27 H75 0.930 . S
C28 N25 1.279 . S
C28 C27 1.358 . S
C28 H31 0.930 . S
C29 C26 1.348 . S
C29 C27 1.356 . S
H30 C24 0.930 . S
H31 C28 0.930 . S
C32 C34 1.348 . S
C32 C35 1.356 . S
C32 O62 1.325 . S
N33 C36 1.314 . S
N33 C37 1.279 . S
C34 C32 1.348 . S
C34 C36 1.353 . S
C34 H76 0.929 . S
C35 C32 1.356 . S
C35 C37 1.358 . S
C35 H77 0.930 . S
C36 N33 1.314 . S
C36 C34 1.353 . S
C36 H78 0.930 . S
C37 N33 1.279 . S
C37 C35 1.358 . S
C37 H79 0.930 . S
C38 C39 1.348 . S
C38 C40 1.356 . S
C38 O63 1.325 . S
C39 C38 1.348 . S
C39 C41 1.353 . S
C39 H80 0.929 . S
C40 C38 1.356 . S
C40 C42 1.358 . S
C40 H81 0.930 . S
C41 C39 1.353 . S
C41 N43 1.314 . S
C41 H82 0.930 . S
C42 C40 1.358 . S
C42 N43 1.279 . S
C42 H83 0.930 . S
N43 C41 1.314 . S
N43 C42 1.279 . S
C44 C46 1.353 . S
C44 N47 1.314 . S
C44 H50 0.930 . S
C45 N47 1.279 . S
C45 C48 1.358 . S
C45 H51 0.930 . S
C46 C44 1.353 . S
C46 C49 1.348 . S
C46 H84 0.929 . S
N47 Li2 1.990 . S
N47 C44 1.314 . S
N47 C45 1.279 . S
C48 C45 1.358 . S
C48 C49 1.356 . S
C48 H85 0.930 . S
C49 C46 1.348 . S
C49 C48 1.356 . S
H50 C44 0.930 . S
H51 C45 0.930 . S
C52 N53 1.314 . S
C52 C54 1.353 . S
C52 H58 0.930 . S
N53 Li3 1.990 . S
N53 C52 1.314 . S
N53 C56 1.279 . S
C54 C52 1.353 . S
C54 C57 1.348 . S
C54 H86 0.929 . S
C55 C56 1.358 . S
C55 C57 1.356 . S
C55 H87 0.930 . S
C56 N53 1.279 . S
C56 C55 1.358 . S
C56 H59 0.930 . S
C57 C54 1.348 . S
C57 C55 1.356 . S
H58 C52 0.930 . S
H59 C56 0.930 . S
O60 Li0 1.956 . S
O60 Li1 1.970 . S
O60 Li2 1.961 . S
O60 C4 1.325 . S
O61 Li0 1.970 . S
O61 Li1 1.956 . S
O61 Li3 1.961 . S
O61 C10 1.325 . S
O62 Li0 1.961 . S
O62 Li2 1.956 . S
O62 Li3 1.970 . S
O62 C32 1.325 . S
O63 Li1 1.961 . S
O63 Li2 1.970 . S
O63 Li3 1.956 . S
O63 C38 1.325 . S
H64 C6 0.929 . S
H65 C7 0.930 . S
H66 C8 0.930 . S
H67 C9 0.930 . S
H68 C11 0.930 . S
H69 C13 0.929 . S
H70 C14 0.930 . S
H71 C15 0.894 1_655 S
H72 C18 0.930 . S
H73 C21 0.929 1_655 S
H74 C26 0.929 . S
H75 C27 0.930 . S
H76 C34 0.929 . S
H77 C35 0.930 . S
H78 C36 0.930 . S
H79 C37 0.930 . S
H80 C39 0.929 . S
H81 C40 0.930 . S
H82 C41 0.930 . S
H83 C42 0.930 . S
H84 C46 0.929 . S
H85 C48 0.930 . S
H86 C54 0.929 . S
H87 C55 0.930 . S
Li88 N105 1.990 . S
Li88 O148 1.956 . S
Li88 O149 1.970 . S
Li88 O150 1.961 1_455 S
Li89 N113 1.990 . S
Li89 O148 1.970 . S
Li89 O149 1.956 . S
Li89 O151 1.936 1_455 S
Li90 N135 1.990 . S
Li90 O148 1.961 1_655 S
Li90 O150 1.956 . S
Li90 O151 1.972 . S
Li91 N141 1.990 . S
Li91 O149 1.961 1_655 S
Li91 O150 1.970 . S
Li91 O151 1.990 . S
C92 C94 1.348 . S
C92 C95 1.356 . S
C92 O148 1.325 . S
N93 C96 1.314 . S
N93 C97 1.279 . S
C94 C92 1.348 . S
C94 C96 1.353 . S
C94 H152 0.929 . S
C95 C92 1.356 . S
C95 C97 1.358 . S
C95 H153 0.930 . S
C96 N93 1.314 . S
C96 C94 1.353 . S
C96 H154 0.930 . S
C97 N93 1.279 . S
C97 C95 1.358 . S
C97 H155 0.930 . S
C98 C101 1.348 . S
C98 C102 1.356 . S
C98 O149 1.325 . S
C99 N100 1.279 . S
C99 C102 1.358 . S
C99 H156 0.930 . S
N100 C99 1.279 . S
N100 C103 1.314 . S
C101 C98 1.348 . S
C101 C103 1.353 . S
C101 H157 0.929 . S
C102 C98 1.356 . S
C102 C99 1.358 . S
C102 H158 0.925 1_455 S
C103 N100 1.314 . S
C103 C101 1.353 . S
C103 H159 0.930 . S
C104 N105 1.314 1_655 S
C104 C109 1.353 . S
C104 H110 0.930 . S
N105 Li88 1.990 . S
N105 C104 1.314 1_455 S
N105 C107 1.279 . S
C106 C107 1.358 . S
C106 C108 1.356 . S
C106 H160 0.930 . S
C107 N105 1.279 . S
C107 C106 1.358 . S
C107 H111 0.930 . S
C108 C106 1.356 . S
C108 C109 1.348 1_455 S
C109 C104 1.353 . S
C109 C108 1.348 1_655 S
C109 H161 0.929 . S
H110 C104 0.930 . S
H111 C107 0.930 . S
C112 N113 1.314 . S
C112 C114 1.353 . S
C112 H118 0.930 . S
N113 Li89 1.990 . S
N113 C112 1.314 . S
N113 C116 1.279 . S
C114 C112 1.353 . S
C114 C117 1.348 . S
C114 H162 0.929 . S
C115 C116 1.358 . S
C115 C117 1.356 . S
C115 H163 0.930 . S
C116 N113 1.279 . S
C116 C115 1.358 . S
C116 H119 0.930 . S
C117 C114 1.348 . S
C117 C115 1.356 . S
H118 C112 0.930 . S
H119 C116 0.930 . S
C120 C122 1.348 . S
C120 C123 1.356 . S
C120 O150 1.325 . S
N121 C124 1.314 . S
N121 C125 1.279 . S
C122 C120 1.348 . S
C122 C124 1.353 . S
C122 H164 0.929 . S
C123 C120 1.356 . S
C123 C125 1.358 . S
C123 H165 0.930 . S
C124 N121 1.314 . S
C124 C122 1.353 . S
C124 H166 0.930 . S
C125 N121 1.279 . S
C125 C123 1.358 . S
C125 H167 0.930 . S
C126 C127 1.348 . S
C126 C128 1.356 1_655 S
C126 O151 1.324 . S
C127 C126 1.348 . S
C127 C129 1.353 . S
C127 H168 0.929 . S
C128 C126 1.356 1_455 S
C128 C130 1.358 . S
C128 H169 0.930 . S
C129 C127 1.353 . S
C129 N131 1.314 . S
C129 H170 0.930 . S
C130 C128 1.358 . S
C130 N131 1.279 1_455 S
C130 H171 0.930 . S
N131 C129 1.314 . S
N131 C130 1.279 1_655 S
C132 C134 1.353 . S
C132 N135 1.314 1_455 S
C132 H138 0.930 . S
C133 N135 1.279 . S
C133 C136 1.358 . S
C133 H139 0.930 . S
C134 C132 1.353 . S
C134 C137 1.348 1_455 S
C134 H172 0.929 . S
N135 Li90 1.990 . S
N135 C132 1.314 1_655 S
N135 C133 1.279 . S
C136 C133 1.358 . S
C136 C137 1.356 . S
C136 H173 0.930 . S
C137 C134 1.348 1_655 S
C137 C136 1.356 . S
H138 C132 0.930 . S
H139 C133 0.930 . S
C140 N141 1.314 . S
C140 C142 1.353 . S
C140 H146 0.930 . S
N141 Li91 1.990 . S
N141 C140 1.314 . S
N141 C144 1.279 . S
C142 C140 1.353 . S
C142 C145 1.348 . S
C142 H174 0.929 . S
C143 C144 1.358 . S
C143 C145 1.356 . S
C143 H175 0.930 . S
C144 N141 1.279 . S
C144 C143 1.358 . S
C144 H147 0.930 . S
C145 C142 1.348 . S
C145 C143 1.356 . S
H146 C140 0.930 . S
H147 C144 0.930 . S
O148 Li88 1.956 . S
O148 Li89 1.970 . S
O148 Li90 1.961 1_455 S
O148 C92 1.325 . S
O149 Li88 1.970 . S
O149 Li89 1.956 . S
O149 Li91 1.961 1_455 S
O149 C98 1.325 . S
O150 Li88 1.961 1_655 S
O150 Li90 1.956 . S
O150 Li91 1.970 . S
O150 C120 1.325 . S
O151 Li89 1.936 1_655 S
O151 Li90 1.972 . S
O151 Li91 1.990 . S
O151 C126 1.324 . S
H152 C94 0.929 . S
H153 C95 0.930 . S
H154 C96 0.930 . S
H155 C97 0.930 . S
H156 C99 0.930 . S
H157 C101 0.929 . S
H158 C102 0.925 1_655 S
H159 C103 0.930 . S
H160 C106 0.930 . S
H161 C109 0.929 . S
H162 C114 0.929 . S
H163 C115 0.930 . S
H164 C122 0.929 . S
H165 C123 0.930 . S
H166 C124 0.930 . S
H167 C125 0.930 . S
H168 C127 0.929 . S
H169 C128 0.930 . S
H170 C129 0.930 . S
H171 C130 0.930 . S
H172 C134 0.929 . S
H173 C136 0.930 . S
H174 C142 0.929 . S
H175 C143 0.930 . S
Li176 N193 1.990 . S
Li176 O236 1.956 . S
Li176 O237 1.970 . S
Li176 O238 1.961 . S
Li177 N201 1.990 . S
Li177 O236 1.970 . S
Li177 O237 1.956 . S
Li177 O239 1.961 . S
Li178 N223 1.990 . S
Li178 O236 1.961 . S
Li178 O238 1.956 . S
Li178 O239 1.970 . S
Li179 N229 1.990 . S
Li179 O237 1.961 . S
Li179 O238 1.970 . S
Li179 O239 1.956 . S
C180 C182 1.348 . S
C180 C183 1.356 . S
C180 O236 1.325 . S
N181 C184 1.314 . S
N181 C185 1.279 . S
C182 C180 1.348 . S
C182 C184 1.353 . S
C182 H240 0.929 . S
C183 C180 1.356 . S
C183 C185 1.358 . S
C183 H241 0.930 . S
C184 N181 1.314 . S
C184 C182 1.353 . S
C184 H242 0.930 . S
C185 N181 1.279 . S
C185 C183 1.358 . S
C185 H243 0.930 . S
C186 C189 1.348 . S
C186 C190 1.356 . S
C186 O237 1.325 . S
C187 N188 1.279 . S
C187 C190 1.358 . S
C187 H244 0.930 . S
N188 C187 1.279 . S
N188 C191 1.314 . S
C189 C186 1.348 . S
C189 C191 1.353 . S
C189 H245 0.929 . S
C190 C186 1.356 . S
C190 C187 1.358 . S
C190 H246 0.930 . S
C191 N188 1.314 . S
C191 C189 1.353 . S
C191 H247 0.930 . S
C192 N193 1.314 . S
C192 C197 1.353 . S
C192 H198 0.930 . S
N193 Li176 1.990 . S
N193 C192 1.314 . S
N193 C195 1.279 . S
C194 C195 1.358 . S
C194 C196 1.356 . S
C194 H248 0.930 . S
C195 N193 1.279 . S
C195 C194 1.358 . S
C195 H199 0.930 . S
C196 C194 1.356 . S
C196 C197 1.348 . S
C197 C192 1.353 . S
C197 C196 1.348 . S
C197 H249 0.929 . S
H198 C192 0.930 . S
H199 C195 0.930 . S
C200 N201 1.314 . S
C200 C202 1.353 . S
C200 H206 0.930 . S
N201 Li177 1.990 . S
N201 C200 1.314 . S
N201 C204 1.279 . S
C202 C200 1.353 . S
C202 C205 1.348 . S
C202 H250 0.929 . S
C203 C204 1.358 . S
C203 C205 1.356 . S
C203 H251 0.930 . S
C204 N201 1.279 . S
C204 C203 1.358 . S
C204 H207 0.930 . S
C205 C202 1.348 . S
C205 C203 1.356 . S
H206 C200 0.930 . S
H207 C204 0.930 . S
C208 C210 1.348 . S
C208 C211 1.356 . S
C208 O238 1.325 . S
N209 C212 1.314 . S
N209 C213 1.279 . S
C210 C208 1.348 . S
C210 C212 1.353 . S
C210 H252 0.929 . S
C211 C208 1.356 . S
C211 C213 1.358 . S
C211 H253 0.930 . S
C212 N209 1.314 . S
C212 C210 1.353 . S
C212 H254 0.930 . S
C213 N209 1.279 . S
C213 C211 1.358 . S
C213 H255 0.930 . S
C214 C215 1.348 . S
C214 C216 1.356 . S
C214 O239 1.325 . S
C215 C214 1.348 . S
C215 C217 1.353 . S
C215 H256 0.929 . S
C216 C214 1.356 . S
C216 C218 1.358 . S
C216 H257 0.930 . S
C217 C215 1.353 . S
C217 N219 1.314 . S
C217 H258 0.930 . S
C218 C216 1.358 . S
C218 N219 1.279 . S
C218 H259 0.930 . S
N219 C217 1.314 . S
N219 C218 1.279 . S
C220 C222 1.353 . S
C220 N223 1.314 . S
C220 H226 0.930 . S
C221 N223 1.279 . S
C221 C224 1.358 . S
C221 H227 0.930 . S
C222 C220 1.353 . S
C222 C225 1.348 . S
C222 H260 0.929 . S
N223 Li178 1.990 . S
N223 C220 1.314 . S
N223 C221 1.279 . S
C224 C221 1.358 . S
C224 C225 1.356 . S
C224 H261 0.930 . S
C225 C222 1.348 . S
C225 C224 1.356 . S
H226 C220 0.930 . S
H227 C221 0.930 . S
C228 N229 1.314 . S
C228 C230 1.353 . S
C228 H234 0.930 . S
N229 Li179 1.990 . S
N229 C228 1.314 . S
N229 C232 1.279 . S
C230 C228 1.353 . S
C230 C233 1.348 . S
C230 H262 0.929 . S
C231 C232 1.358 . S
C231 C233 1.356 . S
C231 H263 0.930 . S
C232 N229 1.279 . S
C232 C231 1.358 . S
C232 H235 0.930 . S
C233 C230 1.348 . S
C233 C231 1.356 . S
H234 C228 0.930 . S
H235 C232 0.930 . S
O236 Li176 1.956 . S
O236 Li177 1.970 . S
O236 Li178 1.961 . S
O236 C180 1.325 . S
O237 Li176 1.970 . S
O237 Li177 1.956 . S
O237 Li179 1.961 . S
O237 C186 1.325 . S
O238 Li176 1.961 . S
O238 Li178 1.956 . S
O238 Li179 1.970 . S
O238 C208 1.325 . S
O239 Li177 1.961 . S
O239 Li178 1.970 . S
O239 Li179 1.956 . S
O239 C214 1.325 . S
H240 C182 0.929 . S
H241 C183 0.930 . S
H242 C184 0.930 . S
H243 C185 0.930 . S
H244 C187 0.930 . S
H245 C189 0.929 . S
H246 C190 0.930 . S
H247 C191 0.930 . S
H248 C194 0.930 . S
H249 C197 0.929 . S
H250 C202 0.929 . S
H251 C203 0.930 . S
H252 C210 0.929 . S
H253 C211 0.930 . S
H254 C212 0.930 . S
H255 C213 0.930 . S
H256 C215 0.929 . S
H257 C216 0.930 . S
H258 C217 0.930 . S
H259 C218 0.930 . S
H260 C222 0.929 . S
H261 C224 0.930 . S
H262 C230 0.929 . S
H263 C231 0.930 . S
Li264 N281 1.990 . S
Li264 O324 1.956 . S
Li264 O325 1.970 . S
Li264 O326 1.961 . S
Li265 N289 1.990 . S
Li265 O324 1.970 . S
Li265 O325 1.956 . S
Li265 O327 1.961 . S
Li266 N311 1.990 . S
Li266 O324 1.961 . S
Li266 O326 1.956 . S
Li266 O327 1.970 . S
Li267 N317 1.990 . S
Li267 O325 1.961 . S
Li267 O326 1.970 . S
Li267 O327 1.956 . S
C268 C270 1.348 . S
C268 C271 1.356 . S
C268 O324 1.325 . S
N269 C272 1.314 . S
N269 C273 1.279 . S
C270 C268 1.348 . S
C270 C272 1.353 . S
C270 H328 0.929 . S
C271 C268 1.356 . S
C271 C273 1.358 . S
C271 H329 0.930 . S
C272 N269 1.314 . S
C272 C270 1.353 . S
C272 H330 0.930 . S
C273 N269 1.279 . S
C273 C271 1.358 . S
C273 H331 0.930 . S
C274 C277 1.348 . S
C274 C278 1.356 . S
C274 O325 1.325 . S
C275 N276 1.279 . S
C275 C278 1.358 . S
C275 H332 0.930 . S
N276 C275 1.279 . S
N276 C279 1.314 . S
C277 C274 1.348 . S
C277 C279 1.353 . S
C277 H333 0.929 . S
C278 C274 1.356 . S
C278 C275 1.358 . S
C278 H334 0.930 . S
C279 N276 1.314 . S
C279 C277 1.353 . S
C279 H335 0.930 . S
C280 N281 1.314 . S
C280 C285 1.353 . S
C280 H286 0.930 . S
N281 Li264 1.990 . S
N281 C280 1.314 . S
N281 C283 1.279 . S
C282 C283 1.358 . S
C282 C284 1.356 . S
C282 H336 0.930 . S
C283 N281 1.279 . S
C283 C282 1.358 . S
C283 H287 0.930 . S
C284 C282 1.356 . S
C284 C285 1.348 . S
C285 C280 1.353 . S
C285 C284 1.348 . S
C285 H337 0.929 . S
H286 C280 0.930 . S
H287 C283 0.930 . S
C288 N289 1.314 . S
C288 C290 1.353 . S
C288 H294 0.930 . S
N289 Li265 1.990 . S
N289 C288 1.314 . S
N289 C292 1.279 . S
C290 C288 1.353 . S
C290 C293 1.348 . S
C290 H338 0.929 . S
C291 C292 1.358 . S
C291 C293 1.356 . S
C291 H339 0.930 . S
C292 N289 1.279 . S
C292 C291 1.358 . S
C292 H295 0.930 . S
C293 C290 1.348 . S
C293 C291 1.356 . S
H294 C288 0.930 . S
H295 C292 0.930 . S
C296 C298 1.348 . S
C296 C299 1.356 . S
C296 O326 1.325 . S
N297 C300 1.314 . S
N297 C301 1.279 . S
C298 C296 1.348 . S
C298 C300 1.353 . S
C298 H340 0.929 . S
C299 C296 1.356 . S
C299 C301 1.358 . S
C299 H341 0.930 . S
C300 N297 1.314 . S
C300 C298 1.353 . S
C300 H342 0.930 . S
C301 N297 1.279 . S
C301 C299 1.358 . S
C301 H343 0.930 . S
C302 C303 1.348 . S
C302 C304 1.356 . S
C302 O327 1.325 . S
C303 C302 1.348 . S
C303 C305 1.353 . S
C303 H344 0.929 . S
C304 C302 1.356 . S
C304 C306 1.358 . S
C304 H345 0.930 . S
C305 C303 1.353 . S
C305 N307 1.314 . S
C305 H346 0.930 . S
C306 C304 1.358 . S
C306 N307 1.279 . S
C306 H347 0.930 . S
N307 C305 1.314 . S
N307 C306 1.279 . S
C308 C310 1.353 . S
C308 N311 1.314 . S
C308 H314 0.930 . S
C309 N311 1.279 . S
C309 C312 1.358 . S
C309 H315 0.930 . S
C310 C308 1.353 . S
C310 C313 1.348 . S
C310 H348 0.929 . S
N311 Li266 1.990 . S
N311 C308 1.314 . S
N311 C309 1.279 . S
C312 C309 1.358 . S
C312 C313 1.356 . S
C312 H349 0.930 . S
C313 C310 1.348 . S
C313 C312 1.356 . S
H314 C308 0.930 . S
H315 C309 0.930 . S
C316 N317 1.314 . S
C316 C318 1.353 . S
C316 H322 0.930 . S
N317 Li267 1.990 . S
N317 C316 1.314 . S
N317 C320 1.279 . S
C318 C316 1.353 . S
C318 C321 1.348 . S
C318 H350 0.929 . S
C319 C320 1.358 . S
C319 C321 1.356 . S
C319 H351 0.930 . S
C320 N317 1.279 . S
C320 C319 1.358 . S
C320 H323 0.930 . S
C321 C318 1.348 . S
C321 C319 1.356 . S
H322 C316 0.930 . S
H323 C320 0.930 . S
O324 Li264 1.956 . S
O324 Li265 1.970 . S
O324 Li266 1.961 . S
O324 C268 1.325 . S
O325 Li264 1.970 . S
O325 Li265 1.956 . S
O325 Li267 1.961 . S
O325 C274 1.325 . S
O326 Li264 1.961 . S
O326 Li266 1.956 . S
O326 Li267 1.970 . S
O326 C296 1.325 . S
O327 Li265 1.961 . S
O327 Li266 1.970 . S
O327 Li267 1.956 . S
O327 C302 1.325 . S
H328 C270 0.929 . S
H329 C271 0.930 . S
H330 C272 0.930 . S
H331 C273 0.930 . S
H332 C275 0.930 . S
H333 C277 0.929 . S
H334 C278 0.930 . S
H335 C279 0.930 . S
H336 C282 0.930 . S
H337 C285 0.929 . S
H338 C290 0.929 . S
H339 C291 0.930 . S
H340 C298 0.929 . S
H341 C299 0.930 . S
H342 C300 0.930 . S
H343 C301 0.930 . S
H344 C303 0.929 . S
H345 C304 0.930 . S
H346 C305 0.930 . S
H347 C306 0.930 . S
H348 C310 0.929 . S
H349 C312 0.930 . S
H350 C318 0.929 . S
H351 C319 0.930 . S
Li352 N369 1.990 . S
Li352 O412 1.956 . S
Li352 O413 1.970 . S
Li352 O414 1.961 . S
Li353 N377 1.990 . S
Li353 O412 1.970 . S
Li353 O413 1.956 . S
Li353 O415 1.961 . S
Li354 N399 1.990 . S
Li354 O412 1.961 . S
Li354 O414 1.956 . S
Li354 O415 1.970 . S
Li355 N405 1.990 . S
Li355 O413 1.961 . S
Li355 O414 1.970 . S
Li355 O415 1.956 . S
C356 C358 1.348 . S
C356 C359 1.356 . S
C356 O412 1.325 . S
N357 C360 1.314 . S
N357 C361 1.279 . S
C358 C356 1.348 . S
C358 C360 1.353 . S
C358 H416 0.929 . S
C359 C356 1.356 . S
C359 C361 1.358 . S
C359 H417 0.930 . S
C360 N357 1.314 . S
C360 C358 1.353 . S
C360 H418 0.930 . S
C361 N357 1.279 . S
C361 C359 1.358 . S
C361 H419 0.930 . S
C362 C365 1.348 . S
C362 C366 1.356 . S
C362 O413 1.325 . S
C363 N364 1.279 . S
C363 C366 1.358 . S
C363 H420 0.930 . S
N364 C363 1.279 . S
N364 C367 1.314 . S
C365 C362 1.348 . S
C365 C367 1.353 . S
C365 H421 0.929 . S
C366 C362 1.356 . S
C366 C363 1.358 . S
C366 H422 0.930 . S
C367 N364 1.314 . S
C367 C365 1.353 . S
C367 H423 0.930 . S
C368 N369 1.314 . S
C368 C373 1.353 . S
C368 H374 0.930 . S
N369 Li352 1.990 . S
N369 C368 1.314 . S
N369 C371 1.279 . S
C370 C371 1.358 . S
C370 C372 1.356 . S
C370 H424 0.930 . S
C371 N369 1.279 . S
C371 C370 1.358 . S
C371 H375 0.930 . S
C372 C370 1.356 . S
C372 C373 1.348 . S
C373 C368 1.353 . S
C373 C372 1.348 . S
C373 H425 0.929 . S
H374 C368 0.930 . S
H375 C371 0.930 . S
C376 N377 1.314 . S
C376 C378 1.353 . S
C376 H382 0.930 . S
N377 Li353 1.990 . S
N377 C376 1.314 . S
N377 C380 1.279 . S
C378 C376 1.353 . S
C378 C381 1.348 . S
C378 H426 0.929 . S
C379 C380 1.358 . S
C379 C381 1.356 . S
C379 H427 0.930 . S
C380 N377 1.279 . S
C380 C379 1.358 . S
C380 H383 0.930 . S
C381 C378 1.348 . S
C381 C379 1.356 . S
H382 C376 0.930 . S
H383 C380 0.930 . S
C384 C386 1.348 . S
C384 C387 1.356 . S
C384 O414 1.325 . S
N385 C388 1.314 . S
N385 C389 1.279 1_655 S
C386 C384 1.348 . S
C386 C388 1.353 1_455 S
C386 H428 0.929 . S
C387 C384 1.356 . S
C387 C389 1.358 . S
C387 H429 0.930 . S
C388 N385 1.314 . S
C388 C386 1.353 1_655 S
C388 H430 0.930 . S
C389 N385 1.279 1_455 S
C389 C387 1.358 . S
C389 H431 0.930 . S
C390 C391 1.348 . S
C390 C392 1.356 . S
C390 O415 1.325 . S
C391 C390 1.348 . S
C391 C393 1.353 . S
C391 H432 0.929 . S
C392 C390 1.356 . S
C392 C394 1.358 . S
C392 H433 0.930 . S
C393 C391 1.353 . S
C393 N395 1.314 . S
C393 H434 0.930 . S
C394 C392 1.358 . S
C394 N395 1.279 . S
C394 H435 0.930 . S
N395 C393 1.314 . S
N395 C394 1.279 . S
C396 C398 1.353 . S
C396 N399 1.314 . S
C396 H402 0.930 . S
C397 N399 1.279 . S
C397 C400 1.358 . S
C397 H403 0.930 . S
C398 C396 1.353 . S
C398 C401 1.348 . S
C398 H436 0.929 . S
N399 Li354 1.990 . S
N399 C396 1.314 . S
N399 C397 1.279 . S
C400 C397 1.358 . S
C400 C401 1.356 . S
C400 H437 0.930 . S
C401 C398 1.348 . S
C401 C400 1.356 . S
H402 C396 0.930 . S
H403 C397 0.930 . S
C404 N405 1.314 . S
C404 C406 1.353 . S
C404 H410 0.930 . S
N405 Li355 1.990 . S
N405 C404 1.314 . S
N405 C408 1.279 . S
C406 C404 1.353 . S
C406 C409 1.348 1_455 S
C406 H438 0.929 1_455 S
C407 C408 1.358 . S
C407 C409 1.356 1_455 S
C407 H439 0.925 1_455 S
C408 N405 1.279 . S
C408 C407 1.358 . S
C408 H411 0.930 . S
C409 C406 1.348 1_655 S
C409 C407 1.356 1_655 S
H410 C404 0.930 . S
H411 C408 0.930 . S
O412 Li352 1.956 . S
O412 Li353 1.970 . S
O412 Li354 1.961 . S
O412 C356 1.325 . S
O413 Li352 1.970 . S
O413 Li353 1.956 . S
O413 Li355 1.961 . S
O413 C362 1.325 . S
O414 Li352 1.961 . S
O414 Li354 1.956 . S
O414 Li355 1.970 . S
O414 C384 1.325 . S
O415 Li353 1.961 . S
O415 Li354 1.970 . S
O415 Li355 1.956 . S
O415 C390 1.325 . S
H416 C358 0.929 . S
H417 C359 0.930 . S
H418 C360 0.930 . S
H419 C361 0.930 . S
H420 C363 0.930 . S
H421 C365 0.929 . S
H422 C366 0.930 . S
H423 C367 0.930 . S
H424 C370 0.930 . S
H425 C373 0.929 . S
H426 C378 0.929 . S
H427 C379 0.930 . S
H428 C386 0.929 . S
H429 C387 0.930 . S
H430 C388 0.930 . S
H431 C389 0.930 . S
H432 C391 0.929 . S
H433 C392 0.930 . S
H434 C393 0.930 . S
H435 C394 0.930 . S
H436 C398 0.929 . S
H437 C400 0.930 . S
H438 C406 0.929 1_655 S
H439 C407 0.925 1_655 S
Li440 N457 1.990 . S
Li440 O500 1.956 . S
Li440 O501 1.970 . S
Li440 O502 1.961 . S
Li441 N465 1.990 . S
Li441 O500 1.970 . S
Li441 O501 1.956 . S
Li441 O503 1.961 . S
Li442 N487 1.990 . S
Li442 O500 1.961 . S
Li442 O502 1.956 . S
Li442 O503 1.970 . S
Li443 N493 1.990 . S
Li443 O501 1.961 . S
Li443 O502 1.970 . S
Li443 O503 1.956 . S
C444 C446 1.348 . S
C444 C447 1.356 . S
C444 O500 1.325 . S
N445 C448 1.314 . S
N445 C449 1.279 . S
C446 C444 1.348 . S
C446 C448 1.353 . S
C446 H504 0.929 . S
C447 C444 1.356 . S
C447 C449 1.358 . S
C447 H505 0.930 . S
C448 N445 1.314 . S
C448 C446 1.353 . S
C448 H506 0.930 . S
C449 N445 1.279 . S
C449 C447 1.358 . S
C449 H507 0.930 . S
C450 C453 1.348 . S
C450 C454 1.356 . S
C450 O501 1.325 . S
C451 N452 1.279 . S
C451 C454 1.358 . S
C451 H508 0.930 . S
N452 C451 1.279 . S
N452 C455 1.314 . S
C453 C450 1.348 . S
C453 C455 1.353 . S
C453 H509 0.929 . S
C454 C450 1.356 . S
C454 C451 1.358 . S
C454 H510 0.930 . S
C455 N452 1.314 . S
C455 C453 1.353 . S
C455 H511 0.930 . S
C456 N457 1.314 . S
C456 C461 1.353 . S
C456 H462 0.930 . S
N457 Li440 1.990 . S
N457 C456 1.314 . S
N457 C459 1.279 . S
C458 C459 1.358 . S
C458 C460 1.356 . S
C458 H512 0.930 . S
C459 N457 1.279 . S
C459 C458 1.358 . S
C459 H463 0.930 . S
C460 C458 1.356 . S
C460 C461 1.348 . S
C461 C456 1.353 . S
C461 C460 1.348 . S
C461 H513 0.929 . S
H462 C456 0.930 . S
H463 C459 0.930 . S
C464 N465 1.314 . S
C464 C466 1.353 . S
C464 H470 0.930 . S
N465 Li441 1.990 . S
N465 C464 1.314 . S
N465 C468 1.279 . S
C466 C464 1.353 . S
C466 C469 1.348 . S
C466 H514 0.929 . S
C467 C468 1.358 . S
C467 C469 1.356 . S
C467 H515 0.930 . S
C468 N465 1.279 . S
C468 C467 1.358 . S
C468 H471 0.930 . S
C469 C466 1.348 . S
C469 C467 1.356 . S
H470 C464 0.930 . S
H471 C468 0.930 . S
C472 C474 1.348 . S
C472 C475 1.356 . S
C472 O502 1.325 . S
N473 C476 1.314 . S
N473 C477 1.279 . S
C474 C472 1.348 . S
C474 C476 1.353 . S
C474 H516 0.929 . S
C475 C472 1.356 . S
C475 C477 1.358 . S
C475 H517 0.930 . S
C476 N473 1.314 . S
C476 C474 1.353 . S
C476 H518 0.930 . S
C477 N473 1.279 . S
C477 C475 1.358 . S
C477 H519 0.930 . S
C478 C479 1.348 . S
C478 C480 1.356 . S
C478 O503 1.325 . S
C479 C478 1.348 . S
C479 C481 1.353 . S
C479 H520 0.929 . S
C480 C478 1.356 . S
C480 C482 1.358 . S
C480 H521 0.930 . S
C481 C479 1.353 . S
C481 N483 1.314 . S
C481 H522 0.930 . S
C482 C480 1.358 . S
C482 N483 1.279 . S
C482 H523 0.930 . S
N483 C481 1.314 . S
N483 C482 1.279 . S
C484 C486 1.353 . S
C484 N487 1.314 . S
C484 H490 0.930 . S
C485 N487 1.279 . S
C485 C488 1.358 . S
C485 H491 0.930 . S
C486 C484 1.353 . S
C486 C489 1.348 . S
C486 H524 0.929 . S
N487 Li442 1.990 . S
N487 C484 1.314 . S
N487 C485 1.279 . S
C488 C485 1.358 . S
C488 C489 1.356 . S
C488 H525 0.930 . S
C489 C486 1.348 . S
C489 C488 1.356 . S
H490 C484 0.930 . S
H491 C485 0.930 . S
C492 N493 1.314 . S
C492 C494 1.353 . S
C492 H498 0.930 . S
N493 Li443 1.990 . S
N493 C492 1.314 . S
N493 C496 1.279 . S
C494 C492 1.353 . S
C494 C497 1.348 . S
C494 H526 0.929 . S
C495 C496 1.358 . S
C495 C497 1.356 . S
C495 H527 0.930 . S
C496 N493 1.279 . S
C496 C495 1.358 . S
C496 H499 0.930 . S
C497 C494 1.348 . S
C497 C495 1.356 . S
H498 C492 0.930 . S
H499 C496 0.930 . S
O500 Li440 1.956 . S
O500 Li441 1.970 . S
O500 Li442 1.961 . S
O500 C444 1.325 . S
O501 Li440 1.970 . S
O501 Li441 1.956 . S
O501 Li443 1.961 . S
O501 C450 1.325 . S
O502 Li440 1.961 . S
O502 Li442 1.956 . S
O502 Li443 1.970 . S
O502 C472 1.325 . S
O503 Li441 1.961 . S
O503 Li442 1.970 . S
O503 Li443 1.956 . S
O503 C478 1.325 . S
H504 C446 0.929 . S
H505 C447 0.930 . S
H506 C448 0.930 . S
H507 C449 0.930 . S
H508 C451 0.930 . S
H509 C453 0.929 . S
H510 C454 0.930 . S
H511 C455 0.930 . S
H512 C458 0.930 . S
H513 C461 0.929 . S
H514 C466 0.929 . S
H515 C467 0.930 . S
H516 C474 0.929 . S
H517 C475 0.930 . S
H518 C476 0.930 . S
H519 C477 0.930 . S
H520 C479 0.929 . S
H521 C480 0.930 . S
H522 C481 0.930 . S
H523 C482 0.930 . S
H524 C486 0.929 . S
H525 C488 0.930 . S
H526 C494 0.929 . S
H527 C495 0.930 . S
Li528 N545 1.990 . S
Li528 O588 1.956 . S
Li528 O589 1.970 . S
Li528 O590 1.961 . S
Li529 N553 1.990 . S
Li529 O588 1.970 . S
Li529 O589 1.956 . S
Li529 O591 1.961 . S
Li530 N575 1.990 . S
Li530 O588 1.961 . S
Li530 O590 1.956 . S
Li530 O591 1.970 . S
Li531 N581 1.990 . S
Li531 O589 1.961 . S
Li531 O590 1.970 . S
Li531 O591 1.956 . S
C532 C534 1.348 . S
C532 C535 1.356 . S
C532 O588 1.325 . S
N533 C536 1.314 . S
N533 C537 1.279 . S
C534 C532 1.348 . S
C534 C536 1.353 . S
C534 H592 0.929 . S
C535 C532 1.356 . S
C535 C537 1.358 . S
C535 H593 0.930 . S
C536 N533 1.314 . S
C536 C534 1.353 . S
C536 H594 0.930 . S
C537 N533 1.279 . S
C537 C535 1.358 . S
C537 H595 0.930 . S
C538 C541 1.348 . S
C538 C542 1.356 . S
C538 O589 1.325 . S
C539 N540 1.279 . S
C539 C542 1.358 . S
C539 H596 0.930 . S
N540 C539 1.279 . S
N540 C543 1.314 . S
C541 C538 1.348 . S
C541 C543 1.353 . S
C541 H597 0.929 . S
C542 C538 1.356 . S
C542 C539 1.358 . S
C542 H598 0.930 . S
C543 N540 1.314 . S
C543 C541 1.353 . S
C543 H599 0.930 . S
C544 N545 1.314 . S
C544 C549 1.353 . S
C544 H550 0.930 . S
N545 Li528 1.990 . S
N545 C544 1.314 . S
N545 C547 1.279 . S
C546 C547 1.358 . S
C546 C548 1.356 . S
C546 H600 0.930 . S
C547 N545 1.279 . S
C547 C546 1.358 . S
C547 H551 0.930 . S
C548 C546 1.356 . S
C548 C549 1.348 . S
C549 C544 1.353 . S
C549 C548 1.348 . S
C549 H601 0.929 . S
H550 C544 0.930 . S
H551 C547 0.930 . S
C552 N553 1.314 . S
C552 C554 1.353 . S
C552 H558 0.930 . S
N553 Li529 1.990 . S
N553 C552 1.314 . S
N553 C556 1.279 . S
C554 C552 1.353 . S
C554 C557 1.348 . S
C554 H602 0.929 . S
C555 C556 1.358 . S
C555 C557 1.356 . S
C555 H603 0.930 . S
C556 N553 1.279 . S
C556 C555 1.358 . S
C556 H559 0.930 . S
C557 C554 1.348 . S
C557 C555 1.356 . S
H558 C552 0.930 . S
H559 C556 0.930 . S
C560 C562 1.348 . S
C560 C563 1.356 . S
C560 O590 1.325 . S
N561 C564 1.314 . S
N561 C565 1.279 . S
C562 C560 1.348 . S
C562 C564 1.353 . S
C562 H604 0.929 . S
C563 C560 1.356 . S
C563 C565 1.358 . S
C563 H605 0.930 . S
C564 N561 1.314 . S
C564 C562 1.353 . S
C564 H606 0.930 . S
C565 N561 1.279 . S
C565 C563 1.358 . S
C565 H607 0.930 . S
C566 C567 1.348 . S
C566 C568 1.356 . S
C566 O591 1.325 . S
C567 C566 1.348 . S
C567 C569 1.353 . S
C567 H608 0.929 . S
C568 C566 1.356 . S
C568 C570 1.358 . S
C568 H609 0.930 . S
C569 C567 1.353 . S
C569 N571 1.314 . S
C569 H610 0.930 . S
C570 C568 1.358 . S
C570 N571 1.279 . S
C570 H611 0.930 . S
N571 C569 1.314 . S
N571 C570 1.279 . S
C572 C574 1.353 . S
C572 N575 1.314 . S
C572 H578 0.930 . S
C573 N575 1.279 . S
C573 C576 1.358 . S
C573 H579 0.930 . S
C574 C572 1.353 . S
C574 C577 1.348 . S
C574 H612 0.929 . S
N575 Li530 1.990 . S
N575 C572 1.314 . S
N575 C573 1.279 . S
C576 C573 1.358 . S
C576 C577 1.356 . S
C576 H613 0.930 . S
C577 C574 1.348 . S
C577 C576 1.356 . S
H578 C572 0.930 . S
H579 C573 0.930 . S
C580 N581 1.314 . S
C580 C582 1.353 . S
C580 H586 0.930 . S
N581 Li531 1.990 . S
N581 C580 1.314 . S
N581 C584 1.279 . S
C582 C580 1.353 . S
C582 C585 1.348 . S
C582 H614 0.929 . S
C583 C584 1.358 . S
C583 C585 1.356 . S
C583 H615 0.930 . S
C584 N581 1.279 . S
C584 C583 1.358 . S
C584 H587 0.930 . S
C585 C582 1.348 . S
C585 C583 1.356 . S
H586 C580 0.930 . S
H587 C584 0.930 . S
O588 Li528 1.956 . S
O588 Li529 1.970 . S
O588 Li530 1.961 . S
O588 C532 1.325 . S
O589 Li528 1.970 . S
O589 Li529 1.956 . S
O589 Li531 1.961 . S
O589 C538 1.325 . S
O590 Li528 1.961 . S
O590 Li530 1.956 . S
O590 Li531 1.970 . S
O590 C560 1.325 . S
O591 Li529 1.961 . S
O591 Li530 1.970 . S
O591 Li531 1.956 . S
O591 C566 1.325 . S
H592 C534 0.929 . S
H593 C535 0.930 . S
H594 C536 0.930 . S
H595 C537 0.930 . S
H596 C539 0.930 . S
H597 C541 0.929 . S
H598 C542 0.930 . S
H599 C543 0.930 . S
H600 C546 0.930 . S
H601 C549 0.929 . S
H602 C554 0.929 . S
H603 C555 0.930 . S
H604 C562 0.929 . S
H605 C563 0.930 . S
H606 C564 0.930 . S
H607 C565 0.930 . S
H608 C567 0.929 . S
H609 C568 0.930 . S
H610 C569 0.930 . S
H611 C570 0.930 . S
H612 C574 0.929 . S
H613 C576 0.930 . S
H614 C582 0.929 . S
H615 C583 0.930 . S
Li616 N633 1.990 . S
Li616 O676 1.956 1_455 S
Li616 O677 1.970 . S
Li616 O678 1.961 . S
Li617 N641 1.990 . S
Li617 O676 1.970 . S
Li617 O677 1.956 1_655 S
Li617 O679 1.961 1_655 S
Li618 N663 1.990 . S
Li618 O676 1.961 1_455 S
Li618 O678 1.956 . S
Li618 O679 1.970 . S
Li619 N669 1.990 . S
Li619 O677 1.961 . S
Li619 O678 1.970 . S
Li619 O679 1.956 . S
C620 C622 1.348 . S
C620 C623 1.356 . S
C620 O676 1.325 . S
N621 C624 1.314 . S
N621 C625 1.279 . S
C622 C620 1.348 . S
C622 C624 1.353 . S
C622 H680 0.929 . S
C623 C620 1.356 . S
C623 C625 1.358 . S
C623 H681 0.930 . S
C624 N621 1.314 . S
C624 C622 1.353 . S
C624 H682 0.930 . S
C625 N621 1.279 . S
C625 C623 1.358 . S
C625 H683 0.930 . S
C626 C629 1.348 . S
C626 C630 1.356 . S
C626 O677 1.325 . S
C627 N628 1.279 . S
C627 C630 1.358 . S
C627 H684 0.930 . S
N628 C627 1.279 . S
N628 C631 1.314 . S
C629 C626 1.348 . S
C629 C631 1.353 . S
C629 H685 0.929 . S
C630 C626 1.356 . S
C630 C627 1.358 . S
C630 H686 0.930 . S
C631 N628 1.314 . S
C631 C629 1.353 . S
C631 H687 0.930 . S
C632 N633 1.314 . S
C632 C637 1.353 . S
C632 H638 0.930 . S
N633 Li616 1.990 . S
N633 C632 1.314 . S
N633 C635 1.279 . S
C634 C635 1.358 . S
C634 C636 1.356 . S
C634 H688 0.930 1_455 S
C635 N633 1.279 . S
C635 C634 1.358 . S
C635 H639 0.930 1_455 S
C636 C634 1.356 . S
C636 C637 1.348 . S
C637 C632 1.353 . S
C637 C636 1.348 . S
C637 H689 0.929 . S
H638 C632 0.930 . S
H639 C635 0.930 1_655 S
C640 N641 1.314 . S
C640 C642 1.353 . S
C640 H646 0.930 . S
N641 Li617 1.990 . S
N641 C640 1.314 . S
N641 C644 1.279 . S
C642 C640 1.353 . S
C642 C645 1.348 . S
C642 H690 0.929 . S
C643 C644 1.358 . S
C643 C645 1.356 . S
C643 H691 0.930 . S
C644 N641 1.279 . S
C644 C643 1.358 . S
C644 H647 0.930 . S
C645 C642 1.348 . S
C645 C643 1.356 . S
H646 C640 0.930 . S
H647 C644 0.930 . S
C648 C650 1.348 . S
C648 C651 1.356 . S
C648 O678 1.325 . S
N649 C652 1.314 . S
N649 C653 1.279 . S
C650 C648 1.348 . S
C650 C652 1.353 . S
C650 H692 0.929 . S
C651 C648 1.356 . S
C651 C653 1.358 . S
C651 H693 0.930 . S
C652 N649 1.314 . S
C652 C650 1.353 . S
C652 H694 0.930 . S
C653 N649 1.279 . S
C653 C651 1.358 . S
C653 H695 0.930 . S
C654 C655 1.348 . S
C654 C656 1.356 . S
C654 O679 1.325 . S
C655 C654 1.348 . S
C655 C657 1.353 . S
C655 H696 0.929 . S
C656 C654 1.356 . S
C656 C658 1.366 1_455 S
C656 H697 0.917 1_455 S
C657 C655 1.353 . S
C657 N659 1.314 . S
C657 H698 0.930 . S
C658 C656 1.366 1_655 S
C658 N659 1.264 1_655 S
C658 H699 0.942 . S
N659 C657 1.314 . S
N659 C658 1.264 1_455 S
C660 C662 1.353 . S
C660 N663 1.314 1_655 S
C660 H666 0.930 . S
C661 N663 1.279 . S
C661 C664 1.358 . S
C661 H667 0.930 . S
C662 C660 1.353 . S
C662 C665 1.348 1_655 S
C662 H700 0.929 . S
N663 Li618 1.990 . S
N663 C660 1.314 1_455 S
N663 C661 1.279 . S
C664 C661 1.358 . S
C664 C665 1.356 . S
C664 H701 0.930 . S
C665 C662 1.348 1_455 S
C665 C664 1.356 . S
H666 C660 0.930 . S
H667 C661 0.930 . S
C668 N669 1.314 . S
C668 C670 1.353 . S
C668 H674 0.930 . S
N669 Li619 1.990 . S
N669 C668 1.314 . S
N669 C672 1.279 . S
C670 C668 1.353 . S
C670 C673 1.348 . S
C670 H702 0.929 . S
C671 C672 1.358 . S
C671 C673 1.356 . S
C671 H703 0.930 . S
C672 N669 1.279 . S
C672 C671 1.358 . S
C672 H675 0.930 . S
C673 C670 1.348 . S
C673 C671 1.356 . S
H674 C668 0.930 . S
H675 C672 0.930 . S
O676 Li616 1.956 1_655 S
O676 Li617 1.970 . S
O676 Li618 1.961 1_655 S
O676 C620 1.325 . S
O677 Li616 1.970 . S
O677 Li617 1.956 1_455 S
O677 Li619 1.961 . S
O677 C626 1.325 . S
O678 Li616 1.961 . S
O678 Li618 1.956 . S
O678 Li619 1.970 . S
O678 C648 1.325 . S
O679 Li617 1.961 1_455 S
O679 Li618 1.970 . S
O679 Li619 1.956 . S
O679 C654 1.325 . S
H680 C622 0.929 . S
H681 C623 0.930 . S
H682 C624 0.930 . S
H683 C625 0.930 . S
H684 C627 0.930 . S
H685 C629 0.929 . S
H686 C630 0.930 . S
H687 C631 0.930 . S
H688 C634 0.930 1_655 S
H689 C637 0.929 . S
H690 C642 0.929 . S
H691 C643 0.930 . S
H692 C650 0.929 . S
H693 C651 0.930 . S
H694 C652 0.930 . S
H695 C653 0.930 . S
H696 C655 0.929 . S
H697 C656 0.917 1_655 S
H698 C657 0.930 . S
H699 C658 0.942 . S
H700 C662 0.929 . S
H701 C664 0.930 . S
H702 C670 0.929 . S
H703 C671 0.930 . S
Li704 N721 1.990 . S
Li704 O764 1.956 1_545 S
Li704 O765 1.970 . S
Li704 O766 1.961 . S
Li705 N729 1.990 . S
Li705 O764 1.970 . S
Li705 O765 1.956 1_565 S
Li705 O767 1.961 . S
Li706 N751 1.990 . S
Li706 O764 1.961 1_545 S
Li706 O766 1.956 . S
Li706 O767 1.970 1_545 S
Li707 N757 1.990 . S
Li707 O765 1.961 . S
Li707 O766 1.970 . S
Li707 O767 1.956 1_545 S
C708 C710 1.348 . S
C708 C711 1.356 . S
C708 O764 1.325 . S
N709 C712 1.314 . S
N709 C713 1.279 . S
C710 C708 1.348 . S
C710 C712 1.353 . S
C710 H768 0.929 . S
C711 C708 1.356 . S
C711 C713 1.358 . S
C711 H769 0.930 . S
C712 N709 1.314 . S
C712 C710 1.353 . S
C712 H770 0.930 . S
C713 N709 1.279 . S
C713 C711 1.358 . S
C713 H771 0.930 . S
C714 C717 1.364 . S
C714 C718 1.356 . S
C714 O765 1.325 . S
C715 N716 1.279 . S
C715 C718 1.358 . S
C715 H772 0.930 . S
N716 C715 1.279 . S
N716 C719 1.322 . S
C717 C714 1.364 . S
C717 C719 1.353 . S
C717 H773 0.915 1_545 S
C718 C714 1.356 . S
C718 C715 1.358 . S
C718 H774 0.930 . S
C719 N716 1.322 . S
C719 C717 1.353 . S
C719 H775 0.921 1_545 S
C720 N721 1.314 . S
C720 C725 1.353 . S
C720 H726 0.930 . S
N721 Li704 1.990 . S
N721 C720 1.314 . S
N721 C723 1.279 1_545 S
C722 C723 1.358 1_545 S
C722 C724 1.356 . S
C722 H776 0.930 1_545 S
C723 N721 1.279 1_565 S
C723 C722 1.358 1_565 S
C723 H727 0.930 . S
C724 C722 1.356 . S
C724 C725 1.348 . S
C725 C720 1.353 . S
C725 C724 1.348 . S
C725 H777 0.929 . S
H726 C720 0.930 . S
H727 C723 0.930 . S
C728 N729 1.314 . S
C728 C730 1.353 . S
C728 H734 0.930 . S
N729 Li705 1.990 . S
N729 C728 1.314 . S
N729 C732 1.279 . S
C730 C728 1.353 . S
C730 C733 1.348 . S
C730 H778 0.929 . S
C731 C732 1.358 . S
C731 C733 1.356 . S
C731 H779 0.930 . S
C732 N729 1.279 . S
C732 C731 1.358 . S
C732 H735 0.930 . S
C733 C730 1.348 . S
C733 C731 1.356 . S
H734 C728 0.930 . S
H735 C732 0.930 . S
C736 C738 1.348 . S
C736 C739 1.356 . S
C736 O766 1.325 . S
N737 C740 1.314 . S
N737 C741 1.279 . S
C738 C736 1.348 . S
C738 C740 1.353 . S
C738 H780 0.929 . S
C739 C736 1.356 . S
C739 C741 1.358 . S
C739 H781 0.930 . S
C740 N737 1.314 . S
C740 C738 1.353 . S
C740 H782 0.930 . S
C741 N737 1.279 . S
C741 C739 1.358 . S
C741 H783 0.930 . S
C742 C743 1.348 1_565 S
C742 C744 1.356 . S
C742 O767 1.325 . S
C743 C742 1.348 1_545 S
C743 C745 1.353 1_545 S
C743 H784 0.929 . S
C744 C742 1.356 . S
C744 C746 1.358 . S
C744 H785 0.930 . S
C745 C743 1.353 1_565 S
C745 N747 1.314 . S
C745 H786 0.918 1_565 S
C746 C744 1.358 . S
C746 N747 1.279 . S
C746 H787 0.930 . S
N747 C745 1.314 . S
N747 C746 1.279 . S
C748 C750 1.353 . S
C748 N751 1.314 1_565 S
C748 H754 0.930 . S
C749 N751 1.279 . S
C749 C752 1.358 . S
C749 H755 0.930 . S
C750 C748 1.353 . S
C750 C753 1.348 1_565 S
C750 H788 0.929 . S
N751 Li706 1.990 . S
N751 C748 1.314 1_545 S
N751 C749 1.279 . S
C752 C749 1.358 . S
C752 C753 1.356 . S
C752 H789 0.930 . S
C753 C750 1.348 1_545 S
C753 C752 1.356 . S
H754 C748 0.930 . S
H755 C749 0.930 . S
C756 N757 1.314 . S
C756 C758 1.353 . S
C756 H762 0.930 . S
N757 Li707 1.990 . S
N757 C756 1.314 . S
N757 C760 1.279 . S
C758 C756 1.353 . S
C758 C761 1.348 . S
C758 H790 0.929 . S
C759 C760 1.358 . S
C759 C761 1.356 . S
C759 H791 0.930 . S
C760 N757 1.279 . S
C760 C759 1.358 . S
C760 H763 0.930 . S
C761 C758 1.348 . S
C761 C759 1.356 . S
H762 C756 0.930 . S
H763 C760 0.930 . S
O764 Li704 1.956 1_565 S
O764 Li705 1.970 . S
O764 Li706 1.961 1_565 S
O764 C708 1.325 . S
O765 Li704 1.970 . S
O765 Li705 1.956 1_545 S
O765 Li707 1.961 . S
O765 C714 1.325 . S
O766 Li704 1.961 . S
O766 Li706 1.956 . S
O766 Li707 1.970 . S
O766 C736 1.325 . S
O767 Li705 1.961 . S
O767 Li706 1.970 1_565 S
O767 Li707 1.956 1_565 S
O767 C742 1.325 . S
H768 C710 0.929 . S
H769 C711 0.930 . S
H770 C712 0.930 . S
H771 C713 0.930 . S
H772 C715 0.930 . S
H773 C717 0.915 1_565 S
H774 C718 0.930 . S
H775 C719 0.921 1_565 S
H776 C722 0.930 1_565 S
H777 C725 0.929 . S
H778 C730 0.929 . S
H779 C731 0.930 . S
H780 C738 0.929 . S
H781 C739 0.930 . S
H782 C740 0.930 . S
H783 C741 0.930 . S
H784 C743 0.929 . S
H785 C744 0.930 . S
H786 C745 0.918 1_545 S
H787 C746 0.930 . S
H788 C750 0.929 . S
H789 C752 0.930 . S
H790 C758 0.929 . S
H791 C759 0.930 . S
Li792 N809 1.990 . S
Li792 O852 1.956 . S
Li792 O853 1.970 . S
Li792 O854 1.961 . S
Li793 N817 1.990 . S
Li793 O852 1.970 . S
Li793 O853 1.956 . S
Li793 O855 1.961 . S
Li794 N839 1.990 . S
Li794 O852 1.961 . S
Li794 O854 1.956 . S
Li794 O855 1.970 . S
Li795 N845 1.990 . S
Li795 O853 1.961 . S
Li795 O854 1.970 . S
Li795 O855 1.956 . S
C796 C798 1.348 . S
C796 C799 1.356 . S
C796 O852 1.325 . S
N797 C800 1.314 . S
N797 C801 1.279 . S
C798 C796 1.348 . S
C798 C800 1.353 . S
C798 H856 0.929 . S
C799 C796 1.356 . S
C799 C801 1.358 . S
C799 H857 0.930 . S
C800 N797 1.314 . S
C800 C798 1.353 . S
C800 H858 0.930 . S
C801 N797 1.279 . S
C801 C799 1.358 . S
C801 H859 0.930 . S
C802 C805 1.348 . S
C802 C806 1.356 . S
C802 O853 1.325 . S
C803 N804 1.279 . S
C803 C806 1.358 . S
C803 H860 0.930 . S
N804 C803 1.279 . S
N804 C807 1.314 . S
C805 C802 1.348 . S
C805 C807 1.353 . S
C805 H861 0.929 . S
C806 C802 1.356 . S
C806 C803 1.358 . S
C806 H862 0.930 . S
C807 N804 1.314 . S
C807 C805 1.353 . S
C807 H863 0.930 . S
C808 N809 1.314 . S
C808 C813 1.353 . S
C808 H814 0.930 . S
N809 Li792 1.990 . S
N809 C808 1.314 . S
N809 C811 1.279 . S
C810 C811 1.358 . S
C810 C812 1.356 . S
C810 H864 0.930 . S
C811 N809 1.279 . S
C811 C810 1.358 . S
C811 H815 0.930 . S
C812 C810 1.356 . S
C812 C813 1.348 . S
C813 C808 1.353 . S
C813 C812 1.348 . S
C813 H865 0.929 . S
H814 C808 0.930 . S
H815 C811 0.930 . S
C816 N817 1.314 . S
C816 C818 1.353 . S
C816 H822 0.930 . S
N817 Li793 1.990 . S
N817 C816 1.314 . S
N817 C820 1.279 . S
C818 C816 1.353 . S
C818 C821 1.348 . S
C818 H866 0.929 . S
C819 C820 1.358 . S
C819 C821 1.356 . S
C819 H867 0.930 . S
C820 N817 1.279 . S
C820 C819 1.358 . S
C820 H823 0.930 . S
C821 C818 1.348 . S
C821 C819 1.356 . S
H822 C816 0.930 . S
H823 C820 0.930 . S
C824 C826 1.348 . S
C824 C827 1.356 . S
C824 O854 1.325 . S
N825 C828 1.314 . S
N825 C829 1.279 . S
C826 C824 1.348 . S
C826 C828 1.353 . S
C826 H868 0.929 . S
C827 C824 1.356 . S
C827 C829 1.358 . S
C827 H869 0.930 . S
C828 N825 1.314 . S
C828 C826 1.353 . S
C828 H870 0.930 . S
C829 N825 1.279 . S
C829 C827 1.358 . S
C829 H871 0.930 . S
C830 C831 1.348 . S
C830 C832 1.356 . S
C830 O855 1.325 . S
C831 C830 1.348 . S
C831 C833 1.353 . S
C831 H872 0.929 . S
C832 C830 1.356 . S
C832 C834 1.358 . S
C832 H873 0.930 . S
C833 C831 1.353 . S
C833 N835 1.314 . S
C833 H874 0.930 . S
C834 C832 1.358 . S
C834 N835 1.279 . S
C834 H875 0.930 . S
N835 C833 1.314 . S
N835 C834 1.279 . S
C836 C838 1.353 . S
C836 N839 1.314 . S
C836 H842 0.930 . S
C837 N839 1.279 . S
C837 C840 1.358 . S
C837 H843 0.930 . S
C838 C836 1.353 . S
C838 C841 1.348 . S
C838 H876 0.929 . S
N839 Li794 1.990 . S
N839 C836 1.314 . S
N839 C837 1.279 . S
C840 C837 1.358 . S
C840 C841 1.356 . S
C840 H877 0.930 . S
C841 C838 1.348 . S
C841 C840 1.356 . S
H842 C836 0.930 . S
H843 C837 0.930 . S
C844 N845 1.314 . S
C844 C846 1.353 . S
C844 H850 0.930 . S
N845 Li795 1.990 . S
N845 C844 1.314 . S
N845 C848 1.279 . S
C846 C844 1.353 . S
C846 C849 1.348 . S
C846 H878 0.929 . S
C847 C848 1.358 . S
C847 C849 1.356 . S
C847 H879 0.930 . S
C848 N845 1.279 . S
C848 C847 1.358 . S
C848 H851 0.930 . S
C849 C846 1.348 . S
C849 C847 1.356 . S
H850 C844 0.930 . S
H851 C848 0.930 . S
O852 Li792 1.956 . S
O852 Li793 1.970 . S
O852 Li794 1.961 . S
O852 C796 1.325 . S
O853 Li792 1.970 . S
O853 Li793 1.956 . S
O853 Li795 1.961 . S
O853 C802 1.325 . S
O854 Li792 1.961 . S
O854 Li794 1.956 . S
O854 Li795 1.970 . S
O854 C824 1.325 . S
O855 Li793 1.961 . S
O855 Li794 1.970 . S
O855 Li795 1.956 . S
O855 C830 1.325 . S
H856 C798 0.929 . S
H857 C799 0.930 . S
H858 C800 0.930 . S
H859 C801 0.930 . S
H860 C803 0.930 . S
H861 C805 0.929 . S
H862 C806 0.930 . S
H863 C807 0.930 . S
H864 C810 0.930 . S
H865 C813 0.929 . S
H866 C818 0.929 . S
H867 C819 0.930 . S
H868 C826 0.929 . S
H869 C827 0.930 . S
H870 C828 0.930 . S
H871 C829 0.930 . S
H872 C831 0.929 . S
H873 C832 0.930 . S
H874 C833 0.930 . S
H875 C834 0.930 . S
H876 C838 0.929 . S
H877 C840 0.930 . S
H878 C846 0.929 . S
H879 C847 0.930 . S
Li880 N897 1.990 . S
Li880 O940 1.956 . S
Li880 O941 1.970 . S
Li880 O942 1.961 . S
Li881 N905 1.990 . S
Li881 O940 1.970 . S
Li881 O941 1.956 . S
Li881 O943 1.961 1_545 S
Li882 N927 1.990 . S
Li882 O940 1.961 1_565 S
Li882 O942 1.956 1_565 S
Li882 O943 1.970 . S
Li883 N933 1.990 1_545 S
Li883 O941 1.961 . S
Li883 O942 1.970 . S
Li883 O943 1.956 1_545 S
C884 C886 1.348 . S
C884 C887 1.356 . S
C884 O940 1.325 . S
N885 C888 1.314 . S
N885 C889 1.279 . S
C886 C884 1.348 . S
C886 C888 1.353 . S
C886 H944 0.929 . S
C887 C884 1.356 . S
C887 C889 1.358 . S
C887 H945 0.930 . S
C888 N885 1.314 . S
C888 C886 1.353 . S
C888 H946 0.930 . S
C889 N885 1.279 . S
C889 C887 1.358 . S
C889 H947 0.930 . S
C890 C893 1.348 . S
C890 C894 1.356 . S
C890 O941 1.325 . S
C891 N892 1.279 . S
C891 C894 1.358 . S
C891 H948 0.930 . S
N892 C891 1.279 . S
N892 C895 1.314 . S
C893 C890 1.348 . S
C893 C895 1.353 . S
C893 H949 0.929 . S
C894 C890 1.356 . S
C894 C891 1.358 . S
C894 H950 0.930 . S
C895 N892 1.314 . S
C895 C893 1.353 . S
C895 H951 0.930 . S
C896 N897 1.314 . S
C896 C901 1.353 . S
C896 H902 0.930 . S
N897 Li880 1.990 . S
N897 C896 1.314 . S
N897 C899 1.279 . S
C898 C899 1.358 . S
C898 C900 1.356 . S
C898 H952 0.930 . S
C899 N897 1.279 . S
C899 C898 1.358 . S
C899 H903 0.930 . S
C900 C898 1.356 . S
C900 C901 1.348 . S
C901 C896 1.353 . S
C901 C900 1.348 . S
C901 H953 0.929 . S
H902 C896 0.930 . S
H903 C899 0.930 . S
C904 N905 1.314 1_565 S
C904 C906 1.353 . S
C904 H910 0.930 . S
N905 Li881 1.990 . S
N905 C904 1.314 1_545 S
N905 C908 1.279 . S
C906 C904 1.353 . S
C906 C909 1.348 1_565 S
C906 H954 0.929 . S
C907 C908 1.358 . S
C907 C909 1.356 . S
C907 H955 0.930 . S
C908 N905 1.279 . S
C908 C907 1.358 . S
C908 H911 0.930 . S
C909 C906 1.348 1_545 S
C909 C907 1.356 . S
H910 C904 0.930 . S
H911 C908 0.930 . S
C912 C914 1.348 1_545 S
C912 C915 1.356 . S
C912 O942 1.325 . S
N913 C916 1.314 1_545 S
N913 C917 1.279 . S
C914 C912 1.348 1_565 S
C914 C916 1.353 . S
C914 H956 0.929 . S
C915 C912 1.356 . S
C915 C917 1.358 . S
C915 H957 0.930 . S
C916 N913 1.314 1_565 S
C916 C914 1.353 . S
C916 H958 0.930 . S
C917 N913 1.279 . S
C917 C915 1.358 . S
C917 H959 0.930 . S
C918 C919 1.348 . S
C918 C920 1.356 . S
C918 O943 1.325 . S
C919 C918 1.348 . S
C919 C921 1.353 . S
C919 H960 0.929 . S
C920 C918 1.356 . S
C920 C922 1.358 . S
C920 H961 0.930 . S
C921 C919 1.353 . S
C921 N923 1.314 . S
C921 H962 0.930 . S
C922 C920 1.358 . S
C922 N923 1.279 . S
C922 H963 0.930 . S
N923 C921 1.314 . S
N923 C922 1.279 . S
C924 C926 1.353 . S
C924 N927 1.314 . S
C924 H930 0.930 . S
C925 N927 1.279 . S
C925 C928 1.358 . S
C925 H931 0.930 . S
C926 C924 1.353 . S
C926 C929 1.348 . S
C926 H964 0.929 . S
N927 Li882 1.990 . S
N927 C924 1.314 . S
N927 C925 1.279 . S
C928 C925 1.358 . S
C928 C929 1.356 . S
C928 H965 0.930 . S
C929 C926 1.348 . S
C929 C928 1.356 . S
H930 C924 0.930 . S
H931 C925 0.930 . S
C932 N933 1.314 1_545 S
C932 C934 1.353 . S
C932 H938 0.930 . S
N933 Li883 1.990 1_565 S
N933 C932 1.314 1_565 S
N933 C936 1.279 . S
C934 C932 1.353 . S
C934 C937 1.348 1_545 S
C934 H966 0.929 . S
C935 C936 1.358 . S
C935 C937 1.356 . S
C935 H967 0.930 . S
C936 N933 1.279 . S
C936 C935 1.358 . S
C936 H939 0.930 . S
C937 C934 1.348 1_565 S
C937 C935 1.356 . S
H938 C932 0.930 . S
H939 C936 0.930 . S
O940 Li880 1.956 . S
O940 Li881 1.970 . S
O940 Li882 1.961 1_545 S
O940 C884 1.325 . S
O941 Li880 1.970 . S
O941 Li881 1.956 . S
O941 Li883 1.961 . S
O941 C890 1.325 . S
O942 Li880 1.961 . S
O942 Li882 1.956 1_545 S
O942 Li883 1.970 . S
O942 C912 1.325 . S
O943 Li881 1.961 1_565 S
O943 Li882 1.970 . S
O943 Li883 1.956 1_565 S
O943 C918 1.325 . S
H944 C886 0.929 . S
H945 C887 0.930 . S
H946 C888 0.930 . S
H947 C889 0.930 . S
H948 C891 0.930 . S
H949 C893 0.929 . S
H950 C894 0.930 . S
H951 C895 0.930 . S
H952 C898 0.930 . S
H953 C901 0.929 . S
H954 C906 0.929 . S
H955 C907 0.930 . S
H956 C914 0.929 . S
H957 C915 0.930 . S
H958 C916 0.930 . S
H959 C917 0.930 . S
H960 C919 0.929 . S
H961 C920 0.930 . S
H962 C921 0.930 . S
H963 C922 0.930 . S
H964 C926 0.929 . S
H965 C928 0.930 . S
H966 C934 0.929 . S
H967 C935 0.930 . S
Li968 N985 1.990 . S
Li968 O1028 1.956 . S
Li968 O1029 1.970 . S
Li968 O1030 1.961 1_554 S
Li969 N993 1.990 . S
Li969 O1028 1.970 . S
Li969 O1029 1.956 . S
Li969 O1031 1.961 . S
Li970 N1015 1.990 . S
Li970 O1028 1.961 . S
Li970 O1030 1.956 1_554 S
Li970 O1031 1.970 . S
Li971 N1021 1.990 . S
Li971 O1029 1.961 1_556 S
Li971 O1030 1.970 . S
Li971 O1031 1.956 1_556 S
C972 C974 1.348 . S
C972 C975 1.356 . S
C972 O1028 1.325 . S
N973 C976 1.314 . S
N973 C977 1.279 . S
C974 C972 1.348 . S
C974 C976 1.353 . S
C974 H1032 0.929 . S
C975 C972 1.356 . S
C975 C977 1.358 . S
C975 H1033 0.930 . S
C976 N973 1.314 . S
C976 C974 1.353 . S
C976 H1034 0.930 . S
C977 N973 1.279 . S
C977 C975 1.358 . S
C977 H1035 0.930 1_565 S
C978 C981 1.348 . S
C978 C982 1.356 1_554 S
C978 O1029 1.325 . S
C979 N980 1.279 . S
C979 C982 1.358 . S
C979 H1036 0.930 . S
N980 C979 1.279 . S
N980 C983 1.314 1_556 S
C981 C978 1.348 . S
C981 C983 1.353 . S
C981 H1037 0.929 . S
C982 C978 1.356 1_556 S
C982 C979 1.358 . S
C982 H1038 0.930 . S
C983 N980 1.314 1_554 S
C983 C981 1.353 . S
C983 H1039 0.930 . S
C984 N985 1.314 1_556 S
C984 C989 1.353 . S
C984 H990 0.930 . S
N985 Li968 1.990 . S
N985 C984 1.314 1_554 S
N985 C987 1.279 . S
C986 C987 1.358 . S
C986 C988 1.356 . S
C986 H1040 0.930 . S
C987 N985 1.279 . S
C987 C986 1.358 . S
C987 H991 0.930 . S
C988 C986 1.356 . S
C988 C989 1.348 1_554 S
C989 C984 1.353 . S
C989 C988 1.348 1_556 S
C989 H1041 0.929 . S
H990 C984 0.930 . S
H991 C987 0.930 . S
C992 N993 1.314 . S
C992 C994 1.353 . S
C992 H998 0.930 . S
N993 Li969 1.990 . S
N993 C992 1.314 . S
N993 C996 1.279 . S
C994 C992 1.353 . S
C994 C997 1.348 . S
C994 H1042 0.929 . S
C995 C996 1.358 . S
C995 C997 1.356 . S
C995 H1043 0.930 . S
C996 N993 1.279 . S
C996 C995 1.358 . S
C996 H999 0.930 . S
C997 C994 1.348 . S
C997 C995 1.356 . S
H998 C992 0.930 . S
H999 C996 0.930 . S
C1000 C1002 1.348 . S
C1000 C1003 1.356 . S
C1000 O1030 1.325 . S
N1001 C1004 1.314 . S
N1001 C1005 1.279 . S
C1002 C1000 1.348 . S
C1002 C1004 1.353 . S
C1002 H1044 0.929 . S
C1003 C1000 1.356 . S
C1003 C1005 1.358 . S
C1003 H1045 0.930 . S
C1004 N1001 1.314 . S
C1004 C1002 1.353 . S
C1004 H1046 0.930 . S
C1005 N1001 1.279 . S
C1005 C1003 1.358 . S
C1005 H1047 0.930 1_565 S
C1006 C1007 1.348 . S
C1006 C1008 1.356 . S
C1006 O1031 1.325 . S
C1007 C1006 1.348 . S
C1007 C1009 1.353 . S
C1007 H1048 0.915 1_554 S
C1008 C1006 1.356 . S
C1008 C1010 1.358 . S
C1008 H1049 0.930 . S
C1009 C1007 1.353 . S
C1009 N1011 1.323 . S
C1009 H1050 0.921 1_554 S
C1010 C1008 1.358 . S
C1010 N1011 1.279 . S
C1010 H1051 0.930 . S
N1011 C1009 1.323 . S
N1011 C1010 1.279 . S
C1012 C1014 1.353 . S
C1012 N1015 1.314 . S
C1012 H1018 0.930 . S
C1013 N1015 1.279 1_556 S
C1013 C1016 1.362 1_556 S
C1013 H1019 0.930 . S
C1014 C1012 1.353 . S
C1014 C1017 1.348 . S
C1014 H1052 0.929 . S
N1015 Li970 1.990 . S
N1015 C1012 1.314 . S
N1015 C1013 1.279 1_554 S
C1016 C1013 1.362 1_554 S
C1016 C1017 1.384 . S
C1016 H1053 0.886 1_564 S
C1017 C1014 1.348 . S
C1017 C1016 1.384 . S
H1018 C1012 0.930 . S
H1019 C1013 0.930 . S
C1020 N1021 1.314 . S
C1020 C1022 1.353 . S
C1020 H1026 0.930 . S
N1021 Li971 1.990 . S
N1021 C1020 1.314 . S
N1021 C1024 1.279 . S
C1022 C1020 1.353 . S
C1022 C1025 1.348 . S
C1022 H1054 0.929 . S
C1023 C1024 1.358 . S
C1023 C1025 1.356 . S
C1023 H1055 0.930 . S
C1024 N1021 1.279 . S
C1024 C1023 1.358 . S
C1024 H1027 0.930 . S
C1025 C1022 1.348 . S
C1025 C1023 1.356 . S
H1026 C1020 0.930 . S
H1027 C1024 0.930 . S
O1028 Li968 1.956 . S
O1028 Li969 1.970 . S
O1028 Li970 1.961 . S
O1028 C972 1.325 . S
O1029 Li968 1.970 . S
O1029 Li969 1.956 . S
O1029 Li971 1.961 1_554 S
O1029 C978 1.325 . S
O1030 Li968 1.961 1_556 S
O1030 Li970 1.956 1_556 S
O1030 Li971 1.970 . S
O1030 C1000 1.325 . S
O1031 Li969 1.961 . S
O1031 Li970 1.970 . S
O1031 Li971 1.956 1_554 S
O1031 C1006 1.325 . S
H1032 C974 0.929 . S
H1033 C975 0.930 . S
H1034 C976 0.930 . S
H1035 C977 0.930 1_545 S
H1036 C979 0.930 . S
H1037 C981 0.929 . S
H1038 C982 0.930 . S
H1039 C983 0.930 . S
H1040 C986 0.930 . S
H1041 C989 0.929 . S
H1042 C994 0.929 . S
H1043 C995 0.930 . S
H1044 C1002 0.929 . S
H1045 C1003 0.930 . S
H1046 C1004 0.930 . S
H1047 C1005 0.930 1_545 S
H1048 C1007 0.915 1_556 S
H1049 C1008 0.930 . S
H1050 C1009 0.921 1_556 S
H1051 C1010 0.930 . S
H1052 C1014 0.929 . S
H1053 C1016 0.886 1_546 S
H1054 C1022 0.929 . S
H1055 C1023 0.930 . S
Li1056 N1073 1.990 . S
Li1056 O1116 1.956 . S
Li1056 O1117 1.970 . S
Li1056 O1118 1.961 1_554 S
Li1057 N1081 1.990 . S
Li1057 O1116 1.970 . S
Li1057 O1117 1.956 . S
Li1057 O1119 1.961 . S
Li1058 N1103 1.990 . S
Li1058 O1116 1.961 . S
Li1058 O1118 1.956 1_554 S
Li1058 O1119 1.970 . S
Li1059 N1109 1.990 . S
Li1059 O1117 1.961 1_556 S
Li1059 O1118 1.970 . S
Li1059 O1119 1.956 1_556 S
C1060 C1062 1.348 . S
C1060 C1063 1.356 . S
C1060 O1116 1.325 . S
N1061 C1064 1.314 . S
N1061 C1065 1.279 . S
C1062 C1060 1.348 . S
C1062 C1064 1.353 . S
C1062 H1120 0.929 . S
C1063 C1060 1.356 . S
C1063 C1065 1.358 . S
C1063 H1121 0.930 . S
C1064 N1061 1.314 . S
C1064 C1062 1.353 . S
C1064 H1122 0.930 . S
C1065 N1061 1.279 . S
C1065 C1063 1.358 . S
C1065 H1123 0.930 . S
C1066 C1069 1.348 . S
C1066 C1070 1.356 . S
C1066 O1117 1.325 . S
C1067 N1068 1.279 . S
C1067 C1070 1.358 . S
C1067 H1124 0.930 1_554 S
N1068 C1067 1.279 . S
N1068 C1071 1.314 . S
C1069 C1066 1.348 . S
C1069 C1071 1.353 . S
C1069 H1125 0.929 . S
C1070 C1066 1.356 . S
C1070 C1067 1.358 . S
C1070 H1126 0.930 . S
C1071 N1068 1.314 . S
C1071 C1069 1.353 . S
C1071 H1127 0.930 . S
C1072 N1073 1.314 . S
C1072 C1077 1.353 . S
C1072 H1078 0.930 1_554 S
N1073 Li1056 1.990 . S
N1073 C1072 1.314 . S
N1073 C1075 1.279 . S
C1074 C1075 1.358 . S
C1074 C1076 1.356 . S
C1074 H1128 0.930 . S
C1075 N1073 1.279 . S
C1075 C1074 1.358 . S
C1075 H1079 0.930 . S
C1076 C1074 1.356 . S
C1076 C1077 1.348 . S
C1077 C1072 1.353 . S
C1077 C1076 1.348 . S
C1077 H1129 0.929 1_554 S
H1078 C1072 0.930 1_556 S
H1079 C1075 0.930 . S
C1080 N1081 1.314 . S
C1080 C1082 1.353 . S
C1080 H1086 0.930 . S
N1081 Li1057 1.990 . S
N1081 C1080 1.314 . S
N1081 C1084 1.279 . S
C1082 C1080 1.353 . S
C1082 C1085 1.348 . S
C1082 H1130 0.929 . S
C1083 C1084 1.358 . S
C1083 C1085 1.356 . S
C1083 H1131 0.930 . S
C1084 N1081 1.279 . S
C1084 C1083 1.358 . S
C1084 H1087 0.930 . S
C1085 C1082 1.348 . S
C1085 C1083 1.356 . S
H1086 C1080 0.930 . S
H1087 C1084 0.930 . S
C1088 C1090 1.348 . S
C1088 C1091 1.356 . S
C1088 O1118 1.325 . S
N1089 C1092 1.314 . S
N1089 C1093 1.279 . S
C1090 C1088 1.348 . S
C1090 C1092 1.353 . S
C1090 H1132 0.929 . S
C1091 C1088 1.356 . S
C1091 C1093 1.358 . S
C1091 H1133 0.930 . S
C1092 N1089 1.314 . S
C1092 C1090 1.353 . S
C1092 H1134 0.930 . S
C1093 N1089 1.279 . S
C1093 C1091 1.358 . S
C1093 H1135 0.930 . S
C1094 C1095 1.348 . S
C1094 C1096 1.356 . S
C1094 O1119 1.325 . S
C1095 C1094 1.348 . S
C1095 C1097 1.353 . S
C1095 H1136 0.929 . S
C1096 C1094 1.356 . S
C1096 C1098 1.358 . S
C1096 H1137 0.930 . S
C1097 C1095 1.353 . S
C1097 N1099 1.314 . S
C1097 H1138 0.930 . S
C1098 C1096 1.358 . S
C1098 N1099 1.279 . S
C1098 H1139 0.930 . S
N1099 C1097 1.314 . S
N1099 C1098 1.279 . S
C1100 C1102 1.353 . S
C1100 N1103 1.314 . S
C1100 H1106 0.930 . S
C1101 N1103 1.279 . S
C1101 C1104 1.358 . S
C1101 H1107 0.930 1_554 S
C1102 C1100 1.353 . S
C1102 C1105 1.348 . S
C1102 H1140 0.929 . S
N1103 Li1058 1.990 . S
N1103 C1100 1.314 . S
N1103 C1101 1.279 . S
C1104 C1101 1.358 . S
C1104 C1105 1.356 . S
C1104 H1141 0.930 1_554 S
C1105 C1102 1.348 . S
C1105 C1104 1.356 . S
H1106 C1100 0.930 . S
H1107 C1101 0.930 1_556 S
C1108 N1109 1.314 . S
C1108 C1110 1.353 . S
C1108 H1114 0.930 . S
N1109 Li1059 1.990 . S
N1109 C1108 1.314 . S
N1109 C1112 1.279 . S
C1110 C1108 1.353 . S
C1110 C1113 1.348 . S
C1110 H1142 0.929 . S
C1111 C1112 1.358 . S
C1111 C1113 1.356 . S
C1111 H1143 0.930 . S
C1112 N1109 1.279 . S
C1112 C1111 1.358 . S
C1112 H1115 0.930 . S
C1113 C1110 1.348 . S
C1113 C1111 1.356 . S
H1114 C1108 0.930 . S
H1115 C1112 0.930 . S
O1116 Li1056 1.956 . S
O1116 Li1057 1.970 . S
O1116 Li1058 1.961 . S
O1116 C1060 1.325 . S
O1117 Li1056 1.970 . S
O1117 Li1057 1.956 . S
O1117 Li1059 1.961 1_554 S
O1117 C1066 1.325 . S
O1118 Li1056 1.961 1_556 S
O1118 Li1058 1.956 1_556 S
O1118 Li1059 1.970 . S
O1118 C1088 1.325 . S
O1119 Li1057 1.961 . S
O1119 Li1058 1.970 . S
O1119 Li1059 1.956 1_554 S
O1119 C1094 1.325 . S
H1120 C1062 0.929 . S
H1121 C1063 0.930 . S
H1122 C1064 0.930 . S
H1123 C1065 0.930 . S
H1124 C1067 0.930 1_556 S
H1125 C1069 0.929 . S
H1126 C1070 0.930 . S
H1127 C1071 0.930 . S
H1128 C1074 0.930 . S
H1129 C1077 0.929 1_556 S
H1130 C1082 0.929 . S
H1131 C1083 0.930 . S
H1132 C1090 0.929 . S
H1133 C1091 0.930 . S
H1134 C1092 0.930 . S
H1135 C1093 0.930 . S
H1136 C1095 0.929 . S
H1137 C1096 0.930 . S
H1138 C1097 0.930 . S
H1139 C1098 0.930 . S
H1140 C1102 0.929 . S
H1141 C1104 0.930 1_556 S
H1142 C1110 0.929 . S
H1143 C1111 0.930 . S
Li1144 N1161 1.990 . S
Li1144 O1204 1.956 . S
Li1144 O1205 1.970 . S
Li1144 O1206 1.961 . S
Li1145 N1169 1.990 . S
Li1145 O1204 1.970 . S
Li1145 O1205 1.956 . S
Li1145 O1207 1.961 1_554 S
Li1146 N1191 1.990 . S
Li1146 O1204 1.961 1_556 S
Li1146 O1206 1.956 1_556 S
Li1146 O1207 1.970 . S
Li1147 N1197 1.990 . S
Li1147 O1205 1.961 . S
Li1147 O1206 1.970 . S
Li1147 O1207 1.956 1_554 S
C1148 C1150 1.348 . S
C1148 C1151 1.356 . S
C1148 O1204 1.325 . S
N1149 C1152 1.314 . S
N1149 C1153 1.279 . S
C1150 C1148 1.348 . S
C1150 C1152 1.353 . S
C1150 H1208 0.929 . S
C1151 C1148 1.356 . S
C1151 C1153 1.358 . S
C1151 H1209 0.930 . S
C1152 N1149 1.314 . S
C1152 C1150 1.353 . S
C1152 H1210 0.930 . S
C1153 N1149 1.279 . S
C1153 C1151 1.358 . S
C1153 H1211 0.930 . S
C1154 C1157 1.348 . S
C1154 C1158 1.356 . S
C1154 O1205 1.325 . S
C1155 N1156 1.279 . S
C1155 C1158 1.358 . S
C1155 H1212 0.930 . S
N1156 C1155 1.279 . S
N1156 C1159 1.314 . S
C1157 C1154 1.348 . S
C1157 C1159 1.353 . S
C1157 H1213 0.929 . S
C1158 C1154 1.356 . S
C1158 C1155 1.358 . S
C1158 H1214 0.930 . S
C1159 N1156 1.314 . S
C1159 C1157 1.353 . S
C1159 H1215 0.930 . S
C1160 N1161 1.314 . S
C1160 C1165 1.353 . S
C1160 H1166 0.930 . S
N1161 Li1144 1.990 . S
N1161 C1160 1.314 . S
N1161 C1163 1.279 . S
C1162 C1163 1.358 . S
C1162 C1164 1.356 . S
C1162 H1216 0.930 . S
C1163 N1161 1.279 . S
C1163 C1162 1.358 . S
C1163 H1167 0.930 . S
C1164 C1162 1.356 . S
C1164 C1165 1.348 . S
C1165 C1160 1.353 . S
C1165 C1164 1.348 . S
C1165 H1217 0.929 . S
H1166 C1160 0.930 . S
H1167 C1163 0.930 . S
C1168 N1169 1.314 1_556 S
C1168 C1170 1.353 . S
C1168 H1174 0.930 . S
N1169 Li1145 1.990 . S
N1169 C1168 1.314 1_554 S
N1169 C1172 1.279 . S
C1170 C1168 1.353 . S
C1170 C1173 1.348 1_556 S
C1170 H1218 0.929 . S
C1171 C1172 1.358 . S
C1171 C1173 1.356 . S
C1171 H1219 0.930 . S
C1172 N1169 1.279 . S
C1172 C1171 1.358 . S
C1172 H1175 0.930 . S
C1173 C1170 1.348 1_554 S
C1173 C1171 1.356 . S
H1174 C1168 0.930 . S
H1175 C1172 0.930 . S
C1176 C1178 1.348 . S
C1176 C1179 1.356 . S
C1176 O1206 1.325 . S
N1177 C1180 1.314 . S
N1177 C1181 1.279 . S
C1178 C1176 1.348 . S
C1178 C1180 1.353 . S
C1178 H1220 0.929 . S
C1179 C1176 1.356 . S
C1179 C1181 1.358 . S
C1179 H1221 0.930 . S
C1180 N1177 1.314 . S
C1180 C1178 1.353 . S
C1180 H1222 0.930 . S
C1181 N1177 1.279 . S
C1181 C1179 1.358 . S
C1181 H1223 0.930 . S
C1182 C1183 1.348 . S
C1182 C1184 1.356 . S
C1182 O1207 1.325 . S
C1183 C1182 1.348 . S
C1183 C1185 1.353 . S
C1183 H1224 0.929 . S
C1184 C1182 1.356 . S
C1184 C1186 1.358 . S
C1184 H1225 0.930 . S
C1185 C1183 1.353 . S
C1185 N1187 1.314 . S
C1185 H1226 0.930 . S
C1186 C1184 1.358 . S
C1186 N1187 1.279 . S
C1186 H1227 0.930 . S
N1187 C1185 1.314 . S
N1187 C1186 1.279 . S
C1188 C1190 1.353 . S
C1188 N1191 1.314 . S
C1188 H1194 0.930 . S
C1189 N1191 1.279 . S
C1189 C1192 1.358 . S
C1189 H1195 0.930 . S
C1190 C1188 1.353 . S
C1190 C1193 1.348 . S
C1190 H1228 0.929 . S
N1191 Li1146 1.990 . S
N1191 C1188 1.314 . S
N1191 C1189 1.279 . S
C1192 C1189 1.358 . S
C1192 C1193 1.356 . S
C1192 H1229 0.930 . S
C1193 C1190 1.348 . S
C1193 C1192 1.356 . S
H1194 C1188 0.930 . S
H1195 C1189 0.930 . S
C1196 N1197 1.314 . S
C1196 C1198 1.353 . S
C1196 H1202 0.930 . S
N1197 Li1147 1.990 . S
N1197 C1196 1.314 . S
N1197 C1200 1.279 1_554 S
C1198 C1196 1.353 . S
C1198 C1201 1.348 . S
C1198 H1230 0.929 . S
C1199 C1200 1.358 . S
C1199 C1201 1.356 1_556 S
C1199 H1231 0.930 . S
C1200 N1197 1.279 1_556 S
C1200 C1199 1.358 . S
C1200 H1203 0.930 . S
C1201 C1198 1.348 . S
C1201 C1199 1.356 1_554 S
H1202 C1196 0.930 . S
H1203 C1200 0.930 . S
O1204 Li1144 1.956 . S
O1204 Li1145 1.970 . S
O1204 Li1146 1.961 1_554 S
O1204 C1148 1.325 . S
O1205 Li1144 1.970 . S
O1205 Li1145 1.956 . S
O1205 Li1147 1.961 . S
O1205 C1154 1.325 . S
O1206 Li1144 1.961 . S
O1206 Li1146 1.956 1_554 S
O1206 Li1147 1.970 . S
O1206 C1176 1.325 . S
O1207 Li1145 1.961 1_556 S
O1207 Li1146 1.970 . S
O1207 Li1147 1.956 1_556 S
O1207 C1182 1.325 . S
H1208 C1150 0.929 . S
H1209 C1151 0.930 . S
H1210 C1152 0.930 . S
H1211 C1153 0.930 . S
H1212 C1155 0.930 . S
H1213 C1157 0.929 . S
H1214 C1158 0.930 . S
H1215 C1159 0.930 . S
H1216 C1162 0.930 . S
H1217 C1165 0.929 . S
H1218 C1170 0.929 . S
H1219 C1171 0.930 . S
H1220 C1178 0.929 . S
H1221 C1179 0.930 . S
H1222 C1180 0.930 . S
H1223 C1181 0.930 . S
H1224 C1183 0.929 . S
H1225 C1184 0.930 . S
H1226 C1185 0.930 . S
H1227 C1186 0.930 . S
H1228 C1190 0.929 . S
H1229 C1192 0.930 . S
H1230 C1198 0.929 . S
H1231 C1199 0.930 . S
Li1232 N1249 1.990 . S
Li1232 O1292 1.956 . S
Li1232 O1293 1.970 . S
Li1232 O1294 1.961 . S
Li1233 N1257 1.990 . S
Li1233 O1292 1.970 . S
Li1233 O1293 1.956 . S
Li1233 O1295 1.961 . S
Li1234 N1279 1.990 . S
Li1234 O1292 1.961 . S
Li1234 O1294 1.956 . S
Li1234 O1295 1.970 . S
Li1235 N1285 1.990 . S
Li1235 O1293 1.961 . S
Li1235 O1294 1.970 . S
Li1235 O1295 1.956 . S
C1236 C1238 1.348 . S
C1236 C1239 1.356 . S
C1236 O1292 1.325 . S
N1237 C1240 1.314 . S
N1237 C1241 1.279 . S
C1238 C1236 1.348 . S
C1238 C1240 1.353 . S
C1238 H1296 0.929 . S
C1239 C1236 1.356 . S
C1239 C1241 1.358 . S
C1239 H1297 0.930 . S
C1240 N1237 1.314 . S
C1240 C1238 1.353 . S
C1240 H1298 0.930 . S
C1241 N1237 1.279 . S
C1241 C1239 1.358 . S
C1241 H1299 0.930 . S
C1242 C1245 1.348 . S
C1242 C1246 1.356 . S
C1242 O1293 1.325 . S
C1243 N1244 1.279 . S
C1243 C1246 1.358 . S
C1243 H1300 0.930 . S
N1244 C1243 1.279 . S
N1244 C1247 1.314 . S
C1245 C1242 1.348 . S
C1245 C1247 1.353 . S
C1245 H1301 0.929 . S
C1246 C1242 1.356 . S
C1246 C1243 1.358 . S
C1246 H1302 0.930 . S
C1247 N1244 1.314 . S
C1247 C1245 1.353 . S
C1247 H1303 0.930 . S
C1248 N1249 1.314 . S
C1248 C1253 1.353 . S
C1248 H1254 0.930 . S
N1249 Li1232 1.990 . S
N1249 C1248 1.314 . S
N1249 C1251 1.279 . S
C1250 C1251 1.358 . S
C1250 C1252 1.356 . S
C1250 H1304 0.930 . S
C1251 N1249 1.279 . S
C1251 C1250 1.358 . S
C1251 H1255 0.930 . S
C1252 C1250 1.356 . S
C1252 C1253 1.348 . S
C1253 C1248 1.353 . S
C1253 C1252 1.348 . S
C1253 H1305 0.929 . S
H1254 C1248 0.930 . S
H1255 C1251 0.930 . S
C1256 N1257 1.314 . S
C1256 C1258 1.353 . S
C1256 H1262 0.930 . S
N1257 Li1233 1.990 . S
N1257 C1256 1.314 . S
N1257 C1260 1.279 . S
C1258 C1256 1.353 . S
C1258 C1261 1.348 . S
C1258 H1306 0.929 . S
C1259 C1260 1.358 . S
C1259 C1261 1.356 . S
C1259 H1307 0.930 . S
C1260 N1257 1.279 . S
C1260 C1259 1.358 . S
C1260 H1263 0.930 . S
C1261 C1258 1.348 . S
C1261 C1259 1.356 . S
H1262 C1256 0.930 . S
H1263 C1260 0.930 . S
C1264 C1266 1.348 . S
C1264 C1267 1.356 . S
C1264 O1294 1.325 . S
N1265 C1268 1.314 . S
N1265 C1269 1.279 . S
C1266 C1264 1.348 . S
C1266 C1268 1.353 . S
C1266 H1308 0.929 . S
C1267 C1264 1.356 . S
C1267 C1269 1.358 . S
C1267 H1309 0.930 . S
C1268 N1265 1.314 . S
C1268 C1266 1.353 . S
C1268 H1310 0.930 . S
C1269 N1265 1.279 . S
C1269 C1267 1.358 . S
C1269 H1311 0.930 . S
C1270 C1271 1.348 . S
C1270 C1272 1.356 . S
C1270 O1295 1.325 . S
C1271 C1270 1.348 . S
C1271 C1273 1.353 . S
C1271 H1312 0.929 . S
C1272 C1270 1.356 . S
C1272 C1274 1.358 . S
C1272 H1313 0.930 . S
C1273 C1271 1.353 . S
C1273 N1275 1.314 . S
C1273 H1314 0.930 . S
C1274 C1272 1.358 . S
C1274 N1275 1.279 . S
C1274 H1315 0.930 . S
N1275 C1273 1.314 . S
N1275 C1274 1.279 . S
C1276 C1278 1.353 . S
C1276 N1279 1.314 . S
C1276 H1282 0.930 . S
C1277 N1279 1.279 . S
C1277 C1280 1.358 . S
C1277 H1283 0.930 . S
C1278 C1276 1.353 . S
C1278 C1281 1.348 . S
C1278 H1316 0.929 . S
N1279 Li1234 1.990 . S
N1279 C1276 1.314 . S
N1279 C1277 1.279 . S
C1280 C1277 1.358 . S
C1280 C1281 1.356 . S
C1280 H1317 0.930 . S
C1281 C1278 1.348 . S
C1281 C1280 1.356 . S
H1282 C1276 0.930 . S
H1283 C1277 0.930 . S
C1284 N1285 1.314 . S
C1284 C1286 1.353 . S
C1284 H1290 0.930 . S
N1285 Li1235 1.990 . S
N1285 C1284 1.314 . S
N1285 C1288 1.279 . S
C1286 C1284 1.353 . S
C1286 C1289 1.348 . S
C1286 H1318 0.929 . S
C1287 C1288 1.358 . S
C1287 C1289 1.356 . S
C1287 H1319 0.930 . S
C1288 N1285 1.279 . S
C1288 C1287 1.358 . S
C1288 H1291 0.930 . S
C1289 C1286 1.348 . S
C1289 C1287 1.356 . S
H1290 C1284 0.930 . S
H1291 C1288 0.930 . S
O1292 Li1232 1.956 . S
O1292 Li1233 1.970 . S
O1292 Li1234 1.961 . S
O1292 C1236 1.325 . S
O1293 Li1232 1.970 . S
O1293 Li1233 1.956 . S
O1293 Li1235 1.961 . S
O1293 C1242 1.325 . S
O1294 Li1232 1.961 . S
O1294 Li1234 1.956 . S
O1294 Li1235 1.970 . S
O1294 C1264 1.325 . S
O1295 Li1233 1.961 . S
O1295 Li1234 1.970 . S
O1295 Li1235 1.956 . S
O1295 C1270 1.325 . S
H1296 C1238 0.929 . S
H1297 C1239 0.930 . S
H1298 C1240 0.930 . S
H1299 C1241 0.930 . S
H1300 C1243 0.930 . S
H1301 C1245 0.929 . S
H1302 C1246 0.930 . S
H1303 C1247 0.930 . S
H1304 C1250 0.930 . S
H1305 C1253 0.929 . S
H1306 C1258 0.929 . S
H1307 C1259 0.930 . S
H1308 C1266 0.929 . S
H1309 C1267 0.930 . S
H1310 C1268 0.930 . S
H1311 C1269 0.930 . S
H1312 C1271 0.929 . S
H1313 C1272 0.930 . S
H1314 C1273 0.930 . S
H1315 C1274 0.930 . S
H1316 C1278 0.929 . S
H1317 C1280 0.930 . S
H1318 C1286 0.929 . S
H1319 C1287 0.930 . S
Li1320 N1337 1.990 . S
Li1320 O1380 1.956 . S
Li1320 O1381 1.970 . S
Li1320 O1382 1.961 . S
Li1321 N1345 1.990 . S
Li1321 O1380 1.970 . S
Li1321 O1381 1.956 . S
Li1321 O1383 1.961 . S
Li1322 N1367 1.990 . S
Li1322 O1380 1.961 . S
Li1322 O1382 1.956 . S
Li1322 O1383 1.970 . S
Li1323 N1373 1.990 . S
Li1323 O1381 1.961 . S
Li1323 O1382 1.970 . S
Li1323 O1383 1.956 . S
C1324 C1326 1.348 . S
C1324 C1327 1.356 . S
C1324 O1380 1.325 . S
N1325 C1328 1.314 . S
N1325 C1329 1.279 . S
C1326 C1324 1.348 . S
C1326 C1328 1.353 . S
C1326 H1384 0.929 . S
C1327 C1324 1.356 . S
C1327 C1329 1.358 . S
C1327 H1385 0.930 . S
C1328 N1325 1.314 . S
C1328 C1326 1.353 . S
C1328 H1386 0.930 . S
C1329 N1325 1.279 . S
C1329 C1327 1.358 . S
C1329 H1387 0.930 . S
C1330 C1333 1.348 . S
C1330 C1334 1.356 . S
C1330 O1381 1.325 . S
C1331 N1332 1.279 . S
C1331 C1334 1.358 . S
C1331 H1388 0.930 . S
N1332 C1331 1.279 . S
N1332 C1335 1.314 . S
C1333 C1330 1.348 . S
C1333 C1335 1.353 . S
C1333 H1389 0.929 . S
C1334 C1330 1.356 . S
C1334 C1331 1.358 . S
C1334 H1390 0.930 . S
C1335 N1332 1.314 . S
C1335 C1333 1.353 . S
C1335 H1391 0.930 . S
C1336 N1337 1.314 . S
C1336 C1341 1.353 . S
C1336 H1342 0.930 . S
N1337 Li1320 1.990 . S
N1337 C1336 1.314 . S
N1337 C1339 1.279 . S
C1338 C1339 1.358 . S
C1338 C1340 1.356 . S
C1338 H1392 0.930 . S
C1339 N1337 1.279 . S
C1339 C1338 1.358 . S
C1339 H1343 0.930 . S
C1340 C1338 1.356 . S
C1340 C1341 1.348 . S
C1341 C1336 1.353 . S
C1341 C1340 1.348 . S
C1341 H1393 0.929 . S
H1342 C1336 0.930 . S
H1343 C1339 0.930 . S
C1344 N1345 1.314 . S
C1344 C1346 1.353 . S
C1344 H1350 0.930 . S
N1345 Li1321 1.990 . S
N1345 C1344 1.314 . S
N1345 C1348 1.279 . S
C1346 C1344 1.353 . S
C1346 C1349 1.348 . S
C1346 H1394 0.929 . S
C1347 C1348 1.358 . S
C1347 C1349 1.356 . S
C1347 H1395 0.930 . S
C1348 N1345 1.279 . S
C1348 C1347 1.358 . S
C1348 H1351 0.930 . S
C1349 C1346 1.348 . S
C1349 C1347 1.356 . S
H1350 C1344 0.930 . S
H1351 C1348 0.930 . S
C1352 C1354 1.348 . S
C1352 C1355 1.356 . S
C1352 O1382 1.325 . S
N1353 C1356 1.314 . S
N1353 C1357 1.279 . S
C1354 C1352 1.348 . S
C1354 C1356 1.353 . S
C1354 H1396 0.929 . S
C1355 C1352 1.356 . S
C1355 C1357 1.358 . S
C1355 H1397 0.930 . S
C1356 N1353 1.314 . S
C1356 C1354 1.353 . S
C1356 H1398 0.930 . S
C1357 N1353 1.279 . S
C1357 C1355 1.358 . S
C1357 H1399 0.930 . S
C1358 C1359 1.348 . S
C1358 C1360 1.356 . S
C1358 O1383 1.325 . S
C1359 C1358 1.348 . S
C1359 C1361 1.353 . S
C1359 H1400 0.929 . S
C1360 C1358 1.356 . S
C1360 C1362 1.358 . S
C1360 H1401 0.930 . S
C1361 C1359 1.353 . S
C1361 N1363 1.314 . S
C1361 H1402 0.930 . S
C1362 C1360 1.358 . S
C1362 N1363 1.279 . S
C1362 H1403 0.930 . S
N1363 C1361 1.314 . S
N1363 C1362 1.279 . S
C1364 C1366 1.353 . S
C1364 N1367 1.314 . S
C1364 H1370 0.930 . S
C1365 N1367 1.279 . S
C1365 C1368 1.358 . S
C1365 H1371 0.930 . S
C1366 C1364 1.353 . S
C1366 C1369 1.348 . S
C1366 H1404 0.929 . S
N1367 Li1322 1.990 . S
N1367 C1364 1.314 . S
N1367 C1365 1.279 . S
C1368 C1365 1.358 . S
C1368 C1369 1.356 . S
C1368 H1405 0.930 . S
C1369 C1366 1.348 . S
C1369 C1368 1.356 . S
H1370 C1364 0.930 . S
H1371 C1365 0.930 . S
C1372 N1373 1.314 . S
C1372 C1374 1.353 . S
C1372 H1378 0.930 . S
N1373 Li1323 1.990 . S
N1373 C1372 1.314 . S
N1373 C1376 1.279 . S
C1374 C1372 1.353 . S
C1374 C1377 1.348 . S
C1374 H1406 0.929 . S
C1375 C1376 1.358 . S
C1375 C1377 1.356 . S
C1375 H1407 0.930 . S
C1376 N1373 1.279 . S
C1376 C1375 1.358 . S
C1376 H1379 0.930 . S
C1377 C1374 1.348 . S
C1377 C1375 1.356 . S
H1378 C1372 0.930 . S
H1379 C1376 0.930 . S
O1380 Li1320 1.956 . S
O1380 Li1321 1.970 . S
O1380 Li1322 1.961 . S
O1380 C1324 1.325 . S
O1381 Li1320 1.970 . S
O1381 Li1321 1.956 . S
O1381 Li1323 1.961 . S
O1381 C1330 1.325 . S
O1382 Li1320 1.961 . S
O1382 Li1322 1.956 . S
O1382 Li1323 1.970 . S
O1382 C1352 1.325 . S
O1383 Li1321 1.961 . S
O1383 Li1322 1.970 . S
O1383 Li1323 1.956 . S
O1383 C1358 1.325 . S
H1384 C1326 0.929 . S
H1385 C1327 0.930 . S
H1386 C1328 0.930 . S
H1387 C1329 0.930 . S
H1388 C1331 0.930 . S
H1389 C1333 0.929 . S
H1390 C1334 0.930 . S
H1391 C1335 0.930 . S
H1392 C1338 0.930 . S
H1393 C1341 0.929 . S
H1394 C1346 0.929 . S
H1395 C1347 0.930 . S
H1396 C1354 0.929 . S
H1397 C1355 0.930 . S
H1398 C1356 0.930 . S
H1399 C1357 0.930 . S
H1400 C1359 0.929 . S
H1401 C1360 0.930 . S
H1402 C1361 0.930 . S
H1403 C1362 0.930 . S
H1404 C1366 0.929 . S
H1405 C1368 0.930 . S
H1406 C1374 0.929 . S
H1407 C1375 0.930 . S
Li1408 N1425 1.990 . S
Li1408 O1468 1.956 . S
Li1408 O1469 1.970 . S
Li1408 O1470 1.961 . S
Li1409 N1433 1.990 . S
Li1409 O1468 1.970 . S
Li1409 O1469 1.956 . S
Li1409 O1471 1.961 . S
Li1410 N1455 1.990 . S
Li1410 O1468 1.961 . S
Li1410 O1470 1.956 . S
Li1410 O1471 1.970 . S
Li1411 N1461 1.990 . S
Li1411 O1469 1.961 . S
Li1411 O1470 1.970 . S
Li1411 O1471 1.956 . S
C1412 C1414 1.345 . S
C1412 C1415 1.356 . S
C1412 O1468 1.325 . S
N1413 C1416 1.314 . S
N1413 C1417 1.279 1_565 S
C1414 C1412 1.345 . S
C1414 C1416 1.355 1_545 S
C1414 H1472 0.930 1_545 S
C1415 C1412 1.356 . S
C1415 C1417 1.358 . S
C1415 H1473 0.930 . S
C1416 N1413 1.314 . S
C1416 C1414 1.355 1_565 S
C1416 H1474 0.930 . S
C1417 N1413 1.279 1_545 S
C1417 C1415 1.358 . S
C1417 H1475 0.930 . S
C1418 C1421 1.348 . S
C1418 C1422 1.356 . S
C1418 O1469 1.325 . S
C1419 N1420 1.279 . S
C1419 C1422 1.358 . S
C1419 H1476 0.930 . S
N1420 C1419 1.279 . S
N1420 C1423 1.314 . S
C1421 C1418 1.348 . S
C1421 C1423 1.353 . S
C1421 H1477 0.929 . S
C1422 C1418 1.356 . S
C1422 C1419 1.358 . S
C1422 H1478 0.930 . S
C1423 N1420 1.314 . S
C1423 C1421 1.353 . S
C1423 H1479 0.930 . S
C1424 N1425 1.314 . S
C1424 C1429 1.353 . S
C1424 H1430 0.930 . S
N1425 Li1408 1.990 . S
N1425 C1424 1.314 . S
N1425 C1427 1.279 . S
C1426 C1427 1.358 . S
C1426 C1428 1.356 . S
C1426 H1480 0.930 . S
C1427 N1425 1.279 . S
C1427 C1426 1.358 . S
C1427 H1431 0.930 . S
C1428 C1426 1.356 . S
C1428 C1429 1.348 . S
C1429 C1424 1.353 . S
C1429 C1428 1.348 . S
C1429 H1481 0.929 . S
H1430 C1424 0.930 . S
H1431 C1427 0.930 . S
C1432 N1433 1.314 1_565 S
C1432 C1434 1.353 . S
C1432 H1438 0.930 . S
N1433 Li1409 1.990 . S
N1433 C1432 1.314 1_545 S
N1433 C1436 1.279 1_545 S
C1434 C1432 1.353 . S
C1434 C1437 1.348 . S
C1434 H1482 0.929 . S
C1435 C1436 1.358 . S
C1435 C1437 1.356 . S
C1435 H1483 0.930 . S
C1436 N1433 1.279 1_565 S
C1436 C1435 1.358 . S
C1436 H1439 0.930 1_565 S
C1437 C1434 1.348 . S
C1437 C1435 1.356 . S
H1438 C1432 0.930 . S
H1439 C1436 0.930 1_545 S
C1440 C1442 1.348 . S
C1440 C1443 1.356 . S
C1440 O1470 1.325 . S
N1441 C1444 1.314 . S
N1441 C1445 1.279 . S
C1442 C1440 1.348 . S
C1442 C1444 1.353 . S
C1442 H1484 0.929 . S
C1443 C1440 1.356 . S
C1443 C1445 1.358 . S
C1443 H1485 0.930 . S
C1444 N1441 1.314 . S
C1444 C1442 1.353 . S
C1444 H1486 0.930 . S
C1445 N1441 1.279 . S
C1445 C1443 1.358 . S
C1445 H1487 0.930 1_655 S
C1446 C1447 1.348 . S
C1446 C1448 1.356 . S
C1446 O1471 1.325 . S
C1447 C1446 1.348 . S
C1447 C1449 1.353 . S
C1447 H1488 0.929 . S
C1448 C1446 1.356 . S
C1448 C1450 1.358 . S
C1448 H1489 0.930 . S
C1449 C1447 1.353 . S
C1449 N1451 1.314 . S
C1449 H1490 0.930 . S
C1450 C1448 1.358 . S
C1450 N1451 1.279 . S
C1450 H1491 0.930 . S
N1451 C1449 1.314 . S
N1451 C1450 1.279 . S
C1452 C1454 1.353 . S
C1452 N1455 1.314 . S
C1452 H1458 0.930 . S
C1453 N1455 1.279 . S
C1453 C1456 1.358 . S
C1453 H1459 0.930 . S
C1454 C1452 1.353 . S
C1454 C1457 1.348 . S
C1454 H1492 0.929 . S
N1455 Li1410 1.990 . S
N1455 C1452 1.314 . S
N1455 C1453 1.279 . S
C1456 C1453 1.358 . S
C1456 C1457 1.356 . S
C1456 H1493 0.930 . S
C1457 C1454 1.348 . S
C1457 C1456 1.356 . S
H1458 C1452 0.930 . S
H1459 C1453 0.930 . S
C1460 N1461 1.314 . S
C1460 C1462 1.353 . S
C1460 H1466 0.930 . S
N1461 Li1411 1.990 . S
N1461 C1460 1.314 . S
N1461 C1464 1.279 . S
C1462 C1460 1.353 . S
C1462 C1465 1.348 . S
C1462 H1494 0.929 . S
C1463 C1464 1.358 . S
C1463 C1465 1.356 . S
C1463 H1495 0.930 . S
C1464 N1461 1.279 . S
C1464 C1463 1.358 . S
C1464 H1467 0.930 . S
C1465 C1462 1.348 . S
C1465 C1463 1.356 . S
H1466 C1460 0.930 . S
H1467 C1464 0.930 . S
O1468 Li1408 1.956 . S
O1468 Li1409 1.970 . S
O1468 Li1410 1.961 . S
O1468 C1412 1.325 . S
O1469 Li1408 1.970 . S
O1469 Li1409 1.956 . S
O1469 Li1411 1.961 . S
O1469 C1418 1.325 . S
O1470 Li1408 1.961 . S
O1470 Li1410 1.956 . S
O1470 Li1411 1.970 . S
O1470 C1440 1.325 . S
O1471 Li1409 1.961 . S
O1471 Li1410 1.970 . S
O1471 Li1411 1.956 . S
O1471 C1446 1.325 . S
H1472 C1414 0.930 1_565 S
H1473 C1415 0.930 . S
H1474 C1416 0.930 . S
H1475 C1417 0.930 . S
H1476 C1419 0.930 . S
H1477 C1421 0.929 . S
H1478 C1422 0.930 . S
H1479 C1423 0.930 . S
H1480 C1426 0.930 . S
H1481 C1429 0.929 . S
H1482 C1434 0.929 . S
H1483 C1435 0.930 . S
H1484 C1442 0.929 . S
H1485 C1443 0.930 . S
H1486 C1444 0.930 . S
H1487 C1445 0.930 1_455 S
H1488 C1447 0.929 . S
H1489 C1448 0.930 . S
H1490 C1449 0.930 . S
H1491 C1450 0.930 . S
H1492 C1454 0.929 . S
H1493 C1456 0.930 . S
H1494 C1462 0.929 . S
H1495 C1463 0.930 . S
Li1496 N1513 1.990 . S
Li1496 O1556 1.956 . S
Li1496 O1557 1.970 . S
Li1496 O1558 1.961 . S
Li1497 N1521 1.990 . S
Li1497 O1556 1.970 . S
Li1497 O1557 1.956 . S
Li1497 O1559 1.961 . S
Li1498 N1543 1.990 . S
Li1498 O1556 1.961 . S
Li1498 O1558 1.956 . S
Li1498 O1559 1.970 . S
Li1499 N1549 1.990 . S
Li1499 O1557 1.961 . S
Li1499 O1558 1.970 . S
Li1499 O1559 1.956 . S
C1500 C1502 1.348 . S
C1500 C1503 1.356 . S
C1500 O1556 1.325 . S
N1501 C1504 1.314 . S
N1501 C1505 1.279 . S
C1502 C1500 1.348 . S
C1502 C1504 1.353 . S
C1502 H1560 0.929 . S
C1503 C1500 1.356 . S
C1503 C1505 1.358 . S
C1503 H1561 0.930 . S
C1504 N1501 1.314 . S
C1504 C1502 1.353 . S
C1504 H1562 0.930 . S
C1505 N1501 1.279 . S
C1505 C1503 1.358 . S
C1505 H1563 0.930 . S
C1506 C1509 1.348 . S
C1506 C1510 1.356 . S
C1506 O1557 1.325 . S
C1507 N1508 1.279 . S
C1507 C1510 1.358 . S
C1507 H1564 0.930 . S
N1508 C1507 1.279 . S
N1508 C1511 1.314 . S
C1509 C1506 1.348 . S
C1509 C1511 1.353 . S
C1509 H1565 0.929 . S
C1510 C1506 1.356 . S
C1510 C1507 1.358 . S
C1510 H1566 0.930 . S
C1511 N1508 1.314 . S
C1511 C1509 1.353 . S
C1511 H1567 0.930 . S
C1512 N1513 1.314 . S
C1512 C1517 1.353 . S
C1512 H1518 0.930 . S
N1513 Li1496 1.990 . S
N1513 C1512 1.314 . S
N1513 C1515 1.279 . S
C1514 C1515 1.358 . S
C1514 C1516 1.356 . S
C1514 H1568 0.930 . S
C1515 N1513 1.279 . S
C1515 C1514 1.358 . S
C1515 H1519 0.930 . S
C1516 C1514 1.356 . S
C1516 C1517 1.348 . S
C1517 C1512 1.353 . S
C1517 C1516 1.348 . S
C1517 H1569 0.929 . S
H1518 C1512 0.930 . S
H1519 C1515 0.930 . S
C1520 N1521 1.314 . S
C1520 C1522 1.353 . S
C1520 H1526 0.930 . S
N1521 Li1497 1.990 . S
N1521 C1520 1.314 . S
N1521 C1524 1.279 . S
C1522 C1520 1.353 . S
C1522 C1525 1.348 . S
C1522 H1570 0.929 . S
C1523 C1524 1.358 . S
C1523 C1525 1.356 . S
C1523 H1571 0.930 . S
C1524 N1521 1.279 . S
C1524 C1523 1.358 . S
C1524 H1527 0.930 . S
C1525 C1522 1.348 . S
C1525 C1523 1.356 . S
H1526 C1520 0.930 . S
H1527 C1524 0.930 . S
C1528 C1530 1.348 . S
C1528 C1531 1.356 . S
C1528 O1558 1.325 . S
N1529 C1532 1.314 . S
N1529 C1533 1.279 . S
C1530 C1528 1.348 . S
C1530 C1532 1.353 . S
C1530 H1572 0.929 . S
C1531 C1528 1.356 . S
C1531 C1533 1.358 . S
C1531 H1573 0.930 . S
C1532 N1529 1.314 . S
C1532 C1530 1.353 . S
C1532 H1574 0.930 . S
C1533 N1529 1.279 . S
C1533 C1531 1.358 . S
C1533 H1575 0.930 . S
C1534 C1535 1.348 . S
C1534 C1536 1.356 . S
C1534 O1559 1.325 . S
C1535 C1534 1.348 . S
C1535 C1537 1.353 . S
C1535 H1576 0.929 . S
C1536 C1534 1.356 . S
C1536 C1538 1.358 . S
C1536 H1577 0.930 . S
C1537 C1535 1.353 . S
C1537 N1539 1.314 . S
C1537 H1578 0.930 . S
C1538 C1536 1.358 . S
C1538 N1539 1.279 . S
C1538 H1579 0.930 . S
N1539 C1537 1.314 . S
N1539 C1538 1.279 . S
C1540 C1542 1.353 . S
C1540 N1543 1.314 . S
C1540 H1546 0.930 . S
C1541 N1543 1.279 . S
C1541 C1544 1.358 . S
C1541 H1547 0.930 . S
C1542 C1540 1.353 . S
C1542 C1545 1.348 . S
C1542 H1580 0.929 . S
N1543 Li1498 1.990 . S
N1543 C1540 1.314 . S
N1543 C1541 1.279 . S
C1544 C1541 1.358 . S
C1544 C1545 1.356 . S
C1544 H1581 0.930 . S
C1545 C1542 1.348 . S
C1545 C1544 1.356 . S
H1546 C1540 0.930 . S
H1547 C1541 0.930 . S
C1548 N1549 1.314 . S
C1548 C1550 1.353 . S
C1548 H1554 0.930 . S
N1549 Li1499 1.990 . S
N1549 C1548 1.314 . S
N1549 C1552 1.279 . S
C1550 C1548 1.353 . S
C1550 C1553 1.348 . S
C1550 H1582 0.929 . S
C1551 C1552 1.358 . S
C1551 C1553 1.356 . S
C1551 H1583 0.930 . S
C1552 N1549 1.279 . S
C1552 C1551 1.358 . S
C1552 H1555 0.930 . S
C1553 C1550 1.348 . S
C1553 C1551 1.356 . S
H1554 C1548 0.930 . S
H1555 C1552 0.930 . S
O1556 Li1496 1.956 . S
O1556 Li1497 1.970 . S
O1556 Li1498 1.961 . S
O1556 C1500 1.325 . S
O1557 Li1496 1.970 . S
O1557 Li1497 1.956 . S
O1557 Li1499 1.961 . S
O1557 C1506 1.325 . S
O1558 Li1496 1.961 . S
O1558 Li1498 1.956 . S
O1558 Li1499 1.970 . S
O1558 C1528 1.325 . S
O1559 Li1497 1.961 . S
O1559 Li1498 1.970 . S
O1559 Li1499 1.956 . S
O1559 C1534 1.325 . S
H1560 C1502 0.929 . S
H1561 C1503 0.930 . S
H1562 C1504 0.930 . S
H1563 C1505 0.930 . S
H1564 C1507 0.930 . S
H1565 C1509 0.929 . S
H1566 C1510 0.930 . S
H1567 C1511 0.930 . S
H1568 C1514 0.930 . S
H1569 C1517 0.929 . S
H1570 C1522 0.929 . S
H1571 C1523 0.930 . S
H1572 C1530 0.929 . S
H1573 C1531 0.930 . S
H1574 C1532 0.930 . S
H1575 C1533 0.930 . S
H1576 C1535 0.929 . S
H1577 C1536 0.930 . S
H1578 C1537 0.930 . S
H1579 C1538 0.930 . S
H1580 C1542 0.929 . S
H1581 C1544 0.930 . S
H1582 C1550 0.929 . S
H1583 C1551 0.930 . S
Li1584 N1601 1.990 . S
Li1584 O1644 1.956 . S
Li1584 O1645 1.970 . S
Li1584 O1646 1.961 . S
Li1585 N1609 1.990 . S
Li1585 O1644 1.970 . S
Li1585 O1645 1.956 . S
Li1585 O1647 1.961 . S
Li1586 N1631 1.990 . S
Li1586 O1644 1.961 . S
Li1586 O1646 1.956 . S
Li1586 O1647 1.970 . S
Li1587 N1637 1.990 . S
Li1587 O1645 1.961 . S
Li1587 O1646 1.970 . S
Li1587 O1647 1.956 . S
C1588 C1590 1.348 . S
C1588 C1591 1.356 . S
C1588 O1644 1.325 . S
N1589 C1592 1.314 . S
N1589 C1593 1.279 . S
C1590 C1588 1.348 . S
C1590 C1592 1.353 . S
C1590 H1648 0.929 . S
C1591 C1588 1.356 . S
C1591 C1593 1.358 . S
C1591 H1649 0.930 . S
C1592 N1589 1.314 . S
C1592 C1590 1.353 . S
C1592 H1650 0.930 . S
C1593 N1589 1.279 . S
C1593 C1591 1.358 . S
C1593 H1651 0.930 . S
C1594 C1597 1.348 . S
C1594 C1598 1.356 . S
C1594 O1645 1.325 . S
C1595 N1596 1.279 . S
C1595 C1598 1.358 . S
C1595 H1652 0.930 . S
N1596 C1595 1.279 . S
N1596 C1599 1.314 . S
C1597 C1594 1.348 . S
C1597 C1599 1.353 . S
C1597 H1653 0.929 . S
C1598 C1594 1.356 . S
C1598 C1595 1.358 . S
C1598 H1654 0.930 . S
C1599 N1596 1.314 . S
C1599 C1597 1.353 . S
C1599 H1655 0.930 . S
C1600 N1601 1.314 . S
C1600 C1605 1.353 . S
C1600 H1606 0.930 . S
N1601 Li1584 1.990 . S
N1601 C1600 1.314 . S
N1601 C1603 1.279 . S
C1602 C1603 1.358 . S
C1602 C1604 1.356 . S
C1602 H1656 0.930 . S
C1603 N1601 1.279 . S
C1603 C1602 1.358 . S
C1603 H1607 0.930 . S
C1604 C1602 1.356 . S
C1604 C1605 1.348 . S
C1605 C1600 1.353 . S
C1605 C1604 1.348 . S
C1605 H1657 0.929 . S
H1606 C1600 0.930 . S
H1607 C1603 0.930 . S
C1608 N1609 1.314 . S
C1608 C1610 1.353 . S
C1608 H1614 0.930 . S
N1609 Li1585 1.990 . S
N1609 C1608 1.314 . S
N1609 C1612 1.279 . S
C1610 C1608 1.353 . S
C1610 C1613 1.348 . S
C1610 H1658 0.929 . S
C1611 C1612 1.358 . S
C1611 C1613 1.356 . S
C1611 H1659 0.930 . S
C1612 N1609 1.279 . S
C1612 C1611 1.358 . S
C1612 H1615 0.930 . S
C1613 C1610 1.348 . S
C1613 C1611 1.356 . S
H1614 C1608 0.930 . S
H1615 C1612 0.930 . S
C1616 C1618 1.348 . S
C1616 C1619 1.356 . S
C1616 O1646 1.325 . S
N1617 C1620 1.314 . S
N1617 C1621 1.279 . S
C1618 C1616 1.348 . S
C1618 C1620 1.353 . S
C1618 H1660 0.929 . S
C1619 C1616 1.356 . S
C1619 C1621 1.358 . S
C1619 H1661 0.930 . S
C1620 N1617 1.314 . S
C1620 C1618 1.353 . S
C1620 H1662 0.930 . S
C1621 N1617 1.279 . S
C1621 C1619 1.358 . S
C1621 H1663 0.930 . S
C1622 C1623 1.348 . S
C1622 C1624 1.356 . S
C1622 O1647 1.325 . S
C1623 C1622 1.348 . S
C1623 C1625 1.353 . S
C1623 H1664 0.929 . S
C1624 C1622 1.356 . S
C1624 C1626 1.358 . S
C1624 H1665 0.930 . S
C1625 C1623 1.353 . S
C1625 N1627 1.314 . S
C1625 H1666 0.930 . S
C1626 C1624 1.358 . S
C1626 N1627 1.279 . S
C1626 H1667 0.930 . S
N1627 C1625 1.314 . S
N1627 C1626 1.279 . S
C1628 C1630 1.353 . S
C1628 N1631 1.314 . S
C1628 H1634 0.930 . S
C1629 N1631 1.279 . S
C1629 C1632 1.358 . S
C1629 H1635 0.930 . S
C1630 C1628 1.353 . S
C1630 C1633 1.348 . S
C1630 H1668 0.929 . S
N1631 Li1586 1.990 . S
N1631 C1628 1.314 . S
N1631 C1629 1.279 . S
C1632 C1629 1.358 . S
C1632 C1633 1.356 . S
C1632 H1669 0.930 . S
C1633 C1630 1.348 . S
C1633 C1632 1.356 . S
H1634 C1628 0.930 . S
H1635 C1629 0.930 . S
C1636 N1637 1.314 . S
C1636 C1638 1.353 . S
C1636 H1642 0.930 . S
N1637 Li1587 1.990 . S
N1637 C1636 1.314 . S
N1637 C1640 1.279 . S
C1638 C1636 1.353 . S
C1638 C1641 1.348 . S
C1638 H1670 0.929 . S
C1639 C1640 1.358 . S
C1639 C1641 1.356 . S
C1639 H1671 0.930 . S
C1640 N1637 1.279 . S
C1640 C1639 1.358 . S
C1640 H1643 0.930 . S
C1641 C1638 1.348 . S
C1641 C1639 1.356 . S
H1642 C1636 0.930 . S
H1643 C1640 0.930 . S
O1644 Li1584 1.956 . S
O1644 Li1585 1.970 . S
O1644 Li1586 1.961 . S
O1644 C1588 1.325 . S
O1645 Li1584 1.970 . S
O1645 Li1585 1.956 . S
O1645 Li1587 1.961 . S
O1645 C1594 1.325 . S
O1646 Li1584 1.961 . S
O1646 Li1586 1.956 . S
O1646 Li1587 1.970 . S
O1646 C1616 1.325 . S
O1647 Li1585 1.961 . S
O1647 Li1586 1.970 . S
O1647 Li1587 1.956 . S
O1647 C1622 1.325 . S
H1648 C1590 0.929 . S
H1649 C1591 0.930 . S
H1650 C1592 0.930 . S
H1651 C1593 0.930 . S
H1652 C1595 0.930 . S
H1653 C1597 0.929 . S
H1654 C1598 0.930 . S
H1655 C1599 0.930 . S
H1656 C1602 0.930 . S
H1657 C1605 0.929 . S
H1658 C1610 0.929 . S
H1659 C1611 0.930 . S
H1660 C1618 0.929 . S
H1661 C1619 0.930 . S
H1662 C1620 0.930 . S
H1663 C1621 0.930 . S
H1664 C1623 0.929 . S
H1665 C1624 0.930 . S
H1666 C1625 0.930 . S
H1667 C1626 0.930 . S
H1668 C1630 0.929 . S
H1669 C1632 0.930 . S
H1670 C1638 0.929 . S
H1671 C1639 0.930 . S
Li1672 N1689 1.990 . S
Li1672 O1732 1.956 . S
Li1672 O1733 1.970 . S
Li1672 O1734 1.961 . S
Li1673 N1697 1.990 . S
Li1673 O1732 1.970 . S
Li1673 O1733 1.956 . S
Li1673 O1735 1.961 . S
Li1674 N1719 1.990 . S
Li1674 O1732 1.961 . S
Li1674 O1734 1.956 . S
Li1674 O1735 1.970 . S
Li1675 N1725 1.990 . S
Li1675 O1733 1.961 . S
Li1675 O1734 1.970 . S
Li1675 O1735 1.956 . S
C1676 C1678 1.348 . S
C1676 C1679 1.356 . S
C1676 O1732 1.325 . S
N1677 C1680 1.314 . S
N1677 C1681 1.279 . S
C1678 C1676 1.348 . S
C1678 C1680 1.353 . S
C1678 H1736 0.929 . S
C1679 C1676 1.356 . S
C1679 C1681 1.358 . S
C1679 H1737 0.930 . S
C1680 N1677 1.314 . S
C1680 C1678 1.353 . S
C1680 H1738 0.930 . S
C1681 N1677 1.279 . S
C1681 C1679 1.358 . S
C1681 H1739 0.930 . S
C1682 C1685 1.348 . S
C1682 C1686 1.356 . S
C1682 O1733 1.325 . S
C1683 N1684 1.279 . S
C1683 C1686 1.358 . S
C1683 H1740 0.930 . S
N1684 C1683 1.279 . S
N1684 C1687 1.314 . S
C1685 C1682 1.348 . S
C1685 C1687 1.353 . S
C1685 H1741 0.929 . S
C1686 C1682 1.356 . S
C1686 C1683 1.358 . S
C1686 H1742 0.930 . S
C1687 N1684 1.314 . S
C1687 C1685 1.353 . S
C1687 H1743 0.930 . S
C1688 N1689 1.314 . S
C1688 C1693 1.353 . S
C1688 H1694 0.930 . S
N1689 Li1672 1.990 . S
N1689 C1688 1.314 . S
N1689 C1691 1.279 . S
C1690 C1691 1.358 . S
C1690 C1692 1.356 . S
C1690 H1744 0.930 . S
C1691 N1689 1.279 . S
C1691 C1690 1.358 . S
C1691 H1695 0.930 . S
C1692 C1690 1.356 . S
C1692 C1693 1.348 . S
C1693 C1688 1.353 . S
C1693 C1692 1.348 . S
C1693 H1745 0.929 . S
H1694 C1688 0.930 . S
H1695 C1691 0.930 . S
C1696 N1697 1.314 . S
C1696 C1698 1.353 . S
C1696 H1702 0.930 . S
N1697 Li1673 1.990 . S
N1697 C1696 1.314 . S
N1697 C1700 1.279 . S
C1698 C1696 1.353 . S
C1698 C1701 1.348 . S
C1698 H1746 0.929 . S
C1699 C1700 1.358 . S
C1699 C1701 1.356 . S
C1699 H1747 0.930 . S
C1700 N1697 1.279 . S
C1700 C1699 1.358 . S
C1700 H1703 0.930 . S
C1701 C1698 1.348 . S
C1701 C1699 1.356 . S
H1702 C1696 0.930 . S
H1703 C1700 0.930 . S
C1704 C1706 1.348 1_545 S
C1704 C1707 1.356 . S
C1704 O1734 1.325 . S
N1705 C1708 1.314 . S
N1705 C1709 1.279 . S
C1706 C1704 1.348 1_565 S
C1706 C1708 1.353 . S
C1706 H1748 0.929 . S
C1707 C1704 1.356 . S
C1707 C1709 1.358 1_545 S
C1707 H1749 0.930 . S
C1708 N1705 1.314 . S
C1708 C1706 1.353 . S
C1708 H1750 0.930 . S
C1709 N1705 1.279 . S
C1709 C1707 1.358 1_565 S
C1709 H1751 0.930 . S
C1710 C1711 1.348 . S
C1710 C1712 1.356 . S
C1710 O1735 1.325 . S
C1711 C1710 1.348 . S
C1711 C1713 1.353 . S
C1711 H1752 0.929 . S
C1712 C1710 1.356 . S
C1712 C1714 1.358 . S
C1712 H1753 0.930 . S
C1713 C1711 1.353 . S
C1713 N1715 1.314 . S
C1713 H1754 0.930 . S
C1714 C1712 1.358 . S
C1714 N1715 1.279 . S
C1714 H1755 0.930 . S
N1715 C1713 1.314 . S
N1715 C1714 1.279 . S
C1716 C1718 1.353 . S
C1716 N1719 1.314 . S
C1716 H1722 0.930 . S
C1717 N1719 1.279 . S
C1717 C1720 1.358 . S
C1717 H1723 0.930 . S
C1718 C1716 1.353 . S
C1718 C1721 1.348 . S
C1718 H1756 0.929 . S
N1719 Li1674 1.990 . S
N1719 C1716 1.314 . S
N1719 C1717 1.279 . S
C1720 C1717 1.358 . S
C1720 C1721 1.356 . S
C1720 H1757 0.930 . S
C1721 C1718 1.348 . S
C1721 C1720 1.356 . S
H1722 C1716 0.930 . S
H1723 C1717 0.930 . S
C1724 N1725 1.314 . S
C1724 C1726 1.353 1_545 S
C1724 H1730 0.930 . S
N1725 Li1675 1.990 . S
N1725 C1724 1.314 . S
N1725 C1728 1.279 . S
C1726 C1724 1.353 1_565 S
C1726 C1729 1.348 . S
C1726 H1758 0.929 . S
C1727 C1728 1.358 1_565 S
C1727 C1729 1.356 . S
C1727 H1759 0.930 . S
C1728 N1725 1.279 . S
C1728 C1727 1.358 1_545 S
C1728 H1731 0.930 . S
C1729 C1726 1.348 . S
C1729 C1727 1.356 . S
H1730 C1724 0.930 . S
H1731 C1728 0.930 . S
O1732 Li1672 1.956 . S
O1732 Li1673 1.970 . S
O1732 Li1674 1.961 . S
O1732 C1676 1.325 . S
O1733 Li1672 1.970 . S
O1733 Li1673 1.956 . S
O1733 Li1675 1.961 . S
O1733 C1682 1.325 . S
O1734 Li1672 1.961 . S
O1734 Li1674 1.956 . S
O1734 Li1675 1.970 . S
O1734 C1704 1.325 . S
O1735 Li1673 1.961 . S
O1735 Li1674 1.970 . S
O1735 Li1675 1.956 . S
O1735 C1710 1.325 . S
H1736 C1678 0.929 . S
H1737 C1679 0.930 . S
H1738 C1680 0.930 . S
H1739 C1681 0.930 . S
H1740 C1683 0.930 . S
H1741 C1685 0.929 . S
H1742 C1686 0.930 . S
H1743 C1687 0.930 . S
H1744 C1690 0.930 . S
H1745 C1693 0.929 . S
H1746 C1698 0.929 . S
H1747 C1699 0.930 . S
H1748 C1706 0.929 . S
H1749 C1707 0.930 . S
H1750 C1708 0.930 . S
H1751 C1709 0.930 . S
H1752 C1711 0.929 . S
H1753 C1712 0.930 . S
H1754 C1713 0.930 . S
H1755 C1714 0.930 . S
H1756 C1718 0.929 . S
H1757 C1720 0.930 . S
H1758 C1726 0.929 . S
H1759 C1727 0.930 . S
Li1760 N1777 1.990 . S
Li1760 O1820 1.956 . S
Li1760 O1821 1.970 . S
Li1760 O1822 1.961 . S
Li1761 N1785 1.990 . S
Li1761 O1820 1.970 . S
Li1761 O1821 1.956 . S
Li1761 O1823 1.961 1_554 S
Li1762 N1807 1.990 . S
Li1762 O1820 1.961 1_556 S
Li1762 O1822 1.956 1_556 S
Li1762 O1823 1.970 . S
Li1763 N1813 1.993 1_554 S
Li1763 O1821 1.961 . S
Li1763 O1822 1.970 . S
Li1763 O1823 1.956 1_554 S
C1764 C1766 1.348 . S
C1764 C1767 1.356 . S
C1764 O1820 1.325 . S
N1765 C1768 1.314 . S
N1765 C1769 1.279 . S
C1766 C1764 1.348 . S
C1766 C1768 1.353 . S
C1766 H1824 0.929 . S
C1767 C1764 1.356 . S
C1767 C1769 1.358 . S
C1767 H1825 0.930 . S
C1768 N1765 1.314 . S
C1768 C1766 1.353 . S
C1768 H1826 0.930 . S
C1769 N1765 1.279 . S
C1769 C1767 1.358 . S
C1769 H1827 0.930 . S
C1770 C1773 1.348 . S
C1770 C1774 1.356 . S
C1770 O1821 1.325 . S
C1771 N1772 1.279 . S
C1771 C1774 1.358 . S
C1771 H1828 0.930 . S
N1772 C1771 1.279 . S
N1772 C1775 1.314 . S
C1773 C1770 1.348 . S
C1773 C1775 1.353 . S
C1773 H1829 0.929 . S
C1774 C1770 1.356 . S
C1774 C1771 1.358 . S
C1774 H1830 0.930 . S
C1775 N1772 1.314 . S
C1775 C1773 1.353 . S
C1775 H1831 0.930 . S
C1776 N1777 1.314 . S
C1776 C1781 1.353 . S
C1776 H1782 0.930 . S
N1777 Li1760 1.990 . S
N1777 C1776 1.314 . S
N1777 C1779 1.279 . S
C1778 C1779 1.358 . S
C1778 C1780 1.356 . S
C1778 H1832 0.930 . S
C1779 N1777 1.279 . S
C1779 C1778 1.358 . S
C1779 H1783 0.930 . S
C1780 C1778 1.356 . S
C1780 C1781 1.348 . S
C1781 C1776 1.353 . S
C1781 C1780 1.348 . S
C1781 H1833 0.929 . S
H1782 C1776 0.930 . S
H1783 C1779 0.930 . S
C1784 N1785 1.314 1_556 S
C1784 C1786 1.353 . S
C1784 H1790 0.930 . S
N1785 Li1761 1.990 . S
N1785 C1784 1.314 1_554 S
N1785 C1788 1.279 . S
C1786 C1784 1.353 . S
C1786 C1789 1.348 1_556 S
C1786 H1834 0.929 . S
C1787 C1788 1.358 . S
C1787 C1789 1.356 . S
C1787 H1835 0.930 . S
C1788 N1785 1.279 . S
C1788 C1787 1.358 . S
C1788 H1791 0.930 . S
C1789 C1786 1.348 1_554 S
C1789 C1787 1.356 . S
H1790 C1784 0.930 . S
H1791 C1788 0.930 . S
C1792 C1794 1.357 . S
C1792 C1795 1.356 . S
C1792 O1822 1.325 . S
N1793 C1796 1.314 . S
N1793 C1797 1.279 . S
C1794 C1792 1.357 . S
C1794 C1796 1.353 . S
C1794 H1836 0.922 1_554 S
C1795 C1792 1.356 . S
C1795 C1797 1.358 . S
C1795 H1837 0.930 . S
C1796 N1793 1.314 . S
C1796 C1794 1.353 . S
C1796 H1838 0.930 1_554 S
C1797 N1793 1.279 . S
C1797 C1795 1.358 . S
C1797 H1839 0.930 . S
C1798 C1799 1.348 . S
C1798 C1800 1.356 . S
C1798 O1823 1.325 . S
C1799 C1798 1.348 . S
C1799 C1801 1.353 . S
C1799 H1840 0.929 . S
C1800 C1798 1.356 . S
C1800 C1802 1.358 . S
C1800 H1841 0.930 . S
C1801 C1799 1.353 . S
C1801 N1803 1.314 . S
C1801 H1842 0.930 . S
C1802 C1800 1.358 . S
C1802 N1803 1.279 . S
C1802 H1843 0.930 . S
N1803 C1801 1.314 . S
N1803 C1802 1.279 . S
C1804 C1806 1.353 . S
C1804 N1807 1.314 . S
C1804 H1810 0.930 . S
C1805 N1807 1.279 . S
C1805 C1808 1.358 . S
C1805 H1811 0.930 . S
C1806 C1804 1.353 . S
C1806 C1809 1.348 . S
C1806 H1844 0.929 . S
N1807 Li1762 1.990 . S
N1807 C1804 1.314 . S
N1807 C1805 1.279 . S
C1808 C1805 1.358 . S
C1808 C1809 1.356 . S
C1808 H1845 0.930 . S
C1809 C1806 1.348 . S
C1809 C1808 1.356 . S
H1810 C1804 0.930 . S
H1811 C1805 0.930 . S
C1812 N1813 1.284 1_554 S
C1812 C1814 1.353 . S
C1812 H1818 0.930 . S
N1813 Li1763 1.993 1_556 S
N1813 C1812 1.284 1_556 S
N1813 C1816 1.306 . S
C1814 C1812 1.353 . S
C1814 C1817 1.348 1_554 S
C1814 H1846 0.929 . S
C1815 C1816 1.358 . S
C1815 C1817 1.356 . S
C1815 H1847 0.930 . S
C1816 N1813 1.306 . S
C1816 C1815 1.358 . S
C1816 H1819 0.930 . S
C1817 C1814 1.348 1_556 S
C1817 C1815 1.356 . S
H1818 C1812 0.930 . S
H1819 C1816 0.930 . S
O1820 Li1760 1.956 . S
O1820 Li1761 1.970 . S
O1820 Li1762 1.961 1_554 S
O1820 C1764 1.325 . S
O1821 Li1760 1.970 . S
O1821 Li1761 1.956 . S
O1821 Li1763 1.961 . S
O1821 C1770 1.325 . S
O1822 Li1760 1.961 . S
O1822 Li1762 1.956 1_554 S
O1822 Li1763 1.970 . S
O1822 C1792 1.325 . S
O1823 Li1761 1.961 1_556 S
O1823 Li1762 1.970 . S
O1823 Li1763 1.956 1_556 S
O1823 C1798 1.325 . S
H1824 C1766 0.929 . S
H1825 C1767 0.930 . S
H1826 C1768 0.930 . S
H1827 C1769 0.930 . S
H1828 C1771 0.930 . S
H1829 C1773 0.929 . S
H1830 C1774 0.930 . S
H1831 C1775 0.930 . S
H1832 C1778 0.930 . S
H1833 C1781 0.929 . S
H1834 C1786 0.929 . S
H1835 C1787 0.930 . S
H1836 C1794 0.922 1_556 S
H1837 C1795 0.930 . S
H1838 C1796 0.930 1_556 S
H1839 C1797 0.930 . S
H1840 C1799 0.929 . S
H1841 C1800 0.930 . S
H1842 C1801 0.930 . S
H1843 C1802 0.930 . S
H1844 C1806 0.929 . S
H1845 C1808 0.930 . S
H1846 C1814 0.929 . S
H1847 C1815 0.930 . S
Li1848 N1865 1.990 . S
Li1848 O1908 1.956 . S
Li1848 O1909 1.970 . S
Li1848 O1910 1.961 . S
Li1849 N1873 1.990 . S
Li1849 O1908 1.970 . S
Li1849 O1909 1.956 . S
Li1849 O1911 1.961 . S
Li1850 N1895 1.990 . S
Li1850 O1908 1.961 . S
Li1850 O1910 1.956 . S
Li1850 O1911 1.970 . S
Li1851 N1901 1.990 . S
Li1851 O1909 1.961 . S
Li1851 O1910 1.970 . S
Li1851 O1911 1.956 . S
C1852 C1854 1.348 . S
C1852 C1855 1.356 . S
C1852 O1908 1.325 . S
N1853 C1856 1.314 . S
N1853 C1857 1.279 . S
C1854 C1852 1.348 . S
C1854 C1856 1.353 . S
C1854 H1912 0.929 . S
C1855 C1852 1.356 . S
C1855 C1857 1.358 . S
C1855 H1913 0.930 . S
C1856 N1853 1.314 . S
C1856 C1854 1.353 . S
C1856 H1914 0.930 . S
C1857 N1853 1.279 . S
C1857 C1855 1.358 . S
C1857 H1915 0.930 . S
C1858 C1861 1.348 . S
C1858 C1862 1.356 . S
C1858 O1909 1.325 . S
C1859 N1860 1.279 . S
C1859 C1862 1.358 . S
C1859 H1916 0.930 . S
N1860 C1859 1.279 . S
N1860 C1863 1.314 . S
C1861 C1858 1.348 . S
C1861 C1863 1.353 . S
C1861 H1917 0.929 . S
C1862 C1858 1.356 . S
C1862 C1859 1.358 . S
C1862 H1918 0.930 . S
C1863 N1860 1.314 . S
C1863 C1861 1.353 . S
C1863 H1919 0.930 . S
C1864 N1865 1.314 . S
C1864 C1869 1.353 . S
C1864 H1870 0.930 . S
N1865 Li1848 1.990 . S
N1865 C1864 1.314 . S
N1865 C1867 1.279 . S
C1866 C1867 1.358 . S
C1866 C1868 1.356 . S
C1866 H1920 0.930 . S
C1867 N1865 1.279 . S
C1867 C1866 1.358 . S
C1867 H1871 0.930 . S
C1868 C1866 1.356 . S
C1868 C1869 1.348 . S
C1869 C1864 1.353 . S
C1869 C1868 1.348 . S
C1869 H1921 0.929 . S
H1870 C1864 0.930 . S
H1871 C1867 0.930 . S
C1872 N1873 1.314 . S
C1872 C1874 1.353 . S
C1872 H1878 0.930 . S
N1873 Li1849 1.990 . S
N1873 C1872 1.314 . S
N1873 C1876 1.279 . S
C1874 C1872 1.353 . S
C1874 C1877 1.348 . S
C1874 H1922 0.929 . S
C1875 C1876 1.358 . S
C1875 C1877 1.356 . S
C1875 H1923 0.930 . S
C1876 N1873 1.279 . S
C1876 C1875 1.358 . S
C1876 H1879 0.930 . S
C1877 C1874 1.348 . S
C1877 C1875 1.356 . S
H1878 C1872 0.930 . S
H1879 C1876 0.930 . S
C1880 C1882 1.348 . S
C1880 C1883 1.356 . S
C1880 O1910 1.325 . S
N1881 C1884 1.314 . S
N1881 C1885 1.279 . S
C1882 C1880 1.348 . S
C1882 C1884 1.353 . S
C1882 H1924 0.929 . S
C1883 C1880 1.356 . S
C1883 C1885 1.358 . S
C1883 H1925 0.930 . S
C1884 N1881 1.314 . S
C1884 C1882 1.353 . S
C1884 H1926 0.930 . S
C1885 N1881 1.279 . S
C1885 C1883 1.358 . S
C1885 H1927 0.930 . S
C1886 C1887 1.348 . S
C1886 C1888 1.356 . S
C1886 O1911 1.325 . S
C1887 C1886 1.348 . S
C1887 C1889 1.353 . S
C1887 H1928 0.929 . S
C1888 C1886 1.356 . S
C1888 C1890 1.358 . S
C1888 H1929 0.930 . S
C1889 C1887 1.353 . S
C1889 N1891 1.314 . S
C1889 H1930 0.930 . S
C1890 C1888 1.358 . S
C1890 N1891 1.279 . S
C1890 H1931 0.930 . S
N1891 C1889 1.314 . S
N1891 C1890 1.279 . S
C1892 C1894 1.353 . S
C1892 N1895 1.314 . S
C1892 H1898 0.930 . S
C1893 N1895 1.279 . S
C1893 C1896 1.358 . S
C1893 H1899 0.930 . S
C1894 C1892 1.353 . S
C1894 C1897 1.348 . S
C1894 H1932 0.929 . S
N1895 Li1850 1.990 . S
N1895 C1892 1.314 . S
N1895 C1893 1.279 . S
C1896 C1893 1.358 . S
C1896 C1897 1.356 . S
C1896 H1933 0.930 . S
C1897 C1894 1.348 . S
C1897 C1896 1.356 . S
H1898 C1892 0.930 . S
H1899 C1893 0.930 . S
C1900 N1901 1.314 . S
C1900 C1902 1.353 . S
C1900 H1906 0.930 . S
N1901 Li1851 1.990 . S
N1901 C1900 1.314 . S
N1901 C1904 1.279 . S
C1902 C1900 1.353 . S
C1902 C1905 1.348 . S
C1902 H1934 0.929 . S
C1903 C1904 1.358 . S
C1903 C1905 1.356 . S
C1903 H1935 0.930 . S
C1904 N1901 1.279 . S
C1904 C1903 1.358 . S
C1904 H1907 0.930 . S
C1905 C1902 1.348 . S
C1905 C1903 1.356 . S
H1906 C1900 0.930 . S
H1907 C1904 0.930 . S
O1908 Li1848 1.956 . S
O1908 Li1849 1.970 . S
O1908 Li1850 1.961 . S
O1908 C1852 1.325 . S
O1909 Li1848 1.970 . S
O1909 Li1849 1.956 . S
O1909 Li1851 1.961 . S
O1909 C1858 1.325 . S
O1910 Li1848 1.961 . S
O1910 Li1850 1.956 . S
O1910 Li1851 1.970 . S
O1910 C1880 1.325 . S
O1911 Li1849 1.961 . S
O1911 Li1850 1.970 . S
O1911 Li1851 1.956 . S
O1911 C1886 1.325 . S
H1912 C1854 0.929 . S
H1913 C1855 0.930 . S
H1914 C1856 0.930 . S
H1915 C1857 0.930 . S
H1916 C1859 0.930 . S
H1917 C1861 0.929 . S
H1918 C1862 0.930 . S
H1919 C1863 0.930 . S
H1920 C1866 0.930 . S
H1921 C1869 0.929 . S
H1922 C1874 0.929 . S
H1923 C1875 0.930 . S
H1924 C1882 0.929 . S
H1925 C1883 0.930 . S
H1926 C1884 0.930 . S
H1927 C1885 0.930 . S
H1928 C1887 0.929 . S
H1929 C1888 0.930 . S
H1930 C1889 0.930 . S
H1931 C1890 0.930 . S
H1932 C1894 0.929 . S
H1933 C1896 0.930 . S
H1934 C1902 0.929 . S
H1935 C1903 0.930 . S
Li1936 N1953 1.990 . S
Li1936 O1996 1.956 . S
Li1936 O1997 1.970 . S
Li1936 O1998 1.961 . S
Li1937 N1961 1.990 . S
Li1937 O1996 1.970 . S
Li1937 O1997 1.956 . S
Li1937 O1999 1.961 . S
Li1938 N1983 1.990 . S
Li1938 O1996 1.961 . S
Li1938 O1998 1.956 . S
Li1938 O1999 1.970 . S
Li1939 N1989 1.990 . S
Li1939 O1997 1.961 . S
Li1939 O1998 1.970 . S
Li1939 O1999 1.956 . S
C1940 C1942 1.348 . S
C1940 C1943 1.356 . S
C1940 O1996 1.325 . S
N1941 C1944 1.314 . S
N1941 C1945 1.279 . S
C1942 C1940 1.348 . S
C1942 C1944 1.353 . S
C1942 H2000 0.929 . S
C1943 C1940 1.356 . S
C1943 C1945 1.358 . S
C1943 H2001 0.930 . S
C1944 N1941 1.314 . S
C1944 C1942 1.353 . S
C1944 H2002 0.930 . S
C1945 N1941 1.279 . S
C1945 C1943 1.358 . S
C1945 H2003 0.930 . S
C1946 C1949 1.348 . S
C1946 C1950 1.356 . S
C1946 O1997 1.325 . S
C1947 N1948 1.279 . S
C1947 C1950 1.358 . S
C1947 H2004 0.930 . S
N1948 C1947 1.279 . S
N1948 C1951 1.314 . S
C1949 C1946 1.348 . S
C1949 C1951 1.353 . S
C1949 H2005 0.929 . S
C1950 C1946 1.356 . S
C1950 C1947 1.358 . S
C1950 H2006 0.930 . S
C1951 N1948 1.314 . S
C1951 C1949 1.353 . S
C1951 H2007 0.930 . S
C1952 N1953 1.314 . S
C1952 C1957 1.353 . S
C1952 H1958 0.930 . S
N1953 Li1936 1.990 . S
N1953 C1952 1.314 . S
N1953 C1955 1.279 . S
C1954 C1955 1.358 . S
C1954 C1956 1.356 . S
C1954 H2008 0.930 . S
C1955 N1953 1.279 . S
C1955 C1954 1.358 . S
C1955 H1959 0.930 . S
C1956 C1954 1.356 . S
C1956 C1957 1.348 . S
C1957 C1952 1.353 . S
C1957 C1956 1.348 . S
C1957 H2009 0.929 . S
H1958 C1952 0.930 . S
H1959 C1955 0.930 . S
C1960 N1961 1.314 . S
C1960 C1962 1.353 . S
C1960 H1966 0.930 . S
N1961 Li1937 1.990 . S
N1961 C1960 1.314 . S
N1961 C1964 1.279 . S
C1962 C1960 1.353 . S
C1962 C1965 1.348 . S
C1962 H2010 0.929 . S
C1963 C1964 1.358 . S
C1963 C1965 1.356 . S
C1963 H2011 0.930 . S
C1964 N1961 1.279 . S
C1964 C1963 1.358 . S
C1964 H1967 0.930 . S
C1965 C1962 1.348 . S
C1965 C1963 1.356 . S
H1966 C1960 0.930 . S
H1967 C1964 0.930 . S
C1968 C1970 1.348 . S
C1968 C1971 1.356 . S
C1968 O1998 1.325 . S
N1969 C1972 1.314 . S
N1969 C1973 1.279 . S
C1970 C1968 1.348 . S
C1970 C1972 1.353 . S
C1970 H2012 0.929 . S
C1971 C1968 1.356 . S
C1971 C1973 1.358 . S
C1971 H2013 0.930 . S
C1972 N1969 1.314 . S
C1972 C1970 1.353 . S
C1972 H2014 0.930 . S
C1973 N1969 1.279 . S
C1973 C1971 1.358 . S
C1973 H2015 0.930 . S
C1974 C1975 1.348 . S
C1974 C1976 1.356 . S
C1974 O1999 1.325 . S
C1975 C1974 1.348 . S
C1975 C1977 1.353 . S
C1975 H2016 0.929 . S
C1976 C1974 1.356 . S
C1976 C1978 1.358 . S
C1976 H2017 0.930 . S
C1977 C1975 1.353 . S
C1977 N1979 1.314 . S
C1977 H2018 0.930 . S
C1978 C1976 1.358 . S
C1978 N1979 1.279 . S
C1978 H2019 0.930 . S
N1979 C1977 1.314 . S
N1979 C1978 1.279 . S
C1980 C1982 1.353 . S
C1980 N1983 1.314 . S
C1980 H1986 0.930 . S
C1981 N1983 1.279 . S
C1981 C1984 1.358 . S
C1981 H1987 0.930 . S
C1982 C1980 1.353 . S
C1982 C1985 1.348 . S
C1982 H2020 0.929 . S
N1983 Li1938 1.990 . S
N1983 C1980 1.314 . S
N1983 C1981 1.279 . S
C1984 C1981 1.358 . S
C1984 C1985 1.356 . S
C1984 H2021 0.930 . S
C1985 C1982 1.348 . S
C1985 C1984 1.356 . S
H1986 C1980 0.930 . S
H1987 C1981 0.930 . S
C1988 N1989 1.314 . S
C1988 C1990 1.353 . S
C1988 H1994 0.930 . S
N1989 Li1939 1.990 . S
N1989 C1988 1.314 . S
N1989 C1992 1.279 . S
C1990 C1988 1.353 . S
C1990 C1993 1.348 . S
C1990 H2022 0.929 . S
C1991 C1992 1.358 . S
C1991 C1993 1.356 . S
C1991 H2023 0.930 . S
C1992 N1989 1.279 . S
C1992 C1991 1.358 . S
C1992 H1995 0.930 . S
C1993 C1990 1.348 . S
C1993 C1991 1.356 . S
H1994 C1988 0.930 . S
H1995 C1992 0.930 . S
O1996 Li1936 1.956 . S
O1996 Li1937 1.970 . S
O1996 Li1938 1.961 . S
O1996 C1940 1.325 . S
O1997 Li1936 1.970 . S
O1997 Li1937 1.956 . S
O1997 Li1939 1.961 . S
O1997 C1946 1.325 . S
O1998 Li1936 1.961 . S
O1998 Li1938 1.956 . S
O1998 Li1939 1.970 . S
O1998 C1968 1.325 . S
O1999 Li1937 1.961 . S
O1999 Li1938 1.970 . S
O1999 Li1939 1.956 . S
O1999 C1974 1.325 . S
H2000 C1942 0.929 . S
H2001 C1943 0.930 . S
H2002 C1944 0.930 . S
H2003 C1945 0.930 . S
H2004 C1947 0.930 . S
H2005 C1949 0.929 . S
H2006 C1950 0.930 . S
H2007 C1951 0.930 . S
H2008 C1954 0.930 . S
H2009 C1957 0.929 . S
H2010 C1962 0.929 . S
H2011 C1963 0.930 . S
H2012 C1970 0.929 . S
H2013 C1971 0.930 . S
H2014 C1972 0.930 . S
H2015 C1973 0.930 . S
H2016 C1975 0.929 . S
H2017 C1976 0.930 . S
H2018 C1977 0.930 . S
H2019 C1978 0.930 . S
H2020 C1982 0.929 . S
H2021 C1984 0.930 . S
H2022 C1990 0.929 . S
H2023 C1991 0.930 . S
Li2024 N2041 1.990 . S
Li2024 O2084 1.956 . S
Li2024 O2085 1.970 . S
Li2024 O2086 1.961 . S
Li2025 N2049 1.990 . S
Li2025 O2084 1.970 . S
Li2025 O2085 1.956 . S
Li2025 O2087 1.961 . S
Li2026 N2071 1.990 . S
Li2026 O2084 1.961 . S
Li2026 O2086 1.956 . S
Li2026 O2087 1.970 . S
Li2027 N2077 1.990 . S
Li2027 O2085 1.961 . S
Li2027 O2086 1.970 . S
Li2027 O2087 1.956 . S
C2028 C2030 1.348 . S
C2028 C2031 1.356 . S
C2028 O2084 1.325 . S
N2029 C2032 1.314 . S
N2029 C2033 1.279 . S
C2030 C2028 1.348 . S
C2030 C2032 1.353 . S
C2030 H2088 0.929 . S
C2031 C2028 1.356 . S
C2031 C2033 1.358 . S
C2031 H2089 0.930 . S
C2032 N2029 1.314 . S
C2032 C2030 1.353 . S
C2032 H2090 0.930 . S
C2033 N2029 1.279 . S
C2033 C2031 1.358 . S
C2033 H2091 0.930 . S
C2034 C2037 1.348 . S
C2034 C2038 1.356 . S
C2034 O2085 1.325 . S
C2035 N2036 1.279 . S
C2035 C2038 1.358 . S
C2035 H2092 0.930 . S
N2036 C2035 1.279 . S
N2036 C2039 1.314 . S
C2037 C2034 1.348 . S
C2037 C2039 1.353 . S
C2037 H2093 0.929 . S
C2038 C2034 1.356 . S
C2038 C2035 1.358 . S
C2038 H2094 0.930 . S
C2039 N2036 1.314 . S
C2039 C2037 1.353 . S
C2039 H2095 0.930 . S
C2040 N2041 1.314 . S
C2040 C2045 1.353 . S
C2040 H2046 0.930 . S
N2041 Li2024 1.990 . S
N2041 C2040 1.314 . S
N2041 C2043 1.279 . S
C2042 C2043 1.358 . S
C2042 C2044 1.356 . S
C2042 H2096 0.930 . S
C2043 N2041 1.279 . S
C2043 C2042 1.358 . S
C2043 H2047 0.930 . S
C2044 C2042 1.356 . S
C2044 C2045 1.348 . S
C2045 C2040 1.353 . S
C2045 C2044 1.348 . S
C2045 H2097 0.929 . S
H2046 C2040 0.930 . S
H2047 C2043 0.930 . S
C2048 N2049 1.314 . S
C2048 C2050 1.353 . S
C2048 H2054 0.930 . S
N2049 Li2025 1.990 . S
N2049 C2048 1.314 . S
N2049 C2052 1.279 . S
C2050 C2048 1.353 . S
C2050 C2053 1.348 . S
C2050 H2098 0.929 . S
C2051 C2052 1.358 . S
C2051 C2053 1.356 . S
C2051 H2099 0.930 . S
C2052 N2049 1.279 . S
C2052 C2051 1.358 . S
C2052 H2055 0.930 . S
C2053 C2050 1.348 . S
C2053 C2051 1.356 . S
H2054 C2048 0.930 . S
H2055 C2052 0.930 . S
C2056 C2058 1.348 . S
C2056 C2059 1.356 . S
C2056 O2086 1.325 . S
N2057 C2060 1.314 . S
N2057 C2061 1.279 . S
C2058 C2056 1.348 . S
C2058 C2060 1.353 . S
C2058 H2100 0.929 . S
C2059 C2056 1.356 . S
C2059 C2061 1.358 . S
C2059 H2101 0.930 . S
C2060 N2057 1.314 . S
C2060 C2058 1.353 . S
C2060 H2102 0.930 . S
C2061 N2057 1.279 . S
C2061 C2059 1.358 . S
C2061 H2103 0.930 . S
C2062 C2063 1.348 . S
C2062 C2064 1.356 . S
C2062 O2087 1.325 . S
C2063 C2062 1.348 . S
C2063 C2065 1.353 . S
C2063 H2104 0.929 . S
C2064 C2062 1.356 . S
C2064 C2066 1.358 . S
C2064 H2105 0.930 . S
C2065 C2063 1.353 . S
C2065 N2067 1.314 . S
C2065 H2106 0.930 . S
C2066 C2064 1.358 . S
C2066 N2067 1.279 . S
C2066 H2107 0.930 . S
N2067 C2065 1.314 . S
N2067 C2066 1.279 . S
C2068 C2070 1.353 . S
C2068 N2071 1.314 . S
C2068 H2074 0.930 . S
C2069 N2071 1.279 . S
C2069 C2072 1.358 . S
C2069 H2075 0.930 . S
C2070 C2068 1.353 . S
C2070 C2073 1.348 . S
C2070 H2108 0.929 . S
N2071 Li2026 1.990 . S
N2071 C2068 1.314 . S
N2071 C2069 1.279 . S
C2072 C2069 1.358 . S
C2072 C2073 1.356 . S
C2072 H2109 0.930 . S
C2073 C2070 1.348 . S
C2073 C2072 1.356 . S
H2074 C2068 0.930 . S
H2075 C2069 0.930 . S
C2076 N2077 1.314 . S
C2076 C2078 1.353 . S
C2076 H2082 0.930 . S
N2077 Li2027 1.990 . S
N2077 C2076 1.314 . S
N2077 C2080 1.279 . S
C2078 C2076 1.353 . S
C2078 C2081 1.348 . S
C2078 H2110 0.929 . S
C2079 C2080 1.358 . S
C2079 C2081 1.356 . S
C2079 H2111 0.930 . S
C2080 N2077 1.279 . S
C2080 C2079 1.358 . S
C2080 H2083 0.930 . S
C2081 C2078 1.348 . S
C2081 C2079 1.356 . S
H2082 C2076 0.930 . S
H2083 C2080 0.930 . S
O2084 Li2024 1.956 . S
O2084 Li2025 1.970 . S
O2084 Li2026 1.961 . S
O2084 C2028 1.325 . S
O2085 Li2024 1.970 . S
O2085 Li2025 1.956 . S
O2085 Li2027 1.961 . S
O2085 C2034 1.325 . S
O2086 Li2024 1.961 . S
O2086 Li2026 1.956 . S
O2086 Li2027 1.970 . S
O2086 C2056 1.325 . S
O2087 Li2025 1.961 . S
O2087 Li2026 1.970 . S
O2087 Li2027 1.956 . S
O2087 C2062 1.325 . S
H2088 C2030 0.929 . S
H2089 C2031 0.930 . S
H2090 C2032 0.930 . S
H2091 C2033 0.930 . S
H2092 C2035 0.930 . S
H2093 C2037 0.929 . S
H2094 C2038 0.930 . S
H2095 C2039 0.930 . S
H2096 C2042 0.930 . S
H2097 C2045 0.929 . S
H2098 C2050 0.929 . S
H2099 C2051 0.930 . S
H2100 C2058 0.929 . S
H2101 C2059 0.930 . S
H2102 C2060 0.930 . S
H2103 C2061 0.930 . S
H2104 C2063 0.929 . S
H2105 C2064 0.930 . S
H2106 C2065 0.930 . S
H2107 C2066 0.930 . S
H2108 C2070 0.929 . S
H2109 C2072 0.930 . S
H2110 C2078 0.929 . S
H2111 C2079 0.930 . S
Eu2112 C2121 2.828 . S
Eu2112 O2123 2.392 . S
Eu2112 O2125 2.418 . S
Eu2112 O2130 2.373 . S
Eu2112 O2133 2.488 . S
Eu2112 O2134 2.471 1_554 S
Eu2112 O2135 2.349 1_554 S
Eu2113 O2122 2.372 . S
Eu2113 O2126 2.479 1_544 S
Eu2113 O2127 2.464 1_545 S
Eu2113 O2128 2.355 . S
Eu2113 O2131 2.400 1_554 S
Eu2113 O2132 2.415 1_554 S
Eu2113 C2142 2.818 1_545 S
C2114 O2132 1.282 . S
C2114 O2135 1.265 . S
C2115 C2116 1.384 1_554 S
C2115 C2119 1.370 . S
C2115 C2121 1.503 . S
C2116 C2115 1.384 1_556 S
C2116 C2118 1.369 . S
C2116 H2144 0.930 . S
C2117 C2119 1.383 . S
C2117 C2120 1.382 1_554 S
C2117 H2145 0.930 . S
C2118 C2116 1.369 . S
C2118 C2120 1.392 . S
C2118 H2146 0.930 . S
C2119 C2115 1.370 . S
C2119 C2117 1.383 . S
C2119 H2147 0.931 . S
C2120 C2117 1.382 1_556 S
C2120 C2118 1.392 . S
C2121 Eu2112 2.828 . S
C2121 C2115 1.503 . S
C2121 O2133 1.249 . S
C2121 O2134 1.244 1_554 S
O2122 Eu2113 2.372 . S
O2122 C2124 1.258 . S
O2123 Eu2112 2.392 . S
O2123 C2124 1.242 . S
C2124 O2122 1.258 . S
C2124 O2123 1.242 . S
O2125 Eu2112 2.418 . S
O2125 C2129 1.244 . S
O2126 Eu2113 2.479 1_566 S
O2126 C2142 1.249 1_556 S
O2127 Eu2113 2.464 1_565 S
O2127 C2142 1.244 . S
O2128 Eu2113 2.355 . S
O2128 C2129 1.265 . S
C2129 O2125 1.244 . S
C2129 O2128 1.265 . S
O2130 Eu2112 2.373 . S
O2130 C2143 1.271 . S
O2131 Eu2113 2.400 1_556 S
O2131 C2143 1.241 1_556 S
O2132 Eu2113 2.415 1_556 S
O2132 C2114 1.282 . S
O2133 Eu2112 2.488 . S
O2133 C2121 1.249 . S
O2134 Eu2112 2.471 1_556 S
O2134 C2121 1.244 1_556 S
O2135 Eu2112 2.349 1_556 S
O2135 C2114 1.265 . S
C2136 C2137 1.379 . S
C2136 C2140 1.373 . S
C2136 C2142 1.505 . S
C2137 C2136 1.379 . S
C2137 C2139 1.369 . S
C2137 H2148 0.930 . S
C2138 C2140 1.383 . S
C2138 C2141 1.382 . S
C2138 H2149 0.930 . S
C2139 C2137 1.369 . S
C2139 C2141 1.392 . S
C2139 H2150 0.930 . S
C2140 C2136 1.373 . S
C2140 C2138 1.383 . S
C2140 H2151 0.931 1_554 S
C2141 C2138 1.382 . S
C2141 C2139 1.392 . S
C2142 Eu2113 2.818 1_565 S
C2142 O2126 1.249 1_554 S
C2142 O2127 1.244 . S
C2142 C2136 1.505 . S
C2143 O2130 1.271 . S
C2143 O2131 1.241 1_554 S
H2144 C2116 0.930 . S
H2145 C2117 0.930 . S
H2146 C2118 0.930 . S
H2147 C2119 0.931 . S
H2148 C2137 0.930 . S
H2149 C2138 0.930 . S
H2150 C2139 0.930 . S
H2151 C2140 0.931 1_556 S
Eu2152 C2161 2.828 . S
Eu2152 O2163 2.392 . S
Eu2152 O2165 2.418 . S
Eu2152 O2170 2.373 . S
Eu2152 O2173 2.488 . S
Eu2152 O2174 2.471 . S
Eu2152 O2175 2.349 . S
Eu2153 O2162 2.373 . S
Eu2153 O2166 2.488 . S
Eu2153 O2167 2.471 . S
Eu2153 O2168 2.349 . S
Eu2153 O2171 2.392 . S
Eu2153 O2172 2.418 . S
Eu2153 C2182 2.828 . S
C2154 O2172 1.244 . S
C2154 O2175 1.265 . S
C2155 C2156 1.379 . S
C2155 C2159 1.373 . S
C2155 C2161 1.505 . S
C2156 C2155 1.379 . S
C2156 C2158 1.369 . S
C2156 H2184 0.930 . S
C2157 C2159 1.383 . S
C2157 C2160 1.382 . S
C2157 H2185 0.930 . S
C2158 C2156 1.369 . S
C2158 C2160 1.392 . S
C2158 H2186 0.930 . S
C2159 C2155 1.373 . S
C2159 C2157 1.383 . S
C2159 H2187 0.931 . S
C2160 C2157 1.382 . S
C2160 C2158 1.392 . S
C2161 Eu2152 2.828 . S
C2161 C2155 1.505 . S
C2161 O2173 1.249 . S
C2161 O2174 1.244 . S
O2162 Eu2153 2.373 . S
O2162 C2164 1.258 . S
O2163 Eu2152 2.392 . S
O2163 C2164 1.242 . S
C2164 O2162 1.258 . S
C2164 O2163 1.242 . S
O2165 Eu2152 2.418 . S
O2165 C2169 1.244 . S
O2166 Eu2153 2.488 . S
O2166 C2182 1.249 . S
O2167 Eu2153 2.471 . S
O2167 C2182 1.244 . S
O2168 Eu2153 2.349 . S
O2168 C2169 1.265 . S
C2169 O2165 1.244 . S
C2169 O2168 1.265 . S
O2170 Eu2152 2.373 . S
O2170 C2183 1.258 . S
O2171 Eu2153 2.392 . S
O2171 C2183 1.242 . S
O2172 Eu2153 2.418 . S
O2172 C2154 1.244 . S
O2173 Eu2152 2.488 . S
O2173 C2161 1.249 . S
O2174 Eu2152 2.471 . S
O2174 C2161 1.244 . S
O2175 Eu2152 2.349 . S
O2175 C2154 1.265 . S
C2176 C2177 1.379 . S
C2176 C2180 1.373 . S
C2176 C2182 1.505 . S
C2177 C2176 1.379 . S
C2177 C2179 1.369 . S
C2177 H2188 0.930 . S
C2178 C2180 1.383 . S
C2178 C2181 1.382 . S
C2178 H2189 0.930 . S
C2179 C2177 1.369 . S
C2179 C2181 1.392 . S
C2179 H2190 0.930 . S
C2180 C2176 1.373 . S
C2180 C2178 1.383 . S
C2180 H2191 0.931 . S
C2181 C2178 1.382 . S
C2181 C2179 1.392 . S
C2182 Eu2153 2.828 . S
C2182 O2166 1.249 . S
C2182 O2167 1.244 . S
C2182 C2176 1.505 . S
C2183 O2170 1.258 . S
C2183 O2171 1.242 . S
H2184 C2156 0.930 . S
H2185 C2157 0.930 . S
H2186 C2158 0.930 . S
H2187 C2159 0.931 . S
H2188 C2177 0.930 . S
H2189 C2178 0.930 . S
H2190 C2179 0.930 . S
H2191 C2180 0.931 . S
Eu2192 C2201 2.828 . S
Eu2192 O2203 2.392 . S
Eu2192 O2205 2.418 . S
Eu2192 O2210 2.363 1_545 S
Eu2192 O2213 2.488 . S
Eu2192 O2214 2.471 . S
Eu2192 O2215 2.349 . S
Eu2193 O2202 2.373 . S
Eu2193 O2206 2.488 . S
Eu2193 O2207 2.471 . S
Eu2193 O2208 2.349 . S
Eu2193 O2211 2.392 1_545 S
Eu2193 O2212 2.418 . S
Eu2193 C2222 2.828 . S
C2194 O2212 1.244 . S
C2194 O2215 1.265 . S
C2195 C2196 1.379 . S
C2195 C2199 1.373 . S
C2195 C2201 1.505 1_565 S
C2196 C2195 1.379 . S
C2196 C2198 1.369 . S
C2196 H2224 0.930 . S
C2197 C2199 1.383 . S
C2197 C2200 1.382 . S
C2197 H2225 0.930 . S
C2198 C2196 1.369 . S
C2198 C2200 1.392 . S
C2198 H2226 0.930 . S
C2199 C2195 1.373 . S
C2199 C2197 1.383 . S
C2199 H2227 0.931 1_565 S
C2200 C2197 1.382 . S
C2200 C2198 1.392 . S
C2201 Eu2192 2.828 . S
C2201 C2195 1.505 1_545 S
C2201 O2213 1.249 . S
C2201 O2214 1.244 . S
O2202 Eu2193 2.373 . S
O2202 C2204 1.258 . S
O2203 Eu2192 2.392 . S
O2203 C2204 1.242 . S
C2204 O2202 1.258 . S
C2204 O2203 1.242 . S
O2205 Eu2192 2.418 . S
O2205 C2209 1.244 . S
O2206 Eu2193 2.488 . S
O2206 C2222 1.249 . S
O2207 Eu2193 2.471 . S
O2207 C2222 1.244 . S
O2208 Eu2193 2.349 . S
O2208 C2209 1.265 . S
C2209 O2205 1.244 . S
C2209 O2208 1.265 . S
O2210 Eu2192 2.363 1_565 S
O2210 C2223 1.264 . S
O2211 Eu2193 2.392 1_565 S
O2211 C2223 1.242 . S
O2212 Eu2193 2.418 . S
O2212 C2194 1.244 . S
O2213 Eu2192 2.488 . S
O2213 C2201 1.249 . S
O2214 Eu2192 2.471 . S
O2214 C2201 1.244 . S
O2215 Eu2192 2.349 . S
O2215 C2194 1.265 . S
C2216 C2217 1.379 . S
C2216 C2220 1.373 . S
C2216 C2222 1.505 . S
C2217 C2216 1.379 . S
C2217 C2219 1.369 . S
C2217 H2228 0.930 . S
C2218 C2220 1.383 . S
C2218 C2221 1.382 . S
C2218 H2229 0.930 . S
C2219 C2217 1.369 . S
C2219 C2221 1.392 . S
C2219 H2230 0.930 . S
C2220 C2216 1.373 . S
C2220 C2218 1.383 . S
C2220 H2231 0.931 . S
C2221 C2218 1.382 . S
C2221 C2219 1.392 . S
C2222 Eu2193 2.828 . S
C2222 O2206 1.249 . S
C2222 O2207 1.244 . S
C2222 C2216 1.505 . S
C2223 O2210 1.264 . S
C2223 O2211 1.242 . S
H2224 C2196 0.930 . S
H2225 C2197 0.930 . S
H2226 C2198 0.930 . S
H2227 C2199 0.931 1_545 S
H2228 C2217 0.930 . S
H2229 C2218 0.930 . S
H2230 C2219 0.930 . S
H2231 C2220 0.931 . S
Eu2232 C2241 2.828 . S
Eu2232 O2243 2.392 . S
Eu2232 O2245 2.418 . S
Eu2232 O2250 2.373 . S
Eu2232 O2253 2.488 . S
Eu2232 O2254 2.471 . S
Eu2232 O2255 2.349 . S
Eu2233 O2242 2.373 . S
Eu2233 O2246 2.488 . S
Eu2233 O2247 2.471 . S
Eu2233 O2248 2.349 . S
Eu2233 O2251 2.392 . S
Eu2233 O2252 2.418 . S
Eu2233 C2262 2.828 . S
C2234 O2252 1.244 . S
C2234 O2255 1.265 . S
C2235 C2236 1.379 . S
C2235 C2239 1.373 . S
C2235 C2241 1.505 . S
C2236 C2235 1.379 . S
C2236 C2238 1.369 . S
C2236 H2264 0.930 . S
C2237 C2239 1.383 . S
C2237 C2240 1.382 . S
C2237 H2265 0.930 . S
C2238 C2236 1.369 . S
C2238 C2240 1.392 . S
C2238 H2266 0.930 . S
C2239 C2235 1.373 . S
C2239 C2237 1.383 . S
C2239 H2267 0.931 . S
C2240 C2237 1.382 . S
C2240 C2238 1.392 . S
C2241 Eu2232 2.828 . S
C2241 C2235 1.505 . S
C2241 O2253 1.249 . S
C2241 O2254 1.244 . S
O2242 Eu2233 2.373 . S
O2242 C2244 1.258 . S
O2243 Eu2232 2.392 . S
O2243 C2244 1.242 . S
C2244 O2242 1.258 . S
C2244 O2243 1.242 . S
O2245 Eu2232 2.418 . S
O2245 C2249 1.244 . S
O2246 Eu2233 2.488 . S
O2246 C2262 1.249 . S
O2247 Eu2233 2.471 . S
O2247 C2262 1.244 . S
O2248 Eu2233 2.349 . S
O2248 C2249 1.265 . S
C2249 O2245 1.244 . S
C2249 O2248 1.265 . S
O2250 Eu2232 2.373 . S
O2250 C2263 1.258 . S
O2251 Eu2233 2.392 . S
O2251 C2263 1.242 . S
O2252 Eu2233 2.418 . S
O2252 C2234 1.244 . S
O2253 Eu2232 2.488 . S
O2253 C2241 1.249 . S
O2254 Eu2232 2.471 . S
O2254 C2241 1.244 . S
O2255 Eu2232 2.349 . S
O2255 C2234 1.265 . S
C2256 C2257 1.379 . S
C2256 C2260 1.373 . S
C2256 C2262 1.505 . S
C2257 C2256 1.379 . S
C2257 C2259 1.369 . S
C2257 H2268 0.930 . S
C2258 C2260 1.383 . S
C2258 C2261 1.382 . S
C2258 H2269 0.930 . S
C2259 C2257 1.369 . S
C2259 C2261 1.392 . S
C2259 H2270 0.930 . S
C2260 C2256 1.373 . S
C2260 C2258 1.383 . S
C2260 H2271 0.931 . S
C2261 C2258 1.382 . S
C2261 C2259 1.392 . S
C2262 Eu2233 2.828 . S
C2262 O2246 1.249 . S
C2262 O2247 1.244 . S
C2262 C2256 1.505 . S
C2263 O2250 1.258 . S
C2263 O2251 1.242 . S
H2264 C2236 0.930 . S
H2265 C2237 0.930 . S
H2266 C2238 0.930 . S
H2267 C2239 0.931 . S
H2268 C2257 0.930 . S
H2269 C2258 0.930 . S
H2270 C2259 0.930 . S
H2271 C2260 0.931 . S
Eu2272 C2281 2.828 . S
Eu2272 O2283 2.392 . S
Eu2272 O2285 2.399 1_455 S
Eu2272 O2290 2.373 . S
Eu2272 O2293 2.488 . S
Eu2272 O2294 2.471 . S
Eu2272 O2295 2.349 . S
Eu2273 O2282 2.373 . S
Eu2273 O2286 2.488 1_545 S
Eu2273 O2287 2.471 1_545 S
Eu2273 O2288 2.349 . S
Eu2273 O2291 2.392 . S
Eu2273 O2292 2.418 . S
Eu2273 C2302 2.828 1_545 S
C2274 O2292 1.244 . S
C2274 O2295 1.265 . S
C2275 C2276 1.379 . S
C2275 C2279 1.373 . S
C2275 C2281 1.505 . S
C2276 C2275 1.379 . S
C2276 C2278 1.369 . S
C2276 H2304 0.930 . S
C2277 C2279 1.383 . S
C2277 C2280 1.382 . S
C2277 H2305 0.930 1_455 S
C2278 C2276 1.369 . S
C2278 C2280 1.392 . S
C2278 H2306 0.930 . S
C2279 C2275 1.373 . S
C2279 C2277 1.383 . S
C2279 H2307 0.916 1_455 S
C2280 C2277 1.382 . S
C2280 C2278 1.392 . S
C2281 Eu2272 2.828 . S
C2281 C2275 1.505 . S
C2281 O2293 1.249 . S
C2281 O2294 1.244 . S
O2282 Eu2273 2.373 . S
O2282 C2284 1.258 . S
O2283 Eu2272 2.392 . S
O2283 C2284 1.242 . S
C2284 O2282 1.258 . S
C2284 O2283 1.242 . S
O2285 Eu2272 2.399 1_655 S
O2285 C2289 1.236 1_655 S
O2286 Eu2273 2.488 1_565 S
O2286 C2302 1.249 . S
O2287 Eu2273 2.471 1_565 S
O2287 C2302 1.244 . S
O2288 Eu2273 2.349 . S
O2288 C2289 1.265 . S
C2289 O2285 1.236 1_455 S
C2289 O2288 1.265 . S
O2290 Eu2272 2.373 . S
O2290 C2303 1.258 . S
O2291 Eu2273 2.392 . S
O2291 C2303 1.242 . S
O2292 Eu2273 2.418 . S
O2292 C2274 1.244 . S
O2293 Eu2272 2.488 . S
O2293 C2281 1.249 . S
O2294 Eu2272 2.471 . S
O2294 C2281 1.244 . S
O2295 Eu2272 2.349 . S
O2295 C2274 1.265 . S
C2296 C2297 1.379 . S
C2296 C2300 1.373 . S
C2296 C2302 1.505 . S
C2297 C2296 1.379 . S
C2297 C2299 1.369 . S
C2297 H2308 0.930 . S
C2298 C2300 1.383 . S
C2298 C2301 1.382 . S
C2298 H2309 0.930 . S
C2299 C2297 1.369 . S
C2299 C2301 1.392 . S
C2299 H2310 0.930 . S
C2300 C2296 1.373 . S
C2300 C2298 1.383 . S
C2300 H2311 0.931 . S
C2301 C2298 1.382 . S
C2301 C2299 1.392 . S
C2302 Eu2273 2.828 1_565 S
C2302 O2286 1.249 . S
C2302 O2287 1.244 . S
C2302 C2296 1.505 . S
C2303 O2290 1.258 . S
C2303 O2291 1.242 . S
H2304 C2276 0.930 . S
H2305 C2277 0.930 1_655 S
H2306 C2278 0.930 . S
H2307 C2279 0.916 1_655 S
H2308 C2297 0.930 . S
H2309 C2298 0.930 . S
H2310 C2299 0.930 . S
H2311 C2300 0.931 . S
Eu2312 C2321 2.828 . S
Eu2312 O2323 2.392 . S
Eu2312 O2325 2.418 . S
Eu2312 O2330 2.373 . S
Eu2312 O2333 2.488 . S
Eu2312 O2334 2.471 . S
Eu2312 O2335 2.349 . S
Eu2313 O2322 2.373 . S
Eu2313 O2326 2.488 . S
Eu2313 O2327 2.471 . S
Eu2313 O2328 2.349 . S
Eu2313 O2331 2.392 . S
Eu2313 O2332 2.418 . S
Eu2313 C2342 2.828 . S
C2314 O2332 1.244 . S
C2314 O2335 1.265 . S
C2315 C2316 1.379 . S
C2315 C2319 1.373 . S
C2315 C2321 1.505 . S
C2316 C2315 1.379 . S
C2316 C2318 1.369 . S
C2316 H2344 0.930 . S
C2317 C2319 1.383 . S
C2317 C2320 1.382 . S
C2317 H2345 0.930 . S
C2318 C2316 1.369 . S
C2318 C2320 1.392 . S
C2318 H2346 0.930 . S
C2319 C2315 1.373 . S
C2319 C2317 1.383 . S
C2319 H2347 0.931 . S
C2320 C2317 1.382 . S
C2320 C2318 1.392 . S
C2321 Eu2312 2.828 . S
C2321 C2315 1.505 . S
C2321 O2333 1.249 . S
C2321 O2334 1.244 . S
O2322 Eu2313 2.373 . S
O2322 C2324 1.258 . S
O2323 Eu2312 2.392 . S
O2323 C2324 1.242 . S
C2324 O2322 1.258 . S
C2324 O2323 1.242 . S
O2325 Eu2312 2.418 . S
O2325 C2329 1.244 . S
O2326 Eu2313 2.488 . S
O2326 C2342 1.249 . S
O2327 Eu2313 2.471 . S
O2327 C2342 1.244 . S
O2328 Eu2313 2.349 . S
O2328 C2329 1.265 . S
C2329 O2325 1.244 . S
C2329 O2328 1.265 . S
O2330 Eu2312 2.373 . S
O2330 C2343 1.258 . S
O2331 Eu2313 2.392 . S
O2331 C2343 1.242 . S
O2332 Eu2313 2.418 . S
O2332 C2314 1.244 . S
O2333 Eu2312 2.488 . S
O2333 C2321 1.249 . S
O2334 Eu2312 2.471 . S
O2334 C2321 1.244 . S
O2335 Eu2312 2.349 . S
O2335 C2314 1.265 . S
C2336 C2337 1.379 . S
C2336 C2340 1.373 . S
C2336 C2342 1.505 . S
C2337 C2336 1.379 . S
C2337 C2339 1.369 . S
C2337 H2348 0.930 . S
C2338 C2340 1.383 . S
C2338 C2341 1.382 . S
C2338 H2349 0.930 . S
C2339 C2337 1.369 . S
C2339 C2341 1.392 . S
C2339 H2350 0.930 . S
C2340 C2336 1.373 . S
C2340 C2338 1.383 . S
C2340 H2351 0.931 . S
C2341 C2338 1.382 . S
C2341 C2339 1.392 . S
C2342 Eu2313 2.828 . S
C2342 O2326 1.249 . S
C2342 O2327 1.244 . S
C2342 C2336 1.505 . S
C2343 O2330 1.258 . S
C2343 O2331 1.242 . S
H2344 C2316 0.930 . S
H2345 C2317 0.930 . S
H2346 C2318 0.930 . S
H2347 C2319 0.931 . S
H2348 C2337 0.930 . S
H2349 C2338 0.930 . S
H2350 C2339 0.930 . S
H2351 C2340 0.931 . S
Eu2352 C2361 2.828 . S
Eu2352 O2363 2.392 . S
Eu2352 O2365 2.418 1_545 S
Eu2352 O2370 2.373 . S
Eu2352 O2373 2.499 . S
Eu2352 O2374 2.471 . S
Eu2352 O2375 2.349 . S
Eu2353 O2362 2.373 . S
Eu2353 O2366 2.488 . S
Eu2353 O2367 2.471 . S
Eu2353 O2368 2.349 . S
Eu2353 O2371 2.392 . S
Eu2353 O2372 2.418 1_556 S
Eu2353 C2382 2.828 . S
C2354 O2372 1.244 . S
C2354 O2375 1.265 . S
C2355 C2356 1.379 . S
C2355 C2359 1.373 1_545 S
C2355 C2361 1.505 . S
C2356 C2355 1.379 . S
C2356 C2358 1.369 . S
C2356 H2384 0.930 . S
C2357 C2359 1.383 . S
C2357 C2360 1.347 1_565 S
C2357 H2385 0.930 . S
C2358 C2356 1.369 . S
C2358 C2360 1.439 . S
C2358 H2386 0.930 . S
C2359 C2355 1.373 1_565 S
C2359 C2357 1.383 . S
C2359 H2387 0.931 . S
C2360 C2357 1.347 1_545 S
C2360 C2358 1.439 . S
C2361 Eu2352 2.828 . S
C2361 C2355 1.505 . S
C2361 O2373 1.261 . S
C2361 O2374 1.244 . S
O2362 Eu2353 2.373 . S
O2362 C2364 1.258 1_556 S
O2363 Eu2352 2.392 . S
O2363 C2364 1.242 . S
C2364 O2362 1.258 1_554 S
C2364 O2363 1.242 . S
O2365 Eu2352 2.418 1_565 S
O2365 C2369 1.212 1_554 S
O2366 Eu2353 2.488 . S
O2366 C2382 1.249 . S
O2367 Eu2353 2.471 . S
O2367 C2382 1.244 . S
O2368 Eu2353 2.349 . S
O2368 C2369 1.277 1_545 S
C2369 O2365 1.212 1_556 S
C2369 O2368 1.277 1_565 S
O2370 Eu2352 2.373 . S
O2370 C2383 1.258 . S
O2371 Eu2353 2.392 . S
O2371 C2383 1.242 1_556 S
O2372 Eu2353 2.418 1_554 S
O2372 C2354 1.244 . S
O2373 Eu2352 2.499 . S
O2373 C2361 1.261 . S
O2374 Eu2352 2.471 . S
O2374 C2361 1.244 . S
O2375 Eu2352 2.349 . S
O2375 C2354 1.265 . S
C2376 C2377 1.379 . S
C2376 C2380 1.373 . S
C2376 C2382 1.505 . S
C2377 C2376 1.379 . S
C2377 C2379 1.369 . S
C2377 H2388 0.930 . S
C2378 C2380 1.383 . S
C2378 C2381 1.382 . S
C2378 H2389 0.930 . S
C2379 C2377 1.369 . S
C2379 C2381 1.392 . S
C2379 H2390 0.930 . S
C2380 C2376 1.373 . S
C2380 C2378 1.383 . S
C2380 H2391 0.931 . S
C2381 C2378 1.382 . S
C2381 C2379 1.392 . S
C2382 Eu2353 2.828 . S
C2382 O2366 1.249 . S
C2382 O2367 1.244 . S
C2382 C2376 1.505 . S
C2383 O2370 1.258 . S
C2383 O2371 1.242 1_554 S
H2384 C2356 0.930 . S
H2385 C2357 0.930 . S
H2386 C2358 0.930 . S
H2387 C2359 0.931 . S
H2388 C2377 0.930 . S
H2389 C2378 0.930 . S
H2390 C2379 0.930 . S
H2391 C2380 0.931 . S
Eu2392 C2401 2.828 . S
Eu2392 O2403 2.392 . S
Eu2392 O2405 2.418 . S
Eu2392 O2410 2.373 . S
Eu2392 O2413 2.488 . S
Eu2392 O2414 2.471 . S
Eu2392 O2415 2.349 . S
Eu2393 O2402 2.373 . S
Eu2393 O2406 2.488 . S
Eu2393 O2407 2.471 . S
Eu2393 O2408 2.349 . S
Eu2393 O2411 2.392 . S
Eu2393 O2412 2.418 . S
Eu2393 C2422 2.828 . S
C2394 O2412 1.244 . S
C2394 O2415 1.265 . S
C2395 C2396 1.379 . S
C2395 C2399 1.373 . S
C2395 C2401 1.505 . S
C2396 C2395 1.379 . S
C2396 C2398 1.369 . S
C2396 H2424 0.930 . S
C2397 C2399 1.383 . S
C2397 C2400 1.382 . S
C2397 H2425 0.930 . S
C2398 C2396 1.369 . S
C2398 C2400 1.392 . S
C2398 H2426 0.930 . S
C2399 C2395 1.373 . S
C2399 C2397 1.383 . S
C2399 H2427 0.931 . S
C2400 C2397 1.382 . S
C2400 C2398 1.392 . S
C2401 Eu2392 2.828 . S
C2401 C2395 1.505 . S
C2401 O2413 1.249 . S
C2401 O2414 1.244 . S
O2402 Eu2393 2.373 . S
O2402 C2404 1.258 . S
O2403 Eu2392 2.392 . S
O2403 C2404 1.242 . S
C2404 O2402 1.258 . S
C2404 O2403 1.242 . S
O2405 Eu2392 2.418 . S
O2405 C2409 1.244 . S
O2406 Eu2393 2.488 . S
O2406 C2422 1.249 . S
O2407 Eu2393 2.471 . S
O2407 C2422 1.244 . S
O2408 Eu2393 2.349 . S
O2408 C2409 1.265 . S
C2409 O2405 1.244 . S
C2409 O2408 1.265 . S
O2410 Eu2392 2.373 . S
O2410 C2423 1.258 . S
O2411 Eu2393 2.392 . S
O2411 C2423 1.242 . S
O2412 Eu2393 2.418 . S
O2412 C2394 1.244 . S
O2413 Eu2392 2.488 . S
O2413 C2401 1.249 . S
O2414 Eu2392 2.471 . S
O2414 C2401 1.244 . S
O2415 Eu2392 2.349 . S
O2415 C2394 1.265 . S
C2416 C2417 1.379 . S
C2416 C2420 1.373 . S
C2416 C2422 1.505 . S
C2417 C2416 1.379 . S
C2417 C2419 1.369 . S
C2417 H2428 0.930 . S
C2418 C2420 1.383 . S
C2418 C2421 1.382 . S
C2418 H2429 0.930 . S
C2419 C2417 1.369 . S
C2419 C2421 1.392 . S
C2419 H2430 0.930 . S
C2420 C2416 1.373 . S
C2420 C2418 1.383 . S
C2420 H2431 0.931 . S
C2421 C2418 1.382 . S
C2421 C2419 1.392 . S
C2422 Eu2393 2.828 . S
C2422 O2406 1.249 . S
C2422 O2407 1.244 . S
C2422 C2416 1.505 . S
C2423 O2410 1.258 . S
C2423 O2411 1.242 . S
H2424 C2396 0.930 . S
H2425 C2397 0.930 . S
H2426 C2398 0.930 . S
H2427 C2399 0.931 . S
H2428 C2417 0.930 . S
H2429 C2418 0.930 . S
H2430 C2419 0.930 . S
H2431 C2420 0.931 . S
Eu2432 C2441 2.828 . S
Eu2432 O2443 2.392 . S
Eu2432 O2445 2.418 . S
Eu2432 O2450 2.373 1_554 S
Eu2432 O2453 2.488 . S
Eu2432 O2454 2.471 . S
Eu2432 O2455 2.349 . S
Eu2433 O2442 2.409 . S
Eu2433 O2446 2.502 . S
Eu2433 O2447 2.495 . S
Eu2433 O2448 2.362 . S
Eu2433 O2451 2.361 1_554 S
Eu2433 O2452 2.414 . S
Eu2433 C2462 2.849 . S
C2434 O2452 1.244 . S
C2434 O2455 1.265 . S
C2435 C2436 1.379 . S
C2435 C2439 1.373 . S
C2435 C2441 1.505 1_556 S
C2436 C2435 1.379 . S
C2436 C2438 1.369 . S
C2436 H2464 0.930 . S
C2437 C2439 1.383 . S
C2437 C2440 1.382 . S
C2437 H2465 0.930 . S
C2438 C2436 1.369 . S
C2438 C2440 1.392 . S
C2438 H2466 0.930 . S
C2439 C2435 1.373 . S
C2439 C2437 1.383 . S
C2439 H2467 0.931 1_556 S
C2440 C2437 1.382 . S
C2440 C2438 1.392 . S
C2441 Eu2432 2.828 . S
C2441 C2435 1.505 1_554 S
C2441 O2453 1.249 . S
C2441 O2454 1.244 . S
O2442 Eu2433 2.409 . S
O2442 C2444 1.258 . S
O2443 Eu2432 2.392 . S
O2443 C2444 1.242 . S
C2444 O2442 1.258 . S
C2444 O2443 1.242 . S
O2445 Eu2432 2.418 . S
O2445 C2449 1.244 . S
O2446 Eu2433 2.502 . S
O2446 C2462 1.249 . S
O2447 Eu2433 2.495 . S
O2447 C2462 1.244 . S
O2448 Eu2433 2.362 . S
O2448 C2449 1.265 . S
C2449 O2445 1.244 . S
C2449 O2448 1.265 . S
O2450 Eu2432 2.373 1_556 S
O2450 C2463 1.258 . S
O2451 Eu2433 2.361 1_556 S
O2451 C2463 1.242 . S
O2452 Eu2433 2.414 . S
O2452 C2434 1.244 . S
O2453 Eu2432 2.488 . S
O2453 C2441 1.249 . S
O2454 Eu2432 2.471 . S
O2454 C2441 1.244 . S
O2455 Eu2432 2.349 . S
O2455 C2434 1.265 . S
C2456 C2457 1.379 . S
C2456 C2460 1.373 . S
C2456 C2462 1.505 . S
C2457 C2456 1.379 . S
C2457 C2459 1.369 . S
C2457 H2468 0.930 . S
C2458 C2460 1.383 . S
C2458 C2461 1.382 . S
C2458 H2469 0.930 . S
C2459 C2457 1.369 . S
C2459 C2461 1.392 . S
C2459 H2470 0.930 . S
C2460 C2456 1.373 . S
C2460 C2458 1.383 . S
C2460 H2471 0.931 . S
C2461 C2458 1.382 . S
C2461 C2459 1.392 . S
C2462 Eu2433 2.849 . S
C2462 O2446 1.249 . S
C2462 O2447 1.244 . S
C2462 C2456 1.505 . S
C2463 O2450 1.258 . S
C2463 O2451 1.242 . S
H2464 C2436 0.930 . S
H2465 C2437 0.930 . S
H2466 C2438 0.930 . S
H2467 C2439 0.931 1_554 S
H2468 C2457 0.930 . S
H2469 C2458 0.930 . S
H2470 C2459 0.930 . S
H2471 C2460 0.931 . S
Eu2472 C2481 2.828 . S
Eu2472 O2483 2.392 . S
Eu2472 O2485 2.418 . S
Eu2472 O2490 2.373 . S
Eu2472 O2493 2.488 . S
Eu2472 O2494 2.471 . S
Eu2472 O2495 2.349 . S
Eu2473 O2482 2.373 . S
Eu2473 O2486 2.488 . S
Eu2473 O2487 2.471 . S
Eu2473 O2488 2.349 . S
Eu2473 O2491 2.392 . S
Eu2473 O2492 2.418 . S
Eu2473 C2502 2.828 . S
C2474 O2492 1.244 . S
C2474 O2495 1.265 . S
C2475 C2476 1.379 . S
C2475 C2479 1.373 . S
C2475 C2481 1.505 . S
C2476 C2475 1.379 . S
C2476 C2478 1.369 . S
C2476 H2504 0.930 . S
C2477 C2479 1.383 . S
C2477 C2480 1.382 . S
C2477 H2505 0.930 . S
C2478 C2476 1.369 . S
C2478 C2480 1.392 . S
C2478 H2506 0.930 . S
C2479 C2475 1.373 . S
C2479 C2477 1.383 . S
C2479 H2507 0.931 . S
C2480 C2477 1.382 . S
C2480 C2478 1.392 . S
C2481 Eu2472 2.828 . S
C2481 C2475 1.505 . S
C2481 O2493 1.249 . S
C2481 O2494 1.244 . S
O2482 Eu2473 2.373 . S
O2482 C2484 1.258 . S
O2483 Eu2472 2.392 . S
O2483 C2484 1.242 . S
C2484 O2482 1.258 . S
C2484 O2483 1.242 . S
O2485 Eu2472 2.418 . S
O2485 C2489 1.244 . S
O2486 Eu2473 2.488 . S
O2486 C2502 1.249 . S
O2487 Eu2473 2.471 . S
O2487 C2502 1.244 . S
O2488 Eu2473 2.349 . S
O2488 C2489 1.265 . S
C2489 O2485 1.244 . S
C2489 O2488 1.265 . S
O2490 Eu2472 2.373 . S
O2490 C2503 1.258 . S
O2491 Eu2473 2.392 . S
O2491 C2503 1.242 . S
O2492 Eu2473 2.418 . S
O2492 C2474 1.244 . S
O2493 Eu2472 2.488 . S
O2493 C2481 1.249 . S
O2494 Eu2472 2.471 . S
O2494 C2481 1.244 . S
O2495 Eu2472 2.349 . S
O2495 C2474 1.265 . S
C2496 C2497 1.379 . S
C2496 C2500 1.373 . S
C2496 C2502 1.505 . S
C2497 C2496 1.379 . S
C2497 C2499 1.369 . S
C2497 H2508 0.930 . S
C2498 C2500 1.383 . S
C2498 C2501 1.382 . S
C2498 H2509 0.930 . S
C2499 C2497 1.369 . S
C2499 C2501 1.392 . S
C2499 H2510 0.930 . S
C2500 C2496 1.373 . S
C2500 C2498 1.383 . S
C2500 H2511 0.931 . S
C2501 C2498 1.382 . S
C2501 C2499 1.392 . S
C2502 Eu2473 2.828 . S
C2502 O2486 1.249 . S
C2502 O2487 1.244 . S
C2502 C2496 1.505 . S
C2503 O2490 1.258 . S
C2503 O2491 1.242 . S
H2504 C2476 0.930 . S
H2505 C2477 0.930 . S
H2506 C2478 0.930 . S
H2507 C2479 0.931 . S
H2508 C2497 0.930 . S
H2509 C2498 0.930 . S
H2510 C2499 0.930 . S
H2511 C2500 0.931 . S
Eu2512 C2521 2.828 . S
Eu2512 O2523 2.392 . S
Eu2512 O2525 2.418 . S
Eu2512 O2530 2.373 . S
Eu2512 O2533 2.488 . S
Eu2512 O2534 2.471 . S
Eu2512 O2535 2.349 . S
Eu2513 O2522 2.373 . S
Eu2513 O2526 2.488 . S
Eu2513 O2527 2.471 . S
Eu2513 O2528 2.349 . S
Eu2513 O2531 2.392 . S
Eu2513 O2532 2.418 . S
Eu2513 C2542 2.828 . S
C2514 O2532 1.244 . S
C2514 O2535 1.265 . S
C2515 C2516 1.379 1_455 S
C2515 C2519 1.373 . S
C2515 C2521 1.505 . S
C2516 C2515 1.379 1_655 S
C2516 C2518 1.369 . S
C2516 H2544 0.930 . S
C2517 C2519 1.351 1_655 S
C2517 C2520 1.426 . S
C2517 H2545 0.923 . S
C2518 C2516 1.369 . S
C2518 C2520 1.392 . S
C2518 H2546 0.930 . S
C2519 C2515 1.373 . S
C2519 C2517 1.351 1_455 S
C2519 H2547 0.931 . S
C2520 C2517 1.426 . S
C2520 C2518 1.392 . S
C2521 Eu2512 2.828 . S
C2521 C2515 1.505 . S
C2521 O2533 1.249 . S
C2521 O2534 1.244 . S
O2522 Eu2513 2.373 . S
O2522 C2524 1.258 . S
O2523 Eu2512 2.392 . S
O2523 C2524 1.242 . S
C2524 O2522 1.258 . S
C2524 O2523 1.242 . S
O2525 Eu2512 2.418 . S
O2525 C2529 1.244 . S
O2526 Eu2513 2.488 . S
O2526 C2542 1.249 . S
O2527 Eu2513 2.471 . S
O2527 C2542 1.244 . S
O2528 Eu2513 2.349 . S
O2528 C2529 1.265 . S
C2529 O2525 1.244 . S
C2529 O2528 1.265 . S
O2530 Eu2512 2.373 . S
O2530 C2543 1.251 1_455 S
O2531 Eu2513 2.392 . S
O2531 C2543 1.240 1_455 S
O2532 Eu2513 2.418 . S
O2532 C2514 1.244 . S
O2533 Eu2512 2.488 . S
O2533 C2521 1.249 . S
O2534 Eu2512 2.471 . S
O2534 C2521 1.244 . S
O2535 Eu2512 2.349 . S
O2535 C2514 1.265 . S
C2536 C2537 1.379 . S
C2536 C2540 1.373 . S
C2536 C2542 1.505 . S
C2537 C2536 1.379 . S
C2537 C2539 1.369 . S
C2537 H2548 0.930 . S
C2538 C2540 1.383 . S
C2538 C2541 1.382 . S
C2538 H2549 0.930 . S
C2539 C2537 1.369 . S
C2539 C2541 1.392 . S
C2539 H2550 0.930 . S
C2540 C2536 1.373 . S
C2540 C2538 1.383 . S
C2540 H2551 0.931 . S
C2541 C2538 1.382 . S
C2541 C2539 1.392 . S
C2542 Eu2513 2.828 . S
C2542 O2526 1.249 . S
C2542 O2527 1.244 . S
C2542 C2536 1.505 . S
C2543 O2530 1.251 1_655 S
C2543 O2531 1.240 1_655 S
H2544 C2516 0.930 . S
H2545 C2517 0.923 . S
H2546 C2518 0.930 . S
H2547 C2519 0.931 . S
H2548 C2537 0.930 . S
H2549 C2538 0.930 . S
H2550 C2539 0.930 . S
H2551 C2540 0.931 . S
Eu2552 C2561 2.828 . S
Eu2552 O2563 2.392 . S
Eu2552 O2565 2.418 . S
Eu2552 O2570 2.373 . S
Eu2552 O2573 2.488 . S
Eu2552 O2574 2.471 . S
Eu2552 O2575 2.349 . S
Eu2553 O2562 2.373 . S
Eu2553 O2566 2.488 . S
Eu2553 O2567 2.471 . S
Eu2553 O2568 2.349 . S
Eu2553 O2571 2.392 . S
Eu2553 O2572 2.418 . S
Eu2553 C2582 2.828 . S
C2554 O2572 1.244 . S
C2554 O2575 1.265 . S
C2555 C2556 1.379 . S
C2555 C2559 1.373 . S
C2555 C2561 1.505 . S
C2556 C2555 1.379 . S
C2556 C2558 1.369 . S
C2556 H2584 0.930 . S
C2557 C2559 1.383 . S
C2557 C2560 1.382 . S
C2557 H2585 0.930 . S
C2558 C2556 1.369 . S
C2558 C2560 1.392 . S
C2558 H2586 0.930 . S
C2559 C2555 1.373 . S
C2559 C2557 1.383 . S
C2559 H2587 0.931 . S
C2560 C2557 1.382 . S
C2560 C2558 1.392 . S
C2561 Eu2552 2.828 . S
C2561 C2555 1.505 . S
C2561 O2573 1.249 . S
C2561 O2574 1.244 . S
O2562 Eu2553 2.373 . S
O2562 C2564 1.258 . S
O2563 Eu2552 2.392 . S
O2563 C2564 1.242 . S
C2564 O2562 1.258 . S
C2564 O2563 1.242 . S
O2565 Eu2552 2.418 . S
O2565 C2569 1.244 . S
O2566 Eu2553 2.488 . S
O2566 C2582 1.249 . S
O2567 Eu2553 2.471 . S
O2567 C2582 1.244 . S
O2568 Eu2553 2.349 . S
O2568 C2569 1.265 . S
C2569 O2565 1.244 . S
C2569 O2568 1.265 . S
O2570 Eu2552 2.373 . S
O2570 C2583 1.258 . S
O2571 Eu2553 2.392 . S
O2571 C2583 1.242 . S
O2572 Eu2553 2.418 . S
O2572 C2554 1.244 . S
O2573 Eu2552 2.488 . S
O2573 C2561 1.249 . S
O2574 Eu2552 2.471 . S
O2574 C2561 1.244 . S
O2575 Eu2552 2.349 . S
O2575 C2554 1.265 . S
C2576 C2577 1.379 . S
C2576 C2580 1.373 . S
C2576 C2582 1.505 . S
C2577 C2576 1.379 . S
C2577 C2579 1.369 . S
C2577 H2588 0.930 . S
C2578 C2580 1.383 . S
C2578 C2581 1.382 . S
C2578 H2589 0.930 . S
C2579 C2577 1.369 . S
C2579 C2581 1.392 . S
C2579 H2590 0.930 . S
C2580 C2576 1.373 . S
C2580 C2578 1.383 . S
C2580 H2591 0.931 . S
C2581 C2578 1.382 . S
C2581 C2579 1.392 . S
C2582 Eu2553 2.828 . S
C2582 O2566 1.249 . S
C2582 O2567 1.244 . S
C2582 C2576 1.505 . S
C2583 O2570 1.258 . S
C2583 O2571 1.242 . S
H2584 C2556 0.930 . S
H2585 C2557 0.930 . S
H2586 C2558 0.930 . S
H2587 C2559 0.931 . S
H2588 C2577 0.930 . S
H2589 C2578 0.930 . S
H2590 C2579 0.930 . S
H2591 C2580 0.931 . S
Eu2592 C2601 2.828 . S
Eu2592 O2603 2.392 . S
Eu2592 O2605 2.418 . S
Eu2592 O2610 2.373 . S
Eu2592 O2613 2.488 . S
Eu2592 O2614 2.471 . S
Eu2592 O2615 2.349 . S
Eu2593 O2602 2.373 . S
Eu2593 O2606 2.488 . S
Eu2593 O2607 2.471 . S
Eu2593 O2608 2.349 . S
Eu2593 O2611 2.392 . S
Eu2593 O2612 2.418 . S
Eu2593 C2622 2.828 . S
C2594 O2612 1.244 . S
C2594 O2615 1.265 . S
C2595 C2596 1.379 . S
C2595 C2599 1.373 . S
C2595 C2601 1.505 . S
C2596 C2595 1.379 . S
C2596 C2598 1.369 . S
C2596 H2624 0.930 . S
C2597 C2599 1.383 . S
C2597 C2600 1.382 . S
C2597 H2625 0.930 . S
C2598 C2596 1.369 . S
C2598 C2600 1.392 . S
C2598 H2626 0.930 . S
C2599 C2595 1.373 . S
C2599 C2597 1.383 . S
C2599 H2627 0.931 . S
C2600 C2597 1.382 . S
C2600 C2598 1.392 . S
C2601 Eu2592 2.828 . S
C2601 C2595 1.505 . S
C2601 O2613 1.249 . S
C2601 O2614 1.244 . S
O2602 Eu2593 2.373 . S
O2602 C2604 1.258 . S
O2603 Eu2592 2.392 . S
O2603 C2604 1.242 . S
C2604 O2602 1.258 . S
C2604 O2603 1.242 . S
O2605 Eu2592 2.418 . S
O2605 C2609 1.244 . S
O2606 Eu2593 2.488 . S
O2606 C2622 1.249 . S
O2607 Eu2593 2.471 . S
O2607 C2622 1.244 . S
O2608 Eu2593 2.349 . S
O2608 C2609 1.265 . S
C2609 O2605 1.244 . S
C2609 O2608 1.265 . S
O2610 Eu2592 2.373 . S
O2610 C2623 1.258 . S
O2611 Eu2593 2.392 . S
O2611 C2623 1.242 . S
O2612 Eu2593 2.418 . S
O2612 C2594 1.244 . S
O2613 Eu2592 2.488 . S
O2613 C2601 1.249 . S
O2614 Eu2592 2.471 . S
O2614 C2601 1.244 . S
O2615 Eu2592 2.349 . S
O2615 C2594 1.265 . S
C2616 C2617 1.379 . S
C2616 C2620 1.373 . S
C2616 C2622 1.505 . S
C2617 C2616 1.379 . S
C2617 C2619 1.369 . S
C2617 H2628 0.930 . S
C2618 C2620 1.383 . S
C2618 C2621 1.382 . S
C2618 H2629 0.930 . S
C2619 C2617 1.369 . S
C2619 C2621 1.392 . S
C2619 H2630 0.930 . S
C2620 C2616 1.373 . S
C2620 C2618 1.383 . S
C2620 H2631 0.931 . S
C2621 C2618 1.382 . S
C2621 C2619 1.392 . S
C2622 Eu2593 2.828 . S
C2622 O2606 1.249 . S
C2622 O2607 1.244 . S
C2622 C2616 1.505 . S
C2623 O2610 1.258 . S
C2623 O2611 1.242 . S
H2624 C2596 0.930 . S
H2625 C2597 0.930 . S
H2626 C2598 0.930 . S
H2627 C2599 0.931 . S
H2628 C2617 0.930 . S
H2629 C2618 0.930 . S
H2630 C2619 0.930 . S
H2631 C2620 0.931 . S
Eu2632 C2641 2.828 . S
Eu2632 O2643 2.392 . S
Eu2632 O2645 2.418 . S
Eu2632 O2650 2.373 . S
Eu2632 O2653 2.488 . S
Eu2632 O2654 2.471 . S
Eu2632 O2655 2.349 . S
Eu2633 O2642 2.373 . S
Eu2633 O2646 2.488 . S
Eu2633 O2647 2.471 . S
Eu2633 O2648 2.349 . S
Eu2633 O2651 2.392 . S
Eu2633 O2652 2.418 . S
Eu2633 C2662 2.828 . S
C2634 O2652 1.244 . S
C2634 O2655 1.265 . S
C2635 C2636 1.379 . S
C2635 C2639 1.373 . S
C2635 C2641 1.505 . S
C2636 C2635 1.379 . S
C2636 C2638 1.369 . S
C2636 H2664 0.930 . S
C2637 C2639 1.383 . S
C2637 C2640 1.382 . S
C2637 H2665 0.930 . S
C2638 C2636 1.369 . S
C2638 C2640 1.392 . S
C2638 H2666 0.930 . S
C2639 C2635 1.373 . S
C2639 C2637 1.383 . S
C2639 H2667 0.931 . S
C2640 C2637 1.382 . S
C2640 C2638 1.392 . S
C2641 Eu2632 2.828 . S
C2641 C2635 1.505 . S
C2641 O2653 1.249 . S
C2641 O2654 1.244 . S
O2642 Eu2633 2.373 . S
O2642 C2644 1.258 . S
O2643 Eu2632 2.392 . S
O2643 C2644 1.242 . S
C2644 O2642 1.258 . S
C2644 O2643 1.242 . S
O2645 Eu2632 2.418 . S
O2645 C2649 1.244 . S
O2646 Eu2633 2.488 . S
O2646 C2662 1.249 . S
O2647 Eu2633 2.471 . S
O2647 C2662 1.244 . S
O2648 Eu2633 2.349 . S
O2648 C2649 1.265 . S
C2649 O2645 1.244 . S
C2649 O2648 1.265 . S
O2650 Eu2632 2.373 . S
O2650 C2663 1.258 . S
O2651 Eu2633 2.392 . S
O2651 C2663 1.242 . S
O2652 Eu2633 2.418 . S
O2652 C2634 1.244 . S
O2653 Eu2632 2.488 . S
O2653 C2641 1.249 . S
O2654 Eu2632 2.471 . S
O2654 C2641 1.244 . S
O2655 Eu2632 2.349 . S
O2655 C2634 1.265 . S
C2656 C2657 1.379 . S
C2656 C2660 1.373 . S
C2656 C2662 1.505 . S
C2657 C2656 1.379 . S
C2657 C2659 1.369 . S
C2657 H2668 0.930 . S
C2658 C2660 1.383 . S
C2658 C2661 1.382 . S
C2658 H2669 0.930 . S
C2659 C2657 1.369 . S
C2659 C2661 1.392 . S
C2659 H2670 0.930 . S
C2660 C2656 1.373 . S
C2660 C2658 1.383 . S
C2660 H2671 0.931 . S
C2661 C2658 1.382 . S
C2661 C2659 1.392 . S
C2662 Eu2633 2.828 . S
C2662 O2646 1.249 . S
C2662 O2647 1.244 . S
C2662 C2656 1.505 . S
C2663 O2650 1.258 . S
C2663 O2651 1.242 . S
H2664 C2636 0.930 . S
H2665 C2637 0.930 . S
H2666 C2638 0.930 . S
H2667 C2639 0.931 . S
H2668 C2657 0.930 . S
H2669 C2658 0.930 . S
H2670 C2659 0.930 . S
H2671 C2660 0.931 . S
Eu2672 C2681 2.828 . S
Eu2672 O2683 2.392 . S
Eu2672 O2685 2.418 . S
Eu2672 O2690 2.373 . S
Eu2672 O2693 2.488 . S
Eu2672 O2694 2.471 . S
Eu2672 O2695 2.349 . S
Eu2673 O2682 2.373 . S
Eu2673 O2686 2.488 . S
Eu2673 O2687 2.471 . S
Eu2673 O2688 2.349 . S
Eu2673 O2691 2.392 . S
Eu2673 O2692 2.418 . S
Eu2673 C2702 2.828 . S
C2674 O2692 1.244 . S
C2674 O2695 1.265 . S
C2675 C2676 1.379 . S
C2675 C2679 1.373 . S
C2675 C2681 1.505 . S
C2676 C2675 1.379 . S
C2676 C2678 1.369 . S
C2676 H2704 0.930 . S
C2677 C2679 1.383 . S
C2677 C2680 1.382 . S
C2677 H2705 0.930 . S
C2678 C2676 1.369 . S
C2678 C2680 1.392 . S
C2678 H2706 0.930 . S
C2679 C2675 1.373 . S
C2679 C2677 1.383 . S
C2679 H2707 0.931 . S
C2680 C2677 1.382 . S
C2680 C2678 1.392 . S
C2681 Eu2672 2.828 . S
C2681 C2675 1.505 . S
C2681 O2693 1.249 . S
C2681 O2694 1.244 . S
O2682 Eu2673 2.373 . S
O2682 C2684 1.258 . S
O2683 Eu2672 2.392 . S
O2683 C2684 1.242 . S
C2684 O2682 1.258 . S
C2684 O2683 1.242 . S
O2685 Eu2672 2.418 . S
O2685 C2689 1.244 . S
O2686 Eu2673 2.488 . S
O2686 C2702 1.249 . S
O2687 Eu2673 2.471 . S
O2687 C2702 1.244 . S
O2688 Eu2673 2.349 . S
O2688 C2689 1.265 . S
C2689 O2685 1.244 . S
C2689 O2688 1.265 . S
O2690 Eu2672 2.373 . S
O2690 C2703 1.258 . S
O2691 Eu2673 2.392 . S
O2691 C2703 1.242 . S
O2692 Eu2673 2.418 . S
O2692 C2674 1.244 . S
O2693 Eu2672 2.488 . S
O2693 C2681 1.249 . S
O2694 Eu2672 2.471 . S
O2694 C2681 1.244 . S
O2695 Eu2672 2.349 . S
O2695 C2674 1.265 . S
C2696 C2697 1.379 . S
C2696 C2700 1.373 . S
C2696 C2702 1.505 . S
C2697 C2696 1.379 . S
C2697 C2699 1.369 . S
C2697 H2708 0.930 . S
C2698 C2700 1.383 . S
C2698 C2701 1.382 . S
C2698 H2709 0.930 . S
C2699 C2697 1.369 . S
C2699 C2701 1.392 . S
C2699 H2710 0.930 . S
C2700 C2696 1.373 . S
C2700 C2698 1.383 . S
C2700 H2711 0.931 . S
C2701 C2698 1.382 . S
C2701 C2699 1.392 . S
C2702 Eu2673 2.828 . S
C2702 O2686 1.249 . S
C2702 O2687 1.244 . S
C2702 C2696 1.505 . S
C2703 O2690 1.258 . S
C2703 O2691 1.242 . S
H2704 C2676 0.930 . S
H2705 C2677 0.930 . S
H2706 C2678 0.930 . S
H2707 C2679 0.931 . S
H2708 C2697 0.930 . S
H2709 C2698 0.930 . S
H2710 C2699 0.930 . S
H2711 C2700 0.931 . S
Eu2712 C2721 2.828 1_554 S
Eu2712 O2723 2.392 . S
Eu2712 O2725 2.418 1_554 S
Eu2712 O2730 2.373 1_554 S
Eu2712 O2733 2.488 1_554 S
Eu2712 O2734 2.471 . S
Eu2712 O2735 2.349 . S
Eu2713 O2722 2.373 . S
Eu2713 O2726 2.488 1_455 S
Eu2713 O2727 2.471 1_455 S
Eu2713 O2728 2.349 1_554 S
Eu2713 O2731 2.392 . S
Eu2713 O2732 2.418 . S
Eu2713 C2742 2.828 1_455 S
C2714 O2732 1.244 . S
C2714 O2735 1.265 . S
C2715 C2716 1.379 1_556 S
C2715 C2719 1.373 . S
C2715 C2721 1.505 . S
C2716 C2715 1.379 1_554 S
C2716 C2718 1.369 . S
C2716 H2744 0.930 . S
C2717 C2719 1.383 . S
C2717 C2720 1.382 . S
C2717 H2745 0.930 . S
C2718 C2716 1.369 . S
C2718 C2720 1.392 1_554 S
C2718 H2746 0.930 . S
C2719 C2715 1.373 . S
C2719 C2717 1.383 . S
C2719 H2747 0.931 . S
C2720 C2717 1.382 . S
C2720 C2718 1.392 1_556 S
C2721 Eu2712 2.828 1_556 S
C2721 C2715 1.505 . S
C2721 O2733 1.249 . S
C2721 O2734 1.244 1_556 S
O2722 Eu2713 2.373 . S
O2722 C2724 1.258 . S
O2723 Eu2712 2.392 . S
O2723 C2724 1.242 . S
C2724 O2722 1.258 . S
C2724 O2723 1.242 . S
O2725 Eu2712 2.418 1_556 S
O2725 C2729 1.244 . S
O2726 Eu2713 2.488 1_655 S
O2726 C2742 1.249 . S
O2727 Eu2713 2.471 1_655 S
O2727 C2742 1.244 . S
O2728 Eu2713 2.349 1_556 S
O2728 C2729 1.265 . S
C2729 O2725 1.244 . S
C2729 O2728 1.265 . S
O2730 Eu2712 2.373 1_556 S
O2730 C2743 1.269 . S
O2731 Eu2713 2.392 . S
O2731 C2743 1.230 1_554 S
O2732 Eu2713 2.418 . S
O2732 C2714 1.244 . S
O2733 Eu2712 2.488 1_556 S
O2733 C2721 1.249 . S
O2734 Eu2712 2.471 . S
O2734 C2721 1.244 1_554 S
O2735 Eu2712 2.349 . S
O2735 C2714 1.265 . S
C2736 C2737 1.379 . S
C2736 C2740 1.373 . S
C2736 C2742 1.505 . S
C2737 C2736 1.379 . S
C2737 C2739 1.369 . S
C2737 H2748 0.930 . S
C2738 C2740 1.383 . S
C2738 C2741 1.382 . S
C2738 H2749 0.930 . S
C2739 C2737 1.369 . S
C2739 C2741 1.392 . S
C2739 H2750 0.930 . S
C2740 C2736 1.373 . S
C2740 C2738 1.383 . S
C2740 H2751 0.931 . S
C2741 C2738 1.382 . S
C2741 C2739 1.392 . S
C2742 Eu2713 2.828 1_655 S
C2742 O2726 1.249 . S
C2742 O2727 1.244 . S
C2742 C2736 1.505 . S
C2743 O2730 1.269 . S
C2743 O2731 1.230 1_556 S
H2744 C2716 0.930 . S
H2745 C2717 0.930 . S
H2746 C2718 0.930 . S
H2747 C2719 0.931 . S
H2748 C2737 0.930 . S
H2749 C2738 0.930 . S
H2750 C2739 0.930 . S
H2751 C2740 0.931 . S
H2752 C2758 0.930 . S
H2753 C2761 0.930 . S
H2754 C2762 0.930 . S
H2755 C2763 0.930 . S
H2756 C2766 0.930 . S
H2757 C2767 0.941 . S
C2758 H2752 0.930 . S
C2758 C2759 1.355 . S
C2758 C2760 1.415 . S
C2759 C2758 1.355 . S
C2759 C2761 1.419 . S
C2760 C2758 1.415 . S
C2760 C2765 1.425 . S
C2760 C2767 1.394 1_556 S
C2761 H2753 0.930 . S
C2761 C2759 1.419 . S
C2761 C2762 1.362 . S
C2762 H2754 0.930 . S
C2762 C2761 1.362 . S
C2762 C2765 1.409 . S
C2763 H2755 0.930 . S
C2763 C2764 1.355 . S
C2763 C2765 1.415 . S
C2764 C2763 1.355 . S
C2764 C2766 1.419 1_556 S
C2765 C2760 1.425 . S
C2765 C2762 1.409 . S
C2765 C2763 1.415 . S
C2766 H2756 0.930 . S
C2766 C2764 1.419 1_554 S
C2766 C2767 1.366 . S
C2767 H2757 0.941 . S
C2767 C2760 1.394 1_554 S
C2767 C2766 1.366 . S
H2768 C2774 0.930 . S
H2769 C2777 0.930 . S
H2770 C2778 0.930 . S
H2771 C2779 0.930 . S
H2772 C2782 0.930 . S
H2773 C2783 0.930 . S
C2774 H2768 0.930 . S
C2774 C2775 1.355 . S
C2774 C2776 1.415 . S
C2775 C2774 1.355 . S
C2775 C2777 1.419 . S
C2776 C2774 1.415 . S
C2776 C2781 1.425 . S
C2776 C2783 1.409 . S
C2777 H2769 0.930 . S
C2777 C2775 1.419 . S
C2777 C2778 1.362 . S
C2778 H2770 0.930 . S
C2778 C2777 1.362 . S
C2778 C2781 1.409 . S
C2779 H2771 0.930 . S
C2779 C2780 1.355 . S
C2779 C2781 1.415 . S
C2780 C2779 1.355 . S
C2780 C2782 1.419 . S
C2781 C2776 1.425 . S
C2781 C2778 1.409 . S
C2781 C2779 1.415 . S
C2782 H2772 0.930 . S
C2782 C2780 1.419 . S
C2782 C2783 1.362 . S
C2783 H2773 0.930 . S
C2783 C2776 1.409 . S
C2783 C2782 1.362 . S
H2784 C2790 0.930 . S
H2785 C2793 0.930 . S
H2786 C2794 0.930 . S
H2787 C2795 0.930 . S
H2788 C2798 0.930 . S
H2789 C2799 0.930 . S
C2790 H2784 0.930 . S
C2790 C2791 1.355 . S
C2790 C2792 1.415 . S
C2791 C2790 1.355 . S
C2791 C2793 1.419 . S
C2792 C2790 1.415 . S
C2792 C2797 1.425 . S
C2792 C2799 1.409 . S
C2793 H2785 0.930 . S
C2793 C2791 1.419 . S
C2793 C2794 1.362 . S
C2794 H2786 0.930 . S
C2794 C2793 1.362 . S
C2794 C2797 1.409 . S
C2795 H2787 0.930 . S
C2795 C2796 1.355 . S
C2795 C2797 1.415 . S
C2796 C2795 1.355 . S
C2796 C2798 1.419 . S
C2797 C2792 1.425 . S
C2797 C2794 1.409 . S
C2797 C2795 1.415 . S
C2798 H2788 0.930 . S
C2798 C2796 1.419 . S
C2798 C2799 1.362 . S
C2799 H2789 0.930 . S
C2799 C2792 1.409 . S
C2799 C2798 1.362 . S
H2800 C2806 0.930 . S
H2801 C2809 0.930 . S
H2802 C2810 0.930 . S
H2803 C2811 0.930 . S
H2804 C2814 0.930 . S
H2805 C2815 0.930 . S
C2806 H2800 0.930 . S
C2806 C2807 1.355 . S
C2806 C2808 1.415 . S
C2807 C2806 1.355 . S
C2807 C2809 1.419 . S
C2808 C2806 1.415 . S
C2808 C2813 1.425 . S
C2808 C2815 1.409 . S
C2809 H2801 0.930 . S
C2809 C2807 1.419 . S
C2809 C2810 1.362 . S
C2810 H2802 0.930 . S
C2810 C2809 1.362 . S
C2810 C2813 1.409 . S
C2811 H2803 0.930 . S
C2811 C2812 1.355 . S
C2811 C2813 1.415 . S
C2812 C2811 1.355 . S
C2812 C2814 1.419 . S
C2813 C2808 1.425 . S
C2813 C2810 1.409 . S
C2813 C2811 1.415 . S
C2814 H2804 0.930 . S
C2814 C2812 1.419 . S
C2814 C2815 1.362 . S
C2815 H2805 0.930 . S
C2815 C2808 1.409 . S
C2815 C2814 1.362 . S
H2816 C2822 0.930 . S
H2817 C2825 0.930 . S
H2818 C2826 0.930 1_655 S
H2819 C2827 0.930 . S
H2820 C2830 0.930 . S
H2821 C2831 0.930 . S
C2822 H2816 0.930 . S
C2822 C2823 1.355 . S
C2822 C2824 1.415 . S
C2823 C2822 1.355 . S
C2823 C2825 1.419 1_455 S
C2824 C2822 1.415 . S
C2824 C2829 1.425 . S
C2824 C2831 1.409 . S
C2825 H2817 0.930 . S
C2825 C2823 1.419 1_655 S
C2825 C2826 1.362 1_655 S
C2826 H2818 0.930 1_455 S
C2826 C2825 1.362 1_455 S
C2826 C2829 1.409 . S
C2827 H2819 0.930 . S
C2827 C2828 1.355 . S
C2827 C2829 1.415 . S
C2828 C2827 1.355 . S
C2828 C2830 1.419 . S
C2829 C2824 1.425 . S
C2829 C2826 1.409 . S
C2829 C2827 1.415 . S
C2830 H2820 0.930 . S
C2830 C2828 1.419 . S
C2830 C2831 1.362 . S
C2831 H2821 0.930 . S
C2831 C2824 1.409 . S
C2831 C2830 1.362 . S
H2832 C2838 0.930 . S
H2833 C2841 0.930 . S
H2834 C2842 0.930 . S
H2835 C2843 0.930 . S
H2836 C2846 0.930 . S
H2837 C2847 0.930 . S
C2838 H2832 0.930 . S
C2838 C2839 1.355 . S
C2838 C2840 1.415 . S
C2839 C2838 1.355 . S
C2839 C2841 1.419 . S
C2840 C2838 1.415 . S
C2840 C2845 1.425 . S
C2840 C2847 1.409 . S
C2841 H2833 0.930 . S
C2841 C2839 1.419 . S
C2841 C2842 1.362 . S
C2842 H2834 0.930 . S
C2842 C2841 1.362 . S
C2842 C2845 1.409 . S
C2843 H2835 0.930 . S
C2843 C2844 1.355 . S
C2843 C2845 1.415 . S
C2844 C2843 1.355 . S
C2844 C2846 1.419 . S
C2845 C2840 1.425 . S
C2845 C2842 1.409 . S
C2845 C2843 1.415 . S
C2846 H2836 0.930 . S
C2846 C2844 1.419 . S
C2846 C2847 1.362 . S
C2847 H2837 0.930 . S
C2847 C2840 1.409 . S
C2847 C2846 1.362 . S
H2848 C2854 0.930 . S
H2849 C2857 0.930 . S
H2850 C2858 0.930 . S
H2851 C2859 0.930 . S
H2852 C2862 0.930 . S
H2853 C2863 0.930 . S
C2854 H2848 0.930 . S
C2854 C2855 1.355 . S
C2854 C2856 1.415 . S
C2855 C2854 1.355 . S
C2855 C2857 1.419 . S
C2856 C2854 1.415 . S
C2856 C2861 1.425 . S
C2856 C2863 1.409 . S
C2857 H2849 0.930 . S
C2857 C2855 1.419 . S
C2857 C2858 1.362 . S
C2858 H2850 0.930 . S
C2858 C2857 1.362 . S
C2858 C2861 1.409 . S
C2859 H2851 0.930 . S
C2859 C2860 1.355 . S
C2859 C2861 1.415 . S
C2860 C2859 1.355 . S
C2860 C2862 1.419 . S
C2861 C2856 1.425 . S
C2861 C2858 1.409 . S
C2861 C2859 1.415 . S
C2862 H2852 0.930 . S
C2862 C2860 1.419 . S
C2862 C2863 1.362 . S
C2863 H2853 0.930 . S
C2863 C2856 1.409 . S
C2863 C2862 1.362 . S
H2864 C2870 0.930 . S
H2865 C2873 0.930 . S
H2866 C2874 0.930 . S
H2867 C2875 0.930 . S
H2868 C2878 0.930 . S
H2869 C2879 0.930 . S
C2870 H2864 0.930 . S
C2870 C2871 1.355 . S
C2870 C2872 1.415 . S
C2871 C2870 1.355 . S
C2871 C2873 1.419 . S
C2872 C2870 1.415 . S
C2872 C2877 1.425 . S
C2872 C2879 1.409 . S
C2873 H2865 0.930 . S
C2873 C2871 1.419 . S
C2873 C2874 1.362 . S
C2874 H2866 0.930 . S
C2874 C2873 1.362 . S
C2874 C2877 1.409 . S
C2875 H2867 0.930 . S
C2875 C2876 1.355 . S
C2875 C2877 1.415 . S
C2876 C2875 1.355 . S
C2876 C2878 1.419 . S
C2877 C2872 1.425 . S
C2877 C2874 1.409 . S
C2877 C2875 1.415 . S
C2878 H2868 0.930 . S
C2878 C2876 1.419 . S
C2878 C2879 1.362 . S
C2879 H2869 0.930 . S
C2879 C2872 1.409 . S
C2879 C2878 1.362 . S
H2880 C2886 0.930 . S
H2881 C2889 0.930 . S
H2882 C2890 0.930 . S
H2883 C2891 0.930 . S
H2884 C2894 0.930 . S
H2885 C2895 0.930 1_655 S
C2886 H2880 0.930 . S
C2886 C2887 1.350 . S
C2886 C2888 1.415 1_655 S
C2887 C2886 1.350 . S
C2887 C2889 1.405 1_655 S
C2888 C2886 1.415 1_455 S
C2888 C2893 1.425 . S
C2888 C2895 1.409 . S
C2889 H2881 0.930 . S
C2889 C2887 1.405 1_455 S
C2889 C2890 1.362 . S
C2890 H2882 0.930 . S
C2890 C2889 1.362 . S
C2890 C2893 1.409 . S
C2891 H2883 0.930 . S
C2891 C2892 1.355 . S
C2891 C2893 1.415 . S
C2892 C2891 1.355 . S
C2892 C2894 1.419 . S
C2893 C2888 1.425 . S
C2893 C2890 1.409 . S
C2893 C2891 1.415 . S
C2894 H2884 0.930 . S
C2894 C2892 1.419 . S
C2894 C2895 1.362 . S
C2895 H2885 0.930 1_455 S
C2895 C2888 1.409 . S
C2895 C2894 1.362 . S
H2896 C2902 0.930 . S
H2897 C2905 0.930 . S
H2898 C2906 0.930 . S
H2899 C2907 0.930 . S
H2900 C2910 0.930 . S
H2901 C2911 0.930 . S
C2902 H2896 0.930 . S
C2902 C2903 1.355 . S
C2902 C2904 1.415 . S
C2903 C2902 1.355 . S
C2903 C2905 1.419 . S
C2904 C2902 1.415 . S
C2904 C2909 1.425 . S
C2904 C2911 1.409 . S
C2905 H2897 0.930 . S
C2905 C2903 1.419 . S
C2905 C2906 1.362 . S
C2906 H2898 0.930 . S
C2906 C2905 1.362 . S
C2906 C2909 1.409 . S
C2907 H2899 0.930 . S
C2907 C2908 1.355 . S
C2907 C2909 1.415 . S
C2908 C2907 1.355 . S
C2908 C2910 1.419 . S
C2909 C2904 1.425 . S
C2909 C2906 1.409 . S
C2909 C2907 1.415 . S
C2910 H2900 0.930 . S
C2910 C2908 1.419 . S
C2910 C2911 1.362 . S
C2911 H2901 0.930 . S
C2911 C2904 1.409 . S
C2911 C2910 1.362 . S
H2912 C2918 0.930 . S
H2913 C2921 0.930 . S
H2914 C2922 0.930 . S
H2915 C2923 0.930 . S
H2916 C2926 0.930 . S
H2917 C2927 0.930 . S
C2918 H2912 0.930 . S
C2918 C2919 1.355 . S
C2918 C2920 1.415 . S
C2919 C2918 1.355 . S
C2919 C2921 1.419 . S
C2920 C2918 1.415 . S
C2920 C2925 1.425 . S
C2920 C2927 1.409 . S
C2921 H2913 0.930 . S
C2921 C2919 1.419 . S
C2921 C2922 1.362 . S
C2922 H2914 0.930 . S
C2922 C2921 1.362 . S
C2922 C2925 1.409 . S
C2923 H2915 0.930 . S
C2923 C2924 1.355 . S
C2923 C2925 1.415 . S
C2924 C2923 1.355 . S
C2924 C2926 1.419 . S
C2925 C2920 1.425 . S
C2925 C2922 1.409 . S
C2925 C2923 1.415 . S
C2926 H2916 0.930 . S
C2926 C2924 1.419 . S
C2926 C2927 1.362 . S
C2927 H2917 0.930 . S
C2927 C2920 1.409 . S
C2927 C2926 1.362 . S
H2928 C2934 0.930 . S
H2929 C2937 0.930 . S
H2930 C2938 0.930 . S
H2931 C2939 0.930 . S
H2932 C2942 0.930 . S
H2933 C2943 0.930 . S
C2934 H2928 0.930 . S
C2934 C2935 1.355 . S
C2934 C2936 1.415 . S
C2935 C2934 1.355 . S
C2935 C2937 1.419 . S
C2936 C2934 1.415 . S
C2936 C2941 1.425 . S
C2936 C2943 1.409 . S
C2937 H2929 0.930 . S
C2937 C2935 1.419 . S
C2937 C2938 1.362 . S
C2938 H2930 0.930 . S
C2938 C2937 1.362 . S
C2938 C2941 1.409 . S
C2939 H2931 0.930 . S
C2939 C2940 1.355 . S
C2939 C2941 1.415 . S
C2940 C2939 1.355 . S
C2940 C2942 1.419 . S
C2941 C2936 1.425 . S
C2941 C2938 1.409 . S
C2941 C2939 1.415 . S
C2942 H2932 0.930 . S
C2942 C2940 1.419 . S
C2942 C2943 1.362 . S
C2943 H2933 0.930 . S
C2943 C2936 1.409 . S
C2943 C2942 1.362 . S
H2944 C2950 0.930 . S
H2945 C2953 0.930 . S
H2946 C2954 0.930 . S
H2947 C2955 0.930 . S
H2948 C2958 0.930 . S
H2949 C2959 0.930 . S
C2950 H2944 0.930 . S
C2950 C2951 1.355 1_655 S
C2950 C2952 1.401 1_655 S
C2951 C2950 1.355 1_455 S
C2951 C2953 1.419 . S
C2952 C2950 1.401 1_455 S
C2952 C2957 1.456 . S
C2952 C2959 1.394 1_455 S
C2953 H2945 0.930 . S
C2953 C2951 1.419 . S
C2953 C2954 1.362 . S
C2954 H2946 0.930 . S
C2954 C2953 1.362 . S
C2954 C2957 1.409 . S
C2955 H2947 0.930 . S
C2955 C2956 1.355 . S
C2955 C2957 1.415 . S
C2956 C2955 1.355 . S
C2956 C2958 1.419 1_455 S
C2957 C2952 1.456 . S
C2957 C2954 1.409 . S
C2957 C2955 1.415 . S
C2958 H2948 0.930 . S
C2958 C2956 1.419 1_655 S
C2958 C2959 1.362 . S
C2959 H2949 0.930 . S
C2959 C2952 1.394 1_655 S
C2959 C2958 1.362 . S
H2960 C2966 0.930 . S
H2961 C2969 0.930 . S
H2962 C2970 0.930 . S
H2963 C2971 0.930 . S
H2964 C2974 0.930 . S
H2965 C2975 0.930 . S
C2966 H2960 0.930 . S
C2966 C2967 1.355 . S
C2966 C2968 1.415 . S
C2967 C2966 1.355 . S
C2967 C2969 1.419 . S
C2968 C2966 1.415 . S
C2968 C2973 1.425 . S
C2968 C2975 1.409 . S
C2969 H2961 0.930 . S
C2969 C2967 1.419 . S
C2969 C2970 1.362 . S
C2970 H2962 0.930 . S
C2970 C2969 1.362 . S
C2970 C2973 1.409 . S
C2971 H2963 0.930 . S
C2971 C2972 1.355 . S
C2971 C2973 1.415 . S
C2972 C2971 1.355 . S
C2972 C2974 1.419 . S
C2973 C2968 1.425 . S
C2973 C2970 1.409 . S
C2973 C2971 1.415 . S
C2974 H2964 0.930 . S
C2974 C2972 1.419 . S
C2974 C2975 1.362 . S
C2975 H2965 0.930 . S
C2975 C2968 1.409 . S
C2975 C2974 1.362 . S
H2976 C2982 0.930 . S
H2977 C2985 0.930 . S
H2978 C2986 0.930 . S
H2979 C2987 0.930 . S
H2980 C2990 0.930 . S
H2981 C2991 0.930 . S
C2982 H2976 0.930 . S
C2982 C2983 1.355 . S
C2982 C2984 1.415 . S
C2983 C2982 1.355 . S
C2983 C2985 1.419 . S
C2984 C2982 1.415 . S
C2984 C2989 1.425 . S
C2984 C2991 1.409 . S
C2985 H2977 0.930 . S
C2985 C2983 1.419 . S
C2985 C2986 1.362 . S
C2986 H2978 0.930 . S
C2986 C2985 1.362 . S
C2986 C2989 1.409 . S
C2987 H2979 0.930 . S
C2987 C2988 1.355 . S
C2987 C2989 1.415 . S
C2988 C2987 1.355 . S
C2988 C2990 1.419 . S
C2989 C2984 1.425 . S
C2989 C2986 1.409 . S
C2989 C2987 1.415 . S
C2990 H2980 0.930 . S
C2990 C2988 1.419 . S
C2990 C2991 1.362 . S
C2991 H2981 0.930 . S
C2991 C2984 1.409 . S
C2991 C2990 1.362 . S
H2992 C2998 0.930 . S
H2993 C3001 0.930 . S
H2994 C3002 0.930 . S
H2995 C3003 0.930 . S
H2996 C3006 0.930 . S
H2997 C3007 0.930 . S
C2998 H2992 0.930 . S
C2998 C2999 1.355 . S
C2998 C3000 1.415 . S
C2999 C2998 1.355 . S
C2999 C3001 1.419 . S
C3000 C2998 1.415 . S
C3000 C3005 1.425 . S
C3000 C3007 1.409 . S
C3001 H2993 0.930 . S
C3001 C2999 1.419 . S
C3001 C3002 1.362 . S
C3002 H2994 0.930 . S
C3002 C3001 1.362 . S
C3002 C3005 1.409 . S
C3003 H2995 0.930 . S
C3003 C3004 1.355 . S
C3003 C3005 1.415 . S
C3004 C3003 1.355 . S
C3004 C3006 1.419 . S
C3005 C3000 1.425 . S
C3005 C3002 1.409 . S
C3005 C3003 1.415 . S
C3006 H2996 0.930 . S
C3006 C3004 1.419 . S
C3006 C3007 1.362 . S
C3007 H2997 0.930 . S
C3007 C3000 1.409 . S
C3007 C3006 1.362 . S
H3008 C3014 0.930 . S
H3009 C3017 0.930 1_556 S
H3010 C3018 0.930 1_556 S
H3011 C3019 0.930 . S
H3012 C3022 0.930 . S
H3013 C3023 0.930 . S
C3014 H3008 0.930 . S
C3014 C3015 1.355 1_545 S
C3014 C3016 1.415 . S
C3015 C3014 1.355 1_565 S
C3015 C3017 1.419 . S
C3016 C3014 1.415 . S
C3016 C3021 1.425 1_545 S
C3016 C3023 1.409 . S
C3017 H3009 0.930 1_554 S
C3017 C3015 1.419 . S
C3017 C3018 1.362 . S
C3018 H3010 0.930 1_554 S
C3018 C3017 1.362 . S
C3018 C3021 1.409 . S
C3019 H3011 0.930 . S
C3019 C3020 1.355 1_565 S
C3019 C3021 1.415 . S
C3020 C3019 1.355 1_545 S
C3020 C3022 1.419 . S
C3021 C3016 1.425 1_565 S
C3021 C3018 1.409 . S
C3021 C3019 1.415 . S
C3022 H3012 0.930 . S
C3022 C3020 1.419 . S
C3022 C3023 1.362 . S
C3023 H3013 0.930 . S
C3023 C3016 1.409 . S
C3023 C3022 1.362 . S
H3024 C3030 0.930 . S
H3025 C3033 0.930 . S
H3026 C3034 0.930 . S
H3027 C3035 0.930 . S
H3028 C3038 0.930 . S
H3029 C3039 0.930 . S
C3030 H3024 0.930 . S
C3030 C3031 1.355 1_554 S
C3030 C3032 1.415 . S
C3031 C3030 1.355 1_556 S
C3031 C3033 1.419 . S
C3032 C3030 1.415 . S
C3032 C3037 1.425 1_554 S
C3032 C3039 1.409 . S
C3033 H3025 0.930 . S
C3033 C3031 1.419 . S
C3033 C3034 1.362 . S
C3034 H3026 0.930 . S
C3034 C3033 1.362 . S
C3034 C3037 1.409 . S
C3035 H3027 0.930 . S
C3035 C3036 1.355 1_556 S
C3035 C3037 1.415 . S
C3036 C3035 1.355 1_554 S
C3036 C3038 1.419 . S
C3037 C3032 1.425 1_556 S
C3037 C3034 1.409 . S
C3037 C3035 1.415 . S
C3038 H3028 0.930 . S
C3038 C3036 1.419 . S
C3038 C3039 1.362 . S
C3039 H3029 0.930 . S
C3039 C3032 1.409 . S
C3039 C3038 1.362 . S
H3040 C3046 0.930 . S
H3041 C3049 0.930 . S
H3042 C3050 0.930 . S
H3043 C3051 0.930 . S
H3044 C3054 0.930 . S
H3045 C3055 0.930 . S
C3046 H3040 0.930 . S
C3046 C3047 1.355 . S
C3046 C3048 1.415 . S
C3047 C3046 1.355 . S
C3047 C3049 1.419 . S
C3048 C3046 1.415 . S
C3048 C3053 1.425 . S
C3048 C3055 1.409 . S
C3049 H3041 0.930 . S
C3049 C3047 1.419 . S
C3049 C3050 1.362 . S
C3050 H3042 0.930 . S
C3050 C3049 1.362 . S
C3050 C3053 1.409 . S
C3051 H3043 0.930 . S
C3051 C3052 1.355 . S
C3051 C3053 1.415 . S
C3052 C3051 1.355 . S
C3052 C3054 1.419 . S
C3053 C3048 1.425 . S
C3053 C3050 1.409 . S
C3053 C3051 1.415 . S
C3054 H3044 0.930 . S
C3054 C3052 1.419 . S
C3054 C3055 1.362 . S
C3055 H3045 0.930 . S
C3055 C3048 1.409 . S
C3055 C3054 1.362 . S
H3056 C3062 0.930 . S
H3057 C3065 0.930 . S
H3058 C3066 0.930 . S
H3059 C3067 0.930 . S
H3060 C3070 0.930 . S
H3061 C3071 0.930 . S
C3062 H3056 0.930 . S
C3062 C3063 1.355 . S
C3062 C3064 1.415 . S
C3063 C3062 1.355 . S
C3063 C3065 1.419 . S
C3064 C3062 1.415 . S
C3064 C3069 1.425 . S
C3064 C3071 1.409 . S
C3065 H3057 0.930 . S
C3065 C3063 1.419 . S
C3065 C3066 1.362 . S
C3066 H3058 0.930 . S
C3066 C3065 1.362 . S
C3066 C3069 1.409 . S
C3067 H3059 0.930 . S
C3067 C3068 1.355 . S
C3067 C3069 1.415 . S
C3068 C3067 1.355 . S
C3068 C3070 1.419 . S
C3069 C3064 1.425 . S
C3069 C3066 1.409 . S
C3069 C3067 1.415 . S
C3070 H3060 0.930 . S
C3070 C3068 1.419 . S
C3070 C3071 1.362 . S
C3071 H3061 0.930 . S
C3071 C3064 1.409 . S
C3071 C3070 1.362 . S
H3072 C3078 0.930 . S
H3073 C3081 0.930 . S
H3074 C3082 0.930 . S
H3075 C3083 0.930 . S
H3076 C3086 0.930 . S
H3077 C3087 0.930 . S
C3078 H3072 0.930 . S
C3078 C3079 1.355 . S
C3078 C3080 1.415 . S
C3079 C3078 1.355 . S
C3079 C3081 1.419 . S
C3080 C3078 1.415 . S
C3080 C3085 1.425 . S
C3080 C3087 1.409 . S
C3081 H3073 0.930 . S
C3081 C3079 1.419 . S
C3081 C3082 1.362 . S
C3082 H3074 0.930 . S
C3082 C3081 1.362 . S
C3082 C3085 1.409 . S
C3083 H3075 0.930 . S
C3083 C3084 1.355 . S
C3083 C3085 1.415 . S
C3084 C3083 1.355 . S
C3084 C3086 1.419 . S
C3085 C3080 1.425 . S
C3085 C3082 1.409 . S
C3085 C3083 1.415 . S
C3086 H3076 0.930 . S
C3086 C3084 1.419 . S
C3086 C3087 1.362 . S
C3087 H3077 0.930 . S
C3087 C3080 1.409 . S
C3087 C3086 1.362 . S
H3088 C3094 0.930 . S
H3089 C3097 0.930 . S
H3090 C3098 0.930 . S
H3091 C3099 0.930 . S
H3092 C3102 0.930 . S
H3093 C3103 0.930 . S
C3094 H3088 0.930 . S
C3094 C3095 1.355 . S
C3094 C3096 1.415 . S
C3095 C3094 1.355 . S
C3095 C3097 1.419 . S
C3096 C3094 1.415 . S
C3096 C3101 1.425 . S
C3096 C3103 1.409 . S
C3097 H3089 0.930 . S
C3097 C3095 1.419 . S
C3097 C3098 1.362 . S
C3098 H3090 0.930 . S
C3098 C3097 1.362 . S
C3098 C3101 1.409 . S
C3099 H3091 0.930 . S
C3099 C3100 1.355 . S
C3099 C3101 1.415 . S
C3100 C3099 1.355 . S
C3100 C3102 1.419 . S
C3101 C3096 1.425 . S
C3101 C3098 1.409 . S
C3101 C3099 1.415 . S
C3102 H3092 0.930 . S
C3102 C3100 1.419 . S
C3102 C3103 1.362 . S
C3103 H3093 0.930 . S
C3103 C3096 1.409 . S
C3103 C3102 1.362 . S
H3104 C3110 0.930 . S
H3105 C3113 0.930 . S
H3106 C3114 0.930 . S
H3107 C3115 0.930 . S
H3108 C3118 0.930 . S
H3109 C3119 0.930 . S
C3110 H3104 0.930 . S
C3110 C3111 1.355 . S
C3110 C3112 1.415 . S
C3111 C3110 1.355 . S
C3111 C3113 1.419 . S
C3112 C3110 1.415 . S
C3112 C3117 1.425 . S
C3112 C3119 1.409 . S
C3113 H3105 0.930 . S
C3113 C3111 1.419 . S
C3113 C3114 1.362 . S
C3114 H3106 0.930 . S
C3114 C3113 1.362 . S
C3114 C3117 1.409 . S
C3115 H3107 0.930 . S
C3115 C3116 1.355 . S
C3115 C3117 1.415 . S
C3116 C3115 1.355 . S
C3116 C3118 1.419 . S
C3117 C3112 1.425 . S
C3117 C3114 1.409 . S
C3117 C3115 1.415 . S
C3118 H3108 0.930 . S
C3118 C3116 1.419 . S
C3118 C3119 1.362 . S
C3119 H3109 0.930 . S
C3119 C3112 1.409 . S
C3119 C3118 1.362 . S
H3120 C3126 0.930 . S
H3121 C3129 0.930 . S
H3122 C3130 0.930 . S
H3123 C3131 0.930 . S
H3124 C3134 0.930 . S
H3125 C3135 0.930 . S
C3126 H3120 0.930 . S
C3126 C3127 1.355 . S
C3126 C3128 1.415 . S
C3127 C3126 1.355 . S
C3127 C3129 1.419 . S
C3128 C3126 1.415 . S
C3128 C3133 1.425 . S
C3128 C3135 1.409 . S
C3129 H3121 0.930 . S
C3129 C3127 1.419 . S
C3129 C3130 1.362 . S
C3130 H3122 0.930 . S
C3130 C3129 1.362 . S
C3130 C3133 1.409 . S
C3131 H3123 0.930 . S
C3131 C3132 1.355 . S
C3131 C3133 1.415 . S
C3132 C3131 1.355 . S
C3132 C3134 1.419 . S
C3133 C3128 1.425 . S
C3133 C3130 1.409 . S
C3133 C3131 1.415 . S
C3134 H3124 0.930 . S
C3134 C3132 1.419 . S
C3134 C3135 1.362 . S
C3135 H3125 0.930 . S
C3135 C3128 1.409 . S
C3135 C3134 1.362 . S
H3136 C3142 0.930 . S
H3137 C3145 0.930 . S
H3138 C3146 0.930 . S
H3139 C3147 0.930 . S
H3140 C3150 0.930 . S
H3141 C3151 0.930 . S
C3142 H3136 0.930 . S
C3142 C3143 1.355 . S
C3142 C3144 1.415 . S
C3143 C3142 1.355 . S
C3143 C3145 1.419 . S
C3144 C3142 1.415 . S
C3144 C3149 1.425 . S
C3144 C3151 1.409 . S
C3145 H3137 0.930 . S
C3145 C3143 1.419 . S
C3145 C3146 1.362 . S
C3146 H3138 0.930 . S
C3146 C3145 1.362 . S
C3146 C3149 1.409 . S
C3147 H3139 0.930 . S
C3147 C3148 1.355 . S
C3147 C3149 1.415 . S
C3148 C3147 1.355 . S
C3148 C3150 1.419 . S
C3149 C3144 1.425 . S
C3149 C3146 1.409 . S
C3149 C3147 1.415 . S
C3150 H3140 0.930 . S
C3150 C3148 1.419 . S
C3150 C3151 1.362 . S
C3151 H3141 0.930 . S
C3151 C3144 1.409 . S
C3151 C3150 1.362 . S
H3152 C3158 0.930 . S
H3153 C3161 0.930 . S
H3154 C3162 0.930 . S
H3155 C3163 0.930 . S
H3156 C3166 0.930 . S
H3157 C3167 0.930 . S
C3158 H3152 0.930 . S
C3158 C3159 1.355 . S
C3158 C3160 1.415 . S
C3159 C3158 1.355 . S
C3159 C3161 1.419 . S
C3160 C3158 1.415 . S
C3160 C3165 1.425 . S
C3160 C3167 1.409 . S
C3161 H3153 0.930 . S
C3161 C3159 1.419 . S
C3161 C3162 1.362 . S
C3162 H3154 0.930 . S
C3162 C3161 1.362 . S
C3162 C3165 1.409 . S
C3163 H3155 0.930 . S
C3163 C3164 1.355 . S
C3163 C3165 1.415 . S
C3164 C3163 1.355 . S
C3164 C3166 1.419 . S
C3165 C3160 1.425 . S
C3165 C3162 1.409 . S
C3165 C3163 1.415 . S
C3166 H3156 0.930 . S
C3166 C3164 1.419 . S
C3166 C3167 1.362 . S
C3167 H3157 0.930 . S
C3167 C3160 1.409 . S
C3167 C3166 1.362 . S
H3168 C3174 0.930 . S
H3169 C3177 0.930 . S
H3170 C3178 0.930 . S
H3171 C3179 0.930 . S
H3172 C3182 0.930 . S
H3173 C3183 0.930 . S
C3174 H3168 0.930 . S
C3174 C3175 1.355 . S
C3174 C3176 1.415 . S
C3175 C3174 1.355 . S
C3175 C3177 1.419 . S
C3176 C3174 1.415 . S
C3176 C3181 1.425 . S
C3176 C3183 1.409 . S
C3177 H3169 0.930 . S
C3177 C3175 1.419 . S
C3177 C3178 1.362 . S
C3178 H3170 0.930 . S
C3178 C3177 1.362 . S
C3178 C3181 1.409 . S
C3179 H3171 0.930 . S
C3179 C3180 1.355 . S
C3179 C3181 1.415 . S
C3180 C3179 1.355 . S
C3180 C3182 1.419 . S
C3181 C3176 1.425 . S
C3181 C3178 1.409 . S
C3181 C3179 1.415 . S
C3182 H3172 0.930 . S
C3182 C3180 1.419 . S
C3182 C3183 1.362 . S
C3183 H3173 0.930 . S
C3183 C3176 1.409 . S
C3183 C3182 1.362 . S
H3184 C3190 0.930 . S
H3185 C3193 0.930 . S
H3186 C3194 0.930 . S
H3187 C3195 0.930 . S
H3188 C3198 0.930 . S
H3189 C3199 0.930 . S
C3190 H3184 0.930 . S
C3190 C3191 1.355 . S
C3190 C3192 1.415 . S
C3191 C3190 1.355 . S
C3191 C3193 1.419 . S
C3192 C3190 1.415 . S
C3192 C3197 1.425 . S
C3192 C3199 1.409 . S
C3193 H3185 0.930 . S
C3193 C3191 1.419 . S
C3193 C3194 1.362 . S
C3194 H3186 0.930 . S
C3194 C3193 1.362 . S
C3194 C3197 1.409 . S
C3195 H3187 0.930 . S
C3195 C3196 1.355 . S
C3195 C3197 1.415 . S
C3196 C3195 1.355 . S
C3196 C3198 1.419 . S
C3197 C3192 1.425 . S
C3197 C3194 1.409 . S
C3197 C3195 1.415 . S
C3198 H3188 0.930 . S
C3198 C3196 1.419 . S
C3198 C3199 1.362 . S
C3199 H3189 0.930 . S
C3199 C3192 1.409 . S
C3199 C3198 1.362 . S
H3200 C3206 0.930 . S
H3201 C3209 0.930 . S
H3202 C3210 0.930 . S
H3203 C3211 0.930 . S
H3204 C3214 0.899 1_655 S
H3205 C3215 0.930 . S
C3206 H3200 0.930 . S
C3206 C3207 1.355 . S
C3206 C3208 1.415 . S
C3207 C3206 1.355 . S
C3207 C3209 1.419 . S
C3208 C3206 1.415 . S
C3208 C3213 1.425 . S
C3208 C3215 1.409 . S
C3209 H3201 0.930 . S
C3209 C3207 1.419 . S
C3209 C3210 1.362 . S
C3210 H3202 0.930 . S
C3210 C3209 1.362 . S
C3210 C3213 1.409 . S
C3211 H3203 0.930 . S
C3211 C3212 1.355 . S
C3211 C3213 1.415 . S
C3212 C3211 1.355 . S
C3212 C3214 1.419 . S
C3213 C3208 1.425 . S
C3213 C3210 1.409 . S
C3213 C3211 1.415 . S
C3214 H3204 0.899 1_455 S
C3214 C3212 1.419 . S
C3214 C3215 1.362 . S
C3215 H3205 0.930 . S
C3215 C3208 1.409 . S
C3215 C3214 1.362 . S
H3216 C3222 0.930 . S
H3217 C3225 0.930 . S
H3218 C3226 0.930 . S
H3219 C3227 0.930 . S
H3220 C3230 0.930 . S
H3221 C3231 0.930 . S
C3222 H3216 0.930 . S
C3222 C3223 1.355 . S
C3222 C3224 1.415 . S
C3223 C3222 1.355 . S
C3223 C3225 1.419 . S
C3224 C3222 1.415 . S
C3224 C3229 1.425 . S
C3224 C3231 1.409 . S
C3225 H3217 0.930 . S
C3225 C3223 1.419 . S
C3225 C3226 1.362 . S
C3226 H3218 0.930 . S
C3226 C3225 1.362 . S
C3226 C3229 1.409 . S
C3227 H3219 0.930 . S
C3227 C3228 1.355 . S
C3227 C3229 1.415 . S
C3228 C3227 1.355 . S
C3228 C3230 1.419 . S
C3229 C3224 1.425 . S
C3229 C3226 1.409 . S
C3229 C3227 1.415 . S
C3230 H3220 0.930 . S
C3230 C3228 1.419 . S
C3230 C3231 1.362 . S
C3231 H3221 0.930 . S
C3231 C3224 1.409 . S
C3231 C3230 1.362 . S
H3232 C3238 0.930 . S
H3233 C3241 0.930 . S
H3234 C3242 0.912 1_554 S
H3235 C3243 0.930 1_554 S
H3236 C3246 0.930 . S
H3237 C3247 0.930 . S
C3238 H3232 0.930 . S
C3238 C3239 1.355 . S
C3238 C3240 1.415 . S
C3239 C3238 1.355 . S
C3239 C3241 1.419 . S
C3240 C3238 1.415 . S
C3240 C3245 1.425 . S
C3240 C3247 1.409 . S
C3241 H3233 0.930 . S
C3241 C3239 1.419 . S
C3241 C3242 1.362 . S
C3242 H3234 0.912 1_556 S
C3242 C3241 1.362 . S
C3242 C3245 1.409 . S
C3243 H3235 0.930 1_556 S
C3243 C3244 1.355 . S
C3243 C3245 1.415 . S
C3244 C3243 1.355 . S
C3244 C3246 1.419 . S
C3245 C3240 1.425 . S
C3245 C3242 1.409 . S
C3245 C3243 1.415 . S
C3246 H3236 0.930 . S
C3246 C3244 1.419 . S
C3246 C3247 1.362 . S
C3247 H3237 0.930 . S
C3247 C3240 1.409 . S
C3247 C3246 1.362 . S
H3248 C3254 0.930 . S
H3249 C3257 0.930 . S
H3250 C3258 0.930 . S
H3251 C3259 0.930 . S
H3252 C3262 0.930 . S
H3253 C3263 0.930 . S
C3254 H3248 0.930 . S
C3254 C3255 1.355 . S
C3254 C3256 1.415 . S
C3255 C3254 1.355 . S
C3255 C3257 1.419 . S
C3256 C3254 1.415 . S
C3256 C3261 1.425 . S
C3256 C3263 1.409 . S
C3257 H3249 0.930 . S
C3257 C3255 1.419 . S
C3257 C3258 1.362 . S
C3258 H3250 0.930 . S
C3258 C3257 1.362 . S
C3258 C3261 1.409 . S
C3259 H3251 0.930 . S
C3259 C3260 1.355 . S
C3259 C3261 1.415 . S
C3260 C3259 1.355 . S
C3260 C3262 1.419 . S
C3261 C3256 1.425 . S
C3261 C3258 1.409 . S
C3261 C3259 1.415 . S
C3262 H3252 0.930 . S
C3262 C3260 1.419 . S
C3262 C3263 1.362 . S
C3263 H3253 0.930 . S
C3263 C3256 1.409 . S
C3263 C3262 1.362 . S
H3264 C3270 0.930 . S
H3265 C3273 0.922 1_565 S
H3266 C3274 0.907 1_565 S
H3267 C3275 0.930 . S
H3268 C3278 0.930 . S
H3269 C3279 0.930 . S
C3270 H3264 0.930 . S
C3270 C3271 1.355 . S
C3270 C3272 1.415 . S
C3271 C3270 1.355 . S
C3271 C3273 1.428 . S
C3272 C3270 1.415 . S
C3272 C3277 1.425 . S
C3272 C3279 1.409 . S
C3273 H3265 0.922 1_545 S
C3273 C3271 1.428 . S
C3273 C3274 1.365 . S
C3274 H3266 0.907 1_545 S
C3274 C3273 1.365 . S
C3274 C3277 1.428 . S
C3275 H3267 0.930 . S
C3275 C3276 1.355 . S
C3275 C3277 1.415 . S
C3276 C3275 1.355 . S
C3276 C3278 1.419 . S
C3277 C3272 1.425 . S
C3277 C3274 1.428 . S
C3277 C3275 1.415 . S
C3278 H3268 0.930 . S
C3278 C3276 1.419 . S
C3278 C3279 1.362 . S
C3279 H3269 0.930 . S
C3279 C3272 1.409 . S
C3279 C3278 1.362 . S
H3280 C3286 0.930 . S
H3281 C3289 0.930 . S
H3282 C3290 0.930 . S
H3283 C3291 0.930 . S
H3284 C3294 0.930 . S
H3285 C3295 0.930 . S
C3286 H3280 0.930 . S
C3286 C3287 1.355 . S
C3286 C3288 1.415 . S
C3287 C3286 1.355 . S
C3287 C3289 1.419 . S
C3288 C3286 1.415 . S
C3288 C3293 1.425 . S
C3288 C3295 1.409 . S
C3289 H3281 0.930 . S
C3289 C3287 1.419 . S
C3289 C3290 1.362 . S
C3290 H3282 0.930 . S
C3290 C3289 1.362 . S
C3290 C3293 1.409 . S
C3291 H3283 0.930 . S
C3291 C3292 1.355 . S
C3291 C3293 1.415 . S
C3292 C3291 1.355 . S
C3292 C3294 1.419 . S
C3293 C3288 1.425 . S
C3293 C3290 1.409 . S
C3293 C3291 1.415 . S
C3294 H3284 0.930 . S
C3294 C3292 1.419 . S
C3294 C3295 1.362 . S
C3295 H3285 0.930 . S
C3295 C3288 1.409 . S
C3295 C3294 1.362 . S
H3296 C3302 0.930 . S
H3297 C3305 0.930 . S
H3298 C3306 0.930 . S
H3299 C3307 0.930 . S
H3300 C3310 0.930 . S
H3301 C3311 0.930 . S
C3302 H3296 0.930 . S
C3302 C3303 1.355 . S
C3302 C3304 1.415 . S
C3303 C3302 1.355 . S
C3303 C3305 1.419 . S
C3304 C3302 1.415 . S
C3304 C3309 1.425 . S
C3304 C3311 1.409 . S
C3305 H3297 0.930 . S
C3305 C3303 1.419 . S
C3305 C3306 1.362 . S
C3306 H3298 0.930 . S
C3306 C3305 1.362 . S
C3306 C3309 1.409 . S
C3307 H3299 0.930 . S
C3307 C3308 1.355 . S
C3307 C3309 1.415 . S
C3308 C3307 1.355 . S
C3308 C3310 1.419 . S
C3309 C3304 1.425 . S
C3309 C3306 1.409 . S
C3309 C3307 1.415 . S
C3310 H3300 0.930 . S
C3310 C3308 1.419 . S
C3310 C3311 1.362 . S
C3311 H3301 0.930 . S
C3311 C3304 1.409 . S
C3311 C3310 1.362 . S
H3312 C3318 0.930 . S
H3313 C3321 0.930 . S
H3314 C3322 0.930 . S
H3315 C3323 0.930 . S
H3316 C3326 0.930 . S
H3317 C3327 0.930 . S
C3318 H3312 0.930 . S
C3318 C3319 1.355 . S
C3318 C3320 1.415 . S
C3319 C3318 1.355 . S
C3319 C3321 1.419 . S
C3320 C3318 1.415 . S
C3320 C3325 1.425 . S
C3320 C3327 1.409 . S
C3321 H3313 0.930 . S
C3321 C3319 1.419 . S
C3321 C3322 1.362 . S
C3322 H3314 0.930 . S
C3322 C3321 1.362 . S
C3322 C3325 1.409 . S
C3323 H3315 0.930 . S
C3323 C3324 1.355 . S
C3323 C3325 1.415 . S
C3324 C3323 1.355 . S
C3324 C3326 1.419 . S
C3325 C3320 1.425 . S
C3325 C3322 1.409 . S
C3325 C3323 1.415 . S
C3326 H3316 0.930 . S
C3326 C3324 1.419 . S
C3326 C3327 1.362 . S
C3327 H3317 0.930 . S
C3327 C3320 1.409 . S
C3327 C3326 1.362 . S
H3328 C3334 0.930 . S
H3329 C3337 0.930 . S
H3330 C3338 0.930 . S
H3331 C3339 0.930 . S
H3332 C3342 0.930 . S
H3333 C3343 0.930 . S
C3334 H3328 0.930 . S
C3334 C3335 1.355 . S
C3334 C3336 1.415 . S
C3335 C3334 1.355 . S
C3335 C3337 1.419 1_565 S
C3336 C3334 1.415 . S
C3336 C3341 1.425 1_565 S
C3336 C3343 1.409 . S
C3337 H3329 0.930 . S
C3337 C3335 1.419 1_545 S
C3337 C3338 1.362 . S
C3338 H3330 0.930 . S
C3338 C3337 1.362 . S
C3338 C3341 1.409 . S
C3339 H3331 0.930 . S
C3339 C3340 1.355 . S
C3339 C3341 1.415 . S
C3340 C3339 1.355 . S
C3340 C3342 1.419 1_545 S
C3341 C3336 1.425 1_545 S
C3341 C3338 1.409 . S
C3341 C3339 1.415 . S
C3342 H3332 0.930 . S
C3342 C3340 1.419 1_565 S
C3342 C3343 1.362 . S
C3343 H3333 0.930 . S
C3343 C3336 1.409 . S
C3343 C3342 1.362 . S
H3344 C3350 0.930 . S
H3345 C3353 0.930 . S
H3346 C3354 0.930 . S
H3347 C3355 0.930 . S
H3348 C3358 0.930 . S
H3349 C3359 0.930 . S
C3350 H3344 0.930 . S
C3350 C3351 1.355 . S
C3350 C3352 1.415 . S
C3351 C3350 1.355 . S
C3351 C3353 1.419 . S
C3352 C3350 1.415 . S
C3352 C3357 1.425 . S
C3352 C3359 1.409 . S
C3353 H3345 0.930 . S
C3353 C3351 1.419 . S
C3353 C3354 1.362 . S
C3354 H3346 0.930 . S
C3354 C3353 1.362 . S
C3354 C3357 1.409 . S
C3355 H3347 0.930 . S
C3355 C3356 1.355 . S
C3355 C3357 1.415 . S
C3356 C3355 1.355 . S
C3356 C3358 1.419 . S
C3357 C3352 1.425 . S
C3357 C3354 1.409 . S
C3357 C3355 1.415 . S
C3358 H3348 0.930 . S
C3358 C3356 1.419 . S
C3358 C3359 1.362 . S
C3359 H3349 0.930 . S
C3359 C3352 1.409 . S
C3359 C3358 1.362 . S
H3360 C3366 0.930 . S
H3361 C3369 0.930 . S
H3362 C3370 0.930 . S
H3363 C3371 0.930 . S
H3364 C3374 0.930 . S
H3365 C3375 0.930 . S
C3366 H3360 0.930 . S
C3366 C3367 1.355 1_565 S
C3366 C3368 1.415 . S
C3367 C3366 1.355 1_545 S
C3367 C3369 1.419 . S
C3368 C3366 1.415 . S
C3368 C3373 1.425 1_565 S
C3368 C3375 1.409 . S
C3369 H3361 0.930 . S
C3369 C3367 1.419 . S
C3369 C3370 1.362 . S
C3370 H3362 0.930 . S
C3370 C3369 1.362 . S
C3370 C3373 1.409 . S
C3371 H3363 0.930 . S
C3371 C3372 1.355 1_545 S
C3371 C3373 1.415 . S
C3372 C3371 1.355 1_565 S
C3372 C3374 1.419 . S
C3373 C3368 1.425 1_545 S
C3373 C3370 1.409 . S
C3373 C3371 1.415 . S
C3374 H3364 0.930 . S
C3374 C3372 1.419 . S
C3374 C3375 1.362 . S
C3375 H3365 0.930 . S
C3375 C3368 1.409 . S
C3375 C3374 1.362 . S
H3376 C3382 0.930 . S
H3377 C3385 0.930 . S
H3378 C3386 0.930 . S
H3379 C3387 0.930 . S
H3380 C3390 0.930 . S
H3381 C3391 0.930 . S
C3382 H3376 0.930 . S
C3382 C3383 1.355 . S
C3382 C3384 1.415 . S
C3383 C3382 1.355 . S
C3383 C3385 1.419 . S
C3384 C3382 1.415 . S
C3384 C3389 1.425 . S
C3384 C3391 1.409 . S
C3385 H3377 0.930 . S
C3385 C3383 1.419 . S
C3385 C3386 1.362 . S
C3386 H3378 0.930 . S
C3386 C3385 1.362 . S
C3386 C3389 1.409 . S
C3387 H3379 0.930 . S
C3387 C3388 1.355 . S
C3387 C3389 1.415 . S
C3388 C3387 1.355 . S
C3388 C3390 1.419 . S
C3389 C3384 1.425 . S
C3389 C3386 1.409 . S
C3389 C3387 1.415 . S
C3390 H3380 0.930 . S
C3390 C3388 1.419 . S
C3390 C3391 1.362 . S
C3391 H3381 0.930 . S
C3391 C3384 1.409 . S
C3391 C3390 1.362 . S
H3392 C3398 0.930 . S
H3393 C3401 0.930 . S
H3394 C3402 0.930 . S
H3395 C3403 0.930 . S
H3396 C3406 0.930 . S
H3397 C3407 0.930 . S
C3398 H3392 0.930 . S
C3398 C3399 1.355 1_556 S
C3398 C3400 1.415 . S
C3399 C3398 1.355 1_554 S
C3399 C3401 1.419 . S
C3400 C3398 1.415 . S
C3400 C3405 1.425 1_556 S
C3400 C3407 1.409 . S
C3401 H3393 0.930 . S
C3401 C3399 1.419 . S
C3401 C3402 1.362 . S
C3402 H3394 0.930 . S
C3402 C3401 1.362 . S
C3402 C3405 1.409 . S
C3403 H3395 0.930 . S
C3403 C3404 1.355 1_554 S
C3403 C3405 1.415 . S
C3404 C3403 1.355 1_556 S
C3404 C3406 1.419 . S
C3405 C3400 1.425 1_554 S
C3405 C3402 1.409 . S
C3405 C3403 1.415 . S
C3406 H3396 0.930 . S
C3406 C3404 1.419 . S
C3406 C3407 1.362 . S
C3407 H3397 0.930 . S
C3407 C3400 1.409 . S
C3407 C3406 1.362 . S
H3408 C3414 0.930 . S
H3409 C3417 0.930 . S
H3410 C3418 0.930 . S
H3411 C3419 0.930 . S
H3412 C3422 0.930 1_556 S
H3413 C3423 0.930 1_556 S
C3414 H3408 0.930 . S
C3414 C3415 1.355 . S
C3414 C3416 1.415 . S
C3415 C3414 1.355 . S
C3415 C3417 1.419 . S
C3416 C3414 1.415 . S
C3416 C3421 1.425 . S
C3416 C3423 1.409 . S
C3417 H3409 0.930 . S
C3417 C3415 1.419 . S
C3417 C3418 1.362 . S
C3418 H3410 0.930 . S
C3418 C3417 1.362 . S
C3418 C3421 1.409 . S
C3419 H3411 0.930 . S
C3419 C3420 1.355 . S
C3419 C3421 1.415 . S
C3420 C3419 1.355 . S
C3420 C3422 1.419 . S
C3421 C3416 1.425 . S
C3421 C3418 1.409 . S
C3421 C3419 1.415 . S
C3422 H3412 0.930 1_554 S
C3422 C3420 1.419 . S
C3422 C3423 1.362 . S
C3423 H3413 0.930 1_554 S
C3423 C3416 1.409 . S
C3423 C3422 1.362 . S
H3424 C3430 0.930 . S
H3425 C3433 0.930 . S
H3426 C3434 0.930 . S
H3427 C3435 0.930 . S
H3428 C3438 0.930 . S
H3429 C3439 0.930 . S
C3430 H3424 0.930 . S
C3430 C3431 1.355 . S
C3430 C3432 1.415 . S
C3431 C3430 1.355 . S
C3431 C3433 1.419 . S
C3432 C3430 1.415 . S
C3432 C3437 1.425 . S
C3432 C3439 1.409 . S
C3433 H3425 0.930 . S
C3433 C3431 1.419 . S
C3433 C3434 1.362 . S
C3434 H3426 0.930 . S
C3434 C3433 1.362 . S
C3434 C3437 1.409 . S
C3435 H3427 0.930 . S
C3435 C3436 1.355 . S
C3435 C3437 1.415 . S
C3436 C3435 1.355 . S
C3436 C3438 1.419 . S
C3437 C3432 1.425 . S
C3437 C3434 1.409 . S
C3437 C3435 1.415 . S
C3438 H3428 0.930 . S
C3438 C3436 1.419 . S
C3438 C3439 1.362 . S
C3439 H3429 0.930 . S
C3439 C3432 1.409 . S
C3439 C3438 1.362 . S
H3440 C3446 0.930 . S
H3441 C3449 0.930 . S
H3442 C3450 0.930 . S
H3443 C3451 0.930 . S
H3444 C3454 0.930 . S
H3445 C3455 0.930 . S
C3446 H3440 0.930 . S
C3446 C3447 1.355 . S
C3446 C3448 1.415 . S
C3447 C3446 1.355 . S
C3447 C3449 1.419 . S
C3448 C3446 1.415 . S
C3448 C3453 1.425 . S
C3448 C3455 1.409 . S
C3449 H3441 0.930 . S
C3449 C3447 1.419 . S
C3449 C3450 1.362 . S
C3450 H3442 0.930 . S
C3450 C3449 1.362 . S
C3450 C3453 1.409 . S
C3451 H3443 0.930 . S
C3451 C3452 1.355 . S
C3451 C3453 1.415 . S
C3452 C3451 1.355 . S
C3452 C3454 1.419 . S
C3453 C3448 1.425 . S
C3453 C3450 1.409 . S
C3453 C3451 1.415 . S
C3454 H3444 0.930 . S
C3454 C3452 1.419 . S
C3454 C3455 1.362 . S
C3455 H3445 0.930 . S
C3455 C3448 1.409 . S
C3455 C3454 1.362 . S
H3456 C3462 0.930 . S
H3457 C3465 0.930 . S
H3458 C3466 0.930 . S
H3459 C3467 0.930 . S
H3460 C3470 0.930 . S
H3461 C3471 0.930 . S
C3462 H3456 0.930 . S
C3462 C3463 1.355 . S
C3462 C3464 1.415 . S
C3463 C3462 1.355 . S
C3463 C3465 1.419 . S
C3464 C3462 1.415 . S
C3464 C3469 1.425 . S
C3464 C3471 1.409 . S
C3465 H3457 0.930 . S
C3465 C3463 1.419 . S
C3465 C3466 1.362 . S
C3466 H3458 0.930 . S
C3466 C3465 1.362 . S
C3466 C3469 1.409 . S
C3467 H3459 0.930 . S
C3467 C3468 1.355 . S
C3467 C3469 1.415 . S
C3468 C3467 1.355 . S
C3468 C3470 1.419 . S
C3469 C3464 1.425 . S
C3469 C3466 1.409 . S
C3469 C3467 1.415 . S
C3470 H3460 0.930 . S
C3470 C3468 1.419 . S
C3470 C3471 1.362 . S
C3471 H3461 0.930 . S
C3471 C3464 1.409 . S
C3471 C3470 1.362 . S
H3472 C3478 0.930 . S
H3473 C3481 0.930 . S
H3474 C3482 0.930 . S
H3475 C3483 0.930 . S
H3476 C3486 0.930 . S
H3477 C3487 0.930 . S
C3478 H3472 0.930 . S
C3478 C3479 1.355 . S
C3478 C3480 1.415 . S
C3479 C3478 1.355 . S
C3479 C3481 1.419 . S
C3480 C3478 1.415 . S
C3480 C3485 1.425 . S
C3480 C3487 1.409 . S
C3481 H3473 0.930 . S
C3481 C3479 1.419 . S
C3481 C3482 1.362 . S
C3482 H3474 0.930 . S
C3482 C3481 1.362 . S
C3482 C3485 1.409 . S
C3483 H3475 0.930 . S
C3483 C3484 1.355 . S
C3483 C3485 1.415 . S
C3484 C3483 1.355 . S
C3484 C3486 1.419 . S
C3485 C3480 1.425 . S
C3485 C3482 1.409 . S
C3485 C3483 1.415 . S
C3486 H3476 0.930 . S
C3486 C3484 1.419 . S
C3486 C3487 1.362 . S
C3487 H3477 0.930 . S
C3487 C3480 1.409 . S
C3487 C3486 1.362 . S
H3488 C3494 0.930 . S
H3489 C3497 0.930 . S
H3490 C3498 0.930 . S
H3491 C3499 0.930 . S
H3492 C3502 0.930 . S
H3493 C3503 0.930 . S
C3494 H3488 0.930 . S
C3494 C3495 1.355 . S
C3494 C3496 1.415 . S
C3495 C3494 1.355 . S
C3495 C3497 1.419 . S
C3496 C3494 1.415 . S
C3496 C3501 1.425 . S
C3496 C3503 1.409 . S
C3497 H3489 0.930 . S
C3497 C3495 1.419 . S
C3497 C3498 1.362 . S
C3498 H3490 0.930 . S
C3498 C3497 1.362 . S
C3498 C3501 1.409 . S
C3499 H3491 0.930 . S
C3499 C3500 1.355 . S
C3499 C3501 1.415 . S
C3500 C3499 1.355 . S
C3500 C3502 1.419 . S
C3501 C3496 1.425 . S
C3501 C3498 1.409 . S
C3501 C3499 1.415 . S
C3502 H3492 0.930 . S
C3502 C3500 1.419 . S
C3502 C3503 1.362 . S
C3503 H3493 0.930 . S
C3503 C3496 1.409 . S
C3503 C3502 1.362 . S
H3504 C3510 0.930 . S
H3505 C3513 0.930 . S
H3506 C3514 0.930 . S
H3507 C3515 0.930 . S
H3508 C3518 0.930 . S
H3509 C3519 0.930 . S
C3510 H3504 0.930 . S
C3510 C3511 1.355 . S
C3510 C3512 1.415 . S
C3511 C3510 1.355 . S
C3511 C3513 1.419 . S
C3512 C3510 1.415 . S
C3512 C3517 1.425 . S
C3512 C3519 1.409 . S
C3513 H3505 0.930 . S
C3513 C3511 1.419 . S
C3513 C3514 1.362 . S
C3514 H3506 0.930 . S
C3514 C3513 1.362 . S
C3514 C3517 1.409 . S
C3515 H3507 0.930 . S
C3515 C3516 1.355 . S
C3515 C3517 1.415 . S
C3516 C3515 1.355 . S
C3516 C3518 1.419 . S
C3517 C3512 1.425 . S
C3517 C3514 1.409 . S
C3517 C3515 1.415 . S
C3518 H3508 0.930 . S
C3518 C3516 1.419 . S
C3518 C3519 1.362 . S
C3519 H3509 0.930 . S
C3519 C3512 1.409 . S
C3519 C3518 1.362 . S
H3520 C3526 0.930 . S
H3521 C3529 0.930 . S
H3522 C3530 0.930 . S
H3523 C3531 0.930 . S
H3524 C3534 0.930 . S
H3525 C3535 0.930 . S
C3526 H3520 0.930 . S
C3526 C3527 1.355 . S
C3526 C3528 1.415 . S
C3527 C3526 1.355 . S
C3527 C3529 1.419 . S
C3528 C3526 1.415 . S
C3528 C3533 1.425 . S
C3528 C3535 1.409 . S
C3529 H3521 0.930 . S
C3529 C3527 1.419 . S
C3529 C3530 1.362 . S
C3530 H3522 0.930 . S
C3530 C3529 1.362 . S
C3530 C3533 1.409 . S
C3531 H3523 0.930 . S
C3531 C3532 1.355 . S
C3531 C3533 1.415 . S
C3532 C3531 1.355 . S
C3532 C3534 1.419 . S
C3533 C3528 1.425 . S
C3533 C3530 1.409 . S
C3533 C3531 1.415 . S
C3534 H3524 0.930 . S
C3534 C3532 1.419 . S
C3534 C3535 1.362 . S
C3535 H3525 0.930 . S
C3535 C3528 1.409 . S
C3535 C3534 1.362 . S
H3536 C3542 0.930 . S
H3537 C3545 0.930 . S
H3538 C3546 0.930 . S
H3539 C3547 0.930 . S
H3540 C3550 0.930 . S
H3541 C3551 0.930 . S
C3542 H3536 0.930 . S
C3542 C3543 1.355 . S
C3542 C3544 1.415 . S
C3543 C3542 1.355 . S
C3543 C3545 1.419 . S
C3544 C3542 1.415 . S
C3544 C3549 1.425 . S
C3544 C3551 1.409 . S
C3545 H3537 0.930 . S
C3545 C3543 1.419 . S
C3545 C3546 1.362 . S
C3546 H3538 0.930 . S
C3546 C3545 1.362 . S
C3546 C3549 1.409 . S
C3547 H3539 0.930 . S
C3547 C3548 1.355 . S
C3547 C3549 1.415 . S
C3548 C3547 1.355 . S
C3548 C3550 1.419 . S
C3549 C3544 1.425 . S
C3549 C3546 1.409 . S
C3549 C3547 1.415 . S
C3550 H3540 0.930 . S
C3550 C3548 1.419 . S
C3550 C3551 1.362 . S
C3551 H3541 0.930 . S
C3551 C3544 1.409 . S
C3551 C3550 1.362 . S
H3552 C3558 0.930 . S
H3553 C3561 0.945 . S
H3554 C3562 0.930 . S
H3555 C3563 0.930 . S
H3556 C3566 0.930 . S
H3557 C3567 0.930 . S
C3558 H3552 0.930 . S
C3558 C3559 1.355 . S
C3558 C3560 1.415 . S
C3559 C3558 1.355 . S
C3559 C3561 1.419 . S
C3560 C3558 1.415 . S
C3560 C3565 1.425 . S
C3560 C3567 1.409 . S
C3561 H3553 0.945 . S
C3561 C3559 1.419 . S
C3561 C3562 1.362 1_556 S
C3562 H3554 0.930 . S
C3562 C3561 1.362 1_554 S
C3562 C3565 1.409 1_554 S
C3563 H3555 0.930 . S
C3563 C3564 1.355 1_554 S
C3563 C3565 1.415 1_554 S
C3564 C3563 1.355 1_556 S
C3564 C3566 1.419 . S
C3565 C3560 1.425 . S
C3565 C3562 1.409 1_556 S
C3565 C3563 1.415 1_556 S
C3566 H3556 0.930 . S
C3566 C3564 1.419 . S
C3566 C3567 1.362 . S
C3567 H3557 0.930 . S
C3567 C3560 1.409 . S
C3567 C3566 1.362 . S
H3568 C3574 0.930 . S
H3569 C3577 0.930 . S
H3570 C3578 0.930 . S
H3571 C3579 0.930 . S
H3572 C3582 0.930 . S
H3573 C3583 0.930 . S
C3574 H3568 0.930 . S
C3574 C3575 1.355 . S
C3574 C3576 1.415 . S
C3575 C3574 1.355 . S
C3575 C3577 1.419 . S
C3576 C3574 1.415 . S
C3576 C3581 1.425 . S
C3576 C3583 1.409 . S
C3577 H3569 0.930 . S
C3577 C3575 1.419 . S
C3577 C3578 1.362 . S
C3578 H3570 0.930 . S
C3578 C3577 1.362 . S
C3578 C3581 1.409 . S
C3579 H3571 0.930 . S
C3579 C3580 1.355 . S
C3579 C3581 1.415 . S
C3580 C3579 1.355 . S
C3580 C3582 1.419 . S
C3581 C3576 1.425 . S
C3581 C3578 1.409 . S
C3581 C3579 1.415 . S
C3582 H3572 0.930 . S
C3582 C3580 1.419 . S
C3582 C3583 1.362 . S
C3583 H3573 0.930 . S
C3583 C3576 1.409 . S
C3583 C3582 1.362 . S
H3584 C3590 0.930 . S
H3585 C3593 0.930 . S
H3586 C3594 0.930 . S
H3587 C3595 0.930 . S
H3588 C3598 0.930 . S
H3589 C3599 0.930 . S
C3590 H3584 0.930 . S
C3590 C3591 1.355 . S
C3590 C3592 1.415 . S
C3591 C3590 1.355 . S
C3591 C3593 1.419 . S
C3592 C3590 1.415 . S
C3592 C3597 1.425 . S
C3592 C3599 1.409 . S
C3593 H3585 0.930 . S
C3593 C3591 1.419 . S
C3593 C3594 1.362 . S
C3594 H3586 0.930 . S
C3594 C3593 1.362 . S
C3594 C3597 1.409 . S
C3595 H3587 0.930 . S
C3595 C3596 1.355 . S
C3595 C3597 1.415 . S
C3596 C3595 1.355 . S
C3596 C3598 1.419 . S
C3597 C3592 1.425 . S
C3597 C3594 1.409 . S
C3597 C3595 1.415 . S
C3598 H3588 0.930 . S
C3598 C3596 1.419 . S
C3598 C3599 1.362 . S
C3599 H3589 0.930 . S
C3599 C3592 1.409 . S
C3599 C3598 1.362 . S
H3600 C3606 0.930 . S
H3601 C3609 0.930 1_455 S
H3602 C3610 0.930 . S
H3603 C3611 0.930 . S
H3604 C3614 0.930 . S
H3605 C3615 0.930 . S
C3606 H3600 0.930 . S
C3606 C3607 1.355 . S
C3606 C3608 1.415 . S
C3607 C3606 1.355 . S
C3607 C3609 1.419 . S
C3608 C3606 1.415 . S
C3608 C3613 1.425 . S
C3608 C3615 1.409 . S
C3609 H3601 0.930 1_655 S
C3609 C3607 1.419 . S
C3609 C3610 1.362 . S
C3610 H3602 0.930 . S
C3610 C3609 1.362 . S
C3610 C3613 1.409 . S
C3611 H3603 0.930 . S
C3611 C3612 1.355 . S
C3611 C3613 1.415 . S
C3612 C3611 1.355 . S
C3612 C3614 1.419 . S
C3613 C3608 1.425 . S
C3613 C3610 1.409 . S
C3613 C3611 1.415 . S
C3614 H3604 0.930 . S
C3614 C3612 1.419 . S
C3614 C3615 1.362 . S
C3615 H3605 0.930 . S
C3615 C3608 1.409 . S
C3615 C3614 1.362 . S
H3616 C3622 0.930 . S
H3617 C3625 0.930 . S
H3618 C3626 0.930 . S
H3619 C3627 0.930 . S
H3620 C3630 0.930 . S
H3621 C3631 0.930 . S
C3622 H3616 0.930 . S
C3622 C3623 1.355 . S
C3622 C3624 1.369 1_655 S
C3623 C3622 1.355 . S
C3623 C3625 1.419 1_655 S
C3624 C3622 1.369 1_455 S
C3624 C3629 1.477 . S
C3624 C3631 1.407 1_455 S
C3625 H3617 0.930 . S
C3625 C3623 1.419 1_455 S
C3625 C3626 1.362 . S
C3626 H3618 0.930 . S
C3626 C3625 1.362 . S
C3626 C3629 1.409 . S
C3627 H3619 0.930 . S
C3627 C3628 1.355 . S
C3627 C3629 1.415 . S
C3628 C3627 1.355 . S
C3628 C3630 1.419 . S
C3629 C3624 1.477 . S
C3629 C3626 1.409 . S
C3629 C3627 1.415 . S
C3630 H3620 0.930 . S
C3630 C3628 1.419 . S
C3630 C3631 1.362 1_455 S
C3631 H3621 0.930 . S
C3631 C3624 1.407 1_655 S
C3631 C3630 1.362 1_655 S
H3632 C3638 0.930 . S
H3633 C3641 0.930 . S
H3634 C3642 0.930 . S
H3635 C3643 0.930 . S
H3636 C3646 0.930 . S
H3637 C3647 0.930 . S
C3638 H3632 0.930 . S
C3638 C3639 1.355 . S
C3638 C3640 1.415 . S
C3639 C3638 1.355 . S
C3639 C3641 1.419 . S
C3640 C3638 1.415 . S
C3640 C3645 1.425 . S
C3640 C3647 1.409 . S
C3641 H3633 0.930 . S
C3641 C3639 1.419 . S
C3641 C3642 1.362 . S
C3642 H3634 0.930 . S
C3642 C3641 1.362 . S
C3642 C3645 1.409 . S
C3643 H3635 0.930 . S
C3643 C3644 1.355 . S
C3643 C3645 1.415 . S
C3644 C3643 1.355 . S
C3644 C3646 1.419 . S
C3645 C3640 1.425 . S
C3645 C3642 1.409 . S
C3645 C3643 1.415 . S
C3646 H3636 0.930 . S
C3646 C3644 1.419 . S
C3646 C3647 1.362 . S
C3647 H3637 0.930 . S
C3647 C3640 1.409 . S
C3647 C3646 1.362 . S
H3648 C3654 0.930 . S
H3649 C3657 0.930 . S
H3650 C3658 0.930 . S
H3651 C3659 0.930 . S
H3652 C3662 0.930 . S
H3653 C3663 0.930 . S
C3654 H3648 0.930 . S
C3654 C3655 1.355 . S
C3654 C3656 1.415 . S
C3655 C3654 1.355 . S
C3655 C3657 1.419 . S
C3656 C3654 1.415 . S
C3656 C3661 1.425 . S
C3656 C3663 1.409 . S
C3657 H3649 0.930 . S
C3657 C3655 1.419 . S
C3657 C3658 1.362 . S
C3658 H3650 0.930 . S
C3658 C3657 1.362 . S
C3658 C3661 1.409 . S
C3659 H3651 0.930 . S
C3659 C3660 1.355 . S
C3659 C3661 1.415 . S
C3660 C3659 1.355 . S
C3660 C3662 1.419 . S
C3661 C3656 1.425 . S
C3661 C3658 1.409 . S
C3661 C3659 1.415 . S
C3662 H3652 0.930 . S
C3662 C3660 1.419 . S
C3662 C3663 1.362 . S
C3663 H3653 0.930 . S
C3663 C3656 1.409 . S
C3663 C3662 1.362 . S
H3664 C3670 0.930 . S
H3665 C3673 0.930 . S
H3666 C3674 0.930 . S
H3667 C3675 0.930 . S
H3668 C3678 0.930 . S
H3669 C3679 0.930 . S
C3670 H3664 0.930 . S
C3670 C3671 1.355 . S
C3670 C3672 1.415 . S
C3671 C3670 1.355 . S
C3671 C3673 1.419 . S
C3672 C3670 1.415 . S
C3672 C3677 1.425 . S
C3672 C3679 1.409 . S
C3673 H3665 0.930 . S
C3673 C3671 1.419 . S
C3673 C3674 1.362 . S
C3674 H3666 0.930 . S
C3674 C3673 1.362 . S
C3674 C3677 1.409 . S
C3675 H3667 0.930 . S
C3675 C3676 1.355 . S
C3675 C3677 1.415 . S
C3676 C3675 1.355 . S
C3676 C3678 1.419 . S
C3677 C3672 1.425 . S
C3677 C3674 1.409 . S
C3677 C3675 1.415 . S
C3678 H3668 0.930 . S
C3678 C3676 1.419 . S
C3678 C3679 1.362 . S
C3679 H3669 0.930 . S
C3679 C3672 1.409 . S
C3679 C3678 1.362 . S
H3680 C3686 0.930 . S
H3681 C3689 0.930 . S
H3682 C3690 0.930 . S
H3683 C3691 0.930 . S
H3684 C3694 0.930 . S
H3685 C3695 0.930 . S
C3686 H3680 0.930 . S
C3686 C3687 1.355 . S
C3686 C3688 1.415 . S
C3687 C3686 1.355 . S
C3687 C3689 1.419 . S
C3688 C3686 1.415 . S
C3688 C3693 1.425 . S
C3688 C3695 1.409 . S
C3689 H3681 0.930 . S
C3689 C3687 1.419 . S
C3689 C3690 1.362 . S
C3690 H3682 0.930 . S
C3690 C3689 1.362 . S
C3690 C3693 1.409 . S
C3691 H3683 0.930 . S
C3691 C3692 1.355 . S
C3691 C3693 1.415 . S
C3692 C3691 1.355 . S
C3692 C3694 1.419 . S
C3693 C3688 1.425 . S
C3693 C3690 1.409 . S
C3693 C3691 1.415 . S
C3694 H3684 0.930 . S
C3694 C3692 1.419 . S
C3694 C3695 1.362 . S
C3695 H3685 0.930 . S
C3695 C3688 1.409 . S
C3695 C3694 1.362 . S
H3696 C3702 0.930 . S
H3697 C3705 0.930 . S
H3698 C3706 0.930 . S
H3699 C3707 0.930 . S
H3700 C3710 0.930 . S
H3701 C3711 0.930 . S
C3702 H3696 0.930 . S
C3702 C3703 1.355 . S
C3702 C3704 1.415 . S
C3703 C3702 1.355 . S
C3703 C3705 1.419 . S
C3704 C3702 1.415 . S
C3704 C3709 1.425 . S
C3704 C3711 1.409 . S
C3705 H3697 0.930 . S
C3705 C3703 1.419 . S
C3705 C3706 1.362 . S
C3706 H3698 0.930 . S
C3706 C3705 1.362 . S
C3706 C3709 1.409 . S
C3707 H3699 0.930 . S
C3707 C3708 1.355 . S
C3707 C3709 1.415 . S
C3708 C3707 1.355 . S
C3708 C3710 1.419 . S
C3709 C3704 1.425 . S
C3709 C3706 1.409 . S
C3709 C3707 1.415 . S
C3710 H3700 0.930 . S
C3710 C3708 1.419 . S
C3710 C3711 1.362 . S
C3711 H3701 0.930 . S
C3711 C3704 1.409 . S
C3711 C3710 1.362 . S
H3712 C3718 0.930 . S
H3713 C3721 0.930 . S
H3714 C3722 0.930 . S
H3715 C3723 0.930 . S
H3716 C3726 0.930 . S
H3717 C3727 0.930 . S
C3718 H3712 0.930 . S
C3718 C3719 1.355 . S
C3718 C3720 1.415 . S
C3719 C3718 1.355 . S
C3719 C3721 1.419 . S
C3720 C3718 1.415 . S
C3720 C3725 1.425 . S
C3720 C3727 1.409 . S
C3721 H3713 0.930 . S
C3721 C3719 1.419 . S
C3721 C3722 1.362 . S
C3722 H3714 0.930 . S
C3722 C3721 1.362 . S
C3722 C3725 1.409 . S
C3723 H3715 0.930 . S
C3723 C3724 1.355 . S
C3723 C3725 1.415 . S
C3724 C3723 1.355 . S
C3724 C3726 1.419 . S
C3725 C3720 1.425 . S
C3725 C3722 1.409 . S
C3725 C3723 1.415 . S
C3726 H3716 0.930 . S
C3726 C3724 1.419 . S
C3726 C3727 1.362 . S
C3727 H3717 0.930 . S
C3727 C3720 1.409 . S
C3727 C3726 1.362 . S
H3728 C3734 0.930 . S
H3729 C3737 0.930 . S
H3730 C3738 0.930 . S
H3731 C3739 0.930 . S
H3732 C3742 0.930 . S
H3733 C3743 0.930 . S
C3734 H3728 0.930 . S
C3734 C3735 1.355 . S
C3734 C3736 1.415 . S
C3735 C3734 1.355 . S
C3735 C3737 1.419 . S
C3736 C3734 1.415 . S
C3736 C3741 1.425 . S
C3736 C3743 1.409 . S
C3737 H3729 0.930 . S
C3737 C3735 1.419 . S
C3737 C3738 1.362 . S
C3738 H3730 0.930 . S
C3738 C3737 1.362 . S
C3738 C3741 1.409 . S
C3739 H3731 0.930 . S
C3739 C3740 1.355 . S
C3739 C3741 1.415 . S
C3740 C3739 1.355 . S
C3740 C3742 1.419 . S
C3741 C3736 1.425 . S
C3741 C3738 1.409 . S
C3741 C3739 1.415 . S
C3742 H3732 0.930 . S
C3742 C3740 1.419 . S
C3742 C3743 1.362 . S
C3743 H3733 0.930 . S
C3743 C3736 1.409 . S
C3743 C3742 1.362 . S
H3744 C3750 0.930 . S
H3745 C3753 0.930 . S
H3746 C3754 0.930 . S
H3747 C3755 0.930 . S
H3748 C3758 0.930 . S
H3749 C3759 0.930 . S
C3750 H3744 0.930 . S
C3750 C3751 1.355 . S
C3750 C3752 1.415 . S
C3751 C3750 1.355 . S
C3751 C3753 1.419 . S
C3752 C3750 1.415 . S
C3752 C3757 1.425 . S
C3752 C3759 1.409 . S
C3753 H3745 0.930 . S
C3753 C3751 1.419 . S
C3753 C3754 1.362 . S
C3754 H3746 0.930 . S
C3754 C3753 1.362 . S
C3754 C3757 1.409 . S
C3755 H3747 0.930 . S
C3755 C3756 1.355 . S
C3755 C3757 1.415 . S
C3756 C3755 1.355 . S
C3756 C3758 1.419 . S
C3757 C3752 1.425 . S
C3757 C3754 1.409 . S
C3757 C3755 1.415 . S
C3758 H3748 0.930 . S
C3758 C3756 1.419 . S
C3758 C3759 1.362 . S
C3759 H3749 0.930 . S
C3759 C3752 1.409 . S
C3759 C3758 1.362 . S
H3760 C3766 0.930 . S
H3761 C3769 0.930 . S
H3762 C3770 0.930 . S
H3763 C3771 0.930 . S
H3764 C3774 0.930 . S
H3765 C3775 0.930 . S
C3766 H3760 0.930 . S
C3766 C3767 1.355 . S
C3766 C3768 1.415 . S
C3767 C3766 1.355 . S
C3767 C3769 1.419 . S
C3768 C3766 1.415 . S
C3768 C3773 1.425 . S
C3768 C3775 1.409 . S
C3769 H3761 0.930 . S
C3769 C3767 1.419 . S
C3769 C3770 1.362 . S
C3770 H3762 0.930 . S
C3770 C3769 1.362 . S
C3770 C3773 1.409 . S
C3771 H3763 0.930 . S
C3771 C3772 1.355 . S
C3771 C3773 1.415 . S
C3772 C3771 1.355 . S
C3772 C3774 1.419 . S
C3773 C3768 1.425 . S
C3773 C3770 1.409 . S
C3773 C3771 1.415 . S
C3774 H3764 0.930 . S
C3774 C3772 1.419 . S
C3774 C3775 1.362 . S
C3775 H3765 0.930 . S
C3775 C3768 1.409 . S
C3775 C3774 1.362 . S
H3776 C3782 0.930 . S
H3777 C3785 0.930 . S
H3778 C3786 0.930 . S
H3779 C3787 0.930 . S
H3780 C3790 0.930 . S
H3781 C3791 0.930 . S
C3782 H3776 0.930 . S
C3782 C3783 1.355 . S
C3782 C3784 1.415 . S
C3783 C3782 1.355 . S
C3783 C3785 1.419 . S
C3784 C3782 1.415 . S
C3784 C3789 1.425 . S
C3784 C3791 1.409 . S
C3785 H3777 0.930 . S
C3785 C3783 1.419 . S
C3785 C3786 1.362 . S
C3786 H3778 0.930 . S
C3786 C3785 1.362 . S
C3786 C3789 1.409 . S
C3787 H3779 0.930 . S
C3787 C3788 1.355 . S
C3787 C3789 1.415 . S
C3788 C3787 1.355 . S
C3788 C3790 1.419 . S
C3789 C3784 1.425 . S
C3789 C3786 1.409 . S
C3789 C3787 1.415 . S
C3790 H3780 0.930 . S
C3790 C3788 1.419 . S
C3790 C3791 1.362 . S
C3791 H3781 0.930 . S
C3791 C3784 1.409 . S
C3791 C3790 1.362 . S
H3792 C3798 0.930 . S
H3793 C3801 0.930 . S
H3794 C3802 0.930 . S
H3795 C3803 0.930 . S
H3796 C3806 0.930 . S
H3797 C3807 0.930 . S
C3798 H3792 0.930 . S
C3798 C3799 1.355 . S
C3798 C3800 1.415 . S
C3799 C3798 1.355 . S
C3799 C3801 1.419 . S
C3800 C3798 1.415 . S
C3800 C3805 1.425 . S
C3800 C3807 1.409 . S
C3801 H3793 0.930 . S
C3801 C3799 1.419 . S
C3801 C3802 1.362 . S
C3802 H3794 0.930 . S
C3802 C3801 1.362 . S
C3802 C3805 1.409 . S
C3803 H3795 0.930 . S
C3803 C3804 1.355 . S
C3803 C3805 1.415 . S
C3804 C3803 1.355 . S
C3804 C3806 1.419 . S
C3805 C3800 1.425 . S
C3805 C3802 1.409 . S
C3805 C3803 1.415 . S
C3806 H3796 0.930 . S
C3806 C3804 1.419 . S
C3806 C3807 1.362 . S
C3807 H3797 0.930 . S
C3807 C3800 1.409 . S
C3807 C3806 1.362 . S
H3808 C3814 0.930 . S
H3809 C3817 0.930 . S
H3810 C3818 0.930 . S
H3811 C3819 0.930 . S
H3812 C3822 0.930 . S
H3813 C3823 0.930 . S
C3814 H3808 0.930 . S
C3814 C3815 1.355 . S
C3814 C3816 1.415 . S
C3815 C3814 1.355 . S
C3815 C3817 1.419 . S
C3816 C3814 1.415 . S
C3816 C3821 1.425 . S
C3816 C3823 1.409 . S
C3817 H3809 0.930 . S
C3817 C3815 1.419 . S
C3817 C3818 1.362 . S
C3818 H3810 0.930 . S
C3818 C3817 1.362 . S
C3818 C3821 1.409 . S
C3819 H3811 0.930 . S
C3819 C3820 1.355 . S
C3819 C3821 1.415 . S
C3820 C3819 1.355 . S
C3820 C3822 1.419 . S
C3821 C3816 1.425 . S
C3821 C3818 1.409 . S
C3821 C3819 1.415 . S
C3822 H3812 0.930 . S
C3822 C3820 1.419 . S
C3822 C3823 1.362 . S
C3823 H3813 0.930 . S
C3823 C3816 1.409 . S
C3823 C3822 1.362 . S
H3824 C3830 0.930 . S
H3825 C3833 0.930 . S
H3826 C3834 0.930 . S
H3827 C3835 0.930 . S
H3828 C3838 0.930 . S
H3829 C3839 0.930 . S
C3830 H3824 0.930 . S
C3830 C3831 1.355 . S
C3830 C3832 1.415 . S
C3831 C3830 1.355 . S
C3831 C3833 1.419 1_545 S
C3832 C3830 1.415 . S
C3832 C3837 1.425 1_545 S
C3832 C3839 1.409 . S
C3833 H3825 0.930 . S
C3833 C3831 1.419 1_565 S
C3833 C3834 1.362 . S
C3834 H3826 0.930 . S
C3834 C3833 1.362 . S
C3834 C3837 1.409 . S
C3835 H3827 0.930 . S
C3835 C3836 1.355 1_565 S
C3835 C3837 1.415 . S
C3836 C3835 1.355 1_545 S
C3836 C3838 1.419 . S
C3837 C3832 1.425 1_565 S
C3837 C3834 1.409 . S
C3837 C3835 1.415 . S
C3838 H3828 0.930 . S
C3838 C3836 1.419 . S
C3838 C3839 1.362 . S
C3839 H3829 0.930 . S
C3839 C3832 1.409 . S
C3839 C3838 1.362 . S
H3840 C3846 0.930 . S
H3841 C3849 0.930 . S
H3842 C3850 0.930 . S
H3843 C3851 0.930 . S
H3844 C3854 0.930 . S
H3845 C3855 0.930 . S
C3846 H3840 0.930 . S
C3846 C3847 1.355 . S
C3846 C3848 1.415 . S
C3847 C3846 1.355 . S
C3847 C3849 1.419 . S
C3848 C3846 1.415 . S
C3848 C3853 1.425 . S
C3848 C3855 1.409 . S
C3849 H3841 0.930 . S
C3849 C3847 1.419 . S
C3849 C3850 1.362 . S
C3850 H3842 0.930 . S
C3850 C3849 1.362 . S
C3850 C3853 1.409 . S
C3851 H3843 0.930 . S
C3851 C3852 1.355 . S
C3851 C3853 1.415 . S
C3852 C3851 1.355 . S
C3852 C3854 1.419 . S
C3853 C3848 1.425 . S
C3853 C3850 1.409 . S
C3853 C3851 1.415 . S
C3854 H3844 0.930 . S
C3854 C3852 1.419 . S
C3854 C3855 1.362 . S
C3855 H3845 0.930 . S
C3855 C3848 1.409 . S
C3855 C3854 1.362 . S
H3856 C3862 0.930 . S
H3857 C3865 0.930 . S
H3858 C3866 0.930 . S
H3859 C3867 0.930 . S
H3860 C3870 0.930 . S
H3861 C3871 0.930 . S
C3862 H3856 0.930 . S
C3862 C3863 1.355 . S
C3862 C3864 1.415 . S
C3863 C3862 1.355 . S
C3863 C3865 1.419 1_554 S
C3864 C3862 1.415 . S
C3864 C3869 1.425 . S
C3864 C3871 1.409 . S
C3865 H3857 0.930 . S
C3865 C3863 1.419 1_556 S
C3865 C3866 1.362 . S
C3866 H3858 0.930 . S
C3866 C3865 1.362 . S
C3866 C3869 1.409 1_556 S
C3867 H3859 0.930 . S
C3867 C3868 1.355 . S
C3867 C3869 1.415 . S
C3868 C3867 1.355 . S
C3868 C3870 1.419 . S
C3869 C3864 1.425 . S
C3869 C3866 1.409 1_554 S
C3869 C3867 1.415 . S
C3870 H3860 0.930 . S
C3870 C3868 1.419 . S
C3870 C3871 1.362 . S
C3871 H3861 0.930 . S
C3871 C3864 1.409 . S
C3871 C3870 1.362 . S
H3872 C3878 0.930 . S
H3873 C3881 0.930 . S
H3874 C3882 0.930 . S
H3875 C3883 0.930 . S
H3876 C3886 0.930 . S
H3877 C3887 0.930 . S
C3878 H3872 0.930 . S
C3878 C3879 1.355 . S
C3878 C3880 1.415 . S
C3879 C3878 1.355 . S
C3879 C3881 1.419 . S
C3880 C3878 1.415 . S
C3880 C3885 1.425 . S
C3880 C3887 1.409 . S
C3881 H3873 0.930 . S
C3881 C3879 1.419 . S
C3881 C3882 1.362 . S
C3882 H3874 0.930 . S
C3882 C3881 1.362 . S
C3882 C3885 1.409 . S
C3883 H3875 0.930 . S
C3883 C3884 1.355 . S
C3883 C3885 1.415 . S
C3884 C3883 1.355 . S
C3884 C3886 1.419 . S
C3885 C3880 1.425 . S
C3885 C3882 1.409 . S
C3885 C3883 1.415 . S
C3886 H3876 0.930 . S
C3886 C3884 1.419 . S
C3886 C3887 1.362 . S
C3887 H3877 0.930 . S
C3887 C3880 1.409 . S
C3887 C3886 1.362 . S
H3888 C3894 0.930 . S
H3889 C3897 0.930 . S
H3890 C3898 0.930 . S
H3891 C3899 0.930 . S
H3892 C3902 0.930 . S
H3893 C3903 0.930 . S
C3894 H3888 0.930 . S
C3894 C3895 1.355 . S
C3894 C3896 1.415 . S
C3895 C3894 1.355 . S
C3895 C3897 1.419 . S
C3896 C3894 1.415 . S
C3896 C3901 1.425 . S
C3896 C3903 1.409 . S
C3897 H3889 0.930 . S
C3897 C3895 1.419 . S
C3897 C3898 1.362 . S
C3898 H3890 0.930 . S
C3898 C3897 1.362 . S
C3898 C3901 1.409 . S
C3899 H3891 0.930 . S
C3899 C3900 1.355 . S
C3899 C3901 1.415 . S
C3900 C3899 1.355 . S
C3900 C3902 1.419 . S
C3901 C3896 1.425 . S
C3901 C3898 1.409 . S
C3901 C3899 1.415 . S
C3902 H3892 0.930 . S
C3902 C3900 1.419 . S
C3902 C3903 1.362 . S
C3903 H3893 0.930 . S
C3903 C3896 1.409 . S
C3903 C3902 1.362 . S
H3904 C3910 0.930 . S
H3905 C3913 0.930 . S
H3906 C3914 0.930 . S
H3907 C3915 0.930 . S
H3908 C3918 0.930 . S
H3909 C3919 0.930 . S
C3910 H3904 0.930 . S
C3910 C3911 1.355 . S
C3910 C3912 1.415 . S
C3911 C3910 1.355 . S
C3911 C3913 1.419 . S
C3912 C3910 1.415 . S
C3912 C3917 1.425 . S
C3912 C3919 1.409 . S
C3913 H3905 0.930 . S
C3913 C3911 1.419 . S
C3913 C3914 1.362 . S
C3914 H3906 0.930 . S
C3914 C3913 1.362 . S
C3914 C3917 1.409 . S
C3915 H3907 0.930 . S
C3915 C3916 1.355 . S
C3915 C3917 1.415 . S
C3916 C3915 1.355 . S
C3916 C3918 1.419 . S
C3917 C3912 1.425 . S
C3917 C3914 1.409 . S
C3917 C3915 1.415 . S
C3918 H3908 0.930 . S
C3918 C3916 1.419 . S
C3918 C3919 1.362 . S
C3919 H3909 0.930 . S
C3919 C3912 1.409 . S
C3919 C3918 1.362 . S
H3920 C3926 0.930 . S
H3921 C3929 0.930 . S
H3922 C3930 0.930 . S
H3923 C3931 0.930 . S
H3924 C3934 0.930 . S
H3925 C3935 0.930 . S
C3926 H3920 0.930 . S
C3926 C3927 1.355 . S
C3926 C3928 1.415 . S
C3927 C3926 1.355 . S
C3927 C3929 1.419 . S
C3928 C3926 1.415 . S
C3928 C3933 1.425 . S
C3928 C3935 1.409 . S
C3929 H3921 0.930 . S
C3929 C3927 1.419 . S
C3929 C3930 1.362 . S
C3930 H3922 0.930 . S
C3930 C3929 1.362 . S
C3930 C3933 1.409 . S
C3931 H3923 0.930 . S
C3931 C3932 1.355 . S
C3931 C3933 1.415 . S
C3932 C3931 1.355 . S
C3932 C3934 1.419 . S
C3933 C3928 1.425 . S
C3933 C3930 1.409 . S
C3933 C3931 1.415 . S
C3934 H3924 0.930 . S
C3934 C3932 1.419 . S
C3934 C3935 1.362 . S
C3935 H3925 0.930 . S
C3935 C3928 1.409 . S
C3935 C3934 1.362 . S
H3936 C3942 0.930 . S
H3937 C3945 0.930 . S
H3938 C3946 0.930 . S
H3939 C3947 0.930 . S
H3940 C3950 0.930 . S
H3941 C3951 0.930 . S
C3942 H3936 0.930 . S
C3942 C3943 1.355 . S
C3942 C3944 1.415 . S
C3943 C3942 1.355 . S
C3943 C3945 1.419 . S
C3944 C3942 1.415 . S
C3944 C3949 1.425 . S
C3944 C3951 1.409 . S
C3945 H3937 0.930 . S
C3945 C3943 1.419 . S
C3945 C3946 1.362 . S
C3946 H3938 0.930 . S
C3946 C3945 1.362 . S
C3946 C3949 1.409 . S
C3947 H3939 0.930 . S
C3947 C3948 1.355 . S
C3947 C3949 1.415 . S
C3948 C3947 1.355 . S
C3948 C3950 1.419 . S
C3949 C3944 1.425 . S
C3949 C3946 1.409 . S
C3949 C3947 1.415 . S
C3950 H3940 0.930 . S
C3950 C3948 1.419 . S
C3950 C3951 1.362 . S
C3951 H3941 0.930 . S
C3951 C3944 1.409 . S
C3951 C3950 1.362 . S
H3952 C3958 0.930 . S
H3953 C3961 0.930 . S
H3954 C3962 0.930 . S
H3955 C3963 0.930 . S
H3956 C3966 0.930 . S
H3957 C3967 0.930 . S
C3958 H3952 0.930 . S
C3958 C3959 1.355 . S
C3958 C3960 1.415 . S
C3959 C3958 1.355 . S
C3959 C3961 1.419 . S
C3960 C3958 1.415 . S
C3960 C3965 1.425 . S
C3960 C3967 1.409 . S
C3961 H3953 0.930 . S
C3961 C3959 1.419 . S
C3961 C3962 1.362 . S
C3962 H3954 0.930 . S
C3962 C3961 1.362 . S
C3962 C3965 1.409 . S
C3963 H3955 0.930 . S
C3963 C3964 1.355 . S
C3963 C3965 1.415 . S
C3964 C3963 1.355 . S
C3964 C3966 1.419 . S
C3965 C3960 1.425 . S
C3965 C3962 1.409 . S
C3965 C3963 1.415 . S
C3966 H3956 0.930 . S
C3966 C3964 1.419 . S
C3966 C3967 1.362 . S
C3967 H3957 0.930 . S
C3967 C3960 1.409 . S
C3967 C3966 1.362 . S
H3968 C3974 0.930 . S
H3969 C3977 0.930 . S
H3970 C3978 0.930 . S
H3971 C3979 0.930 . S
H3972 C3982 0.930 . S
H3973 C3983 0.930 . S
C3974 H3968 0.930 . S
C3974 C3975 1.355 . S
C3974 C3976 1.415 . S
C3975 C3974 1.355 . S
C3975 C3977 1.419 . S
C3976 C3974 1.415 . S
C3976 C3981 1.425 . S
C3976 C3983 1.409 . S
C3977 H3969 0.930 . S
C3977 C3975 1.419 . S
C3977 C3978 1.362 . S
C3978 H3970 0.930 . S
C3978 C3977 1.362 . S
C3978 C3981 1.409 . S
C3979 H3971 0.930 . S
C3979 C3980 1.355 . S
C3979 C3981 1.415 . S
C3980 C3979 1.355 . S
C3980 C3982 1.419 . S
C3981 C3976 1.425 . S
C3981 C3978 1.409 . S
C3981 C3979 1.415 . S
C3982 H3972 0.930 . S
C3982 C3980 1.419 . S
C3982 C3983 1.362 . S
C3983 H3973 0.930 . S
C3983 C3976 1.409 . S
C3983 C3982 1.362 . S
H3984 C3990 0.930 . S
H3985 C3993 0.930 . S
H3986 C3994 0.930 . S
H3987 C3995 0.930 . S
H3988 C3998 0.930 . S
H3989 C3999 0.930 . S
C3990 H3984 0.930 . S
C3990 C3991 1.355 . S
C3990 C3992 1.415 . S
C3991 C3990 1.355 . S
C3991 C3993 1.419 . S
C3992 C3990 1.415 . S
C3992 C3997 1.425 . S
C3992 C3999 1.409 . S
C3993 H3985 0.930 . S
C3993 C3991 1.419 . S
C3993 C3994 1.362 . S
C3994 H3986 0.930 . S
C3994 C3993 1.362 . S
C3994 C3997 1.409 . S
C3995 H3987 0.930 . S
C3995 C3996 1.355 . S
C3995 C3997 1.415 . S
C3996 C3995 1.355 . S
C3996 C3998 1.419 . S
C3997 C3992 1.425 . S
C3997 C3994 1.409 . S
C3997 C3995 1.415 . S
C3998 H3988 0.930 . S
C3998 C3996 1.419 . S
C3998 C3999 1.362 . S
C3999 H3989 0.930 . S
C3999 C3992 1.409 . S
C3999 C3998 1.362 . S
H4000 C4006 0.930 . S
H4001 C4009 0.930 . S
H4002 C4010 0.930 . S
H4003 C4011 0.930 . S
H4004 C4014 0.930 . S
H4005 C4015 0.930 . S
C4006 H4000 0.930 . S
C4006 C4007 1.355 . S
C4006 C4008 1.415 . S
C4007 C4006 1.355 . S
C4007 C4009 1.419 . S
C4008 C4006 1.415 . S
C4008 C4013 1.425 . S
C4008 C4015 1.409 . S
C4009 H4001 0.930 . S
C4009 C4007 1.419 . S
C4009 C4010 1.362 . S
C4010 H4002 0.930 . S
C4010 C4009 1.362 . S
C4010 C4013 1.409 . S
C4011 H4003 0.930 . S
C4011 C4012 1.355 . S
C4011 C4013 1.415 . S
C4012 C4011 1.355 . S
C4012 C4014 1.419 . S
C4013 C4008 1.425 . S
C4013 C4010 1.409 . S
C4013 C4011 1.415 . S
C4014 H4004 0.930 . S
C4014 C4012 1.419 . S
C4014 C4015 1.362 . S
C4015 H4005 0.930 . S
C4015 C4008 1.409 . S
C4015 C4014 1.362 . S
H4016 C4022 0.930 . S
H4017 C4025 0.930 . S
H4018 C4026 0.930 . S
H4019 C4027 0.930 . S
H4020 C4030 0.930 . S
H4021 C4031 0.930 . S
C4022 H4016 0.930 . S
C4022 C4023 1.355 . S
C4022 C4024 1.415 . S
C4023 C4022 1.355 . S
C4023 C4025 1.419 . S
C4024 C4022 1.415 . S
C4024 C4029 1.425 . S
C4024 C4031 1.409 . S
C4025 H4017 0.930 . S
C4025 C4023 1.419 . S
C4025 C4026 1.362 . S
C4026 H4018 0.930 . S
C4026 C4025 1.362 . S
C4026 C4029 1.409 . S
C4027 H4019 0.930 . S
C4027 C4028 1.355 . S
C4027 C4029 1.415 . S
C4028 C4027 1.355 . S
C4028 C4030 1.419 . S
C4029 C4024 1.425 . S
C4029 C4026 1.409 . S
C4029 C4027 1.415 . S
C4030 H4020 0.930 . S
C4030 C4028 1.419 . S
C4030 C4031 1.362 . S
C4031 H4021 0.930 . S
C4031 C4024 1.409 . S
C4031 C4030 1.362 . S
H4032 C4038 0.930 . S
H4033 C4041 0.930 . S
H4034 C4042 0.930 . S
H4035 C4043 0.930 . S
H4036 C4046 0.930 . S
H4037 C4047 0.930 . S
C4038 H4032 0.930 . S
C4038 C4039 1.355 . S
C4038 C4040 1.415 . S
C4039 C4038 1.355 . S
C4039 C4041 1.419 . S
C4040 C4038 1.415 . S
C4040 C4045 1.425 . S
C4040 C4047 1.409 . S
C4041 H4033 0.930 . S
C4041 C4039 1.419 . S
C4041 C4042 1.362 . S
C4042 H4034 0.930 . S
C4042 C4041 1.362 . S
C4042 C4045 1.409 . S
C4043 H4035 0.930 . S
C4043 C4044 1.355 . S
C4043 C4045 1.415 . S
C4044 C4043 1.355 . S
C4044 C4046 1.419 . S
C4045 C4040 1.425 . S
C4045 C4042 1.409 . S
C4045 C4043 1.415 . S
C4046 H4036 0.930 . S
C4046 C4044 1.419 . S
C4046 C4047 1.362 . S
C4047 H4037 0.930 . S
C4047 C4040 1.409 . S
C4047 C4046 1.362 . S
H4048 C4054 0.930 . S
H4049 C4057 0.930 . S
H4050 C4058 0.930 . S
H4051 C4059 0.930 . S
H4052 C4062 0.930 . S
H4053 C4063 0.930 . S
C4054 H4048 0.930 . S
C4054 C4055 1.355 . S
C4054 C4056 1.415 . S
C4055 C4054 1.355 . S
C4055 C4057 1.419 . S
C4056 C4054 1.415 . S
C4056 C4061 1.425 . S
C4056 C4063 1.409 . S
C4057 H4049 0.930 . S
C4057 C4055 1.419 . S
C4057 C4058 1.362 . S
C4058 H4050 0.930 . S
C4058 C4057 1.362 . S
C4058 C4061 1.409 . S
C4059 H4051 0.930 . S
C4059 C4060 1.355 . S
C4059 C4061 1.415 . S
C4060 C4059 1.355 . S
C4060 C4062 1.419 . S
C4061 C4056 1.425 . S
C4061 C4058 1.409 . S
C4061 C4059 1.415 . S
C4062 H4052 0.930 . S
C4062 C4060 1.419 . S
C4062 C4063 1.362 . S
C4063 H4053 0.930 . S
C4063 C4056 1.409 . S
C4063 C4062 1.362 . S
H4064 C4070 0.930 . S
H4065 C4073 0.930 . S
H4066 C4074 0.930 . S
H4067 C4075 0.930 . S
H4068 C4078 0.930 . S
H4069 C4079 0.930 . S
C4070 H4064 0.930 . S
C4070 C4071 1.355 . S
C4070 C4072 1.415 . S
C4071 C4070 1.355 . S
C4071 C4073 1.419 1_655 S
C4072 C4070 1.415 . S
C4072 C4077 1.425 1_655 S
C4072 C4079 1.409 . S
C4073 H4065 0.930 . S
C4073 C4071 1.419 1_455 S
C4073 C4074 1.362 . S
C4074 H4066 0.930 . S
C4074 C4073 1.362 . S
C4074 C4077 1.409 . S
C4075 H4067 0.930 . S
C4075 C4076 1.355 . S
C4075 C4077 1.415 . S
C4076 C4075 1.355 . S
C4076 C4078 1.419 1_455 S
C4077 C4072 1.425 1_455 S
C4077 C4074 1.409 . S
C4077 C4075 1.415 . S
C4078 H4068 0.930 . S
C4078 C4076 1.419 1_655 S
C4078 C4079 1.362 . S
C4079 H4069 0.930 . S
C4079 C4072 1.409 . S
C4079 C4078 1.362 . S
H4080 C4086 0.930 . S
H4081 C4089 0.930 . S
H4082 C4090 0.930 . S
H4083 C4091 0.930 . S
H4084 C4094 0.930 . S
H4085 C4095 0.930 . S
C4086 H4080 0.930 . S
C4086 C4087 1.355 . S
C4086 C4088 1.415 . S
C4087 C4086 1.355 . S
C4087 C4089 1.419 . S
C4088 C4086 1.415 . S
C4088 C4093 1.425 . S
C4088 C4095 1.409 . S
C4089 H4081 0.930 . S
C4089 C4087 1.419 . S
C4089 C4090 1.362 . S
C4090 H4082 0.930 . S
C4090 C4089 1.362 . S
C4090 C4093 1.409 . S
C4091 H4083 0.930 . S
C4091 C4092 1.355 . S
C4091 C4093 1.415 . S
C4092 C4091 1.355 . S
C4092 C4094 1.419 . S
C4093 C4088 1.425 . S
C4093 C4090 1.409 . S
C4093 C4091 1.415 . S
C4094 H4084 0.930 . S
C4094 C4092 1.419 . S
C4094 C4095 1.362 . S
C4095 H4085 0.930 . S
C4095 C4088 1.409 . S
C4095 C4094 1.362 . S
H4096 C4102 0.930 . S
H4097 C4105 0.930 . S
H4098 C4106 0.930 . S
H4099 C4107 0.930 . S
H4100 C4110 0.930 . S
H4101 C4111 0.930 . S
C4102 H4096 0.930 . S
C4102 C4103 1.355 . S
C4102 C4104 1.415 . S
C4103 C4102 1.355 . S
C4103 C4105 1.419 . S
C4104 C4102 1.415 . S
C4104 C4109 1.425 . S
C4104 C4111 1.409 . S
C4105 H4097 0.930 . S
C4105 C4103 1.419 . S
C4105 C4106 1.362 . S
C4106 H4098 0.930 . S
C4106 C4105 1.362 . S
C4106 C4109 1.409 . S
C4107 H4099 0.930 . S
C4107 C4108 1.355 . S
C4107 C4109 1.415 . S
C4108 C4107 1.355 . S
C4108 C4110 1.419 . S
C4109 C4104 1.425 . S
C4109 C4106 1.409 . S
C4109 C4107 1.415 . S
C4110 H4100 0.930 . S
C4110 C4108 1.419 . S
C4110 C4111 1.362 . S
C4111 H4101 0.930 . S
C4111 C4104 1.409 . S
C4111 C4110 1.362 . S
H4112 C4118 0.930 . S
H4113 C4121 0.930 . S
H4114 C4122 0.930 . S
H4115 C4123 0.930 . S
H4116 C4126 0.930 . S
H4117 C4127 0.930 . S
C4118 H4112 0.930 . S
C4118 C4119 1.355 . S
C4118 C4120 1.415 . S
C4119 C4118 1.355 . S
C4119 C4121 1.419 . S
C4120 C4118 1.415 . S
C4120 C4125 1.425 . S
C4120 C4127 1.409 . S
C4121 H4113 0.930 . S
C4121 C4119 1.419 . S
C4121 C4122 1.362 . S
C4122 H4114 0.930 . S
C4122 C4121 1.362 . S
C4122 C4125 1.409 . S
C4123 H4115 0.930 . S
C4123 C4124 1.355 . S
C4123 C4125 1.415 . S
C4124 C4123 1.355 . S
C4124 C4126 1.419 . S
C4125 C4120 1.425 . S
C4125 C4122 1.409 . S
C4125 C4123 1.415 . S
C4126 H4116 0.930 . S
C4126 C4124 1.419 . S
C4126 C4127 1.362 . S
C4127 H4117 0.930 . S
C4127 C4120 1.409 . S
C4127 C4126 1.362 . S
H4128 C4134 0.930 . S
H4129 C4137 0.930 . S
H4130 C4138 0.930 . S
H4131 C4139 0.930 . S
H4132 C4142 0.930 . S
H4133 C4143 0.930 . S
C4134 H4128 0.930 . S
C4134 C4135 1.355 . S
C4134 C4136 1.415 . S
C4135 C4134 1.355 . S
C4135 C4137 1.419 . S
C4136 C4134 1.415 . S
C4136 C4141 1.425 . S
C4136 C4143 1.409 . S
C4137 H4129 0.930 . S
C4137 C4135 1.419 . S
C4137 C4138 1.362 . S
C4138 H4130 0.930 . S
C4138 C4137 1.362 . S
C4138 C4141 1.409 . S
C4139 H4131 0.930 . S
C4139 C4140 1.355 . S
C4139 C4141 1.415 . S
C4140 C4139 1.355 . S
C4140 C4142 1.419 . S
C4141 C4136 1.425 . S
C4141 C4138 1.409 . S
C4141 C4139 1.415 . S
C4142 H4132 0.930 . S
C4142 C4140 1.419 . S
C4142 C4143 1.362 . S
C4143 H4133 0.930 . S
C4143 C4136 1.409 . S
C4143 C4142 1.362 . S
H4144 C4150 0.930 . S
H4145 C4153 0.930 . S
H4146 C4154 0.930 . S
H4147 C4155 0.930 . S
H4148 C4158 0.930 . S
H4149 C4159 0.930 . S
C4150 H4144 0.930 . S
C4150 C4151 1.355 . S
C4150 C4152 1.415 . S
C4151 C4150 1.355 . S
C4151 C4153 1.419 . S
C4152 C4150 1.415 . S
C4152 C4157 1.425 . S
C4152 C4159 1.409 . S
C4153 H4145 0.930 . S
C4153 C4151 1.419 . S
C4153 C4154 1.362 . S
C4154 H4146 0.930 . S
C4154 C4153 1.362 . S
C4154 C4157 1.409 . S
C4155 H4147 0.930 . S
C4155 C4156 1.355 . S
C4155 C4157 1.415 . S
C4156 C4155 1.355 . S
C4156 C4158 1.419 . S
C4157 C4152 1.425 . S
C4157 C4154 1.409 . S
C4157 C4155 1.415 . S
C4158 H4148 0.930 . S
C4158 C4156 1.419 . S
C4158 C4159 1.362 . S
C4159 H4149 0.930 . S
C4159 C4152 1.409 . S
C4159 C4158 1.362 . S
H4160 C4166 0.930 . S
H4161 C4169 0.930 . S
H4162 C4170 0.930 . S
H4163 C4171 0.930 . S
H4164 C4174 0.930 . S
H4165 C4175 0.930 . S
C4166 H4160 0.930 . S
C4166 C4167 1.355 . S
C4166 C4168 1.415 . S
C4167 C4166 1.355 . S
C4167 C4169 1.419 . S
C4168 C4166 1.415 . S
C4168 C4173 1.425 . S
C4168 C4175 1.409 . S
C4169 H4161 0.930 . S
C4169 C4167 1.419 . S
C4169 C4170 1.362 . S
C4170 H4162 0.930 . S
C4170 C4169 1.362 . S
C4170 C4173 1.409 . S
C4171 H4163 0.930 . S
C4171 C4172 1.355 . S
C4171 C4173 1.415 . S
C4172 C4171 1.355 . S
C4172 C4174 1.419 . S
C4173 C4168 1.425 . S
C4173 C4170 1.409 . S
C4173 C4171 1.415 . S
C4174 H4164 0.930 . S
C4174 C4172 1.419 . S
C4174 C4175 1.362 . S
C4175 H4165 0.930 . S
C4175 C4168 1.409 . S
C4175 C4174 1.362 . S
H4176 C4182 0.930 . S
H4177 C4185 0.930 . S
H4178 C4186 0.930 . S
H4179 C4187 0.943 . S
H4180 C4190 0.930 . S
H4181 C4191 0.930 . S
C4182 H4176 0.930 . S
C4182 C4183 1.355 . S
C4182 C4184 1.415 . S
C4183 C4182 1.355 . S
C4183 C4185 1.419 . S
C4184 C4182 1.415 . S
C4184 C4189 1.425 . S
C4184 C4191 1.409 . S
C4185 H4177 0.930 . S
C4185 C4183 1.419 . S
C4185 C4186 1.362 . S
C4186 H4178 0.930 . S
C4186 C4185 1.362 . S
C4186 C4189 1.409 . S
C4187 H4179 0.943 . S
C4187 C4188 1.352 1_545 S
C4187 C4189 1.404 1_545 S
C4188 C4187 1.352 1_565 S
C4188 C4190 1.419 . S
C4189 C4184 1.425 . S
C4189 C4186 1.409 . S
C4189 C4187 1.404 1_565 S
C4190 H4180 0.930 . S
C4190 C4188 1.419 . S
C4190 C4191 1.362 . S
C4191 H4181 0.930 . S
C4191 C4184 1.409 . S
C4191 C4190 1.362 . S
H4192 C4198 0.930 . S
H4193 C4201 0.930 . S
H4194 C4202 0.930 . S
H4195 C4203 0.930 . S
H4196 C4206 0.930 . S
H4197 C4207 0.930 . S
C4198 H4192 0.930 . S
C4198 C4199 1.355 . S
C4198 C4200 1.415 . S
C4199 C4198 1.355 . S
C4199 C4201 1.419 . S
C4200 C4198 1.415 . S
C4200 C4205 1.425 . S
C4200 C4207 1.409 . S
C4201 H4193 0.930 . S
C4201 C4199 1.419 . S
C4201 C4202 1.362 . S
C4202 H4194 0.930 . S
C4202 C4201 1.362 . S
C4202 C4205 1.409 . S
C4203 H4195 0.930 . S
C4203 C4204 1.355 . S
C4203 C4205 1.415 . S
C4204 C4203 1.355 . S
C4204 C4206 1.419 . S
C4205 C4200 1.425 . S
C4205 C4202 1.409 . S
C4205 C4203 1.415 . S
C4206 H4196 0.930 . S
C4206 C4204 1.419 . S
C4206 C4207 1.362 . S
C4207 H4197 0.930 . S
C4207 C4200 1.409 . S
C4207 C4206 1.362 . S
H4208 C4214 0.930 . S
H4209 C4217 0.930 . S
H4210 C4218 0.930 . S
H4211 C4219 0.930 . S
H4212 C4222 0.930 . S
H4213 C4223 0.930 . S
C4214 H4208 0.930 . S
C4214 C4215 1.355 1_556 S
C4214 C4216 1.415 . S
C4215 C4214 1.355 1_554 S
C4215 C4217 1.419 . S
C4216 C4214 1.415 . S
C4216 C4221 1.425 1_556 S
C4216 C4223 1.409 . S
C4217 H4209 0.930 . S
C4217 C4215 1.419 . S
C4217 C4218 1.362 . S
C4218 H4210 0.930 . S
C4218 C4217 1.362 . S
C4218 C4221 1.409 . S
C4219 H4211 0.930 . S
C4219 C4220 1.355 . S
C4219 C4221 1.415 . S
C4220 C4219 1.355 . S
C4220 C4222 1.419 1_554 S
C4221 C4216 1.425 1_554 S
C4221 C4218 1.409 . S
C4221 C4219 1.415 . S
C4222 H4212 0.930 . S
C4222 C4220 1.419 1_556 S
C4222 C4223 1.362 . S
C4223 H4213 0.930 . S
C4223 C4216 1.409 . S
C4223 C4222 1.362 . S
H4224 C4230 0.930 . S
H4225 C4233 0.930 . S
H4226 C4234 0.930 . S
H4227 C4235 0.930 . S
H4228 C4238 0.930 . S
H4229 C4239 0.930 . S
C4230 H4224 0.930 . S
C4230 C4231 1.355 . S
C4230 C4232 1.415 . S
C4231 C4230 1.355 . S
C4231 C4233 1.419 . S
C4232 C4230 1.415 . S
C4232 C4237 1.425 . S
C4232 C4239 1.409 . S
C4233 H4225 0.930 . S
C4233 C4231 1.419 . S
C4233 C4234 1.362 . S
C4234 H4226 0.930 . S
C4234 C4233 1.362 . S
C4234 C4237 1.409 . S
C4235 H4227 0.930 . S
C4235 C4236 1.355 . S
C4235 C4237 1.415 . S
C4236 C4235 1.355 . S
C4236 C4238 1.419 . S
C4237 C4232 1.425 . S
C4237 C4234 1.409 . S
C4237 C4235 1.415 . S
C4238 H4228 0.930 . S
C4238 C4236 1.419 . S
C4238 C4239 1.362 . S
C4239 H4229 0.930 . S
C4239 C4232 1.409 . S
C4239 C4238 1.362 . S
H4240 C4246 0.930 . S
H4241 C4249 0.930 . S
H4242 C4250 0.930 . S
H4243 C4251 0.930 . S
H4244 C4254 0.930 . S
H4245 C4255 0.930 . S
C4246 H4240 0.930 . S
C4246 C4247 1.355 . S
C4246 C4248 1.415 . S
C4247 C4246 1.355 . S
C4247 C4249 1.419 1_554 S
C4248 C4246 1.415 . S
C4248 C4253 1.425 1_554 S
C4248 C4255 1.409 . S
C4249 H4241 0.930 . S
C4249 C4247 1.419 1_556 S
C4249 C4250 1.362 . S
C4250 H4242 0.930 . S
C4250 C4249 1.362 . S
C4250 C4253 1.409 . S
C4251 H4243 0.930 . S
C4251 C4252 1.355 . S
C4251 C4253 1.415 . S
C4252 C4251 1.355 . S
C4252 C4254 1.419 1_556 S
C4253 C4248 1.425 1_556 S
C4253 C4250 1.409 . S
C4253 C4251 1.415 . S
C4254 H4244 0.930 . S
C4254 C4252 1.419 1_554 S
C4254 C4255 1.362 . S
C4255 H4245 0.930 . S
C4255 C4248 1.409 . S
C4255 C4254 1.362 . S
H4256 C4262 0.930 . S
H4257 C4265 0.930 . S
H4258 C4266 0.930 . S
H4259 C4267 0.930 . S
H4260 C4270 0.930 . S
H4261 C4271 0.930 . S
C4262 H4256 0.930 . S
C4262 C4263 1.355 . S
C4262 C4264 1.415 . S
C4263 C4262 1.355 . S
C4263 C4265 1.419 . S
C4264 C4262 1.415 . S
C4264 C4269 1.425 . S
C4264 C4271 1.409 . S
C4265 H4257 0.930 . S
C4265 C4263 1.419 . S
C4265 C4266 1.362 . S
C4266 H4258 0.930 . S
C4266 C4265 1.362 . S
C4266 C4269 1.409 . S
C4267 H4259 0.930 . S
C4267 C4268 1.355 . S
C4267 C4269 1.415 . S
C4268 C4267 1.355 . S
C4268 C4270 1.419 . S
C4269 C4264 1.425 . S
C4269 C4266 1.409 . S
C4269 C4267 1.415 . S
C4270 H4260 0.930 . S
C4270 C4268 1.419 . S
C4270 C4271 1.362 . S
C4271 H4261 0.930 . S
C4271 C4264 1.409 . S
C4271 C4270 1.362 . S
H4272 C4278 0.930 . S
H4273 C4281 0.930 . S
H4274 C4282 0.930 . S
H4275 C4283 0.930 . S
H4276 C4286 0.930 . S
H4277 C4287 0.930 . S
C4278 H4272 0.930 . S
C4278 C4279 1.355 . S
C4278 C4280 1.415 . S
C4279 C4278 1.355 . S
C4279 C4281 1.419 . S
C4280 C4278 1.415 . S
C4280 C4285 1.425 . S
C4280 C4287 1.409 . S
C4281 H4273 0.930 . S
C4281 C4279 1.419 . S
C4281 C4282 1.362 . S
C4282 H4274 0.930 . S
C4282 C4281 1.362 . S
C4282 C4285 1.409 . S
C4283 H4275 0.930 . S
C4283 C4284 1.355 . S
C4283 C4285 1.415 . S
C4284 C4283 1.355 . S
C4284 C4286 1.419 . S
C4285 C4280 1.425 . S
C4285 C4282 1.409 . S
C4285 C4283 1.415 . S
C4286 H4276 0.930 . S
C4286 C4284 1.419 . S
C4286 C4287 1.362 . S
C4287 H4277 0.930 . S
C4287 C4280 1.409 . S
C4287 C4286 1.362 . S
C2759 C665 0.999 . S
C2764 C2120 1.051 . S
C2775 C381 1.297 . S
C2780 C2154 1.299 . S
C2791 C460 0.537 . S
C2796 C2223 0.515 . S
C2812 C2261 0.929 . S
C2807 C585 0.951 . S
C2823 C108 1.477 . S
C2828 C2301 1.454 . S
C2844 C2320 0.318 . S
C2839 C196 0.385 . S
C2860 C2354 1.301 . S
C2855 C313 1.281 . S
C2871 C49 1.591 . S
C2876 C2423 1.611 . S
C2892 C2129 2.444 . S
C2887 C1457 2.489 . S
C2903 C1545 1.058 . S
C2908 C2181 1.052 . S
C2924 C2194 1.344 . S
C2919 C1721 1.365 . S
C2940 C2263 1.559 . S
C2935 C1113 1.470 . S
C2951 C1428 2.012 1_455 S
C2956 C2303 2.051 . S
C2972 C2329 1.851 . S
C2967 C1516 1.888 . S
C2988 C2381 0.546 . S
C2983 C1692 0.466 . S
C3004 C2394 2.221 . S
C2999 C1085 2.239 . S
C3020 C2124 2.463 . S
C3015 C988 2.465 . S
C3031 C1817 1.939 . S
C3036 C2434 1.949 . S
C3052 C2484 2.638 . S
C3047 C2081 2.656 . S
C3068 C2543 1.696 . S
C3063 C1993 1.616 . S
C3079 C761 1.542 . S
C3084 C2421 1.523 . S
C3095 C821 1.455 . S
C3100 C2221 1.440 . S
C3111 C2053 2.489 . S
C3116 C2554 2.441 . S
C3132 C2623 0.694 . S
C3127 C1868 0.744 . S
C3148 C2141 1.043 . S
C3143 C372 1.012 . S
C3164 C2609 1.268 . S
C3159 C645 1.294 . S
C3175 C577 0.522 . S
C3180 C2204 0.516 . S
C3191 C497 0.995 . S
C3196 C2560 0.998 . S
C3212 C2280 1.462 . S
C3207 C57 1.492 . S
C3223 C293 0.272 . S
C3228 C2501 0.208 . S
C3244 C2369 1.388 . S
C3239 C205 1.367 . S
C3260 C2644 1.614 . S
C3255 C145 1.603 . S
C3276 C2114 2.435 . S
C3271 C909 2.450 . S
C3292 C2600 1.092 . S
C3287 C1956 1.104 . S
C3303 C724 1.384 . S
C3308 C2209 1.374 . S
C3319 C1780 1.491 . S
C3324 C2564 1.555 . S
C3335 C937 1.962 . S
C3340 C2284 2.030 . S
C3356 C2474 1.804 . S
C3351 C1985 1.862 . S
C3367 C753 0.504 . S
C3372 C2360 0.556 1_565 S
C3383 C1809 2.230 . S
C3388 C2649 2.207 . S
C3399 C1173 2.483 . S
C3404 C2143 2.476 1_656 S
C3415 C1105 1.940 . S
C3420 C2449 1.948 . S
C3431 C1633 2.654 . S
C3436 C2343 2.623 . S
C3447 C1553 1.659 . S
C3452 C2524 1.710 . S
C3468 C2640 1.494 . S
C3463 C1729 1.518 . S
C3479 C1340 1.430 . S
C3484 C2200 1.417 . S
C3500 C2249 2.468 . S
C3495 C1604 2.503 . S
C3516 C2164 0.705 . S
C3511 C1252 0.734 . S
C3527 C489 0.997 . S
C3532 C2680 1.050 . S
C3548 C2594 1.306 . S
C3543 C557 1.297 . S
C3559 C636 0.569 . S
C3564 C2743 0.492 . S
C3575 C409 0.969 . S
C3580 C2581 0.949 . S
C3591 C284 1.478 . S
C3596 C2461 1.456 . S
C3612 C2480 0.321 . S
C3607 C20 0.429 . S
C3628 C2514 1.297 . S
C3623 C137 1.281 . S
C3644 C2663 1.613 . S
C3639 C225 1.592 . S
C3660 C2689 2.431 . S
C3655 C1641 2.451 . S
C3671 C1193 1.099 . S
C3676 C2621 1.084 . S
C3692 C2714 1.338 . S
C3687 C1289 1.366 . S
C3708 C2583 1.588 . S
C3703 C1377 1.542 . S
C3724 C2463 2.049 . S
C3719 C1613 2.010 . S
C3735 C1164 1.868 . S
C3740 C2489 1.805 . S
C3756 C2541 0.566 . S
C3751 C1261 0.497 . S
C3767 C1349 2.251 . S
C3772 C2634 2.238 . S
C3788 C2684 2.467 . S
C3783 C1965 2.488 . S
C3799 C849 1.941 . S
C3804 C2274 1.950 . S
C3820 C2324 2.640 . S
C3815 C929 2.656 . S
C3836 C2383 1.686 . S
C3831 C1017 1.614 1_545 S
C3852 C2661 1.487 . S
C3847 C1897 1.506 . S
C3863 C1789 1.452 . S
C3868 C2741 1.431 . S
C3884 C2234 2.438 . S
C3879 C900 2.485 . S
C3900 C2183 0.746 . S
C3895 C733 0.720 . S
C3911 C548 1.019 . S
C3916 C2701 1.043 . S
C3932 C2169 1.267 . S
C3927 C469 1.295 . S
C3943 C401 0.565 . S
C3948 C2724 0.483 . S
C3959 C673 0.931 . S
C3964 C2240 0.941 . S
C3975 C233 1.493 . S
C3980 C2440 1.466 . S
C3996 C2341 0.228 . S
C3991 C117 0.206 . S
C4007 C29 1.349 . S
C4012 C2529 1.345 . S
C4023 C321 1.617 . S
C4028 C2404 1.624 . S
C4044 C2674 2.421 . S
C4039 C2044 2.448 . S
C4055 C997 1.007 . S
C4060 C2160 0.969 . S
C4076 C2729 1.370 . S
C4071 C1877 1.383 . S
C4087 C812 1.513 . S
C4092 C2244 1.564 . S
C4103 C2073 2.007 . S
C4108 C2444 2.041 . S
C4124 C2314 1.841 . S
C4119 C1025 1.882 . S
C4135 C1905 0.373 . S
C4140 C2520 0.369 . S
C4156 C2409 2.234 . S
C4151 C841 2.248 . S
C4172 C2703 2.461 . S
C4167 C1525 2.464 . S
C4188 C2289 1.947 1_665 S
C4183 C1369 1.940 . S
C4199 C1465 2.653 . S
C4204 C2503 2.632 . S
C4220 C2364 1.699 . S
C4215 C1201 1.639 . S
C4231 C1281 1.554 . S
C4236 C2400 1.531 . S
C4247 C1076 1.398 . S
C4252 C2720 1.365 . S
C4268 C2569 2.456 . S
C4263 C1437 2.486 . S
C4284 C2604 0.688 . S
C4279 C1701 0.736 . S
