# Generated by pormake.
# Topology nia, (6,6)-cn, num edge types: 1
# Building blocks:
#     Node 0, Type 0, BuildingBlock: CUWYAW_clean_sbu_0, # of connection points: 6
#     Node 1, Type 0, BuildingBlock: CUWYAW_clean_sbu_0, # of connection points: 6
#     Node 2, Type 1, BuildingBlock: MIDCAF_clean_sbu_0, # of connection points: 6
#     Node 3, Type 1, BuildingBlock: MIDCAF_clean_sbu_0, # of connection points: 6
#     Edge 4, Type (0, 1), BuildingBlock: AJUNOK_clean_linker_0, # of connection points: 2
#     Edge 5, Type (0, 1), BuildingBlock: AJUNOK_clean_linker_0, # of connection points: 2
#     Edge 6, Type (0, 1), BuildingBlock: AJUNOK_clean_linker_0, # of connection points: 2
#     Edge 7, Type (0, 1), BuildingBlock: AJUNOK_clean_linker_0, # of connection points: 2
#     Edge 8, Type (0, 1), BuildingBlock: AJUNOK_clean_linker_0, # of connection points: 2
#     Edge 9, Type (0, 1), BuildingBlock: AJUNOK_clean_linker_0, # of connection points: 2
#     Edge 10, Type (0, 1), BuildingBlock: AJUNOK_clean_linker_0, # of connection points: 2
#     Edge 11, Type (0, 1), BuildingBlock: AJUNOK_clean_linker_0, # of connection points: 2
#     Edge 12, Type (0, 1), BuildingBlock: AJUNOK_clean_linker_0, # of connection points: 2
#     Edge 13, Type (0, 1), BuildingBlock: AJUNOK_clean_linker_0, # of connection points: 2
#     Edge 14, Type (0, 1), BuildingBlock: AJUNOK_clean_linker_0, # of connection points: 2
#     Edge 15, Type (0, 1), BuildingBlock: AJUNOK_clean_linker_0, # of connection points: 2
# Relax obj value: 0.335
# Max RMSD: 0.285
# Mean RMSD: 0.251
data_MOF--net-nia--node1-CUWYAW_clean_sbu_0--node2-MIDCAF_clean_sbu_0--edge1-AJUNOK_clean_linker_0
_symmetry_space_group_name_H-M    P1
_symmetry_Int_Tables_number       1
_symmetry_cell_setting            triclinic
loop_
_symmetry_equiv_pos_as_xyz
'x, y, z'
_cell_length_a     22.77081
_cell_length_b     19.294609
_cell_length_c     25.966564
_cell_angle_alpha  106.09591
_cell_angle_beta   59.295687
_cell_angle_gamma 129.7904
loop_
_atom_site_label
_atom_site_type_symbol
_atom_site_fract_x
_atom_site_fract_y
_atom_site_fract_z
_atom_type_partial_charge
C0 C 0.09104 0.92726 1.06143 0.0
Eu1 Eu 0.00179 0.97269 1.0676 0.0
C2 C 0.10841 0.90857 0.10168 0.0
C3 C 0.16492 0.97878 0.12531 0.0
C4 C 0.18563 0.95948 0.15915 0.0
C5 C 0.14995 0.86977 0.17022 0.0
C6 C 0.09213 0.79973 0.14768 0.0
C7 C 0.07174 0.81893 0.11377 0.0
C8 C 0.83418 0.89373 0.14744 0.0
C9 C 0.91389 0.90503 0.9838 0.0
C10 C 0.84578 0.11525 0.07642 0.0
Eu11 Eu 0.93383 0.06904 0.07149 0.0
C12 C 0.82833 0.13257 1.03555 0.0
C13 C 0.76919 0.06136 1.01417 0.0
C14 C 0.74819 0.07959 0.97999 0.0
C15 C 0.78611 0.16921 0.96637 0.0
C16 C 0.84672 0.24017 0.9865 0.0
C17 C 0.86746 0.22205 1.02072 0.0
C18 C 0.1014 0.14708 0.99175 0.0
C19 C 0.02285 0.13756 0.15464 0.0
O20 O 0.01368 0.86872 1.06589 0.0
O21 O 0.12269 0.01087 1.0531 0.0
O22 O 0.86599 0.85003 0.11872 0.0
O23 O 0.89354 0.97749 0.13697 0.0
O24 O -0.0236 0.91793 0.98687 0.0
O25 O 0.88204 0.94932 1.0169 0.0
O26 O 0.92349 0.17352 0.07133 0.0
O27 O 0.81317 0.03177 0.08623 0.0
O28 O 0.07057 0.19161 1.02108 0.0
O29 O 0.04132 0.06369 1.00227 0.0
O30 O -0.0399 0.12472 0.15192 0.0
O31 O 0.05409 0.09266 0.12174 0.0
H32 H 0.19476 0.0487 0.11652 0.0
H33 H 0.231 0.01478 0.17556 0.0
H34 H 0.06559 0.7302 0.15388 0.0
H35 H 0.02899 0.76356 0.09548 0.0
H36 H 0.73743 0.99156 1.02509 0.0
H37 H 0.70068 0.02362 0.96548 0.0
H38 H 0.87511 0.30978 0.97834 0.0
H39 H 0.91231 0.27827 1.03721 0.0
C40 C 0.80316 0.86545 0.49853 0.0
Eu41 Eu 0.89511 0.95664 0.55635 0.0
C42 C 0.75368 0.86901 0.4801 0.0
C43 C 0.67741 0.85772 0.52243 0.0
C44 C 0.62804 0.85376 0.50346 0.0
C45 C 0.65432 0.86182 0.44192 0.0
C46 C 0.73183 0.87568 0.39972 0.0
C47 C 0.78094 0.87904 0.41867 0.0
C48 C 0.87907 0.89112 0.64709 0.0
C49 C 0.8764 0.09251 0.65229 0.0
C50 C 0.13106 0.17667 0.64259 0.0
Eu51 Eu 0.03977 0.08577 0.5843 0.0
C52 C 0.17861 0.17192 0.66244 0.0
C53 C 0.25235 0.17771 0.62105 0.0
C54 C 0.30016 0.18067 0.64118 0.0
C55 C 0.27474 0.17702 0.70301 0.0
C56 C 0.19948 0.16829 0.74436 0.0
C57 C 0.15197 0.16598 0.72421 0.0
C58 C 0.05533 0.15097 0.49352 0.0
C59 C 0.05863 0.95005 0.4884 0.0
O60 O 0.88624 0.9272 0.47244 0.0
O61 O 0.77233 0.8481 0.55566 0.0
O62 O 0.81614 0.87738 0.64575 0.0
O63 O 0.9465 0.93666 0.59969 0.0
O64 O 0.84826 0.03806 0.61361 0.0
O65 O 0.9448 0.11477 0.65194 0.0
O66 O 0.04776 0.11634 0.66858 0.0
O67 O 0.16277 0.19289 0.58508 0.0
O68 O 0.1185 0.16515 0.4948 0.0
O69 O -0.01171 0.10575 0.54112 0.0
O70 O 0.08635 0.00412 0.52734 0.0
O71 O -0.00946 0.92822 0.48845 0.0
H72 H 0.65451 0.84941 0.57008 0.0
H73 H 0.56741 0.8405 0.53699 0.0
H74 H 0.75341 0.88186 0.35205 0.0
H75 H 0.83941 0.88743 0.38517 0.0
H76 H 0.27458 0.18256 0.57314 0.0
H77 H 0.35913 0.18987 0.60819 0.0
H78 H 0.17858 0.16552 0.79222 0.0
H79 H 0.09535 0.16166 0.75697 0.0
Zn80 Zn 0.3519 0.66062 0.19868 0.0
Zn81 Zn 0.20434 0.64068 0.43714 0.0
Zn82 Zn 0.27909 0.64782 0.31788 0.0
C83 C 0.38365 0.74274 0.39351 0.0
C84 C 0.14588 0.46404 0.40637 0.0
O85 O 0.24991 0.71592 0.28878 0.0
O86 O 0.32603 0.73604 0.18981 0.0
C87 C 0.48226 0.73816 0.22676 0.0
O88 O 0.3815 0.71758 0.34279 0.0
O89 O 0.31627 0.72248 0.44111 0.0
O90 O 0.13734 0.50858 0.452 0.0
O91 O 0.19291 0.50387 0.35322 0.0
O92 O 0.46949 0.71696 0.18111 0.0
O93 O 0.42018 0.71969 0.27991 0.0
O94 O 0.21245 0.50786 0.29235 0.0
O95 O 0.27629 0.52781 0.19308 0.0
C96 C 0.22067 0.47585 0.24057 0.0
O97 O 0.22026 0.72001 0.35188 0.0
O98 O 0.14606 0.69204 0.45077 0.0
C99 C 0.27547 0.74621 0.23742 0.0
C100 C 0.17054 0.72833 0.40345 0.0
Zn101 Zn 0.58764 0.38444 0.94112 0.0
Zn102 Zn 0.72606 0.39892 0.70364 0.0
Zn103 Zn 0.6547 0.39301 0.82277 0.0
C104 C 0.78559 0.57574 0.73355 0.0
C105 C 0.54621 0.29645 0.75007 0.0
O106 O 0.68539 0.3251 0.85031 0.0
O107 O 0.6117 0.30685 0.94943 0.0
C108 C 0.71806 0.56733 0.89803 0.0
O109 O 0.74007 0.53653 0.78673 0.0
O110 O 0.79258 0.53066 0.68804 0.0
O111 O 0.61271 0.31611 0.7018 0.0
O112 O 0.55001 0.32243 0.80024 0.0
O113 O 0.66521 0.51667 0.94598 0.0
O114 O 0.72268 0.53383 0.84698 0.0
O115 O 0.5131 0.32027 0.86328 0.0
O116 O 0.46995 0.33119 0.96129 0.0
C117 C 0.45353 0.30572 0.91709 0.0
O118 O 0.71433 0.32149 0.78738 0.0
O119 O 0.78596 0.34892 0.68846 0.0
C120 C 0.66078 0.29525 0.90149 0.0
C121 C 0.76333 0.31325 0.7353 0.0
C122 C 0.26894 0.89406 0.17447 0.0
C123 C 0.18057 0.84932 0.19834 0.0
C124 C 0.2995 0.86369 0.19066 0.0
C125 C 0.24297 0.78848 0.23199 0.0
H126 H 0.3146 0.94908 0.13998 0.0
H127 H 0.36773 0.8967 0.16853 0.0
S128 S 0.00642 0.65343 0.31183 0.0
N129 N 0.03732 0.73098 0.26931 0.0
N130 N 0.09504 0.67331 0.29921 0.0
C131 C 0.15494 0.74692 0.25928 0.0
C132 C 0.12367 0.77746 0.2425 0.0
C133 C 0.35493 0.25959 0.76418 0.0
C134 C 0.33212 0.19304 0.72361 0.0
C135 C 0.42119 0.28884 0.77561 0.0
C136 C 0.46664 0.25248 0.74689 0.0
H137 H 0.32513 0.29337 0.78436 0.0
H138 H 0.44026 0.34396 0.80429 0.0
S139 S 0.42126 0.06516 0.64619 0.0
N140 N 0.35176 0.0825 0.66182 0.0
N141 N 0.47787 0.13921 0.68249 0.0
C142 C 0.44058 0.18162 0.70976 0.0
C143 C 0.37271 0.15128 0.69845 0.0
C144 C 0.02999 0.25501 0.22882 0.0
C145 C 0.06635 0.2116 0.18907 0.0
C146 C 0.0779 0.33717 0.25145 0.0
C147 C 0.16374 0.3787 0.23452 0.0
H148 H -0.03418 0.22825 0.23979 0.0
H149 H 0.04993 0.37192 0.2782 0.0
S150 S 0.28581 0.28815 0.13929 0.0
N151 N 0.19098 0.21206 0.14029 0.0
N152 N 0.28066 0.36739 0.18161 0.0
C153 C 0.19866 0.33296 0.19902 0.0
C154 C 0.14992 0.24892 0.17667 0.0
C155 C 0.90482 0.24164 0.67668 0.0
C156 C 0.84532 0.14686 0.68532 0.0
C157 C 0.87753 0.29603 0.69664 0.0
C158 C 0.79003 0.25766 0.72802 0.0
H159 H -0.02718 0.27371 0.65056 0.0
H160 H 0.92509 0.36836 0.68537 0.0
S161 S 0.60916 0.01381 0.76734 0.0
N162 N 0.69543 0.01706 0.72975 0.0
N163 N 0.64411 0.12013 0.77052 0.0
C164 C 0.73004 0.16353 0.7407 0.0
C165 C 0.75775 0.10779 0.71845 0.0
C166 C 0.71117 0.90309 0.20459 0.0
C167 C 0.74147 0.85098 0.17611 0.0
C168 C 0.62491 0.86505 0.22511 0.0
C169 C 0.56689 0.77403 0.21751 0.0
H170 H 0.75495 0.97435 0.20909 0.0
H171 H 0.60457 0.90793 0.24427 0.0
S172 S 0.61124 0.60688 0.15088 0.0
N173 N 0.70395 0.70159 0.14581 0.0
N174 N 0.54323 0.63157 0.18349 0.0
C175 C 0.59527 0.7205 0.19187 0.0
C176 C 0.68226 0.75855 0.1715 0.0
C177 C 0.9198 0.8 0.65105 0.0
C178 C 0.86457 0.82482 0.6791 0.0
C179 C 0.89741 0.72326 0.6726 0.0
C180 C 0.8201 0.66972 0.72388 0.0
H181 H -0.02233 0.83581 0.60948 0.0
H182 H 0.93837 0.70239 0.64671 0.0
S183 S 0.66062 0.7148 0.8195 0.0
N184 N 0.73434 0.79629 0.76483 0.0
N185 N 0.69338 0.65327 0.80627 0.0
C186 C 0.7686 0.69902 0.75576 0.0
C187 C 0.79052 0.7762 0.73306 0.0
C188 C 0.03301 0.80316 0.45469 0.0
C189 C 0.09162 0.89753 0.45398 0.0
C190 C 0.06 0.74838 0.43415 0.0
C191 C 0.1468 0.78643 0.40977 0.0
H192 H -0.03499 0.77076 0.47544 0.0
H193 H 0.01224 0.67555 0.43986 0.0
S194 S 0.32643 0.02998 0.39244 0.0
N195 N 0.24068 0.02696 0.42429 0.0
N196 N 0.29191 0.92386 0.38246 0.0
C197 C 0.20672 0.88089 0.40484 0.0
C198 C 0.17897 0.93658 0.42772 0.0
C199 C 0.24635 0.27367 0.98339 0.0
C200 C 0.19296 0.18807 0.96638 0.0
C201 C 0.33135 0.31177 0.96539 0.0
C202 C 0.36687 0.2667 0.92871 0.0
H203 H 0.22159 0.31039 1.01273 0.0
H204 H 0.36934 0.37662 0.98121 0.0
S205 S 0.25588 0.04325 0.86917 0.0
N206 N 0.18244 0.06051 0.90891 0.0
N207 N 0.34348 0.13316 0.87464 0.0
C208 C 0.31542 0.18243 0.90964 0.0
C209 C 0.22805 0.14285 0.9286 0.0
C210 C 0.01342 0.24076 0.48936 0.0
C211 C 0.06916 0.21661 0.46138 0.0
C212 C 0.03498 0.31677 0.46759 0.0
C213 C 0.11198 0.37031 0.41613 0.0
H214 H -0.04425 0.20499 0.53104 0.0
H215 H -0.00635 0.33718 0.49346 0.0
S216 S 0.27225 0.3263 0.32035 0.0
N217 N 0.19933 0.24541 0.37539 0.0
N218 N 0.23873 0.38704 0.33348 0.0
C219 C 0.16388 0.34148 0.38427 0.0
C220 C 0.14284 0.26504 0.4072 0.0
C221 C 0.66657 0.14673 0.96442 0.0
C222 C 0.75475 0.18912 0.93863 0.0
C223 C 0.6361 0.17783 0.94881 0.0
C224 C 0.69248 0.25157 0.9063 0.0
H225 H 0.62124 0.09326 0.99996 0.0
H226 H 0.56822 0.14677 0.97239 0.0
S227 S 0.9281 0.37938 0.82092 0.0
N228 N 0.89727 0.3028 0.86423 0.0
N229 N 0.83984 0.36228 0.83569 0.0
C230 C 0.78006 0.29044 0.87704 0.0
C231 C 0.81124 0.25898 0.8931 0.0
C232 C 0.57674 0.78288 0.37902 0.0
C233 C 0.59623 0.84571 0.42206 0.0
C234 C 0.51087 0.75388 0.36719 0.0
C235 C 0.46248 0.78681 0.39793 0.0
H236 H 0.60895 0.75167 0.35697 0.0
H237 H 0.49421 0.70109 0.3367 0.0
S238 S 0.49781 0.9636 0.50663 0.0
N239 N 0.56968 0.94896 0.48924 0.0
N240 N 0.44449 0.89287 0.46768 0.0
C241 C 0.48496 0.85394 0.43795 0.0
C242 C 0.55235 0.88397 0.44975 0.0
C243 C 0.90801 0.78758 0.9101 0.0
C244 C 0.87186 0.83183 0.9484 0.0
C245 C 0.86054 0.70532 0.88743 0.0
C246 C 0.77553 0.66476 0.90265 0.0
H247 H -0.02865 0.8135 0.9006 0.0
H248 H 0.88794 0.66964 0.8622 0.0
S249 S 0.6551 0.75823 0.99291 0.0
N250 N 0.74899 0.83366 0.99341 0.0
N251 N 0.66 0.678 0.952 0.0
C252 C 0.7412 0.71157 0.9363 0.0
C253 C 0.78949 0.79568 0.95877 0.0
loop_
_geom_bond_atom_site_label_1
_geom_bond_atom_site_label_2
_geom_bond_distance
_geom_bond_site_symmetry_2
_ccdc_geom_bond_type
C0 Eu1 2.835 . S
C0 C2 1.500 . S
C0 O20 1.257 . S
C0 O21 1.260 1_455 S
Eu1 C0 2.835 . S
Eu1 O20 2.473 . S
Eu1 O21 2.480 1_455 S
Eu1 O22 2.430 1_455 S
Eu1 O23 2.670 1_455 S
Eu1 O24 2.394 1_455 S
Eu1 O29 2.355 1_564 S
Eu1 O31 2.374 1_565 S
C2 C0 1.500 . S
C2 C3 1.377 . S
C2 C7 1.377 . S
C3 C2 1.377 . S
C3 C4 1.395 . S
C3 H32 0.931 1_455 S
C4 C3 1.395 . S
C4 C5 1.383 . S
C4 H33 0.931 1_455 S
C5 C4 1.383 . S
C5 C6 1.394 . S
C6 C5 1.394 . S
C6 C7 1.378 . S
C6 H34 0.931 . S
C7 C2 1.377 . S
C7 C6 1.378 . S
C7 H35 0.931 . S
C8 O22 1.259 . S
C8 O23 1.270 . S
C9 O24 1.251 1_556 S
C9 O25 1.251 . S
C10 Eu11 2.835 . S
C10 C12 1.500 . S
C10 O26 1.257 . S
C10 O27 1.260 1_655 S
Eu11 C10 2.835 . S
Eu11 O23 2.355 1_546 S
Eu11 O25 2.374 1_545 S
Eu11 O26 2.473 . S
Eu11 O27 2.480 1_655 S
Eu11 O28 2.430 1_655 S
Eu11 O29 2.670 1_655 S
Eu11 O30 2.394 1_656 S
C12 C10 1.500 . S
C12 C13 1.377 1_655 S
C12 C17 1.377 . S
C13 C12 1.377 1_455 S
C13 C14 1.395 . S
C13 H36 0.931 . S
C14 C13 1.395 . S
C14 C15 1.383 1_455 S
C14 H37 0.931 . S
C15 C14 1.383 1_655 S
C15 C16 1.394 . S
C16 C15 1.394 . S
C16 C17 1.378 . S
C16 H38 0.931 . S
C17 C12 1.377 . S
C17 C16 1.378 . S
C17 H39 0.931 1_556 S
C18 O28 1.259 . S
C18 O29 1.270 . S
C19 O30 1.251 . S
C19 O31 1.251 . S
O20 C0 1.257 . S
O20 Eu1 2.473 . S
O21 C0 1.260 1_655 S
O21 Eu1 2.480 1_655 S
O22 Eu1 2.430 1_655 S
O22 C8 1.259 . S
O23 Eu1 2.670 1_655 S
O23 C8 1.270 . S
O23 Eu11 2.355 1_564 S
O24 Eu1 2.394 1_655 S
O24 C9 1.251 1_554 S
O25 C9 1.251 . S
O25 Eu11 2.374 1_565 S
O26 C10 1.257 . S
O26 Eu11 2.473 . S
O27 C10 1.260 1_455 S
O27 Eu11 2.480 1_455 S
O28 Eu11 2.430 1_455 S
O28 C18 1.259 . S
O29 Eu1 2.355 1_546 S
O29 Eu11 2.670 1_455 S
O29 C18 1.270 . S
O30 Eu11 2.394 1_454 S
O30 C19 1.251 . S
O31 Eu1 2.374 1_545 S
O31 C19 1.251 . S
H32 C3 0.931 1_655 S
H33 C4 0.931 1_655 S
H34 C6 0.931 . S
H35 C7 0.931 . S
H36 C13 0.931 . S
H37 C14 0.931 . S
H38 C16 0.931 . S
H39 C17 0.931 1_554 S
C40 Eu41 2.835 . S
C40 C42 1.500 . S
C40 O60 1.257 . S
C40 O61 1.260 . S
Eu41 C40 2.835 . S
Eu41 O60 2.473 . S
Eu41 O61 2.480 . S
Eu41 O62 2.430 . S
Eu41 O63 2.670 . S
Eu41 O64 2.394 . S
Eu41 O69 2.355 1_665 S
Eu41 O71 2.374 1_655 S
C42 C40 1.500 . S
C42 C43 1.377 . S
C42 C47 1.377 . S
C43 C42 1.377 . S
C43 C44 1.395 . S
C43 H72 0.931 . S
C44 C43 1.395 . S
C44 C45 1.383 . S
C44 H73 0.931 . S
C45 C44 1.383 . S
C45 C46 1.394 . S
C46 C45 1.394 . S
C46 C47 1.378 . S
C46 H74 0.931 . S
C47 C42 1.377 . S
C47 C46 1.378 . S
C47 H75 0.931 1_565 S
C48 O62 1.259 . S
C48 O63 1.270 . S
C49 O64 1.251 1_545 S
C49 O65 1.251 . S
C50 Eu51 2.835 . S
C50 C52 1.500 . S
C50 O66 1.257 . S
C50 O67 1.260 . S
Eu51 C50 2.835 . S
Eu51 O63 2.355 1_445 S
Eu51 O65 2.374 1_455 S
Eu51 O66 2.473 . S
Eu51 O67 2.480 . S
Eu51 O68 2.430 . S
Eu51 O69 2.670 . S
Eu51 O70 2.394 . S
C52 C50 1.500 . S
C52 C53 1.377 . S
C52 C57 1.377 . S
C53 C52 1.377 . S
C53 C54 1.395 . S
C53 H76 0.931 . S
C54 C53 1.395 . S
C54 C55 1.383 . S
C54 H77 0.931 . S
C55 C54 1.383 . S
C55 C56 1.394 . S
C56 C55 1.394 . S
C56 C57 1.378 . S
C56 H78 0.931 . S
C57 C52 1.377 . S
C57 C56 1.378 . S
C57 H79 0.931 . S
C58 O68 1.259 . S
C58 O69 1.270 . S
C59 O70 1.251 1_565 S
C59 O71 1.251 . S
O60 C40 1.257 . S
O60 Eu41 2.473 . S
O61 C40 1.260 . S
O61 Eu41 2.480 . S
O62 Eu41 2.430 . S
O62 C48 1.259 . S
O63 Eu41 2.670 . S
O63 C48 1.270 . S
O63 Eu51 2.355 1_665 S
O64 Eu41 2.394 . S
O64 C49 1.251 1_565 S
O65 C49 1.251 . S
O65 Eu51 2.374 1_655 S
O66 C50 1.257 . S
O66 Eu51 2.473 . S
O67 C50 1.260 . S
O67 Eu51 2.480 . S
O68 Eu51 2.430 . S
O68 C58 1.259 . S
O69 Eu41 2.355 1_445 S
O69 Eu51 2.670 . S
O69 C58 1.270 . S
O70 Eu51 2.394 . S
O70 C59 1.251 1_545 S
O71 Eu41 2.374 1_455 S
O71 C59 1.251 . S
H72 C43 0.931 . S
H73 C44 0.931 . S
H74 C46 0.931 . S
H75 C47 0.931 1_545 S
H76 C53 0.931 . S
H77 C54 0.931 . S
H78 C56 0.931 . S
H79 C57 0.931 . S
Zn80 O86 1.920 . S
Zn80 O92 1.898 . S
Zn80 O95 1.905 . S
Zn81 O89 1.905 . S
Zn81 O90 1.898 . S
Zn81 O98 1.920 . S
Zn82 O85 2.080 . S
Zn82 O88 2.114 . S
Zn82 O91 2.120 . S
Zn82 O93 2.120 . S
Zn82 O94 2.114 . S
Zn82 O97 2.080 . S
C83 O88 1.166 . S
C83 O89 1.182 . S
C84 O90 1.167 . S
C84 O91 1.299 . S
O85 Zn82 2.080 . S
O85 C99 1.305 . S
O86 Zn80 1.920 . S
O86 C99 1.234 . S
C87 O92 1.167 . S
C87 O93 1.299 . S
O88 Zn82 2.114 . S
O88 C83 1.166 . S
O89 Zn81 1.905 . S
O89 C83 1.182 . S
O90 Zn81 1.898 . S
O90 C84 1.167 . S
O91 Zn82 2.120 . S
O91 C84 1.299 . S
O92 Zn80 1.898 . S
O92 C87 1.167 . S
O93 Zn82 2.120 . S
O93 C87 1.299 . S
O94 Zn82 2.114 . S
O94 C96 1.166 . S
O95 Zn80 1.905 . S
O95 C96 1.182 . S
C96 O94 1.166 . S
C96 O95 1.182 . S
O97 Zn82 2.080 . S
O97 C100 1.305 . S
O98 Zn81 1.920 . S
O98 C100 1.234 . S
C99 O85 1.305 . S
C99 O86 1.234 . S
C100 O97 1.305 . S
C100 O98 1.234 . S
Zn101 O107 1.920 . S
Zn101 O113 1.898 . S
Zn101 O116 1.905 . S
Zn102 O110 1.905 . S
Zn102 O111 1.898 . S
Zn102 O119 1.920 . S
Zn103 O106 2.080 . S
Zn103 O109 2.114 . S
Zn103 O112 2.120 . S
Zn103 O114 2.120 . S
Zn103 O115 2.114 . S
Zn103 O118 2.080 . S
C104 O109 1.166 . S
C104 O110 1.182 . S
C105 O111 1.167 . S
C105 O112 1.299 . S
O106 Zn103 2.080 . S
O106 C120 1.305 . S
O107 Zn101 1.920 . S
O107 C120 1.234 . S
C108 O113 1.167 . S
C108 O114 1.299 . S
O109 Zn103 2.114 . S
O109 C104 1.166 . S
O110 Zn102 1.905 . S
O110 C104 1.182 . S
O111 Zn102 1.898 . S
O111 C105 1.167 . S
O112 Zn103 2.120 . S
O112 C105 1.299 . S
O113 Zn101 1.898 . S
O113 C108 1.167 . S
O114 Zn103 2.120 . S
O114 C108 1.299 . S
O115 Zn103 2.114 . S
O115 C117 1.166 . S
O116 Zn101 1.905 . S
O116 C117 1.182 . S
C117 O115 1.166 . S
C117 O116 1.182 . S
O118 Zn103 2.080 . S
O118 C121 1.305 . S
O119 Zn102 1.920 . S
O119 C121 1.234 . S
C120 O106 1.305 . S
C120 O107 1.234 . S
C121 O118 1.305 . S
C121 O119 1.234 . S
C122 C123 1.369 . S
C122 C124 1.419 . S
C122 H126 0.930 . S
C123 C122 1.369 . S
C123 C132 1.429 . S
C124 C122 1.419 . S
C124 C125 1.363 . S
C124 H127 0.929 . S
C125 C124 1.363 . S
C125 C131 1.428 . S
H126 C122 0.930 . S
H127 C124 0.929 . S
S128 N129 1.613 . S
S128 N130 1.610 . S
N129 S128 1.613 . S
N129 C132 1.350 . S
N130 S128 1.610 . S
N130 C131 1.351 . S
C131 C125 1.428 . S
C131 N130 1.351 . S
C131 C132 1.434 . S
C132 C123 1.429 . S
C132 N129 1.350 . S
C132 C131 1.434 . S
C133 C134 1.369 . S
C133 C135 1.419 . S
C133 H137 0.930 . S
C134 C133 1.369 . S
C134 C143 1.429 . S
C135 C133 1.419 . S
C135 C136 1.363 . S
C135 H138 0.929 . S
C136 C135 1.363 . S
C136 C142 1.428 . S
H137 C133 0.930 . S
H138 C135 0.929 . S
S139 N140 1.613 . S
S139 N141 1.610 . S
N140 S139 1.613 . S
N140 C143 1.350 . S
N141 S139 1.610 . S
N141 C142 1.351 . S
C142 C136 1.428 . S
C142 N141 1.351 . S
C142 C143 1.434 . S
C143 C134 1.429 . S
C143 N140 1.350 . S
C143 C142 1.434 . S
C144 C145 1.369 . S
C144 C146 1.419 . S
C144 H148 0.930 . S
C145 C144 1.369 . S
C145 C154 1.429 . S
C146 C144 1.419 . S
C146 C147 1.363 . S
C146 H149 0.929 . S
C147 C146 1.363 . S
C147 C153 1.428 . S
H148 C144 0.930 . S
H149 C146 0.929 . S
S150 N151 1.614 1_556 S
S150 N152 1.594 1_556 S
N151 S150 1.614 1_554 S
N151 C154 1.350 . S
N152 S150 1.594 1_554 S
N152 C153 1.351 . S
C153 C147 1.428 . S
C153 N152 1.351 . S
C153 C154 1.434 . S
C154 C145 1.429 . S
C154 N151 1.350 . S
C154 C153 1.434 . S
C155 C156 1.369 . S
C155 C157 1.419 . S
C155 H159 0.930 1_655 S
C156 C155 1.369 . S
C156 C165 1.429 . S
C157 C155 1.419 . S
C157 C158 1.363 . S
C157 H160 0.923 1_655 S
C158 C157 1.363 . S
C158 C164 1.428 . S
H159 C155 0.930 1_455 S
H160 C157 0.923 1_455 S
S161 N162 1.613 . S
S161 N163 1.610 . S
N162 S161 1.613 . S
N162 C165 1.350 . S
N163 S161 1.610 . S
N163 C164 1.351 . S
C164 C158 1.428 . S
C164 N163 1.351 . S
C164 C165 1.434 . S
C165 C156 1.429 . S
C165 N162 1.350 . S
C165 C164 1.434 . S
C166 C167 1.369 . S
C166 C168 1.419 . S
C166 H170 0.930 . S
C167 C166 1.369 . S
C167 C176 1.429 . S
C168 C166 1.419 . S
C168 C169 1.363 . S
C168 H171 0.929 . S
C169 C168 1.363 . S
C169 C175 1.428 . S
H170 C166 0.930 . S
H171 C168 0.929 . S
S172 N173 1.613 . S
S172 N174 1.610 . S
N173 S172 1.613 . S
N173 C176 1.350 . S
N174 S172 1.610 . S
N174 C175 1.351 . S
C175 C169 1.428 . S
C175 N174 1.351 . S
C175 C176 1.434 . S
C176 C167 1.429 . S
C176 N173 1.350 . S
C176 C175 1.434 . S
C177 C178 1.369 . S
C177 C179 1.419 . S
C177 H181 0.930 . S
C178 C177 1.369 . S
C178 C187 1.429 . S
C179 C177 1.419 . S
C179 C180 1.363 . S
C179 H182 0.929 . S
C180 C179 1.363 . S
C180 C186 1.428 . S
H181 C177 0.930 . S
H182 C179 0.929 . S
S183 N184 1.613 . S
S183 N185 1.610 . S
N184 S183 1.613 . S
N184 C187 1.350 . S
N185 S183 1.610 . S
N185 C186 1.351 . S
C186 C180 1.428 . S
C186 N185 1.351 . S
C186 C187 1.434 . S
C187 C178 1.429 . S
C187 N184 1.350 . S
C187 C186 1.434 . S
C188 C189 1.369 . S
C188 C190 1.419 . S
C188 H192 0.930 . S
C189 C188 1.369 . S
C189 C198 1.429 . S
C190 C188 1.419 . S
C190 C191 1.363 . S
C190 H193 0.929 . S
C191 C190 1.363 . S
C191 C197 1.428 . S
H192 C188 0.930 . S
H193 C190 0.929 . S
S194 N195 1.613 . S
S194 N196 1.610 . S
N195 S194 1.613 . S
N195 C198 1.350 . S
N196 S194 1.610 . S
N196 C197 1.351 . S
C197 C191 1.428 . S
C197 N196 1.351 . S
C197 C198 1.434 . S
C198 C189 1.429 . S
C198 N195 1.350 . S
C198 C197 1.434 . S
C199 C200 1.369 . S
C199 C201 1.419 . S
C199 H203 0.930 . S
C200 C199 1.369 . S
C200 C209 1.429 . S
C201 C199 1.419 . S
C201 C202 1.363 . S
C201 H204 0.929 . S
C202 C201 1.363 . S
C202 C208 1.428 . S
H203 C199 0.930 . S
H204 C201 0.929 . S
S205 N206 1.613 . S
S205 N207 1.610 . S
N206 S205 1.613 . S
N206 C209 1.350 . S
N207 S205 1.610 . S
N207 C208 1.351 . S
C208 C202 1.428 . S
C208 N207 1.351 . S
C208 C209 1.434 . S
C209 C200 1.429 . S
C209 N206 1.350 . S
C209 C208 1.434 . S
C210 C211 1.369 . S
C210 C212 1.419 . S
C210 H214 0.930 . S
C211 C210 1.369 . S
C211 C220 1.429 . S
C212 C210 1.419 . S
C212 C213 1.363 . S
C212 H215 0.929 . S
C213 C212 1.363 . S
C213 C219 1.428 . S
H214 C210 0.930 . S
H215 C212 0.929 . S
S216 N217 1.613 . S
S216 N218 1.610 . S
N217 S216 1.613 . S
N217 C220 1.350 . S
N218 S216 1.610 . S
N218 C219 1.351 . S
C219 C213 1.428 . S
C219 N218 1.351 . S
C219 C220 1.434 . S
C220 C211 1.429 . S
C220 N217 1.350 . S
C220 C219 1.434 . S
C221 C222 1.369 . S
C221 C223 1.419 . S
C221 H225 0.930 . S
C222 C221 1.369 . S
C222 C231 1.429 . S
C223 C221 1.419 . S
C223 C224 1.363 . S
C223 H226 0.929 . S
C224 C223 1.363 . S
C224 C230 1.428 . S
H225 C221 0.930 . S
H226 C223 0.929 . S
S227 N228 1.613 . S
S227 N229 1.610 . S
N228 S227 1.613 . S
N228 C231 1.350 . S
N229 S227 1.610 . S
N229 C230 1.351 . S
C230 C224 1.428 . S
C230 N229 1.351 . S
C230 C231 1.434 . S
C231 C222 1.429 . S
C231 N228 1.350 . S
C231 C230 1.434 . S
C232 C233 1.369 . S
C232 C234 1.419 . S
C232 H236 0.930 . S
C233 C232 1.369 . S
C233 C242 1.429 . S
C234 C232 1.419 . S
C234 C235 1.363 . S
C234 H237 0.929 . S
C235 C234 1.363 . S
C235 C241 1.428 . S
H236 C232 0.930 . S
H237 C234 0.929 . S
S238 N239 1.613 . S
S238 N240 1.610 . S
N239 S238 1.613 . S
N239 C242 1.350 . S
N240 S238 1.610 . S
N240 C241 1.351 . S
C241 C235 1.428 . S
C241 N240 1.351 . S
C241 C242 1.434 . S
C242 C233 1.429 . S
C242 N239 1.350 . S
C242 C241 1.434 . S
C243 C244 1.369 . S
C243 C245 1.419 . S
C243 H247 0.930 . S
C244 C243 1.369 . S
C244 C253 1.429 . S
C245 C243 1.419 . S
C245 C246 1.363 . S
C245 H248 0.929 . S
C246 C245 1.363 . S
C246 C252 1.428 . S
H247 C243 0.930 . S
H248 C245 0.929 . S
S249 N250 1.613 . S
S249 N251 1.610 1_455 S
N250 S249 1.613 . S
N250 C253 1.350 1_455 S
N251 S249 1.610 1_655 S
N251 C252 1.351 . S
C252 C246 1.428 . S
C252 N251 1.351 . S
C252 C253 1.434 . S
C253 C244 1.429 . S
C253 N250 1.350 1_655 S
C253 C252 1.434 . S
C123 C5 1.400 . S
C125 C99 1.269 . S
C134 C55 1.119 . S
C136 C105 0.996 . S
C145 C19 1.504 . S
C147 C96 1.414 . S
C156 C49 2.245 . S
C158 C121 2.126 . S
C167 C8 2.033 . S
C169 C87 1.956 . S
C180 C104 1.789 . S
C178 C48 1.874 . S
C189 C59 1.916 . S
C191 C100 1.855 . S
C202 C117 2.151 . S
C200 C18 2.211 . S
C213 C84 2.097 . S
C211 C58 2.299 . S
C224 C120 1.407 . S
C222 C15 1.615 . S
C235 C83 1.040 . S
C233 C45 1.196 . S
C246 C108 1.110 . S
C244 C9 1.194 . S
