# Generated by pormake.
# Topology pyr, (3,6)-cn, num edge types: 1
# Building blocks:
#     Node 0, Type 0, BuildingBlock: WUSLED_clean_sbu_0, # of connection points: 3
#     Node 1, Type 0, BuildingBlock: WUSLED_clean_sbu_0, # of connection points: 3
#     Node 2, Type 0, BuildingBlock: WUSLED_clean_sbu_0, # of connection points: 3
#     Node 3, Type 0, BuildingBlock: WUSLED_clean_sbu_0, # of connection points: 3
#     Node 4, Type 0, BuildingBlock: WUSLED_clean_sbu_0, # of connection points: 3
#     Node 5, Type 0, BuildingBlock: WUSLED_clean_sbu_0, # of connection points: 3
#     Node 6, Type 0, BuildingBlock: WUSLED_clean_sbu_0, # of connection points: 3
#     Node 7, Type 0, BuildingBlock: WUSLED_clean_sbu_0, # of connection points: 3
#     Node 8, Type 1, BuildingBlock: VOLQOD_clean_sbu_1, # of connection points: 6
#     Node 9, Type 1, BuildingBlock: VOLQOD_clean_sbu_1, # of connection points: 6
#     Node 10, Type 1, BuildingBlock: VOLQOD_clean_sbu_1, # of connection points: 6
#     Node 11, Type 1, BuildingBlock: VOLQOD_clean_sbu_1, # of connection points: 6
#     Edge 12, Type (0, 1), BuildingBlock: CIFDUS_clean_linker_0, # of connection points: 2
#     Edge 13, Type (0, 1), BuildingBlock: CIFDUS_clean_linker_0, # of connection points: 2
#     Edge 14, Type (0, 1), BuildingBlock: CIFDUS_clean_linker_0, # of connection points: 2
#     Edge 15, Type (0, 1), BuildingBlock: CIFDUS_clean_linker_0, # of connection points: 2
#     Edge 16, Type (0, 1), BuildingBlock: CIFDUS_clean_linker_0, # of connection points: 2
#     Edge 17, Type (0, 1), BuildingBlock: CIFDUS_clean_linker_0, # of connection points: 2
#     Edge 18, Type (0, 1), BuildingBlock: CIFDUS_clean_linker_0, # of connection points: 2
#     Edge 19, Type (0, 1), BuildingBlock: CIFDUS_clean_linker_0, # of connection points: 2
#     Edge 20, Type (0, 1), BuildingBlock: CIFDUS_clean_linker_0, # of connection points: 2
#     Edge 21, Type (0, 1), BuildingBlock: CIFDUS_clean_linker_0, # of connection points: 2
#     Edge 22, Type (0, 1), BuildingBlock: CIFDUS_clean_linker_0, # of connection points: 2
#     Edge 23, Type (0, 1), BuildingBlock: CIFDUS_clean_linker_0, # of connection points: 2
#     Edge 24, Type (0, 1), BuildingBlock: CIFDUS_clean_linker_0, # of connection points: 2
#     Edge 25, Type (0, 1), BuildingBlock: CIFDUS_clean_linker_0, # of connection points: 2
#     Edge 26, Type (0, 1), BuildingBlock: CIFDUS_clean_linker_0, # of connection points: 2
#     Edge 27, Type (0, 1), BuildingBlock: CIFDUS_clean_linker_0, # of connection points: 2
#     Edge 28, Type (0, 1), BuildingBlock: CIFDUS_clean_linker_0, # of connection points: 2
#     Edge 29, Type (0, 1), BuildingBlock: CIFDUS_clean_linker_0, # of connection points: 2
#     Edge 30, Type (0, 1), BuildingBlock: CIFDUS_clean_linker_0, # of connection points: 2
#     Edge 31, Type (0, 1), BuildingBlock: CIFDUS_clean_linker_0, # of connection points: 2
#     Edge 32, Type (0, 1), BuildingBlock: CIFDUS_clean_linker_0, # of connection points: 2
#     Edge 33, Type (0, 1), BuildingBlock: CIFDUS_clean_linker_0, # of connection points: 2
#     Edge 34, Type (0, 1), BuildingBlock: CIFDUS_clean_linker_0, # of connection points: 2
#     Edge 35, Type (0, 1), BuildingBlock: CIFDUS_clean_linker_0, # of connection points: 2
# Relax obj value: 0.035
# Max RMSD: 0.120
# Mean RMSD: 0.046
data_MOF--net-pry--node1-WUSLED_clean_sbu_0--node2-VOLQOD_clean_sbu_1--edge1-CIFDUS_clean_linker_0
_symmetry_space_group_name_H-M    P1
_symmetry_Int_Tables_number       1
_symmetry_cell_setting            triclinic
loop_
_symmetry_equiv_pos_as_xyz
'x, y, z'
_cell_length_a     44.041396
_cell_length_b     44.080395
_cell_length_c     44.236783
_cell_angle_alpha  89.890888
_cell_angle_beta   90.219115
_cell_angle_gamma 90.711628
loop_
_atom_site_label
_atom_site_type_symbol
_atom_site_fract_x
_atom_site_fract_y
_atom_site_fract_z
_atom_type_partial_charge
C0 C 0.14176 0.2443 0.11381 0.0
C1 C 0.15755 0.27212 0.11355 0.0
C2 C 0.11336 0.29755 0.09275 0.0
C3 C 0.14353 0.29842 0.10327 0.0
C4 C 0.09702 0.26996 0.09419 0.0
C5 C 0.11113 0.2435 0.10455 0.0
U6 U 0.15729 0.17145 0.16044 0.0
O7 O 0.17568 0.12779 0.14515 0.0
O8 O 0.20087 0.15545 0.17819 0.0
C9 C 0.20114 0.13157 0.16045 0.0
C10 C 0.15868 0.21654 0.12159 0.0
C11 C 0.23011 0.12575 0.1445 0.0
C12 C 0.28537 0.12522 0.14583 0.0
C13 C 0.25777 0.1337 0.1585 0.0
C14 C 0.25855 0.10137 0.10418 0.0
C15 C 0.2861 0.10833 0.11894 0.0
C16 C 0.2308 0.10986 0.11692 0.0
C17 C 0.10686 0.14741 0.22712 0.0
C18 C 0.09642 0.09761 0.24902 0.0
C19 C 0.09562 0.14231 0.28072 0.0
C20 C 0.10269 0.16044 0.2557 0.0
C21 C 0.09231 0.1107 0.27768 0.0
C22 C 0.10376 0.11576 0.22399 0.0
C23 C 0.11423 0.16739 0.20117 0.0
O24 O 0.17344 0.21705 0.14747 0.0
O25 O 0.14554 0.1902 0.11581 0.0
O26 O 0.11171 0.15559 0.17395 0.0
O27 O 0.1386 0.18457 0.20452 0.0
H28 H 0.18114 0.27338 0.12057 0.0
H29 H 0.15658 0.31941 0.10293 0.0
H30 H 0.0738 0.26857 0.08614 0.0
H31 H 0.09833 0.22236 0.10451 0.0
H32 H 0.30622 0.13124 0.15756 0.0
H33 H 0.25813 0.1457 0.17985 0.0
H34 H 0.25837 0.08815 0.08357 0.0
H35 H 0.20992 0.1031 0.10566 0.0
H36 H 0.09424 0.0733 0.24601 0.0
H37 H 0.09219 0.15313 0.30238 0.0
H38 H 0.10482 0.18477 0.25868 0.0
H39 H 0.10698 0.10501 0.20227 0.0
C40 C 0.29767 0.86778 0.61994 0.0
C41 C 0.27475 0.87369 0.64109 0.0
C42 C 0.24309 0.89545 0.60156 0.0
C43 C 0.24769 0.88724 0.63195 0.0
C44 C 0.26638 0.89036 0.58061 0.0
C45 C 0.29335 0.8765 0.5897 0.0
U46 U 0.36743 0.8578 0.6708 0.0
O47 O 0.38662 0.81657 0.69079 0.0
O48 O 0.41384 0.84375 0.65906 0.0
C49 C 0.41131 0.81816 0.67422 0.0
C50 C 0.32566 0.85175 0.62871 0.0
C51 C 0.41878 0.79036 0.65732 0.0
C52 C 0.40316 0.74478 0.63013 0.0
C53 C 0.3958 0.77138 0.64553 0.0
C54 C 0.45662 0.75606 0.63736 0.0
C55 C 0.43368 0.73668 0.62584 0.0
C56 C 0.44921 0.78256 0.65298 0.0
C57 C 0.37829 0.91639 0.73546 0.0
C58 C 0.42005 0.91856 0.77151 0.0
C59 C 0.37764 0.9526 0.77679 0.0
C60 C 0.3641 0.93987 0.75108 0.0
C61 C 0.40575 0.94209 0.78743 0.0
C62 C 0.40641 0.9058 0.74573 0.0
C63 C 0.36296 0.90332 0.70881 0.0
O64 O 0.35131 0.86667 0.62437 0.0
O65 O 0.32489 0.83698 0.65455 0.0
O66 O 0.3494 0.87692 0.7129 0.0
O67 O 0.37768 0.90522 0.68306 0.0
H68 H 0.2775 0.8675 0.66464 0.0
H69 H 0.23027 0.89122 0.64865 0.0
H70 H 0.26337 0.89625 0.55701 0.0
H71 H 0.31069 0.87216 0.573 0.0
H72 H 0.38483 0.73032 0.62201 0.0
H73 H 0.3721 0.77697 0.64843 0.0
H74 H 0.48036 0.75095 0.63408 0.0
H75 H 0.4673 0.79699 0.66171 0.0
H76 H 0.44185 0.91012 0.77887 0.0
H77 H 0.36572 0.97026 0.78868 0.0
H78 H 0.34231 0.94824 0.74352 0.0
H79 H 0.41771 0.88767 0.73389 0.0
C80 C 0.59937 0.38791 0.81276 0.0
C81 C 0.61984 0.41063 0.80325 0.0
C82 C 0.58851 0.42024 0.7588 0.0
C83 C 0.61442 0.42674 0.77647 0.0
C84 C 0.56773 0.398 0.76901 0.0
C85 C 0.57316 0.38197 0.7957 0.0
U86 U 0.64598 0.36999 0.88337 0.0
O87 O 0.63111 0.35337 0.92798 0.0
O88 O 0.6619 0.32614 0.90047 0.0
C89 C 0.645 0.32736 0.92486 0.0
C90 C 0.60547 0.36943 0.83973 0.0
C91 C 0.62661 0.30003 0.93112 0.0
C92 C 0.59009 0.2612 0.91551 0.0
C93 C 0.60603 0.28829 0.90967 0.0
C94 C 0.61461 0.25791 0.96452 0.0
C95 C 0.5946 0.24545 0.94283 0.0
C96 C 0.63047 0.28489 0.95867 0.0
C97 C 0.71451 0.42087 0.90349 0.0
C98 C 0.75749 0.40693 0.9351 0.0
C99 C 0.75114 0.45919 0.91951 0.0
C100 C 0.72457 0.45111 0.90403 0.0
C101 C 0.76831 0.43711 0.93468 0.0
C102 C 0.73078 0.39887 0.91962 0.0
C103 C 0.68796 0.41273 0.88477 0.0
O104 O 0.63065 0.35378 0.83888 0.0
O105 O 0.60104 0.38279 0.86585 0.0
O106 O 0.66129 0.4156 0.89761 0.0
O107 O 0.69033 0.38777 0.86878 0.0
H108 H 0.64023 0.41549 0.81624 0.0
H109 H 0.63092 0.4436 0.76914 0.0
H110 H 0.54729 0.39283 0.75624 0.0
H111 H 0.55706 0.36461 0.80281 0.0
H112 H 0.57497 0.25214 0.8983 0.0
H113 H 0.60275 0.29978 0.88826 0.0
H114 H 0.61817 0.24667 0.98601 0.0
H115 H 0.64613 0.29373 0.97554 0.0
H116 H 0.77024 0.38936 0.94643 0.0
H117 H 0.7585 0.48273 0.91923 0.0
H118 H 0.7122 0.46843 0.89189 0.0
H119 H 0.72326 0.37537 0.91959 0.0
C120 C 0.7943 0.60407 0.38406 0.0
C121 C 0.77549 0.62435 0.39949 0.0
C122 C 0.74368 0.58217 0.41677 0.0
C123 C 0.75035 0.61346 0.41577 0.0
C124 C 0.7636 0.56198 0.40262 0.0
C125 C 0.78859 0.57284 0.3864 0.0
U126 U 0.85724 0.66023 0.3589 0.0
O127 O 0.90155 0.65056 0.33858 0.0
O128 O 0.86778 0.67639 0.31297 0.0
C129 C 0.89423 0.66295 0.31255 0.0
C130 C 0.81861 0.6147 0.36371 0.0
C131 C 0.90042 0.64467 0.28555 0.0
C132 C 0.89521 0.59814 0.25636 0.0
C133 C 0.88828 0.61526 0.28206 0.0
C134 C 0.92596 0.63991 0.23736 0.0
C135 C 0.91443 0.61018 0.23385 0.0
C136 C 0.91906 0.65691 0.26297 0.0
C137 C 0.87752 0.73115 0.40433 0.0
C138 C 0.90798 0.7731 0.38462 0.0
C139 C 0.89871 0.76904 0.43844 0.0
C140 C 0.88159 0.74256 0.43362 0.0
C141 C 0.91204 0.78467 0.41401 0.0
C142 C 0.89099 0.74646 0.37984 0.0
C143 C 0.8594 0.70321 0.39984 0.0
O144 O 0.81301 0.63941 0.34807 0.0
O145 O 0.84644 0.6138 0.37448 0.0
O146 O 0.87446 0.67778 0.40236 0.0
O147 O 0.84046 0.70336 0.37679 0.0
H148 H 0.77962 0.64859 0.39811 0.0
H149 H 0.73537 0.62957 0.42633 0.0
H150 H 0.75937 0.53773 0.4034 0.0
H151 H 0.80295 0.55684 0.37483 0.0
H152 H 0.88606 0.5753 0.2544 0.0
H153 H 0.87372 0.6055 0.29931 0.0
H154 H 0.94028 0.65015 0.22021 0.0
H155 H 0.92842 0.67965 0.26519 0.0
H156 H 0.91819 0.78447 0.36539 0.0
H157 H 0.90108 0.77756 0.46129 0.0
H158 H 0.8714 0.73103 0.45278 0.0
H159 H 0.88835 0.73783 0.35705 0.0
C160 C 0.88125 0.8078 0.91373 0.0
C161 C 0.89723 0.79438 0.88994 0.0
C162 C 0.91349 0.75371 0.92346 0.0
C163 C 0.91312 0.76749 0.89474 0.0
C164 C 0.898 0.76769 0.94734 0.0
C165 C 0.88198 0.79446 0.94248 0.0
U166 U 0.86199 0.87906 0.86865 0.0
O167 O 0.81741 0.89673 0.85521 0.0
O168 O 0.84778 0.92412 0.884 0.0
C169 C 0.8204 0.92097 0.8723 0.0
C170 C 0.863 0.83512 0.90875 0.0
C171 C 0.7944 0.92742 0.89234 0.0
C172 C 0.77356 0.94163 0.94119 0.0
C173 C 0.79854 0.93498 0.92299 0.0
C174 C 0.73989 0.93298 0.8986 0.0
C175 C 0.74396 0.94068 0.92919 0.0
C176 C 0.76483 0.92658 0.88038 0.0
C177 C 0.9098 0.89834 0.79824 0.0
C178 C 0.8955 0.93067 0.75598 0.0
C179 C 0.94721 0.91309 0.76071 0.0
C180 C 0.93957 0.89781 0.78732 0.0
C181 C 0.92514 0.92917 0.74434 0.0
C182 C 0.88787 0.91533 0.78275 0.0
C183 C 0.90212 0.87983 0.82493 0.0
O184 O 0.87727 0.86119 0.91266 0.0
O185 O 0.84557 0.83462 0.88457 0.0
O186 O 0.87636 0.86449 0.82353 0.0
O187 O 0.90705 0.89258 0.85136 0.0
H188 H 0.8971 0.8045 0.8676 0.0
H189 H 0.9251 0.75745 0.87598 0.0
H190 H 0.89755 0.75748 0.96963 0.0
H191 H 0.86975 0.8045 0.96109 0.0
H192 H 0.77739 0.94732 0.96472 0.0
H193 H 0.82103 0.93586 0.93297 0.0
H194 H 0.71741 0.93252 0.88857 0.0
H195 H 0.76101 0.92111 0.85678 0.0
H196 H 0.87799 0.94278 0.74387 0.0
H197 H 0.97038 0.91198 0.7527 0.0
H198 H 0.95685 0.885 0.79909 0.0
H199 H 0.86474 0.91614 0.79095 0.0
C200 C 0.61315 0.13654 0.30609 0.0
C201 C 0.63641 0.12029 0.29206 0.0
C202 C 0.60172 0.10518 0.25158 0.0
C203 C 0.63077 0.10483 0.26495 0.0
C204 C 0.57843 0.1211 0.26608 0.0
C205 C 0.58413 0.13665 0.29305 0.0
U206 U 0.65998 0.15501 0.37688 0.0
O207 O 0.67395 0.19945 0.39509 0.0
O208 O 0.64542 0.16876 0.42231 0.0
C209 C 0.65744 0.1961 0.41959 0.0
C210 C 0.6189 0.15423 0.33373 0.0
C211 C 0.638 0.22208 0.42731 0.0
C212 C 0.58941 0.24337 0.44184 0.0
C213 C 0.60691 0.21836 0.43378 0.0
C214 C 0.63359 0.27619 0.43667 0.0
C215 C 0.60258 0.27255 0.44334 0.0
C216 C 0.6511 0.25121 0.42888 0.0
C217 C 0.73206 0.10964 0.39466 0.0
C218 C 0.78716 0.10809 0.39801 0.0
C219 C 0.75674 0.08859 0.43933 0.0
C220 C 0.73027 0.09625 0.42353 0.0
C221 C 0.78548 0.09403 0.42653 0.0
C222 C 0.76079 0.11563 0.38223 0.0
C223 C 0.70455 0.11606 0.37644 0.0
O224 O 0.61552 0.13948 0.35938 0.0
O225 O 0.64321 0.17181 0.33323 0.0
O226 O 0.7051 0.14159 0.36101 0.0
O227 O 0.67805 0.11025 0.38896 0.0
H228 H 0.65896 0.11984 0.30191 0.0
H229 H 0.64908 0.09252 0.25451 0.0
H230 H 0.55593 0.12216 0.25619 0.0
H231 H 0.56595 0.14914 0.30353 0.0
H232 H 0.56553 0.23992 0.4467 0.0
H233 H 0.5961 0.19618 0.43276 0.0
H234 H 0.64451 0.2983 0.43809 0.0
H235 H 0.67505 0.25465 0.42426 0.0
H236 H 0.80893 0.11306 0.3877 0.0
H237 H 0.75465 0.07754 0.46112 0.0
H238 H 0.70848 0.09115 0.43373 0.0
H239 H 0.76291 0.1258 0.36001 0.0
C240 C 0.28668 0.60863 0.15956 0.0
C241 C 0.25876 0.60404 0.17407 0.0
C242 C 0.2334 0.59811 0.12546 0.0
C243 C 0.23235 0.59894 0.1572 0.0
C244 C 0.26149 0.60198 0.11092 0.0
C245 C 0.28792 0.60744 0.12782 0.0
U246 U 0.35741 0.65688 0.17325 0.0
O247 O 0.37414 0.67863 0.2148 0.0
O248 O 0.40243 0.64536 0.19153 0.0
C249 C 0.39879 0.66213 0.21577 0.0
C250 C 0.31369 0.61632 0.17789 0.0
C251 C 0.40477 0.64696 0.24477 0.0
C252 C 0.38755 0.61795 0.2884 0.0
C253 C 0.38148 0.63184 0.26058 0.0
C254 C 0.4403 0.63375 0.28456 0.0
C255 C 0.41706 0.6187 0.30064 0.0
C256 C 0.43417 0.64778 0.2569 0.0
C257 C 0.37664 0.7198 0.1162 0.0
C258 C 0.4252 0.74394 0.10449 0.0
C259 C 0.37862 0.77213 0.09897 0.0
C260 C 0.36192 0.74672 0.10833 0.0
C261 C 0.41043 0.77105 0.09704 0.0
C262 C 0.40846 0.71854 0.11418 0.0
C263 C 0.35817 0.69369 0.12661 0.0
O264 O 0.34024 0.61039 0.16587 0.0
O265 O 0.31284 0.64296 0.19111 0.0
O266 O 0.34192 0.69855 0.15093 0.0
O267 O 0.37112 0.66695 0.12648 0.0
H268 H 0.25732 0.60494 0.19851 0.0
H269 H 0.21103 0.59569 0.16899 0.0
H270 H 0.26288 0.60164 0.08648 0.0
H271 H 0.30915 0.61123 0.11605 0.0
H272 H 0.36928 0.60626 0.30011 0.0
H273 H 0.35863 0.63081 0.25144 0.0
H274 H 0.46319 0.635 0.29357 0.0
H275 H 0.4524 0.65938 0.24502 0.0
H276 H 0.44971 0.74258 0.10336 0.0
H277 H 0.36661 0.7926 0.09299 0.0
H278 H 0.33741 0.74815 0.10957 0.0
H279 H 0.42044 0.69808 0.12023 0.0
C280 C 0.10389 0.29489 0.64386 0.0
C281 C 0.11552 0.28943 0.61493 0.0
C282 C 0.09072 0.2396 0.61407 0.0
C283 C 0.10894 0.26207 0.60013 0.0
C284 C 0.07897 0.24541 0.64301 0.0
C285 C 0.0855 0.27279 0.65772 0.0
U286 U 0.15159 0.36721 0.65434 0.0
O287 O 0.13827 0.41253 0.67019 0.0
O288 O 0.17197 0.38634 0.69559 0.0
C289 C 0.15493 0.41062 0.69483 0.0
C290 C 0.11157 0.32293 0.66033 0.0
C291 C 0.13976 0.41856 0.72333 0.0
C292 C 0.11703 0.40432 0.7714 0.0
C293 C 0.12961 0.39612 0.74362 0.0
C294 C 0.12357 0.45742 0.75847 0.0
C295 C 0.11413 0.43507 0.77924 0.0
C296 C 0.13635 0.44921 0.73082 0.0
C297 C 0.21559 0.38722 0.59945 0.0
C298 C 0.26318 0.4134 0.61092 0.0
C299 C 0.24492 0.41121 0.55925 0.0
C300 C 0.21931 0.39472 0.56882 0.0
C301 C 0.26741 0.42016 0.58015 0.0
C302 C 0.23745 0.39727 0.62052 0.0
C303 C 0.18965 0.36788 0.60885 0.0
O304 O 0.13822 0.32309 0.67378 0.0
O305 O 0.10571 0.34849 0.64619 0.0
O306 O 0.1627 0.38031 0.60742 0.0
O307 O 0.1938 0.35179 0.63355 0.0
H308 H 0.12986 0.30623 0.60391 0.0
H309 H 0.11807 0.25855 0.57773 0.0
H310 H 0.06528 0.22851 0.65464 0.0
H311 H 0.07651 0.27655 0.68016 0.0
H312 H 0.10962 0.38659 0.78677 0.0
H313 H 0.13179 0.37229 0.7382 0.0
H314 H 0.12189 0.48128 0.76395 0.0
H315 H 0.14406 0.46685 0.71546 0.0
H316 H 0.27998 0.42034 0.62755 0.0
H317 H 0.24769 0.41599 0.53538 0.0
H318 H 0.2027 0.38726 0.55221 0.0
H319 H 0.235 0.39213 0.64435 0.0
O320 O 0.00847 0.06719 0.54811 0.0
Zn321 Zn 0.99069 0.02699 0.53366 0.0
O322 O 0.02125 0.00541 0.50914 0.0
Zn323 Zn 0.00587 0.99791 0.46822 0.0
Zn324 Zn 0.05921 0.02904 0.5067 0.0
Zn325 Zn 0.02981 0.96642 0.52761 0.0
O326 O 0.99882 0.95312 0.45972 0.0
O327 O 0.01537 0.9316 0.50188 0.0
O328 O 0.95275 0.03603 0.50844 0.0
O329 O 0.96542 0.01728 0.46372 0.0
O330 O 0.03288 0.01702 0.43629 0.0
O331 O 0.06801 0.04117 0.46351 0.0
O332 O 0.09528 0.00529 0.52248 0.0
O333 O 0.97869 1.00253 0.5714 0.0
O334 O 0.07417 0.96153 0.53646 0.0
O335 O 0.00795 0.96222 0.5667 0.0
C336 C 0.03447 0.08005 0.54562 0.0
C337 C 0.00343 0.92953 0.47571 0.0
C338 C 0.05617 0.03441 0.43802 0.0
C339 C 0.94675 0.03102 0.48061 0.0
C340 C 0.09745 0.97868 0.53356 0.0
C341 C 0.98836 0.97718 0.58131 0.0
O342 O 0.05583 0.06767 0.53088 0.0
O343 O 0.51336 0.07139 0.98499 0.0
Zn344 Zn 0.48694 0.03404 0.99525 0.0
O345 O 0.50905 0.00693 0.02367 0.0
Zn346 Zn 0.51386 0.96663 0.00615 0.0
Zn347 Zn 0.54939 0.02331 0.0335 0.0
Zn348 Zn 0.48648 1.0026 0.06112 0.0
O349 O 0.49524 0.93342 0.032 0.0
O350 O 0.47384 0.95944 0.0689 0.0
O351 O 0.47579 0.01105 0.95628 0.0
O352 O 0.49298 0.96485 0.96601 0.0
O353 O 0.55782 0.95732 0.99838 0.0
O354 O 0.58287 0.99658 0.01797 0.0
O355 O 0.55525 0.03101 0.07845 0.0
O356 O 0.44744 0.04908 0.01442 0.0
O357 O 0.51054 0.01703 0.097 0.0
O358 O 0.44893 0.02728 0.05967 0.0
C359 C 0.53983 0.07939 0.99414 0.0
C360 C 0.4793 0.93436 0.05594 0.0
C361 C 0.58266 0.97127 0.00412 0.0
C362 C 0.47942 0.98337 0.94864 0.0
C363 C 0.53729 0.02761 0.10077 0.0
C364 C 0.43593 0.04434 0.04049 0.0
O365 O 0.55479 0.06301 0.0125 0.0
O366 O 0.55007 0.5028 0.58615 0.0
Zn367 Zn 0.54011 0.52893 0.54911 0.0
O368 O 0.51249 0.50705 0.52088 0.0
Zn369 Zn 0.53209 0.50262 0.48193 0.0
Zn370 Zn 0.50424 0.46625 0.53593 0.0
Zn371 Zn 0.47388 0.5289 0.51544 0.0
O372 O 0.5078 0.52161 0.44899 0.0
O373 O 0.46726 0.54075 0.47125 0.0
O374 O 0.57995 0.54153 0.52829 0.0
O375 O 0.57255 0.52302 0.48221 0.0
O376 O 0.53961 0.45922 0.47075 0.0
O377 O 0.51932 0.43309 0.50849 0.0
O378 O 0.45986 0.46 0.54325 0.0
O379 O 0.51959 0.567 0.56391 0.0
O380 O 0.43773 0.50288 0.52937 0.0
O381 O 0.4748 0.56759 0.54045 0.0
C382 C 0.54215 0.47566 0.59285 0.0
C383 C 0.48298 0.536 0.44759 0.0
C384 C 0.53338 0.434 0.48343 0.0
C385 C 0.58904 0.5372 0.50127 0.0
C386 C 0.43617 0.47595 0.54 0.0
C387 C 0.49415 0.57953 0.55857 0.0
O388 O 0.52501 0.46014 0.57543 0.0
O389 O 0.97275 0.51909 0.07062 0.0
Zn390 Zn 0.98257 0.49773 0.03055 0.0
O391 O 0.01082 0.52296 0.00559 0.0
Zn392 Zn 0.99215 0.53423 0.96713 0.0
Zn393 Zn 0.02165 0.56009 0.02694 0.0
Zn394 Zn 0.04808 0.50101 0.99709 0.0
O395 O 0.01626 0.51956 0.93123 0.0
O396 O 0.05381 0.49397 0.95247 0.0
O397 O 0.94296 0.48953 0.00727 0.0
O398 O 0.95105 0.51481 0.96446 0.0
O399 O 0.98601 0.57952 0.96343 0.0
O400 O 0.00662 0.59747 0.00564 0.0
O401 O 0.06648 0.56409 0.03398 0.0
O402 O 0.00231 0.45707 0.04124 0.0
O403 O 0.08542 0.52261 0.0135 0.0
O404 O 0.04656 0.46065 0.01748 0.0
C405 C 0.98408 0.54326 0.08217 0.0
C406 C 0.03976 0.50314 0.92903 0.0
C407 C 0.99277 0.60171 0.98069 0.0
C408 C 0.93418 0.49814 0.98109 0.0
C409 C 0.089 0.54742 0.02784 0.0
C410 C 0.028 0.44599 0.03416 0.0
O411 O 0.00302 0.55971 0.06776 0.0
H412 H 0.11599 0.11373 0.3345 0.0
H413 H 0.04992 0.06494 0.28055 0.0
H414 H 0.03404 0.03576 0.32496 0.0
H415 H 0.03704 0.02608 0.37969 0.0
H416 H 0.10314 0.0753 0.43352 0.0
H417 H 0.12078 0.10224 0.38864 0.0
C418 C 0.09809 0.09673 0.33249 0.0
C419 C 0.08402 0.09168 0.30429 0.0
C420 C 0.08899 0.08013 0.35813 0.0
C421 C 0.06125 0.06916 0.30193 0.0
C422 C 0.05204 0.05258 0.32736 0.0
C423 C 0.05547 0.04252 0.38162 0.0
C424 C 0.06854 0.04871 0.41012 0.0
C425 C 0.0655 0.05812 0.35566 0.0
C426 C 0.09251 0.07005 0.41201 0.0
C427 C 0.10262 0.08558 0.38632 0.0
H428 H 0.43443 0.91188 0.83284 0.0
H429 H 0.40775 1.00168 0.80539 0.0
H430 H 0.42782 0.02256 0.85265 0.0
H431 H 0.45253 0.01518 0.90236 0.0
H432 H 0.47976 0.925 0.92858 0.0
H433 H 0.46032 0.90475 0.88123 0.0
C434 C 0.43338 0.93609 0.83693 0.0
C435 C 0.4195 0.95509 0.81551 0.0
C436 C 0.44506 0.94799 0.86409 0.0
C437 C 0.41792 0.98638 0.82159 0.0
C438 C 0.42953 0.9984 0.8486 0.0
C439 C 0.45423 0.99112 0.89771 0.0
C440 C 0.4676 0.97177 0.91923 0.0
C441 C 0.44299 0.97939 0.87016 0.0
C442 C 0.46965 0.9406 0.91262 0.0
C443 C 0.4585 0.92887 0.88545 0.0
H444 H 0.57016 0.39423 0.70643 0.0
H445 H 0.59608 0.48067 0.74469 0.0
H446 H 0.58582 0.5056 0.69619 0.0
H447 H 0.56694 0.50291 0.6433 0.0
H448 H 0.54013 0.41573 0.60675 0.0
H449 H 0.55304 0.39124 0.65417 0.0
C450 C 0.57335 0.41858 0.70428 0.0
C451 C 0.5835 0.43559 0.72925 0.0
C452 C 0.56716 0.4327 0.67657 0.0
C453 C 0.58832 0.46701 0.72579 0.0
C454 C 0.58233 0.4813 0.6981 0.0
C455 C 0.56418 0.47855 0.64568 0.0
C456 C 0.55234 0.46132 0.62146 0.0
C457 C 0.57142 0.4644 0.67336 0.0
C458 C 0.54888 0.42971 0.62499 0.0
C459 C 0.55629 0.41558 0.65215 0.0
H460 H 0.97004 0.60634 0.20841 0.0
H461 H 0.87808 0.57295 0.19882 0.0
H462 H 0.89197 0.54643 0.15232 0.0
H463 H 0.92974 0.53618 0.112 0.0
H464 H 0.02065 0.5727 0.12162 0.0
H465 H 0.00765 0.59455 0.17023 0.0
C466 C 0.95294 0.59338 0.19611 0.0
C467 C 0.92299 0.59203 0.20689 0.0
C468 C 0.96092 0.57877 0.16923 0.0
C469 C 0.90135 0.57437 0.19108 0.0
C470 C 0.90925 0.55933 0.16438 0.0
C471 C 0.94672 0.54855 0.12501 0.0
C472 C 0.97605 0.55298 0.11311 0.0
C473 C 0.93889 0.56179 0.15291 0.0
C474 C 0.99782 0.56923 0.13012 0.0
C475 C 0.99044 0.58175 0.15795 0.0
H476 H 0.30859 0.10723 0.06101 0.0
H477 H 0.32908 0.08069 0.15277 0.0
H478 H 0.37698 0.05936 0.13652 0.0
H479 H 0.41272 0.04761 0.0968 0.0
H480 H 0.39408 0.07375 0.00459 0.0
H481 H 0.34582 0.09588 0.02047 0.0
C482 C 0.32357 0.09671 0.07736 0.0
C483 C 0.31532 0.09578 0.10813 0.0
C484 C 0.35137 0.08442 0.06782 0.0
C485 C 0.33505 0.0822 0.12908 0.0
C486 C 0.3624 0.06981 0.11979 0.0
C487 C 0.39819 0.05808 0.08002 0.0
C488 C 0.40702 0.05881 0.04948 0.0
C489 C 0.37075 0.07076 0.08929 0.0
C490 C 0.38789 0.07285 0.02825 0.0
C491 C 0.36026 0.08544 0.03733 0.0
H492 H 0.23323 0.94467 0.56543 0.0
H493 H 0.18666 0.87409 0.61534 0.0
H494 H 0.13772 0.89357 0.59866 0.0
H495 H 0.10818 0.93016 0.56968 0.0
H496 H 0.15405 1.00184 0.52058 0.0
H497 H 0.20323 0.98238 0.53709 0.0
C498 C 0.21233 0.93356 0.57253 0.0
C499 C 0.21355 0.90799 0.5916 0.0
C500 C 0.18419 0.94503 0.56299 0.0
C501 C 0.18631 0.89399 0.60093 0.0
C502 C 0.15833 0.90501 0.59128 0.0
C503 C 0.1289 0.94154 0.56247 0.0
C504 C 0.12738 0.96733 0.54374 0.0
C505 C 0.157 0.93046 0.57229 0.0
C506 C 0.15453 0.98195 0.53499 0.0
C507 C 0.18267 0.97081 0.54438 0.0
H508 H 0.81166 0.4737 0.91062 0.0
H509 H 0.79248 0.41865 0.9891 0.0
H510 H 0.84213 0.43238 0.01065 0.0
H511 H 0.89112 0.46056 0.00708 0.0
H512 H 0.90866 0.51559 0.92789 0.0
H513 H 0.85944 0.50164 0.90715 0.0
C514 C 0.8181 0.46499 0.93265 0.0
C515 C 0.79823 0.4454 0.94831 0.0
C516 C 0.84648 0.473 0.94486 0.0
C517 C 0.80738 0.43369 0.97648 0.0
C518 C 0.83573 0.44163 0.98887 0.0
C519 C 0.88415 0.46951 0.98532 0.0
C520 C 0.90378 0.48913 0.96919 0.0
C521 C 0.85552 0.46133 0.97324 0.0
C522 C 0.89426 0.50043 0.94094 0.0
C523 C 0.866 0.49248 0.92895 0.0
H524 H 0.71695 0.59769 0.4706 0.0
H525 H 0.70496 0.54097 0.39187 0.0
H526 H 0.65696 0.52186 0.41158 0.0
H527 H 0.61806 0.52164 0.4501 0.0
H528 H 0.62829 0.57761 0.52952 0.0
H529 H 0.67732 0.5966 0.51061 0.0
C530 C 0.70375 0.58118 0.45783 0.0
C531 C 0.71471 0.57061 0.42989 0.0
C532 C 0.67589 0.57018 0.46934 0.0
C533 C 0.69741 0.5491 0.41365 0.0
C534 C 0.66982 0.53827 0.4248 0.0
C535 C 0.63087 0.53804 0.46341 0.0
C536 C 0.61932 0.54833 0.49113 0.0
C537 C 0.65883 0.5487 0.4525 0.0
C538 C 0.63659 0.5693 0.5081 0.0
C539 C 0.6646 0.58021 0.49725 0.0
H540 H 0.05665 0.32169 0.10077 0.0
H541 H 0.14047 0.33475 0.05188 0.0
H542 H 0.12093 0.38079 0.02899 0.0
H543 H 0.08121 0.41795 0.0237 0.0
H544 H 0.99699 0.40686 0.07233 0.0
H545 H 0.01537 0.35923 0.09411 0.0
C546 C 0.07047 0.33455 0.08494 0.0
C547 C 0.10016 0.32496 0.07837 0.0
C548 C 0.05906 0.3613 0.07178 0.0
C549 C 0.11782 0.3419 0.05783 0.0
C550 C 0.10661 0.36817 0.04457 0.0
C551 C 0.06664 0.40519 0.03896 0.0
C552 C 0.03773 0.41616 0.04637 0.0
C553 C 0.07743 0.3782 0.05157 0.0
C554 C 0.01935 0.39905 0.06619 0.0
C555 C 0.02989 0.37182 0.07871 0.0
H556 H 0.6202 0.19533 0.96668 0.0
H557 H 0.5354 0.22821 0.93123 0.0
H558 H 0.51094 0.17922 0.94243 0.0
H559 H 0.51338 0.12746 0.96457 0.0
H560 H 0.5989 0.09641 1.00067 0.0
H561 H 0.62305 0.14424 0.98719 0.0
C562 C 0.59628 0.19192 0.96161 0.0
C563 C 0.5796 0.21554 0.94849 0.0
C564 C 0.5824 0.16395 0.96832 0.0
C565 C 0.54881 0.21039 0.9413 0.0
C566 C 0.53478 0.18242 0.94783 0.0
C567 C 0.53732 0.13112 0.96928 0.0
C568 C 0.55412 0.1083 0.98385 0.0
C569 C 0.5513 0.15906 0.96162 0.0
C570 C 0.58519 0.11352 0.98976 0.0
C571 C 0.59916 0.14093 0.98203 0.0
H572 H 0.9542 0.79576 0.45779 0.0
H573 H 0.90929 0.83774 0.38198 0.0
H574 H 0.93559 0.88573 0.39273 0.0
H575 H 0.96864 0.91667 0.42587 0.0
H576 H 0.01266 0.87443 0.50225 0.0
H577 H 0.98948 0.82579 0.48901 0.0
C578 C 0.95016 0.81543 0.44363 0.0
C579 C 0.92962 0.81322 0.41929 0.0
C580 C 0.96517 0.84298 0.45008 0.0
C581 C 0.9251 0.83876 0.40078 0.0
C582 C 0.94002 0.86627 0.40701 0.0
C583 C 0.9735 0.89677 0.4394 0.0
C584 C 0.99225 0.8994 0.46517 0.0
C585 C 0.95977 0.86877 0.43188 0.0
C586 C 0.99822 0.87325 0.4824 0.0
C587 C 0.9849 0.84535 0.4749 0.0
H588 H 0.47975 0.69741 0.63837 0.0
H589 H 0.40513 0.7114 0.5765 0.0
H590 H 0.4167 0.66403 0.55088 0.0
H591 H 0.44806 0.61854 0.54577 0.0
H592 H 0.52407 0.60585 0.60622 0.0
H593 H 0.51217 0.65299 0.63214 0.0
C594 C 0.46622 0.6904 0.61903 0.0
C595 C 0.44146 0.70809 0.60961 0.0
C596 C 0.47327 0.66328 0.60402 0.0
C597 C 0.42397 0.69813 0.58474 0.0
C598 C 0.43069 0.67107 0.56987 0.0
C599 C 0.46203 0.62604 0.56463 0.0
C600 C 0.48689 0.60849 0.57401 0.0
C601 C 0.45523 0.6534 0.57936 0.0
C602 C 0.50483 0.61881 0.59839 0.0
C603 C 0.49802 0.6458 0.61331 0.0
H604 H 0.95797 0.90361 0.6999 0.0
H605 H 0.90934 0.98499 0.72147 0.0
H606 H 0.92358 0.00703 0.67249 0.0
H607 H 0.95149 0.00349 0.62391 0.0
H608 H 1.00032 0.92141 0.60424 0.0
H609 H 0.98462 0.89968 0.65212 0.0
C610 C 0.9507 0.92632 0.69407 0.0
C611 C 0.93294 0.94275 0.71448 0.0
C612 C 0.95909 0.93881 0.66613 0.0
C613 C 0.92301 0.97181 0.70614 0.0
C614 C 0.93126 0.98447 0.67819 0.0
C615 C 0.95857 0.98083 0.63007 0.0
C616 C 0.97724 0.9643 0.61037 0.0
C617 C 0.9495 0.96823 0.65802 0.0
C618 C 0.98614 0.93489 0.61883 0.0
C619 C 0.97716 0.92231 0.6463 0.0
H620 H 0.55262 0.07051 0.2361 0.0
H621 H 0.63744 0.10531 0.20106 0.0
H622 H 0.626 0.08285 0.15175 0.0
H623 H 0.59043 0.05584 0.11774 0.0
H624 H 0.50521 0.02197 0.15317 0.0
H625 H 0.51828 0.04166 0.20295 0.0
C626 C 0.56858 0.07323 0.21765 0.0
C627 C 0.59573 0.08975 0.22223 0.0
C628 C 0.56174 0.06052 0.18932 0.0
C629 C 0.61646 0.09253 0.19824 0.0
C630 C 0.60985 0.07985 0.16996 0.0
C631 C 0.57481 0.05253 0.13638 0.0
C632 C 0.54677 0.03758 0.1315 0.0
C633 C 0.58236 0.06412 0.16512 0.0
C634 C 0.52689 0.0335 0.15606 0.0
C635 C 0.53431 0.04479 0.18464 0.0
H636 H 0.46477 0.58282 0.31395 0.0
H637 H 0.38435 0.621 0.35313 0.0
H638 H 0.39686 0.59801 0.40198 0.0
H639 H 0.43192 0.56852 0.43403 0.0
H640 H 0.51233 0.53077 0.39381 0.0
H641 H 0.49859 0.55227 0.34515 0.0
C642 C 0.45005 0.58623 0.33323 0.0
C643 C 0.42383 0.60377 0.32999 0.0
C644 C 0.45742 0.57307 0.36115 0.0
C645 C 0.40462 0.60746 0.35501 0.0
C646 C 0.41184 0.59444 0.38298 0.0
C647 C 0.44636 0.56489 0.4146 0.0
C648 C 0.47322 0.54814 0.4178 0.0
C649 C 0.43835 0.57739 0.3864 0.0
C650 C 0.49157 0.54361 0.39224 0.0
C651 C 0.48377 0.55592 0.36428 0.0
H652 H 0.07308 0.47895 0.7922 0.0
H653 H 0.12899 0.41092 0.83405 0.0
H654 H 0.11113 0.42606 0.88392 0.0
H655 H 0.08022 0.45901 0.91572 0.0
H656 H 0.0235 0.52657 0.87402 0.0
H657 H 0.0413 0.51141 0.82411 0.0
C658 C 0.08142 0.46754 0.81227 0.0
C659 C 0.10234 0.44384 0.8094 0.0
C660 C 0.07101 0.47635 0.84092 0.0
C661 C 0.11263 0.42899 0.83559 0.0
C662 C 0.10257 0.43777 0.86414 0.0
C663 C 0.0718 0.47053 0.89575 0.0
C664 C 0.05066 0.49403 0.89871 0.0
C665 C 0.08186 0.46148 0.86708 0.0
C666 C 0.03978 0.50842 0.87248 0.0
C667 C 0.04995 0.49977 0.84389 0.0
H668 H 0.68972 0.91075 0.93257 0.0
H669 H 0.7386 0.98821 0.96829 0.0
H670 H 0.69371 0.00323 0.99665 0.0
H671 H 0.63957 0.9963 0.00845 0.0
H672 H 0.5906 0.91903 0.97202 0.0
H673 H 0.63651 0.90204 0.94694 0.0
C674 C 0.69052 0.93091 0.94659 0.0
C675 C 0.71738 0.94846 0.94813 0.0
C676 C 0.66458 0.93952 0.96267 0.0
C677 C 0.71827 0.97421 0.96683 0.0
C678 C 0.69255 0.98291 0.98293 0.0
C679 C 0.63896 0.97555 0.99532 0.0
C680 C 0.61149 0.95916 0.992 0.0
C681 C 0.66544 0.96598 0.98065 0.0
C682 C 0.6113 0.93225 0.97493 0.0
C683 C 0.63756 0.92251 0.96046 0.0
H684 H 0.83355 0.06646 0.40102 0.0
H685 H 0.80053 0.09814 0.48686 0.0
H686 H 0.8473 0.08129 0.51157 0.0
H687 H 0.8982 0.05804 0.50838 0.0
H688 H 0.93007 0.0272 0.42152 0.0
H689 H 0.88341 0.0437 0.39775 0.0
C690 C 0.83667 0.07006 0.42509 0.0
C691 C 0.81367 0.08382 0.44197 0.0
C692 C 0.86354 0.0605 0.43903 0.0
C693 C 0.81782 0.0875 0.47331 0.0
C694 C 0.84463 0.078 0.48743 0.0
C695 C 0.89493 0.05495 0.48427 0.0
C696 C 0.9178 0.04135 0.4669 0.0
C697 C 0.86774 0.06452 0.47048 0.0
C698 C 0.91301 0.0375 0.43563 0.0
C699 C 0.88626 0.04696 0.42189 0.0
H700 H 0.22298 0.55931 0.07856 0.0
H701 H 0.18026 0.62781 0.13274 0.0
H702 H 0.13249 0.61978 0.10558 0.0
H703 H 0.10228 0.59164 0.0685 0.0
H704 H 0.14387 0.52149 0.01538 0.0
H705 H 0.19279 0.53215 0.03973 0.0
C706 C 0.20326 0.57265 0.08413 0.0
C707 C 0.20503 0.59396 0.10773 0.0
C708 C 0.17571 0.56764 0.06865 0.0
C709 C 0.17929 0.61097 0.11495 0.0
C710 C 0.15203 0.60649 0.09935 0.0
C711 C 0.12207 0.57887 0.06192 0.0
C712 C 0.11933 0.55576 0.04014 0.0
C713 C 0.14988 0.58462 0.07645 0.0
C714 C 0.14528 0.53937 0.03211 0.0
C715 C 0.17326 0.54539 0.04608 0.0
H716 H 0.32449 0.40416 0.59501 0.0
H717 H 0.27452 0.46861 0.5417 0.0
H718 H 0.32227 0.49225 0.52477 0.0
H719 H 0.37858 0.4943 0.52521 0.0
H720 H 0.42749 0.42787 0.57752 0.0
H721 H 0.37992 0.40552 0.5948 0.0
C722 C 0.32407 0.42356 0.57988 0.0
C723 C 0.29609 0.43482 0.56983 0.0
C724 C 0.35147 0.43667 0.57001 0.0
C725 C 0.29584 0.45954 0.54971 0.0
C726 C 0.32311 0.47308 0.5401 0.0
C727 C 0.37878 0.47499 0.54043 0.0
C728 C 0.40666 0.46285 0.55001 0.0
C729 C 0.35112 0.46181 0.5501 0.0
C730 C 0.40646 0.43764 0.56959 0.0
C731 C 0.37922 0.42482 0.5796 0.0
H732 H 0.94969 0.73757 0.97073 0.0
H733 H 0.91182 0.70367 0.88712 0.0
H734 H 0.93447 0.6542 0.89649 0.0
H735 H 0.96263 0.61975 0.92979 0.0
H736 H 1.00004 0.65368 0.01374 0.0
H737 H 0.97994 0.70381 0.00285 0.0
C738 C 0.94639 0.71934 0.95458 0.0
C739 C 0.92896 0.72429 0.92835 0.0
C740 C 0.95931 0.69088 0.9602 0.0
C741 C 0.92533 0.70057 0.90737 0.0
C742 C 0.93812 0.6722 0.91281 0.0
C743 C 0.96661 0.63813 0.94563 0.0
C744 C 0.9827 0.63275 0.97265 0.0
C745 C 0.95484 0.66698 0.93933 0.0
C746 C 0.98769 0.657 0.9928 0.0
C747 C 0.97614 0.68574 0.98664 0.0
H748 H 0.40416 0.82843 0.11745 0.0
H749 H 0.45598 0.7747 0.0553 0.0
H750 H 0.48278 0.82039 0.03765 0.0
H751 H 0.48979 0.87595 0.03849 0.0
H752 H 0.43784 0.92915 0.10134 0.0
H753 H 0.41279 0.88334 0.12 0.0
C754 C 0.42129 0.82677 0.09999 0.0
C755 C 0.42792 0.79835 0.08748 0.0
C756 C 0.43653 0.85303 0.09003 0.0
C757 C 0.45057 0.79637 0.06532 0.0
C758 C 0.46578 0.82248 0.05514 0.0
C759 C 0.47309 0.87753 0.05635 0.0
C760 C 0.46563 0.90606 0.06831 0.0
C761 C 0.45871 0.85099 0.06712 0.0
C762 C 0.44407 0.90758 0.09163 0.0
C763 C 0.42963 0.88137 0.10233 0.0
H764 H 0.0377 0.20667 0.61292 0.0
H765 H 0.13024 0.20558 0.58115 0.0
H766 H 0.12086 0.15669 0.55692 0.0
H767 H 0.08682 0.11378 0.54545 0.0
H768 H 0.99455 0.11414 0.57816 0.0
H769 H 0.00364 0.16349 0.60167 0.0
C770 C 0.05591 0.19565 0.60091 0.0
C771 C 0.08464 0.20995 0.59888 0.0
C772 C 0.05048 0.16729 0.58727 0.0
C773 C 0.10778 0.19545 0.58275 0.0
C774 C 0.10251 0.16732 0.56904 0.0
C775 C 0.06864 0.12458 0.55771 0.0
C776 C 0.04003 0.11009 0.55999 0.0
C777 C 0.07399 0.15299 0.57123 0.0
C778 C 0.01682 0.12462 0.576 0.0
C779 C 0.02197 0.15291 0.58947 0.0
H780 H 0.60189 0.32838 0.41728 0.0
H781 H 0.5626 0.27633 0.49026 0.0
H782 H 0.53586 0.32121 0.50795 0.0
H783 H 0.5265 0.37604 0.50466 0.0
H784 H 0.56648 0.42797 0.43172 0.0
H785 H 0.59 0.38237 0.41212 0.0
C786 C 0.58744 0.32688 0.43705 0.0
C787 C 0.58444 0.29915 0.45258 0.0
C788 C 0.57233 0.35279 0.44719 0.0
C789 C 0.56518 0.29738 0.47781 0.0
C790 C 0.55002 0.32308 0.48804 0.0
C791 C 0.5401 0.37737 0.48431 0.0
C792 C 0.54485 0.40556 0.4699 0.0
C793 C 0.55381 0.35102 0.47318 0.0
C794 C 0.56247 0.4067 0.44344 0.0
C795 C 0.57604 0.38061 0.4322 0.0
loop_
_geom_bond_atom_site_label_1
_geom_bond_atom_site_label_2
_geom_bond_distance
_geom_bond_site_symmetry_2
_ccdc_geom_bond_type
C0 C1 1.264 . S
C0 C5 1.479 . S
C0 C10 1.465 . S
C1 C0 1.264 . S
C1 C3 1.339 . S
C1 H28 0.931 . S
C2 C3 1.395 . S
C2 C4 1.320 . S
C3 C1 1.339 . S
C3 C2 1.395 . S
C3 H29 0.929 . S
C4 C2 1.320 . S
C4 C5 1.405 . S
C4 H30 0.930 . S
C5 C0 1.479 . S
C5 C4 1.405 . S
C5 H31 0.931 . S
U6 O7 2.454 . S
U6 O8 2.458 . S
U6 C9 2.984 . S
U6 C10 2.847 . S
U6 C23 2.882 . S
U6 O24 2.441 . S
U6 O25 2.420 . S
U6 O26 2.455 . S
U6 O27 2.449 . S
O7 U6 2.454 . S
O7 C9 1.353 . S
O8 U6 2.458 . S
O8 C9 1.286 . S
C9 U6 2.984 . S
C9 O7 1.353 . S
C9 O8 1.286 . S
C9 C11 1.363 . S
C10 C0 1.465 . S
C10 U6 2.847 . S
C10 O24 1.249 . S
C10 O25 1.202 . S
C11 C9 1.363 . S
C11 C13 1.408 . S
C11 C16 1.342 . S
C12 C13 1.310 . S
C12 C15 1.461 . S
C12 H32 0.932 . S
C13 C11 1.408 . S
C13 C12 1.310 . S
C13 H33 0.930 . S
C14 C15 1.474 . S
C14 C16 1.285 . S
C14 H34 0.929 . S
C15 C12 1.461 . S
C15 C14 1.474 . S
C16 C11 1.342 . S
C16 C14 1.285 . S
C16 H35 0.930 . S
C17 C20 1.424 . S
C17 C22 1.245 . S
C17 C23 1.428 . S
C18 C21 1.260 . S
C18 C22 1.477 . S
C18 H36 0.932 . S
C19 C20 1.384 . S
C19 C21 1.479 . S
C19 H37 0.929 . S
C20 C17 1.424 . S
C20 C19 1.384 . S
C20 H38 0.928 . S
C21 C18 1.260 . S
C21 C19 1.479 . S
C22 C17 1.245 . S
C22 C18 1.477 . S
C22 H39 0.932 . S
C23 U6 2.882 . S
C23 C17 1.428 . S
C23 O26 1.301 . S
C23 O27 1.282 . S
O24 U6 2.441 . S
O24 C10 1.249 . S
O25 U6 2.420 . S
O25 C10 1.202 . S
O26 U6 2.455 . S
O26 C23 1.301 . S
O27 U6 2.449 . S
O27 C23 1.282 . S
H28 C1 0.931 . S
H29 C3 0.929 . S
H30 C4 0.930 . S
H31 C5 0.931 . S
H32 C12 0.932 . S
H33 C13 0.930 . S
H34 C14 0.929 . S
H35 C16 0.930 . S
H36 C18 0.932 . S
H37 C19 0.929 . S
H38 C20 0.928 . S
H39 C22 0.932 . S
C40 C41 1.264 . S
C40 C45 1.479 . S
C40 C50 1.465 . S
C41 C40 1.264 . S
C41 C43 1.339 . S
C41 H68 0.931 . S
C42 C43 1.395 . S
C42 C44 1.320 . S
C43 C41 1.339 . S
C43 C42 1.395 . S
C43 H69 0.929 . S
C44 C42 1.320 . S
C44 C45 1.405 . S
C44 H70 0.930 . S
C45 C40 1.479 . S
C45 C44 1.405 . S
C45 H71 0.931 . S
U46 O47 2.454 . S
U46 O48 2.458 . S
U46 C49 2.984 . S
U46 C50 2.847 . S
U46 C63 2.882 . S
U46 O64 2.441 . S
U46 O65 2.420 . S
U46 O66 2.455 . S
U46 O67 2.449 . S
O47 U46 2.454 . S
O47 C49 1.353 . S
O48 U46 2.458 . S
O48 C49 1.286 . S
C49 U46 2.984 . S
C49 O47 1.353 . S
C49 O48 1.286 . S
C49 C51 1.363 . S
C50 C40 1.465 . S
C50 U46 2.847 . S
C50 O64 1.249 . S
C50 O65 1.202 . S
C51 C49 1.363 . S
C51 C53 1.408 . S
C51 C56 1.342 . S
C52 C53 1.310 . S
C52 C55 1.461 . S
C52 H72 0.932 . S
C53 C51 1.408 . S
C53 C52 1.310 . S
C53 H73 0.930 . S
C54 C55 1.474 . S
C54 C56 1.285 . S
C54 H74 0.929 . S
C55 C52 1.461 . S
C55 C54 1.474 . S
C56 C51 1.342 . S
C56 C54 1.285 . S
C56 H75 0.930 . S
C57 C60 1.424 . S
C57 C62 1.245 . S
C57 C63 1.428 . S
C58 C61 1.260 . S
C58 C62 1.477 . S
C58 H76 0.932 . S
C59 C60 1.384 . S
C59 C61 1.479 . S
C59 H77 0.929 . S
C60 C57 1.424 . S
C60 C59 1.384 . S
C60 H78 0.928 . S
C61 C58 1.260 . S
C61 C59 1.479 . S
C62 C57 1.245 . S
C62 C58 1.477 . S
C62 H79 0.932 . S
C63 U46 2.882 . S
C63 C57 1.428 . S
C63 O66 1.301 . S
C63 O67 1.282 . S
O64 U46 2.441 . S
O64 C50 1.249 . S
O65 U46 2.420 . S
O65 C50 1.202 . S
O66 U46 2.455 . S
O66 C63 1.301 . S
O67 U46 2.449 . S
O67 C63 1.282 . S
H68 C41 0.931 . S
H69 C43 0.929 . S
H70 C44 0.930 . S
H71 C45 0.931 . S
H72 C52 0.932 . S
H73 C53 0.930 . S
H74 C54 0.929 . S
H75 C56 0.930 . S
H76 C58 0.932 . S
H77 C59 0.929 . S
H78 C60 0.928 . S
H79 C62 0.932 . S
C80 C81 1.264 . S
C80 C85 1.479 . S
C80 C90 1.465 . S
C81 C80 1.264 . S
C81 C83 1.339 . S
C81 H108 0.931 . S
C82 C83 1.395 . S
C82 C84 1.320 . S
C83 C81 1.339 . S
C83 C82 1.395 . S
C83 H109 0.929 . S
C84 C82 1.320 . S
C84 C85 1.405 . S
C84 H110 0.930 . S
C85 C80 1.479 . S
C85 C84 1.405 . S
C85 H111 0.931 . S
U86 O87 2.454 . S
U86 O88 2.458 . S
U86 C89 2.984 . S
U86 C90 2.847 . S
U86 C103 2.882 . S
U86 O104 2.441 . S
U86 O105 2.420 . S
U86 O106 2.455 . S
U86 O107 2.449 . S
O87 U86 2.454 . S
O87 C89 1.353 . S
O88 U86 2.458 . S
O88 C89 1.286 . S
C89 U86 2.984 . S
C89 O87 1.353 . S
C89 O88 1.286 . S
C89 C91 1.363 . S
C90 C80 1.465 . S
C90 U86 2.847 . S
C90 O104 1.249 . S
C90 O105 1.202 . S
C91 C89 1.363 . S
C91 C93 1.408 . S
C91 C96 1.342 . S
C92 C93 1.310 . S
C92 C95 1.461 . S
C92 H112 0.932 . S
C93 C91 1.408 . S
C93 C92 1.310 . S
C93 H113 0.930 . S
C94 C95 1.474 . S
C94 C96 1.285 . S
C94 H114 0.929 . S
C95 C92 1.461 . S
C95 C94 1.474 . S
C96 C91 1.342 . S
C96 C94 1.285 . S
C96 H115 0.930 . S
C97 C100 1.424 . S
C97 C102 1.245 . S
C97 C103 1.428 . S
C98 C101 1.260 . S
C98 C102 1.477 . S
C98 H116 0.932 . S
C99 C100 1.384 . S
C99 C101 1.479 . S
C99 H117 0.929 . S
C100 C97 1.424 . S
C100 C99 1.384 . S
C100 H118 0.928 . S
C101 C98 1.260 . S
C101 C99 1.479 . S
C102 C97 1.245 . S
C102 C98 1.477 . S
C102 H119 0.932 . S
C103 U86 2.882 . S
C103 C97 1.428 . S
C103 O106 1.301 . S
C103 O107 1.282 . S
O104 U86 2.441 . S
O104 C90 1.249 . S
O105 U86 2.420 . S
O105 C90 1.202 . S
O106 U86 2.455 . S
O106 C103 1.301 . S
O107 U86 2.449 . S
O107 C103 1.282 . S
H108 C81 0.931 . S
H109 C83 0.929 . S
H110 C84 0.930 . S
H111 C85 0.931 . S
H112 C92 0.932 . S
H113 C93 0.930 . S
H114 C94 0.929 . S
H115 C96 0.930 . S
H116 C98 0.932 . S
H117 C99 0.929 . S
H118 C100 0.928 . S
H119 C102 0.932 . S
C120 C121 1.264 . S
C120 C125 1.479 . S
C120 C130 1.465 . S
C121 C120 1.264 . S
C121 C123 1.339 . S
C121 H148 0.931 . S
C122 C123 1.395 . S
C122 C124 1.320 . S
C123 C121 1.339 . S
C123 C122 1.395 . S
C123 H149 0.929 . S
C124 C122 1.320 . S
C124 C125 1.405 . S
C124 H150 0.930 . S
C125 C120 1.479 . S
C125 C124 1.405 . S
C125 H151 0.931 . S
U126 O127 2.454 . S
U126 O128 2.458 . S
U126 C129 2.984 . S
U126 C130 2.847 . S
U126 C143 2.882 . S
U126 O144 2.441 . S
U126 O145 2.420 . S
U126 O146 2.455 . S
U126 O147 2.449 . S
O127 U126 2.454 . S
O127 C129 1.353 . S
O128 U126 2.458 . S
O128 C129 1.286 . S
C129 U126 2.984 . S
C129 O127 1.353 . S
C129 O128 1.286 . S
C129 C131 1.363 . S
C130 C120 1.465 . S
C130 U126 2.847 . S
C130 O144 1.249 . S
C130 O145 1.202 . S
C131 C129 1.363 . S
C131 C133 1.408 . S
C131 C136 1.342 . S
C132 C133 1.310 . S
C132 C135 1.461 . S
C132 H152 0.932 . S
C133 C131 1.408 . S
C133 C132 1.310 . S
C133 H153 0.930 . S
C134 C135 1.474 . S
C134 C136 1.285 . S
C134 H154 0.929 . S
C135 C132 1.461 . S
C135 C134 1.474 . S
C136 C131 1.342 . S
C136 C134 1.285 . S
C136 H155 0.930 . S
C137 C140 1.424 . S
C137 C142 1.245 . S
C137 C143 1.428 . S
C138 C141 1.260 . S
C138 C142 1.477 . S
C138 H156 0.932 . S
C139 C140 1.384 . S
C139 C141 1.479 . S
C139 H157 0.929 . S
C140 C137 1.424 . S
C140 C139 1.384 . S
C140 H158 0.928 . S
C141 C138 1.260 . S
C141 C139 1.479 . S
C142 C137 1.245 . S
C142 C138 1.477 . S
C142 H159 0.932 . S
C143 U126 2.882 . S
C143 C137 1.428 . S
C143 O146 1.301 . S
C143 O147 1.282 . S
O144 U126 2.441 . S
O144 C130 1.249 . S
O145 U126 2.420 . S
O145 C130 1.202 . S
O146 U126 2.455 . S
O146 C143 1.301 . S
O147 U126 2.449 . S
O147 C143 1.282 . S
H148 C121 0.931 . S
H149 C123 0.929 . S
H150 C124 0.930 . S
H151 C125 0.931 . S
H152 C132 0.932 . S
H153 C133 0.930 . S
H154 C134 0.929 . S
H155 C136 0.930 . S
H156 C138 0.932 . S
H157 C139 0.929 . S
H158 C140 0.928 . S
H159 C142 0.932 . S
C160 C161 1.264 . S
C160 C165 1.479 . S
C160 C170 1.465 . S
C161 C160 1.264 . S
C161 C163 1.339 . S
C161 H188 0.931 . S
C162 C163 1.395 . S
C162 C164 1.320 . S
C163 C161 1.339 . S
C163 C162 1.395 . S
C163 H189 0.929 . S
C164 C162 1.320 . S
C164 C165 1.405 . S
C164 H190 0.930 1_556 S
C165 C160 1.479 . S
C165 C164 1.405 . S
C165 H191 0.931 . S
U166 O167 2.454 . S
U166 O168 2.458 . S
U166 C169 2.984 . S
U166 C170 2.847 . S
U166 C183 2.882 . S
U166 O184 2.441 . S
U166 O185 2.420 . S
U166 O186 2.455 . S
U166 O187 2.449 . S
O167 U166 2.454 . S
O167 C169 1.353 . S
O168 U166 2.458 . S
O168 C169 1.286 . S
C169 U166 2.984 . S
C169 O167 1.353 . S
C169 O168 1.286 . S
C169 C171 1.363 . S
C170 C160 1.465 . S
C170 U166 2.847 . S
C170 O184 1.249 . S
C170 O185 1.202 . S
C171 C169 1.363 . S
C171 C173 1.408 . S
C171 C176 1.342 . S
C172 C173 1.310 . S
C172 C175 1.461 . S
C172 H192 0.932 1_556 S
C173 C171 1.408 . S
C173 C172 1.310 . S
C173 H193 0.930 . S
C174 C175 1.474 1_545 S
C174 C176 1.285 1_545 S
C174 H194 0.929 . S
C175 C172 1.461 . S
C175 C174 1.474 1_565 S
C176 C171 1.342 . S
C176 C174 1.285 1_565 S
C176 H195 0.925 1_565 S
C177 C180 1.424 . S
C177 C182 1.245 . S
C177 C183 1.428 . S
C178 C181 1.260 . S
C178 C182 1.477 . S
C178 H196 0.932 1_565 S
C179 C180 1.384 . S
C179 C181 1.479 . S
C179 H197 0.929 . S
C180 C177 1.424 . S
C180 C179 1.384 . S
C180 H198 0.928 . S
C181 C178 1.260 . S
C181 C179 1.479 . S
C182 C177 1.245 . S
C182 C178 1.477 . S
C182 H199 0.932 . S
C183 U166 2.882 . S
C183 C177 1.428 . S
C183 O186 1.301 . S
C183 O187 1.282 . S
O184 U166 2.441 . S
O184 C170 1.249 . S
O185 U166 2.420 . S
O185 C170 1.202 . S
O186 U166 2.455 . S
O186 C183 1.301 . S
O187 U166 2.449 . S
O187 C183 1.282 . S
H188 C161 0.931 . S
H189 C163 0.929 . S
H190 C164 0.930 1_554 S
H191 C165 0.931 . S
H192 C172 0.932 1_554 S
H193 C173 0.930 . S
H194 C174 0.929 . S
H195 C176 0.925 1_545 S
H196 C178 0.932 1_545 S
H197 C179 0.929 . S
H198 C180 0.928 . S
H199 C182 0.932 . S
C200 C201 1.264 . S
C200 C205 1.479 . S
C200 C210 1.465 . S
C201 C200 1.264 . S
C201 C203 1.339 . S
C201 H228 0.931 . S
C202 C203 1.395 . S
C202 C204 1.320 . S
C203 C201 1.339 . S
C203 C202 1.395 . S
C203 H229 0.929 . S
C204 C202 1.320 . S
C204 C205 1.405 . S
C204 H230 0.930 . S
C205 C200 1.479 . S
C205 C204 1.405 . S
C205 H231 0.931 . S
U206 O207 2.454 . S
U206 O208 2.458 . S
U206 C209 2.984 . S
U206 C210 2.847 . S
U206 C223 2.882 . S
U206 O224 2.441 . S
U206 O225 2.420 . S
U206 O226 2.455 . S
U206 O227 2.449 . S
O207 U206 2.454 . S
O207 C209 1.353 . S
O208 U206 2.458 . S
O208 C209 1.286 . S
C209 U206 2.984 . S
C209 O207 1.353 . S
C209 O208 1.286 . S
C209 C211 1.363 . S
C210 C200 1.465 . S
C210 U206 2.847 . S
C210 O224 1.249 . S
C210 O225 1.202 . S
C211 C209 1.363 . S
C211 C213 1.408 . S
C211 C216 1.342 . S
C212 C213 1.310 . S
C212 C215 1.461 . S
C212 H232 0.932 . S
C213 C211 1.408 . S
C213 C212 1.310 . S
C213 H233 0.930 . S
C214 C215 1.474 . S
C214 C216 1.285 . S
C214 H234 0.929 . S
C215 C212 1.461 . S
C215 C214 1.474 . S
C216 C211 1.342 . S
C216 C214 1.285 . S
C216 H235 0.930 . S
C217 C220 1.424 . S
C217 C222 1.245 . S
C217 C223 1.428 . S
C218 C221 1.260 . S
C218 C222 1.477 . S
C218 H236 0.932 . S
C219 C220 1.384 . S
C219 C221 1.479 . S
C219 H237 0.929 . S
C220 C217 1.424 . S
C220 C219 1.384 . S
C220 H238 0.928 . S
C221 C218 1.260 . S
C221 C219 1.479 . S
C222 C217 1.245 . S
C222 C218 1.477 . S
C222 H239 0.932 . S
C223 U206 2.882 . S
C223 C217 1.428 . S
C223 O226 1.301 . S
C223 O227 1.282 . S
O224 U206 2.441 . S
O224 C210 1.249 . S
O225 U206 2.420 . S
O225 C210 1.202 . S
O226 U206 2.455 . S
O226 C223 1.301 . S
O227 U206 2.449 . S
O227 C223 1.282 . S
H228 C201 0.931 . S
H229 C203 0.929 . S
H230 C204 0.930 . S
H231 C205 0.931 . S
H232 C212 0.932 . S
H233 C213 0.930 . S
H234 C214 0.929 . S
H235 C216 0.930 . S
H236 C218 0.932 . S
H237 C219 0.929 . S
H238 C220 0.928 . S
H239 C222 0.932 . S
C240 C241 1.264 . S
C240 C245 1.479 . S
C240 C250 1.465 . S
C241 C240 1.264 . S
C241 C243 1.339 . S
C241 H268 0.931 . S
C242 C243 1.395 . S
C242 C244 1.320 . S
C243 C241 1.339 . S
C243 C242 1.395 . S
C243 H269 0.929 . S
C244 C242 1.320 . S
C244 C245 1.405 . S
C244 H270 0.930 . S
C245 C240 1.479 . S
C245 C244 1.405 . S
C245 H271 0.931 . S
U246 O247 2.454 . S
U246 O248 2.458 . S
U246 C249 2.984 . S
U246 C250 2.847 . S
U246 C263 2.882 . S
U246 O264 2.441 . S
U246 O265 2.420 . S
U246 O266 2.455 . S
U246 O267 2.449 . S
O247 U246 2.454 . S
O247 C249 1.353 . S
O248 U246 2.458 . S
O248 C249 1.286 . S
C249 U246 2.984 . S
C249 O247 1.353 . S
C249 O248 1.286 . S
C249 C251 1.363 . S
C250 C240 1.465 . S
C250 U246 2.847 . S
C250 O264 1.249 . S
C250 O265 1.202 . S
C251 C249 1.363 . S
C251 C253 1.408 . S
C251 C256 1.342 . S
C252 C253 1.310 . S
C252 C255 1.461 . S
C252 H272 0.932 . S
C253 C251 1.408 . S
C253 C252 1.310 . S
C253 H273 0.930 . S
C254 C255 1.474 . S
C254 C256 1.285 . S
C254 H274 0.929 . S
C255 C252 1.461 . S
C255 C254 1.474 . S
C256 C251 1.342 . S
C256 C254 1.285 . S
C256 H275 0.930 . S
C257 C260 1.424 . S
C257 C262 1.245 . S
C257 C263 1.428 . S
C258 C261 1.260 . S
C258 C262 1.477 . S
C258 H276 0.932 . S
C259 C260 1.384 . S
C259 C261 1.479 . S
C259 H277 0.929 . S
C260 C257 1.424 . S
C260 C259 1.384 . S
C260 H278 0.928 . S
C261 C258 1.260 . S
C261 C259 1.479 . S
C262 C257 1.245 . S
C262 C258 1.477 . S
C262 H279 0.932 . S
C263 U246 2.882 . S
C263 C257 1.428 . S
C263 O266 1.301 . S
C263 O267 1.282 . S
O264 U246 2.441 . S
O264 C250 1.249 . S
O265 U246 2.420 . S
O265 C250 1.202 . S
O266 U246 2.455 . S
O266 C263 1.301 . S
O267 U246 2.449 . S
O267 C263 1.282 . S
H268 C241 0.931 . S
H269 C243 0.929 . S
H270 C244 0.930 . S
H271 C245 0.931 . S
H272 C252 0.932 . S
H273 C253 0.930 . S
H274 C254 0.929 . S
H275 C256 0.930 . S
H276 C258 0.932 . S
H277 C259 0.929 . S
H278 C260 0.928 . S
H279 C262 0.932 . S
C280 C281 1.264 . S
C280 C285 1.479 . S
C280 C290 1.465 . S
C281 C280 1.264 . S
C281 C283 1.339 . S
C281 H308 0.931 . S
C282 C283 1.395 . S
C282 C284 1.320 . S
C283 C281 1.339 . S
C283 C282 1.395 . S
C283 H309 0.929 . S
C284 C282 1.320 . S
C284 C285 1.405 . S
C284 H310 0.930 . S
C285 C280 1.479 . S
C285 C284 1.405 . S
C285 H311 0.931 . S
U286 O287 2.454 . S
U286 O288 2.458 . S
U286 C289 2.984 . S
U286 C290 2.847 . S
U286 C303 2.882 . S
U286 O304 2.441 . S
U286 O305 2.420 . S
U286 O306 2.455 . S
U286 O307 2.449 . S
O287 U286 2.454 . S
O287 C289 1.353 . S
O288 U286 2.458 . S
O288 C289 1.286 . S
C289 U286 2.984 . S
C289 O287 1.353 . S
C289 O288 1.286 . S
C289 C291 1.363 . S
C290 C280 1.465 . S
C290 U286 2.847 . S
C290 O304 1.249 . S
C290 O305 1.202 . S
C291 C289 1.363 . S
C291 C293 1.408 . S
C291 C296 1.342 . S
C292 C293 1.310 . S
C292 C295 1.461 . S
C292 H312 0.932 . S
C293 C291 1.408 . S
C293 C292 1.310 . S
C293 H313 0.930 . S
C294 C295 1.474 . S
C294 C296 1.285 . S
C294 H314 0.929 . S
C295 C292 1.461 . S
C295 C294 1.474 . S
C296 C291 1.342 . S
C296 C294 1.285 . S
C296 H315 0.930 . S
C297 C300 1.424 . S
C297 C302 1.245 . S
C297 C303 1.428 . S
C298 C301 1.260 . S
C298 C302 1.477 . S
C298 H316 0.932 . S
C299 C300 1.384 . S
C299 C301 1.479 . S
C299 H317 0.929 . S
C300 C297 1.424 . S
C300 C299 1.384 . S
C300 H318 0.928 . S
C301 C298 1.260 . S
C301 C299 1.479 . S
C302 C297 1.245 . S
C302 C298 1.477 . S
C302 H319 0.932 . S
C303 U286 2.882 . S
C303 C297 1.428 . S
C303 O306 1.301 . S
C303 O307 1.282 . S
O304 U286 2.441 . S
O304 C290 1.249 . S
O305 U286 2.420 . S
O305 C290 1.202 . S
O306 U286 2.455 . S
O306 C303 1.301 . S
O307 U286 2.449 . S
O307 C303 1.282 . S
H308 C281 0.931 . S
H309 C283 0.929 . S
H310 C284 0.930 . S
H311 C285 0.931 . S
H312 C292 0.932 . S
H313 C293 0.930 . S
H314 C294 0.929 . S
H315 C296 0.930 . S
H316 C298 0.932 . S
H317 C299 0.929 . S
H318 C300 0.928 . S
H319 C302 0.932 . S
O320 Zn321 1.966 . S
O320 C336 1.196 1_655 S
Zn321 O320 1.966 . S
Zn321 O322 1.949 1_655 S
Zn321 O328 1.919 . S
Zn321 O333 1.924 . S
O322 Zn321 1.949 1_455 S
O322 Zn323 1.923 1_445 S
O322 Zn324 1.950 . S
O322 Zn325 1.945 1_545 S
Zn323 O322 1.923 1_665 S
Zn323 O326 1.933 . S
Zn323 O329 1.941 1_565 S
Zn323 O330 1.965 1_665 S
Zn324 O322 1.950 . S
Zn324 O331 1.938 . S
Zn324 O332 1.906 . S
Zn324 O342 1.953 . S
Zn325 O322 1.945 1_565 S
Zn325 O327 1.932 1_455 S
Zn325 O334 1.977 . S
Zn325 O335 1.910 1_455 S
O326 Zn323 1.933 . S
O326 C337 1.226 . S
O327 Zn325 1.932 1_655 S
O327 C337 1.307 . S
O328 Zn321 1.919 . S
O328 C339 1.253 . S
O329 Zn323 1.941 1_545 S
O329 C339 1.283 . S
O330 Zn323 1.965 1_445 S
O330 C338 1.303 . S
O331 Zn324 1.938 . S
O331 C338 1.247 . S
O332 Zn324 1.906 . S
O332 C340 1.304 1_545 S
O333 Zn321 1.924 . S
O333 C341 1.311 . S
O334 Zn325 1.977 . S
O334 C340 1.272 . S
O335 Zn325 1.910 1_655 S
O335 C341 1.231 1_565 S
C336 O320 1.196 1_455 S
C336 O342 1.298 . S
C337 O326 1.226 . S
C337 O327 1.307 . S
C338 O330 1.303 . S
C338 O331 1.247 . S
C339 O328 1.253 . S
C339 O329 1.283 . S
C340 O332 1.304 1_565 S
C340 O334 1.272 . S
C341 O333 1.311 . S
C341 O335 1.231 1_545 S
O342 Zn324 1.953 . S
O342 C336 1.298 . S
O343 Zn344 1.953 . S
O343 C359 1.225 . S
Zn344 O343 1.953 . S
Zn344 O345 1.949 1_556 S
Zn344 O351 1.919 . S
Zn344 O356 1.924 1_556 S
O345 Zn344 1.949 1_554 S
O345 Zn346 1.923 1_545 S
O345 Zn347 1.950 . S
O345 Zn348 1.945 1_545 S
Zn346 O345 1.923 1_565 S
Zn346 O349 1.933 . S
Zn346 O352 1.941 1_554 S
Zn346 O353 1.966 . S
Zn347 O345 1.950 . S
Zn347 O354 1.938 . S
Zn347 O355 1.906 . S
Zn347 O365 1.953 . S
Zn348 O345 1.945 1_565 S
Zn348 O350 1.932 . S
Zn348 O357 1.977 1_565 S
Zn348 O358 1.910 1_565 S
O349 Zn346 1.933 . S
O349 C360 1.226 . S
O350 Zn348 1.932 . S
O350 C360 1.307 . S
O351 Zn344 1.919 . S
O351 C362 1.253 1_545 S
O352 Zn346 1.941 1_556 S
O352 C362 1.283 . S
O353 Zn346 1.966 . S
O353 C361 1.304 . S
O354 Zn347 1.938 . S
O354 C361 1.247 1_545 S
O355 Zn347 1.906 . S
O355 C363 1.304 . S
O356 Zn344 1.924 1_554 S
O356 C364 1.311 . S
O357 Zn348 1.977 1_545 S
O357 C363 1.272 . S
O358 Zn348 1.910 1_545 S
O358 C364 1.231 . S
C359 O343 1.225 . S
C359 O365 1.298 1_556 S
C360 O349 1.226 . S
C360 O350 1.307 . S
C361 O353 1.304 . S
C361 O354 1.247 1_565 S
C362 O351 1.253 1_565 S
C362 O352 1.283 . S
C363 O355 1.304 . S
C363 O357 1.272 . S
C364 O356 1.311 . S
C364 O358 1.231 . S
O365 Zn347 1.953 . S
O365 C359 1.298 1_554 S
O366 Zn367 1.953 . S
O366 C382 1.225 . S
Zn367 O366 1.953 . S
Zn367 O368 1.949 . S
Zn367 O374 1.919 . S
Zn367 O379 1.924 . S
O368 Zn367 1.949 . S
O368 Zn369 1.923 . S
O368 Zn370 1.950 . S
O368 Zn371 1.945 . S
Zn369 O368 1.923 . S
Zn369 O372 1.933 . S
Zn369 O375 1.941 . S
Zn369 O376 1.965 . S
Zn370 O368 1.950 . S
Zn370 O377 1.938 . S
Zn370 O378 1.906 . S
Zn370 O388 1.953 . S
Zn371 O368 1.945 . S
Zn371 O373 1.932 . S
Zn371 O380 1.977 . S
Zn371 O381 1.910 . S
O372 Zn369 1.933 . S
O372 C383 1.226 . S
O373 Zn371 1.932 . S
O373 C383 1.307 . S
O374 Zn367 1.919 . S
O374 C385 1.253 . S
O375 Zn369 1.941 . S
O375 C385 1.283 . S
O376 Zn369 1.965 . S
O376 C384 1.303 . S
O377 Zn370 1.938 . S
O377 C384 1.247 . S
O378 Zn370 1.906 . S
O378 C386 1.304 . S
O379 Zn367 1.924 . S
O379 C387 1.311 . S
O380 Zn371 1.977 . S
O380 C386 1.272 . S
O381 Zn371 1.910 . S
O381 C387 1.231 . S
C382 O366 1.225 . S
C382 O388 1.298 . S
C383 O372 1.226 . S
C383 O373 1.307 . S
C384 O376 1.303 . S
C384 O377 1.247 . S
C385 O374 1.253 . S
C385 O375 1.283 . S
C386 O378 1.304 . S
C386 O380 1.272 . S
C387 O379 1.311 . S
C387 O381 1.231 . S
O388 Zn370 1.953 . S
O388 C382 1.298 . S
O389 Zn390 1.953 . S
O389 C405 1.225 . S
Zn390 O389 1.953 . S
Zn390 O391 1.949 1_655 S
Zn390 O397 1.919 . S
Zn390 O402 1.924 . S
O391 Zn390 1.949 1_455 S
O391 Zn392 1.923 1_454 S
O391 Zn393 1.950 . S
O391 Zn394 1.945 1_554 S
Zn392 O391 1.923 1_656 S
Zn392 O395 1.933 1_655 S
Zn392 O398 1.941 . S
Zn392 O399 1.965 . S
Zn393 O391 1.950 . S
Zn393 O400 1.938 . S
Zn393 O401 1.906 . S
Zn393 O411 1.953 . S
Zn394 O391 1.945 1_556 S
Zn394 O396 1.932 . S
Zn394 O403 1.977 1_556 S
Zn394 O404 1.910 1_556 S
O395 Zn392 1.933 1_455 S
O395 C406 1.226 . S
O396 Zn394 1.932 . S
O396 C406 1.307 . S
O397 Zn390 1.919 . S
O397 C408 1.253 1_554 S
O398 Zn392 1.941 . S
O398 C408 1.283 . S
O399 Zn392 1.965 . S
O399 C407 1.303 . S
O400 Zn393 1.938 . S
O400 C407 1.247 1_454 S
O401 Zn393 1.906 . S
O401 C409 1.304 . S
O402 Zn390 1.924 . S
O402 C410 1.311 1_655 S
O403 Zn394 1.977 1_554 S
O403 C409 1.272 . S
O404 Zn394 1.910 1_554 S
O404 C410 1.231 . S
C405 O389 1.225 . S
C405 O411 1.298 1_655 S
C406 O395 1.226 . S
C406 O396 1.307 . S
C407 O399 1.303 . S
C407 O400 1.247 1_656 S
C408 O397 1.253 1_556 S
C408 O398 1.283 . S
C409 O401 1.304 . S
C409 O403 1.272 . S
C410 O402 1.311 1_455 S
C410 O404 1.231 . S
O411 Zn393 1.953 . S
O411 C405 1.298 1_455 S
H412 C418 0.930 . S
H413 C421 0.930 . S
H414 C422 0.930 . S
H415 C423 0.930 . S
H416 C426 0.930 . S
H417 C427 0.930 . S
C418 H412 0.930 . S
C418 C419 1.355 . S
C418 C420 1.415 . S
C419 C418 1.355 . S
C419 C421 1.419 . S
C420 C418 1.415 . S
C420 C425 1.425 . S
C420 C427 1.409 . S
C421 H413 0.930 . S
C421 C419 1.419 . S
C421 C422 1.362 . S
C422 H414 0.930 . S
C422 C421 1.362 . S
C422 C425 1.409 . S
C423 H415 0.930 . S
C423 C424 1.355 . S
C423 C425 1.415 . S
C424 C423 1.355 . S
C424 C426 1.419 . S
C425 C420 1.425 . S
C425 C422 1.409 . S
C425 C423 1.415 . S
C426 H416 0.930 . S
C426 C424 1.419 . S
C426 C427 1.362 . S
C427 H417 0.930 . S
C427 C420 1.409 . S
C427 C426 1.362 . S
H428 C434 0.930 . S
H429 C437 0.930 . S
H430 C438 0.894 1_545 S
H431 C439 0.941 . S
H432 C442 0.930 . S
H433 C443 0.930 . S
C434 H428 0.930 . S
C434 C435 1.355 . S
C434 C436 1.415 . S
C435 C434 1.355 . S
C435 C437 1.419 . S
C436 C434 1.415 . S
C436 C441 1.425 . S
C436 C443 1.409 . S
C437 H429 0.930 . S
C437 C435 1.419 . S
C437 C438 1.362 . S
C438 H430 0.894 1_565 S
C438 C437 1.362 . S
C438 C441 1.409 . S
C439 H431 0.941 . S
C439 C440 1.355 . S
C439 C441 1.415 . S
C440 C439 1.355 . S
C440 C442 1.419 . S
C441 C436 1.425 . S
C441 C438 1.409 . S
C441 C439 1.415 . S
C442 H432 0.930 . S
C442 C440 1.419 . S
C442 C443 1.362 . S
C443 H433 0.930 . S
C443 C436 1.409 . S
C443 C442 1.362 . S
H444 C450 0.930 . S
H445 C453 0.930 . S
H446 C454 0.930 . S
H447 C455 0.930 . S
H448 C458 0.930 . S
H449 C459 0.930 . S
C450 H444 0.930 . S
C450 C451 1.355 . S
C450 C452 1.415 . S
C451 C450 1.355 . S
C451 C453 1.419 . S
C452 C450 1.415 . S
C452 C457 1.425 . S
C452 C459 1.409 . S
C453 H445 0.930 . S
C453 C451 1.419 . S
C453 C454 1.362 . S
C454 H446 0.930 . S
C454 C453 1.362 . S
C454 C457 1.409 . S
C455 H447 0.930 . S
C455 C456 1.355 . S
C455 C457 1.415 . S
C456 C455 1.355 . S
C456 C458 1.419 . S
C457 C452 1.425 . S
C457 C454 1.409 . S
C457 C455 1.415 . S
C458 H448 0.930 . S
C458 C456 1.419 . S
C458 C459 1.362 . S
C459 H449 0.930 . S
C459 C452 1.409 . S
C459 C458 1.362 . S
H460 C466 0.930 1_455 S
H461 C469 0.930 . S
H462 C470 0.930 . S
H463 C471 0.930 . S
H464 C474 0.930 . S
H465 C475 0.930 . S
C466 H460 0.930 1_655 S
C466 C467 1.355 . S
C466 C468 1.415 . S
C467 C466 1.355 . S
C467 C469 1.419 . S
C468 C466 1.415 . S
C468 C473 1.425 . S
C468 C475 1.409 1_655 S
C469 H461 0.930 . S
C469 C467 1.419 . S
C469 C470 1.362 . S
C470 H462 0.930 . S
C470 C469 1.362 . S
C470 C473 1.409 . S
C471 H463 0.930 . S
C471 C472 1.355 . S
C471 C473 1.415 . S
C472 C471 1.355 . S
C472 C474 1.419 1_655 S
C473 C468 1.425 . S
C473 C470 1.409 . S
C473 C471 1.415 . S
C474 H464 0.930 . S
C474 C472 1.419 1_455 S
C474 C475 1.362 . S
C475 H465 0.930 . S
C475 C468 1.409 1_455 S
C475 C474 1.362 . S
H476 C482 0.930 . S
H477 C485 0.930 . S
H478 C486 0.930 . S
H479 C487 0.930 . S
H480 C490 0.930 . S
H481 C491 0.930 . S
C482 H476 0.930 . S
C482 C483 1.355 . S
C482 C484 1.415 . S
C483 C482 1.355 . S
C483 C485 1.419 . S
C484 C482 1.415 . S
C484 C489 1.425 . S
C484 C491 1.409 . S
C485 H477 0.930 . S
C485 C483 1.419 . S
C485 C486 1.362 . S
C486 H478 0.930 . S
C486 C485 1.362 . S
C486 C489 1.409 . S
C487 H479 0.930 . S
C487 C488 1.355 . S
C487 C489 1.415 . S
C488 C487 1.355 . S
C488 C490 1.419 . S
C489 C484 1.425 . S
C489 C486 1.409 . S
C489 C487 1.415 . S
C490 H480 0.930 . S
C490 C488 1.419 . S
C490 C491 1.362 . S
C491 H481 0.930 . S
C491 C484 1.409 . S
C491 C490 1.362 . S
H492 C498 0.930 . S
H493 C501 0.930 . S
H494 C502 0.930 . S
H495 C503 0.930 . S
H496 C506 0.930 . S
H497 C507 0.930 . S
C498 H492 0.930 . S
C498 C499 1.355 . S
C498 C500 1.415 . S
C499 C498 1.355 . S
C499 C501 1.419 . S
C500 C498 1.415 . S
C500 C505 1.425 . S
C500 C507 1.409 . S
C501 H493 0.930 . S
C501 C499 1.419 . S
C501 C502 1.362 . S
C502 H494 0.930 . S
C502 C501 1.362 . S
C502 C505 1.409 . S
C503 H495 0.930 . S
C503 C504 1.355 . S
C503 C505 1.415 . S
C504 C503 1.355 . S
C504 C506 1.419 . S
C505 C500 1.425 . S
C505 C502 1.409 . S
C505 C503 1.415 . S
C506 H496 0.930 . S
C506 C504 1.419 . S
C506 C507 1.362 . S
C507 H497 0.930 . S
C507 C500 1.409 . S
C507 C506 1.362 . S
H508 C514 0.930 . S
H509 C517 0.913 1_554 S
H510 C518 0.930 1_554 S
H511 C519 0.930 1_554 S
H512 C522 0.930 . S
H513 C523 0.930 . S
C514 H508 0.930 . S
C514 C515 1.355 . S
C514 C516 1.415 . S
C515 C514 1.355 . S
C515 C517 1.419 . S
C516 C514 1.415 . S
C516 C521 1.425 . S
C516 C523 1.409 . S
C517 H509 0.913 1_556 S
C517 C515 1.419 . S
C517 C518 1.362 . S
C518 H510 0.930 1_556 S
C518 C517 1.362 . S
C518 C521 1.409 . S
C519 H511 0.930 1_556 S
C519 C520 1.355 . S
C519 C521 1.415 . S
C520 C519 1.355 . S
C520 C522 1.419 . S
C521 C516 1.425 . S
C521 C518 1.409 . S
C521 C519 1.415 . S
C522 H512 0.930 . S
C522 C520 1.419 . S
C522 C523 1.362 . S
C523 H513 0.930 . S
C523 C516 1.409 . S
C523 C522 1.362 . S
H524 C530 0.930 . S
H525 C533 0.930 . S
H526 C534 0.930 . S
H527 C535 0.930 . S
H528 C538 0.930 . S
H529 C539 0.930 . S
C530 H524 0.930 . S
C530 C531 1.355 . S
C530 C532 1.415 . S
C531 C530 1.355 . S
C531 C533 1.419 . S
C532 C530 1.415 . S
C532 C537 1.425 . S
C532 C539 1.409 . S
C533 H525 0.930 . S
C533 C531 1.419 . S
C533 C534 1.362 . S
C534 H526 0.930 . S
C534 C533 1.362 . S
C534 C537 1.409 . S
C535 H527 0.930 . S
C535 C536 1.355 . S
C535 C537 1.415 . S
C536 C535 1.355 . S
C536 C538 1.419 . S
C537 C532 1.425 . S
C537 C534 1.409 . S
C537 C535 1.415 . S
C538 H528 0.930 . S
C538 C536 1.419 . S
C538 C539 1.362 . S
C539 H529 0.930 . S
C539 C532 1.409 . S
C539 C538 1.362 . S
H540 C546 0.930 . S
H541 C549 0.930 . S
H542 C550 0.930 . S
H543 C551 0.930 . S
H544 C554 0.930 1_655 S
H545 C555 0.930 . S
C546 H540 0.930 . S
C546 C547 1.355 . S
C546 C548 1.415 . S
C547 C546 1.355 . S
C547 C549 1.419 . S
C548 C546 1.415 . S
C548 C553 1.425 . S
C548 C555 1.409 . S
C549 H541 0.930 . S
C549 C547 1.419 . S
C549 C550 1.362 . S
C550 H542 0.930 . S
C550 C549 1.362 . S
C550 C553 1.409 . S
C551 H543 0.930 . S
C551 C552 1.355 . S
C551 C553 1.415 . S
C552 C551 1.355 . S
C552 C554 1.419 . S
C553 C548 1.425 . S
C553 C550 1.409 . S
C553 C551 1.415 . S
C554 H544 0.930 1_455 S
C554 C552 1.419 . S
C554 C555 1.362 . S
C555 H545 0.930 . S
C555 C548 1.409 . S
C555 C554 1.362 . S
H556 C562 0.930 . S
H557 C565 0.930 . S
H558 C566 0.930 . S
H559 C567 0.930 . S
H560 C570 0.930 . S
H561 C571 0.930 . S
C562 H556 0.930 . S
C562 C563 1.355 . S
C562 C564 1.415 . S
C563 C562 1.355 . S
C563 C565 1.419 . S
C564 C562 1.415 . S
C564 C569 1.425 . S
C564 C571 1.409 . S
C565 H557 0.930 . S
C565 C563 1.419 . S
C565 C566 1.362 . S
C566 H558 0.930 . S
C566 C565 1.362 . S
C566 C569 1.409 . S
C567 H559 0.930 . S
C567 C568 1.355 . S
C567 C569 1.415 . S
C568 C567 1.355 . S
C568 C570 1.419 . S
C569 C564 1.425 . S
C569 C566 1.409 . S
C569 C567 1.415 . S
C570 H560 0.930 . S
C570 C568 1.419 . S
C570 C571 1.362 . S
C571 H561 0.930 . S
C571 C564 1.409 . S
C571 C570 1.362 . S
H572 C578 0.930 . S
H573 C581 0.930 . S
H574 C582 0.930 . S
H575 C583 0.930 . S
H576 C586 0.930 . S
H577 C587 0.930 . S
C578 H572 0.930 . S
C578 C579 1.355 . S
C578 C580 1.415 . S
C579 C578 1.355 . S
C579 C581 1.419 . S
C580 C578 1.415 . S
C580 C585 1.425 . S
C580 C587 1.409 1_655 S
C581 H573 0.930 . S
C581 C579 1.419 . S
C581 C582 1.362 . S
C582 H574 0.930 . S
C582 C581 1.362 . S
C582 C585 1.409 . S
C583 H575 0.930 . S
C583 C584 1.355 . S
C583 C585 1.415 . S
C584 C583 1.355 . S
C584 C586 1.419 1_655 S
C585 C580 1.425 . S
C585 C582 1.409 . S
C585 C583 1.415 . S
C586 H576 0.930 . S
C586 C584 1.419 1_455 S
C586 C587 1.362 . S
C587 H577 0.930 . S
C587 C580 1.409 1_455 S
C587 C586 1.362 . S
H588 C594 0.930 . S
H589 C597 0.930 . S
H590 C598 0.930 . S
H591 C599 0.930 . S
H592 C602 0.930 . S
H593 C603 0.930 . S
C594 H588 0.930 . S
C594 C595 1.355 . S
C594 C596 1.415 . S
C595 C594 1.355 . S
C595 C597 1.419 . S
C596 C594 1.415 . S
C596 C601 1.425 . S
C596 C603 1.409 . S
C597 H589 0.930 . S
C597 C595 1.419 . S
C597 C598 1.362 . S
C598 H590 0.930 . S
C598 C597 1.362 . S
C598 C601 1.409 . S
C599 H591 0.930 . S
C599 C600 1.355 . S
C599 C601 1.415 . S
C600 C599 1.355 . S
C600 C602 1.419 . S
C601 C596 1.425 . S
C601 C598 1.409 . S
C601 C599 1.415 . S
C602 H592 0.930 . S
C602 C600 1.419 . S
C602 C603 1.362 . S
C603 H593 0.930 . S
C603 C596 1.409 . S
C603 C602 1.362 . S
H604 C610 0.930 . S
H605 C613 0.930 . S
H606 C614 0.930 . S
H607 C615 0.930 . S
H608 C618 0.930 . S
H609 C619 0.930 . S
C610 H604 0.930 . S
C610 C611 1.355 1_565 S
C610 C612 1.415 . S
C611 C610 1.355 1_545 S
C611 C613 1.419 . S
C612 C610 1.415 . S
C612 C617 1.425 1_565 S
C612 C619 1.409 . S
C613 H605 0.930 . S
C613 C611 1.419 . S
C613 C614 1.362 . S
C614 H606 0.930 . S
C614 C613 1.362 . S
C614 C617 1.409 . S
C615 H607 0.930 . S
C615 C616 1.371 . S
C615 C617 1.415 . S
C616 C615 1.371 . S
C616 C618 1.399 1_545 S
C617 C612 1.425 1_545 S
C617 C614 1.409 . S
C617 C615 1.415 . S
C618 H608 0.930 . S
C618 C616 1.399 1_565 S
C618 C619 1.362 . S
C619 H609 0.930 . S
C619 C612 1.409 . S
C619 C618 1.362 . S
H620 C626 0.930 . S
H621 C629 0.930 . S
H622 C630 0.930 . S
H623 C631 0.930 . S
H624 C634 0.930 . S
H625 C635 0.930 . S
C626 H620 0.930 . S
C626 C627 1.355 . S
C626 C628 1.415 . S
C627 C626 1.355 . S
C627 C629 1.419 . S
C628 C626 1.415 . S
C628 C633 1.425 . S
C628 C635 1.409 . S
C629 H621 0.930 . S
C629 C627 1.419 . S
C629 C630 1.362 . S
C630 H622 0.930 . S
C630 C629 1.362 . S
C630 C633 1.409 . S
C631 H623 0.930 . S
C631 C632 1.355 . S
C631 C633 1.415 . S
C632 C631 1.355 . S
C632 C634 1.419 . S
C633 C628 1.425 . S
C633 C630 1.409 . S
C633 C631 1.415 . S
C634 H624 0.930 . S
C634 C632 1.419 . S
C634 C635 1.362 . S
C635 H625 0.930 . S
C635 C628 1.409 . S
C635 C634 1.362 . S
H636 C642 0.930 . S
H637 C645 0.930 . S
H638 C646 0.930 . S
H639 C647 0.930 . S
H640 C650 0.930 . S
H641 C651 0.930 . S
C642 H636 0.930 . S
C642 C643 1.355 . S
C642 C644 1.415 . S
C643 C642 1.355 . S
C643 C645 1.419 . S
C644 C642 1.415 . S
C644 C649 1.425 . S
C644 C651 1.409 . S
C645 H637 0.930 . S
C645 C643 1.419 . S
C645 C646 1.362 . S
C646 H638 0.930 . S
C646 C645 1.362 . S
C646 C649 1.409 . S
C647 H639 0.930 . S
C647 C648 1.355 . S
C647 C649 1.415 . S
C648 C647 1.355 . S
C648 C650 1.419 . S
C649 C644 1.425 . S
C649 C646 1.409 . S
C649 C647 1.415 . S
C650 H640 0.930 . S
C650 C648 1.419 . S
C650 C651 1.362 . S
C651 H641 0.930 . S
C651 C644 1.409 . S
C651 C650 1.362 . S
H652 C658 0.930 . S
H653 C661 0.930 . S
H654 C662 0.930 . S
H655 C663 0.930 . S
H656 C666 0.930 . S
H657 C667 0.930 . S
C658 H652 0.930 . S
C658 C659 1.355 . S
C658 C660 1.415 . S
C659 C658 1.355 . S
C659 C661 1.419 . S
C660 C658 1.415 . S
C660 C665 1.425 . S
C660 C667 1.409 . S
C661 H653 0.930 . S
C661 C659 1.419 . S
C661 C662 1.362 . S
C662 H654 0.930 . S
C662 C661 1.362 . S
C662 C665 1.409 . S
C663 H655 0.930 . S
C663 C664 1.355 . S
C663 C665 1.415 . S
C664 C663 1.355 . S
C664 C666 1.419 . S
C665 C660 1.425 . S
C665 C662 1.409 . S
C665 C663 1.415 . S
C666 H656 0.930 . S
C666 C664 1.419 . S
C666 C667 1.362 . S
C667 H657 0.930 . S
C667 C660 1.409 . S
C667 C666 1.362 . S
H668 C674 0.930 . S
H669 C677 0.930 . S
H670 C678 0.930 . S
H671 C679 0.930 . S
H672 C682 0.930 . S
H673 C683 0.930 . S
C674 H668 0.930 . S
C674 C675 1.349 1_545 S
C674 C676 1.415 . S
C675 C674 1.349 1_565 S
C675 C677 1.426 1_556 S
C676 C674 1.415 . S
C676 C681 1.425 1_545 S
C676 C683 1.409 . S
C677 H669 0.930 . S
C677 C675 1.426 1_554 S
C677 C678 1.362 . S
C678 H670 0.930 . S
C678 C677 1.362 . S
C678 C681 1.409 1_554 S
C679 H671 0.930 . S
C679 C680 1.355 1_554 S
C679 C681 1.415 1_554 S
C680 C679 1.355 1_556 S
C680 C682 1.419 1_565 S
C681 C676 1.425 1_565 S
C681 C678 1.409 1_556 S
C681 C679 1.415 1_556 S
C682 H672 0.930 . S
C682 C680 1.419 1_545 S
C682 C683 1.362 . S
C683 H673 0.930 . S
C683 C676 1.409 . S
C683 C682 1.362 . S
H684 C690 0.930 . S
H685 C693 0.930 . S
H686 C694 0.930 . S
H687 C695 0.930 1_565 S
H688 C698 0.930 . S
H689 C699 0.930 . S
C690 H684 0.930 . S
C690 C691 1.355 . S
C690 C692 1.415 . S
C691 C690 1.355 . S
C691 C693 1.419 1_545 S
C692 C690 1.415 . S
C692 C697 1.425 . S
C692 C699 1.409 . S
C693 H685 0.930 . S
C693 C691 1.419 1_565 S
C693 C694 1.362 . S
C694 H686 0.930 . S
C694 C693 1.362 . S
C694 C697 1.409 1_565 S
C695 H687 0.930 1_545 S
C695 C696 1.355 . S
C695 C697 1.415 . S
C696 C695 1.355 . S
C696 C698 1.419 . S
C697 C692 1.425 . S
C697 C694 1.409 1_545 S
C697 C695 1.415 . S
C698 H688 0.930 . S
C698 C696 1.419 . S
C698 C699 1.362 . S
C699 H689 0.930 . S
C699 C692 1.409 . S
C699 C698 1.362 . S
H700 C706 0.930 . S
H701 C709 0.930 1_556 S
H702 C710 0.930 . S
H703 C711 0.921 1_556 S
H704 C714 0.930 . S
H705 C715 0.930 . S
C706 H700 0.930 . S
C706 C707 1.355 . S
C706 C708 1.415 . S
C707 C706 1.355 . S
C707 C709 1.419 . S
C708 C706 1.415 . S
C708 C713 1.425 . S
C708 C715 1.409 . S
C709 H701 0.930 1_554 S
C709 C707 1.419 . S
C709 C710 1.362 1_554 S
C710 H702 0.930 . S
C710 C709 1.362 1_556 S
C710 C713 1.409 1_556 S
C711 H703 0.921 1_554 S
C711 C712 1.360 . S
C711 C713 1.418 . S
C712 C711 1.360 . S
C712 C714 1.419 . S
C713 C708 1.425 . S
C713 C710 1.409 1_554 S
C713 C711 1.418 . S
C714 H704 0.930 . S
C714 C712 1.419 . S
C714 C715 1.362 . S
C715 H705 0.930 . S
C715 C708 1.409 . S
C715 C714 1.362 . S
H716 C722 0.930 . S
H717 C725 0.930 . S
H718 C726 0.930 . S
H719 C727 0.930 . S
H720 C730 0.930 . S
H721 C731 0.930 . S
C722 H716 0.930 . S
C722 C723 1.355 . S
C722 C724 1.415 . S
C723 C722 1.355 . S
C723 C725 1.419 . S
C724 C722 1.415 . S
C724 C729 1.425 . S
C724 C731 1.409 . S
C725 H717 0.930 . S
C725 C723 1.419 . S
C725 C726 1.362 . S
C726 H718 0.930 . S
C726 C725 1.362 . S
C726 C729 1.409 . S
C727 H719 0.930 . S
C727 C728 1.355 . S
C727 C729 1.415 . S
C728 C727 1.355 . S
C728 C730 1.419 . S
C729 C724 1.425 . S
C729 C726 1.409 . S
C729 C727 1.415 . S
C730 H720 0.930 . S
C730 C728 1.419 . S
C730 C731 1.362 . S
C731 H721 0.930 . S
C731 C724 1.409 . S
C731 C730 1.362 . S
H732 C738 0.930 . S
H733 C741 0.930 . S
H734 C742 0.930 . S
H735 C743 0.930 . S
H736 C746 0.930 . S
H737 C747 0.930 . S
C738 H732 0.930 . S
C738 C739 1.355 1_455 S
C738 C740 1.415 1_455 S
C739 C738 1.355 1_655 S
C739 C741 1.419 . S
C740 C738 1.415 1_655 S
C740 C745 1.425 . S
C740 C747 1.409 1_655 S
C741 H733 0.930 . S
C741 C739 1.419 . S
C741 C742 1.362 . S
C742 H734 0.930 . S
C742 C741 1.362 . S
C742 C745 1.409 . S
C743 H735 0.930 . S
C743 C744 1.355 . S
C743 C745 1.415 . S
C744 C743 1.355 . S
C744 C746 1.419 1_655 S
C745 C740 1.425 . S
C745 C742 1.409 . S
C745 C743 1.415 . S
C746 H736 0.930 . S
C746 C744 1.419 1_455 S
C746 C747 1.362 . S
C747 H737 0.930 . S
C747 C740 1.409 1_455 S
C747 C746 1.362 . S
H748 C754 0.930 . S
H749 C757 0.930 . S
H750 C758 0.930 . S
H751 C759 0.930 . S
H752 C762 0.930 . S
H753 C763 0.930 . S
C754 H748 0.930 . S
C754 C755 1.355 . S
C754 C756 1.415 . S
C755 C754 1.355 . S
C755 C757 1.419 . S
C756 C754 1.415 . S
C756 C761 1.425 . S
C756 C763 1.409 . S
C757 H749 0.930 . S
C757 C755 1.419 . S
C757 C758 1.362 . S
C758 H750 0.930 . S
C758 C757 1.362 . S
C758 C761 1.409 . S
C759 H751 0.930 . S
C759 C760 1.355 . S
C759 C761 1.415 . S
C760 C759 1.355 . S
C760 C762 1.419 . S
C761 C756 1.425 . S
C761 C758 1.409 . S
C761 C759 1.415 . S
C762 H752 0.930 . S
C762 C760 1.419 . S
C762 C763 1.362 . S
C763 H753 0.930 . S
C763 C756 1.409 . S
C763 C762 1.362 . S
H764 C770 0.930 . S
H765 C773 0.930 . S
H766 C774 0.930 . S
H767 C775 0.930 . S
H768 C778 0.930 1_655 S
H769 C779 0.930 1_655 S
C770 H764 0.930 . S
C770 C771 1.355 . S
C770 C772 1.415 . S
C771 C770 1.355 . S
C771 C773 1.419 . S
C772 C770 1.415 . S
C772 C777 1.425 . S
C772 C779 1.409 . S
C773 H765 0.930 . S
C773 C771 1.419 . S
C773 C774 1.362 . S
C774 H766 0.930 . S
C774 C773 1.362 . S
C774 C777 1.409 . S
C775 H767 0.930 . S
C775 C776 1.355 . S
C775 C777 1.415 . S
C776 C775 1.355 . S
C776 C778 1.419 . S
C777 C772 1.425 . S
C777 C774 1.409 . S
C777 C775 1.415 . S
C778 H768 0.930 1_455 S
C778 C776 1.419 . S
C778 C779 1.362 . S
C779 H769 0.930 1_455 S
C779 C772 1.409 . S
C779 C778 1.362 . S
H780 C786 0.930 . S
H781 C789 0.930 . S
H782 C790 0.930 . S
H783 C791 0.930 . S
H784 C794 0.930 . S
H785 C795 0.930 . S
C786 H780 0.930 . S
C786 C787 1.355 . S
C786 C788 1.415 . S
C787 C786 1.355 . S
C787 C789 1.419 . S
C788 C786 1.415 . S
C788 C793 1.425 . S
C788 C795 1.409 . S
C789 H781 0.930 . S
C789 C787 1.419 . S
C789 C790 1.362 . S
C790 H782 0.930 . S
C790 C789 1.362 . S
C790 C793 1.409 . S
C791 H783 0.930 . S
C791 C792 1.355 . S
C791 C793 1.415 . S
C792 C791 1.355 . S
C792 C794 1.419 . S
C793 C788 1.425 . S
C793 C790 1.409 . S
C793 C791 1.415 . S
C794 H784 0.930 . S
C794 C792 1.419 . S
C794 C795 1.362 . S
C795 H785 0.930 . S
C795 C788 1.409 . S
C795 C794 1.362 . S
C419 C21 1.659 . S
C424 C338 1.653 . S
C435 C61 1.593 . S
C440 C362 1.600 . S
C456 C382 1.450 . S
C451 C82 1.454 . S
C467 C135 1.468 . S
C472 C405 1.499 . S
C488 C364 1.653 . S
C483 C15 1.701 . S
C504 C340 1.709 . S
C499 C42 1.686 . S
C520 C408 1.646 . S
C515 C101 1.713 . S
C536 C385 1.575 . S
C531 C122 1.637 . S
C547 C2 1.452 . S
C552 C410 1.394 . S
C568 C359 1.647 . S
C563 C95 1.629 . S
C579 C141 1.689 . S
C584 C337 1.686 . S
C595 C55 1.418 . S
C600 C387 1.382 . S
C616 C341 1.833 . S
C611 C181 1.745 1_545 S
C627 C202 1.644 . S
C632 C363 1.738 . S
C643 C255 1.788 . S
C648 C383 1.846 . S
C659 C295 1.815 . S
C664 C406 1.860 . S
C675 C175 1.697 . S
C680 C361 1.724 1_556 S
C696 C339 1.778 . S
C691 C221 1.680 . S
C712 C409 1.518 . S
C707 C242 1.525 . S
C728 C386 1.628 . S
C723 C301 1.690 . S
C739 C162 1.862 . S
C744 C407 1.933 . S
C760 C360 1.704 . S
C755 C261 1.622 . S
C776 C336 1.694 . S
C771 C282 1.699 . S
C787 C215 1.992 . S
C792 C384 2.001 . S
