# Generated by pormake.
# Topology wbl, (4,4)-cn, num edge types: 1
# Building blocks:
#     Node 0, Type 0, BuildingBlock: MUDLON_clean_sbu_0, # of connection points: 4
#     Node 1, Type 0, BuildingBlock: MUDLON_clean_sbu_0, # of connection points: 4
#     Node 2, Type 0, BuildingBlock: MUDLON_clean_sbu_0, # of connection points: 4
#     Node 3, Type 0, BuildingBlock: MUDLON_clean_sbu_0, # of connection points: 4
#     Node 4, Type 0, BuildingBlock: MUDLON_clean_sbu_0, # of connection points: 4
#     Node 5, Type 0, BuildingBlock: MUDLON_clean_sbu_0, # of connection points: 4
#     Node 6, Type 0, BuildingBlock: MUDLON_clean_sbu_0, # of connection points: 4
#     Node 7, Type 0, BuildingBlock: MUDLON_clean_sbu_0, # of connection points: 4
#     Node 8, Type 1, BuildingBlock: TATPOV_clean_sbu_0, # of connection points: 4
#     Node 9, Type 1, BuildingBlock: TATPOV_clean_sbu_0, # of connection points: 4
#     Node 10, Type 1, BuildingBlock: TATPOV_clean_sbu_0, # of connection points: 4
#     Node 11, Type 1, BuildingBlock: TATPOV_clean_sbu_0, # of connection points: 4
#     Node 12, Type 1, BuildingBlock: TATPOV_clean_sbu_0, # of connection points: 4
#     Node 13, Type 1, BuildingBlock: TATPOV_clean_sbu_0, # of connection points: 4
#     Node 14, Type 1, BuildingBlock: TATPOV_clean_sbu_0, # of connection points: 4
#     Node 15, Type 1, BuildingBlock: TATPOV_clean_sbu_0, # of connection points: 4
#     Edge 16, Type (0, 1), BuildingBlock: OJICUG_clean_linker_0, # of connection points: 2
#     Edge 17, Type (0, 1), BuildingBlock: OJICUG_clean_linker_0, # of connection points: 2
#     Edge 18, Type (0, 1), BuildingBlock: OJICUG_clean_linker_0, # of connection points: 2
#     Edge 19, Type (0, 1), BuildingBlock: OJICUG_clean_linker_0, # of connection points: 2
#     Edge 20, Type (0, 1), BuildingBlock: OJICUG_clean_linker_0, # of connection points: 2
#     Edge 21, Type (0, 1), BuildingBlock: OJICUG_clean_linker_0, # of connection points: 2
#     Edge 22, Type (0, 1), BuildingBlock: OJICUG_clean_linker_0, # of connection points: 2
#     Edge 23, Type (0, 1), BuildingBlock: OJICUG_clean_linker_0, # of connection points: 2
#     Edge 24, Type (0, 1), BuildingBlock: OJICUG_clean_linker_0, # of connection points: 2
#     Edge 25, Type (0, 1), BuildingBlock: OJICUG_clean_linker_0, # of connection points: 2
#     Edge 26, Type (0, 1), BuildingBlock: OJICUG_clean_linker_0, # of connection points: 2
#     Edge 27, Type (0, 1), BuildingBlock: OJICUG_clean_linker_0, # of connection points: 2
#     Edge 28, Type (0, 1), BuildingBlock: OJICUG_clean_linker_0, # of connection points: 2
#     Edge 29, Type (0, 1), BuildingBlock: OJICUG_clean_linker_0, # of connection points: 2
#     Edge 30, Type (0, 1), BuildingBlock: OJICUG_clean_linker_0, # of connection points: 2
#     Edge 31, Type (0, 1), BuildingBlock: OJICUG_clean_linker_0, # of connection points: 2
#     Edge 32, Type (0, 1), BuildingBlock: OJICUG_clean_linker_0, # of connection points: 2
#     Edge 33, Type (0, 1), BuildingBlock: OJICUG_clean_linker_0, # of connection points: 2
#     Edge 34, Type (0, 1), BuildingBlock: OJICUG_clean_linker_0, # of connection points: 2
#     Edge 35, Type (0, 1), BuildingBlock: OJICUG_clean_linker_0, # of connection points: 2
#     Edge 36, Type (0, 1), BuildingBlock: OJICUG_clean_linker_0, # of connection points: 2
#     Edge 37, Type (0, 1), BuildingBlock: OJICUG_clean_linker_0, # of connection points: 2
#     Edge 38, Type (0, 1), BuildingBlock: OJICUG_clean_linker_0, # of connection points: 2
#     Edge 39, Type (0, 1), BuildingBlock: OJICUG_clean_linker_0, # of connection points: 2
#     Edge 40, Type (0, 1), BuildingBlock: OJICUG_clean_linker_0, # of connection points: 2
#     Edge 41, Type (0, 1), BuildingBlock: OJICUG_clean_linker_0, # of connection points: 2
#     Edge 42, Type (0, 1), BuildingBlock: OJICUG_clean_linker_0, # of connection points: 2
#     Edge 43, Type (0, 1), BuildingBlock: OJICUG_clean_linker_0, # of connection points: 2
#     Edge 44, Type (0, 1), BuildingBlock: OJICUG_clean_linker_0, # of connection points: 2
#     Edge 45, Type (0, 1), BuildingBlock: OJICUG_clean_linker_0, # of connection points: 2
#     Edge 46, Type (0, 1), BuildingBlock: OJICUG_clean_linker_0, # of connection points: 2
#     Edge 47, Type (0, 1), BuildingBlock: OJICUG_clean_linker_0, # of connection points: 2
# Relax obj value: 0.244
# Max RMSD: 0.234
# Mean RMSD: 0.173
data_MOF--net-wbl--node1-MUDLON_clean_sbu_0--node2-TATPOV_clean_sbu_0--edge1-OJICUG_clean_linker_0
_symmetry_space_group_name_H-M    P1
_symmetry_Int_Tables_number       1
_symmetry_cell_setting            triclinic
loop_
_symmetry_equiv_pos_as_xyz
'x, y, z'
_cell_length_a     25.497172
_cell_length_b     25.550881
_cell_length_c     54.433508
_cell_angle_alpha  90.944783
_cell_angle_beta   90.82497
_cell_angle_gamma 89.720529
loop_
_atom_site_label
_atom_site_type_symbol
_atom_site_fract_x
_atom_site_fract_y
_atom_site_fract_z
_atom_type_partial_charge
Mg0 Mg 0.11625 0.17468 0.35294 0.0
C1 C 0.07654 0.11831 0.39763 0.0
O2 O 0.06769 0.16635 0.40545 0.0
C3 C 0.00733 0.19705 0.33502 0.0
O4 O 0.99806 0.1819 0.35749 0.0
C5 C 0.18948 0.12778 0.31358 0.0
O6 O 0.15269 0.1416 0.29781 0.0
O7 O 0.1855 0.14116 0.33609 0.0
O8 O 0.09141 0.11062 0.37565 0.0
O9 O 0.13167 0.23666 0.3797 0.0
C10 C 0.09862 0.27386 0.38144 0.0
O11 O 0.06844 0.28391 0.36232 0.0
O12 O 0.05431 0.19701 0.3275 0.0
Mg13 Mg 0.01577 0.61943 0.6109 0.0
C14 C 0.09271 0.56298 0.64294 0.0
O15 O 0.04904 0.54577 0.65236 0.0
C16 C 0.96296 0.55121 0.56993 0.0
O17 O 0.97933 0.58615 0.55439 0.0
C18 C 0.0712 0.67148 0.57186 0.0
O19 O 0.08657 0.6224 0.57017 0.0
O20 O 0.0369 0.68393 0.58769 0.0
O21 O 0.09037 0.58963 0.62346 0.0
O22 O 0.97915 0.63688 0.64583 0.0
C23 C 0.94062 0.60815 0.6513 0.0
O24 O 0.91393 0.58544 0.63329 0.0
O25 O 0.97321 0.55678 0.5927 0.0
Mg26 Mg 0.59498 0.50433 0.85883 0.0
C27 C 0.63497 0.57678 0.89819 0.0
O28 O 0.65344 0.53235 0.90657 0.0
C29 C 0.66927 0.4575 0.81967 0.0
O30 O 0.6352 0.47592 0.80365 0.0
C31 C 0.5471 0.56312 0.81869 0.0
O32 O 0.59537 0.58086 0.81999 0.0
O33 O 0.53399 0.52642 0.83283 0.0
O34 O 0.61594 0.57771 0.8765 0.0
O35 O 0.57022 0.46093 0.89054 0.0
C36 C 0.59888 0.42276 0.89722 0.0
O37 O 0.63034 0.40119 0.88101 0.0
O38 O 0.66205 0.46506 0.84251 0.0
Mg39 Mg 0.69292 0.04659 0.11359 0.0
C40 C 0.78398 0.99925 0.1419 0.0
O41 O 0.81953 0.96404 0.14769 0.0
C42 C 0.62247 0.96194 0.09381 0.0
O43 O 0.6343 0.94283 0.11547 0.0
C44 C 0.75833 0.12544 0.08596 0.0
O45 O 0.79061 0.08538 0.0841 0.0
O46 O 0.71554 0.12046 0.09743 0.0
O47 O 0.7592 0.9953 0.12151 0.0
O48 O 0.65154 0.05546 0.14817 0.0
C49 C 0.60179 0.05311 0.14886 0.0
O50 O 0.57494 0.05143 0.12808 0.0
O51 O 0.64182 0.00557 0.08782 0.0
Mg52 Mg 0.08967 0.62571 0.91395 0.0
C53 C 0.11738 0.70324 0.87554 0.0
O54 O 0.15536 0.71124 0.89165 0.0
C55 C 0.03634 0.58347 0.95602 0.0
O56 O 0.08649 0.57436 0.96001 0.0
C57 C 0.15809 0.69802 0.94528 0.0
O58 O 0.11903 0.73069 0.94131 0.0
O59 O 0.15578 0.65176 0.93636 0.0
O60 O 0.07928 0.6742 0.88145 0.0
O61 O 0.10601 0.55057 0.89697 0.0
C62 C 0.12981 0.54837 0.87662 0.0
O63 O 0.15308 0.59048 0.86873 0.0
O64 O 0.02295 0.60917 0.93707 0.0
Mg65 Mg 0.48777 0.54052 0.15989 0.0
C66 C 0.44226 0.49945 0.11429 0.0
O67 O 0.48222 0.46705 0.11632 0.0
C68 C 0.54361 0.49195 0.20174 0.0
O69 O 0.55262 0.54198 0.20569 0.0
C70 C 0.42364 0.61933 0.18808 0.0
O71 O 0.38956 0.58097 0.18659 0.0
O72 O 0.46875 0.61287 0.17886 0.0
O73 O 0.42624 0.52242 0.13369 0.0
O74 O 0.55227 0.55213 0.13527 0.0
C75 C 0.59923 0.56335 0.1412 0.0
O76 O 0.61144 0.57285 0.16436 0.0
O77 O 0.51249 0.47853 0.18432 0.0
Mg78 Mg 0.60631 0.02123 0.41421 0.0
C79 C 0.57059 0.06723 0.36674 0.0
O80 O 0.54701 0.02167 0.36531 0.0
C81 C 0.52334 0.99114 0.45295 0.0
O82 O 0.55932 0.00384 0.46947 0.0
C83 C 0.65505 0.08749 0.45429 0.0
O84 O 0.60667 0.10529 0.45516 0.0
O85 O 0.66596 0.05018 0.43949 0.0
O86 O 0.59386 0.08039 0.38672 0.0
O87 O 0.63386 0.95784 0.39107 0.0
C88 C 0.60994 0.91453 0.39186 0.0
O89 O 0.58652 0.90258 0.41236 0.0
O90 O 0.53277 0.99641 0.43024 0.0
Mg91 Mg 0.20884 0.10089 0.65558 0.0
C92 C 0.30688 0.14158 0.62671 0.0
O93 O 0.34895 0.17093 0.6258 0.0
C94 C 0.12729 0.1338 0.69246 0.0
O95 O 0.11534 0.08396 0.69029 0.0
C96 C 0.27239 0.0106 0.67558 0.0
O97 O 0.3105 0.04032 0.6679 0.0
O98 O 0.22514 0.02581 0.67268 0.0
O99 O 0.28199 0.14006 0.64681 0.0
O100 O 0.15523 0.09501 0.62439 0.0
C101 C 0.15361 0.13297 0.6096 0.0
O102 O 0.18648 0.17196 0.61289 0.0
O103 O 0.16624 0.15123 0.68084 0.0
Zn104 Zn 0.46293 0.8103 0.97487 0.0
Zn105 Zn 0.46288 0.7305 0.00786 0.0
O106 O 0.38876 0.73433 0.99397 0.0
O107 O 0.38396 0.80153 0.96931 0.0
O108 O 0.4541 0.67509 0.03317 0.0
O109 O 0.49212 0.85818 0.00194 0.0
O110 O 0.49077 0.79293 0.02783 0.0
C111 C 0.3623 0.76326 0.97957 0.0
C112 C 0.53131 0.72043 0.96302 0.0
O113 O 0.51562 0.70234 0.98328 0.0
O114 O 0.51402 0.76403 0.9554 0.0
C115 C 0.45311 0.62609 0.02877 0.0
O116 O 0.46179 0.60822 0.00643 0.0
C117 C 0.50101 0.84046 0.02322 0.0
Zn118 Zn 0.37314 0.85551 0.2919 0.0
Zn119 Zn 0.42859 0.91541 0.26203 0.0
O120 O 0.36656 0.96346 0.27174 0.0
O121 O 0.32437 0.91642 0.29858 0.0
O122 O 0.46474 0.95699 0.236 0.0
O123 O 0.35935 0.80096 0.26543 0.0
O124 O 0.41357 0.84651 0.24327 0.0
C125 C 0.32981 0.95878 0.28715 0.0
C126 C 0.48003 0.8748 0.30875 0.0
O127 O 0.48196 0.9046 0.2902 0.0
O128 O 0.43891 0.8488 0.31277 0.0
C129 C 0.50685 0.98325 0.23809 0.0
O130 O 0.53178 0.98552 0.25936 0.0
C131 C 0.38587 0.80575 0.24614 0.0
Zn132 Zn 0.21771 0.86972 0.47047 0.0
Zn133 Zn 0.21791 0.93798 0.50862 0.0
O134 O 0.29456 0.9366 0.49684 0.0
O135 O 0.29514 0.8821 0.46516 0.0
O136 O 0.22366 0.98412 0.53898 0.0
O137 O 0.1908 0.81237 0.49206 0.0
O138 O 0.18535 0.87087 0.52204 0.0
C139 C 0.319 0.91415 0.4793 0.0
C140 C 0.15231 0.96226 0.46315 0.0
O141 O 0.1694 0.9762 0.4844 0.0
O142 O 0.16605 0.9186 0.45382 0.0
C143 C 0.246 0.02838 0.53802 0.0
O144 O 0.26191 0.04501 0.51668 0.0
C145 C 0.17754 0.8246 0.51375 0.0
Zn146 Zn 0.35721 0.70035 0.70841 0.0
Zn147 Zn 0.28677 0.71063 0.74522 0.0
O148 O 0.29066 0.78431 0.7302 0.0
O149 O 0.35109 0.77775 0.70178 0.0
O150 O 0.23973 0.72185 0.77456 0.0
O151 O 0.41183 0.67267 0.73198 0.0
O152 O 0.35316 0.67849 0.76121 0.0
C153 C 0.31768 0.80496 0.7134 0.0
C154 C 0.26195 0.6387 0.70169 0.0
O155 O 0.24923 0.65882 0.72234 0.0
O156 O 0.30526 0.65029 0.69203 0.0
C157 C 0.19242 0.7072 0.77687 0.0
O158 O 0.16884 0.68207 0.75863 0.0
C159 C 0.39891 0.66568 0.75404 0.0
Zn160 Zn 0.87169 0.23744 0.55156 0.0
Zn161 Zn 0.92544 0.25079 0.50941 0.0
O162 O 0.91466 0.32505 0.5224 0.0
O163 O 0.87441 0.31611 0.55754 0.0
O164 O 0.96266 0.26411 0.47781 0.0
O165 O 0.81203 0.20475 0.532 0.0
O166 O 0.85958 0.2097 0.49863 0.0
C167 C 0.89521 0.34516 0.54177 0.0
C168 C 0.97495 0.18885 0.55124 0.0
O169 O 0.97821 0.21012 0.53033 0.0
O170 O 0.93302 0.19265 0.5634 0.0
C171 C 0.01067 0.27729 0.47723 0.0
O172 O 0.03815 0.28043 0.49779 0.0
C173 C 0.81792 0.19544 0.50929 0.0
Zn174 Zn 0.96448 0.31261 0.79909 0.0
Zn175 Zn 0.96773 0.38796 0.76415 0.0
O176 O 0.89199 0.38686 0.77596 0.0
O177 O 0.88706 0.32731 0.80452 0.0
O178 O 0.9608 0.4412 0.7373 0.0
O179 O 0.99054 0.25955 0.77377 0.0
O180 O 0.99804 0.32267 0.74696 0.0
C181 C 0.86553 0.36274 0.79181 0.0
C182 C 0.03429 0.40063 0.81051 0.0
O183 O 0.01846 0.41807 0.78988 0.0
O184 O 0.01753 0.35727 0.81819 0.0
C185 C 0.96899 0.49016 0.73945 0.0
O186 O 0.9874 0.5097 0.7603 0.0
C187 C 0.00441 0.27494 0.75283 0.0
Zn188 Zn 0.85206 0.43509 0.06323 0.0
Zn189 Zn 0.77881 0.43213 0.02671 0.0
O190 O 0.78466 0.35709 0.03935 0.0
O191 O 0.84875 0.35601 0.06684 0.0
O192 O 0.72979 0.42182 -0.00241 0.0
O193 O 0.90342 0.46882 0.04049 0.0
O194 O 0.84312 0.46733 0.01118 0.0
C195 C 0.81316 0.3323 0.05468 0.0
C196 C 0.7551 0.49379 0.07316 0.0
O197 O 0.74122 0.47878 0.0516 0.0
O198 O 0.79954 0.4806 0.08191 0.0
C199 C 0.68178 0.43494 0.99543 0.0
O200 O 0.65863 0.46001 0.01356 0.0
C201 C 0.8891 0.47948 0.01876 0.0
Zn202 Zn 0.78673 0.2801 0.2251 0.0
Zn203 Zn 0.72229 0.22844 0.25468 0.0
O204 O 0.67954 0.29332 0.24419 0.0
O205 O 0.7361 0.34114 0.2243 0.0
O206 O 0.67767 0.19713 0.28079 0.0
O207 O 0.84641 0.27749 0.24976 0.0
O208 O 0.7915 0.23801 0.27401 0.0
C209 C 0.69083 0.33513 0.23303 0.0
C210 C 0.75432 0.17615 0.20715 0.0
O211 O 0.73074 0.17286 0.22754 0.0
O212 O 0.77784 0.21792 0.20166 0.0
C213 C 0.64099 0.16386 0.2784 0.0
O214 O 0.62824 0.14562 0.25642 0.0
C215 C 0.83703 0.25602 0.27 0.0
C216 C 0.24514 0.08105 0.28217 0.0
C217 C 0.22888 0.08772 0.30661 0.0
H218 H 0.29119 0.03528 0.25679 0.0
C219 C 0.24739 0.0527 0.32442 0.0
H220 H 0.2313 0.1074 0.26808 0.0
C221 C 0.27987 0.0109 0.31786 0.0
C222 C 0.29586 0.00384 0.29347 0.0
H223 H 0.23527 0.05639 0.34337 0.0
H224 H 0.29265 0.98406 0.33197 0.0
C225 C 0.27919 0.03987 0.27572 0.0
C226 C 0.12548 0.69559 0.53604 0.0
C227 C 0.09659 0.7113 0.5567 0.0
H228 H 0.17359 0.71892 0.50633 0.0
C229 C 0.09475 0.76466 0.5633 0.0
H230 H 0.12768 0.65474 0.53049 0.0
C231 C 0.1219 0.80148 0.54964 0.0
C232 C 0.15068 0.78567 0.52892 0.0
H233 H 0.07313 0.77787 0.57924 0.0
H234 H 0.11984 0.84235 0.55516 0.0
C235 C 0.1519 0.73237 0.52221 0.0
C236 C 0.52618 0.61595 0.7817 0.0
C237 C 0.50863 0.58796 0.80197 0.0
H238 H 0.50523 0.66223 0.75064 0.0
C239 C 0.45462 0.58629 0.80666 0.0
H240 H 0.56759 0.61797 0.77766 0.0
C241 C 0.41889 0.61272 0.79146 0.0
C242 C 0.43652 0.64028 0.77103 0.0
H243 H 0.44008 0.56538 0.82229 0.0
H244 H 0.37745 0.61083 0.79545 0.0
C245 C 0.49048 0.64137 0.76626 0.0
C246 C 0.56912 0.88291 0.08249 0.0
C247 C 0.58811 0.93251 0.07642 0.0
H248 H 0.52633 0.81512 0.07057 0.0
C249 C 0.57502 0.95313 0.05334 0.0
H250 H 0.57821 0.86604 0.10018 0.0
C251 C 0.54503 0.92403 0.03639 0.0
C252 C 0.5276 0.87362 0.04212 0.0
H253 H 0.58872 0.9914 0.04816 0.0
H254 H 0.53675 0.94056 0.01854 0.0
C255 C 0.53923 0.85376 0.06552 0.0
C256 C 0.2415 0.68105 0.96818 0.0
C257 C 0.20749 0.71663 0.95667 0.0
H258 H 0.31663 0.66832 0.98492 0.0
C259 C 0.22308 0.76899 0.95437 0.0
H260 H 0.23031 0.64052 0.97024 0.0
C261 C 0.27307 0.7848 0.96233 0.0
C262 C 0.30768 0.74876 0.97322 0.0
H263 H 0.19762 0.79713 0.94542 0.0
H264 H 0.28494 0.8249 0.95955 0.0
C265 C 0.29084 0.69709 0.97663 0.0
C266 C 0.36715 0.67185 0.21665 0.0
C267 C 0.41048 0.66884 0.20103 0.0
H268 H 0.32506 0.7178 0.24314 0.0
C269 C 0.44223 0.71315 0.19849 0.0
H270 H 0.34178 0.63843 0.21888 0.0
C271 C 0.43218 0.75885 0.21206 0.0
C272 C 0.39058 0.76096 0.22873 0.0
H273 H 0.47556 0.71222 0.18636 0.0
H274 H 0.4585 0.79167 0.21028 0.0
C275 C 0.35749 0.71736 0.2305 0.0
C276 C 0.45301 0.97841 0.48418 0.0
C277 C 0.47247 0.96921 0.46046 0.0
H278 H 0.38893 0.96846 0.5088 0.0
C279 C 0.44259 0.93899 0.44367 0.0
H280 H 0.47524 0.00148 0.49752 0.0
C281 C 0.3939 0.9192 0.45026 0.0
C282 C 0.37339 0.92993 0.47367 0.0
H283 H 0.45676 0.93071 0.42534 0.0
H284 H 0.37159 0.89688 0.43667 0.0
C285 C 0.40367 0.95942 0.49064 0.0
C286 C 0.33419 0.93625 0.68336 0.0
C287 C 0.28461 0.95935 0.68667 0.0
H288 H 0.38344 0.86942 0.6892 0.0
C289 C 0.247 0.93265 0.70027 0.0
H290 H 0.36407 0.95582 0.673 0.0
C291 C 0.2585 0.8834 0.70998 0.0
C292 C 0.30747 0.85953 0.70586 0.0
H293 H 0.20857 0.94963 0.70327 0.0
H294 H 0.22841 0.86325 0.71996 0.0
C295 C 0.34532 0.88673 0.69265 0.0
C296 C 0.74351 0.39559 0.82757 0.0
C297 C 0.71661 0.42904 0.81143 0.0
H298 H 0.81094 0.34719 0.83376 0.0
C299 C 0.73651 0.43643 0.78782 0.0
H300 H 0.72878 0.38871 0.84581 0.0
C301 C 0.78399 0.41308 0.781 0.0
C302 C 0.81184 0.38105 0.79748 0.0
H303 H 0.71652 0.46189 0.77498 0.0
H304 H 0.79955 0.42118 0.76305 0.0
C305 C 0.79036 0.37144 0.82059 0.0
C306 C 0.73447 0.21101 0.06726 0.0
C307 C 0.77313 0.17683 0.07631 0.0
H308 H 0.71729 0.28645 0.05254 0.0
C309 C 0.82579 0.19286 0.07677 0.0
H310 H 0.69364 0.19944 0.06663 0.0
C311 C 0.83923 0.24315 0.06927 0.0
C312 C 0.80044 0.27753 0.06043 0.0
H313 H 0.85629 0.16723 0.08377 0.0
H314 H 0.87983 0.25532 0.0706 0.0
C315 C 0.74809 0.26058 0.05905 0.0
C316 C 0.974 0.23847 0.29641 0.0
C317 C 0.96378 0.21511 0.31902 0.0
H318 H 0.94199 0.27074 0.26341 0.0
C319 C 0.91146 0.209 0.32619 0.0
H320 H 0.01389 0.2442 0.29047 0.0
C321 C 0.87018 0.22416 0.31067 0.0
C322 C 0.88036 0.24617 0.28774 0.0
H323 H 0.90227 0.19144 0.34357 0.0
H324 H 0.8303 0.21756 0.31644 0.0
C325 C 0.93273 0.25406 0.28098 0.0
C326 C 0.9107 0.47133 0.57792 0.0
C327 C 0.93747 0.5025 0.56121 0.0
H328 H 0.87525 0.39753 0.58473 0.0
C329 C 0.94362 0.48426 0.53696 0.0
H330 H 0.90473 0.48471 0.59667 0.0
C331 C 0.92695 0.43396 0.53012 0.0
C332 C 0.90339 0.40137 0.54736 0.0
H333 H 0.96389 0.50756 0.52367 0.0
H334 H 0.93472 0.41979 0.51165 0.0
C335 C 0.89358 0.4214 0.57104 0.0
C336 C 0.6849 0.14244 0.49016 0.0
C337 C 0.697 0.11347 0.46884 0.0
H338 H 0.71392 0.19059 0.51986 0.0
C339 C 0.74922 0.11141 0.46093 0.0
H340 H 0.64497 0.14468 0.49665 0.0
C341 C 0.78847 0.13865 0.47389 0.0
C342 C 0.77641 0.16742 0.49529 0.0
H343 H 0.75958 0.08968 0.44444 0.0
H344 H 0.82833 0.13675 0.46729 0.0
C345 C 0.72435 0.16866 0.50343 0.0
C346 C 0.09622 0.22398 0.70381 0.0
C347 C 0.09451 0.16967 0.7074 0.0
H348 H 0.06813 0.29968 0.71492 0.0
C349 C 0.06072 0.15002 0.72518 0.0
H350 H 0.12147 0.24028 0.69007 0.0
C351 C 0.03048 0.18411 0.73958 0.0
C352 C 0.03264 0.23848 0.73618 0.0
H353 H 0.05841 0.10834 0.7283 0.0
H354 H 0.00573 0.1679 0.75354 0.0
C355 C 0.06528 0.25798 0.71789 0.0
C356 C 0.94431 0.55441 0.96506 0.0
C357 C 0.99717 0.55993 0.97233 0.0
H358 H 0.86863 0.52393 0.97384 0.0
C359 C 0.01367 0.53947 0.99498 0.0
H360 H 0.93049 0.56947 0.94763 0.0
C361 C 0.97851 0.51362 0.00992 0.0
C362 C 0.92587 0.50707 0.00255 0.0
H363 H 0.05408 0.54305 0.00117 0.0
H364 H 0.9929 0.49826 0.02719 0.0
C365 C 0.90903 0.52797 0.97998 0.0
C366 C 0.6288 0.46667 0.22118 0.0
C367 C 0.57797 0.45248 0.21338 0.0
H368 H 0.70463 0.44024 0.2332 0.0
C369 C 0.56291 0.39974 0.21447 0.0
H370 H 0.64171 0.50693 0.2204 0.0
C371 C 0.59875 0.36166 0.22244 0.0
C372 C 0.65053 0.37564 0.22869 0.0
H373 H 0.52397 0.38779 0.20855 0.0
H374 H 0.58685 0.32101 0.22238 0.0
C375 C 0.66494 0.42852 0.22841 0.0
C376 C 0.09024 0.08775 0.44067 0.0
C377 C 0.08314 0.07584 0.41552 0.0
H378 H 0.11792 0.061 0.47565 0.0
C379 C 0.09075 0.02412 0.40721 0.0
H380 H 0.08449 0.12726 0.44768 0.0
C381 C 0.10958 0.98614 0.42325 0.0
C382 C 0.12168 0.99923 0.44789 0.0
H383 H 0.08505 0.01363 0.388 0.0
H384 H 0.11767 0.94734 0.4159 0.0
C385 C 0.10962 0.04981 0.45671 0.0
C386 C 0.1884 0.57957 0.64767 0.0
C387 C 0.14039 0.56726 0.65841 0.0
H388 H 0.26516 0.61107 0.65312 0.0
C389 C 0.13615 0.56968 0.68412 0.0
H390 H 0.19274 0.57771 0.6279 0.0
C391 C 0.17728 0.58976 0.69857 0.0
C392 C 0.22352 0.60686 0.68755 0.0
H393 H 0.09957 0.56043 0.69292 0.0
H394 H 0.17164 0.59473 0.71816 0.0
C395 C 0.22979 0.59883 0.66214 0.0
C396 C 0.60007 0.66664 0.90689 0.0
C397 C 0.62013 0.61903 0.91564 0.0
H398 H 0.55659 0.73638 0.91509 0.0
C399 C 0.61712 0.60865 0.94086 0.0
H400 H 0.60202 0.67584 0.88757 0.0
C401 C 0.59035 0.64294 0.95658 0.0
C402 C 0.56673 0.68861 0.94743 0.0
H403 H 0.63218 0.57233 0.94822 0.0
H404 H 0.5862 0.63245 0.97565 0.0
C405 C 0.57385 0.70124 0.92266 0.0
C406 C 0.60342 0.04476 0.19482 0.0
C407 C 0.57543 0.04267 0.17237 0.0
H408 H 0.60373 0.0281 0.2333 0.0
C409 C 0.52317 0.02549 0.17227 0.0
H410 H 0.64352 0.05828 0.19555 0.0
C411 C 0.50046 0.00789 0.19381 0.0
C412 C 0.52931 0.0074 0.21602 0.0
H413 H 0.50034 0.02349 0.15535 0.0
H414 H 0.46067 0.99327 0.19286 0.0
C415 C 0.58056 0.02747 0.21646 0.0
C416 C 0.10184 0.68553 0.83045 0.0
C417 C 0.1278 0.71379 0.84936 0.0
H418 H 0.10199 0.66114 0.79256 0.0
C419 C 0.1706 0.74535 0.84335 0.0
H420 H 0.06891 0.6606 0.83446 0.0
C421 C 0.18983 0.74523 0.81947 0.0
C422 C 0.16657 0.71375 0.80097 0.0
H423 H 0.19126 0.76791 0.85743 0.0
H424 H 0.22441 0.76812 0.81579 0.0
C425 C 0.12105 0.68555 0.80645 0.0
C426 C 0.41081 0.57619 0.0902 0.0
C427 C 0.43428 0.52628 0.09059 0.0
H428 H 0.39929 0.64707 0.07046 0.0
C429 C 0.45836 0.50694 0.06914 0.0
H430 H 0.39171 0.59237 0.10629 0.0
C431 C 0.46231 0.53841 0.04844 0.0
C432 C 0.4429 0.58992 0.049 0.0
H433 H 0.47669 0.46861 0.06881 0.0
H434 H 0.48311 0.52347 0.03257 0.0
C435 C 0.4156 0.60784 0.06973 0.0
C436 C 0.55136 0.85261 0.36879 0.0
C437 C 0.5894 0.89209 0.3684 0.0
H438 H 0.48705 0.81581 0.35002 0.0
C439 C 0.59855 0.91761 0.34612 0.0
H440 H 0.54393 0.83149 0.38547 0.0
C441 C 0.56526 0.90925 0.32581 0.0
C442 C 0.52292 0.87458 0.32735 0.0
H443 H 0.62816 0.94771 0.34502 0.0
H444 H 0.57044 0.93273 0.30964 0.0
C445 C 0.51844 0.84392 0.34845 0.0
C446 C 0.26379 0.06451 0.60558 0.0
C447 C 0.28888 0.11313 0.60429 0.0
H448 H 0.2297 -0.00018 0.58567 0.0
C449 C 0.29848 0.1342 0.58112 0.0
H450 H 0.25674 0.04689 0.62314 0.0
C451 C 0.28327 0.10731 0.55966 0.0
C452 C 0.25844 0.05847 0.56086 0.0
H453 H 0.31779 0.17165 0.57957 0.0
H454 H 0.29165 0.12457 0.54211 0.0
C455 C 0.24843 0.03754 0.58408 0.0
C456 C 0.58767 0.44975 0.94146 0.0
C457 C 0.61107 0.41665 0.92375 0.0
H458 H 0.59177 0.48162 0.97813 0.0
C459 C 0.65316 0.38446 0.93103 0.0
H460 H 0.55515 0.47508 0.9365 0.0
C461 C 0.67453 0.38883 0.95472 0.0
C462 C 0.65388 0.42496 0.9718 0.0
H463 H 0.67193 0.35823 0.91799 0.0
H464 H 0.70863 0.36532 0.95934 0.0
C465 C 0.60883 0.45374 0.9653 0.0
C466 C 0.75978 0.03608 0.18308 0.0
C467 C 0.77397 0.04376 0.15861 0.0
H468 H 0.74104 0.07243 0.21771 0.0
C469 C 0.78027 0.0947 0.15015 0.0
H470 H 0.75511 0.99688 0.18999 0.0
C471 C 0.7722 0.13764 0.16575 0.0
C472 C 0.75786 0.13043 0.19028 0.0
H473 H 0.79338 0.10126 0.13172 0.0
H474 H 0.77817 0.17652 0.15868 0.0
C475 C 0.7514 0.0792 0.1988 0.0
C476 C 0.11175 0.27838 0.4271 0.0
C477 C 0.08013 0.28827 0.40629 0.0
H478 H 0.11446 0.26743 0.46607 0.0
C479 C 0.02707 0.30152 0.40959 0.0
H480 H 0.15274 0.26798 0.42512 0.0
C481 C 0.00498 0.29984 0.43286 0.0
C482 C 0.03572 0.28611 0.45338 0.0
H483 H 0.00149 0.30921 0.39399 0.0
H484 H 0.96335 0.30738 0.43465 0.0
C485 C 0.08978 0.27772 0.4505 0.0
C486 C 0.91158 0.53833 0.67954 0.0
C487 C 0.93982 0.58469 0.67603 0.0
H488 H 0.89948 0.47184 0.70207 0.0
C489 C 0.97398 0.60255 0.6949 0.0
H490 H 0.88487 0.52334 0.66549 0.0
C491 C 0.9821 0.57291 0.71606 0.0
C492 C 0.95678 0.52461 0.71855 0.0
H493 H 0.99645 0.63801 0.69277 0.0
H494 H 0.01008 0.58654 0.72987 0.0
C495 C 0.92038 0.50841 0.70042 0.0
C496 C 0.56608 0.07589 0.32089 0.0
C497 C 0.58046 0.09681 0.3441 0.0
H498 H 0.57387 0.08072 0.28181 0.0
C499 C 0.61017 0.14294 0.34528 0.0
H500 H 0.5432 0.04035 0.31931 0.0
C501 C 0.62793 0.16578 0.32384 0.0
C502 C 0.61631 0.14313 0.30069 0.0
H503 H 0.6217 0.16027 0.36282 0.0
H504 H 0.65231 0.20029 0.32552 0.0
C505 C 0.5838 0.09889 0.29937 0.0
C506 C 0.11586 0.16973 0.57106 0.0
C507 C 0.1102 0.13799 0.59165 0.0
H508 H 0.0773 0.20961 0.54158 0.0
C509 C 0.06084 0.1168 0.59662 0.0
H510 H 0.15366 0.18618 0.56676 0.0
C511 C 0.01696 0.13097 0.58252 0.0
C512 C 0.022 0.16556 0.5629 0.0
H513 H 0.05542 0.09224 0.61241 0.0
H514 H 0.97877 0.11671 0.58764 0.0
C515 C 0.07219 0.18294 0.55661 0.0
C516 C 0.0972 0.45798 0.86799 0.0
C517 C 0.11726 0.50514 0.85927 0.0
H518 H 0.05585 0.38742 0.85928 0.0
C519 C 0.11662 0.51401 0.83385 0.0
H520 H 0.09741 0.45006 0.88748 0.0
C521 C 0.09197 0.47857 0.8177 0.0
C522 C 0.06831 0.4333 0.82666 0.0
H523 H 0.13165 0.5501 0.82657 0.0
H524 H 0.08932 0.48789 0.79837 0.0
C525 C 0.07329 0.42219 0.8518 0.0
C526 C 0.62692 0.54508 0.09803 0.0
C527 C 0.64062 0.5559 0.12272 0.0
H528 H 0.65248 0.51757 0.06287 0.0
C529 C 0.69363 0.55334 0.12996 0.0
H530 H 0.58643 0.54724 0.09178 0.0
C531 C 0.73155 0.53618 0.11336 0.0
C532 C 0.71719 0.52143 0.08917 0.0
H533 H 0.70551 0.56174 0.1488 0.0
H534 H 0.77168 0.53204 0.11986 0.0
C535 C 0.66483 0.5281 0.08142 0.0
loop_
_geom_bond_atom_site_label_1
_geom_bond_atom_site_label_2
_geom_bond_distance
_geom_bond_site_symmetry_2
_ccdc_geom_bond_type
Mg0 O7 2.141 . S
Mg0 O8 2.048 . S
Mg0 O9 2.048 . S
Mg0 O12 2.141 . S
C1 O2 1.313 . S
C1 O8 1.195 . S
O2 C1 1.313 . S
C3 O4 1.245 . S
C3 O12 1.289 . S
O4 C3 1.245 . S
C5 O6 1.245 . S
C5 O7 1.289 . S
O6 C5 1.245 . S
O7 Mg0 2.141 . S
O7 C5 1.289 . S
O8 Mg0 2.048 . S
O8 C1 1.195 . S
O9 Mg0 2.048 . S
O9 C10 1.195 . S
C10 O9 1.195 . S
C10 O11 1.313 . S
O11 C10 1.313 . S
O12 Mg0 2.141 . S
O12 C3 1.289 . S
Mg13 O20 2.141 . S
Mg13 O21 2.048 . S
Mg13 O22 2.048 1_455 S
Mg13 O25 2.141 1_455 S
C14 O15 1.313 . S
C14 O21 1.195 . S
O15 C14 1.313 . S
C16 O17 1.245 1_655 S
C16 O25 1.289 . S
O17 C16 1.245 1_455 S
C18 O19 1.245 . S
C18 O20 1.289 . S
O19 C18 1.245 . S
O20 Mg13 2.141 . S
O20 C18 1.289 . S
O21 Mg13 2.048 . S
O21 C14 1.195 . S
O22 Mg13 2.048 1_655 S
O22 C23 1.195 . S
C23 O22 1.195 . S
C23 O24 1.313 1_655 S
O24 C23 1.313 1_455 S
O25 Mg13 2.141 1_655 S
O25 C16 1.289 . S
Mg26 O33 2.141 . S
Mg26 O34 2.048 . S
Mg26 O35 2.048 . S
Mg26 O38 2.141 . S
C27 O28 1.313 . S
C27 O34 1.195 . S
O28 C27 1.313 . S
C29 O30 1.245 . S
C29 O38 1.289 . S
O30 C29 1.245 . S
C31 O32 1.245 . S
C31 O33 1.289 . S
O32 C31 1.245 . S
O33 Mg26 2.141 . S
O33 C31 1.289 . S
O34 Mg26 2.048 . S
O34 C27 1.195 . S
O35 Mg26 2.048 . S
O35 C36 1.195 . S
C36 O35 1.195 . S
C36 O37 1.313 . S
O37 C36 1.313 . S
O38 Mg26 2.141 . S
O38 C29 1.289 . S
Mg39 O46 2.141 . S
Mg39 O47 2.048 . S
Mg39 O48 2.048 1_545 S
Mg39 O51 2.141 1_545 S
C40 O41 1.313 . S
C40 O47 1.195 . S
O41 C40 1.313 . S
C42 O43 1.245 . S
C42 O51 1.289 . S
O43 C42 1.245 . S
C44 O45 1.245 . S
C44 O46 1.289 . S
O45 C44 1.245 . S
O46 Mg39 2.141 . S
O46 C44 1.289 . S
O47 Mg39 2.048 . S
O47 C40 1.195 . S
O48 Mg39 2.048 1_565 S
O48 C49 1.195 . S
C49 O48 1.195 . S
C49 O50 1.313 . S
O50 C49 1.313 . S
O51 Mg39 2.141 1_565 S
O51 C42 1.289 . S
Mg52 O59 2.141 . S
Mg52 O60 2.048 . S
Mg52 O61 2.048 1_455 S
Mg52 O64 2.141 1_455 S
C53 O54 1.313 . S
C53 O60 1.195 . S
O54 C53 1.313 . S
C55 O56 1.245 . S
C55 O64 1.289 . S
O56 C55 1.245 . S
C57 O58 1.245 . S
C57 O59 1.289 . S
O58 C57 1.245 . S
O59 Mg52 2.141 . S
O59 C57 1.289 . S
O60 Mg52 2.048 . S
O60 C53 1.195 . S
O61 Mg52 2.048 1_655 S
O61 C62 1.195 . S
C62 O61 1.195 . S
C62 O63 1.313 . S
O63 C62 1.313 . S
O64 Mg52 2.141 1_655 S
O64 C55 1.289 . S
Mg65 O72 2.141 . S
Mg65 O73 2.048 . S
Mg65 O74 2.048 . S
Mg65 O77 2.141 . S
C66 O67 1.313 . S
C66 O73 1.195 . S
O67 C66 1.313 . S
C68 O69 1.245 . S
C68 O77 1.289 . S
O69 C68 1.245 . S
C70 O71 1.245 . S
C70 O72 1.289 . S
O71 C70 1.245 . S
O72 Mg65 2.141 . S
O72 C70 1.289 . S
O73 Mg65 2.048 . S
O73 C66 1.195 . S
O74 Mg65 2.048 . S
O74 C75 1.195 . S
C75 O74 1.195 . S
C75 O76 1.313 . S
O76 C75 1.313 . S
O77 Mg65 2.141 . S
O77 C68 1.289 . S
Mg78 O85 2.141 1_565 S
Mg78 O86 2.048 1_565 S
Mg78 O87 2.048 . S
Mg78 O90 2.141 . S
C79 O80 1.313 . S
C79 O86 1.195 . S
O80 C79 1.313 . S
C81 O82 1.245 1_565 S
C81 O90 1.289 . S
O82 C81 1.245 1_545 S
C83 O84 1.245 . S
C83 O85 1.289 . S
O84 C83 1.245 . S
O85 Mg78 2.141 1_545 S
O85 C83 1.289 . S
O86 Mg78 2.048 1_545 S
O86 C79 1.195 . S
O87 Mg78 2.048 . S
O87 C88 1.195 . S
C88 O87 1.195 . S
C88 O89 1.313 . S
O89 C88 1.313 . S
O90 Mg78 2.141 . S
O90 C81 1.289 . S
Mg91 O98 2.141 . S
Mg91 O99 2.048 . S
Mg91 O100 2.048 . S
Mg91 O103 2.141 . S
C92 O93 1.313 . S
C92 O99 1.195 . S
O93 C92 1.313 . S
C94 O95 1.245 . S
C94 O103 1.289 . S
O95 C94 1.245 . S
C96 O97 1.245 . S
C96 O98 1.289 . S
O97 C96 1.245 . S
O98 Mg91 2.141 . S
O98 C96 1.289 . S
O99 Mg91 2.048 . S
O99 C92 1.195 . S
O100 Mg91 2.048 . S
O100 C101 1.195 . S
C101 O100 1.195 . S
C101 O102 1.313 . S
O102 C101 1.313 . S
O103 Mg91 2.141 . S
O103 C94 1.289 . S
Zn104 O107 2.031 . S
Zn104 O109 2.049 1_556 S
Zn104 O114 2.067 . S
Zn105 O106 1.962 . S
Zn105 O108 1.986 . S
Zn105 O110 1.996 . S
Zn105 O113 1.943 . S
O106 Zn105 1.962 . S
O106 C111 1.254 . S
O107 Zn104 2.031 . S
O107 C111 1.269 1_556 S
O108 Zn105 1.986 . S
O108 C115 1.262 . S
O109 Zn104 2.049 1_554 S
O109 C117 1.260 . S
O110 Zn105 1.996 . S
O110 C117 1.257 . S
C111 O106 1.254 . S
C111 O107 1.269 1_554 S
C112 O113 1.249 1_556 S
C112 O114 1.270 . S
O113 Zn105 1.943 . S
O113 C112 1.249 1_554 S
O114 Zn104 2.067 . S
O114 C112 1.270 . S
C115 O108 1.262 . S
C115 O116 1.232 . S
O116 C115 1.232 . S
C117 O109 1.260 . S
C117 O110 1.257 . S
Zn118 O121 2.031 . S
Zn118 O123 2.049 . S
Zn118 O128 2.067 . S
Zn119 O120 1.962 . S
Zn119 O122 1.986 . S
Zn119 O124 1.996 . S
Zn119 O127 1.943 . S
O120 Zn119 1.962 . S
O120 C125 1.254 . S
O121 Zn118 2.031 . S
O121 C125 1.269 . S
O122 Zn119 1.986 . S
O122 C129 1.262 . S
O123 Zn118 2.049 . S
O123 C131 1.260 . S
O124 Zn119 1.996 . S
O124 C131 1.257 . S
C125 O120 1.254 . S
C125 O121 1.269 . S
C126 O127 1.249 . S
C126 O128 1.270 . S
O127 Zn119 1.943 . S
O127 C126 1.249 . S
O128 Zn118 2.067 . S
O128 C126 1.270 . S
C129 O122 1.262 . S
C129 O130 1.232 . S
O130 C129 1.232 . S
C131 O123 1.260 . S
C131 O124 1.257 . S
Zn132 O135 2.031 . S
Zn132 O137 2.049 . S
Zn132 O142 2.067 . S
Zn133 O134 1.962 . S
Zn133 O136 1.986 . S
Zn133 O138 1.996 . S
Zn133 O141 1.943 . S
O134 Zn133 1.962 . S
O134 C139 1.254 . S
O135 Zn132 2.031 . S
O135 C139 1.269 . S
O136 Zn133 1.986 . S
O136 C143 1.262 1_565 S
O137 Zn132 2.049 . S
O137 C145 1.260 . S
O138 Zn133 1.996 . S
O138 C145 1.257 . S
C139 O134 1.254 . S
C139 O135 1.269 . S
C140 O141 1.249 . S
C140 O142 1.270 . S
O141 Zn133 1.943 . S
O141 C140 1.249 . S
O142 Zn132 2.067 . S
O142 C140 1.270 . S
C143 O136 1.262 1_545 S
C143 O144 1.232 . S
O144 C143 1.232 . S
C145 O137 1.260 . S
C145 O138 1.257 . S
Zn146 O149 2.031 . S
Zn146 O151 2.049 . S
Zn146 O156 2.067 . S
Zn147 O148 1.962 . S
Zn147 O150 1.986 . S
Zn147 O152 1.996 . S
Zn147 O155 1.943 . S
O148 Zn147 1.962 . S
O148 C153 1.254 . S
O149 Zn146 2.031 . S
O149 C153 1.269 . S
O150 Zn147 1.986 . S
O150 C157 1.262 . S
O151 Zn146 2.049 . S
O151 C159 1.260 . S
O152 Zn147 1.996 . S
O152 C159 1.257 . S
C153 O148 1.254 . S
C153 O149 1.269 . S
C154 O155 1.249 . S
C154 O156 1.270 . S
O155 Zn147 1.943 . S
O155 C154 1.249 . S
O156 Zn146 2.067 . S
O156 C154 1.270 . S
C157 O150 1.262 . S
C157 O158 1.232 . S
O158 C157 1.232 . S
C159 O151 1.260 . S
C159 O152 1.257 . S
Zn160 O163 2.031 . S
Zn160 O165 2.049 . S
Zn160 O170 2.067 . S
Zn161 O162 1.962 . S
Zn161 O164 1.986 . S
Zn161 O166 1.996 . S
Zn161 O169 1.943 1_655 S
O162 Zn161 1.962 . S
O162 C167 1.254 . S
O163 Zn160 2.031 . S
O163 C167 1.269 . S
O164 Zn161 1.986 . S
O164 C171 1.262 1_655 S
O165 Zn160 2.049 . S
O165 C173 1.260 . S
O166 Zn161 1.996 . S
O166 C173 1.257 . S
C167 O162 1.254 . S
C167 O163 1.269 . S
C168 O169 1.249 1_655 S
C168 O170 1.270 . S
O169 Zn161 1.943 1_455 S
O169 C168 1.249 1_455 S
O170 Zn160 2.067 . S
O170 C168 1.270 . S
C171 O164 1.262 1_455 S
C171 O172 1.232 . S
O172 C171 1.232 . S
C173 O165 1.260 . S
C173 O166 1.257 . S
Zn174 O177 2.031 . S
Zn174 O179 2.049 . S
Zn174 O184 2.067 . S
Zn175 O176 1.962 . S
Zn175 O178 1.986 . S
Zn175 O180 1.996 . S
Zn175 O183 1.943 . S
O176 Zn175 1.962 . S
O176 C181 1.254 . S
O177 Zn174 2.031 . S
O177 C181 1.269 . S
O178 Zn175 1.986 . S
O178 C185 1.262 . S
O179 Zn174 2.049 . S
O179 C187 1.260 . S
O180 Zn175 1.996 . S
O180 C187 1.257 . S
C181 O176 1.254 . S
C181 O177 1.269 . S
C182 O183 1.249 . S
C182 O184 1.270 . S
O183 Zn175 1.943 . S
O183 C182 1.249 . S
O184 Zn174 2.067 . S
O184 C182 1.270 . S
C185 O178 1.262 . S
C185 O186 1.232 . S
O186 C185 1.232 . S
C187 O179 1.260 . S
C187 O180 1.257 . S
Zn188 O191 2.031 . S
Zn188 O193 2.049 . S
Zn188 O198 2.067 . S
Zn189 O190 1.962 . S
Zn189 O192 1.986 . S
Zn189 O194 1.996 . S
Zn189 O197 1.943 1_556 S
O190 Zn189 1.962 . S
O190 C195 1.254 1_556 S
O191 Zn188 2.031 . S
O191 C195 1.269 . S
O192 Zn189 1.986 . S
O192 C199 1.262 . S
O193 Zn188 2.049 . S
O193 C201 1.251 1_554 S
O194 Zn189 1.996 . S
O194 C201 1.259 . S
C195 O190 1.254 1_554 S
C195 O191 1.269 . S
C196 O197 1.249 . S
C196 O198 1.270 . S
O197 Zn189 1.943 1_554 S
O197 C196 1.249 . S
O198 Zn188 2.067 . S
O198 C196 1.270 . S
C199 O192 1.262 . S
C199 O200 1.232 . S
O200 C199 1.232 . S
C201 O193 1.251 1_556 S
C201 O194 1.259 . S
Zn202 O205 2.031 . S
Zn202 O207 2.049 . S
Zn202 O212 2.067 . S
Zn203 O204 1.962 . S
Zn203 O206 1.986 . S
Zn203 O208 1.996 . S
Zn203 O211 1.943 . S
O204 Zn203 1.962 . S
O204 C209 1.254 . S
O205 Zn202 2.031 . S
O205 C209 1.269 . S
O206 Zn203 1.986 . S
O206 C213 1.262 . S
O207 Zn202 2.049 . S
O207 C215 1.260 . S
O208 Zn203 1.996 . S
O208 C215 1.257 . S
C209 O204 1.254 . S
C209 O205 1.269 . S
C210 O211 1.249 . S
C210 O212 1.270 . S
O211 Zn203 1.943 . S
O211 C210 1.249 . S
O212 Zn202 2.067 . S
O212 C210 1.270 . S
C213 O206 1.262 . S
C213 O214 1.232 . S
O214 C213 1.232 . S
C215 O207 1.260 . S
C215 O208 1.257 . S
C216 C217 1.387 . S
C216 H220 0.950 . S
C216 C225 1.390 1_545 S
C217 C216 1.387 . S
C217 C219 1.387 1_545 S
H218 C225 0.950 . S
C219 C217 1.387 1_565 S
C219 C221 1.390 . S
C219 H223 0.950 1_565 S
H220 C216 0.950 . S
C221 C219 1.390 . S
C221 C222 1.387 . S
C221 H224 0.950 . S
C222 C221 1.387 . S
C222 C225 1.387 . S
H223 C219 0.950 1_545 S
H224 C221 0.950 . S
C225 C216 1.390 1_565 S
C225 H218 0.950 . S
C225 C222 1.387 . S
C226 C227 1.387 . S
C226 H230 0.950 . S
C226 C235 1.390 . S
C227 C226 1.387 . S
C227 C229 1.387 . S
H228 C235 0.950 . S
C229 C227 1.387 . S
C229 C231 1.390 . S
C229 H233 0.950 . S
H230 C226 0.950 . S
C231 C229 1.390 . S
C231 C232 1.387 . S
C231 H234 0.950 . S
C232 C231 1.387 . S
C232 C235 1.387 . S
H233 C229 0.950 . S
H234 C231 0.950 . S
C235 C226 1.390 . S
C235 H228 0.950 . S
C235 C232 1.387 . S
C236 C237 1.387 . S
C236 H240 0.950 . S
C236 C245 1.390 . S
C237 C236 1.387 . S
C237 C239 1.387 . S
H238 C245 0.950 . S
C239 C237 1.387 . S
C239 C241 1.390 . S
C239 H243 0.950 . S
H240 C236 0.950 . S
C241 C239 1.390 . S
C241 C242 1.387 . S
C241 H244 0.950 . S
C242 C241 1.387 . S
C242 C245 1.387 . S
H243 C239 0.950 . S
H244 C241 0.950 . S
C245 C236 1.390 . S
C245 H238 0.950 . S
C245 C242 1.387 . S
C246 C247 1.387 . S
C246 H250 0.950 . S
C246 C255 1.390 . S
C247 C246 1.387 . S
C247 C249 1.387 . S
H248 C255 0.950 . S
C249 C247 1.387 . S
C249 C251 1.390 . S
C249 H253 0.950 . S
H250 C246 0.950 . S
C251 C249 1.390 . S
C251 C252 1.387 . S
C251 H254 0.950 . S
C252 C251 1.387 . S
C252 C255 1.387 . S
H253 C249 0.950 . S
H254 C251 0.950 . S
C255 C246 1.390 . S
C255 H248 0.950 . S
C255 C252 1.387 . S
C256 C257 1.387 . S
C256 H260 0.950 . S
C256 C265 1.390 . S
C257 C256 1.387 . S
C257 C259 1.387 . S
H258 C265 0.950 1_554 S
C259 C257 1.387 . S
C259 C261 1.390 . S
C259 H263 0.950 . S
H260 C256 0.950 . S
C261 C259 1.390 . S
C261 C262 1.387 . S
C261 H264 0.950 . S
C262 C261 1.387 . S
C262 C265 1.387 . S
H263 C259 0.950 . S
H264 C261 0.950 . S
C265 C256 1.390 . S
C265 H258 0.950 1_556 S
C265 C262 1.387 . S
C266 C267 1.387 . S
C266 H270 0.950 . S
C266 C275 1.390 . S
C267 C266 1.387 . S
C267 C269 1.387 . S
H268 C275 0.950 . S
C269 C267 1.387 . S
C269 C271 1.390 . S
C269 H273 0.950 . S
H270 C266 0.950 . S
C271 C269 1.390 . S
C271 C272 1.387 . S
C271 H274 0.950 . S
C272 C271 1.387 . S
C272 C275 1.387 . S
H273 C269 0.950 . S
H274 C271 0.950 . S
C275 C266 1.390 . S
C275 H268 0.950 . S
C275 C272 1.387 . S
C276 C277 1.387 . S
C276 H280 0.950 1_565 S
C276 C285 1.390 . S
C277 C276 1.387 . S
C277 C279 1.387 . S
H278 C285 0.950 1_545 S
C279 C277 1.387 . S
C279 C281 1.390 . S
C279 H283 0.950 . S
H280 C276 0.950 1_545 S
C281 C279 1.390 . S
C281 C282 1.387 . S
C281 H284 0.950 . S
C282 C281 1.387 . S
C282 C285 1.387 . S
H283 C279 0.950 . S
H284 C281 0.950 . S
C285 C276 1.390 . S
C285 H278 0.950 1_565 S
C285 C282 1.387 . S
C286 C287 1.387 . S
C286 H290 0.950 . S
C286 C295 1.390 . S
C287 C286 1.387 . S
C287 C289 1.387 . S
H288 C295 0.950 . S
C289 C287 1.387 . S
C289 C291 1.390 1_545 S
C289 H293 0.950 . S
H290 C286 0.950 . S
C291 C289 1.390 1_565 S
C291 C292 1.387 . S
C291 H294 0.950 . S
C292 C291 1.387 . S
C292 C295 1.387 1_565 S
H293 C289 0.950 . S
H294 C291 0.950 . S
C295 C286 1.390 . S
C295 H288 0.950 . S
C295 C292 1.387 1_545 S
C296 C297 1.387 . S
C296 H300 0.950 . S
C296 C305 1.390 . S
C297 C296 1.387 . S
C297 C299 1.387 . S
H298 C305 0.950 . S
C299 C297 1.387 . S
C299 C301 1.390 . S
C299 H303 0.950 . S
H300 C296 0.950 . S
C301 C299 1.390 . S
C301 C302 1.387 . S
C301 H304 0.950 . S
C302 C301 1.387 . S
C302 C305 1.387 . S
H303 C299 0.950 . S
H304 C301 0.950 . S
C305 C296 1.390 . S
C305 H298 0.950 . S
C305 C302 1.387 . S
C306 C307 1.387 . S
C306 H310 0.950 . S
C306 C315 1.390 . S
C307 C306 1.387 . S
C307 C309 1.387 . S
H308 C315 0.950 . S
C309 C307 1.387 . S
C309 C311 1.390 . S
C309 H313 0.950 . S
H310 C306 0.950 . S
C311 C309 1.390 . S
C311 C312 1.387 . S
C311 H314 0.950 . S
C312 C311 1.387 . S
C312 C315 1.387 . S
H313 C309 0.950 . S
H314 C311 0.950 . S
C315 C306 1.390 . S
C315 H308 0.950 . S
C315 C312 1.387 . S
C316 C317 1.387 . S
C316 H320 0.950 . S
C316 C325 1.390 . S
C317 C316 1.387 . S
C317 C319 1.387 . S
H318 C325 0.950 . S
C319 C317 1.387 . S
C319 C321 1.390 . S
C319 H323 0.950 . S
H320 C316 0.950 . S
C321 C319 1.390 . S
C321 C322 1.387 1_455 S
C321 H324 0.950 1_455 S
C322 C321 1.387 1_655 S
C322 C325 1.387 1_655 S
H323 C319 0.950 . S
H324 C321 0.950 1_655 S
C325 C316 1.390 . S
C325 H318 0.950 . S
C325 C322 1.387 1_455 S
C326 C327 1.387 . S
C326 H330 0.950 . S
C326 C335 1.390 . S
C327 C326 1.387 . S
C327 C329 1.387 1_655 S
H328 C335 0.950 . S
C329 C327 1.387 1_455 S
C329 C331 1.390 1_455 S
C329 H333 0.950 . S
H330 C326 0.950 . S
C331 C329 1.390 1_655 S
C331 C332 1.387 . S
C331 H334 0.950 1_655 S
C332 C331 1.387 . S
C332 C335 1.387 . S
H333 C329 0.950 . S
H334 C331 0.950 1_455 S
C335 C326 1.390 . S
C335 H328 0.950 . S
C335 C332 1.387 . S
C336 C337 1.387 . S
C336 H340 0.950 . S
C336 C345 1.390 . S
C337 C336 1.387 . S
C337 C339 1.387 . S
H338 C345 0.950 . S
C339 C337 1.387 . S
C339 C341 1.390 . S
C339 H343 0.950 . S
H340 C336 0.950 . S
C341 C339 1.390 . S
C341 C342 1.387 . S
C341 H344 0.950 . S
C342 C341 1.387 . S
C342 C345 1.387 . S
H343 C339 0.950 . S
H344 C341 0.950 . S
C345 C336 1.390 . S
C345 H338 0.950 . S
C345 C342 1.387 . S
C346 C347 1.387 . S
C346 H350 0.950 . S
C346 C355 1.390 1_455 S
C347 C346 1.387 . S
C347 C349 1.387 . S
H348 C355 0.950 . S
C349 C347 1.387 . S
C349 C351 1.390 1_455 S
C349 H353 0.950 . S
H350 C346 0.950 . S
C351 C349 1.390 1_655 S
C351 C352 1.387 . S
C351 H354 0.950 . S
C352 C351 1.387 . S
C352 C355 1.387 . S
H353 C349 0.950 . S
H354 C351 0.950 . S
C355 C346 1.390 1_655 S
C355 H348 0.950 . S
C355 C352 1.387 . S
C356 C357 1.387 . S
C356 H360 0.950 . S
C356 C365 1.390 . S
C357 C356 1.387 . S
C357 C359 1.387 . S
H358 C365 0.950 . S
C359 C357 1.387 . S
C359 C361 1.390 1_556 S
C359 H363 0.950 1_556 S
H360 C356 0.950 . S
C361 C359 1.390 1_554 S
C361 C362 1.387 1_554 S
C361 H364 0.950 . S
C362 C361 1.387 1_556 S
C362 C365 1.387 . S
H363 C359 0.950 1_554 S
H364 C361 0.950 . S
C365 C356 1.390 . S
C365 H358 0.950 . S
C365 C362 1.387 . S
C366 C367 1.387 . S
C366 H370 0.950 . S
C366 C375 1.390 . S
C367 C366 1.387 . S
C367 C369 1.387 . S
H368 C375 0.950 . S
C369 C367 1.387 . S
C369 C371 1.390 . S
C369 H373 0.950 . S
H370 C366 0.950 . S
C371 C369 1.390 . S
C371 C372 1.387 . S
C371 H374 0.950 . S
C372 C371 1.387 . S
C372 C375 1.387 . S
H373 C369 0.950 . S
H374 C371 0.950 . S
C375 C366 1.390 . S
C375 H368 0.950 . S
C375 C372 1.387 . S
C376 C377 1.387 . S
C376 H380 0.950 . S
C376 C385 1.390 . S
C377 C376 1.387 . S
C377 C379 1.387 . S
H378 C385 0.950 1_565 S
C379 C377 1.387 . S
C379 C381 1.390 . S
C379 H383 0.950 . S
H380 C376 0.950 . S
C381 C379 1.390 . S
C381 C382 1.387 1_545 S
C381 H384 0.950 . S
C382 C381 1.387 1_565 S
C382 C385 1.387 1_565 S
H383 C379 0.950 . S
H384 C381 0.950 . S
C385 C376 1.390 . S
C385 H378 0.950 1_545 S
C385 C382 1.387 1_545 S
C386 C387 1.387 . S
C386 H390 0.950 . S
C386 C395 1.390 . S
C387 C386 1.387 . S
C387 C389 1.387 . S
H388 C395 0.950 . S
C389 C387 1.387 . S
C389 C391 1.390 . S
C389 H393 0.950 . S
H390 C386 0.950 . S
C391 C389 1.390 . S
C391 C392 1.387 . S
C391 H394 0.950 . S
C392 C391 1.387 . S
C392 C395 1.387 . S
H393 C389 0.950 . S
H394 C391 0.950 . S
C395 C386 1.390 . S
C395 H388 0.950 . S
C395 C392 1.387 . S
C396 C397 1.387 . S
C396 H400 0.950 . S
C396 C405 1.390 . S
C397 C396 1.387 . S
C397 C399 1.387 . S
H398 C405 0.950 . S
C399 C397 1.387 . S
C399 C401 1.390 . S
C399 H403 0.950 . S
H400 C396 0.950 . S
C401 C399 1.390 . S
C401 C402 1.387 . S
C401 H404 0.950 . S
C402 C401 1.387 . S
C402 C405 1.387 . S
H403 C399 0.950 . S
H404 C401 0.950 . S
C405 C396 1.390 . S
C405 H398 0.950 . S
C405 C402 1.387 . S
C406 C407 1.387 . S
C406 H410 0.950 . S
C406 C415 1.390 . S
C407 C406 1.387 . S
C407 C409 1.387 . S
H408 C415 0.950 . S
C409 C407 1.387 . S
C409 C411 1.390 . S
C409 H413 0.950 . S
H410 C406 0.950 . S
C411 C409 1.390 . S
C411 C412 1.387 . S
C411 H414 0.950 . S
C412 C411 1.387 . S
C412 C415 1.387 . S
H413 C409 0.950 . S
H414 C411 0.950 . S
C415 C406 1.390 . S
C415 H408 0.950 . S
C415 C412 1.387 . S
C416 C417 1.387 . S
C416 H420 0.950 . S
C416 C425 1.390 . S
C417 C416 1.387 . S
C417 C419 1.387 . S
H418 C425 0.950 . S
C419 C417 1.387 . S
C419 C421 1.390 . S
C419 H423 0.950 . S
H420 C416 0.950 . S
C421 C419 1.390 . S
C421 C422 1.387 . S
C421 H424 0.950 . S
C422 C421 1.387 . S
C422 C425 1.387 . S
H423 C419 0.950 . S
H424 C421 0.950 . S
C425 C416 1.390 . S
C425 H418 0.950 . S
C425 C422 1.387 . S
C426 C427 1.387 . S
C426 H430 0.950 . S
C426 C435 1.390 . S
C427 C426 1.387 . S
C427 C429 1.387 . S
H428 C435 0.950 . S
C429 C427 1.387 . S
C429 C431 1.390 . S
C429 H433 0.950 . S
H430 C426 0.950 . S
C431 C429 1.390 . S
C431 C432 1.387 . S
C431 H434 0.950 . S
C432 C431 1.387 . S
C432 C435 1.387 . S
H433 C429 0.950 . S
H434 C431 0.950 . S
C435 C426 1.390 . S
C435 H428 0.950 . S
C435 C432 1.387 . S
C436 C437 1.387 . S
C436 H440 0.950 . S
C436 C445 1.390 . S
C437 C436 1.387 . S
C437 C439 1.387 . S
H438 C445 0.950 . S
C439 C437 1.387 . S
C439 C441 1.390 . S
C439 H443 0.950 . S
H440 C436 0.950 . S
C441 C439 1.390 . S
C441 C442 1.387 . S
C441 H444 0.950 . S
C442 C441 1.387 . S
C442 C445 1.387 . S
H443 C439 0.950 . S
H444 C441 0.950 . S
C445 C436 1.390 . S
C445 H438 0.950 . S
C445 C442 1.387 . S
C446 C447 1.387 . S
C446 H450 0.950 . S
C446 C455 1.390 . S
C447 C446 1.387 . S
C447 C449 1.387 . S
H448 C455 0.950 1_565 S
C449 C447 1.387 . S
C449 C451 1.390 . S
C449 H453 0.950 . S
H450 C446 0.950 . S
C451 C449 1.390 . S
C451 C452 1.387 . S
C451 H454 0.950 . S
C452 C451 1.387 . S
C452 C455 1.387 . S
H453 C449 0.950 . S
H454 C451 0.950 . S
C455 C446 1.390 . S
C455 H448 0.950 1_545 S
C455 C452 1.387 . S
C456 C457 1.387 . S
C456 H460 0.950 . S
C456 C465 1.390 . S
C457 C456 1.387 . S
C457 C459 1.387 . S
H458 C465 0.950 . S
C459 C457 1.387 . S
C459 C461 1.390 . S
C459 H463 0.950 . S
H460 C456 0.950 . S
C461 C459 1.390 . S
C461 C462 1.387 . S
C461 H464 0.950 . S
C462 C461 1.387 . S
C462 C465 1.387 . S
H463 C459 0.950 . S
H464 C461 0.950 . S
C465 C456 1.390 . S
C465 H458 0.950 . S
C465 C462 1.387 . S
C466 C467 1.387 . S
C466 H470 0.950 . S
C466 C475 1.390 . S
C467 C466 1.387 . S
C467 C469 1.387 . S
H468 C475 0.950 . S
C469 C467 1.387 . S
C469 C471 1.390 . S
C469 H473 0.950 . S
H470 C466 0.950 . S
C471 C469 1.390 . S
C471 C472 1.387 . S
C471 H474 0.950 . S
C472 C471 1.387 . S
C472 C475 1.387 . S
H473 C469 0.950 . S
H474 C471 0.950 . S
C475 C466 1.390 . S
C475 H468 0.950 . S
C475 C472 1.387 . S
C476 C477 1.387 . S
C476 H480 0.950 . S
C476 C485 1.390 . S
C477 C476 1.387 . S
C477 C479 1.387 . S
H478 C485 0.950 . S
C479 C477 1.387 . S
C479 C481 1.390 . S
C479 H483 0.950 . S
H480 C476 0.950 . S
C481 C479 1.390 . S
C481 C482 1.387 . S
C481 H484 0.950 . S
C482 C481 1.387 . S
C482 C485 1.387 . S
H483 C479 0.950 . S
H484 C481 0.950 . S
C485 C476 1.390 . S
C485 H478 0.950 . S
C485 C482 1.387 . S
C486 C487 1.387 . S
C486 H490 0.950 . S
C486 C495 1.390 . S
C487 C486 1.387 . S
C487 C489 1.387 . S
H488 C495 0.950 . S
C489 C487 1.387 . S
C489 C491 1.390 . S
C489 H493 0.950 . S
H490 C486 0.950 . S
C491 C489 1.390 . S
C491 C492 1.387 . S
C491 H494 0.950 . S
C492 C491 1.387 . S
C492 C495 1.387 . S
H493 C489 0.950 . S
H494 C491 0.950 . S
C495 C486 1.390 . S
C495 H488 0.950 . S
C495 C492 1.387 . S
C496 C497 1.387 . S
C496 H500 0.950 . S
C496 C505 1.390 . S
C497 C496 1.387 . S
C497 C499 1.387 . S
H498 C505 0.950 . S
C499 C497 1.387 . S
C499 C501 1.390 . S
C499 H503 0.950 . S
H500 C496 0.950 . S
C501 C499 1.390 . S
C501 C502 1.387 . S
C501 H504 0.950 . S
C502 C501 1.387 . S
C502 C505 1.387 . S
H503 C499 0.950 . S
H504 C501 0.950 . S
C505 C496 1.390 . S
C505 H498 0.950 . S
C505 C502 1.387 . S
C506 C507 1.387 . S
C506 H510 0.950 . S
C506 C515 1.390 . S
C507 C506 1.387 . S
C507 C509 1.387 . S
H508 C515 0.950 . S
C509 C507 1.387 . S
C509 C511 1.390 . S
C509 H513 0.950 . S
H510 C506 0.950 . S
C511 C509 1.390 . S
C511 C512 1.387 . S
C511 H514 0.950 1_455 S
C512 C511 1.387 . S
C512 C515 1.387 . S
H513 C509 0.950 . S
H514 C511 0.950 1_655 S
C515 C506 1.390 . S
C515 H508 0.950 . S
C515 C512 1.387 . S
C516 C517 1.387 . S
C516 H520 0.950 . S
C516 C525 1.390 . S
C517 C516 1.387 . S
C517 C519 1.387 . S
H518 C525 0.950 . S
C519 C517 1.387 . S
C519 C521 1.390 . S
C519 H523 0.950 . S
H520 C516 0.950 . S
C521 C519 1.390 . S
C521 C522 1.387 . S
C521 H524 0.950 . S
C522 C521 1.387 . S
C522 C525 1.387 . S
H523 C519 0.950 . S
H524 C521 0.950 . S
C525 C516 1.390 . S
C525 H518 0.950 . S
C525 C522 1.387 . S
C526 C527 1.387 . S
C526 H530 0.950 . S
C526 C535 1.390 . S
C527 C526 1.387 . S
C527 C529 1.387 . S
H528 C535 0.950 . S
C529 C527 1.387 . S
C529 C531 1.390 . S
C529 H533 0.950 . S
H530 C526 0.950 . S
C531 C529 1.390 . S
C531 C532 1.387 . S
C531 H534 0.950 . S
C532 C531 1.387 . S
C532 C535 1.387 . S
H533 C529 0.950 . S
H534 C531 0.950 . S
C535 C526 1.390 . S
C535 H528 0.950 . S
C535 C532 1.387 . S
C222 C125 1.563 . S
C217 C5 1.506 . S
C232 C145 1.631 . S
C227 C18 1.568 . S
C242 C159 1.619 . S
C237 C31 1.565 . S
C247 C42 1.614 . S
C252 C117 1.595 . S
C257 C57 1.431 . S
C262 C111 1.447 1_556 S
C267 C70 1.438 . S
C272 C131 1.432 . S
C282 C139 1.352 . S
C277 C81 1.326 . S
C292 C153 1.401 . S
C287 C96 1.396 . S
C297 C29 1.335 . S
C302 C181 1.401 . S
C312 C195 1.352 . S
C307 C44 1.369 . S
C317 C3 1.387 . S
C322 C215 1.432 . S
C332 C167 1.448 . S
C327 C16 1.361 . S
C337 C83 1.549 . S
C342 C173 1.595 . S
C347 C94 1.643 . S
C352 C187 1.619 . S
C362 C201 1.638 . S
C357 C55 1.653 . S
C367 C68 1.582 . S
C372 C209 1.566 . S
C382 C140 1.760 . S
C377 C1 1.629 . S
C392 C154 1.759 . S
C387 C14 1.625 . S
C397 C27 1.582 . S
C402 C112 1.711 . S
C407 C49 1.561 . S
C412 C129 1.585 . S
C417 C53 1.285 . S
C422 C157 1.293 . S
C432 C115 1.265 . S
C427 C66 1.256 . S
C442 C126 1.371 . S
C437 C88 1.358 . S
C452 C143 1.328 . S
C447 C92 1.320 . S
C462 C199 1.330 . S
C457 C36 1.322 . S
C472 C210 1.371 . S
C467 C40 1.358 . S
C477 C10 1.256 . S
C482 C171 1.265 . S
C492 C185 1.292 . S
C487 C23 1.285 . S
C502 C213 1.585 . S
C497 C79 1.483 . S
C507 C101 1.673 . S
C512 C168 1.711 1_455 S
C522 C182 1.759 . S
C517 C62 1.718 . S
C532 C196 1.760 . S
C527 C75 1.719 . S
