# Generated by pormake.
# Topology gar, (4,6)-cn, num edge types: 1
# Building blocks:
#     Node 0, Type 0, BuildingBlock: TATPOV_clean_sbu_0, # of connection points: 4
#     Node 1, Type 0, BuildingBlock: TATPOV_clean_sbu_0, # of connection points: 4
#     Node 2, Type 0, BuildingBlock: TATPOV_clean_sbu_0, # of connection points: 4
#     Node 3, Type 0, BuildingBlock: TATPOV_clean_sbu_0, # of connection points: 4
#     Node 4, Type 0, BuildingBlock: TATPOV_clean_sbu_0, # of connection points: 4
#     Node 5, Type 0, BuildingBlock: TATPOV_clean_sbu_0, # of connection points: 4
#     Node 6, Type 0, BuildingBlock: TATPOV_clean_sbu_0, # of connection points: 4
#     Node 7, Type 0, BuildingBlock: TATPOV_clean_sbu_0, # of connection points: 4
#     Node 8, Type 0, BuildingBlock: TATPOV_clean_sbu_0, # of connection points: 4
#     Node 9, Type 0, BuildingBlock: TATPOV_clean_sbu_0, # of connection points: 4
#     Node 10, Type 0, BuildingBlock: TATPOV_clean_sbu_0, # of connection points: 4
#     Node 11, Type 0, BuildingBlock: TATPOV_clean_sbu_0, # of connection points: 4
#     Node 12, Type 0, BuildingBlock: TATPOV_clean_sbu_0, # of connection points: 4
#     Node 13, Type 0, BuildingBlock: TATPOV_clean_sbu_0, # of connection points: 4
#     Node 14, Type 0, BuildingBlock: TATPOV_clean_sbu_0, # of connection points: 4
#     Node 15, Type 0, BuildingBlock: TATPOV_clean_sbu_0, # of connection points: 4
#     Node 16, Type 0, BuildingBlock: TATPOV_clean_sbu_0, # of connection points: 4
#     Node 17, Type 0, BuildingBlock: TATPOV_clean_sbu_0, # of connection points: 4
#     Node 18, Type 0, BuildingBlock: TATPOV_clean_sbu_0, # of connection points: 4
#     Node 19, Type 0, BuildingBlock: TATPOV_clean_sbu_0, # of connection points: 4
#     Node 20, Type 0, BuildingBlock: TATPOV_clean_sbu_0, # of connection points: 4
#     Node 21, Type 0, BuildingBlock: TATPOV_clean_sbu_0, # of connection points: 4
#     Node 22, Type 0, BuildingBlock: TATPOV_clean_sbu_0, # of connection points: 4
#     Node 23, Type 0, BuildingBlock: TATPOV_clean_sbu_0, # of connection points: 4
#     Node 24, Type 1, BuildingBlock: CUKXOW_clean_sbu_0, # of connection points: 6
#     Node 25, Type 1, BuildingBlock: CUKXOW_clean_sbu_0, # of connection points: 6
#     Node 26, Type 1, BuildingBlock: CUKXOW_clean_sbu_0, # of connection points: 6
#     Node 27, Type 1, BuildingBlock: CUKXOW_clean_sbu_0, # of connection points: 6
#     Node 28, Type 1, BuildingBlock: CUKXOW_clean_sbu_0, # of connection points: 6
#     Node 29, Type 1, BuildingBlock: CUKXOW_clean_sbu_0, # of connection points: 6
#     Node 30, Type 1, BuildingBlock: CUKXOW_clean_sbu_0, # of connection points: 6
#     Node 31, Type 1, BuildingBlock: CUKXOW_clean_sbu_0, # of connection points: 6
#     Node 32, Type 1, BuildingBlock: CUKXOW_clean_sbu_0, # of connection points: 6
#     Node 33, Type 1, BuildingBlock: CUKXOW_clean_sbu_0, # of connection points: 6
#     Node 34, Type 1, BuildingBlock: CUKXOW_clean_sbu_0, # of connection points: 6
#     Node 35, Type 1, BuildingBlock: CUKXOW_clean_sbu_0, # of connection points: 6
#     Node 36, Type 1, BuildingBlock: CUKXOW_clean_sbu_0, # of connection points: 6
#     Node 37, Type 1, BuildingBlock: CUKXOW_clean_sbu_0, # of connection points: 6
#     Node 38, Type 1, BuildingBlock: CUKXOW_clean_sbu_0, # of connection points: 6
#     Node 39, Type 1, BuildingBlock: CUKXOW_clean_sbu_0, # of connection points: 6
#     Edge 40, Type (0, 1), BuildingBlock: AJUNOK_clean_linker_0, # of connection points: 2
#     Edge 41, Type (0, 1), BuildingBlock: AJUNOK_clean_linker_0, # of connection points: 2
#     Edge 42, Type (0, 1), BuildingBlock: AJUNOK_clean_linker_0, # of connection points: 2
#     Edge 43, Type (0, 1), BuildingBlock: AJUNOK_clean_linker_0, # of connection points: 2
#     Edge 44, Type (0, 1), BuildingBlock: AJUNOK_clean_linker_0, # of connection points: 2
#     Edge 45, Type (0, 1), BuildingBlock: AJUNOK_clean_linker_0, # of connection points: 2
#     Edge 46, Type (0, 1), BuildingBlock: AJUNOK_clean_linker_0, # of connection points: 2
#     Edge 47, Type (0, 1), BuildingBlock: AJUNOK_clean_linker_0, # of connection points: 2
#     Edge 48, Type (0, 1), BuildingBlock: AJUNOK_clean_linker_0, # of connection points: 2
#     Edge 49, Type (0, 1), BuildingBlock: AJUNOK_clean_linker_0, # of connection points: 2
#     Edge 50, Type (0, 1), BuildingBlock: AJUNOK_clean_linker_0, # of connection points: 2
#     Edge 51, Type (0, 1), BuildingBlock: AJUNOK_clean_linker_0, # of connection points: 2
#     Edge 52, Type (0, 1), BuildingBlock: AJUNOK_clean_linker_0, # of connection points: 2
#     Edge 53, Type (0, 1), BuildingBlock: AJUNOK_clean_linker_0, # of connection points: 2
#     Edge 54, Type (0, 1), BuildingBlock: AJUNOK_clean_linker_0, # of connection points: 2
#     Edge 55, Type (0, 1), BuildingBlock: AJUNOK_clean_linker_0, # of connection points: 2
#     Edge 56, Type (0, 1), BuildingBlock: AJUNOK_clean_linker_0, # of connection points: 2
#     Edge 57, Type (0, 1), BuildingBlock: AJUNOK_clean_linker_0, # of connection points: 2
#     Edge 58, Type (0, 1), BuildingBlock: AJUNOK_clean_linker_0, # of connection points: 2
#     Edge 59, Type (0, 1), BuildingBlock: AJUNOK_clean_linker_0, # of connection points: 2
#     Edge 60, Type (0, 1), BuildingBlock: AJUNOK_clean_linker_0, # of connection points: 2
#     Edge 61, Type (0, 1), BuildingBlock: AJUNOK_clean_linker_0, # of connection points: 2
#     Edge 62, Type (0, 1), BuildingBlock: AJUNOK_clean_linker_0, # of connection points: 2
#     Edge 63, Type (0, 1), BuildingBlock: AJUNOK_clean_linker_0, # of connection points: 2
#     Edge 64, Type (0, 1), BuildingBlock: AJUNOK_clean_linker_0, # of connection points: 2
#     Edge 65, Type (0, 1), BuildingBlock: AJUNOK_clean_linker_0, # of connection points: 2
#     Edge 66, Type (0, 1), BuildingBlock: AJUNOK_clean_linker_0, # of connection points: 2
#     Edge 67, Type (0, 1), BuildingBlock: AJUNOK_clean_linker_0, # of connection points: 2
#     Edge 68, Type (0, 1), BuildingBlock: AJUNOK_clean_linker_0, # of connection points: 2
#     Edge 69, Type (0, 1), BuildingBlock: AJUNOK_clean_linker_0, # of connection points: 2
#     Edge 70, Type (0, 1), BuildingBlock: AJUNOK_clean_linker_0, # of connection points: 2
#     Edge 71, Type (0, 1), BuildingBlock: AJUNOK_clean_linker_0, # of connection points: 2
#     Edge 72, Type (0, 1), BuildingBlock: AJUNOK_clean_linker_0, # of connection points: 2
#     Edge 73, Type (0, 1), BuildingBlock: AJUNOK_clean_linker_0, # of connection points: 2
#     Edge 74, Type (0, 1), BuildingBlock: AJUNOK_clean_linker_0, # of connection points: 2
#     Edge 75, Type (0, 1), BuildingBlock: AJUNOK_clean_linker_0, # of connection points: 2
#     Edge 76, Type (0, 1), BuildingBlock: AJUNOK_clean_linker_0, # of connection points: 2
#     Edge 77, Type (0, 1), BuildingBlock: AJUNOK_clean_linker_0, # of connection points: 2
#     Edge 78, Type (0, 1), BuildingBlock: AJUNOK_clean_linker_0, # of connection points: 2
#     Edge 79, Type (0, 1), BuildingBlock: AJUNOK_clean_linker_0, # of connection points: 2
#     Edge 80, Type (0, 1), BuildingBlock: AJUNOK_clean_linker_0, # of connection points: 2
#     Edge 81, Type (0, 1), BuildingBlock: AJUNOK_clean_linker_0, # of connection points: 2
#     Edge 82, Type (0, 1), BuildingBlock: AJUNOK_clean_linker_0, # of connection points: 2
#     Edge 83, Type (0, 1), BuildingBlock: AJUNOK_clean_linker_0, # of connection points: 2
#     Edge 84, Type (0, 1), BuildingBlock: AJUNOK_clean_linker_0, # of connection points: 2
#     Edge 85, Type (0, 1), BuildingBlock: AJUNOK_clean_linker_0, # of connection points: 2
#     Edge 86, Type (0, 1), BuildingBlock: AJUNOK_clean_linker_0, # of connection points: 2
#     Edge 87, Type (0, 1), BuildingBlock: AJUNOK_clean_linker_0, # of connection points: 2
#     Edge 88, Type (0, 1), BuildingBlock: AJUNOK_clean_linker_0, # of connection points: 2
#     Edge 89, Type (0, 1), BuildingBlock: AJUNOK_clean_linker_0, # of connection points: 2
#     Edge 90, Type (0, 1), BuildingBlock: AJUNOK_clean_linker_0, # of connection points: 2
#     Edge 91, Type (0, 1), BuildingBlock: AJUNOK_clean_linker_0, # of connection points: 2
#     Edge 92, Type (0, 1), BuildingBlock: AJUNOK_clean_linker_0, # of connection points: 2
#     Edge 93, Type (0, 1), BuildingBlock: AJUNOK_clean_linker_0, # of connection points: 2
#     Edge 94, Type (0, 1), BuildingBlock: AJUNOK_clean_linker_0, # of connection points: 2
#     Edge 95, Type (0, 1), BuildingBlock: AJUNOK_clean_linker_0, # of connection points: 2
#     Edge 96, Type (0, 1), BuildingBlock: AJUNOK_clean_linker_0, # of connection points: 2
#     Edge 97, Type (0, 1), BuildingBlock: AJUNOK_clean_linker_0, # of connection points: 2
#     Edge 98, Type (0, 1), BuildingBlock: AJUNOK_clean_linker_0, # of connection points: 2
#     Edge 99, Type (0, 1), BuildingBlock: AJUNOK_clean_linker_0, # of connection points: 2
#     Edge 100, Type (0, 1), BuildingBlock: AJUNOK_clean_linker_0, # of connection points: 2
#     Edge 101, Type (0, 1), BuildingBlock: AJUNOK_clean_linker_0, # of connection points: 2
#     Edge 102, Type (0, 1), BuildingBlock: AJUNOK_clean_linker_0, # of connection points: 2
#     Edge 103, Type (0, 1), BuildingBlock: AJUNOK_clean_linker_0, # of connection points: 2
#     Edge 104, Type (0, 1), BuildingBlock: AJUNOK_clean_linker_0, # of connection points: 2
#     Edge 105, Type (0, 1), BuildingBlock: AJUNOK_clean_linker_0, # of connection points: 2
#     Edge 106, Type (0, 1), BuildingBlock: AJUNOK_clean_linker_0, # of connection points: 2
#     Edge 107, Type (0, 1), BuildingBlock: AJUNOK_clean_linker_0, # of connection points: 2
#     Edge 108, Type (0, 1), BuildingBlock: AJUNOK_clean_linker_0, # of connection points: 2
#     Edge 109, Type (0, 1), BuildingBlock: AJUNOK_clean_linker_0, # of connection points: 2
#     Edge 110, Type (0, 1), BuildingBlock: AJUNOK_clean_linker_0, # of connection points: 2
#     Edge 111, Type (0, 1), BuildingBlock: AJUNOK_clean_linker_0, # of connection points: 2
#     Edge 112, Type (0, 1), BuildingBlock: AJUNOK_clean_linker_0, # of connection points: 2
#     Edge 113, Type (0, 1), BuildingBlock: AJUNOK_clean_linker_0, # of connection points: 2
#     Edge 114, Type (0, 1), BuildingBlock: AJUNOK_clean_linker_0, # of connection points: 2
#     Edge 115, Type (0, 1), BuildingBlock: AJUNOK_clean_linker_0, # of connection points: 2
#     Edge 116, Type (0, 1), BuildingBlock: AJUNOK_clean_linker_0, # of connection points: 2
#     Edge 117, Type (0, 1), BuildingBlock: AJUNOK_clean_linker_0, # of connection points: 2
#     Edge 118, Type (0, 1), BuildingBlock: AJUNOK_clean_linker_0, # of connection points: 2
#     Edge 119, Type (0, 1), BuildingBlock: AJUNOK_clean_linker_0, # of connection points: 2
#     Edge 120, Type (0, 1), BuildingBlock: AJUNOK_clean_linker_0, # of connection points: 2
#     Edge 121, Type (0, 1), BuildingBlock: AJUNOK_clean_linker_0, # of connection points: 2
#     Edge 122, Type (0, 1), BuildingBlock: AJUNOK_clean_linker_0, # of connection points: 2
#     Edge 123, Type (0, 1), BuildingBlock: AJUNOK_clean_linker_0, # of connection points: 2
#     Edge 124, Type (0, 1), BuildingBlock: AJUNOK_clean_linker_0, # of connection points: 2
#     Edge 125, Type (0, 1), BuildingBlock: AJUNOK_clean_linker_0, # of connection points: 2
#     Edge 126, Type (0, 1), BuildingBlock: AJUNOK_clean_linker_0, # of connection points: 2
#     Edge 127, Type (0, 1), BuildingBlock: AJUNOK_clean_linker_0, # of connection points: 2
#     Edge 128, Type (0, 1), BuildingBlock: AJUNOK_clean_linker_0, # of connection points: 2
#     Edge 129, Type (0, 1), BuildingBlock: AJUNOK_clean_linker_0, # of connection points: 2
#     Edge 130, Type (0, 1), BuildingBlock: AJUNOK_clean_linker_0, # of connection points: 2
#     Edge 131, Type (0, 1), BuildingBlock: AJUNOK_clean_linker_0, # of connection points: 2
#     Edge 132, Type (0, 1), BuildingBlock: AJUNOK_clean_linker_0, # of connection points: 2
#     Edge 133, Type (0, 1), BuildingBlock: AJUNOK_clean_linker_0, # of connection points: 2
#     Edge 134, Type (0, 1), BuildingBlock: AJUNOK_clean_linker_0, # of connection points: 2
#     Edge 135, Type (0, 1), BuildingBlock: AJUNOK_clean_linker_0, # of connection points: 2
# Relax obj value: 0.122
# Max RMSD: 0.240
# Mean RMSD: 0.148
data_MOF--net-gar--node1-TATPOV_clean_sbu_0--node2-CUKXOW_clean_sbu_0--edge1-AJUNOK_clean_linker_0
_symmetry_space_group_name_H-M    P1
_symmetry_Int_Tables_number       1
_symmetry_cell_setting            triclinic
loop_
_symmetry_equiv_pos_as_xyz
'x, y, z'
_cell_length_a     41.103943
_cell_length_b     39.83344
_cell_length_c     40.506337
_cell_angle_alpha  94.407965
_cell_angle_beta   95.776737
_cell_angle_gamma 101.24596
loop_
_atom_site_label
_atom_site_type_symbol
_atom_site_fract_x
_atom_site_fract_y
_atom_site_fract_z
_atom_type_partial_charge
Zn0 Zn 0.97526 0.2571 0.46148 0.0
Zn1 Zn 0.02863 0.26571 0.43404 0.0
O2 O 0.03832 0.31363 0.46016 0.0
O3 O 0.98835 0.30691 0.47706 0.0
O4 O 0.06586 0.26268 0.40632 0.0
O5 O 0.98471 0.22233 0.49002 0.0
O6 O 0.02791 0.22379 0.46174 0.0
C7 C 0.0164 0.32579 0.47464 0.0
C8 C 0.95896 0.25116 0.39439 0.0
O9 O 0.99016 0.26274 0.39739 0.0
O10 O 0.94499 0.24202 0.41952 0.0
C11 C 0.06406 0.26916 0.37595 0.0
O12 O 0.03964 0.283 0.36352 0.0
C13 C 0.00954 0.21028 0.4828 0.0
Zn14 Zn 0.97863 0.74284 0.64329 0.0
Zn15 Zn 0.99984 0.79454 0.61692 0.0
O16 O 0.9621 0.80447 0.64416 0.0
O17 O 0.93799 0.75355 0.65686 0.0
O18 O 0.01197 0.83726 0.5937 0.0
O19 O 0.01763 0.7521 0.67747 0.0
O20 O 0.04034 0.79371 0.64931 0.0
C21 C 0.93982 0.78556 0.65804 0.0
C22 C 0.98405 0.72198 0.57917 0.0
O23 O 0.99255 0.75448 0.57874 0.0
O24 O 0.97671 0.70921 0.60563 0.0
C25 C 0.9883 0.84627 0.57626 0.0
O26 O 0.95804 0.82742 0.57465 0.0
C27 C 0.04223 0.7752 0.67341 0.0
Zn28 Zn 0.46584 0.75613 0.94354 0.0
Zn29 Zn 0.52775 0.76613 0.92927 0.0
O30 O 0.53311 0.81011 0.95973 0.0
O31 O 0.48035 0.80328 0.96855 0.0
O32 O 0.56997 0.76629 0.90968 0.0
O33 O 0.46947 0.71469 0.96593 0.0
O34 O 0.52056 0.72144 0.95218 0.0
C35 C 0.50979 0.82125 0.9726 0.0
C36 C 0.46811 0.76049 0.8761 0.0
O37 O 0.49888 0.76834 0.88643 0.0
O38 O 0.44693 0.75111 0.8958 0.0
C39 C 0.57511 0.78466 0.88568 0.0
O40 O 0.55774 0.80864 0.88096 0.0
C41 C 0.49668 0.70457 0.96573 0.0
Zn42 Zn 0.47631 0.23762 0.14972 0.0
Zn43 Zn 0.49431 0.28719 0.11343 0.0
O44 O 0.45339 0.29742 0.13437 0.0
O45 O 0.43282 0.24933 0.15504 0.0
O46 O 0.50583 0.32478 0.08378 0.0
O47 O 0.51521 0.25662 0.18364 0.0
O48 O 0.53504 0.29134 0.14748 0.0
C49 C 0.43086 0.27943 0.14862 0.0
C50 C 0.48661 0.21334 0.08553 0.0
O51 O 0.48924 0.24476 0.08052 0.0
O52 O 0.4822 0.20349 0.11393 0.0
C53 C 0.50196 0.3547 0.09306 0.0
O54 O 0.49209 0.36039 0.12247 0.0
C55 C 0.53885 0.2782 0.17495 0.0
Zn56 Zn 0.04443 0.77566 0.13354 0.0
Zn57 Zn 0.99554 0.75847 0.16742 0.0
O58 O 0.98848 0.80132 0.14255 0.0
O59 O 0.02825 0.81123 0.10978 0.0
O60 O 0.95591 0.75334 0.19576 0.0
O61 O 0.03546 0.72935 0.10959 0.0
O62 O 0.99062 0.71317 0.13476 0.0
C63 C 1.00205 0.81787 0.12002 0.0
C64 C 0.06893 0.78038 0.20114 0.0
O65 O 0.03841 0.76658 0.20302 0.0
O66 O 0.07801 0.78881 0.17354 0.0
C67 C 0.92823 0.76105 0.18511 0.0
O68 O 0.92407 0.76894 0.15428 0.0
C69 C 0.00995 0.70705 0.11311 0.0
Zn70 Zn 0.48393 0.77726 0.39209 0.0
Zn71 Zn 0.52937 0.79398 0.36256 0.0
O72 O 0.53419 0.83997 0.39395 0.0
O73 O 0.48303 0.82487 0.4068 0.0
O74 O 0.56792 0.79562 0.33319 0.0
O75 O 0.50174 0.7524 0.42699 0.0
O76 O 0.53808 0.75362 0.39074 0.0
C77 C 0.50992 0.84695 0.40887 0.0
C78 C 0.45595 0.76661 0.32955 0.0
O79 O 0.48467 0.78581 0.32846 0.0
O80 O 0.45019 0.75248 0.35577 0.0
C81 C 0.59891 0.80814 0.34184 0.0
O82 O 0.60833 0.82587 0.3711 0.0
C83 C 0.52674 0.7427 0.41704 0.0
Zn84 Zn 0.52962 0.26173 0.63093 0.0
Zn85 Zn 0.48872 0.25289 0.66437 0.0
O86 O 0.4859 0.29765 0.64005 0.0
O87 O 0.53739 0.31071 0.62815 0.0
O88 O 0.44721 0.24855 0.69072 0.0
O89 O 0.50702 0.23224 0.59089 0.0
O90 O 0.48299 0.20735 0.63089 0.0
C91 C 0.50945 0.31876 0.6298 0.0
C92 C 0.56044 0.25074 0.69034 0.0
O93 O 0.53316 0.25801 0.69883 0.0
O94 O 0.5632 0.24566 0.65973 0.0
C95 C 0.44252 0.27528 0.70766 0.0
O96 O 0.46534 0.30369 0.70938 0.0
C97 C 0.49087 0.20554 0.60103 0.0
Zn98 Zn 0.97661 0.28428 0.92356 0.0
Zn99 Zn 0.03534 0.30071 0.87295 0.0
O100 O 0.05004 0.3508 0.89662 0.0
O101 O 0.00912 0.32545 0.92031 0.0
O102 O 0.06955 0.29302 0.83982 0.0
O103 O 1.0007 0.25005 0.93947 0.0
O104 O 0.04078 0.26391 0.90665 0.0
C105 C 0.03012 0.35222 0.91832 0.0
C106 C 0.95527 0.28524 0.85284 0.0
O107 O 0.98591 0.29573 0.84774 0.0
O108 O 0.94751 0.27507 0.88052 0.0
C109 C 0.09677 0.31419 0.83758 0.0
O110 O 0.10276 0.34442 0.85497 0.0
C111 C 0.02836 0.24697 0.9297 0.0
Zn112 Zn 0.42905 0.03063 0.24081 0.0
Zn113 Zn 0.40717 0.08025 0.24825 0.0
O114 O 0.43681 0.08413 0.29634 0.0
O115 O 0.44498 0.03165 0.28882 0.0
O116 O 0.3818 0.1214 0.24852 0.0
O117 O 0.46214 0.04064 0.21009 0.0
O118 O 0.43357 0.08133 0.20313 0.0
C119 C 0.44753 0.05868 0.30813 0.0
C120 C 0.3643 0.00628 0.23747 0.0
O121 O 0.36844 0.03735 0.25017 0.0
O122 O 0.38755 0.997 0.22344 0.0
C123 C 0.352 0.11711 0.23378 0.0
O124 O 0.33858 0.08695 0.21757 0.0
C125 C 0.45536 0.06444 0.19362 0.0
Zn126 Zn 0.23673 0.19853 0.46872 0.0
Zn127 Zn 0.27892 0.15698 0.48807 0.0
O128 O 0.29906 0.17257 0.44705 0.0
O129 O 0.26794 0.21043 0.43541 0.0
O130 O 0.307 0.12589 0.50479 0.0
O131 O 0.24929 0.22558 0.51317 0.0
O132 O 0.28642 0.19395 0.52547 0.0
C133 C 0.29256 0.19673 0.43062 0.0
C134 C 0.20343 0.12966 0.47295 0.0
O135 O 0.23267 0.12691 0.48407 0.0
O136 O 0.19825 0.15726 0.46194 0.0
C137 C 0.30229 0.09533 0.49129 0.0
O138 O 0.27956 0.0853 0.46538 0.0
C139 C 0.27267 0.21898 0.53274 0.0
Zn140 Zn 0.11104 0.02615 0.7916 0.0
Zn141 Zn 0.15658 0.00151 0.80272 0.0
O142 O 0.12491 0.98883 0.84041 0.0
O143 O 0.09593 0.02932 0.83482 0.0
O144 O 0.19106 0.97108 0.80481 0.0
O145 O 0.08313 0.98946 0.75845 0.0
O146 O 0.13511 0.98759 0.75387 0.0
C147 C 0.10278 0.00476 0.85009 0.0
C148 C 0.16965 0.07559 0.79001 0.0
O149 O 0.18193 0.05341 0.80579 0.0
O150 O 0.13933 0.06797 0.77765 0.0
C151 C 0.18141 0.93951 0.79353 0.0
O152 O 0.14936 0.92744 0.78465 0.0
C153 C 0.10465 0.98105 0.74127 0.0
Zn154 Zn 0.25016 0.84499 0.02947 0.0
Zn155 Zn 0.21231 0.88452 0.02794 0.0
O156 O 0.21247 0.85919 0.97789 0.0
O157 O 0.23955 0.81755 0.98595 0.0
O158 O 0.17183 0.91024 0.02716 0.0
O159 O 0.245 0.82246 0.0701 0.0
O160 O 0.21246 0.86 0.07464 0.0
C161 C 0.22421 0.8336 0.96606 0.0
C162 C 0.28394 0.91668 0.03501 0.0
O163 O 0.25461 0.92293 0.03294 0.0
O164 O 0.28802 0.88596 0.03385 0.0
C165 C 0.17534 0.93975 0.04363 0.0
O166 O 0.20452 0.95323 0.06059 0.0
C167 C 0.22674 0.83698 0.0871 0.0
Zn168 Zn 0.28924 0.36502 0.03954 0.0
Zn169 Zn 0.25365 0.40671 0.04302 0.0
O170 O 0.23535 0.37898 -0.00116 0.0
O171 O 0.25577 0.3332 0.00709 0.0
O172 O 0.22363 0.43929 0.04516 0.0
O173 O 0.28872 0.35374 0.08585 0.0
O174 O 0.24462 0.37746 0.08161 0.0
C175 C 0.2363 0.34791 0.99011 0.0
C176 C 0.3243 0.43041 0.03015 0.0
O177 O 0.29918 0.43828 0.04234 0.0
O178 O 0.32545 0.39915 0.0236 0.0
C179 C 0.22124 0.45793 0.02133 0.0
O180 O 0.24014 0.45613 0.99723 0.0
C181 C 0.2617 0.35826 0.09607 0.0
Zn182 Zn 0.78086 0.20978 0.02055 0.0
Zn183 Zn 0.82051 0.179 0.01211 0.0
O184 O 0.8165 0.20787 0.96846 0.0
O185 O 0.7677 0.21978 0.9755 0.0
O186 O 0.86042 0.15249 0.00879 0.0
O187 O 0.80355 0.24932 0.0521 0.0
O188 O 0.82653 0.20566 0.06272 0.0
C189 C 0.79095 0.21987 0.95748 0.0
C190 C 0.75182 0.14309 0.02257 0.0
O191 O 0.77696 0.14084 0.00708 0.0
O192 O 0.75057 0.17151 0.03793 0.0
C193 C 0.85564 0.12142 0.99542 0.0
O194 O 0.82511 0.1063 0.9829 0.0
C195 C 0.81933 0.23454 0.07278 0.0
Zn196 Zn 0.07382 0.51793 0.26894 0.0
Zn197 Zn 0.1061 0.47261 0.27394 0.0
O198 O 0.08202 0.47603 0.3191 0.0
O199 O 0.05974 0.52165 0.31387 0.0
O200 O 0.13065 0.43125 0.27634 0.0
O201 O 0.04047 0.4979 0.23042 0.0
O202 O 0.07766 0.46583 0.22478 0.0
C203 C 0.06612 0.49813 0.33101 0.0
C204 C 0.14262 0.54349 0.26465 0.0
O205 O 0.14529 0.51427 0.2741 0.0
O206 O 0.11414 0.55077 0.2589 0.0
C207 C 0.15895 0.43411 0.29387 0.0
O208 O 0.17179 0.46346 0.31184 0.0
C209 C 0.05229 0.47714 0.21231 0.0
Zn210 Zn 0.79652 0.86924 0.5589 0.0
Zn211 Zn 0.75451 0.90791 0.54949 0.0
O212 O 0.74463 0.87888 0.50566 0.0
O213 O 0.78327 0.84793 0.5127 0.0
O214 O 0.72344 0.93968 0.545 0.0
O215 O 0.77224 0.84433 0.59092 0.0
O216 O 0.73639 0.87874 0.58579 0.0
C217 C 0.75868 0.85507 0.49536 0.0
C218 C 0.83028 0.93664 0.56517 0.0
O219 O 0.8008 0.94026 0.55566 0.0
O220 O 0.83559 0.9075 0.57152 0.0
C221 C 0.72024 0.95821 0.52125 0.0
O222 O 0.73918 0.95749 0.49704 0.0
C223 C 0.74546 0.85285 0.59749 0.0
Zn224 Zn 0.90753 0.02155 0.22272 0.0
Zn225 Zn 0.87577 0.06259 0.23571 0.0
O226 O 0.90954 0.07053 0.27837 0.0
O227 O 0.92556 0.02162 0.2695 0.0
O228 O 0.84595 0.09633 0.24429 0.0
O229 O 0.93775 0.04859 0.19609 0.0
O230 O 0.89754 0.07762 0.19279 0.0
C231 C 0.92587 0.04841 0.28843 0.0
C232 C 0.84619 0.98482 0.2179 0.0
O233 O 0.84526 0.01337 0.23412 0.0
O234 O 0.8709 0.98283 0.20225 0.0
C235 C 0.85928 0.12798 0.2517 0.0
O236 O 0.89191 0.13754 0.25352 0.0
C237 C 0.92485 0.07158 0.1836 0.0
Zn238 Zn 0.28884 0.71748 0.5143 0.0
Zn239 Zn 0.31539 0.66958 0.51084 0.0
O240 O 0.31487 0.69213 0.46311 0.0
O241 O 0.2862 0.73293 0.46986 0.0
O242 O 0.35031 0.63688 0.51208 0.0
O243 O 0.31337 0.74943 0.55262 0.0
O244 O 0.32134 0.69761 0.5603 0.0
C245 C 0.30095 0.71569 0.45124 0.0
C246 C 0.24483 0.65092 0.5189 0.0
O247 O 0.26916 0.638 0.51034 0.0
O248 O 0.24849 0.68332 0.5237 0.0
C249 C 0.36473 0.62639 0.48778 0.0
O250 O 0.3579 0.63677 0.45835 0.0
C251 C 0.32047 0.72825 0.57238 0.0
Zn252 Zn 0.41001 0.5249 0.72923 0.0
Zn253 Zn 0.37998 0.56549 0.74075 0.0
O254 O 0.41612 0.57305 0.78226 0.0
O255 O 0.42635 0.52111 0.77528 0.0
O256 O 0.35427 0.60409 0.74674 0.0
O257 O 0.4434 0.55187 0.70463 0.0
O258 O 0.40007 0.57541 0.69559 0.0
C259 C 0.43056 0.54957 0.79267 0.0
C260 C 0.34805 0.48885 0.72355 0.0
O261 O 0.3472 0.51698 0.74078 0.0
O262 O 0.37256 0.48784 0.70726 0.0
C263 C 0.33861 0.61067 0.7712 0.0
O264 O 0.33664 0.59016 0.79513 0.0
C265 C 0.42868 0.57133 0.68839 0.0
Zn266 Zn 0.57761 0.02258 0.77371 0.0
Zn267 Zn 0.60904 0.97705 0.77387 0.0
O268 O 0.58413 0.97489 0.81899 0.0
O269 O 0.56161 0.02066 0.81761 0.0
O270 O 0.63731 0.93891 0.77288 0.0
O271 O 0.54554 0.0057 0.73374 0.0
O272 O 0.58011 0.97143 0.72488 0.0
C273 C 0.5674 0.99537 0.8324 0.0
C274 C 0.64478 0.05102 0.76988 0.0
O275 O 0.64739 0.02051 0.77543 0.0
O276 O 0.61639 0.05885 0.76694 0.0
C277 C 0.64275 0.91678 0.79295 0.0
O278 O 0.62661 0.91396 0.81931 0.0
C279 C 0.55564 0.98499 0.71399 0.0
Zn280 Zn 0.74268 0.6994 0.98397 0.0
Zn281 Zn 0.78125 0.66129 0.99627 0.0
O282 O 0.79488 0.67557 0.95182 0.0
O283 O 0.74817 0.69201 0.93637 0.0
O284 O 0.81129 0.63107 0.00966 0.0
O285 O 0.77082 0.7404 0.01168 0.0
O286 O 0.79316 0.70012 0.03281 0.0
C287 C 0.77573 0.68529 0.9297 0.0
C288 C 0.70845 0.63892 0.00444 0.0
O289 O 0.73539 0.63005 -0.00203 0.0
O290 O 0.7057 0.66985 0.00323 0.0
C291 C 0.80575 0.60058 0.99586 0.0
O292 O 0.7814 0.5906 0.9714 0.0
C293 C 0.78904 0.731 0.03469 0.0
Zn294 Zn 0.934 0.53489 0.75546 0.0
Zn295 Zn 0.90545 0.58126 0.75282 0.0
O296 O 0.93424 0.58651 0.80212 0.0
O297 O 0.97023 0.55433 0.79166 0.0
O298 O 0.88005 0.62256 0.74911 0.0
O299 O 0.94407 0.52859 0.70909 0.0
O300 O 0.93112 0.57946 0.70805 0.0
C301 C 0.95969 0.57393 0.81221 0.0
C302 C 0.86751 0.50988 0.76288 0.0
O303 O 0.86547 0.53872 0.75193 0.0
O304 O 0.8958 0.50253 0.76943 0.0
C305 C 0.85294 0.6209 0.76248 0.0
O306 O 0.84437 0.59551 0.78077 0.0
C307 C 0.94264 0.55485 0.69394 0.0
Zn308 Zn 0.74269 0.34284 0.52328 0.0
Zn309 Zn 0.70937 0.3841 0.5282 0.0
O310 O 0.70442 0.36037 0.47636 0.0
O311 O 0.73336 0.31946 0.4787 0.0
O312 O 0.67057 0.41197 0.53261 0.0
O313 O 0.73483 0.31357 0.55845 0.0
O314 O 0.71451 0.35817 0.57452 0.0
C315 C 0.71559 0.33572 0.4617 0.0
C316 C 0.78128 0.41267 0.53265 0.0
O317 O 0.7527 0.4207 0.53084 0.0
O318 O 0.78337 0.38133 0.53165 0.0
C319 C 0.67527 0.44392 0.5279 0.0
O320 O 0.704 0.45811 0.51847 0.0
C321 C 0.72497 0.33071 0.5814 0.0
Zn322 Zn 0.61992 0.54974 0.31264 0.0
Zn323 Zn 0.65232 0.50462 0.30123 0.0
O324 O 0.62743 0.48955 0.34254 0.0
O325 O 0.59883 0.53046 0.34949 0.0
O326 O 0.68361 0.47203 0.29507 0.0
O327 O 0.59327 0.53656 0.26822 0.0
O328 O 0.61916 0.49401 0.25884 0.0
C329 C 0.60598 0.50251 0.35724 0.0
C330 C 0.68283 0.58367 0.30958 0.0
O331 O 0.68418 0.55259 0.30064 0.0
O332 O 0.65674 0.59053 0.31998 0.0
C333 C 0.67217 0.44018 0.28701 0.0
O334 O 0.63968 0.4287 0.28352 0.0
C335 C 0.59665 0.51049 0.25006 0.0
Tb336 Tb 0.03627 0.06897 0.01429 0.0
C337 C 0.0317 0.00434 0.96176 0.0
Tb338 Tb 0.99574 0.99428 0.02589 0.0
O339 O 0.08656 0.06047 0.03176 0.0
O340 O 0.04499 0.02353 0.03312 0.0
O341 O 0.03467 0.03821 0.96717 0.0
C342 C 0.98617 0.93856 0.05843 0.0
O343 O 0.01998 0.98199 0.9825 0.0
C344 C 0.9558 0.03354 -0.00037 0.0
C345 C 0.99384 0.06013 0.07509 0.0
O346 O 0.97488 0.93935 0.02725 0.0
O347 O 0.00296 0.96877 0.07049 0.0
O348 O 0.94576 0.00147 0.00517 0.0
O349 O 0.98715 0.03973 0.00681 0.0
O350 O 0.98853 0.02608 0.06962 0.0
O351 O 0.01088 0.08181 0.05673 0.0
C352 C 0.05127 0.12876 0.98908 0.0
O353 O 0.05645 0.12438 0.02055 0.0
O354 O 0.0373 0.09964 0.97221 0.0
C355 C 0.07647 0.0288 0.03805 0.0
Tb356 Tb 0.27276 0.81451 0.27832 0.0
C357 C 0.32579 0.77051 0.26615 0.0
Tb358 Tb 0.248 0.73883 0.26157 0.0
O359 O 0.29955 0.8071 0.32568 0.0
O360 O 0.25583 0.77227 0.30625 0.0
O361 O 0.31837 0.80115 0.26313 0.0
C362 C 0.23277 0.67013 0.25908 0.0
O363 O 0.30223 0.74295 0.26814 0.0
C364 C 0.24028 0.77663 0.21175 0.0
C365 C 0.19458 0.78251 0.27458 0.0
O366 O 0.23715 0.68777 0.2337 0.0
O367 O 0.23747 0.69127 0.28586 0.0
O368 O 0.22006 0.74823 0.2155 0.0
O369 O 0.26525 0.78108 0.23386 0.0
O370 O 0.20135 0.75128 0.27431 0.0
O371 O 0.21856 0.8105 0.27592 0.0
C372 C 0.2867 0.88292 0.27611 0.0
O373 O 0.26939 0.86065 0.2528 0.0
O374 O 0.29585 0.86656 0.30073 0.0
C375 C 0.28049 0.77781 0.32886 0.0
Tb376 Tb 0.54394 0.03296 0.5079 0.0
C377 C 0.51722 0.00075 0.57371 0.0
Tb378 Tb 0.47078 0.01852 0.51406 0.0
O379 O 0.54778 0.08871 0.5171 0.0
O380 O 0.51261 0.0541 0.53781 0.0
O381 O 0.54255 0.00909 0.55577 0.0
C382 C 0.40902 0.02629 0.51948 0.0
O383 O 0.48667 0.00496 0.56349 0.0
C384 C 0.49396 0.96635 0.49016 0.0
C385 C 0.49589 0.04956 0.44876 0.0
O386 O 0.41714 0.00396 0.49849 0.0
O387 O 0.43566 0.0438 0.53736 0.0
O388 O 0.46894 0.96337 0.50777 0.0
O389 O 0.50238 0.9971 0.48418 0.0
O390 O 0.47318 0.04835 0.47005 0.0
O391 O 0.52454 0.03955 0.45673 0.0
C392 C 0.60313 0.01662 0.50659 0.0
O393 O 0.59722 0.04681 0.50133 0.0
O394 O 0.57607 0.99629 0.51204 0.0
C395 C 0.52179 0.08515 0.5334 0.0
Tb396 Tb 0.27013 0.29471 0.80158 0.0
C397 C 0.28779 0.35119 0.75306 0.0
Tb398 Tb 0.25386 0.27319 0.72987 0.0
O399 O 0.32423 0.30662 0.80033 0.0
O400 O 0.29344 0.26865 0.76605 0.0
O401 O 0.28236 0.34585 0.78416 0.0
C402 C 0.26009 0.2595 0.66674 0.0
O403 O 0.28244 0.32536 0.72927 0.0
C404 C 0.20245 0.28246 0.76071 0.0
C405 C 0.23928 0.21552 0.77629 0.0
O406 O 0.24731 0.28471 0.6781 0.0
O407 O 0.26747 0.24145 0.69042 0.0
O408 O 0.1997 0.26072 0.73451 0.0
O409 O 0.23181 0.29974 0.76527 0.0
O410 O 0.24486 0.22221 0.74575 0.0
O411 O 0.24484 0.24015 0.80147 0.0
C412 C 0.2529 0.30943 0.86064 0.0
O413 O 0.27236 0.28811 0.85461 0.0
O414 O 0.2455 0.324 0.83436 0.0
C415 C 0.32294 0.28616 0.77323 0.0
Tb416 Tb 0.00291 0.0262 0.48248 0.0
C417 C 0.95575 0.01144 0.53776 0.0
Tb418 Tb 0.03573 0.02488 0.55323 0.0
O419 O 0.98347 0.97089 0.47893 0.0
O420 O 0.0284 0.99277 0.50823 0.0
O421 O 0.95806 0.02051 0.50708 0.0
C422 C 0.05756 0.00485 0.61071 0.0
O423 O 0.98241 0.01012 0.55895 0.0
C424 C 0.0289 0.08528 0.53683 0.0
C425 C 0.08119 0.04394 0.49887 0.0
O426 O 0.03187 0.98825 0.59081 0.0
O427 O 0.07027 0.03305 0.59872 0.0
O428 O 0.05199 0.08135 0.5596 0.0
O429 O 0.00959 0.05702 0.52805 0.0
O430 O 0.07815 0.02642 0.52525 0.0
O431 O 0.05489 0.05048 0.4808 0.0
C432 C 0.98501 0.0423 0.42196 0.0
O433 O 0.99956 0.01711 0.42867 0.0
O434 O 0.97991 0.05833 0.44949 0.0
C435 C 0.007 0.96528 0.5004 0.0
Tb436 Tb 0.31085 0.80244 0.78012 0.0
C437 C 0.25774 0.80104 0.83221 0.0
Tb438 Tb 0.23502 0.7721 0.75597 0.0
O439 O 0.30377 0.85467 0.79135 0.0
O440 O 0.26971 0.81934 0.75682 0.0
O441 O 0.28989 0.80246 0.82826 0.0
C442 C 0.17317 0.77148 0.73254 0.0
O443 O 0.2332 0.79286 0.80723 0.0
C444 C 0.26785 0.72389 0.77223 0.0
C445 C 0.28773 0.77182 0.70365 0.0
O446 O 0.18183 0.75485 0.75719 0.0
O447 O 0.19924 0.78771 0.72061 0.0
O448 O 0.23632 0.71711 0.76061 0.0
O449 O 0.27693 0.75601 0.77461 0.0
O450 O 0.25593 0.76264 0.70923 0.0
O451 O 0.3119 0.78925 0.72656 0.0
C452 C 0.37262 0.79555 0.794 0.0
O453 O 0.36461 0.8228 0.78233 0.0
O454 O 0.34629 0.77401 0.79964 0.0
C455 C 0.27458 0.84862 0.77347 0.0
Tb456 Tb 0.47371 0.01897 0.00731 0.0
C457 C 0.51951 0.96415 0.01685 0.0
Tb458 Tb 0.55421 0.04288 0.02095 0.0
O459 O 0.47153 0.00293 0.95324 0.0
O460 O 0.51604 0.02243 0.9819 0.0
O461 O 0.48984 0.97215 0.01922 0.0
C462 C 0.61775 0.0648 0.01164 0.0
O463 O 0.54714 0.98714 0.01438 0.0
C464 C 0.52371 0.05129 0.07557 0.0
C465 C 0.50856 0.09735 0.01014 0.0
O466 O 0.60753 0.04289 0.03253 0.0
O467 O 0.5921 0.07359 0.99579 0.0
O468 O 0.55595 0.05788 0.07521 0.0
O469 O 0.51185 0.0396 0.04619 0.0
O470 O 0.5384 0.08967 0.00816 0.0
O471 O 0.48076 0.0745 0.01222 0.0
C472 C 0.4122 0.99836 0.02319 0.0
O473 O 0.41954 0.01603 -0.00181 0.0
O474 O 0.43941 0.99246 0.03867 0.0
C475 C 0.50385 0.00982 0.9528 0.0
Tb476 Tb 0.22146 0.25364 0.26749 0.0
C477 C 0.28543 0.26074 0.32124 0.0
Tb478 Tb 0.28875 0.30053 0.25926 0.0
O479 O 0.23162 0.20289 0.25129 0.0
O480 O 0.26773 0.2474 0.25355 0.0
O481 O 0.25241 0.2536 0.31457 0.0
C482 C 0.34315 0.32764 0.23177 0.0
O483 O 0.30564 0.27817 0.30257 0.0
C484 C 0.24441 0.33199 0.28558 0.0
C485 C 0.23258 0.27737 0.19904 0.0
O486 O 0.34244 0.31044 0.25769 0.0
O487 O 0.31298 0.3315 0.2232 0.0
O488 O 0.27664 0.34229 0.29174 0.0
O489 O 0.2393 0.30683 0.26368 0.0
O490 O 0.26475 0.2812 0.20938 0.0
O491 O 0.20932 0.27073 0.21923 0.0
C492 C 0.16743 0.24424 0.29809 0.0
O493 O 0.16811 0.23219 0.26732 0.0
O494 O 0.19667 0.26124 0.31093 0.0
C495 C 0.26287 0.21503 0.24771 0.0
Tb496 Tb 0.51531 0.52468 0.98108 0.0
C497 C 0.44968 0.51528 0.01833 0.0
Tb498 Tb 0.52192 0.53048 0.05858 0.0
O499 O 0.5242 0.47105 0.97986 0.0
O500 O 0.50439 0.49328 0.01869 0.0
O501 O 0.46289 0.51991 0.98994 0.0
C502 C 0.53511 0.51072 0.11838 0.0
O503 O 0.4679 0.5146 0.04725 0.0
C504 C 0.51681 0.58638 0.03251 0.0
C505 C 0.58754 0.54576 0.02072 0.0
O506 O 0.51885 0.53483 0.11195 0.0
O507 O 0.54459 0.49832 0.09126 0.0
O508 O 0.50947 0.5812 0.06251 0.0
O509 O 0.53074 0.56326 0.02135 0.0
O510 O 0.57463 0.54054 0.04926 0.0
O511 O 0.56898 0.54336 0.99149 0.0
C512 C 0.49988 0.54276 0.92073 0.0
O513 O 0.51475 0.51751 0.92703 0.0
O514 O 0.49362 0.55745 0.94835 0.0
C515 C 0.51529 0.46755 0.00961 0.0
Tb516 Tb 0.80578 0.30703 0.28129 0.0
C517 C 0.74849 0.29915 0.33012 0.0
Tb518 Tb 0.73132 0.26753 0.25337 0.0
O519 O 0.79755 0.36016 0.27943 0.0
O520 O 0.76039 0.31719 0.26372 0.0
O521 O 0.78028 0.31163 0.32618 0.0
C522 C 0.6703 0.26567 0.22595 0.0
O523 O 0.72644 0.28012 0.30624 0.0
C524 C 0.77116 0.22481 0.26569 0.0
C525 C 0.78874 0.27661 0.20458 0.0
O526 O 0.67788 0.24796 0.25024 0.0
O527 O 0.69713 0.28345 0.21655 0.0
O528 O 0.73952 0.2145 0.25454 0.0
O529 O 0.77672 0.2572 0.27028 0.0
O530 O 0.75642 0.26594 0.20788 0.0
O531 O 0.81159 0.29355 0.22898 0.0
C532 C 0.86021 0.29764 0.31544 0.0
O533 O 0.86044 0.31731 0.291 0.0
O534 O 0.82996 0.28599 0.3214 0.0
C535 C 0.7657 0.34955 0.2685 0.0
Tb536 Tb 0.97152 0.52037 0.50353 0.0
C537 C 0.01893 0.46849 0.51501 0.0
Tb538 Tb 0.04526 0.54872 0.5236 0.0
O539 O 0.9744 0.52293 0.44987 0.0
O540 O 0.01606 0.5193 0.48098 0.0
O541 O 0.98875 0.47467 0.51727 0.0
C542 C 0.10986 0.57698 0.52503 0.0
O543 O 0.04469 0.49371 0.51236 0.0
C544 C 0.0084 0.54263 0.57397 0.0
C545 C 0.99692 0.60018 0.50801 0.0
O546 O 0.09829 0.54972 0.53909 0.0
O547 O 0.08524 0.58852 0.51066 0.0
O548 O 0.04021 0.54303 0.57688 0.0
O549 O 1.0007 0.55042 0.54526 0.0
O550 O 0.0281 0.59521 0.50887 0.0
O551 O 0.97156 0.57444 0.50949 0.0
C552 C 0.9096 0.49189 0.51385 0.0
O553 O 0.91705 0.51054 0.4896 0.0
O554 O 0.93685 0.48859 0.53108 0.0
C555 C 0.00655 0.52472 0.45167 0.0
Tb556 Tb 0.77413 0.79355 0.30116 0.0
C557 C 0.78631 0.84999 0.25185 0.0
Tb558 Tb 0.75124 0.77123 0.22567 0.0
O559 O 0.82776 0.79031 0.30119 0.0
O560 O 0.79355 0.77724 0.25963 0.0
O561 O 0.78772 0.84366 0.2836 0.0
C562 C 0.76084 0.76069 0.16313 0.0
O563 O 0.77444 0.82607 0.22635 0.0
C564 C 0.70302 0.77789 0.26204 0.0
C565 C 0.74603 0.71511 0.27589 0.0
O566 O 0.74378 0.78257 0.17409 0.0
O567 O 0.76968 0.743 0.18673 0.0
O568 O 0.69819 0.75856 0.23371 0.0
O569 O 0.7327 0.79485 0.26585 0.0
O570 O 0.74937 0.72107 0.24448 0.0
O571 O 0.74857 0.74023 0.29994 0.0
C572 C 0.76308 0.80875 0.36234 0.0
O573 O 0.77581 0.7828 0.35279 0.0
O574 O 0.759 0.82745 0.33809 0.0
C575 C 0.82388 0.7795 0.26948 0.0
Tb576 Tb 0.76211 0.31737 0.78168 0.0
C577 C 0.82958 0.28764 0.77653 0.0
Tb578 Tb 0.75778 0.24262 0.76104 0.0
O579 O 0.74943 0.30622 0.83153 0.0
O580 O 0.77564 0.2755 0.80543 0.0
O581 O 0.81497 0.31478 0.77749 0.0
C582 C 0.74049 0.17381 0.75843 0.0
O583 O 0.81193 0.25565 0.77196 0.0
C584 C 0.75823 0.2821 0.7114 0.0
C585 C 0.69069 0.27056 0.768 0.0
O586 O 0.74241 0.1917 0.73299 0.0
O587 O 0.74948 0.19476 0.78534 0.0
O588 O 0.77156 0.25503 0.71191 0.0
O589 O 0.74409 0.28454 0.73739 0.0
O590 O 0.7062 0.24436 0.76999 0.0
O591 O 0.70769 0.30279 0.76999 0.0
C592 C 0.77699 0.38559 0.77831 0.0
O593 O 0.77319 0.37055 0.80544 0.0
O594 O 0.77221 0.36216 0.75334 0.0
C595 C 0.76222 0.2787 0.83181 0.0
Tb596 Tb 0.72035 0.75722 0.7723 0.0
C597 C 0.78048 0.76621 0.82521 0.0
Tb598 Tb 0.78595 0.79443 0.7572 0.0
O599 O 0.73202 0.70618 0.7699 0.0
O600 O 0.75857 0.74326 0.74424 0.0
O601 O 0.74975 0.77159 0.82044 0.0
C602 C 0.84679 0.81838 0.7412 0.0
O603 O 0.8006 0.77185 0.80205 0.0
C604 C 0.74594 0.83549 0.77484 0.0
C605 C 0.7257 0.77714 0.70162 0.0
O606 O 0.84016 0.80197 0.76695 0.0
O607 O 0.81905 0.82091 0.72458 0.0
O608 O 0.76962 0.84345 0.75653 0.0
O609 O 0.74882 0.80754 0.78638 0.0
O610 O 0.75803 0.7774 0.70811 0.0
O611 O 0.70556 0.77338 0.72474 0.0
C612 C 0.65945 0.7457 0.79106 0.0
O613 O 0.6695 0.76562 0.76873 0.0
O614 O 0.68344 0.73093 0.80151 0.0
C615 C 0.75862 0.71427 0.75521 0.0
Tb616 Tb 0.5283 0.56397 0.50791 0.0
C617 C 0.52919 0.49729 0.46121 0.0
Tb618 Tb 0.49984 0.49344 0.52921 0.0
O619 O 0.5797 0.55616 0.51099 0.0
O620 O 0.54618 0.52893 0.53886 0.0
O621 O 0.52752 0.5303 0.46268 0.0
C622 C 0.49774 0.43773 0.56106 0.0
O623 O 0.52186 0.47781 0.4855 0.0
C624 C 0.45407 0.52788 0.507 0.0
C625 C 0.49683 0.55847 0.57557 0.0
O626 O 0.4784 0.43904 0.5338 0.0
O627 O 0.51749 0.46721 0.56957 0.0
O628 O 0.44897 0.50398 0.52711 0.0
O629 O 0.48243 0.52811 0.49725 0.0
O630 O 0.5005 0.52623 0.57425 0.0
O631 O 0.50363 0.57811 0.5511 0.0
C632 C 0.53916 0.62357 0.48175 0.0
O633 O 0.54759 0.61974 0.51282 0.0
O634 O 0.52365 0.5944 0.46615 0.0
C635 C 0.57471 0.53052 0.52895 0.0
Tb636 Tb 0.04572 0.53336 0.00977 0.0
C637 C 0.01756 0.49825 0.07357 0.0
Tb638 Tb 0.97259 0.52026 0.01498 0.0
O639 O 0.05165 0.58876 0.02116 0.0
O640 O 0.01478 0.55449 0.04045 0.0
O641 O 0.04323 0.50766 0.05635 0.0
C642 C 0.91134 0.52926 0.02056 0.0
O643 O 0.98716 0.50287 0.0632 0.0
C644 C 0.99452 0.46869 0.98837 0.0
C645 C 0.99989 0.55431 0.95158 0.0
O646 O 0.91909 0.50754 -0.00131 0.0
O647 O 0.93805 0.54549 0.03924 0.0
O648 O 0.96927 0.46485 0.00568 0.0
O649 O 0.00376 0.49981 0.98436 0.0
O650 O 0.97664 0.55221 0.97241 0.0
O651 O 0.02793 0.54313 0.95924 0.0
C652 C 0.1041 0.51588 0.00777 0.0
O653 O 0.0986 0.54609 0.00206 0.0
O654 O 0.0771 0.49609 0.01413 0.0
C655 C 0.02529 0.5856 0.03684 0.0
C656 C 0.04736 0.19192 0.92518 0.0
C657 C 0.0448 0.22157 0.94484 0.0
C658 C 0.052 0.16236 0.94005 0.0
C659 C 0.05468 0.16192 0.97492 0.0
H660 H 0.04278 0.19056 0.89824 0.0
H661 H 0.05143 0.13912 0.92405 0.0
S662 S 0.05427 0.23496 0.03715 0.0
N663 N 0.04844 0.25015 0.00067 0.0
N664 N 0.05833 0.19486 0.02873 0.0
C665 C 0.05533 0.19247 0.99486 0.0
C666 C 0.05 0.22231 0.97972 0.0
C667 C 0.10201 0.75505 0.24422 0.0
C668 C 0.09538 0.78421 0.22957 0.0
C669 C 0.13337 0.75559 0.26206 0.0
C670 C 0.15907 0.78539 0.26601 0.0
H671 H 0.08414 0.73085 0.2392 0.0
H672 H 0.13825 0.7317 0.27048 0.0
S673 S 0.15112 0.87032 0.23766 0.0
N674 N 0.11482 0.84475 0.22396 0.0
N675 N 0.17317 0.84635 0.25805 0.0
C676 C 0.15107 0.81572 0.25465 0.0
C677 C 0.1194 0.81495 0.23619 0.0
C678 C 0.49245 0.87508 0.4585 0.0
C679 C 0.51228 0.87814 0.432 0.0
C680 C 0.48824 0.90378 0.4781 0.0
C681 C 0.50379 0.93691 0.47228 0.0
H682 H 0.4789 0.85017 0.46353 0.0
H683 H 0.47153 0.89991 0.49716 0.0
S684 S 0.56412 0.95883 0.41097 0.0
N685 N 0.55161 0.91659 0.40412 0.0
N686 N 0.54419 0.97117 0.44172 0.0
C687 C 0.52621 0.94043 0.44795 0.0
C688 C 0.53043 0.91085 0.42766 0.0
C689 C 0.41154 0.30317 0.74881 0.0
C690 C 0.41174 0.27571 0.72469 0.0
C691 C 0.38293 0.30589 0.76436 0.0
C692 C 0.35289 0.28142 0.75651 0.0
H693 H 0.43377 0.32305 0.75581 0.0
H694 H 0.38434 0.32774 0.78249 0.0
S695 S 0.33983 0.20377 0.69594 0.0
N696 N 0.37891 0.22307 0.69409 0.0
N697 N 0.32552 0.22784 0.72384 0.0
C698 C 0.35271 0.25347 0.73285 0.0
C699 C 0.38197 0.25067 0.7169 0.0
C700 C 0.96799 0.88387 0.53573 0.0
C701 C 0.99442 0.8768 0.55718 0.0
C702 C 0.9726 0.91216 0.51704 0.0
C703 C 0.00381 0.93463 0.51906 0.0
H704 H 0.94336 0.86747 0.53327 0.0
H705 H 0.95132 0.9167 0.50125 0.0
S706 S 0.08143 0.92775 0.57088 0.0
N707 N 0.05319 0.89494 0.57928 0.0
N708 N 0.06188 0.94768 0.54331 0.0
C709 C 0.03063 0.92781 0.53998 0.0
C710 C 0.02592 0.89906 0.55931 0.0
C711 C 0.43326 0.74477 0.82273 0.0
C712 C 0.45613 0.76979 0.84385 0.0
C713 C 0.40856 0.75437 0.8017 0.0
C714 C 0.40593 0.78903 0.80198 0.0
H715 H 0.43183 0.7177 0.82551 0.0
H716 H 0.3889 0.73422 0.78865 0.0
S717 S 0.46547 0.86431 0.84659 0.0
N718 N 0.47968 0.83061 0.85864 0.0
N719 N 0.43207 0.84873 0.8195 0.0
C720 C 0.43184 0.81453 0.81881 0.0
C721 C 0.45744 0.80473 0.83989 0.0
C722 C 0.52355 0.17528 0.06973 0.0
C723 C 0.49563 0.18942 0.06086 0.0
C724 C 0.53 0.14764 0.05015 0.0
C725 C 0.50815 0.13283 0.02159 0.0
H726 H 0.53948 0.18447 0.09295 0.0
H727 H 0.5503 0.13576 0.05929 0.0
S728 S 0.43431 0.16371 0.98563 0.0
N729 N 0.44846 0.18997 0.01989 0.0
N730 N 0.45972 0.13635 0.98343 0.0
C731 C 0.48154 0.14833 0.01118 0.0
C732 C 0.47545 0.17717 0.0308 0.0
C733 C 0.11779 0.25115 0.36956 0.0
C734 C 0.0885 0.25963 0.35459 0.0
C735 C 0.14228 0.24366 0.35043 0.0
C736 C 0.13808 0.24367 0.31565 0.0
H737 H 0.12249 0.25147 0.39639 0.0
H738 H 0.16529 0.23906 0.3631 0.0
S739 S 0.0648 0.26045 0.26366 0.0
N740 N 0.05572 0.26521 0.30233 0.0
N741 N 0.10191 0.25009 0.26642 0.0
C742 C 0.10823 0.2499 0.29998 0.0
C743 C 0.0834 0.25828 0.31949 0.0
C744 C 0.97326 0.09728 0.15658 0.0
C745 C 0.93853 0.08442 0.15398 0.0
C746 C 0.99131 0.09227 0.12965 0.0
C747 C 0.97496 0.07384 0.0998 0.0
H748 H 0.98701 0.10772 0.1806 0.0
H749 H 0.0183 0.09986 0.13324 0.0
S750 S 0.88396 0.04048 0.07869 0.0
N751 N 0.88811 0.05758 0.11772 0.0
N752 N 0.92203 0.04699 0.06749 0.0
C753 C 0.93996 0.06428 0.09581 0.0
C754 C 0.92161 0.07017 0.12284 0.0
C755 C 0.32435 0.74618 0.40447 0.0
C756 C 0.29879 0.72247 0.41561 0.0
C757 C 0.31841 0.76266 0.37551 0.0
C758 C 0.28659 0.75635 0.35667 0.0
H759 H 0.34843 0.75384 0.41945 0.0
H760 H 0.33863 0.78164 0.36864 0.0
S761 S 0.21168 0.69515 0.37455 0.0
N762 N 0.24093 0.69224 0.40468 0.0
N763 N 0.2297 0.72336 0.35073 0.0
C764 C 0.26132 0.7314 0.36664 0.0
C765 C 0.26744 0.71453 0.39601 0.0
C766 C 0.52177 0.00603 0.66801 0.0
C767 C 0.54261 0.9832 0.67765 0.0
C768 C 0.51285 0.0102 0.6345 0.0
C769 C 0.5244 0.9921 0.6086 0.0
H770 H 0.51304 0.0221 0.68655 0.0
H771 H 0.49772 0.02887 0.62895 0.0
S772 S 0.57237 0.923 0.61888 0.0
N773 N 0.56982 0.93792 0.65756 0.0
N774 N 0.5532 0.94621 0.59428 0.0
C775 C 0.54333 0.96746 0.61734 0.0
C776 C 0.55231 0.96288 0.65182 0.0
C777 C 0.22296 0.3559 0.93124 0.0
C778 C 0.22433 0.3331 0.95589 0.0
C779 C 0.23058 0.3471 0.89942 0.0
C780 C 0.23932 0.31534 0.89172 0.0
H781 H 0.22032 0.3821 0.93751 0.0
H782 H 0.23237 0.36632 0.88178 0.0
S783 S 0.23154 0.24186 0.94295 0.0
N784 N 0.22381 0.27388 0.96733 0.0
N785 N 0.2389 0.25752 0.90721 0.0
C786 C 0.23484 0.29028 0.91411 0.0
C787 C 0.22655 0.29904 0.94631 0.0
C788 C 0.96512 0.02867 0.32912 0.0
C789 C 0.9444 0.05212 0.32207 0.0
C790 C 0.97932 0.02703 0.3614 0.0
C791 C 0.97352 0.0488 0.38803 0.0
H792 H 0.96958 0.01038 0.30974 0.0
H793 H 0.99395 0.00755 0.36559 0.0
S794 S 0.92643 0.11906 0.38249 0.0
N795 N 0.92237 0.10078 0.34385 0.0
N796 N 0.94952 0.09765 0.40515 0.0
C797 C 0.95512 0.07427 0.38128 0.0
C798 C 0.94047 0.07598 0.34809 0.0
C799 C 0.32812 0.77138 0.62268 0.0
C800 C 0.3179 0.73695 0.60848 0.0
C801 C 0.31877 0.78239 0.65363 0.0
C802 C 0.29765 0.75977 0.67105 0.0
H803 H 0.34264 0.79028 0.60922 0.0
H804 H 0.32715 0.80912 0.66339 0.0
S805 S 0.26556 0.66663 0.64624 0.0
N806 N 0.28722 0.67987 0.6158 0.0
N807 N 0.26856 0.70086 0.67298 0.0
C808 C 0.28796 0.72514 0.65768 0.0
C809 C 0.2984 0.71366 0.62674 0.0
C810 C 0.51747 0.98867 0.8627 0.0
C811 C 0.55205 0.99013 0.86383 0.0
C812 C 0.50241 0.99417 0.89171 0.0
C813 C 0.52129 0.00204 0.9233 0.0
H814 H 0.50207 0.98494 0.83884 0.0
H815 H 0.47581 0.9936 0.88909 0.0
S816 S 0.61234 0.00525 0.94052 0.0
N817 N 0.60452 0.99742 0.89952 0.0
N818 N 0.5762 0.00751 0.9542 0.0
C819 C 0.55568 0.00177 0.92509 0.0
C820 C 0.57105 0.99587 0.89536 0.0
C821 C 0.25084 0.30113 0.11683 0.0
C822 C 0.24695 0.33549 0.11952 0.0
C823 C 0.24018 0.27925 0.14053 0.0
C824 C 0.22556 0.29124 0.16765 0.0
H825 H 0.26362 0.29152 0.09713 0.0
H826 H 0.24663 0.2541 0.13961 0.0
S827 S 0.2061 0.37762 0.18354 0.0
N828 N 0.22405 0.37933 0.14882 0.0
N829 N 0.20456 0.33818 0.19414 0.0
C830 C 0.21846 0.32437 0.16872 0.0
C831 C 0.22924 0.3467 0.14447 0.0
C832 C 0.1578 0.99662 0.04839 0.0
C833 C 0.14839 0.96051 0.0428 0.0
C834 C 0.1341 0.0177 0.04792 0.0
C835 C 0.09951 0.00401 0.04232 0.0
H836 H 0.18398 0.00902 0.05253 0.0
H837 H 0.14321 0.0453 0.05148 0.0
S838 S 0.06096 0.9109 0.02822 0.0
N839 N 0.10155 0.91175 0.03253 0.0
N840 N 0.05698 0.95145 0.03241 0.0
C841 C 0.08946 0.96785 0.03782 0.0
C842 C 0.11384 0.94616 0.0377 0.0
C843 C 0.67424 0.57904 -0.0009 0.0
C844 C 0.68018 0.61351 0.01294 0.0
C845 C 0.64485 0.5559 0.00339 0.0
C846 C 0.62143 0.56631 0.02273 0.0
H847 H 0.69138 0.57046 0.9833 0.0
H848 H 0.63981 0.53022 0.99054 0.0
S849 S 0.62644 0.65282 0.06618 0.0
N850 N 0.66099 0.65627 0.04806 0.0
N851 N 0.60644 0.61253 0.0568 0.0
C852 C 0.62805 0.60002 0.03826 0.0
C853 C 0.65734 0.62372 0.03324 0.0
C854 C 0.72788 0.42918 0.27396 0.0
C855 C 0.69516 0.41647 0.28111 0.0
C856 C 0.75007 0.40707 0.26874 0.0
C857 C 0.7403 0.37139 0.27004 0.0
H858 H 0.73654 0.45646 0.27256 0.0
H859 H 0.77522 0.41809 0.26401 0.0
S860 S 0.65828 0.32576 0.29091 0.0
N861 N 0.65489 0.36631 0.29145 0.0
N862 N 0.69581 0.32491 0.28026 0.0
C863 C 0.70754 0.35848 0.2769 0.0
C864 C 0.68519 0.38097 0.28281 0.0
C865 C 0.84212 0.43145 0.54857 0.0
C866 C 0.81244 0.43839 0.53281 0.0
C867 C 0.87327 0.44987 0.54299 0.0
C868 C 0.87601 0.47566 0.52106 0.0
H869 H 0.84132 0.41053 0.56427 0.0
H870 H 0.8954 0.44276 0.55494 0.0
S871 S 0.80595 0.50726 0.47739 0.0
N872 N 0.78755 0.47551 0.49735 0.0
N873 N 0.84657 0.51003 0.48641 0.0
C874 C 0.84662 0.4845 0.50678 0.0
C875 C 0.81467 0.46596 0.51289 0.0
C876 C 0.29685 0.13543 0.2238 0.0
C877 C 0.33118 0.14428 0.23586 0.0
C878 C 0.27567 0.15902 0.22666 0.0
C879 C 0.28766 0.19299 0.24108 0.0
H880 H 0.28577 0.10961 0.21272 0.0
H881 H 0.24935 0.15023 0.21793 0.0
S882 S 0.37558 0.23043 0.27543 0.0
N883 N 0.37624 0.19026 0.2624 0.0
N884 N 0.3366 0.23475 0.26661 0.0
C885 C 0.32209 0.20278 0.25221 0.0
C886 C 0.34373 0.17845 0.24994 0.0
C887 C 0.3293 0.04562 0.48005 0.0
C888 C 0.32505 0.07302 0.50211 0.0
C889 C 0.35508 0.02809 0.48725 0.0
C890 C 0.37718 0.03749 0.51671 0.0
H891 H 0.31406 0.03907 0.45614 0.0
H892 H 0.35912 0.00884 0.46856 0.0
S893 S 0.37295 0.10296 0.58536 0.0
N894 N 0.34217 0.10541 0.55672 0.0
N895 N 0.39066 0.07233 0.57007 0.0
C896 C 0.37137 0.06263 0.54028 0.0
C897 C 0.34527 0.08053 0.53299 0.0
C898 C 0.70856 0.61937 0.26806 0.0
C899 C 0.70782 0.61261 0.30156 0.0
C900 C 0.72278 0.65216 0.25968 0.0
C901 C 0.73669 0.67919 0.28461 0.0
H902 H 0.69564 0.60006 0.2483 0.0
H903 H 0.7209 0.65682 0.23364 0.0
S904 S 0.74651 0.67196 0.37596 0.0
N905 N 0.72567 0.63365 0.35949 0.0
N906 N 0.75355 0.69493 0.34422 0.0
C907 C 0.73883 0.67154 0.31815 0.0
C908 C 0.72403 0.63832 0.32653 0.0
C909 C 0.83906 0.46931 0.7992 0.0
C910 C 0.83801 0.48436 0.76888 0.0
C911 C 0.81685 0.43881 0.80321 0.0
C912 C 0.79331 0.42183 0.7767 0.0
H913 H 0.85858 0.48012 0.81936 0.0
H914 H 0.82 0.42708 0.82627 0.0
S915 S 0.77726 0.45293 0.69383 0.0
N916 N 0.80889 0.48222 0.71331 0.0
N917 N 0.76761 0.42414 0.72042 0.0
C918 C 0.7903 0.4379 0.74711 0.0
C919 C 0.81254 0.46944 0.74329 0.0
C920 C 0.97387 0.84515 0.07555 0.0
C921 C 0.99026 0.84754 0.10805 0.0
C922 C 0.9707 0.87489 0.0601 0.0
C923 C 0.98447 0.90771 0.07658 0.0
H924 H 0.96509 0.82025 0.0614 0.0
H925 H 0.95909 0.87213 0.03456 0.0
S926 S 0.0292 0.92698 0.16238 0.0
N927 N 0.01942 0.88458 0.15652 0.0
N928 N 0.01384 0.94061 0.12782 0.0
C929 C 0.99963 0.9102 0.10969 0.0
C930 C 0.00252 0.87999 0.12535 0.0
C931 C 0.91905 0.27551 0.79716 0.0
C932 C 0.92701 0.29146 0.82997 0.0
C933 C 0.88801 0.27577 0.77869 0.0
C934 C 0.86461 0.29283 0.7922 0.0
H935 H 0.93586 0.261 0.78656 0.0
H936 H 0.88179 0.26156 0.75425 0.0
S937 S 0.87401 0.33881 0.87691 0.0
N938 N 0.90926 0.32523 0.87482 0.0
N939 N 0.85187 0.32614 0.84025 0.0
C940 C 0.87315 0.31013 0.82438 0.0
C941 C 0.90414 0.30939 0.84319 0.0
C942 C 0.50294 0.17344 0.54997 0.0
C943 C 0.48999 0.17236 0.58101 0.0
C944 C 0.5124 0.14485 0.53447 0.0
C945 C 0.50836 0.11362 0.54873 0.0
H946 H 0.50793 0.19726 0.5384 0.0
H947 H 0.52378 0.1475 0.51156 0.0
S948 S 0.4704 0.09492 0.62639 0.0
N949 N 0.47008 0.13596 0.6233 0.0
N950 N 0.48692 0.08173 0.59347 0.0
C951 C 0.49266 0.11103 0.57805 0.0
C952 C 0.48353 0.14047 0.59427 0.0
C953 C 0.65574 0.82311 0.32216 0.0
C954 C 0.62466 0.80026 0.32051 0.0
C955 C 0.68085 0.81569 0.30324 0.0
C956 C 0.67623 0.78483 0.28228 0.0
H957 H 0.66064 0.84717 0.33797 0.0
H958 H 0.70388 0.8346 0.30469 0.0
S959 S 0.60075 0.71478 0.27126 0.0
N960 N 0.59146 0.74453 0.29729 0.0
N961 N 0.63876 0.73044 0.26235 0.0
C962 C 0.64553 0.76148 0.2808 0.0
C963 C 0.61979 0.76919 0.29976 0.0
C964 C 0.04707 0.17332 0.50602 0.0
C965 C 0.01474 0.17856 0.49659 0.0
C966 C 0.05172 0.14329 0.52015 0.0
C967 C 0.02415 0.1176 0.5243 0.0
H968 H 0.06874 0.19267 0.50287 0.0
H969 H 0.07691 0.1398 0.52712 0.0
S970 S 0.93463 0.1184 0.50208 0.0
N971 N 0.95489 0.15527 0.49155 0.0
N972 N 0.96376 0.09887 0.51763 0.0
C973 C 0.99183 0.12238 0.51452 0.0
C974 C 0.98707 0.15293 0.50073 0.0
C975 C 0.60032 0.29412 0.17616 0.0
C976 C 0.57256 0.28139 0.19251 0.0
C977 C 0.63193 0.28876 0.18726 0.0
C978 C 0.63677 0.27053 0.215 0.0
H979 H 0.59744 0.3066 0.15352 0.0
H980 H 0.65252 0.29819 0.17344 0.0
S981 S 0.5739 0.23832 0.27066 0.0
N982 N 0.55307 0.25466 0.24106 0.0
N983 N 0.61265 0.24387 0.26139 0.0
C984 C 0.60988 0.25982 0.23305 0.0
C985 C 0.57773 0.2657 0.22206 0.0
C986 C 0.48792 0.86843 0.00045 0.0
C987 C 0.51539 0.85654 0.98938 0.0
C988 C 0.49026 0.90289 0.01142 0.0
C989 C 0.5202 0.92713 0.01184 0.0
H990 H 0.46376 0.85136 -0.00068 0.0
H991 H 0.46776 0.91065 0.01812 0.0
S992 S 0.60101 0.90845 0.99021 0.0
N993 N 0.57464 0.87098 0.983 0.0
N994 N 0.57913 0.93615 0.00383 0.0
C995 C 0.54864 0.91526 0.00318 0.0
C996 C 0.54621 0.8799 0.99187 0.0
C997 C 0.91811 0.78597 0.71214 0.0
C998 C 0.92113 0.80065 0.68184 0.0
C999 C 0.89687 0.7956 0.73397 0.0
C1000 C 0.87741 0.81959 0.7257 0.0
H1001 H 0.93115 0.7657 0.71837 0.0
H1002 H 0.89338 0.78168 0.75574 0.0
S1003 S 0.88186 0.87078 0.65298 0.0
N1004 N 0.90795 0.84463 0.64747 0.0
N1005 N 0.86639 0.8621 0.68823 0.0
C1006 C 0.88278 0.83711 0.69725 0.0
C1007 C 0.90511 0.82772 0.67524 0.0
C1008 C 0.0494 0.00027 0.87379 0.0
C1009 C 0.08218 0.99413 0.87666 0.0
C1010 C 0.0313 -0.00021 0.90107 0.0
C1011 C 0.04499 0.99228 0.93194 0.0
H1012 H 0.03848 0.008 0.85083 0.0
H1013 H 0.00753 0.00784 0.89864 0.0
S1014 S 0.12711 0.96858 0.95136 0.0
N1015 N 0.12585 0.97613 0.91174 0.0
N1016 N 0.09112 0.97437 0.96321 0.0
C1017 C 0.0761 0.98241 0.93436 0.0
C1018 C 0.0949 0.98338 0.90654 0.0
C1019 C 0.75675 0.30055 0.62103 0.0
C1020 C 0.73231 0.32083 0.61601 0.0
C1021 C 0.76527 0.28937 0.65199 0.0
C1022 C 0.74987 0.29761 0.67996 0.0
H1023 H 0.76984 0.29302 0.60068 0.0
H1024 H 0.78399 0.27363 0.65381 0.0
S1025 S 0.68511 0.351 0.68175 0.0
N1026 N 0.69358 0.34981 0.64266 0.0
N1027 N 0.70929 0.32826 0.70121 0.0
C1028 C 0.72586 0.31854 0.67597 0.0
C1029 C 0.71722 0.33029 0.64403 0.0
C1030 C 0.46199 0.08514 0.3691 0.0
C1031 C 0.46189 0.0584 0.344 0.0
C1032 C 0.47333 0.08278 0.40304 0.0
C1033 C 0.48563 0.05393 0.41305 0.0
H1034 H 0.45262 0.10768 0.36267 0.0
H1035 H 0.4724 0.10359 0.42154 0.0
S1036 S 0.48901 0.976 0.35844 0.0
N1037 N 0.47447 0.00137 0.33296 0.0
N1038 N 0.49532 0.99769 0.39561 0.0
C1039 C 0.48568 0.02732 0.38838 0.0
C1040 C 0.47401 0.02937 0.35426 0.0
C1041 C 0.80795 0.73475 0.0945 0.0
C1042 C 0.79496 0.7505 0.06772 0.0
C1043 C 0.79728 0.73911 0.12573 0.0
C1044 C 0.77446 0.76034 0.1313 0.0
H1045 H 0.82302 0.71564 0.09047 0.0
H1046 H 0.80559 0.72422 0.14501 0.0
S1047 S 0.74542 0.8188 0.0734 0.0
N1048 N 0.76698 0.79632 0.0514 0.0
N1049 N 0.74724 0.80497 0.11083 0.0
C1050 C 0.76637 0.78109 0.10661 0.0
C1051 C 0.77713 0.77649 0.07463 0.0
C1052 C 0.11528 0.00352 0.68816 0.0
C1053 C 0.09659 0.97849 0.70513 0.0
C1054 C 0.10264 0.01112 0.65705 0.0
C1055 C 0.07126 0.99341 0.64161 0.0
H1056 H 0.13849 0.01952 0.70021 0.0
H1057 H 0.11703 0.03197 0.64566 0.0
S1058 S 0.01516 0.9216 0.67332 0.0
N1059 N 0.04685 0.93358 0.70313 0.0
N1060 N 0.02358 0.94679 0.6434 0.0
C1061 C 0.05357 0.96624 0.65693 0.0
C1062 C 0.06616 0.95901 0.68909 0.0
C1063 C 0.73505 0.35309 0.408 0.0
C1064 C 0.71463 0.32921 0.42494 0.0
C1065 C 0.74574 0.34322 0.37732 0.0
C1066 C 0.7361 0.30916 0.36213 0.0
H1067 H 0.74494 0.37895 0.41974 0.0
H1068 H 0.76221 0.36227 0.36572 0.0
S1069 S 0.68167 0.2372 0.39543 0.0
N1070 N 0.6847 0.2702 0.42369 0.0
N1071 N 0.7035 0.25206 0.36566 0.0
C1072 C 0.71425 0.28556 0.37789 0.0
C1073 C 0.70392 0.29546 0.40935 0.0
C1074 C 0.45526 0.06438 0.13097 0.0
C1075 C 0.47289 0.07001 0.16332 0.0
C1076 C 0.47158 0.05872 0.10239 0.0
C1077 C 0.50602 0.05828 0.1052 0.0
H1078 H 0.42844 0.0623 0.12786 0.0
H1079 H 0.45701 0.05399 0.0781 0.0
S1080 S 0.56348 0.07313 0.18419 0.0
N1081 N 0.52681 0.07614 0.19602 0.0
N1082 N 0.55714 0.06554 0.14318 0.0
C1083 C 0.52393 0.06528 0.13732 0.0
C1084 C 0.50747 0.0711 0.16607 0.0
C1085 C 0.76256 0.68811 0.87087 0.0
C1086 C 0.78689 0.69582 0.89849 0.0
C1087 C 0.76158 0.71108 0.84702 0.0
C1088 C 0.78612 0.74129 0.84865 0.0
H1089 H 0.74145 0.66684 0.87021 0.0
H1090 H 0.73989 0.70616 0.82873 0.0
S1091 S 0.85968 0.76877 0.91205 0.0
N1092 N 0.83892 0.73286 0.92423 0.0
N1093 N 0.83859 0.77496 0.87683 0.0
C1094 C 0.81335 0.74686 0.8735 0.0
C1095 C 0.81364 0.72397 0.89888 0.0
C1096 C 0.87425 0.06515 0.98593 0.0
C1097 C 0.88301 0.10102 0.99474 0.0
C1098 C 0.89828 0.04437 0.98596 0.0
C1099 C 0.93262 0.05815 0.99441 0.0
H1100 H 0.84828 0.05253 0.97968 0.0
H1101 H 0.8896 0.01687 0.98015 0.0
S1102 S 0.96986 0.15088 0.01676 0.0
N1103 N 0.92926 0.14967 0.01075 0.0
N1104 N 0.9744 0.11076 0.00964 0.0
C1105 C 0.94212 0.09418 0.00186 0.0
C1106 C 0.91742 0.11547 0.00242 0.0
C1107 C 0.3701 0.45074 0.9967 0.0
C1108 C 0.35241 0.45707 0.02368 0.0
C1109 C 0.40027 0.47242 0.9929 0.0
C1110 C 0.41395 0.50067 0.0164 0.0
H1111 H 0.36134 0.42797 0.97924 0.0
H1112 H 0.41427 0.46528 0.97313 0.0
S1113 S 0.37512 0.53136 0.08836 0.0
N1114 N 0.34846 0.49616 0.07161 0.0
N1115 N 0.40614 0.53637 0.06505 0.0
C1116 C 0.39534 0.50886 0.0419 0.0
C1117 C 0.3642 0.48718 0.04539 0.0
C1118 C 0.29634 0.64212 0.79241 0.0
C1119 C 0.32246 0.64107 0.77258 0.0
C1120 C 0.27954 0.66966 0.79292 0.0
C1121 C 0.28898 0.69783 0.77465 0.0
H1122 H 0.28803 0.62097 0.80686 0.0
H1123 H 0.2587 0.66873 0.80745 0.0
S1124 S 0.35597 0.70832 0.71914 0.0
N1125 N 0.35684 0.67103 0.73403 0.0
N1126 N 0.32628 0.72322 0.73645 0.0
C1127 C 0.31564 0.6977 0.75554 0.0
C1128 C 0.33213 0.66923 0.75416 0.0
C1129 C 0.18698 0.64669 0.53366 0.0
C1130 C 0.21163 0.62971 0.52266 0.0
C1131 C 0.15436 0.6291 0.53491 0.0
C1132 C 0.14514 0.59363 0.52619 0.0
H1133 H 0.19254 0.67418 0.54068 0.0
H1134 H 0.1361 0.64348 0.54258 0.0
S1135 S 0.19938 0.53614 0.49709 0.0
N1136 N 0.22414 0.57466 0.50338 0.0
N1137 N 0.1626 0.54137 0.50723 0.0
C1138 C 0.16942 0.57574 0.51652 0.0
C1139 C 0.20275 0.59383 0.51442 0.0
C1140 C 0.67105 0.86725 0.80596 0.0
C1141 C 0.66888 0.89585 0.7878 0.0
C1142 C 0.69578 0.84762 0.80178 0.0
C1143 C 0.71984 0.85621 0.77981 0.0
H1144 H 0.65339 0.85979 0.8235 0.0
H1145 H 0.69613 0.82573 0.81601 0.0
S1146 S 0.72678 0.92966 0.72773 0.0
N1147 N 0.69397 0.93192 0.74749 0.0
N1148 N 0.74066 0.89617 0.74058 0.0
C1149 C 0.7184 0.88511 0.76206 0.0
C1150 C 0.69294 0.90459 0.76579 0.0
C1151 C 0.68602 0.99507 0.49158 0.0
C1152 C 0.69297 0.97759 0.51964 0.0
C1153 C 0.65778 0.01004 0.48814 0.0
C1154 C 0.63578 0.00758 0.51251 0.0
H1155 H 0.70173 0.99614 0.47162 0.0
H1156 H 0.65219 0.02188 0.46561 0.0
S1157 S 0.64466 0.96905 0.59239 0.0
N1158 N 0.67695 0.96224 0.57377 0.0
N1159 N 0.62382 0.98964 0.56664 0.0
C1160 C 0.64326 0.99192 0.5413 0.0
C1161 C 0.67194 0.97711 0.54506 0.0
C1162 C 0.31542 0.44939 0.75964 0.0
C1163 C 0.32621 0.45547 0.72831 0.0
C1164 C 0.30268 0.41577 0.76739 0.0
C1165 C 0.30003 0.38688 0.74406 0.0
H1166 H 0.31865 0.47048 0.77901 0.0
H1167 H 0.29562 0.41241 0.79216 0.0
S1168 S 0.32153 0.3896 0.65704 0.0
N1169 N 0.33073 0.43018 0.6729 0.0
N1170 N 0.30709 0.36746 0.68712 0.0
C1171 C 0.30909 0.393 0.71199 0.0
C1172 C 0.32201 0.4271 0.70421 0.0
C1173 C 0.19549 0.58432 0.28749 0.0
C1174 C 0.17188 0.56975 0.26015 0.0
C1175 C 0.2172 0.61603 0.28619 0.0
C1176 C 0.21626 0.63357 0.25732 0.0
H1177 H 0.19529 0.57269 0.31081 0.0
H1178 H 0.23342 0.62783 0.30852 0.0
S1179 S 0.1616 0.60339 0.17782 0.0
N1180 N 0.15073 0.5732 0.20267 0.0
N1181 N 0.19204 0.63214 0.19977 0.0
C1182 C 0.19478 0.61756 0.22892 0.0
C1183 C 0.17238 0.58575 0.23048 0.0
C1184 C 0.53893 0.71586 0.46884 0.0
C1185 C 0.53924 0.71573 0.43409 0.0
C1186 C 0.54172 0.68649 0.48487 0.0
C1187 C 0.544 0.656 0.46638 0.0
H1188 H 0.53459 0.7382 0.48342 0.0
H1189 H 0.53955 0.68691 0.51133 0.0
S1190 S 0.55046 0.64379 0.37579 0.0
N1191 N 0.54611 0.68402 0.3825 0.0
N1192 N 0.55034 0.6283 0.41246 0.0
C1193 C 0.54684 0.6563 0.43212 0.0
C1194 C 0.5448 0.68642 0.41597 0.0
C1195 C 0.59846 0.27298 0.74423 0.0
C1196 C 0.59069 0.25108 0.7142 0.0
C1197 C 0.63058 0.27877 0.76261 0.0
C1198 C 0.65558 0.26227 0.75187 0.0
H1199 H 0.58035 0.28718 0.75254 0.0
H1200 H 0.63611 0.2968 0.78482 0.0
S1201 S 0.64814 0.20295 0.67494 0.0
N1202 N 0.61093 0.2125 0.67526 0.0
N1203 N 0.67045 0.22373 0.70912 0.0
C1204 C 0.64766 0.23961 0.72254 0.0
C1205 C 0.61543 0.23383 0.70398 0.0
C1206 C 0.00475 0.37911 0.96333 0.0
C1207 C 0.0269 0.38344 0.93877 0.0
C1208 C 0.99515 0.40695 0.9796 0.0
C1209 C 0.00754 0.44046 0.97239 0.0
H1210 H 0.99353 0.35372 0.96938 0.0
H1211 H 0.97725 0.402 0.99744 0.0
S1212 S 0.06939 0.46664 0.91351 0.0
N1213 N 0.06322 0.4242 0.91016 0.0
N1214 N 0.04542 0.4772 0.94131 0.0
C1215 C 0.03123 0.44565 0.9494 0.0
C1216 C 0.04095 0.41698 0.93251 0.0
C1217 C 0.8714 0.77212 0.19409 0.0
C1218 C 0.90172 0.76405 0.20739 0.0
C1219 C 0.84658 0.77716 0.21432 0.0
C1220 C 0.85064 0.77402 0.2487 0.0
H1221 H 0.86686 0.77518 0.1678 0.0
H1222 H 0.8245 0.7847 0.20305 0.0
S1223 S 0.92522 0.75437 0.29665 0.0
N1224 N 0.93439 0.75399 0.25786 0.0
N1225 N 0.8875 0.76314 0.29556 0.0
C1226 C 0.88075 0.76626 0.26254 0.0
C1227 C 0.90621 0.76117 0.24198 0.0
C1228 C 0.4914 0.41069 0.07709 0.0
C1229 C 0.50578 0.38216 0.07031 0.0
C1230 C 0.49411 0.43729 0.05657 0.0
C1231 C 0.51188 0.4371 0.02861 0.0
H1232 H 0.47765 0.41256 0.09839 0.0
H1233 H 0.48234 0.45846 0.06321 0.0
S1234 S 0.55306 0.3677 -0.0012 0.0
N1235 N 0.53734 0.35432 0.03261 0.0
N1236 N 0.543 0.40542 0.99427 0.0
C1237 C 0.52585 0.4085 0.02091 0.0
C1238 C 0.52274 0.38084 0.04174 0.0
C1239 C 0.94594 0.28743 0.34989 0.0
C1240 C 0.93795 0.25645 0.36476 0.0
C1241 C 0.92093 0.30027 0.33183 0.0
C1242 C 0.88771 0.28235 0.32861 0.0
H1243 H 0.97075 0.30345 0.35502 0.0
H1244 H 0.92715 0.32529 0.32266 0.0
S1245 S 0.8566 0.19532 0.35422 0.0
N1246 N 0.89671 0.20468 0.36835 0.0
N1247 N 0.84947 0.22882 0.3353 0.0
C1248 C 0.8805 0.24932 0.33964 0.0
C1249 C 0.90586 0.2362 0.35738 0.0
C1250 C 0.01427 0.69487 0.53806 0.0
C1251 C 0.98398 0.69784 0.5501 0.0
C1252 C 0.01767 0.66395 0.52088 0.0
C1253 C 0.99077 0.63539 0.51519 0.0
H1254 H 0.03627 0.71506 0.54498 0.0
H1255 H 0.04219 0.66155 0.51468 0.0
S1256 S 0.90477 0.63327 0.53777 0.0
N1257 N 0.926 0.67197 0.55234 0.0
N1258 N 0.93127 0.61463 0.51891 0.0
C1259 C 0.95929 0.63994 0.52382 0.0
C1260 C 0.9562 0.67102 0.54168 0.0
C1261 C 0.61286 0.74789 0.86553 0.0
C1262 C 0.59513 0.77418 0.85995 0.0
C1263 C 0.63135 0.73649 0.84154 0.0
C1264 C 0.63291 0.75104 0.81116 0.0
H1265 H 0.61301 0.73632 0.88887 0.0
H1266 H 0.64584 0.71732 0.84761 0.0
S1267 S 0.58775 0.8173 0.78209 0.0
N1268 N 0.57784 0.81218 0.82015 0.0
N1269 N 0.61286 0.79055 0.77506 0.0
C1270 C 0.61388 0.77589 0.80428 0.0
C1271 C 0.59507 0.78768 0.82878 0.0
C1272 C 0.42851 0.54956 0.631 0.0
C1273 C 0.43945 0.57718 0.65563 0.0
C1274 C 0.44722 0.54469 0.60494 0.0
C1275 C 0.47653 0.5683 0.60118 0.0
H1276 H 0.40732 0.52945 0.63388 0.0
H1277 H 0.43928 0.52123 0.58835 0.0
S1278 S 0.51429 0.64671 0.65755 0.0
N1279 N 0.4809 0.62923 0.67459 0.0
N1280 N 0.51461 0.62169 0.62309 0.0
C1281 C 0.48644 0.59765 0.62409 0.0
C1282 C 0.46812 0.60177 0.65187 0.0
C1283 C 0.76393 0.25745 0.9217 0.0
C1284 C 0.78703 0.23549 0.92515 0.0
C1285 C 0.75621 0.27083 0.89157 0.0
C1286 C 0.77105 0.26303 0.86305 0.0
H1287 H 0.75125 0.2644 0.94258 0.0
H1288 H 0.73819 0.28738 0.89068 0.0
S1289 S 0.83436 0.20815 0.85826 0.0
N1290 N 0.82554 0.20743 0.89716 0.0
N1291 N 0.81113 0.23269 0.84028 0.0
C1292 C 0.79474 0.24163 0.86598 0.0
C1293 C 0.80277 0.22797 0.89703 0.0
C1294 C 0.01034 0.48331 0.16478 0.0
C1295 C 0.04038 0.47308 0.17564 0.0
C1296 C 0.00232 0.48943 0.13148 0.0
C1297 C 0.024 0.48581 0.10727 0.0
H1298 H 0.99359 0.4886 0.18262 0.0
H1299 H 0.97977 0.49899 0.12522 0.0
S1300 S 0.10246 0.45289 0.12078 0.0
N1301 N 0.08952 0.45484 0.15805 0.0
N1302 N 0.07444 0.46607 0.09553 0.0
C1303 C 0.05267 0.47268 0.11705 0.0
C1304 C 0.06078 0.46627 0.15109 0.0
C1305 C 0.74092 0.8578 0.43602 0.0
C1306 C 0.74945 0.83834 0.4617 0.0
C1307 C 0.74336 0.84674 0.40311 0.0
C1308 C 0.75421 0.81606 0.39548 0.0
H1309 H 0.73545 0.88303 0.44152 0.0
H1310 H 0.73895 0.86343 0.38397 0.0
S1311 S 0.76802 0.75096 0.45304 0.0
N1312 N 0.76071 0.78347 0.47702 0.0
N1313 N 0.76546 0.76257 0.41474 0.0
C1314 C 0.75802 0.79415 0.42038 0.0
C1315 C 0.75548 0.80537 0.45381 0.0
C1316 C 0.44582 0.57261 0.85261 0.0
C1317 C 0.4529 0.55441 0.82408 0.0
C1318 C 0.46283 0.57052 0.88396 0.0
C1319 C 0.48721 0.55015 0.88743 0.0
H1320 H 0.42569 0.5866 0.85104 0.0
H1321 H 0.45548 0.58328 0.90575 0.0
S1322 S 0.51956 0.50392 0.81918 0.0
N1323 N 0.48961 0.52033 0.8004 0.0
N1324 N 0.52101 0.51599 0.85929 0.0
C1325 C 0.4965 0.53453 0.8587 0.0
C1326 C 0.47946 0.53681 0.82696 0.0
C1327 C 0.81352 0.22305 0.13257 0.0
C1328 C 0.82007 0.2468 0.10878 0.0
C1329 C 0.80382 0.23301 0.16375 0.0
C1330 C 0.8006 0.26708 0.17239 0.0
H1331 H 0.8137 0.19617 0.12628 0.0
H1332 H 0.79798 0.21373 0.18091 0.0
S1333 S 0.81776 0.3398 0.12083 0.0
N1334 N 0.82484 0.30666 0.09758 0.0
N1335 N 0.80696 0.3249 0.15596 0.0
C1336 C 0.80894 0.29139 0.14986 0.0
C1337 C 0.81863 0.28137 0.11818 0.0
C1338 C 0.01924 0.48657 0.36559 0.0
C1339 C 0.05372 0.49736 0.36419 0.0
C1340 C 0.00433 0.49516 0.39403 0.0
C1341 C 0.02328 0.51499 0.42234 0.0
H1342 H 0.00333 0.4729 0.3438 0.0
H1343 H 0.97757 0.48671 0.39354 0.0
S1344 S 0.11451 0.55001 0.43135 0.0
N1345 N 0.10637 0.52927 0.39356 0.0
N1346 N 0.07859 0.54455 0.44727 0.0
C1347 C 0.05797 0.52494 0.42171 0.0
C1348 C 0.07311 0.51645 0.39258 0.0
C1349 C 0.71783 0.84627 0.64846 0.0
C1350 C 0.72528 0.83149 0.61842 0.0
C1351 C 0.71238 0.82614 0.67488 0.0
C1352 C 0.71503 0.79143 0.67164 0.0
H1353 H 0.72021 0.87387 0.65288 0.0
H1354 H 0.71034 0.8387 0.69902 0.0
S1355 S 0.72328 0.73935 0.59475 0.0
N1356 N 0.72612 0.7789 0.58397 0.0
N1357 N 0.71774 0.74152 0.63465 0.0
C1358 C 0.71738 0.7755 0.64039 0.0
C1359 C 0.72197 0.79563 0.61331 0.0
C1360 C 0.61525 0.45121 0.53327 0.0
C1361 C 0.64945 0.46567 0.53264 0.0
C1362 C 0.59091 0.47208 0.53448 0.0
C1363 C 0.59982 0.50824 0.53524 0.0
H1364 H 0.60699 0.42354 0.53148 0.0
H1365 H 0.56491 0.4596 0.53281 0.0
S1366 S 0.68603 0.55943 0.53854 0.0
N1367 N 0.69073 0.51916 0.53629 0.0
N1368 N 0.64556 0.55748 0.5383 0.0
C1369 C 0.63399 0.5229 0.53642 0.0
C1370 C 0.65858 0.50195 0.53521 0.0
C1371 C 0.14809 0.09222 0.45297 0.0
C1372 C 0.17486 0.10303 0.47821 0.0
C1373 C 0.11851 0.07097 0.45936 0.0
C1374 C 0.11462 0.06033 0.49135 0.0
H1375 H 0.14967 0.10107 0.42843 0.0
H1376 H 0.09806 0.06398 0.43942 0.0
S1377 S 0.17753 0.08297 0.56619 0.0
N1378 N 0.19612 0.10179 0.5362 0.0
N1379 N 0.14025 0.06248 0.54858 0.0
C1380 C 0.14173 0.07022 0.51657 0.0
C1381 C 0.17196 0.09152 0.5099 0.0
C1382 C 0.19424 0.88107 0.78106 0.0
C1383 C 0.20569 0.91693 0.78802 0.0
C1384 C 0.21633 0.85911 0.77496 0.0
C1385 C 0.25072 0.872 0.77565 0.0
H1386 H 0.16801 0.8697 0.78071 0.0
H1387 H 0.20643 0.83184 0.77097 0.0
S1388 S 0.29332 0.96384 0.78952 0.0
N1389 N 0.25373 0.96437 0.79294 0.0
N1390 N 0.29506 0.92295 0.78192 0.0
C1391 C 0.26243 0.90775 0.78184 0.0
C1392 C 0.24001 0.93021 0.78791 0.0
C1393 C 0.31797 0.96771 0.01362 0.0
C1394 C 0.31403 0.94407 0.03767 0.0
C1395 C 0.34978 0.98693 0.01008 0.0
C1396 C 0.3783 0.98312 0.03064 0.0
H1397 H 0.29692 0.96942 0.99591 0.0
H1398 H 0.35225 0.00341 0.99003 0.0
S1399 S 0.37975 0.92824 0.10065 0.0
N1400 N 0.34021 0.92066 0.08455 0.0
N1401 N 0.39965 0.95691 0.07842 0.0
C1402 C 0.374 0.96164 0.05652 0.0
C1403 C 0.34188 0.94206 0.0599 0.0
C1404 C 0.84005 0.68009 0.75212 0.0
C1405 C 0.82924 0.6448 0.75603 0.0
C1406 C 0.81717 0.70267 0.74988 0.0
C1407 C 0.78267 0.69069 0.75126 0.0
H1408 H 0.86642 0.69061 0.75221 0.0
H1409 H 0.82673 0.72979 0.74857 0.0
S1410 S 0.74101 0.59992 0.75603 0.0
N1411 N 0.78102 0.59883 0.75732 0.0
N1412 N 0.73886 0.64053 0.75328 0.0
C1413 C 0.77163 0.65523 0.75323 0.0
C1414 C 0.79462 0.63253 0.75554 0.0
C1415 C 0.83222 0.55098 0.98249 0.0
C1416 C 0.8285 0.57791 0.0054 0.0
C1417 C 0.85768 0.53287 0.98886 0.0
C1418 C 0.87991 0.5412 0.01833 0.0
H1419 H 0.81676 0.54526 0.95866 0.0
H1420 H 0.86132 0.51396 0.96962 0.0
S1421 S 0.87701 0.60521 0.08874 0.0
N1422 N 0.84628 0.60884 0.06056 0.0
N1423 N 0.89413 0.57461 0.07241 0.0
C1424 C 0.87466 0.56592 0.04262 0.0
C1425 C 0.84892 0.58444 0.03614 0.0
C1426 C 0.21719 0.1269 0.80856 0.0
C1427 C 0.18915 0.11051 0.786 0.0
C1428 C 0.23327 0.16128 0.80609 0.0
C1429 C 0.2222 0.17998 0.78058 0.0
H1430 H 0.22626 0.11343 0.82864 0.0
H1431 H 0.25464 0.1731 0.8239 0.0
S1432 S 0.15049 0.14909 0.71507 0.0
N1433 N 0.15161 0.11612 0.73709 0.0
N1434 N 0.18174 0.17974 0.73261 0.0
C1435 C 0.19463 0.16371 0.75777 0.0
C1436 C 0.17818 0.12925 0.7604 0.0
C1437 C 0.35586 0.9589 0.27284 0.0
C1438 C 0.3414 0.97895 0.25081 0.0
C1439 C 0.33709 0.92913 0.2828 0.0
C1440 C 0.30322 0.91794 0.27061 0.0
H1441 H 0.38238 0.96561 0.28145 0.0
H1442 H 0.34978 0.91366 0.2985 0.0
S1443 S 0.25248 0.96356 0.21586 0.0
N1444 N 0.29052 0.98776 0.21985 0.0
N1445 N 0.25499 0.93071 0.23793 0.0
C1446 C 0.2879 0.93862 0.24994 0.0
C1447 C 0.30706 0.96951 0.2402 0.0
C1448 C 0.47435 0.35235 0.59713 0.0
C1449 C 0.50445 0.3508 0.61632 0.0
C1450 C 0.47203 0.38046 0.57868 0.0
C1451 C 0.4996 0.40776 0.57946 0.0
H1452 H 0.45308 0.33112 0.59516 0.0
H1453 H 0.44872 0.38081 0.56375 0.0
S1454 S 0.5836 0.41606 0.62644 0.0
N1455 N 0.5619 0.37926 0.63555 0.0
N1456 N 0.55759 0.43167 0.60112 0.0
C1457 C 0.52944 0.40675 0.59921 0.0
C1458 C 0.53182 0.37838 0.61768 0.0
C1459 C 0.40054 0.73635 0.30087 0.0
C1460 C 0.42694 0.76521 0.30408 0.0
C1461 C 0.36864 0.73747 0.28578 0.0
C1462 C 0.36148 0.76772 0.27352 0.0
H1463 H 0.40394 0.7133 0.31219 0.0
H1464 H 0.34896 0.71506 0.28602 0.0
S1465 S 0.42335 0.84885 0.27103 0.0
N1466 N 0.44504 0.82358 0.28998 0.0
N1467 N 0.38494 0.82601 0.26176 0.0
C1468 C 0.38842 0.79587 0.27388 0.0
C1469 C 0.42118 0.79452 0.28904 0.0
C1470 C 0.99844 0.64242 0.10422 0.0
C1471 C 0.00423 0.6745 0.0912 0.0
C1472 C 0.0032 0.61273 0.08562 0.0
C1473 C 0.01424 0.61465 0.05385 0.0
H1474 H 0.99271 0.64072 0.12964 0.0
H1475 H 1.00043 0.58876 0.09702 0.0
S1476 S 0.02591 0.69085 0.00624 0.0
N1477 N 0.01603 0.705 0.04255 0.0
N1478 N 0.02571 0.6496 0.00836 0.0
C1479 C 0.01715 0.64581 0.03962 0.0
C1480 C 0.01187 0.67566 0.05812 0.0
C1481 C 0.14611 0.33112 0.80584 0.0
C1482 C 0.12253 0.30489 0.81683 0.0
C1483 C 0.17173 0.32359 0.78773 0.0
C1484 C 0.17475 0.2895 0.77946 0.0
H1485 H 0.14484 0.35785 0.81133 0.0
H1486 H 0.18922 0.34469 0.77991 0.0
S1487 S 0.1228 0.21149 0.80586 0.0
N1488 N 0.10616 0.24333 0.82049 0.0
N1489 N 0.15393 0.22938 0.78603 0.0
C1490 C 0.15188 0.263 0.79068 0.0
C1491 C 0.12589 0.27063 0.80942 0.0
C1492 C 0.52781 0.65781 0.97634 0.0
C1493 C 0.50085 0.67365 0.98208 0.0
C1494 C 0.53262 0.62898 0.99236 0.0
C1495 C 0.51094 0.61561 0.01494 0.0
H1496 H 0.54531 0.66771 0.95941 0.0
H1497 H 0.55376 0.61754 0.98757 0.0
S1498 S 0.43574 0.64586 0.03736 0.0
N1499 N 0.45135 0.67246 0.01098 0.0
N1500 N 0.46102 0.61857 0.04124 0.0
C1501 C 0.48374 0.63064 0.02055 0.0
C1502 C 0.47849 0.65961 0.00402 0.0
C1503 C 0.10181 0.80258 0.68888 0.0
C1504 C 0.07424 0.77722 0.69372 0.0
C1505 C 0.13386 0.80088 0.70238 0.0
C1506 C 0.13917 0.774 0.72128 0.0
H1507 H 0.09888 0.82303 0.67338 0.0
H1508 H 0.15467 0.82031 0.6973 0.0
S1509 S 0.07521 0.70384 0.74507 0.0
N1510 N 0.05402 0.7264 0.72184 0.0
N1511 N 0.11473 0.72341 0.74703 0.0
C1512 C 0.11182 0.7499 0.72842 0.0
C1513 C 0.0791 0.75154 0.71472 0.0
C1514 C 0.99168 0.37691 0.47767 0.0
C1515 C 0.02013 0.3628 0.48409 0.0
C1516 C 0.99191 0.41093 0.48809 0.0
C1517 C 0.02066 0.43256 0.50541 0.0
H1518 H 0.96876 0.36142 0.46445 0.0
H1519 H 0.9692 0.42032 0.48209 0.0
S1520 S 0.10234 0.40877 0.52714 0.0
N1521 N 0.07837 0.37307 0.50774 0.0
N1522 N 0.07891 0.43811 0.52738 0.0
C1523 C 0.0498 0.41933 0.51108 0.0
C1524 C 0.04955 0.38417 0.50038 0.0
C1525 C 0.41437 0.32826 0.17998 0.0
C1526 C 0.40545 0.29493 0.16305 0.0
C1527 C 0.39346 0.34002 0.20155 0.0
C1528 C 0.36312 0.31883 0.20601 0.0
H1529 H 0.43862 0.34427 0.17845 0.0
H1530 H 0.40164 0.36493 0.21579 0.0
S1531 S 0.32755 0.23076 0.16565 0.0
N1532 N 0.36361 0.242 0.15075 0.0
N1533 N 0.32431 0.26412 0.19095 0.0
C1534 C 0.35321 0.28635 0.18783 0.0
C1535 C 0.3744 0.27438 0.16628 0.0
C1536 C 0.60091 0.48677 0.41459 0.0
C1537 C 0.58643 0.48498 0.38151 0.0
C1538 C 0.58102 0.48637 0.44078 0.0
C1539 C 0.54638 0.48453 0.43447 0.0
H1540 H 0.62784 0.49247 0.42045 0.0
H1541 H 0.59333 0.49121 0.46604 0.0
S1542 S 0.49623 0.4731 0.35192 0.0
N1543 N 0.53512 0.4757 0.34355 0.0
N1544 N 0.49801 0.4762 0.39301 0.0
C1545 C 0.53133 0.47902 0.40151 0.0
C1546 C 0.55139 0.47874 0.37489 0.0
C1547 C 0.20033 0.80747 0.13341 0.0
C1548 C 0.22716 0.8298 0.12262 0.0
C1549 C 0.20451 0.79174 0.16319 0.0
C1550 C 0.23571 0.79756 0.18318 0.0
H1551 H 0.17663 0.80034 0.11771 0.0
H1552 H 0.18344 0.77371 0.16985 0.0
S1553 S 0.31301 0.8563 0.1671 0.0
N1554 N 0.2853 0.85885 0.13538 0.0
N1555 N 0.29311 0.82939 0.19095 0.0
C1556 C 0.2621 0.82148 0.17363 0.0
C1557 C 0.25783 0.83747 0.14343 0.0
C1558 C 0.99582 0.55363 0.85713 0.0
C1559 C 0.97312 0.57497 0.84845 0.0
C1560 C 0.00509 0.54835 0.89036 0.0
C1561 C 0.99226 0.56407 0.917 0.0
H1562 H 0.00571 0.53943 0.83797 0.0
H1563 H 0.02145 0.53051 0.89501 0.0
S1564 S 0.93658 0.62684 0.90937 0.0
N1565 N 0.9411 0.61509 0.87032 0.0
N1566 N 0.95862 0.60516 0.93289 0.0
C1567 C 0.97106 0.58701 0.90917 0.0
C1568 C 0.96158 0.59252 0.87503 0.0
C1569 C 0.28253 0.21257 0.59214 0.0
C1570 C 0.27776 0.23416 0.5671 0.0
C1571 C 0.27718 0.22161 0.62453 0.0
C1572 C 0.26753 0.25272 0.63296 0.0
H1573 H 0.28773 0.18726 0.58631 0.0
H1574 H 0.27919 0.20329 0.6427 0.0
S1575 S 0.26045 0.32187 0.57823 0.0
N1576 N 0.26865 0.29029 0.55359 0.0
N1577 N 0.25931 0.3079 0.61556 0.0
C1578 C 0.26599 0.27613 0.60903 0.0
C1579 C 0.27111 0.26671 0.57574 0.0
C1580 C 0.58949 0.4882 0.19007 0.0
C1581 C 0.57626 0.50191 0.2175 0.0
C1582 C 0.57434 0.48857 0.15759 0.0
C1583 C 0.54576 0.50275 0.15191 0.0
H1584 H 0.61295 0.47964 0.19347 0.0
H1585 H 0.58647 0.48007 0.13686 0.0
S1586 S 0.49678 0.53309 0.2157 0.0
N1587 N 0.52937 0.52334 0.23723 0.0
N1588 N 0.50132 0.52455 0.17609 0.0
C1589 C 0.53032 0.51286 0.17919 0.0
C1590 C 0.5455 0.51226 0.21213 0.0
C1591 C 0.22835 0.79166 0.91794 0.0
C1592 C 0.22635 0.82549 0.92967 0.0
C1593 C 0.2387 0.784 0.8866 0.0
C1594 C 0.24805 0.8099 0.86574 0.0
H1595 H 0.22288 0.77098 0.93369 0.0
H1596 H 0.23988 0.75766 0.87886 0.0
S1597 S 0.24591 0.90217 0.88297 0.0
N1598 N 0.23345 0.88485 0.91655 0.0
N1599 N 0.25293 0.87034 0.85785 0.0
C1600 C 0.24508 0.84353 0.87636 0.0
C1601 C 0.23421 0.85136 0.9082 0.0
C1602 C 0.94978 0.52385 0.64 0.0
C1603 C 0.95511 0.55527 0.66046 0.0
C1604 C 0.9664 0.52032 0.61165 0.0
C1605 C 0.9893 0.54799 0.60254 0.0
H1606 H 0.93338 0.50127 0.64667 0.0
H1607 H 0.96211 0.49538 0.59742 0.0
S1608 S 0.01085 0.63645 0.6455 0.0
N1609 N 0.98381 0.61524 0.66801 0.0
N1610 N 0.0151 0.60852 0.61467 0.0
C1611 C 0.9939 0.57998 0.62165 0.0
C1612 C 0.97672 0.5837 0.65055 0.0
C1613 C 0.32401 0.24224 0.40346 0.0
C1614 C 0.31003 0.20694 0.40258 0.0
C1615 C 0.31876 0.25992 0.37552 0.0
C1616 C 0.29977 0.24225 0.34657 0.0
H1617 H 0.33425 0.25707 0.42705 0.0
H1618 H 0.32632 0.28771 0.37778 0.0
S1619 S 0.2678 0.1483 0.32926 0.0
N1620 N 0.2846 0.15385 0.36858 0.0
N1621 N 0.27397 0.18697 0.31607 0.0
C1622 C 0.29091 0.20623 0.34389 0.0
C1623 C 0.29689 0.18835 0.37199 0.0
C1624 C 0.39025 0.58462 0.52115 0.0
C1625 C 0.38832 0.60189 0.49216 0.0
C1626 C 0.41102 0.56054 0.52521 0.0
C1627 C 0.43206 0.55345 0.50126 0.0
H1628 H 0.375 0.5891 0.54069 0.0
H1629 H 0.41034 0.54727 0.5474 0.0
S1630 S 0.43564 0.58981 0.41988 0.0
N1631 N 0.40845 0.60831 0.43792 0.0
N1632 N 0.4484 0.56452 0.44667 0.0
C1633 C 0.43053 0.57042 0.47217 0.0
C1634 C 0.40856 0.59422 0.46742 0.0
C1635 C 0.88843 0.96612 0.58491 0.0
C1636 C 0.85933 0.96405 0.56291 0.0
C1637 C 0.91927 0.984 0.57782 0.0
C1638 C 0.92218 -1e-05 0.54815 0.0
H1639 H 0.8877 0.95192 0.6067 0.0
H1640 H 0.9412 0.98315 0.59471 0.0
S1641 S 0.8522 0.00594 0.48462 0.0
N1642 N 0.8343 0.98256 0.5123 0.0
N1643 N 0.89235 0.01619 0.49863 0.0
C1644 C 0.89268 0.00063 0.52735 0.0
C1645 C 0.86117 0.98266 0.53486 0.0
C1646 C 0.80533 0.14316 0.26491 0.0
C1647 C 0.83826 0.15374 0.25747 0.0
C1648 C 0.78446 0.16681 0.26892 0.0
C1649 C 0.79566 0.20197 0.26578 0.0
H1650 H 0.79539 0.11632 0.26732 0.0
H1651 H 0.75907 0.15731 0.27394 0.0
S1652 S 0.87932 0.24271 0.24509 0.0
N1653 N 0.88094 0.2018 0.24658 0.0
N1654 N 0.84167 0.24587 0.25396 0.0
C1655 C 0.82861 0.21292 0.25869 0.0
C1656 C 0.84994 0.18891 0.25464 0.0
C1657 C 0.71247 0.08797 0.02918 0.0
C1658 C 0.71987 0.1186 0.01397 0.0
C1659 C 0.67931 0.06941 0.02695 0.0
C1660 C 0.65288 0.08113 0.00954 0.0
H1661 H 0.73196 0.07942 0.04432 0.0
H1662 H 0.67417 0.04664 0.04009 0.0
S1663 S 0.66039 0.15928 0.96417 0.0
N1664 N 0.69897 0.15897 0.97979 0.0
N1665 N 0.63702 0.12448 0.97555 0.0
C1666 C 0.66053 0.11082 0.99286 0.0
C1667 C 0.694 0.12949 0.99514 0.0
C1668 C 0.21102 0.41194 0.31086 0.0
C1669 C 0.17869 0.40599 0.29312 0.0
C1670 C 0.23139 0.3874 0.30927 0.0
C1671 C 0.22043 0.35545 0.29013 0.0
H1672 H 0.22122 0.43623 0.32565 0.0
H1673 H 0.25633 0.39393 0.32262 0.0
S1674 S 0.13712 0.32546 0.24081 0.0
N1675 N 0.13633 0.36468 0.25669 0.0
N1676 N 0.17396 0.31815 0.25487 0.0
C1677 C 0.18762 0.34837 0.27347 0.0
C1678 C 0.16701 0.37368 0.27461 0.0
C1679 C 0.17131 0.47353 0.04261 0.0
C1680 C 0.19414 0.47728 0.01886 0.0
C1681 C 0.14283 0.48741 0.03909 0.0
C1682 C 0.13641 0.50614 0.01221 0.0
H1683 H 0.17462 0.45862 0.06351 0.0
H1684 H 0.12531 0.48286 0.05726 0.0
S1685 S 0.18854 0.52551 0.94421 0.0
N1686 N 0.20886 0.50253 0.96796 0.0
N1687 N 0.15494 0.52939 0.96218 0.0
C1688 C 0.15944 0.51175 0.9891 0.0
C1689 C 0.18846 0.49708 0.99224 0.0
C1690 C 0.79794 0.93405 0.21127 0.0
C1691 C 0.82832 0.95247 0.22845 0.0
C1692 C 0.78408 0.9008 0.21913 0.0
C1693 C 0.8002 0.88531 0.24443 0.0
H1694 H 0.78535 0.94498 0.19124 0.0
H1695 H 0.76076 0.88706 0.20526 0.0
S1696 S 0.88141 0.9226 0.29485 0.0
N1697 N 0.87463 0.95264 0.27068 0.0
N1698 N 0.84872 0.89062 0.28552 0.0
C1699 C 0.83048 0.90376 0.26174 0.0
C1700 C 0.84452 0.93724 0.25367 0.0
C1701 C 0.70075 0.08929 0.78858 0.0
C1702 C 0.67367 0.07715 0.76378 0.0
C1703 C 0.72397 0.11969 0.78571 0.0
C1704 C 0.72113 0.13825 0.75766 0.0
H1705 H 0.70265 0.07669 0.81125 0.0
H1706 H 0.74327 0.12962 0.80627 0.0
S1707 S 0.65657 0.11426 0.68429 0.0
N1708 N 0.6467 0.08407 0.70936 0.0
N1709 N 0.69068 0.14026 0.70337 0.0
C1710 C 0.69561 0.12464 0.7316 0.0
C1711 C 0.67174 0.0943 0.73486 0.0
loop_
_geom_bond_atom_site_label_1
_geom_bond_atom_site_label_2
_geom_bond_distance
_geom_bond_site_symmetry_2
_ccdc_geom_bond_type
Zn0 O3 2.031 . S
Zn0 O5 2.049 . S
Zn0 O10 2.067 . S
Zn1 O2 1.962 . S
Zn1 O4 1.986 . S
Zn1 O6 1.996 . S
Zn1 O9 1.943 1_455 S
O2 Zn1 1.962 . S
O2 C7 1.254 . S
O3 Zn0 2.031 . S
O3 C7 1.269 1_655 S
O4 Zn1 1.986 . S
O4 C11 1.262 . S
O5 Zn0 2.049 . S
O5 C13 1.260 1_655 S
O6 Zn1 1.996 . S
O6 C13 1.257 . S
C7 O2 1.254 . S
C7 O3 1.269 1_455 S
C8 O9 1.249 . S
C8 O10 1.270 . S
O9 Zn1 1.943 1_655 S
O9 C8 1.249 . S
O10 Zn0 2.067 . S
O10 C8 1.270 . S
C11 O4 1.262 . S
C11 O12 1.232 . S
O12 C11 1.232 . S
C13 O5 1.260 1_455 S
C13 O6 1.257 . S
Zn14 O17 2.031 1_455 S
Zn14 O19 2.049 . S
Zn14 O24 2.067 . S
Zn15 O16 1.961 . S
Zn15 O18 1.986 1_655 S
Zn15 O20 1.997 1_655 S
Zn15 O23 1.943 . S
O16 Zn15 1.961 . S
O16 C21 1.254 . S
O17 Zn14 2.031 1_655 S
O17 C21 1.269 . S
O18 Zn15 1.986 1_455 S
O18 C25 1.262 . S
O19 Zn14 2.049 . S
O19 C27 1.260 . S
O20 Zn15 1.997 1_455 S
O20 C27 1.257 . S
C21 O16 1.254 . S
C21 O17 1.269 . S
C22 O23 1.249 . S
C22 O24 1.270 1_655 S
O23 Zn15 1.943 . S
O23 C22 1.249 . S
O24 Zn14 2.067 . S
O24 C22 1.270 1_455 S
C25 O18 1.262 . S
C25 O26 1.232 1_455 S
O26 C25 1.232 1_655 S
C27 O19 1.260 . S
C27 O20 1.257 . S
Zn28 O31 2.031 . S
Zn28 O33 2.049 . S
Zn28 O38 2.067 . S
Zn29 O30 1.962 . S
Zn29 O32 1.986 . S
Zn29 O34 1.996 . S
Zn29 O37 1.943 . S
O30 Zn29 1.962 . S
O30 C35 1.254 . S
O31 Zn28 2.031 . S
O31 C35 1.269 . S
O32 Zn29 1.986 . S
O32 C39 1.262 . S
O33 Zn28 2.049 . S
O33 C41 1.260 . S
O34 Zn29 1.996 . S
O34 C41 1.257 . S
C35 O30 1.254 . S
C35 O31 1.269 . S
C36 O37 1.249 . S
C36 O38 1.270 . S
O37 Zn29 1.943 . S
O37 C36 1.249 . S
O38 Zn28 2.067 . S
O38 C36 1.270 . S
C39 O32 1.262 . S
C39 O40 1.232 . S
O40 C39 1.232 . S
C41 O33 1.260 . S
C41 O34 1.257 . S
Zn42 O45 2.031 . S
Zn42 O47 2.049 . S
Zn42 O52 2.067 . S
Zn43 O44 1.962 . S
Zn43 O46 1.986 . S
Zn43 O48 1.996 . S
Zn43 O51 1.943 . S
O44 Zn43 1.962 . S
O44 C49 1.254 . S
O45 Zn42 2.031 . S
O45 C49 1.269 . S
O46 Zn43 1.986 . S
O46 C53 1.262 . S
O47 Zn42 2.049 . S
O47 C55 1.260 . S
O48 Zn43 1.996 . S
O48 C55 1.257 . S
C49 O44 1.254 . S
C49 O45 1.269 . S
C50 O51 1.249 . S
C50 O52 1.270 . S
O51 Zn43 1.943 . S
O51 C50 1.249 . S
O52 Zn42 2.067 . S
O52 C50 1.270 . S
C53 O46 1.262 . S
C53 O54 1.232 . S
O54 C53 1.232 . S
C55 O47 1.260 . S
C55 O48 1.257 . S
Zn56 O59 2.031 . S
Zn56 O61 2.049 . S
Zn56 O66 2.067 . S
Zn57 O58 1.962 . S
Zn57 O60 1.986 . S
Zn57 O62 1.994 1_655 S
Zn57 O65 1.943 1_655 S
O58 Zn57 1.962 . S
O58 C63 1.254 1_655 S
O59 Zn56 2.031 . S
O59 C63 1.269 . S
O60 Zn57 1.986 . S
O60 C67 1.262 . S
O61 Zn56 2.049 . S
O61 C69 1.260 . S
O62 Zn57 1.994 1_455 S
O62 C69 1.261 . S
C63 O58 1.254 1_455 S
C63 O59 1.269 . S
C64 O65 1.249 . S
C64 O66 1.270 . S
O65 Zn57 1.943 1_455 S
O65 C64 1.249 . S
O66 Zn56 2.067 . S
O66 C64 1.270 . S
C67 O60 1.262 . S
C67 O68 1.232 . S
O68 C67 1.232 . S
C69 O61 1.260 . S
C69 O62 1.261 . S
Zn70 O73 2.031 . S
Zn70 O75 2.049 . S
Zn70 O80 2.067 . S
Zn71 O72 1.962 . S
Zn71 O74 1.986 . S
Zn71 O76 1.996 . S
Zn71 O79 1.943 . S
O72 Zn71 1.962 . S
O72 C77 1.254 . S
O73 Zn70 2.031 . S
O73 C77 1.269 . S
O74 Zn71 1.986 . S
O74 C81 1.262 . S
O75 Zn70 2.049 . S
O75 C83 1.260 . S
O76 Zn71 1.996 . S
O76 C83 1.257 . S
C77 O72 1.254 . S
C77 O73 1.269 . S
C78 O79 1.249 . S
C78 O80 1.270 . S
O79 Zn71 1.943 . S
O79 C78 1.249 . S
O80 Zn70 2.067 . S
O80 C78 1.270 . S
C81 O74 1.262 . S
C81 O82 1.232 . S
O82 C81 1.232 . S
C83 O75 1.260 . S
C83 O76 1.257 . S
Zn84 O87 2.031 . S
Zn84 O89 2.049 . S
Zn84 O94 2.067 . S
Zn85 O86 1.962 . S
Zn85 O88 1.986 . S
Zn85 O90 1.996 . S
Zn85 O93 1.943 . S
O86 Zn85 1.962 . S
O86 C91 1.254 . S
O87 Zn84 2.031 . S
O87 C91 1.269 . S
O88 Zn85 1.986 . S
O88 C95 1.262 . S
O89 Zn84 2.049 . S
O89 C97 1.260 . S
O90 Zn85 1.996 . S
O90 C97 1.257 . S
C91 O86 1.254 . S
C91 O87 1.269 . S
C92 O93 1.249 . S
C92 O94 1.270 . S
O93 Zn85 1.943 . S
O93 C92 1.249 . S
O94 Zn84 2.067 . S
O94 C92 1.270 . S
C95 O88 1.262 . S
C95 O96 1.232 . S
O96 C95 1.232 . S
C97 O89 1.260 . S
C97 O90 1.257 . S
Zn98 O101 2.031 . S
Zn98 O103 2.049 . S
Zn98 O108 2.067 . S
Zn99 O100 1.962 . S
Zn99 O102 1.986 . S
Zn99 O104 1.996 . S
Zn99 O107 1.943 1_455 S
O100 Zn99 1.962 . S
O100 C105 1.254 . S
O101 Zn98 2.031 . S
O101 C105 1.269 1_655 S
O102 Zn99 1.986 . S
O102 C109 1.262 . S
O103 Zn98 2.049 . S
O103 C111 1.260 . S
O104 Zn99 1.996 . S
O104 C111 1.257 1_455 S
C105 O100 1.254 . S
C105 O101 1.269 1_455 S
C106 O107 1.249 . S
C106 O108 1.270 . S
O107 Zn99 1.943 1_655 S
O107 C106 1.249 . S
O108 Zn98 2.067 . S
O108 C106 1.270 . S
C109 O102 1.262 . S
C109 O110 1.232 . S
O110 C109 1.232 . S
C111 O103 1.260 . S
C111 O104 1.257 1_655 S
Zn112 O115 2.031 . S
Zn112 O117 2.049 . S
Zn112 O122 2.067 1_545 S
Zn113 O114 1.962 . S
Zn113 O116 1.986 . S
Zn113 O118 1.996 . S
Zn113 O121 1.943 . S
O114 Zn113 1.962 . S
O114 C119 1.254 . S
O115 Zn112 2.031 . S
O115 C119 1.269 . S
O116 Zn113 1.986 . S
O116 C123 1.262 . S
O117 Zn112 2.049 . S
O117 C125 1.260 . S
O118 Zn113 1.996 . S
O118 C125 1.257 . S
C119 O114 1.254 . S
C119 O115 1.269 . S
C120 O121 1.249 1_565 S
C120 O122 1.270 . S
O121 Zn113 1.943 . S
O121 C120 1.249 1_545 S
O122 Zn112 2.067 1_565 S
O122 C120 1.270 . S
C123 O116 1.262 . S
C123 O124 1.232 . S
O124 C123 1.232 . S
C125 O117 1.260 . S
C125 O118 1.257 . S
Zn126 O129 2.031 . S
Zn126 O131 2.049 . S
Zn126 O136 2.067 . S
Zn127 O128 1.962 . S
Zn127 O130 1.986 . S
Zn127 O132 1.996 . S
Zn127 O135 1.943 . S
O128 Zn127 1.962 . S
O128 C133 1.254 . S
O129 Zn126 2.031 . S
O129 C133 1.269 . S
O130 Zn127 1.986 . S
O130 C137 1.262 . S
O131 Zn126 2.049 . S
O131 C139 1.260 . S
O132 Zn127 1.996 . S
O132 C139 1.257 . S
C133 O128 1.254 . S
C133 O129 1.269 . S
C134 O135 1.249 . S
C134 O136 1.270 . S
O135 Zn127 1.943 . S
O135 C134 1.249 . S
O136 Zn126 2.067 . S
O136 C134 1.270 . S
C137 O130 1.262 . S
C137 O138 1.232 . S
O138 C137 1.232 . S
C139 O131 1.260 . S
C139 O132 1.257 . S
Zn140 O143 2.031 . S
Zn140 O145 2.049 . S
Zn140 O150 2.067 . S
Zn141 O142 1.962 . S
Zn141 O144 1.986 . S
Zn141 O146 1.996 . S
Zn141 O149 1.943 1_565 S
O142 Zn141 1.962 . S
O142 C147 1.254 1_565 S
O143 Zn140 2.031 . S
O143 C147 1.269 . S
O144 Zn141 1.986 . S
O144 C151 1.262 . S
O145 Zn140 2.049 . S
O145 C153 1.260 . S
O146 Zn141 1.996 . S
O146 C153 1.257 1_565 S
C147 O142 1.254 1_545 S
C147 O143 1.269 . S
C148 O149 1.249 . S
C148 O150 1.270 . S
O149 Zn141 1.943 1_545 S
O149 C148 1.249 . S
O150 Zn140 2.067 . S
O150 C148 1.270 . S
C151 O144 1.262 . S
C151 O152 1.232 . S
O152 C151 1.232 . S
C153 O145 1.260 . S
C153 O146 1.257 1_545 S
Zn154 O157 2.031 1_554 S
Zn154 O159 2.049 . S
Zn154 O164 2.067 . S
Zn155 O156 1.962 1_554 S
Zn155 O158 1.986 . S
Zn155 O160 1.996 . S
Zn155 O163 1.943 . S
O156 Zn155 1.962 1_556 S
O156 C161 1.254 . S
O157 Zn154 2.031 1_556 S
O157 C161 1.269 . S
O158 Zn155 1.986 . S
O158 C165 1.262 . S
O159 Zn154 2.049 . S
O159 C167 1.260 . S
O160 Zn155 1.996 . S
O160 C167 1.257 . S
C161 O156 1.254 . S
C161 O157 1.269 . S
C162 O163 1.249 . S
C162 O164 1.270 . S
O163 Zn155 1.943 . S
O163 C162 1.249 . S
O164 Zn154 2.067 . S
O164 C162 1.270 . S
C165 O158 1.262 . S
C165 O166 1.232 . S
O166 C165 1.232 . S
C167 O159 1.260 . S
C167 O160 1.257 . S
Zn168 O171 2.031 1_554 S
Zn168 O173 2.049 . S
Zn168 O178 2.067 . S
Zn169 O170 1.962 1_554 S
Zn169 O172 1.986 . S
Zn169 O174 1.996 . S
Zn169 O177 1.943 . S
O170 Zn169 1.962 1_556 S
O170 C175 1.254 . S
O171 Zn168 2.031 1_556 S
O171 C175 1.269 . S
O172 Zn169 1.986 . S
O172 C179 1.262 . S
O173 Zn168 2.049 . S
O173 C181 1.260 . S
O174 Zn169 1.996 . S
O174 C181 1.257 . S
C175 O170 1.254 . S
C175 O171 1.269 . S
C176 O177 1.249 . S
C176 O178 1.270 . S
O177 Zn169 1.943 . S
O177 C176 1.249 . S
O178 Zn168 2.067 . S
O178 C176 1.270 . S
C179 O172 1.262 . S
C179 O180 1.232 . S
O180 C179 1.232 . S
C181 O173 1.260 . S
C181 O174 1.257 . S
Zn182 O185 2.031 1_554 S
Zn182 O187 2.049 . S
Zn182 O192 2.067 . S
Zn183 O184 1.962 1_554 S
Zn183 O186 1.986 . S
Zn183 O188 1.996 . S
Zn183 O191 1.943 . S
O184 Zn183 1.962 1_556 S
O184 C189 1.254 . S
O185 Zn182 2.031 1_556 S
O185 C189 1.269 . S
O186 Zn183 1.986 . S
O186 C193 1.262 . S
O187 Zn182 2.049 . S
O187 C195 1.260 . S
O188 Zn183 1.996 . S
O188 C195 1.257 . S
C189 O184 1.254 . S
C189 O185 1.269 . S
C190 O191 1.249 . S
C190 O192 1.270 . S
O191 Zn183 1.943 . S
O191 C190 1.249 . S
O192 Zn182 2.067 . S
O192 C190 1.270 . S
C193 O186 1.262 . S
C193 O194 1.232 1_554 S
O194 C193 1.232 1_556 S
C195 O187 1.260 . S
C195 O188 1.257 . S
Zn196 O199 2.031 . S
Zn196 O201 2.049 . S
Zn196 O206 2.067 . S
Zn197 O198 1.962 . S
Zn197 O200 1.986 . S
Zn197 O202 1.996 . S
Zn197 O205 1.943 . S
O198 Zn197 1.962 . S
O198 C203 1.254 . S
O199 Zn196 2.031 . S
O199 C203 1.269 . S
O200 Zn197 1.986 . S
O200 C207 1.262 . S
O201 Zn196 2.049 . S
O201 C209 1.260 . S
O202 Zn197 1.996 . S
O202 C209 1.257 . S
C203 O198 1.254 . S
C203 O199 1.269 . S
C204 O205 1.249 . S
C204 O206 1.270 . S
O205 Zn197 1.943 . S
O205 C204 1.249 . S
O206 Zn196 2.067 . S
O206 C204 1.270 . S
C207 O200 1.262 . S
C207 O208 1.232 . S
O208 C207 1.232 . S
C209 O201 1.260 . S
C209 O202 1.257 . S
Zn210 O213 2.031 . S
Zn210 O215 2.049 . S
Zn210 O220 2.067 . S
Zn211 O212 1.962 . S
Zn211 O214 1.986 . S
Zn211 O216 1.996 . S
Zn211 O219 1.943 . S
O212 Zn211 1.962 . S
O212 C217 1.254 . S
O213 Zn210 2.031 . S
O213 C217 1.269 . S
O214 Zn211 1.986 . S
O214 C221 1.262 . S
O215 Zn210 2.049 . S
O215 C223 1.260 . S
O216 Zn211 1.996 . S
O216 C223 1.257 . S
C217 O212 1.254 . S
C217 O213 1.269 . S
C218 O219 1.249 . S
C218 O220 1.270 . S
O219 Zn211 1.943 . S
O219 C218 1.249 . S
O220 Zn210 2.067 . S
O220 C218 1.270 . S
C221 O214 1.262 . S
C221 O222 1.232 . S
O222 C221 1.232 . S
C223 O215 1.260 . S
C223 O216 1.257 . S
Zn224 O227 2.031 . S
Zn224 O229 2.049 . S
Zn224 O234 2.067 1_545 S
Zn225 O226 1.962 . S
Zn225 O228 1.986 . S
Zn225 O230 1.996 . S
Zn225 O233 1.943 . S
O226 Zn225 1.962 . S
O226 C231 1.254 . S
O227 Zn224 2.031 . S
O227 C231 1.269 . S
O228 Zn225 1.986 . S
O228 C235 1.262 . S
O229 Zn224 2.049 . S
O229 C237 1.260 . S
O230 Zn225 1.996 . S
O230 C237 1.257 . S
C231 O226 1.254 . S
C231 O227 1.269 . S
C232 O233 1.250 . S
C232 O234 1.270 1_545 S
O233 Zn225 1.943 . S
O233 C232 1.250 . S
O234 Zn224 2.067 1_565 S
O234 C232 1.270 1_565 S
C235 O228 1.262 . S
C235 O236 1.232 . S
O236 C235 1.232 . S
C237 O229 1.260 . S
C237 O230 1.257 . S
Zn238 O241 2.031 . S
Zn238 O243 2.049 . S
Zn238 O248 2.067 . S
Zn239 O240 1.962 . S
Zn239 O242 1.986 . S
Zn239 O244 1.996 . S
Zn239 O247 1.943 . S
O240 Zn239 1.962 . S
O240 C245 1.254 . S
O241 Zn238 2.031 . S
O241 C245 1.269 . S
O242 Zn239 1.986 . S
O242 C249 1.262 . S
O243 Zn238 2.049 . S
O243 C251 1.260 . S
O244 Zn239 1.996 . S
O244 C251 1.257 . S
C245 O240 1.254 . S
C245 O241 1.269 . S
C246 O247 1.249 . S
C246 O248 1.270 . S
O247 Zn239 1.943 . S
O247 C246 1.249 . S
O248 Zn238 2.067 . S
O248 C246 1.270 . S
C249 O242 1.262 . S
C249 O250 1.232 . S
O250 C249 1.232 . S
C251 O243 1.260 . S
C251 O244 1.257 . S
Zn252 O255 2.031 . S
Zn252 O257 2.049 . S
Zn252 O262 2.067 . S
Zn253 O254 1.962 . S
Zn253 O256 1.986 . S
Zn253 O258 1.996 . S
Zn253 O261 1.943 . S
O254 Zn253 1.962 . S
O254 C259 1.254 . S
O255 Zn252 2.031 . S
O255 C259 1.269 . S
O256 Zn253 1.986 . S
O256 C263 1.262 . S
O257 Zn252 2.049 . S
O257 C265 1.260 . S
O258 Zn253 1.996 . S
O258 C265 1.257 . S
C259 O254 1.254 . S
C259 O255 1.269 . S
C260 O261 1.249 . S
C260 O262 1.270 . S
O261 Zn253 1.943 . S
O261 C260 1.249 . S
O262 Zn252 2.067 . S
O262 C260 1.270 . S
C263 O256 1.262 . S
C263 O264 1.232 . S
O264 C263 1.232 . S
C265 O257 1.260 . S
C265 O258 1.257 . S
Zn266 O269 2.031 . S
Zn266 O271 2.049 . S
Zn266 O276 2.067 . S
Zn267 O268 1.962 . S
Zn267 O270 1.986 . S
Zn267 O272 1.996 . S
Zn267 O275 1.943 1_565 S
O268 Zn267 1.962 . S
O268 C273 1.254 1_565 S
O269 Zn266 2.031 . S
O269 C273 1.269 . S
O270 Zn267 1.986 . S
O270 C277 1.262 . S
O271 Zn266 2.049 . S
O271 C279 1.260 . S
O272 Zn267 1.996 . S
O272 C279 1.257 1_565 S
C273 O268 1.254 1_545 S
C273 O269 1.269 . S
C274 O275 1.249 . S
C274 O276 1.270 . S
O275 Zn267 1.943 1_545 S
O275 C274 1.249 . S
O276 Zn266 2.067 . S
O276 C274 1.270 . S
C277 O270 1.262 . S
C277 O278 1.232 . S
O278 C277 1.232 . S
C279 O271 1.260 . S
C279 O272 1.257 1_545 S
Zn280 O283 2.031 1_554 S
Zn280 O285 2.049 . S
Zn280 O290 2.067 . S
Zn281 O282 1.984 . S
Zn281 O284 1.975 1_556 S
Zn281 O286 1.979 1_556 S
Zn281 O289 1.940 . S
O282 Zn281 1.984 . S
O282 C287 1.254 . S
O283 Zn280 2.031 1_556 S
O283 C287 1.269 . S
O284 Zn281 1.975 1_554 S
O284 C291 1.251 1_554 S
O285 Zn280 2.049 . S
O285 C293 1.260 . S
O286 Zn281 1.979 1_554 S
O286 C293 1.257 . S
C287 O282 1.254 . S
C287 O283 1.269 . S
C288 O289 1.249 . S
C288 O290 1.270 1_556 S
O289 Zn281 1.940 . S
O289 C288 1.249 . S
O290 Zn280 2.067 . S
O290 C288 1.270 1_554 S
C291 O284 1.251 1_556 S
C291 O292 1.246 . S
O292 C291 1.246 . S
C293 O285 1.260 . S
C293 O286 1.257 . S
Zn294 O297 2.031 . S
Zn294 O299 2.049 . S
Zn294 O304 2.067 . S
Zn295 O296 1.962 . S
Zn295 O298 1.986 . S
Zn295 O300 1.996 . S
Zn295 O303 1.943 . S
O296 Zn295 1.962 . S
O296 C301 1.254 . S
O297 Zn294 2.031 . S
O297 C301 1.269 . S
O298 Zn295 1.986 . S
O298 C305 1.262 . S
O299 Zn294 2.049 . S
O299 C307 1.260 . S
O300 Zn295 1.996 . S
O300 C307 1.257 . S
C301 O296 1.254 . S
C301 O297 1.269 . S
C302 O303 1.249 . S
C302 O304 1.270 . S
O303 Zn295 1.943 . S
O303 C302 1.249 . S
O304 Zn294 2.067 . S
O304 C302 1.270 . S
C305 O298 1.262 . S
C305 O306 1.232 . S
O306 C305 1.232 . S
C307 O299 1.260 . S
C307 O300 1.257 . S
Zn308 O311 2.031 . S
Zn308 O313 2.049 . S
Zn308 O318 2.067 . S
Zn309 O310 1.962 . S
Zn309 O312 1.986 . S
Zn309 O314 1.996 . S
Zn309 O317 1.943 . S
O310 Zn309 1.962 . S
O310 C315 1.254 . S
O311 Zn308 2.031 . S
O311 C315 1.269 . S
O312 Zn309 1.986 . S
O312 C319 1.262 . S
O313 Zn308 2.049 . S
O313 C321 1.260 . S
O314 Zn309 1.996 . S
O314 C321 1.257 . S
C315 O310 1.254 . S
C315 O311 1.269 . S
C316 O317 1.249 . S
C316 O318 1.270 . S
O317 Zn309 1.943 . S
O317 C316 1.249 . S
O318 Zn308 2.067 . S
O318 C316 1.270 . S
C319 O312 1.262 . S
C319 O320 1.232 . S
O320 C319 1.232 . S
C321 O313 1.260 . S
C321 O314 1.257 . S
Zn322 O325 2.031 . S
Zn322 O327 2.049 . S
Zn322 O332 2.067 . S
Zn323 O324 1.962 . S
Zn323 O326 1.986 . S
Zn323 O328 1.996 . S
Zn323 O331 1.943 . S
O324 Zn323 1.962 . S
O324 C329 1.254 . S
O325 Zn322 2.031 . S
O325 C329 1.269 . S
O326 Zn323 1.986 . S
O326 C333 1.262 . S
O327 Zn322 2.049 . S
O327 C335 1.260 . S
O328 Zn323 1.996 . S
O328 C335 1.257 . S
C329 O324 1.254 . S
C329 O325 1.269 . S
C330 O331 1.249 . S
C330 O332 1.270 . S
O331 Zn323 1.943 . S
O331 C330 1.249 . S
O332 Zn322 2.067 . S
O332 C330 1.270 . S
C333 O326 1.262 . S
C333 O334 1.232 . S
O334 C333 1.232 . S
C335 O327 1.260 . S
C335 O328 1.257 . S
Tb336 O339 2.453 . S
Tb336 O340 2.596 . S
Tb336 O341 2.374 1_554 S
Tb336 O349 2.343 1_455 S
Tb336 O351 2.353 . S
Tb336 O353 2.427 . S
Tb336 O354 2.513 1_554 S
C337 O341 1.251 . S
C337 O343 1.263 1_545 S
Tb338 O340 2.343 1_665 S
Tb338 O343 2.353 1_654 S
Tb338 O346 2.427 1_655 S
Tb338 O347 2.513 1_655 S
Tb338 O348 2.453 1_564 S
Tb338 O349 2.596 1_565 S
Tb338 O350 2.374 1_565 S
O339 Tb336 2.453 . S
O339 C355 1.245 . S
O340 Tb336 2.596 . S
O340 Tb338 2.343 1_445 S
O340 C355 1.259 . S
O341 Tb336 2.374 1_556 S
O341 C337 1.251 . S
C342 O346 1.275 . S
C342 O347 1.246 . S
O343 C337 1.263 1_565 S
O343 Tb338 2.353 1_456 S
C344 O348 1.245 1_554 S
C344 O349 1.259 . S
C345 O350 1.250 . S
C345 O351 1.263 1_655 S
O346 Tb338 2.427 1_455 S
O346 C342 1.275 . S
O347 Tb338 2.513 1_455 S
O347 C342 1.246 . S
O348 Tb338 2.453 1_546 S
O348 C344 1.245 1_556 S
O349 Tb336 2.343 1_655 S
O349 Tb338 2.596 1_545 S
O349 C344 1.259 . S
O350 Tb338 2.374 1_545 S
O350 C345 1.250 . S
O351 Tb336 2.353 . S
O351 C345 1.263 1_455 S
C352 O353 1.275 . S
C352 O354 1.246 1_554 S
O353 Tb336 2.427 . S
O353 C352 1.275 . S
O354 Tb336 2.513 1_556 S
O354 C352 1.246 1_556 S
C355 O339 1.245 . S
C355 O340 1.259 . S
Tb356 O359 2.453 . S
Tb356 O360 2.596 . S
Tb356 O361 2.374 . S
Tb356 O369 2.343 . S
Tb356 O371 2.353 . S
Tb356 O373 2.427 . S
Tb356 O374 2.513 . S
C357 O361 1.251 . S
C357 O363 1.263 . S
Tb358 O360 2.343 . S
Tb358 O363 2.353 . S
Tb358 O366 2.427 . S
Tb358 O367 2.513 . S
Tb358 O368 2.453 . S
Tb358 O369 2.596 . S
Tb358 O370 2.374 . S
O359 Tb356 2.453 . S
O359 C375 1.245 . S
O360 Tb356 2.596 . S
O360 Tb358 2.343 . S
O360 C375 1.259 . S
O361 Tb356 2.374 . S
O361 C357 1.251 . S
C362 O366 1.275 . S
C362 O367 1.246 . S
O363 C357 1.263 . S
O363 Tb358 2.353 . S
C364 O368 1.245 . S
C364 O369 1.259 . S
C365 O370 1.250 . S
C365 O371 1.263 . S
O366 Tb358 2.427 . S
O366 C362 1.275 . S
O367 Tb358 2.513 . S
O367 C362 1.246 . S
O368 Tb358 2.453 . S
O368 C364 1.245 . S
O369 Tb356 2.343 . S
O369 Tb358 2.596 . S
O369 C364 1.259 . S
O370 Tb358 2.374 . S
O370 C365 1.250 . S
O371 Tb356 2.353 . S
O371 C365 1.263 . S
C372 O373 1.275 . S
C372 O374 1.246 . S
O373 Tb356 2.427 . S
O373 C372 1.275 . S
O374 Tb356 2.513 . S
O374 C372 1.246 . S
C375 O359 1.245 . S
C375 O360 1.259 . S
Tb376 O379 2.453 . S
Tb376 O380 2.596 . S
Tb376 O381 2.374 . S
Tb376 O389 2.343 1_545 S
Tb376 O391 2.353 . S
Tb376 O393 2.427 . S
Tb376 O394 2.513 1_545 S
C377 O381 1.251 . S
C377 O383 1.263 . S
Tb378 O380 2.343 . S
Tb378 O383 2.353 . S
Tb378 O386 2.427 . S
Tb378 O387 2.513 . S
Tb378 O388 2.453 1_545 S
Tb378 O389 2.596 1_545 S
Tb378 O390 2.374 . S
O379 Tb376 2.453 . S
O379 C395 1.245 . S
O380 Tb376 2.596 . S
O380 Tb378 2.343 . S
O380 C395 1.259 . S
O381 Tb376 2.374 . S
O381 C377 1.251 . S
C382 O386 1.275 . S
C382 O387 1.246 . S
O383 C377 1.263 . S
O383 Tb378 2.353 . S
C384 O388 1.245 . S
C384 O389 1.259 . S
C385 O390 1.250 . S
C385 O391 1.263 . S
O386 Tb378 2.427 . S
O386 C382 1.275 . S
O387 Tb378 2.513 . S
O387 C382 1.246 . S
O388 Tb378 2.453 1_565 S
O388 C384 1.245 . S
O389 Tb376 2.343 1_565 S
O389 Tb378 2.596 1_565 S
O389 C384 1.259 . S
O390 Tb378 2.374 . S
O390 C385 1.250 . S
O391 Tb376 2.353 . S
O391 C385 1.263 . S
C392 O393 1.275 1_565 S
C392 O394 1.246 . S
O393 Tb376 2.427 . S
O393 C392 1.275 1_545 S
O394 Tb376 2.513 1_565 S
O394 C392 1.246 . S
C395 O379 1.245 . S
C395 O380 1.259 . S
Tb396 O399 2.453 . S
Tb396 O400 2.596 . S
Tb396 O401 2.374 . S
Tb396 O409 2.343 . S
Tb396 O411 2.353 . S
Tb396 O413 2.427 . S
Tb396 O414 2.513 . S
C397 O401 1.251 . S
C397 O403 1.263 . S
Tb398 O400 2.343 . S
Tb398 O403 2.353 . S
Tb398 O406 2.427 . S
Tb398 O407 2.513 . S
Tb398 O408 2.453 . S
Tb398 O409 2.596 . S
Tb398 O410 2.374 . S
O399 Tb396 2.453 . S
O399 C415 1.245 . S
O400 Tb396 2.596 . S
O400 Tb398 2.343 . S
O400 C415 1.259 . S
O401 Tb396 2.374 . S
O401 C397 1.251 . S
C402 O406 1.275 . S
C402 O407 1.246 . S
O403 C397 1.263 . S
O403 Tb398 2.353 . S
C404 O408 1.245 . S
C404 O409 1.259 . S
C405 O410 1.250 . S
C405 O411 1.263 . S
O406 Tb398 2.427 . S
O406 C402 1.275 . S
O407 Tb398 2.513 . S
O407 C402 1.246 . S
O408 Tb398 2.453 . S
O408 C404 1.245 . S
O409 Tb396 2.343 . S
O409 Tb398 2.596 . S
O409 C404 1.259 . S
O410 Tb398 2.374 . S
O410 C405 1.250 . S
O411 Tb396 2.353 . S
O411 C405 1.263 . S
C412 O413 1.275 . S
C412 O414 1.246 . S
O413 Tb396 2.427 . S
O413 C412 1.275 . S
O414 Tb396 2.513 . S
O414 C412 1.246 . S
C415 O399 1.245 . S
C415 O400 1.259 . S
Tb416 O419 2.453 1_545 S
Tb416 O420 2.592 1_545 S
Tb416 O421 2.374 1_445 S
Tb416 O429 2.343 . S
Tb416 O431 2.353 . S
Tb416 O433 2.427 . S
Tb416 O434 2.513 1_455 S
C417 O421 1.251 1_545 S
C417 O423 1.263 . S
Tb418 O420 2.319 1_545 S
Tb418 O423 2.353 1_455 S
Tb418 O426 2.427 . S
Tb418 O427 2.513 . S
Tb418 O428 2.453 . S
Tb418 O429 2.596 . S
Tb418 O430 2.374 . S
O419 Tb416 2.453 1_565 S
O419 C435 1.245 . S
O420 Tb416 2.592 1_565 S
O420 Tb418 2.319 1_565 S
O420 C435 1.285 . S
O421 Tb416 2.374 1_665 S
O421 C417 1.251 1_565 S
C422 O426 1.275 . S
C422 O427 1.246 . S
O423 C417 1.263 . S
O423 Tb418 2.353 1_655 S
C424 O428 1.245 . S
C424 O429 1.259 . S
C425 O430 1.250 . S
C425 O431 1.263 . S
O426 Tb418 2.427 . S
O426 C422 1.275 . S
O427 Tb418 2.513 . S
O427 C422 1.246 . S
O428 Tb418 2.453 . S
O428 C424 1.245 . S
O429 Tb416 2.343 . S
O429 Tb418 2.596 . S
O429 C424 1.259 . S
O430 Tb418 2.374 . S
O430 C425 1.250 . S
O431 Tb416 2.353 . S
O431 C425 1.263 . S
C432 O433 1.275 1_655 S
C432 O434 1.246 . S
O433 Tb416 2.427 . S
O433 C432 1.275 1_455 S
O434 Tb416 2.513 1_655 S
O434 C432 1.246 . S
C435 O419 1.245 . S
C435 O420 1.285 . S
Tb436 O439 2.453 . S
Tb436 O440 2.596 . S
Tb436 O441 2.374 . S
Tb436 O449 2.343 . S
Tb436 O451 2.353 . S
Tb436 O453 2.427 . S
Tb436 O454 2.513 . S
C437 O441 1.251 . S
C437 O443 1.263 . S
Tb438 O440 2.343 . S
Tb438 O443 2.353 . S
Tb438 O446 2.427 . S
Tb438 O447 2.513 . S
Tb438 O448 2.453 . S
Tb438 O449 2.596 . S
Tb438 O450 2.374 . S
O439 Tb436 2.453 . S
O439 C455 1.245 . S
O440 Tb436 2.596 . S
O440 Tb438 2.343 . S
O440 C455 1.259 . S
O441 Tb436 2.374 . S
O441 C437 1.251 . S
C442 O446 1.275 . S
C442 O447 1.246 . S
O443 C437 1.263 . S
O443 Tb438 2.353 . S
C444 O448 1.245 . S
C444 O449 1.259 . S
C445 O450 1.250 . S
C445 O451 1.263 . S
O446 Tb438 2.427 . S
O446 C442 1.275 . S
O447 Tb438 2.513 . S
O447 C442 1.246 . S
O448 Tb438 2.453 . S
O448 C444 1.245 . S
O449 Tb436 2.343 . S
O449 Tb438 2.596 . S
O449 C444 1.259 . S
O450 Tb438 2.374 . S
O450 C445 1.250 . S
O451 Tb436 2.353 . S
O451 C445 1.263 . S
C452 O453 1.275 . S
C452 O454 1.246 . S
O453 Tb436 2.427 . S
O453 C452 1.275 . S
O454 Tb436 2.513 . S
O454 C452 1.246 . S
C455 O439 1.245 . S
C455 O440 1.259 . S
Tb456 O459 2.453 . S
Tb456 O460 2.596 . S
Tb456 O461 2.374 1_545 S
Tb456 O469 2.343 1_556 S
Tb456 O471 2.353 1_556 S
Tb456 O473 2.427 1_556 S
Tb456 O474 2.513 1_546 S
C457 O461 1.251 . S
C457 O463 1.263 1_556 S
Tb458 O460 2.343 1_554 S
Tb458 O463 2.353 1_545 S
Tb458 O466 2.427 . S
Tb458 O467 2.513 . S
Tb458 O468 2.453 . S
Tb458 O469 2.596 . S
Tb458 O470 2.374 . S
O459 Tb456 2.453 . S
O459 C475 1.245 . S
O460 Tb456 2.596 . S
O460 Tb458 2.343 1_556 S
O460 C475 1.259 . S
O461 Tb456 2.374 1_565 S
O461 C457 1.251 . S
C462 O466 1.275 . S
C462 O467 1.246 . S
O463 C457 1.263 1_554 S
O463 Tb458 2.353 1_565 S
C464 O468 1.245 . S
C464 O469 1.259 . S
C465 O470 1.250 . S
C465 O471 1.263 . S
O466 Tb458 2.427 . S
O466 C462 1.275 . S
O467 Tb458 2.513 . S
O467 C462 1.246 . S
O468 Tb458 2.453 . S
O468 C464 1.245 . S
O469 Tb456 2.343 1_554 S
O469 Tb458 2.596 . S
O469 C464 1.259 . S
O470 Tb458 2.374 . S
O470 C465 1.250 . S
O471 Tb456 2.353 1_554 S
O471 C465 1.263 . S
C472 O473 1.275 . S
C472 O474 1.246 1_545 S
O473 Tb456 2.427 1_554 S
O473 C472 1.275 . S
O474 Tb456 2.513 1_564 S
O474 C472 1.246 1_565 S
C475 O459 1.245 . S
C475 O460 1.259 . S
Tb476 O479 2.453 . S
Tb476 O480 2.596 . S
Tb476 O481 2.374 . S
Tb476 O489 2.343 . S
Tb476 O491 2.353 . S
Tb476 O493 2.427 . S
Tb476 O494 2.513 . S
C477 O481 1.251 . S
C477 O483 1.263 . S
Tb478 O480 2.343 . S
Tb478 O483 2.353 . S
Tb478 O486 2.427 . S
Tb478 O487 2.513 . S
Tb478 O488 2.453 . S
Tb478 O489 2.596 . S
Tb478 O490 2.374 . S
O479 Tb476 2.453 . S
O479 C495 1.245 . S
O480 Tb476 2.596 . S
O480 Tb478 2.343 . S
O480 C495 1.259 . S
O481 Tb476 2.374 . S
O481 C477 1.251 . S
C482 O486 1.275 . S
C482 O487 1.246 . S
O483 C477 1.263 . S
O483 Tb478 2.353 . S
C484 O488 1.245 . S
C484 O489 1.259 . S
C485 O490 1.250 . S
C485 O491 1.263 . S
O486 Tb478 2.427 . S
O486 C482 1.275 . S
O487 Tb478 2.513 . S
O487 C482 1.246 . S
O488 Tb478 2.453 . S
O488 C484 1.245 . S
O489 Tb476 2.343 . S
O489 Tb478 2.596 . S
O489 C484 1.259 . S
O490 Tb478 2.374 . S
O490 C485 1.250 . S
O491 Tb476 2.353 . S
O491 C485 1.263 . S
C492 O493 1.275 . S
C492 O494 1.246 . S
O493 Tb476 2.427 . S
O493 C492 1.275 . S
O494 Tb476 2.513 . S
O494 C492 1.246 . S
C495 O479 1.245 . S
C495 O480 1.259 . S
Tb496 O499 2.439 1_556 S
Tb496 O500 2.596 1_556 S
Tb496 O501 2.374 . S
Tb496 O509 2.343 . S
Tb496 O511 2.353 . S
Tb496 O513 2.427 . S
Tb496 O514 2.513 . S
C497 O501 1.251 1_554 S
C497 O503 1.263 . S
Tb498 O500 2.343 . S
Tb498 O503 2.353 . S
Tb498 O506 2.427 . S
Tb498 O507 2.513 . S
Tb498 O508 2.453 . S
Tb498 O509 2.596 1_554 S
Tb498 O510 2.374 . S
O499 Tb496 2.439 1_554 S
O499 C515 1.269 . S
O500 Tb496 2.596 1_554 S
O500 Tb498 2.343 . S
O500 C515 1.259 . S
O501 Tb496 2.374 . S
O501 C497 1.251 1_556 S
C502 O506 1.275 . S
C502 O507 1.246 . S
O503 C497 1.263 . S
O503 Tb498 2.353 . S
C504 O508 1.245 . S
C504 O509 1.259 1_554 S
C505 O510 1.250 . S
C505 O511 1.263 1_554 S
O506 Tb498 2.427 . S
O506 C502 1.275 . S
O507 Tb498 2.513 . S
O507 C502 1.246 . S
O508 Tb498 2.453 . S
O508 C504 1.245 . S
O509 Tb496 2.343 . S
O509 Tb498 2.596 1_556 S
O509 C504 1.259 1_556 S
O510 Tb498 2.374 . S
O510 C505 1.250 . S
O511 Tb496 2.353 . S
O511 C505 1.263 1_556 S
C512 O513 1.275 . S
C512 O514 1.246 . S
O513 Tb496 2.427 . S
O513 C512 1.275 . S
O514 Tb496 2.513 . S
O514 C512 1.246 . S
C515 O499 1.269 . S
C515 O500 1.259 . S
Tb516 O519 2.453 . S
Tb516 O520 2.596 . S
Tb516 O521 2.374 . S
Tb516 O529 2.343 . S
Tb516 O531 2.353 . S
Tb516 O533 2.427 . S
Tb516 O534 2.513 . S
C517 O521 1.251 . S
C517 O523 1.263 . S
Tb518 O520 2.343 . S
Tb518 O523 2.353 . S
Tb518 O526 2.427 . S
Tb518 O527 2.513 . S
Tb518 O528 2.453 . S
Tb518 O529 2.596 . S
Tb518 O530 2.374 . S
O519 Tb516 2.453 . S
O519 C535 1.245 . S
O520 Tb516 2.596 . S
O520 Tb518 2.343 . S
O520 C535 1.259 . S
O521 Tb516 2.374 . S
O521 C517 1.251 . S
C522 O526 1.275 . S
C522 O527 1.246 . S
O523 C517 1.263 . S
O523 Tb518 2.353 . S
C524 O528 1.245 . S
C524 O529 1.259 . S
C525 O530 1.250 . S
C525 O531 1.263 . S
O526 Tb518 2.427 . S
O526 C522 1.275 . S
O527 Tb518 2.513 . S
O527 C522 1.246 . S
O528 Tb518 2.453 . S
O528 C524 1.245 . S
O529 Tb516 2.343 . S
O529 Tb518 2.596 . S
O529 C524 1.259 . S
O530 Tb518 2.374 . S
O530 C525 1.250 . S
O531 Tb516 2.353 . S
O531 C525 1.263 . S
C532 O533 1.275 . S
C532 O534 1.246 . S
O533 Tb516 2.427 . S
O533 C532 1.275 . S
O534 Tb516 2.513 . S
O534 C532 1.246 . S
C535 O519 1.245 . S
C535 O520 1.259 . S
Tb536 O539 2.453 . S
Tb536 O540 2.596 1_655 S
Tb536 O541 2.374 . S
Tb536 O549 2.343 . S
Tb536 O551 2.353 . S
Tb536 O553 2.427 . S
Tb536 O554 2.513 . S
C537 O541 1.251 1_455 S
C537 O543 1.263 . S
Tb538 O540 2.343 . S
Tb538 O543 2.353 . S
Tb538 O546 2.427 . S
Tb538 O547 2.513 . S
Tb538 O548 2.453 . S
Tb538 O549 2.596 1_455 S
Tb538 O550 2.374 . S
O539 Tb536 2.453 . S
O539 C555 1.245 1_655 S
O540 Tb536 2.596 1_455 S
O540 Tb538 2.343 . S
O540 C555 1.259 . S
O541 Tb536 2.374 . S
O541 C537 1.251 1_655 S
C542 O546 1.275 . S
C542 O547 1.246 . S
O543 C537 1.263 . S
O543 Tb538 2.353 . S
C544 O548 1.245 1_655 S
C544 O549 1.259 . S
C545 O550 1.250 1_655 S
C545 O551 1.263 . S
O546 Tb538 2.427 . S
O546 C542 1.275 . S
O547 Tb538 2.513 . S
O547 C542 1.246 . S
O548 Tb538 2.453 . S
O548 C544 1.245 1_455 S
O549 Tb536 2.343 . S
O549 Tb538 2.596 1_655 S
O549 C544 1.259 . S
O550 Tb538 2.374 . S
O550 C545 1.250 1_455 S
O551 Tb536 2.353 . S
O551 C545 1.263 . S
C552 O553 1.275 . S
C552 O554 1.246 . S
O553 Tb536 2.427 . S
O553 C552 1.275 . S
O554 Tb536 2.513 . S
O554 C552 1.246 . S
C555 O539 1.245 1_455 S
C555 O540 1.259 . S
Tb556 O559 2.453 . S
Tb556 O560 2.596 . S
Tb556 O561 2.374 . S
Tb556 O569 2.343 . S
Tb556 O571 2.353 . S
Tb556 O573 2.427 . S
Tb556 O574 2.513 . S
C557 O561 1.251 . S
C557 O563 1.263 . S
Tb558 O560 2.343 . S
Tb558 O563 2.353 . S
Tb558 O566 2.427 . S
Tb558 O567 2.513 . S
Tb558 O568 2.453 . S
Tb558 O569 2.596 . S
Tb558 O570 2.374 . S
O559 Tb556 2.453 . S
O559 C575 1.245 . S
O560 Tb556 2.596 . S
O560 Tb558 2.343 . S
O560 C575 1.259 . S
O561 Tb556 2.374 . S
O561 C557 1.251 . S
C562 O566 1.275 . S
C562 O567 1.246 . S
O563 C557 1.263 . S
O563 Tb558 2.353 . S
C564 O568 1.245 . S
C564 O569 1.259 . S
C565 O570 1.250 . S
C565 O571 1.263 . S
O566 Tb558 2.427 . S
O566 C562 1.275 . S
O567 Tb558 2.513 . S
O567 C562 1.246 . S
O568 Tb558 2.453 . S
O568 C564 1.245 . S
O569 Tb556 2.343 . S
O569 Tb558 2.596 . S
O569 C564 1.259 . S
O570 Tb558 2.374 . S
O570 C565 1.250 . S
O571 Tb556 2.353 . S
O571 C565 1.263 . S
C572 O573 1.275 . S
C572 O574 1.246 . S
O573 Tb556 2.427 . S
O573 C572 1.275 . S
O574 Tb556 2.513 . S
O574 C572 1.246 . S
C575 O559 1.245 . S
C575 O560 1.259 . S
Tb576 O579 2.453 . S
Tb576 O580 2.596 . S
Tb576 O581 2.374 . S
Tb576 O589 2.343 . S
Tb576 O591 2.353 . S
Tb576 O593 2.427 . S
Tb576 O594 2.513 . S
C577 O581 1.251 . S
C577 O583 1.263 . S
Tb578 O580 2.343 . S
Tb578 O583 2.353 . S
Tb578 O586 2.427 . S
Tb578 O587 2.513 . S
Tb578 O588 2.453 . S
Tb578 O589 2.596 . S
Tb578 O590 2.374 . S
O579 Tb576 2.453 . S
O579 C595 1.245 . S
O580 Tb576 2.596 . S
O580 Tb578 2.343 . S
O580 C595 1.259 . S
O581 Tb576 2.374 . S
O581 C577 1.251 . S
C582 O586 1.275 . S
C582 O587 1.246 . S
O583 C577 1.263 . S
O583 Tb578 2.353 . S
C584 O588 1.245 . S
C584 O589 1.259 . S
C585 O590 1.250 . S
C585 O591 1.263 . S
O586 Tb578 2.427 . S
O586 C582 1.275 . S
O587 Tb578 2.513 . S
O587 C582 1.246 . S
O588 Tb578 2.453 . S
O588 C584 1.245 . S
O589 Tb576 2.343 . S
O589 Tb578 2.596 . S
O589 C584 1.259 . S
O590 Tb578 2.374 . S
O590 C585 1.250 . S
O591 Tb576 2.353 . S
O591 C585 1.263 . S
C592 O593 1.275 . S
C592 O594 1.246 . S
O593 Tb576 2.427 . S
O593 C592 1.275 . S
O594 Tb576 2.513 . S
O594 C592 1.246 . S
C595 O579 1.245 . S
C595 O580 1.259 . S
Tb596 O599 2.453 . S
Tb596 O600 2.596 . S
Tb596 O601 2.374 . S
Tb596 O609 2.343 . S
Tb596 O611 2.353 . S
Tb596 O613 2.427 . S
Tb596 O614 2.513 . S
C597 O601 1.251 . S
C597 O603 1.263 . S
Tb598 O600 2.343 . S
Tb598 O603 2.353 . S
Tb598 O606 2.427 . S
Tb598 O607 2.513 . S
Tb598 O608 2.453 . S
Tb598 O609 2.596 . S
Tb598 O610 2.374 . S
O599 Tb596 2.453 . S
O599 C615 1.245 . S
O600 Tb596 2.596 . S
O600 Tb598 2.343 . S
O600 C615 1.259 . S
O601 Tb596 2.374 . S
O601 C597 1.251 . S
C602 O606 1.275 . S
C602 O607 1.246 . S
O603 C597 1.263 . S
O603 Tb598 2.353 . S
C604 O608 1.245 . S
C604 O609 1.259 . S
C605 O610 1.250 . S
C605 O611 1.263 . S
O606 Tb598 2.427 . S
O606 C602 1.275 . S
O607 Tb598 2.513 . S
O607 C602 1.246 . S
O608 Tb598 2.453 . S
O608 C604 1.245 . S
O609 Tb596 2.343 . S
O609 Tb598 2.596 . S
O609 C604 1.259 . S
O610 Tb598 2.374 . S
O610 C605 1.250 . S
O611 Tb596 2.353 . S
O611 C605 1.263 . S
C612 O613 1.275 . S
C612 O614 1.246 . S
O613 Tb596 2.427 . S
O613 C612 1.275 . S
O614 Tb596 2.513 . S
O614 C612 1.246 . S
C615 O599 1.245 . S
C615 O600 1.259 . S
Tb616 O619 2.453 . S
Tb616 O620 2.596 . S
Tb616 O621 2.374 . S
Tb616 O629 2.343 . S
Tb616 O631 2.353 . S
Tb616 O633 2.427 . S
Tb616 O634 2.513 . S
C617 O621 1.251 . S
C617 O623 1.263 . S
Tb618 O620 2.343 . S
Tb618 O623 2.353 . S
Tb618 O626 2.427 . S
Tb618 O627 2.513 . S
Tb618 O628 2.453 . S
Tb618 O629 2.596 . S
Tb618 O630 2.374 . S
O619 Tb616 2.453 . S
O619 C635 1.245 . S
O620 Tb616 2.596 . S
O620 Tb618 2.343 . S
O620 C635 1.259 . S
O621 Tb616 2.374 . S
O621 C617 1.251 . S
C622 O626 1.275 . S
C622 O627 1.246 . S
O623 C617 1.263 . S
O623 Tb618 2.353 . S
C624 O628 1.245 . S
C624 O629 1.259 . S
C625 O630 1.250 . S
C625 O631 1.263 . S
O626 Tb618 2.427 . S
O626 C622 1.275 . S
O627 Tb618 2.513 . S
O627 C622 1.246 . S
O628 Tb618 2.453 . S
O628 C624 1.245 . S
O629 Tb616 2.343 . S
O629 Tb618 2.596 . S
O629 C624 1.259 . S
O630 Tb618 2.374 . S
O630 C625 1.250 . S
O631 Tb616 2.353 . S
O631 C625 1.263 . S
C632 O633 1.275 . S
C632 O634 1.246 . S
O633 Tb616 2.427 . S
O633 C632 1.275 . S
O634 Tb616 2.513 . S
O634 C632 1.246 . S
C635 O619 1.245 . S
C635 O620 1.259 . S
Tb636 O639 2.453 . S
Tb636 O640 2.575 1_455 S
Tb636 O641 2.374 . S
Tb636 O649 2.343 . S
Tb636 O651 2.353 1_554 S
Tb636 O653 2.427 1_554 S
Tb636 O654 2.513 . S
C637 O641 1.251 . S
C637 O643 1.263 1_455 S
Tb638 O640 2.356 . S
Tb638 O643 2.353 . S
Tb638 O646 2.427 . S
Tb638 O647 2.513 . S
Tb638 O648 2.453 . S
Tb638 O649 2.596 1_655 S
Tb638 O650 2.374 1_554 S
O639 Tb636 2.453 . S
O639 C655 1.245 . S
O640 Tb636 2.575 1_655 S
O640 Tb638 2.356 . S
O640 C655 1.252 1_655 S
O641 Tb636 2.374 . S
O641 C637 1.251 . S
C642 O646 1.275 . S
C642 O647 1.246 . S
O643 C637 1.263 1_655 S
O643 Tb638 2.353 . S
C644 O648 1.245 1_556 S
C644 O649 1.259 1_656 S
C645 O650 1.250 . S
C645 O651 1.263 1_655 S
O646 Tb638 2.427 . S
O646 C642 1.275 . S
O647 Tb638 2.513 . S
O647 C642 1.246 . S
O648 Tb638 2.453 . S
O648 C644 1.245 1_554 S
O649 Tb636 2.343 . S
O649 Tb638 2.596 1_455 S
O649 C644 1.259 1_454 S
O650 Tb638 2.374 1_556 S
O650 C645 1.250 . S
O651 Tb636 2.353 1_556 S
O651 C645 1.263 1_455 S
C652 O653 1.268 1_554 S
C652 O654 1.255 . S
O653 Tb636 2.427 1_556 S
O653 C652 1.268 1_556 S
O654 Tb636 2.513 . S
O654 C652 1.255 . S
C655 O639 1.245 . S
C655 O640 1.252 1_455 S
C656 C657 1.369 . S
C656 C658 1.419 . S
C656 H660 0.930 . S
C657 C656 1.369 . S
C657 C666 1.429 . S
C658 C656 1.419 . S
C658 C659 1.363 . S
C658 H661 0.929 . S
C659 C658 1.363 . S
C659 C665 1.428 . S
H660 C656 0.930 . S
H661 C658 0.929 . S
S662 N663 1.613 1_554 S
S662 N664 1.610 . S
N663 S662 1.613 1_556 S
N663 C666 1.350 . S
N664 S662 1.610 . S
N664 C665 1.351 1_554 S
C665 C659 1.428 . S
C665 N664 1.351 1_556 S
C665 C666 1.434 . S
C666 C657 1.429 . S
C666 N663 1.350 . S
C666 C665 1.434 . S
C667 C668 1.369 . S
C667 C669 1.419 . S
C667 H671 0.930 . S
C668 C667 1.369 . S
C668 C677 1.429 . S
C669 C667 1.419 . S
C669 C670 1.363 . S
C669 H672 0.929 . S
C670 C669 1.363 . S
C670 C676 1.428 . S
H671 C667 0.930 . S
H672 C669 0.929 . S
S673 N674 1.613 . S
S673 N675 1.610 . S
N674 S673 1.613 . S
N674 C677 1.350 . S
N675 S673 1.610 . S
N675 C676 1.351 . S
C676 C670 1.428 . S
C676 N675 1.351 . S
C676 C677 1.434 . S
C677 C668 1.429 . S
C677 N674 1.350 . S
C677 C676 1.434 . S
C678 C679 1.369 . S
C678 C680 1.419 . S
C678 H682 0.930 . S
C679 C678 1.369 . S
C679 C688 1.429 . S
C680 C678 1.419 . S
C680 C681 1.363 . S
C680 H683 0.929 . S
C681 C680 1.363 . S
C681 C687 1.428 . S
H682 C678 0.930 . S
H683 C680 0.929 . S
S684 N685 1.613 . S
S684 N686 1.610 . S
N685 S684 1.613 . S
N685 C688 1.350 . S
N686 S684 1.610 . S
N686 C687 1.351 . S
C687 C681 1.428 . S
C687 N686 1.351 . S
C687 C688 1.434 . S
C688 C679 1.429 . S
C688 N685 1.350 . S
C688 C687 1.434 . S
C689 C690 1.369 . S
C689 C691 1.419 . S
C689 H693 0.930 . S
C690 C689 1.369 . S
C690 C699 1.429 . S
C691 C689 1.419 . S
C691 C692 1.363 . S
C691 H694 0.929 . S
C692 C691 1.363 . S
C692 C698 1.428 . S
H693 C689 0.930 . S
H694 C691 0.929 . S
S695 N696 1.613 . S
S695 N697 1.610 . S
N696 S695 1.613 . S
N696 C699 1.350 . S
N697 S695 1.610 . S
N697 C698 1.351 . S
C698 C692 1.428 . S
C698 N697 1.351 . S
C698 C699 1.434 . S
C699 C690 1.429 . S
C699 N696 1.350 . S
C699 C698 1.434 . S
C700 C701 1.369 1_655 S
C700 C702 1.419 . S
C700 H704 0.930 . S
C701 C700 1.369 1_455 S
C701 C710 1.429 . S
C702 C700 1.419 . S
C702 C703 1.363 1_655 S
C702 H705 0.929 . S
C703 C702 1.363 1_455 S
C703 C709 1.428 . S
H704 C700 0.930 . S
H705 C702 0.929 . S
S706 N707 1.613 . S
S706 N708 1.610 . S
N707 S706 1.613 . S
N707 C710 1.350 . S
N708 S706 1.610 . S
N708 C709 1.351 . S
C709 C703 1.428 . S
C709 N708 1.351 . S
C709 C710 1.434 . S
C710 C701 1.429 . S
C710 N707 1.350 . S
C710 C709 1.434 . S
C711 C712 1.369 . S
C711 C713 1.419 . S
C711 H715 0.930 . S
C712 C711 1.369 . S
C712 C721 1.429 . S
C713 C711 1.419 . S
C713 C714 1.363 . S
C713 H716 0.929 . S
C714 C713 1.363 . S
C714 C720 1.428 . S
H715 C711 0.930 . S
H716 C713 0.929 . S
S717 N718 1.613 . S
S717 N719 1.610 . S
N718 S717 1.613 . S
N718 C721 1.350 . S
N719 S717 1.610 . S
N719 C720 1.351 . S
C720 C714 1.428 . S
C720 N719 1.351 . S
C720 C721 1.434 . S
C721 C712 1.429 . S
C721 N718 1.350 . S
C721 C720 1.434 . S
C722 C723 1.369 . S
C722 C724 1.419 . S
C722 H726 0.930 . S
C723 C722 1.369 . S
C723 C732 1.429 . S
C724 C722 1.419 . S
C724 C725 1.363 . S
C724 H727 0.929 . S
C725 C724 1.363 . S
C725 C731 1.428 . S
H726 C722 0.930 . S
H727 C724 0.929 . S
S728 N729 1.613 1_556 S
S728 N730 1.610 1_556 S
N729 S728 1.613 1_554 S
N729 C732 1.350 . S
N730 S728 1.610 1_554 S
N730 C731 1.351 . S
C731 C725 1.428 . S
C731 N730 1.351 . S
C731 C732 1.434 . S
C732 C723 1.429 . S
C732 N729 1.350 . S
C732 C731 1.434 . S
C733 C734 1.369 . S
C733 C735 1.419 . S
C733 H737 0.930 . S
C734 C733 1.369 . S
C734 C743 1.429 . S
C735 C733 1.419 . S
C735 C736 1.363 . S
C735 H738 0.929 . S
C736 C735 1.363 . S
C736 C742 1.428 . S
H737 C733 0.930 . S
H738 C735 0.929 . S
S739 N740 1.613 . S
S739 N741 1.610 . S
N740 S739 1.613 . S
N740 C743 1.350 . S
N741 S739 1.610 . S
N741 C742 1.351 . S
C742 C736 1.428 . S
C742 N741 1.351 . S
C742 C743 1.434 . S
C743 C734 1.429 . S
C743 N740 1.350 . S
C743 C742 1.434 . S
C744 C745 1.369 . S
C744 C746 1.419 . S
C744 H748 0.930 . S
C745 C744 1.369 . S
C745 C754 1.429 . S
C746 C744 1.419 . S
C746 C747 1.363 . S
C746 H749 0.929 1_655 S
C747 C746 1.363 . S
C747 C753 1.428 . S
H748 C744 0.930 . S
H749 C746 0.929 1_455 S
S750 N751 1.613 . S
S750 N752 1.610 . S
N751 S750 1.613 . S
N751 C754 1.350 . S
N752 S750 1.610 . S
N752 C753 1.351 . S
C753 C747 1.428 . S
C753 N752 1.351 . S
C753 C754 1.434 . S
C754 C745 1.429 . S
C754 N751 1.350 . S
C754 C753 1.434 . S
C755 C756 1.369 . S
C755 C757 1.419 . S
C755 H759 0.930 . S
C756 C755 1.369 . S
C756 C765 1.429 . S
C757 C755 1.419 . S
C757 C758 1.363 . S
C757 H760 0.929 . S
C758 C757 1.363 . S
C758 C764 1.428 . S
H759 C755 0.930 . S
H760 C757 0.929 . S
S761 N762 1.613 . S
S761 N763 1.610 . S
N762 S761 1.613 . S
N762 C765 1.350 . S
N763 S761 1.610 . S
N763 C764 1.351 . S
C764 C758 1.428 . S
C764 N763 1.351 . S
C764 C765 1.434 . S
C765 C756 1.429 . S
C765 N762 1.350 . S
C765 C764 1.434 . S
C766 C767 1.369 . S
C766 C768 1.419 . S
C766 H770 0.930 . S
C767 C766 1.369 . S
C767 C776 1.429 1_545 S
C768 C766 1.419 . S
C768 C769 1.363 . S
C768 H771 0.929 . S
C769 C768 1.363 . S
C769 C775 1.428 1_545 S
H770 C766 0.930 . S
H771 C768 0.929 . S
S772 N773 1.613 . S
S772 N774 1.610 . S
N773 S772 1.613 . S
N773 C776 1.350 . S
N774 S772 1.610 . S
N774 C775 1.351 . S
C775 C769 1.428 1_565 S
C775 N774 1.351 . S
C775 C776 1.434 . S
C776 C767 1.429 1_565 S
C776 N773 1.350 . S
C776 C775 1.434 . S
C777 C778 1.369 . S
C777 C779 1.419 . S
C777 H781 0.930 . S
C778 C777 1.369 . S
C778 C787 1.429 . S
C779 C777 1.419 . S
C779 C780 1.363 . S
C779 H782 0.929 . S
C780 C779 1.363 . S
C780 C786 1.428 . S
H781 C777 0.930 . S
H782 C779 0.929 . S
S783 N784 1.613 . S
S783 N785 1.610 . S
N784 S783 1.613 . S
N784 C787 1.350 . S
N785 S783 1.610 . S
N785 C786 1.351 . S
C786 C780 1.428 . S
C786 N785 1.351 . S
C786 C787 1.434 . S
C787 C778 1.429 . S
C787 N784 1.350 . S
C787 C786 1.434 . S
C788 C789 1.369 . S
C788 C790 1.419 . S
C788 H792 0.930 . S
C789 C788 1.369 . S
C789 C798 1.429 . S
C790 C788 1.419 . S
C790 C791 1.363 . S
C790 H793 0.912 1_545 S
C791 C790 1.363 . S
C791 C797 1.428 . S
H792 C788 0.930 . S
H793 C790 0.912 1_565 S
S794 N795 1.613 . S
S794 N796 1.610 . S
N795 S794 1.613 . S
N795 C798 1.350 . S
N796 S794 1.610 . S
N796 C797 1.351 . S
C797 C791 1.428 . S
C797 N796 1.351 . S
C797 C798 1.434 . S
C798 C789 1.429 . S
C798 N795 1.350 . S
C798 C797 1.434 . S
C799 C800 1.369 . S
C799 C801 1.419 . S
C799 H803 0.930 . S
C800 C799 1.369 . S
C800 C809 1.429 . S
C801 C799 1.419 . S
C801 C802 1.363 . S
C801 H804 0.929 . S
C802 C801 1.363 . S
C802 C808 1.428 . S
H803 C799 0.930 . S
H804 C801 0.929 . S
S805 N806 1.613 . S
S805 N807 1.610 . S
N806 S805 1.613 . S
N806 C809 1.350 . S
N807 S805 1.610 . S
N807 C808 1.351 . S
C808 C802 1.428 . S
C808 N807 1.351 . S
C808 C809 1.434 . S
C809 C800 1.429 . S
C809 N806 1.350 . S
C809 C808 1.434 . S
C810 C811 1.369 . S
C810 C812 1.419 . S
C810 H814 0.930 . S
C811 C810 1.369 . S
C811 C820 1.429 . S
C812 C810 1.419 . S
C812 C813 1.363 . S
C812 H815 0.929 . S
C813 C812 1.363 . S
C813 C819 1.428 . S
H814 C810 0.930 . S
H815 C812 0.929 . S
S816 N817 1.613 . S
S816 N818 1.610 . S
N817 S816 1.613 . S
N817 C820 1.350 . S
N818 S816 1.610 . S
N818 C819 1.351 . S
C819 C813 1.428 . S
C819 N818 1.351 . S
C819 C820 1.434 . S
C820 C811 1.429 . S
C820 N817 1.350 . S
C820 C819 1.434 . S
C821 C822 1.369 . S
C821 C823 1.419 . S
C821 H825 0.930 . S
C822 C821 1.369 . S
C822 C831 1.429 . S
C823 C821 1.419 . S
C823 C824 1.363 . S
C823 H826 0.929 . S
C824 C823 1.363 . S
C824 C830 1.428 . S
H825 C821 0.930 . S
H826 C823 0.929 . S
S827 N828 1.613 . S
S827 N829 1.610 . S
N828 S827 1.613 . S
N828 C831 1.350 . S
N829 S827 1.610 . S
N829 C830 1.351 . S
C830 C824 1.428 . S
C830 N829 1.351 . S
C830 C831 1.434 . S
C831 C822 1.429 . S
C831 N828 1.350 . S
C831 C830 1.434 . S
C832 C833 1.369 . S
C832 C834 1.419 1_565 S
C832 H836 0.930 . S
C833 C832 1.369 . S
C833 C842 1.429 . S
C834 C832 1.419 1_545 S
C834 C835 1.363 1_545 S
C834 H837 0.929 . S
C835 C834 1.363 1_565 S
C835 C841 1.428 . S
H836 C832 0.930 . S
H837 C834 0.929 . S
S838 N839 1.613 . S
S838 N840 1.610 1_556 S
N839 S838 1.613 . S
N839 C842 1.350 1_556 S
N840 S838 1.610 1_554 S
N840 C841 1.351 . S
C841 C835 1.428 . S
C841 N840 1.351 . S
C841 C842 1.434 . S
C842 C833 1.429 . S
C842 N839 1.350 1_554 S
C842 C841 1.434 . S
C843 C844 1.369 . S
C843 C845 1.419 . S
C843 H847 0.930 . S
C844 C843 1.369 . S
C844 C853 1.429 . S
C845 C843 1.419 . S
C845 C846 1.363 . S
C845 H848 0.929 . S
C846 C845 1.363 . S
C846 C852 1.428 . S
H847 C843 0.930 . S
H848 C845 0.929 . S
S849 N850 1.609 1_554 S
S849 N851 1.610 . S
N850 S849 1.609 1_556 S
N850 C853 1.350 . S
N851 S849 1.610 . S
N851 C852 1.351 1_554 S
C852 C846 1.428 . S
C852 N851 1.351 1_556 S
C852 C853 1.434 . S
C853 C844 1.429 . S
C853 N850 1.350 . S
C853 C852 1.434 . S
C854 C855 1.369 . S
C854 C856 1.419 . S
C854 H858 0.930 . S
C855 C854 1.369 . S
C855 C864 1.429 . S
C856 C854 1.419 . S
C856 C857 1.363 . S
C856 H859 0.929 . S
C857 C856 1.363 . S
C857 C863 1.428 . S
H858 C854 0.930 . S
H859 C856 0.929 . S
S860 N861 1.613 . S
S860 N862 1.610 . S
N861 S860 1.613 . S
N861 C864 1.350 . S
N862 S860 1.610 . S
N862 C863 1.351 . S
C863 C857 1.428 . S
C863 N862 1.351 . S
C863 C864 1.434 . S
C864 C855 1.429 . S
C864 N861 1.350 . S
C864 C863 1.434 . S
C865 C866 1.369 . S
C865 C867 1.419 . S
C865 H869 0.930 . S
C866 C865 1.369 . S
C866 C875 1.429 . S
C867 C865 1.419 . S
C867 C868 1.363 . S
C867 H870 0.929 . S
C868 C867 1.363 . S
C868 C874 1.428 . S
H869 C865 0.930 . S
H870 C867 0.929 . S
S871 N872 1.613 . S
S871 N873 1.610 . S
N872 S871 1.613 . S
N872 C875 1.350 . S
N873 S871 1.610 . S
N873 C874 1.351 . S
C874 C868 1.428 . S
C874 N873 1.351 . S
C874 C875 1.434 . S
C875 C866 1.429 . S
C875 N872 1.350 . S
C875 C874 1.434 . S
C876 C877 1.369 . S
C876 C878 1.419 . S
C876 H880 0.930 . S
C877 C876 1.369 . S
C877 C886 1.429 . S
C878 C876 1.419 . S
C878 C879 1.363 . S
C878 H881 0.929 . S
C879 C878 1.363 . S
C879 C885 1.428 . S
H880 C876 0.930 . S
H881 C878 0.929 . S
S882 N883 1.613 . S
S882 N884 1.610 . S
N883 S882 1.613 . S
N883 C886 1.350 . S
N884 S882 1.610 . S
N884 C885 1.351 . S
C885 C879 1.428 . S
C885 N884 1.351 . S
C885 C886 1.434 . S
C886 C877 1.429 . S
C886 N883 1.350 . S
C886 C885 1.434 . S
C887 C888 1.369 . S
C887 C889 1.419 . S
C887 H891 0.930 . S
C888 C887 1.369 . S
C888 C897 1.429 . S
C889 C887 1.419 . S
C889 C890 1.363 . S
C889 H892 0.929 . S
C890 C889 1.363 . S
C890 C896 1.428 . S
H891 C887 0.930 . S
H892 C889 0.929 . S
S893 N894 1.613 . S
S893 N895 1.610 . S
N894 S893 1.613 . S
N894 C897 1.350 . S
N895 S893 1.610 . S
N895 C896 1.351 . S
C896 C890 1.428 . S
C896 N895 1.351 . S
C896 C897 1.434 . S
C897 C888 1.429 . S
C897 N894 1.350 . S
C897 C896 1.434 . S
C898 C899 1.369 . S
C898 C900 1.419 . S
C898 H902 0.930 . S
C899 C898 1.369 . S
C899 C908 1.429 . S
C900 C898 1.419 . S
C900 C901 1.363 . S
C900 H903 0.929 . S
C901 C900 1.363 . S
C901 C907 1.428 . S
H902 C898 0.930 . S
H903 C900 0.929 . S
S904 N905 1.613 . S
S904 N906 1.610 . S
N905 S904 1.613 . S
N905 C908 1.350 . S
N906 S904 1.610 . S
N906 C907 1.351 . S
C907 C901 1.428 . S
C907 N906 1.351 . S
C907 C908 1.434 . S
C908 C899 1.429 . S
C908 N905 1.350 . S
C908 C907 1.434 . S
C909 C910 1.369 . S
C909 C911 1.419 . S
C909 H913 0.930 . S
C910 C909 1.369 . S
C910 C919 1.429 . S
C911 C909 1.419 . S
C911 C912 1.363 . S
C911 H914 0.929 . S
C912 C911 1.363 . S
C912 C918 1.428 . S
H913 C909 0.930 . S
H914 C911 0.929 . S
S915 N916 1.613 . S
S915 N917 1.610 . S
N916 S915 1.613 . S
N916 C919 1.350 . S
N917 S915 1.610 . S
N917 C918 1.351 . S
C918 C912 1.428 . S
C918 N917 1.351 . S
C918 C919 1.434 . S
C919 C910 1.429 . S
C919 N916 1.350 . S
C919 C918 1.434 . S
C920 C921 1.369 . S
C920 C922 1.424 . S
C920 H924 0.930 1_455 S
C921 C920 1.369 . S
C921 C930 1.429 . S
C922 C920 1.424 . S
C922 C923 1.369 . S
C922 H925 0.918 1_455 S
C923 C922 1.369 . S
C923 C929 1.428 . S
H924 C920 0.930 1_655 S
H925 C922 0.918 1_655 S
S926 N927 1.613 . S
S926 N928 1.610 . S
N927 S926 1.613 . S
N927 C930 1.350 . S
N928 S926 1.610 . S
N928 C929 1.351 . S
C929 C923 1.428 . S
C929 N928 1.351 . S
C929 C930 1.434 . S
C930 C921 1.429 . S
C930 N927 1.350 . S
C930 C929 1.434 . S
C931 C932 1.369 . S
C931 C933 1.419 . S
C931 H935 0.930 . S
C932 C931 1.369 . S
C932 C941 1.429 . S
C933 C931 1.419 . S
C933 C934 1.363 . S
C933 H936 0.929 . S
C934 C933 1.363 . S
C934 C940 1.428 . S
H935 C931 0.930 . S
H936 C933 0.929 . S
S937 N938 1.613 . S
S937 N939 1.610 . S
N938 S937 1.613 . S
N938 C941 1.350 . S
N939 S937 1.610 . S
N939 C940 1.351 . S
C940 C934 1.428 . S
C940 N939 1.351 . S
C940 C941 1.434 . S
C941 C932 1.429 . S
C941 N938 1.350 . S
C941 C940 1.434 . S
C942 C943 1.369 . S
C942 C944 1.419 . S
C942 H946 0.930 . S
C943 C942 1.369 . S
C943 C952 1.429 . S
C944 C942 1.419 . S
C944 C945 1.363 . S
C944 H947 0.929 . S
C945 C944 1.363 . S
C945 C951 1.428 . S
H946 C942 0.930 . S
H947 C944 0.929 . S
S948 N949 1.613 . S
S948 N950 1.610 . S
N949 S948 1.613 . S
N949 C952 1.350 . S
N950 S948 1.610 . S
N950 C951 1.351 . S
C951 C945 1.428 . S
C951 N950 1.351 . S
C951 C952 1.434 . S
C952 C943 1.429 . S
C952 N949 1.350 . S
C952 C951 1.434 . S
C953 C954 1.369 . S
C953 C955 1.419 . S
C953 H957 0.930 . S
C954 C953 1.369 . S
C954 C963 1.429 . S
C955 C953 1.419 . S
C955 C956 1.363 . S
C955 H958 0.929 . S
C956 C955 1.363 . S
C956 C962 1.428 . S
H957 C953 0.930 . S
H958 C955 0.929 . S
S959 N960 1.613 . S
S959 N961 1.610 . S
N960 S959 1.613 . S
N960 C963 1.350 . S
N961 S959 1.610 . S
N961 C962 1.351 . S
C962 C956 1.428 . S
C962 N961 1.351 . S
C962 C963 1.434 . S
C963 C954 1.429 . S
C963 N960 1.350 . S
C963 C962 1.434 . S
C964 C965 1.369 . S
C964 C966 1.419 . S
C964 H968 0.930 . S
C965 C964 1.369 . S
C965 C974 1.429 1_455 S
C966 C964 1.419 . S
C966 C967 1.363 . S
C966 H969 0.929 . S
C967 C966 1.363 . S
C967 C973 1.428 1_455 S
H968 C964 0.930 . S
H969 C966 0.929 . S
S970 N971 1.613 . S
S970 N972 1.610 . S
N971 S970 1.613 . S
N971 C974 1.350 . S
N972 S970 1.610 . S
N972 C973 1.351 . S
C973 C967 1.428 1_655 S
C973 N972 1.351 . S
C973 C974 1.434 . S
C974 C965 1.429 1_655 S
C974 N971 1.350 . S
C974 C973 1.434 . S
C975 C976 1.369 . S
C975 C977 1.419 . S
C975 H979 0.930 . S
C976 C975 1.369 . S
C976 C985 1.429 . S
C977 C975 1.419 . S
C977 C978 1.363 . S
C977 H980 0.929 . S
C978 C977 1.363 . S
C978 C984 1.428 . S
H979 C975 0.930 . S
H980 C977 0.929 . S
S981 N982 1.613 . S
S981 N983 1.610 . S
N982 S981 1.613 . S
N982 C985 1.350 . S
N983 S981 1.610 . S
N983 C984 1.351 . S
C984 C978 1.428 . S
C984 N983 1.351 . S
C984 C985 1.434 . S
C985 C976 1.429 . S
C985 N982 1.350 . S
C985 C984 1.434 . S
C986 C987 1.369 . S
C986 C988 1.419 . S
C986 H990 0.930 . S
C987 C986 1.369 . S
C987 C996 1.429 . S
C988 C986 1.419 . S
C988 C989 1.363 . S
C988 H991 0.929 . S
C989 C988 1.363 . S
C989 C995 1.428 . S
H990 C986 0.930 . S
H991 C988 0.929 . S
S992 N993 1.613 . S
S992 N994 1.610 . S
N993 S992 1.613 . S
N993 C996 1.350 . S
N994 S992 1.610 . S
N994 C995 1.351 . S
C995 C989 1.428 . S
C995 N994 1.351 . S
C995 C996 1.434 . S
C996 C987 1.429 . S
C996 N993 1.350 . S
C996 C995 1.434 . S
C997 C998 1.369 . S
C997 C999 1.419 . S
C997 H1001 0.930 . S
C998 C997 1.369 . S
C998 C1007 1.429 . S
C999 C997 1.419 . S
C999 C1000 1.363 . S
C999 H1002 0.929 . S
C1000 C999 1.363 . S
C1000 C1006 1.428 . S
H1001 C997 0.930 . S
H1002 C999 0.929 . S
S1003 N1004 1.613 . S
S1003 N1005 1.610 . S
N1004 S1003 1.613 . S
N1004 C1007 1.350 . S
N1005 S1003 1.610 . S
N1005 C1006 1.351 . S
C1006 C1000 1.428 . S
C1006 N1005 1.351 . S
C1006 C1007 1.434 . S
C1007 C998 1.429 . S
C1007 N1004 1.350 . S
C1007 C1006 1.434 . S
C1008 C1009 1.369 . S
C1008 C1010 1.419 . S
C1008 H1012 0.930 . S
C1009 C1008 1.369 . S
C1009 C1018 1.429 1_545 S
C1010 C1008 1.419 . S
C1010 C1011 1.363 . S
C1010 H1013 0.929 . S
C1011 C1010 1.363 . S
C1011 C1017 1.428 1_545 S
H1012 C1008 0.930 . S
H1013 C1010 0.929 . S
S1014 N1015 1.613 . S
S1014 N1016 1.610 . S
N1015 S1014 1.613 . S
N1015 C1018 1.350 . S
N1016 S1014 1.610 . S
N1016 C1017 1.351 . S
C1017 C1011 1.428 1_565 S
C1017 N1016 1.351 . S
C1017 C1018 1.434 . S
C1018 C1009 1.429 1_565 S
C1018 N1015 1.350 . S
C1018 C1017 1.434 . S
C1019 C1020 1.369 . S
C1019 C1021 1.419 . S
C1019 H1023 0.930 . S
C1020 C1019 1.369 . S
C1020 C1029 1.429 . S
C1021 C1019 1.419 . S
C1021 C1022 1.363 . S
C1021 H1024 0.929 . S
C1022 C1021 1.363 . S
C1022 C1028 1.428 . S
H1023 C1019 0.930 . S
H1024 C1021 0.929 . S
S1025 N1026 1.613 . S
S1025 N1027 1.610 . S
N1026 S1025 1.613 . S
N1026 C1029 1.350 . S
N1027 S1025 1.610 . S
N1027 C1028 1.351 . S
C1028 C1022 1.428 . S
C1028 N1027 1.351 . S
C1028 C1029 1.434 . S
C1029 C1020 1.429 . S
C1029 N1026 1.350 . S
C1029 C1028 1.434 . S
C1030 C1031 1.369 . S
C1030 C1032 1.419 . S
C1030 H1034 0.930 . S
C1031 C1030 1.369 . S
C1031 C1040 1.429 . S
C1032 C1030 1.419 . S
C1032 C1033 1.363 . S
C1032 H1035 0.929 . S
C1033 C1032 1.363 . S
C1033 C1039 1.428 . S
H1034 C1030 0.930 . S
H1035 C1032 0.929 . S
S1036 N1037 1.613 . S
S1036 N1038 1.610 . S
N1037 S1036 1.613 . S
N1037 C1040 1.350 1_565 S
N1038 S1036 1.610 . S
N1038 C1039 1.351 1_565 S
C1039 C1033 1.428 . S
C1039 N1038 1.351 1_545 S
C1039 C1040 1.434 . S
C1040 C1031 1.429 . S
C1040 N1037 1.350 1_545 S
C1040 C1039 1.434 . S
C1041 C1042 1.369 . S
C1041 C1043 1.419 . S
C1041 H1045 0.930 . S
C1042 C1041 1.369 . S
C1042 C1051 1.429 . S
C1043 C1041 1.419 . S
C1043 C1044 1.363 . S
C1043 H1046 0.929 . S
C1044 C1043 1.363 . S
C1044 C1050 1.428 . S
H1045 C1041 0.930 . S
H1046 C1043 0.929 . S
S1047 N1048 1.613 . S
S1047 N1049 1.610 . S
N1048 S1047 1.613 . S
N1048 C1051 1.350 . S
N1049 S1047 1.610 . S
N1049 C1050 1.351 . S
C1050 C1044 1.428 . S
C1050 N1049 1.351 . S
C1050 C1051 1.434 . S
C1051 C1042 1.429 . S
C1051 N1048 1.350 . S
C1051 C1050 1.434 . S
C1052 C1053 1.369 1_545 S
C1052 C1054 1.419 . S
C1052 H1056 0.930 . S
C1053 C1052 1.369 1_565 S
C1053 C1062 1.429 . S
C1054 C1052 1.419 . S
C1054 C1055 1.363 . S
C1054 H1057 0.929 . S
C1055 C1054 1.363 . S
C1055 C1061 1.428 1_545 S
H1056 C1052 0.930 . S
H1057 C1054 0.929 . S
S1058 N1059 1.613 . S
S1058 N1060 1.610 . S
N1059 S1058 1.613 . S
N1059 C1062 1.350 . S
N1060 S1058 1.610 . S
N1060 C1061 1.351 . S
C1061 C1055 1.428 1_565 S
C1061 N1060 1.351 . S
C1061 C1062 1.434 . S
C1062 C1053 1.429 . S
C1062 N1059 1.350 . S
C1062 C1061 1.434 . S
C1063 C1064 1.369 . S
C1063 C1065 1.419 . S
C1063 H1067 0.930 . S
C1064 C1063 1.369 . S
C1064 C1073 1.429 . S
C1065 C1063 1.419 . S
C1065 C1066 1.363 . S
C1065 H1068 0.929 . S
C1066 C1065 1.363 . S
C1066 C1072 1.428 . S
H1067 C1063 0.930 . S
H1068 C1065 0.929 . S
S1069 N1070 1.613 . S
S1069 N1071 1.610 . S
N1070 S1069 1.613 . S
N1070 C1073 1.350 . S
N1071 S1069 1.610 . S
N1071 C1072 1.351 . S
C1072 C1066 1.428 . S
C1072 N1071 1.351 . S
C1072 C1073 1.434 . S
C1073 C1064 1.429 . S
C1073 N1070 1.350 . S
C1073 C1072 1.434 . S
C1074 C1075 1.369 . S
C1074 C1076 1.419 . S
C1074 H1078 0.930 . S
C1075 C1074 1.369 . S
C1075 C1084 1.429 . S
C1076 C1074 1.419 . S
C1076 C1077 1.363 . S
C1076 H1079 0.929 . S
C1077 C1076 1.363 . S
C1077 C1083 1.428 . S
H1078 C1074 0.930 . S
H1079 C1076 0.929 . S
S1080 N1081 1.613 . S
S1080 N1082 1.610 . S
N1081 S1080 1.613 . S
N1081 C1084 1.350 . S
N1082 S1080 1.610 . S
N1082 C1083 1.351 . S
C1083 C1077 1.428 . S
C1083 N1082 1.351 . S
C1083 C1084 1.434 . S
C1084 C1075 1.429 . S
C1084 N1081 1.350 . S
C1084 C1083 1.434 . S
C1085 C1086 1.369 . S
C1085 C1087 1.419 . S
C1085 H1089 0.930 . S
C1086 C1085 1.369 . S
C1086 C1095 1.429 . S
C1087 C1085 1.419 . S
C1087 C1088 1.363 . S
C1087 H1090 0.929 . S
C1088 C1087 1.363 . S
C1088 C1094 1.428 . S
H1089 C1085 0.930 . S
H1090 C1087 0.929 . S
S1091 N1092 1.613 . S
S1091 N1093 1.610 . S
N1092 S1091 1.613 . S
N1092 C1095 1.350 . S
N1093 S1091 1.610 . S
N1093 C1094 1.351 . S
C1094 C1088 1.428 . S
C1094 N1093 1.351 . S
C1094 C1095 1.434 . S
C1095 C1086 1.429 . S
C1095 N1092 1.350 . S
C1095 C1094 1.434 . S
C1096 C1097 1.369 1_556 S
C1096 C1098 1.419 . S
C1096 H1100 0.930 . S
C1097 C1096 1.369 1_554 S
C1097 C1106 1.429 . S
C1098 C1096 1.419 . S
C1098 C1099 1.363 1_556 S
C1098 H1101 0.929 . S
C1099 C1098 1.363 1_554 S
C1099 C1105 1.428 . S
H1100 C1096 0.930 . S
H1101 C1098 0.929 . S
S1102 N1103 1.613 . S
S1102 N1104 1.610 . S
N1103 S1102 1.613 . S
N1103 C1106 1.350 . S
N1104 S1102 1.610 . S
N1104 C1105 1.351 . S
C1105 C1099 1.428 . S
C1105 N1104 1.351 . S
C1105 C1106 1.434 . S
C1106 C1097 1.429 . S
C1106 N1103 1.350 . S
C1106 C1105 1.434 . S
C1107 C1108 1.369 . S
C1107 C1109 1.419 . S
C1107 H1111 0.930 . S
C1108 C1107 1.369 . S
C1108 C1117 1.429 . S
C1109 C1107 1.419 . S
C1109 C1110 1.363 . S
C1109 H1112 0.929 . S
C1110 C1109 1.363 . S
C1110 C1116 1.428 . S
H1111 C1107 0.930 . S
H1112 C1109 0.929 . S
S1113 N1114 1.613 . S
S1113 N1115 1.610 . S
N1114 S1113 1.613 . S
N1114 C1117 1.350 . S
N1115 S1113 1.610 . S
N1115 C1116 1.351 . S
C1116 C1110 1.428 . S
C1116 N1115 1.351 . S
C1116 C1117 1.434 . S
C1117 C1108 1.429 . S
C1117 N1114 1.350 . S
C1117 C1116 1.434 . S
C1118 C1119 1.369 . S
C1118 C1120 1.419 . S
C1118 H1122 0.930 . S
C1119 C1118 1.369 . S
C1119 C1128 1.429 . S
C1120 C1118 1.419 . S
C1120 C1121 1.363 . S
C1120 H1123 0.929 . S
C1121 C1120 1.363 . S
C1121 C1127 1.428 . S
H1122 C1118 0.930 . S
H1123 C1120 0.929 . S
S1124 N1125 1.613 . S
S1124 N1126 1.610 . S
N1125 S1124 1.613 . S
N1125 C1128 1.350 . S
N1126 S1124 1.610 . S
N1126 C1127 1.351 . S
C1127 C1121 1.428 . S
C1127 N1126 1.351 . S
C1127 C1128 1.434 . S
C1128 C1119 1.429 . S
C1128 N1125 1.350 . S
C1128 C1127 1.434 . S
C1129 C1130 1.369 . S
C1129 C1131 1.419 . S
C1129 H1133 0.930 . S
C1130 C1129 1.369 . S
C1130 C1139 1.429 . S
C1131 C1129 1.419 . S
C1131 C1132 1.363 . S
C1131 H1134 0.929 . S
C1132 C1131 1.363 . S
C1132 C1138 1.428 . S
H1133 C1129 0.930 . S
H1134 C1131 0.929 . S
S1135 N1136 1.613 . S
S1135 N1137 1.610 . S
N1136 S1135 1.613 . S
N1136 C1139 1.350 . S
N1137 S1135 1.610 . S
N1137 C1138 1.351 . S
C1138 C1132 1.428 . S
C1138 N1137 1.351 . S
C1138 C1139 1.434 . S
C1139 C1130 1.429 . S
C1139 N1136 1.350 . S
C1139 C1138 1.434 . S
C1140 C1141 1.369 . S
C1140 C1142 1.419 . S
C1140 H1144 0.930 . S
C1141 C1140 1.369 . S
C1141 C1150 1.429 . S
C1142 C1140 1.419 . S
C1142 C1143 1.363 . S
C1142 H1145 0.929 . S
C1143 C1142 1.363 . S
C1143 C1149 1.428 . S
H1144 C1140 0.930 . S
H1145 C1142 0.929 . S
S1146 N1147 1.613 . S
S1146 N1148 1.610 . S
N1147 S1146 1.613 . S
N1147 C1150 1.350 . S
N1148 S1146 1.610 . S
N1148 C1149 1.351 . S
C1149 C1143 1.428 . S
C1149 N1148 1.351 . S
C1149 C1150 1.434 . S
C1150 C1141 1.429 . S
C1150 N1147 1.350 . S
C1150 C1149 1.434 . S
C1151 C1152 1.369 . S
C1151 C1153 1.419 . S
C1151 H1155 0.930 . S
C1152 C1151 1.369 . S
C1152 C1161 1.429 . S
C1153 C1151 1.419 . S
C1153 C1154 1.363 . S
C1153 H1156 0.929 . S
C1154 C1153 1.363 . S
C1154 C1160 1.428 . S
H1155 C1151 0.930 . S
H1156 C1153 0.929 . S
S1157 N1158 1.613 . S
S1157 N1159 1.610 . S
N1158 S1157 1.613 . S
N1158 C1161 1.350 . S
N1159 S1157 1.610 . S
N1159 C1160 1.351 . S
C1160 C1154 1.428 . S
C1160 N1159 1.351 . S
C1160 C1161 1.434 . S
C1161 C1152 1.429 . S
C1161 N1158 1.350 . S
C1161 C1160 1.434 . S
C1162 C1163 1.369 . S
C1162 C1164 1.419 . S
C1162 H1166 0.930 . S
C1163 C1162 1.369 . S
C1163 C1172 1.429 . S
C1164 C1162 1.419 . S
C1164 C1165 1.363 . S
C1164 H1167 0.929 . S
C1165 C1164 1.363 . S
C1165 C1171 1.428 . S
H1166 C1162 0.930 . S
H1167 C1164 0.929 . S
S1168 N1169 1.613 . S
S1168 N1170 1.610 . S
N1169 S1168 1.613 . S
N1169 C1172 1.350 . S
N1170 S1168 1.610 . S
N1170 C1171 1.351 . S
C1171 C1165 1.428 . S
C1171 N1170 1.351 . S
C1171 C1172 1.434 . S
C1172 C1163 1.429 . S
C1172 N1169 1.350 . S
C1172 C1171 1.434 . S
C1173 C1174 1.369 . S
C1173 C1175 1.419 . S
C1173 H1177 0.930 . S
C1174 C1173 1.369 . S
C1174 C1183 1.429 . S
C1175 C1173 1.419 . S
C1175 C1176 1.363 . S
C1175 H1178 0.929 . S
C1176 C1175 1.363 . S
C1176 C1182 1.428 . S
H1177 C1173 0.930 . S
H1178 C1175 0.929 . S
S1179 N1180 1.613 . S
S1179 N1181 1.610 . S
N1180 S1179 1.613 . S
N1180 C1183 1.350 . S
N1181 S1179 1.610 . S
N1181 C1182 1.351 . S
C1182 C1176 1.428 . S
C1182 N1181 1.351 . S
C1182 C1183 1.434 . S
C1183 C1174 1.429 . S
C1183 N1180 1.350 . S
C1183 C1182 1.434 . S
C1184 C1185 1.369 . S
C1184 C1186 1.419 . S
C1184 H1188 0.930 . S
C1185 C1184 1.369 . S
C1185 C1194 1.429 . S
C1186 C1184 1.419 . S
C1186 C1187 1.363 . S
C1186 H1189 0.929 . S
C1187 C1186 1.363 . S
C1187 C1193 1.428 . S
H1188 C1184 0.930 . S
H1189 C1186 0.929 . S
S1190 N1191 1.613 . S
S1190 N1192 1.610 . S
N1191 S1190 1.613 . S
N1191 C1194 1.350 . S
N1192 S1190 1.610 . S
N1192 C1193 1.351 . S
C1193 C1187 1.428 . S
C1193 N1192 1.351 . S
C1193 C1194 1.434 . S
C1194 C1185 1.429 . S
C1194 N1191 1.350 . S
C1194 C1193 1.434 . S
C1195 C1196 1.369 . S
C1195 C1197 1.419 . S
C1195 H1199 0.930 . S
C1196 C1195 1.369 . S
C1196 C1205 1.429 . S
C1197 C1195 1.419 . S
C1197 C1198 1.363 . S
C1197 H1200 0.929 . S
C1198 C1197 1.363 . S
C1198 C1204 1.428 . S
H1199 C1195 0.930 . S
H1200 C1197 0.929 . S
S1201 N1202 1.613 . S
S1201 N1203 1.610 . S
N1202 S1201 1.613 . S
N1202 C1205 1.350 . S
N1203 S1201 1.610 . S
N1203 C1204 1.351 . S
C1204 C1198 1.428 . S
C1204 N1203 1.351 . S
C1204 C1205 1.434 . S
C1205 C1196 1.429 . S
C1205 N1202 1.350 . S
C1205 C1204 1.434 . S
C1206 C1207 1.369 1_655 S
C1206 C1208 1.419 . S
C1206 H1210 0.930 . S
C1207 C1206 1.369 1_455 S
C1207 C1216 1.429 . S
C1208 C1206 1.419 . S
C1208 C1209 1.363 1_655 S
C1208 H1211 0.929 . S
C1209 C1208 1.363 1_455 S
C1209 C1215 1.428 . S
H1210 C1206 0.930 . S
H1211 C1208 0.929 . S
S1212 N1213 1.613 . S
S1212 N1214 1.610 . S
N1213 S1212 1.613 . S
N1213 C1216 1.350 . S
N1214 S1212 1.610 . S
N1214 C1215 1.351 . S
C1215 C1209 1.428 . S
C1215 N1214 1.351 . S
C1215 C1216 1.434 . S
C1216 C1207 1.429 . S
C1216 N1213 1.350 . S
C1216 C1215 1.434 . S
C1217 C1218 1.369 . S
C1217 C1219 1.419 . S
C1217 H1221 0.930 . S
C1218 C1217 1.369 . S
C1218 C1227 1.429 . S
C1219 C1217 1.419 . S
C1219 C1220 1.363 . S
C1219 H1222 0.929 . S
C1220 C1219 1.363 . S
C1220 C1226 1.428 . S
H1221 C1217 0.930 . S
H1222 C1219 0.929 . S
S1223 N1224 1.613 . S
S1223 N1225 1.610 . S
N1224 S1223 1.613 . S
N1224 C1227 1.350 . S
N1225 S1223 1.610 . S
N1225 C1226 1.351 . S
C1226 C1220 1.428 . S
C1226 N1225 1.351 . S
C1226 C1227 1.434 . S
C1227 C1218 1.429 . S
C1227 N1224 1.350 . S
C1227 C1226 1.434 . S
C1228 C1229 1.369 . S
C1228 C1230 1.419 . S
C1228 H1232 0.930 . S
C1229 C1228 1.369 . S
C1229 C1238 1.429 . S
C1230 C1228 1.419 . S
C1230 C1231 1.363 . S
C1230 H1233 0.929 . S
C1231 C1230 1.363 . S
C1231 C1237 1.428 . S
H1232 C1228 0.930 . S
H1233 C1230 0.929 . S
S1234 N1235 1.613 1_556 S
S1234 N1236 1.610 1_556 S
N1235 S1234 1.613 1_554 S
N1235 C1238 1.350 . S
N1236 S1234 1.610 1_554 S
N1236 C1237 1.351 . S
C1237 C1231 1.428 . S
C1237 N1236 1.351 . S
C1237 C1238 1.434 . S
C1238 C1229 1.429 . S
C1238 N1235 1.350 . S
C1238 C1237 1.434 . S
C1239 C1240 1.369 . S
C1239 C1241 1.419 . S
C1239 H1243 0.930 . S
C1240 C1239 1.369 . S
C1240 C1249 1.429 . S
C1241 C1239 1.419 . S
C1241 C1242 1.363 . S
C1241 H1244 0.929 . S
C1242 C1241 1.363 . S
C1242 C1248 1.428 . S
H1243 C1239 0.930 . S
H1244 C1241 0.929 . S
S1245 N1246 1.613 . S
S1245 N1247 1.610 . S
N1246 S1245 1.613 . S
N1246 C1249 1.350 . S
N1247 S1245 1.610 . S
N1247 C1248 1.351 . S
C1248 C1242 1.428 . S
C1248 N1247 1.351 . S
C1248 C1249 1.434 . S
C1249 C1240 1.429 . S
C1249 N1246 1.350 . S
C1249 C1248 1.434 . S
C1250 C1251 1.369 1_455 S
C1250 C1252 1.419 . S
C1250 H1254 0.930 . S
C1251 C1250 1.369 1_655 S
C1251 C1260 1.429 . S
C1252 C1250 1.419 . S
C1252 C1253 1.363 1_455 S
C1252 H1255 0.929 . S
C1253 C1252 1.363 1_655 S
C1253 C1259 1.428 . S
H1254 C1250 0.930 . S
H1255 C1252 0.929 . S
S1256 N1257 1.613 . S
S1256 N1258 1.610 . S
N1257 S1256 1.613 . S
N1257 C1260 1.350 . S
N1258 S1256 1.610 . S
N1258 C1259 1.351 . S
C1259 C1253 1.428 . S
C1259 N1258 1.351 . S
C1259 C1260 1.434 . S
C1260 C1251 1.429 . S
C1260 N1257 1.350 . S
C1260 C1259 1.434 . S
C1261 C1262 1.369 . S
C1261 C1263 1.419 . S
C1261 H1265 0.930 . S
C1262 C1261 1.369 . S
C1262 C1271 1.429 . S
C1263 C1261 1.419 . S
C1263 C1264 1.363 . S
C1263 H1266 0.929 . S
C1264 C1263 1.363 . S
C1264 C1270 1.428 . S
H1265 C1261 0.930 . S
H1266 C1263 0.929 . S
S1267 N1268 1.613 . S
S1267 N1269 1.610 . S
N1268 S1267 1.613 . S
N1268 C1271 1.350 . S
N1269 S1267 1.610 . S
N1269 C1270 1.351 . S
C1270 C1264 1.428 . S
C1270 N1269 1.351 . S
C1270 C1271 1.434 . S
C1271 C1262 1.429 . S
C1271 N1268 1.350 . S
C1271 C1270 1.434 . S
C1272 C1273 1.369 . S
C1272 C1274 1.419 . S
C1272 H1276 0.930 . S
C1273 C1272 1.369 . S
C1273 C1282 1.429 . S
C1274 C1272 1.419 . S
C1274 C1275 1.363 . S
C1274 H1277 0.929 . S
C1275 C1274 1.363 . S
C1275 C1281 1.428 . S
H1276 C1272 0.930 . S
H1277 C1274 0.929 . S
S1278 N1279 1.613 . S
S1278 N1280 1.610 . S
N1279 S1278 1.613 . S
N1279 C1282 1.350 . S
N1280 S1278 1.610 . S
N1280 C1281 1.351 . S
C1281 C1275 1.428 . S
C1281 N1280 1.351 . S
C1281 C1282 1.434 . S
C1282 C1273 1.429 . S
C1282 N1279 1.350 . S
C1282 C1281 1.434 . S
C1283 C1284 1.369 . S
C1283 C1285 1.419 . S
C1283 H1287 0.930 . S
C1284 C1283 1.369 . S
C1284 C1293 1.429 . S
C1285 C1283 1.419 . S
C1285 C1286 1.363 . S
C1285 H1288 0.929 . S
C1286 C1285 1.363 . S
C1286 C1292 1.428 . S
H1287 C1283 0.930 . S
H1288 C1285 0.929 . S
S1289 N1290 1.613 . S
S1289 N1291 1.610 . S
N1290 S1289 1.613 . S
N1290 C1293 1.350 . S
N1291 S1289 1.610 . S
N1291 C1292 1.351 . S
C1292 C1286 1.428 . S
C1292 N1291 1.351 . S
C1292 C1293 1.434 . S
C1293 C1284 1.429 . S
C1293 N1290 1.350 . S
C1293 C1292 1.434 . S
C1294 C1295 1.369 . S
C1294 C1296 1.419 . S
C1294 H1298 0.930 . S
C1295 C1294 1.369 . S
C1295 C1304 1.429 . S
C1296 C1294 1.419 . S
C1296 C1297 1.363 . S
C1296 H1299 0.929 . S
C1297 C1296 1.363 . S
C1297 C1303 1.428 . S
H1298 C1294 0.930 . S
H1299 C1296 0.929 . S
S1300 N1301 1.613 . S
S1300 N1302 1.610 . S
N1301 S1300 1.613 . S
N1301 C1304 1.350 . S
N1302 S1300 1.610 . S
N1302 C1303 1.351 . S
C1303 C1297 1.428 . S
C1303 N1302 1.351 . S
C1303 C1304 1.434 . S
C1304 C1295 1.429 . S
C1304 N1301 1.350 . S
C1304 C1303 1.434 . S
C1305 C1306 1.369 . S
C1305 C1307 1.419 . S
C1305 H1309 0.930 . S
C1306 C1305 1.369 . S
C1306 C1315 1.429 . S
C1307 C1305 1.419 . S
C1307 C1308 1.363 . S
C1307 H1310 0.929 . S
C1308 C1307 1.363 . S
C1308 C1314 1.428 . S
H1309 C1305 0.930 . S
H1310 C1307 0.929 . S
S1311 N1312 1.613 . S
S1311 N1313 1.610 . S
N1312 S1311 1.613 . S
N1312 C1315 1.350 . S
N1313 S1311 1.610 . S
N1313 C1314 1.351 . S
C1314 C1308 1.428 . S
C1314 N1313 1.351 . S
C1314 C1315 1.434 . S
C1315 C1306 1.429 . S
C1315 N1312 1.350 . S
C1315 C1314 1.434 . S
C1316 C1317 1.369 . S
C1316 C1318 1.419 . S
C1316 H1320 0.930 . S
C1317 C1316 1.369 . S
C1317 C1326 1.429 . S
C1318 C1316 1.419 . S
C1318 C1319 1.363 . S
C1318 H1321 0.929 . S
C1319 C1318 1.363 . S
C1319 C1325 1.428 . S
H1320 C1316 0.930 . S
H1321 C1318 0.929 . S
S1322 N1323 1.613 . S
S1322 N1324 1.610 . S
N1323 S1322 1.613 . S
N1323 C1326 1.350 . S
N1324 S1322 1.610 . S
N1324 C1325 1.351 . S
C1325 C1319 1.428 . S
C1325 N1324 1.351 . S
C1325 C1326 1.434 . S
C1326 C1317 1.429 . S
C1326 N1323 1.350 . S
C1326 C1325 1.434 . S
C1327 C1328 1.369 . S
C1327 C1329 1.419 . S
C1327 H1331 0.930 . S
C1328 C1327 1.369 . S
C1328 C1337 1.429 . S
C1329 C1327 1.419 . S
C1329 C1330 1.363 . S
C1329 H1332 0.929 . S
C1330 C1329 1.363 . S
C1330 C1336 1.428 . S
H1331 C1327 0.930 . S
H1332 C1329 0.929 . S
S1333 N1334 1.613 . S
S1333 N1335 1.610 . S
N1334 S1333 1.613 . S
N1334 C1337 1.350 . S
N1335 S1333 1.610 . S
N1335 C1336 1.351 . S
C1336 C1330 1.428 . S
C1336 N1335 1.351 . S
C1336 C1337 1.434 . S
C1337 C1328 1.429 . S
C1337 N1334 1.350 . S
C1337 C1336 1.434 . S
C1338 C1339 1.369 . S
C1338 C1340 1.419 . S
C1338 H1342 0.930 . S
C1339 C1338 1.369 . S
C1339 C1348 1.429 . S
C1340 C1338 1.419 . S
C1340 C1341 1.363 . S
C1340 H1343 0.896 1_455 S
C1341 C1340 1.363 . S
C1341 C1347 1.428 . S
H1342 C1338 0.930 . S
H1343 C1340 0.896 1_655 S
S1344 N1345 1.613 . S
S1344 N1346 1.610 . S
N1345 S1344 1.613 . S
N1345 C1348 1.350 . S
N1346 S1344 1.610 . S
N1346 C1347 1.351 . S
C1347 C1341 1.428 . S
C1347 N1346 1.351 . S
C1347 C1348 1.434 . S
C1348 C1339 1.429 . S
C1348 N1345 1.350 . S
C1348 C1347 1.434 . S
C1349 C1350 1.369 . S
C1349 C1351 1.419 . S
C1349 H1353 0.930 . S
C1350 C1349 1.369 . S
C1350 C1359 1.429 . S
C1351 C1349 1.419 . S
C1351 C1352 1.363 . S
C1351 H1354 0.929 . S
C1352 C1351 1.363 . S
C1352 C1358 1.428 . S
H1353 C1349 0.930 . S
H1354 C1351 0.929 . S
S1355 N1356 1.613 . S
S1355 N1357 1.610 . S
N1356 S1355 1.613 . S
N1356 C1359 1.350 . S
N1357 S1355 1.610 . S
N1357 C1358 1.351 . S
C1358 C1352 1.428 . S
C1358 N1357 1.351 . S
C1358 C1359 1.434 . S
C1359 C1350 1.429 . S
C1359 N1356 1.350 . S
C1359 C1358 1.434 . S
C1360 C1361 1.369 . S
C1360 C1362 1.419 . S
C1360 H1364 0.930 . S
C1361 C1360 1.369 . S
C1361 C1370 1.429 . S
C1362 C1360 1.419 . S
C1362 C1363 1.363 . S
C1362 H1365 0.929 . S
C1363 C1362 1.363 . S
C1363 C1369 1.428 . S
H1364 C1360 0.930 . S
H1365 C1362 0.929 . S
S1366 N1367 1.613 . S
S1366 N1368 1.610 . S
N1367 S1366 1.613 . S
N1367 C1370 1.350 . S
N1368 S1366 1.610 . S
N1368 C1369 1.351 . S
C1369 C1363 1.428 . S
C1369 N1368 1.351 . S
C1369 C1370 1.434 . S
C1370 C1361 1.429 . S
C1370 N1367 1.350 . S
C1370 C1369 1.434 . S
C1371 C1372 1.369 . S
C1371 C1373 1.419 . S
C1371 H1375 0.930 . S
C1372 C1371 1.369 . S
C1372 C1381 1.429 . S
C1373 C1371 1.419 . S
C1373 C1374 1.363 . S
C1373 H1376 0.929 . S
C1374 C1373 1.363 . S
C1374 C1380 1.428 . S
H1375 C1371 0.930 . S
H1376 C1373 0.929 . S
S1377 N1378 1.613 . S
S1377 N1379 1.610 . S
N1378 S1377 1.613 . S
N1378 C1381 1.350 . S
N1379 S1377 1.610 . S
N1379 C1380 1.351 . S
C1380 C1374 1.428 . S
C1380 N1379 1.351 . S
C1380 C1381 1.434 . S
C1381 C1372 1.429 . S
C1381 N1378 1.350 . S
C1381 C1380 1.434 . S
C1382 C1383 1.369 . S
C1382 C1384 1.419 . S
C1382 H1386 0.930 . S
C1383 C1382 1.369 . S
C1383 C1392 1.429 . S
C1384 C1382 1.419 . S
C1384 C1385 1.363 . S
C1384 H1387 0.929 . S
C1385 C1384 1.363 . S
C1385 C1391 1.428 . S
H1386 C1382 0.930 . S
H1387 C1384 0.929 . S
S1388 N1389 1.613 . S
S1388 N1390 1.610 . S
N1389 S1388 1.613 . S
N1389 C1392 1.350 . S
N1390 S1388 1.610 . S
N1390 C1391 1.351 . S
C1391 C1385 1.428 . S
C1391 N1390 1.351 . S
C1391 C1392 1.434 . S
C1392 C1383 1.429 . S
C1392 N1389 1.350 . S
C1392 C1391 1.434 . S
C1393 C1394 1.369 . S
C1393 C1395 1.419 1_565 S
C1393 H1397 0.930 . S
C1394 C1393 1.369 . S
C1394 C1403 1.429 . S
C1395 C1393 1.419 1_545 S
C1395 C1396 1.363 1_545 S
C1395 H1398 0.929 . S
C1396 C1395 1.363 1_565 S
C1396 C1402 1.428 . S
H1397 C1393 0.930 . S
H1398 C1395 0.929 . S
S1399 N1400 1.613 . S
S1399 N1401 1.610 . S
N1400 S1399 1.613 . S
N1400 C1403 1.350 . S
N1401 S1399 1.610 . S
N1401 C1402 1.351 . S
C1402 C1396 1.428 . S
C1402 N1401 1.351 . S
C1402 C1403 1.434 . S
C1403 C1394 1.429 . S
C1403 N1400 1.350 . S
C1403 C1402 1.434 . S
C1404 C1405 1.369 . S
C1404 C1406 1.419 . S
C1404 H1408 0.930 . S
C1405 C1404 1.369 . S
C1405 C1414 1.429 . S
C1406 C1404 1.419 . S
C1406 C1407 1.363 . S
C1406 H1409 0.929 . S
C1407 C1406 1.363 . S
C1407 C1413 1.428 . S
H1408 C1404 0.930 . S
H1409 C1406 0.929 . S
S1410 N1411 1.613 . S
S1410 N1412 1.610 . S
N1411 S1410 1.613 . S
N1411 C1414 1.350 . S
N1412 S1410 1.610 . S
N1412 C1413 1.351 . S
C1413 C1407 1.428 . S
C1413 N1412 1.351 . S
C1413 C1414 1.434 . S
C1414 C1405 1.429 . S
C1414 N1411 1.350 . S
C1414 C1413 1.434 . S
C1415 C1416 1.369 1_556 S
C1415 C1417 1.419 1_556 S
C1415 H1419 0.930 . S
C1416 C1415 1.369 1_554 S
C1416 C1425 1.429 . S
C1417 C1415 1.419 1_554 S
C1417 C1418 1.363 . S
C1417 H1420 0.929 1_554 S
C1418 C1417 1.363 . S
C1418 C1424 1.428 . S
H1419 C1415 0.930 . S
H1420 C1417 0.929 1_556 S
S1421 N1422 1.613 . S
S1421 N1423 1.610 . S
N1422 S1421 1.613 . S
N1422 C1425 1.350 . S
N1423 S1421 1.610 . S
N1423 C1424 1.351 . S
C1424 C1418 1.428 . S
C1424 N1423 1.351 . S
C1424 C1425 1.434 . S
C1425 C1416 1.429 . S
C1425 N1422 1.350 . S
C1425 C1424 1.434 . S
C1426 C1427 1.369 . S
C1426 C1428 1.419 . S
C1426 H1430 0.930 . S
C1427 C1426 1.369 . S
C1427 C1436 1.429 . S
C1428 C1426 1.419 . S
C1428 C1429 1.363 . S
C1428 H1431 0.929 . S
C1429 C1428 1.363 . S
C1429 C1435 1.428 . S
H1430 C1426 0.930 . S
H1431 C1428 0.929 . S
S1432 N1433 1.613 . S
S1432 N1434 1.610 . S
N1433 S1432 1.613 . S
N1433 C1436 1.350 . S
N1434 S1432 1.610 . S
N1434 C1435 1.351 . S
C1435 C1429 1.428 . S
C1435 N1434 1.351 . S
C1435 C1436 1.434 . S
C1436 C1427 1.429 . S
C1436 N1433 1.350 . S
C1436 C1435 1.434 . S
C1437 C1438 1.369 . S
C1437 C1439 1.419 . S
C1437 H1441 0.930 . S
C1438 C1437 1.369 . S
C1438 C1447 1.429 . S
C1439 C1437 1.419 . S
C1439 C1440 1.363 . S
C1439 H1442 0.929 . S
C1440 C1439 1.363 . S
C1440 C1446 1.428 . S
H1441 C1437 0.930 . S
H1442 C1439 0.929 . S
S1443 N1444 1.613 1_565 S
S1443 N1445 1.610 . S
N1444 S1443 1.613 1_545 S
N1444 C1447 1.353 1_545 S
N1445 S1443 1.610 . S
N1445 C1446 1.351 . S
C1446 C1440 1.428 . S
C1446 N1445 1.351 . S
C1446 C1447 1.434 . S
C1447 C1438 1.429 . S
C1447 N1444 1.353 1_565 S
C1447 C1446 1.434 . S
C1448 C1449 1.369 . S
C1448 C1450 1.419 . S
C1448 H1452 0.930 . S
C1449 C1448 1.369 . S
C1449 C1458 1.429 . S
C1450 C1448 1.419 . S
C1450 C1451 1.363 . S
C1450 H1453 0.929 . S
C1451 C1450 1.363 . S
C1451 C1457 1.428 . S
H1452 C1448 0.930 . S
H1453 C1450 0.929 . S
S1454 N1455 1.613 . S
S1454 N1456 1.610 . S
N1455 S1454 1.613 . S
N1455 C1458 1.350 . S
N1456 S1454 1.610 . S
N1456 C1457 1.351 . S
C1457 C1451 1.428 . S
C1457 N1456 1.351 . S
C1457 C1458 1.434 . S
C1458 C1449 1.429 . S
C1458 N1455 1.350 . S
C1458 C1457 1.434 . S
C1459 C1460 1.369 . S
C1459 C1461 1.419 . S
C1459 H1463 0.930 . S
C1460 C1459 1.369 . S
C1460 C1469 1.429 . S
C1461 C1459 1.419 . S
C1461 C1462 1.363 . S
C1461 H1464 0.929 . S
C1462 C1461 1.363 . S
C1462 C1468 1.428 . S
H1463 C1459 0.930 . S
H1464 C1461 0.929 . S
S1465 N1466 1.613 . S
S1465 N1467 1.610 . S
N1466 S1465 1.613 . S
N1466 C1469 1.350 . S
N1467 S1465 1.610 . S
N1467 C1468 1.351 . S
C1468 C1462 1.428 . S
C1468 N1467 1.351 . S
C1468 C1469 1.434 . S
C1469 C1460 1.429 . S
C1469 N1466 1.350 . S
C1469 C1468 1.434 . S
C1470 C1471 1.369 1_655 S
C1470 C1472 1.419 . S
C1470 H1474 0.930 . S
C1471 C1470 1.369 1_455 S
C1471 C1480 1.429 . S
C1472 C1470 1.419 . S
C1472 C1473 1.363 1_655 S
C1472 H1475 0.929 . S
C1473 C1472 1.363 1_455 S
C1473 C1479 1.428 . S
H1474 C1470 0.930 . S
H1475 C1472 0.929 . S
S1476 N1477 1.613 . S
S1476 N1478 1.610 . S
N1477 S1476 1.613 . S
N1477 C1480 1.350 . S
N1478 S1476 1.610 . S
N1478 C1479 1.351 . S
C1479 C1473 1.428 . S
C1479 N1478 1.351 . S
C1479 C1480 1.434 . S
C1480 C1471 1.429 . S
C1480 N1477 1.350 . S
C1480 C1479 1.434 . S
C1481 C1482 1.369 . S
C1481 C1483 1.419 . S
C1481 H1485 0.930 . S
C1482 C1481 1.369 . S
C1482 C1491 1.429 . S
C1483 C1481 1.419 . S
C1483 C1484 1.363 . S
C1483 H1486 0.929 . S
C1484 C1483 1.363 . S
C1484 C1490 1.428 . S
H1485 C1481 0.930 . S
H1486 C1483 0.929 . S
S1487 N1488 1.613 . S
S1487 N1489 1.610 . S
N1488 S1487 1.613 . S
N1488 C1491 1.350 . S
N1489 S1487 1.610 . S
N1489 C1490 1.351 . S
C1490 C1484 1.428 . S
C1490 N1489 1.351 . S
C1490 C1491 1.434 . S
C1491 C1482 1.429 . S
C1491 N1488 1.350 . S
C1491 C1490 1.434 . S
C1492 C1493 1.369 . S
C1492 C1494 1.419 . S
C1492 H1496 0.930 . S
C1493 C1492 1.369 . S
C1493 C1502 1.429 . S
C1494 C1492 1.419 . S
C1494 C1495 1.363 . S
C1494 H1497 0.929 . S
C1495 C1494 1.363 . S
C1495 C1501 1.428 . S
H1496 C1492 0.930 . S
H1497 C1494 0.929 . S
S1498 N1499 1.613 . S
S1498 N1500 1.610 . S
N1499 S1498 1.613 . S
N1499 C1502 1.350 . S
N1500 S1498 1.610 . S
N1500 C1501 1.351 . S
C1501 C1495 1.428 . S
C1501 N1500 1.351 . S
C1501 C1502 1.434 . S
C1502 C1493 1.429 . S
C1502 N1499 1.350 . S
C1502 C1501 1.434 . S
C1503 C1504 1.369 . S
C1503 C1505 1.419 . S
C1503 H1507 0.930 . S
C1504 C1503 1.369 . S
C1504 C1513 1.429 . S
C1505 C1503 1.419 . S
C1505 C1506 1.363 . S
C1505 H1508 0.929 . S
C1506 C1505 1.363 . S
C1506 C1512 1.428 . S
H1507 C1503 0.930 . S
H1508 C1505 0.929 . S
S1509 N1510 1.613 . S
S1509 N1511 1.610 . S
N1510 S1509 1.613 . S
N1510 C1513 1.350 . S
N1511 S1509 1.610 . S
N1511 C1512 1.351 . S
C1512 C1506 1.428 . S
C1512 N1511 1.351 . S
C1512 C1513 1.434 . S
C1513 C1504 1.429 . S
C1513 N1510 1.350 . S
C1513 C1512 1.434 . S
C1514 C1515 1.376 . S
C1514 C1516 1.416 1_455 S
C1514 H1518 0.926 1_455 S
C1515 C1514 1.376 . S
C1515 C1524 1.429 . S
C1516 C1514 1.416 1_655 S
C1516 C1517 1.363 1_655 S
C1516 H1519 0.929 . S
C1517 C1516 1.363 1_455 S
C1517 C1523 1.428 . S
H1518 C1514 0.926 1_655 S
H1519 C1516 0.929 . S
S1520 N1521 1.613 . S
S1520 N1522 1.610 . S
N1521 S1520 1.613 . S
N1521 C1524 1.350 . S
N1522 S1520 1.610 . S
N1522 C1523 1.351 . S
C1523 C1517 1.428 . S
C1523 N1522 1.351 . S
C1523 C1524 1.434 . S
C1524 C1515 1.429 . S
C1524 N1521 1.350 . S
C1524 C1523 1.434 . S
C1525 C1526 1.369 . S
C1525 C1527 1.419 . S
C1525 H1529 0.930 . S
C1526 C1525 1.369 . S
C1526 C1535 1.429 . S
C1527 C1525 1.419 . S
C1527 C1528 1.363 . S
C1527 H1530 0.929 . S
C1528 C1527 1.363 . S
C1528 C1534 1.428 . S
H1529 C1525 0.930 . S
H1530 C1527 0.929 . S
S1531 N1532 1.613 . S
S1531 N1533 1.610 . S
N1532 S1531 1.613 . S
N1532 C1535 1.350 . S
N1533 S1531 1.610 . S
N1533 C1534 1.351 . S
C1534 C1528 1.428 . S
C1534 N1533 1.351 . S
C1534 C1535 1.434 . S
C1535 C1526 1.429 . S
C1535 N1532 1.350 . S
C1535 C1534 1.434 . S
C1536 C1537 1.369 . S
C1536 C1538 1.419 . S
C1536 H1540 0.930 . S
C1537 C1536 1.369 . S
C1537 C1546 1.429 . S
C1538 C1536 1.419 . S
C1538 C1539 1.363 . S
C1538 H1541 0.929 . S
C1539 C1538 1.363 . S
C1539 C1545 1.428 . S
H1540 C1536 0.930 . S
H1541 C1538 0.929 . S
S1542 N1543 1.613 . S
S1542 N1544 1.610 . S
N1543 S1542 1.613 . S
N1543 C1546 1.350 . S
N1544 S1542 1.610 . S
N1544 C1545 1.351 . S
C1545 C1539 1.428 . S
C1545 N1544 1.351 . S
C1545 C1546 1.434 . S
C1546 C1537 1.429 . S
C1546 N1543 1.350 . S
C1546 C1545 1.434 . S
C1547 C1548 1.369 . S
C1547 C1549 1.419 . S
C1547 H1551 0.930 . S
C1548 C1547 1.369 . S
C1548 C1557 1.429 . S
C1549 C1547 1.419 . S
C1549 C1550 1.363 . S
C1549 H1552 0.929 . S
C1550 C1549 1.363 . S
C1550 C1556 1.428 . S
H1551 C1547 0.930 . S
H1552 C1549 0.929 . S
S1553 N1554 1.613 . S
S1553 N1555 1.610 . S
N1554 S1553 1.613 . S
N1554 C1557 1.350 . S
N1555 S1553 1.610 . S
N1555 C1556 1.351 . S
C1556 C1550 1.428 . S
C1556 N1555 1.351 . S
C1556 C1557 1.434 . S
C1557 C1548 1.429 . S
C1557 N1554 1.350 . S
C1557 C1556 1.434 . S
C1558 C1559 1.369 . S
C1558 C1560 1.419 . S
C1558 H1562 0.930 . S
C1559 C1558 1.369 . S
C1559 C1568 1.429 . S
C1560 C1558 1.419 . S
C1560 C1561 1.363 . S
C1560 H1563 0.929 . S
C1561 C1560 1.363 . S
C1561 C1567 1.428 . S
H1562 C1558 0.930 . S
H1563 C1560 0.929 . S
S1564 N1565 1.613 . S
S1564 N1566 1.610 . S
N1565 S1564 1.613 . S
N1565 C1568 1.350 . S
N1566 S1564 1.610 . S
N1566 C1567 1.351 . S
C1567 C1561 1.428 . S
C1567 N1566 1.351 . S
C1567 C1568 1.434 . S
C1568 C1559 1.429 . S
C1568 N1565 1.350 . S
C1568 C1567 1.434 . S
C1569 C1570 1.369 . S
C1569 C1571 1.419 . S
C1569 H1573 0.930 . S
C1570 C1569 1.369 . S
C1570 C1579 1.429 . S
C1571 C1569 1.419 . S
C1571 C1572 1.363 . S
C1571 H1574 0.929 . S
C1572 C1571 1.363 . S
C1572 C1578 1.428 . S
H1573 C1569 0.930 . S
H1574 C1571 0.929 . S
S1575 N1576 1.613 . S
S1575 N1577 1.610 . S
N1576 S1575 1.613 . S
N1576 C1579 1.350 . S
N1577 S1575 1.610 . S
N1577 C1578 1.351 . S
C1578 C1572 1.428 . S
C1578 N1577 1.351 . S
C1578 C1579 1.434 . S
C1579 C1570 1.429 . S
C1579 N1576 1.350 . S
C1579 C1578 1.434 . S
C1580 C1581 1.369 . S
C1580 C1582 1.419 . S
C1580 H1584 0.930 . S
C1581 C1580 1.369 . S
C1581 C1590 1.429 . S
C1582 C1580 1.419 . S
C1582 C1583 1.363 . S
C1582 H1585 0.929 . S
C1583 C1582 1.363 . S
C1583 C1589 1.428 . S
H1584 C1580 0.930 . S
H1585 C1582 0.929 . S
S1586 N1587 1.613 . S
S1586 N1588 1.610 . S
N1587 S1586 1.613 . S
N1587 C1590 1.350 . S
N1588 S1586 1.610 . S
N1588 C1589 1.351 . S
C1589 C1583 1.428 . S
C1589 N1588 1.351 . S
C1589 C1590 1.434 . S
C1590 C1581 1.429 . S
C1590 N1587 1.350 . S
C1590 C1589 1.434 . S
C1591 C1592 1.369 . S
C1591 C1593 1.419 . S
C1591 H1595 0.930 . S
C1592 C1591 1.369 . S
C1592 C1601 1.429 . S
C1593 C1591 1.419 . S
C1593 C1594 1.363 . S
C1593 H1596 0.929 . S
C1594 C1593 1.363 . S
C1594 C1600 1.428 . S
H1595 C1591 0.930 . S
H1596 C1593 0.929 . S
S1597 N1598 1.613 . S
S1597 N1599 1.610 . S
N1598 S1597 1.613 . S
N1598 C1601 1.350 . S
N1599 S1597 1.610 . S
N1599 C1600 1.351 . S
C1600 C1594 1.428 . S
C1600 N1599 1.351 . S
C1600 C1601 1.434 . S
C1601 C1592 1.429 . S
C1601 N1598 1.350 . S
C1601 C1600 1.434 . S
C1602 C1603 1.369 . S
C1602 C1604 1.419 . S
C1602 H1606 0.930 . S
C1603 C1602 1.369 . S
C1603 C1612 1.429 . S
C1604 C1602 1.419 . S
C1604 C1605 1.363 . S
C1604 H1607 0.929 . S
C1605 C1604 1.363 . S
C1605 C1611 1.428 . S
H1606 C1602 0.930 . S
H1607 C1604 0.929 . S
S1608 N1609 1.613 . S
S1608 N1610 1.610 . S
N1609 S1608 1.613 . S
N1609 C1612 1.350 . S
N1610 S1608 1.610 . S
N1610 C1611 1.351 . S
C1611 C1605 1.428 . S
C1611 N1610 1.351 . S
C1611 C1612 1.434 . S
C1612 C1603 1.429 . S
C1612 N1609 1.350 . S
C1612 C1611 1.434 . S
C1613 C1614 1.369 . S
C1613 C1615 1.419 . S
C1613 H1617 0.930 . S
C1614 C1613 1.369 . S
C1614 C1623 1.429 . S
C1615 C1613 1.419 . S
C1615 C1616 1.363 . S
C1615 H1618 0.929 . S
C1616 C1615 1.363 . S
C1616 C1622 1.428 . S
H1617 C1613 0.930 . S
H1618 C1615 0.929 . S
S1619 N1620 1.613 . S
S1619 N1621 1.610 . S
N1620 S1619 1.613 . S
N1620 C1623 1.350 . S
N1621 S1619 1.610 . S
N1621 C1622 1.351 . S
C1622 C1616 1.428 . S
C1622 N1621 1.351 . S
C1622 C1623 1.434 . S
C1623 C1614 1.429 . S
C1623 N1620 1.350 . S
C1623 C1622 1.434 . S
C1624 C1625 1.369 . S
C1624 C1626 1.419 . S
C1624 H1628 0.930 . S
C1625 C1624 1.369 . S
C1625 C1634 1.429 . S
C1626 C1624 1.419 . S
C1626 C1627 1.363 . S
C1626 H1629 0.929 . S
C1627 C1626 1.363 . S
C1627 C1633 1.428 . S
H1628 C1624 0.930 . S
H1629 C1626 0.929 . S
S1630 N1631 1.613 . S
S1630 N1632 1.610 . S
N1631 S1630 1.613 . S
N1631 C1634 1.350 . S
N1632 S1630 1.610 . S
N1632 C1633 1.351 . S
C1633 C1627 1.428 . S
C1633 N1632 1.351 . S
C1633 C1634 1.434 . S
C1634 C1625 1.429 . S
C1634 N1631 1.350 . S
C1634 C1633 1.434 . S
C1635 C1636 1.369 . S
C1635 C1637 1.419 . S
C1635 H1639 0.930 . S
C1636 C1635 1.369 . S
C1636 C1645 1.429 . S
C1637 C1635 1.419 . S
C1637 C1638 1.363 . S
C1637 H1640 0.929 . S
C1638 C1637 1.363 . S
C1638 C1644 1.428 . S
H1639 C1635 0.930 . S
H1640 C1637 0.929 . S
S1641 N1642 1.613 . S
S1641 N1643 1.610 1_565 S
N1642 S1641 1.613 . S
N1642 C1645 1.350 . S
N1643 S1641 1.610 1_545 S
N1643 C1644 1.351 1_545 S
C1644 C1638 1.428 . S
C1644 N1643 1.351 1_565 S
C1644 C1645 1.434 . S
C1645 C1636 1.429 . S
C1645 N1642 1.350 . S
C1645 C1644 1.434 . S
C1646 C1647 1.369 . S
C1646 C1648 1.419 . S
C1646 H1650 0.930 . S
C1647 C1646 1.369 . S
C1647 C1656 1.429 . S
C1648 C1646 1.419 . S
C1648 C1649 1.363 . S
C1648 H1651 0.929 . S
C1649 C1648 1.363 . S
C1649 C1655 1.428 . S
H1650 C1646 0.930 . S
H1651 C1648 0.929 . S
S1652 N1653 1.613 . S
S1652 N1654 1.610 . S
N1653 S1652 1.613 . S
N1653 C1656 1.350 . S
N1654 S1652 1.610 . S
N1654 C1655 1.351 . S
C1655 C1649 1.428 . S
C1655 N1654 1.351 . S
C1655 C1656 1.434 . S
C1656 C1647 1.429 . S
C1656 N1653 1.350 . S
C1656 C1655 1.434 . S
C1657 C1658 1.372 . S
C1657 C1659 1.419 . S
C1657 H1661 0.930 . S
C1658 C1657 1.372 . S
C1658 C1667 1.419 1_556 S
C1659 C1657 1.419 . S
C1659 C1660 1.363 1_556 S
C1659 H1662 0.929 . S
C1660 C1659 1.363 1_554 S
C1660 C1666 1.428 . S
H1661 C1657 0.930 . S
H1662 C1659 0.929 . S
S1663 N1664 1.613 . S
S1663 N1665 1.610 . S
N1664 S1663 1.613 . S
N1664 C1667 1.350 . S
N1665 S1663 1.610 . S
N1665 C1666 1.351 . S
C1666 C1660 1.428 . S
C1666 N1665 1.351 . S
C1666 C1667 1.434 . S
C1667 C1658 1.419 1_554 S
C1667 N1664 1.350 . S
C1667 C1666 1.434 . S
C1668 C1669 1.369 . S
C1668 C1670 1.419 . S
C1668 H1672 0.930 . S
C1669 C1668 1.369 . S
C1669 C1678 1.429 . S
C1670 C1668 1.419 . S
C1670 C1671 1.363 . S
C1670 H1673 0.929 . S
C1671 C1670 1.363 . S
C1671 C1677 1.428 . S
H1672 C1668 0.930 . S
H1673 C1670 0.929 . S
S1674 N1675 1.613 . S
S1674 N1676 1.610 . S
N1675 S1674 1.613 . S
N1675 C1678 1.350 . S
N1676 S1674 1.610 . S
N1676 C1677 1.351 . S
C1677 C1671 1.428 . S
C1677 N1676 1.351 . S
C1677 C1678 1.434 . S
C1678 C1669 1.429 . S
C1678 N1675 1.350 . S
C1678 C1677 1.434 . S
C1679 C1680 1.369 . S
C1679 C1681 1.419 . S
C1679 H1683 0.930 . S
C1680 C1679 1.369 . S
C1680 C1689 1.429 1_554 S
C1681 C1679 1.419 . S
C1681 C1682 1.358 1_554 S
C1681 H1684 0.929 . S
C1682 C1681 1.358 1_556 S
C1682 C1688 1.431 . S
H1683 C1679 0.930 . S
H1684 C1681 0.929 . S
S1685 N1686 1.613 . S
S1685 N1687 1.610 . S
N1686 S1685 1.613 . S
N1686 C1689 1.350 . S
N1687 S1685 1.610 . S
N1687 C1688 1.351 . S
C1688 C1682 1.431 . S
C1688 N1687 1.351 . S
C1688 C1689 1.434 . S
C1689 C1680 1.429 1_556 S
C1689 N1686 1.350 . S
C1689 C1688 1.434 . S
C1690 C1691 1.369 . S
C1690 C1692 1.419 . S
C1690 H1694 0.930 . S
C1691 C1690 1.369 . S
C1691 C1700 1.429 . S
C1692 C1690 1.419 . S
C1692 C1693 1.363 . S
C1692 H1695 0.929 . S
C1693 C1692 1.363 . S
C1693 C1699 1.428 . S
H1694 C1690 0.930 . S
H1695 C1692 0.929 . S
S1696 N1697 1.613 . S
S1696 N1698 1.610 . S
N1697 S1696 1.613 . S
N1697 C1700 1.350 . S
N1698 S1696 1.610 . S
N1698 C1699 1.351 . S
C1699 C1693 1.428 . S
C1699 N1698 1.351 . S
C1699 C1700 1.434 . S
C1700 C1691 1.429 . S
C1700 N1697 1.350 . S
C1700 C1699 1.434 . S
C1701 C1702 1.369 . S
C1701 C1703 1.419 . S
C1701 H1705 0.930 . S
C1702 C1701 1.369 . S
C1702 C1711 1.429 . S
C1703 C1701 1.419 . S
C1703 C1704 1.363 . S
C1703 H1706 0.929 . S
C1704 C1703 1.363 . S
C1704 C1710 1.428 . S
H1705 C1701 0.930 . S
H1706 C1703 0.929 . S
S1707 N1708 1.613 . S
S1707 N1709 1.610 . S
N1708 S1707 1.613 . S
N1708 C1711 1.350 . S
N1709 S1707 1.610 . S
N1709 C1710 1.351 . S
C1710 C1704 1.428 . S
C1710 N1709 1.351 . S
C1710 C1711 1.434 . S
C1711 C1702 1.429 . S
C1711 N1708 1.350 . S
C1711 C1710 1.434 . S
C657 C111 1.198 1_455 S
C659 C352 1.257 1_556 S
C668 C64 1.421 . S
C670 C365 1.453 . S
C679 C77 1.342 . S
C681 C384 1.345 . S
C692 C415 1.702 . S
C690 C95 1.729 . S
C701 C25 1.522 . S
C703 C435 1.495 . S
C714 C452 1.002 . S
C712 C36 1.013 . S
C725 C465 1.523 . S
C723 C50 1.461 . S
C734 C11 1.094 . S
C736 C492 1.059 . S
C747 C345 1.258 . S
C745 C237 1.186 . S
C756 C245 1.513 . S
C758 C375 1.494 . S
C769 C377 1.602 . S
C767 C279 1.528 . S
C780 C412 0.910 . S
C778 C175 0.907 . S
C789 C231 1.123 . S
C791 C432 1.126 . S
C802 C445 1.686 . S
C800 C251 1.557 . S
C813 C475 1.396 . S
C811 C273 1.423 . S
C824 C485 1.204 . S
C822 C181 1.205 . S
C835 C355 1.542 1_565 S
C833 C165 1.565 . S
C844 C288 1.667 . S
C846 C505 1.742 1_556 S
C857 C535 1.563 . S
C855 C333 1.592 . S
C868 C552 1.263 . S
C866 C316 1.273 . S
C877 C123 1.768 . S
C879 C495 1.761 . S
C888 C137 1.261 . S
C890 C382 1.190 . S
C899 C330 1.738 . S
C901 C565 1.825 . S
C912 C592 1.125 . S
C910 C302 1.164 . S
C923 C342 1.326 . S
C921 C63 1.356 . S
C934 C577 1.457 . S
C932 C106 1.412 . S
C943 C97 1.302 . S
C945 C395 1.400 . S
C954 C81 1.812 . S
C956 C564 1.752 . S
C967 C424 1.583 . S
C965 C13 1.567 . S
C976 C55 0.939 . S
C978 C522 1.006 . S
C989 C457 1.436 . S
C987 C35 1.435 . S
C1000 C602 1.163 . S
C998 C21 1.195 . S
C1011 C337 1.337 . S
C1009 C147 1.357 . S
C1022 C584 1.505 . S
C1020 C321 1.431 . S
C1031 C119 1.684 . S
C1033 C385 1.655 . S
C1042 C293 0.958 . S
C1044 C562 1.011 . S
C1053 C153 1.157 1_565 S
C1055 C422 1.258 . S
C1066 C517 1.727 . S
C1064 C315 1.715 . S
C1075 C125 1.317 . S
C1077 C464 1.357 . S
C1086 C287 1.327 . S
C1088 C597 1.275 . S
C1097 C193 1.620 . S
C1099 C344 1.600 . S
C1108 C176 1.711 . S
C1110 C497 1.742 . S
C1119 C263 1.558 . S
C1121 C444 1.560 . S
C1130 C246 1.313 . S
C1132 C542 1.354 . S
C1143 C604 1.845 . S
C1141 C277 1.874 . S
C1152 C221 1.246 . S
C1154 C392 1.198 . S
C1165 C397 1.846 . S
C1163 C260 1.802 . S
C1176 C362 1.171 . S
C1174 C204 1.171 . S
C1185 C83 1.211 . S
C1187 C632 1.250 . S
C1198 C585 1.449 . S
C1196 C92 1.416 . S
C1207 C105 1.342 . S
C1209 C644 1.345 1_455 S
C1218 C67 1.733 . S
C1220 C575 1.696 . S
C1229 C53 1.524 . S
C1231 C515 1.491 . S
C1242 C532 1.004 . S
C1240 C8 1.012 . S
C1253 C545 1.522 . S
C1251 C22 1.452 . S
C1264 C612 1.059 . S
C1262 C39 1.095 . S
C1275 C625 1.264 . S
C1273 C265 1.191 . S
C1284 C189 1.516 . S
C1286 C595 1.489 . S
C1297 C637 1.602 . S
C1295 C209 1.527 . S
C1308 C572 0.908 . S
C1306 C217 0.905 . S
C1319 C512 1.122 . S
C1317 C259 1.115 . S
C1328 C195 1.552 . S
C1330 C525 1.685 . S
C1341 C555 1.397 . S
C1339 C203 1.422 . S
C1350 C223 1.198 . S
C1352 C605 1.204 . S
C1363 C635 1.539 . S
C1361 C319 1.566 . S
C1372 C134 1.669 . S
C1374 C425 1.741 . S
C1385 C455 1.562 . S
C1383 C151 1.594 . S
C1396 C472 1.262 1_565 S
C1394 C162 1.266 . S
C1407 C615 1.759 . S
C1405 C305 1.769 . S
C1416 C291 1.257 1_554 S
C1418 C642 1.190 . S
C1429 C405 1.824 . S
C1427 C148 1.726 . S
C1440 C372 1.125 . S
C1438 C120 1.164 . S
C1449 C91 1.354 . S
C1451 C622 1.329 . S
C1462 C357 1.452 . S
C1460 C78 1.421 . S
C1471 C69 1.294 . S
C1473 C655 1.398 . S
C1482 C109 1.811 . S
C1484 C404 1.753 . S
C1493 C41 1.567 . S
C1495 C504 1.583 1_556 S
C1506 C442 1.002 . S
C1504 C27 0.928 . S
C1515 C7 1.434 . S
C1517 C537 1.436 . S
C1526 C49 1.195 . S
C1528 C482 1.164 . S
C1539 C617 1.333 . S
C1537 C329 1.353 . S
C1548 C167 1.418 . S
C1550 C364 1.503 . S
C1561 C645 1.651 . S
C1559 C301 1.688 . S
C1570 C139 0.964 . S
C1572 C402 1.014 . S
C1581 C335 1.144 . S
C1583 C502 1.259 . S
C1594 C437 1.728 . S
C1592 C161 1.716 . S
C1603 C307 1.326 . S
C1605 C544 1.361 . S
C1616 C477 1.273 . S
C1614 C133 1.328 . S
C1627 C624 1.597 . S
C1625 C249 1.620 . S
C1638 C417 1.742 1_565 S
C1636 C218 1.710 . S
C1647 C235 1.555 . S
C1649 C524 1.562 . S
C1660 C462 1.349 . S
C1658 C190 1.300 1_556 S
C1669 C207 1.873 . S
C1671 C484 1.847 . S
C1680 C179 1.238 . S
C1682 C652 1.204 1_556 S
C1693 C557 1.846 . S
C1691 C232 1.798 1_565 S
C1704 C582 1.171 . S
C1702 C274 1.171 . S
