# Generated by pormake.
# Topology tsx, (6,3)-cn, num edge types: 1
# Building blocks:
#     Node 0, Type 0, BuildingBlock: VOLQOD_clean_sbu_1, # of connection points: 6
#     Node 1, Type 0, BuildingBlock: VOLQOD_clean_sbu_1, # of connection points: 6
#     Node 2, Type 1, BuildingBlock: WUSLED_clean_sbu_0, # of connection points: 3
#     Node 3, Type 1, BuildingBlock: WUSLED_clean_sbu_0, # of connection points: 3
#     Node 4, Type 1, BuildingBlock: WUSLED_clean_sbu_0, # of connection points: 3
#     Node 5, Type 1, BuildingBlock: WUSLED_clean_sbu_0, # of connection points: 3
#     Edge 6, Type (0, 1), BuildingBlock: CIFDUS_clean_linker_0, # of connection points: 2
#     Edge 7, Type (0, 1), BuildingBlock: CIFDUS_clean_linker_0, # of connection points: 2
#     Edge 8, Type (0, 1), BuildingBlock: CIFDUS_clean_linker_0, # of connection points: 2
#     Edge 9, Type (0, 1), BuildingBlock: CIFDUS_clean_linker_0, # of connection points: 2
#     Edge 10, Type (0, 1), BuildingBlock: CIFDUS_clean_linker_0, # of connection points: 2
#     Edge 11, Type (0, 1), BuildingBlock: CIFDUS_clean_linker_0, # of connection points: 2
#     Edge 12, Type (0, 1), BuildingBlock: CIFDUS_clean_linker_0, # of connection points: 2
#     Edge 13, Type (0, 1), BuildingBlock: CIFDUS_clean_linker_0, # of connection points: 2
#     Edge 14, Type (0, 1), BuildingBlock: CIFDUS_clean_linker_0, # of connection points: 2
#     Edge 15, Type (0, 1), BuildingBlock: CIFDUS_clean_linker_0, # of connection points: 2
#     Edge 16, Type (0, 1), BuildingBlock: CIFDUS_clean_linker_0, # of connection points: 2
#     Edge 17, Type (0, 1), BuildingBlock: CIFDUS_clean_linker_0, # of connection points: 2
# Relax obj value: 0.070
# Max RMSD: 0.104
# Mean RMSD: 0.078
data_MOF--net-tsx--node1-VOLQOD_clean_sbu_1--node2-WUSLED_clean_sbu_0--edge1-CIFDUS_clean_linker_0
_symmetry_space_group_name_H-M    P1
_symmetry_Int_Tables_number       1
_symmetry_cell_setting            triclinic
loop_
_symmetry_equiv_pos_as_xyz
'x, y, z'
_cell_length_a     23.753746
_cell_length_b     24.549634
_cell_length_c     46.871309
_cell_angle_alpha  90.925718
_cell_angle_beta   90.504837
_cell_angle_gamma 90.161663
loop_
_atom_site_label
_atom_site_type_symbol
_atom_site_fract_x
_atom_site_fract_y
_atom_site_fract_z
_atom_type_partial_charge
O0 O 0.0802 1.00405 0.0753 0.0
Zn1 Zn 0.10232 1.00302 0.03368 0.0
O2 O 0.03459 1.00767 0.00959 0.0
Zn3 Zn 0.02331 0.93842 0.98938 0.0
Zn4 Zn 0.9677 0.02303 0.03288 0.0
Zn5 Zn 0.04574 0.06537 0.98187 0.0
O6 O 0.01784 0.94969 0.94697 0.0
O7 O 0.04504 0.03542 0.94115 0.0
O8 O 0.14781 0.93457 0.02444 0.0
O9 O 0.0892 0.88901 0.99553 0.0
O10 O 0.95399 0.89881 1.00274 0.0
O11 O 0.91307 0.95931 0.03139 0.0
O12 O 0.92597 0.09068 0.01904 0.0
O13 O 0.15256 0.06879 0.02834 0.0
O14 O 0.98164 0.11813 0.98419 0.0
O15 O 0.11638 0.10965 0.99052 0.0
C16 C 0.03553 0.0184 0.08835 0.0
C17 C 0.03009 0.98916 0.93079 0.0
C18 C 0.91385 0.91254 0.01918 0.0
C19 C 0.13566 0.89257 0.00917 0.0
C20 C 0.93767 0.12393 0.99926 0.0
C21 C 0.15349 0.10705 0.01028 0.0
O22 O 0.99066 0.03057 0.07467 0.0
O23 O 0.57586 0.50013 0.58198 0.0
Zn24 Zn 0.59813 0.49944 0.54045 0.0
O25 O 0.53197 0.50576 0.51575 0.0
Zn26 Zn 0.5231 0.43766 0.49412 0.0
Zn27 Zn 0.46491 0.51824 0.53907 0.0
Zn28 Zn 0.54218 0.56637 0.48933 0.0
O29 O 0.51461 0.45314 0.45238 0.0
O30 O 0.54373 0.53875 0.448 0.0
O31 O 0.64402 0.43185 0.53116 0.0
O32 O 0.59202 0.39029 0.49782 0.0
O33 O 0.45562 0.3945 0.5073 0.0
O34 O 0.41303 0.45304 0.53648 0.0
O35 O 0.42086 0.58421 0.52558 0.0
O36 O 0.64872 0.56418 0.53541 0.0
O37 O 0.47519 0.61678 0.49146 0.0
O38 O 0.61221 0.61131 0.4997 0.0
C39 C 0.53096 0.51399 0.59491 0.0
C40 C 0.5274 0.49348 0.4369 0.0
C41 C 0.41509 0.40677 0.52382 0.0
C42 C 0.63632 0.39274 0.51331 0.0
C43 C 0.43051 0.61907 0.50629 0.0
C44 C 0.64993 0.6049 0.51892 0.0
O45 O 0.48618 0.52574 0.58108 0.0
C46 C 0.93864 0.08197 0.45339 0.0
C47 C 0.88184 0.06558 0.45223 0.0
C48 C 0.85161 0.15613 0.46776 0.0
C49 C 0.83894 0.1022 0.45927 0.0
C50 C 0.90848 0.172 0.4698 0.0
C51 C 0.95144 0.13532 0.46278 0.0
U52 U 0.02448 1.01045 0.39542 0.0
O53 O 0.11525 0.99445 0.392 0.0
O54 O 0.05542 0.92616 0.39162 0.0
C55 C 0.10862 0.94124 0.39246 0.0
C56 C 0.98441 0.04413 0.44467 0.0
C57 C 0.14709 0.91023 0.41139 0.0
C58 C 0.23833 0.90138 0.43511 0.0
C59 C 0.19859 0.93301 0.42073 0.0
C60 C 0.17549 0.82378 0.43206 0.0
C61 C 0.22782 0.84605 0.44042 0.0
C62 C 0.13574 0.8554 0.4176 0.0
C63 C 0.98267 0.04529 0.3176 0.0
C64 C 0.01551 1.00089 0.27406 0.0
C65 C 0.95666 0.0811 0.27134 0.0
C66 C 0.95473 0.084 0.30109 0.0
C67 C 0.98661 0.03926 0.25739 0.0
C68 C 0.01349 1.00384 0.30397 0.0
C69 C 0.97781 0.04901 0.34886 0.0
O70 O 0.96876 0.99823 0.43204 0.0
O71 O 0.02832 0.06657 0.43256 0.0
O72 O 0.01952 0.07343 0.36256 0.0
O73 O 0.95961 1.00519 0.36168 0.0
H74 H 0.87026 0.02457 0.44558 0.0
H75 H 0.7957 0.08819 0.45803 0.0
H76 H 0.91986 0.21325 0.47609 0.0
H77 H 0.99477 0.14906 0.46427 0.0
H78 H 0.27795 0.92 0.44153 0.0
H79 H 0.20912 0.9749 0.41613 0.0
H80 H 0.16625 0.78116 0.43548 0.0
H81 H 0.09692 0.83624 0.41036 0.0
H82 H 0.03866 0.96797 0.26401 0.0
H83 H 0.93481 0.11188 0.25924 0.0
H84 H 0.93099 0.11646 0.31125 0.0
H85 H 0.03542 0.9736 0.31642 0.0
C86 C 0.925 0.94689 0.56427 0.0
C87 C 0.90466 0.90833 0.58341 0.0
C88 C 0.84893 0.86498 0.54539 0.0
C89 C 0.86706 0.86776 0.57407 0.0
C90 C 0.86915 0.90411 0.52634 0.0
C91 C 0.90693 0.94466 0.53572 0.0
U92 U 1.00323 0.02036 0.62451 0.0
O93 O 0.09039 0.05031 0.62779 0.0
O94 O 0.02 0.10764 0.6323 0.0
C95 C 0.07485 0.10138 0.63106 0.0
C96 C 0.96467 0.98954 0.57407 0.0
C97 C 0.10591 0.14222 0.61472 0.0
C98 C 0.15589 0.17165 0.57253 0.0
C99 C 0.12365 0.13249 0.58659 0.0
C100 C 0.15195 0.23057 0.61443 0.0
C101 C 0.17058 0.22112 0.58638 0.0
C102 C 0.11999 0.19158 0.62838 0.0
C103 C 0.9806 0.97755 0.70112 0.0
C104 C 0.03395 0.0193 0.74026 0.0
C105 C 0.95683 0.95786 0.75018 0.0
C106 C 0.94711 0.95055 0.72089 0.0
C107 C 1.00036 0.99237 0.76027 0.0
C108 C 0.02408 0.01202 0.71096 0.0
C109 C 0.96897 0.97055 0.6704 0.0
O110 O 0.94229 0.02929 0.58924 0.0
O111 O 0.01227 0.97178 0.58497 0.0
O112 O 0.01152 0.95346 0.65494 0.0
O113 O 0.94115 1.01067 0.65864 0.0
H114 H 0.91783 0.90969 0.60561 0.0
H115 H 0.85164 0.83893 0.58943 0.0
H116 H 0.8564 0.90293 0.5041 0.0
H117 H 0.92215 0.9742 0.52065 0.0
H118 H 0.16922 0.16329 0.55087 0.0
H119 H 0.11309 0.09457 0.57565 0.0
H120 H 0.16329 0.26763 0.62597 0.0
H121 H 0.107 0.19966 0.65015 0.0
H122 H 0.06819 0.04568 0.74723 0.0
H123 H 0.92955 0.93718 0.76493 0.0
H124 H 0.91308 0.92411 0.71366 0.0
H125 H 0.05029 0.03337 0.69595 0.0
C126 C 0.46091 0.60121 0.96131 0.0
C127 C 0.46786 0.65458 0.9514 0.0
C128 C 0.38881 0.68574 0.9801 0.0
C129 C 0.43234 0.69644 0.96082 0.0
C130 C 0.38226 0.63247 0.99017 0.0
C131 C 0.41813 0.59075 0.98098 0.0
U132 U 0.52411 0.51427 0.90125 0.0
O133 O 0.60911 0.48089 0.89569 0.0
O134 O 0.53673 0.42542 0.89822 0.0
C135 C 0.59188 0.43012 0.89769 0.0
C136 C 0.49699 0.55588 0.95121 0.0
C137 C 0.62412 0.39448 0.91716 0.0
C138 C 0.6448 0.30312 0.93384 0.0
C139 C 0.61173 0.33852 0.9177 0.0
C140 C 0.70289 0.37907 0.9497 0.0
C141 C 0.69142 0.32282 0.94961 0.0
C142 C 0.6696 0.41454 0.9337 0.0
C143 C 0.48304 0.55156 0.82397 0.0
C144 C 0.5146 0.50436 0.78099 0.0
C145 C 0.45231 0.58194 0.77732 0.0
C146 C 0.4522 0.58747 0.80703 0.0
C147 C 0.48332 0.54023 0.76387 0.0
C148 C 0.5144 0.50994 0.81083 0.0
C149 C 0.48151 0.55865 0.85519 0.0
O150 O 0.47022 0.51434 0.93928 0.0
O151 O 0.54308 0.56929 0.9376 0.0
O152 O 0.52849 0.57544 0.86751 0.0
O153 O 0.45607 0.51995 0.86926 0.0
H154 H 0.50028 0.66399 0.93613 0.0
H155 H 0.43804 0.73693 0.95245 0.0
H156 H 0.34941 0.62309 1.00522 0.0
H157 H 0.4121 0.55004 0.98905 0.0
H158 H 0.63519 0.25996 0.93303 0.0
H159 H 0.57727 0.32186 0.90499 0.0
H160 H 0.73815 0.39561 0.96186 0.0
H161 H 0.68037 0.45743 0.93384 0.0
H162 H 0.53856 0.47154 0.77135 0.0
H163 H 0.42855 0.61084 0.76485 0.0
H164 H 0.42797 0.61999 0.81681 0.0
H165 H 0.53845 0.48179 0.82363 0.0
C166 C 0.44598 0.42772 0.07218 0.0
C167 C 0.41966 0.39887 0.09397 0.0
C168 C 0.37798 0.33576 0.05893 0.0
C169 C 0.38594 0.35349 0.08743 0.0
C170 C 0.40441 0.36503 0.03715 0.0
C171 C 0.43811 0.41059 0.04374 0.0
U172 U 0.51837 0.51747 0.12779 0.0
O173 O 0.60231 0.55538 0.12927 0.0
O174 O 0.5268 0.6067 0.13197 0.0
C175 C 0.58206 0.6051 0.13104 0.0
C176 C 0.48178 0.47531 0.07918 0.0
C177 C 0.6101 0.64697 0.11402 0.0
C178 C 0.65693 0.67765 0.07115 0.0
C179 C 0.62636 0.63774 0.08563 0.0
C180 C 0.65419 0.73627 0.11318 0.0
C181 C 0.67162 0.7273 0.08488 0.0
C182 C 0.62375 0.69663 0.1275 0.0
C183 C 0.50141 0.48108 0.20643 0.0
C184 C 0.5062 0.54165 0.24805 0.0
C185 C 0.52345 0.44515 0.25323 0.0
C186 C 0.51471 0.4371 0.22393 0.0
C187 C 0.51863 0.49742 0.26578 0.0
C188 C 0.49787 0.5336 0.21866 0.0
C189 C 0.49063 0.47094 0.17571 0.0
O190 O 0.45629 0.5155 0.09265 0.0
O191 O 0.53131 0.46391 0.09027 0.0
O192 O 0.53446 0.45597 0.16061 0.0
O193 O 0.45844 0.50643 0.16269 0.0
H194 H 0.42515 0.41155 0.11607 0.0
H195 H 0.36558 0.33265 0.10473 0.0
H196 H 0.39977 0.35228 0.01503 0.0
H197 H 0.45823 0.43231 0.02664 0.0
H198 H 0.66921 0.66955 0.04931 0.0
H199 H 0.61619 0.59956 0.07485 0.0
H200 H 0.66555 0.77335 0.12469 0.0
H201 H 0.61197 0.70432 0.14949 0.0
H202 H 0.50163 0.58237 0.25693 0.0
H203 H 0.53412 0.41028 0.26604 0.0
H204 H 0.51806 0.39632 0.21492 0.0
H205 H 0.48801 0.56837 0.20561 0.0
H206 H 0.23575 0.11747 0.05107 0.0
H207 H 0.16654 0.19744 0.97731 0.0
H208 H 0.23077 0.2741 0.98524 0.0
H209 H 0.30319 0.32089 0.01462 0.0
H210 H 0.37263 0.24018 0.08806 0.0
H211 H 0.31127 0.16197 0.07888 0.0
C212 C 0.23491 0.1514 0.03653 0.0
C213 C 0.19601 0.15147 0.01366 0.0
C214 C 0.27167 0.1957 0.04134 0.0
C215 C 0.19583 0.19603 0.99512 0.0
C216 C 0.23252 0.24009 0.99968 0.0
C217 C 0.30552 0.28592 0.02841 0.0
C218 C 0.34231 0.28692 0.05218 0.0
C219 C 0.27016 0.24071 0.02293 0.0
C220 C 0.34406 0.24125 0.06995 0.0
C221 C 0.30919 0.19622 0.06461 0.0
H222 H 0.25037 0.89681 0.01437 0.0
H223 H 0.11221 0.78661 0.99643 0.0
H224 H 0.17814 0.71256 0.98733 0.0
H225 H 0.27487 0.67994 0.98191 0.0
H226 H 0.4138 0.79015 0.99746 0.0
H227 H 0.34801 0.86326 0.00984 0.0
C228 C 0.23479 0.85641 0.00882 0.0
C229 C 0.17643 0.84729 1.00612 0.0
C230 C 0.27311 0.81408 1.0029 0.0
C231 C 0.1569 0.79484 0.99855 0.0
C232 C 0.19457 0.75241 0.99331 0.0
C233 C 0.29076 0.71978 0.98837 0.0
C234 C 0.3491 0.72956 0.98882 0.0
C235 C 0.25273 0.7617 0.99505 0.0
C236 C 0.36902 0.7817 0.99674 0.0
C237 C 0.33143 0.82345 1.00392 0.0
H238 H 0.81403 0.93041 0.04609 0.0
H239 H 0.91394 0.80301 1.0074 0.0
H240 H 0.84597 0.73483 0.02253 0.0
H241 H 0.76214 0.71053 0.05012 0.0
H242 H 0.66097 0.83831 0.08758 0.0
H243 H 0.72554 0.90683 0.06966 0.0
C244 C 0.82077 0.88779 0.04074 0.0
C245 C 0.86944 0.872 0.02584 0.0
C246 C 0.78149 0.84863 0.04952 0.0
C247 C 0.87701 0.81653 0.01888 0.0
C248 C 0.8382 0.77736 0.02761 0.0
C249 C 0.75349 0.75337 0.05389 0.0
C250 C 0.70705 0.76896 0.07061 0.0
C251 C 0.79077 0.79282 0.04338 0.0
C252 C 0.69701 0.82487 0.07538 0.0
C253 C 0.73382 0.86422 0.06502 0.0
H254 H 0.82419 0.13084 0.00875 0.0
H255 H 0.96439 0.21871 0.9736 0.0
H256 H 0.90108 0.28961 0.95705 0.0
H257 H 0.8056 0.32337 0.94917 0.0
H258 H 0.66403 0.23504 0.98236 0.0
H259 H 0.7279 0.16771 1.00288 0.0
C260 C 0.84087 0.16593 0.99785 0.0
C261 C 0.89897 0.16929 0.99236 0.0
C262 C 0.80389 0.20626 0.98773 0.0
C263 C 0.91985 0.21483 0.97795 0.0
C264 C 0.88366 0.25547 0.96844 0.0
C265 C 0.7887 0.28997 0.96135 0.0
C266 C 0.7301 0.28432 0.96421 0.0
C267 C 0.82555 0.25111 0.97271 0.0
C268 C 0.70896 0.2401 0.97961 0.0
C269 C 0.74548 0.20166 0.99142 0.0
H270 H 0.6544 0.70911 0.49875 0.0
H271 H 0.74648 0.5944 0.55004 0.0
H272 H 0.81666 0.6638 0.56172 0.0
H273 H 0.85027 0.75783 0.55924 0.0
H274 H 0.75785 0.8742 0.50937 0.0
H275 H 0.69022 0.80337 0.49501 0.0
C276 C 0.69013 0.69914 0.51222 0.0
C277 C 0.6948 0.64651 0.52357 0.0
C278 C 0.73034 0.73965 0.51924 0.0
C279 C 0.7414 0.63453 0.54111 0.0
C280 C 0.78169 0.67425 0.54786 0.0
C281 C 0.81517 0.76785 0.54534 0.0
C282 C 0.80903 0.82143 0.53559 0.0
C283 C 0.77615 0.72712 0.53743 0.0
C284 C 0.76391 0.83326 0.51707 0.0
C285 C 0.725 0.7928 0.50896 0.0
H286 H 0.63934 0.31089 0.47339 0.0
H287 H 0.73333 0.37956 0.54464 0.0
H288 H 0.80752 0.31219 0.53722 0.0
H289 H 0.84648 0.23434 0.51006 0.0
H290 H 0.75311 0.16809 0.43801 0.0
H291 H 0.67787 0.23349 0.44647 0.0
C292 C 0.67586 0.31109 0.48745 0.0
C293 C 0.68051 0.35043 0.50957 0.0
C294 C 0.71863 0.27251 0.48294 0.0
C295 C 0.72845 0.34992 0.52742 0.0
C296 C 0.77102 0.31137 0.52318 0.0
C297 C 0.80984 0.2344 0.49609 0.0
C298 C 0.80558 0.196 0.47348 0.0
C299 C 0.76674 0.27267 0.50089 0.0
C300 C 0.75731 0.1964 0.45586 0.0
C301 C 0.71431 0.23411 0.46056 0.0
H302 H 0.31314 0.42394 0.5482 0.0
H303 H 0.41823 0.29675 0.51318 0.0
H304 H 0.34989 0.22807 0.5276 0.0
H305 H 0.26387 0.20375 0.55368 0.0
H306 H 0.15843 0.33172 0.58768 0.0
H307 H 0.22341 0.40028 0.57018 0.0
C308 C 0.321 0.38123 0.54352 0.0
C309 C 0.3711 0.36558 0.52989 0.0
C310 C 0.28161 0.34196 0.55189 0.0
C311 C 0.38012 0.31004 0.52369 0.0
C312 C 0.34111 0.27067 0.53202 0.0
C313 C 0.25452 0.24663 0.55678 0.0
C314 C 0.20667 0.26242 0.57238 0.0
C315 C 0.29216 0.28608 0.5466 0.0
C316 C 0.19553 0.31829 0.57631 0.0
C317 C 0.23257 0.35761 0.56622 0.0
H318 H 0.4419 0.706 0.47144 0.0
H319 H 0.32198 0.62654 0.52566 0.0
H320 H 0.24919 0.69076 0.51098 0.0
H321 H 0.21827 0.767 0.48082 0.0
H322 H 0.33901 0.84518 0.42657 0.0
H323 H 0.4126 0.78439 0.44343 0.0
C324 C 0.39997 0.7028 0.48024 0.0
C325 C 0.38755 0.66109 0.49952 0.0
C326 C 0.35824 0.73972 0.47165 0.0
C327 C 0.33293 0.65811 0.5108 0.0
C328 C 0.29113 0.69475 0.50233 0.0
C329 C 0.26071 0.77074 0.47273 0.0
C330 C 0.27292 0.81075 0.45244 0.0
C331 C 0.30307 0.73527 0.48243 0.0
C332 C 0.3284 0.81538 0.44246 0.0
C333 C 0.37054 0.78031 0.45194 0.0
H334 H 0.94727 0.03982 0.12369 0.0
H335 H 0.12431 1.00034 0.12468 0.0
H336 H 0.12467 1.00216 0.17674 0.0
H337 H 0.07508 0.01611 0.22224 0.0
H338 H 0.89785 0.05429 0.22096 0.0
H339 H 0.8975 0.05213 0.16893 0.0
C340 C 0.98602 0.03169 0.13522 0.0
C341 C 0.03567 0.0201 0.12011 0.0
C342 C 0.98602 0.03264 0.16524 0.0
C343 C 0.08537 1.00945 0.13561 0.0
C344 C 0.08568 1.01043 0.16546 0.0
C345 C 0.03627 0.02342 0.21058 0.0
C346 C 0.98667 0.03568 0.22559 0.0
C347 C 0.03625 0.02199 0.18053 0.0
C348 C 0.93689 0.04563 0.21004 0.0
C349 C 0.93654 0.04414 0.18024 0.0
H350 H 0.04135 0.06523 0.88912 0.0
H351 H 1.00851 0.89413 0.90157 0.0
H352 H 0.99784 0.88007 0.85027 0.0
H353 H 0.99639 0.91606 0.80183 0.0
H354 H 0.02644 0.08736 0.78908 0.0
H355 H 0.04053 0.10122 0.84037 0.0
C356 C 0.0321 0.02481 0.88064 0.0
C357 C 0.02565 0.98092 0.89935 0.0
C358 C 0.02562 0.01689 0.85098 0.0
C359 C 0.01355 0.92884 0.88783 0.0
C360 C 1.00742 0.92064 0.85842 0.0
C361 C 1.00556 0.95655 0.81025 0.0
C362 C 1.01017 1.00056 0.79152 0.0
C363 C 0.01296 0.9644 0.83981 0.0
C364 C 0.02325 0.05255 0.80287 0.0
C365 C 0.03096 0.06062 0.83227 0.0
H366 H 0.44201 0.53316 0.63023 0.0
H367 H 0.62033 0.49939 0.63123 0.0
H368 H 0.62111 0.5031 0.68326 0.0
H369 H 0.57175 0.5178 0.72867 0.0
H370 H 0.39326 0.55013 0.7276 0.0
H371 H 0.39225 0.54545 0.67557 0.0
C372 C 0.4811 0.52664 0.64177 0.0
C373 C 0.53103 0.51619 0.62666 0.0
C374 C 0.48135 0.52869 0.67179 0.0
C375 C 0.58118 0.50758 0.64216 0.0
C376 C 0.58174 0.50967 0.67199 0.0
C377 C 0.5325 0.52319 0.71708 0.0
C378 C 0.48275 0.53463 0.73213 0.0
C379 C 0.53211 0.52031 0.68705 0.0
C380 C 0.4324 0.54215 0.71664 0.0
C381 C 0.43169 0.53922 0.68684 0.0
H382 H 0.56338 0.56312 0.39557 0.0
H383 H 0.47887 0.4091 0.40721 0.0
H384 H 0.46854 0.39737 0.35583 0.0
H385 H 0.48213 0.43059 0.3076 0.0
H386 H 0.56967 0.58249 0.295 0.0
H387 H 0.57913 0.59555 0.34662 0.0
C388 C 0.54271 0.52701 0.38687 0.0
C389 C 0.52202 0.48713 0.4054 0.0
C390 C 0.5371 0.52014 0.35707 0.0
C391 C 0.49548 0.44049 0.39362 0.0
C392 C 0.48939 0.43368 0.36416 0.0
C393 C 0.50404 0.46624 0.31603 0.0
C394 C 0.52523 0.50536 0.29727 0.0
C395 C 0.51006 0.47314 0.34569 0.0
C396 C 0.55228 0.55193 0.30883 0.0
C397 C 0.55804 0.5593 0.3384 0.0
loop_
_geom_bond_atom_site_label_1
_geom_bond_atom_site_label_2
_geom_bond_distance
_geom_bond_site_symmetry_2
_ccdc_geom_bond_type
O0 Zn1 1.953 . S
O0 C16 1.225 1_565 S
Zn1 O0 1.953 . S
Zn1 O2 1.949 1_565 S
Zn1 O8 1.919 . S
Zn1 O13 1.924 1_565 S
O2 Zn1 1.949 1_545 S
O2 Zn3 1.923 1_444 S
O2 Zn4 1.950 1_455 S
O2 Zn5 1.945 1_554 S
Zn3 O2 1.923 1_666 S
Zn3 O6 1.933 . S
Zn3 O9 1.941 1_655 S
Zn3 O10 1.965 . S
Zn4 O2 1.950 1_655 S
Zn4 O11 1.938 1_545 S
Zn4 O12 1.906 . S
Zn4 O22 1.953 . S
Zn5 O2 1.945 1_556 S
Zn5 O7 1.932 . S
Zn5 O14 1.977 1_455 S
Zn5 O15 1.910 . S
O6 Zn3 1.933 . S
O6 C17 1.226 1_665 S
O7 Zn5 1.932 . S
O7 C17 1.307 . S
O8 Zn1 1.919 . S
O8 C19 1.253 1_554 S
O9 Zn3 1.941 1_455 S
O9 C19 1.283 . S
O10 Zn3 1.965 . S
O10 C18 1.303 1_556 S
O11 Zn4 1.938 1_565 S
O11 C18 1.247 . S
O12 Zn4 1.906 . S
O12 C20 1.304 1_554 S
O13 Zn1 1.924 1_545 S
O13 C21 1.311 . S
O14 Zn5 1.977 1_655 S
O14 C20 1.272 . S
O15 Zn5 1.910 . S
O15 C21 1.231 1_556 S
C16 O0 1.225 1_545 S
C16 O22 1.298 1_455 S
C17 O6 1.226 1_445 S
C17 O7 1.307 . S
C18 O10 1.303 1_554 S
C18 O11 1.247 . S
C19 O8 1.253 1_556 S
C19 O9 1.283 . S
C20 O12 1.304 1_556 S
C20 O14 1.272 . S
C21 O13 1.311 . S
C21 O15 1.231 1_554 S
O22 Zn4 1.953 . S
O22 C16 1.298 1_655 S
O23 Zn24 1.953 . S
O23 C39 1.225 . S
Zn24 O23 1.953 . S
Zn24 O25 1.949 . S
Zn24 O31 1.919 . S
Zn24 O36 1.924 . S
O25 Zn24 1.949 . S
O25 Zn26 1.923 . S
O25 Zn27 1.950 . S
O25 Zn28 1.945 . S
Zn26 O25 1.923 . S
Zn26 O29 1.933 . S
Zn26 O32 1.941 . S
Zn26 O33 1.965 . S
Zn27 O25 1.950 . S
Zn27 O34 1.938 . S
Zn27 O35 1.906 . S
Zn27 O45 1.953 . S
Zn28 O25 1.945 . S
Zn28 O30 1.932 . S
Zn28 O37 1.977 . S
Zn28 O38 1.910 . S
O29 Zn26 1.933 . S
O29 C40 1.226 . S
O30 Zn28 1.932 . S
O30 C40 1.307 . S
O31 Zn24 1.919 . S
O31 C42 1.253 . S
O32 Zn26 1.941 . S
O32 C42 1.283 . S
O33 Zn26 1.965 . S
O33 C41 1.303 . S
O34 Zn27 1.938 . S
O34 C41 1.247 . S
O35 Zn27 1.906 . S
O35 C43 1.304 . S
O36 Zn24 1.924 . S
O36 C44 1.311 . S
O37 Zn28 1.977 . S
O37 C43 1.272 . S
O38 Zn28 1.910 . S
O38 C44 1.231 . S
C39 O23 1.225 . S
C39 O45 1.298 . S
C40 O29 1.226 . S
C40 O30 1.307 . S
C41 O33 1.303 . S
C41 O34 1.247 . S
C42 O31 1.253 . S
C42 O32 1.283 . S
C43 O35 1.304 . S
C43 O37 1.272 . S
C44 O36 1.311 . S
C44 O38 1.231 . S
O45 Zn27 1.953 . S
O45 C39 1.298 . S
C46 C47 1.264 . S
C46 C51 1.479 . S
C46 C56 1.465 . S
C47 C46 1.264 . S
C47 C49 1.339 . S
C47 H74 0.931 . S
C48 C49 1.395 . S
C48 C50 1.320 . S
C49 C47 1.339 . S
C49 C48 1.395 . S
C49 H75 0.929 . S
C50 C48 1.320 . S
C50 C51 1.405 . S
C50 H76 0.930 . S
C51 C46 1.479 . S
C51 C50 1.405 . S
C51 H77 0.931 . S
U52 O53 2.454 1_545 S
U52 O54 2.458 1_545 S
U52 C55 2.984 1_545 S
U52 C56 2.847 1_455 S
U52 C69 2.882 . S
U52 O70 2.441 1_455 S
U52 O71 2.420 1_455 S
U52 O72 2.455 1_545 S
U52 O73 2.449 . S
O53 U52 2.454 1_565 S
O53 C55 1.353 . S
O54 U52 2.458 1_565 S
O54 C55 1.286 . S
C55 U52 2.984 1_565 S
C55 O53 1.353 . S
C55 O54 1.286 . S
C55 C57 1.363 . S
C56 C46 1.465 . S
C56 U52 2.847 1_655 S
C56 O70 1.249 . S
C56 O71 1.202 . S
C57 C55 1.363 . S
C57 C59 1.408 . S
C57 C62 1.342 . S
C58 C59 1.310 . S
C58 C61 1.461 . S
C58 H78 0.932 . S
C59 C57 1.408 . S
C59 C58 1.310 . S
C59 H79 0.930 . S
C60 C61 1.474 . S
C60 C62 1.285 . S
C60 H80 0.929 . S
C61 C58 1.461 . S
C61 C60 1.474 . S
C62 C57 1.342 . S
C62 C60 1.285 . S
C62 H81 0.930 . S
C63 C66 1.424 1_455 S
C63 C68 1.245 1_545 S
C63 C69 1.428 . S
C64 C67 1.260 1_565 S
C64 C68 1.477 . S
C64 H82 0.932 . S
C65 C66 1.384 . S
C65 C67 1.479 1_655 S
C65 H83 0.929 . S
C66 C63 1.424 1_655 S
C66 C65 1.384 . S
C66 H84 0.928 . S
C67 C64 1.260 1_545 S
C67 C65 1.479 1_455 S
C68 C63 1.245 1_565 S
C68 C64 1.477 . S
C68 H85 0.932 . S
C69 U52 2.882 . S
C69 C63 1.428 . S
C69 O72 1.301 1_545 S
C69 O73 1.282 . S
O70 U52 2.441 1_655 S
O70 C56 1.249 . S
O71 U52 2.420 1_655 S
O71 C56 1.202 . S
O72 U52 2.455 1_565 S
O72 C69 1.301 1_565 S
O73 U52 2.449 . S
O73 C69 1.282 . S
H74 C47 0.931 . S
H75 C49 0.929 . S
H76 C50 0.930 . S
H77 C51 0.931 . S
H78 C58 0.932 . S
H79 C59 0.930 . S
H80 C60 0.929 . S
H81 C62 0.930 . S
H82 C64 0.932 . S
H83 C65 0.929 . S
H84 C66 0.928 . S
H85 C68 0.932 . S
C86 C87 1.264 . S
C86 C91 1.479 . S
C86 C96 1.465 . S
C87 C86 1.264 . S
C87 C89 1.339 . S
C87 H114 0.931 . S
C88 C89 1.395 . S
C88 C90 1.320 . S
C89 C87 1.339 . S
C89 C88 1.395 . S
C89 H115 0.929 . S
C90 C88 1.320 . S
C90 C91 1.405 . S
C90 H116 0.930 . S
C91 C86 1.479 . S
C91 C90 1.405 . S
C91 H117 0.931 . S
U92 O93 2.454 1_565 S
U92 O94 2.458 1_565 S
U92 C95 2.984 1_565 S
U92 C96 2.847 1_455 S
U92 C109 2.882 . S
U92 O110 2.441 1_455 S
U92 O111 2.420 1_455 S
U92 O112 2.455 1_565 S
U92 O113 2.449 . S
O93 U92 2.454 1_545 S
O93 C95 1.353 . S
O94 U92 2.458 1_545 S
O94 C95 1.286 . S
C95 U92 2.984 1_545 S
C95 O93 1.353 . S
C95 O94 1.286 . S
C95 C97 1.363 . S
C96 C86 1.465 . S
C96 U92 2.847 1_655 S
C96 O110 1.249 . S
C96 O111 1.202 . S
C97 C95 1.363 . S
C97 C99 1.408 . S
C97 C102 1.342 . S
C98 C99 1.310 . S
C98 C101 1.461 . S
C98 H118 0.932 . S
C99 C97 1.408 . S
C99 C98 1.310 . S
C99 H119 0.930 . S
C100 C101 1.474 . S
C100 C102 1.285 . S
C100 H120 0.929 . S
C101 C98 1.461 . S
C101 C100 1.474 . S
C102 C97 1.342 . S
C102 C100 1.285 . S
C102 H121 0.930 . S
C103 C106 1.424 1_455 S
C103 C108 1.245 1_565 S
C103 C109 1.428 . S
C104 C107 1.260 1_545 S
C104 C108 1.477 . S
C104 H122 0.932 . S
C105 C106 1.384 . S
C105 C107 1.479 1_655 S
C105 H123 0.929 . S
C106 C103 1.424 1_655 S
C106 C105 1.384 . S
C106 H124 0.928 . S
C107 C104 1.260 1_565 S
C107 C105 1.479 1_455 S
C108 C103 1.245 1_545 S
C108 C104 1.477 . S
C108 H125 0.932 . S
C109 U92 2.882 . S
C109 C103 1.428 . S
C109 O112 1.301 1_565 S
C109 O113 1.282 . S
O110 U92 2.441 1_655 S
O110 C96 1.249 . S
O111 U92 2.420 1_655 S
O111 C96 1.202 . S
O112 U92 2.455 1_545 S
O112 C109 1.301 1_545 S
O113 U92 2.449 . S
O113 C109 1.282 . S
H114 C87 0.931 . S
H115 C89 0.929 . S
H116 C90 0.930 . S
H117 C91 0.931 . S
H118 C98 0.932 . S
H119 C99 0.930 . S
H120 C100 0.929 . S
H121 C102 0.930 . S
H122 C104 0.932 . S
H123 C105 0.929 . S
H124 C106 0.928 . S
H125 C108 0.932 . S
C126 C127 1.264 . S
C126 C131 1.479 . S
C126 C136 1.465 . S
C127 C126 1.264 . S
C127 C129 1.339 . S
C127 H154 0.931 . S
C128 C129 1.395 . S
C128 C130 1.320 . S
C129 C127 1.339 . S
C129 C128 1.395 . S
C129 H155 0.929 . S
C130 C128 1.320 . S
C130 C131 1.405 . S
C130 H156 0.930 . S
C131 C126 1.479 . S
C131 C130 1.405 . S
C131 H157 0.931 . S
U132 O133 2.454 . S
U132 O134 2.458 . S
U132 C135 2.984 . S
U132 C136 2.847 . S
U132 C149 2.882 . S
U132 O150 2.441 . S
U132 O151 2.420 . S
U132 O152 2.455 . S
U132 O153 2.449 . S
O133 U132 2.454 . S
O133 C135 1.353 . S
O134 U132 2.458 . S
O134 C135 1.286 . S
C135 U132 2.984 . S
C135 O133 1.353 . S
C135 O134 1.286 . S
C135 C137 1.363 . S
C136 C126 1.465 . S
C136 U132 2.847 . S
C136 O150 1.249 . S
C136 O151 1.202 . S
C137 C135 1.363 . S
C137 C139 1.408 . S
C137 C142 1.342 . S
C138 C139 1.310 . S
C138 C141 1.461 . S
C138 H158 0.957 . S
C139 C137 1.408 . S
C139 C138 1.310 . S
C139 H159 0.930 . S
C140 C141 1.474 . S
C140 C142 1.285 . S
C140 H160 0.929 . S
C141 C138 1.461 . S
C141 C140 1.474 . S
C142 C137 1.342 . S
C142 C140 1.285 . S
C142 H161 0.930 . S
C143 C146 1.424 . S
C143 C148 1.245 . S
C143 C149 1.428 . S
C144 C147 1.260 . S
C144 C148 1.477 . S
C144 H162 0.932 . S
C145 C146 1.384 . S
C145 C147 1.479 . S
C145 H163 0.929 . S
C146 C143 1.424 . S
C146 C145 1.384 . S
C146 H164 0.928 . S
C147 C144 1.260 . S
C147 C145 1.479 . S
C148 C143 1.245 . S
C148 C144 1.477 . S
C148 H165 0.932 . S
C149 U132 2.882 . S
C149 C143 1.428 . S
C149 O152 1.301 . S
C149 O153 1.282 . S
O150 U132 2.441 . S
O150 C136 1.249 . S
O151 U132 2.420 . S
O151 C136 1.202 . S
O152 U132 2.455 . S
O152 C149 1.301 . S
O153 U132 2.449 . S
O153 C149 1.282 . S
H154 C127 0.931 . S
H155 C129 0.929 . S
H156 C130 0.930 . S
H157 C131 0.931 . S
H158 C138 0.957 . S
H159 C139 0.930 . S
H160 C140 0.929 . S
H161 C142 0.930 . S
H162 C144 0.932 . S
H163 C145 0.929 . S
H164 C146 0.928 . S
H165 C148 0.932 . S
C166 C167 1.264 . S
C166 C171 1.479 . S
C166 C176 1.465 . S
C167 C166 1.264 . S
C167 C169 1.339 . S
C167 H194 0.931 . S
C168 C169 1.395 . S
C168 C170 1.320 . S
C169 C167 1.339 . S
C169 C168 1.395 . S
C169 H195 0.929 . S
C170 C168 1.320 . S
C170 C171 1.405 . S
C170 H196 0.930 . S
C171 C166 1.479 . S
C171 C170 1.405 . S
C171 H197 0.931 . S
U172 O173 2.454 . S
U172 O174 2.458 . S
U172 C175 2.984 . S
U172 C176 2.847 . S
U172 C189 2.882 . S
U172 O190 2.441 . S
U172 O191 2.420 . S
U172 O192 2.455 . S
U172 O193 2.449 . S
O173 U172 2.454 . S
O173 C175 1.353 . S
O174 U172 2.458 . S
O174 C175 1.286 . S
C175 U172 2.984 . S
C175 O173 1.353 . S
C175 O174 1.286 . S
C175 C177 1.363 . S
C176 C166 1.465 . S
C176 U172 2.847 . S
C176 O190 1.249 . S
C176 O191 1.202 . S
C177 C175 1.363 . S
C177 C179 1.408 . S
C177 C182 1.342 . S
C178 C179 1.310 . S
C178 C181 1.461 . S
C178 H198 0.932 . S
C179 C177 1.408 . S
C179 C178 1.310 . S
C179 H199 0.930 . S
C180 C181 1.474 . S
C180 C182 1.285 . S
C180 H200 0.929 . S
C181 C178 1.461 . S
C181 C180 1.474 . S
C182 C177 1.342 . S
C182 C180 1.285 . S
C182 H201 0.930 . S
C183 C186 1.424 . S
C183 C188 1.245 . S
C183 C189 1.428 . S
C184 C187 1.260 . S
C184 C188 1.477 . S
C184 H202 0.932 . S
C185 C186 1.384 . S
C185 C187 1.479 . S
C185 H203 0.929 . S
C186 C183 1.424 . S
C186 C185 1.384 . S
C186 H204 0.928 . S
C187 C184 1.260 . S
C187 C185 1.479 . S
C188 C183 1.245 . S
C188 C184 1.477 . S
C188 H205 0.932 . S
C189 U172 2.882 . S
C189 C183 1.428 . S
C189 O192 1.301 . S
C189 O193 1.282 . S
O190 U172 2.441 . S
O190 C176 1.249 . S
O191 U172 2.420 . S
O191 C176 1.202 . S
O192 U172 2.455 . S
O192 C189 1.301 . S
O193 U172 2.449 . S
O193 C189 1.282 . S
H194 C167 0.931 . S
H195 C169 0.929 . S
H196 C170 0.930 . S
H197 C171 0.931 . S
H198 C178 0.932 . S
H199 C179 0.930 . S
H200 C180 0.929 . S
H201 C182 0.930 . S
H202 C184 0.932 . S
H203 C185 0.929 . S
H204 C186 0.928 . S
H205 C188 0.932 . S
H206 C212 0.930 . S
H207 C215 0.930 . S
H208 C216 0.930 . S
H209 C217 0.930 . S
H210 C220 0.930 . S
H211 C221 0.930 . S
C212 H206 0.930 . S
C212 C213 1.355 . S
C212 C214 1.415 . S
C213 C212 1.355 . S
C213 C215 1.419 . S
C214 C212 1.415 . S
C214 C219 1.425 . S
C214 C221 1.409 . S
C215 H207 0.930 . S
C215 C213 1.419 . S
C215 C216 1.362 . S
C216 H208 0.930 . S
C216 C215 1.362 . S
C216 C219 1.409 . S
C217 H209 0.930 . S
C217 C218 1.355 . S
C217 C219 1.415 . S
C218 C217 1.355 . S
C218 C220 1.419 . S
C219 C214 1.425 . S
C219 C216 1.409 . S
C219 C217 1.415 . S
C220 H210 0.930 . S
C220 C218 1.419 . S
C220 C221 1.362 . S
C221 H211 0.930 . S
C221 C214 1.409 . S
C221 C220 1.362 . S
H222 C228 0.930 . S
H223 C231 0.930 . S
H224 C232 0.930 . S
H225 C233 0.930 . S
H226 C236 0.930 . S
H227 C237 0.930 . S
C228 H222 0.930 . S
C228 C229 1.355 . S
C228 C230 1.415 . S
C229 C228 1.355 . S
C229 C231 1.419 . S
C230 C228 1.415 . S
C230 C235 1.425 . S
C230 C237 1.409 . S
C231 H223 0.930 . S
C231 C229 1.419 . S
C231 C232 1.362 . S
C232 H224 0.930 . S
C232 C231 1.362 . S
C232 C235 1.409 . S
C233 H225 0.930 . S
C233 C234 1.355 . S
C233 C235 1.415 . S
C234 C233 1.355 . S
C234 C236 1.419 . S
C235 C230 1.425 . S
C235 C232 1.409 . S
C235 C233 1.415 . S
C236 H226 0.930 . S
C236 C234 1.419 . S
C236 C237 1.362 . S
C237 H227 0.930 . S
C237 C230 1.409 . S
C237 C236 1.362 . S
H238 C244 0.930 . S
H239 C247 0.930 . S
H240 C248 0.930 . S
H241 C249 0.930 . S
H242 C252 0.930 . S
H243 C253 0.930 . S
C244 H238 0.930 . S
C244 C245 1.355 . S
C244 C246 1.415 . S
C245 C244 1.355 . S
C245 C247 1.419 1_554 S
C246 C244 1.415 . S
C246 C251 1.425 . S
C246 C253 1.409 . S
C247 H239 0.930 . S
C247 C245 1.419 1_556 S
C247 C248 1.362 . S
C248 H240 0.930 . S
C248 C247 1.362 . S
C248 C251 1.409 1_556 S
C249 H241 0.930 . S
C249 C250 1.355 . S
C249 C251 1.415 . S
C250 C249 1.355 . S
C250 C252 1.419 . S
C251 C246 1.425 . S
C251 C248 1.409 1_554 S
C251 C249 1.415 . S
C252 H242 0.930 . S
C252 C250 1.419 . S
C252 C253 1.362 . S
C253 H243 0.930 . S
C253 C246 1.409 . S
C253 C252 1.362 . S
H254 C260 0.930 . S
H255 C263 0.930 . S
H256 C264 0.930 . S
H257 C265 0.930 . S
H258 C268 0.930 . S
H259 C269 0.930 . S
C260 H254 0.930 . S
C260 C261 1.355 1_554 S
C260 C262 1.415 1_554 S
C261 C260 1.355 1_556 S
C261 C263 1.419 . S
C262 C260 1.415 1_556 S
C262 C267 1.425 . S
C262 C269 1.409 1_556 S
C263 H255 0.930 . S
C263 C261 1.419 . S
C263 C264 1.362 . S
C264 H256 0.930 . S
C264 C263 1.362 . S
C264 C267 1.409 . S
C265 H257 0.930 . S
C265 C266 1.355 . S
C265 C267 1.415 . S
C266 C265 1.355 . S
C266 C268 1.419 1_556 S
C267 C262 1.425 . S
C267 C264 1.409 . S
C267 C265 1.415 . S
C268 H258 0.930 . S
C268 C266 1.419 1_554 S
C268 C269 1.362 . S
C269 H259 0.930 . S
C269 C262 1.409 1_554 S
C269 C268 1.362 . S
H270 C276 0.930 . S
H271 C279 0.930 . S
H272 C280 0.930 . S
H273 C281 0.930 . S
H274 C284 0.930 . S
H275 C285 0.930 . S
C276 H270 0.930 . S
C276 C277 1.355 . S
C276 C278 1.415 . S
C277 C276 1.355 . S
C277 C279 1.419 . S
C278 C276 1.415 . S
C278 C283 1.425 . S
C278 C285 1.409 . S
C279 H271 0.930 . S
C279 C277 1.419 . S
C279 C280 1.362 . S
C280 H272 0.930 . S
C280 C279 1.362 . S
C280 C283 1.409 . S
C281 H273 0.930 . S
C281 C282 1.355 . S
C281 C283 1.415 . S
C282 C281 1.355 . S
C282 C284 1.419 . S
C283 C278 1.425 . S
C283 C280 1.409 . S
C283 C281 1.415 . S
C284 H274 0.930 . S
C284 C282 1.419 . S
C284 C285 1.362 . S
C285 H275 0.930 . S
C285 C278 1.409 . S
C285 C284 1.362 . S
H286 C292 0.930 . S
H287 C295 0.930 . S
H288 C296 0.930 . S
H289 C297 0.930 . S
H290 C300 0.930 . S
H291 C301 0.930 . S
C292 H286 0.930 . S
C292 C293 1.355 . S
C292 C294 1.415 . S
C293 C292 1.355 . S
C293 C295 1.419 . S
C294 C292 1.415 . S
C294 C299 1.425 . S
C294 C301 1.409 . S
C295 H287 0.930 . S
C295 C293 1.419 . S
C295 C296 1.362 . S
C296 H288 0.930 . S
C296 C295 1.362 . S
C296 C299 1.409 . S
C297 H289 0.930 . S
C297 C298 1.355 . S
C297 C299 1.415 . S
C298 C297 1.355 . S
C298 C300 1.419 . S
C299 C294 1.425 . S
C299 C296 1.409 . S
C299 C297 1.415 . S
C300 H290 0.930 . S
C300 C298 1.419 . S
C300 C301 1.362 . S
C301 H291 0.930 . S
C301 C294 1.409 . S
C301 C300 1.362 . S
H302 C308 0.930 . S
H303 C311 0.930 . S
H304 C312 0.930 . S
H305 C313 0.930 . S
H306 C316 0.930 . S
H307 C317 0.930 . S
C308 H302 0.930 . S
C308 C309 1.355 . S
C308 C310 1.415 . S
C309 C308 1.355 . S
C309 C311 1.419 . S
C310 C308 1.415 . S
C310 C315 1.425 . S
C310 C317 1.409 . S
C311 H303 0.930 . S
C311 C309 1.419 . S
C311 C312 1.362 . S
C312 H304 0.930 . S
C312 C311 1.362 . S
C312 C315 1.409 . S
C313 H305 0.930 . S
C313 C314 1.355 . S
C313 C315 1.415 . S
C314 C313 1.355 . S
C314 C316 1.419 . S
C315 C310 1.425 . S
C315 C312 1.409 . S
C315 C313 1.415 . S
C316 H306 0.930 . S
C316 C314 1.419 . S
C316 C317 1.362 . S
C317 H307 0.930 . S
C317 C310 1.409 . S
C317 C316 1.362 . S
H318 C324 0.930 . S
H319 C327 0.930 . S
H320 C328 0.930 . S
H321 C329 0.930 . S
H322 C332 0.930 . S
H323 C333 0.930 . S
C324 H318 0.930 . S
C324 C325 1.355 . S
C324 C326 1.415 . S
C325 C324 1.355 . S
C325 C327 1.419 . S
C326 C324 1.415 . S
C326 C331 1.425 . S
C326 C333 1.409 . S
C327 H319 0.930 . S
C327 C325 1.419 . S
C327 C328 1.362 . S
C328 H320 0.930 . S
C328 C327 1.362 . S
C328 C331 1.409 . S
C329 H321 0.930 . S
C329 C330 1.355 . S
C329 C331 1.415 . S
C330 C329 1.355 . S
C330 C332 1.419 . S
C331 C326 1.425 . S
C331 C328 1.409 . S
C331 C329 1.415 . S
C332 H322 0.930 . S
C332 C330 1.419 . S
C332 C333 1.362 . S
C333 H323 0.930 . S
C333 C326 1.409 . S
C333 C332 1.362 . S
H334 C340 0.930 . S
H335 C343 0.930 . S
H336 C344 0.930 . S
H337 C345 0.930 . S
H338 C348 0.930 . S
H339 C349 0.930 . S
C340 H334 0.930 . S
C340 C341 1.355 1_655 S
C340 C342 1.415 . S
C341 C340 1.355 1_455 S
C341 C343 1.419 1_545 S
C342 C340 1.415 . S
C342 C347 1.425 1_645 S
C342 C349 1.409 . S
C343 H335 0.930 . S
C343 C341 1.419 1_565 S
C343 C344 1.362 . S
C344 H336 0.930 . S
C344 C343 1.362 . S
C344 C347 1.409 . S
C345 H337 0.930 . S
C345 C346 1.355 1_465 S
C345 C347 1.415 . S
C346 C345 1.355 1_645 S
C346 C348 1.419 . S
C347 C342 1.425 1_465 S
C347 C344 1.409 . S
C347 C345 1.415 . S
C348 H338 0.930 . S
C348 C346 1.419 . S
C348 C349 1.362 . S
C349 H339 0.930 . S
C349 C342 1.409 . S
C349 C348 1.362 . S
H350 C356 0.930 . S
H351 C359 0.930 . S
H352 C360 0.930 . S
H353 C361 0.930 . S
H354 C364 0.930 . S
H355 C365 0.930 . S
C356 H350 0.930 . S
C356 C357 1.351 1_645 S
C356 C358 1.415 . S
C357 C356 1.351 1_465 S
C357 C359 1.424 . S
C358 C356 1.415 . S
C358 C363 1.425 1_645 S
C358 C365 1.409 . S
C359 H351 0.930 . S
C359 C357 1.424 . S
C359 C360 1.362 . S
C360 H352 0.930 . S
C360 C359 1.362 . S
C360 C363 1.409 . S
C361 H353 0.930 . S
C361 C362 1.355 1_565 S
C361 C363 1.415 . S
C362 C361 1.355 1_545 S
C362 C364 1.419 1_455 S
C363 C358 1.425 1_465 S
C363 C360 1.409 . S
C363 C361 1.415 . S
C364 H354 0.930 . S
C364 C362 1.419 1_655 S
C364 C365 1.362 . S
C365 H355 0.930 . S
C365 C358 1.409 . S
C365 C364 1.362 . S
H366 C372 0.930 . S
H367 C375 0.930 . S
H368 C376 0.930 . S
H369 C377 0.930 . S
H370 C380 0.930 . S
H371 C381 0.930 . S
C372 H366 0.930 . S
C372 C373 1.355 . S
C372 C374 1.415 . S
C373 C372 1.355 . S
C373 C375 1.419 . S
C374 C372 1.415 . S
C374 C379 1.425 . S
C374 C381 1.409 . S
C375 H367 0.930 . S
C375 C373 1.419 . S
C375 C376 1.362 . S
C376 H368 0.930 . S
C376 C375 1.362 . S
C376 C379 1.409 . S
C377 H369 0.930 . S
C377 C378 1.355 . S
C377 C379 1.415 . S
C378 C377 1.355 . S
C378 C380 1.419 . S
C379 C374 1.425 . S
C379 C376 1.409 . S
C379 C377 1.415 . S
C380 H370 0.930 . S
C380 C378 1.419 . S
C380 C381 1.362 . S
C381 H371 0.930 . S
C381 C374 1.409 . S
C381 C380 1.362 . S
H382 C388 0.930 . S
H383 C391 0.930 . S
H384 C392 0.930 . S
H385 C393 0.930 . S
H386 C396 0.930 . S
H387 C397 0.930 . S
C388 H382 0.930 . S
C388 C389 1.355 . S
C388 C390 1.415 . S
C389 C388 1.355 . S
C389 C391 1.419 . S
C390 C388 1.415 . S
C390 C395 1.425 . S
C390 C397 1.409 . S
C391 H383 0.930 . S
C391 C389 1.419 . S
C391 C392 1.362 . S
C392 H384 0.930 . S
C392 C391 1.362 . S
C392 C395 1.409 . S
C393 H385 0.930 . S
C393 C394 1.355 . S
C393 C395 1.415 . S
C394 C393 1.355 . S
C394 C396 1.419 . S
C395 C390 1.425 . S
C395 C392 1.409 . S
C395 C393 1.415 . S
C396 H386 0.930 . S
C396 C394 1.419 . S
C396 C397 1.362 . S
C397 H387 0.930 . S
C397 C390 1.409 . S
C397 C396 1.362 . S
C218 C168 1.481 . S
C213 C21 1.501 . S
C229 C19 1.467 . S
C234 C128 1.464 . S
C245 C18 1.450 . S
C250 C181 1.431 . S
C261 C20 1.490 . S
C266 C141 1.481 . S
C277 C44 1.481 . S
C282 C88 1.504 . S
C293 C42 1.448 . S
C298 C48 1.452 . S
C314 C101 1.445 . S
C309 C41 1.465 . S
C330 C61 1.470 . S
C325 C43 1.488 . S
C341 C16 1.487 . S
C346 C67 1.482 1_655 S
C357 C17 1.454 1_565 S
C362 C107 1.460 1_545 S
C378 C147 1.482 . S
C373 C39 1.487 . S
C389 C40 1.448 . S
C394 C187 1.433 . S
