# Generated by pormake.
# Topology cor, (4,6)-cn, num edge types: 1
# Building blocks:
#     Node 0, Type 0, BuildingBlock: GALJAG_clean_sbu_0, # of connection points: 4
#     Node 1, Type 0, BuildingBlock: GALJAG_clean_sbu_0, # of connection points: 4
#     Node 2, Type 0, BuildingBlock: GALJAG_clean_sbu_0, # of connection points: 4
#     Node 3, Type 0, BuildingBlock: GALJAG_clean_sbu_0, # of connection points: 4
#     Node 4, Type 0, BuildingBlock: GALJAG_clean_sbu_0, # of connection points: 4
#     Node 5, Type 0, BuildingBlock: GALJAG_clean_sbu_0, # of connection points: 4
#     Node 6, Type 0, BuildingBlock: GALJAG_clean_sbu_0, # of connection points: 4
#     Node 7, Type 0, BuildingBlock: GALJAG_clean_sbu_0, # of connection points: 4
#     Node 8, Type 0, BuildingBlock: GALJAG_clean_sbu_0, # of connection points: 4
#     Node 9, Type 0, BuildingBlock: GALJAG_clean_sbu_0, # of connection points: 4
#     Node 10, Type 0, BuildingBlock: GALJAG_clean_sbu_0, # of connection points: 4
#     Node 11, Type 0, BuildingBlock: GALJAG_clean_sbu_0, # of connection points: 4
#     Node 12, Type 0, BuildingBlock: GALJAG_clean_sbu_0, # of connection points: 4
#     Node 13, Type 0, BuildingBlock: GALJAG_clean_sbu_0, # of connection points: 4
#     Node 14, Type 0, BuildingBlock: GALJAG_clean_sbu_0, # of connection points: 4
#     Node 15, Type 0, BuildingBlock: GALJAG_clean_sbu_0, # of connection points: 4
#     Node 16, Type 0, BuildingBlock: GALJAG_clean_sbu_0, # of connection points: 4
#     Node 17, Type 0, BuildingBlock: GALJAG_clean_sbu_0, # of connection points: 4
#     Node 18, Type 1, BuildingBlock: MIDCAF_clean_sbu_0, # of connection points: 6
#     Node 19, Type 1, BuildingBlock: MIDCAF_clean_sbu_0, # of connection points: 6
#     Node 20, Type 1, BuildingBlock: MIDCAF_clean_sbu_0, # of connection points: 6
#     Node 21, Type 1, BuildingBlock: MIDCAF_clean_sbu_0, # of connection points: 6
#     Node 22, Type 1, BuildingBlock: MIDCAF_clean_sbu_0, # of connection points: 6
#     Node 23, Type 1, BuildingBlock: MIDCAF_clean_sbu_0, # of connection points: 6
#     Node 24, Type 1, BuildingBlock: MIDCAF_clean_sbu_0, # of connection points: 6
#     Node 25, Type 1, BuildingBlock: MIDCAF_clean_sbu_0, # of connection points: 6
#     Node 26, Type 1, BuildingBlock: MIDCAF_clean_sbu_0, # of connection points: 6
#     Node 27, Type 1, BuildingBlock: MIDCAF_clean_sbu_0, # of connection points: 6
#     Node 28, Type 1, BuildingBlock: MIDCAF_clean_sbu_0, # of connection points: 6
#     Node 29, Type 1, BuildingBlock: MIDCAF_clean_sbu_0, # of connection points: 6
#     Edge 30, Type (0, 1), BuildingBlock: EZIPEK_clean_linker_0, # of connection points: 2
#     Edge 31, Type (0, 1), BuildingBlock: EZIPEK_clean_linker_0, # of connection points: 2
#     Edge 32, Type (0, 1), BuildingBlock: EZIPEK_clean_linker_0, # of connection points: 2
#     Edge 33, Type (0, 1), BuildingBlock: EZIPEK_clean_linker_0, # of connection points: 2
#     Edge 34, Type (0, 1), BuildingBlock: EZIPEK_clean_linker_0, # of connection points: 2
#     Edge 35, Type (0, 1), BuildingBlock: EZIPEK_clean_linker_0, # of connection points: 2
#     Edge 36, Type (0, 1), BuildingBlock: EZIPEK_clean_linker_0, # of connection points: 2
#     Edge 37, Type (0, 1), BuildingBlock: EZIPEK_clean_linker_0, # of connection points: 2
#     Edge 38, Type (0, 1), BuildingBlock: EZIPEK_clean_linker_0, # of connection points: 2
#     Edge 39, Type (0, 1), BuildingBlock: EZIPEK_clean_linker_0, # of connection points: 2
#     Edge 40, Type (0, 1), BuildingBlock: EZIPEK_clean_linker_0, # of connection points: 2
#     Edge 41, Type (0, 1), BuildingBlock: EZIPEK_clean_linker_0, # of connection points: 2
#     Edge 42, Type (0, 1), BuildingBlock: EZIPEK_clean_linker_0, # of connection points: 2
#     Edge 43, Type (0, 1), BuildingBlock: EZIPEK_clean_linker_0, # of connection points: 2
#     Edge 44, Type (0, 1), BuildingBlock: EZIPEK_clean_linker_0, # of connection points: 2
#     Edge 45, Type (0, 1), BuildingBlock: EZIPEK_clean_linker_0, # of connection points: 2
#     Edge 46, Type (0, 1), BuildingBlock: EZIPEK_clean_linker_0, # of connection points: 2
#     Edge 47, Type (0, 1), BuildingBlock: EZIPEK_clean_linker_0, # of connection points: 2
#     Edge 48, Type (0, 1), BuildingBlock: EZIPEK_clean_linker_0, # of connection points: 2
#     Edge 49, Type (0, 1), BuildingBlock: EZIPEK_clean_linker_0, # of connection points: 2
#     Edge 50, Type (0, 1), BuildingBlock: EZIPEK_clean_linker_0, # of connection points: 2
#     Edge 51, Type (0, 1), BuildingBlock: EZIPEK_clean_linker_0, # of connection points: 2
#     Edge 52, Type (0, 1), BuildingBlock: EZIPEK_clean_linker_0, # of connection points: 2
#     Edge 53, Type (0, 1), BuildingBlock: EZIPEK_clean_linker_0, # of connection points: 2
#     Edge 54, Type (0, 1), BuildingBlock: EZIPEK_clean_linker_0, # of connection points: 2
#     Edge 55, Type (0, 1), BuildingBlock: EZIPEK_clean_linker_0, # of connection points: 2
#     Edge 56, Type (0, 1), BuildingBlock: EZIPEK_clean_linker_0, # of connection points: 2
#     Edge 57, Type (0, 1), BuildingBlock: EZIPEK_clean_linker_0, # of connection points: 2
#     Edge 58, Type (0, 1), BuildingBlock: EZIPEK_clean_linker_0, # of connection points: 2
#     Edge 59, Type (0, 1), BuildingBlock: EZIPEK_clean_linker_0, # of connection points: 2
#     Edge 60, Type (0, 1), BuildingBlock: EZIPEK_clean_linker_0, # of connection points: 2
#     Edge 61, Type (0, 1), BuildingBlock: EZIPEK_clean_linker_0, # of connection points: 2
#     Edge 62, Type (0, 1), BuildingBlock: EZIPEK_clean_linker_0, # of connection points: 2
#     Edge 63, Type (0, 1), BuildingBlock: EZIPEK_clean_linker_0, # of connection points: 2
#     Edge 64, Type (0, 1), BuildingBlock: EZIPEK_clean_linker_0, # of connection points: 2
#     Edge 65, Type (0, 1), BuildingBlock: EZIPEK_clean_linker_0, # of connection points: 2
#     Edge 66, Type (0, 1), BuildingBlock: EZIPEK_clean_linker_0, # of connection points: 2
#     Edge 67, Type (0, 1), BuildingBlock: EZIPEK_clean_linker_0, # of connection points: 2
#     Edge 68, Type (0, 1), BuildingBlock: EZIPEK_clean_linker_0, # of connection points: 2
#     Edge 69, Type (0, 1), BuildingBlock: EZIPEK_clean_linker_0, # of connection points: 2
#     Edge 70, Type (0, 1), BuildingBlock: EZIPEK_clean_linker_0, # of connection points: 2
#     Edge 71, Type (0, 1), BuildingBlock: EZIPEK_clean_linker_0, # of connection points: 2
#     Edge 72, Type (0, 1), BuildingBlock: EZIPEK_clean_linker_0, # of connection points: 2
#     Edge 73, Type (0, 1), BuildingBlock: EZIPEK_clean_linker_0, # of connection points: 2
#     Edge 74, Type (0, 1), BuildingBlock: EZIPEK_clean_linker_0, # of connection points: 2
#     Edge 75, Type (0, 1), BuildingBlock: EZIPEK_clean_linker_0, # of connection points: 2
#     Edge 76, Type (0, 1), BuildingBlock: EZIPEK_clean_linker_0, # of connection points: 2
#     Edge 77, Type (0, 1), BuildingBlock: EZIPEK_clean_linker_0, # of connection points: 2
#     Edge 78, Type (0, 1), BuildingBlock: EZIPEK_clean_linker_0, # of connection points: 2
#     Edge 79, Type (0, 1), BuildingBlock: EZIPEK_clean_linker_0, # of connection points: 2
#     Edge 80, Type (0, 1), BuildingBlock: EZIPEK_clean_linker_0, # of connection points: 2
#     Edge 81, Type (0, 1), BuildingBlock: EZIPEK_clean_linker_0, # of connection points: 2
#     Edge 82, Type (0, 1), BuildingBlock: EZIPEK_clean_linker_0, # of connection points: 2
#     Edge 83, Type (0, 1), BuildingBlock: EZIPEK_clean_linker_0, # of connection points: 2
#     Edge 84, Type (0, 1), BuildingBlock: EZIPEK_clean_linker_0, # of connection points: 2
#     Edge 85, Type (0, 1), BuildingBlock: EZIPEK_clean_linker_0, # of connection points: 2
#     Edge 86, Type (0, 1), BuildingBlock: EZIPEK_clean_linker_0, # of connection points: 2
#     Edge 87, Type (0, 1), BuildingBlock: EZIPEK_clean_linker_0, # of connection points: 2
#     Edge 88, Type (0, 1), BuildingBlock: EZIPEK_clean_linker_0, # of connection points: 2
#     Edge 89, Type (0, 1), BuildingBlock: EZIPEK_clean_linker_0, # of connection points: 2
#     Edge 90, Type (0, 1), BuildingBlock: EZIPEK_clean_linker_0, # of connection points: 2
#     Edge 91, Type (0, 1), BuildingBlock: EZIPEK_clean_linker_0, # of connection points: 2
#     Edge 92, Type (0, 1), BuildingBlock: EZIPEK_clean_linker_0, # of connection points: 2
#     Edge 93, Type (0, 1), BuildingBlock: EZIPEK_clean_linker_0, # of connection points: 2
#     Edge 94, Type (0, 1), BuildingBlock: EZIPEK_clean_linker_0, # of connection points: 2
#     Edge 95, Type (0, 1), BuildingBlock: EZIPEK_clean_linker_0, # of connection points: 2
#     Edge 96, Type (0, 1), BuildingBlock: EZIPEK_clean_linker_0, # of connection points: 2
#     Edge 97, Type (0, 1), BuildingBlock: EZIPEK_clean_linker_0, # of connection points: 2
#     Edge 98, Type (0, 1), BuildingBlock: EZIPEK_clean_linker_0, # of connection points: 2
#     Edge 99, Type (0, 1), BuildingBlock: EZIPEK_clean_linker_0, # of connection points: 2
#     Edge 100, Type (0, 1), BuildingBlock: EZIPEK_clean_linker_0, # of connection points: 2
#     Edge 101, Type (0, 1), BuildingBlock: EZIPEK_clean_linker_0, # of connection points: 2
# Relax obj value: 0.119
# Max RMSD: 0.171
# Mean RMSD: 0.112
data_MOF--net-cor--node1-GALJAG_clean_sbu_0--node2-MIDCAF_clean_sbu_0--edge1-EZIPEK_clean_linker_0
_symmetry_space_group_name_H-M    P1
_symmetry_Int_Tables_number       1
_symmetry_cell_setting            triclinic
loop_
_symmetry_equiv_pos_as_xyz
'x, y, z'
_cell_length_a     27.85582
_cell_length_b     27.799214
_cell_length_c     78.863449
_cell_angle_alpha  89.978853
_cell_angle_beta   90.021144
_cell_angle_gamma 120.29658
loop_
_atom_site_label
_atom_site_type_symbol
_atom_site_fract_x
_atom_site_fract_y
_atom_site_fract_z
_atom_type_partial_charge
In0 In 0.73791 0.0091 0.25699 0.0
O1 O 0.76276 0.10006 0.25314 0.0
O2 O 0.6817 0.03709 0.24534 0.0
C3 C 0.79744 0.01004 0.28375 0.0
C4 C 0.78842 0.00805 0.22806 0.0
C5 C 0.64482 0.92797 0.27114 0.0
O6 O 0.78697 0.04886 0.2812 0.0
O7 O 0.78071 0.97309 0.27235 0.0
O8 O 0.66496 0.91968 0.25779 0.0
O9 O 0.6705 0.97725 0.2767 0.0
C10 C 0.71757 0.08813 0.24593 0.0
O11 O 0.73631 0.97948 0.22995 0.0
O12 O 0.81506 0.03299 0.24123 0.0
In13 In 0.01466 0.74292 0.25425 0.0
O14 O 0.10424 0.75895 0.25415 0.0
O15 O 0.04924 0.71098 0.27402 0.0
C16 C 0.00995 0.80465 0.22921 0.0
C17 C 0.00958 0.79192 0.28286 0.0
C18 C 0.94169 0.64913 0.23793 0.0
O19 O 0.05444 0.80427 0.23241 0.0
O20 O 0.97081 0.77824 0.23961 0.0
O21 O 0.92696 0.66991 0.24968 0.0
O22 O -0.00646 0.67237 0.23562 0.0
C23 C 0.09816 0.73478 0.26831 0.0
O24 O 0.98026 0.73977 0.28068 0.0
O25 O 0.03725 0.81915 0.27004 0.0
In26 In 0.29281 0.29328 0.25548 0.0
O27 O 0.29446 0.37558 0.25517 0.0
O28 O 0.34461 0.36394 0.27354 0.0
C29 C 0.23596 0.2328 0.2285 0.0
C30 C 0.22299 0.24388 0.28163 0.0
C31 C 0.38661 0.30489 0.24264 0.0
O32 O 0.23799 0.27818 0.23223 0.0
O33 O 0.25882 0.21688 0.23915 0.0
O34 O 0.36772 0.28103 0.25683 0.0
O35 O 0.36056 0.32634 0.23593 0.0
C36 C 0.32555 0.39385 0.26813 0.0
O37 O 0.25943 0.23126 0.27764 0.0
O38 O 0.22071 0.27826 0.27178 0.0
In39 In 0.28441 0.01318 0.75348 0.0
O40 O 0.25898 0.05078 0.77506 0.0
O41 O 0.21878 0.96262 0.77274 0.0
C42 C 0.37759 0.09687 0.74039 0.0
C43 C 0.31149 0.94168 0.76603 0.0
C44 C 0.22202 0.00281 0.72645 0.0
O45 O 0.35756 0.10287 0.75412 0.0
O46 O 0.35268 0.04852 0.73421 0.0
O47 O 0.24433 0.97335 0.72831 0.0
O48 O 0.228 0.03444 0.73875 0.0
C49 C 0.22439 0.00354 0.78118 0.0
O50 O 0.2737 0.92771 0.75504 0.0
O51 O 0.33898 0.99287 0.76973 0.0
In52 In 0.01305 0.28993 0.75649 0.0
O53 O 0.0573 0.29007 0.73217 0.0
O54 O 0.98214 0.21587 0.73906 0.0
C55 C 0.09327 0.38203 0.77137 0.0
C56 C 0.93344 0.30699 0.7433 0.0
C57 C 0.01197 0.22902 0.78322 0.0
O58 O 0.10202 0.36298 0.75791 0.0
O59 O 0.04322 0.35783 0.7762 0.0
O60 O 0.97434 0.2412 0.78103 0.0
O61 O 0.04721 0.24389 0.77142 0.0
C62 C 0.02043 0.24099 0.72832 0.0
O63 O 0.92233 0.26825 0.75376 0.0
O64 O 0.98463 0.33944 0.74067 0.0
In65 In 0.73464 0.74335 0.75438 0.0
O66 O 0.74184 0.78083 0.72794 0.0
O67 O 0.81618 0.79705 0.74063 0.0
C68 C 0.64033 0.73521 0.76639 0.0
C69 C 0.72678 0.65009 0.74171 0.0
C70 C 0.78612 0.78795 0.78363 0.0
O71 O 0.6701 0.77166 0.7555 0.0
O72 O 0.65553 0.7005 0.76984 0.0
O73 O 0.76788 0.73723 0.78022 0.0
O74 O 0.78076 0.81627 0.77205 0.0
C75 C 0.79402 0.80158 0.72725 0.0
O76 O 0.76724 0.68441 0.75063 0.0
O77 O 0.68748 0.66021 0.74038 0.0
In78 In 0.40267 0.3509 0.58845 0.0
O79 O 0.41341 0.32323 0.56202 0.0
O80 O 0.4859 0.38238 0.57536 0.0
C81 C 0.30769 0.26259 0.59981 0.0
C82 C 0.38919 0.43335 0.57586 0.0
C83 C 0.45352 0.35601 0.61794 0.0
O84 O 0.34357 0.25708 0.59158 0.0
O85 O 0.31738 0.31198 0.60086 0.0
O86 O 0.43202 0.38592 0.61512 0.0
O87 O 0.45207 0.32639 0.6056 0.0
C88 C 0.46553 0.35585 0.56177 0.0
O89 O 0.42429 0.44174 0.58735 0.0
O90 O 0.35862 0.38314 0.57148 0.0
In91 In 0.68902 0.0812 0.58813 0.0
O92 O 0.64881 0.10164 0.61014 0.0
O93 O 0.73573 0.15391 0.60595 0.0
C94 C 0.60942 0.98501 0.57482 0.0
C95 C 0.76196 0.0609 0.60376 0.0
C96 C 0.69799 0.14606 0.562 0.0
O97 O 0.59998 0.00796 0.5872 0.0
O98 O 0.65936 0.00811 0.57007 0.0
O99 O 0.7345 0.13283 0.56484 0.0
O100 O 0.65959 0.12958 0.57282 0.0
C101 C 0.69456 0.14211 0.61533 0.0
O102 O 0.77159 0.08304 0.58918 0.0
O103 O 0.71339 0.04355 0.60927 0.0
In104 In 0.96546 0.62542 0.58863 0.0
O105 O 0.95804 0.70283 0.58723 0.0
O106 O 0.00972 0.69875 0.60663 0.0
C107 C 0.90968 0.56989 0.56063 0.0
C108 C 0.90138 0.56829 0.61497 0.0
C109 C 0.05682 0.62955 0.57645 0.0
O110 O 0.9072 0.61146 0.56604 0.0
O111 O 0.93881 0.55706 0.56953 0.0
O112 O 0.02236 0.59044 0.58581 0.0
O113 O 0.04884 0.67044 0.57508 0.0
C114 C 0.98721 0.72446 0.60036 0.0
O115 O 0.95007 0.5765 0.61331 0.0
O116 O 0.88504 0.58601 0.6029 0.0
In117 In 0.95955 0.36173 0.0891 0.0
O118 O 0.94774 0.27377 0.08819 0.0
O119 O 0.98976 0.32634 0.10924 0.0
C120 C 0.90835 0.36535 0.06049 0.0
C121 C 0.90727 0.37147 0.11628 0.0
C122 C 0.05812 0.43918 0.07679 0.0
O123 O 0.89891 0.31938 0.06681 0.0
O124 O 0.94089 0.40751 0.06903 0.0
O125 O 0.02552 0.45066 0.08454 0.0
O126 O 0.04352 0.38808 0.07677 0.0
C127 C 0.96988 0.27879 0.10264 0.0
O128 O 0.95892 0.40245 0.11409 0.0
O129 O 0.88132 0.3388 0.10419 0.0
In130 In 0.68665 0.62034 0.0876 0.0
O131 O 0.74421 0.62433 0.06597 0.0
O132 O 0.67094 0.54686 0.07161 0.0
C133 C 0.76047 0.71799 0.10182 0.0
C134 C 0.60208 0.62422 0.07202 0.0
C135 C 0.6756 0.56327 0.11639 0.0
O136 O 0.77563 0.6884 0.09385 0.0
O137 O 0.70889 0.69991 0.10179 0.0
O138 O 0.65672 0.59583 0.11503 0.0
O139 O 0.69605 0.55672 0.103 0.0
C140 C 0.71379 0.57298 0.06255 0.0
O141 O 0.59479 0.5837 0.08113 0.0
O142 O 0.65207 0.66293 0.07089 0.0
In143 In 0.40544 0.08161 0.08807 0.0
O144 O 0.43083 0.01602 0.0831 0.0
O145 O 0.361 0.00816 0.06987 0.0
C146 C 0.46656 0.13116 0.11603 0.0
C147 C 0.4469 0.15077 0.0614 0.0
C148 C 0.3112 0.06159 0.10352 0.0
O149 O 0.4544 0.08258 0.11167 0.0
O150 O 0.45116 0.15559 0.10578 0.0
O151 O 0.33195 0.095 0.09127 0.0
O152 O 0.33531 0.03476 0.10707 0.0
C153 C 0.39337 0.98949 0.0722 0.0
O154 O 0.39682 0.12893 0.06592 0.0
O155 O 0.47713 0.13993 0.07075 0.0
In156 In 0.07104 0.68729 0.92196 0.0
O157 O 0.08704 0.77639 0.9205 0.0
O158 O 0.03488 0.71798 0.90189 0.0
C159 C 0.12696 0.69301 0.95036 0.0
C160 C 0.13271 0.68553 0.89563 0.0
C161 C 0.97275 0.61124 0.93599 0.0
O162 O 0.11422 0.72936 0.94657 0.0
O163 O 0.11421 0.65542 0.93932 0.0
O164 O -0.006 0.59913 0.92369 0.0
O165 O -0.00138 0.66201 0.94001 0.0
C166 C 0.05971 0.76783 0.90694 0.0
O167 O 0.08225 0.64813 0.8976 0.0
O168 O 0.15258 0.72071 0.90753 0.0
In169 In 0.34827 0.40706 0.92291 0.0
O170 O 0.43033 0.40835 0.92536 0.0
O171 O 0.36646 0.36187 0.94352 0.0
C172 C 0.35717 0.46371 0.89452 0.0
C173 C 0.35988 0.47253 0.94928 0.0
C174 C 0.26158 0.31263 0.9118 0.0
O175 O 0.38952 0.44517 0.8974 0.0
O176 O 0.32398 0.45729 0.90632 0.0
O177 O 0.25552 0.34512 0.9216 0.0
O178 O 0.31113 0.32584 0.90861 0.0
C179 C 0.41616 0.38011 0.93895 0.0
O180 O 0.31351 0.43016 0.94561 0.0
O181 O 0.39816 0.4841 0.9387 0.0
In182 In 0.62743 0.95972 0.92014 0.0
O183 O 0.60653 0.90037 0.94239 0.0
O184 O 0.55448 0.9348 0.9373 0.0
C185 C 0.71378 0.9612 0.90542 0.0
C186 C 0.66437 0.06065 0.93335 0.0
C187 C 0.56571 0.90891 0.89282 0.0
O188 O 0.69696 0.93894 0.91987 0.0
O189 O 0.68935 0.98513 0.89941 0.0
O190 O 0.58952 0.96115 0.89473 0.0
O191 O 0.56931 0.88242 0.90532 0.0
C192 C 0.56535 0.90504 0.94683 0.0
O193 O 0.62264 0.03782 0.92365 0.0
O194 O 0.68948 0.03406 0.9357 0.0
In195 In 0.61576 0.67887 0.42203 0.0
O196 O 0.59483 0.71163 0.4457 0.0
O197 O 0.54169 0.62694 0.43888 0.0
C198 C 0.71473 0.75804 0.41085 0.0
C199 C 0.63642 0.60219 0.43422 0.0
C200 C 0.5635 0.69024 0.39517 0.0
O201 O 0.69009 0.76681 0.4229 0.0
O202 O 0.6918 0.70846 0.40555 0.0
O203 O 0.56068 0.64421 0.39838 0.0
O204 O 0.58726 0.72673 0.40644 0.0
C205 C 0.55427 0.66445 0.44983 0.0
O206 O 0.61339 0.59633 0.41987 0.0
O207 O 0.65389 0.64899 0.44124 0.0
In208 In 0.33798 0.95766 0.42292 0.0
O209 O 0.3805 0.94941 0.39942 0.0
O210 O 0.30731 0.87722 0.40863 0.0
C211 C 0.42088 0.05277 0.43513 0.0
C212 C 0.26435 0.97332 0.40586 0.0
C213 C 0.32521 0.90602 0.45272 0.0
O214 O 0.42974 0.02206 0.42535 0.0
O215 O 0.37042 0.03768 0.43757 0.0
O216 O 0.29358 0.92414 0.44832 0.0
O217 O 0.36034 0.9107 0.44177 0.0
C218 C 0.34374 0.89903 0.39718 0.0
O219 O 0.2494 0.93674 0.41733 0.0
O220 O 0.31613 0.00435 0.40403 0.0
In221 In 0.06224 0.40577 0.41932 0.0
O222 O 0.05169 0.43949 0.39396 0.0
O223 O 0.13237 0.4545 0.40066 0.0
C224 C 0.97287 0.39138 0.43654 0.0
C225 C 0.05028 0.31209 0.4059 0.0
C226 C 0.12867 0.46101 0.44532 0.0
O227 O -0.00574 0.42654 0.42467 0.0
O228 O -0.00646 0.36052 0.43861 0.0
O229 O 0.1144 0.41102 0.44214 0.0
O230 O 0.1128 0.48426 0.43475 0.0
C231 C 0.10155 0.45786 0.38955 0.0
O232 O 0.08843 0.34079 0.41639 0.0
O233 O 0.01542 0.32778 0.40358 0.0
Zn234 Zn 0.01695 0.02687 0.12333 0.0
Zn235 Zn 0.01718 0.02636 0.18046 0.0
Zn236 Zn 0.01073 0.02084 0.15319 0.0
C237 C 0.00556 0.92978 0.17482 0.0
C238 C 0.10826 0.11099 0.17404 0.0
O239 O 0.97559 0.07403 0.14656 0.0
O240 O 0.00881 0.09263 0.12043 0.0
C241 C 0.93319 0.91876 0.13139 0.0
O242 O 0.97585 0.93601 0.16347 0.0
O243 O 0.04441 0.9726 0.18179 0.0
O244 O 0.06801 0.10795 0.18219 0.0
O245 O 0.09813 0.07383 0.16261 0.0
O246 O 0.95123 0.95357 0.1194 0.0
O247 O 0.95531 0.9333 0.14619 0.0
O248 O 0.09954 0.0525 0.14677 0.0
O249 O 0.08894 0.03316 0.1194 0.0
C250 C 0.11911 0.04784 0.13245 0.0
O251 O 0.95552 0.05113 0.16276 0.0
O252 O 0.93909 -0.00192 0.1852 0.0
C253 C 0.98492 0.10142 0.13261 0.0
C254 C 0.92512 0.02541 0.17574 0.0
Zn255 Zn 0.985 0.01127 0.30958 0.0
Zn256 Zn 0.01848 0.02045 0.38663 0.0
Zn257 Zn 0.00804 0.01473 0.35638 0.0
C258 C 0.04197 0.12398 0.37579 0.0
C259 C 0.91314 0.94098 0.38352 0.0
O260 O 0.03798 0.96341 0.34462 0.0
O261 O 0.00947 0.95635 0.31753 0.0
C262 C 0.06813 0.1174 0.32864 0.0
O263 O 0.04561 0.10401 0.36146 0.0
O264 O 0.02589 0.09358 0.38881 0.0
O265 O 0.95049 0.95579 0.3946 0.0
O266 O 0.92504 0.96379 0.36874 0.0
O267 O 0.04436 0.08862 0.31551 0.0
O268 O 0.05572 0.09762 0.3439 0.0
O269 O 0.9185 0.97787 0.35244 0.0
O270 O 0.94689 0.96378 0.32898 0.0
C271 C 0.90988 0.96791 0.33668 0.0
O272 O 0.06407 0.98166 0.36127 0.0
O273 O 0.08513 0.01557 0.38725 0.0
C274 C 0.03048 0.9424 0.32961 0.0
C275 C 0.0942 0.99326 0.3747 0.0
Zn276 Zn -0.00116 0.00669 0.88675 0.0
Zn277 Zn 0.02193 0.04762 0.81043 0.0
Zn278 Zn 0.01359 0.02038 0.85651 0.0
C279 C 0.06129 0.12221 0.83679 0.0
C280 C 0.91782 0.95306 0.82791 0.0
O281 O 0.05335 0.97143 0.86253 0.0
O282 O 0.01534 0.94656 0.88798 0.0
C283 C 0.07481 0.11576 0.88449 0.0
O284 O 0.04544 0.10935 0.8521 0.0
O285 O 0.07207 0.08922 0.82922 0.0
O286 O 0.94717 0.98036 0.81526 0.0
O287 O 0.93413 0.96653 0.84343 0.0
O288 O 0.05446 0.0786 0.89576 0.0
O289 O 0.05897 0.10345 0.86898 0.0
O290 O 0.92246 0.9748 0.86056 0.0
O291 O 0.92164 0.98593 0.88829 0.0
C292 C 0.89598 0.97006 0.87442 0.0
O293 O 0.0683 0.99416 0.84537 0.0
O294 O 0.07822 0.02488 0.8184 0.0
C295 C 0.04269 0.94179 0.87604 0.0
C296 C 0.09124 0.00347 0.83062 0.0
Zn297 Zn 0.98187 0.98851 0.70227 0.0
Zn298 Zn 0.00216 0.01857 0.62371 0.0
Zn299 Zn 0.00728 0.00888 0.65219 0.0
C300 C 0.98358 0.91391 0.62719 0.0
C301 C 0.1089 0.09222 0.63114 0.0
O302 O 0.98812 0.06024 0.66972 0.0
O303 O 0.95645 0.04303 0.69662 0.0
C304 C 0.95004 0.91659 0.67398 0.0
O305 O 0.96928 0.92363 0.64174 0.0
O306 O 0.00525 0.95234 0.61634 0.0
O307 O 0.07194 0.09063 0.62152 0.0
O308 O 0.09478 0.05741 0.64352 0.0
O309 O 0.98924 0.95801 0.68112 0.0
O310 O 0.95001 0.91935 0.65787 0.0
O311 O 0.09004 0.03418 0.66072 0.0
O312 O 0.05178 0.01139 0.68615 0.0
C313 C 0.09353 0.0251 0.67647 0.0
O314 O 0.9616 0.05398 0.64958 0.0
O315 O 0.93149 0.01801 0.62425 0.0
C316 C 0.97211 0.07383 0.6834 0.0
C317 C 0.92869 0.04399 0.63696 0.0
Zn318 Zn 0.65638 0.35403 0.53164 0.0
Zn319 Zn 0.68644 0.35299 0.45624 0.0
Zn320 Zn 0.67698 0.34936 0.48615 0.0
C321 C 0.78813 0.37884 0.46837 0.0
C322 C 0.60202 0.24588 0.4649 0.0
O323 O 0.62084 0.37863 0.49456 0.0
O324 O 0.66571 0.41875 0.51779 0.0
C325 C 0.76596 0.43469 0.51099 0.0
O326 O 0.76752 0.38833 0.48169 0.0
O327 O 0.75824 0.35739 0.45544 0.0
O328 O 0.61865 0.2805 0.45285 0.0
O329 O 0.62671 0.26076 0.47933 0.0
O330 O 0.72774 0.4263 0.52164 0.0
O331 O 0.75667 0.403 0.49801 0.0
O332 O 0.65535 0.26809 0.49591 0.0
O333 O 0.62121 0.27957 0.51927 0.0
C334 C 0.64779 0.25969 0.51188 0.0
O335 O 0.63546 0.39298 0.47662 0.0
O336 O 0.68197 0.42056 0.45257 0.0
C337 C 0.62251 0.40144 0.50884 0.0
C338 C 0.65016 0.42367 0.46331 0.0
Zn339 Zn 0.67504 0.35122 0.71934 0.0
Zn340 Zn 0.67579 0.33947 0.66304 0.0
Zn341 Zn 0.67931 0.3507 0.69032 0.0
C342 C 0.58558 0.34338 0.66718 0.0
C343 C 0.76433 0.43782 0.66769 0.0
O344 O 0.73234 0.31622 0.69845 0.0
O345 O 0.74391 0.3505 0.72428 0.0
C346 C 0.57204 0.27201 0.7107 0.0
O347 O 0.59256 0.32337 0.68115 0.0
O348 O 0.62444 0.36426 0.65652 0.0
O349 O 0.75672 0.39406 0.66042 0.0
O350 O 0.73115 0.43363 0.67966 0.0
O351 O 0.60457 0.28265 0.72304 0.0
O352 O 0.59016 0.29907 0.69669 0.0
O353 O 0.71955 0.44011 0.69727 0.0
O354 O 0.67701 0.4224 0.72194 0.0
C355 C 0.70613 0.45706 0.71065 0.0
O356 O 0.71201 0.29528 0.68191 0.0
O357 O 0.64665 0.25823 0.66263 0.0
C358 C 0.75788 0.32836 0.71282 0.0
C359 C 0.68475 0.25685 0.67079 0.0
Zn360 Zn 0.69039 0.35854 0.2225 0.0
Zn361 Zn 0.67532 0.3165 0.1472 0.0
Zn362 Zn 0.68268 0.34392 0.19272 0.0
C363 C 0.68485 0.42507 0.16546 0.0
C364 C 0.58162 0.28009 0.16834 0.0
O365 O 0.71835 0.29303 0.20125 0.0
O366 O 0.70251 0.29734 0.22829 0.0
C367 C 0.76274 0.45994 0.20923 0.0
O368 O 0.70097 0.42109 0.18046 0.0
O369 O 0.67241 0.38772 0.15414 0.0
O370 O 0.61038 0.31905 0.15806 0.0
O371 O 0.59992 0.28308 0.18346 0.0
O372 O 0.75349 0.433 0.22284 0.0
O373 O 0.73353 0.43595 0.1959 0.0
O374 O 0.59583 0.30095 0.20139 0.0
O375 O 0.61527 0.3466 0.22563 0.0
C376 C 0.57993 0.31491 0.21487 0.0
O377 O 0.7511 0.3307 0.18508 0.0
O378 O 0.71357 0.28596 0.16168 0.0
C379 C 0.71275 0.27362 0.21637 0.0
C380 C 0.75707 0.31692 0.17005 0.0
Zn381 Zn 0.67357 0.29871 0.00972 0.0
Zn382 Zn 0.67695 0.35084 0.95687 0.0
Zn383 Zn 0.68002 0.34256 0.98624 0.0
C384 C 0.68009 0.2543 0.9625 0.0
C385 C 0.7771 0.44473 0.96928 0.0
O386 O 0.73225 0.41382 1.00271 0.0
O387 O 0.67489 0.36377 0.02299 0.0
C388 C 0.57305 0.26068 1.00522 0.0
O389 O 0.68337 0.2714 0.97766 0.0
O390 O 0.67527 0.28106 0.95033 0.0
O391 O 0.74969 0.42135 0.95604 0.0
O392 O 0.7583 0.42285 0.98398 0.0
O393 O 0.59846 0.23369 0.00603 0.0
O394 O 0.59861 0.3102 0.99891 0.0
O395 O 0.76465 0.38322 0.99827 0.0
O396 O 0.74621 0.30077 0.00708 0.0
C397 C 0.78185 0.3515 1.00445 0.0
O398 O 0.60484 0.34912 0.98341 0.0
O399 O 0.6086 0.35526 0.95549 0.0
C400 C 0.70883 0.41144 0.01709 0.0
C401 C 0.58503 0.35426 0.96925 0.0
Zn402 Zn 0.31848 0.68211 0.86869 0.0
Zn403 Zn 0.33305 0.67226 0.79047 0.0
Zn404 Zn 0.34185 0.68555 0.82015 0.0
C405 C 0.44618 0.71883 0.79731 0.0
C406 C 0.27042 0.56783 0.80278 0.0
O407 O 0.28832 0.72023 0.82644 0.0
O408 O 0.33154 0.731 0.84964 0.0
C409 C 0.43343 0.75751 0.84497 0.0
O410 O 0.43003 0.72214 0.81234 0.0
O411 O 0.41129 0.69877 0.78542 0.0
O412 O 0.2838 0.59339 0.78888 0.0
O413 O 0.29041 0.59428 0.81678 0.0
O414 O 0.39551 0.73679 0.85638 0.0
O415 O 0.42421 0.739 0.82969 0.0
O416 O 0.32077 0.61025 0.8356 0.0
O417 O 0.29245 0.60204 0.86271 0.0
C418 C 0.30607 0.58371 0.84989 0.0
O419 O 0.30905 0.73781 0.80955 0.0
O420 O 0.30289 0.71751 0.78235 0.0
C421 C 0.29054 0.7286 0.84235 0.0
C422 C 0.30188 0.7477 0.79407 0.0
Zn423 Zn 0.35674 0.68855 0.05173 0.0
Zn424 Zn 0.35075 0.67621 0.99591 0.0
Zn425 Zn 0.35223 0.68688 0.02308 0.0
C426 C 0.26056 0.68061 0.99967 0.0
C427 C 0.43783 0.775 1.00102 0.0
O428 O 0.4041 0.65034 0.03129 0.0
O429 O 0.42764 0.6916 0.05623 0.0
C430 C 0.25145 0.60621 0.04319 0.0
O431 O 0.26572 0.65973 0.01374 0.0
O432 O 0.3004 0.70128 0.98935 0.0
O433 O 0.43164 0.73161 0.99385 0.0
O434 O 0.4038 0.77011 0.0128 0.0
O435 O 0.28789 0.61557 0.05424 0.0
O436 O 0.26473 0.63652 0.02978 0.0
O437 O 0.38766 0.7761 0.02979 0.0
O438 O 0.35201 0.75602 0.05551 0.0
C439 C 0.37442 0.79091 0.04369 0.0
O440 O 0.38529 0.63187 0.01472 0.0
O441 O 0.32079 0.59501 0.99518 0.0
C442 C 0.43433 0.66387 0.04479 0.0
C443 C 0.35851 0.59363 1.00354 0.0
Zn444 Zn 0.34474 0.69874 0.54997 0.0
Zn445 Zn 0.38462 0.71462 0.49498 0.0
Zn446 Zn 0.34867 0.68379 0.5213 0.0
C447 C 0.37444 0.79836 0.50066 0.0
C448 C 0.27212 0.61844 0.49383 0.0
O449 O 0.37908 0.6307 0.53179 0.0
O450 O 0.37903 0.65486 0.55828 0.0
C451 C 0.41931 0.79812 0.54418 0.0
O452 O 0.36506 0.77113 0.51474 0.0
O453 O 0.39075 0.78322 0.48798 0.0
O454 O 0.31734 0.64636 0.48578 0.0
O455 O 0.26943 0.63115 0.5093 0.0
O456 O 0.38164 0.7779 0.5552 0.0
O457 O 0.41114 0.77161 0.53004 0.0
O458 O 0.25729 0.64025 0.52699 0.0
O459 O 0.26661 0.66313 0.55404 0.0
C460 C 0.23573 0.63995 0.54149 0.0
O461 O 0.4009 0.64675 0.51324 0.0
O462 O 0.45421 0.71538 0.49601 0.0
C463 C 0.38439 0.62396 0.54766 0.0
C464 C 0.44428 0.67162 0.50366 0.0
Zn465 Zn 0.33442 0.68434 0.29158 0.0
Zn466 Zn 0.33343 0.64116 0.34837 0.0
Zn467 Zn 0.34028 0.67695 0.32096 0.0
C468 C 0.44383 0.6949 0.34356 0.0
C469 C 0.25017 0.55358 0.33889 0.0
O470 O 0.2944 0.72316 0.31523 0.0
O471 O 0.27191 0.69538 0.2887 0.0
C472 C 0.44404 0.75433 0.29952 0.0
O473 O 0.42772 0.70992 0.33028 0.0
O474 O 0.40858 0.66038 0.35374 0.0
O475 O 0.28153 0.56346 0.35145 0.0
O476 O 0.26847 0.58688 0.3259 0.0
O477 O 0.40913 0.75031 0.2886 0.0
O478 O 0.42754 0.7243 0.31301 0.0
O479 O 0.31237 0.59215 0.31162 0.0
O480 O 0.32938 0.61482 0.28481 0.0
C481 C 0.32362 0.58199 0.29668 0.0
O482 O 0.31612 0.73113 0.33332 0.0
O483 O 0.30888 0.69187 0.35813 0.0
C484 C 0.26748 0.71985 0.30152 0.0
C485 C 0.31055 0.73102 0.34948 0.0
C486 C 0.21795 0.23279 0.19702 0.0
C487 C 0.21331 0.20274 0.21218 0.0
C488 C 0.17426 0.11757 0.19524 0.0
C489 C 0.16306 0.14454 0.18205 0.0
N490 N 0.1766 0.22912 0.1696 0.0
N491 N 0.17798 0.11216 0.2256 0.0
C492 C 0.18648 0.20288 0.18259 0.0
C493 C 0.18999 0.14388 0.21127 0.0
N494 N 0.25362 0.28895 0.19608 0.0
N495 N 0.16596 0.06541 0.19273 0.0
H496 H 0.18176 0.12798 0.2378 0.0
H497 H 0.15715 0.06875 0.22528 0.0
H498 H 0.15498 0.04634 0.18084 0.0
H499 H 0.17635 0.04475 0.20176 0.0
H500 H 0.2606 0.31151 0.1849 0.0
H501 H 0.28143 0.31171 0.20574 0.0
H502 H 0.18703 0.27075 0.17012 0.0
H503 H 0.15565 0.20775 0.15863 0.0
C504 C 0.80202 0.96918 0.20078 0.0
C505 C 0.81596 0.01593 0.21132 0.0
C506 C 0.88834 0.07707 0.19099 0.0
C507 C 0.87712 0.02953 0.18154 0.0
N508 N 0.81214 0.93629 0.17319 0.0
N509 N 0.86251 0.11658 0.21417 0.0
C510 C 0.82896 0.97792 0.18488 0.0
C511 C 0.85582 0.07075 0.20565 0.0
N512 N 0.76739 0.91625 0.20654 0.0
N513 N 0.93272 0.12743 0.18655 0.0
H514 H 0.84057 0.11442 0.22509 0.0
H515 H 0.88653 0.15714 0.20968 0.0
H516 H 0.95443 0.13284 0.17526 0.0
H517 H 0.94872 0.16306 0.19403 0.0
H518 H 0.7605 0.88075 0.20003 0.0
H519 H 0.74963 0.90735 0.21859 0.0
H520 H 0.77513 0.89831 0.17414 0.0
H521 H 0.83339 0.94268 0.16173 0.0
C522 C 0.96809 0.85423 0.21394 0.0
C523 C 0.00124 0.82866 0.2135 0.0
C524 C 0.01968 0.85192 0.18334 0.0
C525 C 0.98673 0.87722 0.18403 0.0
N526 N 0.91159 0.88084 0.19754 0.0
N527 N 0.03976 0.78469 0.19594 0.0
C528 C 0.95406 0.86994 0.19849 0.0
C529 C 0.02139 0.82165 0.19762 0.0
N530 N 0.95352 0.86757 0.22902 0.0
N531 N 0.05061 0.85843 0.16922 0.0
H532 H 0.03762 0.75839 0.2057 0.0
H533 H 0.05087 0.77543 0.1843 0.0
H534 H 0.04707 0.87779 0.15834 0.0
H535 H 0.08066 0.84665 0.16865 0.0
H536 H 0.93335 0.89049 0.22976 0.0
H537 H 0.96729 0.86188 0.24073 0.0
H538 H 0.88423 0.87338 0.20755 0.0
H539 H 0.90024 0.89085 0.18604 0.0
C540 C 0.2082 0.20928 0.31196 0.0
C541 C 0.18827 0.2238 0.2973 0.0
C542 C 0.10626 0.20525 0.31378 0.0
C543 C 0.11675 0.17271 0.32507 0.0
N544 N 0.18166 0.14833 0.33638 0.0
N545 N 0.11113 0.22862 0.28431 0.0
C546 C 0.16969 0.17735 0.3249 0.0
C547 C 0.13584 0.22141 0.29828 0.0
N548 N 0.26342 0.22714 0.31385 0.0
N549 N 0.06429 0.21536 0.31724 0.0
H550 H 0.12602 0.23194 0.27202 0.0
H551 H 0.07136 0.22338 0.28465 0.0
H552 H 0.0426 0.20237 0.3287 0.0
H553 H 0.05603 0.2413 0.30976 0.0
H554 H 0.27974 0.22003 0.32483 0.0
H555 H 0.29371 0.25523 0.30554 0.0
H556 H 0.21682 0.14428 0.3356 0.0
H557 H 0.15456 0.12665 0.34627 0.0
C558 C 0.87407 0.04667 0.30558 0.0
C559 C 0.82157 0.00393 0.2998 0.0
C560 C 0.82054 0.94084 0.32175 0.0
C561 C 0.8737 0.98308 0.3271 0.0
N562 N 0.93915 0.08112 0.32893 0.0
N563 N 0.7367 0.91853 0.30627 0.0
C564 C 0.89663 0.03772 0.32057 0.0
C565 C 0.79215 0.95338 0.30911 0.0
N566 N 0.90403 0.09428 0.29632 0.0
N567 N 0.79783 0.88859 0.32849 0.0
H568 H 0.71423 0.9284 0.29781 0.0
H569 H 0.71193 0.88332 0.31357 0.0
H570 H 0.81643 0.87929 0.33848 0.0
H571 H 0.76206 0.85429 0.32372 0.0
H572 H 0.94521 0.12378 0.29909 0.0
H573 H 0.88943 0.10218 0.2851 0.0
H574 H 0.95367 0.12253 0.32571 0.0
H575 H 0.95472 0.07543 0.34029 0.0
C576 C 0.97299 0.80825 0.3105 0.0
C577 C 0.01822 0.81914 0.29969 0.0
C578 C 0.0811 0.90007 0.31693 0.0
C579 C 0.03485 0.89285 0.32621 0.0
N580 N 0.94433 0.83024 0.33717 0.0
N581 N 0.11779 0.85927 0.29746 0.0
C582 C 0.98364 0.84251 0.325 0.0
C583 C 0.07334 0.8598 0.30454 0.0
N584 N 0.91976 0.76906 0.30628 0.0
N585 N 0.13133 0.94726 0.31926 0.0
H586 H 0.11299 0.82813 0.28909 0.0
H587 H 0.15871 0.88564 0.30129 0.0
H588 H 0.13733 0.97578 0.32883 0.0
H589 H 0.16564 0.95869 0.31148 0.0
H590 H 0.88506 0.76385 0.31287 0.0
H591 H 0.90951 0.74413 0.29553 0.0
H592 H 0.90708 0.79238 0.3378 0.0
H593 H 0.9522 0.85656 0.34755 0.0
C594 C 0.86397 0.82221 0.80457 0.0
C595 C 0.81097 0.81326 0.80009 0.0
C596 C 0.81917 0.88242 0.8208 0.0
C597 C 0.87436 0.8956 0.82387 0.0
N598 N 0.94145 0.86548 0.82411 0.0
N599 N 0.72977 0.81651 0.80846 0.0
C600 C 0.89349 0.86027 0.81778 0.0
C601 C 0.78563 0.83726 0.80982 0.0
N602 N 0.888 0.79837 0.79532 0.0
N603 N 0.80024 0.91479 0.82763 0.0
H604 H 0.70477 0.78206 0.80083 0.0
H605 H 0.70789 0.82953 0.81606 0.0
H606 H 0.82421 0.94676 0.83614 0.0
H607 H 0.76216 0.911 0.82449 0.0
H608 H 0.9295 0.80927 0.79662 0.0
H609 H 0.86721 0.76963 0.78567 0.0
H610 H 0.95466 0.83732 0.82142 0.0
H611 H 0.96484 0.89501 0.83334 0.0
C612 C 0.2218 0.0343 0.81112 0.0
C613 C 0.19502 0.99594 0.79757 0.0
C614 C 0.11557 0.94249 0.81628 0.0
C615 C 0.13409 0.98945 0.82663 0.0
N616 N 0.20788 0.0782 0.8358 0.0
N617 N 0.11079 0.91405 0.7873 0.0
C618 C 0.18894 0.03428 0.82489 0.0
C619 C 0.14077 0.94907 0.80024 0.0
N620 N 0.27806 0.06927 0.81111 0.0
N621 N 0.07097 0.89338 0.82129 0.0
H622 H 0.12364 0.92066 0.7747 0.0
H623 H 0.06967 0.88215 0.78875 0.0
H624 H 0.05266 0.88975 0.83314 0.0
H625 H 0.05694 0.85628 0.81461 0.0
H626 H 0.29943 0.09539 0.82126 0.0
H627 H 0.30403 0.06729 0.80198 0.0
H628 H 0.24519 0.11548 0.83406 0.0
H629 H 0.18429 0.07724 0.84623 0.0
C630 C 0.06823 0.23693 0.80897 0.0
C631 C 0.01898 0.2054 0.79929 0.0
C632 C 0.98921 0.12843 0.8193 0.0
C633 C 0.0432 0.15521 0.82657 0.0
N634 N 0.13482 0.23575 0.82855 0.0
N635 N 0.93203 0.12018 0.79503 0.0
C636 C 0.08285 0.20999 0.82156 0.0
C637 C 0.97876 0.15113 0.80455 0.0
N638 N 0.0996 0.2931 0.80662 0.0
N639 N 0.94794 0.08138 0.82661 0.0
H640 H 0.92281 0.13567 0.78423 0.0
H641 H 0.90438 0.078 0.79713 0.0
H642 H 0.95505 0.06497 0.83752 0.0
H643 H 0.90646 0.06216 0.82287 0.0
H644 H 0.13347 0.31927 0.81421 0.0
H645 H 0.08753 0.31415 0.79831 0.0
H646 H 0.16767 0.27302 0.82396 0.0
H647 H 0.14567 0.21825 0.83849 0.0
C648 C 0.83276 0.87552 0.70481 0.0
C649 C 0.8269 0.82576 0.71157 0.0
C650 C 0.89375 0.82836 0.69061 0.0
C651 C 0.89984 0.87846 0.68402 0.0
N652 N 0.86401 0.94027 0.68139 0.0
N653 N 0.84174 0.74775 0.70878 0.0
C654 C 0.86555 0.89879 0.69003 0.0
C655 C 0.85426 0.79988 0.70377 0.0
N656 N 0.80984 0.9024 0.71306 0.0
N657 N 0.92715 0.80925 0.68466 0.0
H658 H 0.81361 0.72609 0.71847 0.0
H659 H 0.85571 0.72414 0.70253 0.0
H660 H 0.95416 0.82785 0.67444 0.0
H661 H 0.92979 0.77665 0.69019 0.0
H662 H 0.81882 0.94258 0.71003 0.0
H663 H 0.78522 0.88651 0.72387 0.0
H664 H 0.83601 0.95341 0.6843 0.0
H665 H 0.88708 0.95715 0.67035 0.0
C666 C 0.21846 0.06091 0.70298 0.0
C667 C 0.19845 0.00717 0.71013 0.0
C668 C 0.12948 0.96679 0.68751 0.0
C669 C 0.14016 0.02084 0.68344 0.0
N670 N 0.19717 0.12012 0.68582 0.0
N671 N 0.13588 0.90759 0.70884 0.0
C672 C 0.18611 0.0683 0.69052 0.0
C673 C 0.15515 0.95936 0.70204 0.0
N674 N 0.26896 0.10423 0.70782 0.0
N675 N 0.09358 0.92279 0.67767 0.0
H676 H 0.15284 0.90043 0.71966 0.0
H677 H 0.10056 0.87204 0.70445 0.0
H678 H 0.07464 0.92811 0.66696 0.0
H679 H 0.08701 0.88266 0.67907 0.0
H680 H 0.28758 0.14352 0.70223 0.0
H681 H 0.295 0.09886 0.71612 0.0
H682 H 0.22574 0.15652 0.69204 0.0
H683 H 0.17573 0.12597 0.67596 0.0
C684 C 0.97766 0.2019 0.70025 0.0
C685 C 0.02044 0.21437 0.7122 0.0
C686 C 0.04854 0.15837 0.696 0.0
C687 C -0.00319 0.13364 0.68737 0.0
N688 N 0.91551 0.13632 0.67911 0.0
N689 N 0.09866 0.20639 0.72139 0.0
C690 C 0.96281 0.15762 0.68858 0.0
C691 C 0.05755 0.19438 0.70983 0.0
N692 N 0.95174 0.23246 0.70019 0.0
N693 N 0.0878 0.14543 0.69132 0.0
H694 H 0.10695 0.23348 0.73156 0.0
H695 H 0.12231 0.18695 0.72147 0.0
H696 H 0.08225 0.12033 0.68085 0.0
H697 H 0.12763 0.16455 0.69648 0.0
H698 H 0.92269 0.228 0.69109 0.0
H699 H 0.96346 0.26596 0.70844 0.0
H700 H 0.88565 0.14804 0.68053 0.0
H701 H 0.90622 0.10561 0.67002 0.0
C702 C 0.865 0.48047 0.54392 0.0
C703 C 0.88173 0.5381 0.54501 0.0
C704 C 0.83952 0.5314 0.51722 0.0
C705 C 0.82281 0.47435 0.51664 0.0
N706 N 0.84276 0.40352 0.52493 0.0
N707 N 0.90224 0.6217 0.52945 0.0
C708 C 0.84504 0.45271 0.52829 0.0
C709 C 0.87452 0.56495 0.53064 0.0
N710 N 0.86247 0.45046 0.55797 0.0
N711 N 0.82045 0.5527 0.50516 0.0
H712 H 0.93181 0.64771 0.53828 0.0
H713 H 0.90075 0.64271 0.51871 0.0
H714 H 0.79868 0.52909 0.49461 0.0
H715 H 0.82509 0.59225 0.5059 0.0
H716 H 0.84728 0.40768 0.55761 0.0
H717 H 0.86761 0.46582 0.57029 0.0
H718 H 0.86131 0.38717 0.53272 0.0
H719 H 0.82704 0.38263 0.51346 0.0
C720 C 0.49881 0.32217 0.53722 0.0
C721 C 0.49975 0.36686 0.5462 0.0
C722 C 0.57065 0.43384 0.52656 0.0
C723 C 0.5706 0.38918 0.5179 0.0
N724 N 0.52055 0.29066 0.51129 0.0
N725 N 0.52781 0.4646 0.54731 0.0
C726 C 0.52998 0.33326 0.52196 0.0
C727 C 0.53293 0.42255 0.54019 0.0
N728 N 0.47121 0.26951 0.54384 0.0
N729 N 0.60833 0.48736 0.52196 0.0
H730 H 0.50186 0.45889 0.55754 0.0
H731 H 0.54578 0.50461 0.54229 0.0
H732 H 0.63301 0.49666 0.51112 0.0
H733 H 0.61658 0.52229 0.52904 0.0
H734 H 0.47474 0.2366 0.53897 0.0
H735 H 0.449 0.25964 0.55518 0.0
H736 H 0.48812 0.2499 0.51297 0.0
H737 H 0.54025 0.29658 0.49965 0.0
C738 C 0.70777 0.23418 0.55127 0.0
C739 C 0.70087 0.18135 0.54769 0.0
C740 C 0.68294 0.1913 0.51773 0.0
C741 C 0.67893 0.23859 0.52226 0.0
N742 N 0.72404 0.32042 0.53934 0.0
N743 N 0.68747 0.1106 0.52745 0.0
C744 C 0.7016 0.26453 0.538 0.0
C745 C 0.69115 0.16056 0.53081 0.0
N746 N 0.71978 0.25528 0.56736 0.0
N747 N 0.68409 0.17886 0.50108 0.0
H748 H 0.69641 0.08885 0.53648 0.0
H749 H 0.67319 0.08943 0.516 0.0
H750 H 0.68696 0.20554 0.49138 0.0
H751 H 0.69019 0.14686 0.49688 0.0
H752 H 0.7181 0.29039 0.57105 0.0
H753 H 0.72912 0.23629 0.57722 0.0
H754 H 0.74499 0.34379 0.54998 0.0
H755 H 0.72946 0.34331 0.52843 0.0
C756 C 0.89038 0.55192 0.64668 0.0
C757 C 0.86635 0.54252 0.63016 0.0
C758 C 0.77457 0.49442 0.64315 0.0
C759 C 0.79827 0.48994 0.65838 0.0
N760 N 0.87912 0.51533 0.6753 0.0
N761 N 0.78295 0.49319 0.61289 0.0
C762 C 0.85649 0.51948 0.66043 0.0
C763 C 0.80754 0.51127 0.62839 0.0
N764 N 0.94413 0.59284 0.64943 0.0
N765 N 0.71979 0.47918 0.64267 0.0
H766 H 0.8052 0.4979 0.6018 0.0
H767 H 0.74021 0.46678 0.61146 0.0
H768 H 0.69585 0.46816 0.6537 0.0
H769 H 0.7009 0.48417 0.63192 0.0
H770 H 0.96172 0.60329 0.6615 0.0
H771 H 0.96894 0.62079 0.64006 0.0
H772 H 0.92162 0.53105 0.67691 0.0
H773 H 0.85437 0.49397 0.68572 0.0
C774 C 0.51714 0.40134 0.64298 0.0
C775 C 0.47584 0.35255 0.63472 0.0
C776 C 0.48983 0.2943 0.65533 0.0
C777 C 0.53412 0.34311 0.66244 0.0
N778 N 0.57385 0.44014 0.66821 0.0
N779 N 0.41029 0.25365 0.63637 0.0
C780 C 0.5413 0.39559 0.65812 0.0
C781 C 0.45784 0.29922 0.64206 0.0
N782 N 0.53688 0.45258 0.63573 0.0
N783 N 0.48094 0.24365 0.66055 0.0
H784 H 0.38577 0.25595 0.62678 0.0
H785 H 0.3925 0.21467 0.64213 0.0
H786 H 0.50237 0.23973 0.67082 0.0
H787 H 0.45383 0.20624 0.65455 0.0
H788 H 0.57135 0.48854 0.64034 0.0
H789 H 0.52202 0.45879 0.6243 0.0
H790 H 0.57848 0.47943 0.6665 0.0
H791 H 0.59105 0.43515 0.67938 0.0
C792 C 0.74062 0.22719 0.63439 0.0
C793 C 0.70116 0.16951 0.63212 0.0
C794 C 0.66869 0.1653 0.66129 0.0
C795 C 0.70609 0.22303 0.66302 0.0
N796 N 0.79335 0.30109 0.65468 0.0
N797 N 0.64477 0.08049 0.64612 0.0
C798 C 0.74812 0.2508 0.65081 0.0
C799 C 0.67039 0.1373 0.64642 0.0
N800 N 0.76758 0.26071 0.62084 0.0
N801 N 0.63011 0.13803 0.67365 0.0
H802 H 0.649 0.05847 0.6361 0.0
H803 H 0.625 0.05565 0.65664 0.0
H804 H 0.63143 0.15759 0.68508 0.0
H805 H 0.59667 0.0976 0.67229 0.0
H806 H 0.79304 0.30376 0.6219 0.0
H807 H 0.75975 0.24713 0.60831 0.0
H808 H 0.82737 0.3219 0.64659 0.0
H809 H 0.79911 0.31822 0.6668 0.0
C810 C 0.45982 0.17227 0.14347 0.0
C811 C 0.48985 0.15534 0.13289 0.0
C812 C 0.56513 0.19409 0.1536 0.0
C813 C 0.5427 0.22515 0.16079 0.0
N814 N 0.46542 0.23994 0.16399 0.0
N815 N 0.57198 0.14862 0.1283 0.0
C816 C 0.48856 0.2125 0.15631 0.0
C817 C 0.54243 0.16474 0.13822 0.0
N818 N 0.40369 0.14817 0.14163 0.0
N819 N 0.60727 0.19201 0.16166 0.0
H820 H 0.5567 0.12716 0.11692 0.0
H821 H 0.6131 0.16003 0.13087 0.0
H822 H 0.62143 0.2103 0.17354 0.0
H823 H 0.623 0.16699 0.1576 0.0
H824 H 0.3789 0.1558 0.1498 0.0
H825 H 0.38158 0.11545 0.13316 0.0
H826 H 0.42825 0.23669 0.15997 0.0
H827 H 0.48497 0.2675 0.17405 0.0
C828 C 0.88789 0.34776 0.14729 0.0
C829 C 0.87927 0.37093 0.13223 0.0
C830 C 0.81049 0.38457 0.14705 0.0
C831 C 0.81002 0.3507 0.16041 0.0
N832 N 0.86587 0.32657 0.17725 0.0
N833 N 0.8341 0.41419 0.11792 0.0
C834 C 0.85412 0.33995 0.16179 0.0
C835 C 0.84139 0.39067 0.13219 0.0
N836 N 0.92611 0.33074 0.14743 0.0
N837 N 0.78586 0.41537 0.14957 0.0
H838 H 0.85813 0.42195 0.10701 0.0
H839 H 0.80233 0.42338 0.11668 0.0
H840 H 0.77235 0.41732 0.16171 0.0
H841 H 0.78727 0.44446 0.14095 0.0
H842 H 0.92996 0.3079 0.15725 0.0
H843 H 0.95279 0.33751 0.13733 0.0
H844 H 0.89939 0.32086 0.17965 0.0
H845 H 0.84599 0.32903 0.18814 0.0
C846 C 0.62921 0.50239 0.14174 0.0
C847 C 0.67858 0.53823 0.13265 0.0
C848 C 0.73285 0.51931 0.15334 0.0
C849 C 0.68309 0.47459 0.15972 0.0
N850 N 0.58318 0.42268 0.16049 0.0
N851 N 0.7785 0.57948 0.12948 0.0
C852 C 0.63102 0.46701 0.15442 0.0
C853 C 0.73091 0.54708 0.13851 0.0
N854 N 0.58024 0.49991 0.13777 0.0
N855 N 0.78205 0.53363 0.16112 0.0
H856 H 0.78023 0.60187 0.11869 0.0
H857 H 0.8161 0.58142 0.13205 0.0
H858 H 0.78406 0.51287 0.17186 0.0
H859 H 0.81954 0.56917 0.15804 0.0
H860 H 0.54458 0.47904 0.14519 0.0
H861 H 0.57581 0.52168 0.12773 0.0
H862 H 0.54382 0.40992 0.15559 0.0
H863 H 0.58348 0.39649 0.16988 0.0
C864 C 0.50126 0.24091 0.04569 0.0
C865 C 0.46729 0.18211 0.04537 0.0
C866 C 0.48316 0.1814 0.01482 0.0
C867 C 0.52192 0.23924 0.01565 0.0
N868 N 0.54791 0.3264 0.02931 0.0
N869 N 0.41513 0.09707 0.02934 0.0
C870 C 0.52417 0.2699 0.03026 0.0
C871 C 0.45401 0.15263 0.02974 0.0
N872 N 0.51311 0.26873 0.06079 0.0
N873 N 0.47727 0.15413 0.99987 0.0
H874 H 0.3948 0.07428 0.04015 0.0
H875 H 0.40067 0.07373 0.01828 0.0
H876 H 0.4967 0.17571 0.98877 0.0
H877 H 0.45439 0.11112 0.99838 0.0
H878 H 0.54294 0.3107 0.06211 0.0
H879 H 0.49524 0.24894 0.07224 0.0
H880 H 0.54811 0.35095 0.0393 0.0
H881 H 0.56107 0.34783 0.01785 0.0
C882 C 0.87191 0.41221 0.04096 0.0
C883 C 0.88712 0.37082 0.04367 0.0
C884 C 0.85782 0.33672 0.01469 0.0
C885 C 0.83665 0.37327 0.013 0.0
N886 N 0.85259 0.46417 0.0199 0.0
N887 N 0.91673 0.31156 0.03042 0.0
C888 C 0.85394 0.41764 0.02456 0.0
C889 C 0.88709 0.33847 0.02968 0.0
N890 N 0.87136 0.44404 0.05409 0.0
N891 N 0.84785 0.2991 1.0021 0.0
H892 H 0.94164 0.31488 0.04073 0.0
H893 H 0.92162 0.29097 0.02013 0.0
H894 H 0.82984 0.30032 0.9906 0.0
H895 H 0.85569 0.26637 1.00325 0.0
H896 H 0.85983 0.47408 0.05274 0.0
H897 H 0.87679 0.43699 0.06672 0.0
H898 H 0.86751 0.4995 0.02749 0.0
H899 H 0.84362 0.46991 0.00748 0.0
C900 C 0.72188 0.54764 0.0326 0.0
C901 C 0.72871 0.54258 0.05017 0.0
C902 C 0.7385 0.46088 0.04498 0.0
C903 C 0.72436 0.46151 0.02766 0.0
N904 N 0.6982 0.50252 1.00509 0.0
N905 N 0.75211 0.50162 0.0732 0.0
C906 C 0.7163 0.50493 0.02136 0.0
C907 C 0.73993 0.50137 0.05636 0.0
N908 N 0.71956 0.59273 0.02677 0.0
N909 N 0.74961 0.42078 0.05048 0.0
H910 H 0.75743 0.53334 0.08142 0.0
H911 H 0.75847 0.47201 0.07918 0.0
H912 H 0.75307 0.3933 0.04227 0.0
H913 H 0.75768 0.41524 0.06296 0.0
H914 H 0.71993 0.60211 0.01398 0.0
H915 H 0.72201 0.6237 0.0348 0.0
H916 H 0.68559 0.52918 1.00023 0.0
H917 H 0.69196 0.47129 0.99656 0.0
C918 C 0.56025 0.84399 0.86999 0.0
C919 C 0.54331 0.88113 0.87632 0.0
C920 C 0.47842 0.85566 0.85267 0.0
C921 C 0.4844 0.80891 0.84966 0.0
N922 N 0.53497 0.76113 0.85328 0.0
N923 N 0.48743 0.92471 0.87309 0.0
C924 C 0.52753 0.80459 0.8574 0.0
C925 C 0.50388 0.88905 0.8672 0.0
N926 N 0.60804 0.84735 0.87577 0.0
N927 N 0.44593 0.86579 0.842 0.0
H928 H 0.50377 0.94882 0.88396 0.0
H929 H 0.45467 0.92762 0.86785 0.0
H930 H 0.42671 0.84057 0.83144 0.0
H931 H 0.44259 0.90141 0.84263 0.0
H932 H 0.62451 0.82397 0.87086 0.0
H933 H 0.63442 0.87806 0.88425 0.0
H934 H 0.561 0.75107 0.85995 0.0
H935 H 0.5131 0.73405 0.84333 0.0
C936 C 0.17065 0.64897 0.87281 0.0
C937 C 0.16471 0.69288 0.87966 0.0
C938 C 0.23371 0.75844 0.85929 0.0
C939 C 0.24018 0.71485 0.85258 0.0
N940 N 0.20419 0.61652 0.84964 0.0
N941 N 0.17467 0.78316 0.875 0.0
C942 C 0.20474 0.65931 0.85821 0.0
C943 C 0.19155 0.74586 0.87156 0.0
N944 N 0.14685 0.59851 0.88081 0.0
N945 N 0.26872 0.81211 0.85426 0.0
H946 H 0.1407 0.77313 0.88279 0.0
H947 H 0.18946 0.82074 0.86855 0.0
H948 H 0.29821 0.82243 0.84469 0.0
H949 H 0.27046 0.84639 0.86023 0.0
H950 H 0.15483 0.56695 0.87748 0.0
H951 H 0.12236 0.58944 0.89164 0.0
H952 H 0.17508 0.57473 0.85177 0.0
H953 H 0.23077 0.62352 0.83949 0.0
C954 C 0.39056 0.5509 0.87796 0.0
C955 C 0.35785 0.49235 0.87873 0.0
C956 C 0.30156 0.49164 0.85469 0.0
C957 C 0.33191 0.55041 0.8548 0.0
N958 N 0.41849 0.63348 0.86116 0.0
N959 N 0.29576 0.406 0.86474 0.0
C960 C 0.38134 0.579 0.86455 0.0
C961 C 0.31798 0.46226 0.86592 0.0
N962 N 0.42795 0.57982 0.89053 0.0
N963 N 0.25615 0.46455 0.84445 0.0
H964 H 0.308 0.38436 0.87282 0.0
H965 H 0.26926 0.38194 0.855 0.0
H966 H 0.24518 0.48613 0.83593 0.0
H967 H 0.22902 0.42166 0.84475 0.0
H968 H 0.44746 0.62295 0.8918 0.0
H969 H 0.43699 0.56024 0.90029 0.0
H970 H 0.45662 0.65611 0.8673 0.0
H971 H 0.41356 0.65333 0.85067 0.0
C972 C 0.47451 0.85409 0.96225 0.0
C973 C 0.53337 0.88007 0.96253 0.0
C974 C 0.52988 0.85293 0.99226 0.0
C975 C 0.47144 0.82729 0.99174 0.0
N976 N 0.39112 0.8228 0.97897 0.0
N977 N 0.61738 0.92032 0.97947 0.0
C978 C 0.44507 0.83546 0.97769 0.0
C979 C 0.56141 0.88468 0.97808 0.0
N980 N 0.44624 0.84297 0.94725 0.0
N981 N 0.55474 0.8451 0.00605 0.0
H982 H 0.64147 0.94635 0.96962 0.0
H983 H 0.63876 0.9283 0.99091 0.0
H984 H 0.53209 0.82415 0.01685 0.0
H985 H 0.59676 0.85729 0.00644 0.0
H986 H 0.40302 0.81935 0.9465 0.0
H987 H 0.4656 0.85151 0.93544 0.0
H988 H 0.37047 0.83091 0.96936 0.0
H989 H 0.36975 0.8104 0.99046 0.0
C990 C 0.19823 0.74097 0.97357 0.0
C991 C 0.15187 0.69216 0.96696 0.0
C992 C 0.1629 0.63571 0.98889 0.0
C993 C 0.21123 0.68396 0.99461 0.0
N994 N 0.26063 0.78337 0.9974 0.0
N995 N 0.07729 0.59889 0.97282 0.0
C996 C 0.22283 0.73695 0.98884 0.0
C997 C 0.12995 0.64118 0.97609 0.0
N998 N 0.22217 0.7898 0.96465 0.0
N999 N 0.15031 0.58473 0.99498 0.0
H1000 H 0.0511 0.60393 0.96448 0.0
H1001 H 0.05769 0.56205 0.9798 0.0
H1002 H 0.17255 0.58029 1.0049 0.0
H1003 H 0.1193 0.54737 0.98982 0.0
H1004 H 0.25963 0.82467 0.96818 0.0
H1005 H 0.20791 0.79435 0.9529 0.0
H1006 H 0.26807 0.82324 0.99466 0.0
H1007 H 0.28067 0.78056 0.00821 0.0
C1008 C 0.34503 0.4723 0.98083 0.0
C1009 C 0.37054 0.50253 0.96569 0.0
C1010 C 0.4189 0.58726 0.98273 0.0
C1011 C 0.38048 0.56039 0.99594 0.0
N1012 N 0.30931 0.47607 0.00857 0.0
N1013 N 0.42962 0.59245 0.95237 0.0
C1014 C 0.34502 0.50212 0.99544 0.0
C1015 C 0.40809 0.56099 0.96667 0.0
N1016 N 0.32258 0.41586 0.98147 0.0
N1017 N 0.46311 0.63937 0.98526 0.0
H1018 H 0.41879 0.57648 0.94014 0.0
H1019 H 0.45332 0.63581 0.95263 0.0
H1020 H 0.47079 0.65863 0.99708 0.0
H1021 H 0.49463 0.65999 0.97634 0.0
H1022 H 0.30693 0.39289 0.99259 0.0
H1023 H 0.32579 0.393 0.97152 0.0
H1024 H 0.27751 0.43455 0.00813 0.0
H1025 H 0.3107 0.49757 0.0196 0.0
C1026 C 0.13649 0.50711 0.47324 0.0
C1027 C 0.16099 0.49038 0.4605 0.0
C1028 C 0.24787 0.53604 0.47602 0.0
C1029 C 0.22863 0.56623 0.48557 0.0
N1030 N 0.15121 0.57666 0.4943 0.0
N1031 N 0.24128 0.48906 0.44966 0.0
C1032 C 0.17155 0.55009 0.48476 0.0
C1033 C 0.21686 0.5041 0.46197 0.0
N1034 N 0.07999 0.48055 0.47462 0.0
N1035 N 0.29535 0.53694 0.48073 0.0
H1036 H 0.21974 0.46505 0.43916 0.0
H1037 H 0.28394 0.50399 0.44932 0.0
H1038 H 0.31689 0.55736 0.49171 0.0
H1039 H 0.30831 0.51154 0.47509 0.0
H1040 H 0.05956 0.48757 0.48453 0.0
H1041 H 0.05403 0.44692 0.46686 0.0
H1042 H 0.11114 0.57007 0.49289 0.0
H1043 H 0.17546 0.60729 0.50305 0.0
C1044 C 0.4735 0.60887 0.4704 0.0
C1045 C 0.52922 0.65245 0.46717 0.0
C1046 C 0.53564 0.68518 0.49636 0.0
C1047 C 0.47831 0.64728 0.49833 0.0
N1048 N 0.40834 0.55352 0.49256 0.0
N1049 N 0.61921 0.71037 0.48044 0.0
C1050 C 0.45269 0.60203 0.48717 0.0
C1051 C 0.56256 0.68383 0.48124 0.0
N1052 N 0.43884 0.57678 0.45768 0.0
N1053 N 0.56271 0.72512 0.50839 0.0
H1054 H 0.6403 0.70543 0.47029 0.0
H1055 H 0.64477 0.73104 0.49075 0.0
H1056 H 0.54292 0.72507 0.51966 0.0
H1057 H 0.60289 0.75871 0.50681 0.0
H1058 H 0.39717 0.5474 0.45983 0.0
H1059 H 0.44909 0.58278 0.44489 0.0
H1060 H 0.39146 0.51703 0.4854 0.0
H1061 H 0.39312 0.54939 0.5049 0.0
C1062 C 0.28612 0.82539 0.47269 0.0
C1063 C 0.32341 0.88256 0.46969 0.0
C1064 C 0.37729 0.88812 0.49498 0.0
C1065 C 0.34587 0.82954 0.49622 0.0
N1066 N 0.26155 0.74423 0.49015 0.0
N1067 N 0.39356 0.97199 0.48011 0.0
C1068 C 0.29631 0.79924 0.4866 0.0
C1069 C 0.36534 0.91531 0.48168 0.0
N1070 N 0.24384 0.79561 0.46148 0.0
N1071 N 0.41923 0.91668 0.50628 0.0
H1072 H 0.38389 0.99215 0.4707 0.0
H1073 H 0.42406 -0.00086 0.48849 0.0
H1074 H 0.42323 0.89659 0.51689 0.0
H1075 H 0.44805 0.95907 0.50555 0.0
H1076 H 0.21838 0.75252 0.46174 0.0
H1077 H 0.23489 0.81436 0.45146 0.0
H1078 H 0.22272 0.71956 0.48462 0.0
H1079 H 0.27094 0.72416 0.4996 0.0
C1080 C 0.14128 0.53344 0.36771 0.0
C1081 C 0.12193 0.47744 0.37216 0.0
C1082 C 0.16532 0.46498 0.34674 0.0
C1083 C 0.19041 0.52259 0.3435 0.0
N1084 N 0.18696 0.6064 0.34673 0.0
N1085 N 0.09893 0.38533 0.3634 0.0
C1086 C 0.17182 0.55447 0.35242 0.0
C1087 C 0.12826 0.4415 0.36074 0.0
N1088 N 0.1337 0.56725 0.37862 0.0
N1089 N 0.1796 0.43393 0.33687 0.0
H1090 H 0.07053 0.36763 0.37332 0.0
H1091 H 0.09915 0.35625 0.35515 0.0
H1092 H 0.20345 0.45074 0.32594 0.0
H1093 H 0.1685 0.39289 0.33947 0.0
H1094 H 0.15272 0.61025 0.37721 0.0
H1095 H 0.11012 0.55237 0.38968 0.0
H1096 H 0.17283 0.63133 0.352 0.0
H1097 H 0.21031 0.62208 0.33571 0.0
C1098 C 0.55029 0.67825 0.36335 0.0
C1099 C 0.54645 0.70341 0.37868 0.0
C1100 C 0.51887 0.75874 0.36151 0.0
C1101 C 0.50228 0.71894 0.34856 0.0
N1102 N 0.51166 0.64721 0.33515 0.0
N1103 N 0.52441 0.76921 0.39189 0.0
C1104 C 0.52259 0.68173 0.34867 0.0
C1105 C 0.53137 0.74539 0.37765 0.0
N1106 N 0.58186 0.65346 0.36254 0.0
N1107 N 0.51771 0.80638 0.35861 0.0
H1108 H 0.52265 0.75405 0.40408 0.0
H1109 H 0.51396 0.80022 0.39154 0.0
H1110 H 0.50595 0.81404 0.34678 0.0
H1111 H 0.5326 0.83904 0.3673 0.0
H1112 H 0.5884 0.6379 0.3513 0.0
H1113 H 0.6073 0.65498 0.37246 0.0
H1114 H 0.51953 0.61433 0.3351 0.0
H1115 H 0.49231 0.65091 0.32427 0.0
C1116 C 0.37287 0.83621 0.38473 0.0
C1117 C 0.34484 0.8661 0.38282 0.0
C1118 C 0.30048 0.81546 0.35661 0.0
C1119 C 0.32656 0.78337 0.35899 0.0
N1120 N 0.40364 0.77884 0.37126 0.0
N1121 N 0.29602 0.89746 0.36498 0.0
C1122 C 0.36784 0.79878 0.37182 0.0
C1123 C 0.31323 0.86013 0.36804 0.0
N1124 N 0.40364 0.84305 0.39901 0.0
N1125 N 0.26218 0.80196 0.34403 0.0
H1126 H 0.30561 0.93072 0.37312 0.0
H1127 H 0.27669 0.8985 0.3538 0.0
H1128 H 0.25313 0.77034 0.33538 0.0
H1129 H 0.23761 0.82012 0.34266 0.0
H1130 H 0.41899 0.81705 0.40229 0.0
H1131 H 0.41132 0.87308 0.40822 0.0
H1132 H 0.43517 0.7893 0.38001 0.0
H1133 H 0.40577 0.75672 0.36092 0.0
C1134 C 0.26911 0.10678 0.12104 0.0
C1135 C 0.2649 0.05757 0.11384 0.0
C1136 C 0.17222 0.00135 0.1261 0.0
C1137 C 0.17326 0.05082 0.13095 0.0
N1138 N 0.22419 0.14835 0.13714 0.0
N1139 N 0.21099 0.9586 0.10831 0.0
C1140 C 0.22254 0.10299 0.12981 0.0
C1141 C 0.21659 0.00474 0.11639 0.0
N1142 N 0.31691 0.15707 0.11903 0.0
N1143 N 0.12798 0.95111 0.13077 0.0
H1144 H 0.24144 0.95935 0.10046 0.0
H1145 H 0.17422 0.92028 0.10813 0.0
H1146 H 0.09498 0.94819 0.13786 0.0
H1147 H 0.12637 0.91318 0.1291 0.0
H1148 H 0.32209 0.1951 0.12291 0.0
H1149 H 0.35268 0.16156 0.11336 0.0
H1150 H 0.2591 0.18794 0.13771 0.0
H1151 H 0.19032 0.14546 0.14368 0.0
C1152 C 0.9211 0.1781 0.1123 0.0
C1153 C 0.96961 0.23213 0.11202 0.0
C1154 C 0.01297 0.20044 0.13291 0.0
C1155 C 0.97044 0.14505 0.13019 0.0
N1156 N 0.88326 0.0793 0.1175 0.0
N1157 N 0.06573 0.29184 0.12048 0.0
C1158 C 0.92395 0.13336 0.12004 0.0
C1159 C 0.01643 0.24289 0.12212 0.0
N1160 N 0.87184 0.1698 0.10593 0.0
N1161 N 0.05105 0.21191 0.14546 0.0
H1162 H 0.07237 0.3221 0.11151 0.0
H1163 H 0.10211 0.29955 0.12659 0.0
H1164 H 0.04883 0.18083 0.15342 0.0
H1165 H 0.08054 0.25232 0.14905 0.0
H1166 H 0.83452 0.13221 0.10707 0.0
H1167 H 0.86659 0.20182 0.1012 0.0
H1168 H 0.85178 0.06723 0.10853 0.0
H1169 H 0.88275 0.04631 0.124 0.0
C1170 C 0.83173 0.76371 0.12481 0.0
C1171 C 0.79959 0.76813 0.11158 0.0
C1172 C 0.84013 0.86662 0.11815 0.0
C1173 C 0.88209 0.86481 0.12791 0.0
N1174 N 0.91852 0.81013 0.14028 0.0
N1175 N 0.77531 0.82567 0.09493 0.0
C1176 C 0.8779 0.81284 0.13141 0.0
C1177 C 0.80381 0.82002 0.10815 0.0
N1178 N 0.81627 0.71291 0.13165 0.0
N1179 N 0.83477 0.91283 0.11864 0.0
H1180 H 0.74885 0.79262 0.08708 0.0
H1181 H 0.78181 0.86421 0.09088 0.0
H1182 H 0.85906 0.94651 0.12661 0.0
H1183 H 0.80231 0.9148 0.11275 0.0
H1184 H 0.83566 0.70758 0.1422 0.0
H1185 H 0.77924 0.67748 0.12816 0.0
H1186 H 0.91951 0.77336 0.14169 0.0
H1187 H 0.95325 0.84516 0.14516 0.0
C1188 C 0.09812 0.27362 0.38784 0.0
C1189 C 0.04888 0.26644 0.39582 0.0
C1190 C -0.0048 0.17608 0.38197 0.0
C1191 C 0.04513 0.17815 0.37731 0.0
N1192 N 0.14466 0.22807 0.37532 0.0
N1193 N 0.95133 0.20627 0.4023 0.0
C1194 C 0.09688 0.22704 0.37989 0.0
C1195 C -0.00267 0.21681 0.39315 0.0
N1196 N 0.14523 0.32489 0.3873 0.0
N1197 N 0.9456 0.13349 0.37623 0.0
H1198 H 0.95176 0.23286 0.41169 0.0
H1199 H 0.91424 0.16818 0.40195 0.0
H1200 H 0.94333 0.10254 0.36821 0.0
H1201 H 0.90788 0.13214 0.37803 0.0
H1202 H 0.18037 0.33314 0.38036 0.0
H1203 H 0.14747 0.3607 0.39226 0.0
H1204 H 0.18419 0.25999 0.3787 0.0
H1205 H 0.14418 0.19531 0.3687 0.0
C1206 C 0.81332 0.80064 0.40123 0.0
C1207 C 0.76404 0.80338 0.40235 0.0
C1208 C 0.80994 0.89429 0.38806 0.0
C1209 C 0.85895 0.89119 0.38705 0.0
N1210 N 0.90209 0.83477 0.38729 0.0
N1211 N 0.71041 0.84434 0.39244 0.0
C1212 C 0.85884 0.84204 0.39189 0.0
C1213 C 0.76072 0.84769 0.39443 0.0
N1214 N 0.81774 0.76022 0.40976 0.0
N1215 N 0.81088 0.94227 0.38359 0.0
H1216 H 0.67338 0.81063 0.3967 0.0
H1217 H 0.70465 0.8723 0.38516 0.0
H1218 H 0.84591 0.97663 0.37847 0.0
H1219 H 0.77807 0.94924 0.38588 0.0
H1220 H 0.8549 0.76003 0.41086 0.0
H1221 H 0.78559 0.72956 0.41704 0.0
H1222 H 0.90199 0.79759 0.38909 0.0
H1223 H 0.9355 0.86393 0.38002 0.0
C1224 C 0.18309 0.93162 0.38575 0.0
C1225 C 0.22443 0.97862 0.39486 0.0
C1226 C 0.19289 0.03681 0.3816 0.0
C1227 C 0.14443 0.98839 0.37588 0.0
N1228 N 0.09368 0.88937 0.37139 0.0
N1229 N 0.26505 0.07549 0.40279 0.0
C1230 C 0.14005 0.93564 0.37729 0.0
C1231 C 0.22921 0.03145 0.39289 0.0
N1232 N 0.18555 0.88381 0.38494 0.0
N1233 N 0.20225 0.08803 0.37683 0.0
H1234 H 0.29041 0.07288 0.41203 0.0
H1235 H 0.26557 0.11321 0.40309 0.0
H1236 H 0.17471 0.09249 0.36896 0.0
H1237 H 0.23915 0.12499 0.37934 0.0
H1238 H 0.15994 0.85034 0.37714 0.0
H1239 H 0.21655 0.87945 0.3909 0.0
H1240 H 0.08484 0.84887 0.37379 0.0
H1241 H 0.0629 0.89176 0.36455 0.0
C1242 C 0.79351 0.0046 0.8854 0.0
C1243 C 0.75668 0.9578 0.89536 0.0
C1244 C 0.8009 0.90687 0.88459 0.0
C1245 C 0.83713 0.95406 0.87485 0.0
N1246 N 0.85215 0.03645 0.86062 0.0
N1247 N 0.71501 0.85842 0.90046 0.0
C1248 C 0.82703 -0.0015 0.87324 0.0
C1249 C 0.75693 0.9068 0.89376 0.0
N1250 N 0.79992 0.05599 0.88839 0.0
N1251 N 0.81056 0.86346 0.88561 0.0
H1252 H 0.68103 0.85576 0.90683 0.0
H1253 H 0.71113 0.81966 0.89828 0.0
H1254 H 0.841 0.86218 0.8782 0.0
H1255 H 0.79029 0.83056 0.89412 0.0
H1256 H 0.82967 0.09194 0.88222 0.0
H1257 H 0.78079 0.06416 0.89844 0.0
H1258 H 0.84336 0.068 0.85802 0.0
H1259 H 0.8764 0.03126 0.85165 0.0
C1260 C 0.00794 0.80248 0.8896 0.0
C1261 C 0.05879 0.81281 0.897 0.0
C1262 C 0.10571 0.90778 0.8852 0.0
C1263 C 0.05493 0.8964 0.87778 0.0
N1264 N 0.96308 0.8296 0.86843 0.0
N1265 N 0.15931 0.8714 0.89839 0.0
C1266 C 0.00824 0.8421 0.87827 0.0
C1267 C 0.10884 0.86429 0.89376 0.0
N1268 N 0.9586 0.75737 0.8945 0.0
N1269 N 0.15009 0.96084 0.88469 0.0
H1270 H 0.16425 0.841 0.9045 0.0
H1271 H 0.19702 0.90572 0.89478 0.0
H1272 H 0.14937 0.99226 0.87763 0.0
H1273 H 0.18627 0.97412 0.89173 0.0
H1274 H 0.92002 0.75097 0.89066 0.0
H1275 H 0.95551 0.72973 0.90395 0.0
H1276 H 0.92937 0.78934 0.86703 0.0
H1277 H 0.96226 0.85902 0.86041 0.0
C1278 C 0.20843 0.21045 0.90689 0.0
C1279 C 0.21427 0.26332 0.90406 0.0
C1280 C 0.13008 0.221 0.88643 0.0
C1281 C 0.12557 0.16844 0.88896 0.0
N1282 N 0.17127 0.11691 0.89629 0.0
N1283 N 0.18917 0.32145 0.88801 0.0
C1284 C 0.16821 0.16438 0.89755 0.0
C1285 C 0.17764 0.26949 0.89286 0.0
N1286 N 0.23971 0.20364 0.91899 0.0
N1287 N 0.08829 0.22443 0.87851 0.0
H1288 H 0.22314 0.35789 0.89263 0.0
H1289 H 0.16784 0.32844 0.87837 0.0
H1290 H 0.05311 0.18975 0.8736 0.0
H1291 H 0.08672 0.26102 0.87777 0.0
H1292 H 0.23259 0.16466 0.92278 0.0
H1293 H 0.26906 0.23632 0.92642 0.0
H1294 H 0.20432 0.11361 0.90112 0.0
H1295 H 0.1443 0.08319 0.88872 0.0
C1296 C 0.03738 0.823 0.61094 0.0
C1297 C 0.98746 0.77127 0.60934 0.0
C1298 C 0.93473 0.81032 0.62256 0.0
C1299 C 0.98455 0.8622 0.62383 0.0
N1300 N 0.08476 0.91332 0.62465 0.0
N1301 N 0.89244 0.71088 0.61826 0.0
C1302 C 0.03644 0.86702 0.61974 0.0
C1303 C 0.9372 0.76339 0.61659 0.0
N1304 N 0.08507 0.83085 0.60346 0.0
N1305 N 0.88498 0.80637 0.62633 0.0
H1306 H 0.89307 0.67549 0.61431 0.0
H1307 H 0.85679 0.70191 0.62504 0.0
H1308 H 0.88186 0.83964 0.63111 0.0
H1309 H 0.84666 0.77115 0.62377 0.0
H1310 H 0.1212 0.86961 0.60256 0.0
H1311 H 0.08734 0.7993 0.59701 0.0
H1312 H 0.12379 0.91727 0.62337 0.0
H1313 H 0.08526 0.94541 0.63167 0.0
C1314 C 0.25025 0.22255 0.62631 0.0
C1315 C 0.26073 0.21569 0.60903 0.0
C1316 C 0.1839 0.11913 0.61013 0.0
C1317 C 0.16724 0.12973 0.62599 0.0
N1318 N 0.18129 0.19345 0.64866 0.0
N1319 N 0.2318 0.15877 0.58375 0.0
C1320 C 0.19984 0.18178 0.63407 0.0
C1321 C 0.22653 0.16402 0.60078 0.0
N1322 N 0.28889 0.26701 0.6355 0.0
N1323 N 0.158 0.06603 0.60391 0.0
H1324 H 0.26047 0.19134 0.57617 0.0
H1325 H 0.20389 0.12382 0.57682 0.0
H1326 H 0.12673 0.0324 0.61061 0.0
H1327 H 0.17135 0.05467 0.59308 0.0
H1328 H 0.28545 0.27088 0.64852 0.0
H1329 H 0.32717 0.29699 0.63058 0.0
H1330 H 0.20021 0.23296 0.65411 0.0
H1331 H 0.14461 0.1643 0.65464 0.0
C1332 C 0.79308 0.01999 0.6268 0.0
C1333 C 0.80618 0.06318 0.61485 0.0
C1334 C 0.90378 0.10916 0.62388 0.0
C1335 C 0.88999 0.06535 0.63544 0.0
N1336 N 0.82009 -0.00207 0.65348 0.0
N1337 N 0.87056 0.15997 0.60753 0.0
C1338 C 0.83386 0.02706 0.63876 0.0
C1339 C 0.86055 0.11143 0.61501 0.0
N1340 N 0.74344 0.97107 0.62626 0.0
N1341 N 0.95834 0.14731 0.62097 0.0
H1342 H 0.83949 0.16547 0.6022 0.0
H1343 H 0.90858 0.19694 0.6085 0.0
H1344 H 0.99022 0.14775 0.62808 0.0
H1345 H 0.97156 0.17638 0.61117 0.0
H1346 H 0.73453 0.93747 0.63415 0.0
H1347 H 0.71399 0.96147 0.61675 0.0
H1348 H 0.77919 0.97103 0.65728 0.0
H1349 H 0.85051 0.00891 0.66271 0.0
C1350 C 0.88299 0.33668 0.45241 0.0
C1351 C 0.92963 0.38906 0.44806 0.0
C1352 C 0.89073 0.43673 0.4645 0.0
C1353 C 0.84358 0.38443 0.46794 0.0
N1354 N 0.80441 0.28609 0.47131 0.0
N1355 N 0.98561 0.48783 0.4542 0.0
C1356 C 0.84387 0.33498 0.46419 0.0
C1357 C 0.93613 0.43892 0.45548 0.0
N1358 N 0.87321 0.28915 0.44427 0.0
N1359 N 0.89073 0.48399 0.46918 0.0
H1360 H 0.01999 0.4914 0.44783 0.0
H1361 H -0.00561 0.52386 0.46076 0.0
H1362 H 0.85894 0.48257 0.47656 0.0
H1363 H 0.92088 0.52388 0.4654 0.0
H1364 H 0.83678 0.25096 0.44584 0.0
H1365 H 0.8984 0.28865 0.43459 0.0
H1366 H 0.80434 0.24874 0.47007 0.0
H1367 H 0.77529 0.2849 0.4799 0.0
C1368 C 0.68115 0.56565 0.45413 0.0
C1369 C 0.63569 0.55545 0.4435 0.0
C1370 C 0.5901 0.4559 0.45022 0.0
C1371 C 0.6354 0.46686 0.46075 0.0
N1372 N 0.71167 0.53223 0.47782 0.0
N1373 N 0.53789 0.49356 0.43708 0.0
C1374 C 0.67653 0.52202 0.46451 0.0
C1375 C 0.58724 0.50134 0.44318 0.0
N1376 N 0.73009 0.61531 0.45349 0.0
N1377 N 0.55059 0.40216 0.44666 0.0
H1378 H 0.53223 0.52606 0.43309 0.0
H1379 H 0.50075 0.45564 0.43792 0.0
H1380 H 0.55027 0.3683 0.45249 0.0
H1381 H 0.52011 0.39152 0.43741 0.0
H1382 H 0.76558 0.62255 0.46007 0.0
H1383 H 0.73749 0.64696 0.44496 0.0
H1384 H 0.73982 0.57227 0.48208 0.0
H1385 H 0.70754 0.50014 0.48569 0.0
C1386 C 0.46831 0.15307 0.44307 0.0
C1387 C 0.46574 0.10098 0.44418 0.0
C1388 C 0.54323 0.14024 0.46455 0.0
C1389 C 0.54859 0.19308 0.46209 0.0
N1390 N 0.50276 0.24432 0.45544 0.0
N1391 N 0.49907 0.04304 0.45621 0.0
C1392 C 0.50661 0.19757 0.45336 0.0
C1393 C 0.50266 0.09386 0.45504 0.0
N1394 N 0.43698 0.16125 0.43131 0.0
N1395 N 0.57377 0.13385 0.47688 0.0
H1396 H 0.46726 0.00691 0.45072 0.0
H1397 H 0.5285 0.03642 0.46221 0.0
H1398 H 0.59657 0.16552 0.48546 0.0
H1399 H 0.57083 0.09625 0.4802 0.0
H1400 H 0.44187 0.20018 0.42867 0.0
H1401 H 0.40993 0.13031 0.42296 0.0
H1402 H 0.47027 0.24855 0.45061 0.0
H1403 H 0.52882 0.27621 0.46373 0.0
C1404 C 0.71439 0.59625 0.71465 0.0
C1405 C 0.72844 0.6048 0.73224 0.0
C1406 C 0.75539 0.53381 0.73076 0.0
C1407 C 0.72891 0.51649 0.71485 0.0
N1408 N 0.68669 0.53286 0.69068 0.0
N1409 N 0.75698 0.57635 0.75753 0.0
C1410 C 0.71006 0.54866 0.70637 0.0
C1411 C 0.74849 0.57282 0.74039 0.0
N1412 N 0.70741 0.63445 0.70572 0.0
N1413 N 0.78583 0.5114 0.73678 0.0
H1414 H 0.74844 0.60119 0.76541 0.0
H1415 H 0.7666 0.54994 0.7642 0.0
H1416 H 0.79142 0.48282 0.7297 0.0
H1417 H 0.80999 0.52555 0.74773 0.0
H1418 H 0.70216 0.63281 0.69262 0.0
H1419 H 0.71262 0.6711 0.71101 0.0
H1420 H 0.6656 0.55015 0.68468 0.0
H1421 H 0.68715 0.5009 0.68392 0.0
C1422 C 0.42585 0.19218 0.72683 0.0
C1423 C 0.42581 0.14258 0.73153 0.0
C1424 C 0.5102 0.1722 0.71492 0.0
C1425 C 0.51521 0.22483 0.71268 0.0
N1426 N 0.47796 0.28565 0.71482 0.0
N1427 N 0.47206 0.0887 0.73191 0.0
C1428 C 0.47255 0.23479 0.71794 0.0
C1429 C 0.46873 0.13308 0.72588 0.0
N1430 N 0.38112 0.19804 0.73053 0.0
N1431 N 0.54627 0.16053 0.70669 0.0
H1432 H 0.44454 0.0608 0.74087 0.0
H1433 H 0.5054 0.08272 0.72944 0.0
H1434 H 0.57674 0.18927 0.69851 0.0
H1435 H 0.54236 0.12124 0.70657 0.0
H1436 H 0.37632 0.23062 0.72611 0.0
H1437 H 0.34653 0.16848 0.73723 0.0
H1438 H 0.45179 0.2987 0.71976 0.0
H1439 H 0.5102 0.31569 0.7074 0.0
C1440 C 0.89336 0.36475 0.73284 0.0
C1441 C 0.89 0.31219 0.73384 0.0
C1442 C 0.80302 0.26995 0.7173 0.0
C1443 C 0.80727 0.32282 0.71623 0.0
N1444 N 0.8651 0.42252 0.71789 0.0
N1445 N 0.8498 0.21811 0.72307 0.0
C1446 C 0.85558 0.37086 0.72228 0.0
C1447 C 0.84729 0.26569 0.72486 0.0
N1448 N 0.93019 0.40804 0.74279 0.0
N1449 N 0.75587 0.22357 0.71182 0.0
H1450 H 0.88144 0.21315 0.72825 0.0
H1451 H 0.82351 0.18551 0.71508 0.0
H1452 H 0.72352 0.2254 0.70579 0.0
H1453 H 0.74748 0.18314 0.71408 0.0
H1454 H 0.93024 0.44542 0.74381 0.0
H1455 H 0.95686 0.40479 0.75138 0.0
H1456 H 0.90201 0.45918 0.72064 0.0
H1457 H 0.83841 0.42806 0.70988 0.0
C1458 C 0.47438 0.35335 0.22544 0.0
C1459 C 0.43307 0.30421 0.23362 0.0
C1460 C 0.48211 0.25526 0.2251 0.0
C1461 C 0.52288 0.30441 0.21703 0.0
N1462 N 0.55008 0.39416 0.2052 0.0
N1463 N 0.38876 0.20396 0.2365 0.0
C1464 C 0.5157 0.35107 0.21558 0.0
C1465 C 0.43418 0.25366 0.23206 0.0
N1466 N 0.47704 0.40325 0.22814 0.0
N1467 N 0.49014 0.21088 0.22656 0.0
H1468 H 0.3517 0.20038 0.24077 0.0
H1469 H 0.38569 0.16558 0.23427 0.0
H1470 H 0.52312 0.20999 0.2206 0.0
H1471 H 0.4657 0.17644 0.2342 0.0
H1472 H 0.50937 0.44111 0.22372 0.0
H1473 H 0.45048 0.40816 0.23633 0.0
H1474 H 0.54331 0.42667 0.20205 0.0
H1475 H 0.58264 0.39454 0.19856 0.0
C1476 C 0.73551 0.14862 0.22059 0.0
C1477 C 0.70998 0.12971 0.23664 0.0
C1478 C 0.667 0.18641 0.23346 0.0
C1479 C 0.70582 0.21778 0.22044 0.0
N1480 N 0.77162 0.2217 0.19969 0.0
N1481 N 0.64869 0.12883 0.25833 0.0
C1482 C 0.73838 0.19673 0.21331 0.0
C1483 C 0.67459 0.1478 0.24306 0.0
N1484 N 0.75336 0.11828 0.2118 0.0
N1485 N 0.62117 0.19139 0.23599 0.0
H1486 H 0.65233 0.09931 0.26552 0.0
H1487 H 0.6269 0.14543 0.26431 0.0
H1488 H 0.61138 0.21514 0.22799 0.0
H1489 H 0.58954 0.1665 0.24445 0.0
H1490 H 0.76763 0.12701 0.19933 0.0
H1491 H 0.74768 0.08051 0.21631 0.0
H1492 H 0.80229 0.21323 0.1957 0.0
H1493 H 0.76789 0.25039 0.19236 0.0
C1494 C 0.90305 0.55481 0.22436 0.0
C1495 C 0.90098 0.60429 0.22663 0.0
C1496 C 0.81415 0.56422 0.21017 0.0
C1497 C 0.81506 0.51413 0.20887 0.0
N1498 N 0.86875 0.46858 0.20861 0.0
N1499 N 0.86612 0.66302 0.21649 0.0
C1500 C 0.86315 0.51247 0.21368 0.0
C1501 C 0.86013 0.61132 0.21785 0.0
N1502 N 0.94007 0.54626 0.23334 0.0
N1503 N 0.76845 0.56582 0.20476 0.0
H1504 H 0.90038 0.6985 0.22139 0.0
H1505 H 0.84039 0.67151 0.20905 0.0
H1506 H 0.73573 0.53225 0.19846 0.0
H1507 H 0.76231 0.59925 0.20701 0.0
H1508 H 0.93902 0.50828 0.23355 0.0
H1509 H 0.96888 0.57542 0.24177 0.0
H1510 H 0.90454 0.4664 0.2107 0.0
H1511 H 0.8393 0.43714 0.20081 0.0
C1512 C 0.64158 0.10363 0.95726 0.0
C1513 C 0.67676 0.11006 0.94342 0.0
C1514 C 0.72641 0.21082 0.94726 0.0
C1515 C 0.68403 0.20468 0.95855 0.0
N1516 N 0.59921 0.14539 0.97389 0.0
N1517 N 0.75336 0.16867 0.92508 0.0
C1518 C 0.64155 0.15113 0.96375 0.0
C1519 C 0.72004 0.16336 0.9385 0.0
N1520 N 0.60855 0.05217 0.96423 0.0
N1521 N 0.77278 0.26203 0.94509 0.0
H1522 H 0.75062 0.1344 0.91875 0.0
H1523 H 0.78148 0.20681 0.91963 0.0
H1524 H 0.7789 0.29724 0.9517 0.0
H1525 H 0.80728 0.26858 0.93811 0.0
H1526 H 0.58572 0.04559 0.97532 0.0
H1527 H 0.6087 0.01681 0.95993 0.0
H1528 H 0.56383 0.10717 0.97647 0.0
H1529 H 0.59729 0.1792 0.97874 0.0
C1530 C 0.92245 0.51939 0.95189 0.0
C1531 C 0.9245 0.56916 0.94622 0.0
C1532 C 0.84132 0.54472 0.96335 0.0
C1533 C 0.83427 0.49159 0.96648 0.0
N1534 N 0.86646 0.42643 0.96356 0.0
N1535 N 0.88084 0.62547 0.94499 0.0
C1536 C 0.87488 0.47875 0.96091 0.0
C1537 C 0.88301 0.5813 0.95175 0.0
N1538 N 0.96639 0.51133 0.9492 0.0
N1539 N 0.80713 0.55947 0.97129 0.0
H1540 H 0.90779 0.65097 0.93553 0.0
H1541 H 0.8487 0.63335 0.9474 0.0
H1542 H 0.77652 0.5327 0.97977 0.0
H1543 H 0.81282 0.59946 0.97084 0.0
H1544 H 0.9696 0.47908 0.95475 0.0
H1545 H 0.00241 0.53937 0.94278 0.0
H1546 H 0.8898 0.41135 0.95774 0.0
H1547 H 0.83389 0.39689 0.97098 0.0
C1548 C 0.44377 0.32252 0.95681 0.0
C1549 C 0.45666 0.37504 0.94996 0.0
C1550 C 0.55032 0.41784 0.96214 0.0
C1551 C 0.53828 0.36489 0.96809 0.0
N1552 N 0.4702 0.27197 0.9762 0.0
N1553 N 0.51536 0.47543 0.95111 0.0
C1554 C 0.48354 0.31905 0.96727 0.0
C1555 C 0.50786 0.42368 0.95418 0.0
N1556 N 0.39556 0.27534 0.95235 0.0
N1557 N 0.60333 0.46204 0.96344 0.0
H1558 H 0.48479 0.4818 0.94586 0.0
H1559 H 0.54971 0.51217 0.95535 0.0
H1560 H 0.63426 0.45969 0.97024 0.0
H1561 H 0.61719 0.49987 0.95724 0.0
H1562 H 0.38651 0.23538 0.95567 0.0
H1563 H 0.36641 0.27531 0.94407 0.0
H1564 H 0.42972 0.23881 0.97761 0.0
H1565 H 0.49944 0.26896 0.98362 0.0
C1566 C 0.54203 0.68121 0.77648 0.0
C1567 C 0.59196 0.73325 0.77514 0.0
C1568 C 0.54974 0.7769 0.79221 0.0
C1569 C 0.50096 0.72422 0.7938 0.0
N1570 N 0.45717 0.62442 0.79219 0.0
N1571 N 0.64735 0.82918 0.78437 0.0
C1572 C 0.49966 0.67583 0.78756 0.0
C1573 C 0.59712 0.78087 0.78378 0.0
N1574 N 0.53344 0.63768 0.76633 0.0
N1575 N 0.55009 0.823 0.79835 0.0
H1576 H 0.68291 0.83407 0.77842 0.0
H1577 H 0.65514 0.86315 0.79187 0.0
H1578 H 0.51692 0.8203 0.80529 0.0
H1579 H 0.58193 0.86363 0.79609 0.0
H1580 H 0.49543 0.60062 0.76556 0.0
H1581 H 0.56205 0.64069 0.75726 0.0
H1582 H 0.45626 0.58746 0.78921 0.0
H1583 H 0.42588 0.61928 0.80057 0.0
C1584 C 0.34535 0.87461 0.7671 0.0
C1585 C 0.31816 0.89947 0.77513 0.0
C1586 C 0.28126 0.82667 0.79688 0.0
C1587 C 0.30995 0.80261 0.78903 0.0
N1588 N 0.38844 0.81936 0.77143 0.0
N1589 N 0.2747 0.90989 0.80024 0.0
C1590 C 0.3479 0.83132 0.77556 0.0
C1591 C 0.29115 0.87924 0.79097 0.0
N1592 N 0.36836 0.89182 0.75138 0.0
N1593 N 0.24249 0.79836 0.80914 0.0
H1594 H 0.28199 0.94881 0.79631 0.0
H1595 H 0.25928 0.89946 0.81255 0.0
H1596 H 0.23183 0.75839 0.81302 0.0
H1597 H 0.21722 0.81227 0.81428 0.0
H1598 H 0.38277 0.87014 0.74423 0.0
H1599 H 0.36964 0.92547 0.74508 0.0
H1600 H 0.41912 0.8419 0.76243 0.0
H1601 H 0.39607 0.79224 0.77852 0.0
C1602 C 0.18677 0.42369 0.78603 0.0
C1603 C 0.13837 0.42639 0.78172 0.0
C1604 C 0.17007 0.50748 0.80017 0.0
C1605 C 0.22226 0.51095 0.80187 0.0
N1606 N 0.28158 0.47331 0.79681 0.0
N1607 N 0.0885 0.47659 0.7827 0.0
C1608 C 0.2306 0.46866 0.79513 0.0
C1609 C 0.1307 0.46926 0.7885 0.0
N1610 N 0.19046 0.37792 0.78187 0.0
N1611 N 0.15968 0.54338 0.80901 0.0
H1612 H 0.06103 0.45227 0.77316 0.0
H1613 H 0.08437 0.51063 0.78594 0.0
H1614 H 0.18934 0.57367 0.81692 0.0
H1615 H 0.12064 0.53978 0.80967 0.0
H1616 H 0.22222 0.37158 0.78613 0.0
H1617 H 0.15925 0.34346 0.77553 0.0
H1618 H 0.29347 0.44828 0.79037 0.0
H1619 H 0.31284 0.50434 0.80428 0.0
C1620 C 0.43713 0.94325 0.05579 0.0
C1621 C 0.38861 0.94114 0.06252 0.0
C1622 C 0.33179 0.84838 0.04998 0.0
C1623 C 0.38059 0.84651 0.04628 0.0
N1624 N 0.48037 0.8907 0.04654 0.0
N1625 N 0.28946 0.88722 0.06784 0.0
C1626 C 0.43355 0.89377 0.04924 0.0
C1627 C 0.33564 0.8929 0.05985 0.0
N1628 N 0.48615 0.99279 0.05505 0.0
N1629 N 0.28145 0.8066 0.04437 0.0
H1630 H 0.29039 0.91644 0.07629 0.0
H1631 H 0.25098 0.8506 0.06758 0.0
H1632 H 0.27716 0.77235 0.03763 0.0
H1633 H 0.24511 0.80855 0.045 0.0
H1634 H 0.5215 -0.00254 0.049 0.0
H1635 H 0.48992 0.03053 0.05877 0.0
H1636 H 0.51975 0.9213 0.05055 0.0
H1637 H 0.4793 0.85588 0.04118 0.0
C1638 C 0.13546 0.53767 0.07312 0.0
C1639 C 0.10573 0.48224 0.06684 0.0
C1640 C 0.16664 0.51139 0.04184 0.0
C1641 C 0.1936 0.56675 0.0479 0.0
N1642 N 0.19171 0.63532 0.06592 0.0
N1643 N 0.08232 0.42159 0.04226 0.0
C1644 C 0.17329 0.58068 0.06232 0.0
C1645 C 0.11803 0.47031 0.05031 0.0
N1646 N 0.13085 0.54898 0.08971 0.0
N1647 N 0.18819 0.49777 0.02836 0.0
H1648 H 0.04386 0.39222 0.04719 0.0
H1649 H 0.08784 0.4134 0.02974 0.0
H1650 H 0.22229 0.52766 0.02149 0.0
H1651 H 0.17405 0.45676 0.02468 0.0
H1652 H 0.15535 0.58828 0.09507 0.0
H1653 H 0.10796 0.5181 0.09863 0.0
H1654 H 0.17488 0.64779 0.0756 0.0
H1655 H 0.21952 0.66756 0.05801 0.0
C1656 C 0.56347 0.6504 0.04692 0.0
C1657 C 0.55567 0.6268 0.06345 0.0
C1658 C 0.45991 0.60824 0.06311 0.0
C1659 C 0.47196 0.64224 0.04859 0.0
N1660 N 0.53758 0.70078 0.02733 0.0
N1661 N 0.49772 0.59278 0.08861 0.0
C1662 C 0.52425 0.66438 0.04052 0.0
C1663 C 0.50392 0.60742 0.07186 0.0
N1664 N 0.60718 0.65793 0.03712 0.0
N1665 N 0.40636 0.57764 0.06875 0.0
H1666 H 0.52992 0.59639 0.09621 0.0
H1667 H 0.4622 0.5835 0.09553 0.0
H1668 H 0.37321 0.57725 0.06242 0.0
H1669 H 0.39446 0.54839 0.07847 0.0
H1670 H 0.61212 0.671 0.02453 0.0
H1671 H 0.63471 0.64488 0.04086 0.0
H1672 H 0.57742 0.7229 0.02218 0.0
H1673 H 0.50974 0.71185 0.02239 0.0
C1674 C 0.10401 0.64197 0.54821 0.0
C1675 C 0.09574 0.62239 0.56525 0.0
C1676 C 0.15498 0.58296 0.55924 0.0
C1677 C 0.17582 0.61698 0.54467 0.0
N1678 N 0.17122 0.68262 0.52572 0.0
N1679 N 0.11933 0.57753 0.58748 0.0
C1680 C 0.14986 0.64668 0.53903 0.0
C1681 C 0.12191 0.59262 0.57086 0.0
N1682 N 0.06755 0.65432 0.54054 0.0
N1683 N 0.17066 0.54463 0.56247 0.0
H1684 H 0.10009 0.58826 0.59685 0.0
H1685 H 0.14187 0.55996 0.59229 0.0
H1686 H 0.19587 0.53832 0.55402 0.0
H1687 H 0.15423 0.51608 0.5724 0.0
H1688 H 0.07059 0.66513 0.52776 0.0
H1689 H 0.03041 0.64648 0.54614 0.0
H1690 H 0.1576 0.71007 0.5224 0.0
H1691 H 0.20497 0.68721 0.51883 0.0
C1692 C 0.35885 0.50418 0.57696 0.0
C1693 C 0.38463 0.47931 0.56802 0.0
C1694 C 0.41564 0.55213 0.54639 0.0
C1695 C 0.38465 0.5736 0.55428 0.0
N1696 N 0.30912 0.55357 0.57377 0.0
N1697 N 0.4213 0.46936 0.54133 0.0
C1698 C 0.35125 0.54514 0.5687 0.0
C1699 C 0.40766 0.49978 0.55175 0.0
N1700 N 0.34041 0.48812 0.59317 0.0
N1701 N 0.45536 0.58301 0.5347 0.0
H1702 H 0.4141 0.42992 0.54463 0.0
H1703 H 0.43423 0.48101 0.52884 0.0
H1704 H 0.46684 0.62421 0.53218 0.0
H1705 H 0.48139 0.57027 0.52936 0.0
H1706 H 0.32662 0.50947 0.60074 0.0
H1707 H 0.34277 0.45626 0.5994 0.0
H1708 H 0.28159 0.5307 0.58348 0.0
H1709 H 0.29634 0.57705 0.56684 0.0
C1710 C 0.53764 0.88404 0.57499 0.0
C1711 C 0.56497 0.93522 0.5662 0.0
C1712 C 0.51114 0.88967 0.54051 0.0
C1713 C 0.47578 0.84191 0.55023 0.0
N1714 N 0.46318 0.78833 0.57581 0.0
N1715 N 0.57546 0.98904 0.54102 0.0
C1716 C 0.49162 0.83759 0.56722 0.0
C1717 C 0.55165 0.93857 0.549 0.0
N1718 N 0.55735 0.87931 0.59044 0.0
N1719 N 0.50814 0.888 0.52325 0.0
H1720 H 0.60365 0.0261 0.54703 0.0
H1721 H 0.56313 0.99476 0.52907 0.0
H1722 H 0.48114 0.85215 0.51657 0.0
H1723 H 0.53671 0.92027 0.51556 0.0
H1724 H 0.54311 0.84193 0.59691 0.0
H1725 H 0.59129 0.91253 0.59642 0.0
H1726 H 0.46462 0.78455 0.58891 0.0
H1727 H 0.43794 0.75064 0.5697 0.0
C1728 C 0.31101 0.43879 0.29381 0.0
C1729 C 0.3343 0.44393 0.27734 0.0
C1730 C 0.3695 0.54386 0.27796 0.0
C1731 C 0.33617 0.53664 0.29251 0.0
N1732 N 0.30835 0.48705 0.31901 0.0
N1733 N 0.38731 0.50158 0.2538 0.0
C1734 C 0.31609 0.48687 0.30195 0.0
C1735 C 0.36436 0.49662 0.26948 0.0
N1736 N 0.28194 0.38777 0.3014 0.0
N1737 N 0.41011 0.59618 0.2733 0.0
H1738 H 0.38761 0.46853 0.24763 0.0
H1739 H 0.40329 0.53774 0.24653 0.0
H1740 H 0.42012 0.63127 0.28061 0.0
H1741 H 0.4389 0.604 0.26373 0.0
H1742 H 0.25782 0.38048 0.31223 0.0
H1743 H 0.27901 0.35183 0.29634 0.0
H1744 H 0.29801 0.45297 0.32682 0.0
H1745 H 0.32139 0.52372 0.32573 0.0
C1746 C 0.55509 0.89444 0.28679 0.0
C1747 C 0.59604 0.88328 0.28024 0.0
C1748 C 0.54208 0.78697 0.29062 0.0
C1749 C 0.50211 0.79905 0.29718 0.0
N1750 N 0.47961 0.86718 0.30677 0.0
N1751 N 0.63604 0.82345 0.2803 0.0
C1752 C 0.51215 0.85408 0.29713 0.0
C1753 C 0.59193 0.83084 0.28345 0.0
N1754 N 0.55442 0.9415 0.28213 0.0
N1755 N 0.53155 0.7334 0.29076 0.0
H1756 H 0.67402 0.85482 0.27562 0.0
H1757 H 0.63699 0.78792 0.28392 0.0
H1758 H 0.49706 0.70143 0.29692 0.0
H1759 H 0.55556 0.72046 0.28423 0.0
H1760 H 0.52239 0.94876 0.2854 0.0
H1761 H 0.5821 0.9703 0.27341 0.0
H1762 H 0.48792 0.90786 0.30845 0.0
H1763 H 0.44796 0.83785 0.31454 0.0
C1764 C 0.13262 0.69403 0.29034 0.0
C1765 C 0.14458 0.7377 0.27864 0.0
C1766 C 0.24219 0.78461 0.28796 0.0
C1767 C 0.22865 0.74117 0.29972 0.0
N1768 N 0.15797 0.67209 0.3173 0.0
N1769 N 0.20879 0.83449 0.27114 0.0
C1770 C 0.17256 0.70219 0.30274 0.0
C1771 C 0.19881 0.78629 0.27885 0.0
N1772 N 0.08514 0.64331 0.28903 0.0
N1773 N 0.29671 0.8231 0.28517 0.0
H1774 H 0.17806 0.83952 0.26535 0.0
H1775 H 0.24653 0.8717 0.27224 0.0
H1776 H 0.32851 0.82392 0.29243 0.0
H1777 H 0.31 0.85204 0.27532 0.0
H1778 H 0.07723 0.60978 0.29683 0.0
H1779 H 0.05768 0.63232 0.27886 0.0
H1780 H 0.11679 0.64448 0.32069 0.0
H1781 H 0.18743 0.68206 0.32678 0.0
loop_
_geom_bond_atom_site_label_1
_geom_bond_atom_site_label_2
_geom_bond_distance
_geom_bond_site_symmetry_2
_ccdc_geom_bond_type
In0 O1 2.294 . S
In0 O2 2.326 . S
In0 O6 2.266 . S
In0 O7 2.326 1_545 S
In0 O8 2.266 1_545 S
In0 O9 2.326 1_545 S
In0 O11 2.294 1_545 S
In0 O12 2.326 . S
O1 In0 2.294 . S
O1 C10 1.240 . S
O2 In0 2.326 . S
O2 C10 1.252 . S
C3 O6 1.252 . S
C3 O7 1.260 1_545 S
C4 O11 1.240 1_545 S
C4 O12 1.252 . S
C5 O8 1.252 . S
C5 O9 1.260 . S
O6 In0 2.266 . S
O6 C3 1.252 . S
O7 In0 2.326 1_565 S
O7 C3 1.260 1_565 S
O8 In0 2.266 1_565 S
O8 C5 1.252 . S
O9 In0 2.326 1_565 S
O9 C5 1.260 . S
C10 O1 1.240 . S
C10 O2 1.252 . S
O11 In0 2.294 1_565 S
O11 C4 1.240 1_565 S
O12 In0 2.326 . S
O12 C4 1.252 . S
In13 O14 2.294 . S
In13 O15 2.326 . S
In13 O19 2.266 . S
In13 O20 2.326 1_455 S
In13 O21 2.266 1_455 S
In13 O22 2.326 1_455 S
In13 O24 2.294 1_455 S
In13 O25 2.326 . S
O14 In13 2.294 . S
O14 C23 1.240 . S
O15 In13 2.326 . S
O15 C23 1.252 . S
C16 O19 1.252 . S
C16 O20 1.260 1_455 S
C17 O24 1.240 1_455 S
C17 O25 1.252 . S
C18 O21 1.252 . S
C18 O22 1.260 . S
O19 In13 2.266 . S
O19 C16 1.252 . S
O20 In13 2.326 1_655 S
O20 C16 1.260 1_655 S
O21 In13 2.266 1_655 S
O21 C18 1.252 . S
O22 In13 2.326 1_655 S
O22 C18 1.260 . S
C23 O14 1.240 . S
C23 O15 1.252 . S
O24 In13 2.294 1_655 S
O24 C17 1.240 1_655 S
O25 In13 2.326 . S
O25 C17 1.252 . S
In26 O27 2.294 . S
In26 O28 2.326 . S
In26 O32 2.266 . S
In26 O33 2.326 . S
In26 O34 2.266 . S
In26 O35 2.326 . S
In26 O37 2.294 . S
In26 O38 2.326 . S
O27 In26 2.294 . S
O27 C36 1.240 . S
O28 In26 2.326 . S
O28 C36 1.252 . S
C29 O32 1.252 . S
C29 O33 1.260 . S
C30 O37 1.240 . S
C30 O38 1.252 . S
C31 O34 1.252 . S
C31 O35 1.260 . S
O32 In26 2.266 . S
O32 C29 1.252 . S
O33 In26 2.326 . S
O33 C29 1.260 . S
O34 In26 2.266 . S
O34 C31 1.252 . S
O35 In26 2.326 . S
O35 C31 1.260 . S
C36 O27 1.240 . S
C36 O28 1.252 . S
O37 In26 2.294 . S
O37 C30 1.240 . S
O38 In26 2.326 . S
O38 C30 1.252 . S
In39 O40 2.294 . S
In39 O41 2.326 1_545 S
In39 O45 2.266 . S
In39 O46 2.326 . S
In39 O47 2.266 1_545 S
In39 O48 2.326 . S
In39 O50 2.294 1_545 S
In39 O51 2.326 1_545 S
O40 In39 2.294 . S
O40 C49 1.240 . S
O41 In39 2.326 1_565 S
O41 C49 1.252 1_565 S
C42 O45 1.252 . S
C42 O46 1.260 . S
C43 O50 1.240 . S
C43 O51 1.252 . S
C44 O47 1.252 1_545 S
C44 O48 1.260 . S
O45 In39 2.266 . S
O45 C42 1.252 . S
O46 In39 2.326 . S
O46 C42 1.260 . S
O47 In39 2.266 1_565 S
O47 C44 1.252 1_565 S
O48 In39 2.326 . S
O48 C44 1.260 . S
C49 O40 1.240 . S
C49 O41 1.252 1_545 S
O50 In39 2.294 1_565 S
O50 C43 1.240 . S
O51 In39 2.326 1_565 S
O51 C43 1.252 . S
In52 O53 2.294 . S
In52 O54 2.326 1_455 S
In52 O58 2.266 . S
In52 O59 2.326 . S
In52 O60 2.266 1_455 S
In52 O61 2.326 . S
In52 O63 2.294 1_455 S
In52 O64 2.326 1_455 S
O53 In52 2.294 . S
O53 C62 1.240 . S
O54 In52 2.326 1_655 S
O54 C62 1.252 1_655 S
C55 O58 1.252 . S
C55 O59 1.260 . S
C56 O63 1.240 . S
C56 O64 1.252 . S
C57 O60 1.252 1_455 S
C57 O61 1.260 . S
O58 In52 2.266 . S
O58 C55 1.252 . S
O59 In52 2.326 . S
O59 C55 1.260 . S
O60 In52 2.266 1_655 S
O60 C57 1.252 1_655 S
O61 In52 2.326 . S
O61 C57 1.260 . S
C62 O53 1.240 . S
C62 O54 1.252 1_455 S
O63 In52 2.294 1_655 S
O63 C56 1.240 . S
O64 In52 2.326 1_655 S
O64 C56 1.252 . S
In65 O66 2.294 . S
In65 O67 2.326 . S
In65 O71 2.266 . S
In65 O72 2.326 . S
In65 O73 2.266 . S
In65 O74 2.326 . S
In65 O76 2.294 . S
In65 O77 2.326 . S
O66 In65 2.294 . S
O66 C75 1.240 . S
O67 In65 2.326 . S
O67 C75 1.252 . S
C68 O71 1.252 . S
C68 O72 1.260 . S
C69 O76 1.240 . S
C69 O77 1.252 . S
C70 O73 1.252 . S
C70 O74 1.260 . S
O71 In65 2.266 . S
O71 C68 1.252 . S
O72 In65 2.326 . S
O72 C68 1.260 . S
O73 In65 2.266 . S
O73 C70 1.252 . S
O74 In65 2.326 . S
O74 C70 1.260 . S
C75 O66 1.240 . S
C75 O67 1.252 . S
O76 In65 2.294 . S
O76 C69 1.240 . S
O77 In65 2.326 . S
O77 C69 1.252 . S
In78 O79 2.294 . S
In78 O80 2.326 . S
In78 O84 2.266 . S
In78 O85 2.326 . S
In78 O86 2.266 . S
In78 O87 2.326 . S
In78 O89 2.294 . S
In78 O90 2.326 . S
O79 In78 2.294 . S
O79 C88 1.240 . S
O80 In78 2.326 . S
O80 C88 1.252 . S
C81 O84 1.252 . S
C81 O85 1.260 . S
C82 O89 1.240 . S
C82 O90 1.252 . S
C83 O86 1.252 . S
C83 O87 1.260 . S
O84 In78 2.266 . S
O84 C81 1.252 . S
O85 In78 2.326 . S
O85 C81 1.260 . S
O86 In78 2.266 . S
O86 C83 1.252 . S
O87 In78 2.326 . S
O87 C83 1.260 . S
C88 O79 1.240 . S
C88 O80 1.252 . S
O89 In78 2.294 . S
O89 C82 1.240 . S
O90 In78 2.326 . S
O90 C82 1.252 . S
In91 O92 2.294 . S
In91 O93 2.326 . S
In91 O97 2.267 . S
In91 O98 2.326 . S
In91 O99 2.266 . S
In91 O100 2.326 . S
In91 O102 2.294 . S
In91 O103 2.326 . S
O92 In91 2.294 . S
O92 C101 1.240 . S
O93 In91 2.326 . S
O93 C101 1.252 . S
C94 O97 1.251 1_565 S
C94 O98 1.260 1_565 S
C95 O102 1.240 . S
C95 O103 1.252 . S
C96 O99 1.252 . S
C96 O100 1.260 . S
O97 In91 2.267 . S
O97 C94 1.251 1_545 S
O98 In91 2.326 . S
O98 C94 1.260 1_545 S
O99 In91 2.266 . S
O99 C96 1.252 . S
O100 In91 2.326 . S
O100 C96 1.260 . S
C101 O92 1.240 . S
C101 O93 1.252 . S
O102 In91 2.294 . S
O102 C95 1.240 . S
O103 In91 2.326 . S
O103 C95 1.252 . S
In104 O105 2.294 . S
In104 O106 2.326 1_655 S
In104 O110 2.266 . S
In104 O111 2.326 . S
In104 O112 2.266 1_655 S
In104 O113 2.326 1_655 S
In104 O115 2.294 . S
In104 O116 2.326 . S
O105 In104 2.294 . S
O105 C114 1.240 . S
O106 In104 2.326 1_455 S
O106 C114 1.252 1_455 S
C107 O110 1.252 . S
C107 O111 1.260 . S
C108 O115 1.240 . S
C108 O116 1.252 . S
C109 O112 1.252 . S
C109 O113 1.260 . S
O110 In104 2.266 . S
O110 C107 1.252 . S
O111 In104 2.326 . S
O111 C107 1.260 . S
O112 In104 2.266 1_455 S
O112 C109 1.252 . S
O113 In104 2.326 1_455 S
O113 C109 1.260 . S
C114 O105 1.240 . S
C114 O106 1.252 1_655 S
O115 In104 2.294 . S
O115 C108 1.240 . S
O116 In104 2.326 . S
O116 C108 1.252 . S
In117 O118 2.294 . S
In117 O119 2.326 1_655 S
In117 O123 2.266 . S
In117 O124 2.326 . S
In117 O125 2.266 1_655 S
In117 O126 2.326 1_655 S
In117 O128 2.294 . S
In117 O129 2.326 . S
O118 In117 2.294 . S
O118 C127 1.240 . S
O119 In117 2.326 1_455 S
O119 C127 1.252 1_455 S
C120 O123 1.252 . S
C120 O124 1.260 . S
C121 O128 1.240 . S
C121 O129 1.252 . S
C122 O125 1.252 . S
C122 O126 1.260 . S
O123 In117 2.266 . S
O123 C120 1.252 . S
O124 In117 2.326 . S
O124 C120 1.260 . S
O125 In117 2.266 1_455 S
O125 C122 1.252 . S
O126 In117 2.326 1_455 S
O126 C122 1.260 . S
C127 O118 1.240 . S
C127 O119 1.252 1_655 S
O128 In117 2.294 . S
O128 C121 1.240 . S
O129 In117 2.326 . S
O129 C121 1.252 . S
In130 O131 2.294 . S
In130 O132 2.326 . S
In130 O136 2.266 . S
In130 O137 2.326 . S
In130 O138 2.266 . S
In130 O139 2.326 . S
In130 O141 2.294 . S
In130 O142 2.326 . S
O131 In130 2.294 . S
O131 C140 1.240 . S
O132 In130 2.326 . S
O132 C140 1.252 . S
C133 O136 1.252 . S
C133 O137 1.260 . S
C134 O141 1.240 . S
C134 O142 1.252 . S
C135 O138 1.252 . S
C135 O139 1.260 . S
O136 In130 2.266 . S
O136 C133 1.252 . S
O137 In130 2.326 . S
O137 C133 1.260 . S
O138 In130 2.266 . S
O138 C135 1.252 . S
O139 In130 2.326 . S
O139 C135 1.260 . S
C140 O131 1.240 . S
C140 O132 1.252 . S
O141 In130 2.294 . S
O141 C134 1.240 . S
O142 In130 2.326 . S
O142 C134 1.252 . S
In143 O144 2.294 1_545 S
In143 O145 2.326 . S
In143 O149 2.266 . S
In143 O150 2.326 . S
In143 O151 2.266 . S
In143 O152 2.326 . S
In143 O154 2.294 . S
In143 O155 2.326 . S
O144 In143 2.294 1_565 S
O144 C153 1.240 . S
O145 In143 2.326 . S
O145 C153 1.252 1_545 S
C146 O149 1.252 . S
C146 O150 1.260 . S
C147 O154 1.240 . S
C147 O155 1.252 . S
C148 O151 1.252 . S
C148 O152 1.260 . S
O149 In143 2.266 . S
O149 C146 1.252 . S
O150 In143 2.326 . S
O150 C146 1.260 . S
O151 In143 2.266 . S
O151 C148 1.252 . S
O152 In143 2.326 . S
O152 C148 1.260 . S
C153 O144 1.240 . S
C153 O145 1.252 1_565 S
O154 In143 2.294 . S
O154 C147 1.240 . S
O155 In143 2.326 . S
O155 C147 1.252 . S
In156 O157 2.294 . S
In156 O158 2.326 . S
In156 O162 2.266 . S
In156 O163 2.326 . S
In156 O164 2.271 . S
In156 O165 2.326 . S
In156 O167 2.294 . S
In156 O168 2.326 . S
O157 In156 2.294 . S
O157 C166 1.240 . S
O158 In156 2.326 . S
O158 C166 1.252 . S
C159 O162 1.252 . S
C159 O163 1.260 . S
C160 O167 1.240 . S
C160 O168 1.252 . S
C161 O164 1.244 1_655 S
C161 O165 1.260 1_655 S
O162 In156 2.266 . S
O162 C159 1.252 . S
O163 In156 2.326 . S
O163 C159 1.260 . S
O164 In156 2.271 . S
O164 C161 1.244 1_455 S
O165 In156 2.326 . S
O165 C161 1.260 1_455 S
C166 O157 1.240 . S
C166 O158 1.252 . S
O167 In156 2.294 . S
O167 C160 1.240 . S
O168 In156 2.326 . S
O168 C160 1.252 . S
In169 O170 2.294 . S
In169 O171 2.326 . S
In169 O175 2.266 . S
In169 O176 2.326 . S
In169 O177 2.266 . S
In169 O178 2.326 . S
In169 O180 2.294 . S
In169 O181 2.326 . S
O170 In169 2.294 . S
O170 C179 1.240 . S
O171 In169 2.326 . S
O171 C179 1.252 . S
C172 O175 1.252 . S
C172 O176 1.260 . S
C173 O180 1.240 . S
C173 O181 1.252 . S
C174 O177 1.252 . S
C174 O178 1.260 . S
O175 In169 2.266 . S
O175 C172 1.252 . S
O176 In169 2.326 . S
O176 C172 1.260 . S
O177 In169 2.266 . S
O177 C174 1.252 . S
O178 In169 2.326 . S
O178 C174 1.260 . S
C179 O170 1.240 . S
C179 O171 1.252 . S
O180 In169 2.294 . S
O180 C173 1.240 . S
O181 In169 2.326 . S
O181 C173 1.252 . S
In182 O183 2.294 . S
In182 O184 2.326 . S
In182 O188 2.266 . S
In182 O189 2.326 1_565 S
In182 O190 2.266 . S
In182 O191 2.326 . S
In182 O193 2.294 1_565 S
In182 O194 2.326 1_565 S
O183 In182 2.294 . S
O183 C192 1.240 . S
O184 In182 2.326 . S
O184 C192 1.252 . S
C185 O188 1.252 . S
C185 O189 1.260 1_565 S
C186 O193 1.240 . S
C186 O194 1.252 . S
C187 O190 1.252 . S
C187 O191 1.260 . S
O188 In182 2.266 . S
O188 C185 1.252 . S
O189 In182 2.326 1_545 S
O189 C185 1.260 1_545 S
O190 In182 2.266 . S
O190 C187 1.252 . S
O191 In182 2.326 . S
O191 C187 1.260 . S
C192 O183 1.240 . S
C192 O184 1.252 . S
O193 In182 2.294 1_545 S
O193 C186 1.240 . S
O194 In182 2.326 1_545 S
O194 C186 1.252 . S
In195 O196 2.294 . S
In195 O197 2.326 . S
In195 O201 2.266 . S
In195 O202 2.326 . S
In195 O203 2.266 . S
In195 O204 2.326 . S
In195 O206 2.294 . S
In195 O207 2.326 . S
O196 In195 2.294 . S
O196 C205 1.240 . S
O197 In195 2.326 . S
O197 C205 1.252 . S
C198 O201 1.252 . S
C198 O202 1.260 . S
C199 O206 1.240 . S
C199 O207 1.252 . S
C200 O203 1.252 . S
C200 O204 1.260 . S
O201 In195 2.266 . S
O201 C198 1.252 . S
O202 In195 2.326 . S
O202 C198 1.260 . S
O203 In195 2.266 . S
O203 C200 1.252 . S
O204 In195 2.326 . S
O204 C200 1.260 . S
C205 O196 1.240 . S
C205 O197 1.252 . S
O206 In195 2.294 . S
O206 C199 1.240 . S
O207 In195 2.326 . S
O207 C199 1.252 . S
In208 O209 2.294 . S
In208 O210 2.326 . S
In208 O214 2.266 1_565 S
In208 O215 2.326 1_565 S
In208 O216 2.266 . S
In208 O217 2.326 . S
In208 O219 2.294 . S
In208 O220 2.326 1_565 S
O209 In208 2.294 . S
O209 C218 1.240 . S
O210 In208 2.326 . S
O210 C218 1.252 . S
C211 O214 1.252 . S
C211 O215 1.260 . S
C212 O219 1.240 . S
C212 O220 1.252 1_565 S
C213 O216 1.252 . S
C213 O217 1.260 . S
O214 In208 2.266 1_545 S
O214 C211 1.252 . S
O215 In208 2.326 1_545 S
O215 C211 1.260 . S
O216 In208 2.266 . S
O216 C213 1.252 . S
O217 In208 2.326 . S
O217 C213 1.260 . S
C218 O209 1.240 . S
C218 O210 1.252 . S
O219 In208 2.294 . S
O219 C212 1.240 . S
O220 In208 2.326 1_545 S
O220 C212 1.252 1_545 S
In221 O222 2.294 . S
In221 O223 2.326 . S
In221 O227 2.266 1_455 S
In221 O228 2.326 . S
In221 O229 2.266 . S
In221 O230 2.326 . S
In221 O232 2.294 . S
In221 O233 2.326 . S
O222 In221 2.294 . S
O222 C231 1.240 . S
O223 In221 2.326 . S
O223 C231 1.252 . S
C224 O227 1.252 . S
C224 O228 1.260 1_655 S
C225 O232 1.240 . S
C225 O233 1.252 . S
C226 O229 1.252 . S
C226 O230 1.260 . S
O227 In221 2.266 1_655 S
O227 C224 1.252 . S
O228 In221 2.326 . S
O228 C224 1.260 1_455 S
O229 In221 2.266 . S
O229 C226 1.252 . S
O230 In221 2.326 . S
O230 C226 1.260 . S
C231 O222 1.240 . S
C231 O223 1.252 . S
O232 In221 2.294 . S
O232 C225 1.240 . S
O233 In221 2.326 . S
O233 C225 1.252 . S
Zn234 O240 1.920 1_455 S
Zn234 O246 1.898 1_445 S
Zn234 O249 1.905 . S
Zn235 O243 1.908 1_445 S
Zn235 O244 1.898 . S
Zn235 O252 1.920 1_455 S
Zn236 O239 2.080 . S
Zn236 O242 2.114 1_545 S
Zn236 O245 2.120 . S
Zn236 O247 2.120 1_445 S
Zn236 O248 2.114 . S
Zn236 O251 2.080 1_455 S
C237 O242 1.166 . S
C237 O243 1.179 1_455 S
C238 O244 1.167 . S
C238 O245 1.299 . S
O239 Zn236 2.080 . S
O239 C253 1.305 1_455 S
O240 Zn234 1.920 1_655 S
O240 C253 1.234 . S
C241 O246 1.167 . S
C241 O247 1.299 . S
O242 Zn236 2.114 1_565 S
O242 C237 1.166 . S
O243 Zn235 1.908 1_665 S
O243 C237 1.179 1_655 S
O244 Zn235 1.898 . S
O244 C238 1.167 . S
O245 Zn236 2.120 . S
O245 C238 1.299 . S
O246 Zn234 1.898 1_665 S
O246 C241 1.167 . S
O247 Zn236 2.120 1_665 S
O247 C241 1.299 . S
O248 Zn236 2.114 . S
O248 C250 1.166 . S
O249 Zn234 1.905 . S
O249 C250 1.182 . S
C250 O248 1.166 . S
C250 O249 1.182 . S
O251 Zn236 2.080 1_655 S
O251 C254 1.305 . S
O252 Zn235 1.920 1_655 S
O252 C254 1.234 . S
C253 O239 1.305 1_655 S
C253 O240 1.234 . S
C254 O251 1.305 . S
C254 O252 1.234 . S
Zn255 O261 1.920 1_545 S
Zn255 O267 1.898 . S
Zn255 O270 1.905 1_445 S
Zn256 O264 1.905 . S
Zn256 O265 1.898 1_445 S
Zn256 O273 1.920 1_545 S
Zn257 O260 2.080 1_545 S
Zn257 O263 2.114 . S
Zn257 O266 2.120 1_445 S
Zn257 O268 2.120 . S
Zn257 O269 2.114 1_455 S
Zn257 O272 2.080 . S
C258 O263 1.166 . S
C258 O264 1.182 . S
C259 O265 1.167 . S
C259 O266 1.299 . S
O260 Zn257 2.080 1_565 S
O260 C274 1.305 . S
O261 Zn255 1.920 1_565 S
O261 C274 1.234 . S
C262 O267 1.167 . S
C262 O268 1.299 . S
O263 Zn257 2.114 . S
O263 C258 1.166 . S
O264 Zn256 1.905 . S
O264 C258 1.182 . S
O265 Zn256 1.898 1_665 S
O265 C259 1.167 . S
O266 Zn257 2.120 1_665 S
O266 C259 1.299 . S
O267 Zn255 1.898 . S
O267 C262 1.167 . S
O268 Zn257 2.120 . S
O268 C262 1.299 . S
O269 Zn257 2.114 1_655 S
O269 C271 1.166 . S
O270 Zn255 1.905 1_665 S
O270 C271 1.182 1_565 S
C271 O269 1.166 . S
C271 O270 1.182 1_545 S
O272 Zn257 2.080 . S
O272 C275 1.305 1_545 S
O273 Zn256 1.920 1_565 S
O273 C275 1.234 . S
C274 O260 1.305 . S
C274 O261 1.234 . S
C275 O272 1.305 1_565 S
C275 O273 1.234 . S
Zn276 O282 1.920 1_545 S
Zn276 O288 1.898 . S
Zn276 O291 1.905 1_445 S
Zn277 O285 1.905 . S
Zn277 O286 1.898 1_445 S
Zn277 O294 1.920 1_545 S
Zn278 O281 2.080 1_545 S
Zn278 O284 2.114 . S
Zn278 O287 2.120 1_445 S
Zn278 O289 2.120 . S
Zn278 O290 2.114 1_455 S
Zn278 O293 2.080 . S
C279 O284 1.166 . S
C279 O285 1.182 . S
C280 O286 1.167 . S
C280 O287 1.299 . S
O281 Zn278 2.080 1_565 S
O281 C295 1.305 . S
O282 Zn276 1.920 1_565 S
O282 C295 1.234 . S
C283 O288 1.167 . S
C283 O289 1.299 . S
O284 Zn278 2.114 . S
O284 C279 1.166 . S
O285 Zn277 1.905 . S
O285 C279 1.182 . S
O286 Zn277 1.898 1_665 S
O286 C280 1.167 . S
O287 Zn278 2.120 1_665 S
O287 C280 1.299 . S
O288 Zn276 1.898 . S
O288 C283 1.167 . S
O289 Zn278 2.120 . S
O289 C283 1.299 . S
O290 Zn278 2.114 1_655 S
O290 C292 1.166 1_545 S
O291 Zn276 1.905 1_665 S
O291 C292 1.182 . S
C292 O290 1.166 1_565 S
C292 O291 1.182 . S
O293 Zn278 2.080 . S
O293 C296 1.305 . S
O294 Zn277 1.920 1_565 S
O294 C296 1.234 1_565 S
C295 O281 1.305 . S
C295 O282 1.234 . S
C296 O293 1.305 . S
C296 O294 1.234 1_545 S
Zn297 O303 1.920 1_455 S
Zn297 O309 1.898 1_445 S
Zn297 O312 1.905 . S
Zn298 O306 1.905 1_445 S
Zn298 O307 1.898 . S
Zn298 O315 1.920 1_455 S
Zn299 O302 2.080 . S
Zn299 O305 2.114 1_545 S
Zn299 O308 2.120 . S
Zn299 O310 2.120 1_445 S
Zn299 O311 2.114 . S
Zn299 O314 2.080 1_455 S
C300 O305 1.166 1_655 S
C300 O306 1.182 . S
C301 O307 1.167 . S
C301 O308 1.299 . S
O302 Zn299 2.080 . S
O302 C316 1.305 . S
O303 Zn297 1.920 1_655 S
O303 C316 1.234 1_655 S
C304 O309 1.167 . S
C304 O310 1.299 . S
O305 Zn299 2.114 1_565 S
O305 C300 1.166 1_455 S
O306 Zn298 1.905 1_665 S
O306 C300 1.182 . S
O307 Zn298 1.898 . S
O307 C301 1.167 . S
O308 Zn299 2.120 . S
O308 C301 1.299 . S
O309 Zn297 1.898 1_665 S
O309 C304 1.167 . S
O310 Zn299 2.120 1_665 S
O310 C304 1.299 . S
O311 Zn299 2.114 . S
O311 C313 1.166 . S
O312 Zn297 1.905 . S
O312 C313 1.182 . S
C313 O311 1.166 . S
C313 O312 1.182 . S
O314 Zn299 2.080 1_655 S
O314 C317 1.305 . S
O315 Zn298 1.920 1_655 S
O315 C317 1.234 . S
C316 O302 1.305 . S
C316 O303 1.234 1_455 S
C317 O314 1.305 . S
C317 O315 1.234 . S
Zn318 O324 1.920 . S
Zn318 O330 1.898 . S
Zn318 O333 1.905 . S
Zn319 O327 1.905 . S
Zn319 O328 1.898 . S
Zn319 O336 1.920 . S
Zn320 O323 2.080 . S
Zn320 O326 2.114 . S
Zn320 O329 2.120 . S
Zn320 O331 2.120 . S
Zn320 O332 2.114 . S
Zn320 O335 2.080 . S
C321 O326 1.166 . S
C321 O327 1.182 . S
C322 O328 1.167 . S
C322 O329 1.299 . S
O323 Zn320 2.080 . S
O323 C337 1.305 . S
O324 Zn318 1.920 . S
O324 C337 1.234 . S
C325 O330 1.167 . S
C325 O331 1.299 . S
O326 Zn320 2.114 . S
O326 C321 1.166 . S
O327 Zn319 1.905 . S
O327 C321 1.182 . S
O328 Zn319 1.898 . S
O328 C322 1.167 . S
O329 Zn320 2.120 . S
O329 C322 1.299 . S
O330 Zn318 1.898 . S
O330 C325 1.167 . S
O331 Zn320 2.120 . S
O331 C325 1.299 . S
O332 Zn320 2.114 . S
O332 C334 1.166 . S
O333 Zn318 1.905 . S
O333 C334 1.182 . S
C334 O332 1.166 . S
C334 O333 1.182 . S
O335 Zn320 2.080 . S
O335 C338 1.305 . S
O336 Zn319 1.920 . S
O336 C338 1.234 . S
C337 O323 1.305 . S
C337 O324 1.234 . S
C338 O335 1.305 . S
C338 O336 1.234 . S
Zn339 O345 1.920 . S
Zn339 O351 1.898 . S
Zn339 O354 1.905 . S
Zn340 O348 1.905 . S
Zn340 O349 1.898 . S
Zn340 O357 1.920 . S
Zn341 O344 2.080 . S
Zn341 O347 2.114 . S
Zn341 O350 2.120 . S
Zn341 O352 2.120 . S
Zn341 O353 2.114 . S
Zn341 O356 2.080 . S
C342 O347 1.166 . S
C342 O348 1.182 . S
C343 O349 1.167 . S
C343 O350 1.299 . S
O344 Zn341 2.080 . S
O344 C358 1.305 . S
O345 Zn339 1.920 . S
O345 C358 1.234 . S
C346 O351 1.167 . S
C346 O352 1.299 . S
O347 Zn341 2.114 . S
O347 C342 1.166 . S
O348 Zn340 1.905 . S
O348 C342 1.182 . S
O349 Zn340 1.898 . S
O349 C343 1.167 . S
O350 Zn341 2.120 . S
O350 C343 1.299 . S
O351 Zn339 1.898 . S
O351 C346 1.167 . S
O352 Zn341 2.120 . S
O352 C346 1.299 . S
O353 Zn341 2.114 . S
O353 C355 1.166 . S
O354 Zn339 1.905 . S
O354 C355 1.182 . S
C355 O353 1.166 . S
C355 O354 1.182 . S
O356 Zn341 2.080 . S
O356 C359 1.305 . S
O357 Zn340 1.920 . S
O357 C359 1.234 . S
C358 O344 1.305 . S
C358 O345 1.234 . S
C359 O356 1.305 . S
C359 O357 1.234 . S
Zn360 O366 1.920 . S
Zn360 O372 1.898 . S
Zn360 O375 1.905 . S
Zn361 O369 1.905 . S
Zn361 O370 1.898 . S
Zn361 O378 1.920 . S
Zn362 O365 2.080 . S
Zn362 O368 2.114 . S
Zn362 O371 2.120 . S
Zn362 O373 2.120 . S
Zn362 O374 2.114 . S
Zn362 O377 2.080 . S
C363 O368 1.166 . S
C363 O369 1.182 . S
C364 O370 1.167 . S
C364 O371 1.299 . S
O365 Zn362 2.080 . S
O365 C379 1.305 . S
O366 Zn360 1.920 . S
O366 C379 1.234 . S
C367 O372 1.167 . S
C367 O373 1.299 . S
O368 Zn362 2.114 . S
O368 C363 1.166 . S
O369 Zn361 1.905 . S
O369 C363 1.182 . S
O370 Zn361 1.898 . S
O370 C364 1.167 . S
O371 Zn362 2.120 . S
O371 C364 1.299 . S
O372 Zn360 1.898 . S
O372 C367 1.167 . S
O373 Zn362 2.120 . S
O373 C367 1.299 . S
O374 Zn362 2.114 . S
O374 C376 1.166 . S
O375 Zn360 1.905 . S
O375 C376 1.182 . S
C376 O374 1.166 . S
C376 O375 1.182 . S
O377 Zn362 2.080 . S
O377 C380 1.305 . S
O378 Zn361 1.920 . S
O378 C380 1.234 . S
C379 O365 1.305 . S
C379 O366 1.234 . S
C380 O377 1.305 . S
C380 O378 1.234 . S
Zn381 O387 1.920 . S
Zn381 O393 1.898 . S
Zn381 O396 1.905 . S
Zn382 O390 1.905 . S
Zn382 O391 1.898 . S
Zn382 O399 1.920 . S
Zn383 O386 2.041 1_556 S
Zn383 O389 2.114 . S
Zn383 O392 2.120 . S
Zn383 O394 2.120 1_556 S
Zn383 O395 2.114 1_556 S
Zn383 O398 2.080 . S
C384 O389 1.166 . S
C384 O390 1.182 . S
C385 O391 1.167 . S
C385 O392 1.299 . S
O386 Zn383 2.041 1_554 S
O386 C400 1.359 . S
O387 Zn381 1.920 . S
O387 C400 1.234 . S
C388 O393 1.167 . S
C388 O394 1.299 . S
O389 Zn383 2.114 . S
O389 C384 1.166 . S
O390 Zn382 1.905 . S
O390 C384 1.182 . S
O391 Zn382 1.898 . S
O391 C385 1.167 . S
O392 Zn383 2.120 . S
O392 C385 1.299 . S
O393 Zn381 1.898 . S
O393 C388 1.167 . S
O394 Zn383 2.120 1_554 S
O394 C388 1.299 . S
O395 Zn383 2.114 1_554 S
O395 C397 1.166 . S
O396 Zn381 1.905 . S
O396 C397 1.182 . S
C397 O395 1.166 . S
C397 O396 1.182 . S
O398 Zn383 2.080 . S
O398 C401 1.305 . S
O399 Zn382 1.920 . S
O399 C401 1.234 . S
C400 O386 1.359 . S
C400 O387 1.234 . S
C401 O398 1.305 . S
C401 O399 1.234 . S
Zn402 O408 1.920 . S
Zn402 O414 1.898 . S
Zn402 O417 1.905 . S
Zn403 O411 1.905 . S
Zn403 O412 1.898 . S
Zn403 O420 1.920 . S
Zn404 O407 2.080 . S
Zn404 O410 2.114 . S
Zn404 O413 2.120 . S
Zn404 O415 2.120 . S
Zn404 O416 2.114 . S
Zn404 O419 2.080 . S
C405 O410 1.166 . S
C405 O411 1.182 . S
C406 O412 1.167 . S
C406 O413 1.299 . S
O407 Zn404 2.080 . S
O407 C421 1.305 . S
O408 Zn402 1.920 . S
O408 C421 1.234 . S
C409 O414 1.167 . S
C409 O415 1.299 . S
O410 Zn404 2.114 . S
O410 C405 1.166 . S
O411 Zn403 1.905 . S
O411 C405 1.182 . S
O412 Zn403 1.898 . S
O412 C406 1.167 . S
O413 Zn404 2.120 . S
O413 C406 1.299 . S
O414 Zn402 1.898 . S
O414 C409 1.167 . S
O415 Zn404 2.120 . S
O415 C409 1.299 . S
O416 Zn404 2.114 . S
O416 C418 1.166 . S
O417 Zn402 1.905 . S
O417 C418 1.182 . S
C418 O416 1.166 . S
C418 O417 1.182 . S
O419 Zn404 2.080 . S
O419 C422 1.305 . S
O420 Zn403 1.920 . S
O420 C422 1.234 . S
C421 O407 1.305 . S
C421 O408 1.234 . S
C422 O419 1.305 . S
C422 O420 1.234 . S
Zn423 O429 1.920 . S
Zn423 O435 1.898 . S
Zn423 O438 1.905 . S
Zn424 O432 1.905 . S
Zn424 O433 1.898 . S
Zn424 O441 1.920 . S
Zn425 O428 2.080 . S
Zn425 O431 2.114 1_554 S
Zn425 O434 2.120 1_554 S
Zn425 O436 2.120 . S
Zn425 O437 2.114 . S
Zn425 O440 2.041 1_554 S
C426 O431 1.166 . S
C426 O432 1.182 . S
C427 O433 1.167 . S
C427 O434 1.299 . S
O428 Zn425 2.080 . S
O428 C442 1.305 . S
O429 Zn423 1.920 . S
O429 C442 1.234 . S
C430 O435 1.167 . S
C430 O436 1.299 . S
O431 Zn425 2.114 1_556 S
O431 C426 1.166 . S
O432 Zn424 1.905 . S
O432 C426 1.182 . S
O433 Zn424 1.898 . S
O433 C427 1.167 . S
O434 Zn425 2.120 1_556 S
O434 C427 1.299 . S
O435 Zn423 1.898 . S
O435 C430 1.167 . S
O436 Zn425 2.120 . S
O436 C430 1.299 . S
O437 Zn425 2.114 . S
O437 C439 1.166 . S
O438 Zn423 1.905 . S
O438 C439 1.182 . S
C439 O437 1.166 . S
C439 O438 1.182 . S
O440 Zn425 2.041 1_556 S
O440 C443 1.359 . S
O441 Zn424 1.920 . S
O441 C443 1.234 . S
C442 O428 1.305 . S
C442 O429 1.234 . S
C443 O440 1.359 . S
C443 O441 1.234 . S
Zn444 O450 1.920 . S
Zn444 O456 1.898 . S
Zn444 O459 1.905 . S
Zn445 O453 1.905 . S
Zn445 O454 1.898 . S
Zn445 O462 1.920 . S
Zn446 O449 2.080 . S
Zn446 O452 2.114 . S
Zn446 O455 2.120 . S
Zn446 O457 2.120 . S
Zn446 O458 2.114 . S
Zn446 O461 2.080 . S
C447 O452 1.166 . S
C447 O453 1.182 . S
C448 O454 1.167 . S
C448 O455 1.299 . S
O449 Zn446 2.080 . S
O449 C463 1.305 . S
O450 Zn444 1.920 . S
O450 C463 1.234 . S
C451 O456 1.167 . S
C451 O457 1.299 . S
O452 Zn446 2.114 . S
O452 C447 1.166 . S
O453 Zn445 1.905 . S
O453 C447 1.182 . S
O454 Zn445 1.898 . S
O454 C448 1.167 . S
O455 Zn446 2.120 . S
O455 C448 1.299 . S
O456 Zn444 1.898 . S
O456 C451 1.167 . S
O457 Zn446 2.120 . S
O457 C451 1.299 . S
O458 Zn446 2.114 . S
O458 C460 1.166 . S
O459 Zn444 1.905 . S
O459 C460 1.182 . S
C460 O458 1.166 . S
C460 O459 1.182 . S
O461 Zn446 2.080 . S
O461 C464 1.305 . S
O462 Zn445 1.920 . S
O462 C464 1.234 . S
C463 O449 1.305 . S
C463 O450 1.234 . S
C464 O461 1.305 . S
C464 O462 1.234 . S
Zn465 O471 1.920 . S
Zn465 O477 1.898 . S
Zn465 O480 1.905 . S
Zn466 O474 1.905 . S
Zn466 O475 1.898 . S
Zn466 O483 1.920 . S
Zn467 O470 2.080 . S
Zn467 O473 2.114 . S
Zn467 O476 2.120 . S
Zn467 O478 2.120 . S
Zn467 O479 2.114 . S
Zn467 O482 2.080 . S
C468 O473 1.166 . S
C468 O474 1.182 . S
C469 O475 1.167 . S
C469 O476 1.299 . S
O470 Zn467 2.080 . S
O470 C484 1.305 . S
O471 Zn465 1.920 . S
O471 C484 1.234 . S
C472 O477 1.167 . S
C472 O478 1.299 . S
O473 Zn467 2.114 . S
O473 C468 1.166 . S
O474 Zn466 1.905 . S
O474 C468 1.182 . S
O475 Zn466 1.898 . S
O475 C469 1.167 . S
O476 Zn467 2.120 . S
O476 C469 1.299 . S
O477 Zn465 1.898 . S
O477 C472 1.167 . S
O478 Zn467 2.120 . S
O478 C472 1.299 . S
O479 Zn467 2.114 . S
O479 C481 1.166 . S
O480 Zn465 1.905 . S
O480 C481 1.182 . S
C481 O479 1.166 . S
C481 O480 1.182 . S
O482 Zn467 2.080 . S
O482 C485 1.305 . S
O483 Zn466 1.920 . S
O483 C485 1.234 . S
C484 O470 1.305 . S
C484 O471 1.234 . S
C485 O482 1.305 . S
C485 O483 1.234 . S
C486 C487 1.363 . S
C486 C492 1.379 . S
C486 N494 1.356 . S
C487 C486 1.363 . S
C487 C493 1.363 . S
C488 C489 1.363 . S
C488 C493 1.379 . S
C488 N495 1.356 . S
C489 C488 1.363 . S
C489 C492 1.363 . S
N490 C492 1.356 . S
N490 H502 0.984 . S
N490 H503 0.985 . S
N491 C493 1.356 . S
N491 H496 0.984 . S
N491 H497 0.985 . S
C492 C486 1.379 . S
C492 C489 1.363 . S
C492 N490 1.356 . S
C493 C487 1.363 . S
C493 C488 1.379 . S
C493 N491 1.356 . S
N494 C486 1.356 . S
N494 H500 0.984 . S
N494 H501 0.984 . S
N495 C488 1.356 . S
N495 H498 0.984 . S
N495 H499 0.985 . S
H496 N491 0.984 . S
H497 N491 0.985 . S
H498 N495 0.984 . S
H499 N495 0.985 . S
H500 N494 0.984 . S
H501 N494 0.984 . S
H502 N490 0.984 . S
H503 N490 0.985 . S
C504 C505 1.363 1_565 S
C504 C510 1.379 . S
C504 N512 1.356 . S
C505 C504 1.363 1_545 S
C505 C511 1.363 . S
C506 C507 1.363 . S
C506 C511 1.379 . S
C506 N513 1.356 . S
C507 C506 1.363 . S
C507 C510 1.363 1_545 S
N508 C510 1.356 . S
N508 H520 0.984 . S
N508 H521 0.985 . S
N509 C511 1.356 . S
N509 H514 0.984 . S
N509 H515 0.985 . S
C510 C504 1.379 . S
C510 C507 1.363 1_565 S
C510 N508 1.356 . S
C511 C505 1.363 . S
C511 C506 1.379 . S
C511 N509 1.356 . S
N512 C504 1.356 . S
N512 H518 0.984 . S
N512 H519 0.984 . S
N513 C506 1.356 . S
N513 H516 0.984 . S
N513 H517 0.985 . S
H514 N509 0.984 . S
H515 N509 0.985 . S
H516 N513 0.984 . S
H517 N513 0.985 . S
H518 N512 0.984 . S
H519 N512 0.984 . S
H520 N508 0.984 . S
H521 N508 0.985 . S
C522 C523 1.363 1_655 S
C522 C528 1.379 . S
C522 N530 1.356 . S
C523 C522 1.363 1_455 S
C523 C529 1.363 . S
C524 C525 1.363 . S
C524 C529 1.379 . S
C524 N531 1.356 . S
C525 C524 1.363 . S
C525 C528 1.363 1_455 S
N526 C528 1.356 . S
N526 H538 0.984 . S
N526 H539 0.985 . S
N527 C529 1.356 . S
N527 H532 0.984 . S
N527 H533 0.985 . S
C528 C522 1.379 . S
C528 C525 1.363 1_655 S
C528 N526 1.356 . S
C529 C523 1.363 . S
C529 C524 1.379 . S
C529 N527 1.356 . S
N530 C522 1.356 . S
N530 H536 0.984 . S
N530 H537 0.984 . S
N531 C524 1.356 . S
N531 H534 0.984 . S
N531 H535 0.985 . S
H532 N527 0.984 . S
H533 N527 0.985 . S
H534 N531 0.984 . S
H535 N531 0.985 . S
H536 N530 0.984 . S
H537 N530 0.984 . S
H538 N526 0.984 . S
H539 N526 0.985 . S
C540 C541 1.363 . S
C540 C546 1.379 . S
C540 N548 1.356 . S
C541 C540 1.363 . S
C541 C547 1.363 . S
C542 C543 1.363 . S
C542 C547 1.379 . S
C542 N549 1.356 . S
C543 C542 1.363 . S
C543 C546 1.363 . S
N544 C546 1.356 . S
N544 H556 0.984 . S
N544 H557 0.985 . S
N545 C547 1.356 . S
N545 H550 0.984 . S
N545 H551 0.985 . S
C546 C540 1.379 . S
C546 C543 1.363 . S
C546 N544 1.356 . S
C547 C541 1.363 . S
C547 C542 1.379 . S
C547 N545 1.356 . S
N548 C540 1.356 . S
N548 H554 0.984 . S
N548 H555 0.984 . S
N549 C542 1.356 . S
N549 H552 0.984 . S
N549 H553 0.985 . S
H550 N545 0.984 . S
H551 N545 0.985 . S
H552 N549 0.984 . S
H553 N549 0.985 . S
H554 N548 0.984 . S
H555 N548 0.984 . S
H556 N544 0.984 . S
H557 N544 0.985 . S
C558 C559 1.363 . S
C558 C564 1.379 . S
C558 N566 1.356 . S
C559 C558 1.363 . S
C559 C565 1.363 1_545 S
C560 C561 1.363 1_565 S
C560 C565 1.379 . S
C560 N567 1.356 . S
C561 C560 1.363 1_545 S
C561 C564 1.363 . S
N562 C564 1.356 . S
N562 H574 0.984 . S
N562 H575 0.985 . S
N563 C565 1.356 . S
N563 H568 0.984 . S
N563 H569 0.985 . S
C564 C558 1.379 . S
C564 C561 1.363 . S
C564 N562 1.356 . S
C565 C559 1.363 1_565 S
C565 C560 1.379 . S
C565 N563 1.356 . S
N566 C558 1.356 . S
N566 H572 0.984 . S
N566 H573 0.984 . S
N567 C560 1.356 . S
N567 H570 0.984 . S
N567 H571 0.985 . S
H568 N563 0.984 . S
H569 N563 0.985 . S
H570 N567 0.984 . S
H571 N567 0.985 . S
H572 N566 0.984 . S
H573 N566 0.984 . S
H574 N562 0.984 . S
H575 N562 0.985 . S
C576 C577 1.363 1_655 S
C576 C582 1.379 . S
C576 N584 1.356 . S
C577 C576 1.363 1_455 S
C577 C583 1.363 . S
C578 C579 1.363 . S
C578 C583 1.379 . S
C578 N585 1.356 . S
C579 C578 1.363 . S
C579 C582 1.363 1_455 S
N580 C582 1.356 . S
N580 H592 0.984 . S
N580 H593 0.985 . S
N581 C583 1.356 . S
N581 H586 0.984 . S
N581 H587 0.985 . S
C582 C576 1.379 . S
C582 C579 1.363 1_655 S
C582 N580 1.356 . S
C583 C577 1.363 . S
C583 C578 1.379 . S
C583 N581 1.356 . S
N584 C576 1.356 . S
N584 H590 0.984 . S
N584 H591 0.984 . S
N585 C578 1.356 . S
N585 H588 0.984 . S
N585 H589 0.985 . S
H586 N581 0.984 . S
H587 N581 0.985 . S
H588 N585 0.984 . S
H589 N585 0.985 . S
H590 N584 0.984 . S
H591 N584 0.984 . S
H592 N580 0.984 . S
H593 N580 0.985 . S
C594 C595 1.363 . S
C594 C600 1.379 . S
C594 N602 1.356 . S
C595 C594 1.363 . S
C595 C601 1.363 . S
C596 C597 1.363 . S
C596 C601 1.379 . S
C596 N603 1.356 . S
C597 C596 1.363 . S
C597 C600 1.363 . S
N598 C600 1.356 . S
N598 H610 0.984 . S
N598 H611 0.985 . S
N599 C601 1.356 . S
N599 H604 0.984 . S
N599 H605 0.985 . S
C600 C594 1.379 . S
C600 C597 1.363 . S
C600 N598 1.356 . S
C601 C595 1.363 . S
C601 C596 1.379 . S
C601 N599 1.356 . S
N602 C594 1.356 . S
N602 H608 0.984 . S
N602 H609 0.984 . S
N603 C596 1.356 . S
N603 H606 0.984 . S
N603 H607 0.985 . S
H604 N599 0.984 . S
H605 N599 0.985 . S
H606 N603 0.984 . S
H607 N603 0.985 . S
H608 N602 0.984 . S
H609 N602 0.984 . S
H610 N598 0.984 . S
H611 N598 0.985 . S
C612 C613 1.363 . S
C612 C618 1.379 . S
C612 N620 1.356 . S
C613 C612 1.363 . S
C613 C619 1.363 1_545 S
C614 C615 1.363 1_565 S
C614 C619 1.379 . S
C614 N621 1.356 . S
C615 C614 1.363 1_545 S
C615 C618 1.363 . S
N616 C618 1.356 . S
N616 H628 0.984 . S
N616 H629 0.985 . S
N617 C619 1.356 . S
N617 H622 0.984 . S
N617 H623 0.985 . S
C618 C612 1.379 . S
C618 C615 1.363 . S
C618 N616 1.356 . S
C619 C613 1.363 1_565 S
C619 C614 1.379 . S
C619 N617 1.356 . S
N620 C612 1.356 . S
N620 H626 0.984 . S
N620 H627 0.984 . S
N621 C614 1.356 . S
N621 H624 0.984 . S
N621 H625 0.985 . S
H622 N617 0.984 . S
H623 N617 0.985 . S
H624 N621 0.984 . S
H625 N621 0.985 . S
H626 N620 0.984 . S
H627 N620 0.984 . S
H628 N616 0.984 . S
H629 N616 0.985 . S
C630 C631 1.363 . S
C630 C636 1.379 . S
C630 N638 1.356 . S
C631 C630 1.363 . S
C631 C637 1.363 1_455 S
C632 C633 1.363 1_655 S
C632 C637 1.379 . S
C632 N639 1.356 . S
C633 C632 1.363 1_455 S
C633 C636 1.363 . S
N634 C636 1.356 . S
N634 H646 0.984 . S
N634 H647 0.985 . S
N635 C637 1.356 . S
N635 H640 0.984 . S
N635 H641 0.985 . S
C636 C630 1.379 . S
C636 C633 1.363 . S
C636 N634 1.356 . S
C637 C631 1.363 1_655 S
C637 C632 1.379 . S
C637 N635 1.356 . S
N638 C630 1.356 . S
N638 H644 0.984 . S
N638 H645 0.984 . S
N639 C632 1.356 . S
N639 H642 0.984 . S
N639 H643 0.985 . S
H640 N635 0.984 . S
H641 N635 0.985 . S
H642 N639 0.984 . S
H643 N639 0.985 . S
H644 N638 0.984 . S
H645 N638 0.984 . S
H646 N634 0.984 . S
H647 N634 0.985 . S
C648 C649 1.363 . S
C648 C654 1.379 . S
C648 N656 1.356 . S
C649 C648 1.363 . S
C649 C655 1.363 . S
C650 C651 1.363 . S
C650 C655 1.379 . S
C650 N657 1.356 . S
C651 C650 1.363 . S
C651 C654 1.363 . S
N652 C654 1.356 . S
N652 H664 0.984 . S
N652 H665 0.985 . S
N653 C655 1.356 . S
N653 H658 0.984 . S
N653 H659 0.985 . S
C654 C648 1.379 . S
C654 C651 1.363 . S
C654 N652 1.356 . S
C655 C649 1.363 . S
C655 C650 1.379 . S
C655 N653 1.356 . S
N656 C648 1.356 . S
N656 H662 0.984 . S
N656 H663 0.984 . S
N657 C650 1.356 . S
N657 H660 0.984 . S
N657 H661 0.985 . S
H658 N653 0.984 . S
H659 N653 0.985 . S
H660 N657 0.984 . S
H661 N657 0.985 . S
H662 N656 0.984 . S
H663 N656 0.984 . S
H664 N652 0.984 . S
H665 N652 0.985 . S
C666 C667 1.363 . S
C666 C672 1.379 . S
C666 N674 1.356 . S
C667 C666 1.363 . S
C667 C673 1.363 1_545 S
C668 C669 1.363 1_565 S
C668 C673 1.379 . S
C668 N675 1.356 . S
C669 C668 1.363 1_545 S
C669 C672 1.363 . S
N670 C672 1.356 . S
N670 H682 0.984 . S
N670 H683 0.985 . S
N671 C673 1.356 . S
N671 H676 0.984 . S
N671 H677 0.985 . S
C672 C666 1.379 . S
C672 C669 1.363 . S
C672 N670 1.356 . S
C673 C667 1.363 1_565 S
C673 C668 1.379 . S
C673 N671 1.356 . S
N674 C666 1.356 . S
N674 H680 0.984 . S
N674 H681 0.984 . S
N675 C668 1.356 . S
N675 H678 0.984 . S
N675 H679 0.985 . S
H676 N671 0.984 . S
H677 N671 0.985 . S
H678 N675 0.984 . S
H679 N675 0.985 . S
H680 N674 0.984 . S
H681 N674 0.984 . S
H682 N670 0.984 . S
H683 N670 0.985 . S
C684 C685 1.363 1_655 S
C684 C690 1.379 . S
C684 N692 1.356 . S
C685 C684 1.363 1_455 S
C685 C691 1.363 . S
C686 C687 1.363 . S
C686 C691 1.379 . S
C686 N693 1.356 . S
C687 C686 1.363 . S
C687 C690 1.363 1_455 S
N688 C690 1.356 . S
N688 H700 0.984 . S
N688 H701 0.985 . S
N689 C691 1.356 . S
N689 H694 0.984 . S
N689 H695 0.985 . S
C690 C684 1.379 . S
C690 C687 1.363 1_655 S
C690 N688 1.356 . S
C691 C685 1.363 . S
C691 C686 1.379 . S
C691 N689 1.356 . S
N692 C684 1.356 . S
N692 H698 0.984 . S
N692 H699 0.985 1_655 S
N693 C686 1.356 . S
N693 H696 0.984 . S
N693 H697 0.985 . S
H694 N689 0.984 . S
H695 N689 0.985 . S
H696 N693 0.984 . S
H697 N693 0.985 . S
H698 N692 0.984 . S
H699 N692 0.985 1_455 S
H700 N688 0.984 . S
H701 N688 0.985 . S
C702 C703 1.363 . S
C702 C708 1.379 . S
C702 N710 1.356 . S
C703 C702 1.363 . S
C703 C709 1.363 . S
C704 C705 1.363 . S
C704 C709 1.379 . S
C704 N711 1.356 . S
C705 C704 1.363 . S
C705 C708 1.363 . S
N706 C708 1.356 . S
N706 H718 0.984 . S
N706 H719 0.985 . S
N707 C709 1.356 . S
N707 H712 0.984 . S
N707 H713 0.985 . S
C708 C702 1.379 . S
C708 C705 1.363 . S
C708 N706 1.356 . S
C709 C703 1.363 . S
C709 C704 1.379 . S
C709 N707 1.356 . S
N710 C702 1.356 . S
N710 H716 0.984 . S
N710 H717 0.984 . S
N711 C704 1.356 . S
N711 H714 0.984 . S
N711 H715 0.985 . S
H712 N707 0.984 . S
H713 N707 0.985 . S
H714 N711 0.984 . S
H715 N711 0.985 . S
H716 N710 0.984 . S
H717 N710 0.984 . S
H718 N706 0.984 . S
H719 N706 0.985 . S
C720 C721 1.363 . S
C720 C726 1.379 . S
C720 N728 1.356 . S
C721 C720 1.363 . S
C721 C727 1.363 . S
C722 C723 1.363 . S
C722 C727 1.379 . S
C722 N729 1.356 . S
C723 C722 1.363 . S
C723 C726 1.363 . S
N724 C726 1.356 . S
N724 H736 0.984 . S
N724 H737 0.985 . S
N725 C727 1.356 . S
N725 H730 0.984 . S
N725 H731 0.985 . S
C726 C720 1.379 . S
C726 C723 1.363 . S
C726 N724 1.356 . S
C727 C721 1.363 . S
C727 C722 1.379 . S
C727 N725 1.356 . S
N728 C720 1.356 . S
N728 H734 0.984 . S
N728 H735 0.984 . S
N729 C722 1.356 . S
N729 H732 0.984 . S
N729 H733 0.985 . S
H730 N725 0.984 . S
H731 N725 0.985 . S
H732 N729 0.984 . S
H733 N729 0.985 . S
H734 N728 0.984 . S
H735 N728 0.984 . S
H736 N724 0.984 . S
H737 N724 0.985 . S
C738 C739 1.363 . S
C738 C744 1.379 . S
C738 N746 1.356 . S
C739 C738 1.363 . S
C739 C745 1.363 . S
C740 C741 1.363 . S
C740 C745 1.379 . S
C740 N747 1.356 . S
C741 C740 1.363 . S
C741 C744 1.363 . S
N742 C744 1.356 . S
N742 H754 0.984 . S
N742 H755 0.985 . S
N743 C745 1.356 . S
N743 H748 0.984 . S
N743 H749 0.985 . S
C744 C738 1.379 . S
C744 C741 1.363 . S
C744 N742 1.356 . S
C745 C739 1.363 . S
C745 C740 1.379 . S
C745 N743 1.356 . S
N746 C738 1.356 . S
N746 H752 0.984 . S
N746 H753 0.984 . S
N747 C740 1.356 . S
N747 H750 0.984 . S
N747 H751 0.985 . S
H748 N743 0.984 . S
H749 N743 0.985 . S
H750 N747 0.984 . S
H751 N747 0.985 . S
H752 N746 0.984 . S
H753 N746 0.984 . S
H754 N742 0.984 . S
H755 N742 0.985 . S
C756 C757 1.363 . S
C756 C762 1.379 . S
C756 N764 1.356 . S
C757 C756 1.363 . S
C757 C763 1.363 . S
C758 C759 1.363 . S
C758 C763 1.379 . S
C758 N765 1.356 . S
C759 C758 1.363 . S
C759 C762 1.363 . S
N760 C762 1.356 . S
N760 H772 0.984 . S
N760 H773 0.985 . S
N761 C763 1.356 . S
N761 H766 0.984 . S
N761 H767 0.985 . S
C762 C756 1.379 . S
C762 C759 1.363 . S
C762 N760 1.356 . S
C763 C757 1.363 . S
C763 C758 1.379 . S
C763 N761 1.356 . S
N764 C756 1.356 . S
N764 H770 0.984 . S
N764 H771 0.984 . S
N765 C758 1.356 . S
N765 H768 0.984 . S
N765 H769 0.985 . S
H766 N761 0.984 . S
H767 N761 0.985 . S
H768 N765 0.984 . S
H769 N765 0.985 . S
H770 N764 0.984 . S
H771 N764 0.984 . S
H772 N760 0.984 . S
H773 N760 0.985 . S
C774 C775 1.363 . S
C774 C780 1.379 . S
C774 N782 1.356 . S
C775 C774 1.363 . S
C775 C781 1.363 . S
C776 C777 1.363 . S
C776 C781 1.379 . S
C776 N783 1.356 . S
C777 C776 1.363 . S
C777 C780 1.363 . S
N778 C780 1.356 . S
N778 H790 0.984 . S
N778 H791 0.985 . S
N779 C781 1.356 . S
N779 H784 0.984 . S
N779 H785 0.985 . S
C780 C774 1.379 . S
C780 C777 1.363 . S
C780 N778 1.356 . S
C781 C775 1.363 . S
C781 C776 1.379 . S
C781 N779 1.356 . S
N782 C774 1.356 . S
N782 H788 0.984 . S
N782 H789 0.984 . S
N783 C776 1.356 . S
N783 H786 0.984 . S
N783 H787 0.985 . S
H784 N779 0.984 . S
H785 N779 0.985 . S
H786 N783 0.984 . S
H787 N783 0.985 . S
H788 N782 0.984 . S
H789 N782 0.984 . S
H790 N778 0.984 . S
H791 N778 0.985 . S
C792 C793 1.363 . S
C792 C798 1.379 . S
C792 N800 1.356 . S
C793 C792 1.363 . S
C793 C799 1.363 . S
C794 C795 1.363 . S
C794 C799 1.379 . S
C794 N801 1.356 . S
C795 C794 1.363 . S
C795 C798 1.363 . S
N796 C798 1.356 . S
N796 H808 0.984 . S
N796 H809 0.985 . S
N797 C799 1.356 . S
N797 H802 0.984 . S
N797 H803 0.985 . S
C798 C792 1.379 . S
C798 C795 1.363 . S
C798 N796 1.356 . S
C799 C793 1.363 . S
C799 C794 1.379 . S
C799 N797 1.356 . S
N800 C792 1.356 . S
N800 H806 0.984 . S
N800 H807 0.984 . S
N801 C794 1.356 . S
N801 H804 0.984 . S
N801 H805 0.985 . S
H802 N797 0.984 . S
H803 N797 0.985 . S
H804 N801 0.984 . S
H805 N801 0.985 . S
H806 N800 0.984 . S
H807 N800 0.984 . S
H808 N796 0.984 . S
H809 N796 0.985 . S
C810 C811 1.363 . S
C810 C816 1.379 . S
C810 N818 1.356 . S
C811 C810 1.363 . S
C811 C817 1.363 . S
C812 C813 1.363 . S
C812 C817 1.379 . S
C812 N819 1.356 . S
C813 C812 1.363 . S
C813 C816 1.363 . S
N814 C816 1.356 . S
N814 H826 0.984 . S
N814 H827 0.985 . S
N815 C817 1.356 . S
N815 H820 0.984 . S
N815 H821 0.985 . S
C816 C810 1.379 . S
C816 C813 1.363 . S
C816 N814 1.356 . S
C817 C811 1.363 . S
C817 C812 1.379 . S
C817 N815 1.356 . S
N818 C810 1.356 . S
N818 H824 0.984 . S
N818 H825 0.984 . S
N819 C812 1.356 . S
N819 H822 0.984 . S
N819 H823 0.985 . S
H820 N815 0.984 . S
H821 N815 0.985 . S
H822 N819 0.984 . S
H823 N819 0.985 . S
H824 N818 0.984 . S
H825 N818 0.984 . S
H826 N814 0.984 . S
H827 N814 0.985 . S
C828 C829 1.363 . S
C828 C834 1.379 . S
C828 N836 1.356 . S
C829 C828 1.363 . S
C829 C835 1.363 . S
C830 C831 1.363 . S
C830 C835 1.379 . S
C830 N837 1.356 . S
C831 C830 1.363 . S
C831 C834 1.363 . S
N832 C834 1.356 . S
N832 H844 0.984 . S
N832 H845 0.985 . S
N833 C835 1.356 . S
N833 H838 0.984 . S
N833 H839 0.985 . S
C834 C828 1.379 . S
C834 C831 1.363 . S
C834 N832 1.356 . S
C835 C829 1.363 . S
C835 C830 1.379 . S
C835 N833 1.356 . S
N836 C828 1.356 . S
N836 H842 0.984 . S
N836 H843 0.984 . S
N837 C830 1.356 . S
N837 H840 0.984 . S
N837 H841 0.985 . S
H838 N833 0.984 . S
H839 N833 0.985 . S
H840 N837 0.984 . S
H841 N837 0.985 . S
H842 N836 0.984 . S
H843 N836 0.984 . S
H844 N832 0.984 . S
H845 N832 0.985 . S
C846 C847 1.363 . S
C846 C852 1.379 . S
C846 N854 1.356 . S
C847 C846 1.363 . S
C847 C853 1.363 . S
C848 C849 1.363 . S
C848 C853 1.379 . S
C848 N855 1.356 . S
C849 C848 1.363 . S
C849 C852 1.363 . S
N850 C852 1.356 . S
N850 H862 0.984 . S
N850 H863 0.985 . S
N851 C853 1.356 . S
N851 H856 0.984 . S
N851 H857 0.985 . S
C852 C846 1.379 . S
C852 C849 1.363 . S
C852 N850 1.356 . S
C853 C847 1.363 . S
C853 C848 1.379 . S
C853 N851 1.356 . S
N854 C846 1.356 . S
N854 H860 0.984 . S
N854 H861 0.984 . S
N855 C848 1.356 . S
N855 H858 0.984 . S
N855 H859 0.985 . S
H856 N851 0.984 . S
H857 N851 0.985 . S
H858 N855 0.984 . S
H859 N855 0.985 . S
H860 N854 0.984 . S
H861 N854 0.984 . S
H862 N850 0.984 . S
H863 N850 0.985 . S
C864 C865 1.363 . S
C864 C870 1.379 . S
C864 N872 1.356 . S
C865 C864 1.363 . S
C865 C871 1.363 . S
C866 C867 1.363 . S
C866 C871 1.379 . S
C866 N873 1.356 1_554 S
C867 C866 1.363 . S
C867 C870 1.363 . S
N868 C870 1.356 . S
N868 H880 0.984 . S
N868 H881 0.985 . S
N869 C871 1.356 . S
N869 H874 0.984 . S
N869 H875 0.985 . S
C870 C864 1.379 . S
C870 C867 1.363 . S
C870 N868 1.356 . S
C871 C865 1.363 . S
C871 C866 1.379 . S
C871 N869 1.356 . S
N872 C864 1.356 . S
N872 H878 0.984 . S
N872 H879 0.984 . S
N873 C866 1.356 1_556 S
N873 H876 0.984 . S
N873 H877 0.985 . S
H874 N869 0.984 . S
H875 N869 0.985 . S
H876 N873 0.984 . S
H877 N873 0.985 . S
H878 N872 0.984 . S
H879 N872 0.984 . S
H880 N868 0.984 . S
H881 N868 0.985 . S
C882 C883 1.363 . S
C882 C888 1.379 . S
C882 N890 1.356 . S
C883 C882 1.363 . S
C883 C889 1.363 . S
C884 C885 1.363 . S
C884 C889 1.379 . S
C884 N891 1.356 . S
C885 C884 1.363 . S
C885 C888 1.363 . S
N886 C888 1.356 . S
N886 H898 0.984 . S
N886 H899 0.985 . S
N887 C889 1.356 . S
N887 H892 0.984 . S
N887 H893 0.985 . S
C888 C882 1.379 . S
C888 C885 1.363 . S
C888 N886 1.356 . S
C889 C883 1.363 . S
C889 C884 1.379 . S
C889 N887 1.356 . S
N890 C882 1.356 . S
N890 H896 0.984 . S
N890 H897 0.984 . S
N891 C884 1.356 . S
N891 H894 0.984 1_554 S
N891 H895 0.985 1_554 S
H892 N887 0.984 . S
H893 N887 0.985 . S
H894 N891 0.984 1_556 S
H895 N891 0.985 1_556 S
H896 N890 0.984 . S
H897 N890 0.984 . S
H898 N886 0.984 . S
H899 N886 0.985 . S
C900 C901 1.363 . S
C900 C906 1.379 . S
C900 N908 1.356 . S
C901 C900 1.363 . S
C901 C907 1.363 . S
C902 C903 1.363 . S
C902 C907 1.379 . S
C902 N909 1.356 . S
C903 C902 1.363 . S
C903 C906 1.363 . S
N904 C906 1.356 1_556 S
N904 H916 0.984 . S
N904 H917 0.985 . S
N905 C907 1.356 . S
N905 H910 0.984 . S
N905 H911 0.985 . S
C906 C900 1.379 . S
C906 C903 1.363 . S
C906 N904 1.356 1_554 S
C907 C901 1.363 . S
C907 C902 1.379 . S
C907 N905 1.356 . S
N908 C900 1.356 . S
N908 H914 0.984 . S
N908 H915 0.984 . S
N909 C902 1.356 . S
N909 H912 0.984 . S
N909 H913 0.985 . S
H910 N905 0.984 . S
H911 N905 0.985 . S
H912 N909 0.984 . S
H913 N909 0.985 . S
H914 N908 0.984 . S
H915 N908 0.984 . S
H916 N904 0.984 . S
H917 N904 0.985 . S
C918 C919 1.363 . S
C918 C924 1.379 . S
C918 N926 1.356 . S
C919 C918 1.363 . S
C919 C925 1.363 . S
C920 C921 1.363 . S
C920 C925 1.379 . S
C920 N927 1.356 . S
C921 C920 1.363 . S
C921 C924 1.363 . S
N922 C924 1.356 . S
N922 H934 0.984 . S
N922 H935 0.985 . S
N923 C925 1.356 . S
N923 H928 0.984 . S
N923 H929 0.985 . S
C924 C918 1.379 . S
C924 C921 1.363 . S
C924 N922 1.356 . S
C925 C919 1.363 . S
C925 C920 1.379 . S
C925 N923 1.356 . S
N926 C918 1.356 . S
N926 H932 0.984 . S
N926 H933 0.984 . S
N927 C920 1.356 . S
N927 H930 0.984 . S
N927 H931 0.985 . S
H928 N923 0.984 . S
H929 N923 0.985 . S
H930 N927 0.984 . S
H931 N927 0.985 . S
H932 N926 0.984 . S
H933 N926 0.984 . S
H934 N922 0.984 . S
H935 N922 0.985 . S
C936 C937 1.363 . S
C936 C942 1.379 . S
C936 N944 1.356 . S
C937 C936 1.363 . S
C937 C943 1.363 . S
C938 C939 1.363 . S
C938 C943 1.379 . S
C938 N945 1.356 . S
C939 C938 1.363 . S
C939 C942 1.363 . S
N940 C942 1.356 . S
N940 H952 0.984 . S
N940 H953 0.985 . S
N941 C943 1.356 . S
N941 H946 0.984 . S
N941 H947 0.985 . S
C942 C936 1.379 . S
C942 C939 1.363 . S
C942 N940 1.356 . S
C943 C937 1.363 . S
C943 C938 1.379 . S
C943 N941 1.356 . S
N944 C936 1.356 . S
N944 H950 0.984 . S
N944 H951 0.984 . S
N945 C938 1.356 . S
N945 H948 0.984 . S
N945 H949 0.985 . S
H946 N941 0.984 . S
H947 N941 0.985 . S
H948 N945 0.984 . S
H949 N945 0.985 . S
H950 N944 0.984 . S
H951 N944 0.984 . S
H952 N940 0.984 . S
H953 N940 0.985 . S
C954 C955 1.363 . S
C954 C960 1.379 . S
C954 N962 1.356 . S
C955 C954 1.363 . S
C955 C961 1.363 . S
C956 C957 1.363 . S
C956 C961 1.379 . S
C956 N963 1.356 . S
C957 C956 1.363 . S
C957 C960 1.363 . S
N958 C960 1.356 . S
N958 H970 0.984 . S
N958 H971 0.985 . S
N959 C961 1.356 . S
N959 H964 0.984 . S
N959 H965 0.985 . S
C960 C954 1.379 . S
C960 C957 1.363 . S
C960 N958 1.356 . S
C961 C955 1.363 . S
C961 C956 1.379 . S
C961 N959 1.356 . S
N962 C954 1.356 . S
N962 H968 0.984 . S
N962 H969 0.984 . S
N963 C956 1.356 . S
N963 H966 0.984 . S
N963 H967 0.985 . S
H964 N959 0.984 . S
H965 N959 0.985 . S
H966 N963 0.984 . S
H967 N963 0.985 . S
H968 N962 0.984 . S
H969 N962 0.984 . S
H970 N958 0.984 . S
H971 N958 0.985 . S
C972 C973 1.363 . S
C972 C978 1.379 . S
C972 N980 1.356 . S
C973 C972 1.363 . S
C973 C979 1.363 . S
C974 C975 1.363 . S
C974 C979 1.379 . S
C974 N981 1.356 1_556 S
C975 C974 1.363 . S
C975 C978 1.363 . S
N976 C978 1.356 . S
N976 H988 0.984 . S
N976 H989 0.985 . S
N977 C979 1.356 . S
N977 H982 0.984 . S
N977 H983 0.985 . S
C978 C972 1.379 . S
C978 C975 1.363 . S
C978 N976 1.356 . S
C979 C973 1.363 . S
C979 C974 1.379 . S
C979 N977 1.356 . S
N980 C972 1.356 . S
N980 H986 0.984 . S
N980 H987 0.984 . S
N981 C974 1.356 1_554 S
N981 H984 0.984 . S
N981 H985 0.985 . S
H982 N977 0.984 . S
H983 N977 0.985 . S
H984 N981 0.984 . S
H985 N981 0.985 . S
H986 N980 0.984 . S
H987 N980 0.984 . S
H988 N976 0.984 . S
H989 N976 0.985 . S
C990 C991 1.363 . S
C990 C996 1.379 . S
C990 N998 1.356 . S
C991 C990 1.363 . S
C991 C997 1.363 . S
C992 C993 1.363 . S
C992 C997 1.379 . S
C992 N999 1.356 . S
C993 C992 1.363 . S
C993 C996 1.363 . S
N994 C996 1.356 . S
N994 H1006 0.984 . S
N994 H1007 0.985 . S
N995 C997 1.356 . S
N995 H1000 0.984 . S
N995 H1001 0.985 . S
C996 C990 1.379 . S
C996 C993 1.363 . S
C996 N994 1.356 . S
C997 C991 1.363 . S
C997 C992 1.379 . S
C997 N995 1.356 . S
N998 C990 1.356 . S
N998 H1004 0.984 . S
N998 H1005 0.984 . S
N999 C992 1.356 . S
N999 H1002 0.984 . S
N999 H1003 0.985 . S
H1000 N995 0.984 . S
H1001 N995 0.985 . S
H1002 N999 0.984 . S
H1003 N999 0.985 . S
H1004 N998 0.984 . S
H1005 N998 0.984 . S
H1006 N994 0.984 . S
H1007 N994 0.985 . S
C1008 C1009 1.363 . S
C1008 C1014 1.379 . S
C1008 N1016 1.356 . S
C1009 C1008 1.363 . S
C1009 C1015 1.363 . S
C1010 C1011 1.363 . S
C1010 C1015 1.379 . S
C1010 N1017 1.356 . S
C1011 C1010 1.363 . S
C1011 C1014 1.363 . S
N1012 C1014 1.305 1_554 S
N1012 H1024 1.009 . S
N1012 H1025 1.014 . S
N1013 C1015 1.356 . S
N1013 H1018 0.984 . S
N1013 H1019 0.985 . S
C1014 C1008 1.379 . S
C1014 C1011 1.363 . S
C1014 N1012 1.305 1_556 S
C1015 C1009 1.363 . S
C1015 C1010 1.379 . S
C1015 N1013 1.356 . S
N1016 C1008 1.356 . S
N1016 H1022 0.984 . S
N1016 H1023 0.984 . S
N1017 C1010 1.356 . S
N1017 H1020 0.984 . S
N1017 H1021 0.985 . S
H1018 N1013 0.984 . S
H1019 N1013 0.985 . S
H1020 N1017 0.984 . S
H1021 N1017 0.985 . S
H1022 N1016 0.984 . S
H1023 N1016 0.984 . S
H1024 N1012 1.009 . S
H1025 N1012 1.014 . S
C1026 C1027 1.363 . S
C1026 C1032 1.379 . S
C1026 N1034 1.356 . S
C1027 C1026 1.363 . S
C1027 C1033 1.363 . S
C1028 C1029 1.363 . S
C1028 C1033 1.379 . S
C1028 N1035 1.356 . S
C1029 C1028 1.363 . S
C1029 C1032 1.363 . S
N1030 C1032 1.356 . S
N1030 H1042 0.984 . S
N1030 H1043 0.985 . S
N1031 C1033 1.356 . S
N1031 H1036 0.984 . S
N1031 H1037 0.985 . S
C1032 C1026 1.379 . S
C1032 C1029 1.363 . S
C1032 N1030 1.356 . S
C1033 C1027 1.363 . S
C1033 C1028 1.379 . S
C1033 N1031 1.356 . S
N1034 C1026 1.356 . S
N1034 H1040 0.984 . S
N1034 H1041 0.984 . S
N1035 C1028 1.356 . S
N1035 H1038 0.984 . S
N1035 H1039 0.985 . S
H1036 N1031 0.984 . S
H1037 N1031 0.985 . S
H1038 N1035 0.984 . S
H1039 N1035 0.985 . S
H1040 N1034 0.984 . S
H1041 N1034 0.984 . S
H1042 N1030 0.984 . S
H1043 N1030 0.985 . S
C1044 C1045 1.363 . S
C1044 C1050 1.379 . S
C1044 N1052 1.356 . S
C1045 C1044 1.363 . S
C1045 C1051 1.363 . S
C1046 C1047 1.363 . S
C1046 C1051 1.379 . S
C1046 N1053 1.356 . S
C1047 C1046 1.363 . S
C1047 C1050 1.363 . S
N1048 C1050 1.356 . S
N1048 H1060 0.984 . S
N1048 H1061 0.985 . S
N1049 C1051 1.356 . S
N1049 H1054 0.984 . S
N1049 H1055 0.985 . S
C1050 C1044 1.379 . S
C1050 C1047 1.363 . S
C1050 N1048 1.356 . S
C1051 C1045 1.363 . S
C1051 C1046 1.379 . S
C1051 N1049 1.356 . S
N1052 C1044 1.356 . S
N1052 H1058 0.984 . S
N1052 H1059 0.984 . S
N1053 C1046 1.356 . S
N1053 H1056 0.984 . S
N1053 H1057 0.985 . S
H1054 N1049 0.984 . S
H1055 N1049 0.985 . S
H1056 N1053 0.984 . S
H1057 N1053 0.985 . S
H1058 N1052 0.984 . S
H1059 N1052 0.984 . S
H1060 N1048 0.984 . S
H1061 N1048 0.985 . S
C1062 C1063 1.363 . S
C1062 C1068 1.379 . S
C1062 N1070 1.356 . S
C1063 C1062 1.363 . S
C1063 C1069 1.363 . S
C1064 C1065 1.363 . S
C1064 C1069 1.379 . S
C1064 N1071 1.356 . S
C1065 C1064 1.363 . S
C1065 C1068 1.363 . S
N1066 C1068 1.356 . S
N1066 H1078 0.984 . S
N1066 H1079 0.985 . S
N1067 C1069 1.356 . S
N1067 H1072 0.984 . S
N1067 H1073 0.985 . S
C1068 C1062 1.379 . S
C1068 C1065 1.363 . S
C1068 N1066 1.356 . S
C1069 C1063 1.363 . S
C1069 C1064 1.379 . S
C1069 N1067 1.356 . S
N1070 C1062 1.356 . S
N1070 H1076 0.984 . S
N1070 H1077 0.984 . S
N1071 C1064 1.356 . S
N1071 H1074 0.984 . S
N1071 H1075 0.985 . S
H1072 N1067 0.984 . S
H1073 N1067 0.985 . S
H1074 N1071 0.984 . S
H1075 N1071 0.985 . S
H1076 N1070 0.984 . S
H1077 N1070 0.984 . S
H1078 N1066 0.984 . S
H1079 N1066 0.985 . S
C1080 C1081 1.363 . S
C1080 C1086 1.379 . S
C1080 N1088 1.356 . S
C1081 C1080 1.363 . S
C1081 C1087 1.363 . S
C1082 C1083 1.363 . S
C1082 C1087 1.379 . S
C1082 N1089 1.356 . S
C1083 C1082 1.363 . S
C1083 C1086 1.363 . S
N1084 C1086 1.356 . S
N1084 H1096 0.984 . S
N1084 H1097 0.985 . S
N1085 C1087 1.356 . S
N1085 H1090 0.984 . S
N1085 H1091 0.985 . S
C1086 C1080 1.379 . S
C1086 C1083 1.363 . S
C1086 N1084 1.356 . S
C1087 C1081 1.363 . S
C1087 C1082 1.379 . S
C1087 N1085 1.356 . S
N1088 C1080 1.356 . S
N1088 H1094 0.984 . S
N1088 H1095 0.984 . S
N1089 C1082 1.356 . S
N1089 H1092 0.984 . S
N1089 H1093 0.985 . S
H1090 N1085 0.984 . S
H1091 N1085 0.985 . S
H1092 N1089 0.984 . S
H1093 N1089 0.985 . S
H1094 N1088 0.984 . S
H1095 N1088 0.984 . S
H1096 N1084 0.984 . S
H1097 N1084 0.985 . S
C1098 C1099 1.363 . S
C1098 C1104 1.379 . S
C1098 N1106 1.356 . S
C1099 C1098 1.363 . S
C1099 C1105 1.363 . S
C1100 C1101 1.363 . S
C1100 C1105 1.379 . S
C1100 N1107 1.356 . S
C1101 C1100 1.363 . S
C1101 C1104 1.363 . S
N1102 C1104 1.356 . S
N1102 H1114 0.984 . S
N1102 H1115 0.985 . S
N1103 C1105 1.356 . S
N1103 H1108 0.984 . S
N1103 H1109 0.985 . S
C1104 C1098 1.379 . S
C1104 C1101 1.363 . S
C1104 N1102 1.356 . S
C1105 C1099 1.363 . S
C1105 C1100 1.379 . S
C1105 N1103 1.356 . S
N1106 C1098 1.356 . S
N1106 H1112 0.984 . S
N1106 H1113 0.984 . S
N1107 C1100 1.356 . S
N1107 H1110 0.984 . S
N1107 H1111 0.985 . S
H1108 N1103 0.984 . S
H1109 N1103 0.985 . S
H1110 N1107 0.984 . S
H1111 N1107 0.985 . S
H1112 N1106 0.984 . S
H1113 N1106 0.984 . S
H1114 N1102 0.984 . S
H1115 N1102 0.985 . S
C1116 C1117 1.363 . S
C1116 C1122 1.379 . S
C1116 N1124 1.356 . S
C1117 C1116 1.363 . S
C1117 C1123 1.363 . S
C1118 C1119 1.363 . S
C1118 C1123 1.379 . S
C1118 N1125 1.356 . S
C1119 C1118 1.363 . S
C1119 C1122 1.363 . S
N1120 C1122 1.356 . S
N1120 H1132 0.984 . S
N1120 H1133 0.985 . S
N1121 C1123 1.356 . S
N1121 H1126 0.984 . S
N1121 H1127 0.985 . S
C1122 C1116 1.379 . S
C1122 C1119 1.363 . S
C1122 N1120 1.356 . S
C1123 C1117 1.363 . S
C1123 C1118 1.379 . S
C1123 N1121 1.356 . S
N1124 C1116 1.356 . S
N1124 H1130 0.984 . S
N1124 H1131 0.984 . S
N1125 C1118 1.356 . S
N1125 H1128 0.984 . S
N1125 H1129 0.985 . S
H1126 N1121 0.984 . S
H1127 N1121 0.985 . S
H1128 N1125 0.984 . S
H1129 N1125 0.985 . S
H1130 N1124 0.984 . S
H1131 N1124 0.984 . S
H1132 N1120 0.984 . S
H1133 N1120 0.985 . S
C1134 C1135 1.363 . S
C1134 C1140 1.379 . S
C1134 N1142 1.356 . S
C1135 C1134 1.363 . S
C1135 C1141 1.363 . S
C1136 C1137 1.363 . S
C1136 C1141 1.379 . S
C1136 N1143 1.356 1_545 S
C1137 C1136 1.363 . S
C1137 C1140 1.363 . S
N1138 C1140 1.356 . S
N1138 H1150 0.984 . S
N1138 H1151 0.985 . S
N1139 C1141 1.356 1_565 S
N1139 H1144 0.984 . S
N1139 H1145 0.985 . S
C1140 C1134 1.379 . S
C1140 C1137 1.363 . S
C1140 N1138 1.356 . S
C1141 C1135 1.363 . S
C1141 C1136 1.379 . S
C1141 N1139 1.356 1_545 S
N1142 C1134 1.356 . S
N1142 H1148 0.984 . S
N1142 H1149 0.984 . S
N1143 C1136 1.356 1_565 S
N1143 H1146 0.984 . S
N1143 H1147 0.985 . S
H1144 N1139 0.984 . S
H1145 N1139 0.985 . S
H1146 N1143 0.984 . S
H1147 N1143 0.985 . S
H1148 N1142 0.984 . S
H1149 N1142 0.984 . S
H1150 N1138 0.984 . S
H1151 N1138 0.985 . S
C1152 C1153 1.363 . S
C1152 C1158 1.379 . S
C1152 N1160 1.356 . S
C1153 C1152 1.363 . S
C1153 C1159 1.363 1_655 S
C1154 C1155 1.363 1_455 S
C1154 C1159 1.379 . S
C1154 N1161 1.356 . S
C1155 C1154 1.363 1_655 S
C1155 C1158 1.363 . S
N1156 C1158 1.356 . S
N1156 H1168 0.984 . S
N1156 H1169 0.985 . S
N1157 C1159 1.356 . S
N1157 H1162 0.984 . S
N1157 H1163 0.985 . S
C1158 C1152 1.379 . S
C1158 C1155 1.363 . S
C1158 N1156 1.356 . S
C1159 C1153 1.363 1_455 S
C1159 C1154 1.379 . S
C1159 N1157 1.356 . S
N1160 C1152 1.356 . S
N1160 H1166 0.984 . S
N1160 H1167 0.984 . S
N1161 C1154 1.356 . S
N1161 H1164 0.984 . S
N1161 H1165 0.985 . S
H1162 N1157 0.984 . S
H1163 N1157 0.985 . S
H1164 N1161 0.984 . S
H1165 N1161 0.985 . S
H1166 N1160 0.984 . S
H1167 N1160 0.984 . S
H1168 N1156 0.984 . S
H1169 N1156 0.985 . S
C1170 C1171 1.363 . S
C1170 C1176 1.379 . S
C1170 N1178 1.356 . S
C1171 C1170 1.363 . S
C1171 C1177 1.363 . S
C1172 C1173 1.363 . S
C1172 C1177 1.379 . S
C1172 N1179 1.356 . S
C1173 C1172 1.363 . S
C1173 C1176 1.363 . S
N1174 C1176 1.356 . S
N1174 H1186 0.984 . S
N1174 H1187 0.985 . S
N1175 C1177 1.356 . S
N1175 H1180 0.984 . S
N1175 H1181 0.985 . S
C1176 C1170 1.379 . S
C1176 C1173 1.363 . S
C1176 N1174 1.356 . S
C1177 C1171 1.363 . S
C1177 C1172 1.379 . S
C1177 N1175 1.356 . S
N1178 C1170 1.356 . S
N1178 H1184 0.984 . S
N1178 H1185 0.984 . S
N1179 C1172 1.356 . S
N1179 H1182 0.984 . S
N1179 H1183 0.985 . S
H1180 N1175 0.984 . S
H1181 N1175 0.985 . S
H1182 N1179 0.984 . S
H1183 N1179 0.985 . S
H1184 N1178 0.984 . S
H1185 N1178 0.984 . S
H1186 N1174 0.984 . S
H1187 N1174 0.985 . S
C1188 C1189 1.363 . S
C1188 C1194 1.379 . S
C1188 N1196 1.356 . S
C1189 C1188 1.363 . S
C1189 C1195 1.363 . S
C1190 C1191 1.363 . S
C1190 C1195 1.379 . S
C1190 N1197 1.356 1_455 S
C1191 C1190 1.363 . S
C1191 C1194 1.363 . S
N1192 C1194 1.356 . S
N1192 H1204 0.984 . S
N1192 H1205 0.985 . S
N1193 C1195 1.356 1_655 S
N1193 H1198 0.984 . S
N1193 H1199 0.985 . S
C1194 C1188 1.379 . S
C1194 C1191 1.363 . S
C1194 N1192 1.356 . S
C1195 C1189 1.363 . S
C1195 C1190 1.379 . S
C1195 N1193 1.356 1_455 S
N1196 C1188 1.356 . S
N1196 H1202 0.984 . S
N1196 H1203 0.984 . S
N1197 C1190 1.356 1_655 S
N1197 H1200 0.984 . S
N1197 H1201 0.985 . S
H1198 N1193 0.984 . S
H1199 N1193 0.985 . S
H1200 N1197 0.984 . S
H1201 N1197 0.985 . S
H1202 N1196 0.984 . S
H1203 N1196 0.984 . S
H1204 N1192 0.984 . S
H1205 N1192 0.985 . S
C1206 C1207 1.363 . S
C1206 C1212 1.379 . S
C1206 N1214 1.356 . S
C1207 C1206 1.363 . S
C1207 C1213 1.363 . S
C1208 C1209 1.363 . S
C1208 C1213 1.379 . S
C1208 N1215 1.356 . S
C1209 C1208 1.363 . S
C1209 C1212 1.363 . S
N1210 C1212 1.356 . S
N1210 H1222 0.984 . S
N1210 H1223 0.985 . S
N1211 C1213 1.356 . S
N1211 H1216 0.984 . S
N1211 H1217 0.985 . S
C1212 C1206 1.379 . S
C1212 C1209 1.363 . S
C1212 N1210 1.356 . S
C1213 C1207 1.363 . S
C1213 C1208 1.379 . S
C1213 N1211 1.356 . S
N1214 C1206 1.356 . S
N1214 H1220 0.984 . S
N1214 H1221 0.984 . S
N1215 C1208 1.356 . S
N1215 H1218 0.984 . S
N1215 H1219 0.985 . S
H1216 N1211 0.984 . S
H1217 N1211 0.985 . S
H1218 N1215 0.984 . S
H1219 N1215 0.985 . S
H1220 N1214 0.984 . S
H1221 N1214 0.984 . S
H1222 N1210 0.984 . S
H1223 N1210 0.985 . S
C1224 C1225 1.363 . S
C1224 C1230 1.379 . S
C1224 N1232 1.356 . S
C1225 C1224 1.363 . S
C1225 C1231 1.363 1_565 S
C1226 C1227 1.363 1_545 S
C1226 C1231 1.379 . S
C1226 N1233 1.356 . S
C1227 C1226 1.363 1_565 S
C1227 C1230 1.363 . S
N1228 C1230 1.356 . S
N1228 H1240 0.984 . S
N1228 H1241 0.985 . S
N1229 C1231 1.356 . S
N1229 H1234 0.984 . S
N1229 H1235 0.985 . S
C1230 C1224 1.379 . S
C1230 C1227 1.363 . S
C1230 N1228 1.356 . S
C1231 C1225 1.363 1_545 S
C1231 C1226 1.379 . S
C1231 N1229 1.356 . S
N1232 C1224 1.356 . S
N1232 H1238 0.984 . S
N1232 H1239 0.984 . S
N1233 C1226 1.356 . S
N1233 H1236 0.984 . S
N1233 H1237 0.985 . S
H1234 N1229 0.984 . S
H1235 N1229 0.985 . S
H1236 N1233 0.984 . S
H1237 N1233 0.985 . S
H1238 N1232 0.984 . S
H1239 N1232 0.984 . S
H1240 N1228 0.984 . S
H1241 N1228 0.985 . S
C1242 C1243 1.363 1_545 S
C1242 C1248 1.379 . S
C1242 N1250 1.356 . S
C1243 C1242 1.363 1_565 S
C1243 C1249 1.363 . S
C1244 C1245 1.363 . S
C1244 C1249 1.379 . S
C1244 N1251 1.356 . S
C1245 C1244 1.363 . S
C1245 C1248 1.363 1_565 S
N1246 C1248 1.356 . S
N1246 H1258 0.984 . S
N1246 H1259 0.985 . S
N1247 C1249 1.356 . S
N1247 H1252 0.984 . S
N1247 H1253 0.985 . S
C1248 C1242 1.379 . S
C1248 C1245 1.363 1_545 S
C1248 N1246 1.356 . S
C1249 C1243 1.363 . S
C1249 C1244 1.379 . S
C1249 N1247 1.356 . S
N1250 C1242 1.356 . S
N1250 H1256 0.984 . S
N1250 H1257 0.984 . S
N1251 C1244 1.356 . S
N1251 H1254 0.984 . S
N1251 H1255 0.985 . S
H1252 N1247 0.984 . S
H1253 N1247 0.985 . S
H1254 N1251 0.984 . S
H1255 N1251 0.985 . S
H1256 N1250 0.984 . S
H1257 N1250 0.984 . S
H1258 N1246 0.984 . S
H1259 N1246 0.985 . S
C1260 C1261 1.363 . S
C1260 C1266 1.379 . S
C1260 N1268 1.356 1_455 S
C1261 C1260 1.363 . S
C1261 C1267 1.363 . S
C1262 C1263 1.363 . S
C1262 C1267 1.379 . S
C1262 N1269 1.356 . S
C1263 C1262 1.363 . S
C1263 C1266 1.363 . S
N1264 C1266 1.356 1_655 S
N1264 H1276 0.984 . S
N1264 H1277 0.985 . S
N1265 C1267 1.356 . S
N1265 H1270 0.984 . S
N1265 H1271 0.985 . S
C1266 C1260 1.379 . S
C1266 C1263 1.363 . S
C1266 N1264 1.356 1_455 S
C1267 C1261 1.363 . S
C1267 C1262 1.379 . S
C1267 N1265 1.356 . S
N1268 C1260 1.356 1_655 S
N1268 H1274 0.984 . S
N1268 H1275 0.984 . S
N1269 C1262 1.356 . S
N1269 H1272 0.984 . S
N1269 H1273 0.985 . S
H1270 N1265 0.984 . S
H1271 N1265 0.985 . S
H1272 N1269 0.984 . S
H1273 N1269 0.985 . S
H1274 N1268 0.984 . S
H1275 N1268 0.984 . S
H1276 N1264 0.984 . S
H1277 N1264 0.985 . S
C1278 C1279 1.363 . S
C1278 C1284 1.379 . S
C1278 N1286 1.356 . S
C1279 C1278 1.363 . S
C1279 C1285 1.363 . S
C1280 C1281 1.363 . S
C1280 C1285 1.379 . S
C1280 N1287 1.356 . S
C1281 C1280 1.363 . S
C1281 C1284 1.363 . S
N1282 C1284 1.356 . S
N1282 H1294 0.984 . S
N1282 H1295 0.985 . S
N1283 C1285 1.356 . S
N1283 H1288 0.984 . S
N1283 H1289 0.985 . S
C1284 C1278 1.379 . S
C1284 C1281 1.363 . S
C1284 N1282 1.356 . S
C1285 C1279 1.363 . S
C1285 C1280 1.379 . S
C1285 N1283 1.356 . S
N1286 C1278 1.356 . S
N1286 H1292 0.984 . S
N1286 H1293 0.984 . S
N1287 C1280 1.356 . S
N1287 H1290 0.984 . S
N1287 H1291 0.985 . S
H1288 N1283 0.984 . S
H1289 N1283 0.985 . S
H1290 N1287 0.984 . S
H1291 N1287 0.985 . S
H1292 N1286 0.984 . S
H1293 N1286 0.984 . S
H1294 N1282 0.984 . S
H1295 N1282 0.985 . S
C1296 C1297 1.363 1_455 S
C1296 C1302 1.379 . S
C1296 N1304 1.356 . S
C1297 C1296 1.363 1_655 S
C1297 C1303 1.363 . S
C1298 C1299 1.363 . S
C1298 C1303 1.379 . S
C1298 N1305 1.356 . S
C1299 C1298 1.363 . S
C1299 C1302 1.363 1_655 S
N1300 C1302 1.356 . S
N1300 H1312 0.984 . S
N1300 H1313 0.985 . S
N1301 C1303 1.356 . S
N1301 H1306 0.984 . S
N1301 H1307 0.985 . S
C1302 C1296 1.379 . S
C1302 C1299 1.363 1_455 S
C1302 N1300 1.356 . S
C1303 C1297 1.363 . S
C1303 C1298 1.379 . S
C1303 N1301 1.356 . S
N1304 C1296 1.356 . S
N1304 H1310 0.984 . S
N1304 H1311 0.984 . S
N1305 C1298 1.356 . S
N1305 H1308 0.984 . S
N1305 H1309 0.985 . S
H1306 N1301 0.984 . S
H1307 N1301 0.985 . S
H1308 N1305 0.984 . S
H1309 N1305 0.985 . S
H1310 N1304 0.984 . S
H1311 N1304 0.984 . S
H1312 N1300 0.984 . S
H1313 N1300 0.985 . S
C1314 C1315 1.363 . S
C1314 C1320 1.379 . S
C1314 N1322 1.356 . S
C1315 C1314 1.363 . S
C1315 C1321 1.363 . S
C1316 C1317 1.363 . S
C1316 C1321 1.379 . S
C1316 N1323 1.356 . S
C1317 C1316 1.363 . S
C1317 C1320 1.363 . S
N1318 C1320 1.356 . S
N1318 H1330 0.984 . S
N1318 H1331 0.985 . S
N1319 C1321 1.356 . S
N1319 H1324 0.984 . S
N1319 H1325 0.985 . S
C1320 C1314 1.379 . S
C1320 C1317 1.363 . S
C1320 N1318 1.356 . S
C1321 C1315 1.363 . S
C1321 C1316 1.379 . S
C1321 N1319 1.356 . S
N1322 C1314 1.356 . S
N1322 H1328 0.984 . S
N1322 H1329 0.984 . S
N1323 C1316 1.356 . S
N1323 H1326 0.984 . S
N1323 H1327 0.985 . S
H1324 N1319 0.984 . S
H1325 N1319 0.985 . S
H1326 N1323 0.984 . S
H1327 N1323 0.985 . S
H1328 N1322 0.984 . S
H1329 N1322 0.984 . S
H1330 N1318 0.984 . S
H1331 N1318 0.985 . S
C1332 C1333 1.363 . S
C1332 C1338 1.379 . S
C1332 N1340 1.356 1_545 S
C1333 C1332 1.363 . S
C1333 C1339 1.363 . S
C1334 C1335 1.363 . S
C1334 C1339 1.379 . S
C1334 N1341 1.356 . S
C1335 C1334 1.363 . S
C1335 C1338 1.363 . S
N1336 C1338 1.356 1_565 S
N1336 H1348 0.984 . S
N1336 H1349 0.985 1_565 S
N1337 C1339 1.356 . S
N1337 H1342 0.984 . S
N1337 H1343 0.985 . S
C1338 C1332 1.379 . S
C1338 C1335 1.363 . S
C1338 N1336 1.356 1_545 S
C1339 C1333 1.363 . S
C1339 C1334 1.379 . S
C1339 N1337 1.356 . S
N1340 C1332 1.356 1_565 S
N1340 H1346 0.984 . S
N1340 H1347 0.984 . S
N1341 C1334 1.356 . S
N1341 H1344 0.984 . S
N1341 H1345 0.985 . S
H1342 N1337 0.984 . S
H1343 N1337 0.985 . S
H1344 N1341 0.984 . S
H1345 N1341 0.985 . S
H1346 N1340 0.984 . S
H1347 N1340 0.984 . S
H1348 N1336 0.984 . S
H1349 N1336 0.985 1_545 S
C1350 C1351 1.363 . S
C1350 C1356 1.379 . S
C1350 N1358 1.356 . S
C1351 C1350 1.363 . S
C1351 C1357 1.363 . S
C1352 C1353 1.363 . S
C1352 C1357 1.379 . S
C1352 N1359 1.356 . S
C1353 C1352 1.363 . S
C1353 C1356 1.363 . S
N1354 C1356 1.356 . S
N1354 H1366 0.984 . S
N1354 H1367 0.985 . S
N1355 C1357 1.356 . S
N1355 H1360 0.984 1_655 S
N1355 H1361 0.985 1_655 S
C1356 C1350 1.379 . S
C1356 C1353 1.363 . S
C1356 N1354 1.356 . S
C1357 C1351 1.363 . S
C1357 C1352 1.379 . S
C1357 N1355 1.356 . S
N1358 C1350 1.356 . S
N1358 H1364 0.984 . S
N1358 H1365 0.984 . S
N1359 C1352 1.356 . S
N1359 H1362 0.984 . S
N1359 H1363 0.985 . S
H1360 N1355 0.984 1_455 S
H1361 N1355 0.985 1_455 S
H1362 N1359 0.984 . S
H1363 N1359 0.985 . S
H1364 N1358 0.984 . S
H1365 N1358 0.984 . S
H1366 N1354 0.984 . S
H1367 N1354 0.985 . S
C1368 C1369 1.363 . S
C1368 C1374 1.379 . S
C1368 N1376 1.356 . S
C1369 C1368 1.363 . S
C1369 C1375 1.363 . S
C1370 C1371 1.363 . S
C1370 C1375 1.379 . S
C1370 N1377 1.356 . S
C1371 C1370 1.363 . S
C1371 C1374 1.363 . S
N1372 C1374 1.356 . S
N1372 H1384 0.984 . S
N1372 H1385 0.985 . S
N1373 C1375 1.356 . S
N1373 H1378 0.984 . S
N1373 H1379 0.985 . S
C1374 C1368 1.379 . S
C1374 C1371 1.363 . S
C1374 N1372 1.356 . S
C1375 C1369 1.363 . S
C1375 C1370 1.379 . S
C1375 N1373 1.356 . S
N1376 C1368 1.356 . S
N1376 H1382 0.984 . S
N1376 H1383 0.984 . S
N1377 C1370 1.356 . S
N1377 H1380 0.984 . S
N1377 H1381 0.985 . S
H1378 N1373 0.984 . S
H1379 N1373 0.985 . S
H1380 N1377 0.984 . S
H1381 N1377 0.985 . S
H1382 N1376 0.984 . S
H1383 N1376 0.984 . S
H1384 N1372 0.984 . S
H1385 N1372 0.985 . S
C1386 C1387 1.363 . S
C1386 C1392 1.379 . S
C1386 N1394 1.356 . S
C1387 C1386 1.363 . S
C1387 C1393 1.363 . S
C1388 C1389 1.363 . S
C1388 C1393 1.379 . S
C1388 N1395 1.356 . S
C1389 C1388 1.363 . S
C1389 C1392 1.363 . S
N1390 C1392 1.356 . S
N1390 H1402 0.984 . S
N1390 H1403 0.985 . S
N1391 C1393 1.356 . S
N1391 H1396 0.984 . S
N1391 H1397 0.985 . S
C1392 C1386 1.379 . S
C1392 C1389 1.363 . S
C1392 N1390 1.356 . S
C1393 C1387 1.363 . S
C1393 C1388 1.379 . S
C1393 N1391 1.356 . S
N1394 C1386 1.356 . S
N1394 H1400 0.984 . S
N1394 H1401 0.984 . S
N1395 C1388 1.356 . S
N1395 H1398 0.984 . S
N1395 H1399 0.985 . S
H1396 N1391 0.984 . S
H1397 N1391 0.985 . S
H1398 N1395 0.984 . S
H1399 N1395 0.985 . S
H1400 N1394 0.984 . S
H1401 N1394 0.984 . S
H1402 N1390 0.984 . S
H1403 N1390 0.985 . S
C1404 C1405 1.363 . S
C1404 C1410 1.379 . S
C1404 N1412 1.356 . S
C1405 C1404 1.363 . S
C1405 C1411 1.363 . S
C1406 C1407 1.363 . S
C1406 C1411 1.379 . S
C1406 N1413 1.356 . S
C1407 C1406 1.363 . S
C1407 C1410 1.363 . S
N1408 C1410 1.356 . S
N1408 H1420 0.984 . S
N1408 H1421 0.985 . S
N1409 C1411 1.356 . S
N1409 H1414 0.984 . S
N1409 H1415 0.985 . S
C1410 C1404 1.379 . S
C1410 C1407 1.363 . S
C1410 N1408 1.356 . S
C1411 C1405 1.363 . S
C1411 C1406 1.379 . S
C1411 N1409 1.356 . S
N1412 C1404 1.356 . S
N1412 H1418 0.984 . S
N1412 H1419 0.984 . S
N1413 C1406 1.356 . S
N1413 H1416 0.984 . S
N1413 H1417 0.985 . S
H1414 N1409 0.984 . S
H1415 N1409 0.985 . S
H1416 N1413 0.984 . S
H1417 N1413 0.985 . S
H1418 N1412 0.984 . S
H1419 N1412 0.984 . S
H1420 N1408 0.984 . S
H1421 N1408 0.985 . S
C1422 C1423 1.363 . S
C1422 C1428 1.379 . S
C1422 N1430 1.356 . S
C1423 C1422 1.363 . S
C1423 C1429 1.363 . S
C1424 C1425 1.363 . S
C1424 C1429 1.379 . S
C1424 N1431 1.356 . S
C1425 C1424 1.363 . S
C1425 C1428 1.363 . S
N1426 C1428 1.356 . S
N1426 H1438 0.984 . S
N1426 H1439 0.985 . S
N1427 C1429 1.356 . S
N1427 H1432 0.984 . S
N1427 H1433 0.985 . S
C1428 C1422 1.379 . S
C1428 C1425 1.363 . S
C1428 N1426 1.356 . S
C1429 C1423 1.363 . S
C1429 C1424 1.379 . S
C1429 N1427 1.356 . S
N1430 C1422 1.356 . S
N1430 H1436 0.984 . S
N1430 H1437 0.984 . S
N1431 C1424 1.356 . S
N1431 H1434 0.984 . S
N1431 H1435 0.985 . S
H1432 N1427 0.984 . S
H1433 N1427 0.985 . S
H1434 N1431 0.984 . S
H1435 N1431 0.985 . S
H1436 N1430 0.984 . S
H1437 N1430 0.984 . S
H1438 N1426 0.984 . S
H1439 N1426 0.985 . S
C1440 C1441 1.363 . S
C1440 C1446 1.379 . S
C1440 N1448 1.356 . S
C1441 C1440 1.363 . S
C1441 C1447 1.363 . S
C1442 C1443 1.363 . S
C1442 C1447 1.379 . S
C1442 N1449 1.356 . S
C1443 C1442 1.363 . S
C1443 C1446 1.363 . S
N1444 C1446 1.356 . S
N1444 H1456 0.984 . S
N1444 H1457 0.985 . S
N1445 C1447 1.356 . S
N1445 H1450 0.984 . S
N1445 H1451 0.985 . S
C1446 C1440 1.379 . S
C1446 C1443 1.363 . S
C1446 N1444 1.356 . S
C1447 C1441 1.363 . S
C1447 C1442 1.379 . S
C1447 N1445 1.356 . S
N1448 C1440 1.356 . S
N1448 H1454 0.984 . S
N1448 H1455 0.984 . S
N1449 C1442 1.356 . S
N1449 H1452 0.984 . S
N1449 H1453 0.985 . S
H1450 N1445 0.984 . S
H1451 N1445 0.985 . S
H1452 N1449 0.984 . S
H1453 N1449 0.985 . S
H1454 N1448 0.984 . S
H1455 N1448 0.984 . S
H1456 N1444 0.984 . S
H1457 N1444 0.985 . S
C1458 C1459 1.363 . S
C1458 C1464 1.379 . S
C1458 N1466 1.356 . S
C1459 C1458 1.363 . S
C1459 C1465 1.363 . S
C1460 C1461 1.363 . S
C1460 C1465 1.379 . S
C1460 N1467 1.356 . S
C1461 C1460 1.363 . S
C1461 C1464 1.363 . S
N1462 C1464 1.356 . S
N1462 H1474 0.984 . S
N1462 H1475 0.985 . S
N1463 C1465 1.356 . S
N1463 H1468 0.984 . S
N1463 H1469 0.985 . S
C1464 C1458 1.379 . S
C1464 C1461 1.363 . S
C1464 N1462 1.356 . S
C1465 C1459 1.363 . S
C1465 C1460 1.379 . S
C1465 N1463 1.356 . S
N1466 C1458 1.356 . S
N1466 H1472 0.984 . S
N1466 H1473 0.984 . S
N1467 C1460 1.356 . S
N1467 H1470 0.984 . S
N1467 H1471 0.985 . S
H1468 N1463 0.984 . S
H1469 N1463 0.985 . S
H1470 N1467 0.984 . S
H1471 N1467 0.985 . S
H1472 N1466 0.984 . S
H1473 N1466 0.984 . S
H1474 N1462 0.984 . S
H1475 N1462 0.985 . S
C1476 C1477 1.363 . S
C1476 C1482 1.379 . S
C1476 N1484 1.356 . S
C1477 C1476 1.363 . S
C1477 C1483 1.363 . S
C1478 C1479 1.363 . S
C1478 C1483 1.379 . S
C1478 N1485 1.356 . S
C1479 C1478 1.363 . S
C1479 C1482 1.363 . S
N1480 C1482 1.356 . S
N1480 H1492 0.984 . S
N1480 H1493 0.985 . S
N1481 C1483 1.356 . S
N1481 H1486 0.984 . S
N1481 H1487 0.985 . S
C1482 C1476 1.379 . S
C1482 C1479 1.363 . S
C1482 N1480 1.356 . S
C1483 C1477 1.363 . S
C1483 C1478 1.379 . S
C1483 N1481 1.356 . S
N1484 C1476 1.356 . S
N1484 H1490 0.984 . S
N1484 H1491 0.984 . S
N1485 C1478 1.356 . S
N1485 H1488 0.984 . S
N1485 H1489 0.985 . S
H1486 N1481 0.984 . S
H1487 N1481 0.985 . S
H1488 N1485 0.984 . S
H1489 N1485 0.985 . S
H1490 N1484 0.984 . S
H1491 N1484 0.984 . S
H1492 N1480 0.984 . S
H1493 N1480 0.985 . S
C1494 C1495 1.363 . S
C1494 C1500 1.379 . S
C1494 N1502 1.356 . S
C1495 C1494 1.363 . S
C1495 C1501 1.363 . S
C1496 C1497 1.363 . S
C1496 C1501 1.379 . S
C1496 N1503 1.356 . S
C1497 C1496 1.363 . S
C1497 C1500 1.363 . S
N1498 C1500 1.356 . S
N1498 H1510 0.984 . S
N1498 H1511 0.985 . S
N1499 C1501 1.356 . S
N1499 H1504 0.984 . S
N1499 H1505 0.985 . S
C1500 C1494 1.379 . S
C1500 C1497 1.363 . S
C1500 N1498 1.356 . S
C1501 C1495 1.363 . S
C1501 C1496 1.379 . S
C1501 N1499 1.356 . S
N1502 C1494 1.356 . S
N1502 H1508 0.984 . S
N1502 H1509 0.984 . S
N1503 C1496 1.356 . S
N1503 H1506 0.984 . S
N1503 H1507 0.985 . S
H1504 N1499 0.984 . S
H1505 N1499 0.985 . S
H1506 N1503 0.984 . S
H1507 N1503 0.985 . S
H1508 N1502 0.984 . S
H1509 N1502 0.984 . S
H1510 N1498 0.984 . S
H1511 N1498 0.985 . S
C1512 C1513 1.363 . S
C1512 C1518 1.379 . S
C1512 N1520 1.356 . S
C1513 C1512 1.363 . S
C1513 C1519 1.363 . S
C1514 C1515 1.363 . S
C1514 C1519 1.379 . S
C1514 N1521 1.356 . S
C1515 C1514 1.363 . S
C1515 C1518 1.363 . S
N1516 C1518 1.356 . S
N1516 H1528 0.984 . S
N1516 H1529 0.985 . S
N1517 C1519 1.356 . S
N1517 H1522 0.984 . S
N1517 H1523 0.985 . S
C1518 C1512 1.379 . S
C1518 C1515 1.363 . S
C1518 N1516 1.356 . S
C1519 C1513 1.363 . S
C1519 C1514 1.379 . S
C1519 N1517 1.356 . S
N1520 C1512 1.356 . S
N1520 H1526 0.984 . S
N1520 H1527 0.984 . S
N1521 C1514 1.356 . S
N1521 H1524 0.984 . S
N1521 H1525 0.985 . S
H1522 N1517 0.984 . S
H1523 N1517 0.985 . S
H1524 N1521 0.984 . S
H1525 N1521 0.985 . S
H1526 N1520 0.984 . S
H1527 N1520 0.984 . S
H1528 N1516 0.984 . S
H1529 N1516 0.985 . S
C1530 C1531 1.363 . S
C1530 C1536 1.379 . S
C1530 N1538 1.356 . S
C1531 C1530 1.363 . S
C1531 C1537 1.363 . S
C1532 C1533 1.363 . S
C1532 C1537 1.379 . S
C1532 N1539 1.356 . S
C1533 C1532 1.363 . S
C1533 C1536 1.363 . S
N1534 C1536 1.356 . S
N1534 H1546 0.984 . S
N1534 H1547 0.985 . S
N1535 C1537 1.356 . S
N1535 H1540 0.984 . S
N1535 H1541 0.985 . S
C1536 C1530 1.379 . S
C1536 C1533 1.363 . S
C1536 N1534 1.356 . S
C1537 C1531 1.363 . S
C1537 C1532 1.379 . S
C1537 N1535 1.356 . S
N1538 C1530 1.356 . S
N1538 H1544 0.984 . S
N1538 H1545 0.984 . S
N1539 C1532 1.356 . S
N1539 H1542 0.984 . S
N1539 H1543 0.985 . S
H1540 N1535 0.984 . S
H1541 N1535 0.985 . S
H1542 N1539 0.984 . S
H1543 N1539 0.985 . S
H1544 N1538 0.984 . S
H1545 N1538 0.984 . S
H1546 N1534 0.984 . S
H1547 N1534 0.985 . S
C1548 C1549 1.363 . S
C1548 C1554 1.379 . S
C1548 N1556 1.356 . S
C1549 C1548 1.363 . S
C1549 C1555 1.363 . S
C1550 C1551 1.363 . S
C1550 C1555 1.379 . S
C1550 N1557 1.356 . S
C1551 C1550 1.363 . S
C1551 C1554 1.363 . S
N1552 C1554 1.356 . S
N1552 H1564 0.984 . S
N1552 H1565 0.985 . S
N1553 C1555 1.356 . S
N1553 H1558 0.984 . S
N1553 H1559 0.985 . S
C1554 C1548 1.379 . S
C1554 C1551 1.363 . S
C1554 N1552 1.356 . S
C1555 C1549 1.363 . S
C1555 C1550 1.379 . S
C1555 N1553 1.356 . S
N1556 C1548 1.356 . S
N1556 H1562 0.984 . S
N1556 H1563 0.984 . S
N1557 C1550 1.356 . S
N1557 H1560 0.984 . S
N1557 H1561 0.985 . S
H1558 N1553 0.984 . S
H1559 N1553 0.985 . S
H1560 N1557 0.984 . S
H1561 N1557 0.985 . S
H1562 N1556 0.984 . S
H1563 N1556 0.984 . S
H1564 N1552 0.984 . S
H1565 N1552 0.985 . S
C1566 C1567 1.363 . S
C1566 C1572 1.379 . S
C1566 N1574 1.356 . S
C1567 C1566 1.363 . S
C1567 C1573 1.363 . S
C1568 C1569 1.363 . S
C1568 C1573 1.379 . S
C1568 N1575 1.356 . S
C1569 C1568 1.363 . S
C1569 C1572 1.363 . S
N1570 C1572 1.356 . S
N1570 H1582 0.984 . S
N1570 H1583 0.985 . S
N1571 C1573 1.356 . S
N1571 H1576 0.984 . S
N1571 H1577 0.985 . S
C1572 C1566 1.379 . S
C1572 C1569 1.363 . S
C1572 N1570 1.356 . S
C1573 C1567 1.363 . S
C1573 C1568 1.379 . S
C1573 N1571 1.356 . S
N1574 C1566 1.356 . S
N1574 H1580 0.984 . S
N1574 H1581 0.984 . S
N1575 C1568 1.356 . S
N1575 H1578 0.984 . S
N1575 H1579 0.985 . S
H1576 N1571 0.984 . S
H1577 N1571 0.985 . S
H1578 N1575 0.984 . S
H1579 N1575 0.985 . S
H1580 N1574 0.984 . S
H1581 N1574 0.984 . S
H1582 N1570 0.984 . S
H1583 N1570 0.985 . S
C1584 C1585 1.363 . S
C1584 C1590 1.379 . S
C1584 N1592 1.356 . S
C1585 C1584 1.363 . S
C1585 C1591 1.363 . S
C1586 C1587 1.363 . S
C1586 C1591 1.379 . S
C1586 N1593 1.356 . S
C1587 C1586 1.363 . S
C1587 C1590 1.363 . S
N1588 C1590 1.356 . S
N1588 H1600 0.984 . S
N1588 H1601 0.985 . S
N1589 C1591 1.356 . S
N1589 H1594 0.984 . S
N1589 H1595 0.985 . S
C1590 C1584 1.379 . S
C1590 C1587 1.363 . S
C1590 N1588 1.356 . S
C1591 C1585 1.363 . S
C1591 C1586 1.379 . S
C1591 N1589 1.356 . S
N1592 C1584 1.356 . S
N1592 H1598 0.984 . S
N1592 H1599 0.984 . S
N1593 C1586 1.356 . S
N1593 H1596 0.984 . S
N1593 H1597 0.985 . S
H1594 N1589 0.984 . S
H1595 N1589 0.985 . S
H1596 N1593 0.984 . S
H1597 N1593 0.985 . S
H1598 N1592 0.984 . S
H1599 N1592 0.984 . S
H1600 N1588 0.984 . S
H1601 N1588 0.985 . S
C1602 C1603 1.363 . S
C1602 C1608 1.379 . S
C1602 N1610 1.356 . S
C1603 C1602 1.363 . S
C1603 C1609 1.363 . S
C1604 C1605 1.363 . S
C1604 C1609 1.379 . S
C1604 N1611 1.356 . S
C1605 C1604 1.363 . S
C1605 C1608 1.363 . S
N1606 C1608 1.356 . S
N1606 H1618 0.984 . S
N1606 H1619 0.985 . S
N1607 C1609 1.356 . S
N1607 H1612 0.984 . S
N1607 H1613 0.985 . S
C1608 C1602 1.379 . S
C1608 C1605 1.363 . S
C1608 N1606 1.356 . S
C1609 C1603 1.363 . S
C1609 C1604 1.379 . S
C1609 N1607 1.356 . S
N1610 C1602 1.356 . S
N1610 H1616 0.984 . S
N1610 H1617 0.984 . S
N1611 C1604 1.356 . S
N1611 H1614 0.984 . S
N1611 H1615 0.985 . S
H1612 N1607 0.984 . S
H1613 N1607 0.985 . S
H1614 N1611 0.984 . S
H1615 N1611 0.985 . S
H1616 N1610 0.984 . S
H1617 N1610 0.984 . S
H1618 N1606 0.984 . S
H1619 N1606 0.985 . S
C1620 C1621 1.363 . S
C1620 C1626 1.379 . S
C1620 N1628 1.356 . S
C1621 C1620 1.363 . S
C1621 C1627 1.363 . S
C1622 C1623 1.363 . S
C1622 C1627 1.379 . S
C1622 N1629 1.356 . S
C1623 C1622 1.363 . S
C1623 C1626 1.363 . S
N1624 C1626 1.356 . S
N1624 H1636 0.984 . S
N1624 H1637 0.985 . S
N1625 C1627 1.356 . S
N1625 H1630 0.984 . S
N1625 H1631 0.985 . S
C1626 C1620 1.379 . S
C1626 C1623 1.363 . S
C1626 N1624 1.356 . S
C1627 C1621 1.363 . S
C1627 C1622 1.379 . S
C1627 N1625 1.356 . S
N1628 C1620 1.356 . S
N1628 H1634 0.984 . S
N1628 H1635 0.984 . S
N1629 C1622 1.356 . S
N1629 H1632 0.984 . S
N1629 H1633 0.985 . S
H1630 N1625 0.984 . S
H1631 N1625 0.985 . S
H1632 N1629 0.984 . S
H1633 N1629 0.985 . S
H1634 N1628 0.984 . S
H1635 N1628 0.984 . S
H1636 N1624 0.984 . S
H1637 N1624 0.985 . S
C1638 C1639 1.363 . S
C1638 C1644 1.379 . S
C1638 N1646 1.356 . S
C1639 C1638 1.363 . S
C1639 C1645 1.363 . S
C1640 C1641 1.363 . S
C1640 C1645 1.379 . S
C1640 N1647 1.356 . S
C1641 C1640 1.363 . S
C1641 C1644 1.363 . S
N1642 C1644 1.356 . S
N1642 H1654 0.984 . S
N1642 H1655 0.985 . S
N1643 C1645 1.356 . S
N1643 H1648 0.984 . S
N1643 H1649 0.985 . S
C1644 C1638 1.379 . S
C1644 C1641 1.363 . S
C1644 N1642 1.356 . S
C1645 C1639 1.363 . S
C1645 C1640 1.379 . S
C1645 N1643 1.356 . S
N1646 C1638 1.356 . S
N1646 H1652 0.984 . S
N1646 H1653 0.984 . S
N1647 C1640 1.356 . S
N1647 H1650 0.984 . S
N1647 H1651 0.985 . S
H1648 N1643 0.984 . S
H1649 N1643 0.985 . S
H1650 N1647 0.984 . S
H1651 N1647 0.985 . S
H1652 N1646 0.984 . S
H1653 N1646 0.984 . S
H1654 N1642 0.984 . S
H1655 N1642 0.985 . S
C1656 C1657 1.363 . S
C1656 C1662 1.379 . S
C1656 N1664 1.356 . S
C1657 C1656 1.363 . S
C1657 C1663 1.363 . S
C1658 C1659 1.363 . S
C1658 C1663 1.379 . S
C1658 N1665 1.356 . S
C1659 C1658 1.363 . S
C1659 C1662 1.363 . S
N1660 C1662 1.356 . S
N1660 H1672 0.984 . S
N1660 H1673 0.985 . S
N1661 C1663 1.356 . S
N1661 H1666 0.984 . S
N1661 H1667 0.985 . S
C1662 C1656 1.379 . S
C1662 C1659 1.363 . S
C1662 N1660 1.356 . S
C1663 C1657 1.363 . S
C1663 C1658 1.379 . S
C1663 N1661 1.356 . S
N1664 C1656 1.356 . S
N1664 H1670 0.984 . S
N1664 H1671 0.984 . S
N1665 C1658 1.356 . S
N1665 H1668 0.984 . S
N1665 H1669 0.985 . S
H1666 N1661 0.984 . S
H1667 N1661 0.985 . S
H1668 N1665 0.984 . S
H1669 N1665 0.985 . S
H1670 N1664 0.984 . S
H1671 N1664 0.984 . S
H1672 N1660 0.984 . S
H1673 N1660 0.985 . S
C1674 C1675 1.363 . S
C1674 C1680 1.379 . S
C1674 N1682 1.356 . S
C1675 C1674 1.363 . S
C1675 C1681 1.363 . S
C1676 C1677 1.363 . S
C1676 C1681 1.379 . S
C1676 N1683 1.356 . S
C1677 C1676 1.363 . S
C1677 C1680 1.363 . S
N1678 C1680 1.356 . S
N1678 H1690 0.984 . S
N1678 H1691 0.985 . S
N1679 C1681 1.356 . S
N1679 H1684 0.984 . S
N1679 H1685 0.985 . S
C1680 C1674 1.379 . S
C1680 C1677 1.363 . S
C1680 N1678 1.356 . S
C1681 C1675 1.363 . S
C1681 C1676 1.379 . S
C1681 N1679 1.356 . S
N1682 C1674 1.356 . S
N1682 H1688 0.984 . S
N1682 H1689 0.984 . S
N1683 C1676 1.356 . S
N1683 H1686 0.984 . S
N1683 H1687 0.985 . S
H1684 N1679 0.984 . S
H1685 N1679 0.985 . S
H1686 N1683 0.984 . S
H1687 N1683 0.985 . S
H1688 N1682 0.984 . S
H1689 N1682 0.984 . S
H1690 N1678 0.984 . S
H1691 N1678 0.985 . S
C1692 C1693 1.363 . S
C1692 C1698 1.379 . S
C1692 N1700 1.356 . S
C1693 C1692 1.363 . S
C1693 C1699 1.363 . S
C1694 C1695 1.363 . S
C1694 C1699 1.379 . S
C1694 N1701 1.356 . S
C1695 C1694 1.363 . S
C1695 C1698 1.363 . S
N1696 C1698 1.356 . S
N1696 H1708 0.984 . S
N1696 H1709 0.985 . S
N1697 C1699 1.356 . S
N1697 H1702 0.984 . S
N1697 H1703 0.985 . S
C1698 C1692 1.379 . S
C1698 C1695 1.363 . S
C1698 N1696 1.356 . S
C1699 C1693 1.363 . S
C1699 C1694 1.379 . S
C1699 N1697 1.356 . S
N1700 C1692 1.356 . S
N1700 H1706 0.984 . S
N1700 H1707 0.984 . S
N1701 C1694 1.356 . S
N1701 H1704 0.984 . S
N1701 H1705 0.985 . S
H1702 N1697 0.984 . S
H1703 N1697 0.985 . S
H1704 N1701 0.984 . S
H1705 N1701 0.985 . S
H1706 N1700 0.984 . S
H1707 N1700 0.984 . S
H1708 N1696 0.984 . S
H1709 N1696 0.985 . S
C1710 C1711 1.363 . S
C1710 C1716 1.379 . S
C1710 N1718 1.356 . S
C1711 C1710 1.363 . S
C1711 C1717 1.363 . S
C1712 C1713 1.363 . S
C1712 C1717 1.379 . S
C1712 N1719 1.356 . S
C1713 C1712 1.363 . S
C1713 C1716 1.363 . S
N1714 C1716 1.356 . S
N1714 H1726 0.984 . S
N1714 H1727 0.985 . S
N1715 C1717 1.356 . S
N1715 H1720 0.984 1_565 S
N1715 H1721 0.985 . S
C1716 C1710 1.379 . S
C1716 C1713 1.363 . S
C1716 N1714 1.356 . S
C1717 C1711 1.363 . S
C1717 C1712 1.379 . S
C1717 N1715 1.356 . S
N1718 C1710 1.356 . S
N1718 H1724 0.984 . S
N1718 H1725 0.984 . S
N1719 C1712 1.356 . S
N1719 H1722 0.984 . S
N1719 H1723 0.985 . S
H1720 N1715 0.984 1_545 S
H1721 N1715 0.985 . S
H1722 N1719 0.984 . S
H1723 N1719 0.985 . S
H1724 N1718 0.984 . S
H1725 N1718 0.984 . S
H1726 N1714 0.984 . S
H1727 N1714 0.985 . S
C1728 C1729 1.363 . S
C1728 C1734 1.379 . S
C1728 N1736 1.356 . S
C1729 C1728 1.363 . S
C1729 C1735 1.363 . S
C1730 C1731 1.363 . S
C1730 C1735 1.379 . S
C1730 N1737 1.356 . S
C1731 C1730 1.363 . S
C1731 C1734 1.363 . S
N1732 C1734 1.356 . S
N1732 H1744 0.984 . S
N1732 H1745 0.985 . S
N1733 C1735 1.356 . S
N1733 H1738 0.984 . S
N1733 H1739 0.985 . S
C1734 C1728 1.379 . S
C1734 C1731 1.363 . S
C1734 N1732 1.356 . S
C1735 C1729 1.363 . S
C1735 C1730 1.379 . S
C1735 N1733 1.356 . S
N1736 C1728 1.356 . S
N1736 H1742 0.984 . S
N1736 H1743 0.984 . S
N1737 C1730 1.356 . S
N1737 H1740 0.984 . S
N1737 H1741 0.985 . S
H1738 N1733 0.984 . S
H1739 N1733 0.985 . S
H1740 N1737 0.984 . S
H1741 N1737 0.985 . S
H1742 N1736 0.984 . S
H1743 N1736 0.984 . S
H1744 N1732 0.984 . S
H1745 N1732 0.985 . S
C1746 C1747 1.363 . S
C1746 C1752 1.379 . S
C1746 N1754 1.356 . S
C1747 C1746 1.363 . S
C1747 C1753 1.363 . S
C1748 C1749 1.363 . S
C1748 C1753 1.379 . S
C1748 N1755 1.356 . S
C1749 C1748 1.363 . S
C1749 C1752 1.363 . S
N1750 C1752 1.356 . S
N1750 H1762 0.984 . S
N1750 H1763 0.985 . S
N1751 C1753 1.356 . S
N1751 H1756 0.984 . S
N1751 H1757 0.985 . S
C1752 C1746 1.379 . S
C1752 C1749 1.363 . S
C1752 N1750 1.356 . S
C1753 C1747 1.363 . S
C1753 C1748 1.379 . S
C1753 N1751 1.356 . S
N1754 C1746 1.356 . S
N1754 H1760 0.984 . S
N1754 H1761 0.984 . S
N1755 C1748 1.356 . S
N1755 H1758 0.984 . S
N1755 H1759 0.985 . S
H1756 N1751 0.984 . S
H1757 N1751 0.985 . S
H1758 N1755 0.984 . S
H1759 N1755 0.985 . S
H1760 N1754 0.984 . S
H1761 N1754 0.984 . S
H1762 N1750 0.984 . S
H1763 N1750 0.985 . S
C1764 C1765 1.363 . S
C1764 C1770 1.379 . S
C1764 N1772 1.356 . S
C1765 C1764 1.363 . S
C1765 C1771 1.363 . S
C1766 C1767 1.363 . S
C1766 C1771 1.379 . S
C1766 N1773 1.356 . S
C1767 C1766 1.363 . S
C1767 C1770 1.363 . S
N1768 C1770 1.356 . S
N1768 H1780 0.984 . S
N1768 H1781 0.985 . S
N1769 C1771 1.356 . S
N1769 H1774 0.984 . S
N1769 H1775 0.985 . S
C1770 C1764 1.379 . S
C1770 C1767 1.363 . S
C1770 N1768 1.356 . S
C1771 C1765 1.363 . S
C1771 C1766 1.379 . S
C1771 N1769 1.356 . S
N1772 C1764 1.356 . S
N1772 H1778 0.984 . S
N1772 H1779 0.984 . S
N1773 C1766 1.356 . S
N1773 H1776 0.984 . S
N1773 H1777 0.985 . S
H1774 N1769 0.984 . S
H1775 N1769 0.985 . S
H1776 N1773 0.984 . S
H1777 N1773 0.985 . S
H1778 N1772 0.984 . S
H1779 N1772 0.984 . S
H1780 N1768 0.984 . S
H1781 N1768 0.985 . S
C487 C29 1.419 . S
C489 C238 1.199 . S
C505 C4 1.397 . S
C507 C254 1.186 . S
C525 C237 1.219 . S
C523 C16 1.423 . S
C543 C262 1.194 . S
C541 C30 1.415 . S
C559 C3 1.422 . S
C561 C271 1.218 . S
C579 C274 1.185 . S
C577 C17 1.397 . S
C595 C70 1.419 . S
C597 C280 1.199 . S
C615 C296 1.186 . S
C613 C49 1.397 . S
C633 C279 1.219 . S
C631 C57 1.423 . S
C649 C75 1.415 . S
C651 C304 1.194 . S
C669 C313 1.218 . S
C667 C44 1.422 . S
C687 C316 1.185 . S
C685 C62 1.397 . S
C705 C325 1.199 . S
C703 C107 1.419 . S
C723 C337 1.186 . S
C721 C88 1.397 . S
C741 C334 1.219 . S
C739 C96 1.423 . S
C757 C108 1.415 . S
C759 C343 1.194 . S
C777 C342 1.218 . S
C775 C83 1.422 . S
C793 C101 1.397 . S
C795 C359 1.185 . S
C813 C364 1.199 . S
C811 C146 1.419 . S
C831 C380 1.186 . S
C829 C121 1.397 . S
C847 C135 1.423 . S
C849 C363 1.219 . S
C867 C388 1.194 . S
C865 C147 1.415 . S
C885 C397 1.218 . S
C883 C120 1.422 . S
C901 C140 1.397 . S
C903 C400 1.185 . S
C919 C187 1.419 . S
C921 C409 1.199 . S
C939 C421 1.186 . S
C937 C160 1.397 . S
C957 C418 1.219 . S
C955 C172 1.423 . S
C973 C192 1.415 . S
C975 C427 1.194 . S
C993 C426 1.218 . S
C991 C159 1.422 . S
C1009 C173 1.397 . S
C1011 C443 1.185 . S
C1029 C448 1.199 . S
C1027 C226 1.419 . S
C1047 C464 1.186 . S
C1045 C205 1.397 . S
C1063 C213 1.423 . S
C1065 C447 1.219 . S
C1083 C469 1.194 . S
C1081 C231 1.415 . S
C1101 C468 1.218 . S
C1099 C200 1.422 . S
C1119 C485 1.185 . S
C1117 C218 1.397 . S
C1137 C250 1.493 . S
C1135 C148 1.609 . S
C1153 C127 1.586 . S
C1155 C253 1.475 . S
C1173 C241 1.466 . S
C1171 C133 1.589 . S
C1189 C225 1.602 . S
C1191 C258 1.491 . S
C1207 C198 1.585 . S
C1209 C259 1.462 . S
C1227 C275 1.473 . S
C1225 C212 1.583 . S
C1245 C292 1.493 . S
C1243 C185 1.609 . S
C1263 C295 1.475 . S
C1261 C166 1.586 . S
C1279 C174 1.589 . S
C1281 C283 1.466 . S
C1299 C300 1.491 . S
C1297 C114 1.602 . S
C1315 C81 1.585 . S
C1317 C301 1.462 . S
C1333 C95 1.583 . S
C1335 C317 1.473 . S
C1351 C224 1.609 . S
C1353 C321 1.493 . S
C1369 C199 1.586 . S
C1371 C338 1.475 . S
C1389 C322 1.466 . S
C1387 C211 1.589 . S
C1407 C355 1.491 . S
C1405 C69 1.602 . S
C1425 C346 1.462 . S
C1423 C42 1.586 . S
C1441 C56 1.583 . S
C1443 C358 1.473 . S
C1461 C376 1.493 . S
C1459 C31 1.609 . S
C1479 C379 1.475 . S
C1477 C10 1.586 . S
C1495 C18 1.589 . S
C1497 C367 1.466 . S
C1515 C384 1.491 . S
C1513 C186 1.602 . S
C1533 C385 1.462 . S
C1531 C161 1.585 . S
C1551 C401 1.473 . S
C1549 C179 1.583 . S
C1569 C405 1.493 . S
C1567 C68 1.609 . S
C1587 C422 1.475 . S
C1585 C43 1.586 . S
C1603 C55 1.589 . S
C1605 C406 1.466 . S
C1621 C153 1.602 . S
C1623 C439 1.491 . S
C1639 C122 1.586 . S
C1641 C430 1.462 . S
C1659 C442 1.473 . S
C1657 C134 1.583 . S
C1675 C109 1.609 . S
C1677 C460 1.493 . S
C1693 C82 1.586 . S
C1695 C463 1.475 . S
C1713 C451 1.466 . S
C1711 C94 1.589 . S
C1731 C481 1.491 . S
C1729 C36 1.602 . S
C1749 C472 1.462 . S
C1747 C5 1.586 . S
C1765 C23 1.583 . S
C1767 C484 1.473 . S
