# Generated by pormake.
# Topology ocu, (6,8)-cn, num edge types: 1
# Building blocks:
#     Node 0, Type 0, BuildingBlock: JUFBIX_clean_sbu_0, # of connection points: 6
#     Node 1, Type 0, BuildingBlock: JUFBIX_clean_sbu_0, # of connection points: 6
#     Node 2, Type 0, BuildingBlock: JUFBIX_clean_sbu_0, # of connection points: 6
#     Node 3, Type 0, BuildingBlock: JUFBIX_clean_sbu_0, # of connection points: 6
#     Node 4, Type 0, BuildingBlock: JUFBIX_clean_sbu_0, # of connection points: 6
#     Node 5, Type 0, BuildingBlock: JUFBIX_clean_sbu_0, # of connection points: 6
#     Node 6, Type 0, BuildingBlock: JUFBIX_clean_sbu_0, # of connection points: 6
#     Node 7, Type 0, BuildingBlock: JUFBIX_clean_sbu_0, # of connection points: 6
#     Node 8, Type 1, BuildingBlock: VETTIZ_charged_sbu_0, # of connection points: 8
#     Node 9, Type 1, BuildingBlock: VETTIZ_charged_sbu_0, # of connection points: 8
#     Node 10, Type 1, BuildingBlock: VETTIZ_charged_sbu_0, # of connection points: 8
#     Node 11, Type 1, BuildingBlock: VETTIZ_charged_sbu_0, # of connection points: 8
#     Node 12, Type 1, BuildingBlock: VETTIZ_charged_sbu_0, # of connection points: 8
#     Node 13, Type 1, BuildingBlock: VETTIZ_charged_sbu_0, # of connection points: 8
#     Edge 14, Type (0, 1), BuildingBlock: AJUNOK_clean_linker_0, # of connection points: 2
#     Edge 15, Type (0, 1), BuildingBlock: AJUNOK_clean_linker_0, # of connection points: 2
#     Edge 16, Type (0, 1), BuildingBlock: AJUNOK_clean_linker_0, # of connection points: 2
#     Edge 17, Type (0, 1), BuildingBlock: AJUNOK_clean_linker_0, # of connection points: 2
#     Edge 18, Type (0, 1), BuildingBlock: AJUNOK_clean_linker_0, # of connection points: 2
#     Edge 19, Type (0, 1), BuildingBlock: AJUNOK_clean_linker_0, # of connection points: 2
#     Edge 20, Type (0, 1), BuildingBlock: AJUNOK_clean_linker_0, # of connection points: 2
#     Edge 21, Type (0, 1), BuildingBlock: AJUNOK_clean_linker_0, # of connection points: 2
#     Edge 22, Type (0, 1), BuildingBlock: AJUNOK_clean_linker_0, # of connection points: 2
#     Edge 23, Type (0, 1), BuildingBlock: AJUNOK_clean_linker_0, # of connection points: 2
#     Edge 24, Type (0, 1), BuildingBlock: AJUNOK_clean_linker_0, # of connection points: 2
#     Edge 25, Type (0, 1), BuildingBlock: AJUNOK_clean_linker_0, # of connection points: 2
#     Edge 26, Type (0, 1), BuildingBlock: AJUNOK_clean_linker_0, # of connection points: 2
#     Edge 27, Type (0, 1), BuildingBlock: AJUNOK_clean_linker_0, # of connection points: 2
#     Edge 28, Type (0, 1), BuildingBlock: AJUNOK_clean_linker_0, # of connection points: 2
#     Edge 29, Type (0, 1), BuildingBlock: AJUNOK_clean_linker_0, # of connection points: 2
#     Edge 30, Type (0, 1), BuildingBlock: AJUNOK_clean_linker_0, # of connection points: 2
#     Edge 31, Type (0, 1), BuildingBlock: AJUNOK_clean_linker_0, # of connection points: 2
#     Edge 32, Type (0, 1), BuildingBlock: AJUNOK_clean_linker_0, # of connection points: 2
#     Edge 33, Type (0, 1), BuildingBlock: AJUNOK_clean_linker_0, # of connection points: 2
#     Edge 34, Type (0, 1), BuildingBlock: AJUNOK_clean_linker_0, # of connection points: 2
#     Edge 35, Type (0, 1), BuildingBlock: AJUNOK_clean_linker_0, # of connection points: 2
#     Edge 36, Type (0, 1), BuildingBlock: AJUNOK_clean_linker_0, # of connection points: 2
#     Edge 37, Type (0, 1), BuildingBlock: AJUNOK_clean_linker_0, # of connection points: 2
#     Edge 38, Type (0, 1), BuildingBlock: AJUNOK_clean_linker_0, # of connection points: 2
#     Edge 39, Type (0, 1), BuildingBlock: AJUNOK_clean_linker_0, # of connection points: 2
#     Edge 40, Type (0, 1), BuildingBlock: AJUNOK_clean_linker_0, # of connection points: 2
#     Edge 41, Type (0, 1), BuildingBlock: AJUNOK_clean_linker_0, # of connection points: 2
#     Edge 42, Type (0, 1), BuildingBlock: AJUNOK_clean_linker_0, # of connection points: 2
#     Edge 43, Type (0, 1), BuildingBlock: AJUNOK_clean_linker_0, # of connection points: 2
#     Edge 44, Type (0, 1), BuildingBlock: AJUNOK_clean_linker_0, # of connection points: 2
#     Edge 45, Type (0, 1), BuildingBlock: AJUNOK_clean_linker_0, # of connection points: 2
#     Edge 46, Type (0, 1), BuildingBlock: AJUNOK_clean_linker_0, # of connection points: 2
#     Edge 47, Type (0, 1), BuildingBlock: AJUNOK_clean_linker_0, # of connection points: 2
#     Edge 48, Type (0, 1), BuildingBlock: AJUNOK_clean_linker_0, # of connection points: 2
#     Edge 49, Type (0, 1), BuildingBlock: AJUNOK_clean_linker_0, # of connection points: 2
#     Edge 50, Type (0, 1), BuildingBlock: AJUNOK_clean_linker_0, # of connection points: 2
#     Edge 51, Type (0, 1), BuildingBlock: AJUNOK_clean_linker_0, # of connection points: 2
#     Edge 52, Type (0, 1), BuildingBlock: AJUNOK_clean_linker_0, # of connection points: 2
#     Edge 53, Type (0, 1), BuildingBlock: AJUNOK_clean_linker_0, # of connection points: 2
#     Edge 54, Type (0, 1), BuildingBlock: AJUNOK_clean_linker_0, # of connection points: 2
#     Edge 55, Type (0, 1), BuildingBlock: AJUNOK_clean_linker_0, # of connection points: 2
#     Edge 56, Type (0, 1), BuildingBlock: AJUNOK_clean_linker_0, # of connection points: 2
#     Edge 57, Type (0, 1), BuildingBlock: AJUNOK_clean_linker_0, # of connection points: 2
#     Edge 58, Type (0, 1), BuildingBlock: AJUNOK_clean_linker_0, # of connection points: 2
#     Edge 59, Type (0, 1), BuildingBlock: AJUNOK_clean_linker_0, # of connection points: 2
#     Edge 60, Type (0, 1), BuildingBlock: AJUNOK_clean_linker_0, # of connection points: 2
#     Edge 61, Type (0, 1), BuildingBlock: AJUNOK_clean_linker_0, # of connection points: 2
# Relax obj value: 0.191
# Max RMSD: 0.275
# Mean RMSD: 0.153
data_MOF--net-ocu--node1-JUFBIX_clean_sbu_0--node2-VETTIZ_charged_sbu_0--edge1-AJUNOK_clean_linker_0
_symmetry_space_group_name_H-M    P1
_symmetry_Int_Tables_number       1
_symmetry_cell_setting            triclinic
loop_
_symmetry_equiv_pos_as_xyz
'x, y, z'
_cell_length_a     27.856485
_cell_length_b     29.312774
_cell_length_c     28.085229
_cell_angle_alpha  94.414989
_cell_angle_beta   93.205611
_cell_angle_gamma 89.383339
loop_
_atom_site_label
_atom_site_type_symbol
_atom_site_fract_x
_atom_site_fract_y
_atom_site_fract_z
_atom_type_partial_charge
Co0 Co 0.255 0.23769 0.26615 0.0
C1 C 0.23249 0.30403 0.34231 0.0
Co2 Co 0.30842 0.29168 0.28503 0.0
C3 C 0.20589 0.15451 0.27628 0.0
C4 C 0.15991 0.20449 0.2459 0.0
N5 N 0.20668 0.19432 0.25562 0.0
N6 N 0.16103 0.14276 0.28572 0.0
C7 C 0.13186 0.17279 0.26437 0.0
H8 H 0.23738 0.13914 0.29265 0.0
H9 H 0.14661 0.23682 0.2343 0.0
C10 C 0.33133 0.22605 0.20951 0.0
N11 N 0.35664 0.33536 0.2928 0.0
C12 C 0.36869 0.35726 0.25489 0.0
C13 C 0.39752 0.33498 0.32112 0.0
N14 N 0.41572 0.36704 0.25604 0.0
C15 C 0.43411 0.35418 0.29833 0.0
C16 C 0.32741 0.21636 0.33768 0.0
O17 O 0.29167 0.20752 0.21724 0.0
O18 O 0.34407 0.26215 0.23463 0.0
O19 O 0.34287 0.25551 0.33 0.0
O20 O 0.28919 0.20227 0.31426 0.0
O21 O 0.27337 0.32065 0.33528 0.0
H22 H 0.40244 0.31659 0.35296 0.0
H23 H 0.34494 0.36072 0.2237 0.0
O24 O 0.21803 0.26891 0.31594 0.0
O25 O 0.22263 0.2724 0.21889 0.0
O26 O 0.2722 0.32798 0.23957 0.0
C27 C 0.23622 0.31259 0.21355 0.0
H28 H 0.09383 0.1769 0.26992 0.0
H29 H 0.47187 0.35383 0.30965 0.0
Co30 Co 0.8156 0.26478 0.25063 0.0
C31 C 0.82693 0.33461 0.32808 0.0
Co32 Co 0.75668 0.27558 0.29756 0.0
C33 C 0.88693 0.30361 0.2038 0.0
C34 C 0.90158 0.232 0.205 0.0
N35 N 0.86822 0.26446 0.21541 0.0
N36 N 0.93103 0.29777 0.18786 0.0
C37 C 0.94058 0.2526 0.1874 0.0
H38 H 0.86896 0.33648 0.20842 0.0
H39 H 0.8988 0.19638 0.21202 0.0
C40 C 0.7449 0.2063 0.21835 0.0
N41 N 0.70435 0.27435 0.33348 0.0
C42 C 0.68798 0.23407 0.345 0.0
C43 C 0.6719 0.30566 0.3492 0.0
N44 N 0.64661 0.23814 0.36679 0.0
C45 C 0.63602 0.28324 0.3702 0.0
C46 C 0.74441 0.32876 0.22025 0.0
O47 O 0.78786 0.21572 0.20987 0.0
O48 O 0.7267 0.22749 0.2543 0.0
O49 O 0.72577 0.32039 0.259 0.0
O50 O 0.78326 0.30793 0.20985 0.0
O51 O 0.78561 0.32336 0.34 0.0
H52 H 0.67342 0.34187 0.34439 0.0
H53 H 0.70585 0.2017 0.3367 0.0
O54 O 0.84373 0.31415 0.29111 0.0
O55 O 0.84823 0.22274 0.29074 0.0
O56 O 0.78864 0.23128 0.33737 0.0
C57 C 0.82951 0.21371 0.32897 0.0
H58 H 0.97355 0.23608 0.17648 0.0
H59 H 0.60426 0.29863 0.38534 0.0
Co60 Co 0.77645 0.73113 0.31319 0.0
C61 C 0.84867 0.79295 0.3427 0.0
Co62 Co 0.78762 0.78085 0.26136 0.0
C63 C 0.77501 0.64255 0.34496 0.0
C64 C 0.76779 0.69344 0.40287 0.0
N65 N 0.7675 0.68748 0.35494 0.0
N66 N 0.78679 0.62088 0.38456 0.0
C67 C 0.77943 0.65243 0.42119 0.0
H68 H 0.78057 0.62772 0.30921 0.0
H69 H 0.76701 0.72638 0.42304 0.0
C70 C 0.71846 0.71625 0.22988 0.0
N71 N 0.7962 0.82446 0.21943 0.0
C72 C 0.78202 0.86841 0.22507 0.0
C73 C 0.80652 0.81753 0.17314 0.0
N74 N 0.77896 0.88816 0.18349 0.0
C75 C 0.79591 0.85676 0.15096 0.0
C76 C 0.84598 0.7033 0.2431 0.0
O77 O 0.72726 0.7035 0.27165 0.0
O78 O 0.73933 0.75162 0.21781 0.0
O79 O 0.83655 0.7431 0.23006 0.0
O80 O 0.82428 0.69097 0.27889 0.0
O81 O 0.83579 0.80886 0.30316 0.0
H82 H 0.81509 0.78468 0.1553 0.0
H83 H 0.76696 0.88381 0.25718 0.0
O84 O 0.82726 0.75799 0.35494 0.0
O85 O 0.72959 0.77117 0.34713 0.0
O86 O 0.73795 0.8197 0.29368 0.0
C87 C 0.71871 0.81 0.33181 0.0
H88 H 0.79076 0.64876 0.45825 0.0
H89 H 0.79309 0.85931 0.11263 0.0
Co90 Co 0.26518 0.79976 0.28631 0.0
C91 C 0.3344 0.80405 0.35992 0.0
Co92 Co 0.31281 0.74128 0.28398 0.0
C93 C 0.22016 0.88377 0.31499 0.0
C94 C 0.21246 0.86909 0.23937 0.0
N95 N 0.229 0.85143 0.28041 0.0
N96 N 0.19914 0.92083 0.29742 0.0
C97 C 0.19298 0.91171 0.24997 0.0
H98 H 0.228 0.88001 0.3527 0.0
H99 H 0.21508 0.85249 0.20386 0.0
C100 C 0.24318 0.7354 0.21237 0.0
N101 N 0.3499 0.69085 0.28897 0.0
C102 C 0.39788 0.69033 0.29575 0.0
C103 C 0.33596 0.64753 0.29191 0.0
N104 N 0.41561 0.64785 0.30058 0.0
C105 C 0.37603 0.62114 0.2994 0.0
C106 C 0.2276 0.73043 0.33966 0.0
O107 O 0.23156 0.77382 0.23167 0.0
O108 O 0.27949 0.71437 0.22927 0.0
O109 O 0.26697 0.71346 0.32489 0.0
O110 O 0.21702 0.77076 0.32708 0.0
O111 O 0.34642 0.76672 0.33856 0.0
H112 H 0.2992 0.63573 0.2876 0.0
H113 H 0.4192 0.72076 0.29529 0.0
O114 O 0.29873 0.82594 0.34281 0.0
O115 O 0.31258 0.82866 0.24645 0.0
O116 O 0.35986 0.76943 0.2419 0.0
C117 C 0.35106 0.81036 0.23066 0.0
H118 H 0.17511 0.93381 0.22529 0.0
H119 H 0.37579 0.58419 0.29886 0.0
Co120 Co 0.30897 0.76504 0.75661 0.0
C121 C 0.32107 0.83226 0.83578 0.0
Co122 Co 0.24894 0.77281 0.80322 0.0
C123 C 0.375 0.80241 0.69949 0.0
C124 C 0.39574 0.73329 0.70971 0.0
N125 N 0.36102 0.76471 0.71912 0.0
N126 N 0.41655 0.79619 0.67818 0.0
C127 C 0.43059 0.75297 0.68474 0.0
H128 H 0.35687 0.83522 0.70349 0.0
H129 H 0.39683 0.69921 0.72205 0.0
C130 C 0.2374 0.70475 0.72614 0.0
N131 N 0.19595 0.77497 0.83871 0.0
C132 C 0.17077 0.73791 0.8467 0.0
C133 C 0.17165 0.81071 0.8591 0.0
N134 N 0.13179 0.74842 0.87128 0.0
C135 C 0.13244 0.79423 0.88021 0.0
C136 C 0.23545 0.82606 0.7261 0.0
O137 O 0.27879 0.7167 0.71486 0.0
O138 O 0.21994 0.72458 0.763 0.0
O139 O 0.21711 0.81559 0.76397 0.0
O140 O 0.2766 0.8095 0.71695 0.0
O141 O 0.27849 0.82087 0.84373 0.0
H142 H 0.18253 0.84607 0.85979 0.0
H143 H 0.18283 0.70318 0.83786 0.0
O144 O 0.33999 0.81347 0.79885 0.0
O145 O 0.33983 0.72028 0.79617 0.0
O146 O 0.28024 0.72898 0.84363 0.0
C147 C 0.32049 0.71024 0.83414 0.0
H148 H 0.46404 0.73747 0.67373 0.0
H149 H 0.10847 0.81377 0.90315 0.0
Co150 Co 0.28877 0.25569 0.80111 0.0
C151 C 0.35691 0.32115 0.83428 0.0
Co152 Co 0.29956 0.30666 0.75055 0.0
C153 C 0.29186 0.16605 0.8312 0.0
C154 C 0.27059 0.21415 0.88745 0.0
N155 N 0.28065 0.21038 0.841 0.0
N156 N 0.2927 0.14244 0.87024 0.0
C157 C 0.27807 0.17229 0.90557 0.0
H158 H 0.30518 0.15222 0.79759 0.0
H159 H 0.26331 0.24602 0.90791 0.0
C160 C 0.22742 0.24522 0.71937 0.0
N161 N 0.30798 0.35105 0.70909 0.0
C162 C 0.29338 0.39471 0.71617 0.0
C163 C 0.3108 0.3435 0.66143 0.0
N164 N 0.27966 0.41246 0.67478 0.0
C165 C 0.29363 0.38144 0.64026 0.0
C166 C 0.35749 0.22882 0.73076 0.0
O167 O 0.24083 0.22773 0.75796 0.0
O168 O 0.24878 0.28065 0.70846 0.0
O169 O 0.34616 0.26765 0.71594 0.0
O170 O 0.33913 0.21851 0.76898 0.0
O171 O 0.34864 0.33397 0.79243 0.0
H172 H 0.31648 0.31033 0.64291 0.0
H173 H 0.28277 0.4097 0.75044 0.0
O174 O 0.33616 0.28542 0.84587 0.0
O175 O 0.23935 0.29138 0.83265 0.0
O176 O 0.25161 0.34515 0.78583 0.0
C177 C 0.22932 0.33134 0.82051 0.0
H178 H 0.27968 0.16611 0.94316 0.0
H179 H 0.28282 0.38203 0.60265 0.0
Co180 Co 0.76261 0.29605 0.77568 0.0
C181 C 0.83341 0.303 0.84781 0.0
Co182 Co 0.81075 0.23786 0.77489 0.0
C183 C 0.67785 0.34872 0.76427 0.0
C184 C 0.74099 0.39012 0.77126 0.0
N185 N 0.72583 0.34682 0.77134 0.0
N186 N 0.66148 0.39204 0.76223 0.0
C187 C 0.70175 0.41788 0.76542 0.0
H188 H 0.65551 0.3187 0.76251 0.0
H189 H 0.77801 0.40095 0.77687 0.0
C190 C 0.74058 0.23284 0.70131 0.0
N191 N 0.84739 0.18613 0.78116 0.0
C192 C 0.85235 0.15118 0.74829 0.0
C193 C 0.8694 0.1718 0.82167 0.0
N194 N 0.87663 0.1159 0.76622 0.0
C195 C 0.88864 0.12894 0.81212 0.0
C196 C 0.72491 0.22724 0.83023 0.0
O197 O 0.72996 0.27161 0.72043 0.0
O198 O 0.77487 0.21025 0.72013 0.0
O199 O 0.76536 0.21034 0.81801 0.0
O200 O 0.71438 0.26667 0.81553 0.0
O201 O 0.84626 0.26543 0.82751 0.0
H202 H 0.87161 0.19112 0.85609 0.0
H203 H 0.84073 0.1523 0.71095 0.0
O204 O 0.79547 0.32247 0.83212 0.0
O205 O 0.80922 0.32457 0.73608 0.0
O206 O 0.8571 0.26565 0.73112 0.0
C207 C 0.84748 0.30659 0.71971 0.0
H208 H 0.70291 0.45489 0.76879 0.0
H209 H 0.91142 0.1098 0.83605 0.0
Co210 Co 0.76689 0.74282 0.77364 0.0
C211 C 0.74243 0.80851 0.84846 0.0
Co212 Co 0.81886 0.79825 0.79122 0.0
C213 C 0.70638 0.6797 0.80578 0.0
C214 C 0.68136 0.69502 0.73571 0.0
N215 N 0.72051 0.69772 0.7664 0.0
N216 N 0.65919 0.67042 0.8033 0.0
C217 C 0.64325 0.67876 0.75863 0.0
H218 H 0.72871 0.67951 0.83842 0.0
H219 H 0.67869 0.70947 0.70147 0.0
C220 C 0.84161 0.73264 0.71489 0.0
N221 N 0.86521 0.84353 0.80041 0.0
C222 C 0.86286 0.88417 0.78114 0.0
C223 C 0.91268 0.8353 0.80795 0.0
N224 N 0.9065 0.89863 0.77072 0.0
C225 C 0.93807 0.86921 0.78991 0.0
C226 C 0.84066 0.72431 0.84412 0.0
O227 O 0.80196 0.71458 0.72344 0.0
O228 O 0.85577 0.76825 0.74065 0.0
O229 O 0.85366 0.76453 0.83779 0.0
O230 O 0.80422 0.70815 0.81932 0.0
O231 O 0.78192 0.82746 0.84079 0.0
H232 H 0.92806 0.80313 0.81776 0.0
H233 H 0.82981 0.8988 0.76689 0.0
O234 O 0.73074 0.77189 0.82384 0.0
O235 O 0.73093 0.7773 0.72878 0.0
O236 O 0.78257 0.83234 0.74418 0.0
C237 C 0.74466 0.81703 0.72129 0.0
H238 H 0.60611 0.67815 0.74513 0.0
H239 H 0.976 0.86739 0.78324 0.0
Fe240 Fe 1.02791 0.07605 0.52856 0.0
O241 O 0.99386 0.01943 0.50105 0.0
Fe242 Fe 0.14458 0.0368 0.55252 0.0
Fe243 Fe 0.92455 1.00982 0.50648 0.0
O244 O 0.0749 0.03217 0.5571 0.0
O245 O 0.07522 0.02767 0.55814 0.0
O246 O 0.99414 1.0149 0.50216 0.0
Fe247 Fe 0.04101 0.97111 0.53085 0.0
C248 C 0.94836 0.06902 0.59446 0.0
O249 O 0.97261 0.11472 0.49321 0.0
O250 O 0.9191 0.06017 0.45898 0.0
O251 O 0.07643 0.97183 0.47002 0.0
O252 O 0.15045 0.98488 0.50029 0.0
O253 O 0.1388 0.08256 0.49995 0.0
O254 O 0.06396 0.07587 0.46801 0.0
O255 O 0.93456 0.95442 0.4591 0.0
O256 O 0.99821 0.91706 0.49654 0.0
C257 C 0.10788 0.08496 0.46507 0.0
O258 O 0.09592 0.93234 0.56608 0.0
O259 O 0.14999 0.98637 0.60015 0.0
O260 O 0.99252 0.075 0.58914 0.0
O261 O 0.91839 0.06151 0.55909 0.0
C262 C 0.93636 0.10134 0.46367 0.0
C263 C 0.96157 0.91879 0.4654 0.0
C264 C 0.96082 0.9617 0.59393 0.0
O265 O 0.93044 0.96397 0.55863 0.0
O266 O 1.00475 0.97128 0.59153 0.0
C267 C 0.12071 0.97705 0.4648 0.0
O268 O 0.13497 0.09214 0.59988 0.0
O269 O 0.07097 0.13001 0.56349 0.0
C270 C 0.13221 0.94536 0.59563 0.0
C271 C 0.10781 0.12781 0.59446 0.0
Fe272 Fe 0.53717 0.96332 0.03186 0.0
O273 O 0.56716 1.01225 0.99452 0.0
Fe274 Fe 0.43238 1.01743 0.06544 0.0
Fe275 Fe 0.63792 0.01978 0.98981 0.0
O276 O 0.50134 1.0175 0.05894 0.0
O277 O 0.50247 0.02379 0.0588 0.0
O278 O 0.56851 0.01881 0.99462 0.0
Fe279 Fe 0.53194 0.07267 1.02144 0.0
C280 C 0.63346 0.97721 0.08404 0.0
O281 O 0.58447 0.91489 0.99627 0.0
O282 O 0.62732 0.9595 0.94855 0.0
O283 O 0.48049 0.05999 0.96617 0.0
O284 O 0.4172 0.05744 1.01078 0.0
O285 O 0.42032 0.96028 1.01834 0.0
O286 O 0.48521 0.94895 0.97628 0.0
O287 O 0.62339 0.06565 0.93794 0.0
O288 O 0.57248 0.11672 0.97614 0.0
C289 C 0.44035 0.94328 0.98127 0.0
O290 O 0.48529 0.12137 0.05696 0.0
O291 O 0.44392 0.07769 0.10654 0.0
O292 O 0.58811 0.97554 0.08686 0.0
O293 O 0.65335 0.98004 0.04482 0.0
C294 C 0.61453 0.92042 0.96257 0.0
C295 C 0.60571 0.10663 0.94463 0.0
C296 C 0.62776 0.09258 0.0743 0.0
O297 O 0.64915 0.07683 0.03755 0.0
O298 O 0.5828 0.08658 0.07749 0.0
C299 C 0.43534 0.05611 0.97027 0.0
O300 O 0.44796 0.972 0.11721 0.0
O301 O 0.49729 0.91972 0.07875 0.0
C302 C 0.45677 0.11648 0.09198 0.0
C303 C 0.46591 0.93102 0.1119 0.0
Fe304 Fe 1.03445 0.5743 0.03407 0.0
O305 O 0.9946 0.5207 1.00939 0.0
Fe306 Fe 0.15108 0.52522 0.03674 0.0
Fe307 Fe 0.92748 0.5136 1.02243 0.0
O308 O 0.0817 0.52519 0.0536 0.0
O309 O 0.08382 0.51964 0.04864 0.0
O310 O 0.99654 0.51531 1.00502 0.0
Fe311 Fe 0.04421 0.46635 1.02361 0.0
C312 C 0.95736 0.58372 0.10859 0.0
O313 O 0.98011 0.61741 1.00435 0.0
O314 O 0.91864 0.5674 0.97955 0.0
O315 O 0.07511 0.4591 0.95705 0.0
O316 O 0.15107 0.47544 0.97996 0.0
O317 O 0.14167 0.57642 0.9907 0.0
O318 O 0.0645 0.57099 0.96895 0.0
O319 O 0.92793 0.46259 0.96953 0.0
O320 O 0.99282 0.41836 0.99307 0.0
C321 C 0.10535 0.58823 0.96496 0.0
O322 O 0.09855 0.42223 0.05277 0.0
O323 O 0.15866 0.47233 0.08044 0.0
O324 O 1.00239 0.58337 0.10085 0.0
O325 O 0.9273 0.56231 0.07965 0.0
C326 C 0.9398 0.60669 0.9798 0.0
C327 C 0.95116 0.42424 0.97055 0.0
C328 C 0.97585 0.45219 0.09459 0.0
O329 O 0.93887 0.46173 0.06841 0.0
O330 O 1.0162 0.46913 0.08895 0.0
C331 C 0.12013 0.45621 0.95019 0.0
O332 O 0.14938 0.57684 0.08906 0.0
O333 O 0.08583 0.62256 0.06388 0.0
C334 C 0.13778 0.43295 0.07922 0.0
C335 C 0.12625 0.61539 0.0884 0.0
Fe336 Fe 0.51937 0.52873 0.97736 0.0
O337 O 0.5743 0.49973 1.01385 0.0
Fe338 Fe 0.42854 0.53586 0.05585 0.0
Fe339 Fe 0.64251 0.51007 1.0035 0.0
O340 O 0.49484 0.54614 0.04092 0.0
O341 O 0.4966 0.54574 0.04476 0.0
O342 O 0.57598 0.49904 1.01772 0.0
Fe343 Fe 0.55154 0.51687 0.0812 0.0
C344 C 0.58775 0.48003 0.90906 0.0
O345 O 0.55374 0.5899 0.9803 0.0
O346 O 0.62745 0.56531 0.96385 0.0
O347 O 0.51971 0.5392 0.14268 0.0
O348 O 0.44917 0.57579 0.11821 0.0
O349 O 0.41373 0.58711 1.00865 0.0
O350 O 0.45891 0.56204 0.94574 0.0
O351 O 0.65814 0.55425 0.06419 0.0
O352 O 0.58641 0.57864 0.08597 0.0
C353 C 0.42475 0.58741 0.96412 0.0
O354 O 0.51663 0.45593 0.07947 0.0
O355 O 0.44365 0.48175 0.09706 0.0
O356 O 0.5516 0.50726 0.91566 0.0
O357 O 0.62248 0.4715 0.94041 0.0
C358 C 0.59385 0.59515 0.96247 0.0
C359 C 0.6316 0.58333 0.08663 0.0
C360 C 0.64545 0.45713 0.09359 0.0
O361 O 0.65663 0.45778 0.04917 0.0
O362 O 0.61195 0.48311 0.11246 0.0
C363 C 0.48426 0.5673 0.14929 0.0
O364 O 0.4133 0.48972 0.99661 0.0
O365 O 0.48471 0.46688 0.97188 0.0
C366 C 0.47683 0.45154 0.09832 0.0
C367 C 0.43972 0.46126 0.97296 0.0
Fe368 Fe 1.03299 0.46472 0.52753 0.0
O369 O 1.00307 0.51965 0.56158 0.0
Fe370 Fe 0.06001 0.50842 0.41894 0.0
Fe371 Fe 1.00626 0.52946 0.63225 0.0
O372 O 0.06118 0.51253 0.48908 0.0
O373 O 0.064 0.51832 0.48969 0.0
O374 O 1.006 0.52555 0.56227 0.0
Fe375 Fe 1.03513 0.57339 0.52453 0.0
C376 C 0.9657 0.43211 0.60947 0.0
O377 O 0.09272 0.47279 0.57186 0.0
O378 O 0.05928 0.48175 0.64188 0.0
O379 O 0.07148 0.61675 0.47659 0.0
O380 O 0.10732 0.56425 0.42426 0.0
O381 O 0.10914 0.45721 0.43059 0.0
O382 O 0.07268 0.41463 0.4849 0.0
O383 O 0.059 0.57965 0.63966 0.0
O384 O 0.09508 0.58076 0.57083 0.0
C385 C 0.1046 0.42043 0.45299 0.0
O386 O 0.97507 0.56644 0.48083 0.0
O387 O 1.00518 0.55478 0.40953 0.0
O388 O 0.99708 0.42142 0.57638 0.0
O389 O 0.95848 0.47423 0.62615 0.0
C390 C 0.09582 0.47641 0.61702 0.0
C391 C 0.09485 0.58954 0.61595 0.0
C392 C 0.96472 0.61869 0.59899 0.0
O393 O 0.95837 0.58176 0.6206 0.0
O394 O 0.99698 0.62385 0.56742 0.0
C395 C 0.10212 0.60598 0.44297 0.0
O396 O 1.00837 0.45717 0.41214 0.0
O397 O 0.97314 0.45614 0.48139 0.0
C398 C 0.96966 0.55965 0.43592 0.0
C399 C 0.97282 0.44733 0.43627 0.0
Fe400 Fe 0.54279 0.96519 0.53469 0.0
O401 O 0.57258 0.02263 0.56646 0.0
Fe402 Fe 0.49581 1.00282 0.42633 0.0
Fe403 Fe 0.57678 0.03401 0.63804 0.0
O404 O 0.50537 1.00929 0.49566 0.0
O405 O 0.50106 1.01443 0.49741 0.0
O406 O 0.56808 0.02819 0.56827 0.0
Fe407 Fe 0.52851 0.07219 0.53071 0.0
C408 C 0.49906 0.96144 0.62502 0.0
O409 O 0.58752 0.92748 0.58194 0.0
O410 O 0.6286 0.98336 0.62971 0.0
O411 O 0.58075 0.07063 0.48237 0.0
O412 O 0.53894 0.05635 0.41337 0.0
O413 O 0.55264 0.9558 0.41642 0.0
O414 O 0.59631 0.95275 0.48507 0.0
O415 O 0.6171 0.08804 0.62316 0.0
O416 O 0.56738 0.12535 0.56971 0.0
C417 C 0.59007 0.94215 0.43994 0.0
O418 O 0.48173 0.10967 0.48438 0.0
O419 O 0.44332 0.05316 0.43481 0.0
O420 O 0.49022 0.97213 0.58265 0.0
O421 O 0.53306 0.98062 0.65074 0.0
C422 C 0.62251 0.94116 0.61271 0.0
C423 C 0.60598 0.12203 0.59774 0.0
C424 C 0.48228 0.09324 0.62467 0.0
O425 O 0.52066 0.08162 0.64788 0.0
O426 O 0.47498 0.07989 0.58033 0.0
C427 C 0.57165 0.07789 0.43885 0.0
O428 O 0.45573 0.94861 0.44189 0.0
O429 O 0.502 0.91201 0.4988 0.0
C430 C 0.4477 0.09529 0.4527 0.0
C431 C 0.465 0.91517 0.46868 0.0
C432 C 0.11533 0.09265 0.33225 0.0
C433 C 0.15039 0.12617 0.33046 0.0
C434 C 0.10146 0.07962 0.37629 0.0
C435 C 0.12313 0.09909 0.41953 0.0
H436 H 0.0981 0.07721 0.29949 0.0
H437 H 0.07361 0.05417 0.37652 0.0
S438 S 0.21151 0.19315 0.43382 0.0
N439 N 0.20192 0.18284 0.3755 0.0
N440 N 0.17827 0.15586 0.45808 0.0
C441 C 0.15776 0.13306 0.41818 0.0
C442 C 0.17078 0.14727 0.37361 0.0
C443 C 0.90703 0.18066 0.36398 0.0
C444 C 0.85653 0.18616 0.36482 0.0
C445 C 0.93344 0.1557 0.39788 0.0
C446 C 0.91038 0.13471 0.43371 0.0
H447 H 0.92644 0.19576 0.33682 0.0
H448 H 0.97185 0.15136 0.39489 0.0
S449 S 0.77955 0.13915 0.45292 0.0
N450 N 0.78521 0.16921 0.4062 0.0
N451 N 0.83437 0.12169 0.46854 0.0
C452 C 0.86019 0.14037 0.43536 0.0
C453 C 0.83345 0.16625 0.40142 0.0
C454 C 0.91349 0.85116 0.35567 0.0
C455 C 0.88632 0.81716 0.37438 0.0
C456 C 0.94264 0.88099 0.3855 0.0
C457 C 0.94658 0.87767 0.43512 0.0
H458 H 0.91009 0.85672 0.31794 0.0
H459 H 0.95928 0.90917 0.37004 0.0
S460 S 0.88799 0.79158 0.50195 0.0
N461 N 0.86909 0.77917 0.44564 0.0
N462 N 0.92442 0.83567 0.50164 0.0
C463 C 0.92301 0.84165 0.45409 0.0
C464 C 0.89281 0.81119 0.42368 0.0
C465 C 0.20536 0.97572 0.36538 0.0
C466 C 0.17704 0.95532 0.32694 0.0
C467 C 0.18616 0.9849 0.40978 0.0
C468 C 0.13793 0.9745 0.41632 0.0
H469 H 0.2439 0.97812 0.36282 0.0
H470 H 0.21013 0.99707 0.43966 0.0
S471 S 0.04599 0.93677 0.32089 0.0
N472 N 0.09702 0.93678 0.29377 0.0
N473 N 0.05955 0.95446 0.37722 0.0
C474 C 0.10756 0.96171 0.37578 0.0
C475 C 0.12743 0.95279 0.33064 0.0
C476 C 0.23264 0.88113 0.66107 0.0
C477 C 0.20812 0.85514 0.69203 0.0
C478 C 0.20763 0.90927 0.6294 0.0
C479 C 0.15693 0.91159 0.62606 0.0
H480 H 0.27158 0.88059 0.66205 0.0
H481 H 0.22827 0.92963 0.60737 0.0
S482 S 0.07517 0.84898 0.6974 0.0
N483 N 0.12958 0.83305 0.71636 0.0
N484 N 0.08309 0.88473 0.65586 0.0
C485 C 0.13185 0.88484 0.65569 0.0
C486 C 0.15728 0.85702 0.68887 0.0
C487 C 0.15924 0.1903 0.70553 0.0
C488 C 0.18826 0.22333 0.68759 0.0
C489 C 0.12744 0.16333 0.67526 0.0
C490 C 0.12323 0.16823 0.62583 0.0
H491 H 0.16291 0.18339 0.74291 0.0
H492 H 0.10898 0.13574 0.69005 0.0
S493 S 0.18551 0.2539 0.56155 0.0
N494 N 0.20611 0.26322 0.61776 0.0
N495 N 0.14671 0.21155 0.56082 0.0
C496 C 0.14861 0.20372 0.60794 0.0
C497 C 0.18108 0.23152 0.63885 0.0
C498 C 0.94803 0.09225 0.72769 0.0
C499 C 0.90023 0.08294 0.73611 0.0
C500 C 0.96392 0.08618 0.68157 0.0
C501 C 0.93267 0.06922 0.64331 0.0
H502 H 0.97054 0.11116 0.75491 0.0
H503 H 0.99963 0.09802 0.67555 0.0
S504 S 0.81151 0.02076 0.6534 0.0
N505 N 0.82724 0.04319 0.70772 0.0
N506 N 0.85715 0.02984 0.62029 0.0
C507 C 0.88796 0.05165 0.65354 0.0
C508 C 0.87211 0.05804 0.70063 0.0
C509 C 0.95412 0.94888 0.72619 0.0
C510 C 0.91532 0.91904 0.72732 0.0
C511 C 0.96869 0.96271 0.68272 0.0
C512 C 0.94455 0.94732 0.63915 0.0
H513 H 0.97409 0.96034 0.75904 0.0
H514 H 0.99914 0.98545 0.68322 0.0
S515 S 0.84289 0.86616 0.62241 0.0
N516 N 0.85491 0.87222 0.68069 0.0
N517 N 0.881 0.89991 0.59946 0.0
C518 C 0.90534 0.91793 0.63979 0.0
C519 C 0.89099 0.90335 0.6838 0.0
C520 C 0.41441 0.20698 0.18294 0.0
C521 C 0.36406 0.20489 0.17383 0.0
C522 C 0.44599 0.18205 0.153 0.0
C523 C 0.42836 0.15552 0.1121 0.0
H524 H 0.42938 0.22556 0.21511 0.0
H525 H 0.48392 0.18106 0.16367 0.0
S526 S 0.30056 0.14443 0.06822 0.0
N527 N 0.29879 0.1778 0.11827 0.0
N528 N 0.35797 0.13248 0.06143 0.0
C529 C 0.37852 0.15638 0.10059 0.0
C530 C 0.34639 0.18064 0.13156 0.0
C531 C 0.95459 0.37805 0.19392 0.0
C532 C 0.95763 0.33379 0.17073 0.0
C533 C 0.96247 0.4168 0.16962 0.0
C534 C 0.97517 0.41201 0.12211 0.0
H535 H 0.94191 0.38267 0.22964 0.0
H536 H 0.95625 0.45042 0.18716 0.0
S537 S 0.99814 0.30351 0.04934 0.0
N538 N 0.98023 0.28734 0.1004 0.0
N539 N 0.99937 0.35988 0.05586 0.0
C540 C 0.98452 0.36796 0.10084 0.0
C541 C 0.97513 0.32867 0.12512 0.0
C542 C 0.74918 0.95905 0.15198 0.0
C543 C 0.74012 0.91784 0.17155 0.0
C544 C 0.71191 0.98225 0.12864 0.0
C545 C 0.66505 0.96422 0.12392 0.0
H546 H 0.78567 0.97136 0.15168 0.0
H547 H 0.72061 1.01208 0.11034 0.0
S548 S 0.62279 0.85961 0.17383 0.0
N549 N 0.68097 0.86172 0.18859 0.0
N550 N 0.61058 0.90591 0.14536 0.0
C551 C 0.65473 0.92558 0.14769 0.0
C552 C 0.69263 0.9019 0.1711 0.0
C553 C 0.23252 0.68141 0.1415 0.0
C554 C 0.212 0.71303 0.17427 0.0
C555 C 0.20359 0.65235 0.11132 0.0
C556 C 0.15311 0.65366 0.11306 0.0
H557 H 0.27123 0.67762 0.1407 0.0
H558 H 0.2211 0.62716 0.08771 0.0
S559 S 0.08174 0.73426 0.18876 0.0
N560 N 0.13831 0.74773 0.20386 0.0
N561 N 0.08358 0.69194 0.14647 0.0
C562 C 0.13185 0.68761 0.14278 0.0
C563 C 0.16151 0.71766 0.17369 0.0
C564 C 0.3977 0.87533 0.86363 0.0
C565 C 0.35003 0.86311 0.87172 0.0
C566 C 0.42671 0.90104 0.89878 0.0
C567 C 0.40954 0.91561 0.94384 0.0
H568 H 0.41309 0.86452 0.82999 0.0
H569 H 0.46294 0.90939 0.89052 0.0
S570 S 0.28752 0.89175 0.98382 0.0
N571 N 0.28735 0.86775 0.92877 0.0
N572 N 0.34123 0.91464 0.99441 0.0
C573 C 0.36183 0.90352 0.95225 0.0
C574 C 0.33235 0.87779 0.91644 0.0
C575 C 0.19225 0.40976 0.84365 0.0
C576 C 0.19503 0.36216 0.84891 0.0
C577 C 0.16593 0.43993 0.87468 0.0
C578 C 0.1391 0.42386 0.91111 0.0
H579 H 0.21253 0.4243 0.81678 0.0
H580 H 0.16774 0.47637 0.87099 0.0
S581 S 0.12973 0.30245 0.93794 0.0
N582 N 0.16546 0.30069 0.89281 0.0
N583 N 0.1151 0.35684 0.94892 0.0
C584 C 0.13915 0.37627 0.91496 0.0
C585 C 0.16698 0.34567 0.88441 0.0
C586 C 0.71221 0.1697 0.89359 0.0
C587 C 0.69194 0.20055 0.86147 0.0
C588 C 0.68389 0.1423 0.92111 0.0
C589 C 0.63274 0.14314 0.91902 0.0
H590 H 0.75095 0.16617 0.89736 0.0
H591 H 0.70273 0.11914 0.94405 0.0
S592 S 0.55972 0.21342 0.83687 0.0
N593 N 0.61559 0.2275 0.82746 0.0
N594 N 0.56329 0.17638 0.87846 0.0
C595 C 0.61161 0.17364 0.88692 0.0
C596 C 0.64067 0.20193 0.85868 0.0
C597 C 0.84589 0.65649 0.89344 0.0
C598 C 0.86684 0.69669 0.88026 0.0
C599 C 0.86925 0.62911 0.92649 0.0
C600 C 0.91526 0.64 0.94807 0.0
H601 H 0.8109 0.64581 0.87806 0.0
H602 H 0.85078 0.59857 0.93461 0.0
S603 S 0.98585 0.74252 0.92685 0.0
N604 N 0.93616 0.74703 0.89255 0.0
N605 N 0.98044 0.69501 0.95407 0.0
C606 C 0.93649 0.68062 0.93588 0.0
C607 C 0.91231 0.70895 0.90223 0.0
C608 C 0.22167 0.38792 0.178 0.0
C609 C 0.21023 0.34141 0.17822 0.0
C610 C 0.19794 0.41628 0.14609 0.0
C611 C 0.16137 0.39993 0.11212 0.0
H612 H 0.24914 0.40293 0.20306 0.0
H613 H 0.20862 0.45184 0.14864 0.0
S614 S 0.11895 0.27986 0.09612 0.0
N615 N 0.16033 0.27958 0.14055 0.0
N616 N 0.11605 0.33299 0.08029 0.0
C617 C 0.14968 0.35326 0.11159 0.0
C618 C 0.17396 0.32412 0.1445 0.0
C619 C 0.08586 0.67875 0.87656 0.0
C620 C 0.11199 0.71577 0.89937 0.0
C621 C 0.08232 0.63765 0.89859 0.0
C622 C 0.10726 0.63189 0.94263 0.0
H623 H 0.07066 0.68084 0.84044 0.0
H624 H 0.06237 0.60951 0.87997 0.0
S625 S 0.17831 0.72042 1.01692 0.0
N626 N 0.15885 0.74606 0.96931 0.0
N627 N 0.15712 0.6679 1.00873 0.0
C628 C 0.13209 0.6695 0.9661 0.0
C629 C 0.13296 0.71179 0.94505 0.0
C630 C 0.37577 0.11499 0.87045 0.0
C631 C 0.32718 0.10729 0.87884 0.0
C632 C 0.4126 0.09295 0.89572 0.0
C633 C 0.40135 0.06273 0.92966 0.0
H634 H 0.3854 0.14227 0.84896 0.0
H635 H 0.44931 0.10389 0.8929 0.0
S636 S 0.28015 0.02071 0.95231 0.0
N637 N 0.27004 0.06053 0.91436 0.0
N638 N 0.33917 1.01731 0.96095 0.0
C639 C 0.35321 0.04903 0.93182 0.0
C640 C 0.31593 0.07202 0.9067 0.0
C641 C 0.8448 0.35676 0.91963 0.0
C642 C 0.86496 0.32604 0.88562 0.0
C643 C 0.87404 0.38537 0.95037 0.0
C644 C 0.92439 0.38499 0.94743 0.0
H645 H 0.80611 0.36011 0.92115 0.0
H646 H 0.85679 0.41005 0.97474 0.0
S647 S 0.99521 0.30649 0.86887 0.0
N648 N 0.9386 0.29269 0.85441 0.0
N649 N 0.99357 0.34808 0.91195 0.0
C650 C 0.94537 0.35182 0.91656 0.0
C651 C 0.91553 0.32199 0.88547 0.0
C652 C 0.72625 0.86179 0.92005 0.0
C653 C 0.70882 0.83002 0.88336 0.0
C654 C 0.6948 0.88692 0.94948 0.0
C655 C 0.64447 0.88195 0.94322 0.0
H656 H 0.76442 0.86861 0.92497 0.0
H657 H 0.7099 0.91299 0.97534 0.0
S658 S 0.58022 0.80053 0.85521 0.0
N659 N 0.63763 0.79194 0.84519 0.0
N660 N 0.57876 0.84076 0.89973 0.0
C661 C 0.62652 0.84841 0.90875 0.0
C662 C 0.65865 0.8221 0.87902 0.0
C663 C 0.91647 0.68848 0.18871 0.0
C664 C 0.87916 0.67124 0.21451 0.0
C665 C 0.94466 0.65968 0.15783 0.0
C666 C 0.93642 0.61213 0.1502 0.0
H667 H 0.92332 0.72492 0.19154 0.0
H668 H 0.97122 0.67529 0.13762 0.0
S669 S 0.84394 0.54893 0.20887 0.0
N670 N 0.83707 0.60246 0.23048 0.0
N671 N 0.88839 0.5493 0.17237 0.0
C672 C 0.90002 0.59439 0.17657 0.0
C673 C 0.87203 0.62348 0.20861 0.0
C674 C 0.40956 0.82082 0.16123 0.0
C675 C 0.38544 0.83847 0.20231 0.0
C676 C 0.43759 0.84915 0.13332 0.0
C677 C 0.44431 0.89688 0.14525 0.0
H678 H 0.40523 0.78504 0.14926 0.0
H679 H 0.45256 0.83369 0.10113 0.0
S680 S 0.39531 0.95896 0.25364 0.0
N681 N 0.3746 0.90661 0.2549 0.0
N682 N 0.42732 0.95802 0.20589 0.0
C683 C 0.42255 0.91375 0.18803 0.0
C684 C 0.39344 0.88539 0.21535 0.0
C685 C 0.73471 0.15298 0.14348 0.0
C686 C 0.71485 0.17458 0.18446 0.0
C687 C 0.70647 0.12634 0.10889 0.0
C688 C 0.65673 0.1199 0.11326 0.0
H689 H 0.77241 0.15725 0.13746 0.0
H690 H 0.724 0.11111 0.07801 0.0
S691 S 0.58697 0.16737 0.21494 0.0
N692 N 0.64205 0.18639 0.22808 0.0
N693 N 0.58933 0.13645 0.16344 0.0
C694 C 0.63653 0.14043 0.15468 0.0
C695 C 0.66538 0.16762 0.19003 0.0
C696 C 0.6504 0.67778 0.89042 0.0
C697 C 0.63214 0.66252 0.844 0.0
C698 C 0.63382 0.6596 0.93081 0.0
C699 C 0.59659 0.62785 0.9262 0.0
H700 H 0.68009 0.70145 0.89565 0.0
H701 H 0.65256 0.66774 0.96524 0.0
S702 S 0.52587 0.58871 0.8151 0.0
N703 N 0.5684 0.62107 0.79709 0.0
N704 N 0.53421 0.5901 0.87388 0.0
C705 C 0.57259 0.61841 0.8812 0.0
C706 C 0.59092 0.63526 0.8397 0.0
C707 C 0.38396 0.65027 0.85269 0.0
C708 C 0.34533 0.67833 0.86765 0.0
C709 C 0.40847 0.6209 0.88363 0.0
C710 C 0.39659 0.61851 0.93167 0.0
H711 H 0.39537 0.6507 0.81648 0.0
H712 H 0.43713 0.5998 0.86948 0.0
S713 S 0.29784 0.68476 0.98915 0.0
N714 N 0.29579 0.70111 0.93413 0.0
N715 N 0.34221 0.64717 0.9921 0.0
C716 C 0.35774 0.6463 0.94704 0.0
C717 C 0.33224 0.67577 0.91527 0.0
C718 C 0.42168 0.34777 0.89701 0.0
C719 C 0.37764 0.35501 0.87169 0.0
C720 C 0.44143 0.38197 0.93044 0.0
C721 C 0.41709 0.42388 0.94061 0.0
H722 H 0.4415 0.31619 0.89005 0.0
H723 H 0.47606 0.37566 0.94832 0.0
S724 S 0.30063 0.45895 0.88377 0.0
N725 N 0.31071 0.40717 0.85876 0.0
N726 N 0.34663 0.47009 0.92229 0.0
C727 C 0.37259 0.43074 0.91616 0.0
C728 C 0.35324 0.39667 0.88154 0.0
C729 C 0.60857 0.45666 0.77958 0.0
C730 C 0.61594 0.40895 0.77824 0.0
C731 C 0.59757 0.48058 0.82253 0.0
C732 C 0.58845 0.45649 0.86215 0.0
H733 H 0.62154 0.47593 0.75157 0.0
H734 H 0.60078 0.51747 0.82605 0.0
S735 S 0.56629 0.33296 0.86301 0.0
N736 N 0.58725 0.33935 0.81005 0.0
N737 N 0.56491 0.38465 0.89062 0.0
C738 C 0.5813 0.4095 0.85607 0.0
C739 C 0.5934 0.38538 0.81277 0.0
C740 C 0.68237 0.38993 0.20262 0.0
C741 C 0.72082 0.3618 0.18742 0.0
C742 C 0.65921 0.42077 0.17253 0.0
C743 C 0.67245 0.42471 0.1252 0.0
H744 H 0.67001 0.38841 0.23835 0.0
H745 H 0.6305 0.44173 0.18676 0.0
S746 S 0.77228 0.35975 0.06787 0.0
N747 N 0.7722 0.34105 0.12182 0.0
N748 N 0.72836 0.3979 0.06532 0.0
C749 C 0.71131 0.39701 0.10964 0.0
C750 C 0.73538 0.36596 0.14058 0.0
C751 C 0.70793 0.63748 0.19138 0.0
C752 C 0.69414 0.68395 0.19321 0.0
C753 C 0.68876 0.60565 0.15568 0.0
C754 C 0.65398 0.61873 0.12112 0.0
H755 H 0.73458 0.62569 0.21733 0.0
H756 H 0.70046 0.57027 0.15582 0.0
S757 S 0.60518 0.7359 0.11012 0.0
N758 N 0.64433 0.74158 0.15663 0.0
N759 N 0.60604 0.68113 0.09099 0.0
C760 C 0.63932 0.66491 0.12275 0.0
C761 C 0.66007 0.69772 0.15832 0.0
C762 C 0.46822 0.58392 0.28042 0.0
C763 C 0.46174 0.6317 0.28518 0.0
C764 C 0.47558 0.56258 0.23527 0.0
C765 C 0.48342 0.58908 0.19703 0.0
H766 H 0.45648 0.56304 0.30769 0.0
H767 H 0.47129 0.52589 0.22942 0.0
S768 S 0.51311 0.71194 0.20582 0.0
N769 N 0.49414 0.70227 0.25884 0.0
N770 N 0.50978 0.66235 0.1736 0.0
C771 C 0.49316 0.63553 0.20637 0.0
C772 C 0.48463 0.65682 0.25211 0.0
C773 C 0.42112 0.36622 0.16866 0.0
C774 C 0.44056 0.37906 0.21527 0.0
C775 C 0.43659 0.38659 0.12901 0.0
C776 C 0.47364 0.41857 0.13434 0.0
H777 H 0.39168 0.34231 0.16288 0.0
H778 H 0.41742 0.37956 0.09461 0.0
S779 S 0.54494 0.45486 0.24603 0.0
N780 N 0.50391 0.42021 0.26299 0.0
N781 N 0.53544 0.45613 0.18754 0.0
C782 C 0.49788 0.42692 0.1794 0.0
C783 C 0.48094 0.40745 0.22019 0.0
C784 C 0.92234 0.71773 0.67971 0.0
C785 C 0.87217 0.71073 0.67729 0.0
C786 C 0.95266 0.69128 0.64965 0.0
C787 C 0.93382 0.65748 0.61559 0.0
H788 H 0.9387 0.74155 0.70714 0.0
H789 H 0.99125 0.69475 0.65576 0.0
S790 S 0.8049 0.63132 0.58871 0.0
N791 N 0.80494 0.67154 0.63327 0.0
N792 N 0.86188 0.62227 0.57735 0.0
C793 C 0.88365 0.65305 0.61005 0.0
C794 C 0.85284 0.67956 0.64067 0.0
C795 C 0.41932 0.85785 0.62497 0.0
C796 C 0.44215 0.8325 0.6602 0.0
C797 C 0.43779 0.8997 0.61412 0.0
C798 C 0.47924 0.91816 0.639 0.0
H799 H 0.386 0.84571 0.60685 0.0
H800 H 0.41892 0.91808 0.58665 0.0
S801 S 0.55248 0.86374 0.73434 0.0
N802 N 0.50827 0.82745 0.71932 0.0
N803 N 0.54352 0.90651 0.69979 0.0
C804 C 0.5029 0.89247 0.67396 0.0
C805 C 0.48429 0.84946 0.68427 0.0
C806 C 0.22947 0.47104 0.63879 0.0
C807 C 0.23445 0.43546 0.66921 0.0
C808 C 0.18378 0.48649 0.62416 0.0
C809 C 0.14229 0.46681 0.64 0.0
H810 H 0.2609 0.48495 0.62425 0.0
H811 H 0.18076 0.51248 0.59868 0.0
S812 S 0.13578 0.37217 0.71881 0.0
N813 N 0.19365 0.38034 0.71359 0.0
N814 N 0.10825 0.41124 0.6878 0.0
C815 C 0.14665 0.43301 0.67223 0.0
C816 C 0.19279 0.41669 0.68635 0.0
C817 C 0.65983 0.22597 0.65944 0.0
C818 C 0.70863 0.21243 0.66221 0.0
C819 C 0.62568 0.19976 0.63136 0.0
C820 C 0.63974 0.15986 0.60507 0.0
H821 H 0.6471 0.25435 0.68252 0.0
H822 H 0.58788 0.20778 0.63463 0.0
S823 S 0.76414 0.11779 0.5891 0.0
N824 N 0.77025 0.16248 0.62848 0.0
N825 N 0.7059 0.11348 0.57497 0.0
C826 C 0.689 0.14997 0.60205 0.0
C827 C 0.72364 0.17613 0.63111 0.0
C828 C 0.89348 0.39109 0.3341 0.0
C829 C 0.85785 0.36878 0.357 0.0
C830 C 0.92911 0.41745 0.35998 0.0
C831 C 0.93109 0.42279 0.41033 0.0
H832 H 0.89456 0.38719 0.29557 0.0
H833 H 0.95607 0.43283 0.34006 0.0
S834 S 0.84329 0.37488 0.48783 0.0
N835 N 0.82446 0.35632 0.43298 0.0
N836 N 0.89139 0.40605 0.48212 0.0
C837 C 0.89399 0.40271 0.43381 0.0
C838 C 0.85741 0.37575 0.40711 0.0
C839 C 0.67619 0.84 0.4076 0.0
C840 C 0.68616 0.8444 0.35915 0.0
C841 C 0.64722 0.87232 0.43399 0.0
C842 C 0.62557 0.9106 0.4133 0.0
H843 H 0.69122 0.81133 0.42564 0.0
H844 H 0.64063 0.86646 0.47066 0.0
S845 S 0.64057 0.9398 0.2885 0.0
N846 N 0.67242 0.89231 0.29282 0.0
N847 N 0.6175 0.95099 0.34105 0.0
C848 C 0.63533 0.91547 0.36508 0.0
C849 C 0.66557 0.8832 0.33859 0.0
C850 C 0.14758 0.71334 0.38118 0.0
C851 C 0.19577 0.70178 0.37021 0.0
C852 C 0.11808 0.68443 0.40678 0.0
C853 C 0.13476 0.64195 0.42306 0.0
H854 H 0.1319 0.74455 0.36882 0.0
H855 H 0.08121 0.69471 0.41213 0.0
S856 S 0.2589 0.59668 0.40865 0.0
N857 N 0.25869 0.64499 0.38217 0.0
N858 N 0.20454 0.59218 0.42821 0.0
C859 C 0.18315 0.63102 0.41366 0.0
C860 C 0.21301 0.66022 0.38811 0.0
C861 C 0.40071 0.20108 0.39232 0.0
C862 C 0.35512 0.18712 0.37181 0.0
C863 C 0.42933 0.17272 0.42118 0.0
C864 C 0.41372 0.12899 0.43086 0.0
H865 H 0.41531 0.23368 0.38478 0.0
H866 H 0.46492 0.18424 0.43393 0.0
S867 S 0.29496 0.07812 0.39173 0.0
N868 N 0.29452 0.12769 0.36758 0.0
N869 N 0.3475 0.07513 0.42158 0.0
C870 C 0.36723 0.11569 0.41286 0.0
C871 C 0.33824 0.14443 0.38348 0.0
C872 C 0.72829 0.892 0.685 0.0
C873 C 0.71536 0.84618 0.68875 0.0
C874 C 0.69927 0.92149 0.65843 0.0
C875 C 0.65575 0.90675 0.63412 0.0
H876 H 0.76048 0.90586 0.70389 0.0
H877 H 0.71064 0.95668 0.65806 0.0
S878 S 0.60658 0.7892 0.62949 0.0
N879 N 0.6568 0.78686 0.66333 0.0
N880 N 0.60254 0.84222 0.61362 0.0
C881 C 0.64332 0.86051 0.63574 0.0
C882 C 0.67289 0.83039 0.66303 0.0
C883 C 0.62253 0.15757 0.35605 0.0
C884 C 0.62185 0.20021 0.38296 0.0
C885 C 0.60666 0.11789 0.37456 0.0
C886 C 0.59006 0.11953 0.42076 0.0
H887 H 0.63652 0.15471 0.32077 0.0
H888 H 0.6081 0.08568 0.35296 0.0
S889 S 0.57443 0.22363 0.50273 0.0
N890 N 0.59952 0.24232 0.45613 0.0
N891 N 0.56781 0.16803 0.49037 0.0
C892 C 0.58668 0.16231 0.44689 0.0
C893 C 0.60288 0.20269 0.42803 0.0
C894 C 0.86536 0.59454 0.35724 0.0
C895 C 0.8265 0.58932 0.38671 0.0
C896 C 0.91175 0.58087 0.37112 0.0
C897 C 0.92056 0.56175 0.41483 0.0
H898 H 0.86155 0.61426 0.3263 0.0
H899 H 0.94121 0.58953 0.34993 0.0
S900 S 0.82937 0.52609 0.49571 0.0
N901 N 0.79826 0.55315 0.45457 0.0
N902 N 0.88594 0.52702 0.48109 0.0
C903 C 0.88128 0.54967 0.4406 0.0
C904 C 0.83399 0.56341 0.42625 0.0
C905 C 0.34931 0.86307 0.42729 0.0
C906 C 0.36501 0.82383 0.40066 0.0
C907 C 0.38177 0.88941 0.45709 0.0
C908 C 0.43086 0.87765 0.46043 0.0
H909 H 0.31276 0.87553 0.42224 0.0
H910 H 0.36951 0.92198 0.47316 0.0
S911 S 0.48776 0.77268 0.40753 0.0
N912 N 0.43092 0.7694 0.38754 0.0
N913 N 0.49208 0.82061 0.4424 0.0
C914 C 0.44569 0.83549 0.43951 0.0
C915 C 0.4126 0.80815 0.40955 0.0
C916 C 0.21764 0.367 0.40586 0.0
C917 C 0.20098 0.32744 0.37852 0.0
C918 C 0.18698 0.39417 0.43446 0.0
C919 C 0.13825 0.38303 0.43757 0.0
H920 H 0.25411 0.37864 0.40332 0.0
H921 H 0.20081 0.42601 0.45188 0.0
S922 S 0.0777 0.27992 0.37879 0.0
N923 N 0.13319 0.27581 0.36088 0.0
N924 N 0.07578 0.32738 0.41447 0.0
C925 C 0.1219 0.34175 0.41367 0.0
C926 C 0.15316 0.31389 0.38422 0.0
C927 C 0.41624 0.16103 0.72596 0.0
C928 C 0.38906 0.19469 0.70276 0.0
C929 C 0.44523 0.12836 0.70058 0.0
C930 C 0.44763 0.12627 0.65019 0.0
H931 H 0.41577 0.16029 0.76443 0.0
H932 H 0.46603 0.10432 0.72086 0.0
S933 S 0.38192 0.20499 0.57128 0.0
N934 N 0.36616 0.22284 0.62548 0.0
N935 N 0.41885 0.16123 0.57821 0.0
C936 C 0.41975 0.15907 0.62639 0.0
C937 C 0.39114 0.19312 0.65239 0.0
C938 C 0.86436 0.38018 0.67914 0.0
C939 C 0.87884 0.33504 0.68857 0.0
C940 C 0.89156 0.40921 0.65254 0.0
C941 C 0.93567 0.39581 0.6324 0.0
H942 H 0.83137 0.39405 0.69316 0.0
H943 H 0.87763 0.44337 0.64822 0.0
S944 S 0.99148 0.2809 0.64466 0.0
N945 N 0.94174 0.27834 0.67387 0.0
N946 N 0.99216 0.33232 0.62422 0.0
C947 C 0.95053 0.35033 0.64045 0.0
C948 C 0.92266 0.32048 0.66817 0.0
C949 C 0.17102 0.64802 0.71913 0.0
C950 C 0.20726 0.67018 0.69683 0.0
C951 C 0.13643 0.62087 0.69273 0.0
C952 C 0.13593 0.61464 0.64246 0.0
H953 H 0.16842 0.65266 0.75755 0.0
H954 H 0.10898 0.60566 0.71218 0.0
S955 S 0.22538 0.66227 0.56656 0.0
N956 N 0.24261 0.6818 0.62157 0.0
N957 N 0.17739 0.63071 0.57151 0.0
C958 C 0.17347 0.63474 0.61965 0.0
C959 C 0.20913 0.66245 0.64688 0.0
loop_
_geom_bond_atom_site_label_1
_geom_bond_atom_site_label_2
_geom_bond_distance
_geom_bond_site_symmetry_2
_ccdc_geom_bond_type
Co0 N5 2.057 . S
Co0 O17 2.021 . S
Co0 O20 2.062 . S
Co0 O24 2.117 . S
Co0 O25 2.020 . S
C1 O21 1.259 . S
C1 O24 1.258 . S
Co2 N11 2.057 . S
Co2 O18 2.117 . S
Co2 O19 2.020 . S
Co2 O21 2.021 . S
Co2 O26 2.062 . S
C3 N5 1.316 . S
C3 N6 1.347 . S
C3 H8 0.931 . S
C4 N5 1.375 . S
C4 C7 1.350 . S
C4 H9 0.930 . S
N5 Co0 2.057 . S
N5 C3 1.316 . S
N5 C4 1.375 . S
N6 C3 1.347 . S
N6 C7 1.373 . S
C7 C4 1.350 . S
C7 N6 1.373 . S
C7 H28 0.931 . S
H8 C3 0.931 . S
H9 C4 0.930 . S
C10 O17 1.259 . S
C10 O18 1.258 . S
N11 Co2 2.057 . S
N11 C12 1.316 . S
N11 C13 1.375 . S
C12 N11 1.316 . S
C12 N14 1.347 . S
C12 H23 0.931 . S
C13 N11 1.375 . S
C13 C15 1.350 . S
C13 H22 0.930 . S
N14 C12 1.347 . S
N14 C15 1.373 . S
C15 C13 1.350 . S
C15 N14 1.373 . S
C15 H29 0.931 . S
C16 O19 1.256 . S
C16 O20 1.255 . S
O17 Co0 2.021 . S
O17 C10 1.259 . S
O18 Co2 2.117 . S
O18 C10 1.258 . S
O19 Co2 2.020 . S
O19 C16 1.256 . S
O20 Co0 2.062 . S
O20 C16 1.255 . S
O21 C1 1.259 . S
O21 Co2 2.021 . S
H22 C13 0.930 . S
H23 C12 0.931 . S
O24 Co0 2.117 . S
O24 C1 1.258 . S
O25 Co0 2.020 . S
O25 C27 1.256 . S
O26 Co2 2.062 . S
O26 C27 1.255 . S
C27 O25 1.256 . S
C27 O26 1.255 . S
H28 C7 0.931 . S
H29 C15 0.931 . S
Co30 N35 2.057 . S
Co30 O47 2.021 . S
Co30 O50 2.062 . S
Co30 O54 2.117 . S
Co30 O55 2.020 . S
C31 O51 1.259 . S
C31 O54 1.258 . S
Co32 N41 2.057 . S
Co32 O48 2.117 . S
Co32 O49 2.020 . S
Co32 O51 2.021 . S
Co32 O56 2.062 . S
C33 N35 1.316 . S
C33 N36 1.347 . S
C33 H38 0.931 . S
C34 N35 1.375 . S
C34 C37 1.350 . S
C34 H39 0.930 . S
N35 Co30 2.057 . S
N35 C33 1.316 . S
N35 C34 1.375 . S
N36 C33 1.347 . S
N36 C37 1.373 . S
C37 C34 1.350 . S
C37 N36 1.373 . S
C37 H58 0.931 . S
H38 C33 0.931 . S
H39 C34 0.930 . S
C40 O47 1.259 . S
C40 O48 1.258 . S
N41 Co32 2.057 . S
N41 C42 1.316 . S
N41 C43 1.375 . S
C42 N41 1.316 . S
C42 N44 1.347 . S
C42 H53 0.931 . S
C43 N41 1.375 . S
C43 C45 1.350 . S
C43 H52 0.930 . S
N44 C42 1.347 . S
N44 C45 1.373 . S
C45 C43 1.350 . S
C45 N44 1.373 . S
C45 H59 0.931 . S
C46 O49 1.256 . S
C46 O50 1.255 . S
O47 Co30 2.021 . S
O47 C40 1.259 . S
O48 Co32 2.117 . S
O48 C40 1.258 . S
O49 Co32 2.020 . S
O49 C46 1.256 . S
O50 Co30 2.062 . S
O50 C46 1.255 . S
O51 C31 1.259 . S
O51 Co32 2.021 . S
H52 C43 0.930 . S
H53 C42 0.931 . S
O54 Co30 2.117 . S
O54 C31 1.258 . S
O55 Co30 2.020 . S
O55 C57 1.256 . S
O56 Co32 2.062 . S
O56 C57 1.255 . S
C57 O55 1.256 . S
C57 O56 1.255 . S
H58 C37 0.931 . S
H59 C45 0.931 . S
Co60 N65 2.057 . S
Co60 O77 2.021 . S
Co60 O80 2.062 . S
Co60 O84 2.117 . S
Co60 O85 2.020 . S
C61 O81 1.259 . S
C61 O84 1.258 . S
Co62 N71 2.057 . S
Co62 O78 2.117 . S
Co62 O79 2.020 . S
Co62 O81 2.021 . S
Co62 O86 2.062 . S
C63 N65 1.316 . S
C63 N66 1.347 . S
C63 H68 0.931 . S
C64 N65 1.375 . S
C64 C67 1.350 . S
C64 H69 0.930 . S
N65 Co60 2.057 . S
N65 C63 1.316 . S
N65 C64 1.375 . S
N66 C63 1.347 . S
N66 C67 1.373 . S
C67 C64 1.350 . S
C67 N66 1.373 . S
C67 H88 0.931 . S
H68 C63 0.931 . S
H69 C64 0.930 . S
C70 O77 1.259 . S
C70 O78 1.258 . S
N71 Co62 2.057 . S
N71 C72 1.316 . S
N71 C73 1.375 . S
C72 N71 1.316 . S
C72 N74 1.347 . S
C72 H83 0.931 . S
C73 N71 1.375 . S
C73 C75 1.350 . S
C73 H82 0.930 . S
N74 C72 1.347 . S
N74 C75 1.373 . S
C75 C73 1.350 . S
C75 N74 1.373 . S
C75 H89 0.931 . S
C76 O79 1.256 . S
C76 O80 1.255 . S
O77 Co60 2.021 . S
O77 C70 1.259 . S
O78 Co62 2.117 . S
O78 C70 1.258 . S
O79 Co62 2.020 . S
O79 C76 1.256 . S
O80 Co60 2.062 . S
O80 C76 1.255 . S
O81 C61 1.259 . S
O81 Co62 2.021 . S
H82 C73 0.930 . S
H83 C72 0.931 . S
O84 Co60 2.117 . S
O84 C61 1.258 . S
O85 Co60 2.020 . S
O85 C87 1.256 . S
O86 Co62 2.062 . S
O86 C87 1.255 . S
C87 O85 1.256 . S
C87 O86 1.255 . S
H88 C67 0.931 . S
H89 C75 0.931 . S
Co90 N95 2.057 . S
Co90 O107 2.021 . S
Co90 O110 2.062 . S
Co90 O114 2.117 . S
Co90 O115 2.020 . S
C91 O111 1.259 . S
C91 O114 1.258 . S
Co92 N101 2.057 . S
Co92 O108 2.117 . S
Co92 O109 2.020 . S
Co92 O111 2.021 . S
Co92 O116 2.062 . S
C93 N95 1.316 . S
C93 N96 1.347 . S
C93 H98 0.931 . S
C94 N95 1.375 . S
C94 C97 1.350 . S
C94 H99 0.930 . S
N95 Co90 2.057 . S
N95 C93 1.316 . S
N95 C94 1.375 . S
N96 C93 1.347 . S
N96 C97 1.373 . S
C97 C94 1.350 . S
C97 N96 1.373 . S
C97 H118 0.931 . S
H98 C93 0.931 . S
H99 C94 0.930 . S
C100 O107 1.259 . S
C100 O108 1.258 . S
N101 Co92 2.057 . S
N101 C102 1.316 . S
N101 C103 1.375 . S
C102 N101 1.316 . S
C102 N104 1.347 . S
C102 H113 0.931 . S
C103 N101 1.375 . S
C103 C105 1.350 . S
C103 H112 0.930 . S
N104 C102 1.347 . S
N104 C105 1.373 . S
C105 C103 1.350 . S
C105 N104 1.373 . S
C105 H119 0.931 . S
C106 O109 1.256 . S
C106 O110 1.255 . S
O107 Co90 2.021 . S
O107 C100 1.259 . S
O108 Co92 2.117 . S
O108 C100 1.258 . S
O109 Co92 2.020 . S
O109 C106 1.256 . S
O110 Co90 2.062 . S
O110 C106 1.255 . S
O111 C91 1.259 . S
O111 Co92 2.021 . S
H112 C103 0.930 . S
H113 C102 0.931 . S
O114 Co90 2.117 . S
O114 C91 1.258 . S
O115 Co90 2.020 . S
O115 C117 1.256 . S
O116 Co92 2.062 . S
O116 C117 1.255 . S
C117 O115 1.256 . S
C117 O116 1.255 . S
H118 C97 0.931 . S
H119 C105 0.931 . S
Co120 N125 2.057 . S
Co120 O137 2.021 . S
Co120 O140 2.062 . S
Co120 O144 2.117 . S
Co120 O145 2.020 . S
C121 O141 1.259 . S
C121 O144 1.258 . S
Co122 N131 2.057 . S
Co122 O138 2.117 . S
Co122 O139 2.020 . S
Co122 O141 2.021 . S
Co122 O146 2.062 . S
C123 N125 1.316 . S
C123 N126 1.347 . S
C123 H128 0.931 . S
C124 N125 1.375 . S
C124 C127 1.350 . S
C124 H129 0.930 . S
N125 Co120 2.057 . S
N125 C123 1.316 . S
N125 C124 1.375 . S
N126 C123 1.347 . S
N126 C127 1.373 . S
C127 C124 1.350 . S
C127 N126 1.373 . S
C127 H148 0.931 . S
H128 C123 0.931 . S
H129 C124 0.930 . S
C130 O137 1.259 . S
C130 O138 1.258 . S
N131 Co122 2.057 . S
N131 C132 1.316 . S
N131 C133 1.375 . S
C132 N131 1.316 . S
C132 N134 1.347 . S
C132 H143 0.931 . S
C133 N131 1.375 . S
C133 C135 1.350 . S
C133 H142 0.930 . S
N134 C132 1.347 . S
N134 C135 1.373 . S
C135 C133 1.350 . S
C135 N134 1.373 . S
C135 H149 0.931 . S
C136 O139 1.256 . S
C136 O140 1.255 . S
O137 Co120 2.021 . S
O137 C130 1.259 . S
O138 Co122 2.117 . S
O138 C130 1.258 . S
O139 Co122 2.020 . S
O139 C136 1.256 . S
O140 Co120 2.062 . S
O140 C136 1.255 . S
O141 C121 1.259 . S
O141 Co122 2.021 . S
H142 C133 0.930 . S
H143 C132 0.931 . S
O144 Co120 2.117 . S
O144 C121 1.258 . S
O145 Co120 2.020 . S
O145 C147 1.256 . S
O146 Co122 2.062 . S
O146 C147 1.255 . S
C147 O145 1.256 . S
C147 O146 1.255 . S
H148 C127 0.931 . S
H149 C135 0.931 . S
Co150 N155 2.057 . S
Co150 O167 2.021 . S
Co150 O170 2.062 . S
Co150 O174 2.117 . S
Co150 O175 2.020 . S
C151 O171 1.259 . S
C151 O174 1.258 . S
Co152 N161 2.057 . S
Co152 O168 2.117 . S
Co152 O169 2.020 . S
Co152 O171 2.021 . S
Co152 O176 2.062 . S
C153 N155 1.316 . S
C153 N156 1.347 . S
C153 H158 0.931 . S
C154 N155 1.375 . S
C154 C157 1.350 . S
C154 H159 0.930 . S
N155 Co150 2.057 . S
N155 C153 1.316 . S
N155 C154 1.375 . S
N156 C153 1.347 . S
N156 C157 1.373 . S
C157 C154 1.350 . S
C157 N156 1.373 . S
C157 H178 0.931 . S
H158 C153 0.931 . S
H159 C154 0.930 . S
C160 O167 1.259 . S
C160 O168 1.258 . S
N161 Co152 2.057 . S
N161 C162 1.316 . S
N161 C163 1.375 . S
C162 N161 1.316 . S
C162 N164 1.347 . S
C162 H173 0.931 . S
C163 N161 1.375 . S
C163 C165 1.350 . S
C163 H172 0.930 . S
N164 C162 1.347 . S
N164 C165 1.373 . S
C165 C163 1.350 . S
C165 N164 1.373 . S
C165 H179 0.931 . S
C166 O169 1.256 . S
C166 O170 1.255 . S
O167 Co150 2.021 . S
O167 C160 1.259 . S
O168 Co152 2.117 . S
O168 C160 1.258 . S
O169 Co152 2.020 . S
O169 C166 1.256 . S
O170 Co150 2.062 . S
O170 C166 1.255 . S
O171 C151 1.259 . S
O171 Co152 2.021 . S
H172 C163 0.930 . S
H173 C162 0.931 . S
O174 Co150 2.117 . S
O174 C151 1.258 . S
O175 Co150 2.020 . S
O175 C177 1.256 . S
O176 Co152 2.062 . S
O176 C177 1.255 . S
C177 O175 1.256 . S
C177 O176 1.255 . S
H178 C157 0.931 . S
H179 C165 0.931 . S
Co180 N185 2.057 . S
Co180 O197 2.021 . S
Co180 O200 2.062 . S
Co180 O204 2.117 . S
Co180 O205 2.020 . S
C181 O201 1.259 . S
C181 O204 1.258 . S
Co182 N191 2.057 . S
Co182 O198 2.117 . S
Co182 O199 2.020 . S
Co182 O201 2.021 . S
Co182 O206 2.062 . S
C183 N185 1.316 . S
C183 N186 1.347 . S
C183 H188 0.931 . S
C184 N185 1.375 . S
C184 C187 1.350 . S
C184 H189 0.930 . S
N185 Co180 2.057 . S
N185 C183 1.316 . S
N185 C184 1.375 . S
N186 C183 1.347 . S
N186 C187 1.373 . S
C187 C184 1.350 . S
C187 N186 1.373 . S
C187 H208 0.931 . S
H188 C183 0.931 . S
H189 C184 0.930 . S
C190 O197 1.259 . S
C190 O198 1.258 . S
N191 Co182 2.057 . S
N191 C192 1.316 . S
N191 C193 1.375 . S
C192 N191 1.316 . S
C192 N194 1.347 . S
C192 H203 0.931 . S
C193 N191 1.375 . S
C193 C195 1.350 . S
C193 H202 0.930 . S
N194 C192 1.347 . S
N194 C195 1.373 . S
C195 C193 1.350 . S
C195 N194 1.373 . S
C195 H209 0.931 . S
C196 O199 1.256 . S
C196 O200 1.255 . S
O197 Co180 2.021 . S
O197 C190 1.259 . S
O198 Co182 2.117 . S
O198 C190 1.258 . S
O199 Co182 2.020 . S
O199 C196 1.256 . S
O200 Co180 2.062 . S
O200 C196 1.255 . S
O201 C181 1.259 . S
O201 Co182 2.021 . S
H202 C193 0.930 . S
H203 C192 0.931 . S
O204 Co180 2.117 . S
O204 C181 1.258 . S
O205 Co180 2.020 . S
O205 C207 1.256 . S
O206 Co182 2.062 . S
O206 C207 1.255 . S
C207 O205 1.256 . S
C207 O206 1.255 . S
H208 C187 0.931 . S
H209 C195 0.931 . S
Co210 N215 2.057 . S
Co210 O227 2.021 . S
Co210 O230 2.062 . S
Co210 O234 2.117 . S
Co210 O235 2.020 . S
C211 O231 1.259 . S
C211 O234 1.258 . S
Co212 N221 2.057 . S
Co212 O228 2.117 . S
Co212 O229 2.020 . S
Co212 O231 2.021 . S
Co212 O236 2.062 . S
C213 N215 1.316 . S
C213 N216 1.347 . S
C213 H218 0.931 . S
C214 N215 1.375 . S
C214 C217 1.350 . S
C214 H219 0.930 . S
N215 Co210 2.057 . S
N215 C213 1.316 . S
N215 C214 1.375 . S
N216 C213 1.347 . S
N216 C217 1.373 . S
C217 C214 1.350 . S
C217 N216 1.373 . S
C217 H238 0.931 . S
H218 C213 0.931 . S
H219 C214 0.930 . S
C220 O227 1.259 . S
C220 O228 1.258 . S
N221 Co212 2.057 . S
N221 C222 1.316 . S
N221 C223 1.375 . S
C222 N221 1.316 . S
C222 N224 1.347 . S
C222 H233 0.931 . S
C223 N221 1.375 . S
C223 C225 1.350 . S
C223 H232 0.930 . S
N224 C222 1.347 . S
N224 C225 1.373 . S
C225 C223 1.350 . S
C225 N224 1.373 . S
C225 H239 0.931 . S
C226 O229 1.256 . S
C226 O230 1.255 . S
O227 Co210 2.021 . S
O227 C220 1.259 . S
O228 Co212 2.117 . S
O228 C220 1.258 . S
O229 Co212 2.020 . S
O229 C226 1.256 . S
O230 Co210 2.062 . S
O230 C226 1.255 . S
O231 C211 1.259 . S
O231 Co212 2.021 . S
H232 C223 0.930 . S
H233 C222 0.931 . S
O234 Co210 2.117 . S
O234 C211 1.258 . S
O235 Co210 2.020 . S
O235 C237 1.256 . S
O236 Co212 2.062 . S
O236 C237 1.255 . S
C237 O235 1.256 . S
C237 O236 1.255 . S
H238 C217 0.931 . S
H239 C225 0.931 . S
Fe240 O241 1.888 . S
Fe240 O244 1.713 1_655 S
Fe240 O249 2.079 . S
Fe240 O254 1.933 1_655 S
Fe240 O260 2.079 . S
Fe240 O269 1.934 1_655 S
O241 Fe240 1.888 . S
O241 Fe243 1.715 1_545 S
Fe242 O244 1.886 . S
Fe242 O245 1.715 1_545 S
Fe242 O252 1.935 1_545 S
Fe242 O253 2.077 . S
Fe242 O259 1.935 1_545 S
Fe242 O268 2.077 . S
Fe243 O241 1.715 1_565 S
Fe243 O246 1.886 . S
Fe243 O250 1.935 1_565 S
Fe243 O255 2.077 . S
Fe243 O261 1.935 1_565 S
Fe243 O265 2.077 . S
O244 Fe240 1.713 1_455 S
O244 Fe242 1.886 . S
O245 Fe242 1.715 1_565 S
O245 Fe247 1.892 . S
O246 Fe243 1.886 . S
O246 Fe247 1.708 1_655 S
Fe247 O245 1.892 . S
Fe247 O246 1.708 1_455 S
Fe247 O251 2.083 . S
Fe247 O256 1.930 1_455 S
Fe247 O258 2.083 . S
Fe247 O266 1.930 1_455 S
C248 O260 1.381 . S
C248 O261 1.421 . S
O249 Fe240 2.079 . S
O249 C262 1.381 . S
O250 Fe243 1.935 1_545 S
O250 C262 1.421 . S
O251 Fe247 2.083 . S
O251 C267 1.381 . S
O252 Fe242 1.935 1_565 S
O252 C267 1.421 . S
O253 Fe242 2.077 . S
O253 C257 1.381 . S
O254 Fe240 1.933 1_455 S
O254 C257 1.421 . S
O255 Fe243 2.077 . S
O255 C263 1.381 . S
O256 Fe247 1.930 1_655 S
O256 C263 1.421 . S
C257 O253 1.381 . S
C257 O254 1.421 . S
O258 Fe247 2.083 . S
O258 C270 1.381 . S
O259 Fe242 1.935 1_565 S
O259 C270 1.421 . S
O260 Fe240 2.079 . S
O260 C248 1.381 . S
O261 Fe243 1.935 1_545 S
O261 C248 1.421 . S
C262 O249 1.381 . S
C262 O250 1.421 . S
C263 O255 1.381 . S
C263 O256 1.421 . S
C264 O265 1.381 . S
C264 O266 1.421 . S
O265 Fe243 2.077 . S
O265 C264 1.381 . S
O266 Fe247 1.930 1_655 S
O266 C264 1.421 . S
C267 O251 1.381 . S
C267 O252 1.421 . S
O268 Fe242 2.077 . S
O268 C271 1.381 . S
O269 Fe240 1.934 1_455 S
O269 C271 1.421 . S
C270 O258 1.381 . S
C270 O259 1.421 . S
C271 O268 1.381 . S
C271 O269 1.421 . S
Fe272 O273 1.886 1_556 S
Fe272 O276 1.715 . S
Fe272 O281 2.077 . S
Fe272 O286 1.935 . S
Fe272 O292 2.077 1_556 S
Fe272 O301 1.935 1_556 S
O273 Fe272 1.886 1_554 S
O273 Fe275 1.715 1_565 S
Fe274 O276 1.886 . S
Fe274 O277 1.715 1_566 S
Fe274 O284 1.935 1_565 S
Fe274 O285 2.077 . S
Fe274 O291 1.935 1_566 S
Fe274 O300 2.077 1_556 S
Fe275 O273 1.715 1_545 S
Fe275 O278 1.886 . S
Fe275 O282 1.935 1_544 S
Fe275 O287 2.077 1_554 S
Fe275 O293 1.935 1_545 S
Fe275 O297 2.077 . S
O276 Fe272 1.715 . S
O276 Fe274 1.886 . S
O277 Fe274 1.715 1_544 S
O277 Fe279 1.886 . S
O278 Fe275 1.886 . S
O278 Fe279 1.715 . S
Fe279 O277 1.886 . S
Fe279 O278 1.715 . S
Fe279 O283 2.077 1_554 S
Fe279 O288 1.935 1_554 S
Fe279 O290 2.077 . S
Fe279 O298 1.935 . S
C280 O292 1.381 . S
C280 O293 1.421 . S
O281 Fe272 2.077 . S
O281 C294 1.381 . S
O282 Fe275 1.935 1_566 S
O282 C294 1.421 . S
O283 Fe279 2.077 1_556 S
O283 C299 1.381 . S
O284 Fe274 1.935 1_545 S
O284 C299 1.421 . S
O285 Fe274 2.077 . S
O285 C289 1.381 . S
O286 Fe272 1.935 . S
O286 C289 1.421 . S
O287 Fe275 2.077 1_556 S
O287 C295 1.381 . S
O288 Fe279 1.935 1_556 S
O288 C295 1.421 . S
C289 O285 1.381 . S
C289 O286 1.421 . S
O290 Fe279 2.077 . S
O290 C302 1.381 . S
O291 Fe274 1.935 1_544 S
O291 C302 1.421 . S
O292 Fe272 2.077 1_554 S
O292 C280 1.381 . S
O293 Fe275 1.935 1_565 S
O293 C280 1.421 . S
C294 O281 1.381 . S
C294 O282 1.421 . S
C295 O287 1.381 . S
C295 O288 1.421 . S
C296 O297 1.381 . S
C296 O298 1.421 . S
O297 Fe275 2.077 . S
O297 C296 1.381 . S
O298 Fe279 1.935 . S
O298 C296 1.421 . S
C299 O283 1.381 . S
C299 O284 1.421 . S
O300 Fe274 2.077 1_554 S
O300 C303 1.381 . S
O301 Fe272 1.935 1_554 S
O301 C303 1.421 . S
C302 O290 1.381 . S
C302 O291 1.421 . S
C303 O300 1.381 . S
C303 O301 1.421 . S
Fe304 O305 1.887 1_554 S
Fe304 O308 1.713 1_655 S
Fe304 O313 2.079 1_554 S
Fe304 O318 1.934 1_654 S
Fe304 O324 2.079 . S
Fe304 O333 1.934 1_655 S
O305 Fe304 1.887 1_556 S
O305 Fe307 1.715 . S
Fe306 O308 1.886 . S
Fe306 O309 1.715 . S
Fe306 O316 1.935 1_554 S
Fe306 O317 2.077 1_554 S
Fe306 O323 1.935 . S
Fe306 O332 2.077 . S
Fe307 O305 1.715 . S
Fe307 O310 1.886 . S
Fe307 O314 1.935 . S
Fe307 O319 2.077 . S
Fe307 O325 1.935 1_556 S
Fe307 O329 2.077 1_556 S
O308 Fe304 1.713 1_455 S
O308 Fe306 1.886 . S
O309 Fe306 1.715 . S
O309 Fe311 1.892 1_554 S
O310 Fe307 1.886 . S
O310 Fe311 1.709 1_655 S
Fe311 O309 1.892 1_556 S
Fe311 O310 1.709 1_455 S
Fe311 O315 2.083 . S
Fe311 O320 1.931 1_455 S
Fe311 O322 2.083 1_556 S
Fe311 O330 1.930 1_456 S
C312 O324 1.381 . S
C312 O325 1.421 . S
O313 Fe304 2.079 1_556 S
O313 C326 1.381 . S
O314 Fe307 1.935 . S
O314 C326 1.421 . S
O315 Fe311 2.083 . S
O315 C331 1.381 . S
O316 Fe306 1.935 1_556 S
O316 C331 1.421 . S
O317 Fe306 2.077 1_556 S
O317 C321 1.381 . S
O318 Fe304 1.934 1_456 S
O318 C321 1.421 . S
O319 Fe307 2.077 . S
O319 C327 1.381 . S
O320 Fe311 1.931 1_655 S
O320 C327 1.421 . S
C321 O317 1.381 . S
C321 O318 1.421 . S
O322 Fe311 2.083 1_554 S
O322 C334 1.381 . S
O323 Fe306 1.935 . S
O323 C334 1.421 . S
O324 Fe304 2.079 . S
O324 C312 1.381 . S
O325 Fe307 1.935 1_554 S
O325 C312 1.421 . S
C326 O313 1.381 . S
C326 O314 1.421 . S
C327 O319 1.381 . S
C327 O320 1.421 . S
C328 O329 1.381 . S
C328 O330 1.421 . S
O329 Fe307 2.077 1_554 S
O329 C328 1.381 . S
O330 Fe311 1.930 1_654 S
O330 C328 1.421 . S
C331 O315 1.381 . S
C331 O316 1.421 . S
O332 Fe306 2.077 . S
O332 C335 1.381 . S
O333 Fe304 1.934 1_455 S
O333 C335 1.421 . S
C334 O322 1.381 . S
C334 O323 1.421 . S
C335 O332 1.381 . S
C335 O333 1.421 . S
Fe336 O337 1.886 . S
Fe336 O340 1.715 . S
Fe336 O345 2.077 . S
Fe336 O350 1.935 . S
Fe336 O356 2.077 . S
Fe336 O365 1.935 . S
O337 Fe336 1.886 . S
O337 Fe339 1.715 1_556 S
Fe338 O340 1.886 . S
Fe338 O341 1.715 1_556 S
Fe338 O348 1.935 1_556 S
Fe338 O349 2.077 . S
Fe338 O355 1.935 1_556 S
Fe338 O364 2.077 . S
Fe339 O337 1.715 1_554 S
Fe339 O342 1.886 . S
Fe339 O346 1.935 1_554 S
Fe339 O351 2.077 . S
Fe339 O357 1.935 1_554 S
Fe339 O361 2.077 . S
O340 Fe336 1.715 . S
O340 Fe338 1.886 . S
O341 Fe338 1.715 1_554 S
O341 Fe343 1.886 . S
O342 Fe339 1.886 . S
O342 Fe343 1.715 . S
Fe343 O341 1.886 . S
Fe343 O342 1.715 . S
Fe343 O347 2.077 . S
Fe343 O352 1.935 . S
Fe343 O354 2.077 . S
Fe343 O362 1.935 . S
C344 O356 1.381 . S
C344 O357 1.421 . S
O345 Fe336 2.077 . S
O345 C358 1.381 . S
O346 Fe339 1.935 1_556 S
O346 C358 1.421 . S
O347 Fe343 2.077 . S
O347 C363 1.381 . S
O348 Fe338 1.935 1_554 S
O348 C363 1.421 . S
O349 Fe338 2.077 . S
O349 C353 1.381 . S
O350 Fe336 1.935 . S
O350 C353 1.421 . S
O351 Fe339 2.077 . S
O351 C359 1.381 . S
O352 Fe343 1.935 . S
O352 C359 1.421 . S
C353 O349 1.381 . S
C353 O350 1.421 . S
O354 Fe343 2.077 . S
O354 C366 1.381 . S
O355 Fe338 1.935 1_554 S
O355 C366 1.421 . S
O356 Fe336 2.077 . S
O356 C344 1.381 . S
O357 Fe339 1.935 1_556 S
O357 C344 1.421 . S
C358 O345 1.381 . S
C358 O346 1.421 . S
C359 O351 1.381 . S
C359 O352 1.421 . S
C360 O361 1.381 . S
C360 O362 1.421 . S
O361 Fe339 2.077 . S
O361 C360 1.381 . S
O362 Fe343 1.935 . S
O362 C360 1.421 . S
C363 O347 1.381 . S
C363 O348 1.421 . S
O364 Fe338 2.077 . S
O364 C367 1.381 . S
O365 Fe336 1.935 . S
O365 C367 1.421 . S
C366 O354 1.381 . S
C366 O355 1.421 . S
C367 O364 1.381 . S
C367 O365 1.421 . S
Fe368 O369 1.886 1_655 S
Fe368 O372 1.715 . S
Fe368 O377 2.066 1_655 S
Fe368 O382 1.922 1_655 S
Fe368 O388 2.089 . S
Fe368 O397 1.948 . S
O369 Fe368 1.886 1_455 S
O369 Fe371 1.715 . S
Fe370 O372 1.886 . S
Fe370 O373 1.715 . S
Fe370 O380 1.935 1_655 S
Fe370 O381 2.077 1_655 S
Fe370 O387 1.935 . S
Fe370 O396 2.077 . S
Fe371 O369 1.715 . S
Fe371 O374 1.886 . S
Fe371 O378 1.935 . S
Fe371 O383 2.077 . S
Fe371 O389 1.935 1_455 S
Fe371 O393 2.077 1_455 S
O372 Fe368 1.715 . S
O372 Fe370 1.886 . S
O373 Fe370 1.715 . S
O373 Fe375 1.887 1_655 S
O374 Fe371 1.886 . S
O374 Fe375 1.715 . S
Fe375 O373 1.887 1_455 S
Fe375 O374 1.715 . S
Fe375 O379 2.093 . S
Fe375 O384 1.953 . S
Fe375 O386 2.062 1_455 S
Fe375 O394 1.917 1_455 S
C376 O388 1.381 . S
C376 O389 1.421 . S
O377 Fe368 2.066 1_455 S
O377 C390 1.381 . S
O378 Fe371 1.935 . S
O378 C390 1.421 . S
O379 Fe375 2.093 . S
O379 C395 1.381 . S
O380 Fe370 1.935 1_455 S
O380 C395 1.421 . S
O381 Fe370 2.077 1_455 S
O381 C385 1.381 . S
O382 Fe368 1.922 1_455 S
O382 C385 1.421 . S
O383 Fe371 2.077 . S
O383 C391 1.381 . S
O384 Fe375 1.953 . S
O384 C391 1.421 . S
C385 O381 1.381 . S
C385 O382 1.421 . S
O386 Fe375 2.062 1_655 S
O386 C398 1.381 . S
O387 Fe370 1.935 . S
O387 C398 1.421 . S
O388 Fe368 2.089 . S
O388 C376 1.381 . S
O389 Fe371 1.935 1_655 S
O389 C376 1.421 . S
C390 O377 1.381 . S
C390 O378 1.421 . S
C391 O383 1.381 . S
C391 O384 1.421 . S
C392 O393 1.381 . S
C392 O394 1.421 . S
O393 Fe371 2.077 1_655 S
O393 C392 1.381 . S
O394 Fe375 1.917 1_655 S
O394 C392 1.421 . S
C395 O379 1.381 . S
C395 O380 1.421 . S
O396 Fe370 2.077 . S
O396 C399 1.381 . S
O397 Fe368 1.948 . S
O397 C399 1.421 . S
C398 O386 1.381 . S
C398 O387 1.421 . S
C399 O396 1.381 . S
C399 O397 1.421 . S
Fe400 O401 1.886 . S
Fe400 O404 1.715 . S
Fe400 O409 2.077 . S
Fe400 O414 1.935 . S
Fe400 O420 2.077 . S
Fe400 O429 1.935 . S
O401 Fe400 1.886 . S
O401 Fe403 1.715 1_565 S
Fe402 O404 1.886 . S
Fe402 O405 1.715 1_565 S
Fe402 O412 1.935 1_565 S
Fe402 O413 2.077 . S
Fe402 O419 1.935 1_565 S
Fe402 O428 2.077 . S
Fe403 O401 1.715 1_545 S
Fe403 O406 1.886 . S
Fe403 O410 1.935 1_545 S
Fe403 O415 2.077 . S
Fe403 O421 1.935 1_545 S
Fe403 O425 2.077 . S
O404 Fe400 1.715 . S
O404 Fe402 1.886 . S
O405 Fe402 1.715 1_545 S
O405 Fe407 1.886 . S
O406 Fe403 1.886 . S
O406 Fe407 1.715 . S
Fe407 O405 1.886 . S
Fe407 O406 1.715 . S
Fe407 O411 2.077 . S
Fe407 O416 1.935 . S
Fe407 O418 2.077 . S
Fe407 O426 1.935 . S
C408 O420 1.381 . S
C408 O421 1.421 . S
O409 Fe400 2.077 . S
O409 C422 1.381 . S
O410 Fe403 1.935 1_565 S
O410 C422 1.421 . S
O411 Fe407 2.077 . S
O411 C427 1.381 . S
O412 Fe402 1.935 1_545 S
O412 C427 1.421 . S
O413 Fe402 2.077 . S
O413 C417 1.381 . S
O414 Fe400 1.935 . S
O414 C417 1.421 . S
O415 Fe403 2.077 . S
O415 C423 1.381 . S
O416 Fe407 1.935 . S
O416 C423 1.421 . S
C417 O413 1.381 . S
C417 O414 1.421 . S
O418 Fe407 2.077 . S
O418 C430 1.381 . S
O419 Fe402 1.935 1_545 S
O419 C430 1.421 . S
O420 Fe400 2.077 . S
O420 C408 1.381 . S
O421 Fe403 1.935 1_565 S
O421 C408 1.421 . S
C422 O409 1.381 . S
C422 O410 1.421 . S
C423 O415 1.381 . S
C423 O416 1.421 . S
C424 O425 1.381 . S
C424 O426 1.421 . S
O425 Fe403 2.077 . S
O425 C424 1.381 . S
O426 Fe407 1.935 . S
O426 C424 1.421 . S
C427 O411 1.381 . S
C427 O412 1.421 . S
O428 Fe402 2.077 . S
O428 C431 1.381 . S
O429 Fe400 1.935 . S
O429 C431 1.421 . S
C430 O418 1.381 . S
C430 O419 1.421 . S
C431 O428 1.381 . S
C431 O429 1.421 . S
C432 C433 1.369 . S
C432 C434 1.419 . S
C432 H436 0.930 . S
C433 C432 1.369 . S
C433 C442 1.429 . S
C434 C432 1.419 . S
C434 C435 1.363 . S
C434 H437 0.929 . S
C435 C434 1.363 . S
C435 C441 1.428 . S
H436 C432 0.930 . S
H437 C434 0.929 . S
S438 N439 1.613 . S
S438 N440 1.610 . S
N439 S438 1.613 . S
N439 C442 1.350 . S
N440 S438 1.610 . S
N440 C441 1.351 . S
C441 C435 1.428 . S
C441 N440 1.351 . S
C441 C442 1.434 . S
C442 C433 1.429 . S
C442 N439 1.350 . S
C442 C441 1.434 . S
C443 C444 1.369 . S
C443 C445 1.419 . S
C443 H447 0.930 . S
C444 C443 1.369 . S
C444 C453 1.429 . S
C445 C443 1.419 . S
C445 C446 1.363 . S
C445 H448 0.929 . S
C446 C445 1.363 . S
C446 C452 1.428 . S
H447 C443 0.930 . S
H448 C445 0.929 . S
S449 N450 1.613 . S
S449 N451 1.610 . S
N450 S449 1.613 . S
N450 C453 1.350 . S
N451 S449 1.610 . S
N451 C452 1.351 . S
C452 C446 1.428 . S
C452 N451 1.351 . S
C452 C453 1.434 . S
C453 C444 1.429 . S
C453 N450 1.350 . S
C453 C452 1.434 . S
C454 C455 1.369 . S
C454 C456 1.419 . S
C454 H458 0.930 . S
C455 C454 1.369 . S
C455 C464 1.429 . S
C456 C454 1.419 . S
C456 C457 1.363 . S
C456 H459 0.929 . S
C457 C456 1.363 . S
C457 C463 1.428 . S
H458 C454 0.930 . S
H459 C456 0.929 . S
S460 N461 1.613 . S
S460 N462 1.610 . S
N461 S460 1.613 . S
N461 C464 1.350 . S
N462 S460 1.610 . S
N462 C463 1.351 . S
C463 C457 1.428 . S
C463 N462 1.351 . S
C463 C464 1.434 . S
C464 C455 1.429 . S
C464 N461 1.350 . S
C464 C463 1.434 . S
C465 C466 1.369 . S
C465 C467 1.419 . S
C465 H469 0.930 . S
C466 C465 1.369 . S
C466 C475 1.429 . S
C467 C465 1.419 . S
C467 C468 1.363 . S
C467 H470 0.929 . S
C468 C467 1.363 . S
C468 C474 1.428 . S
H469 C465 0.930 . S
H470 C467 0.929 . S
S471 N472 1.613 1_655 S
S471 N473 1.610 1_655 S
N472 S471 1.613 1_455 S
N472 C475 1.350 . S
N473 S471 1.610 1_455 S
N473 C474 1.351 . S
C474 C468 1.428 . S
C474 N473 1.351 . S
C474 C475 1.434 . S
C475 C466 1.429 . S
C475 N472 1.350 . S
C475 C474 1.434 . S
C476 C477 1.369 . S
C476 C478 1.419 . S
C476 H480 0.930 . S
C477 C476 1.369 . S
C477 C486 1.429 . S
C478 C476 1.419 . S
C478 C479 1.363 . S
C478 H481 0.929 . S
C479 C478 1.363 . S
C479 C485 1.428 . S
H480 C476 0.930 . S
H481 C478 0.929 . S
S482 N483 1.613 . S
S482 N484 1.610 . S
N483 S482 1.613 . S
N483 C486 1.350 . S
N484 S482 1.610 . S
N484 C485 1.351 . S
C485 C479 1.428 . S
C485 N484 1.351 . S
C485 C486 1.434 . S
C486 C477 1.429 . S
C486 N483 1.350 . S
C486 C485 1.434 . S
C487 C488 1.369 . S
C487 C489 1.419 . S
C487 H491 0.930 . S
C488 C487 1.369 . S
C488 C497 1.429 . S
C489 C487 1.419 . S
C489 C490 1.363 . S
C489 H492 0.929 . S
C490 C489 1.363 . S
C490 C496 1.428 . S
H491 C487 0.930 . S
H492 C489 0.929 . S
S493 N494 1.613 . S
S493 N495 1.610 . S
N494 S493 1.613 . S
N494 C497 1.350 . S
N495 S493 1.610 . S
N495 C496 1.351 . S
C496 C490 1.428 . S
C496 N495 1.351 . S
C496 C497 1.434 . S
C497 C488 1.429 . S
C497 N494 1.350 . S
C497 C496 1.434 . S
C498 C499 1.369 . S
C498 C500 1.419 . S
C498 H502 0.930 . S
C499 C498 1.369 . S
C499 C508 1.429 . S
C500 C498 1.419 . S
C500 C501 1.363 . S
C500 H503 0.929 . S
C501 C500 1.363 . S
C501 C507 1.428 . S
H502 C498 0.930 . S
H503 C500 0.929 . S
S504 N505 1.613 . S
S504 N506 1.610 . S
N505 S504 1.613 . S
N505 C508 1.350 . S
N506 S504 1.610 . S
N506 C507 1.351 . S
C507 C501 1.428 . S
C507 N506 1.351 . S
C507 C508 1.434 . S
C508 C499 1.429 . S
C508 N505 1.350 . S
C508 C507 1.434 . S
C509 C510 1.369 . S
C509 C511 1.419 . S
C509 H513 0.930 . S
C510 C509 1.369 . S
C510 C519 1.429 . S
C511 C509 1.419 . S
C511 C512 1.363 . S
C511 H514 0.929 . S
C512 C511 1.363 . S
C512 C518 1.428 . S
H513 C509 0.930 . S
H514 C511 0.929 . S
S515 N516 1.613 . S
S515 N517 1.610 . S
N516 S515 1.613 . S
N516 C519 1.350 . S
N517 S515 1.610 . S
N517 C518 1.351 . S
C518 C512 1.428 . S
C518 N517 1.351 . S
C518 C519 1.434 . S
C519 C510 1.429 . S
C519 N516 1.350 . S
C519 C518 1.434 . S
C520 C521 1.369 . S
C520 C522 1.419 . S
C520 H524 0.930 . S
C521 C520 1.369 . S
C521 C530 1.429 . S
C522 C520 1.419 . S
C522 C523 1.363 . S
C522 H525 0.929 . S
C523 C522 1.363 . S
C523 C529 1.428 . S
H524 C520 0.930 . S
H525 C522 0.929 . S
S526 N527 1.613 . S
S526 N528 1.610 . S
N527 S526 1.613 . S
N527 C530 1.350 . S
N528 S526 1.610 . S
N528 C529 1.351 . S
C529 C523 1.428 . S
C529 N528 1.351 . S
C529 C530 1.434 . S
C530 C521 1.429 . S
C530 N527 1.350 . S
C530 C529 1.434 . S
C531 C532 1.369 . S
C531 C533 1.419 . S
C531 H535 0.930 . S
C532 C531 1.369 . S
C532 C541 1.429 . S
C533 C531 1.419 . S
C533 C534 1.363 . S
C533 H536 0.929 . S
C534 C533 1.363 . S
C534 C540 1.428 . S
H535 C531 0.930 . S
H536 C533 0.929 . S
S537 N538 1.613 . S
S537 N539 1.610 . S
N538 S537 1.613 . S
N538 C541 1.350 . S
N539 S537 1.610 . S
N539 C540 1.351 . S
C540 C534 1.428 . S
C540 N539 1.351 . S
C540 C541 1.434 . S
C541 C532 1.429 . S
C541 N538 1.350 . S
C541 C540 1.434 . S
C542 C543 1.369 . S
C542 C544 1.419 . S
C542 H546 0.930 . S
C543 C542 1.369 . S
C543 C552 1.429 . S
C544 C542 1.419 . S
C544 C545 1.363 . S
C544 H547 0.929 . S
C545 C544 1.363 . S
C545 C551 1.428 . S
H546 C542 0.930 . S
H547 C544 0.929 . S
S548 N549 1.613 1_545 S
S548 N550 1.610 1_545 S
N549 S548 1.613 1_565 S
N549 C552 1.350 . S
N550 S548 1.610 1_565 S
N550 C551 1.351 . S
C551 C545 1.428 . S
C551 N550 1.351 . S
C551 C552 1.434 . S
C552 C543 1.429 . S
C552 N549 1.350 . S
C552 C551 1.434 . S
C553 C554 1.369 . S
C553 C555 1.419 . S
C553 H557 0.930 . S
C554 C553 1.369 . S
C554 C563 1.429 . S
C555 C553 1.419 . S
C555 C556 1.363 . S
C555 H558 0.929 . S
C556 C555 1.363 . S
C556 C562 1.428 . S
H557 C553 0.930 . S
H558 C555 0.929 . S
S559 N560 1.613 . S
S559 N561 1.610 . S
N560 S559 1.613 . S
N560 C563 1.350 . S
N561 S559 1.610 . S
N561 C562 1.351 . S
C562 C556 1.428 . S
C562 N561 1.351 . S
C562 C563 1.434 . S
C563 C554 1.429 . S
C563 N560 1.350 . S
C563 C562 1.434 . S
C564 C565 1.369 . S
C564 C566 1.419 . S
C564 H568 0.930 . S
C565 C564 1.369 . S
C565 C574 1.429 . S
C566 C564 1.419 . S
C566 C567 1.363 . S
C566 H569 0.929 . S
C567 C566 1.363 . S
C567 C573 1.428 . S
H568 C564 0.930 . S
H569 C566 0.929 . S
S570 N571 1.613 . S
S570 N572 1.610 . S
N571 S570 1.613 . S
N571 C574 1.350 . S
N572 S570 1.610 . S
N572 C573 1.351 . S
C573 C567 1.428 . S
C573 N572 1.351 . S
C573 C574 1.434 . S
C574 C565 1.429 . S
C574 N571 1.350 . S
C574 C573 1.434 . S
C575 C576 1.369 . S
C575 C577 1.419 . S
C575 H579 0.930 . S
C576 C575 1.369 . S
C576 C585 1.429 . S
C577 C575 1.419 . S
C577 C578 1.363 . S
C577 H580 0.929 . S
C578 C577 1.363 . S
C578 C584 1.428 . S
H579 C575 0.930 . S
H580 C577 0.929 . S
S581 N582 1.613 . S
S581 N583 1.610 . S
N582 S581 1.613 . S
N582 C585 1.350 . S
N583 S581 1.610 . S
N583 C584 1.351 . S
C584 C578 1.428 . S
C584 N583 1.351 . S
C584 C585 1.434 . S
C585 C576 1.429 . S
C585 N582 1.350 . S
C585 C584 1.434 . S
C586 C587 1.369 . S
C586 C588 1.419 . S
C586 H590 0.930 . S
C587 C586 1.369 . S
C587 C596 1.429 . S
C588 C586 1.419 . S
C588 C589 1.363 . S
C588 H591 0.929 . S
C589 C588 1.363 . S
C589 C595 1.428 . S
H590 C586 0.930 . S
H591 C588 0.929 . S
S592 N593 1.613 . S
S592 N594 1.610 . S
N593 S592 1.613 . S
N593 C596 1.350 . S
N594 S592 1.610 . S
N594 C595 1.351 . S
C595 C589 1.428 . S
C595 N594 1.351 . S
C595 C596 1.434 . S
C596 C587 1.429 . S
C596 N593 1.350 . S
C596 C595 1.434 . S
C597 C598 1.369 . S
C597 C599 1.419 . S
C597 H601 0.930 . S
C598 C597 1.369 . S
C598 C607 1.429 . S
C599 C597 1.419 . S
C599 C600 1.363 . S
C599 H602 0.929 . S
C600 C599 1.363 . S
C600 C606 1.428 . S
H601 C597 0.930 . S
H602 C599 0.929 . S
S603 N604 1.613 . S
S603 N605 1.610 . S
N604 S603 1.613 . S
N604 C607 1.350 . S
N605 S603 1.610 . S
N605 C606 1.351 . S
C606 C600 1.428 . S
C606 N605 1.351 . S
C606 C607 1.434 . S
C607 C598 1.429 . S
C607 N604 1.350 . S
C607 C606 1.434 . S
C608 C609 1.369 . S
C608 C610 1.419 . S
C608 H612 0.930 . S
C609 C608 1.369 . S
C609 C618 1.429 . S
C610 C608 1.419 . S
C610 C611 1.363 . S
C610 H613 0.929 . S
C611 C610 1.363 . S
C611 C617 1.428 . S
H612 C608 0.930 . S
H613 C610 0.929 . S
S614 N615 1.613 . S
S614 N616 1.610 . S
N615 S614 1.613 . S
N615 C618 1.350 . S
N616 S614 1.610 . S
N616 C617 1.351 . S
C617 C611 1.428 . S
C617 N616 1.351 . S
C617 C618 1.434 . S
C618 C609 1.429 . S
C618 N615 1.350 . S
C618 C617 1.434 . S
C619 C620 1.369 . S
C619 C621 1.419 . S
C619 H623 0.930 . S
C620 C619 1.369 . S
C620 C629 1.429 . S
C621 C619 1.419 . S
C621 C622 1.363 . S
C621 H624 0.929 . S
C622 C621 1.363 . S
C622 C628 1.428 . S
H623 C619 0.930 . S
H624 C621 0.929 . S
S625 N626 1.613 1_655 S
S625 N627 1.610 1_655 S
N626 S625 1.613 1_455 S
N626 C629 1.350 . S
N627 S625 1.610 1_455 S
N627 C628 1.351 . S
C628 C622 1.428 . S
C628 N627 1.351 . S
C628 C629 1.434 . S
C629 C620 1.429 . S
C629 N626 1.350 . S
C629 C628 1.434 . S
C630 C631 1.369 . S
C630 C632 1.419 . S
C630 H634 0.930 . S
C631 C630 1.369 . S
C631 C640 1.429 . S
C632 C630 1.419 . S
C632 C633 1.363 . S
C632 H635 0.929 . S
C633 C632 1.363 . S
C633 C639 1.428 . S
H634 C630 0.930 . S
H635 C632 0.929 . S
S636 N637 1.613 1_565 S
S636 N638 1.610 1_565 S
N637 S636 1.613 1_545 S
N637 C640 1.350 . S
N638 S636 1.610 1_545 S
N638 C639 1.351 . S
C639 C633 1.428 . S
C639 N638 1.351 . S
C639 C640 1.434 . S
C640 C631 1.429 . S
C640 N637 1.350 . S
C640 C639 1.434 . S
C641 C642 1.369 . S
C641 C643 1.419 . S
C641 H645 0.930 . S
C642 C641 1.369 . S
C642 C651 1.429 . S
C643 C641 1.419 . S
C643 C644 1.363 . S
C643 H646 0.929 . S
C644 C643 1.363 . S
C644 C650 1.428 . S
H645 C641 0.930 . S
H646 C643 0.929 . S
S647 N648 1.613 . S
S647 N649 1.610 . S
N648 S647 1.613 . S
N648 C651 1.350 . S
N649 S647 1.610 . S
N649 C650 1.351 . S
C650 C644 1.428 . S
C650 N649 1.351 . S
C650 C651 1.434 . S
C651 C642 1.429 . S
C651 N648 1.350 . S
C651 C650 1.434 . S
C652 C653 1.369 . S
C652 C654 1.419 . S
C652 H656 0.930 . S
C653 C652 1.369 . S
C653 C662 1.429 . S
C654 C652 1.419 . S
C654 C655 1.363 . S
C654 H657 0.929 . S
C655 C654 1.363 . S
C655 C661 1.428 . S
H656 C652 0.930 . S
H657 C654 0.929 . S
S658 N659 1.613 . S
S658 N660 1.610 . S
N659 S658 1.613 . S
N659 C662 1.350 . S
N660 S658 1.610 . S
N660 C661 1.351 . S
C661 C655 1.428 . S
C661 N660 1.351 . S
C661 C662 1.434 . S
C662 C653 1.429 . S
C662 N659 1.350 . S
C662 C661 1.434 . S
C663 C664 1.369 . S
C663 C665 1.419 . S
C663 H667 0.930 . S
C664 C663 1.369 . S
C664 C673 1.429 . S
C665 C663 1.419 . S
C665 C666 1.363 . S
C665 H668 0.929 . S
C666 C665 1.363 . S
C666 C672 1.428 . S
H667 C663 0.930 . S
H668 C665 0.929 . S
S669 N670 1.613 . S
S669 N671 1.610 . S
N670 S669 1.613 . S
N670 C673 1.350 . S
N671 S669 1.610 . S
N671 C672 1.351 . S
C672 C666 1.428 . S
C672 N671 1.351 . S
C672 C673 1.434 . S
C673 C664 1.429 . S
C673 N670 1.350 . S
C673 C672 1.434 . S
C674 C675 1.369 . S
C674 C676 1.419 . S
C674 H678 0.930 . S
C675 C674 1.369 . S
C675 C684 1.429 . S
C676 C674 1.419 . S
C676 C677 1.363 . S
C676 H679 0.929 . S
C677 C676 1.363 . S
C677 C683 1.428 . S
H678 C674 0.930 . S
H679 C676 0.929 . S
S680 N681 1.613 . S
S680 N682 1.610 . S
N681 S680 1.613 . S
N681 C684 1.350 . S
N682 S680 1.610 . S
N682 C683 1.351 . S
C683 C677 1.428 . S
C683 N682 1.351 . S
C683 C684 1.434 . S
C684 C675 1.429 . S
C684 N681 1.350 . S
C684 C683 1.434 . S
C685 C686 1.369 . S
C685 C687 1.419 . S
C685 H689 0.930 . S
C686 C685 1.369 . S
C686 C695 1.429 . S
C687 C685 1.419 . S
C687 C688 1.363 . S
C687 H690 0.929 . S
C688 C687 1.363 . S
C688 C694 1.428 . S
H689 C685 0.930 . S
H690 C687 0.929 . S
S691 N692 1.613 . S
S691 N693 1.610 . S
N692 S691 1.613 . S
N692 C695 1.350 . S
N693 S691 1.610 . S
N693 C694 1.351 . S
C694 C688 1.428 . S
C694 N693 1.351 . S
C694 C695 1.434 . S
C695 C686 1.429 . S
C695 N692 1.350 . S
C695 C694 1.434 . S
C696 C697 1.369 . S
C696 C698 1.419 . S
C696 H700 0.930 . S
C697 C696 1.369 . S
C697 C706 1.429 . S
C698 C696 1.419 . S
C698 C699 1.363 . S
C698 H701 0.929 . S
C699 C698 1.363 . S
C699 C705 1.428 . S
H700 C696 0.930 . S
H701 C698 0.929 . S
S702 N703 1.613 . S
S702 N704 1.610 . S
N703 S702 1.613 . S
N703 C706 1.350 . S
N704 S702 1.610 . S
N704 C705 1.351 . S
C705 C699 1.428 . S
C705 N704 1.351 . S
C705 C706 1.434 . S
C706 C697 1.429 . S
C706 N703 1.350 . S
C706 C705 1.434 . S
C707 C708 1.369 . S
C707 C709 1.419 . S
C707 H711 0.930 . S
C708 C707 1.369 . S
C708 C717 1.429 . S
C709 C707 1.419 . S
C709 C710 1.363 . S
C709 H712 0.929 . S
C710 C709 1.363 . S
C710 C716 1.428 . S
H711 C707 0.930 . S
H712 C709 0.929 . S
S713 N714 1.613 . S
S713 N715 1.610 . S
N714 S713 1.613 . S
N714 C717 1.350 . S
N715 S713 1.610 . S
N715 C716 1.351 . S
C716 C710 1.428 . S
C716 N715 1.351 . S
C716 C717 1.434 . S
C717 C708 1.429 . S
C717 N714 1.350 . S
C717 C716 1.434 . S
C718 C719 1.369 . S
C718 C720 1.419 . S
C718 H722 0.930 . S
C719 C718 1.369 . S
C719 C728 1.429 . S
C720 C718 1.419 . S
C720 C721 1.363 . S
C720 H723 0.929 . S
C721 C720 1.363 . S
C721 C727 1.428 . S
H722 C718 0.930 . S
H723 C720 0.929 . S
S724 N725 1.613 . S
S724 N726 1.610 . S
N725 S724 1.613 . S
N725 C728 1.350 . S
N726 S724 1.610 . S
N726 C727 1.351 . S
C727 C721 1.428 . S
C727 N726 1.351 . S
C727 C728 1.434 . S
C728 C719 1.429 . S
C728 N725 1.350 . S
C728 C727 1.434 . S
C729 C730 1.369 . S
C729 C731 1.419 . S
C729 H733 0.930 . S
C730 C729 1.369 . S
C730 C739 1.429 . S
C731 C729 1.419 . S
C731 C732 1.363 . S
C731 H734 0.929 . S
C732 C731 1.363 . S
C732 C738 1.428 . S
H733 C729 0.930 . S
H734 C731 0.929 . S
S735 N736 1.613 . S
S735 N737 1.610 . S
N736 S735 1.613 . S
N736 C739 1.350 . S
N737 S735 1.610 . S
N737 C738 1.351 . S
C738 C732 1.428 . S
C738 N737 1.351 . S
C738 C739 1.434 . S
C739 C730 1.429 . S
C739 N736 1.350 . S
C739 C738 1.434 . S
C740 C741 1.369 . S
C740 C742 1.419 . S
C740 H744 0.930 . S
C741 C740 1.369 . S
C741 C750 1.429 . S
C742 C740 1.419 . S
C742 C743 1.363 . S
C742 H745 0.929 . S
C743 C742 1.363 . S
C743 C749 1.428 . S
H744 C740 0.930 . S
H745 C742 0.929 . S
S746 N747 1.613 . S
S746 N748 1.610 . S
N747 S746 1.613 . S
N747 C750 1.350 . S
N748 S746 1.610 . S
N748 C749 1.351 . S
C749 C743 1.428 . S
C749 N748 1.351 . S
C749 C750 1.434 . S
C750 C741 1.429 . S
C750 N747 1.350 . S
C750 C749 1.434 . S
C751 C752 1.369 . S
C751 C753 1.419 . S
C751 H755 0.930 . S
C752 C751 1.369 . S
C752 C761 1.429 . S
C753 C751 1.419 . S
C753 C754 1.363 . S
C753 H756 0.929 . S
C754 C753 1.363 . S
C754 C760 1.428 . S
H755 C751 0.930 . S
H756 C753 0.929 . S
S757 N758 1.613 . S
S757 N759 1.610 . S
N758 S757 1.613 . S
N758 C761 1.350 . S
N759 S757 1.610 . S
N759 C760 1.351 . S
C760 C754 1.428 . S
C760 N759 1.351 . S
C760 C761 1.434 . S
C761 C752 1.429 . S
C761 N758 1.350 . S
C761 C760 1.434 . S
C762 C763 1.369 . S
C762 C764 1.419 . S
C762 H766 0.930 . S
C763 C762 1.369 . S
C763 C772 1.429 . S
C764 C762 1.419 . S
C764 C765 1.363 . S
C764 H767 0.929 . S
C765 C764 1.363 . S
C765 C771 1.428 . S
H766 C762 0.930 . S
H767 C764 0.929 . S
S768 N769 1.613 . S
S768 N770 1.610 . S
N769 S768 1.613 . S
N769 C772 1.350 . S
N770 S768 1.610 . S
N770 C771 1.351 . S
C771 C765 1.428 . S
C771 N770 1.351 . S
C771 C772 1.434 . S
C772 C763 1.429 . S
C772 N769 1.350 . S
C772 C771 1.434 . S
C773 C774 1.369 . S
C773 C775 1.419 . S
C773 H777 0.930 . S
C774 C773 1.369 . S
C774 C783 1.429 . S
C775 C773 1.419 . S
C775 C776 1.363 . S
C775 H778 0.929 . S
C776 C775 1.363 . S
C776 C782 1.428 . S
H777 C773 0.930 . S
H778 C775 0.929 . S
S779 N780 1.613 . S
S779 N781 1.610 . S
N780 S779 1.613 . S
N780 C783 1.350 . S
N781 S779 1.610 . S
N781 C782 1.351 . S
C782 C776 1.428 . S
C782 N781 1.351 . S
C782 C783 1.434 . S
C783 C774 1.429 . S
C783 N780 1.350 . S
C783 C782 1.434 . S
C784 C785 1.369 . S
C784 C786 1.419 . S
C784 H788 0.930 . S
C785 C784 1.369 . S
C785 C794 1.429 . S
C786 C784 1.419 . S
C786 C787 1.363 . S
C786 H789 0.929 . S
C787 C786 1.363 . S
C787 C793 1.428 . S
H788 C784 0.930 . S
H789 C786 0.929 . S
S790 N791 1.613 . S
S790 N792 1.610 . S
N791 S790 1.613 . S
N791 C794 1.350 . S
N792 S790 1.610 . S
N792 C793 1.351 . S
C793 C787 1.428 . S
C793 N792 1.351 . S
C793 C794 1.434 . S
C794 C785 1.429 . S
C794 N791 1.350 . S
C794 C793 1.434 . S
C795 C796 1.369 . S
C795 C797 1.419 . S
C795 H799 0.930 . S
C796 C795 1.369 . S
C796 C805 1.429 . S
C797 C795 1.419 . S
C797 C798 1.363 . S
C797 H800 0.929 . S
C798 C797 1.363 . S
C798 C804 1.428 . S
H799 C795 0.930 . S
H800 C797 0.929 . S
S801 N802 1.613 . S
S801 N803 1.610 . S
N802 S801 1.613 . S
N802 C805 1.350 . S
N803 S801 1.610 . S
N803 C804 1.351 . S
C804 C798 1.428 . S
C804 N803 1.351 . S
C804 C805 1.434 . S
C805 C796 1.429 . S
C805 N802 1.350 . S
C805 C804 1.434 . S
C806 C807 1.369 . S
C806 C808 1.419 . S
C806 H810 0.930 . S
C807 C806 1.369 . S
C807 C816 1.429 . S
C808 C806 1.419 . S
C808 C809 1.363 . S
C808 H811 0.929 . S
C809 C808 1.363 . S
C809 C815 1.428 . S
H810 C806 0.930 . S
H811 C808 0.929 . S
S812 N813 1.613 . S
S812 N814 1.610 . S
N813 S812 1.613 . S
N813 C816 1.350 . S
N814 S812 1.610 . S
N814 C815 1.351 . S
C815 C809 1.428 . S
C815 N814 1.351 . S
C815 C816 1.434 . S
C816 C807 1.429 . S
C816 N813 1.350 . S
C816 C815 1.434 . S
C817 C818 1.369 . S
C817 C819 1.419 . S
C817 H821 0.930 . S
C818 C817 1.369 . S
C818 C827 1.429 . S
C819 C817 1.419 . S
C819 C820 1.363 . S
C819 H822 0.929 . S
C820 C819 1.363 . S
C820 C826 1.428 . S
H821 C817 0.930 . S
H822 C819 0.929 . S
S823 N824 1.613 . S
S823 N825 1.610 . S
N824 S823 1.613 . S
N824 C827 1.350 . S
N825 S823 1.610 . S
N825 C826 1.351 . S
C826 C820 1.428 . S
C826 N825 1.351 . S
C826 C827 1.434 . S
C827 C818 1.429 . S
C827 N824 1.350 . S
C827 C826 1.434 . S
C828 C829 1.369 . S
C828 C830 1.419 . S
C828 H832 0.930 . S
C829 C828 1.369 . S
C829 C838 1.429 . S
C830 C828 1.419 . S
C830 C831 1.363 . S
C830 H833 0.929 . S
C831 C830 1.363 . S
C831 C837 1.428 . S
H832 C828 0.930 . S
H833 C830 0.929 . S
S834 N835 1.613 . S
S834 N836 1.610 . S
N835 S834 1.613 . S
N835 C838 1.350 . S
N836 S834 1.610 . S
N836 C837 1.351 . S
C837 C831 1.428 . S
C837 N836 1.351 . S
C837 C838 1.434 . S
C838 C829 1.429 . S
C838 N835 1.350 . S
C838 C837 1.434 . S
C839 C840 1.369 . S
C839 C841 1.419 . S
C839 H843 0.930 . S
C840 C839 1.369 . S
C840 C849 1.429 . S
C841 C839 1.419 . S
C841 C842 1.363 . S
C841 H844 0.929 . S
C842 C841 1.363 . S
C842 C848 1.428 . S
H843 C839 0.930 . S
H844 C841 0.929 . S
S845 N846 1.613 . S
S845 N847 1.610 . S
N846 S845 1.613 . S
N846 C849 1.350 . S
N847 S845 1.610 . S
N847 C848 1.351 . S
C848 C842 1.428 . S
C848 N847 1.351 . S
C848 C849 1.434 . S
C849 C840 1.429 . S
C849 N846 1.350 . S
C849 C848 1.434 . S
C850 C851 1.369 . S
C850 C852 1.419 . S
C850 H854 0.930 . S
C851 C850 1.369 . S
C851 C860 1.429 . S
C852 C850 1.419 . S
C852 C853 1.363 . S
C852 H855 0.929 . S
C853 C852 1.363 . S
C853 C859 1.428 . S
H854 C850 0.930 . S
H855 C852 0.929 . S
S856 N857 1.613 . S
S856 N858 1.610 . S
N857 S856 1.613 . S
N857 C860 1.350 . S
N858 S856 1.610 . S
N858 C859 1.351 . S
C859 C853 1.428 . S
C859 N858 1.351 . S
C859 C860 1.434 . S
C860 C851 1.429 . S
C860 N857 1.350 . S
C860 C859 1.434 . S
C861 C862 1.369 . S
C861 C863 1.419 . S
C861 H865 0.930 . S
C862 C861 1.369 . S
C862 C871 1.429 . S
C863 C861 1.419 . S
C863 C864 1.363 . S
C863 H866 0.929 . S
C864 C863 1.363 . S
C864 C870 1.428 . S
H865 C861 0.930 . S
H866 C863 0.929 . S
S867 N868 1.613 . S
S867 N869 1.610 . S
N868 S867 1.613 . S
N868 C871 1.350 . S
N869 S867 1.610 . S
N869 C870 1.351 . S
C870 C864 1.428 . S
C870 N869 1.351 . S
C870 C871 1.434 . S
C871 C862 1.429 . S
C871 N868 1.350 . S
C871 C870 1.434 . S
C872 C873 1.369 . S
C872 C874 1.419 . S
C872 H876 0.930 . S
C873 C872 1.369 . S
C873 C882 1.429 . S
C874 C872 1.419 . S
C874 C875 1.363 . S
C874 H877 0.929 . S
C875 C874 1.363 . S
C875 C881 1.428 . S
H876 C872 0.930 . S
H877 C874 0.929 . S
S878 N879 1.613 . S
S878 N880 1.610 . S
N879 S878 1.613 . S
N879 C882 1.350 . S
N880 S878 1.610 . S
N880 C881 1.351 . S
C881 C875 1.428 . S
C881 N880 1.351 . S
C881 C882 1.434 . S
C882 C873 1.429 . S
C882 N879 1.350 . S
C882 C881 1.434 . S
C883 C884 1.369 . S
C883 C885 1.419 . S
C883 H887 0.930 . S
C884 C883 1.369 . S
C884 C893 1.429 . S
C885 C883 1.419 . S
C885 C886 1.363 . S
C885 H888 0.929 . S
C886 C885 1.363 . S
C886 C892 1.428 . S
H887 C883 0.930 . S
H888 C885 0.929 . S
S889 N890 1.613 . S
S889 N891 1.610 . S
N890 S889 1.613 . S
N890 C893 1.350 . S
N891 S889 1.610 . S
N891 C892 1.351 . S
C892 C886 1.428 . S
C892 N891 1.351 . S
C892 C893 1.434 . S
C893 C884 1.429 . S
C893 N890 1.350 . S
C893 C892 1.434 . S
C894 C895 1.369 . S
C894 C896 1.419 . S
C894 H898 0.930 . S
C895 C894 1.369 . S
C895 C904 1.429 . S
C896 C894 1.419 . S
C896 C897 1.363 . S
C896 H899 0.929 . S
C897 C896 1.363 . S
C897 C903 1.428 . S
H898 C894 0.930 . S
H899 C896 0.929 . S
S900 N901 1.613 . S
S900 N902 1.610 . S
N901 S900 1.613 . S
N901 C904 1.350 . S
N902 S900 1.610 . S
N902 C903 1.351 . S
C903 C897 1.428 . S
C903 N902 1.351 . S
C903 C904 1.434 . S
C904 C895 1.429 . S
C904 N901 1.350 . S
C904 C903 1.434 . S
C905 C906 1.369 . S
C905 C907 1.419 . S
C905 H909 0.930 . S
C906 C905 1.369 . S
C906 C915 1.429 . S
C907 C905 1.419 . S
C907 C908 1.363 . S
C907 H910 0.929 . S
C908 C907 1.363 . S
C908 C914 1.428 . S
H909 C905 0.930 . S
H910 C907 0.929 . S
S911 N912 1.613 . S
S911 N913 1.610 . S
N912 S911 1.613 . S
N912 C915 1.350 . S
N913 S911 1.610 . S
N913 C914 1.351 . S
C914 C908 1.428 . S
C914 N913 1.351 . S
C914 C915 1.434 . S
C915 C906 1.429 . S
C915 N912 1.350 . S
C915 C914 1.434 . S
C916 C917 1.369 . S
C916 C918 1.419 . S
C916 H920 0.930 . S
C917 C916 1.369 . S
C917 C926 1.429 . S
C918 C916 1.419 . S
C918 C919 1.363 . S
C918 H921 0.929 . S
C919 C918 1.363 . S
C919 C925 1.428 . S
H920 C916 0.930 . S
H921 C918 0.929 . S
S922 N923 1.613 . S
S922 N924 1.610 . S
N923 S922 1.613 . S
N923 C926 1.350 . S
N924 S922 1.610 . S
N924 C925 1.351 . S
C925 C919 1.428 . S
C925 N924 1.351 . S
C925 C926 1.434 . S
C926 C917 1.429 . S
C926 N923 1.350 . S
C926 C925 1.434 . S
C927 C928 1.369 . S
C927 C929 1.419 . S
C927 H931 0.930 . S
C928 C927 1.369 . S
C928 C937 1.429 . S
C929 C927 1.419 . S
C929 C930 1.363 . S
C929 H932 0.929 . S
C930 C929 1.363 . S
C930 C936 1.428 . S
H931 C927 0.930 . S
H932 C929 0.929 . S
S933 N934 1.613 . S
S933 N935 1.610 . S
N934 S933 1.613 . S
N934 C937 1.350 . S
N935 S933 1.610 . S
N935 C936 1.351 . S
C936 C930 1.428 . S
C936 N935 1.351 . S
C936 C937 1.434 . S
C937 C928 1.429 . S
C937 N934 1.350 . S
C937 C936 1.434 . S
C938 C939 1.369 . S
C938 C940 1.419 . S
C938 H942 0.930 . S
C939 C938 1.369 . S
C939 C948 1.429 . S
C940 C938 1.419 . S
C940 C941 1.363 . S
C940 H943 0.929 . S
C941 C940 1.363 . S
C941 C947 1.428 . S
H942 C938 0.930 . S
H943 C940 0.929 . S
S944 N945 1.613 . S
S944 N946 1.610 . S
N945 S944 1.613 . S
N945 C948 1.350 . S
N946 S944 1.610 . S
N946 C947 1.351 . S
C947 C941 1.428 . S
C947 N946 1.351 . S
C947 C948 1.434 . S
C948 C939 1.429 . S
C948 N945 1.350 . S
C948 C947 1.434 . S
C949 C950 1.369 . S
C949 C951 1.419 . S
C949 H953 0.930 . S
C950 C949 1.369 . S
C950 C959 1.429 . S
C951 C949 1.419 . S
C951 C952 1.363 . S
C951 H954 0.929 . S
C952 C951 1.363 . S
C952 C958 1.428 . S
H953 C949 0.930 . S
H954 C951 0.929 . S
S955 N956 1.613 . S
S955 N957 1.610 . S
N956 S955 1.613 . S
N956 C959 1.350 . S
N957 S955 1.610 . S
N957 C958 1.351 . S
C958 C952 1.428 . S
C958 N957 1.351 . S
C958 C959 1.434 . S
C959 C950 1.429 . S
C959 N956 1.350 . S
C959 C958 1.434 . S
C435 C257 1.160 . S
C433 N6 1.006 . S
C446 C262 1.940 . S
C444 C57 1.940 . S
C457 C263 1.427 . S
C455 C61 1.442 . S
C466 N96 0.736 . S
C468 C267 0.689 . S
C477 C136 1.943 . S
C479 C270 1.943 . S
C490 C271 1.426 . S
C488 C160 1.439 . S
C499 N194 0.715 . S
C501 C248 0.689 . S
C510 N224 1.007 . S
C512 C264 1.161 . S
C523 C302 1.874 . S
C521 C10 1.944 . S
C532 N36 0.952 . S
C534 C328 0.957 . S
C545 C280 0.673 . S
C543 N74 0.694 . S
C556 C335 1.380 . S
C554 C100 1.444 . S
C565 C121 1.452 . S
C567 C289 1.384 . S
C578 C331 1.813 . S
C576 C177 1.861 . S
C587 C196 2.263 . S
C589 C295 2.223 . S
C598 C226 1.937 . S
C600 C326 1.907 . S
C609 C27 1.938 . S
C611 C334 1.898 . S
C620 N134 0.953 . S
C622 C321 0.958 . S
C633 C299 0.662 . S
C631 N156 0.697 . S
C644 C327 1.383 . S
C642 C181 1.446 . S
C653 C211 1.942 . S
C655 C294 1.879 . S
C664 C76 1.859 . S
C666 C312 1.815 . S
C677 C303 2.225 . S
C675 C117 2.263 . S
C686 C40 1.448 . S
C688 C296 1.387 . S
C697 N216 0.994 . S
C699 C358 1.030 . S
C708 C147 1.918 . S
C710 C353 1.885 . S
C721 C367 1.365 . S
C719 C151 1.423 . S
C732 C344 0.697 . S
C730 N186 0.697 . S
C741 C46 1.918 . S
C743 C360 1.883 . S
C754 C359 1.370 . S
C752 C70 1.422 . S
C763 N104 0.690 . S
C765 C363 0.690 . S
C774 N14 0.995 . S
C776 C366 1.028 . S
C785 C220 1.942 . S
C787 C392 1.957 . S
C798 C408 1.000 . S
C796 N126 0.949 . S
C807 N164 0.676 . S
C809 C390 0.643 . S
C818 C190 1.465 . S
C820 C423 1.401 . S
C831 C399 1.461 . S
C829 C31 1.463 . S
C840 C87 1.881 . S
C842 C417 1.842 . S
C853 C395 2.250 . S
C851 C106 2.261 . S
C864 C430 1.914 . S
C862 C16 1.953 . S
C875 C422 1.911 . S
C873 C237 1.960 . S
C884 N44 0.954 . S
C886 C427 0.996 . S
C895 N66 0.705 . S
C897 C398 0.646 . S
C908 C431 1.398 . S
C906 C91 1.466 . S
C917 C1 1.939 . S
C919 C385 1.953 . S
C928 C166 1.881 . S
C930 C424 1.841 . S
C941 C376 2.249 . S
C939 C207 2.261 . S
C952 C391 1.460 . S
C950 C130 1.462 . S
