# Generated by pormake.
# Topology pth, (4,4)-cn, num edge types: 1
# Building blocks:
#     Node 0, Type 0, BuildingBlock: UXUYUI_clean_sbu_0, # of connection points: 4
#     Node 1, Type 0, BuildingBlock: UXUYUI_clean_sbu_0, # of connection points: 4
#     Node 2, Type 0, BuildingBlock: UXUYUI_clean_sbu_0, # of connection points: 4
#     Node 3, Type 1, BuildingBlock: NAWXER_clean_sbu_0, # of connection points: 4
#     Node 4, Type 1, BuildingBlock: NAWXER_clean_sbu_0, # of connection points: 4
#     Node 5, Type 1, BuildingBlock: NAWXER_clean_sbu_0, # of connection points: 4
#     Edge 6, Type (0, 1), BuildingBlock: CIFDUS_clean_linker_0, # of connection points: 2
#     Edge 7, Type (0, 1), BuildingBlock: CIFDUS_clean_linker_0, # of connection points: 2
#     Edge 8, Type (0, 1), BuildingBlock: CIFDUS_clean_linker_0, # of connection points: 2
#     Edge 9, Type (0, 1), BuildingBlock: CIFDUS_clean_linker_0, # of connection points: 2
#     Edge 10, Type (0, 1), BuildingBlock: CIFDUS_clean_linker_0, # of connection points: 2
#     Edge 11, Type (0, 1), BuildingBlock: CIFDUS_clean_linker_0, # of connection points: 2
#     Edge 12, Type (0, 1), BuildingBlock: CIFDUS_clean_linker_0, # of connection points: 2
#     Edge 13, Type (0, 1), BuildingBlock: CIFDUS_clean_linker_0, # of connection points: 2
#     Edge 14, Type (0, 1), BuildingBlock: CIFDUS_clean_linker_0, # of connection points: 2
#     Edge 15, Type (0, 1), BuildingBlock: CIFDUS_clean_linker_0, # of connection points: 2
#     Edge 16, Type (0, 1), BuildingBlock: CIFDUS_clean_linker_0, # of connection points: 2
#     Edge 17, Type (0, 1), BuildingBlock: CIFDUS_clean_linker_0, # of connection points: 2
# Relax obj value: 0.086
# Max RMSD: 0.218
# Mean RMSD: 0.120
data_MOF--net-pth--node1-UXUYUI_clean_sbu_0--node2-NAWXER_clean_sbu_0--edge1-CIFDUS_clean_linker_0
_symmetry_space_group_name_H-M    P1
_symmetry_Int_Tables_number       1
_symmetry_cell_setting            triclinic
loop_
_symmetry_equiv_pos_as_xyz
'x, y, z'
_cell_length_a     25.381107
_cell_length_b     25.322642
_cell_length_c     63.308671
_cell_angle_alpha  90.013511
_cell_angle_beta   90.015801
_cell_angle_gamma 120.00285
loop_
_atom_site_label
_atom_site_type_symbol
_atom_site_fract_x
_atom_site_fract_y
_atom_site_fract_z
_atom_type_partial_charge
Li0 Li 0.06058 0.04368 0.07296 0.0
Li1 Li 0.99302 0.03715 0.10125 0.0
Li2 Li 0.02607 0.96062 0.09731 0.0
Li3 Li 0.95263 0.95926 0.07251 0.0
C4 C 0.13537 0.09166 0.10682 0.0
N5 N 0.256 0.18036 0.11188 0.0
C6 C 0.15059 0.14621 0.11721 0.0
C7 C 0.18157 0.08222 0.09908 0.0
C8 C 0.21181 0.19047 0.11961 0.0
C9 C 0.24225 0.12762 0.10176 0.0
C10 C 0.99733 0.10536 0.06351 0.0
C11 C 0.9888 0.16894 0.03693 0.0
N12 N 0.02356 0.21894 0.04903 0.0
C13 C 0.03285 0.15737 0.07568 0.0
C14 C 0.97502 0.11114 0.04398 0.0
C15 C 0.04567 0.21436 0.06809 0.0
C16 C 0.13794 0.08095 0.03672 0.0
N17 N 0.12605 0.10069 0.05515 0.0
C18 C 0.20271 0.20331 0.04746 0.0
C19 C 0.15792 0.16057 0.06073 0.0
C20 C 0.21526 0.18453 0.02821 0.0
C21 C 0.18301 0.12229 0.023 0.0
H22 H 0.11158 0.03329 0.03246 0.0
H23 H 0.14815 0.1757 0.07534 0.0
C24 C 0.99985 0.08799 0.14076 0.0
N25 N 0.97429 0.08143 0.1214 0.0
C26 C 0.99756 0.12765 0.15552 0.0
C27 C 0.93839 0.14949 0.13078 0.0
C28 C 0.94181 0.1092 0.11646 0.0
C29 C 0.96845 0.16073 0.15032 0.0
H30 H 0.02465 0.06462 0.14434 0.0
H31 H 0.92115 0.10249 0.10102 0.0
C32 C 0.04459 0.91357 0.06373 0.0
N33 N 0.0789 0.82602 0.06096 0.0
C34 C 1.00071 0.85169 0.06459 0.0
C35 C 0.10585 0.93091 0.06122 0.0
C36 C 0.01899 0.80812 0.06324 0.0
C37 C 0.1223 0.88596 0.05989 0.0
C38 C 0.88591 0.93216 0.11012 0.0
C39 C 0.85972 0.89458 0.12769 0.0
C40 C 0.85386 0.95565 0.09945 0.0
C41 C 0.80165 0.8808 0.13423 0.0
C42 C 0.79592 0.94083 0.10649 0.0
N43 N 0.77122 0.90401 0.12359 0.0
C44 C 0.09811 0.91412 0.11739 0.0
C45 C 0.99083 0.85179 0.11782 0.0
C46 C 0.10454 0.86936 0.12818 0.0
N47 N 0.04178 0.90447 0.11245 0.0
C48 C 0.99506 0.80628 0.1287 0.0
C49 C 0.05246 0.81438 0.13398 0.0
H50 H 0.13805 0.95618 0.11288 0.0
H51 H 0.94663 0.84496 0.11353 0.0
C52 C 0.87528 0.91939 0.03604 0.0
N53 N 0.88398 0.90455 0.05587 0.0
C54 C 0.82859 0.87584 0.02332 0.0
C55 C 0.80033 0.80318 0.05183 0.0
C56 C 0.84711 0.84807 0.064 0.0
C57 C 0.79133 0.81643 0.03105 0.0
H58 H 0.90595 0.96422 0.02981 0.0
H59 H 0.85551 0.83714 0.0797 0.0
O60 O 0.07562 0.04789 0.10421 0.0
O61 O 0.98383 0.04897 0.0707 0.0
O62 O 0.02772 0.9569 0.06569 0.0
O63 O 0.94289 0.94619 0.10362 0.0
H64 H 0.11562 0.15472 0.12316 0.0
H65 H 0.17071 0.04077 0.09078 0.0
H66 H 0.22419 0.23296 0.12754 0.0
H67 H 0.27841 0.12101 0.09572 0.0
H68 H 0.97181 0.17405 0.02185 0.0
H69 H 0.0509 0.1539 0.09075 0.0
H70 H 0.94725 0.07143 0.03437 0.0
H71 H 0.07331 0.25496 0.07734 0.0
H72 H 0.22693 0.25083 0.05215 0.0
H73 H 0.19101 0.10614 0.00817 0.0
H74 H 0.02025 0.13402 0.17058 0.0
H75 H 0.91545 0.17403 0.12616 0.0
H76 H 0.95316 0.83745 0.06661 0.0
H77 H 0.14039 0.97852 0.06033 0.0
H78 H 0.98556 0.76009 0.06408 0.0
H79 H 0.16958 0.89875 0.05804 0.0
H80 H 0.88405 0.87632 0.13621 0.0
H81 H 0.87336 0.98497 0.08587 0.0
H82 H 0.7808 0.8517 0.14779 0.0
H83 H 0.77061 0.95864 0.09837 0.0
H84 H 0.14973 0.8775 0.13174 0.0
H85 H 0.95348 0.76543 0.13316 0.0
H86 H 0.82362 0.88763 0.00728 0.0
H87 H 0.77242 0.75804 0.05843 0.0
Li88 Li 0.97583 0.946 0.40077 0.0
Li89 Li 0.05388 0.01162 0.42808 0.0
Li90 Li 0.95086 0.99397 0.42936 0.0
Li91 Li 0.01923 0.06082 0.40316 0.0
C92 C 0.94581 0.90073 0.44879 0.0
N93 N 0.87978 0.84105 0.48435 0.0
C94 C 0.97063 0.92097 0.46888 0.0
C95 C 0.88747 0.85013 0.44677 0.0
C96 C 0.9365 0.89018 0.48667 0.0
C97 C 0.85481 0.82057 0.46494 0.0
C98 C 0.11483 0.01565 0.39226 0.0
C99 C 0.224 0.07029 0.3884 0.0
N100 N 0.22239 0.01689 0.38406 0.0
C101 C 0.11421 0.96137 0.3876 0.0
C102 C 0.1701 0.07063 0.39251 0.0
C103 C 0.16908 0.96294 0.38355 0.0
C104 C 0.96178 0.89329 0.36092 0.0
N105 N 0.95184 0.87967 0.38181 0.0
C106 C 0.9182 0.77472 0.37478 0.0
C107 C 0.93 0.82177 0.38895 0.0
C108 C 0.93012 0.78789 0.35318 0.0
C109 C 0.95137 0.8479 0.34625 0.0
H110 H 0.97967 0.93991 0.35576 0.0
H111 H 0.92368 0.81245 0.4057 0.0
C112 C 0.14588 0.0606 0.45987 0.0
N113 N 0.11953 0.01728 0.44461 0.0
C114 C 0.18994 0.06107 0.47325 0.0
C115 C 0.17907 0.97247 0.45492 0.0
C116 C 0.135 0.97349 0.44202 0.0
C117 C 0.20663 0.01613 0.47103 0.0
H118 H 0.13115 0.09348 0.46221 0.0
H119 H 0.11182 0.9382 0.43033 0.0
C120 C 0.87401 0.97738 0.39694 0.0
N121 N 0.75261 0.94344 0.3934 0.0
C122 C 0.85447 0.01824 0.40253 0.0
C123 C 0.8319 0.91941 0.38942 0.0
C124 C 0.79287 1.00014 0.40068 0.0
C125 C 0.7707 0.9031 0.38776 0.0
C126 C 0.05771 0.1333 0.43611 0.0
C127 C 0.02657 0.16327 0.44235 0.0
C128 C 0.11963 0.16738 0.43127 0.0
C129 C 0.05792 0.22689 0.44351 0.0
C130 C 0.14936 0.23092 0.43261 0.0
N131 N 0.11814 0.25912 0.43864 0.0
C132 C 0.90783 0.0202 0.46614 0.0
C133 C 0.82819 0.94059 0.44659 0.0
C134 C 0.86634 0.01967 0.48067 0.0
N135 N 0.88818 0.98262 0.44908 0.0
C136 C 0.78492 0.93845 0.46078 0.0
C137 C 0.80381 0.97954 0.47779 0.0
H138 H 0.9559 0.05122 0.46836 0.0
H139 H 0.81364 0.90929 0.43344 0.0
C140 C 0.08198 0.1469 0.37016 0.0
N141 N 0.04116 0.13144 0.38618 0.0
C142 C 0.09455 0.19611 0.35692 0.0
C143 C 0.02393 0.21325 0.37723 0.0
C144 C 0.01231 0.16352 0.38986 0.0
C145 C 0.06466 0.22956 0.3602 0.0
H146 H 0.10355 0.12002 0.36729 0.0
H147 H 0.9795 0.15003 0.40247 0.0
O148 O 0.9779 0.93134 0.43124 0.0
O149 O 0.06156 0.015 0.39635 0.0
O150 O 0.93413 0.99421 0.39849 0.0
O151 O 0.02765 0.07102 0.43453 0.0
H152 H 0.01547 0.96042 0.47073 0.0
H153 H 0.86714 0.83456 0.43135 0.0
H154 H 0.95502 0.90547 0.50232 0.0
H155 H 0.80945 0.78159 0.46363 0.0
H156 H 0.2671 0.1125 0.38861 0.0
H157 H 0.07198 0.91834 0.38738 0.0
H158 H 0.17142 0.11318 0.39575 0.0
H159 H 0.16929 0.92122 0.38007 0.0
H160 H 0.90263 0.72919 0.38075 0.0
H161 H 0.96094 0.85977 0.32971 0.0
H162 H 0.20885 0.09476 0.48573 0.0
H163 H 0.19064 0.93715 0.45251 0.0
H164 H 0.88626 0.06297 0.40858 0.0
H165 H 0.84623 0.88727 0.38498 0.0
H166 H 0.77703 0.0311 0.40511 0.0
H167 H 0.73757 0.85834 0.38203 0.0
H168 H 0.97845 0.13786 0.44585 0.0
H169 H 0.14444 0.14498 0.4265 0.0
H170 H 0.03429 0.25066 0.44816 0.0
H171 H 0.19724 0.2578 0.42885 0.0
H172 H 0.88306 0.05089 0.49393 0.0
H173 H 0.73718 0.90643 0.45807 0.0
H174 H 0.12563 0.20638 0.34382 0.0
H175 H 1.0005 0.23815 0.38063 0.0
Li176 Li 0.04777 0.99677 0.73871 0.0
Li177 Li 0.04244 0.0655 0.76492 0.0
Li178 Li 0.96534 0.95211 0.76507 0.0
Li179 Li 0.96126 0.01959 0.73808 0.0
C180 C 0.09542 0.97683 0.77574 0.0
N181 N 0.178 0.94103 0.78719 0.0
C182 C 0.15432 0.02027 0.78194 0.0
C183 C 0.07818 0.91508 0.77579 0.0
C184 C 0.19552 1.00131 0.78754 0.0
C185 C 0.12066 0.8979 0.78152 0.0
C186 C 0.08355 0.1356 0.72807 0.0
C187 C 0.09392 0.23508 0.72399 0.0
N188 N 0.15194 0.25724 0.71706 0.0
C189 C 0.14299 0.15918 0.72063 0.0
C190 C 0.05856 0.17367 0.72953 0.0
C191 C 0.17695 0.22085 0.71526 0.0
C192 C 0.08541 0.94987 0.70437 0.0
N193 N 0.10413 0.98634 0.72176 0.0
C194 C 0.20811 0.01927 0.71386 0.0
C195 C 0.1641 0.02052 0.72669 0.0
C196 C 0.19039 0.98297 0.69557 0.0
C197 C 0.128 0.94714 0.69106 0.0
H198 H 0.0376 0.92443 0.70042 0.0
H199 H 0.178 0.05067 0.74017 0.0
C200 C 0.06952 0.14545 0.80014 0.0
N201 N 0.09212 0.13484 0.78216 0.0
C202 C 0.10755 0.19335 0.81361 0.0
C203 C 0.19111 0.21861 0.78973 0.0
C204 C 0.15159 0.17035 0.77678 0.0
C205 C 0.16952 0.2301 0.80862 0.0
H206 H 0.02239 0.11565 0.80435 0.0
H207 H 0.16895 0.15988 0.7628 0.0
C208 C 0.92743 0.88006 0.72886 0.0
N209 N 0.86256 0.75731 0.71903 0.0
C210 C 0.86848 0.85438 0.7207 0.0
C211 C 0.95372 0.84351 0.73166 0.0
C212 C 0.83631 0.79217 0.71594 0.0
C213 C 0.92014 0.78152 0.72669 0.0
C214 C 0.91334 0.04334 0.77398 0.0
C215 C 0.8538 1.00206 0.78025 0.0
C216 C 0.93248 0.10548 0.77294 0.0
C217 C 0.81393 0.02349 0.78482 0.0
C218 C 0.89129 0.12516 0.77766 0.0
N219 N 0.83332 0.08408 0.78341 0.0
C220 C 0.93293 0.87047 0.80037 0.0
C221 C 0.85398 0.85157 0.77625 0.0
C222 C 0.89161 0.8239 0.81365 0.0
N223 N 0.91333 0.88359 0.78216 0.0
C224 C 0.81132 0.80487 0.78898 0.0
C225 C 0.82963 0.79134 0.8082 0.0
H226 H 0.98014 0.89757 0.80497 0.0
H227 H 0.83923 0.86405 0.76205 0.0
C228 C 0.92235 0.06498 0.70338 0.0
N229 N 0.90464 0.0282 0.72068 0.0
C230 C 0.87882 0.06595 0.69005 0.0
C231 C 0.79998 0.99148 0.71267 0.0
C232 C 0.84486 0.99199 0.7255 0.0
C233 C 0.81662 0.02806 0.69447 0.0
H234 H 0.97011 0.09213 0.69955 0.0
H235 H 0.83192 0.9618 0.73895 0.0
O236 O 0.05448 0.99464 0.77021 0.0
O237 O 0.04977 0.07533 0.7335 0.0
O238 O 0.95944 0.94085 0.73375 0.0
O239 O 0.95296 0.02309 0.76938 0.0
H240 H 0.16826 0.06818 0.78227 0.0
H241 H 0.03232 0.88066 0.77171 0.0
H242 H 0.2414 0.03452 0.79219 0.0
H243 H 0.10794 0.85026 0.78156 0.0
H244 H 0.07514 0.26505 0.7251 0.0
H245 H 0.16289 0.1303 0.71913 0.0
H246 H 0.01211 0.15588 0.73462 0.0
H247 H 0.22316 0.23978 0.70964 0.0
H248 H 0.25566 0.04745 0.718 0.0
H249 H 0.11241 0.91933 0.67693 0.0
H250 H 0.08919 0.19992 0.82817 0.0
H251 H 0.23842 0.24593 0.78518 0.0
H252 H 0.84762 0.88206 0.71818 0.0
H253 H 0.99983 0.86292 0.73735 0.0
H254 H 0.7905 0.77163 0.70977 0.0
H255 H 0.93994 0.7527 0.72884 0.0
H256 H 0.83836 0.95391 0.78144 0.0
H257 H 0.97882 0.1383 0.76879 0.0
H258 H 0.76759 0.99195 0.78951 0.0
H259 H 0.90551 0.17313 0.77684 0.0
H260 H 0.90747 0.81549 0.82847 0.0
H261 H 0.76409 0.7807 0.78409 0.0
H262 H 0.89361 0.0941 0.67601 0.0
H263 H 0.75262 0.96182 0.71676 0.0
C264 C 0.97147 0.57071 0.27162 0.0
C265 C 0.95952 0.41538 0.22263 0.0
O266 O 0.02316 0.57557 0.26753 0.0
Zn267 Zn 0.05972 0.53013 0.24953 0.0
O268 O 0.92338 0.52709 0.26362 0.0
Zn269 Zn 0.96295 0.49141 0.24729 0.0
O270 O 0.99303 0.4531 0.2712 0.0
O271 O 0.09327 0.49975 0.27087 0.0
O272 O 0.91537 0.42133 0.22919 0.0
O273 O 0.0137 0.45279 0.22898 0.0
O274 O 0.11333 0.59513 0.23051 0.0
O275 O 0.01564 0.56137 0.22472 0.0
C276 C 0.04282 0.45937 0.27863 0.0
C277 C 0.07167 0.59729 0.22002 0.0
C278 C 0.59181 0.04878 0.61054 0.0
C279 C 0.45443 0.04507 0.55557 0.0
O280 O 0.5509 0.99469 0.60519 0.0
Zn281 Zn 0.47565 0.95129 0.58365 0.0
O282 O 0.59277 0.09439 0.60173 0.0
Zn283 Zn 0.52377 0.04862 0.58317 0.0
O284 O 0.44893 0.00741 0.60484 0.0
O285 O 0.4067 0.90745 0.6024 0.0
O286 O 0.49897 0.09173 0.56392 0.0
O287 O 0.44205 0.99172 0.5616 0.0
O288 O 0.50092 0.9063 0.5654 0.0
O289 O 0.55783 0.00613 0.56226 0.0
C290 C 0.40805 0.95387 0.61069 0.0
C291 C 0.54582 0.95237 0.55694 0.0
C292 C 0.46999 0.40453 0.94598 0.0
C293 C 0.61262 0.54432 0.89322 0.0
O294 O 0.45693 0.4446 0.9395 0.0
Zn295 Zn 0.49088 0.51905 0.9177 0.0
O296 O 0.51665 0.40454 0.93865 0.0
Zn297 Zn 0.54288 0.47376 0.91978 0.0
O298 O 0.56981 0.54874 0.94108 0.0
O299 O 0.5111 0.58875 0.93575 0.0
O300 O 0.61559 0.50146 0.90261 0.0
O301 O 0.56892 0.55417 0.89755 0.0
O302 O 0.42413 0.49079 0.89761 0.0
O303 O 0.47206 0.43827 0.89653 0.0
C304 C 0.5549 0.58892 0.94558 0.0
C305 C 0.43014 0.44798 0.88964 0.0
H306 H 0.88098 0.18879 0.16185 0.0
H307 H 0.07099 0.24575 0.16996 0.0
H308 H 0.0844 0.32901 0.1927 0.0
H309 H 0.04326 0.38579 0.21021 0.0
H310 H 0.8536 0.33096 0.20297 0.0
H311 H 0.83913 0.24708 0.17981 0.0
C312 C 0.92526 0.21958 0.16858 0.0
C313 C 0.97473 0.21056 0.16438 0.0
C314 C 0.93283 0.26782 0.18172 0.0
C315 C 0.03184 0.25076 0.17327 0.0
C316 C 0.03972 0.29874 0.18616 0.0
C317 C 0.99864 0.35574 0.20356 0.0
C318 C 0.94963 0.36487 0.2083 0.0
C319 C 0.99063 0.30763 0.1905 0.0
C320 C 0.89216 0.32505 0.19958 0.0
C321 C 0.88387 0.27706 0.18635 0.0
H322 H 0.70085 0.88555 0.49541 0.0
H323 H 0.80584 0.08197 0.49166 0.0
H324 H 0.73479 0.09025 0.51535 0.0
H325 H 0.64447 0.0427 0.53742 0.0
H326 H 0.53783 0.84656 0.54187 0.0
H327 H 0.60752 0.83722 0.51739 0.0
C328 C 0.70782 0.93007 0.49969 0.0
C329 C 0.75897 0.98307 0.49193 0.0
C330 C 0.66655 0.93461 0.51338 0.0
C331 C 0.76757 0.04048 0.49771 0.0
C332 C 0.72675 0.0453 0.51115 0.0
C333 C 0.6361 0.99773 0.53304 0.0
C334 C 0.58594 0.94541 0.54153 0.0
C335 C 0.67638 0.99277 0.51917 0.0
C336 C 0.57607 0.88763 0.53559 0.0
C337 C 0.61597 0.88228 0.52161 0.0
H338 H 0.83373 0.70242 0.83171 0.0
H339 H 0.72168 0.78236 0.81849 0.0
H340 H 0.64482 0.71207 0.84301 0.0
H341 H 0.60985 0.62979 0.86852 0.0
H342 H 0.71984 0.54823 0.88264 0.0
H343 H 0.7971 0.61733 0.85748 0.0
C344 C 0.79253 0.70442 0.83428 0.0
C345 C 0.78332 0.74731 0.82313 0.0
C346 C 0.7482 0.66371 0.84855 0.0
C347 C 0.72951 0.74914 0.82653 0.0
C348 C 0.68563 0.70921 0.84067 0.0
C349 C 0.65064 0.62686 0.86615 0.0
C350 C 0.65907 0.58396 0.87754 0.0
C351 C 0.69454 0.66648 0.85176 0.0
C352 C 0.71215 0.58079 0.87409 0.0
C353 C 0.75638 0.62039 0.85973 0.0
H354 H 0.13316 0.82789 0.16532 0.0
H355 H 0.98206 0.69098 0.12914 0.0
H356 H 0.97793 0.61135 0.15174 0.0
H357 H 0.01031 0.58134 0.18378 0.0
H358 H 0.16433 0.71573 0.21914 0.0
H359 H 0.17539 0.79547 0.19449 0.0
C360 C 0.10019 0.78059 0.16205 0.0
C361 C 0.05685 0.76586 0.14585 0.0
C362 C 0.0985 0.73454 0.17499 0.0
C363 C 0.0146 0.70407 0.14192 0.0
C364 C 0.01242 0.6583 0.15475 0.0
C365 C 0.04695 0.62798 0.18585 0.0
C366 C 0.08611 0.64298 0.20327 0.0
C367 C 0.05295 0.67318 0.17167 0.0
C368 C 0.13382 0.70324 0.20574 0.0
C369 C 0.13979 0.74882 0.19176 0.0
H370 H 0.31064 0.10971 0.48828 0.0
H371 H 0.19801 0.91348 0.48837 0.0
H372 H 0.26574 0.90565 0.51375 0.0
H373 H 0.35482 0.95378 0.5366 0.0
H374 H 0.46688 0.1499 0.5379 0.0
H375 H 0.40098 0.15841 0.5115 0.0
C376 C 0.30075 0.06527 0.49394 0.0
C377 C 0.24937 0.01227 0.48624 0.0
C378 C 0.33958 0.061 0.50886 0.0
C379 C 0.23774 0.95502 0.49362 0.0
C380 C 0.27621 0.95045 0.5083 0.0
C381 C 0.36513 0.99853 0.53112 0.0
C382 C 0.4158 0.05112 0.53927 0.0
C383 C 0.32704 1.00307 0.51608 0.0
C384 C 0.42819 0.10862 0.53193 0.0
C385 C 0.39049 0.11352 0.51683 0.0
H386 H 0.28213 0.25292 0.81955 0.0
H387 H 0.15271 0.31234 0.8318 0.0
H388 H 0.22268 0.38706 0.85744 0.0
H389 H 0.32031 0.43378 0.87703 0.0
H390 H 0.44771 0.37168 0.86437 0.0
H391 H 0.37935 0.30076 0.83799 0.0
C392 C 0.26951 0.28285 0.82755 0.0
C393 C 0.21239 0.27723 0.82365 0.0
C394 C 0.30971 0.32536 0.84223 0.0
C395 C 0.19627 0.31543 0.8346 0.0
C396 C 0.23636 0.35833 0.84919 0.0
C397 C 0.33323 0.40508 0.86836 0.0
C398 C 0.38905 0.40804 0.87276 0.0
C399 C 0.29316 0.36348 0.85325 0.0
C400 C 0.40494 0.37021 0.86145 0.0
C401 C 0.36587 0.32954 0.84631 0.0
H402 H 0.81103 0.12017 0.67376 0.0
H403 H 0.7158 0.92455 0.6814 0.0
H404 H 0.63754 0.91447 0.65682 0.0
H405 H 0.59697 0.96014 0.63271 0.0
H406 H 0.69107 0.15536 0.62415 0.0
H407 H 0.76898 0.16656 0.64948 0.0
C408 C 0.77324 0.07539 0.66996 0.0
C409 C 0.76916 0.02325 0.67955 0.0
C410 C 0.72822 0.06977 0.65566 0.0
C411 C 0.7196 0.96554 0.67458 0.0
C412 C 0.67495 0.95964 0.6604 0.0
C413 C 0.63437 0.0053 0.63637 0.0
C414 C 0.63814 0.05681 0.62647 0.0
C415 C 0.67887 0.01134 0.65083 0.0
C416 C 0.68696 0.11489 0.63152 0.0
C417 C 0.73161 0.12131 0.64598 0.0
H418 H 0.70744 0.8186 1.00437 0.0
H419 H 0.77673 0.70347 0.02616 0.0
H420 H 0.70788 0.62248 1.00241 0.0
H421 H 0.63115 0.58552 0.97461 0.0
H422 H 0.55948 0.6983 0.95256 0.0
H423 H 0.62574 0.77884 0.97731 0.0
C424 C 0.70726 0.7757 1.00388 0.0
C425 C 0.74707 0.76704 0.01704 0.0
C426 C 0.66722 0.72896 0.99016 0.0
C427 C 0.74606 0.71105 0.01641 0.0
C428 C 0.70693 0.66479 1.00274 0.0
C429 C 0.62974 0.62761 0.97524 0.0
C430 C 0.59073 0.63603 0.96164 0.0
C431 C 0.66771 0.67341 0.98946 0.0
C432 C 0.58905 0.6906 0.96287 0.0
C433 C 0.62712 0.73677 0.97695 0.0
H434 H 0.01488 0.79848 0.32521 0.0
H435 H 0.83539 0.67104 0.34807 0.0
H436 H 0.8303 0.59259 0.32401 0.0
H437 H 0.87888 0.55976 0.29697 0.0
H438 H 0.06105 0.68766 0.27616 0.0
H439 H 0.06286 0.76641 0.29869 0.0
C440 C 0.97434 0.75374 0.32473 0.0
C441 C 0.92539 0.74064 0.33821 0.0
C442 C 0.97232 0.70888 0.31123 0.0
C443 C 0.87367 0.68208 0.3378 0.0
C444 C 0.87074 0.63734 0.32404 0.0
C445 C 0.91867 0.60501 0.29731 0.0
C446 C 0.96975 0.61781 0.28493 0.0
C447 C 0.92002 0.65009 0.31075 0.0
C448 C 0.0213 0.67647 0.28565 0.0
C449 C 0.0224 0.72166 0.29851 0.0
H450 H 0.19203 0.88911 0.67463 0.0
H451 H 0.29323 0.0846 0.68261 0.0
H452 H 0.36967 0.09209 0.65768 0.0
H453 H 0.40687 0.04422 0.63311 0.0
H454 H 0.307 0.84904 0.62436 0.0
H455 H 0.23088 0.84042 0.65003 0.0
C456 C 0.23075 0.9333 0.67084 0.0
C457 C 0.237 0.98616 0.68059 0.0
C458 C 0.27471 0.93741 0.65634 0.0
C459 C 0.28774 0.04306 0.67564 0.0
C460 C 0.33133 0.04749 0.66126 0.0
C461 C 0.36855 0.99964 0.63678 0.0
C462 C 0.36262 0.94739 0.62673 0.0
C463 C 0.32517 0.99507 0.65148 0.0
C464 C 0.31274 0.89005 0.63185 0.0
C465 C 0.26913 0.88511 0.6465 0.0
H466 H 0.30819 0.18283 0.00689 0.0
H467 H 0.2204 0.28952 0.016 0.0
H468 H 0.29218 0.36708 0.99183 0.0
H469 H 0.37879 0.40437 0.96804 0.0
H470 H 0.46927 0.30027 0.95873 0.0
H471 H 0.39778 0.22207 0.98314 0.0
C472 C 0.30482 0.223 1.00347 0.0
C473 C 0.25919 0.23056 0.01324 0.0
C474 C 0.34675 0.26789 0.98962 0.0
C475 C 0.25553 0.28302 0.00885 0.0
C476 C 0.29641 0.32728 0.99498 0.0
C477 C 0.38312 0.36465 0.97132 0.0
C478 C 0.42924 0.35814 0.96149 0.0
C479 C 0.34214 0.32022 0.98531 0.0
C480 C 0.43426 0.30652 0.96611 0.0
C481 C 0.39326 0.26169 0.98 0.0
H482 H 0.97764 0.25288 0.34587 0.0
H483 H 0.16966 0.31619 0.34071 0.0
H484 H 0.18089 0.39448 0.31549 0.0
H485 H 0.1351 0.44373 0.29433 0.0
H486 H 0.94286 0.37928 0.3007 0.0
H487 H 0.93342 0.30392 0.32641 0.0
C488 C 0.0223 0.28443 0.33959 0.0
C489 C 0.07273 0.27867 0.34532 0.0
C490 C 0.02848 0.32942 0.3253 0.0
C491 C 0.12986 0.3191 0.33646 0.0
C492 C 0.13639 0.36414 0.32212 0.0
C493 C 0.09133 0.41357 0.3015 0.0
C494 C 0.0398 0.41722 0.29547 0.0
C495 C 0.08589 0.36959 0.31633 0.0
C496 C 0.98334 0.37752 0.30489 0.0
C497 C 0.97774 0.33421 0.31963 0.0
loop_
_geom_bond_atom_site_label_1
_geom_bond_atom_site_label_2
_geom_bond_distance
_geom_bond_site_symmetry_2
_ccdc_geom_bond_type
Li0 N17 1.990 . S
Li0 O60 1.956 . S
Li0 O61 1.970 1_455 S
Li0 O62 1.961 1_545 S
Li1 N25 1.990 . S
Li1 O60 1.970 1_655 S
Li1 O61 1.956 . S
Li1 O63 1.961 1_545 S
Li2 N47 1.990 . S
Li2 O60 1.961 1_565 S
Li2 O62 1.956 . S
Li2 O63 1.970 1_455 S
Li3 N53 1.990 . S
Li3 O61 1.961 1_565 S
Li3 O62 1.970 1_655 S
Li3 O63 1.956 . S
C4 C6 1.348 . S
C4 C7 1.356 . S
C4 O60 1.325 . S
N5 C8 1.314 . S
N5 C9 1.279 . S
C6 C4 1.348 . S
C6 C8 1.353 . S
C6 H64 0.929 . S
C7 C4 1.356 . S
C7 C9 1.358 . S
C7 H65 0.930 . S
C8 N5 1.314 . S
C8 C6 1.353 . S
C8 H66 0.930 . S
C9 N5 1.279 . S
C9 C7 1.358 . S
C9 H67 0.930 . S
C10 C13 1.348 1_655 S
C10 C14 1.356 . S
C10 O61 1.325 . S
C11 N12 1.279 . S
C11 C14 1.358 . S
C11 H68 0.930 . S
N12 C11 1.279 . S
N12 C15 1.314 . S
C13 C10 1.348 1_455 S
C13 C15 1.353 1_455 S
C13 H69 0.929 . S
C14 C10 1.356 . S
C14 C11 1.358 . S
C14 H70 0.930 . S
C15 N12 1.314 . S
C15 C13 1.353 1_655 S
C15 H71 0.930 1_655 S
C16 N17 1.314 . S
C16 C21 1.353 . S
C16 H22 0.930 . S
N17 Li0 1.990 . S
N17 C16 1.314 . S
N17 C19 1.279 . S
C18 C19 1.358 . S
C18 C20 1.356 . S
C18 H72 0.930 . S
C19 N17 1.279 . S
C19 C18 1.358 . S
C19 H23 0.930 . S
C20 C18 1.356 . S
C20 C21 1.348 . S
C21 C16 1.353 . S
C21 C20 1.348 . S
C21 H73 0.927 . S
H22 C16 0.930 . S
H23 C19 0.930 . S
C24 N25 1.314 . S
C24 C26 1.353 . S
C24 H30 0.930 . S
N25 Li1 1.990 . S
N25 C24 1.314 . S
N25 C28 1.279 . S
C26 C24 1.353 . S
C26 C29 1.348 . S
C26 H74 0.929 . S
C27 C28 1.358 . S
C27 C29 1.356 . S
C27 H75 0.930 . S
C28 N25 1.279 . S
C28 C27 1.358 . S
C28 H31 0.930 . S
C29 C26 1.348 . S
C29 C27 1.356 . S
H30 C24 0.930 . S
H31 C28 0.930 . S
C32 C34 1.348 1_455 S
C32 C35 1.356 . S
C32 O62 1.325 . S
N33 C36 1.314 . S
N33 C37 1.279 . S
C34 C32 1.348 1_655 S
C34 C36 1.353 1_655 S
C34 H76 0.929 . S
C35 C32 1.356 . S
C35 C37 1.358 . S
C35 H77 0.930 . S
C36 N33 1.314 . S
C36 C34 1.353 1_455 S
C36 H78 0.930 1_455 S
C37 N33 1.279 . S
C37 C35 1.358 . S
C37 H79 0.930 . S
C38 C39 1.348 . S
C38 C40 1.356 . S
C38 O63 1.325 . S
C39 C38 1.348 . S
C39 C41 1.353 . S
C39 H80 0.929 . S
C40 C38 1.356 . S
C40 C42 1.358 . S
C40 H81 0.930 . S
C41 C39 1.353 . S
C41 N43 1.314 . S
C41 H82 0.930 . S
C42 C40 1.358 . S
C42 N43 1.279 . S
C42 H83 0.930 . S
N43 C41 1.314 . S
N43 C42 1.279 . S
C44 C46 1.353 . S
C44 N47 1.314 . S
C44 H50 0.930 . S
C45 N47 1.279 . S
C45 C48 1.358 . S
C45 H51 0.930 . S
C46 C44 1.353 . S
C46 C49 1.348 . S
C46 H84 0.929 . S
N47 Li2 1.990 . S
N47 C44 1.314 . S
N47 C45 1.279 . S
C48 C45 1.358 . S
C48 C49 1.356 . S
C48 H85 0.930 . S
C49 C46 1.348 . S
C49 C48 1.356 . S
H50 C44 0.930 . S
H51 C45 0.930 . S
C52 N53 1.314 . S
C52 C54 1.353 . S
C52 H58 0.930 . S
N53 Li3 1.990 . S
N53 C52 1.314 . S
N53 C56 1.279 . S
C54 C52 1.353 . S
C54 C57 1.348 . S
C54 H86 0.927 . S
C55 C56 1.358 . S
C55 C57 1.356 . S
C55 H87 0.930 . S
C56 N53 1.279 . S
C56 C55 1.358 . S
C56 H59 0.930 . S
C57 C54 1.348 . S
C57 C55 1.356 . S
H58 C52 0.930 . S
H59 C56 0.930 . S
O60 Li0 1.956 . S
O60 Li1 1.970 1_455 S
O60 Li2 1.961 1_545 S
O60 C4 1.325 . S
O61 Li0 1.970 1_655 S
O61 Li1 1.956 . S
O61 Li3 1.961 1_545 S
O61 C10 1.325 . S
O62 Li0 1.961 1_565 S
O62 Li2 1.956 . S
O62 Li3 1.970 1_455 S
O62 C32 1.325 . S
O63 Li1 1.961 1_565 S
O63 Li2 1.970 1_655 S
O63 Li3 1.956 . S
O63 C38 1.325 . S
H64 C6 0.929 . S
H65 C7 0.930 . S
H66 C8 0.930 . S
H67 C9 0.930 . S
H68 C11 0.930 . S
H69 C13 0.929 . S
H70 C14 0.930 . S
H71 C15 0.930 1_455 S
H72 C18 0.930 . S
H73 C21 0.927 . S
H74 C26 0.929 . S
H75 C27 0.930 . S
H76 C34 0.929 . S
H77 C35 0.930 . S
H78 C36 0.930 1_655 S
H79 C37 0.930 . S
H80 C39 0.929 . S
H81 C40 0.930 . S
H82 C41 0.930 . S
H83 C42 0.930 . S
H84 C46 0.929 . S
H85 C48 0.930 . S
H86 C54 0.927 . S
H87 C55 0.930 . S
Li88 N105 1.990 . S
Li88 O148 1.956 . S
Li88 O149 1.970 1_665 S
Li88 O150 1.961 . S
Li89 N113 1.990 . S
Li89 O148 1.970 1_445 S
Li89 O149 1.956 . S
Li89 O151 1.961 . S
Li90 N135 1.990 . S
Li90 O148 1.961 . S
Li90 O150 1.956 . S
Li90 O151 1.970 1_665 S
Li91 N141 1.990 . S
Li91 O149 1.961 . S
Li91 O150 1.970 1_445 S
Li91 O151 1.956 . S
C92 C94 1.348 1_655 S
C92 C95 1.356 . S
C92 O148 1.325 . S
N93 C96 1.314 . S
N93 C97 1.279 . S
C94 C92 1.348 1_455 S
C94 C96 1.353 1_455 S
C94 H152 0.929 . S
C95 C92 1.356 . S
C95 C97 1.358 . S
C95 H153 0.930 . S
C96 N93 1.314 . S
C96 C94 1.353 1_655 S
C96 H154 0.930 1_655 S
C97 N93 1.279 . S
C97 C95 1.358 . S
C97 H155 0.930 . S
C98 C101 1.348 1_545 S
C98 C102 1.356 . S
C98 O149 1.325 . S
C99 N100 1.279 . S
C99 C102 1.358 . S
C99 H156 0.930 . S
N100 C99 1.279 . S
N100 C103 1.314 . S
C101 C98 1.348 1_565 S
C101 C103 1.353 1_565 S
C101 H157 0.929 . S
C102 C98 1.356 . S
C102 C99 1.358 . S
C102 H158 0.930 . S
C103 N100 1.314 . S
C103 C101 1.353 1_545 S
C103 H159 0.930 1_545 S
C104 N105 1.314 . S
C104 C109 1.353 . S
C104 H110 0.930 . S
N105 Li88 1.990 . S
N105 C104 1.314 . S
N105 C107 1.279 . S
C106 C107 1.358 . S
C106 C108 1.356 . S
C106 H160 0.930 . S
C107 N105 1.279 . S
C107 C106 1.358 . S
C107 H111 0.930 . S
C108 C106 1.356 . S
C108 C109 1.348 . S
C109 C104 1.353 . S
C109 C108 1.348 . S
C109 H161 0.929 . S
H110 C104 0.930 . S
H111 C107 0.930 . S
C112 N113 1.314 . S
C112 C114 1.353 . S
C112 H118 0.930 . S
N113 Li89 1.990 . S
N113 C112 1.314 . S
N113 C116 1.279 . S
C114 C112 1.353 . S
C114 C117 1.348 . S
C114 H162 0.929 . S
C115 C116 1.358 . S
C115 C117 1.356 . S
C115 H163 0.930 . S
C116 N113 1.279 . S
C116 C115 1.358 . S
C116 H119 0.930 . S
C117 C114 1.348 . S
C117 C115 1.356 . S
H118 C112 0.930 . S
H119 C116 0.930 . S
C120 C122 1.348 1_565 S
C120 C123 1.356 . S
C120 O150 1.325 . S
N121 C124 1.314 . S
N121 C125 1.279 . S
C122 C120 1.348 1_545 S
C122 C124 1.353 1_545 S
C122 H164 0.929 . S
C123 C120 1.356 . S
C123 C125 1.358 . S
C123 H165 0.930 . S
C124 N121 1.314 . S
C124 C122 1.353 1_565 S
C124 H166 0.930 1_565 S
C125 N121 1.279 . S
C125 C123 1.358 . S
C125 H167 0.930 . S
C126 C127 1.348 1_455 S
C126 C128 1.356 . S
C126 O151 1.325 . S
C127 C126 1.348 1_655 S
C127 C129 1.353 1_655 S
C127 H168 0.929 . S
C128 C126 1.356 . S
C128 C130 1.358 . S
C128 H169 0.930 . S
C129 C127 1.353 1_455 S
C129 N131 1.314 . S
C129 H170 0.930 1_455 S
C130 C128 1.358 . S
C130 N131 1.279 . S
C130 H171 0.930 . S
N131 C129 1.314 . S
N131 C130 1.279 . S
C132 C134 1.353 . S
C132 N135 1.314 . S
C132 H138 0.930 . S
C133 N135 1.279 . S
C133 C136 1.358 . S
C133 H139 0.930 . S
C134 C132 1.353 . S
C134 C137 1.348 . S
C134 H172 0.929 . S
N135 Li90 1.990 . S
N135 C132 1.314 . S
N135 C133 1.279 . S
C136 C133 1.358 . S
C136 C137 1.356 . S
C136 H173 0.930 . S
C137 C134 1.348 . S
C137 C136 1.356 . S
H138 C132 0.930 . S
H139 C133 0.930 . S
C140 N141 1.314 . S
C140 C142 1.353 . S
C140 H146 0.930 . S
N141 Li91 1.990 . S
N141 C140 1.314 . S
N141 C144 1.279 . S
C142 C140 1.353 . S
C142 C145 1.348 . S
C142 H174 0.929 . S
C143 C144 1.358 . S
C143 C145 1.356 . S
C143 H175 0.930 . S
C144 N141 1.279 . S
C144 C143 1.358 . S
C144 H147 0.930 . S
C145 C142 1.348 . S
C145 C143 1.356 . S
H146 C140 0.930 . S
H147 C144 0.930 . S
O148 Li88 1.956 . S
O148 Li89 1.970 1_665 S
O148 Li90 1.961 . S
O148 C92 1.325 . S
O149 Li88 1.970 1_445 S
O149 Li89 1.956 . S
O149 Li91 1.961 . S
O149 C98 1.325 . S
O150 Li88 1.961 . S
O150 Li90 1.956 . S
O150 Li91 1.970 1_665 S
O150 C120 1.325 . S
O151 Li89 1.961 . S
O151 Li90 1.970 1_445 S
O151 Li91 1.956 . S
O151 C126 1.325 . S
H152 C94 0.929 . S
H153 C95 0.930 . S
H154 C96 0.930 1_455 S
H155 C97 0.930 . S
H156 C99 0.930 . S
H157 C101 0.929 . S
H158 C102 0.930 . S
H159 C103 0.930 1_565 S
H160 C106 0.930 . S
H161 C109 0.929 . S
H162 C114 0.929 . S
H163 C115 0.930 . S
H164 C122 0.929 . S
H165 C123 0.930 . S
H166 C124 0.930 1_545 S
H167 C125 0.930 . S
H168 C127 0.929 . S
H169 C128 0.930 . S
H170 C129 0.930 1_655 S
H171 C130 0.930 . S
H172 C134 0.929 . S
H173 C136 0.930 . S
H174 C142 0.929 . S
H175 C143 0.930 . S
Li176 N193 1.990 . S
Li176 O236 1.956 . S
Li176 O237 1.970 1_565 S
Li176 O238 1.961 1_455 S
Li177 N201 1.990 . S
Li177 O236 1.970 1_545 S
Li177 O237 1.956 . S
Li177 O239 1.961 1_455 S
Li178 N223 1.990 . S
Li178 O236 1.961 1_655 S
Li178 O238 1.956 . S
Li178 O239 1.970 1_565 S
Li179 N229 1.990 . S
Li179 O237 1.961 1_655 S
Li179 O238 1.970 1_545 S
Li179 O239 1.956 . S
C180 C182 1.348 1_565 S
C180 C183 1.356 . S
C180 O236 1.325 . S
N181 C184 1.314 . S
N181 C185 1.279 . S
C182 C180 1.348 1_545 S
C182 C184 1.353 1_545 S
C182 H240 0.929 . S
C183 C180 1.356 . S
C183 C185 1.358 . S
C183 H241 0.930 . S
C184 N181 1.314 . S
C184 C182 1.353 1_565 S
C184 H242 0.930 1_565 S
C185 N181 1.279 . S
C185 C183 1.358 . S
C185 H243 0.930 . S
C186 C189 1.348 . S
C186 C190 1.356 . S
C186 O237 1.325 . S
C187 N188 1.279 . S
C187 C190 1.358 . S
C187 H244 0.930 . S
N188 C187 1.279 . S
N188 C191 1.314 . S
C189 C186 1.348 . S
C189 C191 1.353 . S
C189 H245 0.929 . S
C190 C186 1.356 . S
C190 C187 1.358 . S
C190 H246 0.930 . S
C191 N188 1.314 . S
C191 C189 1.353 . S
C191 H247 0.930 . S
C192 N193 1.314 . S
C192 C197 1.353 . S
C192 H198 0.930 . S
N193 Li176 1.990 . S
N193 C192 1.314 . S
N193 C195 1.279 . S
C194 C195 1.358 . S
C194 C196 1.356 . S
C194 H248 0.930 . S
C195 N193 1.279 . S
C195 C194 1.358 . S
C195 H199 0.930 . S
C196 C194 1.356 . S
C196 C197 1.348 . S
C197 C192 1.353 . S
C197 C196 1.348 . S
C197 H249 0.929 . S
H198 C192 0.930 . S
H199 C195 0.930 . S
C200 N201 1.314 . S
C200 C202 1.353 . S
C200 H206 0.930 . S
N201 Li177 1.990 . S
N201 C200 1.314 . S
N201 C204 1.279 . S
C202 C200 1.353 . S
C202 C205 1.348 . S
C202 H250 0.929 . S
C203 C204 1.358 . S
C203 C205 1.356 . S
C203 H251 0.930 . S
C204 N201 1.279 . S
C204 C203 1.358 . S
C204 H207 0.930 . S
C205 C202 1.348 . S
C205 C203 1.356 . S
H206 C200 0.930 . S
H207 C204 0.930 . S
C208 C210 1.348 . S
C208 C211 1.356 . S
C208 O238 1.325 . S
N209 C212 1.314 . S
N209 C213 1.279 . S
C210 C208 1.348 . S
C210 C212 1.353 . S
C210 H252 0.929 . S
C211 C208 1.356 . S
C211 C213 1.358 . S
C211 H253 0.930 . S
C212 N209 1.314 . S
C212 C210 1.353 . S
C212 H254 0.930 . S
C213 N209 1.279 . S
C213 C211 1.358 . S
C213 H255 0.930 . S
C214 C215 1.348 1_545 S
C214 C216 1.356 . S
C214 O239 1.325 . S
C215 C214 1.348 1_565 S
C215 C217 1.353 1_565 S
C215 H256 0.929 . S
C216 C214 1.356 . S
C216 C218 1.358 . S
C216 H257 0.930 . S
C217 C215 1.353 1_545 S
C217 N219 1.314 . S
C217 H258 0.930 1_545 S
C218 C216 1.358 . S
C218 N219 1.279 . S
C218 H259 0.930 . S
N219 C217 1.314 . S
N219 C218 1.279 . S
C220 C222 1.353 . S
C220 N223 1.314 . S
C220 H226 0.930 . S
C221 N223 1.279 . S
C221 C224 1.358 . S
C221 H227 0.930 . S
C222 C220 1.353 . S
C222 C225 1.348 . S
C222 H260 0.929 . S
N223 Li178 1.990 . S
N223 C220 1.314 . S
N223 C221 1.279 . S
C224 C221 1.358 . S
C224 C225 1.356 . S
C224 H261 0.930 . S
C225 C222 1.348 . S
C225 C224 1.356 . S
H226 C220 0.930 . S
H227 C221 0.930 . S
C228 N229 1.314 . S
C228 C230 1.353 . S
C228 H234 0.930 . S
N229 Li179 1.990 . S
N229 C228 1.314 . S
N229 C232 1.279 . S
C230 C228 1.353 . S
C230 C233 1.348 . S
C230 H262 0.929 . S
C231 C232 1.358 . S
C231 C233 1.356 . S
C231 H263 0.930 . S
C232 N229 1.279 . S
C232 C231 1.358 . S
C232 H235 0.930 . S
C233 C230 1.348 . S
C233 C231 1.356 . S
H234 C228 0.930 . S
H235 C232 0.930 . S
O236 Li176 1.956 . S
O236 Li177 1.970 1_565 S
O236 Li178 1.961 1_455 S
O236 C180 1.325 . S
O237 Li176 1.970 1_545 S
O237 Li177 1.956 . S
O237 Li179 1.961 1_455 S
O237 C186 1.325 . S
O238 Li176 1.961 1_655 S
O238 Li178 1.956 . S
O238 Li179 1.970 1_565 S
O238 C208 1.325 . S
O239 Li177 1.961 1_655 S
O239 Li178 1.970 1_545 S
O239 Li179 1.956 . S
O239 C214 1.325 . S
H240 C182 0.929 . S
H241 C183 0.930 . S
H242 C184 0.930 1_545 S
H243 C185 0.930 . S
H244 C187 0.930 . S
H245 C189 0.929 . S
H246 C190 0.930 . S
H247 C191 0.930 . S
H248 C194 0.930 . S
H249 C197 0.929 . S
H250 C202 0.929 . S
H251 C203 0.930 . S
H252 C210 0.929 . S
H253 C211 0.930 . S
H254 C212 0.930 . S
H255 C213 0.930 . S
H256 C215 0.929 . S
H257 C216 0.930 . S
H258 C217 0.930 1_565 S
H259 C218 0.930 . S
H260 C222 0.929 . S
H261 C224 0.930 . S
H262 C230 0.929 . S
H263 C231 0.930 . S
C264 O266 1.252 . S
C264 O268 1.255 1_455 S
C265 O272 1.247 . S
C265 O273 1.258 1_655 S
O266 C264 1.252 . S
O266 Zn267 2.028 . S
Zn267 O266 2.028 . S
Zn267 O271 2.035 . S
Zn267 O273 2.035 . S
Zn267 O274 2.028 . S
O268 C264 1.255 1_655 S
O268 Zn269 2.035 . S
Zn269 O268 2.035 . S
Zn269 O270 2.028 . S
Zn269 O272 2.028 . S
Zn269 O275 2.035 . S
O270 Zn269 2.028 . S
O270 C276 1.247 . S
O271 Zn267 2.035 . S
O271 C276 1.258 1_455 S
O272 C265 1.247 . S
O272 Zn269 2.028 . S
O273 C265 1.258 1_455 S
O273 Zn267 2.035 . S
O274 Zn267 2.028 . S
O274 C277 1.252 . S
O275 Zn269 2.035 . S
O275 C277 1.255 1_655 S
C276 O270 1.247 . S
C276 O271 1.258 1_655 S
C277 O274 1.252 . S
C277 O275 1.255 1_455 S
C278 O280 1.247 . S
C278 O282 1.258 1_565 S
C279 O286 1.250 . S
C279 O287 1.253 1_545 S
O280 C278 1.247 . S
O280 Zn281 2.028 . S
Zn281 O280 2.028 . S
Zn281 O285 2.035 . S
Zn281 O287 2.035 . S
Zn281 O288 2.028 . S
O282 C278 1.258 1_545 S
O282 Zn283 2.035 . S
Zn283 O282 2.035 . S
Zn283 O284 2.028 . S
Zn283 O286 2.028 . S
Zn283 O289 2.035 . S
O284 Zn283 2.028 . S
O284 C290 1.250 . S
O285 Zn281 2.035 . S
O285 C290 1.253 1_565 S
O286 C279 1.250 . S
O286 Zn283 2.028 . S
O287 C279 1.253 1_565 S
O287 Zn281 2.035 . S
O288 Zn281 2.028 . S
O288 C291 1.247 . S
O289 Zn283 2.035 . S
O289 C291 1.258 1_545 S
C290 O284 1.250 . S
C290 O285 1.253 1_545 S
C291 O288 1.247 . S
C291 O289 1.258 1_565 S
C292 O294 1.247 . S
C292 O296 1.258 . S
C293 O300 1.247 . S
C293 O301 1.258 . S
O294 C292 1.247 . S
O294 Zn295 2.028 . S
Zn295 O294 2.028 . S
Zn295 O299 2.035 . S
Zn295 O301 2.035 . S
Zn295 O302 2.028 . S
O296 C292 1.258 . S
O296 Zn297 2.035 . S
Zn297 O296 2.035 . S
Zn297 O298 2.028 . S
Zn297 O300 2.028 . S
Zn297 O303 2.035 . S
O298 Zn297 2.028 . S
O298 C304 1.247 . S
O299 Zn295 2.035 . S
O299 C304 1.258 . S
O300 C293 1.247 . S
O300 Zn297 2.028 . S
O301 C293 1.258 . S
O301 Zn295 2.035 . S
O302 Zn295 2.028 . S
O302 C305 1.247 . S
O303 Zn297 2.035 . S
O303 C305 1.258 . S
C304 O298 1.247 . S
C304 O299 1.258 . S
C305 O302 1.247 . S
C305 O303 1.258 . S
H306 C312 0.930 . S
H307 C315 0.930 1_455 S
H308 C316 0.930 . S
H309 C317 0.930 . S
H310 C320 0.930 . S
H311 C321 0.930 . S
C312 H306 0.930 . S
C312 C313 1.355 . S
C312 C314 1.415 . S
C313 C312 1.355 . S
C313 C315 1.419 . S
C314 C312 1.415 . S
C314 C319 1.425 . S
C314 C321 1.409 . S
C315 H307 0.930 1_655 S
C315 C313 1.419 . S
C315 C316 1.362 1_655 S
C316 H308 0.930 . S
C316 C315 1.362 1_455 S
C316 C319 1.409 1_455 S
C317 H309 0.930 . S
C317 C318 1.355 1_455 S
C317 C319 1.415 1_455 S
C318 C317 1.355 1_655 S
C318 C320 1.419 . S
C319 C314 1.425 . S
C319 C316 1.409 1_655 S
C319 C317 1.415 1_655 S
C320 H310 0.930 . S
C320 C318 1.419 . S
C320 C321 1.362 . S
C321 H311 0.930 . S
C321 C314 1.409 . S
C321 C320 1.362 . S
H322 C328 0.930 . S
H323 C331 0.930 1_545 S
H324 C332 0.930 . S
H325 C333 0.930 . S
H326 C336 0.930 . S
H327 C337 0.930 . S
C328 H322 0.930 . S
C328 C329 1.355 . S
C328 C330 1.415 . S
C329 C328 1.355 . S
C329 C331 1.419 . S
C330 C328 1.415 . S
C330 C335 1.425 . S
C330 C337 1.409 . S
C331 H323 0.930 1_565 S
C331 C329 1.419 . S
C331 C332 1.362 1_565 S
C332 H324 0.930 . S
C332 C331 1.362 1_545 S
C332 C335 1.409 1_545 S
C333 H325 0.930 . S
C333 C334 1.355 1_545 S
C333 C335 1.415 1_545 S
C334 C333 1.355 1_565 S
C334 C336 1.419 . S
C335 C330 1.425 . S
C335 C332 1.409 1_565 S
C335 C333 1.415 1_565 S
C336 H326 0.930 . S
C336 C334 1.419 . S
C336 C337 1.362 . S
C337 H327 0.930 . S
C337 C330 1.409 . S
C337 C336 1.362 . S
H338 C344 0.930 . S
H339 C347 0.930 . S
H340 C348 0.930 . S
H341 C349 0.930 . S
H342 C352 0.930 . S
H343 C353 0.930 . S
C344 H338 0.930 . S
C344 C345 1.355 . S
C344 C346 1.415 . S
C345 C344 1.355 . S
C345 C347 1.419 . S
C346 C344 1.415 . S
C346 C351 1.425 . S
C346 C353 1.409 . S
C347 H339 0.930 . S
C347 C345 1.419 . S
C347 C348 1.362 . S
C348 H340 0.930 . S
C348 C347 1.362 . S
C348 C351 1.409 . S
C349 H341 0.930 . S
C349 C350 1.355 . S
C349 C351 1.415 . S
C350 C349 1.355 . S
C350 C352 1.419 . S
C351 C346 1.425 . S
C351 C348 1.409 . S
C351 C349 1.415 . S
C352 H342 0.930 . S
C352 C350 1.419 . S
C352 C353 1.362 . S
C353 H343 0.930 . S
C353 C346 1.409 . S
C353 C352 1.362 . S
H354 C360 0.930 . S
H355 C363 0.930 . S
H356 C364 0.930 . S
H357 C365 0.930 . S
H358 C368 0.930 . S
H359 C369 0.930 . S
C360 H354 0.930 . S
C360 C361 1.355 . S
C360 C362 1.415 . S
C361 C360 1.355 . S
C361 C363 1.419 . S
C362 C360 1.415 . S
C362 C367 1.425 . S
C362 C369 1.409 1_455 S
C363 H355 0.930 . S
C363 C361 1.419 . S
C363 C364 1.362 . S
C364 H356 0.930 . S
C364 C363 1.362 . S
C364 C367 1.409 . S
C365 H357 0.930 . S
C365 C366 1.355 . S
C365 C367 1.415 . S
C366 C365 1.355 . S
C366 C368 1.419 1_455 S
C367 C362 1.425 . S
C367 C364 1.409 . S
C367 C365 1.415 . S
C368 H358 0.930 . S
C368 C366 1.419 1_655 S
C368 C369 1.362 . S
C369 H359 0.930 . S
C369 C362 1.409 1_655 S
C369 C368 1.362 . S
H370 C376 0.930 . S
H371 C379 0.930 . S
H372 C380 0.930 . S
H373 C381 0.930 . S
H374 C384 0.930 . S
H375 C385 0.930 . S
C376 H370 0.930 . S
C376 C377 1.355 . S
C376 C378 1.415 . S
C377 C376 1.355 . S
C377 C379 1.419 1_545 S
C378 C376 1.415 . S
C378 C383 1.425 . S
C378 C385 1.409 . S
C379 H371 0.930 . S
C379 C377 1.419 1_565 S
C379 C380 1.362 . S
C380 H372 0.930 . S
C380 C379 1.362 . S
C380 C383 1.409 1_565 S
C381 H373 0.930 . S
C381 C382 1.355 1_565 S
C381 C383 1.415 1_565 S
C382 C381 1.355 1_545 S
C382 C384 1.419 . S
C383 C378 1.425 . S
C383 C380 1.409 1_545 S
C383 C381 1.415 1_545 S
C384 H374 0.930 . S
C384 C382 1.419 . S
C384 C385 1.362 . S
C385 H375 0.930 . S
C385 C378 1.409 . S
C385 C384 1.362 . S
H386 C392 0.930 . S
H387 C395 0.930 . S
H388 C396 0.930 . S
H389 C397 0.930 . S
H390 C400 0.930 . S
H391 C401 0.930 . S
C392 H386 0.930 . S
C392 C393 1.355 . S
C392 C394 1.415 . S
C393 C392 1.355 . S
C393 C395 1.419 . S
C394 C392 1.415 . S
C394 C399 1.425 . S
C394 C401 1.409 . S
C395 H387 0.930 . S
C395 C393 1.419 . S
C395 C396 1.362 . S
C396 H388 0.930 . S
C396 C395 1.362 . S
C396 C399 1.409 . S
C397 H389 0.930 . S
C397 C398 1.355 . S
C397 C399 1.415 . S
C398 C397 1.355 . S
C398 C400 1.419 . S
C399 C394 1.425 . S
C399 C396 1.409 . S
C399 C397 1.415 . S
C400 H390 0.930 . S
C400 C398 1.419 . S
C400 C401 1.362 . S
C401 H391 0.930 . S
C401 C394 1.409 . S
C401 C400 1.362 . S
H402 C408 0.930 . S
H403 C411 0.930 . S
H404 C412 0.930 1_565 S
H405 C413 0.930 . S
H406 C416 0.930 . S
H407 C417 0.930 . S
C408 H402 0.930 . S
C408 C409 1.355 . S
C408 C410 1.415 . S
C409 C408 1.355 . S
C409 C411 1.419 . S
C410 C408 1.415 . S
C410 C415 1.425 . S
C410 C417 1.409 . S
C411 H403 0.930 . S
C411 C409 1.419 . S
C411 C412 1.362 . S
C412 H404 0.930 1_545 S
C412 C411 1.362 . S
C412 C415 1.409 . S
C413 H405 0.930 . S
C413 C414 1.355 1_565 S
C413 C415 1.415 1_565 S
C414 C413 1.355 1_545 S
C414 C416 1.419 . S
C415 C410 1.425 . S
C415 C412 1.409 . S
C415 C413 1.415 1_545 S
C416 H406 0.930 . S
C416 C414 1.419 . S
C416 C417 1.362 . S
C417 H407 0.930 . S
C417 C410 1.409 . S
C417 C416 1.362 . S
H418 C424 0.930 . S
H419 C427 0.930 . S
H420 C428 0.930 . S
H421 C429 0.930 . S
H422 C432 0.930 . S
H423 C433 0.930 . S
C424 H418 0.930 . S
C424 C425 1.355 1_556 S
C424 C426 1.415 . S
C425 C424 1.355 1_554 S
C425 C427 1.419 . S
C426 C424 1.415 . S
C426 C431 1.425 . S
C426 C433 1.409 . S
C427 H419 0.930 . S
C427 C425 1.419 . S
C427 C428 1.362 1_554 S
C428 H420 0.930 . S
C428 C427 1.362 1_556 S
C428 C431 1.409 . S
C429 H421 0.930 . S
C429 C430 1.355 . S
C429 C431 1.415 . S
C430 C429 1.355 . S
C430 C432 1.419 . S
C431 C426 1.425 . S
C431 C428 1.409 . S
C431 C429 1.415 . S
C432 H422 0.930 . S
C432 C430 1.419 . S
C432 C433 1.362 . S
C433 H423 0.930 . S
C433 C426 1.409 . S
C433 C432 1.362 . S
H434 C440 0.930 . S
H435 C443 0.930 . S
H436 C444 0.930 . S
H437 C445 0.930 . S
H438 C448 0.930 . S
H439 C449 0.930 . S
C440 H434 0.930 . S
C440 C441 1.355 . S
C440 C442 1.415 . S
C441 C440 1.355 . S
C441 C443 1.419 . S
C442 C440 1.415 . S
C442 C447 1.425 . S
C442 C449 1.409 1_655 S
C443 H435 0.930 . S
C443 C441 1.419 . S
C443 C444 1.362 . S
C444 H436 0.930 . S
C444 C443 1.362 . S
C444 C447 1.409 . S
C445 H437 0.930 . S
C445 C446 1.355 . S
C445 C447 1.415 . S
C446 C445 1.355 . S
C446 C448 1.419 1_655 S
C447 C442 1.425 . S
C447 C444 1.409 . S
C447 C445 1.415 . S
C448 H438 0.930 . S
C448 C446 1.419 1_455 S
C448 C449 1.362 . S
C449 H439 0.930 . S
C449 C442 1.409 1_455 S
C449 C448 1.362 . S
H450 C456 0.930 . S
H451 C459 0.930 1_545 S
H452 C460 0.930 . S
H453 C461 0.930 . S
H454 C464 0.930 . S
H455 C465 0.930 . S
C456 H450 0.930 . S
C456 C457 1.355 . S
C456 C458 1.415 . S
C457 C456 1.355 . S
C457 C459 1.419 . S
C458 C456 1.415 . S
C458 C463 1.425 . S
C458 C465 1.409 . S
C459 H451 0.930 1_565 S
C459 C457 1.419 . S
C459 C460 1.362 1_565 S
C460 H452 0.930 . S
C460 C459 1.362 1_545 S
C460 C463 1.409 1_545 S
C461 H453 0.930 . S
C461 C462 1.355 1_545 S
C461 C463 1.415 1_545 S
C462 C461 1.355 1_565 S
C462 C464 1.419 . S
C463 C458 1.425 . S
C463 C460 1.409 1_565 S
C463 C461 1.415 1_565 S
C464 H454 0.930 . S
C464 C462 1.419 . S
C464 C465 1.362 . S
C465 H455 0.930 . S
C465 C458 1.409 . S
C465 C464 1.362 . S
H466 C472 0.930 . S
H467 C475 0.930 . S
H468 C476 0.930 . S
H469 C477 0.930 . S
H470 C480 0.930 . S
H471 C481 0.930 . S
C472 H466 0.930 . S
C472 C473 1.355 1_556 S
C472 C474 1.415 . S
C473 C472 1.355 1_554 S
C473 C475 1.419 . S
C474 C472 1.415 . S
C474 C479 1.425 . S
C474 C481 1.409 . S
C475 H467 0.930 . S
C475 C473 1.419 . S
C475 C476 1.362 1_554 S
C476 H468 0.930 . S
C476 C475 1.362 1_556 S
C476 C479 1.409 . S
C477 H469 0.930 . S
C477 C478 1.355 . S
C477 C479 1.415 . S
C478 C477 1.355 . S
C478 C480 1.419 . S
C479 C474 1.425 . S
C479 C476 1.409 . S
C479 C477 1.415 . S
C480 H470 0.930 . S
C480 C478 1.419 . S
C480 C481 1.362 . S
C481 H471 0.930 . S
C481 C474 1.409 . S
C481 C480 1.362 . S
H482 C488 0.930 . S
H483 C491 0.930 . S
H484 C492 0.930 . S
H485 C493 0.930 . S
H486 C496 0.930 1_655 S
H487 C497 0.930 . S
C488 H482 0.930 . S
C488 C489 1.355 . S
C488 C490 1.415 . S
C489 C488 1.355 . S
C489 C491 1.419 . S
C490 C488 1.415 . S
C490 C495 1.425 . S
C490 C497 1.409 . S
C491 H483 0.930 . S
C491 C489 1.419 . S
C491 C492 1.362 . S
C492 H484 0.930 . S
C492 C491 1.362 . S
C492 C495 1.409 . S
C493 H485 0.930 . S
C493 C494 1.355 . S
C493 C495 1.415 . S
C494 C493 1.355 . S
C494 C496 1.419 . S
C495 C490 1.425 . S
C495 C492 1.409 . S
C495 C493 1.415 . S
C496 H486 0.930 1_455 S
C496 C494 1.419 . S
C496 C497 1.362 . S
C497 H487 0.930 . S
C497 C490 1.409 . S
C497 C496 1.362 . S
C318 C265 1.470 . S
C313 C29 1.438 . S
C329 C137 1.440 . S
C334 C291 1.472 . S
C345 C225 1.457 . S
C350 C293 1.488 . S
C361 C49 1.495 . S
C366 C277 1.506 . S
C382 C279 1.482 . S
C377 C117 1.446 . S
C393 C205 1.486 . S
C398 C305 1.494 . S
C414 C278 1.495 1_545 S
C409 C233 1.472 . S
C425 C57 1.444 . S
C430 C304 1.480 . S
C446 C264 1.504 1_655 S
C441 C108 1.498 . S
C462 C290 1.490 1_565 S
C457 C196 1.457 . S
C478 C292 1.481 . S
C473 C20 1.446 . S
C489 C145 1.456 . S
C494 C276 1.476 1_455 S
