# Generated by pormake.
# Topology ocu, (6,8)-cn, num edge types: 1
# Building blocks:
#     Node 0, Type 0, BuildingBlock: CUKXOW_clean_sbu_0, # of connection points: 6
#     Node 1, Type 0, BuildingBlock: CUKXOW_clean_sbu_0, # of connection points: 6
#     Node 2, Type 0, BuildingBlock: CUKXOW_clean_sbu_0, # of connection points: 6
#     Node 3, Type 0, BuildingBlock: CUKXOW_clean_sbu_0, # of connection points: 6
#     Node 4, Type 0, BuildingBlock: CUKXOW_clean_sbu_0, # of connection points: 6
#     Node 5, Type 0, BuildingBlock: CUKXOW_clean_sbu_0, # of connection points: 6
#     Node 6, Type 0, BuildingBlock: CUKXOW_clean_sbu_0, # of connection points: 6
#     Node 7, Type 0, BuildingBlock: CUKXOW_clean_sbu_0, # of connection points: 6
#     Node 8, Type 1, BuildingBlock: TAGTUT_clean_sbu_1, # of connection points: 8
#     Node 9, Type 1, BuildingBlock: TAGTUT_clean_sbu_1, # of connection points: 8
#     Node 10, Type 1, BuildingBlock: TAGTUT_clean_sbu_1, # of connection points: 8
#     Node 11, Type 1, BuildingBlock: TAGTUT_clean_sbu_1, # of connection points: 8
#     Node 12, Type 1, BuildingBlock: TAGTUT_clean_sbu_1, # of connection points: 8
#     Node 13, Type 1, BuildingBlock: TAGTUT_clean_sbu_1, # of connection points: 8
#     Edge 14, Type (0, 1), BuildingBlock: KIFKEQ_clean_linker_1, # of connection points: 2
#     Edge 15, Type (0, 1), BuildingBlock: KIFKEQ_clean_linker_1, # of connection points: 2
#     Edge 16, Type (0, 1), BuildingBlock: KIFKEQ_clean_linker_1, # of connection points: 2
#     Edge 17, Type (0, 1), BuildingBlock: KIFKEQ_clean_linker_1, # of connection points: 2
#     Edge 18, Type (0, 1), BuildingBlock: KIFKEQ_clean_linker_1, # of connection points: 2
#     Edge 19, Type (0, 1), BuildingBlock: KIFKEQ_clean_linker_1, # of connection points: 2
#     Edge 20, Type (0, 1), BuildingBlock: KIFKEQ_clean_linker_1, # of connection points: 2
#     Edge 21, Type (0, 1), BuildingBlock: KIFKEQ_clean_linker_1, # of connection points: 2
#     Edge 22, Type (0, 1), BuildingBlock: KIFKEQ_clean_linker_1, # of connection points: 2
#     Edge 23, Type (0, 1), BuildingBlock: KIFKEQ_clean_linker_1, # of connection points: 2
#     Edge 24, Type (0, 1), BuildingBlock: KIFKEQ_clean_linker_1, # of connection points: 2
#     Edge 25, Type (0, 1), BuildingBlock: KIFKEQ_clean_linker_1, # of connection points: 2
#     Edge 26, Type (0, 1), BuildingBlock: KIFKEQ_clean_linker_1, # of connection points: 2
#     Edge 27, Type (0, 1), BuildingBlock: KIFKEQ_clean_linker_1, # of connection points: 2
#     Edge 28, Type (0, 1), BuildingBlock: KIFKEQ_clean_linker_1, # of connection points: 2
#     Edge 29, Type (0, 1), BuildingBlock: KIFKEQ_clean_linker_1, # of connection points: 2
#     Edge 30, Type (0, 1), BuildingBlock: KIFKEQ_clean_linker_1, # of connection points: 2
#     Edge 31, Type (0, 1), BuildingBlock: KIFKEQ_clean_linker_1, # of connection points: 2
#     Edge 32, Type (0, 1), BuildingBlock: KIFKEQ_clean_linker_1, # of connection points: 2
#     Edge 33, Type (0, 1), BuildingBlock: KIFKEQ_clean_linker_1, # of connection points: 2
#     Edge 34, Type (0, 1), BuildingBlock: KIFKEQ_clean_linker_1, # of connection points: 2
#     Edge 35, Type (0, 1), BuildingBlock: KIFKEQ_clean_linker_1, # of connection points: 2
#     Edge 36, Type (0, 1), BuildingBlock: KIFKEQ_clean_linker_1, # of connection points: 2
#     Edge 37, Type (0, 1), BuildingBlock: KIFKEQ_clean_linker_1, # of connection points: 2
#     Edge 38, Type (0, 1), BuildingBlock: KIFKEQ_clean_linker_1, # of connection points: 2
#     Edge 39, Type (0, 1), BuildingBlock: KIFKEQ_clean_linker_1, # of connection points: 2
#     Edge 40, Type (0, 1), BuildingBlock: KIFKEQ_clean_linker_1, # of connection points: 2
#     Edge 41, Type (0, 1), BuildingBlock: KIFKEQ_clean_linker_1, # of connection points: 2
#     Edge 42, Type (0, 1), BuildingBlock: KIFKEQ_clean_linker_1, # of connection points: 2
#     Edge 43, Type (0, 1), BuildingBlock: KIFKEQ_clean_linker_1, # of connection points: 2
#     Edge 44, Type (0, 1), BuildingBlock: KIFKEQ_clean_linker_1, # of connection points: 2
#     Edge 45, Type (0, 1), BuildingBlock: KIFKEQ_clean_linker_1, # of connection points: 2
#     Edge 46, Type (0, 1), BuildingBlock: KIFKEQ_clean_linker_1, # of connection points: 2
#     Edge 47, Type (0, 1), BuildingBlock: KIFKEQ_clean_linker_1, # of connection points: 2
#     Edge 48, Type (0, 1), BuildingBlock: KIFKEQ_clean_linker_1, # of connection points: 2
#     Edge 49, Type (0, 1), BuildingBlock: KIFKEQ_clean_linker_1, # of connection points: 2
#     Edge 50, Type (0, 1), BuildingBlock: KIFKEQ_clean_linker_1, # of connection points: 2
#     Edge 51, Type (0, 1), BuildingBlock: KIFKEQ_clean_linker_1, # of connection points: 2
#     Edge 52, Type (0, 1), BuildingBlock: KIFKEQ_clean_linker_1, # of connection points: 2
#     Edge 53, Type (0, 1), BuildingBlock: KIFKEQ_clean_linker_1, # of connection points: 2
#     Edge 54, Type (0, 1), BuildingBlock: KIFKEQ_clean_linker_1, # of connection points: 2
#     Edge 55, Type (0, 1), BuildingBlock: KIFKEQ_clean_linker_1, # of connection points: 2
#     Edge 56, Type (0, 1), BuildingBlock: KIFKEQ_clean_linker_1, # of connection points: 2
#     Edge 57, Type (0, 1), BuildingBlock: KIFKEQ_clean_linker_1, # of connection points: 2
#     Edge 58, Type (0, 1), BuildingBlock: KIFKEQ_clean_linker_1, # of connection points: 2
#     Edge 59, Type (0, 1), BuildingBlock: KIFKEQ_clean_linker_1, # of connection points: 2
#     Edge 60, Type (0, 1), BuildingBlock: KIFKEQ_clean_linker_1, # of connection points: 2
#     Edge 61, Type (0, 1), BuildingBlock: KIFKEQ_clean_linker_1, # of connection points: 2
# Relax obj value: 0.096
# Max RMSD: 0.233
# Mean RMSD: 0.141
data_MOF--net-ocu--node1-CUKXOW_clean_sbu_0--node2-TAGTUT_clean_sbu_1--edge1-KIFKEQ_clean_linker_1
_symmetry_space_group_name_H-M    P1
_symmetry_Int_Tables_number       1
_symmetry_cell_setting            triclinic
loop_
_symmetry_equiv_pos_as_xyz
'x, y, z'
_cell_length_a     37.086616
_cell_length_b     37.535973
_cell_length_c     40.081917
_cell_angle_alpha  92.254384
_cell_angle_beta   93.94798
_cell_angle_gamma 97.373551
loop_
_atom_site_label
_atom_site_type_symbol
_atom_site_fract_x
_atom_site_fract_y
_atom_site_fract_z
_atom_type_partial_charge
Tb0 Tb 0.25954 0.21352 0.21781 0.0
C1 C 0.31017 0.28733 0.20388 0.0
Tb2 Tb 0.26214 0.28126 0.26825 0.0
O3 O 0.21951 0.22959 0.17966 0.0
O4 O 0.23579 0.26122 0.22203 0.0
O5 O 0.30302 0.25157 0.19778 0.0
C6 C 0.2447 0.33828 0.30163 0.0
O7 O 0.2949 0.30442 0.22817 0.0
C8 C 0.30651 0.23516 0.29036 0.0
C9 C 0.2114 0.20754 0.28225 0.0
O10 O 0.2777 0.33106 0.29864 0.0
O11 O 0.2218 0.31404 0.28454 0.0
O12 O 0.30376 0.26589 0.30533 0.0
O13 O 0.28538 0.23337 0.26418 0.0
O14 O 0.21956 0.24297 0.28913 0.0
O15 O 0.22573 0.19081 0.25726 0.0
C16 C 0.27211 0.15143 0.19038 0.0
O17 O 0.24029 0.16216 0.19116 0.0
O18 O 0.29704 0.17588 0.20466 0.0
C19 C 0.21575 0.25983 0.19514 0.0
Tb20 Tb 0.72728 0.23556 0.26744 0.0
C21 C 0.74576 0.18899 0.20677 0.0
Tb22 Tb 0.78967 0.2629 0.22817 0.0
O23 O 0.7 0.28179 0.25444 0.0
O24 O 0.73188 0.26058 0.22036 0.0
O25 O 0.73626 0.18824 0.23793 0.0
C26 C 0.83022 0.30199 0.18803 0.0
O27 O 0.76399 0.21812 0.1954 0.0
C28 C 0.8158 0.2246 0.27619 0.0
C29 C 0.77823 0.30204 0.29666 0.0
O30 O 0.8322 0.26836 0.19316 0.0
O31 O 0.80481 0.31326 0.20473 0.0
O32 O 0.83529 0.24112 0.25454 0.0
O33 O 0.78328 0.23056 0.27014 0.0
O34 O 0.78847 0.30599 0.26587 0.0
O35 O 0.7571 0.2731 0.30486 0.0
C36 C 0.67205 0.19767 0.29369 0.0
O37 O 0.67625 0.19964 0.26207 0.0
O38 O 0.6993 0.21667 0.31092 0.0
C39 C 0.71275 0.28556 0.22539 0.0
Tb40 Tb 0.73491 0.76101 0.23218 0.0
C41 C 0.7214 0.67831 0.21927 0.0
Tb42 Tb 0.78729 0.71618 0.26718 0.0
O43 O 0.75207 0.74884 0.18175 0.0
O44 O 0.78703 0.74604 0.22363 0.0
O45 O 0.70531 0.70759 0.22272 0.0
C46 C 0.83979 0.67565 0.27874 0.0
O47 O 0.75494 0.67671 0.23211 0.0
C48 C 0.73969 0.74029 0.3061 0.0
C49 C 0.79984 0.799 0.2812 0.0
O50 O 0.806 0.66707 0.28526 0.0
O51 O 0.84415 0.7074 0.26694 0.0
O52 O 0.77109 0.7317 0.31711 0.0
O53 O 0.73482 0.73059 0.27539 0.0
O54 O 0.81613 0.76972 0.27837 0.0
O55 O 0.76624 0.80034 0.26816 0.0
C56 C 0.68243 0.80085 0.21749 0.0
O57 O 0.71705 0.81245 0.22006 0.0
O58 O 0.6775 0.7668 0.22246 0.0
C59 C 0.78229 0.73782 0.19261 0.0
Tb60 Tb 0.27733 0.78799 0.21182 0.0
C61 C 0.29954 0.7916 0.29022 0.0
Tb62 Tb 0.24987 0.7254 0.25614 0.0
O63 O 0.2424 0.82809 0.22751 0.0
O64 O 0.23829 0.77729 0.24599 0.0
O65 O 0.308 0.80247 0.26021 0.0
C66 C 0.20849 0.67648 0.28658 0.0
O67 O 0.27507 0.76373 0.29493 0.0
C68 C 0.30929 0.71806 0.22461 0.0
C69 C 0.2209 0.72363 0.17895 0.0
O70 O 0.24325 0.67719 0.28432 0.0
O71 O 0.19702 0.70382 0.27244 0.0
O72 O 0.30273 0.70459 0.25332 0.0
O73 O 0.2821 0.73291 0.21545 0.0
O74 O 0.21918 0.70867 0.20845 0.0
O75 O 0.24143 0.7545 0.17415 0.0
C76 C 0.33013 0.81665 0.17702 0.0
O77 O 0.2957 0.81969 0.1704 0.0
O78 O 0.33458 0.7987 0.20364 0.0
C79 C 0.22642 0.80724 0.24905 0.0
Tb80 Tb 0.23596 0.73445 0.76106 0.0
C81 C 0.25096 0.69562 0.69481 0.0
Tb82 Tb 0.29606 0.76088 0.72945 0.0
O83 O 0.20809 0.78099 0.74989 0.0
O84 O 0.23975 0.762 0.71462 0.0
O85 O 0.24094 0.69043 0.72531 0.0
C86 C 0.35032 0.80288 0.70483 0.0
O87 O 0.26853 0.72697 0.68807 0.0
C88 C 0.31263 0.70908 0.76889 0.0
C89 C 0.2824 0.79806 0.79698 0.0
O90 O 0.34126 0.76906 0.69687 0.0
O91 O 0.32809 0.81325 0.72541 0.0
O92 O 0.32574 0.71589 0.74054 0.0
O93 O 0.29232 0.73263 0.77555 0.0
O94 O 0.29186 0.80405 0.76645 0.0
O95 O 0.26461 0.76662 0.80312 0.0
C96 C 0.18023 0.69401 0.78531 0.0
O97 O 0.19177 0.72704 0.79487 0.0
O98 O 0.20077 0.68348 0.76323 0.0
C99 C 0.22041 0.78637 0.72099 0.0
Tb100 Tb 0.23683 0.27397 0.72435 0.0
C101 C 0.22882 0.19119 0.71303 0.0
Tb102 Tb 0.29501 0.23488 0.75702 0.0
O103 O 0.24961 0.25758 0.67357 0.0
O104 O 0.28972 0.26301 0.71272 0.0
O105 O 0.21048 0.21904 0.71647 0.0
C106 C 0.35082 0.19897 0.77181 0.0
O107 O 0.26367 0.19272 0.72371 0.0
C108 C 0.24862 0.25641 0.79877 0.0
C109 C 0.30401 0.31728 0.76654 0.0
O110 O 0.31677 0.18522 0.76921 0.0
O111 O 0.35331 0.23294 0.76669 0.0
O112 O 0.28145 0.2505 0.80785 0.0
O113 O 0.24212 0.24552 0.76853 0.0
O114 O 0.322 0.2897 0.76092 0.0
O115 O 0.26887 0.31562 0.75747 0.0
C116 C 0.18366 0.31418 0.71472 0.0
O117 O 0.21683 0.3224 0.70643 0.0
O118 O 0.18001 0.28267 0.72707 0.0
C119 C 0.28263 0.25177 0.68254 0.0
Tb120 Tb 0.78445 0.26161 0.7259 0.0
C121 C 0.79974 0.27629 0.80227 0.0
Tb122 Tb 0.73907 0.2142 0.77087 0.0
O123 O 0.76304 0.3102 0.74311 0.0
O124 O 0.7318 0.26038 0.74398 0.0
O125 O 0.81465 0.27821 0.77318 0.0
C126 C 0.689 0.19387 0.81239 0.0
O127 O 0.76897 0.25516 0.80627 0.0
C128 C 0.79088 0.18286 0.74433 0.0
C129 C 0.72656 0.19819 0.69394 0.0
O130 O 0.7238 0.19343 0.81871 0.0
O131 O 0.68252 0.20409 0.7824 0.0
O132 O 0.76193 0.16541 0.75558 0.0
O133 O 0.79172 0.21572 0.75312 0.0
O134 O 0.71123 0.19543 0.72278 0.0
O135 O 0.75687 0.22001 0.69048 0.0
C136 C 0.82666 0.28833 0.6804 0.0
O137 O 0.79141 0.28623 0.67846 0.0
O138 O 0.83839 0.27604 0.70831 0.0
C139 C 0.73357 0.29318 0.7535 0.0
Tb140 Tb 0.76059 0.71122 0.71599 0.0
C141 C 0.80966 0.78582 0.70198 0.0
Tb142 Tb 0.76127 0.77942 0.76612 0.0
O143 O 0.71839 0.72556 0.6788 0.0
O144 O 0.73631 0.75846 0.71981 0.0
O145 O 0.80273 0.75023 0.69563 0.0
C146 C 0.74928 0.84179 0.7932 0.0
O147 O 0.79425 0.80247 0.72629 0.0
C148 C 0.80635 0.73437 0.7887 0.0
C149 C 0.7127 0.70458 0.78048 0.0
O150 O 0.78105 0.83114 0.7916 0.0
O151 O 0.72396 0.81704 0.77994 0.0
O152 O 0.80192 0.76434 0.80429 0.0
O153 O 0.78617 0.73262 0.76195 0.0
O154 O 0.71866 0.74046 0.78626 0.0
O155 O 0.72845 0.68778 0.7563 0.0
C156 C 0.78132 0.65501 0.68385 0.0
O157 O 0.74777 0.6613 0.68516 0.0
O158 O 0.80281 0.67978 0.70166 0.0
C159 C 0.715 0.75617 0.69376 0.0
C160 C 0.92501 0.08047 0.55583 0.0
C161 C 0.94466 0.08365 0.45008 0.0
C162 C 0.95129 0.93904 0.45858 0.0
Mg163 Mg 0.99487 0.0821 0.51512 0.0
O164 O 0.98253 0.03218 0.51687 0.0
Mg165 Mg 0.93164 0.01135 0.49926 0.0
Mg166 Mg 1.0133 -0.00191 0.49603 0.0
O167 O 0.04383 0.96336 0.47579 0.0
Mg168 Mg 0.03076 0.91364 0.47952 0.0
Mg169 Mg 0.09413 0.98352 0.49521 0.0
C170 C 0.07459 0.05686 0.53511 0.0
C171 C 0.06942 0.04235 0.44237 0.0
O172 O 0.91057 0.05173 0.53858 0.0
O173 O 0.9573 0.09574 0.55152 0.0
O174 O 0.92811 0.05399 0.45919 0.0
O175 O 0.97406 0.09874 0.46617 0.0
O176 O 0.05326 0.0813 0.53116 0.0
O177 O 0.06407 0.02334 0.52747 0.0
C178 C 0.95865 0.95144 0.54921 0.0
O179 O 0.99091 0.95679 0.53818 0.0
O180 O 0.93349 0.96922 0.53849 0.0
O181 O 0.1155 0.94139 0.45763 0.0
O182 O 0.06873 0.89734 0.44504 0.0
O183 O 0.09555 0.94276 0.53735 0.0
C184 C 0.10131 0.91202 0.44117 0.0
O185 O 0.0504 0.89747 0.52876 0.0
O186 O 0.97262 0.91473 0.46326 0.0
C187 C 0.07859 0.91319 0.54619 0.0
O188 O 0.96181 0.97279 0.46512 0.0
O189 O 0.03687 0.03913 0.45315 0.0
O190 O 0.09325 0.02373 0.4545 0.0
C191 C 0.38921 0.02065 0.03859 0.0
C192 C 0.44227 0.06646 0.95345 0.0
C193 C 0.48281 0.93946 0.93509 0.0
Mg194 Mg 0.46701 0.05739 0.02662 0.0
O195 O 0.4714 0.00915 0.0155 0.0
Mg196 Mg 0.43498 0.98246 0.98069 0.0
Mg197 Mg 0.5159 -0.00066 0.99374 0.0
O198 O 0.56031 0.98919 0.97207 0.0
Mg199 Mg 0.56463 0.94042 0.96352 0.0
Mg200 Mg 0.59709 0.01674 0.00607 0.0
C201 C 0.54814 0.05671 0.05625 0.0
C202 C 0.55379 0.07251 0.96536 0.0
O203 O 0.3907 0.99647 0.01536 0.0
O204 O 0.41528 0.04586 0.04714 0.0
O205 O 0.43029 0.03295 0.95185 0.0
O206 O 0.45997 0.08207 0.97957 0.0
O207 O 0.51874 0.07139 0.05727 0.0
O208 O 0.55025 0.02926 0.0368 0.0
C209 C 0.47714 0.92609 0.02157 0.0
O210 O 0.50741 0.94648 0.02001 0.0
O211 O 0.44658 0.93414 0.00913 0.0
O212 O 0.64053 0.00193 0.97084 0.0
O213 O 0.6156 0.95094 0.94153 0.0
O214 O 0.60346 0.96786 0.03672 0.0
C215 C 0.64158 0.97668 0.94852 0.0
O216 O 0.57285 0.91799 0.01126 0.0
O217 O 0.51158 0.92361 0.93623 0.0
C218 C 0.5913 0.93448 0.0365 0.0
O219 O 0.48198 0.96984 0.95048 0.0
O220 O 0.52377 0.05205 0.96762 0.0
O221 O 0.58469 0.06457 0.97694 0.0
C222 C 0.92629 0.59292 0.0408 0.0
C223 C 0.94163 0.57595 0.93505 0.0
C224 C 0.94987 0.43451 0.96621 0.0
Mg225 Mg 0.99414 0.58578 -0.00046 0.0
O226 O 0.98389 0.53717 0.00827 0.0
Mg227 Mg 0.93281 0.51418 -0.00412 0.0
Mg228 Mg 1.01335 0.49924 0.99114 0.0
O229 O 0.04259 0.46117 0.97431 0.0
Mg230 Mg 0.03142 0.41259 0.98304 0.0
Mg231 Mg 0.09356 0.48375 0.98791 0.0
C232 C 0.07607 0.56413 0.01518 0.0
C233 C 0.0569 0.52911 0.92925 0.0
O234 O 0.91268 0.56113 0.02903 0.0
O235 O 0.95803 0.60736 0.03378 0.0
O236 O 0.92491 0.54815 0.94778 0.0
O237 O 0.97094 0.59289 0.94964 0.0
O238 O 0.05339 0.58709 0.01007 0.0
O239 O 0.06616 0.52989 0.0148 0.0
C240 C 0.97103 0.46872 0.05317 0.0
O241 O 1.00048 0.47036 0.03818 0.0
O242 O 0.94318 0.4829 0.04214 0.0
O243 O 0.11401 0.43638 0.95579 0.0
O244 O 0.06772 0.39118 0.94892 0.0
O245 O 0.10009 0.44943 0.0362 0.0
C246 C 0.10007 0.40504 0.94311 0.0
O247 O 0.05381 0.40484 0.03332 0.0
O248 O 0.97226 0.41127 0.9713 0.0
C249 C 0.08303 0.42145 0.04843 0.0
O250 O 0.96017 0.4687 0.96777 0.0
O251 O 0.02695 0.52772 0.94361 0.0
O252 O 0.08436 0.51491 0.94129 0.0
C253 C 0.43326 0.58302 0.05116 0.0
C254 C 0.44949 0.57904 0.94509 0.0
C255 C 0.45154 0.43656 0.95637 0.0
Mg256 Mg 0.50094 0.57876 0.00904 0.0
O257 O 0.48667 0.52962 0.01492 0.0
Mg258 Mg 0.43523 0.5102 -0.00207 0.0
Mg259 Mg 0.51533 0.49423 0.99342 0.0
O260 O 0.54412 0.45891 0.97172 0.0
Mg261 Mg 0.53033 0.40942 0.97623 0.0
Mg262 Mg 0.59546 0.47874 0.98881 0.0
C263 C 0.57944 0.55222 0.02928 0.0
C264 C 0.56914 0.53863 0.93818 0.0
O265 O 0.41701 0.55368 0.03599 0.0
O266 O 0.46559 0.59658 0.04515 0.0
O267 O 0.43231 0.55083 0.95628 0.0
O268 O 0.47986 0.59372 0.95967 0.0
O269 O 0.55906 0.57726 0.0244 0.0
O270 O 0.56774 0.51872 0.02287 0.0
C271 C 0.46097 0.4501 0.04858 0.0
O272 O 0.49275 0.4535 0.03634 0.0
O273 O 0.43669 0.4693 0.03856 0.0
O274 O 0.6146 0.43604 0.95099 0.0
O275 O 0.56695 0.39243 0.94037 0.0
O276 O 0.59817 0.43798 0.03033 0.0
C277 C 0.5994 0.40665 0.93527 0.0
O278 O 0.55097 0.39459 0.02596 0.0
O279 O 0.47207 0.41145 0.96039 0.0
C280 C 0.58096 0.40955 0.04111 0.0
O281 O 0.46309 0.46987 0.96397 0.0
O282 O 0.53747 0.53492 0.95055 0.0
O283 O 0.59372 0.51971 0.94813 0.0
C284 C 0.91023 0.57079 0.49758 0.0
C285 C 0.98223 0.56009 0.41539 0.0
C286 C 0.97623 0.4257 0.45031 0.0
Mg287 Mg 0.9936 0.57572 0.49071 0.0
O288 O 0.98151 0.52663 0.49791 0.0
Mg289 Mg 0.94352 0.49842 0.46575 0.0
Mg290 Mg 0.01973 0.4947 0.4947 0.0
O291 O 0.05752 0.46227 0.49175 0.0
Mg292 Mg 0.04393 0.41342 0.49931 0.0
Mg293 Mg 0.09478 0.49011 0.52473 0.0
C294 C 0.06286 0.56427 0.53809 0.0
C295 C 0.08629 0.53302 0.4572 0.0
O296 O 0.90578 0.53897 0.48355 0.0
O297 O 0.94163 0.58975 0.50259 0.0
O298 O 0.96049 0.53247 0.42193 0.0
O299 O 1.00016 0.58062 0.43849 0.0
O300 O 0.04302 0.58607 0.52424 0.0
O301 O 0.05462 0.53003 0.53438 0.0
C302 C 0.95425 0.45208 0.53041 0.0
O303 O 0.98866 0.46143 0.53125 0.0
O304 O 0.93173 0.46313 0.50878 0.0
O305 O 0.13196 0.44814 0.50939 0.0
O306 O 0.09588 0.39787 0.48951 0.0
O307 O 0.07497 0.45771 0.56903 0.0
C308 C 0.12745 0.41625 0.49555 0.0
O309 O 0.03534 0.40984 0.55125 0.0
O310 O 0.99532 0.40347 0.46447 0.0
C311 C 0.05215 0.43053 0.57483 0.0
O312 O 0.98473 0.45986 0.4546 0.0
O313 O 0.05156 0.52678 0.4577 0.0
O314 O 0.10811 0.52217 0.47967 0.0
C315 C 0.426 0.09265 0.54313 0.0
C316 C 0.44077 0.07588 0.43784 0.0
C317 C 0.44426 0.93285 0.46789 0.0
Mg318 Mg 0.49388 0.08332 0.50275 0.0
O319 O 0.48147 0.03469 0.51038 0.0
Mg320 Mg 0.42985 0.0135 0.49773 0.0
Mg321 Mg 0.50936 0.99524 0.49368 0.0
O322 O 0.53709 0.95585 0.47668 0.0
Mg323 Mg 0.52457 0.90711 0.48404 0.0
Mg324 Mg 0.58873 0.97715 0.48895 0.0
C325 C 0.57439 0.05792 0.51911 0.0
C326 C 0.55261 0.02346 0.43102 0.0
O327 O 0.41094 0.06185 0.53001 0.0
O328 O 0.45885 0.10528 0.53773 0.0
O329 O 0.42376 0.04764 0.44962 0.0
O330 O 0.46987 0.09247 0.45324 0.0
O331 O 0.55299 0.08217 0.51437 0.0
O332 O 0.56296 0.02397 0.51678 0.0
C333 C 0.46569 0.96749 0.55626 0.0
O334 O 0.49527 0.96791 0.54147 0.0
O335 O 0.43856 0.9823 0.54441 0.0
O336 O 0.60759 0.92895 0.45659 0.0
O337 O 0.56003 0.88512 0.44914 0.0
O338 O 0.59465 0.94276 0.53683 0.0
C339 C 0.5928 0.89801 0.44362 0.0
O340 O 0.54803 0.89842 0.53386 0.0
O341 O 0.46536 0.9083 0.47236 0.0
C342 C 0.57744 0.91482 0.54892 0.0
O343 O 0.45598 0.96669 0.47044 0.0
O344 O 0.52329 0.0226 0.44621 0.0
O345 O 0.58003 0.00867 0.44222 0.0
H346 H 0.18426 0.13554 0.27358 0.0
H347 H 0.18004 0.22735 0.34058 0.0
H348 H 0.14571 0.09802 0.30845 0.0
H349 H 0.14188 0.18925 0.37642 0.0
H350 H 0.05417 0.11226 0.42748 0.0
H351 H 0.08508 0.15307 0.38828 0.0
H352 H 0.14707 0.06911 0.35809 0.0
H353 H 0.11616 0.02914 0.39582 0.0
C354 C 0.17526 0.14794 0.29584 0.0
C355 C 0.18597 0.1849 0.30391 0.0
C356 C 0.15303 0.12608 0.31628 0.0
C357 C 0.14048 0.13988 0.3461 0.0
C358 C 0.15041 0.17714 0.35382 0.0
C359 C 0.17269 0.19916 0.33318 0.0
C360 C 0.07371 0.10232 0.4118 0.0
C361 C 0.08211 0.0669 0.41496 0.0
C362 C 0.09202 0.12599 0.38952 0.0
C363 C 0.11906 0.11494 0.36938 0.0
C364 C 0.12632 0.07917 0.37217 0.0
C365 C 0.10842 0.05593 0.39427 0.0
H366 H 0.8799 0.24389 0.31227 0.0
H367 H 0.7879 0.16073 0.30211 0.0
H368 H 0.91021 0.21063 0.35394 0.0
H369 H 0.81926 0.12527 0.34185 0.0
H370 H 0.87187 0.07791 0.43241 0.0
H371 H 0.83975 0.11224 0.39319 0.0
H372 H 0.94305 0.1662 0.36583 0.0
H373 H 0.97485 0.13352 0.40748 0.0
C374 C 0.86618 0.21823 0.31905 0.0
C375 C 0.8314 0.20506 0.30413 0.0
C376 C 0.88389 0.19864 0.3427 0.0
C377 C 0.86801 0.16443 0.35147 0.0
C378 C 0.83268 0.15154 0.33664 0.0
C379 C 0.81445 0.17183 0.31364 0.0
C380 C 0.88781 0.097 0.41788 0.0
C381 C 0.92609 0.10282 0.42319 0.0
C382 C 0.86922 0.11679 0.39498 0.0
C383 C 0.88822 0.14262 0.37577 0.0
C384 C 0.92681 0.14758 0.38047 0.0
C385 C 0.94537 0.12842 0.40418 0.0
H386 H 0.76838 0.85247 0.31215 0.0
H387 H 0.87143 0.81176 0.30325 0.0
H388 H 0.79623 0.89357 0.35878 0.0
H389 H 0.89864 0.85246 0.34962 0.0
H390 H 0.91546 0.97587 0.41218 0.0
H391 H 0.87132 0.94779 0.36733 0.0
H392 H 0.86486 0.8474 0.41666 0.0
H393 H 0.90881 0.87505 0.46126 0.0
C394 C 0.79712 0.85298 0.31946 0.0
C395 C 0.81773 0.82872 0.30418 0.0
C396 C 0.81285 0.87634 0.34616 0.0
C397 C 0.84927 0.87564 0.35768 0.0
C398 C 0.87036 0.85311 0.34111 0.0
C399 C 0.85478 0.8299 0.31459 0.0
C400 C 0.90324 0.94831 0.41426 0.0
C401 C 0.91595 0.92735 0.43978 0.0
C402 C 0.87813 0.93232 0.38859 0.0
C403 C 0.86535 0.89551 0.38863 0.0
C404 C 0.87461 0.87585 0.41625 0.0
C405 C 0.89969 0.89167 0.44169 0.0
H406 H 0.19876 0.77 0.30172 0.0
H407 H 0.21112 0.87515 0.26101 0.0
H408 H 0.1708 0.79426 0.34992 0.0
H409 H 0.1833 0.89937 0.30881 0.0
H410 H 0.08497 0.8452 0.40957 0.0
H411 H 0.11535 0.81901 0.36447 0.0
H412 H 0.19537 0.91367 0.36897 0.0
H413 H 0.16468 0.94018 0.41409 0.0
C414 C 0.19516 0.79815 0.30286 0.0
C415 C 0.2069 0.82052 0.27734 0.0
C416 C 0.17919 0.81215 0.33053 0.0
C417 C 0.17493 0.84894 0.3335 0.0
C418 C 0.1866 0.87111 0.30778 0.0
C419 C 0.20222 0.85708 0.28011 0.0
C420 C 0.1092 0.86046 0.4012 0.0
C421 C 0.12216 0.89503 0.41556 0.0
C422 C 0.12679 0.84524 0.37534 0.0
C423 C 0.15776 0.8642 0.36278 0.0
C424 C 0.17129 0.89843 0.37764 0.0
C425 C 0.15384 0.91356 0.40375 0.0
H426 H 0.2121 0.77359 0.65254 0.0
H427 H 0.18418 0.8438 0.73179 0.0
H428 H 0.17553 0.80383 0.61175 0.0
H429 H 0.14831 0.87443 0.69107 0.0
H430 H 0.12443 0.944 0.59899 0.0
H431 H 0.1588 0.91387 0.64114 0.0
H432 H 0.10729 0.81076 0.59919 0.0
H433 H 0.07231 0.84091 0.55728 0.0
C434 C 0.19853 0.79575 0.66119 0.0
C435 C 0.20114 0.80638 0.69542 0.0
C436 C 0.1773 0.81287 0.63788 0.0
C437 C 0.15878 0.84149 0.64813 0.0
C438 C 0.16225 0.85262 0.68226 0.0
C439 C 0.18282 0.83506 0.7056 0.0
C440 C 0.11991 0.91491 0.59906 0.0
C441 C 0.09534 0.89496 0.57476 0.0
C442 C 0.13971 0.89762 0.62323 0.0
C443 C 0.13613 0.85985 0.6234 0.0
C444 C 0.11103 0.83987 0.59956 0.0
C445 C 0.09063 0.8572 0.57578 0.0
H446 H 0.26245 0.14499 0.67511 0.0
H447 H 0.15636 0.16899 0.70024 0.0
H448 H 0.23352 0.10444 0.62859 0.0
H449 H 0.12785 0.12815 0.65424 0.0
H450 H 0.10977 0.01724 0.57946 0.0
H451 H 0.15449 0.04213 0.62511 0.0
H452 H 0.16195 0.14586 0.58174 0.0
H453 H 0.11706 0.12148 0.53649 0.0
C454 C 0.23297 0.1406 0.67152 0.0
C455 C 0.21159 0.16032 0.69113 0.0
C456 C 0.21657 0.1175 0.64491 0.0
C457 C 0.17867 0.11348 0.63814 0.0
C458 C 0.15719 0.13094 0.65928 0.0
C459 C 0.17349 0.15425 0.68551 0.0
C460 C 0.1222 0.04493 0.57884 0.0
C461 C 0.10966 0.06764 0.55473 0.0
C462 C 0.14765 0.05908 0.60498 0.0
C463 C 0.16121 0.09577 0.60671 0.0
C464 C 0.15176 0.11741 0.58065 0.0
C465 C 0.12613 0.10348 0.55485 0.0
H466 H 0.77581 0.1174 0.71085 0.0
H467 H 0.85292 0.21393 0.71752 0.0
H468 H 0.80744 0.09305 0.66573 0.0
H469 H 0.8832 0.19116 0.67054 0.0
H470 H 0.95266 0.12782 0.60774 0.0
H471 H 0.92124 0.15174 0.65293 0.0
H472 H 0.8193 0.09378 0.60991 0.0
H473 H 0.85146 0.06829 0.56548 0.0
C474 C 0.79949 0.13361 0.70248 0.0
C475 C 0.81159 0.16791 0.71761 0.0
C476 C 0.81744 0.11982 0.67612 0.0
C477 C 0.84801 0.13998 0.66379 0.0
C478 C 0.86015 0.17433 0.67923 0.0
C479 C 0.84241 0.18787 0.70594 0.0
C480 C 0.92349 0.12017 0.60778 0.0
C481 C 0.90472 0.09599 0.58275 0.0
C482 C 0.90525 0.13421 0.63379 0.0
C483 C 0.86739 0.12506 0.63551 0.0
C484 C 0.84851 0.10115 0.61015 0.0
C485 C 0.86693 0.08663 0.58435 0.0
H486 H 0.82749 0.85976 0.70399 0.0
H487 H 0.8501 0.7641 0.65063 0.0
H488 H 0.86682 0.8967 0.66915 0.0
H489 H 0.8905 0.80107 0.61616 0.0
H490 H 0.93032 0.88093 0.53578 0.0
H491 H 0.89652 0.84048 0.57252 0.0
H492 H 0.92448 0.91917 0.65479 0.0
H493 H 0.95715 0.95973 0.61742 0.0
C494 C 0.84108 0.84637 0.68502 0.0
C495 C 0.83514 0.80851 0.68054 0.0
C496 C 0.86418 0.86781 0.66492 0.0
C497 C 0.88267 0.85249 0.63937 0.0
C498 C 0.87682 0.8145 0.635 0.0
C499 C 0.85357 0.79302 0.65511 0.0
C500 C 0.93035 0.88903 0.56204 0.0
C501 C 0.94775 0.92328 0.57373 0.0
C502 C 0.91056 0.8658 0.58331 0.0
C503 C 0.90694 0.87604 0.61716 0.0
C504 C 0.9256 0.90996 0.62901 0.0
C505 C 0.94524 0.93318 0.60767 0.0
H506 H 0.22624 0.1082 0.14553 0.0
H507 H 0.33426 0.12079 0.19566 0.0
H508 H 0.24244 0.05973 0.109 0.0
H509 H 0.35031 0.07244 0.1597 0.0
H510 H 0.32886 0.05168 0.02355 0.0
H511 H 0.28831 0.06993 0.06459 0.0
H512 H 0.33882 0.00748 0.13842 0.0
H513 H 0.37954 0.98956 0.09717 0.0
C514 C 0.25307 0.09987 0.1493 0.0
C515 C 0.27933 0.11841 0.17285 0.0
C516 C 0.26223 0.07217 0.12853 0.0
C517 C 0.29754 0.06236 0.13156 0.0
C518 C 0.3227 0.07904 0.15709 0.0
C519 C 0.31372 0.10701 0.17743 0.0
C520 C 0.32979 0.04038 0.04802 0.0
C521 C 0.35701 0.01943 0.05754 0.0
C522 C 0.3066 0.05071 0.07152 0.0
C523 C 0.31092 0.04051 0.1048 0.0
C524 C 0.33523 0.01587 0.11299 0.0
C525 C 0.35834 0.00553 0.08945 0.0
H526 H 0.89684 0.28853 0.1704 0.0
H527 H 0.82291 0.36853 0.16822 0.0
H528 H 0.94289 0.33057 0.14642 0.0
H529 H 0.86769 0.40978 0.14296 0.0
H530 H 0.94985 0.48805 0.11353 0.0
H531 H 0.92412 0.44666 0.1537 0.0
H532 H 0.95318 0.3572 0.09442 0.0
H533 H 0.98108 0.39907 0.05582 0.0
C534 C 0.8904 0.31498 0.16434 0.0
C535 C 0.85652 0.32551 0.17085 0.0
C536 C 0.91672 0.33904 0.15084 0.0
C537 C 0.90923 0.37373 0.14337 0.0
C538 C 0.87491 0.38375 0.14949 0.0
C539 C 0.84895 0.35997 0.16338 0.0
C540 C 0.95207 0.45964 0.11015 0.0
C541 C 0.96681 0.44634 0.08176 0.0
C542 C 0.93706 0.43594 0.13279 0.0
C543 C 0.93534 0.39862 0.12643 0.0
C544 C 0.95393 0.38576 0.09998 0.0
C545 C 0.96991 0.40965 0.07785 0.0
H546 H 0.6764 0.87172 0.22655 0.0
H547 H 0.62735 0.77371 0.17288 0.0
H548 H 0.64161 0.90651 0.18909 0.0
H549 H 0.59576 0.80798 0.13325 0.0
H550 H 0.55114 0.87398 0.05647 0.0
H551 H 0.5591 0.84516 0.10934 0.0
H552 H 0.65485 0.92235 0.13699 0.0
H553 H 0.64433 0.9528 0.08618 0.0
C554 C 0.65759 0.85774 0.207 0.0
C555 C 0.65487 0.82043 0.20186 0.0
C556 C 0.63803 0.87752 0.18525 0.0
C557 C 0.61724 0.86032 0.15702 0.0
C558 C 0.61149 0.82246 0.15442 0.0
C559 C 0.62982 0.80265 0.17706 0.0
C560 C 0.57347 0.88493 0.07427 0.0
C561 C 0.5971 0.91556 0.06734 0.0
C562 C 0.57818 0.86838 0.10454 0.0
C563 C 0.60764 0.88125 0.12778 0.0
C564 C 0.63112 0.91207 0.12055 0.0
C565 C 0.62559 0.92926 0.09095 0.0
H566 H 0.1784 0.73785 0.12373 0.0
H567 H 0.23662 0.65684 0.16771 0.0
H568 H 0.15537 0.69568 0.07672 0.0
H569 H 0.21597 0.61543 0.12005 0.0
H570 H 0.11635 0.54127 0.06695 0.0
H571 H 0.16127 0.58037 0.10277 0.0
H572 H 0.16415 0.66109 0.02847 0.0
H573 H 0.11748 0.62228 0.99349 0.0
C574 C 0.18653 0.71113 0.12296 0.0
C575 C 0.20799 0.69992 0.14957 0.0
C576 C 0.17395 0.68709 0.09588 0.0
C577 C 0.18358 0.65187 0.09467 0.0
C578 C 0.2072 0.64186 0.12049 0.0
C579 C 0.21889 0.66549 0.14783 0.0
C580 C 0.12785 0.56666 0.05764 0.0
C581 C 0.11305 0.57922 0.02797 0.0
C582 C 0.15361 0.58932 0.07825 0.0
C583 C 0.16537 0.62456 0.06904 0.0
C584 C 0.15458 0.63471 0.03688 0.0
C585 C 0.12833 0.6123 0.0166 0.0
H586 H 0.30599 0.86895 0.79293 0.0
H587 H 0.29839 0.78324 0.86198 0.0
H588 H 0.34961 0.90561 0.83232 0.0
H589 H 0.34208 0.8202 0.9017 0.0
H590 H 0.46582 0.86745 0.92036 0.0
H591 H 0.40882 0.8361 0.89388 0.0
H592 H 0.36461 0.93691 0.88831 0.0
H593 H 0.4219 0.96845 0.91424 0.0
C594 C 0.31275 0.85847 0.81705 0.0
C595 C 0.29933 0.82316 0.82429 0.0
C596 C 0.33762 0.8795 0.83966 0.0
C597 C 0.34963 0.86544 0.86976 0.0
C598 C 0.33357 0.83139 0.87838 0.0
C599 C 0.30836 0.81042 0.85583 0.0
C600 C 0.44396 0.88292 0.91348 0.0
C601 C 0.4484 0.92042 0.91909 0.0
C602 C 0.41112 0.86491 0.89886 0.0
C603 C 0.38223 0.88409 0.88938 0.0
C604 C 0.38646 0.92152 0.89546 0.0
C605 C 0.41923 0.93951 0.91027 0.0
H606 H 0.17572 0.26378 0.7886 0.0
H607 H 0.27108 0.29864 0.85511 0.0
H608 H 0.14023 0.30096 0.8217 0.0
H609 H 0.23574 0.33496 0.88875 0.0
H610 H 0.17082 0.42274 0.92581 0.0
H611 H 0.20587 0.38806 0.89016 0.0
H612 H 0.11401 0.30453 0.87478 0.0
H613 H 0.07887 0.33933 0.90988 0.0
C614 C 0.18915 0.27955 0.81016 0.0
C615 C 0.2263 0.27837 0.81899 0.0
C616 C 0.16872 0.30062 0.82946 0.0
C617 C 0.18491 0.32122 0.85815 0.0
C618 C 0.22221 0.32 0.86676 0.0
C619 C 0.24248 0.29881 0.84759 0.0
C620 C 0.158 0.39702 0.91481 0.0
C621 C 0.12183 0.38405 0.921 0.0
C622 C 0.17825 0.37693 0.8944 0.0
C623 C 0.163 0.34323 0.87937 0.0
C624 C 0.12673 0.33045 0.88538 0.0
C625 C 0.10656 0.35045 0.90585 0.0
H626 H 0.61612 0.19505 0.80128 0.0
H627 H 0.70008 0.1802 0.87771 0.0
H628 H 0.56955 0.18164 0.84105 0.0
H629 H 0.65407 0.16672 0.91716 0.0
H630 H 0.58219 0.13998 0.98636 0.0
H631 H 0.60493 0.18643 0.9493 0.0
H632 H 0.55107 0.12185 0.86412 0.0
H633 H 0.52747 0.07626 0.90139 0.0
C634 C 0.62453 0.18925 0.82669 0.0
C635 C 0.66138 0.18769 0.83648 0.0
C636 C 0.59801 0.18201 0.84941 0.0
C637 C 0.60818 0.17347 0.88219 0.0
C638 C 0.64537 0.174 0.89228 0.0
C639 C 0.67173 0.18099 0.86957 0.0
C640 C 0.5737 0.13686 0.95987 0.0
C641 C 0.55403 0.10464 0.94628 0.0
C642 C 0.5866 0.16331 0.93873 0.0
C643 C 0.58089 0.15696 0.90389 0.0
C644 C 0.55618 0.12731 0.89088 0.0
C645 C 0.54283 0.10106 0.91213 0.0
H646 H 0.86212 0.74795 0.83581 0.0
H647 H 0.80087 0.6605 0.77489 0.0
H648 H 0.89593 0.70594 0.86514 0.0
H649 H 0.83502 0.6176 0.80483 0.0
H650 H 0.87187 0.55924 0.90459 0.0
H651 H 0.84101 0.59419 0.86371 0.0
H652 H 0.94132 0.66503 0.85756 0.0
H653 H 0.97196 0.63061 0.89832 0.0
C654 C 0.85624 0.71963 0.82832 0.0
C655 C 0.82896 0.70767 0.80283 0.0
C656 C 0.87581 0.69543 0.84513 0.0
C657 C 0.86851 0.65821 0.8374 0.0
C658 C 0.84138 0.64605 0.81152 0.0
C659 C 0.82203 0.6706 0.79415 0.0
C660 C 0.88759 0.58178 0.89397 0.0
C661 C 0.92444 0.59222 0.9053 0.0
C662 C 0.86983 0.60184 0.87042 0.0
C663 C 0.88842 0.63291 0.85766 0.0
C664 C 0.92584 0.64177 0.86729 0.0
C665 C 0.94353 0.6218 0.89067 0.0
H666 H 0.16039 0.24707 0.14748 0.0
H667 H 0.222 0.33397 0.20879 0.0
H668 H 0.12745 0.28947 0.11781 0.0
H669 H 0.18868 0.3773 0.17852 0.0
H670 H 0.15257 0.43741 0.07978 0.0
H671 H 0.1829 0.40164 0.12031 0.0
H672 H 0.08243 0.33047 0.12426 0.0
H673 H 0.05231 0.36577 0.08388 0.0
C674 C 0.16656 0.27537 0.15499 0.0
C675 C 0.1937 0.28699 0.18073 0.0
C676 C 0.14746 0.29982 0.13796 0.0
C677 C 0.15504 0.33704 0.14568 0.0
C678 C 0.18207 0.34888 0.17177 0.0
C679 C 0.20096 0.32407 0.18935 0.0
C680 C 0.13669 0.41461 0.08984 0.0
C681 C 0.09992 0.40444 0.07801 0.0
C682 C 0.15416 0.39404 0.11319 0.0
C683 C 0.13543 0.36264 0.12529 0.0
C684 C 0.09809 0.35394 0.11507 0.0
C685 C 0.08068 0.37443 0.09191 0.0
H686 H 0.1425 0.70863 0.83888 0.0
H687 H 0.14884 0.62882 0.75966 0.0
H688 H 0.09872 0.66646 0.8651 0.0
H689 H 0.10421 0.58696 0.78521 0.0
H690 H 0.02277 0.58604 0.9098 0.0
H691 H 0.03997 0.62638 0.86541 0.0
H692 H 0.11862 0.55744 0.83662 0.0
H693 H 0.10115 0.5174 0.8803 0.0
C694 C 0.1337 0.68238 0.82668 0.0
C695 C 0.14957 0.67139 0.79795 0.0
C696 C 0.10832 0.65841 0.84138 0.0
C697 C 0.09845 0.62329 0.82734 0.0
C698 C 0.11181 0.61369 0.79678 0.0
C699 C 0.13741 0.63751 0.7823 0.0
C700 C 0.04284 0.57908 0.89323 0.0
C701 C 0.06119 0.54914 0.89878 0.0
C702 C 0.05276 0.60215 0.86797 0.0
C703 C 0.08085 0.59521 0.84781 0.0
C704 C 0.09665 0.5634 0.85151 0.0
C705 C 0.08699 0.54066 0.87682 0.0
H706 H 0.4012 0.22892 0.81966 0.0
H707 H 0.36424 0.13027 0.7616 0.0
H708 H 0.43362 0.19626 0.86024 0.0
H709 H 0.40001 0.09755 0.80018 0.0
H710 H 0.39294 0.0474 0.90093 0.0
H711 H 0.38335 0.07916 0.85087 0.0
H712 H 0.47255 0.16128 0.88546 0.0
H713 H 0.47978 0.13053 0.93749 0.0
C714 C 0.4017 0.20039 0.81478 0.0
C715 C 0.37969 0.18168 0.78832 0.0
C716 C 0.42048 0.18155 0.83799 0.0
C717 C 0.41823 0.14386 0.83435 0.0
C718 C 0.40078 0.12627 0.80472 0.0
C719 C 0.3807 0.14492 0.78235 0.0
C720 C 0.41052 0.07227 0.8979 0.0
C721 C 0.43697 0.08659 0.92318 0.0
C722 C 0.40554 0.09027 0.86872 0.0
C723 C 0.4275 0.12276 0.86357 0.0
C724 C 0.45478 0.13661 0.8886 0.0
C725 C 0.459 0.11901 0.91841 0.0
H726 H 0.85495 0.33145 0.80043 0.0
H727 H 0.77852 0.28046 0.86634 0.0
H728 H 0.87842 0.37594 0.84478 0.0
H729 H 0.80231 0.32539 0.91093 0.0
H730 H 0.90796 0.4628 0.91822 0.0
H731 H 0.86123 0.4273 0.88031 0.0
H732 H 0.86325 0.3373 0.944 0.0
H733 H 0.90968 0.37271 0.98178 0.0
C734 C 0.84316 0.32965 0.82439 0.0
C735 C 0.81524 0.30202 0.82997 0.0
C736 C 0.85618 0.35559 0.84964 0.0
C737 C 0.84177 0.35445 0.88114 0.0
C738 C 0.81373 0.32698 0.8868 0.0
C739 C 0.8004 0.30112 0.86136 0.0
C740 C 0.89707 0.43608 0.92495 0.0
C741 C 0.9129 0.42009 0.9524 0.0
C742 C 0.87063 0.41564 0.90309 0.0
C743 C 0.8595 0.37927 0.90878 0.0
C744 C 0.87146 0.36517 0.93887 0.0
C745 C 0.89809 0.38544 0.9605 0.0
H746 H 0.68666 0.87195 0.79085 0.0
H747 H 0.79748 0.88635 0.83483 0.0
H748 H 0.67289 0.92143 0.82687 0.0
H749 H 0.78357 0.93581 0.87139 0.0
H750 H 0.64855 0.00705 0.88935 0.0
H751 H 0.68646 0.98773 0.84626 0.0
H752 H 0.74017 0.92597 0.91859 0.0
H753 H 0.70222 0.94539 0.9614 0.0
C754 C 0.70824 0.88632 0.80771 0.0
C755 C 0.74284 0.87516 0.81061 0.0
C756 C 0.70056 0.91491 0.82804 0.0
C757 C 0.72727 0.93241 0.85188 0.0
C758 C 0.76263 0.92275 0.85315 0.0
C759 C 0.77046 0.89446 0.83239 0.0
C760 C 0.6699 0.99096 0.89628 0.0
C761 C 0.67279 0.97753 0.92833 0.0
C762 C 0.6914 0.97982 0.8717 0.0
C763 C 0.71574 0.95499 0.87906 0.0
C764 C 0.72179 0.94533 0.91233 0.0
C765 C 0.70012 0.95635 0.93684 0.0
H766 H 0.79459 0.74657 0.12706 0.0
H767 H 0.82035 0.68167 0.20937 0.0
H768 H 0.82927 0.71179 0.09075 0.0
H769 H 0.85447 0.6464 0.17309 0.0
H770 H 0.87235 0.56763 0.0814 0.0
H771 H 0.83885 0.60261 0.11886 0.0
H772 H 0.89763 0.70089 0.08779 0.0
H773 H 0.93174 0.66612 0.05117 0.0
C774 C 0.80796 0.72509 0.13755 0.0
C775 C 0.8054 0.7176 0.1715 0.0
C776 C 0.82783 0.70512 0.11671 0.0
C777 C 0.8448 0.67626 0.12893 0.0
C778 C 0.84181 0.66841 0.16279 0.0
C779 C 0.82269 0.68904 0.18383 0.0
C780 C 0.87814 0.59669 0.08254 0.0
C781 C 0.90488 0.61393 0.06315 0.0
C782 C 0.85907 0.61675 0.10418 0.0
C783 C 0.86551 0.65463 0.1064 0.0
C784 C 0.89183 0.67182 0.08665 0.0
C785 C 0.9115 0.6518 0.0657 0.0
H786 H 0.32277 0.84021 0.11431 0.0
H787 H 0.40237 0.81307 0.18972 0.0
H788 H 0.37051 0.85226 0.076 0.0
H789 H 0.45051 0.8254 0.15119 0.0
H790 H 0.44423 0.85898 0.00455 0.0
H791 H 0.41586 0.81925 0.04475 0.0
H792 H 0.47542 0.88571 0.12596 0.0
H793 H 0.50416 0.92499 0.08567 0.0
C794 C 0.35051 0.83688 0.12261 0.0
C795 C 0.35912 0.82614 0.15486 0.0
C796 C 0.3777 0.84307 0.10057 0.0
C797 C 0.41396 0.83881 0.11052 0.0
C798 C 0.42265 0.82827 0.14291 0.0
C799 C 0.39527 0.82166 0.1649 0.0
C800 C 0.45284 0.86368 0.03093 0.0
C801 C 0.47553 0.89512 0.04238 0.0
C802 C 0.4366 0.84112 0.05386 0.0
C803 C 0.4426 0.85038 0.08823 0.0
C804 C 0.47019 0.87826 0.09952 0.0
C805 C 0.48664 0.90075 0.0765 0.0
H806 H 0.74256 0.18805 0.13842 0.0
H807 H 0.70721 0.12534 0.22128 0.0
H808 H 0.69725 0.15096 0.10082 0.0
H809 H 0.66211 0.0882 0.18351 0.0
H810 H 0.61859 0.06757 0.03913 0.0
H811 H 0.67271 0.09104 0.07483 0.0
H812 H 0.60525 0.10722 0.15637 0.0
H813 H 0.55102 0.08231 0.12071 0.0
C814 C 0.72609 0.16559 0.14842 0.0
C815 C 0.7279 0.16015 0.18294 0.0
C816 C 0.70004 0.14437 0.12686 0.0
C817 C 0.67559 0.11739 0.13952 0.0
C818 C 0.68008 0.10947 0.17334 0.0
C819 C 0.70612 0.13058 0.19487 0.0
C820 C 0.61534 0.07514 0.06485 0.0
C821 C 0.58071 0.07234 0.07739 0.0
C822 C 0.64634 0.08904 0.08518 0.0
C823 C 0.64323 0.10042 0.11846 0.0
C824 C 0.60851 0.09785 0.13097 0.0
C825 C 0.57748 0.0841 0.11053 0.0
H826 H 0.667 0.72562 0.82802 0.0
H827 H 0.70253 0.63067 0.78412 0.0
H828 H 0.62815 0.6881 0.86338 0.0
H829 H 0.66529 0.59337 0.82008 0.0
H830 H 0.58019 0.52522 0.87243 0.0
H831 H 0.61108 0.56536 0.83399 0.0
H832 H 0.61964 0.65272 0.90879 0.0
H833 H 0.58688 0.61234 0.9464 0.0
C834 C 0.66674 0.69674 0.82585 0.0
C835 C 0.68817 0.68162 0.80262 0.0
C836 C 0.64438 0.67492 0.84652 0.0
C837 C 0.64264 0.63693 0.84513 0.0
C838 C 0.66441 0.62206 0.82195 0.0
C839 C 0.68639 0.64378 0.80116 0.0
C840 C 0.58752 0.55333 0.88023 0.0
C841 C 0.57977 0.56552 0.91231 0.0
C842 C 0.60621 0.57653 0.85831 0.0
C843 C 0.6191 0.61294 0.86778 0.0
C844 C 0.61026 0.62535 0.89971 0.0
C845 C 0.59105 0.60211 0.9215 0.0
H846 H 0.29345 0.69233 0.83213 0.0
H847 H 0.37661 0.6814 0.7636 0.0
H848 H 0.32729 0.66077 0.87406 0.0
H849 H 0.41058 0.65083 0.80554 0.0
H850 H 0.47793 0.63416 0.90664 0.0
H851 H 0.44487 0.66562 0.86415 0.0
H852 H 0.34551 0.59681 0.87917 0.0
H853 H 0.37822 0.56506 0.92078 0.0
C854 C 0.31888 0.68322 0.82603 0.0
C855 C 0.3322 0.68932 0.79448 0.0
C856 C 0.33827 0.66515 0.84999 0.0
C857 C 0.37179 0.65343 0.8432 0.0
C858 C 0.38512 0.6598 0.81173 0.0
C859 C 0.36544 0.67715 0.78761 0.0
C860 C 0.44914 0.62551 0.90063 0.0
C861 C 0.43095 0.59689 0.9172 0.0
C862 C 0.43017 0.64356 0.87631 0.0
C863 C 0.39242 0.63395 0.8685 0.0
C864 C 0.3744 0.60522 0.88486 0.0
C865 C 0.39339 0.58679 0.90856 0.0
H866 H 0.37647 0.33463 0.78422 0.0
H867 H 0.27089 0.365 0.80336 0.0
H868 H 0.40345 0.37077 0.83372 0.0
H869 H 0.29835 0.40111 0.85315 0.0
H870 H 0.40986 0.37132 0.94891 0.0
H871 H 0.3677 0.35047 0.90065 0.0
H872 H 0.37425 0.45858 0.8669 0.0
H873 H 0.41653 0.47987 0.91536 0.0
C874 C 0.35923 0.34985 0.79834 0.0
C875 C 0.32153 0.34666 0.79006 0.0
C876 C 0.37466 0.37041 0.82665 0.0
C877 C 0.35272 0.38819 0.84708 0.0
C878 C 0.31562 0.3876 0.83752 0.0
C879 C 0.30009 0.36707 0.80898 0.0
C880 C 0.4012 0.39093 0.93201 0.0
C881 C 0.417 0.42706 0.93555 0.0
C882 C 0.37715 0.37898 0.90445 0.0
C883 C 0.36841 0.40298 0.88017 0.0
C884 C 0.38073 0.43977 0.88552 0.0
C885 C 0.40477 0.45185 0.9133 0.0
H886 H 0.75175 0.35699 0.78854 0.0
H887 H 0.66793 0.26576 0.77717 0.0
H888 H 0.71981 0.38356 0.83192 0.0
H889 H 0.63728 0.29042 0.82304 0.0
H890 H 0.57049 0.36006 0.88322 0.0
H891 H 0.6019 0.33265 0.83977 0.0
H892 H 0.70524 0.38386 0.88638 0.0
H893 H 0.67328 0.41298 0.92868 0.0
C894 C 0.7266 0.34227 0.79565 0.0
C895 C 0.71278 0.30876 0.77974 0.0
C896 C 0.70841 0.35734 0.82107 0.0
C897 C 0.67589 0.33923 0.8318 0.0
C898 C 0.66199 0.30563 0.81562 0.0
C899 C 0.67998 0.29088 0.78968 0.0
C900 C 0.59995 0.36547 0.88423 0.0
C901 C 0.61928 0.38893 0.90949 0.0
C902 C 0.61815 0.34943 0.85929 0.0
C903 C 0.65642 0.35577 0.85908 0.0
C904 C 0.67577 0.37875 0.88487 0.0
C905 C 0.65745 0.39537 0.90945 0.0
H906 H 0.73317 0.29812 0.16164 0.0
H907 H 0.64979 0.31552 0.2282 0.0
H908 H 0.70065 0.32793 0.11745 0.0
H909 H 0.61706 0.34427 0.18404 0.0
H910 H 0.55124 0.35633 0.08101 0.0
H911 H 0.58318 0.3263 0.12538 0.0
H912 H 0.68385 0.39218 0.10881 0.0
H913 H 0.65225 0.42256 0.06536 0.0
C914 C 0.70799 0.30829 0.16684 0.0
C915 C 0.69421 0.30452 0.1985 0.0
C916 C 0.68933 0.32534 0.14157 0.0
C917 C 0.65607 0.33829 0.14715 0.0
C918 C 0.64232 0.33429 0.17876 0.0
C919 C 0.6613 0.31801 0.20416 0.0
C920 C 0.58009 0.36459 0.08702 0.0
C921 C 0.59896 0.39207 0.06958 0.0
C922 C 0.59842 0.34738 0.11243 0.0
C923 C 0.63619 0.35665 0.12046 0.0
C924 C 0.65492 0.38408 0.10304 0.0
C925 C 0.63657 0.40173 0.07826 0.0
H926 H 0.75302 0.62483 0.18861 0.0
H927 H 0.65063 0.66773 0.19422 0.0
H928 H 0.72747 0.58743 0.13886 0.0
H929 H 0.62573 0.63069 0.14469 0.0
H930 H 0.61342 0.51124 0.07338 0.0
H931 H 0.65446 0.53549 0.12176 0.0
H932 H 0.66293 0.64068 0.08121 0.0
H933 H 0.62212 0.61684 0.03298 0.0
C934 C 0.72482 0.6255 0.17992 0.0
C935 C 0.70389 0.6495 0.19514 0.0
C936 C 0.71042 0.60425 0.15142 0.0
C937 C 0.67504 0.60688 0.13798 0.0
C938 C 0.6533 0.62871 0.15461 0.0
C939 C 0.66753 0.64976 0.18298 0.0
C940 C 0.62546 0.53915 0.07396 0.0
C941 C 0.61399 0.56242 0.04984 0.0
C942 C 0.64879 0.55295 0.1017 0.0
C943 C 0.66102 0.5899 0.10517 0.0
C944 C 0.65341 0.61209 0.07897 0.0
C945 C 0.63016 0.59843 0.05141 0.0
H946 H 0.30222 0.72022 0.15658 0.0
H947 H 0.36436 0.67671 0.23666 0.0
H948 H 0.33129 0.68608 0.11544 0.0
H949 H 0.39441 0.64324 0.19514 0.0
H950 H 0.46583 0.62559 0.10424 0.0
H951 H 0.43725 0.65841 0.1467 0.0
H952 H 0.33107 0.61699 0.10007 0.0
H953 H 0.35971 0.58326 0.05768 0.0
C954 C 0.32248 0.70375 0.16544 0.0
C955 C 0.33095 0.70116 0.19999 0.0
C956 C 0.33888 0.68394 0.1418 0.0
C957 C 0.36483 0.66166 0.15203 0.0
C958 C 0.37444 0.66014 0.18651 0.0
C959 C 0.35739 0.6794 0.21027 0.0
C960 C 0.43635 0.6233 0.10301 0.0
C961 C 0.41506 0.60184 0.0774 0.0
C962 C 0.42002 0.642 0.12751 0.0
C963 C 0.38196 0.64039 0.12671 0.0
C964 C 0.36052 0.6189 0.1012 0.0
C965 C 0.37688 0.59947 0.07704 0.0
H966 H 0.32419 0.36135 0.20173 0.0
H967 H 0.35442 0.26491 0.1557 0.0
H968 H 0.36328 0.39773 0.16644 0.0
H969 H 0.39498 0.30138 0.12099 0.0
H970 H 0.43964 0.37703 0.0392 0.0
H971 H 0.40512 0.33743 0.07623 0.0
H972 H 0.41873 0.42342 0.15272 0.0
H973 H 0.45155 0.46292 0.11488 0.0
C974 C 0.3395 0.34768 0.18434 0.0
C975 C 0.33569 0.30973 0.18208 0.0
C976 C 0.36255 0.36885 0.16394 0.0
C977 C 0.38337 0.35325 0.14035 0.0
C978 C 0.37958 0.31514 0.13818 0.0
C979 C 0.35621 0.29391 0.15848 0.0
C980 C 0.43629 0.38706 0.06436 0.0
C981 C 0.44964 0.4231 0.07419 0.0
C982 C 0.41602 0.36428 0.08581 0.0
C983 C 0.40804 0.37661 0.11806 0.0
C984 C 0.42292 0.41239 0.12817 0.0
C985 C 0.44275 0.43515 0.10659 0.0
H986 H 0.74096 0.61694 0.63143 0.0
H987 H 0.85079 0.64357 0.67664 0.0
H988 H 0.76515 0.5947 0.58015 0.0
H989 H 0.87465 0.62171 0.62568 0.0
H990 H 0.90521 0.63847 0.52219 0.0
H991 H 0.86793 0.65358 0.56696 0.0
H992 H 0.8101 0.54593 0.5589 0.0
H993 H 0.84754 0.53038 0.51395 0.0
C994 C 0.77012 0.61696 0.63077 0.0
C995 C 0.79414 0.63231 0.6577 0.0
C996 C 0.78385 0.60452 0.60145 0.0
C997 C 0.82163 0.60761 0.5989 0.0
C998 C 0.84537 0.61994 0.62693 0.0
C999 C 0.83174 0.63208 0.65614 0.0
C1000 C 0.88383 0.61828 0.52914 0.0
C1001 C 0.87997 0.583 0.51511 0.0
C1002 C 0.86268 0.62689 0.55489 0.0
C1003 C 0.83711 0.6005 0.56683 0.0
C1004 C 0.83 0.56652 0.5502 0.0
C1005 C 0.85133 0.55778 0.52438 0.0
H1006 H 0.39062 0.78821 0.6531 0.0
H1007 H 0.37739 0.8701 0.72836 0.0
H1008 H 0.43239 0.83141 0.62585 0.0
H1009 H 0.42004 0.91308 0.7018 0.0
H1010 H 0.50379 0.9144 0.57894 0.0
H1011 H 0.48872 0.87529 0.62472 0.0
H1012 H 0.40331 0.93832 0.6485 0.0
H1013 H 0.4185 0.97714 0.60338 0.0
C1014 C 0.39753 0.81519 0.66427 0.0
C1015 C 0.38019 0.82639 0.69204 0.0
C1016 C 0.42177 0.83979 0.64898 0.0
C1017 C 0.42899 0.87571 0.66152 0.0
C1018 C 0.41443 0.88569 0.69139 0.0
C1019 C 0.38995 0.86123 0.70641 0.0
C1020 C 0.48247 0.92031 0.59454 0.0
C1021 C 0.46167 0.94813 0.58716 0.0
C1022 C 0.47387 0.89798 0.62068 0.0
C1023 C 0.4447 0.90362 0.63993 0.0
C1024 C 0.42618 0.93346 0.63433 0.0
C1025 C 0.43454 0.95544 0.60814 0.0
H1026 H 0.19129 0.38318 0.69722 0.0
H1027 H 0.11128 0.29688 0.7234 0.0
H1028 H 0.14332 0.41802 0.68049 0.0
H1029 H 0.06237 0.33213 0.70679 0.0
H1030 H 0.02475 0.36528 0.59664 0.0
H1031 H 0.04436 0.34196 0.64924 0.0
H1032 H 0.09095 0.44904 0.68566 0.0
H1033 H 0.07265 0.47224 0.6321 0.0
C1034 C 0.16329 0.37208 0.70011 0.0
C1035 C 0.15473 0.33705 0.7104 0.0
C1036 C 0.13563 0.39231 0.69112 0.0
C1037 C 0.09878 0.37771 0.69194 0.0
C1038 C 0.09045 0.34393 0.70555 0.0
C1039 C 0.11833 0.3237 0.71478 0.0
C1040 C 0.03797 0.38412 0.61628 0.0
C1041 C 0.04943 0.42008 0.60966 0.0
C1042 C 0.04887 0.37078 0.64679 0.0
C1043 C 0.07111 0.39345 0.67084 0.0
C1044 C 0.07523 0.43075 0.66688 0.0
C1045 C 0.06494 0.444 0.63614 0.0
H1046 H 0.74846 0.19832 0.63022 0.0
H1047 H 0.67165 0.14209 0.6928 0.0
H1048 H 0.72404 0.15766 0.58277 0.0
H1049 H 0.64729 0.10174 0.6453 0.0
H1050 H 0.61595 0.12132 0.51008 0.0
H1051 H 0.66296 0.15143 0.55056 0.0
H1052 H 0.66229 0.0538 0.6042 0.0
H1053 H 0.61504 0.02355 0.56358 0.0
C1054 C 0.72643 0.17728 0.63392 0.0
C1055 C 0.71152 0.17381 0.66517 0.0
C1056 C 0.71271 0.15389 0.60678 0.0
C1057 C 0.68407 0.1264 0.61046 0.0
C1058 C 0.66989 0.12228 0.64192 0.0
C1059 C 0.68341 0.14579 0.66899 0.0
C1060 C 0.62697 0.10585 0.52969 0.0
C1061 C 0.6113 0.07047 0.53425 0.0
C1062 C 0.65396 0.12307 0.55286 0.0
C1063 C 0.66543 0.10515 0.58097 0.0
C1064 C 0.65328 0.06833 0.58302 0.0
C1065 C 0.62651 0.05095 0.55959 0.0
H1066 H 0.77807 0.29654 0.36454 0.0
H1067 H 0.81871 0.36642 0.28844 0.0
H1068 H 0.8198 0.33195 0.40664 0.0
H1069 H 0.86098 0.40077 0.33003 0.0
H1070 H 0.93237 0.46244 0.41057 0.0
H1071 H 0.87518 0.43902 0.37936 0.0
H1072 H 0.88509 0.33322 0.41497 0.0
H1073 H 0.94121 0.357 0.44756 0.0
C1074 C 0.7952 0.31994 0.35692 0.0
C1075 C 0.79574 0.32821 0.32308 0.0
C1076 C 0.81931 0.34002 0.38098 0.0
C1077 C 0.84426 0.3686 0.37152 0.0
C1078 C 0.84212 0.37897 0.33823 0.0
C1079 C 0.818 0.35904 0.31427 0.0
C1080 C 0.922 0.43436 0.4123 0.0
C1081 C 0.94144 0.41158 0.43147 0.0
C1082 C 0.88929 0.42091 0.39426 0.0
C1083 C 0.87555 0.38429 0.3947 0.0
C1084 C 0.89453 0.36171 0.41456 0.0
C1085 C 0.92708 0.37523 0.4328 0.0
H1086 H 0.6706 0.75698 0.28939 0.0
H1087 H 0.75925 0.7775 0.36585 0.0
H1088 H 0.6355 0.79613 0.32092 0.0
H1089 H 0.72439 0.81627 0.39749 0.0
H1090 H 0.66584 0.91043 0.43187 0.0
H1091 H 0.70068 0.87373 0.39783 0.0
H1092 H 0.60354 0.79876 0.37211 0.0
H1093 H 0.5687 0.83545 0.40589 0.0
C1094 C 0.68261 0.76984 0.31291 0.0
C1095 C 0.7177 0.76387 0.32509 0.0
C1096 C 0.66241 0.79219 0.33118 0.0
C1097 C 0.67688 0.80957 0.362 0.0
C1098 C 0.71225 0.80382 0.37383 0.0
C1099 C 0.73221 0.78122 0.35577 0.0
C1100 C 0.65179 0.88621 0.41888 0.0
C1101 C 0.61425 0.87612 0.42192 0.0
C1102 C 0.67191 0.86494 0.39942 0.0
C1103 C 0.65515 0.83299 0.38205 0.0
C1104 C 0.61751 0.82324 0.38469 0.0
C1105 C 0.59748 0.84431 0.40436 0.0
H1106 H 0.22861 0.61545 0.31081 0.0
H1107 H 0.13871 0.67812 0.30236 0.0
H1108 H 0.19535 0.57571 0.34809 0.0
H1109 H 0.10562 0.63866 0.3403 0.0
H1110 H 0.05144 0.54408 0.39718 0.0
H1111 H 0.07783 0.57452 0.35012 0.0
H1112 H 0.18253 0.59321 0.40677 0.0
H1113 H 0.15624 0.56344 0.45379 0.0
C1114 C 0.20152 0.62034 0.31664 0.0
C1115 C 0.18629 0.65 0.30453 0.0
C1116 C 0.18259 0.59772 0.33786 0.0
C1117 C 0.1484 0.60472 0.34733 0.0
C1118 C 0.13199 0.63283 0.3332 0.0
C1119 C 0.15092 0.65542 0.31177 0.0
C1120 C 0.07992 0.55521 0.39969 0.0
C1121 C 0.10172 0.55188 0.42919 0.0
C1122 C 0.095 0.57222 0.37272 0.0
C1123 C 0.13215 0.58564 0.37489 0.0
C1124 C 0.15392 0.5823 0.40435 0.0
C1125 C 0.13883 0.56554 0.4313 0.0
H1126 H 0.3002 0.16091 0.27767 0.0
H1127 H 0.36365 0.24898 0.33607 0.0
H1128 H 0.3344 0.11825 0.30789 0.0
H1129 H 0.39724 0.20727 0.36589 0.0
H1130 H 0.47145 0.1318 0.40258 0.0
H1131 H 0.44152 0.16638 0.36145 0.0
H1132 H 0.34132 0.09464 0.36513 0.0
H1133 H 0.3716 0.05942 0.40608 0.0
C1134 C 0.32187 0.1712 0.29641 0.0
C1135 C 0.32936 0.20842 0.30426 0.0
C1136 C 0.34125 0.14678 0.314 0.0
C1137 C 0.36891 0.15912 0.33942 0.0
C1138 C 0.37679 0.19648 0.34625 0.0
C1139 C 0.3573 0.22056 0.32914 0.0
C1140 C 0.44321 0.12287 0.3943 0.0
C1141 C 0.42403 0.09284 0.40818 0.0
C1142 C 0.42586 0.14296 0.37073 0.0
C1143 C 0.38862 0.13392 0.36021 0.0
C1144 C 0.36998 0.10253 0.37242 0.0
C1145 C 0.38742 0.08229 0.39606 0.0
H1146 H 0.7197 0.82999 0.70747 0.0
H1147 H 0.65818 0.74188 0.64761 0.0
H1148 H 0.68451 0.87237 0.67805 0.0
H1149 H 0.62351 0.7834 0.61858 0.0
H1150 H 0.5474 0.85831 0.5839 0.0
H1151 H 0.57812 0.82351 0.62434 0.0
H1152 H 0.67749 0.8965 0.62087 0.0
H1153 H 0.64654 0.93182 0.58054 0.0
C1154 C 0.69825 0.81961 0.68856 0.0
C1155 C 0.69158 0.7825 0.68006 0.0
C1156 C 0.67829 0.84388 0.67145 0.0
C1157 C 0.65086 0.83146 0.64587 0.0
C1158 C 0.64379 0.79417 0.63836 0.0
C1159 C 0.66389 0.77023 0.655 0.0
C1160 C 0.57563 0.86746 0.59209 0.0
C1161 C 0.59443 0.89783 0.5784 0.0
C1162 C 0.5934 0.84726 0.61526 0.0
C1163 C 0.63064 0.85663 0.62559 0.0
C1164 C 0.64885 0.88837 0.61368 0.0
C1165 C 0.63101 0.90867 0.5904 0.0
H1166 H 0.65057 0.20148 0.35677 0.0
H1167 H 0.62815 0.14194 0.26154 0.0
H1168 H 0.60727 0.15763 0.38184 0.0
H1169 H 0.5856 0.09742 0.28697 0.0
H1170 H 0.59515 0.01401 0.37964 0.0
H1171 H 0.61159 0.05749 0.33772 0.0
H1172 H 0.53601 0.12526 0.3747 0.0
H1173 H 0.5192 0.08159 0.41625 0.0
C1174 C 0.6358 0.17938 0.34117 0.0
C1175 C 0.64273 0.17458 0.30754 0.0
C1176 C 0.61086 0.15462 0.35531 0.0
C1177 C 0.59324 0.12452 0.33607 0.0
C1178 C 0.59878 0.12071 0.30199 0.0
C1179 C 0.62312 0.14597 0.28764 0.0
C1180 C 0.58123 0.03763 0.37807 0.0
C1181 C 0.55635 0.0449 0.40142 0.0
C1182 C 0.5903 0.06222 0.35393 0.0
C1183 C 0.57501 0.0945 0.35336 0.0
C1184 C 0.54787 0.10034 0.37478 0.0
C1185 C 0.53833 0.07543 0.39849 0.0
H1186 H 0.83313 0.60763 0.29963 0.0
H1187 H 0.91147 0.69254 0.26813 0.0
H1188 H 0.88208 0.57349 0.31601 0.0
H1189 H 0.96105 0.65808 0.28427 0.0
H1190 H 0.9583 0.51882 0.35866 0.0
H1191 H 0.93461 0.54222 0.307 0.0
H1192 H 0.9813 0.64965 0.34223 0.0
H1193 H 1.0058 0.62624 0.39314 0.0
C1194 C 0.86087 0.61854 0.29552 0.0
C1195 C 0.86881 0.65299 0.28369 0.0
C1196 C 0.889 0.59875 0.30433 0.0
C1197 C 0.9256 0.61321 0.30161 0.0
C1198 C 0.93317 0.64641 0.28685 0.0
C1199 C 0.90489 0.66619 0.27792 0.0
C1200 C 0.96483 0.54724 0.35467 0.0
C1201 C 0.98195 0.57112 0.38057 0.0
C1202 C 0.95141 0.56058 0.32503 0.0
C1203 C 0.95446 0.59788 0.32144 0.0
C1204 C 0.97782 0.62077 0.34449 0.0
C1205 C 0.99164 0.60738 0.37397 0.0
H1206 H 0.29341 0.86185 0.30018 0.0
H1207 H 0.33479 0.77218 0.34657 0.0
H1208 H 0.3134 0.90009 0.35036 0.0
H1209 H 0.35776 0.81055 0.3957 0.0
H1210 H 0.39689 0.8752 0.48276 0.0
H1211 H 0.34961 0.84313 0.44345 0.0
H1212 H 0.36613 0.92991 0.37575 0.0
H1213 H 0.41064 0.96275 0.41629 0.0
C1214 C 0.30754 0.85069 0.32107 0.0
C1215 C 0.31367 0.81463 0.31957 0.0
C1216 C 0.31887 0.87244 0.34986 0.0
C1217 C 0.33751 0.85872 0.37727 0.0
C1218 C 0.34284 0.82215 0.37564 0.0
C1219 C 0.33044 0.80019 0.34725 0.0
C1220 C 0.38888 0.88799 0.46014 0.0
C1221 C 0.4077 0.92095 0.45209 0.0
C1222 C 0.36231 0.86942 0.43731 0.0
C1223 C 0.35529 0.88298 0.40559 0.0
C1224 C 0.37076 0.91824 0.39967 0.0
C1225 C 0.39643 0.93728 0.42301 0.0
H1226 H 0.17647 0.35017 0.31391 0.0
H1227 H 0.28897 0.37431 0.35271 0.0
H1228 H 0.15685 0.36951 0.36769 0.0
H1229 H 0.26905 0.39401 0.40683 0.0
H1230 H 0.13263 0.3485 0.47108 0.0
H1231 H 0.16815 0.33448 0.42459 0.0
H1232 H 0.22588 0.44214 0.43321 0.0
H1233 H 0.19038 0.45656 0.47987 0.0
C1234 C 0.197 0.36064 0.33363 0.0
C1235 C 0.23414 0.36034 0.32942 0.0
C1236 C 0.18579 0.37127 0.36445 0.0
C1237 C 0.21155 0.38203 0.39143 0.0
C1238 C 0.24883 0.38527 0.38636 0.0
C1239 C 0.26012 0.37434 0.35542 0.0
C1240 C 0.15382 0.36882 0.46399 0.0
C1241 C 0.15792 0.40392 0.47846 0.0
C1242 C 0.17394 0.36085 0.43727 0.0
C1243 C 0.19866 0.38771 0.42488 0.0
C1244 C 0.20657 0.42123 0.44223 0.0
C1245 C 0.18634 0.42931 0.46905 0.0
H1246 H 0.26155 0.21438 0.62307 0.0
H1247 H 0.3522 0.23571 0.69748 0.0
H1248 H 0.29547 0.17521 0.59086 0.0
H1249 H 0.38629 0.19613 0.66544 0.0
H1250 H 0.45081 0.15539 0.58007 0.0
H1251 H 0.41678 0.19263 0.61398 0.0
H1252 H 0.31907 0.11784 0.59017 0.0
H1253 H 0.35314 0.08059 0.55584 0.0
C1254 C 0.28885 0.2108 0.63254 0.0
C1255 C 0.30421 0.22848 0.66282 0.0
C1256 C 0.30825 0.18796 0.61417 0.0
C1257 C 0.34384 0.18226 0.62531 0.0
C1258 C 0.35919 0.20004 0.65569 0.0
C1259 C 0.3396 0.22269 0.67423 0.0
C1260 C 0.42208 0.14667 0.58203 0.0
C1261 C 0.40491 0.11476 0.56491 0.0
C1262 C 0.40251 0.16807 0.60179 0.0
C1263 C 0.36497 0.15852 0.60502 0.0
C1264 C 0.34779 0.12647 0.58809 0.0
C1265 C 0.36746 0.10489 0.56848 0.0
H1266 H 0.90085 0.29905 0.68295 0.0
H1267 H 0.80347 0.31359 0.62215 0.0
H1268 H 0.93822 0.33243 0.64343 0.0
H1269 H 0.84006 0.34738 0.58363 0.0
H1270 H 0.97254 0.44445 0.59639 0.0
H1271 H 0.94694 0.3962 0.63063 0.0
H1272 H 0.88378 0.34479 0.54293 0.0
H1273 H 0.90783 0.39383 0.50956 0.0
C1274 C 0.88762 0.30903 0.66093 0.0
C1275 C 0.84952 0.30436 0.6555 0.0
C1276 C 0.90885 0.32809 0.6385 0.0
C1277 C 0.89199 0.34243 0.61058 0.0
C1278 C 0.8539 0.33608 0.60459 0.0
C1279 C 0.83287 0.31708 0.62681 0.0
C1280 C 0.95315 0.4227 0.58476 0.0
C1281 C 0.94076 0.42315 0.55103 0.0
C1282 C 0.93899 0.39491 0.60405 0.0
C1283 C 0.91294 0.36717 0.58941 0.0
C1284 C 0.90307 0.36639 0.55495 0.0
C1285 C 0.91649 0.39447 0.53599 0.0
H1286 H 0.21457 0.62904 0.70149 0.0
H1287 H 0.25337 0.70221 0.62723 0.0
H1288 H 0.17626 0.59244 0.65852 0.0
H1289 H 0.21577 0.66455 0.58368 0.0
H1290 H 0.10894 0.52892 0.57717 0.0
H1291 H 0.16525 0.55446 0.60885 0.0
H1292 H 0.15065 0.65943 0.57359 0.0
H1293 H 0.09561 0.63369 0.54065 0.0
C1294 C 0.21579 0.6367 0.67577 0.0
C1295 C 0.23615 0.66901 0.66781 0.0
C1296 C 0.19401 0.61546 0.65101 0.0
C1297 C 0.1924 0.62601 0.61776 0.0
C1298 C 0.21584 0.65625 0.60926 0.0
C1299 C 0.23753 0.67768 0.63414 0.0
C1300 C 0.11818 0.55723 0.57555 0.0
C1301 C 0.09765 0.57925 0.55651 0.0
C1302 C 0.15038 0.57194 0.59384 0.0
C1303 C 0.16245 0.60897 0.59376 0.0
C1304 C 0.14256 0.63069 0.57376 0.0
C1305 C 0.11059 0.61597 0.55531 0.0
loop_
_geom_bond_atom_site_label_1
_geom_bond_atom_site_label_2
_geom_bond_distance
_geom_bond_site_symmetry_2
_ccdc_geom_bond_type
Tb0 O3 2.453 . S
Tb0 O4 2.596 . S
Tb0 O5 2.374 . S
Tb0 O13 2.343 . S
Tb0 O15 2.353 . S
Tb0 O17 2.427 . S
Tb0 O18 2.513 . S
C1 O5 1.251 . S
C1 O7 1.263 . S
Tb2 O4 2.343 . S
Tb2 O7 2.353 . S
Tb2 O10 2.427 . S
Tb2 O11 2.513 . S
Tb2 O12 2.453 . S
Tb2 O13 2.596 . S
Tb2 O14 2.374 . S
O3 Tb0 2.453 . S
O3 C19 1.245 . S
O4 Tb0 2.596 . S
O4 Tb2 2.343 . S
O4 C19 1.259 . S
O5 Tb0 2.374 . S
O5 C1 1.251 . S
C6 O10 1.275 . S
C6 O11 1.246 . S
O7 C1 1.263 . S
O7 Tb2 2.353 . S
C8 O12 1.245 . S
C8 O13 1.259 . S
C9 O14 1.250 . S
C9 O15 1.263 . S
O10 Tb2 2.427 . S
O10 C6 1.275 . S
O11 Tb2 2.513 . S
O11 C6 1.246 . S
O12 Tb2 2.453 . S
O12 C8 1.245 . S
O13 Tb0 2.343 . S
O13 Tb2 2.596 . S
O13 C8 1.259 . S
O14 Tb2 2.374 . S
O14 C9 1.250 . S
O15 Tb0 2.353 . S
O15 C9 1.263 . S
C16 O17 1.275 . S
C16 O18 1.246 . S
O17 Tb0 2.427 . S
O17 C16 1.275 . S
O18 Tb0 2.513 . S
O18 C16 1.246 . S
C19 O3 1.245 . S
C19 O4 1.259 . S
Tb20 O23 2.453 . S
Tb20 O24 2.596 . S
Tb20 O25 2.374 . S
Tb20 O33 2.343 . S
Tb20 O35 2.353 . S
Tb20 O37 2.427 . S
Tb20 O38 2.513 . S
C21 O25 1.251 . S
C21 O27 1.263 . S
Tb22 O24 2.343 . S
Tb22 O27 2.353 . S
Tb22 O30 2.427 . S
Tb22 O31 2.513 . S
Tb22 O32 2.453 . S
Tb22 O33 2.596 . S
Tb22 O34 2.374 . S
O23 Tb20 2.453 . S
O23 C39 1.245 . S
O24 Tb20 2.596 . S
O24 Tb22 2.343 . S
O24 C39 1.259 . S
O25 Tb20 2.374 . S
O25 C21 1.251 . S
C26 O30 1.275 . S
C26 O31 1.246 . S
O27 C21 1.263 . S
O27 Tb22 2.353 . S
C28 O32 1.245 . S
C28 O33 1.259 . S
C29 O34 1.250 . S
C29 O35 1.263 . S
O30 Tb22 2.427 . S
O30 C26 1.275 . S
O31 Tb22 2.513 . S
O31 C26 1.246 . S
O32 Tb22 2.453 . S
O32 C28 1.245 . S
O33 Tb20 2.343 . S
O33 Tb22 2.596 . S
O33 C28 1.259 . S
O34 Tb22 2.374 . S
O34 C29 1.250 . S
O35 Tb20 2.353 . S
O35 C29 1.263 . S
C36 O37 1.275 . S
C36 O38 1.246 . S
O37 Tb20 2.427 . S
O37 C36 1.275 . S
O38 Tb20 2.513 . S
O38 C36 1.246 . S
C39 O23 1.245 . S
C39 O24 1.259 . S
Tb40 O43 2.453 . S
Tb40 O44 2.596 . S
Tb40 O45 2.374 . S
Tb40 O53 2.343 . S
Tb40 O55 2.353 . S
Tb40 O57 2.427 . S
Tb40 O58 2.513 . S
C41 O45 1.251 . S
C41 O47 1.263 . S
Tb42 O44 2.343 . S
Tb42 O47 2.353 . S
Tb42 O50 2.427 . S
Tb42 O51 2.513 . S
Tb42 O52 2.453 . S
Tb42 O53 2.596 . S
Tb42 O54 2.374 . S
O43 Tb40 2.453 . S
O43 C59 1.245 . S
O44 Tb40 2.596 . S
O44 Tb42 2.343 . S
O44 C59 1.259 . S
O45 Tb40 2.374 . S
O45 C41 1.251 . S
C46 O50 1.275 . S
C46 O51 1.246 . S
O47 C41 1.263 . S
O47 Tb42 2.353 . S
C48 O52 1.245 . S
C48 O53 1.259 . S
C49 O54 1.250 . S
C49 O55 1.263 . S
O50 Tb42 2.427 . S
O50 C46 1.275 . S
O51 Tb42 2.513 . S
O51 C46 1.246 . S
O52 Tb42 2.453 . S
O52 C48 1.245 . S
O53 Tb40 2.343 . S
O53 Tb42 2.596 . S
O53 C48 1.259 . S
O54 Tb42 2.374 . S
O54 C49 1.250 . S
O55 Tb40 2.353 . S
O55 C49 1.263 . S
C56 O57 1.275 . S
C56 O58 1.246 . S
O57 Tb40 2.427 . S
O57 C56 1.275 . S
O58 Tb40 2.513 . S
O58 C56 1.246 . S
C59 O43 1.245 . S
C59 O44 1.259 . S
Tb60 O63 2.453 . S
Tb60 O64 2.596 . S
Tb60 O65 2.374 . S
Tb60 O73 2.343 . S
Tb60 O75 2.353 . S
Tb60 O77 2.427 . S
Tb60 O78 2.513 . S
C61 O65 1.251 . S
C61 O67 1.263 . S
Tb62 O64 2.343 . S
Tb62 O67 2.353 . S
Tb62 O70 2.427 . S
Tb62 O71 2.513 . S
Tb62 O72 2.453 . S
Tb62 O73 2.596 . S
Tb62 O74 2.374 . S
O63 Tb60 2.453 . S
O63 C79 1.245 . S
O64 Tb60 2.596 . S
O64 Tb62 2.343 . S
O64 C79 1.259 . S
O65 Tb60 2.374 . S
O65 C61 1.251 . S
C66 O70 1.275 . S
C66 O71 1.246 . S
O67 C61 1.263 . S
O67 Tb62 2.353 . S
C68 O72 1.245 . S
C68 O73 1.259 . S
C69 O74 1.250 . S
C69 O75 1.263 . S
O70 Tb62 2.427 . S
O70 C66 1.275 . S
O71 Tb62 2.513 . S
O71 C66 1.246 . S
O72 Tb62 2.453 . S
O72 C68 1.245 . S
O73 Tb60 2.343 . S
O73 Tb62 2.596 . S
O73 C68 1.259 . S
O74 Tb62 2.374 . S
O74 C69 1.250 . S
O75 Tb60 2.353 . S
O75 C69 1.263 . S
C76 O77 1.275 . S
C76 O78 1.246 . S
O77 Tb60 2.427 . S
O77 C76 1.275 . S
O78 Tb60 2.513 . S
O78 C76 1.246 . S
C79 O63 1.245 . S
C79 O64 1.259 . S
Tb80 O83 2.453 . S
Tb80 O84 2.596 . S
Tb80 O85 2.374 . S
Tb80 O93 2.343 . S
Tb80 O95 2.353 . S
Tb80 O97 2.427 . S
Tb80 O98 2.513 . S
C81 O85 1.251 . S
C81 O87 1.263 . S
Tb82 O84 2.343 . S
Tb82 O87 2.353 . S
Tb82 O90 2.427 . S
Tb82 O91 2.513 . S
Tb82 O92 2.453 . S
Tb82 O93 2.596 . S
Tb82 O94 2.374 . S
O83 Tb80 2.453 . S
O83 C99 1.245 . S
O84 Tb80 2.596 . S
O84 Tb82 2.343 . S
O84 C99 1.259 . S
O85 Tb80 2.374 . S
O85 C81 1.251 . S
C86 O90 1.275 . S
C86 O91 1.246 . S
O87 C81 1.263 . S
O87 Tb82 2.353 . S
C88 O92 1.245 . S
C88 O93 1.259 . S
C89 O94 1.250 . S
C89 O95 1.263 . S
O90 Tb82 2.427 . S
O90 C86 1.275 . S
O91 Tb82 2.513 . S
O91 C86 1.246 . S
O92 Tb82 2.453 . S
O92 C88 1.245 . S
O93 Tb80 2.343 . S
O93 Tb82 2.596 . S
O93 C88 1.259 . S
O94 Tb82 2.374 . S
O94 C89 1.250 . S
O95 Tb80 2.353 . S
O95 C89 1.263 . S
C96 O97 1.275 . S
C96 O98 1.246 . S
O97 Tb80 2.427 . S
O97 C96 1.275 . S
O98 Tb80 2.513 . S
O98 C96 1.246 . S
C99 O83 1.245 . S
C99 O84 1.259 . S
Tb100 O103 2.453 . S
Tb100 O104 2.596 . S
Tb100 O105 2.374 . S
Tb100 O113 2.343 . S
Tb100 O115 2.353 . S
Tb100 O117 2.427 . S
Tb100 O118 2.513 . S
C101 O105 1.251 . S
C101 O107 1.263 . S
Tb102 O104 2.343 . S
Tb102 O107 2.353 . S
Tb102 O110 2.427 . S
Tb102 O111 2.513 . S
Tb102 O112 2.453 . S
Tb102 O113 2.596 . S
Tb102 O114 2.374 . S
O103 Tb100 2.453 . S
O103 C119 1.245 . S
O104 Tb100 2.596 . S
O104 Tb102 2.343 . S
O104 C119 1.259 . S
O105 Tb100 2.374 . S
O105 C101 1.251 . S
C106 O110 1.275 . S
C106 O111 1.246 . S
O107 C101 1.263 . S
O107 Tb102 2.353 . S
C108 O112 1.245 . S
C108 O113 1.259 . S
C109 O114 1.250 . S
C109 O115 1.263 . S
O110 Tb102 2.427 . S
O110 C106 1.275 . S
O111 Tb102 2.513 . S
O111 C106 1.246 . S
O112 Tb102 2.453 . S
O112 C108 1.245 . S
O113 Tb100 2.343 . S
O113 Tb102 2.596 . S
O113 C108 1.259 . S
O114 Tb102 2.374 . S
O114 C109 1.250 . S
O115 Tb100 2.353 . S
O115 C109 1.263 . S
C116 O117 1.275 . S
C116 O118 1.246 . S
O117 Tb100 2.427 . S
O117 C116 1.275 . S
O118 Tb100 2.513 . S
O118 C116 1.246 . S
C119 O103 1.245 . S
C119 O104 1.259 . S
Tb120 O123 2.453 . S
Tb120 O124 2.596 . S
Tb120 O125 2.374 . S
Tb120 O133 2.343 . S
Tb120 O135 2.353 . S
Tb120 O137 2.427 . S
Tb120 O138 2.513 . S
C121 O125 1.251 . S
C121 O127 1.263 . S
Tb122 O124 2.343 . S
Tb122 O127 2.353 . S
Tb122 O130 2.427 . S
Tb122 O131 2.513 . S
Tb122 O132 2.453 . S
Tb122 O133 2.596 . S
Tb122 O134 2.374 . S
O123 Tb120 2.453 . S
O123 C139 1.245 . S
O124 Tb120 2.596 . S
O124 Tb122 2.343 . S
O124 C139 1.259 . S
O125 Tb120 2.374 . S
O125 C121 1.251 . S
C126 O130 1.275 . S
C126 O131 1.246 . S
O127 C121 1.263 . S
O127 Tb122 2.353 . S
C128 O132 1.245 . S
C128 O133 1.259 . S
C129 O134 1.250 . S
C129 O135 1.263 . S
O130 Tb122 2.427 . S
O130 C126 1.275 . S
O131 Tb122 2.513 . S
O131 C126 1.246 . S
O132 Tb122 2.453 . S
O132 C128 1.245 . S
O133 Tb120 2.343 . S
O133 Tb122 2.596 . S
O133 C128 1.259 . S
O134 Tb122 2.374 . S
O134 C129 1.250 . S
O135 Tb120 2.353 . S
O135 C129 1.263 . S
C136 O137 1.275 . S
C136 O138 1.246 . S
O137 Tb120 2.427 . S
O137 C136 1.275 . S
O138 Tb120 2.513 . S
O138 C136 1.246 . S
C139 O123 1.245 . S
C139 O124 1.259 . S
Tb140 O143 2.453 . S
Tb140 O144 2.596 . S
Tb140 O145 2.374 . S
Tb140 O153 2.343 . S
Tb140 O155 2.353 . S
Tb140 O157 2.427 . S
Tb140 O158 2.513 . S
C141 O145 1.251 . S
C141 O147 1.263 . S
Tb142 O144 2.343 . S
Tb142 O147 2.353 . S
Tb142 O150 2.427 . S
Tb142 O151 2.513 . S
Tb142 O152 2.453 . S
Tb142 O153 2.596 . S
Tb142 O154 2.374 . S
O143 Tb140 2.453 . S
O143 C159 1.245 . S
O144 Tb140 2.596 . S
O144 Tb142 2.343 . S
O144 C159 1.259 . S
O145 Tb140 2.374 . S
O145 C141 1.251 . S
C146 O150 1.275 . S
C146 O151 1.246 . S
O147 C141 1.263 . S
O147 Tb142 2.353 . S
C148 O152 1.245 . S
C148 O153 1.259 . S
C149 O154 1.250 . S
C149 O155 1.263 . S
O150 Tb142 2.427 . S
O150 C146 1.275 . S
O151 Tb142 2.513 . S
O151 C146 1.246 . S
O152 Tb142 2.453 . S
O152 C148 1.245 . S
O153 Tb140 2.343 . S
O153 Tb142 2.596 . S
O153 C148 1.259 . S
O154 Tb142 2.374 . S
O154 C149 1.250 . S
O155 Tb140 2.353 . S
O155 C149 1.263 . S
C156 O157 1.275 . S
C156 O158 1.246 . S
O157 Tb140 2.427 . S
O157 C156 1.275 . S
O158 Tb140 2.513 . S
O158 C156 1.246 . S
C159 O143 1.245 . S
C159 O144 1.259 . S
C160 O172 1.241 . S
C160 O173 1.280 . S
C161 O174 1.277 . S
C161 O175 1.245 . S
C162 O186 1.247 . S
C162 O188 1.289 . S
Mg163 O164 1.926 . S
Mg163 O173 1.984 . S
Mg163 O175 1.988 . S
Mg163 O176 2.061 1_655 S
O164 Mg163 1.926 . S
O164 Mg165 1.986 . S
O164 Mg166 1.917 1_655 S
Mg165 O164 1.986 . S
Mg165 O172 2.042 . S
Mg165 O174 2.041 . S
Mg165 O180 2.038 1_545 S
Mg165 O188 2.238 1_545 S
Mg166 O164 1.917 1_455 S
Mg166 O167 1.917 1_545 S
Mg166 O177 2.106 . S
Mg166 O179 2.079 1_445 S
Mg166 O188 2.106 1_445 S
Mg166 O189 2.079 . S
O167 Mg166 1.917 1_565 S
O167 Mg168 1.926 . S
O167 Mg169 1.986 . S
Mg168 O167 1.926 . S
Mg168 O182 1.984 . S
Mg168 O185 1.988 . S
Mg168 O186 2.061 1_455 S
Mg169 O167 1.986 . S
Mg169 O177 2.238 1_565 S
Mg169 O181 2.042 . S
Mg169 O183 2.041 . S
Mg169 O190 2.038 1_565 S
C170 O176 1.247 . S
C170 O177 1.289 . S
C171 O189 1.245 . S
C171 O190 1.274 . S
O172 C160 1.241 . S
O172 Mg165 2.042 . S
O173 C160 1.280 . S
O173 Mg163 1.984 . S
O174 C161 1.277 . S
O174 Mg165 2.041 . S
O175 C161 1.245 . S
O175 Mg163 1.988 . S
O176 Mg163 2.061 1_455 S
O176 C170 1.247 . S
O177 Mg166 2.106 . S
O177 Mg169 2.238 1_545 S
O177 C170 1.289 . S
C178 O179 1.245 . S
C178 O180 1.274 . S
O179 Mg166 2.079 1_665 S
O179 C178 1.245 . S
O180 Mg165 2.038 1_565 S
O180 C178 1.274 . S
O181 Mg169 2.042 . S
O181 C184 1.241 . S
O182 Mg168 1.984 . S
O182 C184 1.280 . S
O183 Mg169 2.041 . S
O183 C187 1.277 . S
C184 O181 1.241 . S
C184 O182 1.280 . S
O185 Mg168 1.988 . S
O185 C187 1.245 . S
O186 C162 1.247 . S
O186 Mg168 2.061 1_655 S
C187 O183 1.277 . S
C187 O185 1.245 . S
O188 C162 1.289 . S
O188 Mg165 2.238 1_565 S
O188 Mg166 2.106 1_665 S
O189 Mg166 2.079 . S
O189 C171 1.245 . S
O190 Mg169 2.038 1_545 S
O190 C171 1.274 . S
C191 O203 1.241 . S
C191 O204 1.280 . S
C192 O205 1.277 . S
C192 O206 1.245 . S
C193 O217 1.247 . S
C193 O219 1.289 . S
Mg194 O195 1.926 . S
Mg194 O204 1.984 . S
Mg194 O206 1.988 1_554 S
Mg194 O207 2.061 . S
O195 Mg194 1.926 . S
O195 Mg196 1.986 1_554 S
O195 Mg197 1.917 . S
Mg196 O195 1.986 1_556 S
Mg196 O203 2.042 1_556 S
Mg196 O205 2.041 . S
Mg196 O211 2.038 1_546 S
Mg196 O219 2.238 1_545 S
Mg197 O195 1.917 . S
Mg197 O198 1.917 1_544 S
Mg197 O208 2.106 . S
Mg197 O210 2.079 1_545 S
Mg197 O219 2.106 1_544 S
Mg197 O220 2.079 1_554 S
O198 Mg197 1.917 1_566 S
O198 Mg199 1.926 . S
O198 Mg200 1.986 1_556 S
Mg199 O198 1.926 . S
Mg199 O213 1.984 . S
Mg199 O216 1.988 1_556 S
Mg199 O217 2.061 . S
Mg200 O198 1.986 1_554 S
Mg200 O208 2.238 1_565 S
Mg200 O212 2.042 1_554 S
Mg200 O214 2.041 . S
Mg200 O221 2.038 1_564 S
C201 O207 1.247 . S
C201 O208 1.289 . S
C202 O220 1.245 . S
C202 O221 1.274 . S
O203 C191 1.241 . S
O203 Mg196 2.042 1_554 S
O204 C191 1.280 . S
O204 Mg194 1.984 . S
O205 C192 1.277 . S
O205 Mg196 2.041 . S
O206 C192 1.245 . S
O206 Mg194 1.988 1_556 S
O207 Mg194 2.061 . S
O207 C201 1.247 . S
O208 Mg197 2.106 . S
O208 Mg200 2.238 1_545 S
O208 C201 1.289 . S
C209 O210 1.245 . S
C209 O211 1.274 . S
O210 Mg197 2.079 1_565 S
O210 C209 1.245 . S
O211 Mg196 2.038 1_564 S
O211 C209 1.274 . S
O212 Mg200 2.042 1_556 S
O212 C215 1.241 . S
O213 Mg199 1.984 . S
O213 C215 1.280 . S
O214 Mg200 2.041 . S
O214 C218 1.277 . S
C215 O212 1.241 . S
C215 O213 1.280 . S
O216 Mg199 1.988 1_554 S
O216 C218 1.245 . S
O217 C193 1.247 . S
O217 Mg199 2.061 . S
C218 O214 1.277 . S
C218 O216 1.245 . S
O219 C193 1.289 . S
O219 Mg196 2.238 1_565 S
O219 Mg197 2.106 1_566 S
O220 Mg197 2.079 1_556 S
O220 C202 1.245 . S
O221 Mg200 2.038 1_546 S
O221 C202 1.274 . S
C222 O234 1.241 . S
C222 O235 1.280 . S
C223 O236 1.277 . S
C223 O237 1.245 . S
C224 O248 1.247 . S
C224 O250 1.289 . S
Mg225 O226 1.926 . S
Mg225 O235 1.984 . S
Mg225 O237 1.988 1_554 S
Mg225 O238 2.061 1_655 S
O226 Mg225 1.926 . S
O226 Mg227 1.986 1_554 S
O226 Mg228 1.917 1_655 S
Mg227 O226 1.986 1_556 S
Mg227 O234 2.042 1_556 S
Mg227 O236 2.041 . S
Mg227 O242 2.038 1_556 S
Mg227 O250 2.238 . S
Mg228 O226 1.917 1_455 S
Mg228 O229 1.917 1_554 S
Mg228 O239 2.106 . S
Mg228 O241 2.079 1_455 S
Mg228 O250 2.106 1_454 S
Mg228 O251 2.079 1_554 S
O229 Mg228 1.917 1_556 S
O229 Mg230 1.926 . S
O229 Mg231 1.986 1_556 S
Mg230 O229 1.926 . S
Mg230 O244 1.984 . S
Mg230 O247 1.988 1_556 S
Mg230 O248 2.061 1_455 S
Mg231 O229 1.986 1_554 S
Mg231 O239 2.238 . S
Mg231 O243 2.042 1_554 S
Mg231 O245 2.041 . S
Mg231 O252 2.038 1_554 S
C232 O238 1.247 . S
C232 O239 1.289 . S
C233 O251 1.245 . S
C233 O252 1.274 . S
O234 C222 1.241 . S
O234 Mg227 2.042 1_554 S
O235 C222 1.280 . S
O235 Mg225 1.984 . S
O236 C223 1.277 . S
O236 Mg227 2.041 . S
O237 C223 1.245 . S
O237 Mg225 1.988 1_556 S
O238 Mg225 2.061 1_455 S
O238 C232 1.247 . S
O239 Mg228 2.106 . S
O239 Mg231 2.238 . S
O239 C232 1.289 . S
C240 O241 1.245 . S
C240 O242 1.274 . S
O241 Mg228 2.079 1_655 S
O241 C240 1.245 . S
O242 Mg227 2.038 1_554 S
O242 C240 1.274 . S
O243 Mg231 2.042 1_556 S
O243 C246 1.241 . S
O244 Mg230 1.984 . S
O244 C246 1.280 . S
O245 Mg231 2.041 . S
O245 C249 1.277 . S
C246 O243 1.241 . S
C246 O244 1.280 . S
O247 Mg230 1.988 1_554 S
O247 C249 1.245 . S
O248 C224 1.247 . S
O248 Mg230 2.061 1_655 S
C249 O245 1.277 . S
C249 O247 1.245 . S
O250 C224 1.289 . S
O250 Mg227 2.238 . S
O250 Mg228 2.106 1_656 S
O251 Mg228 2.079 1_556 S
O251 C233 1.245 . S
O252 Mg231 2.038 1_556 S
O252 C233 1.274 . S
C253 O265 1.241 . S
C253 O266 1.280 . S
C254 O267 1.277 . S
C254 O268 1.245 . S
C255 O279 1.247 . S
C255 O281 1.289 . S
Mg256 O257 1.926 . S
Mg256 O266 1.984 . S
Mg256 O268 1.988 1_554 S
Mg256 O269 2.061 . S
O257 Mg256 1.926 . S
O257 Mg258 1.986 1_554 S
O257 Mg259 1.917 . S
Mg258 O257 1.986 1_556 S
Mg258 O265 2.042 1_556 S
Mg258 O267 2.041 . S
Mg258 O273 2.038 1_556 S
Mg258 O281 2.238 . S
Mg259 O257 1.917 . S
Mg259 O260 1.917 1_554 S
Mg259 O270 2.106 . S
Mg259 O272 2.079 . S
Mg259 O281 2.106 1_554 S
Mg259 O282 2.079 1_554 S
O260 Mg259 1.917 1_556 S
O260 Mg261 1.926 . S
O260 Mg262 1.986 1_556 S
Mg261 O260 1.926 . S
Mg261 O275 1.984 . S
Mg261 O278 1.988 1_556 S
Mg261 O279 2.061 . S
Mg262 O260 1.986 1_554 S
Mg262 O270 2.238 . S
Mg262 O274 2.042 1_554 S
Mg262 O276 2.041 . S
Mg262 O283 2.038 1_554 S
C263 O269 1.247 . S
C263 O270 1.289 . S
C264 O282 1.245 . S
C264 O283 1.274 . S
O265 C253 1.241 . S
O265 Mg258 2.042 1_554 S
O266 C253 1.280 . S
O266 Mg256 1.984 . S
O267 C254 1.277 . S
O267 Mg258 2.041 . S
O268 C254 1.245 . S
O268 Mg256 1.988 1_556 S
O269 Mg256 2.061 . S
O269 C263 1.247 . S
O270 Mg259 2.106 . S
O270 Mg262 2.238 . S
O270 C263 1.289 . S
C271 O272 1.245 . S
C271 O273 1.274 . S
O272 Mg259 2.079 . S
O272 C271 1.245 . S
O273 Mg258 2.038 1_554 S
O273 C271 1.274 . S
O274 Mg262 2.042 1_556 S
O274 C277 1.241 . S
O275 Mg261 1.984 . S
O275 C277 1.280 . S
O276 Mg262 2.041 . S
O276 C280 1.277 . S
C277 O274 1.241 . S
C277 O275 1.280 . S
O278 Mg261 1.988 1_554 S
O278 C280 1.245 . S
O279 C255 1.247 . S
O279 Mg261 2.061 . S
C280 O276 1.277 . S
C280 O278 1.245 . S
O281 C255 1.289 . S
O281 Mg258 2.238 . S
O281 Mg259 2.106 1_556 S
O282 Mg259 2.079 1_556 S
O282 C264 1.245 . S
O283 Mg262 2.038 1_556 S
O283 C264 1.274 . S
C284 O296 1.241 . S
C284 O297 1.280 . S
C285 O298 1.277 . S
C285 O299 1.245 . S
C286 O310 1.247 . S
C286 O312 1.289 . S
Mg287 O288 1.926 . S
Mg287 O297 1.984 . S
Mg287 O299 1.988 . S
Mg287 O300 2.061 1_655 S
O288 Mg287 1.926 . S
O288 Mg289 1.986 . S
O288 Mg290 1.917 1_655 S
Mg289 O288 1.986 . S
Mg289 O296 2.042 . S
Mg289 O298 2.041 . S
Mg289 O304 2.038 . S
Mg289 O312 2.238 . S
Mg290 O288 1.917 1_455 S
Mg290 O291 1.917 . S
Mg290 O301 2.106 . S
Mg290 O303 2.079 1_455 S
Mg290 O312 2.106 1_455 S
Mg290 O313 2.079 . S
O291 Mg290 1.917 . S
O291 Mg292 1.926 . S
O291 Mg293 1.986 . S
Mg292 O291 1.926 . S
Mg292 O306 1.984 . S
Mg292 O309 1.988 . S
Mg292 O310 2.061 1_455 S
Mg293 O291 1.986 . S
Mg293 O301 2.238 . S
Mg293 O305 2.042 . S
Mg293 O307 2.041 . S
Mg293 O314 2.038 . S
C294 O300 1.247 . S
C294 O301 1.289 . S
C295 O313 1.245 . S
C295 O314 1.274 . S
O296 C284 1.241 . S
O296 Mg289 2.042 . S
O297 C284 1.280 . S
O297 Mg287 1.984 . S
O298 C285 1.277 . S
O298 Mg289 2.041 . S
O299 C285 1.245 . S
O299 Mg287 1.988 . S
O300 Mg287 2.061 1_455 S
O300 C294 1.247 . S
O301 Mg290 2.106 . S
O301 Mg293 2.238 . S
O301 C294 1.289 . S
C302 O303 1.245 . S
C302 O304 1.274 . S
O303 Mg290 2.079 1_655 S
O303 C302 1.245 . S
O304 Mg289 2.038 . S
O304 C302 1.274 . S
O305 Mg293 2.042 . S
O305 C308 1.241 . S
O306 Mg292 1.984 . S
O306 C308 1.280 . S
O307 Mg293 2.041 . S
O307 C311 1.277 . S
C308 O305 1.241 . S
C308 O306 1.280 . S
O309 Mg292 1.988 . S
O309 C311 1.245 . S
O310 C286 1.247 . S
O310 Mg292 2.061 1_655 S
C311 O307 1.277 . S
C311 O309 1.245 . S
O312 C286 1.289 . S
O312 Mg289 2.238 . S
O312 Mg290 2.106 1_655 S
O313 Mg290 2.079 . S
O313 C295 1.245 . S
O314 Mg293 2.038 . S
O314 C295 1.274 . S
C315 O327 1.241 . S
C315 O328 1.280 . S
C316 O329 1.277 . S
C316 O330 1.245 . S
C317 O341 1.247 . S
C317 O343 1.289 . S
Mg318 O319 1.926 . S
Mg318 O328 1.984 . S
Mg318 O330 1.988 . S
Mg318 O331 2.061 . S
O319 Mg318 1.926 . S
O319 Mg320 1.986 . S
O319 Mg321 1.917 . S
Mg320 O319 1.986 . S
Mg320 O327 2.042 . S
Mg320 O329 2.041 . S
Mg320 O335 2.038 1_545 S
Mg320 O343 2.238 1_545 S
Mg321 O319 1.917 . S
Mg321 O322 1.917 1_545 S
Mg321 O332 2.106 . S
Mg321 O334 2.079 1_545 S
Mg321 O343 2.106 1_545 S
Mg321 O344 2.079 . S
O322 Mg321 1.917 1_565 S
O322 Mg323 1.926 . S
O322 Mg324 1.986 . S
Mg323 O322 1.926 . S
Mg323 O337 1.984 . S
Mg323 O340 1.988 . S
Mg323 O341 2.061 . S
Mg324 O322 1.986 . S
Mg324 O332 2.238 1_565 S
Mg324 O336 2.042 . S
Mg324 O338 2.041 . S
Mg324 O345 2.038 1_565 S
C325 O331 1.247 . S
C325 O332 1.289 . S
C326 O344 1.245 . S
C326 O345 1.274 . S
O327 C315 1.241 . S
O327 Mg320 2.042 . S
O328 C315 1.280 . S
O328 Mg318 1.984 . S
O329 C316 1.277 . S
O329 Mg320 2.041 . S
O330 C316 1.245 . S
O330 Mg318 1.988 . S
O331 Mg318 2.061 . S
O331 C325 1.247 . S
O332 Mg321 2.106 . S
O332 Mg324 2.238 1_545 S
O332 C325 1.289 . S
C333 O334 1.245 . S
C333 O335 1.274 . S
O334 Mg321 2.079 1_565 S
O334 C333 1.245 . S
O335 Mg320 2.038 1_565 S
O335 C333 1.274 . S
O336 Mg324 2.042 . S
O336 C339 1.241 . S
O337 Mg323 1.984 . S
O337 C339 1.280 . S
O338 Mg324 2.041 . S
O338 C342 1.277 . S
C339 O336 1.241 . S
C339 O337 1.280 . S
O340 Mg323 1.988 . S
O340 C342 1.245 . S
O341 C317 1.247 . S
O341 Mg323 2.061 . S
C342 O338 1.277 . S
C342 O340 1.245 . S
O343 C317 1.289 . S
O343 Mg320 2.238 1_565 S
O343 Mg321 2.106 1_565 S
O344 Mg321 2.079 . S
O344 C326 1.245 . S
O345 Mg324 2.038 1_545 S
O345 C326 1.274 . S
H346 C354 0.950 . S
H347 C359 0.950 . S
H348 C356 0.950 . S
H349 C358 0.950 . S
H350 C360 0.950 . S
H351 C362 0.950 . S
H352 C364 0.950 . S
H353 C365 0.950 . S
C354 H346 0.950 . S
C354 C355 1.386 . S
C354 C356 1.391 . S
C355 C354 1.386 . S
C355 C359 1.393 . S
C356 H348 0.950 . S
C356 C354 1.391 . S
C356 C357 1.400 . S
C357 C356 1.400 . S
C357 C358 1.398 . S
C357 C363 1.491 . S
C358 H349 0.950 . S
C358 C357 1.398 . S
C358 C359 1.391 . S
C359 H347 0.950 . S
C359 C355 1.393 . S
C359 C358 1.391 . S
C360 H350 0.950 . S
C360 C361 1.386 . S
C360 C362 1.391 . S
C361 C360 1.386 . S
C361 C365 1.393 . S
C362 H351 0.950 . S
C362 C360 1.391 . S
C362 C363 1.400 . S
C363 C357 1.491 . S
C363 C362 1.400 . S
C363 C364 1.398 . S
C364 H352 0.950 . S
C364 C363 1.398 . S
C364 C365 1.391 . S
C365 H353 0.950 . S
C365 C361 1.393 . S
C365 C364 1.391 . S
H366 C374 0.950 . S
H367 C379 0.950 . S
H368 C376 0.950 . S
H369 C378 0.950 . S
H370 C380 0.950 . S
H371 C382 0.950 . S
H372 C384 0.950 . S
H373 C385 0.950 . S
C374 H366 0.950 . S
C374 C375 1.386 . S
C374 C376 1.391 . S
C375 C374 1.386 . S
C375 C379 1.393 . S
C376 H368 0.950 . S
C376 C374 1.391 . S
C376 C377 1.400 . S
C377 C376 1.400 . S
C377 C378 1.398 . S
C377 C383 1.491 . S
C378 H369 0.950 . S
C378 C377 1.398 . S
C378 C379 1.391 . S
C379 H367 0.950 . S
C379 C375 1.393 . S
C379 C378 1.391 . S
C380 H370 0.950 . S
C380 C381 1.386 . S
C380 C382 1.391 . S
C381 C380 1.386 . S
C381 C385 1.393 . S
C382 H371 0.950 . S
C382 C380 1.391 . S
C382 C383 1.400 . S
C383 C377 1.491 . S
C383 C382 1.400 . S
C383 C384 1.398 . S
C384 H372 0.950 . S
C384 C383 1.398 . S
C384 C385 1.391 . S
C385 H373 0.950 . S
C385 C381 1.393 . S
C385 C384 1.391 . S
H386 C394 0.950 . S
H387 C399 0.950 . S
H388 C396 0.950 . S
H389 C398 0.950 . S
H390 C400 0.950 . S
H391 C402 0.950 . S
H392 C404 0.950 . S
H393 C405 0.950 . S
C394 H386 0.950 . S
C394 C395 1.386 . S
C394 C396 1.391 . S
C395 C394 1.386 . S
C395 C399 1.393 . S
C396 H388 0.950 . S
C396 C394 1.391 . S
C396 C397 1.400 . S
C397 C396 1.400 . S
C397 C398 1.398 . S
C397 C403 1.491 . S
C398 H389 0.950 . S
C398 C397 1.398 . S
C398 C399 1.391 . S
C399 H387 0.950 . S
C399 C395 1.393 . S
C399 C398 1.391 . S
C400 H390 0.950 . S
C400 C401 1.386 . S
C400 C402 1.391 . S
C401 C400 1.386 . S
C401 C405 1.393 . S
C402 H391 0.950 . S
C402 C400 1.391 . S
C402 C403 1.400 . S
C403 C397 1.491 . S
C403 C402 1.400 . S
C403 C404 1.398 . S
C404 H392 0.950 . S
C404 C403 1.398 . S
C404 C405 1.391 . S
C405 H393 0.950 . S
C405 C401 1.393 . S
C405 C404 1.391 . S
H406 C414 0.950 . S
H407 C419 0.950 . S
H408 C416 0.950 . S
H409 C418 0.950 . S
H410 C420 0.950 . S
H411 C422 0.950 . S
H412 C424 0.950 . S
H413 C425 0.950 . S
C414 H406 0.950 . S
C414 C415 1.386 . S
C414 C416 1.391 . S
C415 C414 1.386 . S
C415 C419 1.393 . S
C416 H408 0.950 . S
C416 C414 1.391 . S
C416 C417 1.400 . S
C417 C416 1.400 . S
C417 C418 1.398 . S
C417 C423 1.491 . S
C418 H409 0.950 . S
C418 C417 1.398 . S
C418 C419 1.391 . S
C419 H407 0.950 . S
C419 C415 1.393 . S
C419 C418 1.391 . S
C420 H410 0.950 . S
C420 C421 1.386 . S
C420 C422 1.391 . S
C421 C420 1.386 . S
C421 C425 1.393 . S
C422 H411 0.950 . S
C422 C420 1.391 . S
C422 C423 1.400 . S
C423 C417 1.491 . S
C423 C422 1.400 . S
C423 C424 1.398 . S
C424 H412 0.950 . S
C424 C423 1.398 . S
C424 C425 1.391 . S
C425 H413 0.950 . S
C425 C421 1.393 . S
C425 C424 1.391 . S
H426 C434 0.950 . S
H427 C439 0.950 . S
H428 C436 0.950 . S
H429 C438 0.950 . S
H430 C440 0.950 . S
H431 C442 0.950 . S
H432 C444 0.950 . S
H433 C445 0.950 . S
C434 H426 0.950 . S
C434 C435 1.386 . S
C434 C436 1.391 . S
C435 C434 1.386 . S
C435 C439 1.393 . S
C436 H428 0.950 . S
C436 C434 1.391 . S
C436 C437 1.400 . S
C437 C436 1.400 . S
C437 C438 1.398 . S
C437 C443 1.491 . S
C438 H429 0.950 . S
C438 C437 1.398 . S
C438 C439 1.391 . S
C439 H427 0.950 . S
C439 C435 1.393 . S
C439 C438 1.391 . S
C440 H430 0.950 . S
C440 C441 1.386 . S
C440 C442 1.391 . S
C441 C440 1.386 . S
C441 C445 1.393 . S
C442 H431 0.950 . S
C442 C440 1.391 . S
C442 C443 1.400 . S
C443 C437 1.491 . S
C443 C442 1.400 . S
C443 C444 1.398 . S
C444 H432 0.950 . S
C444 C443 1.398 . S
C444 C445 1.391 . S
C445 H433 0.950 . S
C445 C441 1.393 . S
C445 C444 1.391 . S
H446 C454 0.950 . S
H447 C459 0.950 . S
H448 C456 0.950 . S
H449 C458 0.950 . S
H450 C460 0.950 . S
H451 C462 0.950 . S
H452 C464 0.950 . S
H453 C465 0.950 . S
C454 H446 0.950 . S
C454 C455 1.386 . S
C454 C456 1.391 . S
C455 C454 1.386 . S
C455 C459 1.393 . S
C456 H448 0.950 . S
C456 C454 1.391 . S
C456 C457 1.400 . S
C457 C456 1.400 . S
C457 C458 1.398 . S
C457 C463 1.491 . S
C458 H449 0.950 . S
C458 C457 1.398 . S
C458 C459 1.391 . S
C459 H447 0.950 . S
C459 C455 1.393 . S
C459 C458 1.391 . S
C460 H450 0.950 . S
C460 C461 1.386 . S
C460 C462 1.391 . S
C461 C460 1.386 . S
C461 C465 1.393 . S
C462 H451 0.950 . S
C462 C460 1.391 . S
C462 C463 1.400 . S
C463 C457 1.491 . S
C463 C462 1.400 . S
C463 C464 1.398 . S
C464 H452 0.950 . S
C464 C463 1.398 . S
C464 C465 1.391 . S
C465 H453 0.950 . S
C465 C461 1.393 . S
C465 C464 1.391 . S
H466 C474 0.950 . S
H467 C479 0.950 . S
H468 C476 0.950 . S
H469 C478 0.950 . S
H470 C480 0.950 . S
H471 C482 0.950 . S
H472 C484 0.950 . S
H473 C485 0.950 . S
C474 H466 0.950 . S
C474 C475 1.386 . S
C474 C476 1.391 . S
C475 C474 1.386 . S
C475 C479 1.393 . S
C476 H468 0.950 . S
C476 C474 1.391 . S
C476 C477 1.400 . S
C477 C476 1.400 . S
C477 C478 1.398 . S
C477 C483 1.491 . S
C478 H469 0.950 . S
C478 C477 1.398 . S
C478 C479 1.391 . S
C479 H467 0.950 . S
C479 C475 1.393 . S
C479 C478 1.391 . S
C480 H470 0.950 . S
C480 C481 1.386 . S
C480 C482 1.391 . S
C481 C480 1.386 . S
C481 C485 1.393 . S
C482 H471 0.950 . S
C482 C480 1.391 . S
C482 C483 1.400 . S
C483 C477 1.491 . S
C483 C482 1.400 . S
C483 C484 1.398 . S
C484 H472 0.950 . S
C484 C483 1.398 . S
C484 C485 1.391 . S
C485 H473 0.950 . S
C485 C481 1.393 . S
C485 C484 1.391 . S
H486 C494 0.950 . S
H487 C499 0.950 . S
H488 C496 0.950 . S
H489 C498 0.950 . S
H490 C500 0.950 . S
H491 C502 0.950 . S
H492 C504 0.950 . S
H493 C505 0.950 . S
C494 H486 0.950 . S
C494 C495 1.386 . S
C494 C496 1.391 . S
C495 C494 1.386 . S
C495 C499 1.393 . S
C496 H488 0.950 . S
C496 C494 1.391 . S
C496 C497 1.400 . S
C497 C496 1.400 . S
C497 C498 1.398 . S
C497 C503 1.491 . S
C498 H489 0.950 . S
C498 C497 1.398 . S
C498 C499 1.391 . S
C499 H487 0.950 . S
C499 C495 1.393 . S
C499 C498 1.391 . S
C500 H490 0.950 . S
C500 C501 1.386 . S
C500 C502 1.391 . S
C501 C500 1.386 . S
C501 C505 1.393 . S
C502 H491 0.950 . S
C502 C500 1.391 . S
C502 C503 1.400 . S
C503 C497 1.491 . S
C503 C502 1.400 . S
C503 C504 1.398 . S
C504 H492 0.950 . S
C504 C503 1.398 . S
C504 C505 1.391 . S
C505 H493 0.950 . S
C505 C501 1.393 . S
C505 C504 1.391 . S
H506 C514 0.950 . S
H507 C519 0.950 . S
H508 C516 0.950 . S
H509 C518 0.950 . S
H510 C520 0.950 . S
H511 C522 0.950 . S
H512 C524 0.950 . S
H513 C525 0.950 . S
C514 H506 0.950 . S
C514 C515 1.386 . S
C514 C516 1.391 . S
C515 C514 1.386 . S
C515 C519 1.393 . S
C516 H508 0.950 . S
C516 C514 1.391 . S
C516 C517 1.400 . S
C517 C516 1.400 . S
C517 C518 1.398 . S
C517 C523 1.491 . S
C518 H509 0.950 . S
C518 C517 1.398 . S
C518 C519 1.391 . S
C519 H507 0.950 . S
C519 C515 1.393 . S
C519 C518 1.391 . S
C520 H510 0.950 . S
C520 C521 1.386 . S
C520 C522 1.391 . S
C521 C520 1.386 . S
C521 C525 1.393 . S
C522 H511 0.950 . S
C522 C520 1.391 . S
C522 C523 1.400 . S
C523 C517 1.491 . S
C523 C522 1.400 . S
C523 C524 1.398 . S
C524 H512 0.950 . S
C524 C523 1.398 . S
C524 C525 1.391 . S
C525 H513 0.950 . S
C525 C521 1.393 . S
C525 C524 1.391 . S
H526 C534 0.950 . S
H527 C539 0.950 . S
H528 C536 0.950 . S
H529 C538 0.950 . S
H530 C540 0.950 . S
H531 C542 0.950 . S
H532 C544 0.950 . S
H533 C545 0.950 . S
C534 H526 0.950 . S
C534 C535 1.386 . S
C534 C536 1.391 . S
C535 C534 1.386 . S
C535 C539 1.393 . S
C536 H528 0.950 . S
C536 C534 1.391 . S
C536 C537 1.400 . S
C537 C536 1.400 . S
C537 C538 1.398 . S
C537 C543 1.491 . S
C538 H529 0.950 . S
C538 C537 1.398 . S
C538 C539 1.391 . S
C539 H527 0.950 . S
C539 C535 1.393 . S
C539 C538 1.391 . S
C540 H530 0.950 . S
C540 C541 1.386 . S
C540 C542 1.391 . S
C541 C540 1.386 . S
C541 C545 1.393 . S
C542 H531 0.950 . S
C542 C540 1.391 . S
C542 C543 1.400 . S
C543 C537 1.491 . S
C543 C542 1.400 . S
C543 C544 1.398 . S
C544 H532 0.950 . S
C544 C543 1.398 . S
C544 C545 1.391 . S
C545 H533 0.950 . S
C545 C541 1.393 . S
C545 C544 1.391 . S
H546 C554 0.950 . S
H547 C559 0.950 . S
H548 C556 0.950 . S
H549 C558 0.950 . S
H550 C560 0.950 . S
H551 C562 0.950 . S
H552 C564 0.950 . S
H553 C565 0.950 . S
C554 H546 0.950 . S
C554 C555 1.386 . S
C554 C556 1.391 . S
C555 C554 1.386 . S
C555 C559 1.393 . S
C556 H548 0.950 . S
C556 C554 1.391 . S
C556 C557 1.400 . S
C557 C556 1.400 . S
C557 C558 1.398 . S
C557 C563 1.491 . S
C558 H549 0.950 . S
C558 C557 1.398 . S
C558 C559 1.391 . S
C559 H547 0.950 . S
C559 C555 1.393 . S
C559 C558 1.391 . S
C560 H550 0.950 . S
C560 C561 1.386 . S
C560 C562 1.391 . S
C561 C560 1.386 . S
C561 C565 1.393 . S
C562 H551 0.950 . S
C562 C560 1.391 . S
C562 C563 1.400 . S
C563 C557 1.491 . S
C563 C562 1.400 . S
C563 C564 1.398 . S
C564 H552 0.950 . S
C564 C563 1.398 . S
C564 C565 1.391 . S
C565 H553 0.950 . S
C565 C561 1.393 . S
C565 C564 1.391 . S
H566 C574 0.950 . S
H567 C579 0.950 . S
H568 C576 0.950 . S
H569 C578 0.950 . S
H570 C580 0.950 . S
H571 C582 0.950 . S
H572 C584 0.950 . S
H573 C585 0.950 . S
C574 H566 0.950 . S
C574 C575 1.386 . S
C574 C576 1.391 . S
C575 C574 1.386 . S
C575 C579 1.393 . S
C576 H568 0.950 . S
C576 C574 1.391 . S
C576 C577 1.400 . S
C577 C576 1.400 . S
C577 C578 1.398 . S
C577 C583 1.491 . S
C578 H569 0.950 . S
C578 C577 1.398 . S
C578 C579 1.391 . S
C579 H567 0.950 . S
C579 C575 1.393 . S
C579 C578 1.391 . S
C580 H570 0.950 . S
C580 C581 1.386 . S
C580 C582 1.391 . S
C581 C580 1.386 . S
C581 C585 1.393 . S
C582 H571 0.950 . S
C582 C580 1.391 . S
C582 C583 1.400 . S
C583 C577 1.491 . S
C583 C582 1.400 . S
C583 C584 1.398 . S
C584 H572 0.950 . S
C584 C583 1.398 . S
C584 C585 1.391 . S
C585 H573 0.950 . S
C585 C581 1.393 . S
C585 C584 1.391 . S
H586 C594 0.950 . S
H587 C599 0.950 . S
H588 C596 0.950 . S
H589 C598 0.950 . S
H590 C600 0.950 . S
H591 C602 0.950 . S
H592 C604 0.950 . S
H593 C605 0.950 . S
C594 H586 0.950 . S
C594 C595 1.386 . S
C594 C596 1.391 . S
C595 C594 1.386 . S
C595 C599 1.393 . S
C596 H588 0.950 . S
C596 C594 1.391 . S
C596 C597 1.400 . S
C597 C596 1.400 . S
C597 C598 1.398 . S
C597 C603 1.491 . S
C598 H589 0.950 . S
C598 C597 1.398 . S
C598 C599 1.391 . S
C599 H587 0.950 . S
C599 C595 1.393 . S
C599 C598 1.391 . S
C600 H590 0.950 . S
C600 C601 1.386 . S
C600 C602 1.391 . S
C601 C600 1.386 . S
C601 C605 1.393 . S
C602 H591 0.950 . S
C602 C600 1.391 . S
C602 C603 1.400 . S
C603 C597 1.491 . S
C603 C602 1.400 . S
C603 C604 1.398 . S
C604 H592 0.950 . S
C604 C603 1.398 . S
C604 C605 1.391 . S
C605 H593 0.950 . S
C605 C601 1.393 . S
C605 C604 1.391 . S
H606 C614 0.950 . S
H607 C619 0.950 . S
H608 C616 0.950 . S
H609 C618 0.950 . S
H610 C620 0.950 . S
H611 C622 0.950 . S
H612 C624 0.950 . S
H613 C625 0.950 . S
C614 H606 0.950 . S
C614 C615 1.386 . S
C614 C616 1.391 . S
C615 C614 1.386 . S
C615 C619 1.393 . S
C616 H608 0.950 . S
C616 C614 1.391 . S
C616 C617 1.400 . S
C617 C616 1.400 . S
C617 C618 1.398 . S
C617 C623 1.491 . S
C618 H609 0.950 . S
C618 C617 1.398 . S
C618 C619 1.391 . S
C619 H607 0.950 . S
C619 C615 1.393 . S
C619 C618 1.391 . S
C620 H610 0.950 . S
C620 C621 1.386 . S
C620 C622 1.391 . S
C621 C620 1.386 . S
C621 C625 1.393 . S
C622 H611 0.950 . S
C622 C620 1.391 . S
C622 C623 1.400 . S
C623 C617 1.491 . S
C623 C622 1.400 . S
C623 C624 1.398 . S
C624 H612 0.950 . S
C624 C623 1.398 . S
C624 C625 1.391 . S
C625 H613 0.950 . S
C625 C621 1.393 . S
C625 C624 1.391 . S
H626 C634 0.950 . S
H627 C639 0.950 . S
H628 C636 0.950 . S
H629 C638 0.950 . S
H630 C640 0.950 . S
H631 C642 0.950 . S
H632 C644 0.950 . S
H633 C645 0.950 . S
C634 H626 0.950 . S
C634 C635 1.386 . S
C634 C636 1.391 . S
C635 C634 1.386 . S
C635 C639 1.393 . S
C636 H628 0.950 . S
C636 C634 1.391 . S
C636 C637 1.400 . S
C637 C636 1.400 . S
C637 C638 1.398 . S
C637 C643 1.491 . S
C638 H629 0.950 . S
C638 C637 1.398 . S
C638 C639 1.391 . S
C639 H627 0.950 . S
C639 C635 1.393 . S
C639 C638 1.391 . S
C640 H630 0.950 . S
C640 C641 1.386 . S
C640 C642 1.391 . S
C641 C640 1.386 . S
C641 C645 1.393 . S
C642 H631 0.950 . S
C642 C640 1.391 . S
C642 C643 1.400 . S
C643 C637 1.491 . S
C643 C642 1.400 . S
C643 C644 1.398 . S
C644 H632 0.950 . S
C644 C643 1.398 . S
C644 C645 1.391 . S
C645 H633 0.950 . S
C645 C641 1.393 . S
C645 C644 1.391 . S
H646 C654 0.950 . S
H647 C659 0.950 . S
H648 C656 0.950 . S
H649 C658 0.950 . S
H650 C660 0.950 . S
H651 C662 0.950 . S
H652 C664 0.950 . S
H653 C665 0.950 . S
C654 H646 0.950 . S
C654 C655 1.386 . S
C654 C656 1.391 . S
C655 C654 1.386 . S
C655 C659 1.393 . S
C656 H648 0.950 . S
C656 C654 1.391 . S
C656 C657 1.400 . S
C657 C656 1.400 . S
C657 C658 1.398 . S
C657 C663 1.491 . S
C658 H649 0.950 . S
C658 C657 1.398 . S
C658 C659 1.391 . S
C659 H647 0.950 . S
C659 C655 1.393 . S
C659 C658 1.391 . S
C660 H650 0.950 . S
C660 C661 1.386 . S
C660 C662 1.391 . S
C661 C660 1.386 . S
C661 C665 1.393 . S
C662 H651 0.950 . S
C662 C660 1.391 . S
C662 C663 1.400 . S
C663 C657 1.491 . S
C663 C662 1.400 . S
C663 C664 1.398 . S
C664 H652 0.950 . S
C664 C663 1.398 . S
C664 C665 1.391 . S
C665 H653 0.950 . S
C665 C661 1.393 . S
C665 C664 1.391 . S
H666 C674 0.950 . S
H667 C679 0.950 . S
H668 C676 0.950 . S
H669 C678 0.950 . S
H670 C680 0.950 . S
H671 C682 0.950 . S
H672 C684 0.950 . S
H673 C685 0.950 . S
C674 H666 0.950 . S
C674 C675 1.386 . S
C674 C676 1.391 . S
C675 C674 1.386 . S
C675 C679 1.393 . S
C676 H668 0.950 . S
C676 C674 1.391 . S
C676 C677 1.400 . S
C677 C676 1.400 . S
C677 C678 1.398 . S
C677 C683 1.491 . S
C678 H669 0.950 . S
C678 C677 1.398 . S
C678 C679 1.391 . S
C679 H667 0.950 . S
C679 C675 1.393 . S
C679 C678 1.391 . S
C680 H670 0.950 . S
C680 C681 1.386 . S
C680 C682 1.391 . S
C681 C680 1.386 . S
C681 C685 1.393 . S
C682 H671 0.950 . S
C682 C680 1.391 . S
C682 C683 1.400 . S
C683 C677 1.491 . S
C683 C682 1.400 . S
C683 C684 1.398 . S
C684 H672 0.950 . S
C684 C683 1.398 . S
C684 C685 1.391 . S
C685 H673 0.950 . S
C685 C681 1.393 . S
C685 C684 1.391 . S
H686 C694 0.950 . S
H687 C699 0.950 . S
H688 C696 0.950 . S
H689 C698 0.950 . S
H690 C700 0.950 . S
H691 C702 0.950 . S
H692 C704 0.950 . S
H693 C705 0.950 . S
C694 H686 0.950 . S
C694 C695 1.386 . S
C694 C696 1.391 . S
C695 C694 1.386 . S
C695 C699 1.393 . S
C696 H688 0.950 . S
C696 C694 1.391 . S
C696 C697 1.400 . S
C697 C696 1.400 . S
C697 C698 1.398 . S
C697 C703 1.491 . S
C698 H689 0.950 . S
C698 C697 1.398 . S
C698 C699 1.391 . S
C699 H687 0.950 . S
C699 C695 1.393 . S
C699 C698 1.391 . S
C700 H690 0.950 . S
C700 C701 1.386 . S
C700 C702 1.391 . S
C701 C700 1.386 . S
C701 C705 1.393 . S
C702 H691 0.950 . S
C702 C700 1.391 . S
C702 C703 1.400 . S
C703 C697 1.491 . S
C703 C702 1.400 . S
C703 C704 1.398 . S
C704 H692 0.950 . S
C704 C703 1.398 . S
C704 C705 1.391 . S
C705 H693 0.950 . S
C705 C701 1.393 . S
C705 C704 1.391 . S
H706 C714 0.950 . S
H707 C719 0.950 . S
H708 C716 0.950 . S
H709 C718 0.950 . S
H710 C720 0.950 . S
H711 C722 0.950 . S
H712 C724 0.950 . S
H713 C725 0.950 . S
C714 H706 0.950 . S
C714 C715 1.386 . S
C714 C716 1.391 . S
C715 C714 1.386 . S
C715 C719 1.393 . S
C716 H708 0.950 . S
C716 C714 1.391 . S
C716 C717 1.400 . S
C717 C716 1.400 . S
C717 C718 1.398 . S
C717 C723 1.491 . S
C718 H709 0.950 . S
C718 C717 1.398 . S
C718 C719 1.391 . S
C719 H707 0.950 . S
C719 C715 1.393 . S
C719 C718 1.391 . S
C720 H710 0.950 . S
C720 C721 1.386 . S
C720 C722 1.391 . S
C721 C720 1.386 . S
C721 C725 1.393 . S
C722 H711 0.950 . S
C722 C720 1.391 . S
C722 C723 1.400 . S
C723 C717 1.491 . S
C723 C722 1.400 . S
C723 C724 1.398 . S
C724 H712 0.950 . S
C724 C723 1.398 . S
C724 C725 1.391 . S
C725 H713 0.950 . S
C725 C721 1.393 . S
C725 C724 1.391 . S
H726 C734 0.950 . S
H727 C739 0.950 . S
H728 C736 0.950 . S
H729 C738 0.950 . S
H730 C740 0.950 . S
H731 C742 0.950 . S
H732 C744 0.950 . S
H733 C745 0.950 . S
C734 H726 0.950 . S
C734 C735 1.386 . S
C734 C736 1.391 . S
C735 C734 1.386 . S
C735 C739 1.393 . S
C736 H728 0.950 . S
C736 C734 1.391 . S
C736 C737 1.400 . S
C737 C736 1.400 . S
C737 C738 1.398 . S
C737 C743 1.491 . S
C738 H729 0.950 . S
C738 C737 1.398 . S
C738 C739 1.391 . S
C739 H727 0.950 . S
C739 C735 1.393 . S
C739 C738 1.391 . S
C740 H730 0.950 . S
C740 C741 1.386 . S
C740 C742 1.391 . S
C741 C740 1.386 . S
C741 C745 1.393 . S
C742 H731 0.950 . S
C742 C740 1.391 . S
C742 C743 1.400 . S
C743 C737 1.491 . S
C743 C742 1.400 . S
C743 C744 1.398 . S
C744 H732 0.950 . S
C744 C743 1.398 . S
C744 C745 1.391 . S
C745 H733 0.950 . S
C745 C741 1.393 . S
C745 C744 1.391 . S
H746 C754 0.950 . S
H747 C759 0.950 . S
H748 C756 0.950 . S
H749 C758 0.950 . S
H750 C760 0.950 . S
H751 C762 0.950 . S
H752 C764 0.950 . S
H753 C765 0.950 . S
C754 H746 0.950 . S
C754 C755 1.386 . S
C754 C756 1.391 . S
C755 C754 1.386 . S
C755 C759 1.393 . S
C756 H748 0.950 . S
C756 C754 1.391 . S
C756 C757 1.400 . S
C757 C756 1.400 . S
C757 C758 1.398 . S
C757 C763 1.491 . S
C758 H749 0.950 . S
C758 C757 1.398 . S
C758 C759 1.391 . S
C759 H747 0.950 . S
C759 C755 1.393 . S
C759 C758 1.391 . S
C760 H750 0.950 . S
C760 C761 1.386 . S
C760 C762 1.391 . S
C761 C760 1.386 . S
C761 C765 1.393 . S
C762 H751 0.950 . S
C762 C760 1.391 . S
C762 C763 1.400 . S
C763 C757 1.491 . S
C763 C762 1.400 . S
C763 C764 1.398 . S
C764 H752 0.950 . S
C764 C763 1.398 . S
C764 C765 1.391 . S
C765 H753 0.950 . S
C765 C761 1.393 . S
C765 C764 1.391 . S
H766 C774 0.950 . S
H767 C779 0.950 . S
H768 C776 0.950 . S
H769 C778 0.950 . S
H770 C780 0.950 . S
H771 C782 0.950 . S
H772 C784 0.950 . S
H773 C785 0.950 . S
C774 H766 0.950 . S
C774 C775 1.386 . S
C774 C776 1.391 . S
C775 C774 1.386 . S
C775 C779 1.393 . S
C776 H768 0.950 . S
C776 C774 1.391 . S
C776 C777 1.400 . S
C777 C776 1.400 . S
C777 C778 1.398 . S
C777 C783 1.491 . S
C778 H769 0.950 . S
C778 C777 1.398 . S
C778 C779 1.391 . S
C779 H767 0.950 . S
C779 C775 1.393 . S
C779 C778 1.391 . S
C780 H770 0.950 . S
C780 C781 1.386 . S
C780 C782 1.391 . S
C781 C780 1.386 . S
C781 C785 1.393 . S
C782 H771 0.950 . S
C782 C780 1.391 . S
C782 C783 1.400 . S
C783 C777 1.491 . S
C783 C782 1.400 . S
C783 C784 1.398 . S
C784 H772 0.950 . S
C784 C783 1.398 . S
C784 C785 1.391 . S
C785 H773 0.950 . S
C785 C781 1.393 . S
C785 C784 1.391 . S
H786 C794 0.950 . S
H787 C799 0.950 . S
H788 C796 0.950 . S
H789 C798 0.950 . S
H790 C800 0.950 . S
H791 C802 0.950 . S
H792 C804 0.950 . S
H793 C805 0.950 . S
C794 H786 0.950 . S
C794 C795 1.386 . S
C794 C796 1.391 . S
C795 C794 1.386 . S
C795 C799 1.393 . S
C796 H788 0.950 . S
C796 C794 1.391 . S
C796 C797 1.400 . S
C797 C796 1.400 . S
C797 C798 1.398 . S
C797 C803 1.491 . S
C798 H789 0.950 . S
C798 C797 1.398 . S
C798 C799 1.391 . S
C799 H787 0.950 . S
C799 C795 1.393 . S
C799 C798 1.391 . S
C800 H790 0.950 . S
C800 C801 1.386 . S
C800 C802 1.391 . S
C801 C800 1.386 . S
C801 C805 1.393 . S
C802 H791 0.950 . S
C802 C800 1.391 . S
C802 C803 1.400 . S
C803 C797 1.491 . S
C803 C802 1.400 . S
C803 C804 1.398 . S
C804 H792 0.950 . S
C804 C803 1.398 . S
C804 C805 1.391 . S
C805 H793 0.950 . S
C805 C801 1.393 . S
C805 C804 1.391 . S
H806 C814 0.950 . S
H807 C819 0.950 . S
H808 C816 0.950 . S
H809 C818 0.950 . S
H810 C820 0.950 . S
H811 C822 0.950 . S
H812 C824 0.950 . S
H813 C825 0.950 . S
C814 H806 0.950 . S
C814 C815 1.386 . S
C814 C816 1.391 . S
C815 C814 1.386 . S
C815 C819 1.393 . S
C816 H808 0.950 . S
C816 C814 1.391 . S
C816 C817 1.400 . S
C817 C816 1.400 . S
C817 C818 1.398 . S
C817 C823 1.491 . S
C818 H809 0.950 . S
C818 C817 1.398 . S
C818 C819 1.391 . S
C819 H807 0.950 . S
C819 C815 1.393 . S
C819 C818 1.391 . S
C820 H810 0.950 . S
C820 C821 1.386 . S
C820 C822 1.391 . S
C821 C820 1.386 . S
C821 C825 1.393 . S
C822 H811 0.950 . S
C822 C820 1.391 . S
C822 C823 1.400 . S
C823 C817 1.491 . S
C823 C822 1.400 . S
C823 C824 1.398 . S
C824 H812 0.950 . S
C824 C823 1.398 . S
C824 C825 1.391 . S
C825 H813 0.950 . S
C825 C821 1.393 . S
C825 C824 1.391 . S
H826 C834 0.950 . S
H827 C839 0.950 . S
H828 C836 0.950 . S
H829 C838 0.950 . S
H830 C840 0.950 . S
H831 C842 0.950 . S
H832 C844 0.950 . S
H833 C845 0.950 . S
C834 H826 0.950 . S
C834 C835 1.386 . S
C834 C836 1.391 . S
C835 C834 1.386 . S
C835 C839 1.393 . S
C836 H828 0.950 . S
C836 C834 1.391 . S
C836 C837 1.400 . S
C837 C836 1.400 . S
C837 C838 1.398 . S
C837 C843 1.491 . S
C838 H829 0.950 . S
C838 C837 1.398 . S
C838 C839 1.391 . S
C839 H827 0.950 . S
C839 C835 1.393 . S
C839 C838 1.391 . S
C840 H830 0.950 . S
C840 C841 1.386 . S
C840 C842 1.391 . S
C841 C840 1.386 . S
C841 C845 1.393 . S
C842 H831 0.950 . S
C842 C840 1.391 . S
C842 C843 1.400 . S
C843 C837 1.491 . S
C843 C842 1.400 . S
C843 C844 1.398 . S
C844 H832 0.950 . S
C844 C843 1.398 . S
C844 C845 1.391 . S
C845 H833 0.950 . S
C845 C841 1.393 . S
C845 C844 1.391 . S
H846 C854 0.950 . S
H847 C859 0.950 . S
H848 C856 0.950 . S
H849 C858 0.950 . S
H850 C860 0.950 . S
H851 C862 0.950 . S
H852 C864 0.950 . S
H853 C865 0.950 . S
C854 H846 0.950 . S
C854 C855 1.386 . S
C854 C856 1.391 . S
C855 C854 1.386 . S
C855 C859 1.393 . S
C856 H848 0.950 . S
C856 C854 1.391 . S
C856 C857 1.400 . S
C857 C856 1.400 . S
C857 C858 1.398 . S
C857 C863 1.491 . S
C858 H849 0.950 . S
C858 C857 1.398 . S
C858 C859 1.391 . S
C859 H847 0.950 . S
C859 C855 1.393 . S
C859 C858 1.391 . S
C860 H850 0.950 . S
C860 C861 1.386 . S
C860 C862 1.391 . S
C861 C860 1.386 . S
C861 C865 1.393 . S
C862 H851 0.950 . S
C862 C860 1.391 . S
C862 C863 1.400 . S
C863 C857 1.491 . S
C863 C862 1.400 . S
C863 C864 1.398 . S
C864 H852 0.950 . S
C864 C863 1.398 . S
C864 C865 1.391 . S
C865 H853 0.950 . S
C865 C861 1.393 . S
C865 C864 1.391 . S
H866 C874 0.950 . S
H867 C879 0.950 . S
H868 C876 0.950 . S
H869 C878 0.950 . S
H870 C880 0.950 . S
H871 C882 0.950 . S
H872 C884 0.950 . S
H873 C885 0.950 . S
C874 H866 0.950 . S
C874 C875 1.386 . S
C874 C876 1.391 . S
C875 C874 1.386 . S
C875 C879 1.393 . S
C876 H868 0.950 . S
C876 C874 1.391 . S
C876 C877 1.400 . S
C877 C876 1.400 . S
C877 C878 1.398 . S
C877 C883 1.491 . S
C878 H869 0.950 . S
C878 C877 1.398 . S
C878 C879 1.391 . S
C879 H867 0.950 . S
C879 C875 1.393 . S
C879 C878 1.391 . S
C880 H870 0.950 . S
C880 C881 1.386 . S
C880 C882 1.391 . S
C881 C880 1.386 . S
C881 C885 1.393 . S
C882 H871 0.950 . S
C882 C880 1.391 . S
C882 C883 1.400 . S
C883 C877 1.491 . S
C883 C882 1.400 . S
C883 C884 1.398 . S
C884 H872 0.950 . S
C884 C883 1.398 . S
C884 C885 1.391 . S
C885 H873 0.950 . S
C885 C881 1.393 . S
C885 C884 1.391 . S
H886 C894 0.950 . S
H887 C899 0.950 . S
H888 C896 0.950 . S
H889 C898 0.950 . S
H890 C900 0.950 . S
H891 C902 0.950 . S
H892 C904 0.950 . S
H893 C905 0.950 . S
C894 H886 0.950 . S
C894 C895 1.386 . S
C894 C896 1.391 . S
C895 C894 1.386 . S
C895 C899 1.393 . S
C896 H888 0.950 . S
C896 C894 1.391 . S
C896 C897 1.400 . S
C897 C896 1.400 . S
C897 C898 1.398 . S
C897 C903 1.491 . S
C898 H889 0.950 . S
C898 C897 1.398 . S
C898 C899 1.391 . S
C899 H887 0.950 . S
C899 C895 1.393 . S
C899 C898 1.391 . S
C900 H890 0.950 . S
C900 C901 1.386 . S
C900 C902 1.391 . S
C901 C900 1.386 . S
C901 C905 1.393 . S
C902 H891 0.950 . S
C902 C900 1.391 . S
C902 C903 1.400 . S
C903 C897 1.491 . S
C903 C902 1.400 . S
C903 C904 1.398 . S
C904 H892 0.950 . S
C904 C903 1.398 . S
C904 C905 1.391 . S
C905 H893 0.950 . S
C905 C901 1.393 . S
C905 C904 1.391 . S
H906 C914 0.950 . S
H907 C919 0.950 . S
H908 C916 0.950 . S
H909 C918 0.950 . S
H910 C920 0.950 . S
H911 C922 0.950 . S
H912 C924 0.950 . S
H913 C925 0.950 . S
C914 H906 0.950 . S
C914 C915 1.386 . S
C914 C916 1.391 . S
C915 C914 1.386 . S
C915 C919 1.393 . S
C916 H908 0.950 . S
C916 C914 1.391 . S
C916 C917 1.400 . S
C917 C916 1.400 . S
C917 C918 1.398 . S
C917 C923 1.491 . S
C918 H909 0.950 . S
C918 C917 1.398 . S
C918 C919 1.391 . S
C919 H907 0.950 . S
C919 C915 1.393 . S
C919 C918 1.391 . S
C920 H910 0.950 . S
C920 C921 1.386 . S
C920 C922 1.391 . S
C921 C920 1.386 . S
C921 C925 1.393 . S
C922 H911 0.950 . S
C922 C920 1.391 . S
C922 C923 1.400 . S
C923 C917 1.491 . S
C923 C922 1.400 . S
C923 C924 1.398 . S
C924 H912 0.950 . S
C924 C923 1.398 . S
C924 C925 1.391 . S
C925 H913 0.950 . S
C925 C921 1.393 . S
C925 C924 1.391 . S
H926 C934 0.950 . S
H927 C939 0.950 . S
H928 C936 0.950 . S
H929 C938 0.950 . S
H930 C940 0.950 . S
H931 C942 0.950 . S
H932 C944 0.950 . S
H933 C945 0.950 . S
C934 H926 0.950 . S
C934 C935 1.386 . S
C934 C936 1.391 . S
C935 C934 1.386 . S
C935 C939 1.393 . S
C936 H928 0.950 . S
C936 C934 1.391 . S
C936 C937 1.400 . S
C937 C936 1.400 . S
C937 C938 1.398 . S
C937 C943 1.491 . S
C938 H929 0.950 . S
C938 C937 1.398 . S
C938 C939 1.391 . S
C939 H927 0.950 . S
C939 C935 1.393 . S
C939 C938 1.391 . S
C940 H930 0.950 . S
C940 C941 1.386 . S
C940 C942 1.391 . S
C941 C940 1.386 . S
C941 C945 1.393 . S
C942 H931 0.950 . S
C942 C940 1.391 . S
C942 C943 1.400 . S
C943 C937 1.491 . S
C943 C942 1.400 . S
C943 C944 1.398 . S
C944 H932 0.950 . S
C944 C943 1.398 . S
C944 C945 1.391 . S
C945 H933 0.950 . S
C945 C941 1.393 . S
C945 C944 1.391 . S
H946 C954 0.950 . S
H947 C959 0.950 . S
H948 C956 0.950 . S
H949 C958 0.950 . S
H950 C960 0.950 . S
H951 C962 0.950 . S
H952 C964 0.950 . S
H953 C965 0.950 . S
C954 H946 0.950 . S
C954 C955 1.386 . S
C954 C956 1.391 . S
C955 C954 1.386 . S
C955 C959 1.393 . S
C956 H948 0.950 . S
C956 C954 1.391 . S
C956 C957 1.400 . S
C957 C956 1.400 . S
C957 C958 1.398 . S
C957 C963 1.491 . S
C958 H949 0.950 . S
C958 C957 1.398 . S
C958 C959 1.391 . S
C959 H947 0.950 . S
C959 C955 1.393 . S
C959 C958 1.391 . S
C960 H950 0.950 . S
C960 C961 1.386 . S
C960 C962 1.391 . S
C961 C960 1.386 . S
C961 C965 1.393 . S
C962 H951 0.950 . S
C962 C960 1.391 . S
C962 C963 1.400 . S
C963 C957 1.491 . S
C963 C962 1.400 . S
C963 C964 1.398 . S
C964 H952 0.950 . S
C964 C963 1.398 . S
C964 C965 1.391 . S
C965 H953 0.950 . S
C965 C961 1.393 . S
C965 C964 1.391 . S
H966 C974 0.950 . S
H967 C979 0.950 . S
H968 C976 0.950 . S
H969 C978 0.950 . S
H970 C980 0.950 . S
H971 C982 0.950 . S
H972 C984 0.950 . S
H973 C985 0.950 . S
C974 H966 0.950 . S
C974 C975 1.386 . S
C974 C976 1.391 . S
C975 C974 1.386 . S
C975 C979 1.393 . S
C976 H968 0.950 . S
C976 C974 1.391 . S
C976 C977 1.400 . S
C977 C976 1.400 . S
C977 C978 1.398 . S
C977 C983 1.491 . S
C978 H969 0.950 . S
C978 C977 1.398 . S
C978 C979 1.391 . S
C979 H967 0.950 . S
C979 C975 1.393 . S
C979 C978 1.391 . S
C980 H970 0.950 . S
C980 C981 1.386 . S
C980 C982 1.391 . S
C981 C980 1.386 . S
C981 C985 1.393 . S
C982 H971 0.950 . S
C982 C980 1.391 . S
C982 C983 1.400 . S
C983 C977 1.491 . S
C983 C982 1.400 . S
C983 C984 1.398 . S
C984 H972 0.950 . S
C984 C983 1.398 . S
C984 C985 1.391 . S
C985 H973 0.950 . S
C985 C981 1.393 . S
C985 C984 1.391 . S
H986 C994 0.950 . S
H987 C999 0.950 . S
H988 C996 0.950 . S
H989 C998 0.950 . S
H990 C1000 0.950 . S
H991 C1002 0.950 . S
H992 C1004 0.950 . S
H993 C1005 0.950 . S
C994 H986 0.950 . S
C994 C995 1.386 . S
C994 C996 1.391 . S
C995 C994 1.386 . S
C995 C999 1.393 . S
C996 H988 0.950 . S
C996 C994 1.391 . S
C996 C997 1.400 . S
C997 C996 1.400 . S
C997 C998 1.398 . S
C997 C1003 1.491 . S
C998 H989 0.950 . S
C998 C997 1.398 . S
C998 C999 1.391 . S
C999 H987 0.950 . S
C999 C995 1.393 . S
C999 C998 1.391 . S
C1000 H990 0.950 . S
C1000 C1001 1.386 . S
C1000 C1002 1.391 . S
C1001 C1000 1.386 . S
C1001 C1005 1.393 . S
C1002 H991 0.950 . S
C1002 C1000 1.391 . S
C1002 C1003 1.400 . S
C1003 C997 1.491 . S
C1003 C1002 1.400 . S
C1003 C1004 1.398 . S
C1004 H992 0.950 . S
C1004 C1003 1.398 . S
C1004 C1005 1.391 . S
C1005 H993 0.950 . S
C1005 C1001 1.393 . S
C1005 C1004 1.391 . S
H1006 C1014 0.950 . S
H1007 C1019 0.950 . S
H1008 C1016 0.950 . S
H1009 C1018 0.950 . S
H1010 C1020 0.950 . S
H1011 C1022 0.950 . S
H1012 C1024 0.950 . S
H1013 C1025 0.950 . S
C1014 H1006 0.950 . S
C1014 C1015 1.386 . S
C1014 C1016 1.391 . S
C1015 C1014 1.386 . S
C1015 C1019 1.393 . S
C1016 H1008 0.950 . S
C1016 C1014 1.391 . S
C1016 C1017 1.400 . S
C1017 C1016 1.400 . S
C1017 C1018 1.398 . S
C1017 C1023 1.491 . S
C1018 H1009 0.950 . S
C1018 C1017 1.398 . S
C1018 C1019 1.391 . S
C1019 H1007 0.950 . S
C1019 C1015 1.393 . S
C1019 C1018 1.391 . S
C1020 H1010 0.950 . S
C1020 C1021 1.386 . S
C1020 C1022 1.391 . S
C1021 C1020 1.386 . S
C1021 C1025 1.393 . S
C1022 H1011 0.950 . S
C1022 C1020 1.391 . S
C1022 C1023 1.400 . S
C1023 C1017 1.491 . S
C1023 C1022 1.400 . S
C1023 C1024 1.398 . S
C1024 H1012 0.950 . S
C1024 C1023 1.398 . S
C1024 C1025 1.391 . S
C1025 H1013 0.950 . S
C1025 C1021 1.393 . S
C1025 C1024 1.391 . S
H1026 C1034 0.950 . S
H1027 C1039 0.950 . S
H1028 C1036 0.950 . S
H1029 C1038 0.950 . S
H1030 C1040 0.950 . S
H1031 C1042 0.950 . S
H1032 C1044 0.950 . S
H1033 C1045 0.950 . S
C1034 H1026 0.950 . S
C1034 C1035 1.386 . S
C1034 C1036 1.391 . S
C1035 C1034 1.386 . S
C1035 C1039 1.393 . S
C1036 H1028 0.950 . S
C1036 C1034 1.391 . S
C1036 C1037 1.400 . S
C1037 C1036 1.400 . S
C1037 C1038 1.398 . S
C1037 C1043 1.491 . S
C1038 H1029 0.950 . S
C1038 C1037 1.398 . S
C1038 C1039 1.391 . S
C1039 H1027 0.950 . S
C1039 C1035 1.393 . S
C1039 C1038 1.391 . S
C1040 H1030 0.950 . S
C1040 C1041 1.386 . S
C1040 C1042 1.391 . S
C1041 C1040 1.386 . S
C1041 C1045 1.393 . S
C1042 H1031 0.950 . S
C1042 C1040 1.391 . S
C1042 C1043 1.400 . S
C1043 C1037 1.491 . S
C1043 C1042 1.400 . S
C1043 C1044 1.398 . S
C1044 H1032 0.950 . S
C1044 C1043 1.398 . S
C1044 C1045 1.391 . S
C1045 H1033 0.950 . S
C1045 C1041 1.393 . S
C1045 C1044 1.391 . S
H1046 C1054 0.950 . S
H1047 C1059 0.950 . S
H1048 C1056 0.950 . S
H1049 C1058 0.950 . S
H1050 C1060 0.950 . S
H1051 C1062 0.950 . S
H1052 C1064 0.950 . S
H1053 C1065 0.950 . S
C1054 H1046 0.950 . S
C1054 C1055 1.386 . S
C1054 C1056 1.391 . S
C1055 C1054 1.386 . S
C1055 C1059 1.393 . S
C1056 H1048 0.950 . S
C1056 C1054 1.391 . S
C1056 C1057 1.400 . S
C1057 C1056 1.400 . S
C1057 C1058 1.398 . S
C1057 C1063 1.491 . S
C1058 H1049 0.950 . S
C1058 C1057 1.398 . S
C1058 C1059 1.391 . S
C1059 H1047 0.950 . S
C1059 C1055 1.393 . S
C1059 C1058 1.391 . S
C1060 H1050 0.950 . S
C1060 C1061 1.386 . S
C1060 C1062 1.391 . S
C1061 C1060 1.386 . S
C1061 C1065 1.393 . S
C1062 H1051 0.950 . S
C1062 C1060 1.391 . S
C1062 C1063 1.400 . S
C1063 C1057 1.491 . S
C1063 C1062 1.400 . S
C1063 C1064 1.398 . S
C1064 H1052 0.950 . S
C1064 C1063 1.398 . S
C1064 C1065 1.391 . S
C1065 H1053 0.950 . S
C1065 C1061 1.393 . S
C1065 C1064 1.391 . S
H1066 C1074 0.950 . S
H1067 C1079 0.950 . S
H1068 C1076 0.950 . S
H1069 C1078 0.950 . S
H1070 C1080 0.950 . S
H1071 C1082 0.950 . S
H1072 C1084 0.950 . S
H1073 C1085 0.950 . S
C1074 H1066 0.950 . S
C1074 C1075 1.386 . S
C1074 C1076 1.391 . S
C1075 C1074 1.386 . S
C1075 C1079 1.393 . S
C1076 H1068 0.950 . S
C1076 C1074 1.391 . S
C1076 C1077 1.400 . S
C1077 C1076 1.400 . S
C1077 C1078 1.398 . S
C1077 C1083 1.491 . S
C1078 H1069 0.950 . S
C1078 C1077 1.398 . S
C1078 C1079 1.391 . S
C1079 H1067 0.950 . S
C1079 C1075 1.393 . S
C1079 C1078 1.391 . S
C1080 H1070 0.950 . S
C1080 C1081 1.386 . S
C1080 C1082 1.391 . S
C1081 C1080 1.386 . S
C1081 C1085 1.393 . S
C1082 H1071 0.950 . S
C1082 C1080 1.391 . S
C1082 C1083 1.400 . S
C1083 C1077 1.491 . S
C1083 C1082 1.400 . S
C1083 C1084 1.398 . S
C1084 H1072 0.950 . S
C1084 C1083 1.398 . S
C1084 C1085 1.391 . S
C1085 H1073 0.950 . S
C1085 C1081 1.393 . S
C1085 C1084 1.391 . S
H1086 C1094 0.950 . S
H1087 C1099 0.950 . S
H1088 C1096 0.950 . S
H1089 C1098 0.950 . S
H1090 C1100 0.950 . S
H1091 C1102 0.950 . S
H1092 C1104 0.950 . S
H1093 C1105 0.950 . S
C1094 H1086 0.950 . S
C1094 C1095 1.386 . S
C1094 C1096 1.391 . S
C1095 C1094 1.386 . S
C1095 C1099 1.393 . S
C1096 H1088 0.950 . S
C1096 C1094 1.391 . S
C1096 C1097 1.400 . S
C1097 C1096 1.400 . S
C1097 C1098 1.398 . S
C1097 C1103 1.491 . S
C1098 H1089 0.950 . S
C1098 C1097 1.398 . S
C1098 C1099 1.391 . S
C1099 H1087 0.950 . S
C1099 C1095 1.393 . S
C1099 C1098 1.391 . S
C1100 H1090 0.950 . S
C1100 C1101 1.386 . S
C1100 C1102 1.391 . S
C1101 C1100 1.386 . S
C1101 C1105 1.393 . S
C1102 H1091 0.950 . S
C1102 C1100 1.391 . S
C1102 C1103 1.400 . S
C1103 C1097 1.491 . S
C1103 C1102 1.400 . S
C1103 C1104 1.398 . S
C1104 H1092 0.950 . S
C1104 C1103 1.398 . S
C1104 C1105 1.391 . S
C1105 H1093 0.950 . S
C1105 C1101 1.393 . S
C1105 C1104 1.391 . S
H1106 C1114 0.950 . S
H1107 C1119 0.950 . S
H1108 C1116 0.950 . S
H1109 C1118 0.950 . S
H1110 C1120 0.950 . S
H1111 C1122 0.950 . S
H1112 C1124 0.950 . S
H1113 C1125 0.950 . S
C1114 H1106 0.950 . S
C1114 C1115 1.386 . S
C1114 C1116 1.391 . S
C1115 C1114 1.386 . S
C1115 C1119 1.393 . S
C1116 H1108 0.950 . S
C1116 C1114 1.391 . S
C1116 C1117 1.400 . S
C1117 C1116 1.400 . S
C1117 C1118 1.398 . S
C1117 C1123 1.491 . S
C1118 H1109 0.950 . S
C1118 C1117 1.398 . S
C1118 C1119 1.391 . S
C1119 H1107 0.950 . S
C1119 C1115 1.393 . S
C1119 C1118 1.391 . S
C1120 H1110 0.950 . S
C1120 C1121 1.386 . S
C1120 C1122 1.391 . S
C1121 C1120 1.386 . S
C1121 C1125 1.393 . S
C1122 H1111 0.950 . S
C1122 C1120 1.391 . S
C1122 C1123 1.400 . S
C1123 C1117 1.491 . S
C1123 C1122 1.400 . S
C1123 C1124 1.398 . S
C1124 H1112 0.950 . S
C1124 C1123 1.398 . S
C1124 C1125 1.391 . S
C1125 H1113 0.950 . S
C1125 C1121 1.393 . S
C1125 C1124 1.391 . S
H1126 C1134 0.950 . S
H1127 C1139 0.950 . S
H1128 C1136 0.950 . S
H1129 C1138 0.950 . S
H1130 C1140 0.950 . S
H1131 C1142 0.950 . S
H1132 C1144 0.950 . S
H1133 C1145 0.950 . S
C1134 H1126 0.950 . S
C1134 C1135 1.386 . S
C1134 C1136 1.391 . S
C1135 C1134 1.386 . S
C1135 C1139 1.393 . S
C1136 H1128 0.950 . S
C1136 C1134 1.391 . S
C1136 C1137 1.400 . S
C1137 C1136 1.400 . S
C1137 C1138 1.398 . S
C1137 C1143 1.491 . S
C1138 H1129 0.950 . S
C1138 C1137 1.398 . S
C1138 C1139 1.391 . S
C1139 H1127 0.950 . S
C1139 C1135 1.393 . S
C1139 C1138 1.391 . S
C1140 H1130 0.950 . S
C1140 C1141 1.386 . S
C1140 C1142 1.391 . S
C1141 C1140 1.386 . S
C1141 C1145 1.393 . S
C1142 H1131 0.950 . S
C1142 C1140 1.391 . S
C1142 C1143 1.400 . S
C1143 C1137 1.491 . S
C1143 C1142 1.400 . S
C1143 C1144 1.398 . S
C1144 H1132 0.950 . S
C1144 C1143 1.398 . S
C1144 C1145 1.391 . S
C1145 H1133 0.950 . S
C1145 C1141 1.393 . S
C1145 C1144 1.391 . S
H1146 C1154 0.950 . S
H1147 C1159 0.950 . S
H1148 C1156 0.950 . S
H1149 C1158 0.950 . S
H1150 C1160 0.950 . S
H1151 C1162 0.950 . S
H1152 C1164 0.950 . S
H1153 C1165 0.950 . S
C1154 H1146 0.950 . S
C1154 C1155 1.386 . S
C1154 C1156 1.391 . S
C1155 C1154 1.386 . S
C1155 C1159 1.393 . S
C1156 H1148 0.950 . S
C1156 C1154 1.391 . S
C1156 C1157 1.400 . S
C1157 C1156 1.400 . S
C1157 C1158 1.398 . S
C1157 C1163 1.491 . S
C1158 H1149 0.950 . S
C1158 C1157 1.398 . S
C1158 C1159 1.391 . S
C1159 H1147 0.950 . S
C1159 C1155 1.393 . S
C1159 C1158 1.391 . S
C1160 H1150 0.950 . S
C1160 C1161 1.386 . S
C1160 C1162 1.391 . S
C1161 C1160 1.386 . S
C1161 C1165 1.393 . S
C1162 H1151 0.950 . S
C1162 C1160 1.391 . S
C1162 C1163 1.400 . S
C1163 C1157 1.491 . S
C1163 C1162 1.400 . S
C1163 C1164 1.398 . S
C1164 H1152 0.950 . S
C1164 C1163 1.398 . S
C1164 C1165 1.391 . S
C1165 H1153 0.950 . S
C1165 C1161 1.393 . S
C1165 C1164 1.391 . S
H1166 C1174 0.950 . S
H1167 C1179 0.950 . S
H1168 C1176 0.950 . S
H1169 C1178 0.950 . S
H1170 C1180 0.950 . S
H1171 C1182 0.950 . S
H1172 C1184 0.950 . S
H1173 C1185 0.950 . S
C1174 H1166 0.950 . S
C1174 C1175 1.386 . S
C1174 C1176 1.391 . S
C1175 C1174 1.386 . S
C1175 C1179 1.393 . S
C1176 H1168 0.950 . S
C1176 C1174 1.391 . S
C1176 C1177 1.400 . S
C1177 C1176 1.400 . S
C1177 C1178 1.398 . S
C1177 C1183 1.491 . S
C1178 H1169 0.950 . S
C1178 C1177 1.398 . S
C1178 C1179 1.391 . S
C1179 H1167 0.950 . S
C1179 C1175 1.393 . S
C1179 C1178 1.391 . S
C1180 H1170 0.950 . S
C1180 C1181 1.386 . S
C1180 C1182 1.391 . S
C1181 C1180 1.386 . S
C1181 C1185 1.393 . S
C1182 H1171 0.950 . S
C1182 C1180 1.391 . S
C1182 C1183 1.400 . S
C1183 C1177 1.491 . S
C1183 C1182 1.400 . S
C1183 C1184 1.398 . S
C1184 H1172 0.950 . S
C1184 C1183 1.398 . S
C1184 C1185 1.391 . S
C1185 H1173 0.950 . S
C1185 C1181 1.393 . S
C1185 C1184 1.391 . S
H1186 C1194 0.950 . S
H1187 C1199 0.950 . S
H1188 C1196 0.950 . S
H1189 C1198 0.950 . S
H1190 C1200 0.950 . S
H1191 C1202 0.950 . S
H1192 C1204 0.950 . S
H1193 C1205 0.950 . S
C1194 H1186 0.950 . S
C1194 C1195 1.386 . S
C1194 C1196 1.391 . S
C1195 C1194 1.386 . S
C1195 C1199 1.393 . S
C1196 H1188 0.950 . S
C1196 C1194 1.391 . S
C1196 C1197 1.400 . S
C1197 C1196 1.400 . S
C1197 C1198 1.398 . S
C1197 C1203 1.491 . S
C1198 H1189 0.950 . S
C1198 C1197 1.398 . S
C1198 C1199 1.391 . S
C1199 H1187 0.950 . S
C1199 C1195 1.393 . S
C1199 C1198 1.391 . S
C1200 H1190 0.950 . S
C1200 C1201 1.386 . S
C1200 C1202 1.391 . S
C1201 C1200 1.386 . S
C1201 C1205 1.393 . S
C1202 H1191 0.950 . S
C1202 C1200 1.391 . S
C1202 C1203 1.400 . S
C1203 C1197 1.491 . S
C1203 C1202 1.400 . S
C1203 C1204 1.398 . S
C1204 H1192 0.950 . S
C1204 C1203 1.398 . S
C1204 C1205 1.391 . S
C1205 H1193 0.950 . S
C1205 C1201 1.393 . S
C1205 C1204 1.391 . S
H1206 C1214 0.950 . S
H1207 C1219 0.950 . S
H1208 C1216 0.950 . S
H1209 C1218 0.950 . S
H1210 C1220 0.950 . S
H1211 C1222 0.950 . S
H1212 C1224 0.950 . S
H1213 C1225 0.950 . S
C1214 H1206 0.950 . S
C1214 C1215 1.386 . S
C1214 C1216 1.391 . S
C1215 C1214 1.386 . S
C1215 C1219 1.393 . S
C1216 H1208 0.950 . S
C1216 C1214 1.391 . S
C1216 C1217 1.400 . S
C1217 C1216 1.400 . S
C1217 C1218 1.398 . S
C1217 C1223 1.491 . S
C1218 H1209 0.950 . S
C1218 C1217 1.398 . S
C1218 C1219 1.391 . S
C1219 H1207 0.950 . S
C1219 C1215 1.393 . S
C1219 C1218 1.391 . S
C1220 H1210 0.950 . S
C1220 C1221 1.386 . S
C1220 C1222 1.391 . S
C1221 C1220 1.386 . S
C1221 C1225 1.393 . S
C1222 H1211 0.950 . S
C1222 C1220 1.391 . S
C1222 C1223 1.400 . S
C1223 C1217 1.491 . S
C1223 C1222 1.400 . S
C1223 C1224 1.398 . S
C1224 H1212 0.950 . S
C1224 C1223 1.398 . S
C1224 C1225 1.391 . S
C1225 H1213 0.950 . S
C1225 C1221 1.393 . S
C1225 C1224 1.391 . S
H1226 C1234 0.950 . S
H1227 C1239 0.950 . S
H1228 C1236 0.950 . S
H1229 C1238 0.950 . S
H1230 C1240 0.950 . S
H1231 C1242 0.950 . S
H1232 C1244 0.950 . S
H1233 C1245 0.950 . S
C1234 H1226 0.950 . S
C1234 C1235 1.386 . S
C1234 C1236 1.391 . S
C1235 C1234 1.386 . S
C1235 C1239 1.393 . S
C1236 H1228 0.950 . S
C1236 C1234 1.391 . S
C1236 C1237 1.400 . S
C1237 C1236 1.400 . S
C1237 C1238 1.398 . S
C1237 C1243 1.491 . S
C1238 H1229 0.950 . S
C1238 C1237 1.398 . S
C1238 C1239 1.391 . S
C1239 H1227 0.950 . S
C1239 C1235 1.393 . S
C1239 C1238 1.391 . S
C1240 H1230 0.950 . S
C1240 C1241 1.386 . S
C1240 C1242 1.391 . S
C1241 C1240 1.386 . S
C1241 C1245 1.393 . S
C1242 H1231 0.950 . S
C1242 C1240 1.391 . S
C1242 C1243 1.400 . S
C1243 C1237 1.491 . S
C1243 C1242 1.400 . S
C1243 C1244 1.398 . S
C1244 H1232 0.950 . S
C1244 C1243 1.398 . S
C1244 C1245 1.391 . S
C1245 H1233 0.950 . S
C1245 C1241 1.393 . S
C1245 C1244 1.391 . S
H1246 C1254 0.950 . S
H1247 C1259 0.950 . S
H1248 C1256 0.950 . S
H1249 C1258 0.950 . S
H1250 C1260 0.950 . S
H1251 C1262 0.950 . S
H1252 C1264 0.950 . S
H1253 C1265 0.950 . S
C1254 H1246 0.950 . S
C1254 C1255 1.386 . S
C1254 C1256 1.391 . S
C1255 C1254 1.386 . S
C1255 C1259 1.393 . S
C1256 H1248 0.950 . S
C1256 C1254 1.391 . S
C1256 C1257 1.400 . S
C1257 C1256 1.400 . S
C1257 C1258 1.398 . S
C1257 C1263 1.491 . S
C1258 H1249 0.950 . S
C1258 C1257 1.398 . S
C1258 C1259 1.391 . S
C1259 H1247 0.950 . S
C1259 C1255 1.393 . S
C1259 C1258 1.391 . S
C1260 H1250 0.950 . S
C1260 C1261 1.386 . S
C1260 C1262 1.391 . S
C1261 C1260 1.386 . S
C1261 C1265 1.393 . S
C1262 H1251 0.950 . S
C1262 C1260 1.391 . S
C1262 C1263 1.400 . S
C1263 C1257 1.491 . S
C1263 C1262 1.400 . S
C1263 C1264 1.398 . S
C1264 H1252 0.950 . S
C1264 C1263 1.398 . S
C1264 C1265 1.391 . S
C1265 H1253 0.950 . S
C1265 C1261 1.393 . S
C1265 C1264 1.391 . S
H1266 C1274 0.950 . S
H1267 C1279 0.950 . S
H1268 C1276 0.950 . S
H1269 C1278 0.950 . S
H1270 C1280 0.950 . S
H1271 C1282 0.950 . S
H1272 C1284 0.950 . S
H1273 C1285 0.950 . S
C1274 H1266 0.950 . S
C1274 C1275 1.386 . S
C1274 C1276 1.391 . S
C1275 C1274 1.386 . S
C1275 C1279 1.393 . S
C1276 H1268 0.950 . S
C1276 C1274 1.391 . S
C1276 C1277 1.400 . S
C1277 C1276 1.400 . S
C1277 C1278 1.398 . S
C1277 C1283 1.491 . S
C1278 H1269 0.950 . S
C1278 C1277 1.398 . S
C1278 C1279 1.391 . S
C1279 H1267 0.950 . S
C1279 C1275 1.393 . S
C1279 C1278 1.391 . S
C1280 H1270 0.950 . S
C1280 C1281 1.386 . S
C1280 C1282 1.391 . S
C1281 C1280 1.386 . S
C1281 C1285 1.393 . S
C1282 H1271 0.950 . S
C1282 C1280 1.391 . S
C1282 C1283 1.400 . S
C1283 C1277 1.491 . S
C1283 C1282 1.400 . S
C1283 C1284 1.398 . S
C1284 H1272 0.950 . S
C1284 C1283 1.398 . S
C1284 C1285 1.391 . S
C1285 H1273 0.950 . S
C1285 C1281 1.393 . S
C1285 C1284 1.391 . S
H1286 C1294 0.950 . S
H1287 C1299 0.950 . S
H1288 C1296 0.950 . S
H1289 C1298 0.950 . S
H1290 C1300 0.950 . S
H1291 C1302 0.950 . S
H1292 C1304 0.950 . S
H1293 C1305 0.950 . S
C1294 H1286 0.950 . S
C1294 C1295 1.386 . S
C1294 C1296 1.391 . S
C1295 C1294 1.386 . S
C1295 C1299 1.393 . S
C1296 H1288 0.950 . S
C1296 C1294 1.391 . S
C1296 C1297 1.400 . S
C1297 C1296 1.400 . S
C1297 C1298 1.398 . S
C1297 C1303 1.491 . S
C1298 H1289 0.950 . S
C1298 C1297 1.398 . S
C1298 C1299 1.391 . S
C1299 H1287 0.950 . S
C1299 C1295 1.393 . S
C1299 C1298 1.391 . S
C1300 H1290 0.950 . S
C1300 C1301 1.386 . S
C1300 C1302 1.391 . S
C1301 C1300 1.386 . S
C1301 C1305 1.393 . S
C1302 H1291 0.950 . S
C1302 C1300 1.391 . S
C1302 C1303 1.400 . S
C1303 C1297 1.491 . S
C1303 C1302 1.400 . S
C1303 C1304 1.398 . S
C1304 H1292 0.950 . S
C1304 C1303 1.398 . S
C1304 C1305 1.391 . S
C1305 H1293 0.950 . S
C1305 C1301 1.393 . S
C1305 C1304 1.391 . S
C361 C171 1.761 . S
C355 C9 1.779 . S
C381 C161 2.049 . S
C375 C28 2.016 . S
C401 C162 0.865 . S
C395 C49 0.840 . S
C415 C79 1.951 . S
C421 C184 1.971 . S
C435 C99 1.996 . S
C441 C187 2.033 . S
C461 C170 0.826 . S
C455 C101 0.857 . S
C475 C128 1.961 . S
C481 C160 1.980 . S
C495 C141 1.774 . S
C501 C178 1.746 . S
C521 C191 1.314 . S
C515 C16 1.232 . S
C535 C26 1.096 . S
C541 C240 1.092 . S
C561 C218 1.357 . S
C555 C56 1.295 . S
C581 C232 0.812 . S
C575 C69 0.845 . S
C595 C89 0.850 . S
C601 C193 0.846 . S
C621 C246 1.998 . S
C615 C108 1.963 . S
C635 C126 1.079 . S
C641 C202 1.100 . S
C655 C148 2.021 . S
C661 C223 2.068 . S
C675 C19 2.032 . S
C681 C249 2.053 . S
C695 C96 1.073 . S
C701 C233 1.065 . S
C721 C192 1.356 . S
C715 C106 1.295 . S
C741 C224 0.834 . S
C735 C121 0.830 . S
C755 C146 1.237 . S
C761 C215 1.314 . S
C775 C59 1.984 . S
C781 C222 1.981 . S
C801 C209 1.072 . S
C795 C76 1.084 . S
C815 C21 0.843 . S
C821 C201 0.831 . S
C835 C149 1.765 . S
C841 C264 1.752 . S
C855 C88 2.002 . S
C861 C254 2.036 . S
C881 C255 0.837 . S
C875 C109 0.863 . S
C901 C277 1.975 . S
C895 C139 1.957 . S
C915 C39 2.009 . S
C921 C280 2.045 . S
C941 C263 0.838 . S
C935 C41 0.861 . S
C955 C68 1.964 . S
C961 C253 1.981 . S
C975 C1 1.775 . S
C981 C271 1.743 . S
C995 C156 1.248 . S
C1001 C284 1.308 . S
C1021 C333 1.084 . S
C1015 C86 1.101 . S
C1035 C116 1.287 . S
C1041 C311 1.356 . S
C1055 C129 0.843 . S
C1061 C325 0.853 . S
C1081 C286 0.845 . S
C1075 C29 0.845 . S
C1095 C48 1.964 . S
C1101 C339 1.999 . S
C1121 C295 1.109 . S
C1115 C66 1.087 . S
C1141 C316 2.057 . S
C1135 C8 2.026 . S
C1161 C342 2.067 . S
C1155 C159 2.024 . S
C1175 C36 1.086 . S
C1181 C326 1.080 . S
C1195 C46 1.302 . S
C1201 C285 1.355 . S
C1221 C317 0.804 . S
C1215 C61 0.840 . S
C1235 C6 1.235 . S
C1241 C308 1.312 . S
C1255 C119 1.964 . S
C1261 C315 1.996 . S
C1281 C302 1.109 . S
C1275 C136 1.108 . S
C1301 C294 0.845 . S
C1295 C81 0.843 . S
