# Generated by pormake.
# Topology gar, (4,6)-cn, num edge types: 1
# Building blocks:
#     Node 0, Type 0, BuildingBlock: TATPOV_clean_sbu_0, # of connection points: 4
#     Node 1, Type 0, BuildingBlock: TATPOV_clean_sbu_0, # of connection points: 4
#     Node 2, Type 0, BuildingBlock: TATPOV_clean_sbu_0, # of connection points: 4
#     Node 3, Type 0, BuildingBlock: TATPOV_clean_sbu_0, # of connection points: 4
#     Node 4, Type 0, BuildingBlock: TATPOV_clean_sbu_0, # of connection points: 4
#     Node 5, Type 0, BuildingBlock: TATPOV_clean_sbu_0, # of connection points: 4
#     Node 6, Type 0, BuildingBlock: TATPOV_clean_sbu_0, # of connection points: 4
#     Node 7, Type 0, BuildingBlock: TATPOV_clean_sbu_0, # of connection points: 4
#     Node 8, Type 0, BuildingBlock: TATPOV_clean_sbu_0, # of connection points: 4
#     Node 9, Type 0, BuildingBlock: TATPOV_clean_sbu_0, # of connection points: 4
#     Node 10, Type 0, BuildingBlock: TATPOV_clean_sbu_0, # of connection points: 4
#     Node 11, Type 0, BuildingBlock: TATPOV_clean_sbu_0, # of connection points: 4
#     Node 12, Type 0, BuildingBlock: TATPOV_clean_sbu_0, # of connection points: 4
#     Node 13, Type 0, BuildingBlock: TATPOV_clean_sbu_0, # of connection points: 4
#     Node 14, Type 0, BuildingBlock: TATPOV_clean_sbu_0, # of connection points: 4
#     Node 15, Type 0, BuildingBlock: TATPOV_clean_sbu_0, # of connection points: 4
#     Node 16, Type 0, BuildingBlock: TATPOV_clean_sbu_0, # of connection points: 4
#     Node 17, Type 0, BuildingBlock: TATPOV_clean_sbu_0, # of connection points: 4
#     Node 18, Type 0, BuildingBlock: TATPOV_clean_sbu_0, # of connection points: 4
#     Node 19, Type 0, BuildingBlock: TATPOV_clean_sbu_0, # of connection points: 4
#     Node 20, Type 0, BuildingBlock: TATPOV_clean_sbu_0, # of connection points: 4
#     Node 21, Type 0, BuildingBlock: TATPOV_clean_sbu_0, # of connection points: 4
#     Node 22, Type 0, BuildingBlock: TATPOV_clean_sbu_0, # of connection points: 4
#     Node 23, Type 0, BuildingBlock: TATPOV_clean_sbu_0, # of connection points: 4
#     Node 24, Type 1, BuildingBlock: CUKXOW_clean_sbu_0, # of connection points: 6
#     Node 25, Type 1, BuildingBlock: CUKXOW_clean_sbu_0, # of connection points: 6
#     Node 26, Type 1, BuildingBlock: CUKXOW_clean_sbu_0, # of connection points: 6
#     Node 27, Type 1, BuildingBlock: CUKXOW_clean_sbu_0, # of connection points: 6
#     Node 28, Type 1, BuildingBlock: CUKXOW_clean_sbu_0, # of connection points: 6
#     Node 29, Type 1, BuildingBlock: CUKXOW_clean_sbu_0, # of connection points: 6
#     Node 30, Type 1, BuildingBlock: CUKXOW_clean_sbu_0, # of connection points: 6
#     Node 31, Type 1, BuildingBlock: CUKXOW_clean_sbu_0, # of connection points: 6
#     Node 32, Type 1, BuildingBlock: CUKXOW_clean_sbu_0, # of connection points: 6
#     Node 33, Type 1, BuildingBlock: CUKXOW_clean_sbu_0, # of connection points: 6
#     Node 34, Type 1, BuildingBlock: CUKXOW_clean_sbu_0, # of connection points: 6
#     Node 35, Type 1, BuildingBlock: CUKXOW_clean_sbu_0, # of connection points: 6
#     Node 36, Type 1, BuildingBlock: CUKXOW_clean_sbu_0, # of connection points: 6
#     Node 37, Type 1, BuildingBlock: CUKXOW_clean_sbu_0, # of connection points: 6
#     Node 38, Type 1, BuildingBlock: CUKXOW_clean_sbu_0, # of connection points: 6
#     Node 39, Type 1, BuildingBlock: CUKXOW_clean_sbu_0, # of connection points: 6
#     Edge 40, Type (0, 1), BuildingBlock: EZIPEK_clean_linker_0, # of connection points: 2
#     Edge 41, Type (0, 1), BuildingBlock: EZIPEK_clean_linker_0, # of connection points: 2
#     Edge 42, Type (0, 1), BuildingBlock: EZIPEK_clean_linker_0, # of connection points: 2
#     Edge 43, Type (0, 1), BuildingBlock: EZIPEK_clean_linker_0, # of connection points: 2
#     Edge 44, Type (0, 1), BuildingBlock: EZIPEK_clean_linker_0, # of connection points: 2
#     Edge 45, Type (0, 1), BuildingBlock: EZIPEK_clean_linker_0, # of connection points: 2
#     Edge 46, Type (0, 1), BuildingBlock: EZIPEK_clean_linker_0, # of connection points: 2
#     Edge 47, Type (0, 1), BuildingBlock: EZIPEK_clean_linker_0, # of connection points: 2
#     Edge 48, Type (0, 1), BuildingBlock: EZIPEK_clean_linker_0, # of connection points: 2
#     Edge 49, Type (0, 1), BuildingBlock: EZIPEK_clean_linker_0, # of connection points: 2
#     Edge 50, Type (0, 1), BuildingBlock: EZIPEK_clean_linker_0, # of connection points: 2
#     Edge 51, Type (0, 1), BuildingBlock: EZIPEK_clean_linker_0, # of connection points: 2
#     Edge 52, Type (0, 1), BuildingBlock: EZIPEK_clean_linker_0, # of connection points: 2
#     Edge 53, Type (0, 1), BuildingBlock: EZIPEK_clean_linker_0, # of connection points: 2
#     Edge 54, Type (0, 1), BuildingBlock: EZIPEK_clean_linker_0, # of connection points: 2
#     Edge 55, Type (0, 1), BuildingBlock: EZIPEK_clean_linker_0, # of connection points: 2
#     Edge 56, Type (0, 1), BuildingBlock: EZIPEK_clean_linker_0, # of connection points: 2
#     Edge 57, Type (0, 1), BuildingBlock: EZIPEK_clean_linker_0, # of connection points: 2
#     Edge 58, Type (0, 1), BuildingBlock: EZIPEK_clean_linker_0, # of connection points: 2
#     Edge 59, Type (0, 1), BuildingBlock: EZIPEK_clean_linker_0, # of connection points: 2
#     Edge 60, Type (0, 1), BuildingBlock: EZIPEK_clean_linker_0, # of connection points: 2
#     Edge 61, Type (0, 1), BuildingBlock: EZIPEK_clean_linker_0, # of connection points: 2
#     Edge 62, Type (0, 1), BuildingBlock: EZIPEK_clean_linker_0, # of connection points: 2
#     Edge 63, Type (0, 1), BuildingBlock: EZIPEK_clean_linker_0, # of connection points: 2
#     Edge 64, Type (0, 1), BuildingBlock: EZIPEK_clean_linker_0, # of connection points: 2
#     Edge 65, Type (0, 1), BuildingBlock: EZIPEK_clean_linker_0, # of connection points: 2
#     Edge 66, Type (0, 1), BuildingBlock: EZIPEK_clean_linker_0, # of connection points: 2
#     Edge 67, Type (0, 1), BuildingBlock: EZIPEK_clean_linker_0, # of connection points: 2
#     Edge 68, Type (0, 1), BuildingBlock: EZIPEK_clean_linker_0, # of connection points: 2
#     Edge 69, Type (0, 1), BuildingBlock: EZIPEK_clean_linker_0, # of connection points: 2
#     Edge 70, Type (0, 1), BuildingBlock: EZIPEK_clean_linker_0, # of connection points: 2
#     Edge 71, Type (0, 1), BuildingBlock: EZIPEK_clean_linker_0, # of connection points: 2
#     Edge 72, Type (0, 1), BuildingBlock: EZIPEK_clean_linker_0, # of connection points: 2
#     Edge 73, Type (0, 1), BuildingBlock: EZIPEK_clean_linker_0, # of connection points: 2
#     Edge 74, Type (0, 1), BuildingBlock: EZIPEK_clean_linker_0, # of connection points: 2
#     Edge 75, Type (0, 1), BuildingBlock: EZIPEK_clean_linker_0, # of connection points: 2
#     Edge 76, Type (0, 1), BuildingBlock: EZIPEK_clean_linker_0, # of connection points: 2
#     Edge 77, Type (0, 1), BuildingBlock: EZIPEK_clean_linker_0, # of connection points: 2
#     Edge 78, Type (0, 1), BuildingBlock: EZIPEK_clean_linker_0, # of connection points: 2
#     Edge 79, Type (0, 1), BuildingBlock: EZIPEK_clean_linker_0, # of connection points: 2
#     Edge 80, Type (0, 1), BuildingBlock: EZIPEK_clean_linker_0, # of connection points: 2
#     Edge 81, Type (0, 1), BuildingBlock: EZIPEK_clean_linker_0, # of connection points: 2
#     Edge 82, Type (0, 1), BuildingBlock: EZIPEK_clean_linker_0, # of connection points: 2
#     Edge 83, Type (0, 1), BuildingBlock: EZIPEK_clean_linker_0, # of connection points: 2
#     Edge 84, Type (0, 1), BuildingBlock: EZIPEK_clean_linker_0, # of connection points: 2
#     Edge 85, Type (0, 1), BuildingBlock: EZIPEK_clean_linker_0, # of connection points: 2
#     Edge 86, Type (0, 1), BuildingBlock: EZIPEK_clean_linker_0, # of connection points: 2
#     Edge 87, Type (0, 1), BuildingBlock: EZIPEK_clean_linker_0, # of connection points: 2
#     Edge 88, Type (0, 1), BuildingBlock: EZIPEK_clean_linker_0, # of connection points: 2
#     Edge 89, Type (0, 1), BuildingBlock: EZIPEK_clean_linker_0, # of connection points: 2
#     Edge 90, Type (0, 1), BuildingBlock: EZIPEK_clean_linker_0, # of connection points: 2
#     Edge 91, Type (0, 1), BuildingBlock: EZIPEK_clean_linker_0, # of connection points: 2
#     Edge 92, Type (0, 1), BuildingBlock: EZIPEK_clean_linker_0, # of connection points: 2
#     Edge 93, Type (0, 1), BuildingBlock: EZIPEK_clean_linker_0, # of connection points: 2
#     Edge 94, Type (0, 1), BuildingBlock: EZIPEK_clean_linker_0, # of connection points: 2
#     Edge 95, Type (0, 1), BuildingBlock: EZIPEK_clean_linker_0, # of connection points: 2
#     Edge 96, Type (0, 1), BuildingBlock: EZIPEK_clean_linker_0, # of connection points: 2
#     Edge 97, Type (0, 1), BuildingBlock: EZIPEK_clean_linker_0, # of connection points: 2
#     Edge 98, Type (0, 1), BuildingBlock: EZIPEK_clean_linker_0, # of connection points: 2
#     Edge 99, Type (0, 1), BuildingBlock: EZIPEK_clean_linker_0, # of connection points: 2
#     Edge 100, Type (0, 1), BuildingBlock: EZIPEK_clean_linker_0, # of connection points: 2
#     Edge 101, Type (0, 1), BuildingBlock: EZIPEK_clean_linker_0, # of connection points: 2
#     Edge 102, Type (0, 1), BuildingBlock: EZIPEK_clean_linker_0, # of connection points: 2
#     Edge 103, Type (0, 1), BuildingBlock: EZIPEK_clean_linker_0, # of connection points: 2
#     Edge 104, Type (0, 1), BuildingBlock: EZIPEK_clean_linker_0, # of connection points: 2
#     Edge 105, Type (0, 1), BuildingBlock: EZIPEK_clean_linker_0, # of connection points: 2
#     Edge 106, Type (0, 1), BuildingBlock: EZIPEK_clean_linker_0, # of connection points: 2
#     Edge 107, Type (0, 1), BuildingBlock: EZIPEK_clean_linker_0, # of connection points: 2
#     Edge 108, Type (0, 1), BuildingBlock: EZIPEK_clean_linker_0, # of connection points: 2
#     Edge 109, Type (0, 1), BuildingBlock: EZIPEK_clean_linker_0, # of connection points: 2
#     Edge 110, Type (0, 1), BuildingBlock: EZIPEK_clean_linker_0, # of connection points: 2
#     Edge 111, Type (0, 1), BuildingBlock: EZIPEK_clean_linker_0, # of connection points: 2
#     Edge 112, Type (0, 1), BuildingBlock: EZIPEK_clean_linker_0, # of connection points: 2
#     Edge 113, Type (0, 1), BuildingBlock: EZIPEK_clean_linker_0, # of connection points: 2
#     Edge 114, Type (0, 1), BuildingBlock: EZIPEK_clean_linker_0, # of connection points: 2
#     Edge 115, Type (0, 1), BuildingBlock: EZIPEK_clean_linker_0, # of connection points: 2
#     Edge 116, Type (0, 1), BuildingBlock: EZIPEK_clean_linker_0, # of connection points: 2
#     Edge 117, Type (0, 1), BuildingBlock: EZIPEK_clean_linker_0, # of connection points: 2
#     Edge 118, Type (0, 1), BuildingBlock: EZIPEK_clean_linker_0, # of connection points: 2
#     Edge 119, Type (0, 1), BuildingBlock: EZIPEK_clean_linker_0, # of connection points: 2
#     Edge 120, Type (0, 1), BuildingBlock: EZIPEK_clean_linker_0, # of connection points: 2
#     Edge 121, Type (0, 1), BuildingBlock: EZIPEK_clean_linker_0, # of connection points: 2
#     Edge 122, Type (0, 1), BuildingBlock: EZIPEK_clean_linker_0, # of connection points: 2
#     Edge 123, Type (0, 1), BuildingBlock: EZIPEK_clean_linker_0, # of connection points: 2
#     Edge 124, Type (0, 1), BuildingBlock: EZIPEK_clean_linker_0, # of connection points: 2
#     Edge 125, Type (0, 1), BuildingBlock: EZIPEK_clean_linker_0, # of connection points: 2
#     Edge 126, Type (0, 1), BuildingBlock: EZIPEK_clean_linker_0, # of connection points: 2
#     Edge 127, Type (0, 1), BuildingBlock: EZIPEK_clean_linker_0, # of connection points: 2
#     Edge 128, Type (0, 1), BuildingBlock: EZIPEK_clean_linker_0, # of connection points: 2
#     Edge 129, Type (0, 1), BuildingBlock: EZIPEK_clean_linker_0, # of connection points: 2
#     Edge 130, Type (0, 1), BuildingBlock: EZIPEK_clean_linker_0, # of connection points: 2
#     Edge 131, Type (0, 1), BuildingBlock: EZIPEK_clean_linker_0, # of connection points: 2
#     Edge 132, Type (0, 1), BuildingBlock: EZIPEK_clean_linker_0, # of connection points: 2
#     Edge 133, Type (0, 1), BuildingBlock: EZIPEK_clean_linker_0, # of connection points: 2
#     Edge 134, Type (0, 1), BuildingBlock: EZIPEK_clean_linker_0, # of connection points: 2
#     Edge 135, Type (0, 1), BuildingBlock: EZIPEK_clean_linker_0, # of connection points: 2
# Relax obj value: 0.123
# Max RMSD: 0.241
# Mean RMSD: 0.148
data_MOF--net-gar--node1-TATPOV_clean_sbu_0--node2-CUKXOW_clean_sbu_0--edge1-EZIPEK_clean_linker_0
_symmetry_space_group_name_H-M    P1
_symmetry_Int_Tables_number       1
_symmetry_cell_setting            triclinic
loop_
_symmetry_equiv_pos_as_xyz
'x, y, z'
_cell_length_a     40.627973
_cell_length_b     39.405745
_cell_length_c     40.115092
_cell_angle_alpha  94.444986
_cell_angle_beta   95.799871
_cell_angle_gamma 100.88357
loop_
_atom_site_label
_atom_site_type_symbol
_atom_site_fract_x
_atom_site_fract_y
_atom_site_fract_z
_atom_type_partial_charge
Zn0 Zn 0.98331 0.26499 0.51276 0.0
Zn1 Zn 0.03325 0.25985 0.47274 0.0
O2 O 0.05037 0.30569 0.50314 0.0
O3 O 0.01204 0.30874 0.53746 0.0
O4 O 0.07012 0.25506 0.44298 0.0
O5 O 0.98489 0.21745 0.52725 0.0
O6 O 0.02478 0.21362 0.49444 0.0
C7 C 0.03978 0.32184 0.52739 0.0
C8 C 0.96462 0.26944 0.44205 0.0
O9 O 0.99436 0.26504 0.43895 0.0
O10 O 0.95364 0.27006 0.47047 0.0
C11 C 0.07364 0.27272 0.41784 0.0
O12 O 0.05414 0.29518 0.412 0.0
C13 C 0.00499 0.20044 0.51484 0.0
Zn14 Zn 0.98148 0.73819 0.63124 0.0
Zn15 Zn 0.99738 0.79128 0.59463 0.0
O16 O 0.95879 0.8028 0.62026 0.0
O17 O 0.94323 0.75725 0.64781 0.0
O18 O 0.00463 0.83 0.56544 0.0
O19 O 0.02823 0.753 0.65635 0.0
O20 O 0.04207 0.79497 0.62383 0.0
C21 C 0.94002 0.78703 0.64007 0.0
C22 C 0.9827 0.71628 0.56196 0.0
O23 O 0.98977 0.74881 0.55989 0.0
O24 O 0.97642 0.70467 0.58966 0.0
C25 C 0.02294 0.83032 0.54157 0.0
O26 O 0.03935 0.80514 0.53613 0.0
C27 C 0.04977 0.77736 0.64767 0.0
Zn28 Zn 0.47889 0.76972 0.00306 0.0
Zn29 Zn 0.53318 0.76638 0.96728 0.0
O30 O 0.54934 0.81234 0.99692 0.0
O31 O 0.50466 0.8167 0.02296 0.0
O32 O 0.57122 0.7592 0.93981 0.0
O33 O 0.48227 0.72469 0.02255 0.0
O34 O 0.52235 0.72153 0.98984 0.0
C35 C 0.53368 0.82978 0.0157 0.0
C36 C 0.46497 0.77228 0.93157 0.0
O37 O 0.49614 0.77186 0.93149 0.0
O38 O 0.45108 0.76978 0.95841 0.0
C39 C 0.57603 0.77507 0.91372 0.0
O40 O 0.55733 0.79763 0.90555 0.0
C41 C 0.5032 0.70843 0.01074 0.0
Zn42 Zn 0.47834 0.2306 0.14372 0.0
Zn43 Zn 0.49533 0.28693 0.10869 0.0
O44 O 0.46089 0.30073 0.13807 0.0
O45 O 0.44361 0.25395 0.16338 0.0
O46 O 0.50654 0.32553 0.08002 0.0
O47 O 0.52638 0.24181 0.16589 0.0
O48 O 0.53986 0.28504 0.13464 0.0
C49 C 0.4423 0.28491 0.15792 0.0
C50 C 0.47508 0.21389 0.07261 0.0
O51 O 0.4822 0.24663 0.07245 0.0
O52 O 0.47053 0.20019 0.09971 0.0
C53 C 0.48702 0.34634 0.07349 0.0
O54 O 0.45909 0.34446 0.08769 0.0
C55 C 0.54807 0.26566 0.15663 0.0
Zn56 Zn 0.03363 0.77484 0.12654 0.0
Zn57 Zn 0.98762 0.76881 0.16882 0.0
O58 O 0.97952 0.80869 0.13881 0.0
O59 O 0.01871 0.81371 0.1044 0.0
O60 O 0.95116 0.76882 0.20127 0.0
O61 O 0.01682 0.72606 0.10687 0.0
O62 O 0.97956 0.71844 0.14344 0.0
C63 C 0.99358 0.82356 0.11522 0.0
C64 C 0.0639 0.78442 0.19483 0.0
O65 O 0.03321 0.77968 0.20111 0.0
O66 O 0.07067 0.78421 0.16473 0.0
C67 C 0.92415 0.78015 0.19385 0.0
O68 O 0.91817 0.79055 0.16391 0.0
C69 C 0.99386 0.70649 0.11932 0.0
Zn70 Zn 0.48513 0.78227 0.39418 0.0
Zn71 Zn 0.53493 0.79757 0.35614 0.0
O72 O 0.5431 0.84314 0.38829 0.0
O73 O 0.50096 0.82968 0.41875 0.0
O74 O 0.57195 0.80185 0.32495 0.0
O75 O 0.50079 0.74167 0.41187 0.0
O76 O 0.54138 0.75358 0.37953 0.0
C77 C 0.52586 0.85125 0.41155 0.0
C78 C 0.46005 0.78544 0.3262 0.0
O79 O 0.49138 0.79435 0.32318 0.0
O80 O 0.45057 0.77701 0.354 0.0
C81 C 0.59829 0.78929 0.33154 0.0
O82 O 0.60309 0.77579 0.3601 0.0
C83 C 0.527 0.73504 0.40059 0.0
Zn84 Zn 0.53438 0.26732 0.63058 0.0
Zn85 Zn 0.48714 0.26221 0.67111 0.0
O86 O 0.47829 0.2996 0.6383 0.0
O87 O 0.51924 0.30421 0.60586 0.0
O88 O 0.44953 0.26213 0.70267 0.0
O89 O 0.5192 0.21825 0.61209 0.0
O90 O 0.48042 0.21124 0.64717 0.0
C91 C 0.49301 0.31347 0.61456 0.0
C92 C 0.56359 0.28137 0.69852 0.0
O93 O 0.53263 0.27627 0.70408 0.0
O94 O 0.57098 0.27925 0.66868 0.0
C95 C 0.42254 0.2734 0.69484 0.0
O96 O 0.41734 0.28449 0.6651 0.0
C97 C 0.49567 0.19895 0.62399 0.0
Zn98 Zn 0.99337 0.28896 0.90733 0.0
Zn99 Zn 0.03852 0.29927 0.86341 0.0
O100 O 0.04797 0.3482 0.88963 0.0
O101 O 0.00961 0.33891 0.92505 0.0
O102 O 0.07211 0.29985 0.82825 0.0
O103 O 0.01266 0.25253 0.92943 0.0
O104 O 0.04997 0.26114 0.89326 0.0
C105 C 0.03285 0.3591 0.91349 0.0
C106 C 0.96106 0.28256 0.84093 0.0
O107 O 0.99149 0.29121 0.83445 0.0
O108 O 0.95487 0.27764 0.87062 0.0
C109 C 0.09653 0.28369 0.83088 0.0
O110 O 0.10168 0.26715 0.85747 0.0
C111 C 0.03854 0.24558 0.91763 0.0
Zn112 Zn 0.44638 0.04218 0.26483 0.0
Zn113 Zn 0.41659 0.09571 0.2613 0.0
O114 O 0.44405 0.10201 0.31042 0.0
O115 O 0.47103 0.0584 0.31033 0.0
O116 O 0.38902 0.13481 0.2575 0.0
O117 O 0.46784 0.04975 0.22311 0.0
O118 O 0.44148 0.09335 0.21695 0.0
C119 C 0.46385 0.08478 0.32563 0.0
C120 C 0.3749 0.02221 0.25938 0.0
O121 O 0.37672 0.05471 0.25877 0.0
O122 O 0.40133 0.00957 0.26157 0.0
C123 C 0.37631 0.14659 0.28273 0.0
O124 O 0.38491 0.13714 0.31256 0.0
C125 C 0.46042 0.07339 0.20595 0.0
Zn126 Zn 0.23123 0.18448 0.48425 0.0
Zn127 Zn 0.26778 0.1365 0.47629 0.0
O128 O 0.289 0.17405 0.44784 0.0
O129 O 0.25136 0.20747 0.44659 0.0
O130 O 0.29291 0.09777 0.47395 0.0
O131 O 0.2549 0.19817 0.53069 0.0
O132 O 0.27997 0.15347 0.52528 0.0
C133 C 0.27875 0.20063 0.43807 0.0
C134 C 0.19063 0.11778 0.47039 0.0
O135 O 0.2188 0.10991 0.46533 0.0
O136 O 0.18886 0.14887 0.47891 0.0
C137 C 0.32253 0.1032 0.48935 0.0
O138 O 0.33747 0.13499 0.50122 0.0
C139 C 0.27383 0.17907 0.54292 0.0
Zn140 Zn 0.10218 0.02803 0.77765 0.0
Zn141 Zn 0.15117 0.99149 0.78967 0.0
O142 O 0.12021 0.98178 0.82752 0.0
O143 O 0.08061 0.01215 0.81792 0.0
O144 O 0.18463 0.95937 0.79555 0.0
O145 O 0.08798 0.00164 0.7322 0.0
O146 O 0.12953 0.97361 0.74166 0.0
C147 C 0.0938 0.99194 0.83566 0.0
C148 C 0.16946 0.07082 0.79003 0.0
O149 O 0.17904 0.04215 0.79408 0.0
O150 O 0.13847 0.07128 0.78293 0.0
C151 C 0.20348 0.95506 0.77268 0.0
O152 O 0.20344 0.97413 0.74723 0.0
C153 C 0.10499 0.97982 0.72246 0.0
Zn154 Zn 0.25909 0.84891 0.02236 0.0
Zn155 Zn 0.21496 0.88557 0.02065 0.0
O156 O 0.20557 0.85349 0.97371 0.0
O157 O 0.24826 0.82637 0.97631 0.0
O158 O 0.17791 0.91558 0.02113 0.0
O159 O 0.24794 0.82419 0.06149 0.0
O160 O 0.21626 0.86341 0.06728 0.0
C161 C 0.22278 0.83339 0.95966 0.0
C162 C 0.28906 0.91912 0.02481 0.0
O163 O 0.25837 0.92235 0.01982 0.0
O164 O 0.29639 0.88993 0.02912 0.0
C165 C 0.17354 0.9336 0.04765 0.0
O166 O 0.19171 0.93173 0.07619 0.0
C167 C 0.22971 0.83917 0.07888 0.0
Zn168 Zn 0.27213 0.34423 0.03237 0.0
Zn169 Zn 0.24328 0.39635 0.04877 0.0
O170 O 0.22076 0.3767 0.00132 0.0
O171 O 0.24876 0.3364 0.98627 0.0
O172 O 0.21768 0.43531 0.05528 0.0
O173 O 0.25053 0.31721 0.06677 0.0
O174 O 0.23453 0.36409 0.0873 0.0
C175 C 0.22649 0.35402 0.97954 0.0
C176 C 0.31947 0.40838 0.04479 0.0
O177 O 0.29283 0.42041 0.04789 0.0
O178 O 0.31798 0.37595 0.04032 0.0
C179 C 0.22404 0.4611 0.03803 0.0
O180 O 0.25015 0.46425 0.02087 0.0
C181 C 0.23765 0.33259 0.08937 0.0
Zn182 Zn 0.7889 0.23527 0.02779 0.0
Zn183 Zn 0.82706 0.19209 0.01756 0.0
O184 O 0.82703 0.22195 0.97507 0.0
O185 O 0.79166 0.2564 0.98532 0.0
O186 O 0.85733 0.15558 0.00772 0.0
O187 O 0.81307 0.25894 0.07081 0.0
O188 O 0.84208 0.21718 0.06764 0.0
C189 C 0.81053 0.2451 0.96586 0.0
C190 C 0.75231 0.16689 0.02451 0.0
O191 O 0.78046 0.15972 0.01796 0.0
O192 O 0.74936 0.198 0.03062 0.0
C193 C 0.88859 0.15661 0.01699 0.0
O194 O 0.90661 0.18437 0.03502 0.0
C195 C 0.83399 0.24282 0.08457 0.0
Zn196 Zn 0.08172 0.5406 0.27481 0.0
Zn197 Zn 0.11371 0.48731 0.27834 0.0
O198 O 0.08916 0.48549 0.32154 0.0
O199 O 0.06365 0.53002 0.31787 0.0
O200 O 0.14446 0.452 0.28062 0.0
O201 O 0.05814 0.51974 0.23008 0.0
O202 O 0.08265 0.47455 0.23254 0.0
C203 C 0.0708 0.50528 0.33363 0.0
C204 C 0.15089 0.56362 0.27764 0.0
O205 O 0.15033 0.53133 0.27877 0.0
O206 O 0.12399 0.57532 0.27626 0.0
C207 C 0.14412 0.42655 0.29837 0.0
O208 O 0.11998 0.41888 0.3176 0.0
C209 C 0.06293 0.4912 0.21674 0.0
Zn210 Zn 0.76419 0.83847 0.53447 0.0
Zn211 Zn 0.73535 0.88753 0.55289 0.0
O212 O 0.71486 0.87125 0.504 0.0
O213 O 0.74756 0.83654 0.48668 0.0
O214 O 0.70966 0.92613 0.5604 0.0
O215 O 0.73666 0.80617 0.5615 0.0
O216 O 0.72557 0.85222 0.58871 0.0
C217 C 0.724 0.8527 0.48069 0.0
C218 C 0.81182 0.90033 0.55426 0.0
O219 O 0.7848 0.91213 0.55484 0.0
O220 O 0.81049 0.86791 0.5499 0.0
C221 C 0.71629 0.9509 0.54197 0.0
O222 O 0.74194 0.95234 0.52431 0.0
C223 C 0.7257 0.81967 0.58652 0.0
Zn224 Zn 0.90387 0.00584 0.22305 0.0
Zn225 Zn 0.86998 0.05712 0.22459 0.0
O226 O 0.89023 0.06017 0.2731 0.0
O227 O 0.91896 0.01794 0.27252 0.0
O228 O 0.84419 0.09648 0.22748 0.0
O229 O 0.93237 0.02648 0.18995 0.0
O230 O 0.90756 0.07151 0.19346 0.0
C231 C 0.90914 0.04259 0.28815 0.0
C232 C 0.83445 0.97946 0.20834 0.0
O233 O 0.83338 0.01165 0.21317 0.0
O234 O 0.8625 0.96997 0.20907 0.0
C235 C 0.82662 0.09856 0.2519 0.0
O236 O 0.82383 0.07408 0.27246 0.0
C237 C 0.93001 0.05646 0.18218 0.0
Zn238 Zn 0.28397 0.7268 0.51392 0.0
Zn239 Zn 0.32877 0.68942 0.50748 0.0
O240 O 0.3309 0.72006 0.46567 0.0
O241 O 0.28961 0.74825 0.47194 0.0
O242 O 0.36497 0.65821 0.50599 0.0
O243 O 0.30343 0.75206 0.55801 0.0
O244 O 0.33813 0.71534 0.55693 0.0
C245 C 0.31238 0.741 0.45507 0.0
C246 C 0.25417 0.65577 0.50808 0.0
O247 O 0.28415 0.65241 0.50379 0.0
O248 O 0.24734 0.68551 0.51351 0.0
C249 C 0.37167 0.64039 0.4804 0.0
O250 O 0.35647 0.6429 0.45047 0.0
C251 C 0.3262 0.73895 0.57279 0.0
Zn252 Zn 0.38758 0.49694 0.70062 0.0
Zn253 Zn 0.36086 0.54944 0.71276 0.0
O254 O 0.38697 0.55016 0.75856 0.0
O255 O 0.40908 0.50386 0.7486 0.0
O256 O 0.33658 0.5901 0.7197 0.0
O257 O 0.41459 0.51559 0.66612 0.0
O258 O 0.3962 0.56362 0.6784 0.0
C259 C 0.40506 0.529 0.76832 0.0
C260 C 0.32054 0.47192 0.69716 0.0
O261 O 0.32266 0.50422 0.70612 0.0
O262 O 0.34625 0.4612 0.68898 0.0
C263 C 0.31877 0.59214 0.74397 0.0
O264 O 0.31502 0.56713 0.76391 0.0
C265 C 0.41534 0.54728 0.6627 0.0
Zn266 Zn 0.57659 0.02795 0.77651 0.0
Zn267 Zn 0.61333 0.97977 0.77934 0.0
O268 O 0.5927 0.98031 0.82557 0.0
O269 O 0.55868 0.01756 0.81958 0.0
O270 O 0.64595 0.94588 0.78068 0.0
O271 O 0.55289 0.00807 0.73171 0.0
O272 O 0.58128 0.96575 0.73351 0.0
C273 C 0.57127 0.9968 0.83704 0.0
C274 C 0.64532 0.05633 0.77679 0.0
O275 O 0.64769 0.02462 0.77686 0.0
O276 O 0.61719 0.06536 0.77762 0.0
C277 C 0.64571 0.91858 0.79578 0.0
O278 O 0.62082 0.90784 0.81332 0.0
C279 C 0.56009 0.98096 0.71779 0.0
Zn280 Zn 0.7379 0.69389 0.97999 0.0
Zn281 Zn 0.77587 0.64746 0.97779 0.0
O282 O 0.79763 0.68018 0.94544 0.0
O283 O 0.75881 0.71216 0.9402 0.0
O284 O 0.80127 0.60964 0.98388 0.0
O285 O 0.76136 0.71478 0.02518 0.0
O286 O 0.78831 0.67165 0.0247 0.0
C287 C 0.7865 0.70504 0.93277 0.0
C288 C 0.69862 0.6262 0.96879 0.0
O289 O 0.72749 0.61924 0.96537 0.0
O290 O 0.69591 0.65718 0.97659 0.0
C291 C 0.82238 0.59825 0.96719 0.0
O292 O 0.83009 0.61118 0.93914 0.0
C293 C 0.78264 0.69923 0.03932 0.0
Zn294 Zn 0.95488 0.54279 0.76762 0.0
Zn295 Zn 0.92477 0.59576 0.76027 0.0
O296 O 0.9507 0.60517 0.80976 0.0
O297 O 0.97952 0.56307 0.81213 0.0
O298 O 0.89497 0.63285 0.75343 0.0
O299 O 0.97636 0.54792 0.72593 0.0
O300 O 0.95431 0.59435 0.7192 0.0
C301 C 0.97136 0.58966 0.82599 0.0
C302 C 0.88433 0.52132 0.76143 0.0
O303 O 0.88578 0.55334 0.75782 0.0
O304 O 0.91098 0.50945 0.76651 0.0
C305 C 0.88105 0.64452 0.77787 0.0
O306 O 0.89002 0.63674 0.8083 0.0
C307 C 0.97228 0.57289 0.70908 0.0
Zn308 Zn 0.75294 0.34155 0.52331 0.0
Zn309 Zn 0.71528 0.38606 0.52913 0.0
O310 O 0.70352 0.35937 0.47937 0.0
O311 O 0.733 0.3179 0.47892 0.0
O312 O 0.68108 0.41861 0.5369 0.0
O313 O 0.74703 0.31954 0.56518 0.0
O314 O 0.71758 0.36033 0.57378 0.0
C315 C 0.7129 0.33384 0.46357 0.0
C316 C 0.7893 0.41202 0.52699 0.0
O317 O 0.76058 0.41989 0.52957 0.0
O318 O 0.79244 0.38066 0.52395 0.0
C319 C 0.66191 0.42909 0.51436 0.0
O320 O 0.66245 0.41848 0.48259 0.0
C321 C 0.73078 0.33539 0.58416 0.0
Zn322 Zn 0.61433 0.54542 0.28619 0.0
Zn323 Zn 0.65646 0.5022 0.29095 0.0
O324 O 0.62179 0.48677 0.32519 0.0
O325 O 0.59066 0.52685 0.32362 0.0
O326 O 0.68661 0.46627 0.28956 0.0
O327 O 0.59665 0.52687 0.23894 0.0
O328 O 0.63486 0.49389 0.24171 0.0
C329 C 0.59772 0.49998 0.33552 0.0
C330 C 0.6824 0.58151 0.30083 0.0
O331 O 0.68859 0.55096 0.30191 0.0
O332 O 0.65242 0.58578 0.29457 0.0
C333 C 0.71778 0.46924 0.30008 0.0
O334 O 0.73457 0.49852 0.31654 0.0
C335 C 0.61137 0.50499 0.22516 0.0
Tb336 Tb 0.04631 0.07476 0.01568 0.0
C337 C 0.03708 0.01309 0.95713 0.0
Tb338 Tb 0.00493 0.00589 0.0247 0.0
O339 O 0.08958 0.06605 0.04896 0.0
O340 O 0.05725 0.0244 0.02104 0.0
O341 O 0.04344 0.04713 0.96539 0.0
C342 C 0.98554 0.94574 0.05091 0.0
O343 O 0.02533 0.99095 0.97846 0.0
C344 C 0.96908 0.05022 -0.00091 0.0
C345 C 0.01466 0.06849 0.08309 0.0
O346 O 0.97134 0.95455 0.02323 0.0
O347 O 0.0099 0.97087 0.06356 0.0
O348 O 0.96053 0.01655 0.99352 0.0
O349 O 0.99485 0.05626 0.0204 0.0
O350 O 0.00766 0.03433 0.07476 0.0
O351 O 0.02729 0.0905 0.0621 0.0
C352 C 0.06289 0.13358 0.98729 0.0
O353 O 0.03717 0.10893 0.97742 0.0
O354 O 0.08001 0.12528 0.01356 0.0
C355 C 0.08255 0.03238 0.04331 0.0
Tb356 Tb 0.27196 0.83488 0.27586 0.0
C357 C 0.33198 0.79732 0.26638 0.0
Tb358 Tb 0.25657 0.75407 0.25931 0.0
O359 O 0.29008 0.83609 0.33005 0.0
O360 O 0.2737 0.79041 0.30112 0.0
O361 O 0.3202 0.82592 0.26181 0.0
C362 C 0.23966 0.6872 0.26994 0.0
O363 O 0.31189 0.76699 0.26839 0.0
C364 C 0.25838 0.79003 0.20678 0.0
C365 C 0.19526 0.79467 0.26519 0.0
O366 O 0.25661 0.69911 0.24612 0.0
O367 O 0.23089 0.71303 0.28652 0.0
O368 O 0.26267 0.75802 0.20594 0.0
O369 O 0.24913 0.79781 0.23491 0.0
O370 O 0.20506 0.76444 0.25929 0.0
O371 O 0.21693 0.82458 0.27424 0.0
C372 C 0.28171 0.90174 0.26479 0.0
O373 O 0.27008 0.88892 0.29118 0.0
O374 O 0.28866 0.87673 0.24538 0.0
C375 C 0.28522 0.80255 0.33089 0.0
Tb376 Tb 0.54639 0.03299 0.52041 0.0
C377 C 0.51644 0.9944 0.58125 0.0
Tb378 Tb 0.47038 0.01291 0.51928 0.0
O379 O 0.5508 0.07366 0.56193 0.0
O380 O 0.50666 0.05949 0.52863 0.0
O381 O 0.54339 0.00757 0.5668 0.0
C382 C 0.40537 0.01174 0.52575 0.0
O383 O 0.48519 0.99329 0.56702 0.0
C384 C 0.49813 0.96949 0.48406 0.0
C385 C 0.49902 0.05453 0.46117 0.0
O386 O 0.417 0.99459 0.50225 0.0
O387 O 0.43097 0.02865 0.54641 0.0
O388 O 0.46734 0.97341 0.4769 0.0
O389 O 0.51011 0.98658 0.51187 0.0
O390 O 0.47497 0.0498 0.48137 0.0
O391 O 0.52932 0.0472 0.47003 0.0
C392 C 0.60858 0.02331 0.51461 0.0
O393 O 0.58112 1.00032 0.50628 0.0
O394 O 0.60106 0.05297 0.52419 0.0
C395 C 0.5196 0.07712 0.55602 0.0
Tb396 Tb 0.25557 0.293 0.79564 0.0
C397 C 0.26716 0.34288 0.73871 0.0
Tb398 Tb 0.25454 0.26099 0.72331 0.0
O399 O 0.31103 0.31023 0.80064 0.0
O400 O 0.28651 0.26683 0.76865 0.0
O401 O 0.25423 0.33804 0.76749 0.0
C402 C 0.27979 0.23608 0.67125 0.0
O403 O 0.27345 0.31651 0.71913 0.0
C404 C 0.19584 0.26832 0.74124 0.0
C405 C 0.23707 0.21026 0.77923 0.0
O406 O 0.25281 0.24946 0.66929 0.0
O407 O 0.29222 0.23635 0.70222 0.0
O408 O 0.19888 0.24586 0.71666 0.0
O409 O 0.22428 0.28739 0.75022 0.0
O410 O 0.24082 0.21336 0.74702 0.0
O411 O 0.24313 0.23739 0.80252 0.0
C412 C 0.22931 0.31251 0.84994 0.0
O413 O 0.21308 0.29142 0.82482 0.0
O414 O 0.26074 0.32214 0.84489 0.0
C415 C 0.31456 0.28711 0.77685 0.0
Tb416 Tb 0.98702 0.00751 0.47351 0.0
C417 C 0.93906 0.97848 0.52614 0.0
Tb418 Tb 0.01739 0.99701 0.54354 0.0
O419 O 0.00563 0.96319 0.45098 0.0
O420 O 0.99351 0.96501 0.50026 0.0
O421 O 0.94254 0.99797 0.50069 0.0
C422 C 0.05025 0.97087 0.59255 0.0
O423 O 0.96537 0.97026 0.54373 0.0
C424 C 0.99928 0.05702 0.53827 0.0
C425 C 0.06569 0.02935 0.49041 0.0
O426 O 0.02951 0.99176 0.59666 0.0
O427 O 0.05279 0.96471 0.56077 0.0
O428 O 1.00158 0.04292 0.56647 0.0
O429 O 0.01121 0.0395 0.51682 0.0
O430 O 0.06308 0.01838 0.52084 0.0
O431 O 0.03922 0.02743 0.46764 0.0
C432 C 0.95649 0.03168 0.4219 0.0
O433 O 0.95509 0.99905 0.42564 0.0
O434 O 0.97439 0.05082 0.44756 0.0
C435 C 0.00706 0.9489 0.47905 0.0
Tb436 Tb 0.31277 0.79395 0.78818 0.0
C437 C 0.24671 0.79317 0.82619 0.0
Tb438 Tb 0.23937 0.77346 0.74758 0.0
O439 O 0.3106 0.8487 0.79924 0.0
O440 O 0.27855 0.81796 0.76058 0.0
O441 O 0.2795 0.79181 0.82859 0.0
C442 C 0.18165 0.77962 0.71412 0.0
O443 O 0.22711 0.78893 0.79716 0.0
C444 C 0.2645 0.71766 0.76364 0.0
C445 C 0.30274 0.77389 0.7075 0.0
O446 O 0.18488 0.75698 0.73541 0.0
O447 O 0.21084 0.79829 0.71097 0.0
O448 O 0.23584 0.71639 0.74527 0.0
O449 O 0.27562 0.74963 0.77196 0.0
O450 O 0.26941 0.77094 0.70582 0.0
O451 O 0.32384 0.78214 0.73599 0.0
C452 C 0.37035 0.79009 0.82371 0.0
O453 O 0.36772 0.80973 0.79937 0.0
O454 O 0.34084 0.77292 0.82811 0.0
C455 C 0.28359 0.84689 0.77829 0.0
Tb456 Tb 0.4851 0.02035 0.01343 0.0
C457 C 0.53875 0.9746 0.03438 0.0
Tb458 Tb 0.55717 0.05554 0.03296 0.0
O459 O 0.4887 0.02183 0.95963 0.0
O460 O 0.531 0.01974 0.99215 0.0
O461 O 0.50627 0.97645 0.03047 0.0
C462 C 0.62148 0.08662 0.03292 0.0
O463 O 0.56302 0.00181 0.03274 0.0
C464 C 0.51994 0.05284 0.08356 0.0
C465 C 0.5042 0.10025 0.00795 0.0
O466 O 0.60962 0.0688 0.05638 0.0
O467 O 0.59709 0.08737 0.00975 0.0
O468 O 0.5524 0.05556 0.08706 0.0
O469 O 0.51101 0.05673 0.05342 0.0
O470 O 0.53653 0.09797 0.01214 0.0
O471 O 0.48045 0.07418 0.01378 0.0
C472 C 0.42023 0.99224 0.01378 0.0
O473 O 0.43283 0.009 0.99003 0.0
O474 O 0.44429 0.99053 0.03706 0.0
C475 C 0.52111 0.02403 0.96224 0.0
Tb476 Tb 0.22509 0.26764 0.28957 0.0
C477 C 0.29371 0.28289 0.33986 0.0
Tb478 Tb 0.29289 0.30981 0.26962 0.0
O479 O 0.2369 0.21504 0.28371 0.0
O480 O 0.27091 0.25821 0.27556 0.0
O481 O 0.26021 0.27889 0.33631 0.0
C482 C 0.34654 0.32543 0.23668 0.0
O483 O 0.31195 0.29066 0.31509 0.0
C484 C 0.25033 0.34649 0.29311 0.0
C485 C 0.22861 0.2829 0.21414 0.0
O486 O 0.34475 0.33756 0.26736 0.0
O487 O 0.31794 0.30597 0.22461 0.0
O488 O 0.28259 0.35836 0.29412 0.0
O489 O 0.24395 0.31766 0.27588 0.0
O490 O 0.26127 0.29668 0.22182 0.0
O491 O 0.20813 0.27157 0.23664 0.0
C492 C 0.17298 0.26471 0.3253 0.0
O493 O 0.17473 0.24212 0.30026 0.0
O494 O 0.20003 0.28876 0.32944 0.0
C495 C 0.26765 0.22583 0.27678 0.0
Tb496 Tb 0.49432 0.50572 0.95949 0.0
C497 C 0.44747 0.48266 0.01366 0.0
Tb498 Tb 0.52476 0.50595 0.03123 0.0
O499 O 0.48076 0.44902 0.95282 0.0
O500 O 0.52113 0.47345 0.98628 0.0
O501 O 0.45088 0.50166 0.98799 0.0
C502 C 0.55659 0.49413 0.08899 0.0
O503 O 0.47407 0.47619 0.03194 0.0
C504 C 0.49978 0.56191 0.0188 0.0
C505 C 0.57251 0.53423 0.97723 0.0
O506 O 0.53594 0.47095 0.06844 0.0
O507 O 0.55987 0.52394 0.07681 0.0
O508 O 0.49844 0.54736 0.04675 0.0
O509 O 0.51473 0.54463 -5e-05 0.0
O510 O 0.5706 0.52351 0.00782 0.0
O511 O 0.54578 0.53074 0.95429 0.0
C512 C 0.46611 0.51761 0.90025 0.0
O513 O 0.49503 0.50824 0.90537 0.0
O514 O 0.4532 0.52048 0.92828 0.0
C515 C 0.50316 0.4442 0.97615 0.0
Tb516 Tb 0.81317 0.29987 0.29609 0.0
C517 C 0.74709 0.29752 0.33382 0.0
Tb518 Tb 0.74013 0.27335 0.25477 0.0
O519 O 0.81423 0.35627 0.29568 0.0
O520 O 0.774 0.32012 0.27248 0.0
O521 O 0.78049 0.30076 0.33641 0.0
C522 C 0.68287 0.27302 0.21706 0.0
O523 O 0.72699 0.28823 0.30499 0.0
C524 C 0.76887 0.22074 0.27183 0.0
C525 C 0.80596 0.27758 0.21654 0.0
O526 O 0.6855 0.25807 0.24467 0.0
O527 O 0.71242 0.28805 0.21037 0.0
O528 O 0.73915 0.2172 0.25491 0.0
O529 O 0.77929 0.25306 0.27833 0.0
O530 O 0.7725 0.27421 0.21412 0.0
O531 O 0.82627 0.28631 0.2454 0.0
C532 C 0.8657 0.29303 0.3385 0.0
O533 O 0.86787 0.30812 0.31077 0.0
O534 O 0.83422 0.28231 0.34216 0.0
C535 C 0.78423 0.35248 0.27893 0.0
Tb536 Tb 0.98818 0.51276 0.51795 0.0
C537 C 0.03986 0.46442 0.53587 0.0
Tb538 Tb 0.06278 0.54455 0.52998 0.0
O539 O 0.98656 0.51138 0.46339 0.0
O540 O 0.03098 0.50989 0.49182 0.0
O541 O 0.00829 0.46882 0.53611 0.0
C542 C 0.1267 0.5733 0.52243 0.0
O543 O 0.06453 0.48947 0.52965 0.0
C544 C 0.03086 0.54622 0.5854 0.0
C545 C 0.0125 0.59208 0.51043 0.0
O546 O 0.11753 0.54741 0.53973 0.0
O547 O 0.09986 0.58311 0.50967 0.0
O548 O 0.06323 0.54923 0.58517 0.0
O549 O 0.01971 0.54848 0.55547 0.0
O550 O 0.04216 0.58488 0.50527 0.0
O551 O 0.98862 0.56842 0.52011 0.0
C552 C 0.92336 0.48638 0.52242 0.0
O553 O 0.93448 0.50702 0.50068 0.0
O554 O 0.94878 0.48044 0.54186 0.0
C555 C 0.0188 0.51434 0.46272 0.0
Tb556 Tb 0.76037 0.80094 0.29766 0.0
C557 C 0.77168 0.84912 0.24044 0.0
Tb558 Tb 0.75899 0.76704 0.22609 0.0
O559 O 0.81559 0.81978 0.30193 0.0
O560 O 0.7918 0.77519 0.27101 0.0
O561 O 0.75719 0.84453 0.2683 0.0
C562 C 0.78112 0.74512 0.17072 0.0
O563 O 0.77888 0.82248 0.22204 0.0
C564 C 0.7003 0.77323 0.24463 0.0
C565 C 0.74656 0.71799 0.28428 0.0
O566 O 0.79474 0.7429 0.20084 0.0
O567 O 0.75505 0.75973 0.17156 0.0
O568 O 0.70356 0.74991 0.22096 0.0
O569 O 0.72834 0.79339 0.25248 0.0
O570 O 0.74907 0.72001 0.25165 0.0
O571 O 0.75172 0.74589 0.30653 0.0
C572 C 0.73185 0.81979 0.35064 0.0
O573 O 0.71739 0.79703 0.3261 0.0
O574 O 0.76317 0.83125 0.34601 0.0
C575 C 0.81941 0.79634 0.27854 0.0
Tb576 Tb 0.77263 0.33359 0.78282 0.0
C577 C 0.83031 0.29139 0.77988 0.0
Tb578 Tb 0.75411 0.25333 0.76712 0.0
O579 O 0.7862 0.33562 0.8378 0.0
O580 O 0.76968 0.28952 0.80965 0.0
O581 O 0.82038 0.32009 0.77169 0.0
C582 C 0.73041 0.18605 0.77114 0.0
O583 O 0.8084 0.26274 0.78337 0.0
C584 C 0.76076 0.28881 0.71395 0.0
C585 C 0.69492 0.29699 0.76937 0.0
O586 O 0.75661 0.1985 0.75662 0.0
O587 O 0.71798 0.21149 0.78376 0.0
O588 O 0.7641 0.25667 0.7145 0.0
O589 O 0.75025 0.2973 0.74113 0.0
O590 O 0.70359 0.26596 0.76679 0.0
O591 O 0.71751 0.32662 0.77606 0.0
C592 C 0.79139 0.40021 0.77352 0.0
O593 O 0.76968 0.38824 0.79357 0.0
O594 O 0.80161 0.37457 0.75826 0.0
C595 C 0.77968 0.30224 0.83958 0.0
Tb596 Tb 0.72591 0.75978 0.78574 0.0
C597 C 0.79762 0.78081 0.83138 0.0
Tb598 Tb 0.79078 0.80047 0.75794 0.0
O599 O 0.73854 0.70742 0.78073 0.0
O600 O 0.76936 0.74971 0.76675 0.0
O601 O 0.7641 0.77344 0.82977 0.0
C602 C 0.8415 0.81704 0.72111 0.0
O603 O 0.81414 0.79 0.80574 0.0
C604 C 0.75133 0.8381 0.78588 0.0
C605 C 0.72262 0.76864 0.70917 0.0
O606 O 0.8414 0.79755 0.74568 0.0
O607 O 0.81317 0.82776 0.71753 0.0
O608 O 0.78348 0.8492 0.78458 0.0
O609 O 0.74315 0.80896 0.76907 0.0
O610 O 0.75616 0.77795 0.71313 0.0
O611 O 0.7043 0.7627 0.73449 0.0
C612 C 0.67561 0.75772 0.82377 0.0
O613 O 0.67621 0.73487 0.79857 0.0
O614 O 0.70301 0.7813 0.82712 0.0
C615 C 0.76784 0.71793 0.77024 0.0
Tb616 Tb 0.53029 0.5606 0.49682 0.0
C617 C 0.52189 0.49418 0.44308 0.0
Tb618 Tb 0.49196 0.48834 0.51248 0.0
O619 O 0.57375 0.55626 0.53292 0.0
O620 O 0.54244 0.51265 0.50851 0.0
O621 O 0.52841 0.52868 0.44918 0.0
C622 C 0.48148 0.42855 0.53998 0.0
O623 O 0.50851 0.47271 0.46442 0.0
C624 C 0.45174 0.53115 0.49408 0.0
C625 C 0.49931 0.55565 0.56446 0.0
O626 O 0.4653 0.43425 0.51181 0.0
O627 O 0.50345 0.45624 0.552 0.0
O628 O 0.4417 0.50221 0.50694 0.0
O629 O 0.4812 0.53029 0.48696 0.0
O630 O 0.49694 0.52142 0.56002 0.0
O631 O 0.50977 0.57644 0.54182 0.0
C632 C 0.54574 0.61947 0.46843 0.0
O633 O 0.51831 0.60923 0.48175 0.0
O634 O 0.56487 0.59669 0.47113 0.0
C635 C 0.56783 0.52234 0.53014 0.0
Tb636 Tb 0.05175 0.54106 0.02273 0.0
C637 C 0.01771 0.50018 0.08093 0.0
Tb638 Tb 0.97557 0.51832 0.01711 0.0
O639 O 0.05316 0.58271 0.0625 0.0
O640 O 0.01039 0.56614 0.02788 0.0
O641 O 0.04552 0.51127 0.06667 0.0
C642 C 0.90939 0.51511 0.01858 0.0
O643 O 0.98716 0.50056 0.06611 0.0
C644 C 0.00771 0.47636 0.98456 0.0
C645 C 0.00595 0.56182 0.9615 0.0
O646 O 0.93339 0.53139 0.04137 0.0
O647 O 0.92326 0.49945 0.9958 0.0
O648 O 0.9768 0.47906 0.97563 0.0
O649 O 0.01725 0.49364 0.01272 0.0
O650 O 0.98111 0.55629 0.9806 0.0
O651 O 0.03644 0.55574 0.97186 0.0
C652 C 0.11623 0.53669 0.01946 0.0
O653 O 0.09047 0.51883 -8e-05 0.0
O654 O 0.10593 0.55956 0.03871 0.0
C655 C 0.0217 0.58459 0.05526 0.0
C656 C 0.05739 0.18828 0.91614 0.0
C657 C 0.05607 0.22043 0.93386 0.0
C658 C 0.07119 0.19856 0.98767 0.0
C659 C 0.06991 0.16561 0.97014 0.0
N660 N 0.07418 0.13247 0.91843 0.0
N661 N 0.07333 0.26013 0.98394 0.0
C662 C 0.06732 0.16175 0.9345 0.0
C663 C 0.06701 0.22687 0.96887 0.0
N664 N 0.04702 0.18222 0.88236 0.0
N665 N 0.07389 0.20233 0.02203 0.0
H666 H 0.07086 0.28131 0.97044 0.0
H667 H 0.08419 0.26705 0.00877 0.0
H668 H 0.07807 0.1826 0.03677 0.0
H669 H 0.07043 0.22456 0.03592 0.0
H670 H 0.04356 0.15788 0.86892 0.0
H671 H 0.04 0.20113 0.86793 0.0
H672 H 0.07549 0.12913 0.89262 0.0
H673 H 0.08203 0.113 0.93162 0.0
C674 C 0.11799 0.82145 0.22022 0.0
C675 C 0.09294 0.79167 0.22183 0.0
C676 C 0.13259 0.77029 0.26154 0.0
C677 C 0.15942 0.7961 0.25367 0.0
N678 N 0.17713 0.84211 0.21818 0.0
N679 N 0.07632 0.73636 0.24344 0.0
C680 C 0.15206 0.82109 0.23154 0.0
C681 C 0.09996 0.76588 0.24282 0.0
N682 N 0.10929 0.84969 0.20661 0.0
N683 N 0.13823 0.75018 0.28693 0.0
H684 H 0.05207 0.73261 0.23068 0.0
H685 H 0.08144 0.71486 0.25503 0.0
H686 H 0.1616 0.75339 0.30148 0.0
H687 H 0.11906 0.73291 0.29567 0.0
H688 H 0.12617 0.87329 0.20729 0.0
H689 H 0.0843 0.85049 0.19813 0.0
H690 H 0.17224 0.85801 0.19944 0.0
H691 H 0.2025 0.84068 0.22193 0.0
C692 C 0.53687 0.89007 0.46459 0.0
C693 C 0.53171 0.88678 0.42903 0.0
C694 C 0.51444 0.94318 0.4306 0.0
C695 C 0.51321 0.94292 0.4659 0.0
N696 N 0.51912 0.91293 0.5159 0.0
N697 N 0.51616 0.91026 0.37738 0.0
C698 C 0.52406 0.91596 0.48299 0.0
C699 C 0.52145 0.91378 0.41177 0.0
N700 N 0.55323 0.86758 0.4806 0.0
N701 N 0.5089 0.97154 0.41502 0.0
H702 H 0.52286 0.89021 0.36274 0.0
H703 H 0.50389 0.92633 0.36336 0.0
H704 H 0.50256 0.99297 0.42768 0.0
H705 H 0.51311 0.97504 0.39022 0.0
H706 H 0.56047 0.87032 0.50649 0.0
H707 H 0.56261 0.84837 0.46726 0.0
H708 H 0.52344 0.89176 0.52849 0.0
H709 H 0.50747 0.92964 0.52983 0.0
C710 C 0.37925 0.24781 0.73207 0.0
C711 C 0.39823 0.27732 0.71986 0.0
C712 C 0.36436 0.3145 0.74739 0.0
C713 C 0.34589 0.28505 0.76044 0.0
N714 N 0.34274 0.2258 0.77306 0.0
N715 N 0.41453 0.3396 0.72287 0.0
C716 C 0.35551 0.25234 0.75515 0.0
C717 C 0.39247 0.31092 0.72968 0.0
N718 N 0.38266 0.21528 0.72048 0.0
N719 N 0.35427 0.34564 0.75032 0.0
H720 H 0.43563 0.33804 0.71044 0.0
H721 H 0.41391 0.36478 0.73244 0.0
H722 H 0.33486 0.35012 0.76397 0.0
H723 H 0.36366 0.36651 0.73726 0.0
H724 H 0.36659 0.19273 0.72528 0.0
H725 H 0.39985 0.21086 0.7038 0.0
H726 H 0.35109 0.20237 0.7727 0.0
H727 H 0.32636 0.22857 0.79106 0.0
C728 C 0.04951 0.88108 0.51264 0.0
C729 C 0.02074 0.85587 0.51693 0.0
C730 C 0.98401 0.88675 0.4842 0.0
C731 C 0.01233 0.91337 0.48269 0.0
N732 N 0.07213 0.93006 0.48292 0.0
N733 N 0.96293 0.82839 0.49813 0.0
C734 C 0.04523 0.90846 0.49265 0.0
C735 C 0.98863 0.85664 0.49978 0.0
N736 N 0.08029 0.88024 0.52939 0.0
N737 N 0.95276 0.8909 0.47138 0.0
H738 H 0.96601 0.80561 0.50863 0.0
H739 H 0.93956 0.82623 0.48401 0.0
H740 H 0.94962 0.91111 0.45681 0.0
H741 H 0.93031 0.87494 0.47543 0.0
H742 H 0.10126 0.90026 0.53032 0.0
H743 H 0.08437 0.86043 0.54414 0.0
H744 H 0.09684 0.92624 0.487 0.0
H745 H 0.06894 0.94978 0.46766 0.0
C746 C 0.43965 0.75686 0.87137 0.0
C747 C 0.44559 0.7801 0.90112 0.0
C748 C 0.4074 0.81488 0.87643 0.0
C749 C 0.40082 0.79114 0.84711 0.0
N750 N 0.41784 0.74693 0.8121 0.0
N751 N 0.44416 0.83671 0.92799 0.0
C752 C 0.41938 0.76448 0.84309 0.0
C753 C 0.4323 0.81093 0.90241 0.0
N754 N 0.45188 0.72682 0.87069 0.0
N755 N 0.38895 0.84031 0.87996 0.0
H756 H 0.46309 0.835 0.94705 0.0
H757 H 0.43774 0.8611 0.92853 0.0
H758 H 0.37156 0.84494 0.86071 0.0
H759 H 0.38962 0.85562 0.90248 0.0
H760 H 0.44531 0.70718 0.85091 0.0
H761 H 0.46681 0.72034 0.89099 0.0
H762 H 0.4327 0.72884 0.80674 0.0
H763 H 0.40434 0.75361 0.79092 0.0
C764 C 0.45327 0.16583 0.02691 0.0
C765 C 0.48038 0.19171 0.04318 0.0
C766 C 0.52015 0.16497 0.01347 0.0
C767 C 0.49486 0.13487 0.00594 0.0
N768 N 0.43604 0.11355 0.98771 0.0
N769 N 0.54032 0.21733 0.05075 0.0
C770 C 0.46072 0.13765 0.00671 0.0
C771 C 0.51395 0.19247 0.03523 0.0
N772 N 0.42094 0.16747 0.03235 0.0
N773 N 0.54962 0.1672 -0.00053 0.0
H774 H 0.53752 0.23808 0.06719 0.0
H775 H 0.56548 0.21609 0.04899 0.0
H776 H 0.55309 0.14787 0.98158 0.0
H777 H 0.56831 0.18964 0.00217 0.0
H778 H 0.40017 0.14773 0.02409 0.0
H779 H 0.41511 0.18877 0.04599 0.0
H780 H 0.41051 0.1145 0.98568 0.0
H781 H 0.44199 0.09427 0.97133 0.0
C782 C 0.13343 0.27223 0.4065 0.0
C783 C 0.09867 0.2673 0.39436 0.0
C784 C 0.11212 0.25913 0.33623 0.0
C785 C 0.14661 0.26215 0.34859 0.0
N786 N 0.18849 0.26197 0.39577 0.0
N787 N 0.05409 0.2477 0.3486 0.0
C788 C 0.15678 0.2658 0.38385 0.0
C789 C 0.08774 0.25823 0.35946 0.0
N790 N 0.1445 0.28472 0.43927 0.0
N791 N 0.10273 0.25885 0.30251 0.0
H792 H 0.03553 0.24589 0.3649 0.0
H793 H 0.04484 0.23745 0.32398 0.0
H794 H 0.11975 0.25957 0.28467 0.0
H795 H 0.07856 0.26076 0.29248 0.0
H796 H 0.16997 0.29247 0.44844 0.0
H797 H 0.1284 0.29044 0.45663 0.0
H798 H 0.19621 0.26108 0.4212 0.0
H799 H 0.2059 0.2558 0.38005 0.0
C800 C 0.98965 0.06946 0.17037 0.0
C801 C 0.95599 0.07392 0.16222 0.0
C802 C 0.97195 0.09626 0.1097 0.0
C803 C 1.0011 0.08125 0.11349 0.0
N804 N 0.04043 0.0575 0.14897 0.0
N805 N 0.91555 0.09507 0.12487 0.0
C806 C 0.01112 0.06967 0.14464 0.0
C807 C 0.94743 0.0893 0.13254 0.0
N808 N 1.0008 0.06497 0.2027 0.0
N809 N 0.96745 0.11659 0.08423 0.0
H810 H 0.89677 0.09058 0.14069 0.0
H811 H 0.90712 0.1029 0.10191 0.0
H812 H 0.98499 0.12255 0.06733 0.0
H813 H 0.94829 0.13079 0.08222 0.0
H814 H 0.02576 0.06395 0.21073 0.0
H815 H 0.98569 0.06603 0.22218 0.0
H816 H 0.04714 0.04466 0.16958 0.0
H817 H 0.05744 0.05929 0.13102 0.0
C818 C 0.31147 0.79201 0.42286 0.0
C819 C 0.31503 0.75698 0.42259 0.0
C820 C 0.30259 0.75111 0.36087 0.0
C821 C 0.29325 0.78446 0.36195 0.0
N822 N 0.27926 0.83075 0.39787 0.0
N823 N 0.31166 0.70175 0.39063 0.0
C824 C 0.29531 0.80343 0.39403 0.0
C825 C 0.31063 0.73628 0.39136 0.0
N826 N 0.32281 0.81427 0.45123 0.0
N827 N 0.30348 0.73295 0.33097 0.0
H828 H 0.31821 0.6898 0.41185 0.0
H829 H 0.30433 0.68435 0.36908 0.0
H830 H 0.28958 0.73711 0.30937 0.0
H831 H 0.31645 0.71264 0.32832 0.0
H832 H 0.32322 0.84087 0.45198 0.0
H833 H 0.33523 0.80658 0.47259 0.0
H834 H 0.27815 0.84365 0.42129 0.0
H835 H 0.26282 0.8371 0.37875 0.0
C836 C 0.51159 0.97444 0.67331 0.0
C837 C 0.54512 0.97018 0.68204 0.0
C838 C 0.55181 0.96615 0.62188 0.0
C839 C 0.52263 0.98081 0.61486 0.0
N840 N 0.4762 0.0025 0.63752 0.0
N841 N 0.59834 0.96259 0.66303 0.0
C842 C 0.50233 0.98525 0.64129 0.0
C843 C 0.56546 0.96549 0.65589 0.0
N844 N 0.48897 0.96939 0.69627 0.0
N845 N 0.56636 0.95238 0.59616 0.0
H846 H 0.60958 0.96059 0.68704 0.0
H847 H 0.61513 0.96411 0.64493 0.0
H848 H 0.55625 0.95076 0.57105 0.0
H849 H 0.58593 0.9389 0.60008 0.0
H850 H 0.46339 0.96952 0.69044 0.0
H851 H 0.49533 0.9612 0.7198 0.0
H852 H 0.46336 0.00909 0.65751 0.0
H853 H 0.46954 0.01394 0.61604 0.0
C854 C 0.19124 0.31825 0.93154 0.0
C855 C 0.21104 0.3508 0.94459 0.0
C856 C 0.22472 0.36273 0.88853 0.0
C857 C 0.21418 0.32686 0.87832 0.0
N858 N 0.18093 0.27113 0.88691 0.0
N859 N 0.24343 0.40653 0.93568 0.0
C860 C 0.19441 0.30492 0.89839 0.0
C861 C 0.22577 0.37438 0.92289 0.0
N862 N 0.1707 0.29998 0.95164 0.0
N863 N 0.23409 0.3852 0.86535 0.0
H864 H 0.24429 0.41587 0.96083 0.0
H865 H 0.25839 0.4232 0.92182 0.0
H866 H 0.23259 0.37687 0.83978 0.0
H867 H 0.2398 0.41208 0.87079 0.0
H868 H 0.15367 0.27692 0.94336 0.0
H869 H 0.16882 0.31001 0.97611 0.0
H870 H 0.1698 0.25288 0.90191 0.0
H871 H 0.18116 0.26097 0.86226 0.0
C872 C 0.94946 0.06869 0.33803 0.0
C873 C 0.91757 0.04875 0.3247 0.0
C874 C 0.90736 0.0305 0.38004 0.0
C875 C 0.94174 0.04422 0.39147 0.0
N876 N 0.99619 0.07706 0.38222 0.0
N877 N 0.86474 0.01202 0.33202 0.0
C878 C 0.96285 0.0644 0.37111 0.0
C879 C 0.89576 0.03056 0.34557 0.0
N880 N 0.9669 0.09128 0.3188 0.0
N881 N 0.88604 0.01754 0.40231 0.0
H882 H 0.85501 0.01276 0.30707 0.0
H883 H 0.84929 0.99474 0.34491 0.0
H884 H 0.89406 0.01785 0.42792 0.0
H885 H 0.86005 0.00958 0.39623 0.0
H886 H 0.98897 0.10899 0.32802 0.0
H887 H 0.95748 0.09451 0.29431 0.0
H888 H 0.01364 0.08808 0.36688 0.0
H889 H 0.00716 0.07496 0.40636 0.0
C890 C 0.31405 0.71929 0.62869 0.0
C891 C 0.33113 0.74499 0.61015 0.0
C892 C 0.33478 0.78929 0.65795 0.0
C893 C 0.31639 0.76382 0.67581 0.0
N894 N 0.29585 0.70339 0.68178 0.0
N895 N 0.36432 0.80196 0.60897 0.0
C896 C 0.30861 0.72844 0.66232 0.0
C897 C 0.34382 0.77922 0.62562 0.0
N898 N 0.3004 0.68673 0.61332 0.0
N899 N 0.34195 0.82326 0.67112 0.0
H900 H 0.37119 0.79471 0.58546 0.0
H901 H 0.37668 0.82665 0.61935 0.0
H902 H 0.33606 0.83122 0.69482 0.0
H903 H 0.35218 0.84379 0.65809 0.0
H904 H 0.28312 0.66867 0.62358 0.0
H905 H 0.30479 0.67804 0.58934 0.0
H906 H 0.29392 0.6769 0.67546 0.0
H907 H 0.2896 0.70935 0.70563 0.0
C908 C 0.57953 0.02928 0.89353 0.0
C909 C 0.56536 0.99804 0.87295 0.0
C910 C 0.5283 0.98013 0.91569 0.0
C911 C 0.53825 0.01407 0.93302 0.0
N912 N 0.57027 0.0725 0.93581 0.0
N913 N 0.52642 0.94328 0.86366 0.0
C914 C 0.56345 0.03893 0.92156 0.0
C915 C 0.54007 0.97303 0.88404 0.0
N916 N 0.60815 0.04995 0.88576 0.0
N917 N 0.50788 0.95473 0.92962 0.0
H918 H 0.53572 0.93699 0.84114 0.0
H919 H 0.50517 0.92572 0.86825 0.0
H920 H 0.4991 0.95896 0.95284 0.0
H921 H 0.50212 0.92879 0.91978 0.0
H922 H 0.62147 0.07155 0.9014 0.0
H923 H 0.62041 0.04332 0.86529 0.0
H924 H 0.58607 0.09259 0.9264 0.0
H925 H 0.55752 0.08094 0.9551 0.0
C926 C 0.24933 0.29094 0.13133 0.0
C927 C 0.22875 0.31391 0.1191 0.0
C928 C 0.19533 0.30375 0.16642 0.0
C929 C 0.2166 0.28146 0.17797 0.0
N930 N 0.25159 0.24154 0.16305 0.0
N931 N 0.17512 0.33225 0.11906 0.0
C932 C 0.23846 0.27006 0.15658 0.0
C933 C 0.19932 0.31721 0.13469 0.0
N934 N 0.28088 0.2916 0.12197 0.0
N935 N 0.17236 0.31292 0.18611 0.0
H936 H 0.17648 0.34067 0.09515 0.0
H937 H 0.15212 0.33297 0.12816 0.0
H938 H 0.16814 0.3022 0.20862 0.0
H939 H 0.15815 0.33153 0.18041 0.0
H940 H 0.29728 0.27691 0.13261 0.0
H941 H 0.29266 0.31016 0.10761 0.0
H942 H 0.26681 0.23117 0.14721 0.0
H943 H 0.24413 0.22671 0.18248 0.0
C944 C 0.12155 0.95424 0.06418 0.0
C945 C 0.15041 0.95913 0.04646 0.0
C946 C 0.13907 0.0161 0.03244 0.0
C947 C 0.10858 0.00982 0.04781 0.0
N948 N 0.07892 0.98012 0.08913 0.0
N949 N 0.18561 0.99353 0.01158 0.0
C950 C 0.10199 0.98073 0.06658 0.0
C951 C 0.15892 0.98981 0.03014 0.0
N952 N 0.11199 0.92353 0.07757 0.0
N953 N 0.15047 0.04793 0.02189 0.0
H954 H 0.20211 0.97626 0.01089 0.0
H955 H 0.19016 0.01243 0.99494 0.0
H956 H 0.13702 0.06787 0.02199 0.0
H957 H 0.17459 0.05573 0.01507 0.0
H958 H 0.08917 0.91658 0.08738 0.0
H959 H 0.1256 0.90361 0.07629 0.0
H960 H 0.07473 0.96145 0.10604 0.0
H961 H 0.06672 0.0008 0.09359 0.0
C962 C 0.66679 0.56777 0.98187 0.0
C963 C 0.66786 0.59842 0.96503 0.0
C964 C 0.60636 0.58676 0.95572 0.0
C965 C 0.60517 0.55469 0.97005 0.0
N966 N 0.63505 0.51034 0.98731 0.0
N967 N 0.63898 0.62955 0.92584 0.0
C968 C 0.63568 0.54371 0.97997 0.0
C969 C 0.63772 0.60523 0.94841 0.0
N970 N 0.69443 0.56251 0.00165 0.0
N971 N 0.57847 0.60145 0.95177 0.0
H972 H 0.66172 0.64275 0.91903 0.0
H973 H 0.61755 0.63346 0.91121 0.0
H974 H 0.55564 0.59128 0.96024 0.0
H975 H 0.57937 0.62625 0.94408 0.0
H976 H 0.69342 0.54232 0.01708 0.0
H977 H 0.71748 0.57988 0.00548 0.0
H978 H 0.65687 0.50032 0.99192 0.0
H979 H 0.61276 0.49173 0.98501 0.0
C980 C 0.76553 0.44432 0.27768 0.0
C981 C 0.73494 0.43959 0.2928 0.0
C982 C 0.73115 0.37685 0.28452 0.0
C983 C 0.76474 0.38142 0.2763 0.0
N984 N 0.81392 0.42065 0.26344 0.0
N985 N 0.69274 0.40059 0.31722 0.0
C986 C 0.78201 0.41561 0.27257 0.0
C987 C 0.71895 0.40563 0.29815 0.0
N988 N 0.77787 0.47554 0.2664 0.0
N989 N 0.71005 0.3455 0.27769 0.0
H990 H 0.68401 0.421 0.32924 0.0
H991 H 0.68248 0.37623 0.32423 0.0
H992 H 0.71678 0.32585 0.26291 0.0
H993 H 0.68462 0.34127 0.28144 0.0
H994 H 0.79814 0.47951 0.25225 0.0
H995 H 0.76588 0.49665 0.26818 0.0
H996 H 0.82958 0.44504 0.26482 0.0
H997 H 0.82501 0.40019 0.25521 0.0
C998 C 0.83208 0.44229 0.49429 0.0
C999 C 0.81964 0.43877 0.52572 0.0
C1000 C 0.87323 0.47213 0.55464 0.0
C1001 C 0.88736 0.47091 0.52361 0.0
N1002 N 0.88128 0.45008 0.46447 0.0
N1003 N 0.82727 0.44945 0.58608 0.0
C1004 C 0.86697 0.45521 0.49342 0.0
C1005 C 0.83978 0.45382 0.55599 0.0
N1006 N 0.81042 0.43279 0.46529 0.0
N1007 N 0.89134 0.4915 0.58255 0.0
H1008 H 0.80213 0.4383 0.5876 0.0
H1009 H 0.84196 0.45552 0.60936 0.0
H1010 H 0.91594 0.50504 0.58274 0.0
H1011 H 0.88119 0.49644 0.60481 0.0
H1012 H 0.81719 0.43771 0.44151 0.0
H1013 H 0.78467 0.42312 0.46542 0.0
H1014 H 0.86814 0.43557 0.44275 0.0
H1015 H 0.90708 0.45703 0.46293 0.0
C1016 C 0.31783 0.15405 0.29309 0.0
C1017 C 0.34768 0.16565 0.27818 0.0
C1018 C 0.32136 0.21185 0.25575 0.0
C1019 C 0.29483 0.2045 0.27632 0.0
N1020 N 0.27318 0.17176 0.32103 0.0
N1021 N 0.37937 0.20923 0.24835 0.0
C1022 C 0.29435 0.17631 0.29663 0.0
C1023 C 0.34991 0.19559 0.26028 0.0
N1024 N 0.31128 0.12135 0.30319 0.0
N1025 N 0.31845 0.23261 0.23043 0.0
H1026 H 0.40088 0.19844 0.2515 0.0
H1027 H 0.38321 0.23294 0.23803 0.0
H1028 H 0.29647 0.2419 0.22436 0.0
H1029 H 0.33578 0.23672 0.21297 0.0
H1030 H 0.28839 0.11061 0.31137 0.0
H1031 H 0.32683 0.10348 0.29943 0.0
H1032 H 0.27346 0.15262 0.33752 0.0
H1033 H 0.25895 0.18977 0.32834 0.0
C1034 C 0.34495 0.07135 0.53538 0.0
C1035 C 0.3367 0.07349 0.50036 0.0
C1036 C 0.35536 0.01907 0.48802 0.0
C1037 C 0.37262 0.02322 0.52092 0.0
N1038 N 0.37725 0.04698 0.57851 0.0
N1039 N 0.33351 0.04864 0.44276 0.0
C1040 C 0.3649 0.04716 0.5456 0.0
C1041 C 0.34105 0.04673 0.47645 0.0
N1042 N 0.33289 0.0916 0.5586 0.0
N1043 N 0.35256 0.98873 0.46814 0.0
H1044 H 0.32362 0.06891 0.43312 0.0
H1045 H 0.33971 0.03156 0.42435 0.0
H1046 H 0.36075 0.96732 0.47741 0.0
H1047 H 0.33842 0.98347 0.44451 0.0
H1048 H 0.3359 0.08947 0.58437 0.0
H1049 H 0.317 0.10847 0.55187 0.0
H1050 H 0.37663 0.06648 0.59734 0.0
H1051 H 0.38858 0.02692 0.58669 0.0
C1052 C 0.73314 0.61984 0.28257 0.0
C1053 C 0.70926 0.6133 0.30586 0.0
C1054 C 0.7139 0.67558 0.31993 0.0
C1055 C 0.7374 0.68261 0.29597 0.0
N1056 N 0.77851 0.66113 0.26491 0.0
N1057 N 0.68801 0.63382 0.35564 0.0
C1058 C 0.75007 0.6546 0.28072 0.0
C1059 C 0.70397 0.64097 0.32789 0.0
N1060 N 0.73824 0.59345 0.2608 0.0
N1061 N 0.69833 0.70069 0.33276 0.0
H1062 H 0.68042 0.60838 0.36157 0.0
H1063 H 0.6858 0.65295 0.37426 0.0
H1064 H 0.70167 0.72576 0.32568 0.0
H1065 H 0.67866 0.69548 0.34757 0.0
H1066 H 0.75201 0.59761 0.24043 0.0
H1067 H 0.72731 0.56752 0.26203 0.0
H1068 H 0.79035 0.64165 0.2558 0.0
H1069 H 0.79237 0.68614 0.26439 0.0
C1070 C 0.83662 0.47521 0.73347 0.0
C1071 C 0.85171 0.49776 0.76232 0.0
C1072 C 0.81886 0.46114 0.79857 0.0
C1073 C 0.80541 0.43709 0.7699 0.0
N1074 N 0.79182 0.42709 0.70967 0.0
N1075 N 0.8492 0.5193 0.81949 0.0
C1076 C 0.81106 0.4462 0.73713 0.0
C1077 C 0.83982 0.49319 0.7939 0.0
N1078 N 0.8478 0.48071 0.70297 0.0
N1079 N 0.81414 0.45254 0.83034 0.0
H1080 H 0.86455 0.54297 0.8164 0.0
H1081 H 0.83911 0.51893 0.84235 0.0
H1082 H 0.79863 0.42987 0.83546 0.0
H1083 H 0.82722 0.46715 0.85204 0.0
H1084 H 0.84072 0.46291 0.68169 0.0
H1085 H 0.86542 0.50272 0.69944 0.0
H1086 H 0.79271 0.43409 0.68523 0.0
H1087 H 0.77237 0.40617 0.71186 0.0
C1088 C 0.98244 0.88462 0.1187 0.0
C1089 C 0.98114 0.85246 0.09959 0.0
C1090 C 0.97494 0.87998 0.04708 0.0
C1091 C 0.97721 0.91241 0.06619 0.0
N1092 N 0.97149 0.94307 0.11895 0.0
N1093 N 0.96488 0.81723 0.04666 0.0
C1094 C 0.97706 0.91381 0.10166 0.0
C1095 C 0.9735 0.84944 0.06407 0.0
N1096 N 0.99094 0.88802 0.1528 0.0
N1097 N 0.97667 0.8784 0.01317 0.0
H1098 H 0.96322 0.79448 0.05865 0.0
H1099 H 0.956 0.81308 0.0211 0.0
H1100 H 0.9777 0.89982 -0.00057 0.0
H1101 H 0.97948 0.85611 -0.00109 0.0
H1102 H 0.99637 0.91187 0.1674 0.0
H1103 H 0.99476 0.86734 0.16639 0.0
H1104 H 0.96814 0.94467 0.14439 0.0
H1105 H 0.96654 0.96446 0.10696 0.0
C1106 C 0.91288 0.25958 0.79524 0.0
C1107 C 0.93261 0.28759 0.81701 0.0
C1108 C 0.88695 0.31992 0.81196 0.0
C1109 C 0.86693 0.29222 0.78942 0.0
N1110 N 0.86487 0.24035 0.75241 0.0
N1111 N 0.94306 0.34823 0.83703 0.0
C1112 C 0.88122 0.26346 0.77872 0.0
C1113 C 0.92124 0.31916 0.82186 0.0
N1114 N 0.92392 0.22905 0.7912 0.0
N1115 N 0.8729 0.34532 0.82672 0.0
H1116 H 0.9683 0.34827 0.84506 0.0
H1117 H 0.93704 0.37283 0.83835 0.0
H1118 H 0.84747 0.34629 0.82283 0.0
H1119 H 0.88588 0.36357 0.84608 0.0
H1120 H 0.90901 0.20631 0.77873 0.0
H1121 H 0.94765 0.22625 0.80193 0.0
H1122 H 0.87527 0.22044 0.74179 0.0
H1123 H 0.8424 0.24331 0.73895 0.0
C1124 C 0.50364 0.13809 0.62848 0.0
C1125 C 0.48824 0.16179 0.61079 0.0
C1126 C 0.48902 0.12787 0.55728 0.0
C1127 C 0.50512 0.1041 0.57466 0.0
N1128 N 0.51956 0.08182 0.62751 0.0
N1129 N 0.45583 0.17296 0.56109 0.0
C1130 C 0.5096 0.1076 0.61055 0.0
C1131 C 0.47691 0.154 0.57613 0.0
N1132 N 0.51454 0.14591 0.66203 0.0
N1133 N 0.48851 0.12827 0.52321 0.0
H1134 H 0.44728 0.19255 0.57477 0.0
H1135 H 0.44426 0.16682 0.5364 0.0
H1136 H 0.50075 0.11281 0.50863 0.0
H1137 H 0.47965 0.14706 0.50992 0.0
H1138 H 0.53004 0.13228 0.67559 0.0
H1139 H 0.50911 0.16719 0.67601 0.0
H1140 H 0.51998 0.08121 0.65345 0.0
H1141 H 0.5246 0.05941 0.61533 0.0
C1142 C 0.62281 0.75117 0.29199 0.0
C1143 C 0.62098 0.78509 0.30539 0.0
C1144 C 0.66308 0.80966 0.26974 0.0
C1145 C 0.6695 0.77601 0.2612 0.0
N1146 N 0.65618 0.71411 0.26609 0.0
N1147 N 0.64172 0.84692 0.30965 0.0
C1148 C 0.64924 0.74646 0.27238 0.0
C1149 C 0.64155 0.81448 0.29478 0.0
N1150 N 0.59884 0.72345 0.29753 0.0
N1151 N 0.67678 0.8369 0.25311 0.0
H1152 H 0.62613 0.85151 0.32793 0.0
H1153 H 0.65924 0.86882 0.30583 0.0
H1154 H 0.69101 0.83389 0.23322 0.0
H1155 H 0.67082 0.86144 0.25631 0.0
H1156 H 0.5966 0.69858 0.28553 0.0
H1157 H 0.57902 0.72592 0.31159 0.0
H1158 H 0.64489 0.69251 0.27717 0.0
H1159 H 0.67506 0.7089 0.25202 0.0
C1160 C 0.03273 0.15391 0.53786 0.0
C1161 C 1.0036 0.16403 0.5224 0.0
C1162 C 0.97046 0.10553 0.52468 0.0
C1163 C 1.0003 0.09447 0.53643 0.0
N1164 N 0.06072 0.10675 0.55143 0.0
N1165 N 0.94622 0.14796 0.49526 0.0
C1166 C 0.03172 0.11829 0.54232 0.0
C1167 C 0.97276 0.13948 0.51438 0.0
N1168 N 0.06092 0.1785 0.54945 0.0
N1169 N 0.93989 0.08368 0.52371 0.0
H1170 H 0.94713 0.17216 0.48614 0.0
H1171 H 0.92447 0.12998 0.48561 0.0
H1172 H 0.93745 0.05882 0.53164 0.0
H1173 H 0.91691 0.09135 0.51836 0.0
H1174 H 0.08169 0.17324 0.56408 0.0
H1175 H 0.06248 0.20488 0.54694 0.0
H1176 H 0.08476 0.12177 0.55156 0.0
H1177 H 0.0609 0.08136 0.55695 0.0
C1178 C 0.60277 0.30065 0.18537 0.0
C1179 C 0.58381 0.26869 0.16916 0.0
C1180 C 0.63159 0.24033 0.18112 0.0
C1181 C 0.65075 0.27249 0.19659 0.0
N1182 N 0.65824 0.33494 0.20498 0.0
N1183 N 0.58286 0.21117 0.14283 0.0
C1184 C 0.63759 0.30329 0.19583 0.0
C1185 C 0.59898 0.23933 0.16443 0.0
N1186 N 0.58722 0.32783 0.1924 0.0
N1187 N 0.64452 0.21077 0.18246 0.0
H1188 H 0.55947 0.21009 0.12898 0.0
H1189 H 0.59406 0.1904 0.13596 0.0
H1190 H 0.66934 0.21089 0.19224 0.0
H1191 H 0.63014 0.18597 0.17536 0.0
H1192 H 0.59912 0.35041 0.20745 0.0
H1193 H 0.56151 0.3267 0.1858 0.0
H1194 H 0.65051 0.35839 0.2021 0.0
H1195 H 0.68406 0.3379 0.21202 0.0
C1196 C 0.55029 0.88885 0.99594 0.0
C1197 C 0.5451 0.86781 0.02298 0.0
C1198 C 0.54194 0.91917 0.06025 0.0
C1199 C 0.54739 0.93979 0.03321 0.0
N1200 N 0.5692 0.94618 0.97955 0.0
N1201 N 0.54474 0.86404 0.08254 0.0
C1202 C 0.55619 0.92536 0.00269 0.0
C1203 C 0.54394 0.88345 0.05581 0.0
N1204 N 0.54605 0.87445 0.96323 0.0
N1205 N 0.53421 0.93358 0.08981 0.0
H1206 H 0.54681 0.83798 0.0798 0.0
H1207 H 0.54654 0.8744 0.10749 0.0
H1208 H 0.53476 0.96013 0.09437 0.0
H1209 H 0.52605 0.91914 0.10914 0.0
H1210 H 0.54551 0.88919 0.94276 0.0
H1211 H 0.53936 0.84797 0.95581 0.0
H1212 H 0.57904 0.93663 0.95855 0.0
H1213 H 0.57337 0.97315 0.98273 0.0
C1214 C 0.92433 0.82716 0.68455 0.0
C1215 C 0.91461 0.80339 0.65521 0.0
C1216 C 0.85563 0.79484 0.66542 0.0
C1217 C 0.86526 0.8174 0.69559 0.0
N1218 N 0.90647 0.86118 0.73016 0.0
N1219 N 0.87127 0.77299 0.61234 0.0
C1220 C 0.89896 0.83575 0.70385 0.0
C1221 C 0.88026 0.79012 0.64386 0.0
N1222 N 0.95781 0.84 0.69474 0.0
N1223 N 0.8236 0.77572 0.65857 0.0
H1224 H 0.88904 0.7693 0.59604 0.0
H1225 H 0.84634 0.76556 0.60127 0.0
H1226 H 0.80404 0.77932 0.67248 0.0
H1227 H 0.81736 0.75423 0.64073 0.0
H1228 H 0.96697 0.85434 0.71778 0.0
H1229 H 0.97679 0.83512 0.68045 0.0
H1230 H 0.92997 0.87757 0.73609 0.0
H1231 H 0.88812 0.86776 0.74448 0.0
C1232 C 0.04422 0.97591 0.86799 0.0
C1233 C 0.07984 0.9841 0.8678 0.0
C1234 C 0.08702 0.00647 0.92694 0.0
C1235 C 0.05139 1.00005 0.92709 0.0
N1236 N 0.99627 0.97165 0.90044 0.0
N1237 N 0.13437 0.99239 0.90081 0.0
C1238 C 0.03001 0.98208 0.89852 0.0
C1239 C 0.10102 0.99439 0.89848 0.0
N1240 N 0.02419 0.96306 0.83861 0.0
N1241 N 0.10776 0.02539 0.9535 0.0
H1242 H 0.14532 0.98165 0.88129 0.0
H1243 H 0.15012 0.99685 0.92353 0.0
H1244 H 0.09899 0.03374 0.97548 0.0
H1245 H 0.13331 0.03512 0.95256 0.0
H1246 H 0.99804 0.96017 0.83554 0.0
H1247 H 0.03424 0.9558 0.81681 0.0
H1248 H 0.97961 0.95596 0.88152 0.0
H1249 H 0.98517 0.97698 0.92209 0.0
C1250 C 0.71051 0.30306 0.63213 0.0
C1251 C 0.73405 0.3292 0.62022 0.0
C1252 C 0.77468 0.3295 0.67 0.0
C1253 C 0.75116 0.30341 0.68214 0.0
N1254 N 0.69451 0.26943 0.67815 0.0
N1255 N 0.785 0.37287 0.63044 0.0
C1256 C 0.7183 0.29154 0.66429 0.0
C1257 C 0.76494 0.34434 0.64023 0.0
N1258 N 0.68136 0.2883 0.61198 0.0
N1259 N 0.80685 0.33889 0.68603 0.0
H1260 H 0.77839 0.38422 0.60876 0.0
H1261 H 0.80655 0.38709 0.64502 0.0
H1262 H 0.81494 0.32815 0.70756 0.0
H1263 H 0.8263 0.35522 0.67672 0.0
H1264 H 0.66484 0.26622 0.61705 0.0
H1265 H 0.6744 0.29748 0.58911 0.0
H1266 H 0.66911 0.26318 0.66854 0.0
H1267 H 0.69963 0.25893 0.70069 0.0
C1268 C 0.50546 0.09829 0.37849 0.0
C1269 C 0.47162 0.08847 0.36302 0.0
C1270 C 0.4569 0.05547 0.41027 0.0
C1271 C 0.49019 0.06707 0.42745 0.0
N1272 N 0.54313 0.10808 0.43079 0.0
N1273 N 0.41333 0.06777 0.37004 0.0
C1274 C 0.51369 0.09109 0.41246 0.0
C1275 C 0.44675 0.07101 0.38125 0.0
N1276 N 0.5298 0.11398 0.36054 0.0
N1277 N 0.43571 0.02739 0.41945 0.0
H1278 H 0.40501 0.07895 0.34888 0.0
H1279 H 0.39414 0.05756 0.38399 0.0
H1280 H 0.44308 0.01184 0.43742 0.0
H1281 H 0.41237 0.01649 0.40584 0.0
H1282 H 0.5555 0.11824 0.36896 0.0
H1283 H 0.52405 0.12114 0.33644 0.0
H1284 H 0.55981 0.1278 0.42185 0.0
H1285 H 0.54906 0.10526 0.45618 0.0
C1286 C 0.80383 0.74885 0.08308 0.0
C1287 C 0.79914 0.71275 0.07358 0.0
C1288 C 0.79642 0.69991 0.13153 0.0
C1289 C 0.79449 0.73503 0.13985 0.0
N1290 N 0.80767 0.79482 0.1283 0.0
N1291 N 0.81179 0.6588 0.09086 0.0
C1292 C 0.80223 0.7603 0.11712 0.0
C1293 C 0.80237 0.68969 0.09848 0.0
N1294 N 0.8092 0.77152 0.05919 0.0
N1295 N 0.7903 0.67597 0.15419 0.0
H1296 H 0.81979 0.65238 0.06777 0.0
H1297 H 0.81656 0.64208 0.10883 0.0
H1298 H 0.78624 0.6824 0.17892 0.0
H1299 H 0.78725 0.64933 0.14783 0.0
H1300 H 0.81021 0.7981 0.0632 0.0
H1301 H 0.81335 0.7632 0.03489 0.0
H1302 H 0.81401 0.81493 0.11338 0.0
H1303 H 0.80776 0.80347 0.15359 0.0
C1304 C 0.0651 0.94207 0.67799 0.0
C1305 C 0.09717 0.96365 0.68754 0.0
C1306 C 0.10374 0.97126 0.62854 0.0
C1307 C 0.06875 0.95797 0.62072 0.0
N1308 N 0.01724 0.9242 0.63462 0.0
N1309 N 0.14941 0.99562 0.67254 0.0
C1310 C 0.04995 0.94057 0.64433 0.0
C1311 C 0.11773 0.97635 0.66287 0.0
N1312 N 0.04926 0.92395 0.70148 0.0
N1313 N 0.12302 0.98001 0.60336 0.0
H1314 H 0.16068 0.99906 0.6974 0.0
H1315 H 0.16411 0.00927 0.65629 0.0
H1316 H 0.11308 0.97624 0.57806 0.0
H1317 H 0.14918 0.98768 0.60708 0.0
H1318 H 0.02654 0.90615 0.69611 0.0
H1319 H 0.06061 0.92486 0.72618 0.0
H1320 H 1.00072 0.91377 0.65108 0.0
H1321 H 0.00657 0.92146 0.60952 0.0
C1322 C 0.72165 0.35238 0.40644 0.0
C1323 C 0.70735 0.32631 0.42603 0.0
C1324 C 0.71043 0.28185 0.38013 0.0
C1325 C 0.73156 0.30742 0.36455 0.0
N1326 N 0.75907 0.36746 0.36448 0.0
N1327 N 0.68419 0.26639 0.43034 0.0
C1328 C 0.7374 0.34286 0.37798 0.0
C1329 C 0.69997 0.29108 0.41206 0.0
N1330 N 0.72022 0.38625 0.41494 0.0
N1331 N 0.70111 0.24868 0.36488 0.0
H1332 H 0.67451 0.27303 0.45257 0.0
H1333 H 0.68142 0.23978 0.4242 0.0
H1334 H 0.70985 0.24062 0.34262 0.0
H1335 H 0.68327 0.22958 0.37315 0.0
H1336 H 0.72779 0.40609 0.39998 0.0
H1337 H 0.70731 0.39382 0.43447 0.0
H1338 H 0.76727 0.39286 0.37554 0.0
H1339 H 0.77118 0.36186 0.34374 0.0
C1340 C 0.49262 0.09996 0.15993 0.0
C1341 C 0.46954 0.07251 0.1708 0.0
C1342 C 0.47773 0.03317 0.12317 0.0
C1343 C 0.50066 0.06044 0.112 0.0
N1344 N 0.52351 0.12183 0.11459 0.0
N1345 N 0.43182 0.01713 0.15654 0.0
C1346 C 0.50599 0.09459 0.12871 0.0
C1347 C 0.45936 0.0405 0.15022 0.0
N1348 N 0.50302 0.13044 0.1801 0.0
N1349 N 0.47479 0.99984 0.10924 0.0
H1350 H 0.41737 0.02216 0.17575 0.0
H1351 H 0.42128 0.99471 0.14063 0.0
H1352 H 0.48836 0.99335 0.08983 0.0
H1353 H 0.46116 0.97839 0.11881 0.0
H1354 H 0.52264 0.15003 0.17548 0.0
H1355 H 0.49311 0.13532 0.20257 0.0
H1356 H 0.5253 0.14767 0.12367 0.0
H1357 H 0.53371 0.11873 0.09196 0.0
C1358 C 0.80588 0.76554 0.92002 0.0
C1359 C 0.80717 0.72991 0.91346 0.0
C1360 C 0.83013 0.74281 0.861 0.0
C1361 C 0.81624 0.77314 0.86239 0.0
N1362 N 0.79976 0.81876 0.89553 0.0
N1363 N 0.83052 0.68683 0.88235 0.0
C1364 C 0.80793 0.78672 0.89317 0.0
C1365 C 0.82328 0.71927 0.88578 0.0
N1366 N 0.80227 0.77851 0.95171 0.0
N1367 N 0.849 0.73657 0.8358 0.0
H1368 H 0.82708 0.66951 0.90054 0.0
H1369 H 0.83985 0.6768 0.86132 0.0
H1370 H 0.85472 0.75428 0.81822 0.0
H1371 H 0.86176 0.71605 0.83435 0.0
H1372 H 0.80299 0.8047 0.95854 0.0
H1373 H 0.80195 0.76325 0.97187 0.0
H1374 H 0.78942 0.82879 0.91593 0.0
H1375 H 0.80291 0.83484 0.87609 0.0
C1376 C 0.93022 0.12986 0.98556 0.0
C1377 C 0.90503 0.12648 0.00798 0.0
C1378 C 0.919 0.07052 0.02189 0.0
C1379 C 0.94381 0.07367 -0.00098 0.0
N1380 N 0.96582 0.10116 0.95236 0.0
N1381 N 0.86993 0.08949 0.04104 0.0
C1382 C 0.94721 0.10184 0.97882 0.0
C1383 C 0.89746 0.09531 0.02378 0.0
N1384 N 0.93819 0.16003 0.97089 0.0
N1385 N 0.91732 0.04519 0.04346 0.0
H1386 H 0.85456 0.10756 0.04447 0.0
H1387 H 0.86087 0.06571 0.04982 0.0
H1388 H 0.93261 0.02674 0.04339 0.0
H1389 H 0.90265 0.04405 0.06332 0.0
H1390 H 0.95904 0.16586 0.95773 0.0
H1391 H 0.92495 0.18016 0.97344 0.0
H1392 H 0.96719 0.11932 0.93477 0.0
H1393 H 0.97722 0.08027 0.94612 0.0
C1394 C 0.35567 0.4344 0.00348 0.0
C1395 C 0.35039 0.43159 0.03759 0.0
C1396 C 0.40569 0.46892 0.05553 0.0
C1397 C 0.41312 0.46713 0.02156 0.0
N1398 N 0.39625 0.44251 0.96361 0.0
N1399 N 0.37077 0.44357 0.09652 0.0
C1400 C 0.38829 0.44871 0.99553 0.0
C1401 C 0.37548 0.4482 0.06381 0.0
N1402 N 0.3294 0.42329 0.97852 0.0
N1403 N 0.42676 0.49144 0.07963 0.0
H1404 H 0.34842 0.4295 0.10331 0.0
H1405 H 0.38973 0.45167 0.11658 0.0
H1406 H 0.4482 0.50825 0.07428 0.0
H1407 H 0.42115 0.49609 0.10413 0.0
H1408 H 0.33082 0.42831 0.95353 0.0
H1409 H 0.30518 0.41196 0.98324 0.0
H1410 H 0.38023 0.42568 0.94496 0.0
H1411 H 0.41996 0.45109 0.95632 0.0
C1412 C 0.32861 0.65658 0.7597 0.0
C1413 C 0.30576 0.62434 0.75243 0.0
C1414 C 0.25957 0.65339 0.76607 0.0
C1415 C 0.28109 0.68648 0.76685 0.0
N1416 N 0.33733 0.71865 0.76407 0.0
N1417 N 0.24843 0.59217 0.74609 0.0
C1418 C 0.31602 0.68776 0.76408 0.0
C1419 C 0.27096 0.6227 0.75521 0.0
N1420 N 0.36262 0.65748 0.76414 0.0
N1421 N 0.22845 0.65124 0.77682 0.0
H1422 H 0.25566 0.56929 0.73758 0.0
H1423 H 0.22237 0.59028 0.74408 0.0
H1424 H 0.2202 0.673 0.78677 0.0
H1425 H 0.21269 0.62779 0.77968 0.0
H1426 H 0.38036 0.67989 0.77306 0.0
H1427 H 0.37305 0.63527 0.76217 0.0
H1428 H 0.36032 0.72109 0.75418 0.0
H1429 H 0.33134 0.7415 0.77327 0.0
C1430 C 0.22142 0.61096 0.53842 0.0
C1431 C 0.22644 0.62554 0.50781 0.0
C1432 C 0.16904 0.59718 0.48422 0.0
C1433 C 0.16189 0.58861 0.51694 0.0
N1434 N 0.18112 0.59087 0.57642 0.0
N1435 N 0.20599 0.63273 0.45099 0.0
C1436 C 0.18818 0.59576 0.54432 0.0
C1437 C 0.20061 0.61832 0.48037 0.0
N1438 N 0.24842 0.61244 0.56208 0.0
N1439 N 0.14611 0.58445 0.45671 0.0
H1440 H 0.22958 0.64648 0.44682 0.0
H1441 H 0.18691 0.63239 0.43149 0.0
H1442 H 0.12294 0.56846 0.45824 0.0
H1443 H 0.15131 0.58693 0.43202 0.0
H1444 H 0.24698 0.59971 0.58385 0.0
H1445 H 0.27298 0.62332 0.55801 0.0
H1446 H 0.1987 0.5992 0.59759 0.0
H1447 H 0.15696 0.58171 0.58256 0.0
C1448 C 0.69196 0.89145 0.82339 0.0
C1449 C 0.6738 0.89906 0.79354 0.0
C1450 C 0.71172 0.87311 0.75967 0.0
C1451 C 0.7268 0.8616 0.78913 0.0
N1452 N 0.72999 0.85744 0.84884 0.0
N1453 N 0.66369 0.89326 0.73282 0.0
C1454 C 0.71658 0.87016 0.82095 0.0
C1455 C 0.68312 0.88904 0.76153 0.0
N1456 N 0.68701 0.90608 0.85405 0.0
N1457 N 0.72505 0.86918 0.72996 0.0
H1458 H 0.64137 0.90262 0.73296 0.0
H1459 H 0.66791 0.88487 0.7087 0.0
H1460 H 0.74579 0.85749 0.72756 0.0
H1461 H 0.71761 0.88015 0.70836 0.0
H1462 H 0.70183 0.90443 0.87638 0.0
H1463 H 0.67023 0.92281 0.85694 0.0
H1464 H 0.72063 0.85892 0.87203 0.0
H1465 H 0.74911 0.84317 0.84815 0.0
C1466 C 0.67543 0.9723 0.50155 0.0
C1467 C 0.6916 0.97346 0.53488 0.0
C1468 C 0.65638 0.01296 0.55498 0.0
C1469 C 0.64164 0.01317 0.52127 0.0
N1470 N 0.64288 1.00019 0.46196 0.0
N1471 N 0.70281 0.00052 0.59189 0.0
C1472 C 0.65334 0.99535 0.49439 0.0
C1473 C 0.68381 0.99566 0.56116 0.0
N1474 N 0.67904 0.94741 0.47724 0.0
N1475 N 0.64285 0.02706 0.58132 0.0
H1476 H 0.72294 0.98806 0.59726 0.0
H1477 H 0.70051 0.01913 0.61097 0.0
H1478 H 0.62309 0.04036 0.57831 0.0
H1479 H 0.64972 0.02346 0.60634 0.0
H1480 H 0.66518 0.94322 0.45348 0.0
H1481 H 0.69301 0.92834 0.48187 0.0
H1482 H 0.65291 0.99035 0.44124 0.0
H1483 H 0.62666 0.01709 0.45614 0.0
C1484 C 0.27947 0.41593 0.68137 0.0
C1485 C 0.29238 0.44503 0.70515 0.0
C1486 C 0.28565 0.40828 0.75106 0.0
C1487 C 0.2731 0.37857 0.72745 0.0
N1488 N 0.24575 0.35768 0.6712 0.0
N1489 N 0.29146 0.47051 0.76145 0.0
C1490 C 0.26605 0.38343 0.69282 0.0
C1491 C 0.28947 0.44175 0.73958 0.0
N1492 N 0.28105 0.41927 0.64795 0.0
N1493 N 0.29669 0.40504 0.78378 0.0
H1494 H 0.29266 0.49516 0.75336 0.0
H1495 H 0.28736 0.46909 0.7866 0.0
H1496 H 0.29784 0.3814 0.79324 0.0
H1497 H 0.30876 0.42627 0.80063 0.0
H1498 H 0.27575 0.39818 0.62957 0.0
H1499 H 0.28907 0.44337 0.63913 0.0
H1500 H 0.23804 0.36095 0.64629 0.0
H1501 H 0.23333 0.33463 0.67921 0.0
C1502 C 0.19946 0.59302 0.25021 0.0
C1503 C 0.183 0.58847 0.27951 0.0
C1504 C 0.21741 0.64261 0.3075 0.0
C1505 C 0.22881 0.65022 0.27611 0.0
N1506 N 0.24551 0.62583 0.22493 0.0
N1507 N 0.17927 0.60464 0.33786 0.0
C1508 C 0.22467 0.62324 0.24964 0.0
C1509 C 0.19351 0.61166 0.30904 0.0
N1510 N 0.18949 0.56966 0.22236 0.0
N1511 N 0.23048 0.66449 0.33577 0.0
H1512 H 0.16317 0.58109 0.33997 0.0
H1513 H 0.18267 0.62198 0.3594 0.0
H1514 H 0.24976 0.68591 0.33535 0.0
H1515 H 0.22495 0.65994 0.35997 0.0
H1516 H 0.19736 0.57384 0.19885 0.0
H1517 H 0.17188 0.54667 0.22241 0.0
H1518 H 0.24492 0.60596 0.20606 0.0
H1519 H 0.26662 0.6457 0.22606 0.0
C1520 C 0.5624 0.71114 0.44348 0.0
C1521 C 0.5408 0.70567 0.41274 0.0
C1522 C 0.53412 0.64281 0.41371 0.0
C1523 C 0.55023 0.64847 0.44723 0.0
N1524 N 0.58169 0.68677 0.49402 0.0
N1525 N 0.5074 0.66735 0.36695 0.0
C1526 C 0.56556 0.6823 0.46193 0.0
C1527 C 0.52756 0.67174 0.39701 0.0
N1528 N 0.57948 0.74394 0.45494 0.0
N1529 N 0.52502 0.60974 0.39815 0.0
H1530 H 0.50356 0.68815 0.35345 0.0
H1531 H 0.49353 0.64347 0.35596 0.0
H1532 H 0.52956 0.58813 0.40998 0.0
H1533 H 0.51555 0.60382 0.37285 0.0
H1534 H 0.59764 0.74962 0.47587 0.0
H1535 H 0.57744 0.76536 0.44167 0.0
H1536 H 0.59021 0.71085 0.50781 0.0
H1537 H 0.58551 0.66589 0.50742 0.0
C1538 C 0.61714 0.32062 0.72193 0.0
C1539 C 0.59228 0.29136 0.72585 0.0
C1540 C 0.63232 0.27405 0.76816 0.0
C1541 C 0.65905 0.29842 0.75794 0.0
N1542 N 0.67619 0.34073 0.71864 0.0
N1543 N 0.57611 0.23905 0.75265 0.0
C1544 C 0.65135 0.32119 0.7336 0.0
C1545 C 0.59957 0.268 0.74946 0.0
N1546 N 0.6081 0.34729 0.70575 0.0
N1547 N 0.63821 0.25688 0.79575 0.0
H1548 H 0.55174 0.23425 0.74001 0.0
H1549 H 0.58146 0.21897 0.76638 0.0
H1550 H 0.66164 0.26151 0.8104 0.0
H1551 H 0.61916 0.24091 0.80601 0.0
H1552 H 0.62482 0.37062 0.7045 0.0
H1553 H 0.583 0.34732 0.69698 0.0
H1554 H 0.67103 0.35476 0.69842 0.0
H1555 H 0.70164 0.33977 0.72295 0.0
C1556 C 0.0538 0.4037 0.96196 0.0
C1557 C 0.04032 0.39585 0.9277 0.0
C1558 C 0.01935 0.45017 0.92901 0.0
C1559 C 0.02667 0.4543 0.96466 0.0
N1560 N 0.0645 0.44451 0.01187 0.0
N1561 N 0.01439 0.4129 0.87682 0.0
C1562 C 0.04835 0.43417 0.98026 0.0
C1563 C 0.0252 0.42005 0.91045 0.0
N1564 N 0.07007 0.38069 0.97732 0.0
N1565 N 0.00798 0.47583 0.91299 0.0
H1566 H 0.02032 0.39224 0.86235 0.0
H1567 H 0.99896 0.42665 0.86338 0.0
H1568 H 0.00565 0.49899 0.92598 0.0
H1569 H 0.00431 0.47603 0.88697 0.0
H1570 H 0.0765 0.38182 0.00322 0.0
H1571 H 0.0761 0.35939 0.96383 0.0
H1572 H 0.08287 0.43269 0.02341 0.0
H1573 H 0.06266 0.46747 0.02527 0.0
C1574 C 0.89541 0.81891 0.22878 0.0
C1575 C 0.90087 0.78503 0.21957 0.0
C1576 C 0.86033 0.76155 0.25749 0.0
C1577 C 0.8506 0.79424 0.26208 0.0
N1578 N 0.85837 0.85441 0.2506 0.0
N1579 N 0.88596 0.72327 0.22264 0.0
C1580 C 0.86827 0.82317 0.24767 0.0
C1581 C 0.88287 0.75613 0.23349 0.0
N1582 N 0.91688 0.8472 0.22031 0.0
N1583 N 0.84891 0.73596 0.27702 0.0
H1584 H 0.90221 0.71816 0.2052 0.0
H1585 H 0.8704 0.70104 0.22886 0.0
H1586 H 0.83346 0.7395 0.29574 0.0
H1587 H 0.85762 0.71274 0.27718 0.0
H1588 H 0.9165 0.87264 0.22922 0.0
H1589 H 0.93735 0.84516 0.20704 0.0
H1590 H 0.86688 0.87477 0.23656 0.0
H1591 H 0.84014 0.85953 0.26558 0.0
C1592 C 0.52406 0.39155 0.04605 0.0
C1593 C 0.4929 0.36806 0.04554 0.0
C1594 C 0.472 0.38659 0.99185 0.0
C1595 C 0.50204 0.41241 0.9942 0.0
N1596 N 0.56141 0.42745 0.0136 0.0
N1597 N 0.44238 0.33473 0.01286 0.0
C1598 C 0.52971 0.41089 0.0181 0.0
C1599 C 0.46822 0.36314 0.01699 0.0
N1600 N 0.54755 0.3967 0.07383 0.0
N1601 N 0.44721 0.38404 0.96562 0.0
H1602 H 0.43964 0.31599 0.02988 0.0
H1603 H 0.4254 0.32773 0.9911 0.0
H1604 H 0.45176 0.39342 0.94263 0.0
H1605 H 0.42239 0.37132 0.9662 0.0
H1606 H 0.56941 0.41586 0.07673 0.0
H1607 H 0.54392 0.38389 0.09535 0.0
H1608 H 0.58306 0.42533 0.02892 0.0
H1609 H 0.56632 0.43983 0.99204 0.0
C1610 C 0.94292 0.30939 0.40393 0.0
C1611 C 0.94283 0.27511 0.41235 0.0
C1612 C 0.89428 0.25225 0.3705 0.0
C1613 C 0.89412 0.28662 0.3617 0.0
N1614 N 0.9211 0.34729 0.36626 0.0
N1615 N 0.92467 0.21343 0.39921 0.0
C1616 C 0.91959 0.31497 0.37697 0.0
C1617 C 0.92047 0.24638 0.39416 0.0
N1618 N 0.96441 0.33668 0.42271 0.0
N1619 N 0.86899 0.22521 0.35699 0.0
H1620 H 0.94337 0.20828 0.41682 0.0
H1621 H 0.91175 0.19134 0.38405 0.0
H1622 H 0.85026 0.22735 0.33813 0.0
H1623 H 0.86526 0.20078 0.36584 0.0
H1624 H 0.96315 0.36261 0.42085 0.0
H1625 H 0.98273 0.33341 0.44174 0.0
H1626 H 0.9413 0.36795 0.37347 0.0
H1627 H 0.90306 0.35335 0.34861 0.0
C1628 C 0.02564 0.68881 0.53791 0.0
C1629 C 0.9915 0.69211 0.53591 0.0
C1630 C 0.97551 0.63558 0.5029 0.0
C1631 C 0.00786 0.6286 0.51343 0.0
N1632 N 0.06219 0.64865 0.54787 0.0
N1633 N 0.93341 0.66975 0.51495 0.0
C1634 C 0.03303 0.6554 0.53201 0.0
C1635 C 0.96623 0.66599 0.51743 0.0
N1636 N 0.0509 0.71701 0.54771 0.0
N1637 N 0.95375 0.61301 0.47942 0.0
H1638 H 0.92657 0.69261 0.52423 0.0
H1639 H 0.91323 0.64992 0.50502 0.0
H1640 H 0.96044 0.59106 0.46782 0.0
H1641 H 0.93071 0.61789 0.46917 0.0
H1642 H 0.07632 0.71616 0.54701 0.0
H1643 H 0.04631 0.74186 0.55304 0.0
H1644 H 0.07927 0.66719 0.5642 0.0
H1645 H 0.06768 0.62404 0.54885 0.0
C1646 C 0.59027 0.75617 0.85657 0.0
C1647 C 0.601 0.76678 0.89126 0.0
C1648 C 0.6588 0.76209 0.88204 0.0
C1649 C 0.64902 0.75711 0.8467 0.0
N1650 N 0.60583 0.75376 0.79987 0.0
N1651 N 0.64656 0.78423 0.93645 0.0
C1652 C 0.61479 0.75498 0.83378 0.0
C1653 C 0.63554 0.77067 0.90395 0.0
N1654 N 0.5566 0.74621 0.84551 0.0
N1655 N 0.69004 0.75763 0.89476 0.0
H1656 H 0.63054 0.79143 0.95324 0.0
H1657 H 0.67201 0.79126 0.94585 0.0
H1658 H 0.70735 0.75011 0.8796 0.0
H1659 H 0.69739 0.75763 0.92041 0.0
H1660 H 0.54741 0.73497 0.82118 0.0
H1661 H 0.53788 0.74578 0.86156 0.0
H1662 H 0.58199 0.75628 0.7894 0.0
H1663 H 0.62293 0.75325 0.78224 0.0
C1664 C 0.43641 0.58361 0.6166 0.0
C1665 C 0.44281 0.56502 0.64458 0.0
C1666 C 0.49673 0.55704 0.62635 0.0
C1667 C 0.48755 0.56998 0.59561 0.0
N1668 N 0.45886 0.6113 0.56938 0.0
N1669 N 0.48503 0.54949 0.68376 0.0
C1670 C 0.46092 0.58887 0.59342 0.0
C1671 C 0.47525 0.55713 0.65208 0.0
N1672 N 0.40647 0.5944 0.61113 0.0
N1673 N 0.52528 0.54348 0.6302 0.0
H1674 H 0.46972 0.55043 0.70309 0.0
H1675 H 0.50914 0.54566 0.69168 0.0
H1676 H 0.54255 0.54565 0.6125 0.0
H1677 H 0.53138 0.52962 0.65022 0.0
H1678 H 0.39882 0.60491 0.58932 0.0
H1679 H 0.38851 0.59161 0.62801 0.0
H1680 H 0.44117 0.62727 0.56794 0.0
H1681 H 0.47717 0.61703 0.55322 0.0
C1682 C 0.81074 0.29431 0.93084 0.0
C1683 C 0.81057 0.2585 0.93195 0.0
C1684 C 0.79217 0.2498 0.87092 0.0
C1685 C 0.78727 0.28485 0.87117 0.0
N1686 N 0.78098 0.33538 0.90663 0.0
N1687 N 0.79669 0.20074 0.90276 0.0
C1688 C 0.79368 0.30579 0.90258 0.0
C1689 C 0.80067 0.23587 0.90182 0.0
N1690 N 0.82656 0.31743 0.95733 0.0
N1691 N 0.78819 0.22913 0.84154 0.0
H1692 H 0.80283 0.18907 0.9243 0.0
H1693 H 0.78516 0.18287 0.88249 0.0
H1694 H 0.77382 0.23379 0.82032 0.0
H1695 H 0.79795 0.20654 0.83901 0.0
H1696 H 0.82959 0.34424 0.95668 0.0
H1697 H 0.83982 0.30974 0.97818 0.0
H1698 H 0.78325 0.35007 0.92981 0.0
H1699 H 0.76374 0.34216 0.88856 0.0
C1700 C 0.01318 0.48652 0.17419 0.0
C1701 C 0.04588 0.47945 0.18198 0.0
C1702 C 0.04846 0.46854 0.12164 0.0
C1703 C 0.02194 0.48672 0.11472 0.0
N1704 N 0.97831 0.51373 0.13687 0.0
N1705 N 0.09529 0.46277 0.16126 0.0
C1706 C 1.00339 0.49521 0.14144 0.0
C1707 C 0.06358 0.46949 0.15526 0.0
N1708 N 0.99188 0.48571 0.19849 0.0
N1709 N 0.05834 0.44941 0.09613 0.0
H1710 H 0.10752 0.46211 0.18516 0.0
H1711 H 0.11026 0.45966 0.14204 0.0
H1712 H 0.04468 0.44529 0.07227 0.0
H1713 H 0.07624 0.43387 0.0999 0.0
H1714 H 0.96673 0.48795 0.19359 0.0
H1715 H 0.99852 0.47877 0.2225 0.0
H1716 H 0.96729 0.52368 0.15685 0.0
H1717 H 0.97029 0.52211 0.1141 0.0
C1718 C 0.68985 0.82084 0.43017 0.0
C1719 C 0.71014 0.85221 0.4456 0.0
C1720 C 0.72636 0.86794 0.39138 0.0
C1721 C 0.7153 0.83272 0.37872 0.0
N1722 N 0.67905 0.77707 0.38253 0.0
N1723 N 0.74455 0.9082 0.44131 0.0
C1724 C 0.69377 0.80976 0.39656 0.0
C1725 C 0.72646 0.87715 0.4261 0.0
N1726 N 0.66795 0.80155 0.44835 0.0
N1727 N 0.7371 0.89209 0.37016 0.0
H1728 H 0.74474 0.91555 0.46685 0.0
H1729 H 0.76047 0.92573 0.42907 0.0
H1730 H 0.73609 0.88557 0.34428 0.0
H1731 H 0.74343 0.91867 0.37749 0.0
H1732 H 0.65053 0.77934 0.43829 0.0
H1733 H 0.66544 0.80995 0.47316 0.0
H1734 H 0.66725 0.75771 0.39602 0.0
H1735 H 0.67813 0.76912 0.35711 0.0
C1736 C 0.39977 0.51236 0.82588 0.0
C1737 C 0.41912 0.53134 0.80362 0.0
C1738 C 0.46745 0.54645 0.84707 0.0
C1739 C 0.4497 0.5232 0.86743 0.0
N1740 N 0.4007 0.47993 0.8745 0.0
N1741 N 0.47154 0.56508 0.79117 0.0
C1742 C 0.41614 0.50531 0.85663 0.0
C1743 C 0.45302 0.54818 0.81371 0.0
N1744 N 0.36579 0.50093 0.81745 0.0
N1745 N 0.49739 0.56771 0.86 0.0
H1746 H 0.46113 0.56823 0.767 0.0
H1747 H 0.49751 0.57428 0.79574 0.0
H1748 H 0.50836 0.56774 0.88466 0.0
H1749 H 0.50982 0.58752 0.8474 0.0
H1750 H 0.34975 0.48991 0.83409 0.0
H1751 H 0.35311 0.50549 0.79482 0.0
H1752 H 0.37765 0.46359 0.86584 0.0
H1753 H 0.41228 0.47266 0.89646 0.0
C1754 C 0.84907 0.28561 0.136 0.0
C1755 C 0.84208 0.25037 0.12202 0.0
C1756 C 0.81639 0.23281 0.17227 0.0
C1757 C 0.82115 0.26824 0.18543 0.0
N1758 N 0.84893 0.32768 0.18382 0.0
N1759 N 0.83282 0.19047 0.13342 0.0
C1760 C 0.84015 0.29442 0.16874 0.0
C1761 C 0.83042 0.22396 0.14243 0.0
N1762 N 0.86295 0.31064 0.11699 0.0
N1763 N 0.79734 0.20754 0.18752 0.0
H1764 H 0.84489 0.18361 0.11296 0.0
H1765 H 0.82705 0.17041 0.14861 0.0
H1766 H 0.78699 0.21274 0.20952 0.0
H1767 H 0.78962 0.1819 0.177 0.0
H1768 H 0.86531 0.33717 0.12329 0.0
H1769 H 0.87153 0.30432 0.09406 0.0
H1770 H 0.86514 0.34747 0.17452 0.0
H1771 H 0.84154 0.33513 0.207 0.0
C1772 C 0.02441 0.50469 0.36919 0.0
C1773 C 0.05817 0.50148 0.36689 0.0
C1774 C 0.06841 0.50692 0.42875 0.0
C1775 C 0.03523 0.51376 0.43066 0.0
N1776 N 0.98947 0.53467 0.40051 0.0
N1777 N 0.11455 0.50603 0.39498 0.0
C1778 C 0.01536 0.51703 0.40026 0.0
C1779 C 0.08077 0.50385 0.39678 0.0
N1780 N 1.00095 0.49654 0.34144 0.0
N1781 N 0.08893 0.50461 0.45711 0.0
H1782 H 0.12502 0.50422 0.37244 0.0
H1783 H 0.13276 0.51236 0.41588 0.0
H1784 H 0.08547 0.51495 0.48066 0.0
H1785 H 0.11008 0.49321 0.45691 0.0
H1786 H 0.97535 0.49612 0.34262 0.0
H1787 H 0.00664 0.48656 0.3183 0.0
H1788 H 0.97581 0.5394 0.3785 0.0
H1789 H 0.98536 0.54935 0.42189 0.0
C1790 C 0.73038 0.76885 0.62146 0.0
C1791 C 0.71522 0.79789 0.61402 0.0
C1792 C 0.68793 0.79337 0.66574 0.0
C1793 C 0.70642 0.76767 0.67437 0.0
N1794 N 0.72975 0.71973 0.65488 0.0
N1795 N 0.66758 0.82527 0.62125 0.0
C1796 C 0.72131 0.75094 0.64948 0.0
C1797 C 0.68997 0.80617 0.63364 0.0
N1798 N 0.75573 0.76032 0.60454 0.0
N1799 N 0.66967 0.8064 0.68855 0.0
H1800 H 0.66691 0.83269 0.59683 0.0
H1801 H 0.64725 0.83009 0.63344 0.0
H1802 H 0.66615 0.79604 0.71133 0.0
H1803 H 0.65833 0.82759 0.68497 0.0
H1804 H 0.76623 0.73866 0.6085 0.0
H1805 H 0.76977 0.77663 0.58979 0.0
H1806 H 0.73867 0.70448 0.63684 0.0
H1807 H 0.72416 0.70769 0.67652 0.0
C1808 C 0.64512 0.48666 0.50673 0.0
C1809 C 0.64122 0.45571 0.5231 0.0
C1810 C 0.59594 0.47494 0.55181 0.0
C1811 C 0.59595 0.5024 0.5309 0.0
N1812 N 0.61817 0.531 0.48425 0.0
N1813 N 0.61042 0.41878 0.55949 0.0
C1814 C 0.62014 0.50761 0.50746 0.0
C1815 C 0.61619 0.44957 0.54553 0.0
N1816 N 0.67315 0.4965 0.4909 0.0
N1817 N 0.57688 0.47341 0.578 0.0
H1818 H 0.62438 0.39953 0.5554 0.0
H1819 H 0.59006 0.41118 0.57292 0.0
H1820 H 0.56253 0.49205 0.58346 0.0
H1821 H 0.57786 0.45587 0.59603 0.0
H1822 H 0.67898 0.52048 0.48135 0.0
H1823 H 0.69242 0.48238 0.49057 0.0
H1824 H 0.6325 0.53264 0.4641 0.0
H1825 H 0.60009 0.5465 0.48295 0.0
C1826 C 0.12911 0.09679 0.4553 0.0
C1827 C 0.16008 0.09061 0.47039 0.0
C1828 C 0.12945 0.03969 0.49348 0.0
C1829 C 0.09845 0.04974 0.48326 0.0
N1830 N 0.07135 0.09583 0.46381 0.0
N1831 N 0.18911 0.05968 0.51028 0.0
C1832 C 0.09881 0.08035 0.46646 0.0
C1833 C 0.16029 0.06279 0.491 0.0
N1834 N 0.12865 0.11892 0.43076 0.0
N1835 N 0.12977 0.0082 0.50536 0.0
H1836 H 0.21223 0.07653 0.51079 0.0
H1837 H 0.18929 0.04222 0.52849 0.0
H1838 H 0.10795 0.99054 0.50801 0.0
H1839 H 0.15175 0.99838 0.50967 0.0
H1840 H 0.10632 0.12214 0.41723 0.0
H1841 H 0.15061 0.13093 0.42157 0.0
H1842 H 0.07185 0.11967 0.45407 0.0
H1843 H 0.04986 0.08783 0.47553 0.0
C1844 C 0.24592 0.92599 0.80349 0.0
C1845 C 0.22438 0.9278 0.7739 0.0
C1846 C 0.24624 0.8807 0.74547 0.0
C1847 C 0.26314 0.87476 0.77659 0.0
N1848 N 0.27344 0.88926 0.83736 0.0
N1849 N 0.19906 0.90154 0.71845 0.0
C1850 C 0.26164 0.89684 0.80621 0.0
C1851 C 0.22308 0.90363 0.74535 0.0
N1852 N 0.25232 0.95261 0.82868 0.0
N1853 N 0.2537 0.86642 0.71574 0.0
H1854 H 0.18046 0.91652 0.71783 0.0
H1855 H 0.19533 0.88215 0.69845 0.0
H1856 H 0.27232 0.85164 0.71427 0.0
H1857 H 0.24415 0.87267 0.69239 0.0
H1858 H 0.27068 0.95433 0.8492 0.0
H1859 H 0.2421 0.97489 0.82733 0.0
H1860 H 0.27011 0.90297 0.85963 0.0
H1861 H 0.28209 0.86663 0.84173 0.0
C1862 C 0.32848 0.94815 0.98853 0.0
C1863 C 0.31696 0.94745 0.02059 0.0
C1864 C 0.36992 0.98484 0.04576 0.0
C1865 C 0.38389 0.97916 0.01519 0.0
N1866 N 0.37699 0.95215 0.95787 0.0
N1867 N 0.32579 0.96454 0.08014 0.0
C1868 C 0.3632 0.96057 0.98636 0.0
C1869 C 0.33728 0.96601 0.04933 0.0
N1870 N 0.30634 0.93577 0.96036 0.0
N1871 N 0.38733 0.00891 0.07088 0.0
H1872 H 0.30122 0.95239 0.08304 0.0
H1873 H 0.34098 0.97389 0.1027 0.0
H1874 H 0.41058 0.02452 0.0685 0.0
H1875 H 0.37715 0.01604 0.09255 0.0
H1876 H 0.31255 0.93833 0.93598 0.0
H1877 H 0.28076 0.92613 0.9615 0.0
H1878 H 0.36352 0.93551 0.93757 0.0
H1879 H 0.40265 0.95876 0.95557 0.0
C1880 C 0.82188 0.64949 0.78805 0.0
C1881 C 0.85097 0.66146 0.77213 0.0
C1882 C 0.82161 0.70491 0.74811 0.0
C1883 C 0.79608 0.69781 0.76991 0.0
N1884 N 0.77787 0.66688 0.81712 0.0
N1885 N 0.87976 0.7043 0.73955 0.0
C1886 C 0.79763 0.67088 0.79152 0.0
C1887 C 0.85118 0.69017 0.75272 0.0
N1888 N 0.81691 0.61732 0.79942 0.0
N1889 N 0.81699 0.72403 0.72177 0.0
H1890 H 0.90196 0.69469 0.74267 0.0
H1891 H 0.88216 0.7274 0.72814 0.0
H1892 H 0.79484 0.73312 0.71611 0.0
H1893 H 0.83342 0.72713 0.7034 0.0
H1894 H 0.79462 0.60624 0.80853 0.0
H1895 H 0.83306 0.60004 0.79576 0.0
H1896 H 0.7795 0.6485 0.83423 0.0
H1897 H 0.76384 0.68492 0.82485 0.0
C1898 C 0.85791 0.58152 0.01518 0.0
C1899 C 0.84062 0.573 0.98209 0.0
C1900 C 0.85732 0.5163 0.97954 0.0
C1901 C 0.87687 0.52667 0.0113 0.0
N1902 N 0.88086 0.55925 0.06511 0.0
N1903 N 0.81696 0.52966 0.93578 0.0
C1904 C 0.87197 0.55598 0.03113 0.0
C1905 C 0.83812 0.53944 0.96509 0.0
N1906 N 0.86296 0.6146 0.03056 0.0
N1907 N 0.85738 0.48445 0.96354 0.0
H1908 H 0.80242 0.54599 0.92492 0.0
H1909 H 0.81223 0.50494 0.92301 0.0
H1910 H 0.86754 0.46573 0.97588 0.0
H1911 H 0.84719 0.47633 0.93873 0.0
H1912 H 0.87828 0.62266 0.0533 0.0
H1913 H 0.85485 0.63492 0.0191 0.0
H1914 H 0.87575 0.57914 0.08125 0.0
H1915 H 0.88944 0.5395 0.07724 0.0
C1916 C 0.18683 0.13201 0.81576 0.0
C1917 C 0.19369 0.10468 0.79414 0.0
C1918 C 0.23787 0.14633 0.77349 0.0
C1919 C 0.22535 0.17436 0.78887 0.0
N1920 N 0.18431 0.19269 0.82282 0.0
N1921 N 0.22496 0.08607 0.75042 0.0
C1922 C 0.19931 0.16703 0.81012 0.0
C1923 C 0.2194 0.11174 0.7728 0.0
N1924 N 0.16805 0.12437 0.84158 0.0
N1925 N 0.26775 0.15268 0.76005 0.0
H1926 H 0.2122 0.06037 0.74909 0.0
H1927 H 0.24054 0.09088 0.73151 0.0
H1928 H 0.28269 0.17747 0.76147 0.0
H1929 H 0.27946 0.13304 0.75106 0.0
H1930 H 0.16478 0.14308 0.86011 0.0
H1931 H 0.15896 0.09886 0.84649 0.0
H1932 H 0.16283 0.18772 0.83521 0.0
H1933 H 0.19052 0.21846 0.81796 0.0
C1934 C 0.32656 0.99374 0.28787 0.0
C1935 C 0.34192 0.99859 0.25789 0.0
C1936 C 0.30241 0.94806 0.22872 0.0
C1937 C 0.29273 0.93911 0.26027 0.0
N1938 N 0.2811 0.96129 0.31449 0.0
N1939 N 0.34217 0.9841 0.1985 0.0
C1940 C 0.30013 0.9645 0.28833 0.0
C1941 C 0.32857 0.97729 0.22765 0.0
N1942 N 0.33856 0.01593 0.3162 0.0
N1943 N 0.28563 0.92915 0.2 0.0
H1944 H 0.36013 0.00645 0.19678 0.0
H1945 H 0.33652 0.96731 0.17645 0.0
H1946 H 0.26508 0.90887 0.20061 0.0
H1947 H 0.28933 0.93588 0.17589 0.0
H1948 H 0.3315 0.01151 0.33996 0.0
H1949 H 0.35677 0.03843 0.31608 0.0
H1950 H 0.28399 0.97988 0.33501 0.0
H1951 H 0.25936 0.94215 0.31341 0.0
C1952 C 0.47423 0.33463 0.56032 0.0
C1953 C 0.47992 0.34021 0.59598 0.0
C1954 C 0.47324 0.40037 0.59296 0.0
C1955 C 0.47525 0.39667 0.55774 0.0
N1956 N 0.47902 0.36009 0.50761 0.0
N1957 N 0.48582 0.37898 0.64682 0.0
C1958 C 0.47539 0.36359 0.54112 0.0
C1959 C 0.47905 0.37307 0.61257 0.0
N1960 N 0.46774 0.3015 0.54493 0.0
N1961 N 0.46527 0.42982 0.60751 0.0
H1962 H 0.48979 0.35969 0.66224 0.0
H1963 H 0.48969 0.4036 0.65981 0.0
H1964 H 0.45972 0.44978 0.59361 0.0
H1965 H 0.46052 0.43279 0.6325 0.0
H1966 H 0.46039 0.29543 0.51919 0.0
H1967 H 0.46625 0.27982 0.55854 0.0
H1968 H 0.48337 0.33741 0.49524 0.0
H1969 H 0.48025 0.38053 0.49253 0.0
C1970 C 0.41464 0.7664 0.27746 0.0
C1971 C 0.43415 0.79302 0.30087 0.0
C1972 C 0.38934 0.82632 0.29721 0.0
C1973 C 0.36907 0.79949 0.27375 0.0
N1974 N 0.36733 0.75019 0.23351 0.0
N1975 N 0.44575 0.85305 0.32287 0.0
C1976 C 0.38343 0.77153 0.26113 0.0
C1977 C 0.42351 0.82479 0.30671 0.0
N1978 N 0.42535 0.73588 0.27184 0.0
N1979 N 0.37573 0.85124 0.31342 0.0
H1980 H 0.47089 0.85229 0.33052 0.0
H1981 H 0.44021 0.87784 0.32524 0.0
H1982 H 0.35047 0.8529 0.31009 0.0
H1983 H 0.38907 0.86849 0.33338 0.0
H1984 H 0.41043 0.71392 0.25797 0.0
H1985 H 0.44883 0.73232 0.28252 0.0
H1986 H 0.37773 0.73089 0.22176 0.0
H1987 H 0.34517 0.75431 0.22029 0.0
C1988 C 1.0025 0.64597 0.12544 0.0
C1989 C 0.98717 0.6691 0.10676 0.0
C1990 C 0.98954 0.63426 0.05419 0.0
C1991 C 0.00564 0.61115 0.07255 0.0
N1992 N 0.01919 0.59011 0.12623 0.0
N1993 N 0.95537 0.67861 0.05599 0.0
C1994 C 0.0092 0.61533 0.10842 0.0
C1995 C 0.97657 0.66043 0.07204 0.0
N1996 N 0.01278 0.65449 0.15904 0.0
N1997 N 0.98993 0.63412 0.02019 0.0
H1998 H 0.94619 0.69821 0.06894 0.0
H1999 H 0.94432 0.67175 0.03119 0.0
H2000 H 1.00306 0.61886 0.00649 0.0
H2001 H 0.981 0.6524 0.0062 0.0
H2002 H 0.02828 0.64136 0.17322 0.0
H2003 H 0.00689 0.67583 0.17248 0.0
H2004 H 0.01901 0.58996 0.15216 0.0
H2005 H 0.02482 0.56765 0.11471 0.0
C2006 C 0.13946 0.30973 0.79409 0.0
C2007 C 0.1174 0.28035 0.8029 0.0
C2008 C 0.14258 0.24196 0.76615 0.0
C2009 C 0.16486 0.27154 0.75743 0.0
N2010 N 0.17538 0.33333 0.75343 0.0
N2011 N 0.09132 0.21992 0.79048 0.0
C2012 C 0.16035 0.30538 0.76836 0.0
C2013 C 0.11684 0.2469 0.78665 0.0
N2014 N 0.14183 0.34153 0.81138 0.0
N2015 N 0.1469 0.20917 0.75666 0.0
H2016 H 0.07199 0.22274 0.80511 0.0
H2017 H 0.08734 0.19574 0.77665 0.0
H2018 H 0.165 0.20375 0.74165 0.0
H2019 H 0.13403 0.18701 0.76574 0.0
H2020 H 0.16051 0.36292 0.80878 0.0
H2021 H 0.12687 0.34585 0.83032 0.0
H2022 H 0.17095 0.35829 0.75854 0.0
H2023 H 0.18905 0.33074 0.73303 0.0
C2024 C 0.48546 0.64725 0.98689 0.0
C2025 C 0.50025 0.67123 0.0148 0.0
C2026 C 0.51689 0.62442 0.04518 0.0
C2027 C 0.50173 0.60006 0.01706 0.0
N2028 N 0.48475 0.59211 0.95696 0.0
N2029 N 0.52514 0.68331 0.0724 0.0
C2030 C 0.48947 0.61243 0.98676 0.0
C2031 C 0.51437 0.65998 0.04463 0.0
N2032 N 0.46681 0.65765 0.96062 0.0
N2033 N 0.53715 0.61456 0.07048 0.0
H2034 H 0.5245 0.70965 0.07225 0.0
H2035 H 0.53209 0.67632 0.09621 0.0
H2036 H 0.5441 0.59043 0.06948 0.0
H2037 H 0.55098 0.63153 0.09032 0.0
H2038 H 0.45202 0.64037 0.94148 0.0
H2039 H 0.4632 0.6831 0.95968 0.0
H2040 H 0.47871 0.60081 0.93368 0.0
H2041 H 0.49254 0.56866 0.95471 0.0
C2042 C 0.10098 0.80956 0.68508 0.0
C2043 C 0.08528 0.7809 0.66165 0.0
C2044 C 0.13593 0.75567 0.66798 0.0
C2045 C 0.14976 0.7818 0.69452 0.0
N2046 N 0.14601 0.83269 0.73021 0.0
N2047 N 0.0866 0.72615 0.63065 0.0
C2048 C 0.13267 0.80882 0.70335 0.0
C2049 C 0.1025 0.75387 0.6529 0.0
N2050 N 0.08551 0.83721 0.68991 0.0
N2051 N 0.15518 0.73318 0.65668 0.0
H2052 H 0.06294 0.72483 0.61727 0.0
H2053 H 0.09596 0.70354 0.62656 0.0
H2054 H 0.17985 0.73378 0.66727 0.0
H2055 H 0.14797 0.71582 0.63512 0.0
H2056 H 0.09706 0.86043 0.70407 0.0
H2057 H 0.06178 0.83794 0.67767 0.0
H2058 H 0.13327 0.85089 0.74028 0.0
H2059 H 0.16938 0.83309 0.74385 0.0
C2060 C 0.06867 0.38003 0.51387 0.0
C2061 C 0.05441 0.35941 0.53801 0.0
C2062 C 0.04182 0.4118 0.56742 0.0
C2063 C 0.04702 0.42907 0.53804 0.0
N2064 N 0.06157 0.42714 0.48096 0.0
N2065 N 0.03628 0.35721 0.59309 0.0
C2066 C 0.05999 0.41281 0.5108 0.0
C2067 C 0.0441 0.37602 0.56679 0.0
N2068 N 0.09052 0.36854 0.49411 0.0
N2069 N 0.03511 0.42969 0.59569 0.0
H2070 H 0.04135 0.33228 0.59425 0.0
H2071 H 0.025 0.36595 0.61337 0.0
H2072 H 0.03362 0.45589 0.59672 0.0
H2073 H 0.0332 0.41949 0.61872 0.0
H2074 H 0.10295 0.38377 0.47729 0.0
H2075 H 0.09986 0.34613 0.49829 0.0
H2076 H 0.06824 0.41457 0.45957 0.0
H2077 H 0.05222 0.44939 0.4764 0.0
C2078 C 0.4301 0.3076 0.21382 0.0
C2079 C 0.42221 0.30391 0.17836 0.0
C2080 C 0.37329 0.33059 0.18422 0.0
C2081 C 0.37694 0.32679 0.21919 0.0
N2082 N 0.40873 0.31016 0.26766 0.0
N2083 N 0.38644 0.31181 0.12899 0.0
C2084 C 0.40572 0.3157 0.23437 0.0
C2085 C 0.39421 0.31605 0.1632 0.0
N2086 N 0.46108 0.30358 0.22781 0.0
N2087 N 0.34952 0.34787 0.17128 0.0
H2088 H 0.40128 0.3013 0.11283 0.0
H2089 H 0.36415 0.31655 0.11674 0.0
H2090 H 0.33424 0.35911 0.18646 0.0
H2091 H 0.34728 0.35402 0.14647 0.0
H2092 H 0.46947 0.3093 0.25341 0.0
H2093 H 0.47974 0.29806 0.21335 0.0
H2094 H 0.42656 0.29712 0.27839 0.0
H2095 H 0.39247 0.31659 0.2844 0.0
C2096 C 0.54051 0.48318 0.35338 0.0
C2097 C 0.57572 0.48402 0.36003 0.0
C2098 C 0.56728 0.47058 0.4175 0.0
C2099 C 0.5353 0.48012 0.41314 0.0
N2100 N 0.48977 0.493 0.37644 0.0
N2101 N 0.62284 0.47695 0.39911 0.0
C2102 C 0.52113 0.48506 0.38073 0.0
C2103 C 0.58912 0.47625 0.392 0.0
N2104 N 0.52587 0.48076 0.32088 0.0
N2105 N 0.57699 0.45677 0.44618 0.0
H2106 H 0.63985 0.48072 0.38139 0.0
H2107 H 0.63433 0.47569 0.42328 0.0
H2108 H 0.56161 0.45262 0.46534 0.0
H2109 H 0.59859 0.44615 0.44925 0.0
H2110 H 0.49993 0.47761 0.3143 0.0
H2111 H 0.53952 0.47816 0.30043 0.0
H2112 H 0.47966 0.50105 0.35419 0.0
H2113 H 0.47452 0.49283 0.39591 0.0
C2114 C 0.20768 0.80833 0.12693 0.0
C2115 C 0.23194 0.83373 0.11505 0.0
C2116 C 0.27282 0.83161 0.16377 0.0
C2117 C 0.2487 0.80612 0.17593 0.0
N2118 N 0.1914 0.77387 0.17234 0.0
N2119 N 0.28379 0.87607 0.12544 0.0
C2120 C 0.21543 0.7958 0.15862 0.0
C2121 C 0.26317 0.84769 0.13485 0.0
N2122 N 0.17798 0.79508 0.10707 0.0
N2123 N 0.30547 0.83898 0.17865 0.0
H2124 H 0.27706 0.88851 0.10448 0.0
H2125 H 0.30591 0.8892 0.13986 0.0
H2126 H 0.31367 0.82677 0.19912 0.0
H2127 H 0.32509 0.85478 0.16906 0.0
H2128 H 0.16065 0.77358 0.11205 0.0
H2129 H 0.17129 0.80509 0.08457 0.0
H2130 H 0.16587 0.76858 0.16318 0.0
H2131 H 0.19659 0.7624 0.19427 0.0
C2132 C 0.95406 0.57777 0.88158 0.0
C2133 C 0.97884 0.59511 0.86328 0.0
C2134 C 0.02093 0.59827 0.91275 0.0
C2135 C 0.99758 0.57398 0.9276 0.0
N2136 N 0.94355 0.53338 0.91891 0.0
N2137 N 0.0369 0.62101 0.86074 0.0
C2138 C 0.9644 0.56201 0.91027 0.0
C2139 C 0.01265 0.60527 0.87875 0.0
N2140 N 0.9206 0.57455 0.87058 0.0
N2141 N 0.0502 0.61558 0.93113 0.0
H2142 H 0.03103 0.62797 0.83657 0.0
H2143 H 0.0626 0.62557 0.86921 0.0
H2144 H 0.05612 0.61289 0.95655 0.0
H2145 H 0.06672 0.63542 0.92216 0.0
H2146 H 0.90154 0.56411 0.88459 0.0
H2147 H 0.91217 0.586 0.84965 0.0
H2148 H 0.9203 0.52243 0.90514 0.0
H2149 H 0.95122 0.51748 0.93639 0.0
C2150 C 0.27434 0.16574 0.60214 0.0
C2151 C 0.28822 0.18697 0.57813 0.0
C2152 C 0.31083 0.23455 0.62166 0.0
C2153 C 0.28996 0.21651 0.64319 0.0
N2154 N 0.25683 0.16376 0.65821 0.0
N2155 N 0.32549 0.23769 0.56458 0.0
C2156 C 0.27399 0.18128 0.63507 0.0
C2157 C 0.30906 0.21999 0.58801 0.0
N2158 N 0.26052 0.13148 0.59299 0.0
N2159 N 0.33143 0.26563 0.63347 0.0
H2160 H 0.32552 0.22639 0.54015 0.0
H2161 H 0.33875 0.26321 0.56897 0.0
H2162 H 0.33297 0.27612 0.65844 0.0
H2163 H 0.34856 0.27976 0.61965 0.0
H2164 H 0.25177 0.11397 0.60974 0.0
H2165 H 0.2601 0.11965 0.56877 0.0
H2166 H 0.24149 0.13923 0.65302 0.0
H2167 H 0.25748 0.17431 0.683 0.0
C2168 C 0.62145 0.50623 0.16484 0.0
C2169 C 0.60101 0.49311 0.18936 0.0
C2170 C 0.55242 0.47415 0.14663 0.0
C2171 C 0.57251 0.48846 0.12218 0.0
N2172 N 0.62775 0.50775 0.10546 0.0
N2173 N 0.55139 0.45545 0.20281 0.0
C2174 C 0.60766 0.5011 0.13049 0.0
C2175 C 0.56793 0.47379 0.17984 0.0
N2176 N 0.65324 0.52527 0.17452 0.0
N2177 N 0.51825 0.46345 0.13907 0.0
H2178 H 0.56245 0.45492 0.22738 0.0
H2179 H 0.52839 0.43817 0.19667 0.0
H2180 H 0.5054 0.46363 0.11531 0.0
H2181 H 0.50206 0.45677 0.15708 0.0
H2182 H 0.66773 0.53914 0.15823 0.0
H2183 H 0.66451 0.5288 0.1994 0.0
H2184 H 0.65399 0.51414 0.10971 0.0
H2185 H 0.6183 0.50343 0.07998 0.0
C2186 C 0.22151 0.78531 0.91503 0.0
C2187 C 0.21612 0.81942 0.9233 0.0
C2188 C 0.21631 0.82908 0.86352 0.0
C2189 C 0.23112 0.79943 0.85783 0.0
N2190 N 0.24442 0.74681 0.87758 0.0
N2191 N 0.2098 0.87502 0.90425 0.0
C2192 C 0.2325 0.77665 0.88341 0.0
C2193 C 0.21309 0.84143 0.89715 0.0
N2194 N 0.2158 0.76122 0.93759 0.0
N2195 N 0.20528 0.8457 0.83723 0.0
H2196 H 0.20676 0.88564 0.928 0.0
H2197 H 0.21231 0.89322 0.88668 0.0
H2198 H 0.20735 0.83842 0.8122 0.0
H2199 H 0.19123 0.86508 0.84013 0.0
H2200 H 0.21663 0.73512 0.9323 0.0
H2201 H 0.20666 0.76682 0.96038 0.0
H2202 H 0.25 0.73136 0.89647 0.0
H2203 H 0.24993 0.73814 0.85393 0.0
C2204 C 0.96763 0.57099 0.64545 0.0
C2205 C 0.98792 0.57457 0.67691 0.0
C2206 C 0.03223 0.55341 0.64891 0.0
C2207 C 0.01394 0.5531 0.61667 0.0
N2208 N 0.96261 0.56165 0.58512 0.0
N2209 N 0.04312 0.57883 0.70678 0.0
C2210 C 0.98144 0.56247 0.61522 0.0
C2211 C 0.02149 0.56922 0.67783 0.0
N2212 N 0.93421 0.57265 0.64439 0.0
N2213 N 0.05819 0.53595 0.65268 0.0
H2214 H 0.03604 0.591 0.72822 0.0
H2215 H 0.06876 0.57821 0.70811 0.0
H2216 H 0.06382 0.51957 0.63332 0.0
H2217 H 0.07061 0.53337 0.67611 0.0
H2218 H 0.91697 0.56558 0.6228 0.0
H2219 H 0.92294 0.57926 0.66548 0.0
H2220 H 0.94342 0.57567 0.58142 0.0
H2221 H 0.96404 0.54397 0.56515 0.0
C2222 C 0.29753 0.26201 0.4278 0.0
C2223 C 0.29966 0.22677 0.42015 0.0
C2224 C 0.32444 0.24272 0.36929 0.0
C2225 C 0.30957 0.27245 0.37112 0.0
N2226 N 0.29013 0.31565 0.40504 0.0
N2227 N 0.32495 0.18579 0.3882 0.0
C2228 C 0.29952 0.28421 0.4018 0.0
C2229 C 0.31693 0.21782 0.39271 0.0
N2230 N 0.29341 0.27371 0.45975 0.0
N2231 N 0.34546 0.23855 0.34549 0.0
H2232 H 0.3221 0.16773 0.40576 0.0
H2233 H 0.33444 0.17685 0.36678 0.0
H2234 H 0.35264 0.25754 0.32952 0.0
H2235 H 0.35885 0.21852 0.34416 0.0
H2236 H 0.29361 0.29964 0.46732 0.0
H2237 H 0.29343 0.25781 0.47941 0.0
H2238 H 0.27853 0.32404 0.42527 0.0
H2239 H 0.29346 0.33283 0.38654 0.0
C2240 C 0.384 0.58645 0.50559 0.0
C2241 C 0.39298 0.61331 0.48464 0.0
C2242 C 0.43711 0.58355 0.46578 0.0
C2243 C 0.43193 0.55997 0.49086 0.0
N2244 N 0.40317 0.54446 0.53951 0.0
N2245 N 0.43228 0.64031 0.44876 0.0
C2246 C 0.40606 0.56288 0.51207 0.0
C2247 C 0.42083 0.61273 0.46597 0.0
N2248 N 0.35376 0.58253 0.51851 0.0
N2249 N 0.45551 0.57705 0.44019 0.0
H2250 H 0.42127 0.66217 0.44847 0.0
H2251 H 0.45461 0.64284 0.43762 0.0
H2252 H 0.46584 0.55492 0.43729 0.0
H2253 H 0.45719 0.59166 0.41964 0.0
H2254 H 0.34405 0.56102 0.53058 0.0
H2255 H 0.33653 0.59865 0.51398 0.0
H2256 H 0.38549 0.54655 0.55621 0.0
H2257 H 0.42113 0.53091 0.54879 0.0
C2258 C 0.86658 0.94191 0.57433 0.0
C2259 C 0.84285 0.92371 0.54767 0.0
C2260 C 0.88119 0.94269 0.50649 0.0
C2261 C 0.90472 0.96218 0.53299 0.0
N2262 N 0.91647 0.98697 0.59088 0.0
N2263 N 0.82355 0.91365 0.48816 0.0
C2264 C 0.89643 0.96374 0.56663 0.0
C2265 C 0.84888 0.92645 0.5137 0.0
N2266 N 0.86093 0.93771 0.6069 0.0
N2267 N 0.89019 0.93754 0.47482 0.0
H2268 H 0.79967 0.90064 0.49219 0.0
H2269 H 0.82521 0.91867 0.4632 0.0
H2270 H 0.91354 0.94827 0.4678 0.0
H2271 H 0.8755 0.91982 0.45596 0.0
H2272 H 0.87894 0.94721 0.62749 0.0
H2273 H 0.83879 0.92271 0.61316 0.0
H2274 H 0.91025 0.99156 0.61514 0.0
H2275 H 0.93779 0.00422 0.58579 0.0
C2276 C 0.77838 0.12744 0.26426 0.0
C2277 C 0.81299 0.13029 0.26001 0.0
C2278 C 0.8217 0.19362 0.27173 0.0
C2279 C 0.78688 0.19091 0.27561 0.0
N2280 N 0.7361 0.15435 0.28828 0.0
N2281 N 0.86936 0.165 0.2697 0.0
C2282 C 0.76652 0.15745 0.27588 0.0
C2283 C 0.83518 0.16309 0.26648 0.0
N2284 N 0.75643 0.09641 0.25582 0.0
N2285 N 0.8421 0.22529 0.27285 0.0
H2286 H 0.88041 0.14326 0.26722 0.0
H2287 H 0.88684 0.18773 0.27813 0.0
H2288 H 0.83572 0.24704 0.28445 0.0
H2289 H 0.86555 0.22943 0.2638 0.0
H2290 H 0.73035 0.09373 0.25504 0.0
H2291 H 0.76395 0.07396 0.24654 0.0
H2292 H 0.72132 0.13056 0.29184 0.0
H2293 H 0.72771 0.17576 0.29886 0.0
C2294 C 0.71039 0.13853 0.05935 0.0
C2295 C 0.72297 0.13948 0.02773 0.0
C2296 C 0.67237 0.09833 0.00196 0.0
C2297 C 0.65728 0.10277 0.03206 0.0
N2298 N 0.66079 0.13082 0.08856 0.0
N2299 N 0.71578 0.12192 0.96811 0.0
C2300 C 0.6761 0.12341 0.06079 0.0
C2301 C 0.70414 0.11948 -0.0012 0.0
N2302 N 0.73134 0.15234 0.08797 0.0
N2303 N 0.65688 0.07326 0.97685 0.0
H2304 H 0.73937 0.13644 0.96505 0.0
H2305 H 0.70124 0.11131 0.94552 0.0
H2306 H 0.63426 0.05631 0.97879 0.0
H2307 H 0.66813 0.06685 0.95565 0.0
H2308 H 0.7245 0.14961 0.11211 0.0
H2309 H 0.75676 0.16338 0.08759 0.0
H2310 H 0.6726 0.14881 0.10862 0.0
H2311 H 0.63529 0.12181 0.09035 0.0
C2312 C 0.18022 0.39377 0.26592 0.0
C2313 C 0.1715 0.40605 0.29745 0.0
C2314 C 0.21465 0.37888 0.32653 0.0
C2315 C 0.22492 0.36904 0.29507 0.0
N2316 N 0.22288 0.37428 0.23542 0.0
N2317 N 0.18582 0.41697 0.35782 0.0
C2318 C 0.20933 0.37869 0.26492 0.0
C2319 C 0.19011 0.40035 0.32785 0.0
N2320 N 0.15985 0.3951 0.23694 0.0
N2321 N 0.22791 0.36723 0.35512 0.0
H2322 H 0.16932 0.4341 0.35988 0.0
H2323 H 0.20108 0.41656 0.38021 0.0
H2324 H 0.24674 0.35255 0.35518 0.0
H2325 H 0.21851 0.36992 0.37819 0.0
H2326 H 0.16363 0.38446 0.21343 0.0
H2327 H 0.13716 0.40383 0.23663 0.0
H2328 H 0.21476 0.38406 0.21333 0.0
H2329 H 0.24452 0.36391 0.23376 0.0
C2330 C 0.18848 0.50019 0.06254 0.0
C2331 C 0.19973 0.48478 0.03383 0.0
C2332 C 0.16383 0.51396 0.99763 0.0
C2333 C 0.1483 0.5241 0.02578 0.0
N2334 N 0.14193 0.52004 0.08508 0.0
N2335 N 0.19238 0.47151 0.97322 0.0
C2336 C 0.15973 0.51582 0.05841 0.0
C2337 C 0.1862 0.49047 0.00107 0.0
N2338 N 0.20536 0.50019 0.09377 0.0
N2339 N 0.15695 0.52656 0.96745 0.0
H2340 H 0.20637 0.452 0.97445 0.0
H2341 H 0.18033 0.47229 0.94918 0.0
H2342 H 0.14086 0.54411 0.96425 0.0
H2343 H 0.1699 0.52247 0.94683 0.0
H2344 H 0.2001 0.51402 0.11515 0.0
H2345 H 0.22687 0.48947 0.09768 0.0
H2346 H 0.14734 0.51048 0.10809 0.0
H2347 H 0.1198 0.52971 0.08372 0.0
C2348 C 0.79548 0.92353 0.18646 0.0
C2349 C 0.80486 0.95206 0.21143 0.0
C2350 C 0.79062 0.91415 0.25495 0.0
C2351 C 0.78041 0.88505 0.23014 0.0
N2352 N 0.76165 0.86584 0.17127 0.0
N2353 N 0.79649 0.97626 0.26614 0.0
C2354 C 0.77913 0.89084 0.19544 0.0
C2355 C 0.79659 0.94794 0.24437 0.0
N2356 N 0.80309 0.92752 0.15448 0.0
N2357 N 0.79813 0.91007 0.28822 0.0
H2358 H 0.8002 0.00134 0.25873 0.0
H2359 H 0.7886 0.97421 0.28998 0.0
H2360 H 0.79921 0.88628 0.29736 0.0
H2361 H 0.80816 0.93096 0.30623 0.0
H2362 H 0.8004 0.90675 0.13601 0.0
H2363 H 0.81348 0.95176 0.1472 0.0
H2364 H 0.75833 0.86983 0.14587 0.0
H2365 H 0.74701 0.8428 0.17702 0.0
C2366 C 0.68389 0.09371 0.74413 0.0
C2367 C 0.67526 0.08344 0.77563 0.0
C2368 C 0.7087 0.13736 0.80473 0.0
C2369 C 0.71607 0.1489 0.77303 0.0
N2370 N 0.7173 0.13516 0.71324 0.0
N2371 N 0.68662 0.08928 0.83584 0.0
C2372 C 0.70624 0.12594 0.74297 0.0
C2373 C 0.69025 0.10326 0.80596 0.0
N2374 N 0.66904 0.0735 0.71528 0.0
N2375 N 0.7183 0.15933 0.83358 0.0
H2376 H 0.67328 0.06411 0.83704 0.0
H2377 H 0.69932 0.10099 0.85892 0.0
H2378 H 0.7335 0.18377 0.83426 0.0
H2379 H 0.70996 0.15411 0.85669 0.0
H2380 H 0.67046 0.08134 0.6912 0.0
H2381 H 0.65385 0.04902 0.71555 0.0
H2382 H 0.71405 0.11802 0.69154 0.0
H2383 H 0.73174 0.15928 0.7104 0.0
loop_
_geom_bond_atom_site_label_1
_geom_bond_atom_site_label_2
_geom_bond_distance
_geom_bond_site_symmetry_2
_ccdc_geom_bond_type
Zn0 O3 2.031 . S
Zn0 O5 2.049 . S
Zn0 O10 2.067 . S
Zn1 O2 1.962 . S
Zn1 O4 1.986 . S
Zn1 O6 1.996 . S
Zn1 O9 1.943 1_455 S
O2 Zn1 1.962 . S
O2 C7 1.254 . S
O3 Zn0 2.031 . S
O3 C7 1.269 1_655 S
O4 Zn1 1.986 . S
O4 C11 1.262 . S
O5 Zn0 2.049 . S
O5 C13 1.260 1_655 S
O6 Zn1 1.996 . S
O6 C13 1.257 . S
C7 O2 1.254 . S
C7 O3 1.269 1_455 S
C8 O9 1.249 . S
C8 O10 1.270 . S
O9 Zn1 1.943 1_655 S
O9 C8 1.249 . S
O10 Zn0 2.067 . S
O10 C8 1.270 . S
C11 O4 1.262 . S
C11 O12 1.232 . S
O12 C11 1.232 . S
C13 O5 1.260 1_455 S
C13 O6 1.257 . S
Zn14 O17 2.031 1_455 S
Zn14 O19 2.049 . S
Zn14 O24 2.067 . S
Zn15 O16 1.961 . S
Zn15 O18 1.986 1_655 S
Zn15 O20 1.997 1_655 S
Zn15 O23 1.943 . S
O16 Zn15 1.961 . S
O16 C21 1.254 . S
O17 Zn14 2.031 1_655 S
O17 C21 1.269 . S
O18 Zn15 1.986 1_455 S
O18 C25 1.262 . S
O19 Zn14 2.049 . S
O19 C27 1.260 . S
O20 Zn15 1.997 1_455 S
O20 C27 1.257 . S
C21 O16 1.254 . S
C21 O17 1.269 . S
C22 O23 1.249 . S
C22 O24 1.270 1_655 S
O23 Zn15 1.943 . S
O23 C22 1.249 . S
O24 Zn14 2.067 . S
O24 C22 1.270 1_455 S
C25 O18 1.262 . S
C25 O26 1.232 1_455 S
O26 C25 1.232 1_655 S
C27 O19 1.260 . S
C27 O20 1.257 . S
Zn28 O31 2.031 . S
Zn28 O33 2.049 . S
Zn28 O38 2.067 . S
Zn29 O30 1.962 . S
Zn29 O32 1.986 . S
Zn29 O34 1.996 . S
Zn29 O37 1.943 . S
O30 Zn29 1.962 . S
O30 C35 1.254 . S
O31 Zn28 2.031 . S
O31 C35 1.269 . S
O32 Zn29 1.986 . S
O32 C39 1.262 . S
O33 Zn28 2.049 . S
O33 C41 1.260 . S
O34 Zn29 1.996 . S
O34 C41 1.257 . S
C35 O30 1.254 . S
C35 O31 1.269 . S
C36 O37 1.249 . S
C36 O38 1.270 . S
O37 Zn29 1.943 . S
O37 C36 1.249 . S
O38 Zn28 2.067 . S
O38 C36 1.270 . S
C39 O32 1.262 . S
C39 O40 1.232 . S
O40 C39 1.232 . S
C41 O33 1.260 . S
C41 O34 1.257 . S
Zn42 O45 2.031 . S
Zn42 O47 2.049 . S
Zn42 O52 2.067 . S
Zn43 O44 1.962 . S
Zn43 O46 1.986 . S
Zn43 O48 1.996 . S
Zn43 O51 1.943 . S
O44 Zn43 1.962 . S
O44 C49 1.254 . S
O45 Zn42 2.031 . S
O45 C49 1.269 . S
O46 Zn43 1.986 . S
O46 C53 1.262 . S
O47 Zn42 2.049 . S
O47 C55 1.260 . S
O48 Zn43 1.996 . S
O48 C55 1.257 . S
C49 O44 1.254 . S
C49 O45 1.269 . S
C50 O51 1.249 . S
C50 O52 1.270 . S
O51 Zn43 1.943 . S
O51 C50 1.249 . S
O52 Zn42 2.067 . S
O52 C50 1.270 . S
C53 O46 1.262 . S
C53 O54 1.232 . S
O54 C53 1.232 . S
C55 O47 1.260 . S
C55 O48 1.257 . S
Zn56 O59 2.031 . S
Zn56 O61 2.049 . S
Zn56 O66 2.067 . S
Zn57 O58 1.962 . S
Zn57 O60 1.986 . S
Zn57 O62 1.994 1_655 S
Zn57 O65 1.943 1_655 S
O58 Zn57 1.962 . S
O58 C63 1.254 1_655 S
O59 Zn56 2.031 . S
O59 C63 1.269 . S
O60 Zn57 1.986 . S
O60 C67 1.262 . S
O61 Zn56 2.049 . S
O61 C69 1.260 . S
O62 Zn57 1.994 1_455 S
O62 C69 1.260 . S
C63 O58 1.254 1_455 S
C63 O59 1.269 . S
C64 O65 1.249 . S
C64 O66 1.270 . S
O65 Zn57 1.943 1_455 S
O65 C64 1.249 . S
O66 Zn56 2.067 . S
O66 C64 1.270 . S
C67 O60 1.262 . S
C67 O68 1.232 . S
O68 C67 1.232 . S
C69 O61 1.260 . S
C69 O62 1.260 . S
Zn70 O73 2.031 . S
Zn70 O75 2.049 . S
Zn70 O80 2.067 . S
Zn71 O72 1.962 . S
Zn71 O74 1.986 . S
Zn71 O76 1.996 . S
Zn71 O79 1.943 . S
O72 Zn71 1.962 . S
O72 C77 1.254 . S
O73 Zn70 2.031 . S
O73 C77 1.269 . S
O74 Zn71 1.986 . S
O74 C81 1.262 . S
O75 Zn70 2.049 . S
O75 C83 1.260 . S
O76 Zn71 1.996 . S
O76 C83 1.257 . S
C77 O72 1.254 . S
C77 O73 1.269 . S
C78 O79 1.249 . S
C78 O80 1.270 . S
O79 Zn71 1.943 . S
O79 C78 1.249 . S
O80 Zn70 2.067 . S
O80 C78 1.270 . S
C81 O74 1.262 . S
C81 O82 1.232 . S
O82 C81 1.232 . S
C83 O75 1.260 . S
C83 O76 1.257 . S
Zn84 O87 2.031 . S
Zn84 O89 2.049 . S
Zn84 O94 2.067 . S
Zn85 O86 1.962 . S
Zn85 O88 1.986 . S
Zn85 O90 1.996 . S
Zn85 O93 1.943 . S
O86 Zn85 1.962 . S
O86 C91 1.254 . S
O87 Zn84 2.031 . S
O87 C91 1.269 . S
O88 Zn85 1.986 . S
O88 C95 1.262 . S
O89 Zn84 2.049 . S
O89 C97 1.260 . S
O90 Zn85 1.996 . S
O90 C97 1.257 . S
C91 O86 1.254 . S
C91 O87 1.269 . S
C92 O93 1.249 . S
C92 O94 1.270 . S
O93 Zn85 1.943 . S
O93 C92 1.249 . S
O94 Zn84 2.067 . S
O94 C92 1.270 . S
C95 O88 1.262 . S
C95 O96 1.232 . S
O96 C95 1.232 . S
C97 O89 1.260 . S
C97 O90 1.257 . S
Zn98 O101 2.031 . S
Zn98 O103 2.049 . S
Zn98 O108 2.067 . S
Zn99 O100 1.962 . S
Zn99 O102 1.986 . S
Zn99 O104 1.996 . S
Zn99 O107 1.943 1_455 S
O100 Zn99 1.962 . S
O100 C105 1.254 . S
O101 Zn98 2.031 . S
O101 C105 1.269 1_655 S
O102 Zn99 1.986 . S
O102 C109 1.262 . S
O103 Zn98 2.049 . S
O103 C111 1.260 . S
O104 Zn99 1.996 . S
O104 C111 1.257 1_455 S
C105 O100 1.254 . S
C105 O101 1.269 1_455 S
C106 O107 1.249 . S
C106 O108 1.270 . S
O107 Zn99 1.943 1_655 S
O107 C106 1.249 . S
O108 Zn98 2.067 . S
O108 C106 1.270 . S
C109 O102 1.262 . S
C109 O110 1.232 . S
O110 C109 1.232 . S
C111 O103 1.260 . S
C111 O104 1.257 1_655 S
Zn112 O115 2.031 . S
Zn112 O117 2.049 . S
Zn112 O122 2.067 1_545 S
Zn113 O114 1.962 . S
Zn113 O116 1.986 . S
Zn113 O118 1.996 . S
Zn113 O121 1.943 . S
O114 Zn113 1.962 . S
O114 C119 1.254 . S
O115 Zn112 2.031 . S
O115 C119 1.269 . S
O116 Zn113 1.986 . S
O116 C123 1.262 . S
O117 Zn112 2.049 . S
O117 C125 1.260 . S
O118 Zn113 1.996 . S
O118 C125 1.257 . S
C119 O114 1.254 . S
C119 O115 1.269 . S
C120 O121 1.249 1_565 S
C120 O122 1.270 . S
O121 Zn113 1.943 . S
O121 C120 1.249 1_545 S
O122 Zn112 2.067 1_565 S
O122 C120 1.270 . S
C123 O116 1.262 . S
C123 O124 1.232 . S
O124 C123 1.232 . S
C125 O117 1.260 . S
C125 O118 1.257 . S
Zn126 O129 2.031 . S
Zn126 O131 2.049 . S
Zn126 O136 2.067 . S
Zn127 O128 1.962 . S
Zn127 O130 1.986 . S
Zn127 O132 1.996 . S
Zn127 O135 1.943 . S
O128 Zn127 1.962 . S
O128 C133 1.254 . S
O129 Zn126 2.031 . S
O129 C133 1.269 . S
O130 Zn127 1.986 . S
O130 C137 1.262 . S
O131 Zn126 2.049 . S
O131 C139 1.260 . S
O132 Zn127 1.996 . S
O132 C139 1.257 . S
C133 O128 1.254 . S
C133 O129 1.269 . S
C134 O135 1.249 . S
C134 O136 1.270 . S
O135 Zn127 1.943 . S
O135 C134 1.249 . S
O136 Zn126 2.067 . S
O136 C134 1.270 . S
C137 O130 1.262 . S
C137 O138 1.232 . S
O138 C137 1.232 . S
C139 O131 1.260 . S
C139 O132 1.257 . S
Zn140 O143 2.031 . S
Zn140 O145 2.049 . S
Zn140 O150 2.067 . S
Zn141 O142 1.962 . S
Zn141 O144 1.986 . S
Zn141 O146 1.996 . S
Zn141 O149 1.943 1_565 S
O142 Zn141 1.962 . S
O142 C147 1.254 1_565 S
O143 Zn140 2.031 . S
O143 C147 1.269 . S
O144 Zn141 1.986 . S
O144 C151 1.262 . S
O145 Zn140 2.049 . S
O145 C153 1.260 . S
O146 Zn141 1.996 . S
O146 C153 1.257 1_565 S
C147 O142 1.254 1_545 S
C147 O143 1.269 . S
C148 O149 1.249 . S
C148 O150 1.270 . S
O149 Zn141 1.943 1_545 S
O149 C148 1.249 . S
O150 Zn140 2.067 . S
O150 C148 1.270 . S
C151 O144 1.262 . S
C151 O152 1.232 . S
O152 C151 1.232 . S
C153 O145 1.260 . S
C153 O146 1.257 1_545 S
Zn154 O157 2.031 1_554 S
Zn154 O159 2.049 . S
Zn154 O164 2.067 . S
Zn155 O156 1.962 1_554 S
Zn155 O158 1.986 . S
Zn155 O160 1.996 . S
Zn155 O163 1.943 . S
O156 Zn155 1.962 1_556 S
O156 C161 1.254 . S
O157 Zn154 2.031 1_556 S
O157 C161 1.269 . S
O158 Zn155 1.986 . S
O158 C165 1.262 . S
O159 Zn154 2.049 . S
O159 C167 1.260 . S
O160 Zn155 1.996 . S
O160 C167 1.257 . S
C161 O156 1.254 . S
C161 O157 1.269 . S
C162 O163 1.249 . S
C162 O164 1.270 . S
O163 Zn155 1.943 . S
O163 C162 1.249 . S
O164 Zn154 2.067 . S
O164 C162 1.270 . S
C165 O158 1.262 . S
C165 O166 1.232 . S
O166 C165 1.232 . S
C167 O159 1.260 . S
C167 O160 1.257 . S
Zn168 O171 2.031 1_554 S
Zn168 O173 2.049 . S
Zn168 O178 2.067 . S
Zn169 O170 1.962 1_554 S
Zn169 O172 1.986 . S
Zn169 O174 1.996 . S
Zn169 O177 1.943 . S
O170 Zn169 1.962 1_556 S
O170 C175 1.254 . S
O171 Zn168 2.031 1_556 S
O171 C175 1.269 . S
O172 Zn169 1.986 . S
O172 C179 1.262 . S
O173 Zn168 2.049 . S
O173 C181 1.260 . S
O174 Zn169 1.996 . S
O174 C181 1.257 . S
C175 O170 1.254 . S
C175 O171 1.269 . S
C176 O177 1.249 . S
C176 O178 1.270 . S
O177 Zn169 1.943 . S
O177 C176 1.249 . S
O178 Zn168 2.067 . S
O178 C176 1.270 . S
C179 O172 1.262 . S
C179 O180 1.232 . S
O180 C179 1.232 . S
C181 O173 1.260 . S
C181 O174 1.257 . S
Zn182 O185 2.031 1_554 S
Zn182 O187 2.049 . S
Zn182 O192 2.067 . S
Zn183 O184 1.962 1_554 S
Zn183 O186 1.986 . S
Zn183 O188 1.996 . S
Zn183 O191 1.943 . S
O184 Zn183 1.962 1_556 S
O184 C189 1.254 . S
O185 Zn182 2.031 1_556 S
O185 C189 1.269 . S
O186 Zn183 1.986 . S
O186 C193 1.262 . S
O187 Zn182 2.049 . S
O187 C195 1.260 . S
O188 Zn183 1.996 . S
O188 C195 1.257 . S
C189 O184 1.254 . S
C189 O185 1.269 . S
C190 O191 1.249 . S
C190 O192 1.270 . S
O191 Zn183 1.943 . S
O191 C190 1.249 . S
O192 Zn182 2.067 . S
O192 C190 1.270 . S
C193 O186 1.262 . S
C193 O194 1.232 1_554 S
O194 C193 1.232 1_556 S
C195 O187 1.260 . S
C195 O188 1.257 . S
Zn196 O199 2.031 . S
Zn196 O201 2.049 . S
Zn196 O206 2.067 . S
Zn197 O198 1.962 . S
Zn197 O200 1.986 . S
Zn197 O202 1.996 . S
Zn197 O205 1.943 . S
O198 Zn197 1.962 . S
O198 C203 1.254 . S
O199 Zn196 2.031 . S
O199 C203 1.269 . S
O200 Zn197 1.986 . S
O200 C207 1.262 . S
O201 Zn196 2.049 . S
O201 C209 1.260 . S
O202 Zn197 1.996 . S
O202 C209 1.257 . S
C203 O198 1.254 . S
C203 O199 1.269 . S
C204 O205 1.249 . S
C204 O206 1.270 . S
O205 Zn197 1.943 . S
O205 C204 1.249 . S
O206 Zn196 2.067 . S
O206 C204 1.270 . S
C207 O200 1.262 . S
C207 O208 1.232 . S
O208 C207 1.232 . S
C209 O201 1.260 . S
C209 O202 1.257 . S
Zn210 O213 2.031 . S
Zn210 O215 2.049 . S
Zn210 O220 2.067 . S
Zn211 O212 1.962 . S
Zn211 O214 1.986 . S
Zn211 O216 1.996 . S
Zn211 O219 1.943 . S
O212 Zn211 1.962 . S
O212 C217 1.254 . S
O213 Zn210 2.031 . S
O213 C217 1.269 . S
O214 Zn211 1.986 . S
O214 C221 1.262 . S
O215 Zn210 2.049 . S
O215 C223 1.260 . S
O216 Zn211 1.996 . S
O216 C223 1.257 . S
C217 O212 1.254 . S
C217 O213 1.269 . S
C218 O219 1.249 . S
C218 O220 1.270 . S
O219 Zn211 1.943 . S
O219 C218 1.249 . S
O220 Zn210 2.067 . S
O220 C218 1.270 . S
C221 O214 1.262 . S
C221 O222 1.232 . S
O222 C221 1.232 . S
C223 O215 1.260 . S
C223 O216 1.257 . S
Zn224 O227 2.031 . S
Zn224 O229 2.049 . S
Zn224 O234 2.067 1_545 S
Zn225 O226 1.962 . S
Zn225 O228 1.986 . S
Zn225 O230 1.996 . S
Zn225 O233 1.943 . S
O226 Zn225 1.962 . S
O226 C231 1.254 . S
O227 Zn224 2.031 . S
O227 C231 1.269 . S
O228 Zn225 1.986 . S
O228 C235 1.262 . S
O229 Zn224 2.049 . S
O229 C237 1.260 . S
O230 Zn225 1.996 . S
O230 C237 1.257 . S
C231 O226 1.254 . S
C231 O227 1.269 . S
C232 O233 1.234 1_565 S
C232 O234 1.278 . S
O233 Zn225 1.943 . S
O233 C232 1.234 1_545 S
O234 Zn224 2.067 1_565 S
O234 C232 1.278 . S
C235 O228 1.262 . S
C235 O236 1.232 . S
O236 C235 1.232 . S
C237 O229 1.260 . S
C237 O230 1.257 . S
Zn238 O241 2.031 . S
Zn238 O243 2.049 . S
Zn238 O248 2.067 . S
Zn239 O240 1.962 . S
Zn239 O242 1.986 . S
Zn239 O244 1.996 . S
Zn239 O247 1.943 . S
O240 Zn239 1.962 . S
O240 C245 1.254 . S
O241 Zn238 2.031 . S
O241 C245 1.269 . S
O242 Zn239 1.986 . S
O242 C249 1.262 . S
O243 Zn238 2.049 . S
O243 C251 1.260 . S
O244 Zn239 1.996 . S
O244 C251 1.257 . S
C245 O240 1.254 . S
C245 O241 1.269 . S
C246 O247 1.249 . S
C246 O248 1.270 . S
O247 Zn239 1.943 . S
O247 C246 1.249 . S
O248 Zn238 2.067 . S
O248 C246 1.270 . S
C249 O242 1.262 . S
C249 O250 1.232 . S
O250 C249 1.232 . S
C251 O243 1.260 . S
C251 O244 1.257 . S
Zn252 O255 2.031 . S
Zn252 O257 2.049 . S
Zn252 O262 2.067 . S
Zn253 O254 1.962 . S
Zn253 O256 1.986 . S
Zn253 O258 1.996 . S
Zn253 O261 1.943 . S
O254 Zn253 1.962 . S
O254 C259 1.254 . S
O255 Zn252 2.031 . S
O255 C259 1.269 . S
O256 Zn253 1.986 . S
O256 C263 1.262 . S
O257 Zn252 2.049 . S
O257 C265 1.260 . S
O258 Zn253 1.996 . S
O258 C265 1.257 . S
C259 O254 1.254 . S
C259 O255 1.269 . S
C260 O261 1.249 . S
C260 O262 1.270 . S
O261 Zn253 1.943 . S
O261 C260 1.249 . S
O262 Zn252 2.067 . S
O262 C260 1.270 . S
C263 O256 1.262 . S
C263 O264 1.232 . S
O264 C263 1.232 . S
C265 O257 1.260 . S
C265 O258 1.257 . S
Zn266 O269 2.031 . S
Zn266 O271 2.049 . S
Zn266 O276 2.067 . S
Zn267 O268 1.962 . S
Zn267 O270 1.986 . S
Zn267 O272 1.996 . S
Zn267 O275 1.943 1_565 S
O268 Zn267 1.962 . S
O268 C273 1.254 1_565 S
O269 Zn266 2.031 . S
O269 C273 1.269 . S
O270 Zn267 1.986 . S
O270 C277 1.262 . S
O271 Zn266 2.049 . S
O271 C279 1.260 . S
O272 Zn267 1.996 . S
O272 C279 1.257 1_565 S
C273 O268 1.254 1_545 S
C273 O269 1.269 . S
C274 O275 1.249 . S
C274 O276 1.270 . S
O275 Zn267 1.943 1_545 S
O275 C274 1.249 . S
O276 Zn266 2.067 . S
O276 C274 1.270 . S
C277 O270 1.262 . S
C277 O278 1.232 . S
O278 C277 1.232 . S
C279 O271 1.260 . S
C279 O272 1.257 1_545 S
Zn280 O283 2.031 1_554 S
Zn280 O285 2.049 . S
Zn280 O290 2.067 . S
Zn281 O282 1.984 . S
Zn281 O284 1.975 1_556 S
Zn281 O286 1.979 1_556 S
Zn281 O289 1.940 . S
O282 Zn281 1.984 . S
O282 C287 1.254 . S
O283 Zn280 2.031 1_556 S
O283 C287 1.269 . S
O284 Zn281 1.975 1_554 S
O284 C291 1.250 1_554 S
O285 Zn280 2.049 . S
O285 C293 1.260 . S
O286 Zn281 1.979 1_554 S
O286 C293 1.257 . S
C287 O282 1.254 . S
C287 O283 1.269 . S
C288 O289 1.249 . S
C288 O290 1.270 1_556 S
O289 Zn281 1.940 . S
O289 C288 1.249 . S
O290 Zn280 2.067 . S
O290 C288 1.270 1_554 S
C291 O284 1.250 1_556 S
C291 O292 1.246 . S
O292 C291 1.246 . S
C293 O285 1.260 . S
C293 O286 1.257 . S
Zn294 O297 2.031 . S
Zn294 O299 2.049 . S
Zn294 O304 2.067 . S
Zn295 O296 1.962 . S
Zn295 O298 1.986 . S
Zn295 O300 1.996 . S
Zn295 O303 1.943 . S
O296 Zn295 1.962 . S
O296 C301 1.254 . S
O297 Zn294 2.031 . S
O297 C301 1.269 . S
O298 Zn295 1.986 . S
O298 C305 1.262 . S
O299 Zn294 2.049 . S
O299 C307 1.260 . S
O300 Zn295 1.996 . S
O300 C307 1.257 . S
C301 O296 1.254 . S
C301 O297 1.269 . S
C302 O303 1.249 . S
C302 O304 1.270 . S
O303 Zn295 1.943 . S
O303 C302 1.249 . S
O304 Zn294 2.067 . S
O304 C302 1.270 . S
C305 O298 1.262 . S
C305 O306 1.232 . S
O306 C305 1.232 . S
C307 O299 1.260 . S
C307 O300 1.257 . S
Zn308 O311 2.031 . S
Zn308 O313 2.049 . S
Zn308 O318 2.067 . S
Zn309 O310 1.962 . S
Zn309 O312 1.986 . S
Zn309 O314 1.996 . S
Zn309 O317 1.943 . S
O310 Zn309 1.962 . S
O310 C315 1.254 . S
O311 Zn308 2.031 . S
O311 C315 1.269 . S
O312 Zn309 1.986 . S
O312 C319 1.262 . S
O313 Zn308 2.049 . S
O313 C321 1.260 . S
O314 Zn309 1.996 . S
O314 C321 1.257 . S
C315 O310 1.254 . S
C315 O311 1.269 . S
C316 O317 1.249 . S
C316 O318 1.270 . S
O317 Zn309 1.943 . S
O317 C316 1.249 . S
O318 Zn308 2.067 . S
O318 C316 1.270 . S
C319 O312 1.262 . S
C319 O320 1.232 . S
O320 C319 1.232 . S
C321 O313 1.260 . S
C321 O314 1.257 . S
Zn322 O325 2.031 . S
Zn322 O327 2.049 . S
Zn322 O332 2.067 . S
Zn323 O324 1.962 . S
Zn323 O326 1.986 . S
Zn323 O328 1.996 . S
Zn323 O331 1.943 . S
O324 Zn323 1.962 . S
O324 C329 1.254 . S
O325 Zn322 2.031 . S
O325 C329 1.269 . S
O326 Zn323 1.986 . S
O326 C333 1.262 . S
O327 Zn322 2.049 . S
O327 C335 1.260 . S
O328 Zn323 1.996 . S
O328 C335 1.257 . S
C329 O324 1.254 . S
C329 O325 1.269 . S
C330 O331 1.249 . S
C330 O332 1.270 . S
O331 Zn323 1.943 . S
O331 C330 1.249 . S
O332 Zn322 2.067 . S
O332 C330 1.270 . S
C333 O326 1.262 . S
C333 O334 1.232 . S
O334 C333 1.232 . S
C335 O327 1.260 . S
C335 O328 1.257 . S
Tb336 O339 2.453 . S
Tb336 O340 2.596 . S
Tb336 O341 2.374 1_554 S
Tb336 O349 2.343 1_455 S
Tb336 O351 2.353 . S
Tb336 O353 2.427 . S
Tb336 O354 2.513 1_554 S
C337 O341 1.251 . S
C337 O343 1.263 1_545 S
Tb338 O340 2.343 1_665 S
Tb338 O343 2.353 1_654 S
Tb338 O346 2.427 1_655 S
Tb338 O347 2.513 1_655 S
Tb338 O348 2.453 1_564 S
Tb338 O349 2.596 1_565 S
Tb338 O350 2.374 1_565 S
O339 Tb336 2.453 . S
O339 C355 1.245 . S
O340 Tb336 2.596 . S
O340 Tb338 2.343 1_445 S
O340 C355 1.259 . S
O341 Tb336 2.374 1_556 S
O341 C337 1.251 . S
C342 O346 1.275 . S
C342 O347 1.246 . S
O343 C337 1.263 1_565 S
O343 Tb338 2.353 1_456 S
C344 O348 1.245 1_554 S
C344 O349 1.259 . S
C345 O350 1.250 . S
C345 O351 1.263 1_655 S
O346 Tb338 2.427 1_455 S
O346 C342 1.275 . S
O347 Tb338 2.513 1_455 S
O347 C342 1.246 . S
O348 Tb338 2.453 1_546 S
O348 C344 1.245 1_556 S
O349 Tb336 2.343 1_655 S
O349 Tb338 2.596 1_545 S
O349 C344 1.259 . S
O350 Tb338 2.374 1_545 S
O350 C345 1.250 . S
O351 Tb336 2.353 . S
O351 C345 1.263 1_455 S
C352 O353 1.275 . S
C352 O354 1.246 1_554 S
O353 Tb336 2.427 . S
O353 C352 1.275 . S
O354 Tb336 2.513 1_556 S
O354 C352 1.246 1_556 S
C355 O339 1.245 . S
C355 O340 1.259 . S
Tb356 O359 2.453 . S
Tb356 O360 2.596 . S
Tb356 O361 2.374 . S
Tb356 O369 2.343 . S
Tb356 O371 2.353 . S
Tb356 O373 2.427 . S
Tb356 O374 2.513 . S
C357 O361 1.251 . S
C357 O363 1.263 . S
Tb358 O360 2.343 . S
Tb358 O363 2.353 . S
Tb358 O366 2.427 . S
Tb358 O367 2.513 . S
Tb358 O368 2.453 . S
Tb358 O369 2.596 . S
Tb358 O370 2.374 . S
O359 Tb356 2.453 . S
O359 C375 1.245 . S
O360 Tb356 2.596 . S
O360 Tb358 2.343 . S
O360 C375 1.259 . S
O361 Tb356 2.374 . S
O361 C357 1.251 . S
C362 O366 1.275 . S
C362 O367 1.246 . S
O363 C357 1.263 . S
O363 Tb358 2.353 . S
C364 O368 1.245 . S
C364 O369 1.259 . S
C365 O370 1.250 . S
C365 O371 1.263 . S
O366 Tb358 2.427 . S
O366 C362 1.275 . S
O367 Tb358 2.513 . S
O367 C362 1.246 . S
O368 Tb358 2.453 . S
O368 C364 1.245 . S
O369 Tb356 2.343 . S
O369 Tb358 2.596 . S
O369 C364 1.259 . S
O370 Tb358 2.374 . S
O370 C365 1.250 . S
O371 Tb356 2.353 . S
O371 C365 1.263 . S
C372 O373 1.275 . S
C372 O374 1.246 . S
O373 Tb356 2.427 . S
O373 C372 1.275 . S
O374 Tb356 2.513 . S
O374 C372 1.246 . S
C375 O359 1.245 . S
C375 O360 1.259 . S
Tb376 O379 2.453 . S
Tb376 O380 2.596 . S
Tb376 O381 2.374 . S
Tb376 O389 2.343 1_545 S
Tb376 O391 2.353 . S
Tb376 O393 2.427 . S
Tb376 O394 2.513 1_545 S
C377 O381 1.251 . S
C377 O383 1.263 . S
Tb378 O380 2.343 . S
Tb378 O383 2.353 . S
Tb378 O386 2.427 . S
Tb378 O387 2.513 . S
Tb378 O388 2.453 1_545 S
Tb378 O389 2.596 1_545 S
Tb378 O390 2.374 . S
O379 Tb376 2.453 . S
O379 C395 1.245 . S
O380 Tb376 2.596 . S
O380 Tb378 2.343 . S
O380 C395 1.259 . S
O381 Tb376 2.374 . S
O381 C377 1.251 . S
C382 O386 1.275 . S
C382 O387 1.246 . S
O383 C377 1.263 . S
O383 Tb378 2.353 . S
C384 O388 1.245 . S
C384 O389 1.259 . S
C385 O390 1.250 . S
C385 O391 1.263 . S
O386 Tb378 2.427 . S
O386 C382 1.275 . S
O387 Tb378 2.513 . S
O387 C382 1.246 . S
O388 Tb378 2.453 1_565 S
O388 C384 1.245 . S
O389 Tb376 2.343 1_565 S
O389 Tb378 2.596 1_565 S
O389 C384 1.259 . S
O390 Tb378 2.374 . S
O390 C385 1.250 . S
O391 Tb376 2.353 . S
O391 C385 1.263 . S
C392 O393 1.275 1_565 S
C392 O394 1.246 . S
O393 Tb376 2.427 . S
O393 C392 1.275 1_545 S
O394 Tb376 2.513 1_565 S
O394 C392 1.246 . S
C395 O379 1.245 . S
C395 O380 1.259 . S
Tb396 O399 2.453 . S
Tb396 O400 2.596 . S
Tb396 O401 2.374 . S
Tb396 O409 2.343 . S
Tb396 O411 2.353 . S
Tb396 O413 2.427 . S
Tb396 O414 2.513 . S
C397 O401 1.251 . S
C397 O403 1.263 . S
Tb398 O400 2.343 . S
Tb398 O403 2.353 . S
Tb398 O406 2.427 . S
Tb398 O407 2.513 . S
Tb398 O408 2.453 . S
Tb398 O409 2.596 . S
Tb398 O410 2.374 . S
O399 Tb396 2.453 . S
O399 C415 1.245 . S
O400 Tb396 2.596 . S
O400 Tb398 2.343 . S
O400 C415 1.259 . S
O401 Tb396 2.374 . S
O401 C397 1.251 . S
C402 O406 1.275 . S
C402 O407 1.246 . S
O403 C397 1.263 . S
O403 Tb398 2.353 . S
C404 O408 1.245 . S
C404 O409 1.259 . S
C405 O410 1.250 . S
C405 O411 1.263 . S
O406 Tb398 2.427 . S
O406 C402 1.275 . S
O407 Tb398 2.513 . S
O407 C402 1.246 . S
O408 Tb398 2.453 . S
O408 C404 1.245 . S
O409 Tb396 2.343 . S
O409 Tb398 2.596 . S
O409 C404 1.259 . S
O410 Tb398 2.374 . S
O410 C405 1.250 . S
O411 Tb396 2.353 . S
O411 C405 1.263 . S
C412 O413 1.275 . S
C412 O414 1.246 . S
O413 Tb396 2.427 . S
O413 C412 1.275 . S
O414 Tb396 2.513 . S
O414 C412 1.246 . S
C415 O399 1.245 . S
C415 O400 1.259 . S
Tb416 O419 2.453 1_545 S
Tb416 O420 2.596 1_545 S
Tb416 O421 2.374 1_445 S
Tb416 O429 2.343 . S
Tb416 O431 2.353 . S
Tb416 O433 2.427 . S
Tb416 O434 2.513 1_455 S
C417 O421 1.251 1_545 S
C417 O423 1.263 . S
Tb418 O420 2.343 1_545 S
Tb418 O423 2.353 1_455 S
Tb418 O426 2.427 . S
Tb418 O427 2.513 . S
Tb418 O428 2.453 . S
Tb418 O429 2.596 . S
Tb418 O430 2.374 . S
O419 Tb416 2.453 1_565 S
O419 C435 1.245 . S
O420 Tb416 2.596 1_565 S
O420 Tb418 2.343 1_565 S
O420 C435 1.259 . S
O421 Tb416 2.374 1_665 S
O421 C417 1.251 1_565 S
C422 O426 1.275 . S
C422 O427 1.246 . S
O423 C417 1.263 . S
O423 Tb418 2.353 1_655 S
C424 O428 1.245 . S
C424 O429 1.259 . S
C425 O430 1.250 . S
C425 O431 1.263 . S
O426 Tb418 2.427 . S
O426 C422 1.275 . S
O427 Tb418 2.513 . S
O427 C422 1.246 . S
O428 Tb418 2.453 . S
O428 C424 1.245 . S
O429 Tb416 2.343 . S
O429 Tb418 2.596 . S
O429 C424 1.259 . S
O430 Tb418 2.374 . S
O430 C425 1.250 . S
O431 Tb416 2.353 . S
O431 C425 1.263 . S
C432 O433 1.275 1_655 S
C432 O434 1.246 . S
O433 Tb416 2.427 . S
O433 C432 1.275 1_455 S
O434 Tb416 2.513 1_655 S
O434 C432 1.246 . S
C435 O419 1.245 . S
C435 O420 1.259 . S
Tb436 O439 2.453 . S
Tb436 O440 2.596 . S
Tb436 O441 2.374 . S
Tb436 O449 2.343 . S
Tb436 O451 2.353 . S
Tb436 O453 2.427 . S
Tb436 O454 2.513 . S
C437 O441 1.251 . S
C437 O443 1.263 . S
Tb438 O440 2.343 . S
Tb438 O443 2.353 . S
Tb438 O446 2.427 . S
Tb438 O447 2.513 . S
Tb438 O448 2.453 . S
Tb438 O449 2.596 . S
Tb438 O450 2.374 . S
O439 Tb436 2.453 . S
O439 C455 1.245 . S
O440 Tb436 2.596 . S
O440 Tb438 2.343 . S
O440 C455 1.259 . S
O441 Tb436 2.374 . S
O441 C437 1.251 . S
C442 O446 1.275 . S
C442 O447 1.246 . S
O443 C437 1.263 . S
O443 Tb438 2.353 . S
C444 O448 1.245 . S
C444 O449 1.259 . S
C445 O450 1.250 . S
C445 O451 1.263 . S
O446 Tb438 2.427 . S
O446 C442 1.275 . S
O447 Tb438 2.513 . S
O447 C442 1.246 . S
O448 Tb438 2.453 . S
O448 C444 1.245 . S
O449 Tb436 2.343 . S
O449 Tb438 2.596 . S
O449 C444 1.259 . S
O450 Tb438 2.374 . S
O450 C445 1.250 . S
O451 Tb436 2.353 . S
O451 C445 1.263 . S
C452 O453 1.275 . S
C452 O454 1.246 . S
O453 Tb436 2.427 . S
O453 C452 1.275 . S
O454 Tb436 2.513 . S
O454 C452 1.246 . S
C455 O439 1.245 . S
C455 O440 1.259 . S
Tb456 O459 2.453 . S
Tb456 O460 2.596 . S
Tb456 O461 2.374 1_545 S
Tb456 O469 2.343 1_556 S
Tb456 O471 2.353 1_556 S
Tb456 O473 2.427 1_556 S
Tb456 O474 2.513 1_546 S
C457 O461 1.251 . S
C457 O463 1.263 1_556 S
Tb458 O460 2.343 1_554 S
Tb458 O463 2.353 1_545 S
Tb458 O466 2.427 . S
Tb458 O467 2.513 . S
Tb458 O468 2.453 . S
Tb458 O469 2.596 . S
Tb458 O470 2.374 . S
O459 Tb456 2.453 . S
O459 C475 1.245 . S
O460 Tb456 2.596 . S
O460 Tb458 2.343 1_556 S
O460 C475 1.259 . S
O461 Tb456 2.374 1_565 S
O461 C457 1.251 . S
C462 O466 1.275 . S
C462 O467 1.246 . S
O463 C457 1.263 1_554 S
O463 Tb458 2.353 1_565 S
C464 O468 1.245 . S
C464 O469 1.259 . S
C465 O470 1.250 . S
C465 O471 1.263 . S
O466 Tb458 2.427 . S
O466 C462 1.275 . S
O467 Tb458 2.513 . S
O467 C462 1.246 . S
O468 Tb458 2.453 . S
O468 C464 1.245 . S
O469 Tb456 2.343 1_554 S
O469 Tb458 2.596 . S
O469 C464 1.259 . S
O470 Tb458 2.374 . S
O470 C465 1.250 . S
O471 Tb456 2.353 1_554 S
O471 C465 1.263 . S
C472 O473 1.275 . S
C472 O474 1.246 1_545 S
O473 Tb456 2.427 1_554 S
O473 C472 1.275 . S
O474 Tb456 2.513 1_564 S
O474 C472 1.246 1_565 S
C475 O459 1.245 . S
C475 O460 1.259 . S
Tb476 O479 2.453 . S
Tb476 O480 2.596 . S
Tb476 O481 2.374 . S
Tb476 O489 2.343 . S
Tb476 O491 2.353 . S
Tb476 O493 2.427 . S
Tb476 O494 2.513 . S
C477 O481 1.251 . S
C477 O483 1.263 . S
Tb478 O480 2.343 . S
Tb478 O483 2.353 . S
Tb478 O486 2.427 . S
Tb478 O487 2.513 . S
Tb478 O488 2.453 . S
Tb478 O489 2.596 . S
Tb478 O490 2.374 . S
O479 Tb476 2.453 . S
O479 C495 1.245 . S
O480 Tb476 2.596 . S
O480 Tb478 2.343 . S
O480 C495 1.259 . S
O481 Tb476 2.374 . S
O481 C477 1.251 . S
C482 O486 1.275 . S
C482 O487 1.246 . S
O483 C477 1.263 . S
O483 Tb478 2.353 . S
C484 O488 1.245 . S
C484 O489 1.259 . S
C485 O490 1.250 . S
C485 O491 1.263 . S
O486 Tb478 2.427 . S
O486 C482 1.275 . S
O487 Tb478 2.513 . S
O487 C482 1.246 . S
O488 Tb478 2.453 . S
O488 C484 1.245 . S
O489 Tb476 2.343 . S
O489 Tb478 2.596 . S
O489 C484 1.259 . S
O490 Tb478 2.374 . S
O490 C485 1.250 . S
O491 Tb476 2.353 . S
O491 C485 1.263 . S
C492 O493 1.275 . S
C492 O494 1.246 . S
O493 Tb476 2.427 . S
O493 C492 1.275 . S
O494 Tb476 2.513 . S
O494 C492 1.246 . S
C495 O479 1.245 . S
C495 O480 1.259 . S
Tb496 O499 2.438 1_556 S
Tb496 O500 2.596 1_556 S
Tb496 O501 2.374 . S
Tb496 O509 2.343 . S
Tb496 O511 2.353 . S
Tb496 O513 2.427 . S
Tb496 O514 2.513 . S
C497 O501 1.251 1_554 S
C497 O503 1.263 . S
Tb498 O500 2.343 . S
Tb498 O503 2.353 . S
Tb498 O506 2.427 . S
Tb498 O507 2.513 . S
Tb498 O508 2.453 . S
Tb498 O509 2.596 1_554 S
Tb498 O510 2.374 . S
O499 Tb496 2.438 1_554 S
O499 C515 1.271 . S
O500 Tb496 2.596 1_554 S
O500 Tb498 2.343 . S
O500 C515 1.259 . S
O501 Tb496 2.374 . S
O501 C497 1.251 1_556 S
C502 O506 1.275 . S
C502 O507 1.246 . S
O503 C497 1.263 . S
O503 Tb498 2.353 . S
C504 O508 1.249 . S
C504 O509 1.259 1_554 S
C505 O510 1.250 . S
C505 O511 1.263 1_554 S
O506 Tb498 2.427 . S
O506 C502 1.275 . S
O507 Tb498 2.513 . S
O507 C502 1.246 . S
O508 Tb498 2.453 . S
O508 C504 1.249 . S
O509 Tb496 2.343 . S
O509 Tb498 2.596 1_556 S
O509 C504 1.259 1_556 S
O510 Tb498 2.374 . S
O510 C505 1.250 . S
O511 Tb496 2.353 . S
O511 C505 1.263 1_556 S
C512 O513 1.275 . S
C512 O514 1.246 . S
O513 Tb496 2.427 . S
O513 C512 1.275 . S
O514 Tb496 2.513 . S
O514 C512 1.246 . S
C515 O499 1.271 . S
C515 O500 1.259 . S
Tb516 O519 2.453 . S
Tb516 O520 2.596 . S
Tb516 O521 2.374 . S
Tb516 O529 2.343 . S
Tb516 O531 2.353 . S
Tb516 O533 2.427 . S
Tb516 O534 2.513 . S
C517 O521 1.251 . S
C517 O523 1.263 . S
Tb518 O520 2.343 . S
Tb518 O523 2.353 . S
Tb518 O526 2.427 . S
Tb518 O527 2.513 . S
Tb518 O528 2.453 . S
Tb518 O529 2.596 . S
Tb518 O530 2.374 . S
O519 Tb516 2.453 . S
O519 C535 1.245 . S
O520 Tb516 2.596 . S
O520 Tb518 2.343 . S
O520 C535 1.259 . S
O521 Tb516 2.374 . S
O521 C517 1.251 . S
C522 O526 1.275 . S
C522 O527 1.246 . S
O523 C517 1.263 . S
O523 Tb518 2.353 . S
C524 O528 1.245 . S
C524 O529 1.259 . S
C525 O530 1.250 . S
C525 O531 1.263 . S
O526 Tb518 2.427 . S
O526 C522 1.275 . S
O527 Tb518 2.513 . S
O527 C522 1.246 . S
O528 Tb518 2.453 . S
O528 C524 1.245 . S
O529 Tb516 2.343 . S
O529 Tb518 2.596 . S
O529 C524 1.259 . S
O530 Tb518 2.374 . S
O530 C525 1.250 . S
O531 Tb516 2.353 . S
O531 C525 1.263 . S
C532 O533 1.275 . S
C532 O534 1.246 . S
O533 Tb516 2.427 . S
O533 C532 1.275 . S
O534 Tb516 2.513 . S
O534 C532 1.246 . S
C535 O519 1.245 . S
C535 O520 1.259 . S
Tb536 O539 2.453 . S
Tb536 O540 2.596 1_655 S
Tb536 O541 2.374 . S
Tb536 O549 2.343 . S
Tb536 O551 2.353 . S
Tb536 O553 2.427 . S
Tb536 O554 2.513 . S
C537 O541 1.251 1_455 S
C537 O543 1.263 . S
Tb538 O540 2.343 . S
Tb538 O543 2.353 . S
Tb538 O546 2.427 . S
Tb538 O547 2.513 . S
Tb538 O548 2.453 . S
Tb538 O549 2.596 1_455 S
Tb538 O550 2.374 . S
O539 Tb536 2.453 . S
O539 C555 1.245 1_655 S
O540 Tb536 2.596 1_455 S
O540 Tb538 2.343 . S
O540 C555 1.259 . S
O541 Tb536 2.374 . S
O541 C537 1.251 1_655 S
C542 O546 1.275 . S
C542 O547 1.246 . S
O543 C537 1.263 . S
O543 Tb538 2.353 . S
C544 O548 1.245 1_655 S
C544 O549 1.259 . S
C545 O550 1.250 1_655 S
C545 O551 1.263 . S
O546 Tb538 2.427 . S
O546 C542 1.275 . S
O547 Tb538 2.513 . S
O547 C542 1.246 . S
O548 Tb538 2.453 . S
O548 C544 1.245 1_455 S
O549 Tb536 2.343 . S
O549 Tb538 2.596 1_655 S
O549 C544 1.259 . S
O550 Tb538 2.374 . S
O550 C545 1.250 1_455 S
O551 Tb536 2.353 . S
O551 C545 1.263 . S
C552 O553 1.275 . S
C552 O554 1.246 . S
O553 Tb536 2.427 . S
O553 C552 1.275 . S
O554 Tb536 2.513 . S
O554 C552 1.246 . S
C555 O539 1.245 1_455 S
C555 O540 1.259 . S
Tb556 O559 2.453 . S
Tb556 O560 2.596 . S
Tb556 O561 2.374 . S
Tb556 O569 2.343 . S
Tb556 O571 2.353 . S
Tb556 O573 2.427 . S
Tb556 O574 2.513 . S
C557 O561 1.251 . S
C557 O563 1.263 . S
Tb558 O560 2.343 . S
Tb558 O563 2.353 . S
Tb558 O566 2.427 . S
Tb558 O567 2.513 . S
Tb558 O568 2.453 . S
Tb558 O569 2.596 . S
Tb558 O570 2.374 . S
O559 Tb556 2.453 . S
O559 C575 1.245 . S
O560 Tb556 2.596 . S
O560 Tb558 2.343 . S
O560 C575 1.259 . S
O561 Tb556 2.374 . S
O561 C557 1.251 . S
C562 O566 1.275 . S
C562 O567 1.246 . S
O563 C557 1.263 . S
O563 Tb558 2.353 . S
C564 O568 1.245 . S
C564 O569 1.259 . S
C565 O570 1.250 . S
C565 O571 1.263 . S
O566 Tb558 2.427 . S
O566 C562 1.275 . S
O567 Tb558 2.513 . S
O567 C562 1.246 . S
O568 Tb558 2.453 . S
O568 C564 1.245 . S
O569 Tb556 2.343 . S
O569 Tb558 2.596 . S
O569 C564 1.259 . S
O570 Tb558 2.374 . S
O570 C565 1.250 . S
O571 Tb556 2.353 . S
O571 C565 1.263 . S
C572 O573 1.275 . S
C572 O574 1.246 . S
O573 Tb556 2.427 . S
O573 C572 1.275 . S
O574 Tb556 2.513 . S
O574 C572 1.246 . S
C575 O559 1.245 . S
C575 O560 1.259 . S
Tb576 O579 2.453 . S
Tb576 O580 2.596 . S
Tb576 O581 2.374 . S
Tb576 O589 2.343 . S
Tb576 O591 2.353 . S
Tb576 O593 2.427 . S
Tb576 O594 2.513 . S
C577 O581 1.251 . S
C577 O583 1.263 . S
Tb578 O580 2.343 . S
Tb578 O583 2.353 . S
Tb578 O586 2.427 . S
Tb578 O587 2.513 . S
Tb578 O588 2.453 . S
Tb578 O589 2.596 . S
Tb578 O590 2.374 . S
O579 Tb576 2.453 . S
O579 C595 1.245 . S
O580 Tb576 2.596 . S
O580 Tb578 2.343 . S
O580 C595 1.259 . S
O581 Tb576 2.374 . S
O581 C577 1.251 . S
C582 O586 1.275 . S
C582 O587 1.246 . S
O583 C577 1.263 . S
O583 Tb578 2.353 . S
C584 O588 1.245 . S
C584 O589 1.259 . S
C585 O590 1.250 . S
C585 O591 1.263 . S
O586 Tb578 2.427 . S
O586 C582 1.275 . S
O587 Tb578 2.513 . S
O587 C582 1.246 . S
O588 Tb578 2.453 . S
O588 C584 1.245 . S
O589 Tb576 2.343 . S
O589 Tb578 2.596 . S
O589 C584 1.259 . S
O590 Tb578 2.374 . S
O590 C585 1.250 . S
O591 Tb576 2.353 . S
O591 C585 1.263 . S
C592 O593 1.275 . S
C592 O594 1.246 . S
O593 Tb576 2.427 . S
O593 C592 1.275 . S
O594 Tb576 2.513 . S
O594 C592 1.246 . S
C595 O579 1.245 . S
C595 O580 1.259 . S
Tb596 O599 2.453 . S
Tb596 O600 2.596 . S
Tb596 O601 2.374 . S
Tb596 O609 2.343 . S
Tb596 O611 2.353 . S
Tb596 O613 2.427 . S
Tb596 O614 2.513 . S
C597 O601 1.251 . S
C597 O603 1.263 . S
Tb598 O600 2.343 . S
Tb598 O603 2.353 . S
Tb598 O606 2.427 . S
Tb598 O607 2.513 . S
Tb598 O608 2.453 . S
Tb598 O609 2.596 . S
Tb598 O610 2.374 . S
O599 Tb596 2.453 . S
O599 C615 1.245 . S
O600 Tb596 2.596 . S
O600 Tb598 2.343 . S
O600 C615 1.259 . S
O601 Tb596 2.374 . S
O601 C597 1.251 . S
C602 O606 1.275 . S
C602 O607 1.246 . S
O603 C597 1.263 . S
O603 Tb598 2.353 . S
C604 O608 1.245 . S
C604 O609 1.259 . S
C605 O610 1.250 . S
C605 O611 1.263 . S
O606 Tb598 2.427 . S
O606 C602 1.275 . S
O607 Tb598 2.513 . S
O607 C602 1.246 . S
O608 Tb598 2.453 . S
O608 C604 1.245 . S
O609 Tb596 2.343 . S
O609 Tb598 2.596 . S
O609 C604 1.259 . S
O610 Tb598 2.374 . S
O610 C605 1.250 . S
O611 Tb596 2.353 . S
O611 C605 1.263 . S
C612 O613 1.275 . S
C612 O614 1.246 . S
O613 Tb596 2.427 . S
O613 C612 1.275 . S
O614 Tb596 2.513 . S
O614 C612 1.246 . S
C615 O599 1.245 . S
C615 O600 1.259 . S
Tb616 O619 2.453 . S
Tb616 O620 2.596 . S
Tb616 O621 2.374 . S
Tb616 O629 2.343 . S
Tb616 O631 2.353 . S
Tb616 O633 2.427 . S
Tb616 O634 2.513 . S
C617 O621 1.251 . S
C617 O623 1.263 . S
Tb618 O620 2.343 . S
Tb618 O623 2.353 . S
Tb618 O626 2.427 . S
Tb618 O627 2.513 . S
Tb618 O628 2.453 . S
Tb618 O629 2.596 . S
Tb618 O630 2.374 . S
O619 Tb616 2.453 . S
O619 C635 1.245 . S
O620 Tb616 2.596 . S
O620 Tb618 2.343 . S
O620 C635 1.259 . S
O621 Tb616 2.374 . S
O621 C617 1.251 . S
C622 O626 1.275 . S
C622 O627 1.246 . S
O623 C617 1.263 . S
O623 Tb618 2.353 . S
C624 O628 1.245 . S
C624 O629 1.259 . S
C625 O630 1.250 . S
C625 O631 1.263 . S
O626 Tb618 2.427 . S
O626 C622 1.275 . S
O627 Tb618 2.513 . S
O627 C622 1.246 . S
O628 Tb618 2.453 . S
O628 C624 1.245 . S
O629 Tb616 2.343 . S
O629 Tb618 2.596 . S
O629 C624 1.259 . S
O630 Tb618 2.374 . S
O630 C625 1.250 . S
O631 Tb616 2.353 . S
O631 C625 1.263 . S
C632 O633 1.275 . S
C632 O634 1.246 . S
O633 Tb616 2.427 . S
O633 C632 1.275 . S
O634 Tb616 2.513 . S
O634 C632 1.246 . S
C635 O619 1.245 . S
C635 O620 1.259 . S
Tb636 O639 2.453 . S
Tb636 O640 2.574 1_455 S
Tb636 O641 2.374 . S
Tb636 O649 2.343 . S
Tb636 O651 2.353 1_554 S
Tb636 O653 2.427 1_554 S
Tb636 O654 2.513 . S
C637 O641 1.251 . S
C637 O643 1.263 1_455 S
Tb638 O640 2.356 . S
Tb638 O643 2.353 . S
Tb638 O646 2.427 . S
Tb638 O647 2.513 . S
Tb638 O648 2.453 . S
Tb638 O649 2.596 1_655 S
Tb638 O650 2.374 1_554 S
O639 Tb636 2.453 . S
O639 C655 1.245 . S
O640 Tb636 2.574 1_655 S
O640 Tb638 2.356 . S
O640 C655 1.252 1_655 S
O641 Tb636 2.374 . S
O641 C637 1.251 . S
C642 O646 1.275 . S
C642 O647 1.246 . S
O643 C637 1.263 1_655 S
O643 Tb638 2.353 . S
C644 O648 1.245 1_556 S
C644 O649 1.259 1_656 S
C645 O650 1.250 . S
C645 O651 1.263 1_655 S
O646 Tb638 2.427 . S
O646 C642 1.275 . S
O647 Tb638 2.513 . S
O647 C642 1.246 . S
O648 Tb638 2.453 . S
O648 C644 1.245 1_554 S
O649 Tb636 2.343 . S
O649 Tb638 2.596 1_455 S
O649 C644 1.259 1_454 S
O650 Tb638 2.374 1_556 S
O650 C645 1.250 . S
O651 Tb636 2.353 1_556 S
O651 C645 1.263 1_455 S
C652 O653 1.266 1_554 S
C652 O654 1.259 . S
O653 Tb636 2.427 1_556 S
O653 C652 1.266 1_556 S
O654 Tb636 2.513 . S
O654 C652 1.259 . S
C655 O639 1.245 . S
C655 O640 1.252 1_455 S
C656 C657 1.363 . S
C656 C662 1.379 . S
C656 N664 1.356 1_455 S
C657 C656 1.363 . S
C657 C663 1.363 . S
C658 C659 1.363 . S
C658 C663 1.379 . S
C658 N665 1.356 1_556 S
C659 C658 1.363 . S
C659 C662 1.363 . S
N660 C662 1.356 . S
N660 H672 0.985 1_455 S
N660 H673 0.985 . S
N661 C663 1.356 . S
N661 H666 0.984 . S
N661 H667 0.985 . S
C662 C656 1.379 . S
C662 C659 1.363 . S
C662 N660 1.356 . S
C663 C657 1.363 . S
C663 C658 1.379 . S
C663 N661 1.356 . S
N664 C656 1.356 1_655 S
N664 H670 0.984 . S
N664 H671 0.984 . S
N665 C658 1.356 1_554 S
N665 H668 0.984 . S
N665 H669 0.985 . S
H666 N661 0.984 . S
H667 N661 0.985 . S
H668 N665 0.984 . S
H669 N665 0.985 . S
H670 N664 0.984 . S
H671 N664 0.984 . S
H672 N660 0.985 1_655 S
H673 N660 0.985 . S
C674 C675 1.363 . S
C674 C680 1.379 . S
C674 N682 1.356 . S
C675 C674 1.363 . S
C675 C681 1.363 . S
C676 C677 1.363 . S
C676 C681 1.379 . S
C676 N683 1.356 . S
C677 C676 1.363 . S
C677 C680 1.363 . S
N678 C680 1.356 . S
N678 H690 0.984 . S
N678 H691 0.985 . S
N679 C681 1.356 . S
N679 H684 0.984 . S
N679 H685 0.985 . S
C680 C674 1.379 . S
C680 C677 1.363 . S
C680 N678 1.356 . S
C681 C675 1.363 . S
C681 C676 1.379 . S
C681 N679 1.356 . S
N682 C674 1.356 . S
N682 H688 0.984 . S
N682 H689 0.984 . S
N683 C676 1.356 . S
N683 H686 0.984 . S
N683 H687 0.985 . S
H684 N679 0.984 . S
H685 N679 0.985 . S
H686 N683 0.984 . S
H687 N683 0.985 . S
H688 N682 0.984 . S
H689 N682 0.984 . S
H690 N678 0.984 . S
H691 N678 0.985 . S
C692 C693 1.363 . S
C692 C698 1.379 . S
C692 N700 1.356 . S
C693 C692 1.363 . S
C693 C699 1.363 . S
C694 C695 1.363 . S
C694 C699 1.379 . S
C694 N701 1.356 . S
C695 C694 1.363 . S
C695 C698 1.363 . S
N696 C698 1.356 . S
N696 H708 0.984 . S
N696 H709 0.985 . S
N697 C699 1.356 . S
N697 H702 0.984 . S
N697 H703 0.985 . S
C698 C692 1.379 . S
C698 C695 1.363 . S
C698 N696 1.356 . S
C699 C693 1.363 . S
C699 C694 1.379 . S
C699 N697 1.356 . S
N700 C692 1.356 . S
N700 H706 0.984 . S
N700 H707 0.984 . S
N701 C694 1.356 . S
N701 H704 0.984 . S
N701 H705 0.985 . S
H702 N697 0.984 . S
H703 N697 0.985 . S
H704 N701 0.984 . S
H705 N701 0.985 . S
H706 N700 0.984 . S
H707 N700 0.984 . S
H708 N696 0.984 . S
H709 N696 0.985 . S
C710 C711 1.363 . S
C710 C716 1.379 . S
C710 N718 1.356 . S
C711 C710 1.363 . S
C711 C717 1.363 . S
C712 C713 1.363 . S
C712 C717 1.379 . S
C712 N719 1.356 . S
C713 C712 1.363 . S
C713 C716 1.363 . S
N714 C716 1.356 . S
N714 H726 0.984 . S
N714 H727 0.985 . S
N715 C717 1.356 . S
N715 H720 0.984 . S
N715 H721 0.985 . S
C716 C710 1.379 . S
C716 C713 1.363 . S
C716 N714 1.356 . S
C717 C711 1.363 . S
C717 C712 1.379 . S
C717 N715 1.356 . S
N718 C710 1.356 . S
N718 H724 0.984 . S
N718 H725 0.984 . S
N719 C712 1.356 . S
N719 H722 0.984 . S
N719 H723 0.985 . S
H720 N715 0.984 . S
H721 N715 0.985 . S
H722 N719 0.984 . S
H723 N719 0.985 . S
H724 N718 0.984 . S
H725 N718 0.984 . S
H726 N714 0.984 . S
H727 N714 0.985 . S
C728 C729 1.363 . S
C728 C734 1.379 . S
C728 N736 1.356 . S
C729 C728 1.363 . S
C729 C735 1.363 1_455 S
C730 C731 1.363 1_655 S
C730 C735 1.379 . S
C730 N737 1.356 . S
C731 C730 1.363 1_455 S
C731 C734 1.363 . S
N732 C734 1.356 . S
N732 H744 0.984 . S
N732 H745 0.985 . S
N733 C735 1.356 . S
N733 H738 0.984 . S
N733 H739 0.985 . S
C734 C728 1.379 . S
C734 C731 1.363 . S
C734 N732 1.356 . S
C735 C729 1.363 1_655 S
C735 C730 1.379 . S
C735 N733 1.356 . S
N736 C728 1.356 . S
N736 H742 0.984 . S
N736 H743 0.984 . S
N737 C730 1.356 . S
N737 H740 0.984 . S
N737 H741 0.985 . S
H738 N733 0.984 . S
H739 N733 0.985 . S
H740 N737 0.984 . S
H741 N737 0.985 . S
H742 N736 0.984 . S
H743 N736 0.984 . S
H744 N732 0.984 . S
H745 N732 0.985 . S
C746 C747 1.363 . S
C746 C752 1.379 . S
C746 N754 1.356 . S
C747 C746 1.363 . S
C747 C753 1.363 . S
C748 C749 1.363 . S
C748 C753 1.379 . S
C748 N755 1.356 . S
C749 C748 1.363 . S
C749 C752 1.363 . S
N750 C752 1.356 . S
N750 H762 0.984 . S
N750 H763 0.985 . S
N751 C753 1.356 . S
N751 H756 0.984 . S
N751 H757 0.985 . S
C752 C746 1.379 . S
C752 C749 1.363 . S
C752 N750 1.356 . S
C753 C747 1.363 . S
C753 C748 1.379 . S
C753 N751 1.356 . S
N754 C746 1.356 . S
N754 H760 0.984 . S
N754 H761 0.984 . S
N755 C748 1.356 . S
N755 H758 0.984 . S
N755 H759 0.985 . S
H756 N751 0.984 . S
H757 N751 0.985 . S
H758 N755 0.984 . S
H759 N755 0.985 . S
H760 N754 0.984 . S
H761 N754 0.984 . S
H762 N750 0.984 . S
H763 N750 0.985 . S
C764 C765 1.363 . S
C764 C770 1.379 . S
C764 N772 1.356 . S
C765 C764 1.363 . S
C765 C771 1.363 . S
C766 C767 1.363 . S
C766 C771 1.379 . S
C766 N773 1.356 . S
C767 C766 1.363 . S
C767 C770 1.363 . S
N768 C770 1.356 . S
N768 H780 0.984 1_554 S
N768 H781 0.985 1_554 S
N769 C771 1.356 . S
N769 H774 0.984 . S
N769 H775 0.985 . S
C770 C764 1.379 . S
C770 C767 1.363 . S
C770 N768 1.356 . S
C771 C765 1.363 . S
C771 C766 1.379 . S
C771 N769 1.356 . S
N772 C764 1.356 . S
N772 H778 0.984 . S
N772 H779 0.984 . S
N773 C766 1.356 . S
N773 H776 0.984 . S
N773 H777 0.985 . S
H774 N769 0.984 . S
H775 N769 0.985 . S
H776 N773 0.984 . S
H777 N773 0.985 . S
H778 N772 0.984 . S
H779 N772 0.984 . S
H780 N768 0.984 1_556 S
H781 N768 0.985 1_556 S
C782 C783 1.363 . S
C782 C788 1.379 . S
C782 N790 1.356 . S
C783 C782 1.363 . S
C783 C789 1.363 . S
C784 C785 1.363 . S
C784 C789 1.379 . S
C784 N791 1.356 . S
C785 C784 1.363 . S
C785 C788 1.363 . S
N786 C788 1.356 . S
N786 H798 0.984 . S
N786 H799 0.985 . S
N787 C789 1.356 . S
N787 H792 0.984 . S
N787 H793 0.985 . S
C788 C782 1.379 . S
C788 C785 1.363 . S
C788 N786 1.356 . S
C789 C783 1.363 . S
C789 C784 1.379 . S
C789 N787 1.356 . S
N790 C782 1.356 . S
N790 H796 0.984 . S
N790 H797 0.984 . S
N791 C784 1.356 . S
N791 H794 0.984 . S
N791 H795 0.985 . S
H792 N787 0.984 . S
H793 N787 0.985 . S
H794 N791 0.984 . S
H795 N791 0.985 . S
H796 N790 0.984 . S
H797 N790 0.984 . S
H798 N786 0.984 . S
H799 N786 0.985 . S
C800 C801 1.363 . S
C800 C806 1.379 . S
C800 N808 1.356 . S
C801 C800 1.363 . S
C801 C807 1.363 . S
C802 C803 1.363 . S
C802 C807 1.379 . S
C802 N809 1.356 . S
C803 C802 1.363 . S
C803 C806 1.363 . S
N804 C806 1.356 1_455 S
N804 H816 0.984 . S
N804 H817 0.985 . S
N805 C807 1.356 . S
N805 H810 0.984 . S
N805 H811 0.985 . S
C806 C800 1.379 . S
C806 C803 1.363 . S
C806 N804 1.356 1_655 S
C807 C801 1.363 . S
C807 C802 1.379 . S
C807 N805 1.356 . S
N808 C800 1.356 . S
N808 H814 0.984 . S
N808 H815 0.984 . S
N809 C802 1.356 . S
N809 H812 0.984 . S
N809 H813 0.985 . S
H810 N805 0.984 . S
H811 N805 0.985 . S
H812 N809 0.984 . S
H813 N809 0.985 . S
H814 N808 0.984 . S
H815 N808 0.984 . S
H816 N804 0.984 . S
H817 N804 0.985 . S
C818 C819 1.363 . S
C818 C824 1.379 . S
C818 N826 1.356 . S
C819 C818 1.363 . S
C819 C825 1.363 . S
C820 C821 1.363 . S
C820 C825 1.379 . S
C820 N827 1.356 . S
C821 C820 1.363 . S
C821 C824 1.363 . S
N822 C824 1.356 . S
N822 H834 0.984 . S
N822 H835 0.985 . S
N823 C825 1.356 . S
N823 H828 0.984 . S
N823 H829 0.985 . S
C824 C818 1.379 . S
C824 C821 1.363 . S
C824 N822 1.356 . S
C825 C819 1.363 . S
C825 C820 1.379 . S
C825 N823 1.356 . S
N826 C818 1.356 . S
N826 H832 0.984 . S
N826 H833 0.984 . S
N827 C820 1.356 . S
N827 H830 0.984 . S
N827 H831 0.985 . S
H828 N823 0.984 . S
H829 N823 0.985 . S
H830 N827 0.984 . S
H831 N827 0.985 . S
H832 N826 0.984 . S
H833 N826 0.984 . S
H834 N822 0.984 . S
H835 N822 0.985 . S
C836 C837 1.363 . S
C836 C842 1.379 . S
C836 N844 1.356 . S
C837 C836 1.363 . S
C837 C843 1.363 1_545 S
C838 C839 1.363 1_565 S
C838 C843 1.379 . S
C838 N845 1.356 . S
C839 C838 1.363 1_545 S
C839 C842 1.363 . S
N840 C842 1.356 . S
N840 H852 0.984 . S
N840 H853 0.985 . S
N841 C843 1.356 . S
N841 H846 0.984 . S
N841 H847 0.985 . S
C842 C836 1.379 . S
C842 C839 1.363 . S
C842 N840 1.356 . S
C843 C837 1.363 1_565 S
C843 C838 1.379 . S
C843 N841 1.356 . S
N844 C836 1.356 . S
N844 H850 0.984 . S
N844 H851 0.984 . S
N845 C838 1.356 . S
N845 H848 0.984 . S
N845 H849 0.985 . S
H846 N841 0.984 . S
H847 N841 0.985 . S
H848 N845 0.984 . S
H849 N845 0.985 . S
H850 N844 0.984 . S
H851 N844 0.984 . S
H852 N840 0.984 . S
H853 N840 0.985 . S
C854 C855 1.363 . S
C854 C860 1.379 . S
C854 N862 1.356 . S
C855 C854 1.363 . S
C855 C861 1.363 . S
C856 C857 1.363 . S
C856 C861 1.379 . S
C856 N863 1.356 . S
C857 C856 1.363 . S
C857 C860 1.363 . S
N858 C860 1.356 . S
N858 H870 0.984 . S
N858 H871 0.985 . S
N859 C861 1.356 . S
N859 H864 0.984 . S
N859 H865 0.985 . S
C860 C854 1.379 . S
C860 C857 1.363 . S
C860 N858 1.356 . S
C861 C855 1.363 . S
C861 C856 1.379 . S
C861 N859 1.356 . S
N862 C854 1.356 . S
N862 H868 0.984 . S
N862 H869 0.984 1_556 S
N863 C856 1.356 . S
N863 H866 0.984 . S
N863 H867 0.985 . S
H864 N859 0.984 . S
H865 N859 0.985 . S
H866 N863 0.984 . S
H867 N863 0.985 . S
H868 N862 0.984 . S
H869 N862 0.984 1_554 S
H870 N858 0.984 . S
H871 N858 0.985 . S
C872 C873 1.363 . S
C872 C878 1.379 . S
C872 N880 1.356 . S
C873 C872 1.363 . S
C873 C879 1.363 . S
C874 C875 1.363 . S
C874 C879 1.379 . S
C874 N881 1.356 1_545 S
C875 C874 1.363 . S
C875 C878 1.363 . S
N876 C878 1.356 . S
N876 H888 0.984 . S
N876 H889 0.985 . S
N877 C879 1.356 . S
N877 H882 0.984 . S
N877 H883 0.985 1_545 S
C878 C872 1.379 . S
C878 C875 1.363 . S
C878 N876 1.356 . S
C879 C873 1.363 . S
C879 C874 1.379 . S
C879 N877 1.356 . S
N880 C872 1.356 . S
N880 H886 0.984 . S
N880 H887 0.984 . S
N881 C874 1.356 1_565 S
N881 H884 0.984 . S
N881 H885 0.985 . S
H882 N877 0.984 . S
H883 N877 0.985 1_565 S
H884 N881 0.984 . S
H885 N881 0.985 . S
H886 N880 0.984 . S
H887 N880 0.984 . S
H888 N876 0.984 . S
H889 N876 0.985 . S
C890 C891 1.363 . S
C890 C896 1.379 . S
C890 N898 1.356 . S
C891 C890 1.363 . S
C891 C897 1.363 . S
C892 C893 1.363 . S
C892 C897 1.379 . S
C892 N899 1.356 . S
C893 C892 1.363 . S
C893 C896 1.363 . S
N894 C896 1.356 . S
N894 H906 0.984 . S
N894 H907 0.985 . S
N895 C897 1.356 . S
N895 H900 0.984 . S
N895 H901 0.985 . S
C896 C890 1.379 . S
C896 C893 1.363 . S
C896 N894 1.356 . S
C897 C891 1.363 . S
C897 C892 1.379 . S
C897 N895 1.356 . S
N898 C890 1.356 . S
N898 H904 0.984 . S
N898 H905 0.984 . S
N899 C892 1.356 . S
N899 H902 0.984 . S
N899 H903 0.985 . S
H900 N895 0.984 . S
H901 N895 0.985 . S
H902 N899 0.984 . S
H903 N899 0.985 . S
H904 N898 0.984 . S
H905 N898 0.984 . S
H906 N894 0.984 . S
H907 N894 0.985 . S
C908 C909 1.363 . S
C908 C914 1.379 . S
C908 N916 1.356 . S
C909 C908 1.363 . S
C909 C915 1.363 1_545 S
C910 C911 1.363 . S
C910 C915 1.379 1_545 S
C910 N917 1.356 1_545 S
C911 C910 1.363 . S
C911 C914 1.363 . S
N912 C914 1.356 . S
N912 H924 0.984 . S
N912 H925 0.985 . S
N913 C915 1.356 . S
N913 H918 0.984 . S
N913 H919 0.985 . S
C914 C908 1.379 . S
C914 C911 1.363 . S
C914 N912 1.356 . S
C915 C909 1.363 1_565 S
C915 C910 1.379 1_565 S
C915 N913 1.356 . S
N916 C908 1.356 . S
N916 H922 0.984 . S
N916 H923 0.984 . S
N917 C910 1.356 1_565 S
N917 H920 0.984 1_565 S
N917 H921 0.985 . S
H918 N913 0.984 . S
H919 N913 0.985 . S
H920 N917 0.984 1_545 S
H921 N917 0.985 . S
H922 N916 0.984 . S
H923 N916 0.984 . S
H924 N912 0.984 . S
H925 N912 0.985 . S
C926 C927 1.363 . S
C926 C932 1.379 . S
C926 N934 1.356 . S
C927 C926 1.363 . S
C927 C933 1.363 . S
C928 C929 1.363 . S
C928 C933 1.379 . S
C928 N935 1.356 . S
C929 C928 1.363 . S
C929 C932 1.363 . S
N930 C932 1.356 . S
N930 H942 0.984 . S
N930 H943 0.985 . S
N931 C933 1.356 . S
N931 H936 0.984 . S
N931 H937 0.985 . S
C932 C926 1.379 . S
C932 C929 1.363 . S
C932 N930 1.356 . S
C933 C927 1.363 . S
C933 C928 1.379 . S
C933 N931 1.356 . S
N934 C926 1.356 . S
N934 H940 0.984 . S
N934 H941 0.984 . S
N935 C928 1.356 . S
N935 H938 0.984 . S
N935 H939 0.985 . S
H936 N931 0.984 . S
H937 N931 0.985 . S
H938 N935 0.984 . S
H939 N935 0.985 . S
H940 N934 0.984 . S
H941 N934 0.984 . S
H942 N930 0.984 . S
H943 N930 0.985 . S
C944 C945 1.363 . S
C944 C950 1.379 . S
C944 N952 1.356 . S
C945 C944 1.363 . S
C945 C951 1.363 . S
C946 C947 1.363 . S
C946 C951 1.379 . S
C946 N953 1.356 1_564 S
C947 C946 1.363 . S
C947 C950 1.363 . S
N948 C950 1.356 . S
N948 H960 0.984 . S
N948 H961 0.985 . S
N949 C951 1.356 1_556 S
N949 H954 0.984 . S
N949 H955 0.985 . S
C950 C944 1.379 . S
C950 C947 1.363 . S
C950 N948 1.356 . S
C951 C945 1.363 . S
C951 C946 1.379 . S
C951 N949 1.356 1_554 S
N952 C944 1.356 . S
N952 H958 0.984 . S
N952 H959 0.984 . S
N953 C946 1.356 1_546 S
N953 H956 0.984 1_556 S
N953 H957 0.985 . S
H954 N949 0.984 . S
H955 N949 0.985 . S
H956 N953 0.984 1_554 S
H957 N953 0.985 . S
H958 N952 0.984 . S
H959 N952 0.984 . S
H960 N948 0.984 . S
H961 N948 0.985 . S
C962 C963 1.363 1_554 S
C962 C968 1.379 . S
C962 N970 1.356 . S
C963 C962 1.363 1_556 S
C963 C969 1.363 . S
C964 C965 1.363 . S
C964 C969 1.379 . S
C964 N971 1.356 . S
C965 C964 1.363 . S
C965 C968 1.363 1_556 S
N966 C968 1.356 . S
N966 H978 0.984 . S
N966 H979 0.985 . S
N967 C969 1.356 . S
N967 H972 0.984 . S
N967 H973 0.985 . S
C968 C962 1.379 . S
C968 C965 1.363 1_554 S
C968 N966 1.356 . S
C969 C963 1.363 . S
C969 C964 1.379 . S
C969 N967 1.356 . S
N970 C962 1.356 . S
N970 H976 0.984 . S
N970 H977 0.984 . S
N971 C964 1.356 . S
N971 H974 0.984 . S
N971 H975 0.985 . S
H972 N967 0.984 . S
H973 N967 0.985 . S
H974 N971 0.984 . S
H975 N971 0.985 . S
H976 N970 0.984 . S
H977 N970 0.984 . S
H978 N966 0.984 . S
H979 N966 0.985 . S
C980 C981 1.363 . S
C980 C986 1.379 . S
C980 N988 1.356 . S
C981 C980 1.363 . S
C981 C987 1.363 . S
C982 C983 1.363 . S
C982 C987 1.379 . S
C982 N989 1.356 . S
C983 C982 1.363 . S
C983 C986 1.363 . S
N984 C986 1.356 . S
N984 H996 0.984 . S
N984 H997 0.985 . S
N985 C987 1.356 . S
N985 H990 0.984 . S
N985 H991 0.985 . S
C986 C980 1.379 . S
C986 C983 1.363 . S
C986 N984 1.356 . S
C987 C981 1.363 . S
C987 C982 1.379 . S
C987 N985 1.356 . S
N988 C980 1.356 . S
N988 H994 0.984 . S
N988 H995 0.984 . S
N989 C982 1.356 . S
N989 H992 0.984 . S
N989 H993 0.985 . S
H990 N985 0.984 . S
H991 N985 0.985 . S
H992 N989 0.984 . S
H993 N989 0.985 . S
H994 N988 0.984 . S
H995 N988 0.984 . S
H996 N984 0.984 . S
H997 N984 0.985 . S
C998 C999 1.363 . S
C998 C1004 1.379 . S
C998 N1006 1.356 . S
C999 C998 1.363 . S
C999 C1005 1.363 . S
C1000 C1001 1.363 . S
C1000 C1005 1.379 . S
C1000 N1007 1.356 . S
C1001 C1000 1.363 . S
C1001 C1004 1.363 . S
N1002 C1004 1.356 . S
N1002 H1014 0.984 . S
N1002 H1015 0.985 . S
N1003 C1005 1.356 . S
N1003 H1008 0.984 . S
N1003 H1009 0.985 . S
C1004 C998 1.379 . S
C1004 C1001 1.363 . S
C1004 N1002 1.356 . S
C1005 C999 1.363 . S
C1005 C1000 1.379 . S
C1005 N1003 1.356 . S
N1006 C998 1.356 . S
N1006 H1012 0.984 . S
N1006 H1013 0.984 . S
N1007 C1000 1.356 . S
N1007 H1010 0.984 . S
N1007 H1011 0.985 . S
H1008 N1003 0.984 . S
H1009 N1003 0.985 . S
H1010 N1007 0.984 . S
H1011 N1007 0.985 . S
H1012 N1006 0.984 . S
H1013 N1006 0.984 . S
H1014 N1002 0.984 . S
H1015 N1002 0.985 . S
C1016 C1017 1.363 . S
C1016 C1022 1.379 . S
C1016 N1024 1.356 . S
C1017 C1016 1.363 . S
C1017 C1023 1.363 . S
C1018 C1019 1.363 . S
C1018 C1023 1.379 . S
C1018 N1025 1.356 . S
C1019 C1018 1.363 . S
C1019 C1022 1.363 . S
N1020 C1022 1.356 . S
N1020 H1032 0.984 . S
N1020 H1033 0.985 . S
N1021 C1023 1.356 . S
N1021 H1026 0.984 . S
N1021 H1027 0.985 . S
C1022 C1016 1.379 . S
C1022 C1019 1.363 . S
C1022 N1020 1.356 . S
C1023 C1017 1.363 . S
C1023 C1018 1.379 . S
C1023 N1021 1.356 . S
N1024 C1016 1.356 . S
N1024 H1030 0.984 . S
N1024 H1031 0.984 . S
N1025 C1018 1.356 . S
N1025 H1028 0.984 . S
N1025 H1029 0.985 . S
H1026 N1021 0.984 . S
H1027 N1021 0.985 . S
H1028 N1025 0.984 . S
H1029 N1025 0.985 . S
H1030 N1024 0.984 . S
H1031 N1024 0.984 . S
H1032 N1020 0.984 . S
H1033 N1020 0.985 . S
C1034 C1035 1.363 . S
C1034 C1040 1.379 . S
C1034 N1042 1.356 . S
C1035 C1034 1.363 . S
C1035 C1041 1.363 . S
C1036 C1037 1.363 . S
C1036 C1041 1.379 . S
C1036 N1043 1.356 . S
C1037 C1036 1.363 . S
C1037 C1040 1.363 . S
N1038 C1040 1.356 . S
N1038 H1050 0.984 . S
N1038 H1051 0.985 . S
N1039 C1041 1.356 . S
N1039 H1044 0.984 . S
N1039 H1045 0.985 . S
C1040 C1034 1.379 . S
C1040 C1037 1.363 . S
C1040 N1038 1.356 . S
C1041 C1035 1.363 . S
C1041 C1036 1.379 . S
C1041 N1039 1.356 . S
N1042 C1034 1.356 . S
N1042 H1048 0.984 . S
N1042 H1049 0.984 . S
N1043 C1036 1.356 . S
N1043 H1046 0.984 . S
N1043 H1047 0.985 . S
H1044 N1039 0.984 . S
H1045 N1039 0.985 . S
H1046 N1043 0.984 . S
H1047 N1043 0.985 . S
H1048 N1042 0.984 . S
H1049 N1042 0.984 . S
H1050 N1038 0.984 . S
H1051 N1038 0.985 . S
C1052 C1053 1.363 . S
C1052 C1058 1.379 . S
C1052 N1060 1.356 . S
C1053 C1052 1.363 . S
C1053 C1059 1.363 . S
C1054 C1055 1.363 . S
C1054 C1059 1.379 . S
C1054 N1061 1.356 . S
C1055 C1054 1.363 . S
C1055 C1058 1.363 . S
N1056 C1058 1.356 . S
N1056 H1068 0.984 . S
N1056 H1069 0.985 . S
N1057 C1059 1.356 . S
N1057 H1062 0.984 . S
N1057 H1063 0.985 . S
C1058 C1052 1.379 . S
C1058 C1055 1.363 . S
C1058 N1056 1.356 . S
C1059 C1053 1.363 . S
C1059 C1054 1.379 . S
C1059 N1057 1.356 . S
N1060 C1052 1.356 . S
N1060 H1066 0.984 . S
N1060 H1067 0.984 . S
N1061 C1054 1.356 . S
N1061 H1064 0.984 . S
N1061 H1065 0.985 . S
H1062 N1057 0.984 . S
H1063 N1057 0.985 . S
H1064 N1061 0.984 . S
H1065 N1061 0.985 . S
H1066 N1060 0.984 . S
H1067 N1060 0.984 . S
H1068 N1056 0.984 . S
H1069 N1056 0.985 . S
C1070 C1071 1.363 . S
C1070 C1076 1.379 . S
C1070 N1078 1.356 . S
C1071 C1070 1.363 . S
C1071 C1077 1.363 . S
C1072 C1073 1.363 . S
C1072 C1077 1.379 . S
C1072 N1079 1.356 . S
C1073 C1072 1.363 . S
C1073 C1076 1.363 . S
N1074 C1076 1.356 . S
N1074 H1086 0.984 . S
N1074 H1087 0.985 . S
N1075 C1077 1.356 . S
N1075 H1080 0.984 . S
N1075 H1081 0.985 . S
C1076 C1070 1.379 . S
C1076 C1073 1.363 . S
C1076 N1074 1.356 . S
C1077 C1071 1.363 . S
C1077 C1072 1.379 . S
C1077 N1075 1.356 . S
N1078 C1070 1.356 . S
N1078 H1084 0.984 . S
N1078 H1085 0.984 . S
N1079 C1072 1.356 . S
N1079 H1082 0.984 . S
N1079 H1083 0.985 . S
H1080 N1075 0.984 . S
H1081 N1075 0.985 . S
H1082 N1079 0.984 . S
H1083 N1079 0.985 . S
H1084 N1078 0.984 . S
H1085 N1078 0.984 . S
H1086 N1074 0.984 . S
H1087 N1074 0.985 . S
C1088 C1089 1.363 . S
C1088 C1094 1.379 . S
C1088 N1096 1.356 . S
C1089 C1088 1.363 . S
C1089 C1095 1.363 . S
C1090 C1091 1.363 . S
C1090 C1095 1.379 . S
C1090 N1097 1.356 . S
C1091 C1090 1.363 . S
C1091 C1094 1.363 . S
N1092 C1094 1.353 1_655 S
N1092 H1104 0.988 . S
N1092 H1105 0.985 . S
N1093 C1095 1.356 . S
N1093 H1098 0.984 . S
N1093 H1099 0.985 . S
C1094 C1088 1.379 . S
C1094 C1091 1.363 . S
C1094 N1092 1.353 1_455 S
C1095 C1089 1.363 . S
C1095 C1090 1.379 . S
C1095 N1093 1.356 . S
N1096 C1088 1.356 . S
N1096 H1102 0.986 1_455 S
N1096 H1103 0.984 . S
N1097 C1090 1.356 . S
N1097 H1100 0.984 . S
N1097 H1101 0.985 . S
H1098 N1093 0.984 . S
H1099 N1093 0.985 . S
H1100 N1097 0.984 . S
H1101 N1097 0.985 . S
H1102 N1096 0.986 1_655 S
H1103 N1096 0.984 . S
H1104 N1092 0.988 . S
H1105 N1092 0.985 . S
C1106 C1107 1.363 . S
C1106 C1112 1.379 . S
C1106 N1114 1.356 . S
C1107 C1106 1.363 . S
C1107 C1113 1.363 . S
C1108 C1109 1.363 . S
C1108 C1113 1.379 . S
C1108 N1115 1.356 . S
C1109 C1108 1.363 . S
C1109 C1112 1.363 . S
N1110 C1112 1.356 . S
N1110 H1122 0.984 . S
N1110 H1123 0.985 . S
N1111 C1113 1.356 . S
N1111 H1116 0.984 . S
N1111 H1117 0.985 . S
C1112 C1106 1.379 . S
C1112 C1109 1.363 . S
C1112 N1110 1.356 . S
C1113 C1107 1.363 . S
C1113 C1108 1.379 . S
C1113 N1111 1.356 . S
N1114 C1106 1.356 . S
N1114 H1120 0.984 . S
N1114 H1121 0.984 . S
N1115 C1108 1.356 . S
N1115 H1118 0.984 . S
N1115 H1119 0.985 . S
H1116 N1111 0.984 . S
H1117 N1111 0.985 . S
H1118 N1115 0.984 . S
H1119 N1115 0.985 . S
H1120 N1114 0.984 . S
H1121 N1114 0.984 . S
H1122 N1110 0.984 . S
H1123 N1110 0.985 . S
C1124 C1125 1.363 . S
C1124 C1130 1.379 . S
C1124 N1132 1.356 . S
C1125 C1124 1.363 . S
C1125 C1131 1.363 . S
C1126 C1127 1.363 . S
C1126 C1131 1.379 . S
C1126 N1133 1.356 . S
C1127 C1126 1.363 . S
C1127 C1130 1.363 . S
N1128 C1130 1.356 . S
N1128 H1140 0.984 . S
N1128 H1141 0.985 . S
N1129 C1131 1.356 . S
N1129 H1134 0.984 . S
N1129 H1135 0.985 . S
C1130 C1124 1.379 . S
C1130 C1127 1.363 . S
C1130 N1128 1.356 . S
C1131 C1125 1.363 . S
C1131 C1126 1.379 . S
C1131 N1129 1.356 . S
N1132 C1124 1.356 . S
N1132 H1138 0.984 . S
N1132 H1139 0.984 . S
N1133 C1126 1.356 . S
N1133 H1136 0.984 . S
N1133 H1137 0.985 . S
H1134 N1129 0.984 . S
H1135 N1129 0.985 . S
H1136 N1133 0.984 . S
H1137 N1133 0.985 . S
H1138 N1132 0.984 . S
H1139 N1132 0.984 . S
H1140 N1128 0.984 . S
H1141 N1128 0.985 . S
C1142 C1143 1.363 . S
C1142 C1148 1.379 . S
C1142 N1150 1.356 . S
C1143 C1142 1.363 . S
C1143 C1149 1.363 . S
C1144 C1145 1.363 . S
C1144 C1149 1.379 . S
C1144 N1151 1.356 . S
C1145 C1144 1.363 . S
C1145 C1148 1.363 . S
N1146 C1148 1.356 . S
N1146 H1158 0.984 . S
N1146 H1159 0.985 . S
N1147 C1149 1.356 . S
N1147 H1152 0.984 . S
N1147 H1153 0.985 . S
C1148 C1142 1.379 . S
C1148 C1145 1.363 . S
C1148 N1146 1.356 . S
C1149 C1143 1.363 . S
C1149 C1144 1.379 . S
C1149 N1147 1.356 . S
N1150 C1142 1.356 . S
N1150 H1156 0.984 . S
N1150 H1157 0.984 . S
N1151 C1144 1.356 . S
N1151 H1154 0.984 . S
N1151 H1155 0.985 . S
H1152 N1147 0.984 . S
H1153 N1147 0.985 . S
H1154 N1151 0.984 . S
H1155 N1151 0.985 . S
H1156 N1150 0.984 . S
H1157 N1150 0.984 . S
H1158 N1146 0.984 . S
H1159 N1146 0.985 . S
C1160 C1161 1.363 . S
C1160 C1166 1.379 . S
C1160 N1168 1.356 . S
C1161 C1160 1.363 . S
C1161 C1167 1.363 1_455 S
C1162 C1163 1.363 1_655 S
C1162 C1167 1.379 . S
C1162 N1169 1.356 . S
C1163 C1162 1.363 1_455 S
C1163 C1166 1.363 . S
N1164 C1166 1.356 . S
N1164 H1176 0.984 . S
N1164 H1177 0.985 . S
N1165 C1167 1.356 . S
N1165 H1170 0.984 . S
N1165 H1171 0.985 . S
C1166 C1160 1.379 . S
C1166 C1163 1.363 . S
C1166 N1164 1.356 . S
C1167 C1161 1.363 1_655 S
C1167 C1162 1.379 . S
C1167 N1165 1.356 . S
N1168 C1160 1.356 . S
N1168 H1174 0.984 . S
N1168 H1175 0.984 . S
N1169 C1162 1.356 . S
N1169 H1172 0.984 . S
N1169 H1173 0.985 . S
H1170 N1165 0.984 . S
H1171 N1165 0.985 . S
H1172 N1169 0.984 . S
H1173 N1169 0.985 . S
H1174 N1168 0.984 . S
H1175 N1168 0.984 . S
H1176 N1164 0.984 . S
H1177 N1164 0.985 . S
C1178 C1179 1.363 . S
C1178 C1184 1.379 . S
C1178 N1186 1.356 . S
C1179 C1178 1.363 . S
C1179 C1185 1.363 . S
C1180 C1181 1.363 . S
C1180 C1185 1.379 . S
C1180 N1187 1.356 . S
C1181 C1180 1.363 . S
C1181 C1184 1.363 . S
N1182 C1184 1.356 . S
N1182 H1194 0.984 . S
N1182 H1195 0.985 . S
N1183 C1185 1.356 . S
N1183 H1188 0.984 . S
N1183 H1189 0.985 . S
C1184 C1178 1.379 . S
C1184 C1181 1.363 . S
C1184 N1182 1.356 . S
C1185 C1179 1.363 . S
C1185 C1180 1.379 . S
C1185 N1183 1.356 . S
N1186 C1178 1.356 . S
N1186 H1192 0.984 . S
N1186 H1193 0.984 . S
N1187 C1180 1.356 . S
N1187 H1190 0.984 . S
N1187 H1191 0.985 . S
H1188 N1183 0.984 . S
H1189 N1183 0.985 . S
H1190 N1187 0.984 . S
H1191 N1187 0.985 . S
H1192 N1186 0.984 . S
H1193 N1186 0.984 . S
H1194 N1182 0.984 . S
H1195 N1182 0.985 . S
C1196 C1197 1.363 . S
C1196 C1202 1.379 . S
C1196 N1204 1.356 . S
C1197 C1196 1.363 . S
C1197 C1203 1.363 . S
C1198 C1199 1.363 . S
C1198 C1203 1.379 . S
C1198 N1205 1.356 1_556 S
C1199 C1198 1.363 . S
C1199 C1202 1.363 . S
N1200 C1202 1.356 . S
N1200 H1212 0.984 . S
N1200 H1213 0.985 . S
N1201 C1203 1.356 . S
N1201 H1206 0.984 . S
N1201 H1207 0.985 1_556 S
C1202 C1196 1.379 . S
C1202 C1199 1.363 . S
C1202 N1200 1.356 . S
C1203 C1197 1.363 . S
C1203 C1198 1.379 . S
C1203 N1201 1.356 . S
N1204 C1196 1.356 . S
N1204 H1210 0.984 . S
N1204 H1211 0.984 . S
N1205 C1198 1.356 1_554 S
N1205 H1208 0.984 . S
N1205 H1209 0.985 . S
H1206 N1201 0.984 . S
H1207 N1201 0.985 1_554 S
H1208 N1205 0.984 . S
H1209 N1205 0.985 . S
H1210 N1204 0.984 . S
H1211 N1204 0.984 . S
H1212 N1200 0.984 . S
H1213 N1200 0.985 . S
C1214 C1215 1.363 . S
C1214 C1220 1.379 . S
C1214 N1222 1.356 . S
C1215 C1214 1.363 . S
C1215 C1221 1.363 . S
C1216 C1217 1.363 . S
C1216 C1221 1.379 . S
C1216 N1223 1.356 . S
C1217 C1216 1.363 . S
C1217 C1220 1.363 . S
N1218 C1220 1.356 . S
N1218 H1230 0.984 . S
N1218 H1231 0.985 . S
N1219 C1221 1.356 . S
N1219 H1224 0.984 . S
N1219 H1225 0.985 . S
C1220 C1214 1.379 . S
C1220 C1217 1.363 . S
C1220 N1218 1.356 . S
C1221 C1215 1.363 . S
C1221 C1216 1.379 . S
C1221 N1219 1.356 . S
N1222 C1214 1.356 . S
N1222 H1228 0.984 . S
N1222 H1229 0.984 . S
N1223 C1216 1.356 . S
N1223 H1226 0.984 . S
N1223 H1227 0.985 . S
H1224 N1219 0.984 . S
H1225 N1219 0.985 . S
H1226 N1223 0.984 . S
H1227 N1223 0.985 . S
H1228 N1222 0.984 . S
H1229 N1222 0.984 . S
H1230 N1218 0.984 . S
H1231 N1218 0.985 . S
C1232 C1233 1.363 1_565 S
C1232 C1238 1.379 . S
C1232 N1240 1.356 . S
C1233 C1232 1.363 1_545 S
C1233 C1239 1.363 . S
C1234 C1235 1.363 . S
C1234 C1239 1.379 . S
C1234 N1241 1.356 . S
C1235 C1234 1.363 . S
C1235 C1238 1.363 1_545 S
N1236 C1238 1.356 . S
N1236 H1248 0.987 . S
N1236 H1249 0.985 . S
N1237 C1239 1.356 . S
N1237 H1242 0.984 . S
N1237 H1243 0.985 . S
C1238 C1232 1.379 . S
C1238 C1235 1.363 1_565 S
C1238 N1236 1.356 . S
C1239 C1233 1.363 . S
C1239 C1234 1.379 . S
C1239 N1237 1.356 . S
N1240 C1232 1.356 . S
N1240 H1246 0.984 . S
N1240 H1247 0.984 . S
N1241 C1234 1.356 . S
N1241 H1244 0.984 . S
N1241 H1245 0.985 . S
H1242 N1237 0.984 . S
H1243 N1237 0.985 . S
H1244 N1241 0.984 . S
H1245 N1241 0.985 . S
H1246 N1240 0.984 . S
H1247 N1240 0.984 . S
H1248 N1236 0.987 . S
H1249 N1236 0.985 . S
C1250 C1251 1.363 . S
C1250 C1256 1.379 . S
C1250 N1258 1.356 . S
C1251 C1250 1.363 . S
C1251 C1257 1.363 . S
C1252 C1253 1.363 . S
C1252 C1257 1.379 . S
C1252 N1259 1.356 . S
C1253 C1252 1.363 . S
C1253 C1256 1.363 . S
N1254 C1256 1.356 . S
N1254 H1266 0.984 . S
N1254 H1267 0.985 . S
N1255 C1257 1.356 . S
N1255 H1260 0.984 . S
N1255 H1261 0.985 . S
C1256 C1250 1.379 . S
C1256 C1253 1.363 . S
C1256 N1254 1.356 . S
C1257 C1251 1.363 . S
C1257 C1252 1.379 . S
C1257 N1255 1.356 . S
N1258 C1250 1.356 . S
N1258 H1264 0.984 . S
N1258 H1265 0.984 . S
N1259 C1252 1.356 . S
N1259 H1262 0.984 . S
N1259 H1263 0.985 . S
H1260 N1255 0.984 . S
H1261 N1255 0.985 . S
H1262 N1259 0.984 . S
H1263 N1259 0.985 . S
H1264 N1258 0.984 . S
H1265 N1258 0.984 . S
H1266 N1254 0.984 . S
H1267 N1254 0.985 . S
C1268 C1269 1.363 . S
C1268 C1274 1.379 . S
C1268 N1276 1.356 . S
C1269 C1268 1.363 . S
C1269 C1275 1.363 . S
C1270 C1271 1.363 . S
C1270 C1275 1.379 . S
C1270 N1277 1.356 1_545 S
C1271 C1270 1.363 . S
C1271 C1274 1.363 . S
N1272 C1274 1.356 . S
N1272 H1284 0.984 . S
N1272 H1285 0.985 . S
N1273 C1275 1.365 . S
N1273 H1278 1.002 . S
N1273 H1279 0.959 1_545 S
C1274 C1268 1.379 . S
C1274 C1271 1.363 . S
C1274 N1272 1.356 . S
C1275 C1269 1.363 . S
C1275 C1270 1.379 . S
C1275 N1273 1.365 . S
N1276 C1268 1.356 . S
N1276 H1282 0.984 . S
N1276 H1283 0.984 . S
N1277 C1270 1.356 1_565 S
N1277 H1280 0.984 . S
N1277 H1281 0.985 . S
H1278 N1273 1.002 . S
H1279 N1273 0.959 1_565 S
H1280 N1277 0.984 . S
H1281 N1277 0.985 . S
H1282 N1276 0.984 . S
H1283 N1276 0.984 . S
H1284 N1272 0.984 . S
H1285 N1272 0.985 . S
C1286 C1287 1.363 . S
C1286 C1292 1.379 . S
C1286 N1294 1.356 . S
C1287 C1286 1.363 . S
C1287 C1293 1.363 . S
C1288 C1289 1.363 . S
C1288 C1293 1.379 . S
C1288 N1295 1.356 . S
C1289 C1288 1.363 . S
C1289 C1292 1.363 . S
N1290 C1292 1.356 . S
N1290 H1302 0.984 . S
N1290 H1303 0.985 . S
N1291 C1293 1.356 . S
N1291 H1296 0.984 . S
N1291 H1297 0.985 . S
C1292 C1286 1.379 . S
C1292 C1289 1.363 . S
C1292 N1290 1.356 . S
C1293 C1287 1.363 . S
C1293 C1288 1.379 . S
C1293 N1291 1.356 . S
N1294 C1286 1.356 . S
N1294 H1300 0.984 . S
N1294 H1301 0.984 . S
N1295 C1288 1.356 . S
N1295 H1298 0.984 . S
N1295 H1299 0.985 . S
H1296 N1291 0.984 . S
H1297 N1291 0.985 . S
H1298 N1295 0.984 . S
H1299 N1295 0.985 . S
H1300 N1294 0.984 . S
H1301 N1294 0.984 . S
H1302 N1290 0.984 . S
H1303 N1290 0.985 . S
C1304 C1305 1.363 . S
C1304 C1310 1.379 1_565 S
C1304 N1312 1.356 . S
C1305 C1304 1.363 . S
C1305 C1311 1.363 1_565 S
C1306 C1307 1.363 . S
C1306 C1311 1.379 . S
C1306 N1313 1.356 . S
C1307 C1306 1.363 . S
C1307 C1310 1.363 . S
N1308 C1310 1.356 1_655 S
N1308 H1320 0.984 . S
N1308 H1321 0.985 . S
N1309 C1311 1.356 1_565 S
N1309 H1314 0.984 . S
N1309 H1315 0.985 . S
C1310 C1304 1.379 1_545 S
C1310 C1307 1.363 . S
C1310 N1308 1.356 1_455 S
C1311 C1305 1.363 1_545 S
C1311 C1306 1.379 . S
C1311 N1309 1.356 1_545 S
N1312 C1304 1.356 . S
N1312 H1318 0.984 . S
N1312 H1319 0.984 . S
N1313 C1306 1.356 . S
N1313 H1316 0.984 . S
N1313 H1317 0.985 . S
H1314 N1309 0.984 . S
H1315 N1309 0.985 . S
H1316 N1313 0.984 . S
H1317 N1313 0.985 . S
H1318 N1312 0.984 . S
H1319 N1312 0.984 . S
H1320 N1308 0.984 . S
H1321 N1308 0.985 . S
C1322 C1323 1.363 . S
C1322 C1328 1.379 . S
C1322 N1330 1.356 . S
C1323 C1322 1.363 . S
C1323 C1329 1.363 . S
C1324 C1325 1.363 . S
C1324 C1329 1.379 . S
C1324 N1331 1.356 . S
C1325 C1324 1.363 . S
C1325 C1328 1.363 . S
N1326 C1328 1.356 . S
N1326 H1338 0.984 . S
N1326 H1339 0.985 . S
N1327 C1329 1.356 . S
N1327 H1332 0.984 . S
N1327 H1333 0.985 . S
C1328 C1322 1.379 . S
C1328 C1325 1.363 . S
C1328 N1326 1.356 . S
C1329 C1323 1.363 . S
C1329 C1324 1.379 . S
C1329 N1327 1.356 . S
N1330 C1322 1.356 . S
N1330 H1336 0.984 . S
N1330 H1337 0.984 . S
N1331 C1324 1.356 . S
N1331 H1334 0.984 . S
N1331 H1335 0.985 . S
H1332 N1327 0.984 . S
H1333 N1327 0.985 . S
H1334 N1331 0.984 . S
H1335 N1331 0.985 . S
H1336 N1330 0.984 . S
H1337 N1330 0.984 . S
H1338 N1326 0.984 . S
H1339 N1326 0.985 . S
C1340 C1341 1.363 . S
C1340 C1346 1.379 . S
C1340 N1348 1.356 . S
C1341 C1340 1.363 . S
C1341 C1347 1.363 . S
C1342 C1343 1.363 . S
C1342 C1347 1.379 . S
C1342 N1349 1.356 1_545 S
C1343 C1342 1.363 . S
C1343 C1346 1.363 . S
N1344 C1346 1.356 . S
N1344 H1356 0.984 . S
N1344 H1357 0.985 . S
N1345 C1347 1.356 1_565 S
N1345 H1350 0.984 1_565 S
N1345 H1351 0.985 . S
C1346 C1340 1.379 . S
C1346 C1343 1.363 . S
C1346 N1344 1.356 . S
C1347 C1341 1.363 . S
C1347 C1342 1.379 . S
C1347 N1345 1.356 1_545 S
N1348 C1340 1.356 . S
N1348 H1354 0.984 . S
N1348 H1355 0.984 . S
N1349 C1342 1.356 1_565 S
N1349 H1352 0.984 . S
N1349 H1353 0.985 . S
H1350 N1345 0.984 1_545 S
H1351 N1345 0.985 . S
H1352 N1349 0.984 . S
H1353 N1349 0.985 . S
H1354 N1348 0.984 . S
H1355 N1348 0.984 . S
H1356 N1344 0.984 . S
H1357 N1344 0.985 . S
C1358 C1359 1.363 . S
C1358 C1364 1.379 . S
C1358 N1366 1.356 . S
C1359 C1358 1.363 . S
C1359 C1365 1.363 . S
C1360 C1361 1.363 . S
C1360 C1365 1.379 . S
C1360 N1367 1.356 . S
C1361 C1360 1.363 . S
C1361 C1364 1.363 . S
N1362 C1364 1.356 . S
N1362 H1374 0.984 . S
N1362 H1375 0.985 . S
N1363 C1365 1.356 . S
N1363 H1368 0.984 . S
N1363 H1369 0.985 . S
C1364 C1358 1.379 . S
C1364 C1361 1.363 . S
C1364 N1362 1.356 . S
C1365 C1359 1.363 . S
C1365 C1360 1.379 . S
C1365 N1363 1.356 . S
N1366 C1358 1.356 . S
N1366 H1372 0.984 . S
N1366 H1373 0.984 . S
N1367 C1360 1.356 . S
N1367 H1370 0.984 . S
N1367 H1371 0.985 . S
H1368 N1363 0.984 . S
H1369 N1363 0.985 . S
H1370 N1367 0.984 . S
H1371 N1367 0.985 . S
H1372 N1366 0.984 . S
H1373 N1366 0.984 . S
H1374 N1362 0.984 . S
H1375 N1362 0.985 . S
C1376 C1377 1.363 1_556 S
C1376 C1382 1.379 . S
C1376 N1384 1.356 . S
C1377 C1376 1.363 1_554 S
C1377 C1383 1.363 . S
C1378 C1379 1.363 . S
C1378 C1383 1.379 . S
C1378 N1385 1.356 . S
C1379 C1378 1.363 . S
C1379 C1382 1.363 1_554 S
N1380 C1382 1.356 . S
N1380 H1392 0.984 . S
N1380 H1393 0.985 . S
N1381 C1383 1.356 . S
N1381 H1386 0.984 . S
N1381 H1387 0.985 . S
C1382 C1376 1.379 . S
C1382 C1379 1.363 1_556 S
C1382 N1380 1.356 . S
C1383 C1377 1.363 . S
C1383 C1378 1.379 . S
C1383 N1381 1.356 . S
N1384 C1376 1.356 . S
N1384 H1390 0.984 . S
N1384 H1391 0.984 . S
N1385 C1378 1.356 . S
N1385 H1388 0.984 . S
N1385 H1389 0.985 . S
H1386 N1381 0.984 . S
H1387 N1381 0.985 . S
H1388 N1385 0.984 . S
H1389 N1385 0.985 . S
H1390 N1384 0.984 . S
H1391 N1384 0.984 . S
H1392 N1380 0.984 . S
H1393 N1380 0.985 . S
C1394 C1395 1.363 . S
C1394 C1400 1.379 . S
C1394 N1402 1.356 . S
C1395 C1394 1.363 . S
C1395 C1401 1.363 . S
C1396 C1397 1.363 . S
C1396 C1401 1.379 . S
C1396 N1403 1.356 . S
C1397 C1396 1.363 . S
C1397 C1400 1.363 . S
N1398 C1400 1.356 . S
N1398 H1410 0.984 1_554 S
N1398 H1411 0.985 . S
N1399 C1401 1.356 . S
N1399 H1404 0.984 . S
N1399 H1405 0.985 . S
C1400 C1394 1.379 . S
C1400 C1397 1.363 . S
C1400 N1398 1.356 . S
C1401 C1395 1.363 . S
C1401 C1396 1.379 . S
C1401 N1399 1.356 . S
N1402 C1394 1.356 . S
N1402 H1408 0.984 1_554 S
N1402 H1409 0.984 . S
N1403 C1396 1.356 . S
N1403 H1406 0.984 . S
N1403 H1407 0.985 . S
H1404 N1399 0.984 . S
H1405 N1399 0.985 . S
H1406 N1403 0.984 . S
H1407 N1403 0.985 . S
H1408 N1402 0.984 1_556 S
H1409 N1402 0.984 . S
H1410 N1398 0.984 1_556 S
H1411 N1398 0.985 . S
C1412 C1413 1.363 . S
C1412 C1418 1.379 . S
C1412 N1420 1.356 . S
C1413 C1412 1.363 . S
C1413 C1419 1.363 . S
C1414 C1415 1.363 . S
C1414 C1419 1.379 . S
C1414 N1421 1.356 . S
C1415 C1414 1.363 . S
C1415 C1418 1.363 . S
N1416 C1418 1.356 . S
N1416 H1428 0.984 . S
N1416 H1429 0.985 . S
N1417 C1419 1.356 . S
N1417 H1422 0.984 . S
N1417 H1423 0.985 . S
C1418 C1412 1.379 . S
C1418 C1415 1.363 . S
C1418 N1416 1.356 . S
C1419 C1413 1.363 . S
C1419 C1414 1.379 . S
C1419 N1417 1.356 . S
N1420 C1412 1.356 . S
N1420 H1426 0.984 . S
N1420 H1427 0.984 . S
N1421 C1414 1.356 . S
N1421 H1424 0.984 . S
N1421 H1425 0.985 . S
H1422 N1417 0.984 . S
H1423 N1417 0.985 . S
H1424 N1421 0.984 . S
H1425 N1421 0.985 . S
H1426 N1420 0.984 . S
H1427 N1420 0.984 . S
H1428 N1416 0.984 . S
H1429 N1416 0.985 . S
C1430 C1431 1.363 . S
C1430 C1436 1.379 . S
C1430 N1438 1.356 . S
C1431 C1430 1.363 . S
C1431 C1437 1.363 . S
C1432 C1433 1.363 . S
C1432 C1437 1.379 . S
C1432 N1439 1.356 . S
C1433 C1432 1.363 . S
C1433 C1436 1.363 . S
N1434 C1436 1.356 . S
N1434 H1446 0.984 . S
N1434 H1447 0.985 . S
N1435 C1437 1.356 . S
N1435 H1440 0.984 . S
N1435 H1441 0.985 . S
C1436 C1430 1.379 . S
C1436 C1433 1.363 . S
C1436 N1434 1.356 . S
C1437 C1431 1.363 . S
C1437 C1432 1.379 . S
C1437 N1435 1.356 . S
N1438 C1430 1.356 . S
N1438 H1444 0.984 . S
N1438 H1445 0.984 . S
N1439 C1432 1.356 . S
N1439 H1442 0.984 . S
N1439 H1443 0.985 . S
H1440 N1435 0.984 . S
H1441 N1435 0.985 . S
H1442 N1439 0.984 . S
H1443 N1439 0.985 . S
H1444 N1438 0.984 . S
H1445 N1438 0.984 . S
H1446 N1434 0.984 . S
H1447 N1434 0.985 . S
C1448 C1449 1.363 . S
C1448 C1454 1.379 . S
C1448 N1456 1.356 . S
C1449 C1448 1.363 . S
C1449 C1455 1.363 . S
C1450 C1451 1.363 . S
C1450 C1455 1.379 . S
C1450 N1457 1.356 . S
C1451 C1450 1.363 . S
C1451 C1454 1.363 . S
N1452 C1454 1.356 . S
N1452 H1464 0.984 . S
N1452 H1465 0.985 . S
N1453 C1455 1.356 . S
N1453 H1458 0.984 . S
N1453 H1459 0.985 . S
C1454 C1448 1.379 . S
C1454 C1451 1.363 . S
C1454 N1452 1.356 . S
C1455 C1449 1.363 . S
C1455 C1450 1.379 . S
C1455 N1453 1.356 . S
N1456 C1448 1.356 . S
N1456 H1462 0.984 . S
N1456 H1463 0.984 . S
N1457 C1450 1.356 . S
N1457 H1460 0.984 . S
N1457 H1461 0.985 . S
H1458 N1453 0.984 . S
H1459 N1453 0.985 . S
H1460 N1457 0.984 . S
H1461 N1457 0.985 . S
H1462 N1456 0.984 . S
H1463 N1456 0.984 . S
H1464 N1452 0.984 . S
H1465 N1452 0.985 . S
C1466 C1467 1.363 . S
C1466 C1472 1.379 . S
C1466 N1474 1.356 . S
C1467 C1466 1.363 . S
C1467 C1473 1.363 . S
C1468 C1469 1.363 . S
C1468 C1473 1.379 . S
C1468 N1475 1.356 . S
C1469 C1468 1.363 . S
C1469 C1472 1.363 . S
N1470 C1472 1.356 . S
N1470 H1482 0.984 . S
N1470 H1483 0.985 . S
N1471 C1473 1.356 . S
N1471 H1476 0.984 . S
N1471 H1477 0.985 . S
C1472 C1466 1.379 . S
C1472 C1469 1.363 . S
C1472 N1470 1.356 . S
C1473 C1467 1.363 . S
C1473 C1468 1.379 . S
C1473 N1471 1.356 . S
N1474 C1466 1.356 . S
N1474 H1480 0.984 . S
N1474 H1481 0.984 . S
N1475 C1468 1.356 . S
N1475 H1478 0.984 . S
N1475 H1479 0.985 . S
H1476 N1471 0.984 . S
H1477 N1471 0.985 . S
H1478 N1475 0.984 . S
H1479 N1475 0.985 . S
H1480 N1474 0.984 . S
H1481 N1474 0.984 . S
H1482 N1470 0.984 . S
H1483 N1470 0.985 . S
C1484 C1485 1.363 . S
C1484 C1490 1.379 . S
C1484 N1492 1.356 . S
C1485 C1484 1.363 . S
C1485 C1491 1.363 . S
C1486 C1487 1.363 . S
C1486 C1491 1.379 . S
C1486 N1493 1.356 . S
C1487 C1486 1.363 . S
C1487 C1490 1.363 . S
N1488 C1490 1.356 . S
N1488 H1500 0.984 . S
N1488 H1501 0.985 . S
N1489 C1491 1.356 . S
N1489 H1494 0.984 . S
N1489 H1495 0.985 . S
C1490 C1484 1.379 . S
C1490 C1487 1.363 . S
C1490 N1488 1.356 . S
C1491 C1485 1.363 . S
C1491 C1486 1.379 . S
C1491 N1489 1.356 . S
N1492 C1484 1.356 . S
N1492 H1498 0.984 . S
N1492 H1499 0.984 . S
N1493 C1486 1.356 . S
N1493 H1496 0.984 . S
N1493 H1497 0.985 . S
H1494 N1489 0.984 . S
H1495 N1489 0.985 . S
H1496 N1493 0.984 . S
H1497 N1493 0.985 . S
H1498 N1492 0.984 . S
H1499 N1492 0.984 . S
H1500 N1488 0.984 . S
H1501 N1488 0.985 . S
C1502 C1503 1.363 . S
C1502 C1508 1.379 . S
C1502 N1510 1.356 . S
C1503 C1502 1.363 . S
C1503 C1509 1.363 . S
C1504 C1505 1.363 . S
C1504 C1509 1.379 . S
C1504 N1511 1.356 . S
C1505 C1504 1.363 . S
C1505 C1508 1.363 . S
N1506 C1508 1.356 . S
N1506 H1518 0.984 . S
N1506 H1519 0.985 . S
N1507 C1509 1.356 . S
N1507 H1512 0.984 . S
N1507 H1513 0.985 . S
C1508 C1502 1.379 . S
C1508 C1505 1.363 . S
C1508 N1506 1.356 . S
C1509 C1503 1.363 . S
C1509 C1504 1.379 . S
C1509 N1507 1.356 . S
N1510 C1502 1.356 . S
N1510 H1516 0.984 . S
N1510 H1517 0.984 . S
N1511 C1504 1.356 . S
N1511 H1514 0.984 . S
N1511 H1515 0.985 . S
H1512 N1507 0.984 . S
H1513 N1507 0.985 . S
H1514 N1511 0.984 . S
H1515 N1511 0.985 . S
H1516 N1510 0.984 . S
H1517 N1510 0.984 . S
H1518 N1506 0.984 . S
H1519 N1506 0.985 . S
C1520 C1521 1.363 . S
C1520 C1526 1.379 . S
C1520 N1528 1.356 . S
C1521 C1520 1.363 . S
C1521 C1527 1.363 . S
C1522 C1523 1.363 . S
C1522 C1527 1.379 . S
C1522 N1529 1.356 . S
C1523 C1522 1.363 . S
C1523 C1526 1.363 . S
N1524 C1526 1.356 . S
N1524 H1536 0.984 . S
N1524 H1537 0.985 . S
N1525 C1527 1.356 . S
N1525 H1530 0.984 . S
N1525 H1531 0.985 . S
C1526 C1520 1.379 . S
C1526 C1523 1.363 . S
C1526 N1524 1.356 . S
C1527 C1521 1.363 . S
C1527 C1522 1.379 . S
C1527 N1525 1.356 . S
N1528 C1520 1.356 . S
N1528 H1534 0.984 . S
N1528 H1535 0.984 . S
N1529 C1522 1.356 . S
N1529 H1532 0.984 . S
N1529 H1533 0.985 . S
H1530 N1525 0.984 . S
H1531 N1525 0.985 . S
H1532 N1529 0.984 . S
H1533 N1529 0.985 . S
H1534 N1528 0.984 . S
H1535 N1528 0.984 . S
H1536 N1524 0.984 . S
H1537 N1524 0.985 . S
C1538 C1539 1.363 . S
C1538 C1544 1.379 . S
C1538 N1546 1.356 . S
C1539 C1538 1.363 . S
C1539 C1545 1.363 . S
C1540 C1541 1.363 . S
C1540 C1545 1.379 . S
C1540 N1547 1.356 . S
C1541 C1540 1.363 . S
C1541 C1544 1.363 . S
N1542 C1544 1.356 . S
N1542 H1554 0.984 . S
N1542 H1555 0.985 . S
N1543 C1545 1.356 . S
N1543 H1548 0.984 . S
N1543 H1549 0.985 . S
C1544 C1538 1.379 . S
C1544 C1541 1.363 . S
C1544 N1542 1.356 . S
C1545 C1539 1.363 . S
C1545 C1540 1.379 . S
C1545 N1543 1.356 . S
N1546 C1538 1.356 . S
N1546 H1552 0.984 . S
N1546 H1553 0.984 . S
N1547 C1540 1.356 . S
N1547 H1550 0.984 . S
N1547 H1551 0.985 . S
H1548 N1543 0.984 . S
H1549 N1543 0.985 . S
H1550 N1547 0.984 . S
H1551 N1547 0.985 . S
H1552 N1546 0.984 . S
H1553 N1546 0.984 . S
H1554 N1542 0.984 . S
H1555 N1542 0.985 . S
C1556 C1557 1.363 . S
C1556 C1562 1.379 . S
C1556 N1564 1.356 . S
C1557 C1556 1.363 . S
C1557 C1563 1.363 1_455 S
C1558 C1559 1.363 1_655 S
C1558 C1563 1.379 . S
C1558 N1565 1.356 . S
C1559 C1558 1.363 1_455 S
C1559 C1562 1.363 . S
N1560 C1562 1.356 1_554 S
N1560 H1572 0.984 . S
N1560 H1573 0.985 . S
N1561 C1563 1.356 . S
N1561 H1566 0.984 . S
N1561 H1567 0.985 . S
C1562 C1556 1.379 . S
C1562 C1559 1.363 . S
C1562 N1560 1.356 1_556 S
C1563 C1557 1.363 1_655 S
C1563 C1558 1.379 . S
C1563 N1561 1.356 . S
N1564 C1556 1.356 . S
N1564 H1570 0.984 . S
N1564 H1571 0.984 . S
N1565 C1558 1.356 . S
N1565 H1568 0.984 . S
N1565 H1569 0.985 . S
H1566 N1561 0.984 . S
H1567 N1561 0.985 . S
H1568 N1565 0.984 . S
H1569 N1565 0.985 . S
H1570 N1564 0.984 . S
H1571 N1564 0.984 . S
H1572 N1560 0.984 . S
H1573 N1560 0.985 . S
C1574 C1575 1.363 . S
C1574 C1580 1.379 . S
C1574 N1582 1.356 . S
C1575 C1574 1.363 . S
C1575 C1581 1.363 . S
C1576 C1577 1.363 . S
C1576 C1581 1.379 . S
C1576 N1583 1.356 . S
C1577 C1576 1.363 . S
C1577 C1580 1.363 . S
N1578 C1580 1.356 . S
N1578 H1590 0.984 . S
N1578 H1591 0.985 . S
N1579 C1581 1.356 . S
N1579 H1584 0.984 . S
N1579 H1585 0.985 . S
C1580 C1574 1.379 . S
C1580 C1577 1.363 . S
C1580 N1578 1.356 . S
C1581 C1575 1.363 . S
C1581 C1576 1.379 . S
C1581 N1579 1.356 . S
N1582 C1574 1.356 . S
N1582 H1588 0.984 . S
N1582 H1589 0.984 . S
N1583 C1576 1.356 . S
N1583 H1586 0.984 . S
N1583 H1587 0.985 . S
H1584 N1579 0.984 . S
H1585 N1579 0.985 . S
H1586 N1583 0.984 . S
H1587 N1583 0.985 . S
H1588 N1582 0.984 . S
H1589 N1582 0.984 . S
H1590 N1578 0.984 . S
H1591 N1578 0.985 . S
C1592 C1593 1.363 . S
C1592 C1598 1.379 . S
C1592 N1600 1.356 . S
C1593 C1592 1.363 . S
C1593 C1599 1.363 . S
C1594 C1595 1.363 . S
C1594 C1599 1.379 . S
C1594 N1601 1.356 . S
C1595 C1594 1.363 . S
C1595 C1598 1.363 . S
N1596 C1598 1.356 . S
N1596 H1608 0.984 . S
N1596 H1609 0.985 . S
N1597 C1599 1.356 . S
N1597 H1602 0.984 . S
N1597 H1603 0.985 . S
C1598 C1592 1.379 . S
C1598 C1595 1.363 . S
C1598 N1596 1.356 . S
C1599 C1593 1.363 . S
C1599 C1594 1.379 . S
C1599 N1597 1.356 . S
N1600 C1592 1.356 . S
N1600 H1606 0.984 . S
N1600 H1607 0.984 . S
N1601 C1594 1.356 . S
N1601 H1604 0.984 . S
N1601 H1605 0.985 1_554 S
H1602 N1597 0.984 . S
H1603 N1597 0.985 . S
H1604 N1601 0.984 . S
H1605 N1601 0.985 1_556 S
H1606 N1600 0.984 . S
H1607 N1600 0.984 . S
H1608 N1596 0.984 . S
H1609 N1596 0.985 . S
C1610 C1611 1.363 . S
C1610 C1616 1.379 . S
C1610 N1618 1.356 . S
C1611 C1610 1.363 . S
C1611 C1617 1.363 . S
C1612 C1613 1.363 . S
C1612 C1617 1.379 . S
C1612 N1619 1.356 . S
C1613 C1612 1.363 . S
C1613 C1616 1.363 . S
N1614 C1616 1.356 . S
N1614 H1626 0.984 . S
N1614 H1627 0.985 . S
N1615 C1617 1.356 . S
N1615 H1620 0.984 . S
N1615 H1621 0.985 . S
C1616 C1610 1.379 . S
C1616 C1613 1.363 . S
C1616 N1614 1.356 . S
C1617 C1611 1.363 . S
C1617 C1612 1.379 . S
C1617 N1615 1.356 . S
N1618 C1610 1.356 . S
N1618 H1624 0.984 . S
N1618 H1625 0.984 . S
N1619 C1612 1.356 . S
N1619 H1622 0.984 . S
N1619 H1623 0.985 . S
H1620 N1615 0.984 . S
H1621 N1615 0.985 . S
H1622 N1619 0.984 . S
H1623 N1619 0.985 . S
H1624 N1618 0.984 . S
H1625 N1618 0.984 . S
H1626 N1614 0.984 . S
H1627 N1614 0.985 . S
C1628 C1629 1.363 1_455 S
C1628 C1634 1.379 . S
C1628 N1636 1.356 . S
C1629 C1628 1.363 1_655 S
C1629 C1635 1.363 . S
C1630 C1631 1.363 . S
C1630 C1635 1.379 . S
C1630 N1637 1.356 . S
C1631 C1630 1.363 . S
C1631 C1634 1.363 1_655 S
N1632 C1634 1.356 . S
N1632 H1644 0.984 . S
N1632 H1645 0.985 . S
N1633 C1635 1.356 . S
N1633 H1638 0.984 . S
N1633 H1639 0.985 . S
C1634 C1628 1.379 . S
C1634 C1631 1.363 1_455 S
C1634 N1632 1.356 . S
C1635 C1629 1.363 . S
C1635 C1630 1.379 . S
C1635 N1633 1.356 . S
N1636 C1628 1.356 . S
N1636 H1642 0.984 . S
N1636 H1643 0.984 . S
N1637 C1630 1.356 . S
N1637 H1640 0.984 . S
N1637 H1641 0.985 . S
H1638 N1633 0.984 . S
H1639 N1633 0.985 . S
H1640 N1637 0.984 . S
H1641 N1637 0.985 . S
H1642 N1636 0.984 . S
H1643 N1636 0.984 . S
H1644 N1632 0.984 . S
H1645 N1632 0.985 . S
C1646 C1647 1.363 . S
C1646 C1652 1.379 . S
C1646 N1654 1.356 . S
C1647 C1646 1.363 . S
C1647 C1653 1.363 . S
C1648 C1649 1.363 . S
C1648 C1653 1.379 . S
C1648 N1655 1.356 . S
C1649 C1648 1.363 . S
C1649 C1652 1.363 . S
N1650 C1652 1.356 . S
N1650 H1662 0.984 . S
N1650 H1663 0.985 . S
N1651 C1653 1.356 . S
N1651 H1656 0.984 . S
N1651 H1657 0.985 . S
C1652 C1646 1.379 . S
C1652 C1649 1.363 . S
C1652 N1650 1.356 . S
C1653 C1647 1.363 . S
C1653 C1648 1.379 . S
C1653 N1651 1.356 . S
N1654 C1646 1.356 . S
N1654 H1660 0.984 . S
N1654 H1661 0.984 . S
N1655 C1648 1.356 . S
N1655 H1658 0.984 . S
N1655 H1659 0.985 . S
H1656 N1651 0.984 . S
H1657 N1651 0.985 . S
H1658 N1655 0.984 . S
H1659 N1655 0.985 . S
H1660 N1654 0.984 . S
H1661 N1654 0.984 . S
H1662 N1650 0.984 . S
H1663 N1650 0.985 . S
C1664 C1665 1.363 . S
C1664 C1670 1.379 . S
C1664 N1672 1.356 . S
C1665 C1664 1.363 . S
C1665 C1671 1.363 . S
C1666 C1667 1.363 . S
C1666 C1671 1.379 . S
C1666 N1673 1.356 . S
C1667 C1666 1.363 . S
C1667 C1670 1.363 . S
N1668 C1670 1.356 . S
N1668 H1680 0.984 . S
N1668 H1681 0.985 . S
N1669 C1671 1.356 . S
N1669 H1674 0.984 . S
N1669 H1675 0.985 . S
C1670 C1664 1.379 . S
C1670 C1667 1.363 . S
C1670 N1668 1.356 . S
C1671 C1665 1.363 . S
C1671 C1666 1.379 . S
C1671 N1669 1.356 . S
N1672 C1664 1.356 . S
N1672 H1678 0.984 . S
N1672 H1679 0.984 . S
N1673 C1666 1.356 . S
N1673 H1676 0.984 . S
N1673 H1677 0.985 . S
H1674 N1669 0.984 . S
H1675 N1669 0.985 . S
H1676 N1673 0.984 . S
H1677 N1673 0.985 . S
H1678 N1672 0.984 . S
H1679 N1672 0.984 . S
H1680 N1668 0.984 . S
H1681 N1668 0.985 . S
C1682 C1683 1.363 . S
C1682 C1688 1.379 . S
C1682 N1690 1.356 . S
C1683 C1682 1.363 . S
C1683 C1689 1.363 . S
C1684 C1685 1.363 . S
C1684 C1689 1.379 . S
C1684 N1691 1.356 . S
C1685 C1684 1.363 . S
C1685 C1688 1.363 . S
N1686 C1688 1.356 . S
N1686 H1698 0.984 . S
N1686 H1699 0.985 . S
N1687 C1689 1.356 . S
N1687 H1692 0.984 . S
N1687 H1693 0.985 . S
C1688 C1682 1.379 . S
C1688 C1685 1.363 . S
C1688 N1686 1.356 . S
C1689 C1683 1.363 . S
C1689 C1684 1.379 . S
C1689 N1687 1.356 . S
N1690 C1682 1.356 . S
N1690 H1696 0.984 . S
N1690 H1697 0.984 . S
N1691 C1684 1.356 . S
N1691 H1694 0.984 . S
N1691 H1695 0.985 . S
H1692 N1687 0.984 . S
H1693 N1687 0.985 . S
H1694 N1691 0.984 . S
H1695 N1691 0.985 . S
H1696 N1690 0.984 . S
H1697 N1690 0.984 . S
H1698 N1686 0.984 . S
H1699 N1686 0.985 . S
C1700 C1701 1.363 . S
C1700 C1706 1.379 . S
C1700 N1708 1.356 . S
C1701 C1700 1.363 . S
C1701 C1707 1.363 . S
C1702 C1703 1.363 . S
C1702 C1707 1.379 . S
C1702 N1709 1.356 . S
C1703 C1702 1.363 . S
C1703 C1706 1.363 . S
N1704 C1706 1.356 1_655 S
N1704 H1716 0.984 . S
N1704 H1717 0.985 . S
N1705 C1707 1.356 . S
N1705 H1710 0.984 . S
N1705 H1711 0.985 . S
C1706 C1700 1.379 . S
C1706 C1703 1.363 . S
C1706 N1704 1.356 1_455 S
C1707 C1701 1.363 . S
C1707 C1702 1.379 . S
C1707 N1705 1.356 . S
N1708 C1700 1.356 . S
N1708 H1714 0.984 . S
N1708 H1715 0.984 . S
N1709 C1702 1.356 . S
N1709 H1712 0.984 . S
N1709 H1713 0.985 . S
H1710 N1705 0.984 . S
H1711 N1705 0.985 . S
H1712 N1709 0.984 . S
H1713 N1709 0.985 . S
H1714 N1708 0.984 . S
H1715 N1708 0.984 . S
H1716 N1704 0.984 . S
H1717 N1704 0.985 . S
C1718 C1719 1.363 . S
C1718 C1724 1.379 . S
C1718 N1726 1.356 . S
C1719 C1718 1.363 . S
C1719 C1725 1.363 . S
C1720 C1721 1.363 . S
C1720 C1725 1.379 . S
C1720 N1727 1.356 . S
C1721 C1720 1.363 . S
C1721 C1724 1.363 . S
N1722 C1724 1.356 . S
N1722 H1734 0.984 . S
N1722 H1735 0.985 . S
N1723 C1725 1.356 . S
N1723 H1728 0.984 . S
N1723 H1729 0.985 . S
C1724 C1718 1.379 . S
C1724 C1721 1.363 . S
C1724 N1722 1.356 . S
C1725 C1719 1.363 . S
C1725 C1720 1.379 . S
C1725 N1723 1.356 . S
N1726 C1718 1.356 . S
N1726 H1732 0.984 . S
N1726 H1733 0.984 . S
N1727 C1720 1.356 . S
N1727 H1730 0.984 . S
N1727 H1731 0.985 . S
H1728 N1723 0.984 . S
H1729 N1723 0.985 . S
H1730 N1727 0.984 . S
H1731 N1727 0.985 . S
H1732 N1726 0.984 . S
H1733 N1726 0.984 . S
H1734 N1722 0.984 . S
H1735 N1722 0.985 . S
C1736 C1737 1.363 . S
C1736 C1742 1.379 . S
C1736 N1744 1.356 . S
C1737 C1736 1.363 . S
C1737 C1743 1.363 . S
C1738 C1739 1.363 . S
C1738 C1743 1.379 . S
C1738 N1745 1.356 . S
C1739 C1738 1.363 . S
C1739 C1742 1.363 . S
N1740 C1742 1.356 . S
N1740 H1752 0.984 . S
N1740 H1753 0.985 . S
N1741 C1743 1.356 . S
N1741 H1746 0.984 . S
N1741 H1747 0.985 . S
C1742 C1736 1.379 . S
C1742 C1739 1.363 . S
C1742 N1740 1.356 . S
C1743 C1737 1.363 . S
C1743 C1738 1.379 . S
C1743 N1741 1.356 . S
N1744 C1736 1.356 . S
N1744 H1750 0.984 . S
N1744 H1751 0.984 . S
N1745 C1738 1.356 . S
N1745 H1748 0.984 . S
N1745 H1749 0.985 . S
H1746 N1741 0.984 . S
H1747 N1741 0.985 . S
H1748 N1745 0.984 . S
H1749 N1745 0.985 . S
H1750 N1744 0.984 . S
H1751 N1744 0.984 . S
H1752 N1740 0.984 . S
H1753 N1740 0.985 . S
C1754 C1755 1.363 . S
C1754 C1760 1.379 . S
C1754 N1762 1.356 . S
C1755 C1754 1.363 . S
C1755 C1761 1.363 . S
C1756 C1757 1.363 . S
C1756 C1761 1.379 . S
C1756 N1763 1.356 . S
C1757 C1756 1.363 . S
C1757 C1760 1.363 . S
N1758 C1760 1.356 . S
N1758 H1770 0.984 . S
N1758 H1771 0.985 . S
N1759 C1761 1.356 . S
N1759 H1764 0.984 . S
N1759 H1765 0.985 . S
C1760 C1754 1.379 . S
C1760 C1757 1.363 . S
C1760 N1758 1.356 . S
C1761 C1755 1.363 . S
C1761 C1756 1.379 . S
C1761 N1759 1.356 . S
N1762 C1754 1.356 . S
N1762 H1768 0.984 . S
N1762 H1769 0.984 . S
N1763 C1756 1.356 . S
N1763 H1766 0.984 . S
N1763 H1767 0.985 . S
H1764 N1759 0.984 . S
H1765 N1759 0.985 . S
H1766 N1763 0.984 . S
H1767 N1763 0.985 . S
H1768 N1762 0.984 . S
H1769 N1762 0.984 . S
H1770 N1758 0.984 . S
H1771 N1758 0.985 . S
C1772 C1773 1.363 . S
C1772 C1778 1.379 . S
C1772 N1780 1.356 . S
C1773 C1772 1.363 . S
C1773 C1779 1.363 . S
C1774 C1775 1.363 . S
C1774 C1779 1.379 . S
C1774 N1781 1.356 . S
C1775 C1774 1.363 . S
C1775 C1778 1.363 . S
N1776 C1778 1.371 . S
N1776 H1788 0.974 1_455 S
N1776 H1789 0.980 1_455 S
N1777 C1779 1.356 . S
N1777 H1782 0.984 . S
N1777 H1783 0.985 . S
C1778 C1772 1.379 . S
C1778 C1775 1.363 . S
C1778 N1776 1.371 . S
C1779 C1773 1.363 . S
C1779 C1774 1.379 . S
C1779 N1777 1.356 . S
N1780 C1772 1.356 . S
N1780 H1786 0.984 . S
N1780 H1787 0.984 . S
N1781 C1774 1.356 . S
N1781 H1784 0.984 . S
N1781 H1785 0.985 . S
H1782 N1777 0.984 . S
H1783 N1777 0.985 . S
H1784 N1781 0.984 . S
H1785 N1781 0.985 . S
H1786 N1780 0.984 . S
H1787 N1780 0.984 . S
H1788 N1776 0.974 1_655 S
H1789 N1776 0.980 1_655 S
C1790 C1791 1.363 . S
C1790 C1796 1.379 . S
C1790 N1798 1.356 . S
C1791 C1790 1.363 . S
C1791 C1797 1.363 . S
C1792 C1793 1.363 . S
C1792 C1797 1.379 . S
C1792 N1799 1.356 . S
C1793 C1792 1.363 . S
C1793 C1796 1.363 . S
N1794 C1796 1.356 . S
N1794 H1806 0.984 . S
N1794 H1807 0.985 . S
N1795 C1797 1.356 . S
N1795 H1800 0.984 . S
N1795 H1801 0.985 . S
C1796 C1790 1.379 . S
C1796 C1793 1.363 . S
C1796 N1794 1.356 . S
C1797 C1791 1.363 . S
C1797 C1792 1.379 . S
C1797 N1795 1.356 . S
N1798 C1790 1.356 . S
N1798 H1804 0.984 . S
N1798 H1805 0.984 . S
N1799 C1792 1.356 . S
N1799 H1802 0.984 . S
N1799 H1803 0.985 . S
H1800 N1795 0.984 . S
H1801 N1795 0.985 . S
H1802 N1799 0.984 . S
H1803 N1799 0.985 . S
H1804 N1798 0.984 . S
H1805 N1798 0.984 . S
H1806 N1794 0.984 . S
H1807 N1794 0.985 . S
C1808 C1809 1.363 . S
C1808 C1814 1.379 . S
C1808 N1816 1.356 . S
C1809 C1808 1.363 . S
C1809 C1815 1.363 . S
C1810 C1811 1.363 . S
C1810 C1815 1.379 . S
C1810 N1817 1.356 . S
C1811 C1810 1.363 . S
C1811 C1814 1.363 . S
N1812 C1814 1.356 . S
N1812 H1824 0.984 . S
N1812 H1825 0.985 . S
N1813 C1815 1.356 . S
N1813 H1818 0.984 . S
N1813 H1819 0.985 . S
C1814 C1808 1.379 . S
C1814 C1811 1.363 . S
C1814 N1812 1.356 . S
C1815 C1809 1.363 . S
C1815 C1810 1.379 . S
C1815 N1813 1.356 . S
N1816 C1808 1.356 . S
N1816 H1822 0.984 . S
N1816 H1823 0.984 . S
N1817 C1810 1.356 . S
N1817 H1820 0.984 . S
N1817 H1821 0.985 . S
H1818 N1813 0.984 . S
H1819 N1813 0.985 . S
H1820 N1817 0.984 . S
H1821 N1817 0.985 . S
H1822 N1816 0.984 . S
H1823 N1816 0.984 . S
H1824 N1812 0.984 . S
H1825 N1812 0.985 . S
C1826 C1827 1.363 . S
C1826 C1832 1.379 . S
C1826 N1834 1.356 . S
C1827 C1826 1.363 . S
C1827 C1833 1.363 . S
C1828 C1829 1.363 . S
C1828 C1833 1.379 . S
C1828 N1835 1.356 . S
C1829 C1828 1.363 . S
C1829 C1832 1.363 . S
N1830 C1832 1.356 . S
N1830 H1842 0.984 . S
N1830 H1843 0.985 . S
N1831 C1833 1.356 . S
N1831 H1836 0.984 . S
N1831 H1837 0.985 . S
C1832 C1826 1.379 . S
C1832 C1829 1.363 . S
C1832 N1830 1.356 . S
C1833 C1827 1.363 . S
C1833 C1828 1.379 . S
C1833 N1831 1.356 . S
N1834 C1826 1.356 . S
N1834 H1840 0.984 . S
N1834 H1841 0.984 . S
N1835 C1828 1.356 . S
N1835 H1838 0.984 . S
N1835 H1839 0.985 . S
H1836 N1831 0.984 . S
H1837 N1831 0.985 . S
H1838 N1835 0.984 . S
H1839 N1835 0.985 . S
H1840 N1834 0.984 . S
H1841 N1834 0.984 . S
H1842 N1830 0.984 . S
H1843 N1830 0.985 . S
C1844 C1845 1.363 . S
C1844 C1850 1.379 . S
C1844 N1852 1.356 . S
C1845 C1844 1.363 . S
C1845 C1851 1.363 . S
C1846 C1847 1.363 . S
C1846 C1851 1.379 . S
C1846 N1853 1.356 . S
C1847 C1846 1.363 . S
C1847 C1850 1.363 . S
N1848 C1850 1.356 . S
N1848 H1860 0.984 . S
N1848 H1861 0.985 . S
N1849 C1851 1.356 . S
N1849 H1854 0.984 . S
N1849 H1855 0.985 . S
C1850 C1844 1.379 . S
C1850 C1847 1.363 . S
C1850 N1848 1.356 . S
C1851 C1845 1.363 . S
C1851 C1846 1.379 . S
C1851 N1849 1.356 . S
N1852 C1844 1.356 . S
N1852 H1858 0.984 . S
N1852 H1859 0.984 . S
N1853 C1846 1.356 . S
N1853 H1856 0.984 . S
N1853 H1857 0.985 . S
H1854 N1849 0.984 . S
H1855 N1849 0.985 . S
H1856 N1853 0.984 . S
H1857 N1853 0.985 . S
H1858 N1852 0.984 . S
H1859 N1852 0.984 . S
H1860 N1848 0.984 . S
H1861 N1848 0.985 . S
C1862 C1863 1.363 . S
C1862 C1868 1.379 . S
C1862 N1870 1.356 . S
C1863 C1862 1.363 . S
C1863 C1869 1.363 . S
C1864 C1865 1.363 1_545 S
C1864 C1869 1.379 1_545 S
C1864 N1871 1.356 . S
C1865 C1864 1.363 1_565 S
C1865 C1868 1.363 . S
N1866 C1868 1.356 1_556 S
N1866 H1878 0.984 . S
N1866 H1879 0.985 . S
N1867 C1869 1.356 . S
N1867 H1872 0.984 . S
N1867 H1873 0.985 1_565 S
C1868 C1862 1.379 . S
C1868 C1865 1.363 . S
C1868 N1866 1.356 1_554 S
C1869 C1863 1.363 . S
C1869 C1864 1.379 1_565 S
C1869 N1867 1.356 . S
N1870 C1862 1.356 . S
N1870 H1876 0.984 1_554 S
N1870 H1877 0.984 . S
N1871 C1864 1.356 . S
N1871 H1874 0.984 . S
N1871 H1875 0.985 . S
H1872 N1867 0.984 . S
H1873 N1867 0.985 1_545 S
H1874 N1871 0.984 . S
H1875 N1871 0.985 . S
H1876 N1870 0.984 1_556 S
H1877 N1870 0.984 . S
H1878 N1866 0.984 . S
H1879 N1866 0.985 . S
C1880 C1881 1.363 . S
C1880 C1886 1.379 . S
C1880 N1888 1.356 . S
C1881 C1880 1.363 . S
C1881 C1887 1.363 . S
C1882 C1883 1.363 . S
C1882 C1887 1.379 . S
C1882 N1889 1.356 . S
C1883 C1882 1.363 . S
C1883 C1886 1.363 . S
N1884 C1886 1.356 . S
N1884 H1896 0.984 . S
N1884 H1897 0.985 . S
N1885 C1887 1.356 . S
N1885 H1890 0.984 . S
N1885 H1891 0.985 . S
C1886 C1880 1.379 . S
C1886 C1883 1.363 . S
C1886 N1884 1.356 . S
C1887 C1881 1.363 . S
C1887 C1882 1.379 . S
C1887 N1885 1.356 . S
N1888 C1880 1.356 . S
N1888 H1894 0.984 . S
N1888 H1895 0.984 . S
N1889 C1882 1.356 . S
N1889 H1892 0.984 . S
N1889 H1893 0.985 . S
H1890 N1885 0.984 . S
H1891 N1885 0.985 . S
H1892 N1889 0.984 . S
H1893 N1889 0.985 . S
H1894 N1888 0.984 . S
H1895 N1888 0.984 . S
H1896 N1884 0.984 . S
H1897 N1884 0.985 . S
C1898 C1899 1.363 . S
C1898 C1904 1.379 . S
C1898 N1906 1.356 . S
C1899 C1898 1.363 . S
C1899 C1905 1.363 . S
C1900 C1901 1.363 . S
C1900 C1905 1.379 . S
C1900 N1907 1.356 . S
C1901 C1900 1.363 . S
C1901 C1904 1.363 . S
N1902 C1904 1.356 . S
N1902 H1914 0.984 . S
N1902 H1915 0.985 . S
N1903 C1905 1.356 . S
N1903 H1908 0.984 1_554 S
N1903 H1909 0.985 . S
C1904 C1898 1.379 . S
C1904 C1901 1.363 . S
C1904 N1902 1.356 . S
C1905 C1899 1.363 . S
C1905 C1900 1.379 . S
C1905 N1903 1.356 . S
N1906 C1898 1.356 . S
N1906 H1912 0.984 . S
N1906 H1913 0.984 1_554 S
N1907 C1900 1.356 . S
N1907 H1910 0.984 . S
N1907 H1911 0.985 . S
H1908 N1903 0.984 1_556 S
H1909 N1903 0.985 . S
H1910 N1907 0.984 . S
H1911 N1907 0.985 . S
H1912 N1906 0.984 . S
H1913 N1906 0.984 1_556 S
H1914 N1902 0.984 . S
H1915 N1902 0.985 . S
C1916 C1917 1.363 . S
C1916 C1922 1.379 . S
C1916 N1924 1.356 . S
C1917 C1916 1.363 . S
C1917 C1923 1.363 . S
C1918 C1919 1.363 . S
C1918 C1923 1.379 . S
C1918 N1925 1.356 . S
C1919 C1918 1.363 . S
C1919 C1922 1.363 . S
N1920 C1922 1.356 . S
N1920 H1932 0.984 . S
N1920 H1933 0.985 . S
N1921 C1923 1.356 . S
N1921 H1926 0.984 . S
N1921 H1927 0.985 . S
C1922 C1916 1.379 . S
C1922 C1919 1.363 . S
C1922 N1920 1.356 . S
C1923 C1917 1.363 . S
C1923 C1918 1.379 . S
C1923 N1921 1.356 . S
N1924 C1916 1.356 . S
N1924 H1930 0.984 . S
N1924 H1931 0.984 . S
N1925 C1918 1.356 . S
N1925 H1928 0.984 . S
N1925 H1929 0.985 . S
H1926 N1921 0.984 . S
H1927 N1921 0.985 . S
H1928 N1925 0.984 . S
H1929 N1925 0.985 . S
H1930 N1924 0.984 . S
H1931 N1924 0.984 . S
H1932 N1920 0.984 . S
H1933 N1920 0.985 . S
C1934 C1935 1.363 . S
C1934 C1940 1.379 . S
C1934 N1942 1.356 . S
C1935 C1934 1.363 . S
C1935 C1941 1.363 . S
C1936 C1937 1.363 . S
C1936 C1941 1.379 . S
C1936 N1943 1.356 . S
C1937 C1936 1.363 . S
C1937 C1940 1.363 . S
N1938 C1940 1.356 . S
N1938 H1950 0.984 . S
N1938 H1951 0.985 . S
N1939 C1941 1.356 . S
N1939 H1944 0.984 . S
N1939 H1945 0.985 . S
C1940 C1934 1.379 . S
C1940 C1937 1.363 . S
C1940 N1938 1.356 . S
C1941 C1935 1.363 . S
C1941 C1936 1.379 . S
C1941 N1939 1.356 . S
N1942 C1934 1.356 . S
N1942 H1948 0.984 . S
N1942 H1949 0.984 . S
N1943 C1936 1.356 . S
N1943 H1946 0.984 . S
N1943 H1947 0.985 . S
H1944 N1939 0.984 . S
H1945 N1939 0.985 . S
H1946 N1943 0.984 . S
H1947 N1943 0.985 . S
H1948 N1942 0.984 . S
H1949 N1942 0.984 . S
H1950 N1938 0.984 . S
H1951 N1938 0.985 . S
C1952 C1953 1.363 . S
C1952 C1958 1.379 . S
C1952 N1960 1.356 . S
C1953 C1952 1.363 . S
C1953 C1959 1.363 . S
C1954 C1955 1.363 . S
C1954 C1959 1.379 . S
C1954 N1961 1.356 . S
C1955 C1954 1.363 . S
C1955 C1958 1.363 . S
N1956 C1958 1.356 . S
N1956 H1968 0.984 . S
N1956 H1969 0.985 . S
N1957 C1959 1.356 . S
N1957 H1962 0.984 . S
N1957 H1963 0.985 . S
C1958 C1952 1.379 . S
C1958 C1955 1.363 . S
C1958 N1956 1.356 . S
C1959 C1953 1.363 . S
C1959 C1954 1.379 . S
C1959 N1957 1.356 . S
N1960 C1952 1.356 . S
N1960 H1966 0.984 . S
N1960 H1967 0.984 . S
N1961 C1954 1.356 . S
N1961 H1964 0.984 . S
N1961 H1965 0.985 . S
H1962 N1957 0.984 . S
H1963 N1957 0.985 . S
H1964 N1961 0.984 . S
H1965 N1961 0.985 . S
H1966 N1960 0.984 . S
H1967 N1960 0.984 . S
H1968 N1956 0.984 . S
H1969 N1956 0.985 . S
C1970 C1971 1.363 . S
C1970 C1976 1.379 . S
C1970 N1978 1.356 . S
C1971 C1970 1.363 . S
C1971 C1977 1.363 . S
C1972 C1973 1.363 . S
C1972 C1977 1.379 . S
C1972 N1979 1.356 . S
C1973 C1972 1.363 . S
C1973 C1976 1.363 . S
N1974 C1976 1.356 . S
N1974 H1986 0.984 . S
N1974 H1987 0.985 . S
N1975 C1977 1.356 . S
N1975 H1980 0.984 . S
N1975 H1981 0.985 . S
C1976 C1970 1.379 . S
C1976 C1973 1.363 . S
C1976 N1974 1.356 . S
C1977 C1971 1.363 . S
C1977 C1972 1.379 . S
C1977 N1975 1.356 . S
N1978 C1970 1.356 . S
N1978 H1984 0.984 . S
N1978 H1985 0.984 . S
N1979 C1972 1.356 . S
N1979 H1982 0.984 . S
N1979 H1983 0.985 . S
H1980 N1975 0.984 . S
H1981 N1975 0.985 . S
H1982 N1979 0.984 . S
H1983 N1979 0.985 . S
H1984 N1978 0.984 . S
H1985 N1978 0.984 . S
H1986 N1974 0.984 . S
H1987 N1974 0.985 . S
C1988 C1989 1.363 . S
C1988 C1994 1.379 . S
C1988 N1996 1.356 . S
C1989 C1988 1.363 . S
C1989 C1995 1.363 1_455 S
C1990 C1991 1.363 1_655 S
C1990 C1995 1.379 . S
C1990 N1997 1.356 . S
C1991 C1990 1.363 1_455 S
C1991 C1994 1.363 . S
N1992 C1994 1.356 . S
N1992 H2004 0.984 . S
N1992 H2005 0.985 . S
N1993 C1995 1.356 . S
N1993 H1998 0.984 . S
N1993 H1999 0.985 . S
C1994 C1988 1.379 . S
C1994 C1991 1.363 . S
C1994 N1992 1.356 . S
C1995 C1989 1.363 1_655 S
C1995 C1990 1.379 . S
C1995 N1993 1.356 . S
N1996 C1988 1.356 . S
N1996 H2002 0.984 . S
N1996 H2003 0.984 . S
N1997 C1990 1.356 . S
N1997 H2000 0.984 . S
N1997 H2001 0.985 . S
H1998 N1993 0.984 . S
H1999 N1993 0.985 . S
H2000 N1997 0.984 . S
H2001 N1997 0.985 . S
H2002 N1996 0.984 . S
H2003 N1996 0.984 . S
H2004 N1992 0.984 . S
H2005 N1992 0.985 . S
C2006 C2007 1.363 . S
C2006 C2012 1.379 . S
C2006 N2014 1.356 . S
C2007 C2006 1.363 . S
C2007 C2013 1.363 . S
C2008 C2009 1.363 . S
C2008 C2013 1.379 . S
C2008 N2015 1.356 . S
C2009 C2008 1.363 . S
C2009 C2012 1.363 . S
N2010 C2012 1.356 . S
N2010 H2022 0.984 . S
N2010 H2023 0.985 . S
N2011 C2013 1.356 . S
N2011 H2016 0.984 . S
N2011 H2017 0.985 . S
C2012 C2006 1.379 . S
C2012 C2009 1.363 . S
C2012 N2010 1.356 . S
C2013 C2007 1.363 . S
C2013 C2008 1.379 . S
C2013 N2011 1.356 . S
N2014 C2006 1.356 . S
N2014 H2020 0.984 . S
N2014 H2021 0.984 . S
N2015 C2008 1.356 . S
N2015 H2018 0.984 . S
N2015 H2019 0.985 . S
H2016 N2011 0.984 . S
H2017 N2011 0.985 . S
H2018 N2015 0.984 . S
H2019 N2015 0.985 . S
H2020 N2014 0.984 . S
H2021 N2014 0.984 . S
H2022 N2010 0.984 . S
H2023 N2010 0.985 . S
C2024 C2025 1.363 . S
C2024 C2030 1.379 . S
C2024 N2032 1.356 . S
C2025 C2024 1.363 . S
C2025 C2031 1.363 . S
C2026 C2027 1.363 . S
C2026 C2031 1.379 . S
C2026 N2033 1.356 1_556 S
C2027 C2026 1.363 . S
C2027 C2030 1.363 . S
N2028 C2030 1.356 . S
N2028 H2040 0.984 . S
N2028 H2041 0.985 . S
N2029 C2031 1.356 . S
N2029 H2034 0.984 . S
N2029 H2035 0.985 1_556 S
C2030 C2024 1.379 . S
C2030 C2027 1.363 . S
C2030 N2028 1.356 . S
C2031 C2025 1.363 . S
C2031 C2026 1.379 . S
C2031 N2029 1.356 . S
N2032 C2024 1.356 . S
N2032 H2038 0.984 . S
N2032 H2039 0.984 . S
N2033 C2026 1.356 1_554 S
N2033 H2036 0.984 . S
N2033 H2037 0.985 . S
H2034 N2029 0.984 . S
H2035 N2029 0.985 1_554 S
H2036 N2033 0.984 . S
H2037 N2033 0.985 . S
H2038 N2032 0.984 . S
H2039 N2032 0.984 . S
H2040 N2028 0.984 . S
H2041 N2028 0.985 . S
C2042 C2043 1.363 . S
C2042 C2048 1.379 . S
C2042 N2050 1.356 . S
C2043 C2042 1.363 . S
C2043 C2049 1.363 . S
C2044 C2045 1.363 . S
C2044 C2049 1.379 . S
C2044 N2051 1.356 . S
C2045 C2044 1.363 . S
C2045 C2048 1.363 . S
N2046 C2048 1.356 . S
N2046 H2058 0.984 . S
N2046 H2059 0.985 . S
N2047 C2049 1.356 . S
N2047 H2052 0.984 . S
N2047 H2053 0.985 . S
C2048 C2042 1.379 . S
C2048 C2045 1.363 . S
C2048 N2046 1.356 . S
C2049 C2043 1.363 . S
C2049 C2044 1.379 . S
C2049 N2047 1.356 . S
N2050 C2042 1.356 . S
N2050 H2056 0.984 . S
N2050 H2057 0.984 . S
N2051 C2044 1.356 . S
N2051 H2054 0.984 . S
N2051 H2055 0.985 . S
H2052 N2047 0.984 . S
H2053 N2047 0.985 . S
H2054 N2051 0.984 . S
H2055 N2051 0.985 . S
H2056 N2050 0.984 . S
H2057 N2050 0.984 . S
H2058 N2046 0.984 . S
H2059 N2046 0.985 . S
C2060 C2061 1.363 . S
C2060 C2066 1.379 . S
C2060 N2068 1.356 . S
C2061 C2060 1.363 . S
C2061 C2067 1.363 . S
C2062 C2063 1.363 . S
C2062 C2067 1.379 . S
C2062 N2069 1.356 . S
C2063 C2062 1.363 . S
C2063 C2066 1.363 . S
N2064 C2066 1.356 . S
N2064 H2076 0.984 . S
N2064 H2077 0.985 . S
N2065 C2067 1.356 . S
N2065 H2070 0.984 . S
N2065 H2071 0.985 . S
C2066 C2060 1.379 . S
C2066 C2063 1.363 . S
C2066 N2064 1.356 . S
C2067 C2061 1.363 . S
C2067 C2062 1.379 . S
C2067 N2065 1.356 . S
N2068 C2060 1.356 . S
N2068 H2074 0.984 . S
N2068 H2075 0.984 . S
N2069 C2062 1.356 . S
N2069 H2072 0.984 . S
N2069 H2073 0.985 1_455 S
H2070 N2065 0.984 . S
H2071 N2065 0.985 . S
H2072 N2069 0.984 . S
H2073 N2069 0.985 1_655 S
H2074 N2068 0.984 . S
H2075 N2068 0.984 . S
H2076 N2064 0.984 . S
H2077 N2064 0.985 . S
C2078 C2079 1.363 . S
C2078 C2084 1.379 . S
C2078 N2086 1.356 . S
C2079 C2078 1.363 . S
C2079 C2085 1.363 . S
C2080 C2081 1.363 . S
C2080 C2085 1.379 . S
C2080 N2087 1.356 . S
C2081 C2080 1.363 . S
C2081 C2084 1.363 . S
N2082 C2084 1.356 . S
N2082 H2094 0.984 . S
N2082 H2095 0.985 . S
N2083 C2085 1.356 . S
N2083 H2088 0.984 . S
N2083 H2089 0.985 . S
C2084 C2078 1.379 . S
C2084 C2081 1.363 . S
C2084 N2082 1.356 . S
C2085 C2079 1.363 . S
C2085 C2080 1.379 . S
C2085 N2083 1.356 . S
N2086 C2078 1.356 . S
N2086 H2092 0.984 . S
N2086 H2093 0.984 . S
N2087 C2080 1.356 . S
N2087 H2090 0.984 . S
N2087 H2091 0.985 . S
H2088 N2083 0.984 . S
H2089 N2083 0.985 . S
H2090 N2087 0.984 . S
H2091 N2087 0.985 . S
H2092 N2086 0.984 . S
H2093 N2086 0.984 . S
H2094 N2082 0.984 . S
H2095 N2082 0.985 . S
C2096 C2097 1.363 . S
C2096 C2102 1.379 . S
C2096 N2104 1.356 . S
C2097 C2096 1.363 . S
C2097 C2103 1.363 . S
C2098 C2099 1.363 . S
C2098 C2103 1.379 . S
C2098 N2105 1.356 . S
C2099 C2098 1.363 . S
C2099 C2102 1.363 . S
N2100 C2102 1.356 . S
N2100 H2112 0.984 . S
N2100 H2113 0.985 . S
N2101 C2103 1.356 . S
N2101 H2106 0.984 . S
N2101 H2107 0.985 . S
C2102 C2096 1.379 . S
C2102 C2099 1.363 . S
C2102 N2100 1.356 . S
C2103 C2097 1.363 . S
C2103 C2098 1.379 . S
C2103 N2101 1.356 . S
N2104 C2096 1.356 . S
N2104 H2110 0.984 . S
N2104 H2111 0.984 . S
N2105 C2098 1.356 . S
N2105 H2108 0.984 . S
N2105 H2109 0.985 . S
H2106 N2101 0.984 . S
H2107 N2101 0.985 . S
H2108 N2105 0.984 . S
H2109 N2105 0.985 . S
H2110 N2104 0.984 . S
H2111 N2104 0.984 . S
H2112 N2100 0.984 . S
H2113 N2100 0.985 . S
C2114 C2115 1.363 . S
C2114 C2120 1.379 . S
C2114 N2122 1.356 . S
C2115 C2114 1.363 . S
C2115 C2121 1.363 . S
C2116 C2117 1.363 . S
C2116 C2121 1.379 . S
C2116 N2123 1.356 . S
C2117 C2116 1.363 . S
C2117 C2120 1.363 . S
N2118 C2120 1.356 . S
N2118 H2130 0.984 . S
N2118 H2131 0.985 . S
N2119 C2121 1.356 . S
N2119 H2124 0.984 . S
N2119 H2125 0.985 . S
C2120 C2114 1.379 . S
C2120 C2117 1.363 . S
C2120 N2118 1.356 . S
C2121 C2115 1.363 . S
C2121 C2116 1.379 . S
C2121 N2119 1.356 . S
N2122 C2114 1.356 . S
N2122 H2128 0.984 . S
N2122 H2129 0.984 . S
N2123 C2116 1.356 . S
N2123 H2126 0.984 . S
N2123 H2127 0.985 . S
H2124 N2119 0.984 . S
H2125 N2119 0.985 . S
H2126 N2123 0.984 . S
H2127 N2123 0.985 . S
H2128 N2122 0.984 . S
H2129 N2122 0.984 . S
H2130 N2118 0.984 . S
H2131 N2118 0.985 . S
C2132 C2133 1.363 . S
C2132 C2138 1.379 . S
C2132 N2140 1.356 . S
C2133 C2132 1.363 . S
C2133 C2139 1.363 . S
C2134 C2135 1.363 . S
C2134 C2139 1.379 . S
C2134 N2141 1.356 1_655 S
C2135 C2134 1.363 . S
C2135 C2138 1.363 . S
N2136 C2138 1.356 . S
N2136 H2148 0.984 . S
N2136 H2149 0.985 . S
N2137 C2139 1.356 . S
N2137 H2142 0.984 . S
N2137 H2143 0.985 1_655 S
C2138 C2132 1.379 . S
C2138 C2135 1.363 . S
C2138 N2136 1.356 . S
C2139 C2133 1.363 . S
C2139 C2134 1.379 . S
C2139 N2137 1.356 . S
N2140 C2132 1.356 . S
N2140 H2146 0.984 . S
N2140 H2147 0.984 . S
N2141 C2134 1.356 1_455 S
N2141 H2144 0.984 . S
N2141 H2145 0.985 . S
H2142 N2137 0.984 . S
H2143 N2137 0.985 1_455 S
H2144 N2141 0.984 . S
H2145 N2141 0.985 . S
H2146 N2140 0.984 . S
H2147 N2140 0.984 . S
H2148 N2136 0.984 . S
H2149 N2136 0.985 . S
C2150 C2151 1.363 . S
C2150 C2156 1.379 . S
C2150 N2158 1.356 . S
C2151 C2150 1.363 . S
C2151 C2157 1.363 . S
C2152 C2153 1.363 . S
C2152 C2157 1.379 . S
C2152 N2159 1.356 . S
C2153 C2152 1.363 . S
C2153 C2156 1.363 . S
N2154 C2156 1.356 . S
N2154 H2166 0.984 . S
N2154 H2167 0.985 . S
N2155 C2157 1.356 . S
N2155 H2160 0.984 . S
N2155 H2161 0.985 . S
C2156 C2150 1.379 . S
C2156 C2153 1.363 . S
C2156 N2154 1.356 . S
C2157 C2151 1.363 . S
C2157 C2152 1.379 . S
C2157 N2155 1.356 . S
N2158 C2150 1.356 . S
N2158 H2164 0.984 . S
N2158 H2165 0.984 . S
N2159 C2152 1.356 . S
N2159 H2162 0.984 . S
N2159 H2163 0.985 . S
H2160 N2155 0.984 . S
H2161 N2155 0.985 . S
H2162 N2159 0.984 . S
H2163 N2159 0.985 . S
H2164 N2158 0.984 . S
H2165 N2158 0.984 . S
H2166 N2154 0.984 . S
H2167 N2154 0.985 . S
C2168 C2169 1.363 . S
C2168 C2174 1.379 . S
C2168 N2176 1.356 . S
C2169 C2168 1.363 . S
C2169 C2175 1.363 . S
C2170 C2171 1.363 . S
C2170 C2175 1.379 . S
C2170 N2177 1.356 . S
C2171 C2170 1.363 . S
C2171 C2174 1.363 . S
N2172 C2174 1.356 . S
N2172 H2184 0.984 . S
N2172 H2185 0.985 . S
N2173 C2175 1.356 . S
N2173 H2178 0.984 . S
N2173 H2179 0.985 . S
C2174 C2168 1.379 . S
C2174 C2171 1.363 . S
C2174 N2172 1.356 . S
C2175 C2169 1.363 . S
C2175 C2170 1.379 . S
C2175 N2173 1.356 . S
N2176 C2168 1.356 . S
N2176 H2182 0.984 . S
N2176 H2183 0.984 . S
N2177 C2170 1.356 . S
N2177 H2180 0.984 . S
N2177 H2181 0.985 . S
H2178 N2173 0.984 . S
H2179 N2173 0.985 . S
H2180 N2177 0.984 . S
H2181 N2177 0.985 . S
H2182 N2176 0.984 . S
H2183 N2176 0.984 . S
H2184 N2172 0.984 . S
H2185 N2172 0.985 . S
C2186 C2187 1.363 . S
C2186 C2192 1.379 . S
C2186 N2194 1.356 . S
C2187 C2186 1.363 . S
C2187 C2193 1.363 . S
C2188 C2189 1.363 . S
C2188 C2193 1.379 . S
C2188 N2195 1.356 . S
C2189 C2188 1.363 . S
C2189 C2192 1.363 . S
N2190 C2192 1.356 . S
N2190 H2202 0.984 . S
N2190 H2203 0.985 . S
N2191 C2193 1.356 . S
N2191 H2196 0.984 . S
N2191 H2197 0.985 . S
C2192 C2186 1.379 . S
C2192 C2189 1.363 . S
C2192 N2190 1.356 . S
C2193 C2187 1.363 . S
C2193 C2188 1.379 . S
C2193 N2191 1.356 . S
N2194 C2186 1.356 . S
N2194 H2200 0.984 . S
N2194 H2201 0.984 . S
N2195 C2188 1.356 . S
N2195 H2198 0.984 . S
N2195 H2199 0.985 . S
H2196 N2191 0.984 . S
H2197 N2191 0.985 . S
H2198 N2195 0.984 . S
H2199 N2195 0.985 . S
H2200 N2194 0.984 . S
H2201 N2194 0.984 . S
H2202 N2190 0.984 . S
H2203 N2190 0.985 . S
C2204 C2205 1.363 . S
C2204 C2210 1.379 . S
C2204 N2212 1.356 . S
C2205 C2204 1.363 . S
C2205 C2211 1.363 . S
C2206 C2207 1.363 . S
C2206 C2211 1.379 . S
C2206 N2213 1.356 . S
C2207 C2206 1.363 . S
C2207 C2210 1.363 . S
N2208 C2210 1.356 . S
N2208 H2220 0.984 . S
N2208 H2221 0.985 . S
N2209 C2211 1.356 . S
N2209 H2214 0.984 . S
N2209 H2215 0.985 . S
C2210 C2204 1.379 . S
C2210 C2207 1.363 . S
C2210 N2208 1.356 . S
C2211 C2205 1.363 . S
C2211 C2206 1.379 . S
C2211 N2209 1.356 . S
N2212 C2204 1.356 . S
N2212 H2218 0.984 . S
N2212 H2219 0.984 . S
N2213 C2206 1.356 . S
N2213 H2216 0.990 . S
N2213 H2217 0.985 1_655 S
H2214 N2209 0.984 . S
H2215 N2209 0.985 . S
H2216 N2213 0.990 . S
H2217 N2213 0.985 1_455 S
H2218 N2212 0.984 . S
H2219 N2212 0.984 . S
H2220 N2208 0.984 . S
H2221 N2208 0.985 . S
C2222 C2223 1.363 . S
C2222 C2228 1.379 . S
C2222 N2230 1.356 . S
C2223 C2222 1.363 . S
C2223 C2229 1.363 . S
C2224 C2225 1.363 . S
C2224 C2229 1.379 . S
C2224 N2231 1.356 . S
C2225 C2224 1.363 . S
C2225 C2228 1.363 . S
N2226 C2228 1.356 . S
N2226 H2238 0.984 . S
N2226 H2239 0.985 . S
N2227 C2229 1.356 . S
N2227 H2232 0.984 . S
N2227 H2233 0.985 . S
C2228 C2222 1.379 . S
C2228 C2225 1.363 . S
C2228 N2226 1.356 . S
C2229 C2223 1.363 . S
C2229 C2224 1.379 . S
C2229 N2227 1.356 . S
N2230 C2222 1.356 . S
N2230 H2236 0.984 . S
N2230 H2237 0.984 . S
N2231 C2224 1.356 . S
N2231 H2234 0.984 . S
N2231 H2235 0.985 . S
H2232 N2227 0.984 . S
H2233 N2227 0.985 . S
H2234 N2231 0.984 . S
H2235 N2231 0.985 . S
H2236 N2230 0.984 . S
H2237 N2230 0.984 . S
H2238 N2226 0.984 . S
H2239 N2226 0.985 . S
C2240 C2241 1.363 . S
C2240 C2246 1.379 . S
C2240 N2248 1.356 . S
C2241 C2240 1.363 . S
C2241 C2247 1.363 . S
C2242 C2243 1.363 . S
C2242 C2247 1.379 . S
C2242 N2249 1.356 . S
C2243 C2242 1.363 . S
C2243 C2246 1.363 . S
N2244 C2246 1.356 . S
N2244 H2256 0.984 . S
N2244 H2257 0.985 . S
N2245 C2247 1.356 . S
N2245 H2250 0.984 . S
N2245 H2251 0.985 . S
C2246 C2240 1.379 . S
C2246 C2243 1.363 . S
C2246 N2244 1.356 . S
C2247 C2241 1.363 . S
C2247 C2242 1.379 . S
C2247 N2245 1.356 . S
N2248 C2240 1.356 . S
N2248 H2254 0.984 . S
N2248 H2255 0.984 . S
N2249 C2242 1.356 . S
N2249 H2252 0.984 . S
N2249 H2253 0.985 . S
H2250 N2245 0.984 . S
H2251 N2245 0.985 . S
H2252 N2249 0.984 . S
H2253 N2249 0.985 . S
H2254 N2248 0.984 . S
H2255 N2248 0.984 . S
H2256 N2244 0.984 . S
H2257 N2244 0.985 . S
C2258 C2259 1.363 . S
C2258 C2264 1.379 . S
C2258 N2266 1.356 . S
C2259 C2258 1.363 . S
C2259 C2265 1.363 . S
C2260 C2261 1.363 . S
C2260 C2265 1.379 . S
C2260 N2267 1.356 . S
C2261 C2260 1.363 . S
C2261 C2264 1.363 . S
N2262 C2264 1.356 1_545 S
N2262 H2274 0.984 . S
N2262 H2275 0.985 . S
N2263 C2265 1.356 . S
N2263 H2268 0.984 . S
N2263 H2269 0.985 . S
C2264 C2258 1.379 . S
C2264 C2261 1.363 . S
C2264 N2262 1.356 1_565 S
C2265 C2259 1.363 . S
C2265 C2260 1.379 . S
C2265 N2263 1.356 . S
N2266 C2258 1.356 . S
N2266 H2272 0.984 1_565 S
N2266 H2273 0.984 . S
N2267 C2260 1.356 . S
N2267 H2270 0.984 . S
N2267 H2271 0.985 . S
H2268 N2263 0.984 . S
H2269 N2263 0.985 . S
H2270 N2267 0.984 . S
H2271 N2267 0.985 . S
H2272 N2266 0.984 1_545 S
H2273 N2266 0.984 . S
H2274 N2262 0.984 . S
H2275 N2262 0.985 . S
C2276 C2277 1.363 . S
C2276 C2282 1.379 . S
C2276 N2284 1.356 . S
C2277 C2276 1.363 . S
C2277 C2283 1.363 . S
C2278 C2279 1.363 . S
C2278 C2283 1.379 . S
C2278 N2285 1.356 . S
C2279 C2278 1.363 . S
C2279 C2282 1.363 . S
N2280 C2282 1.356 . S
N2280 H2292 0.984 . S
N2280 H2293 0.985 . S
N2281 C2283 1.356 . S
N2281 H2286 0.984 . S
N2281 H2287 0.985 . S
C2282 C2276 1.379 . S
C2282 C2279 1.363 . S
C2282 N2280 1.356 . S
C2283 C2277 1.363 . S
C2283 C2278 1.379 . S
C2283 N2281 1.356 . S
N2284 C2276 1.356 . S
N2284 H2290 0.984 . S
N2284 H2291 0.984 . S
N2285 C2278 1.356 . S
N2285 H2288 0.984 . S
N2285 H2289 0.985 . S
H2286 N2281 0.984 . S
H2287 N2281 0.985 . S
H2288 N2285 0.984 . S
H2289 N2285 0.985 . S
H2290 N2284 0.984 . S
H2291 N2284 0.984 . S
H2292 N2280 0.984 . S
H2293 N2280 0.985 . S
C2294 C2295 1.334 1_554 S
C2294 C2300 1.379 . S
C2294 N2302 1.356 . S
C2295 C2294 1.334 1_556 S
C2295 C2301 1.385 . S
C2296 C2297 1.363 1_556 S
C2296 C2301 1.379 . S
C2296 N2303 1.356 . S
C2297 C2296 1.363 1_554 S
C2297 C2300 1.363 . S
N2298 C2300 1.356 . S
N2298 H2310 0.984 . S
N2298 H2311 0.985 . S
N2299 C2301 1.356 . S
N2299 H2304 0.984 . S
N2299 H2305 0.985 . S
C2300 C2294 1.379 . S
C2300 C2297 1.363 . S
C2300 N2298 1.356 . S
C2301 C2295 1.385 . S
C2301 C2296 1.379 . S
C2301 N2299 1.356 . S
N2302 C2294 1.356 . S
N2302 H2308 0.984 . S
N2302 H2309 0.984 . S
N2303 C2296 1.356 . S
N2303 H2306 0.984 . S
N2303 H2307 0.985 . S
H2304 N2299 0.984 . S
H2305 N2299 0.985 . S
H2306 N2303 0.984 . S
H2307 N2303 0.985 . S
H2308 N2302 0.984 . S
H2309 N2302 0.984 . S
H2310 N2298 0.984 . S
H2311 N2298 0.985 . S
C2312 C2313 1.363 . S
C2312 C2318 1.379 . S
C2312 N2320 1.356 . S
C2313 C2312 1.363 . S
C2313 C2319 1.363 . S
C2314 C2315 1.363 . S
C2314 C2319 1.379 . S
C2314 N2321 1.356 . S
C2315 C2314 1.363 . S
C2315 C2318 1.363 . S
N2316 C2318 1.356 . S
N2316 H2328 0.984 . S
N2316 H2329 0.985 . S
N2317 C2319 1.356 . S
N2317 H2322 0.984 . S
N2317 H2323 0.985 . S
C2318 C2312 1.379 . S
C2318 C2315 1.363 . S
C2318 N2316 1.356 . S
C2319 C2313 1.363 . S
C2319 C2314 1.379 . S
C2319 N2317 1.356 . S
N2320 C2312 1.356 . S
N2320 H2326 0.984 . S
N2320 H2327 0.984 . S
N2321 C2314 1.356 . S
N2321 H2324 0.984 . S
N2321 H2325 0.985 . S
H2322 N2317 0.984 . S
H2323 N2317 0.985 . S
H2324 N2321 0.984 . S
H2325 N2321 0.985 . S
H2326 N2320 0.984 . S
H2327 N2320 0.984 . S
H2328 N2316 0.984 . S
H2329 N2316 0.985 . S
C2330 C2331 1.363 . S
C2330 C2336 1.379 . S
C2330 N2338 1.356 . S
C2331 C2330 1.363 . S
C2331 C2337 1.363 1_554 S
C2332 C2333 1.359 1_556 S
C2332 C2337 1.379 . S
C2332 N2339 1.356 . S
C2333 C2332 1.359 1_554 S
C2333 C2336 1.370 . S
N2334 C2336 1.356 . S
N2334 H2346 0.984 . S
N2334 H2347 0.985 . S
N2335 C2337 1.356 . S
N2335 H2340 0.984 1_556 S
N2335 H2341 0.985 . S
C2336 C2330 1.379 . S
C2336 C2333 1.370 . S
C2336 N2334 1.356 . S
C2337 C2331 1.363 1_556 S
C2337 C2332 1.379 . S
C2337 N2335 1.356 . S
N2338 C2330 1.356 . S
N2338 H2344 0.984 . S
N2338 H2345 0.984 . S
N2339 C2332 1.356 . S
N2339 H2342 0.984 . S
N2339 H2343 0.985 . S
H2340 N2335 0.984 1_554 S
H2341 N2335 0.985 . S
H2342 N2339 0.984 . S
H2343 N2339 0.985 . S
H2344 N2338 0.984 . S
H2345 N2338 0.984 . S
H2346 N2334 0.984 . S
H2347 N2334 0.985 . S
C2348 C2349 1.363 . S
C2348 C2354 1.379 . S
C2348 N2356 1.356 . S
C2349 C2348 1.363 . S
C2349 C2355 1.363 . S
C2350 C2351 1.363 . S
C2350 C2355 1.379 . S
C2350 N2357 1.356 . S
C2351 C2350 1.363 . S
C2351 C2354 1.363 . S
N2352 C2354 1.356 . S
N2352 H2364 0.984 . S
N2352 H2365 0.985 . S
N2353 C2355 1.356 . S
N2353 H2358 0.984 . S
N2353 H2359 0.985 . S
C2354 C2348 1.379 . S
C2354 C2351 1.363 . S
C2354 N2352 1.356 . S
C2355 C2349 1.363 . S
C2355 C2350 1.379 . S
C2355 N2353 1.356 . S
N2356 C2348 1.356 . S
N2356 H2362 0.984 . S
N2356 H2363 0.984 . S
N2357 C2350 1.356 . S
N2357 H2360 0.984 . S
N2357 H2361 0.985 . S
H2358 N2353 0.984 . S
H2359 N2353 0.985 . S
H2360 N2357 0.984 . S
H2361 N2357 0.985 . S
H2362 N2356 0.984 . S
H2363 N2356 0.984 . S
H2364 N2352 0.984 . S
H2365 N2352 0.985 . S
C2366 C2367 1.363 . S
C2366 C2372 1.379 . S
C2366 N2374 1.356 . S
C2367 C2366 1.363 . S
C2367 C2373 1.363 . S
C2368 C2369 1.363 . S
C2368 C2373 1.379 . S
C2368 N2375 1.356 . S
C2369 C2368 1.363 . S
C2369 C2372 1.363 . S
N2370 C2372 1.356 . S
N2370 H2382 0.984 . S
N2370 H2383 0.985 . S
N2371 C2373 1.356 . S
N2371 H2376 0.984 . S
N2371 H2377 0.985 . S
C2372 C2366 1.379 . S
C2372 C2369 1.363 . S
C2372 N2370 1.356 . S
C2373 C2367 1.363 . S
C2373 C2368 1.379 . S
C2373 N2371 1.356 . S
N2374 C2366 1.356 . S
N2374 H2380 0.984 . S
N2374 H2381 0.984 . S
N2375 C2368 1.356 . S
N2375 H2378 0.984 . S
N2375 H2379 0.985 . S
H2376 N2371 0.984 . S
H2377 N2371 0.985 . S
H2378 N2375 0.984 . S
H2379 N2375 0.985 . S
H2380 N2374 0.984 . S
H2381 N2374 0.984 . S
H2382 N2370 0.984 . S
H2383 N2370 0.985 . S
C657 C111 1.207 1_455 S
C659 C352 1.257 1_556 S
C675 C64 1.424 . S
C677 C365 1.453 . S
C693 C77 1.342 . S
C695 C384 1.346 . S
C713 C415 1.699 . S
C711 C95 1.730 . S
C729 C25 1.522 . S
C731 C435 1.493 . S
C749 C452 1.010 . S
C747 C36 1.020 . S
C767 C465 1.523 . S
C765 C50 1.456 . S
C783 C11 1.104 . S
C785 C492 1.059 . S
C803 C345 1.264 . S
C801 C237 1.189 . S
C819 C245 1.517 . S
C821 C375 1.494 . S
C839 C377 1.606 . S
C837 C279 1.521 . S
C857 C412 0.913 . S
C855 C175 0.912 . S
C873 C231 1.122 . S
C875 C432 1.127 . S
C893 C445 1.686 . S
C891 C251 1.555 . S
C911 C475 1.397 . S
C909 C273 1.424 . S
C929 C485 1.204 . S
C927 C181 1.202 . S
C947 C355 1.544 1_565 S
C945 C165 1.568 . S
C963 C288 1.670 . S
C965 C505 1.740 1_556 S
C983 C535 1.564 . S
C981 C333 1.594 . S
C1001 C552 1.265 . S
C999 C316 1.272 . S
C1017 C123 1.769 . S
C1019 C495 1.761 . S
C1035 C137 1.269 . S
C1037 C382 1.188 . S
C1053 C330 1.733 . S
C1055 C565 1.824 . S
C1073 C592 1.126 . S
C1071 C302 1.170 . S
C1091 C342 1.331 . S
C1089 C63 1.354 . S
C1109 C577 1.457 . S
C1107 C106 1.419 . S
C1125 C97 1.300 . S
C1127 C395 1.401 . S
C1143 C81 1.812 . S
C1145 C564 1.750 . S
C1163 C424 1.585 . S
C1161 C13 1.571 . S
C1179 C55 0.945 . S
C1181 C522 1.006 . S
C1199 C457 1.436 . S
C1197 C35 1.434 . S
C1217 C602 1.171 . S
C1215 C21 1.199 . S
C1235 C337 1.336 . S
C1233 C147 1.357 . S
C1253 C584 1.506 . S
C1251 C321 1.426 . S
C1269 C119 1.686 . S
C1271 C385 1.653 . S
C1287 C293 0.965 . S
C1289 C562 1.014 . S
C1305 C153 1.150 1_565 S
C1307 C422 1.259 . S
C1325 C517 1.728 . S
C1323 C315 1.715 . S
C1341 C125 1.322 . S
C1343 C464 1.364 . S
C1359 C287 1.330 . S
C1361 C597 1.275 . S
C1377 C193 1.623 . S
C1379 C344 1.599 . S
C1395 C176 1.706 . S
C1397 C497 1.741 . S
C1413 C263 1.558 . S
C1415 C444 1.561 . S
C1431 C246 1.308 . S
C1433 C542 1.353 . S
C1451 C604 1.845 . S
C1449 C277 1.872 . S
C1467 C221 1.245 . S
C1469 C392 1.204 . S
C1487 C397 1.844 . S
C1485 C260 1.801 . S
C1505 C362 1.179 . S
C1503 C204 1.181 . S
C1521 C83 1.207 . S
C1523 C632 1.257 . S
C1541 C585 1.453 . S
C1539 C92 1.424 . S
C1557 C105 1.342 . S
C1559 C644 1.346 1_455 S
C1575 C67 1.730 . S
C1577 C575 1.699 . S
C1593 C53 1.522 . S
C1595 C515 1.493 . S
C1613 C532 1.010 . S
C1611 C8 1.019 . S
C1631 C545 1.523 . S
C1629 C22 1.456 . S
C1649 C612 1.059 . S
C1647 C39 1.104 . S
C1667 C625 1.264 . S
C1665 C265 1.189 . S
C1683 C189 1.516 . S
C1685 C595 1.493 . S
C1703 C637 1.606 . S
C1701 C209 1.521 . S
C1721 C572 0.913 . S
C1719 C217 0.912 . S
C1739 C512 1.127 . S
C1737 C259 1.122 . S
C1755 C195 1.555 . S
C1757 C525 1.686 . S
C1775 C555 1.397 . S
C1773 C203 1.424 . S
C1791 C223 1.202 . S
C1793 C605 1.204 . S
C1811 C635 1.544 . S
C1809 C319 1.568 . S
C1827 C134 1.670 . S
C1829 C425 1.741 . S
C1847 C455 1.564 . S
C1845 C151 1.597 . S
C1865 C472 1.265 1_565 S
C1863 C162 1.272 . S
C1883 C615 1.761 . S
C1881 C305 1.769 . S
C1899 C291 1.265 1_554 S
C1901 C642 1.188 . S
C1919 C405 1.823 . S
C1917 C148 1.729 . S
C1937 C372 1.126 . S
C1935 C120 1.170 . S
C1953 C91 1.354 . S
C1955 C622 1.330 . S
C1973 C357 1.457 . S
C1971 C78 1.419 . S
C1989 C69 1.300 . S
C1991 C655 1.401 . S
C2007 C109 1.812 . S
C2009 C404 1.750 . S
C2025 C41 1.571 . S
C2027 C504 1.581 1_556 S
C2045 C442 1.006 . S
C2043 C27 0.941 . S
C2061 C7 1.434 . S
C2063 C537 1.436 . S
C2079 C49 1.195 . S
C2081 C482 1.171 . S
C2099 C617 1.336 . S
C2097 C329 1.357 . S
C2115 C167 1.426 . S
C2117 C364 1.506 . S
C2135 C645 1.653 . S
C2133 C301 1.686 . S
C2151 C139 0.965 . S
C2153 C402 1.016 . S
C2169 C335 1.150 . S
C2171 C502 1.261 . S
C2189 C437 1.728 . S
C2187 C161 1.715 . S
C2205 C307 1.322 . S
C2207 C544 1.364 . S
C2225 C477 1.273 . S
C2223 C133 1.330 . S
C2243 C624 1.599 . S
C2241 C249 1.623 . S
C2261 C417 1.741 1_565 S
C2259 C218 1.706 . S
C2277 C235 1.558 . S
C2279 C524 1.560 . S
C2297 C462 1.353 . S
C2295 C190 1.307 1_556 S
C2313 C207 1.872 . S
C2315 C484 1.845 . S
C2331 C179 1.245 . S
C2333 C652 1.204 . S
C2351 C557 1.844 . S
C2349 C232 1.814 . S
C2369 C582 1.180 . S
C2367 C274 1.182 . S
