# Generated by pormake.
# Topology iac, (4,6)-cn, num edge types: 1
# Building blocks:
#     Node 0, Type 0, BuildingBlock: TATPOV_clean_sbu_0, # of connection points: 4
#     Node 1, Type 0, BuildingBlock: TATPOV_clean_sbu_0, # of connection points: 4
#     Node 2, Type 0, BuildingBlock: TATPOV_clean_sbu_0, # of connection points: 4
#     Node 3, Type 0, BuildingBlock: TATPOV_clean_sbu_0, # of connection points: 4
#     Node 4, Type 0, BuildingBlock: TATPOV_clean_sbu_0, # of connection points: 4
#     Node 5, Type 0, BuildingBlock: TATPOV_clean_sbu_0, # of connection points: 4
#     Node 6, Type 0, BuildingBlock: TATPOV_clean_sbu_0, # of connection points: 4
#     Node 7, Type 0, BuildingBlock: TATPOV_clean_sbu_0, # of connection points: 4
#     Node 8, Type 0, BuildingBlock: TATPOV_clean_sbu_0, # of connection points: 4
#     Node 9, Type 0, BuildingBlock: TATPOV_clean_sbu_0, # of connection points: 4
#     Node 10, Type 0, BuildingBlock: TATPOV_clean_sbu_0, # of connection points: 4
#     Node 11, Type 0, BuildingBlock: TATPOV_clean_sbu_0, # of connection points: 4
#     Node 12, Type 0, BuildingBlock: TATPOV_clean_sbu_0, # of connection points: 4
#     Node 13, Type 0, BuildingBlock: TATPOV_clean_sbu_0, # of connection points: 4
#     Node 14, Type 0, BuildingBlock: TATPOV_clean_sbu_0, # of connection points: 4
#     Node 15, Type 0, BuildingBlock: TATPOV_clean_sbu_0, # of connection points: 4
#     Node 16, Type 0, BuildingBlock: TATPOV_clean_sbu_0, # of connection points: 4
#     Node 17, Type 0, BuildingBlock: TATPOV_clean_sbu_0, # of connection points: 4
#     Node 18, Type 0, BuildingBlock: TATPOV_clean_sbu_0, # of connection points: 4
#     Node 19, Type 0, BuildingBlock: TATPOV_clean_sbu_0, # of connection points: 4
#     Node 20, Type 0, BuildingBlock: TATPOV_clean_sbu_0, # of connection points: 4
#     Node 21, Type 0, BuildingBlock: TATPOV_clean_sbu_0, # of connection points: 4
#     Node 22, Type 0, BuildingBlock: TATPOV_clean_sbu_0, # of connection points: 4
#     Node 23, Type 0, BuildingBlock: TATPOV_clean_sbu_0, # of connection points: 4
#     Node 24, Type 1, BuildingBlock: JUFBIX_clean_sbu_0, # of connection points: 6
#     Node 25, Type 1, BuildingBlock: JUFBIX_clean_sbu_0, # of connection points: 6
#     Node 26, Type 1, BuildingBlock: JUFBIX_clean_sbu_0, # of connection points: 6
#     Node 27, Type 1, BuildingBlock: JUFBIX_clean_sbu_0, # of connection points: 6
#     Node 28, Type 1, BuildingBlock: JUFBIX_clean_sbu_0, # of connection points: 6
#     Node 29, Type 1, BuildingBlock: JUFBIX_clean_sbu_0, # of connection points: 6
#     Node 30, Type 1, BuildingBlock: JUFBIX_clean_sbu_0, # of connection points: 6
#     Node 31, Type 1, BuildingBlock: JUFBIX_clean_sbu_0, # of connection points: 6
#     Node 32, Type 1, BuildingBlock: JUFBIX_clean_sbu_0, # of connection points: 6
#     Node 33, Type 1, BuildingBlock: JUFBIX_clean_sbu_0, # of connection points: 6
#     Node 34, Type 1, BuildingBlock: JUFBIX_clean_sbu_0, # of connection points: 6
#     Node 35, Type 1, BuildingBlock: JUFBIX_clean_sbu_0, # of connection points: 6
#     Node 36, Type 1, BuildingBlock: JUFBIX_clean_sbu_0, # of connection points: 6
#     Node 37, Type 1, BuildingBlock: JUFBIX_clean_sbu_0, # of connection points: 6
#     Node 38, Type 1, BuildingBlock: JUFBIX_clean_sbu_0, # of connection points: 6
#     Node 39, Type 1, BuildingBlock: JUFBIX_clean_sbu_0, # of connection points: 6
#     Edge 40, Type (0, 1), BuildingBlock: AJUNOK_clean_linker_0, # of connection points: 2
#     Edge 41, Type (0, 1), BuildingBlock: AJUNOK_clean_linker_0, # of connection points: 2
#     Edge 42, Type (0, 1), BuildingBlock: AJUNOK_clean_linker_0, # of connection points: 2
#     Edge 43, Type (0, 1), BuildingBlock: AJUNOK_clean_linker_0, # of connection points: 2
#     Edge 44, Type (0, 1), BuildingBlock: AJUNOK_clean_linker_0, # of connection points: 2
#     Edge 45, Type (0, 1), BuildingBlock: AJUNOK_clean_linker_0, # of connection points: 2
#     Edge 46, Type (0, 1), BuildingBlock: AJUNOK_clean_linker_0, # of connection points: 2
#     Edge 47, Type (0, 1), BuildingBlock: AJUNOK_clean_linker_0, # of connection points: 2
#     Edge 48, Type (0, 1), BuildingBlock: AJUNOK_clean_linker_0, # of connection points: 2
#     Edge 49, Type (0, 1), BuildingBlock: AJUNOK_clean_linker_0, # of connection points: 2
#     Edge 50, Type (0, 1), BuildingBlock: AJUNOK_clean_linker_0, # of connection points: 2
#     Edge 51, Type (0, 1), BuildingBlock: AJUNOK_clean_linker_0, # of connection points: 2
#     Edge 52, Type (0, 1), BuildingBlock: AJUNOK_clean_linker_0, # of connection points: 2
#     Edge 53, Type (0, 1), BuildingBlock: AJUNOK_clean_linker_0, # of connection points: 2
#     Edge 54, Type (0, 1), BuildingBlock: AJUNOK_clean_linker_0, # of connection points: 2
#     Edge 55, Type (0, 1), BuildingBlock: AJUNOK_clean_linker_0, # of connection points: 2
#     Edge 56, Type (0, 1), BuildingBlock: AJUNOK_clean_linker_0, # of connection points: 2
#     Edge 57, Type (0, 1), BuildingBlock: AJUNOK_clean_linker_0, # of connection points: 2
#     Edge 58, Type (0, 1), BuildingBlock: AJUNOK_clean_linker_0, # of connection points: 2
#     Edge 59, Type (0, 1), BuildingBlock: AJUNOK_clean_linker_0, # of connection points: 2
#     Edge 60, Type (0, 1), BuildingBlock: AJUNOK_clean_linker_0, # of connection points: 2
#     Edge 61, Type (0, 1), BuildingBlock: AJUNOK_clean_linker_0, # of connection points: 2
#     Edge 62, Type (0, 1), BuildingBlock: AJUNOK_clean_linker_0, # of connection points: 2
#     Edge 63, Type (0, 1), BuildingBlock: AJUNOK_clean_linker_0, # of connection points: 2
#     Edge 64, Type (0, 1), BuildingBlock: AJUNOK_clean_linker_0, # of connection points: 2
#     Edge 65, Type (0, 1), BuildingBlock: AJUNOK_clean_linker_0, # of connection points: 2
#     Edge 66, Type (0, 1), BuildingBlock: AJUNOK_clean_linker_0, # of connection points: 2
#     Edge 67, Type (0, 1), BuildingBlock: AJUNOK_clean_linker_0, # of connection points: 2
#     Edge 68, Type (0, 1), BuildingBlock: AJUNOK_clean_linker_0, # of connection points: 2
#     Edge 69, Type (0, 1), BuildingBlock: AJUNOK_clean_linker_0, # of connection points: 2
#     Edge 70, Type (0, 1), BuildingBlock: AJUNOK_clean_linker_0, # of connection points: 2
#     Edge 71, Type (0, 1), BuildingBlock: AJUNOK_clean_linker_0, # of connection points: 2
#     Edge 72, Type (0, 1), BuildingBlock: AJUNOK_clean_linker_0, # of connection points: 2
#     Edge 73, Type (0, 1), BuildingBlock: AJUNOK_clean_linker_0, # of connection points: 2
#     Edge 74, Type (0, 1), BuildingBlock: AJUNOK_clean_linker_0, # of connection points: 2
#     Edge 75, Type (0, 1), BuildingBlock: AJUNOK_clean_linker_0, # of connection points: 2
#     Edge 76, Type (0, 1), BuildingBlock: AJUNOK_clean_linker_0, # of connection points: 2
#     Edge 77, Type (0, 1), BuildingBlock: AJUNOK_clean_linker_0, # of connection points: 2
#     Edge 78, Type (0, 1), BuildingBlock: AJUNOK_clean_linker_0, # of connection points: 2
#     Edge 79, Type (0, 1), BuildingBlock: AJUNOK_clean_linker_0, # of connection points: 2
#     Edge 80, Type (0, 1), BuildingBlock: AJUNOK_clean_linker_0, # of connection points: 2
#     Edge 81, Type (0, 1), BuildingBlock: AJUNOK_clean_linker_0, # of connection points: 2
#     Edge 82, Type (0, 1), BuildingBlock: AJUNOK_clean_linker_0, # of connection points: 2
#     Edge 83, Type (0, 1), BuildingBlock: AJUNOK_clean_linker_0, # of connection points: 2
#     Edge 84, Type (0, 1), BuildingBlock: AJUNOK_clean_linker_0, # of connection points: 2
#     Edge 85, Type (0, 1), BuildingBlock: AJUNOK_clean_linker_0, # of connection points: 2
#     Edge 86, Type (0, 1), BuildingBlock: AJUNOK_clean_linker_0, # of connection points: 2
#     Edge 87, Type (0, 1), BuildingBlock: AJUNOK_clean_linker_0, # of connection points: 2
#     Edge 88, Type (0, 1), BuildingBlock: AJUNOK_clean_linker_0, # of connection points: 2
#     Edge 89, Type (0, 1), BuildingBlock: AJUNOK_clean_linker_0, # of connection points: 2
#     Edge 90, Type (0, 1), BuildingBlock: AJUNOK_clean_linker_0, # of connection points: 2
#     Edge 91, Type (0, 1), BuildingBlock: AJUNOK_clean_linker_0, # of connection points: 2
#     Edge 92, Type (0, 1), BuildingBlock: AJUNOK_clean_linker_0, # of connection points: 2
#     Edge 93, Type (0, 1), BuildingBlock: AJUNOK_clean_linker_0, # of connection points: 2
#     Edge 94, Type (0, 1), BuildingBlock: AJUNOK_clean_linker_0, # of connection points: 2
#     Edge 95, Type (0, 1), BuildingBlock: AJUNOK_clean_linker_0, # of connection points: 2
#     Edge 96, Type (0, 1), BuildingBlock: AJUNOK_clean_linker_0, # of connection points: 2
#     Edge 97, Type (0, 1), BuildingBlock: AJUNOK_clean_linker_0, # of connection points: 2
#     Edge 98, Type (0, 1), BuildingBlock: AJUNOK_clean_linker_0, # of connection points: 2
#     Edge 99, Type (0, 1), BuildingBlock: AJUNOK_clean_linker_0, # of connection points: 2
#     Edge 100, Type (0, 1), BuildingBlock: AJUNOK_clean_linker_0, # of connection points: 2
#     Edge 101, Type (0, 1), BuildingBlock: AJUNOK_clean_linker_0, # of connection points: 2
#     Edge 102, Type (0, 1), BuildingBlock: AJUNOK_clean_linker_0, # of connection points: 2
#     Edge 103, Type (0, 1), BuildingBlock: AJUNOK_clean_linker_0, # of connection points: 2
#     Edge 104, Type (0, 1), BuildingBlock: AJUNOK_clean_linker_0, # of connection points: 2
#     Edge 105, Type (0, 1), BuildingBlock: AJUNOK_clean_linker_0, # of connection points: 2
#     Edge 106, Type (0, 1), BuildingBlock: AJUNOK_clean_linker_0, # of connection points: 2
#     Edge 107, Type (0, 1), BuildingBlock: AJUNOK_clean_linker_0, # of connection points: 2
#     Edge 108, Type (0, 1), BuildingBlock: AJUNOK_clean_linker_0, # of connection points: 2
#     Edge 109, Type (0, 1), BuildingBlock: AJUNOK_clean_linker_0, # of connection points: 2
#     Edge 110, Type (0, 1), BuildingBlock: AJUNOK_clean_linker_0, # of connection points: 2
#     Edge 111, Type (0, 1), BuildingBlock: AJUNOK_clean_linker_0, # of connection points: 2
#     Edge 112, Type (0, 1), BuildingBlock: AJUNOK_clean_linker_0, # of connection points: 2
#     Edge 113, Type (0, 1), BuildingBlock: AJUNOK_clean_linker_0, # of connection points: 2
#     Edge 114, Type (0, 1), BuildingBlock: AJUNOK_clean_linker_0, # of connection points: 2
#     Edge 115, Type (0, 1), BuildingBlock: AJUNOK_clean_linker_0, # of connection points: 2
#     Edge 116, Type (0, 1), BuildingBlock: AJUNOK_clean_linker_0, # of connection points: 2
#     Edge 117, Type (0, 1), BuildingBlock: AJUNOK_clean_linker_0, # of connection points: 2
#     Edge 118, Type (0, 1), BuildingBlock: AJUNOK_clean_linker_0, # of connection points: 2
#     Edge 119, Type (0, 1), BuildingBlock: AJUNOK_clean_linker_0, # of connection points: 2
#     Edge 120, Type (0, 1), BuildingBlock: AJUNOK_clean_linker_0, # of connection points: 2
#     Edge 121, Type (0, 1), BuildingBlock: AJUNOK_clean_linker_0, # of connection points: 2
#     Edge 122, Type (0, 1), BuildingBlock: AJUNOK_clean_linker_0, # of connection points: 2
#     Edge 123, Type (0, 1), BuildingBlock: AJUNOK_clean_linker_0, # of connection points: 2
#     Edge 124, Type (0, 1), BuildingBlock: AJUNOK_clean_linker_0, # of connection points: 2
#     Edge 125, Type (0, 1), BuildingBlock: AJUNOK_clean_linker_0, # of connection points: 2
#     Edge 126, Type (0, 1), BuildingBlock: AJUNOK_clean_linker_0, # of connection points: 2
#     Edge 127, Type (0, 1), BuildingBlock: AJUNOK_clean_linker_0, # of connection points: 2
#     Edge 128, Type (0, 1), BuildingBlock: AJUNOK_clean_linker_0, # of connection points: 2
#     Edge 129, Type (0, 1), BuildingBlock: AJUNOK_clean_linker_0, # of connection points: 2
#     Edge 130, Type (0, 1), BuildingBlock: AJUNOK_clean_linker_0, # of connection points: 2
#     Edge 131, Type (0, 1), BuildingBlock: AJUNOK_clean_linker_0, # of connection points: 2
#     Edge 132, Type (0, 1), BuildingBlock: AJUNOK_clean_linker_0, # of connection points: 2
#     Edge 133, Type (0, 1), BuildingBlock: AJUNOK_clean_linker_0, # of connection points: 2
#     Edge 134, Type (0, 1), BuildingBlock: AJUNOK_clean_linker_0, # of connection points: 2
#     Edge 135, Type (0, 1), BuildingBlock: AJUNOK_clean_linker_0, # of connection points: 2
# Relax obj value: 0.261
# Max RMSD: 0.253
# Mean RMSD: 0.154
data_MOF--net-iac--node1-TATPOV_clean_sbu_0--node2-JUFBIX_clean_sbu_0--edge1-AJUNOK_clean_linker_0
_symmetry_space_group_name_H-M    P1
_symmetry_Int_Tables_number       1
_symmetry_cell_setting            triclinic
loop_
_symmetry_equiv_pos_as_xyz
'x, y, z'
_cell_length_a     40.406466
_cell_length_b     41.365105
_cell_length_c     41.581677
_cell_angle_alpha  89.158456
_cell_angle_beta   88.051773
_cell_angle_gamma 89.815722
loop_
_atom_site_label
_atom_site_type_symbol
_atom_site_fract_x
_atom_site_fract_y
_atom_site_fract_z
_atom_type_partial_charge
Zn0 Zn 0.08315 0.28218 0.12054 0.0
Zn1 Zn 0.03067 0.28464 0.15932 0.0
O2 O 0.02875 0.32977 0.13177 0.0
O3 O 0.07381 0.32743 0.10097 0.0
O4 O 0.98486 0.2829 0.18499 0.0
O5 O 0.06933 0.23982 0.09904 0.0
O6 O 0.02887 0.23817 0.13557 0.0
C7 C 0.04837 0.34314 0.11051 0.0
C8 C 0.10122 0.28274 0.18841 0.0
O9 O 0.06978 0.28618 0.19322 0.0
O10 O 0.1128 0.27922 0.15991 0.0
C11 C 0.96413 0.30612 0.18882 0.0
O12 O 0.97252 0.33505 0.17803 0.0
C13 C 0.04519 0.22463 0.11234 0.0
Zn14 Zn 0.99159 0.74675 0.45236 0.0
Zn15 Zn 0.05448 0.76602 0.43698 0.0
O16 O 0.04384 0.79322 0.47641 0.0
O17 O 0.99345 0.77653 0.49007 0.0
O18 O 0.10126 0.77426 0.422 0.0
O19 O 0.00596 0.7011 0.45493 0.0
O20 O 0.05711 0.71772 0.44516 0.0
C21 C 0.0181 0.79445 0.49497 0.0
C22 C 0.99885 0.77744 0.39087 0.0
O23 O 0.02877 0.78099 0.39826 0.0
O24 O 0.97814 0.76351 0.40978 0.0
C25 C 0.10772 0.76261 0.39435 0.0
O26 O 0.08424 0.74815 0.37894 0.0
C27 C 0.03647 0.69516 0.45088 0.0
Zn28 Zn 0.53103 0.75178 0.69844 0.0
Zn29 Zn 0.53653 0.79323 0.65346 0.0
O30 O 0.48887 0.80086 0.67722 0.0
O31 O 0.48692 0.76431 0.71615 0.0
O32 O 0.54036 0.83579 0.62177 0.0
O33 O 0.57136 0.76101 0.72237 0.0
O34 O 0.58079 0.79639 0.68328 0.0
C35 C 0.47323 0.7871 0.70104 0.0
C36 C 0.53355 0.71765 0.63909 0.0
O37 O 0.53522 0.74672 0.62706 0.0
O38 O 0.53198 0.71417 0.66934 0.0
C39 C 0.51611 0.85482 0.61495 0.0
O40 O 0.48633 0.84666 0.62574 0.0
C41 C 0.5902 0.782 0.70925 0.0
Zn42 Zn 0.49657 0.25612 0.96426 0.0
Zn43 Zn 0.5566 0.2761 0.93892 0.0
O44 O 0.54914 0.30698 0.97584 0.0
O45 O 0.49977 0.29271 0.99528 0.0
O46 O 0.59996 0.28723 0.91754 0.0
O47 O 0.51637 0.21325 0.97383 0.0
O48 O 0.56398 0.2291 0.95129 0.0
C49 C 0.52484 0.31097 0.99572 0.0
C50 C 0.49547 0.27779 0.89882 0.0
O51 O 0.52544 0.285 0.90297 0.0
O52 O 0.47799 0.26409 0.92079 0.0
C53 C 0.60598 0.27267 0.89127 0.0
O54 O 0.58381 0.25254 0.88082 0.0
C55 C 0.54598 0.20756 0.96496 0.0
Zn56 Zn 0.10694 0.03855 0.29756 0.0
Zn57 Zn 0.15007 0.99602 0.31449 0.0
O58 O 0.11441 0.98722 0.34942 0.0
O59 O 0.07611 0.01977 0.33088 0.0
O60 O 0.18562 0.96377 0.31915 0.0
O61 O 0.10498 0.02237 0.25351 0.0
O62 O 0.13567 0.98204 0.27063 0.0
C63 C 0.08498 0.99841 0.35091 0.0
C64 C 0.16546 0.06833 0.31466 0.0
O65 O 0.17453 0.03899 0.31759 0.0
O66 O 0.13618 0.07499 0.30712 0.0
C67 C 0.20936 0.96013 0.33799 0.0
O68 O 0.21196 0.97873 0.36309 0.0
C69 C 0.1189 0.99542 0.24896 0.0
Zn70 Zn 0.30819 0.89762 0.58761 0.0
Zn71 Zn 0.25205 0.91597 0.56265 0.0
O72 O 0.27174 0.88536 0.52975 0.0
O73 O 0.32304 0.87901 0.54527 0.0
O74 O 0.21115 0.93444 0.54416 0.0
O75 O 0.28076 0.86872 0.61613 0.0
O76 O 0.23408 0.89175 0.602 0.0
C77 C 0.30074 0.87372 0.52537 0.0
C78 C 0.3049 0.96388 0.58398 0.0
O79 O 0.2803 0.95563 0.56787 0.0
O80 O 0.32052 0.94273 0.59967 0.0
C81 C 0.20148 0.96162 0.55485 0.0
O82 O 0.21831 0.97576 0.57712 0.0
C83 C 0.2496 0.87118 0.61867 0.0
Zn84 Zn 0.44494 1.00324 0.74071 0.0
Zn85 Zn 0.42253 0.05998 0.76134 0.0
O86 O 0.4482 0.04569 0.79972 0.0
O87 O 0.46144 0.99605 0.78515 0.0
O88 O 0.40227 0.10207 0.77188 0.0
O89 O 0.47479 0.02589 0.70902 0.0
O90 O 0.44997 0.07173 0.72134 0.0
C91 C 0.46137 0.01837 0.80566 0.0
C92 C 0.37545 0.00677 0.74252 0.0
O93 O 0.38197 0.0327 0.75681 0.0
O94 O 0.39855 0.99003 0.72987 0.0
C95 C 0.38117 0.11118 0.75167 0.0
O96 O 0.37557 0.09297 0.72682 0.0
C97 C 0.47108 0.05594 0.70464 0.0
Zn98 Zn 0.23636 0.20008 0.04273 0.0
Zn99 Zn 0.28848 0.16249 0.04274 0.0
O100 O 0.29303 0.18861 0.99652 0.0
O101 O 0.24819 0.21894 0.99816 0.0
O102 O 0.33291 0.13556 0.04661 0.0
O103 O 0.24745 0.22324 0.08439 0.0
O104 O 0.28954 0.18982 0.08715 0.0
C105 C 0.27402 0.20942 0.98289 0.0
C106 C 0.21644 0.13276 0.04278 0.0
O107 O 0.24801 0.12824 0.04222 0.0
O108 O 0.20507 0.16132 0.04385 0.0
C109 C 0.34823 0.11892 0.02505 0.0
O110 O 0.33521 0.11692 0.99662 0.0
C111 C 0.27211 0.21285 0.09957 0.0
Zn112 Zn 0.79754 0.36697 0.08975 0.0
Zn113 Zn 0.752 0.39712 0.06108 0.0
O114 O 0.76636 0.36347 0.02773 0.0
O115 O 0.8126 0.34656 0.04919 0.0
O116 O 0.71869 0.42633 0.04058 0.0
O117 O 0.7641 0.34356 0.1161 0.0
O118 O 0.72567 0.37706 0.09952 0.0
C119 C 0.79296 0.34674 0.02622 0.0
C120 C 0.81478 0.42919 0.08671 0.0
O121 O 0.79029 0.4278 0.06848 0.0
O122 O 0.82163 0.40544 0.10472 0.0
C123 C 0.7173 0.45614 0.04774 0.0
O124 O 0.73816 0.46758 0.06822 0.0
C125 C 0.73442 0.35318 0.11685 0.0
Zn126 Zn 0.95398 0.49678 0.24051 0.0
Zn127 Zn 0.92524 0.54993 0.26265 0.0
O128 O 0.94726 0.53271 0.30215 0.0
O129 O 0.96677 0.48584 0.28519 0.0
O130 O 0.90307 0.59054 0.27531 0.0
O131 O 0.98479 0.52334 0.21308 0.0
O132 O 0.95538 0.56624 0.22619 0.0
C133 C 0.96183 0.50595 0.30746 0.0
C134 C 0.88409 0.49579 0.23638 0.0
O135 O 0.88691 0.52173 0.25187 0.0
O136 O 0.9098 0.48152 0.22548 0.0
C137 C 0.88404 0.60209 0.25437 0.0
O138 O 0.87945 0.5859 0.22794 0.0
C139 C 0.97903 0.55326 0.21024 0.0
Zn140 Zn 0.73413 0.70585 0.53923 0.0
Zn141 Zn 0.782 0.66428 0.53942 0.0
O142 O 0.78857 0.68972 0.49271 0.0
O143 O 0.74764 0.72475 0.4949 0.0
O144 O 0.82417 0.6349 0.54327 0.0
O145 O 0.74653 0.72725 0.58176 0.0
O146 O 0.78568 0.69063 0.58403 0.0
C147 C 0.77189 0.71248 0.47916 0.0
C148 C 0.70843 0.63974 0.53892 0.0
O149 O 0.73941 0.63249 0.53954 0.0
O150 O 0.69994 0.6693 0.53902 0.0
C151 C 0.841 0.6225 0.51997 0.0
O152 O 0.83099 0.62743 0.49057 0.0
C153 C 0.77021 0.71464 0.59687 0.0
Zn154 Zn 0.62287 0.53047 0.77833 0.0
Zn155 Zn 0.6627 0.49154 0.80349 0.0
O156 O 0.62395 0.49237 0.8364 0.0
O157 O 0.5861 0.51826 0.80928 0.0
O158 O 0.69456 0.45876 0.81958 0.0
O159 O 0.62831 0.51165 0.7355 0.0
O160 O 0.65276 0.47129 0.76013 0.0
C161 C 0.59458 0.50341 0.83449 0.0
C162 C 0.67891 0.56301 0.79633 0.0
O163 O 0.68857 0.53422 0.80191 0.0
O164 O 0.64981 0.5682 0.78739 0.0
C165 C 0.72307 0.46419 0.83012 0.0
O166 O 0.73287 0.49393 0.8343 0.0
C167 C 0.64126 0.48389 0.73483 0.0
Zn168 Zn 0.98067 0.79003 0.95251 0.0
Zn169 Zn 0.02995 0.78809 0.90989 0.0
O170 O 0.03561 0.83431 0.9329 0.0
O171 O 0.99637 0.83386 0.97068 0.0
O172 O 0.07251 0.78308 0.88085 0.0
O173 O 0.992 0.74574 0.9729 0.0
O174 O 0.0331 0.74335 0.93725 0.0
C175 C 0.02039 0.84848 0.95639 0.0
C176 C 0.95786 0.78925 0.88575 0.0
O177 O 0.98902 0.78891 0.87859 0.0
O178 O 0.94825 0.78954 0.91515 0.0
C179 C 0.09402 0.80537 0.87656 0.0
O180 O 0.08792 0.83377 0.8892 0.0
C181 C 0.01624 0.73012 0.96061 0.0
Zn182 Zn 0.0706 0.30712 0.6073 0.0
Zn183 Zn 0.0142 0.28938 0.64072 0.0
O184 O 0.00787 0.33674 0.63198 0.0
O185 O 0.05627 0.35332 0.6122 0.0
O186 O 0.97228 0.28029 0.66629 0.0
O187 O 0.05591 0.2802 0.57055 0.0
O188 O 0.01443 0.26126 0.60102 0.0
C189 C 0.02708 0.35927 0.62239 0.0
C190 C 0.08193 0.27661 0.66766 0.0
O191 O 0.05066 0.27809 0.67097 0.0
O192 O 0.09665 0.28579 0.64181 0.0
C193 C 0.97124 0.28271 0.69676 0.0
O194 O 0.99863 0.28751 0.71206 0.0
C195 C 0.03175 0.26103 0.5748 0.0
Zn196 Zn 0.4748 0.2985 0.44867 0.0
Zn197 Zn 0.52487 0.29691 0.40729 0.0
O198 O 0.52815 0.34269 0.43076 0.0
O199 O 0.49019 0.34045 0.4697 0.0
O200 O 0.56859 0.29823 0.37998 0.0
O201 O 0.48583 0.25309 0.46662 0.0
O202 O 0.52933 0.2521 0.43367 0.0
C203 C 0.51335 0.35585 0.45501 0.0
C204 C 0.4536 0.29869 0.38181 0.0
O205 O 0.48472 0.29536 0.37547 0.0
O206 O 0.44332 0.3019 0.41077 0.0
C207 C 0.58382 0.2733 0.3694 0.0
O208 O 0.57014 0.2448 0.37419 0.0
C209 C 0.51111 0.23811 0.45554 0.0
Zn210 Zn 0.50125 0.72989 0.15414 0.0
Zn211 Zn 0.51593 0.79181 0.14633 0.0
O212 O 0.4713 0.79078 0.17092 0.0
O213 O 0.46078 0.73949 0.18155 0.0
O214 O 0.52174 0.83798 0.13373 0.0
O215 O 0.54449 0.72748 0.17699 0.0
O216 O 0.55291 0.7801 0.17535 0.0
C217 C 0.4535 0.76904 0.18468 0.0
C218 C 0.51654 0.74499 0.08965 0.0
O219 O 0.52446 0.7712 0.10275 0.0
O220 O 0.50161 0.72314 0.10601 0.0
C221 C 0.50331 0.86116 0.14306 0.0
O222 O 0.48002 0.85602 0.1653 0.0
C223 C 0.56145 0.75185 0.18431 0.0
Zn224 Zn 0.96446 0.03618 0.77073 0.0
Zn225 Zn 0.91781 0.08022 0.75395 0.0
O226 O 0.93286 0.09688 0.7967 0.0
O227 O 0.9723 0.0622 0.80892 0.0
O228 O 0.88038 0.10969 0.74566 0.0
O229 O 0.98699 0.04827 0.72864 0.0
O230 O 0.95039 0.08565 0.71644 0.0
C231 C 0.95521 0.08706 0.81516 0.0
C232 C 0.90209 0.00855 0.76316 0.0
O233 O 0.89522 0.03712 0.75424 0.0
O234 O 0.93029 1.00128 0.77333 0.0
C235 C 0.85577 0.10656 0.76526 0.0
O236 O 0.85653 0.08391 0.78773 0.0
C237 C 0.97689 0.07015 0.70969 0.0
Zn238 Zn 0.75675 0.22216 0.49067 0.0
Zn239 Zn 0.80674 0.18692 0.50857 0.0
O240 O 0.82585 0.20937 0.46793 0.0
O241 O 0.7868 0.24545 0.45971 0.0
O242 O 0.84167 0.15489 0.52001 0.0
O243 O 0.75104 0.23886 0.53498 0.0
O244 O 0.79817 0.21578 0.5476 0.0
C245 C 0.81508 0.23389 0.45273 0.0
C246 C 0.74191 0.15692 0.48749 0.0
O247 O 0.76933 0.15599 0.50136 0.0
O248 O 0.73082 0.18365 0.47729 0.0
C249 C 0.84562 0.13272 0.49933 0.0
O250 O 0.82839 0.134 0.47312 0.0
C251 C 0.77363 0.23408 0.55481 0.0
Zn252 Zn 0.63848 0.09262 0.33568 0.0
Zn253 Zn 0.66544 0.00724 0.31466 0.0
O254 O 0.63153 0.99494 0.34911 0.0
O255 O 0.62416 0.04695 0.35041 0.0
O256 O 0.68198 0.96584 0.29763 0.0
O257 O 0.62986 0.08804 0.28846 0.0
O258 O 0.64373 0.03591 0.27972 0.0
C259 C 0.61521 0.01889 0.35958 0.0
C260 C 0.69815 0.05586 0.3412 0.0
O261 O 0.70658 0.02878 0.33026 0.0
O262 O 0.66864 0.05793 0.35204 0.0
C263 C 0.69844 0.95206 0.31941 0.0
O264 O 0.70016 0.96556 0.3477 0.0
C265 C 0.63198 0.06329 0.27045 0.0
Zn266 Zn 0.83924 0.86993 0.02778 0.0
Zn267 Zn 0.78769 0.90797 0.0358 0.0
O268 O 0.78112 0.88564 0.98931 0.0
O269 O 0.82141 0.84993 0.98651 0.0
O270 O 0.7444 0.93531 0.04305 0.0
O271 O 0.83211 0.84872 0.07287 0.0
O272 O 0.78672 0.87762 0.07872 0.0
C273 C 0.79631 0.86289 0.97398 0.0
C274 C 0.85918 0.93759 0.0288 0.0
O275 O 0.82809 0.94172 0.03503 0.0
O276 O 0.87012 0.90935 0.0234 0.0
C277 C 0.72902 0.94813 0.01974 0.0
O278 O 0.74207 0.94511 0.99058 0.0
C279 C 0.80676 0.85643 0.08998 0.0
Zn280 Zn 0.25509 0.71976 0.99497 0.0
Zn281 Zn 0.31181 0.69014 0.01026 0.0
O282 O 0.32453 0.71481 0.96948 0.0
O283 O 0.28054 0.74513 0.96169 0.0
O284 O 0.3541 0.66703 0.01757 0.0
O285 O 0.2527 0.73706 0.03966 0.0
O286 O 0.30226 0.71767 0.04938 0.0
C287 C 0.31012 0.7374 0.9545 0.0
C288 C 0.25033 0.65167 0.99476 0.0
O289 O 0.27888 0.65418 0.00618 0.0
O290 O 0.23491 0.6765 0.98524 0.0
C291 C 0.35667 0.63708 0.0241 0.0
O292 O 0.32996 0.62 0.03099 0.0
C293 C 0.27693 0.73417 0.05802 0.0
Zn294 Zn 0.14174 0.5737 0.82519 0.0
Zn295 Zn 0.16241 0.51781 0.80909 0.0
O296 O 0.13308 0.50842 0.8486 0.0
O297 O 0.10649 0.55451 0.85401 0.0
O298 O 0.18052 0.47422 0.80025 0.0
O299 O 0.13037 0.58267 0.77929 0.0
O300 O 0.13622 0.53054 0.77046 0.0
C301 C 0.10986 0.52501 0.86147 0.0
C302 C 0.20966 0.57122 0.82728 0.0
O303 O 0.20356 0.54557 0.81216 0.0
O304 O 0.18619 0.58641 0.84119 0.0
C305 C 0.20095 0.46343 0.8203 0.0
O306 O 0.21 0.48198 0.84382 0.0
C307 C 0.12694 0.55854 0.76137 0.0
Zn308 Zn 0.33113 0.3699 0.53275 0.0
Zn309 Zn 0.27952 0.40807 0.53917 0.0
O310 O 0.27422 0.38451 0.49282 0.0
O311 O 0.31559 0.35008 0.49048 0.0
O312 O 0.23635 0.43623 0.54507 0.0
O313 O 0.3224 0.34851 0.5772 0.0
O314 O 0.27828 0.37919 0.58334 0.0
C315 C 0.29018 0.3621 0.4777 0.0
C316 C 0.35135 0.43727 0.5357 0.0
O317 O 0.31995 0.44171 0.53914 0.0
O318 O 0.36251 0.40888 0.53169 0.0
C319 C 0.213 0.43593 0.52509 0.0
O320 O 0.21684 0.41809 0.49937 0.0
C321 C 0.29788 0.35762 0.5947 0.0
Zn322 Zn 0.46961 0.52188 0.24577 0.0
Zn323 Zn 0.42653 0.57026 0.24344 0.0
O324 O 0.44846 0.57511 0.28647 0.0
O325 O 0.48127 0.53283 0.29012 0.0
O326 O 0.39242 0.60514 0.24556 0.0
O327 O 0.4947 0.54326 0.20955 0.0
O328 O 0.45723 0.58163 0.20476 0.0
C329 C 0.46924 0.55843 0.30194 0.0
C330 C 0.40429 0.49996 0.23765 0.0
O331 O 0.39808 0.53002 0.23956 0.0
O332 O 0.43385 0.48994 0.23855 0.0
C333 C 0.37392 0.60562 0.27088 0.0
O334 O 0.37791 0.58347 0.29341 0.0
C335 C 0.48447 0.56857 0.19558 0.0
Co336 Co 0.03521 0.0472 0.00915 0.0
C337 C 0.02856 0.09113 0.06357 0.0
Co338 Co 0.03833 0.02583 0.05688 0.0
C339 C 0.0108 0.07291 0.94944 0.0
C340 C 0.05071 0.10005 0.9678 0.0
N341 N 0.03315 0.07254 0.97263 0.0
N342 N 0.01352 0.09977 0.9307 0.0
C343 C 0.0386 0.11689 0.9422 0.0
H344 H 0.99244 0.05423 0.94678 0.0
H345 H 0.06981 0.10853 0.98317 0.0
C346 C 0.04417 0.98196 0.00241 0.0
N347 N 0.04055 1.00048 0.09323 0.0
C348 C 0.06426 0.99945 0.11505 0.0
C349 C 0.02203 0.97377 0.09947 0.0
N350 N 0.06152 0.97299 0.13419 0.0
C351 C 0.03464 0.95705 0.12497 0.0
C352 C 0.97396 0.02336 0.03267 0.0
O353 O 0.04242 0.00737 0.98471 0.0
O354 O 0.04457 0.98586 0.03274 0.0
O355 O 0.99114 0.01817 0.05721 0.0
O356 O 0.98782 0.03802 0.00866 0.0
O357 O 0.03186 0.06593 0.08134 0.0
H358 H 1.00146 0.96603 0.08552 0.0
H359 H 0.08315 0.01773 0.11697 0.0
O360 O 0.02767 0.08687 0.03333 0.0
O361 O 0.08226 0.05571 0.00931 0.0
O362 O 0.08615 0.0342 0.05698 0.0
C363 C 0.09981 0.04973 0.03344 0.0
H364 H 0.0468 0.14045 0.93363 0.0
H365 H 0.02502 0.93492 0.13586 0.0
Co366 Co 0.30484 0.78301 0.3255 0.0
C367 C 0.30484 0.72495 0.29563 0.0
Co368 Co 0.27919 0.78549 0.28005 0.0
C369 C 0.31055 0.7976 0.3902 0.0
C370 C 0.35223 0.769 0.37508 0.0
N371 N 0.32399 0.78239 0.36466 0.0
N372 N 0.32882 0.79426 0.41634 0.0
C373 C 0.35546 0.77662 0.40707 0.0
H374 H 0.28818 0.812 0.38925 0.0
H375 H 0.36947 0.75514 0.3603 0.0
C376 C 0.27966 0.84355 0.30962 0.0
N377 N 0.25991 0.78618 0.24049 0.0
C378 C 0.27611 0.78082 0.21225 0.0
C379 C 0.22779 0.78867 0.23316 0.0
N380 N 0.2556 0.77888 0.18751 0.0
C381 C 0.22505 0.78405 0.20068 0.0
C382 C 0.23687 0.77116 0.33073 0.0
O383 O 0.29706 0.82815 0.32953 0.0
O384 O 0.2686 0.82898 0.28563 0.0
O385 O 0.23861 0.77384 0.30034 0.0
O386 O 0.26298 0.77446 0.34641 0.0
O387 O 0.29017 0.74123 0.27424 0.0
H388 H 0.20755 0.79248 0.25037 0.0
H389 H 0.30257 0.77826 0.2102 0.0
O390 O 0.31244 0.7386 0.32146 0.0
O391 O 0.34669 0.79094 0.30446 0.0
O392 O 0.31966 0.79745 0.26023 0.0
C393 C 0.34677 0.79698 0.27444 0.0
H394 H 0.3758 0.77008 0.42218 0.0
H395 H 0.20207 0.78322 0.18812 0.0
Co396 Co 0.49932 0.04232 0.52063 0.0
C397 C 0.52719 0.10199 0.50008 0.0
Co398 Co 0.55236 0.04401 0.52772 0.0
C399 C 0.43189 0.03488 0.53972 0.0
C400 C 0.43732 0.05869 0.49386 0.0
N401 N 0.45453 0.04364 0.51696 0.0
N402 N 0.40116 0.04455 0.53231 0.0
C403 C 0.4044 0.05919 0.50321 0.0
H404 H 0.43806 0.02138 0.56117 0.0
H405 H 0.44814 0.06945 0.4721 0.0
C406 C 0.524 0.98445 0.54939 0.0
N407 N 0.59716 0.04399 0.53064 0.0
C408 C 0.61803 0.05568 0.50759 0.0
C409 C 0.61606 0.03702 0.55587 0.0
N410 N 0.64921 0.05776 0.5176 0.0
C411 C 0.64819 0.04579 0.548 0.0
C412 C 0.51842 0.06694 0.57918 0.0
O413 O 0.49782 0.99776 0.53867 0.0
O414 O 0.55076 1.00072 0.54711 0.0
O415 O 0.54767 0.06223 0.56847 0.0
O416 O 0.49427 0.05909 0.56229 0.0
O417 O 0.55403 0.08829 0.50822 0.0
H418 H 0.6067 0.02842 0.57911 0.0
H419 H 0.60995 0.06482 0.48461 0.0
O420 O 0.5007 0.08583 0.5037 0.0
O421 O 0.50419 0.02606 0.47856 0.0
O422 O 0.55734 0.02576 0.48723 0.0
C423 C 0.53361 0.01982 0.46922 0.0
H424 H 0.38443 0.06945 0.48964 0.0
H425 H 0.66833 0.04633 0.56447 0.0
Co426 Co 0.30983 0.29534 0.79322 0.0
C427 C 0.28717 0.30554 0.72923 0.0
Co428 Co 0.26219 0.2732 0.78502 0.0
C429 C 0.37571 0.29859 0.81133 0.0
C430 C 0.36283 0.34184 0.78586 0.0
N431 N 0.35035 0.31364 0.79755 0.0
N432 N 0.40384 0.3157 0.80829 0.0
C433 C 0.39593 0.34334 0.79285 0.0
H434 H 0.37339 0.2755 0.82379 0.0
H435 H 0.34891 0.35983 0.77283 0.0
C436 C 0.28495 0.26242 0.84887 0.0
N437 N 0.2222 0.25389 0.7807 0.0
C438 C 0.1961 0.26613 0.76561 0.0
C439 C 0.2134 0.22347 0.78952 0.0
N440 N 0.17147 0.24457 0.76443 0.0
C441 C 0.18217 0.21746 0.77893 0.0
C442 C 0.3142 0.23279 0.77179 0.0
O443 O 0.3093 0.27969 0.83852 0.0
O444 O 0.26196 0.25732 0.82937 0.0
O445 O 0.28301 0.2349 0.77146 0.0
O446 O 0.33076 0.25684 0.78045 0.0
O447 O 0.26228 0.2893 0.74005 0.0
H448 H 0.22935 0.20627 0.80131 0.0
H449 H 0.19602 0.28956 0.75363 0.0
O450 O 0.31051 0.31047 0.74844 0.0
O451 O 0.28917 0.33396 0.80594 0.0
O452 O 0.24108 0.31159 0.79834 0.0
C453 C 0.25787 0.33602 0.80591 0.0
H454 H 0.4128 0.36303 0.78709 0.0
H455 H 0.16917 0.19461 0.78002 0.0
Co456 Co 1.00325 0.00586 0.53254 0.0
C457 C 0.0115 0.05101 0.57907 0.0
Co458 Co 0.02197 0.05252 0.51364 0.0
C459 C 0.00561 0.93849 0.54031 0.0
C460 C 0.96776 0.95776 0.57174 0.0
N461 N 0.99076 0.96625 0.54891 0.0
N462 N 0.99337 0.91292 0.55696 0.0
C463 C 0.96904 0.92467 0.57647 0.0
H464 H 0.02455 0.93699 0.52133 0.0
H465 H 0.95119 0.97448 0.58399 0.0
C466 C 0.01495 0.00705 0.46728 0.0
N467 N 0.03485 0.09251 0.49799 0.0
C468 C 0.01847 0.11971 0.50592 0.0
C469 C 0.06399 0.10254 0.48472 0.0
N470 N 0.03657 0.14646 0.49989 0.0
C471 C 0.06524 0.1358 0.48612 0.0
C472 C 0.07204 0.01226 0.52923 0.0
O473 O 0.00379 0.98941 0.49032 0.0
O474 O 0.02433 0.03571 0.47237 0.0
O475 O 0.06638 0.04078 0.51938 0.0
O476 O 0.04799 0.9935 0.53596 0.0
O477 O 0.01964 0.06948 0.55563 0.0
H478 H 0.08425 0.08674 0.47762 0.0
H479 H 0.99491 0.11962 0.51905 0.0
O480 O 1.00352 0.02196 0.5742 0.0
O481 O 0.95821 0.01859 0.52921 0.0
O482 O 0.97784 0.06376 0.50788 0.0
C483 C 0.9535 0.04633 0.51675 0.0
H484 H 0.95322 0.91036 0.59263 0.0
H485 H 0.08698 0.15039 0.48083 0.0
Co486 Co 0.28258 0.82077 0.78616 0.0
C487 C 0.22444 0.79048 0.81149 0.0
Co488 Co 0.2782 0.76973 0.7746 0.0
C489 C 0.29015 0.88719 0.77288 0.0
C490 C 0.26575 0.87978 0.81877 0.0
N491 N 0.28046 0.86402 0.79396 0.0
N492 N 0.28183 0.91697 0.78305 0.0
C493 C 0.26667 0.91244 0.81216 0.0
H494 H 0.30403 0.8821 0.75087 0.0
H495 H 0.25486 0.8683 0.84013 0.0
C496 C 0.3364 0.80049 0.74908 0.0
N497 N 0.28026 0.72637 0.76668 0.0
C498 C 0.27321 0.70266 0.78818 0.0
C499 C 0.2943 0.71144 0.74102 0.0
N500 N 0.28299 0.67341 0.77748 0.0
C501 C 0.29594 0.67882 0.74758 0.0
C502 C 0.24823 0.80649 0.73101 0.0
O503 O 0.32456 0.82561 0.7625 0.0
O504 O 0.31967 0.77458 0.75143 0.0
O505 O 0.25509 0.77707 0.73662 0.0
O506 O 0.25928 0.82813 0.74895 0.0
O507 O 0.23591 0.76506 0.79818 0.0
H508 H 0.30363 0.72357 0.71936 0.0
H509 H 0.26084 0.70703 0.81117 0.0
O510 O 0.24162 0.81604 0.8093 0.0
O511 O 0.30547 0.81372 0.82355 0.0
O512 O 0.30138 0.76234 0.81274 0.0
C513 C 0.3116 0.78453 0.83065 0.0
H514 H 0.25758 0.93136 0.82788 0.0
H515 H 0.30597 0.66058 0.73157 0.0
Co516 Co 0.5327 0.01916 0.01826 0.0
C517 C 0.59698 0.00752 0.0385 0.0
Co518 Co 0.54243 0.04246 0.06356 0.0
C519 C 0.51264 0.01179 0.95434 0.0
C520 C 0.53194 0.96746 0.97326 0.0
N521 N 0.52512 0.99839 0.98091 0.0
N522 N 0.51158 0.99063 0.9302 0.0
C523 C 0.52346 0.96255 0.94196 0.0
H524 H 0.50502 0.03685 0.95257 0.0
H525 H 0.54258 0.94976 0.98933 0.0
C526 C 0.4781 0.05485 0.0411 0.0
N527 N 0.55046 0.06361 0.10067 0.0
C528 C 0.5664 0.05197 0.12621 0.0
C529 C 0.54322 0.09462 0.10761 0.0
N530 N 0.56998 0.07466 0.1487 0.0
C531 C 0.55517 0.10148 0.13725 0.0
C532 C 0.55814 0.07993 0.00984 0.0
O533 O 0.48827 0.03578 0.01916 0.0
O534 O 0.49777 0.06114 0.06354 0.0
O535 O 0.55866 0.07824 0.04021 0.0
O536 O 0.54706 0.05621 0.99465 0.0
O537 O 0.58735 0.02377 0.06296 0.0
H538 H 0.53061 0.11127 0.09185 0.0
H539 H 0.57496 0.02723 0.12824 0.0
O540 O 0.57655 1.00296 0.01658 0.0
O541 O 0.51871 0.98209 0.04203 0.0
O542 O 0.52634 0.00666 0.08748 0.0
C543 C 0.51771 0.98178 0.07256 0.0
H544 H 0.52544 0.94002 0.92913 0.0
H545 H 0.55374 0.12456 0.14916 0.0
Co546 Co 0.27485 0.26615 0.29664 0.0
C547 C 0.3382 0.2915 0.30123 0.0
Co548 Co 0.27726 0.3158 0.27886 0.0
C549 C 0.25224 0.20174 0.30468 0.0
C550 C 0.28659 0.21373 0.34062 0.0
N551 N 0.27173 0.22563 0.31435 0.0
N552 N 0.25388 0.17555 0.32406 0.0
C553 C 0.2755 0.18277 0.34675 0.0
H554 H 0.23636 0.2038 0.28429 0.0
H555 H 0.30355 0.22706 0.35497 0.0
C556 C 0.21378 0.29017 0.27365 0.0
N557 N 0.28057 0.35651 0.26089 0.0
C558 C 0.30332 0.37899 0.26708 0.0
C559 C 0.2637 0.36882 0.23599 0.0
N560 N 0.30173 0.40451 0.24681 0.0
C561 C 0.27674 0.39848 0.22725 0.0
C562 C 0.28646 0.26706 0.2302 0.0
O563 O 0.22766 0.26571 0.28657 0.0
O564 O 0.23059 0.31594 0.27028 0.0
O565 O 0.28554 0.29737 0.23576 0.0
O566 O 0.28415 0.24784 0.25437 0.0
O567 O 0.32449 0.31578 0.28792 0.0
H568 H 0.24449 0.35626 0.22373 0.0
H569 H 0.3219 0.3761 0.28506 0.0
O570 O 0.32108 0.26612 0.30583 0.0
O571 O 0.26593 0.28437 0.33954 0.0
O572 O 0.26911 0.33413 0.32174 0.0
C573 C 0.26643 0.31453 0.34569 0.0
H574 H 0.28145 0.16751 0.36713 0.0
H575 H 0.27006 0.41328 0.20677 0.0
Co576 Co 0.53054 0.52862 0.02376 0.0
C577 C 0.54105 0.5714 0.07242 0.0
Co578 Co 0.55327 0.57451 0.00736 0.0
C579 C 0.52656 0.46075 0.03041 0.0
C580 C 0.49107 0.48365 0.06198 0.0
N581 N 0.51476 0.48981 0.03906 0.0
N582 N 0.51167 0.43659 0.04724 0.0
C583 C 0.48889 0.4507 0.06685 0.0
H584 H 0.5453 0.4574 0.01152 0.0
H585 H 0.47649 0.50192 0.07434 0.0
C586 C 0.54235 0.53183 0.95861 0.0
N587 N 0.56858 0.61457 0.99341 0.0
C588 C 0.55215 0.64169 0.00145 0.0
C589 C 0.59751 0.62495 0.97978 0.0
N590 N 0.56921 0.66865 0.99392 0.0
C591 C 0.59815 0.65845 0.98049 0.0
C592 C 0.59973 0.52944 0.02084 0.0
O593 O 0.53028 0.51381 0.981 0.0
O594 O 0.55396 0.55944 0.96498 0.0
O595 O 0.5973 0.55895 0.01224 0.0
O596 O 0.57376 0.51313 0.02702 0.0
O597 O 0.55211 0.58991 0.05014 0.0
H598 H 0.61767 0.60931 0.97208 0.0
H599 H 0.52942 0.64177 0.01601 0.0
O600 O 0.53111 0.54334 0.06597 0.0
O601 O 0.48708 0.54395 0.02069 0.0
O602 O 0.50918 0.58903 0.00269 0.0
C603 C 0.48365 0.57272 0.01062 0.0
H604 H 0.4719 0.4381 0.08333 0.0
H605 H 0.61892 0.67383 0.97368 0.0
Co606 Co 0.77429 0.31232 0.28624 0.0
C607 C 0.71833 0.28338 0.31169 0.0
Co608 Co 0.77295 0.26184 0.27221 0.0
C609 C 0.78279 0.37725 0.26921 0.0
C610 C 0.77664 0.37264 0.32037 0.0
N611 N 0.77646 0.35566 0.29302 0.0
N612 N 0.78814 0.40703 0.28029 0.0
C613 C 0.78415 0.40434 0.31261 0.0
H614 H 0.78581 0.37063 0.2442 0.0
H615 H 0.7739 0.36225 0.34434 0.0
C616 C 0.82922 0.29058 0.24644 0.0
N617 N 0.76965 0.2185 0.26533 0.0
C618 C 0.76186 0.19695 0.28885 0.0
C619 C 0.76863 0.20193 0.23774 0.0
N620 N 0.75482 0.16773 0.27726 0.0
C621 C 0.75951 0.17052 0.24505 0.0
C622 C 0.73931 0.29974 0.23106 0.0
O623 O 0.81559 0.31471 0.26041 0.0
O624 O 0.81397 0.26371 0.24769 0.0
O625 O 0.74862 0.27072 0.235 0.0
O626 O 0.74899 0.32092 0.25019 0.0
O627 O 0.73164 0.25983 0.29676 0.0
H628 H 0.77248 0.21238 0.21392 0.0
H629 H 0.76048 0.20306 0.31404 0.0
O630 O 0.73387 0.31003 0.31173 0.0
O631 O 0.7992 0.30387 0.32263 0.0
O632 O 0.79726 0.25302 0.30945 0.0
C633 C 0.8072 0.27471 0.32803 0.0
H634 H 0.78941 0.42304 0.32962 0.0
H635 H 0.755 0.15172 0.22792 0.0
Co636 Co 0.01989 0.51307 0.51964 0.0
C637 C 0.08404 0.50183 0.53995 0.0
Co638 Co 0.03186 0.54271 0.56045 0.0
C639 C 0.99783 0.49878 0.45816 0.0
C640 C 0.01614 0.45614 0.48136 0.0
N641 N 0.01033 0.48795 0.48573 0.0
N642 N 0.99594 0.47525 0.43647 0.0
C643 C 0.00731 0.44821 0.45077 0.0
H644 H 0.99153 0.52385 0.45356 0.0
H645 H 0.02687 0.44005 0.49894 0.0
C646 C 0.96765 0.55399 0.53802 0.0
N647 N 0.04171 0.56719 0.59485 0.0
C648 C 0.05791 0.55579 0.62025 0.0
C649 C 0.03386 0.59803 0.60196 0.0
N650 N 0.06005 0.57787 0.64337 0.0
C651 C 0.04537 0.60478 0.63198 0.0
C652 C 0.04814 0.57128 0.50256 0.0
O653 O 0.97703 0.53217 0.51856 0.0
O654 O 0.98761 0.56234 0.55953 0.0
O655 O 0.04819 0.57501 0.53272 0.0
O656 O 0.03641 0.54562 0.4913 0.0
O657 O 0.07614 0.52309 0.56072 0.0
H658 H 0.02029 0.61429 0.58658 0.0
H659 H 0.06804 0.53158 0.62166 0.0
O660 O 0.06257 0.49398 0.51999 0.0
O661 O 1.00352 0.48081 0.5477 0.0
O662 O 0.01586 0.51017 0.58885 0.0
C663 C 0.00443 0.48433 0.57784 0.0
H664 H 0.0094 0.42467 0.43985 0.0
H665 H 0.04262 0.62733 0.64468 0.0
Co666 Co 0.81665 0.79018 0.28657 0.0
C667 C 0.79492 0.79882 0.222 0.0
Co668 Co 0.76911 0.76781 0.27798 0.0
C669 C 0.88287 0.79753 0.30472 0.0
C670 C 0.86628 0.83952 0.27933 0.0
N671 N 0.85625 0.81041 0.29107 0.0
N672 N 0.90932 0.81709 0.30175 0.0
C673 C 0.89912 0.8438 0.28609 0.0
H674 H 0.88278 0.77423 0.31691 0.0
H675 H 0.85088 0.85625 0.26628 0.0
C676 C 0.79024 0.75968 0.34302 0.0
N677 N 0.72964 0.74768 0.27301 0.0
C678 C 0.70465 0.75774 0.25489 0.0
C679 C 0.71922 0.71967 0.28691 0.0
N680 N 0.67907 0.73702 0.25668 0.0
C681 C 0.68793 0.7131 0.27698 0.0
C682 C 0.82234 0.72725 0.2682 0.0
O683 O 0.81539 0.77579 0.33247 0.0
O684 O 0.76765 0.75412 0.3232 0.0
O685 O 0.79113 0.72916 0.26686 0.0
O686 O 0.83874 0.75191 0.27556 0.0
O687 O 0.77034 0.78215 0.23268 0.0
H688 H 0.73344 0.70502 0.30322 0.0
H689 H 0.70536 0.77964 0.2403 0.0
O690 O 0.81805 0.80424 0.24128 0.0
O691 O 0.79474 0.8283 0.29778 0.0
O692 O 0.74684 0.8061 0.28893 0.0
C693 C 0.76353 0.83038 0.29693 0.0
H694 H 0.9143 0.8646 0.27976 0.0
H695 H 0.6728 0.6926 0.28438 0.0
Co696 Co 0.8011 0.28213 0.8176 0.0
C697 C 0.79035 0.2259 0.78519 0.0
Co698 Co 0.7768 0.28968 0.77183 0.0
C699 C 0.80703 0.2897 0.88375 0.0
C700 C 0.8427 0.25508 0.86681 0.0
N701 N 0.81856 0.27521 0.85701 0.0
N702 N 0.82257 0.27948 0.90997 0.0
C703 C 0.84534 0.2578 0.89969 0.0
H704 H 0.78762 0.30778 0.88398 0.0
H705 H 0.85704 0.23928 0.85117 0.0
C706 C 0.78754 0.34587 0.8044 0.0
N707 N 0.75982 0.29661 0.7321 0.0
C708 C 0.77125 0.28154 0.70559 0.0
C709 C 0.73709 0.3179 0.72171 0.0
N710 N 0.75708 0.29254 0.67885 0.0
C711 C 0.73517 0.31527 0.68878 0.0
C712 C 0.73179 0.28199 0.82105 0.0
O713 O 0.80084 0.32719 0.82465 0.0
O714 O 0.77563 0.33421 0.77927 0.0
O715 O 0.73376 0.28566 0.7907 0.0
O716 O 0.75803 0.27948 0.83676 0.0
O717 O 0.77814 0.24473 0.76443 0.0
H718 H 0.7233 0.3345 0.73695 0.0
H719 H 0.78967 0.26264 0.70608 0.0
O720 O 0.80114 0.23743 0.81086 0.0
O721 O 0.84416 0.28481 0.7983 0.0
O722 O 0.81969 0.29378 0.75294 0.0
C723 C 0.84609 0.29036 0.7682 0.0
H724 H 0.86219 0.24464 0.91481 0.0
H725 H 0.71923 0.32916 0.67335 0.0
Co726 Co 0.77808 0.76666 0.79505 0.0
C727 C 0.8438 0.78658 0.80115 0.0
Co728 Co 0.78654 0.81456 0.77523 0.0
C729 C 0.75548 0.70255 0.79998 0.0
C730 C 0.78291 0.71503 0.8411 0.0
N731 N 0.77189 0.72687 0.81298 0.0
N732 N 0.7557 0.67591 0.81876 0.0
C733 C 0.77281 0.68345 0.8448 0.0
H734 H 0.74339 0.70441 0.77718 0.0
H735 H 0.79707 0.72858 0.8579 0.0
C736 C 0.72047 0.79408 0.7697 0.0
N737 N 0.79306 0.85442 0.75727 0.0
C738 C 0.81383 0.87712 0.76712 0.0
C739 C 0.77817 0.86764 0.73169 0.0
N740 N 0.81254 0.90413 0.74881 0.0
C741 C 0.78983 0.89843 0.72662 0.0
C742 C 0.7917 0.76562 0.72788 0.0
O743 O 0.7313 0.7696 0.78513 0.0
O744 O 0.7402 0.81757 0.76452 0.0
O745 O 0.79506 0.79573 0.73295 0.0
O746 O 0.78618 0.7473 0.75238 0.0
O747 O 0.83359 0.81163 0.78621 0.0
H748 H 0.76014 0.85566 0.71752 0.0
H749 H 0.83004 0.87361 0.78707 0.0
O750 O 0.82379 0.76319 0.80508 0.0
O751 O 0.77019 0.78555 0.83743 0.0
O752 O 0.77783 0.83408 0.81766 0.0
C753 C 0.77273 0.81577 0.84227 0.0
H754 H 0.7767 0.66772 0.86536 0.0
H755 H 0.78179 0.91525 0.70831 0.0
Co756 Co 0.5224 0.55262 0.51599 0.0
C757 C 0.52095 0.59222 0.57194 0.0
Co758 Co 0.53354 0.52704 0.56033 0.0
C759 C 0.50089 0.56676 0.453 0.0
C760 C 0.52309 0.60801 0.47391 0.0
N761 N 0.51454 0.57691 0.48001 0.0
N762 N 0.50072 0.59015 0.43031 0.0
C763 C 0.51465 0.61622 0.44306 0.0
H764 H 0.49265 0.54224 0.44937 0.0
H765 H 0.53598 0.62325 0.49027 0.0
C766 C 0.53565 0.48706 0.50514 0.0
N767 N 0.54081 0.50074 0.59556 0.0
C768 C 0.56688 0.49972 0.61476 0.0
C769 C 0.52511 0.47226 0.6011 0.0
N770 N 0.56838 0.47153 0.63151 0.0
C771 C 0.54201 0.45428 0.62305 0.0
C772 C 0.466 0.52313 0.54332 0.0
O773 O 0.5298 0.51332 0.48987 0.0
O774 O 0.53972 0.48894 0.53511 0.0
O775 O 0.48679 0.51662 0.56476 0.0
O776 O 0.4758 0.54076 0.51955 0.0
O777 O 0.52767 0.56547 0.58613 0.0
H778 H 0.50434 0.4637 0.58793 0.0
H779 H 0.58515 0.51875 0.61547 0.0
O780 O 0.51515 0.59138 0.54201 0.0
O781 O 0.56871 0.56453 0.51199 0.0
O782 O 0.58062 0.53804 0.55585 0.0
C783 C 0.58994 0.55694 0.5328 0.0
H784 H 0.52011 0.63869 0.43033 0.0
H785 H 0.53632 0.42973 0.63059 0.0
Co786 Co 0.00891 0.53447 0.02969 0.0
C787 C 0.03401 0.5947 0.00757 0.0
Co788 Co 0.06197 0.53843 0.03678 0.0
C789 C 0.94341 0.51929 0.04867 0.0
C790 C 0.94511 0.54063 0.00146 0.0
N791 N 0.96416 0.53248 0.02634 0.0
N792 N 0.91229 0.51801 0.03858 0.0
C793 C 0.91297 0.5314 0.00889 0.0
H794 H 0.95138 0.50844 0.07098 0.0
H795 H 0.95434 0.55073 0.97876 0.0
C796 C 0.03605 0.4781 0.05931 0.0
N797 N 0.107 0.54012 0.04003 0.0
C798 C 0.128 0.55671 0.02031 0.0
C799 C 0.12639 0.52436 0.06089 0.0
N800 N 0.15983 0.55202 0.02778 0.0
C801 C 0.15893 0.5317 0.05345 0.0
C802 C 0.02679 0.56221 0.08707 0.0
O803 O 0.0092 0.49065 0.04967 0.0
O804 O 0.06226 0.49499 0.05594 0.0
O805 O 0.05629 0.55673 0.07739 0.0
O806 O 1.00297 0.55328 0.07025 0.0
O807 O 0.06113 0.58254 0.01713 0.0
H808 H 0.1175 0.50885 0.08047 0.0
H809 H 0.11986 0.573 0.00163 0.0
O810 O 0.00817 0.57729 0.01048 0.0
O811 O 0.01504 0.516 0.98855 0.0
O812 O 0.06814 0.52022 0.99655 0.0
C813 C 0.04483 0.51133 0.97918 0.0
H814 H 0.89244 0.53187 0.99282 0.0
H815 H 0.18015 0.52342 0.06648 0.0
C816 C 0.03266 0.16419 0.12154 0.0
C817 C 0.03688 0.19117 0.10047 0.0
C818 C 0.02928 0.13214 0.10986 0.0
C819 C 0.02917 0.12552 0.07653 0.0
H820 H 0.03334 0.16767 0.14727 0.0
H821 H 0.02732 0.11236 0.12715 0.0
S822 S 0.03679 0.1882 0.01131 0.0
N823 N 0.03948 0.20894 0.04471 0.0
N824 N 0.03175 0.15019 0.02293 0.0
C825 C 0.03202 0.15273 0.05545 0.0
C826 C 0.03624 0.18497 0.06731 0.0
C827 C 0.14425 0.77343 0.34651 0.0
C828 C 0.14092 0.76499 0.37924 0.0
C829 C 0.17542 0.77482 0.33099 0.0
C830 C 0.20434 0.76739 0.34757 0.0
H831 H 0.12261 0.77937 0.33288 0.0
H832 H 0.17681 0.78222 0.30589 0.0
S833 S 0.20782 0.73894 0.43248 0.0
N834 N 0.16817 0.74631 0.42718 0.0
N835 N 0.22712 0.74828 0.39793 0.0
C836 C 0.20114 0.75788 0.38019 0.0
C837 C 0.1693 0.75685 0.39606 0.0
C838 C 0.49159 0.90326 0.58548 0.0
C839 C 0.52006 0.88685 0.59642 0.0
C840 C 0.49317 0.93407 0.57014 0.0
C841 C 0.52333 0.95075 0.56489 0.0
H842 H 0.46742 0.89229 0.589 0.0
H843 H 0.47026 0.9451 0.56272 0.0
S844 S 0.60568 0.9192 0.58836 0.0
N845 N 0.57976 0.89024 0.60023 0.0
N846 N 0.58285 0.94775 0.57187 0.0
C847 C 0.55216 0.93459 0.57538 0.0
C848 C 0.55053 0.90296 0.59088 0.0
C849 C 0.47318 0.32077 0.8641 0.0
C850 C 0.47977 0.28784 0.86943 0.0
C851 C 0.4504 0.33042 0.84126 0.0
C852 C 0.43404 0.30727 0.82328 0.0
H853 H 0.48346 0.33883 0.8795 0.0
H854 H 0.44334 0.35565 0.8398 0.0
S855 S 0.44921 0.21884 0.82354 0.0
N856 N 0.47257 0.23266 0.85211 0.0
N857 N 0.43092 0.25087 0.80786 0.0
C858 C 0.44368 0.27468 0.82584 0.0
C859 C 0.46623 0.26487 0.84947 0.0
C860 C 0.98234 0.82812 0.53127 0.0
C861 C 0.01427 0.82056 0.5187 0.0
C862 C 0.97603 0.85741 0.54668 0.0
C863 C 1.00144 0.8799 0.55022 0.0
H864 H 0.96147 0.81258 0.52702 0.0
H865 H 0.95069 0.86361 0.55335 0.0
S866 S 0.09055 0.86844 0.5292 0.0
N867 N 0.07254 0.83557 0.51613 0.0
N868 N 0.06056 0.89036 0.54586 0.0
C869 C 0.03404 0.87104 0.5413 0.0
C870 C 0.0405 0.84138 0.52535 0.0
C871 C 0.41662 0.76633 0.71302 0.0
C872 C 0.43755 0.79327 0.7089 0.0
C873 C 0.38385 0.76941 0.7246 0.0
C874 C 0.37032 0.79962 0.7333 0.0
H875 H 0.42593 0.74229 0.70785 0.0
H876 H 0.36942 0.7475 0.7278 0.0
S877 S 0.41427 0.8783 0.72543 0.0
N878 N 0.4421 0.85156 0.71275 0.0
N879 N 0.38039 0.85758 0.73527 0.0
C880 C 0.39064 0.82711 0.72829 0.0
C881 C 0.42421 0.82391 0.7159 0.0
C882 C 0.57224 0.16903 0.00138 0.0
C883 C 0.55925 0.1756 0.97125 0.0
C884 C 0.57532 0.13721 0.01239 0.0
C885 C 0.56491 0.11121 0.9937 0.0
H886 H 0.57752 0.18857 0.0175 0.0
H887 H 0.5833 0.13326 0.03676 0.0
S888 S 0.53492 0.11671 0.91041 0.0
N889 N 0.54032 0.15462 0.92098 0.0
N890 N 0.54612 0.09431 0.94143 0.0
C891 C 0.55526 0.11761 0.96203 0.0
C892 C 0.5522 0.15009 0.95091 0.0
C893 C 0.14645 0.25672 0.22047 0.0
C894 C 0.12532 0.28338 0.21523 0.0
C895 C 0.17335 0.25839 0.24133 0.0
C896 C 0.18121 0.28721 0.25715 0.0
H897 H 0.14277 0.23456 0.2075 0.0
H898 H 0.18933 0.23744 0.24348 0.0
S899 S 0.13375 0.36405 0.25183 0.0
N900 N 0.11373 0.33925 0.22854 0.0
N901 N 0.16481 0.34294 0.26636 0.0
C902 C 0.15991 0.31388 0.25253 0.0
C903 C 0.13195 0.31185 0.23199 0.0
C904 C 0.07697 0.96639 0.2207 0.0
C905 C 0.1097 0.97743 0.22114 0.0
C906 C 0.06208 0.96106 0.19159 0.0
C907 C 0.07962 0.96704 0.16246 0.0
H908 H 0.06184 0.96514 0.24272 0.0
H909 H 0.03583 0.95586 0.19186 0.0
S910 S 0.16859 0.98688 0.15181 0.0
N911 N 0.16125 0.98759 0.19115 0.0
N912 N 0.13312 0.97722 0.1358 0.0
C913 C 0.11363 0.97365 0.16287 0.0
C914 C 0.12881 0.97903 0.19257 0.0
C915 C 0.34068 0.84691 0.4872 0.0
C916 C 0.30782 0.85204 0.49834 0.0
C917 C 0.34778 0.82643 0.46135 0.0
C918 C 0.32225 0.81037 0.44612 0.0
H919 H 0.36096 0.85942 0.49794 0.0
H920 H 0.37313 0.82426 0.45234 0.0
S921 S 0.23274 0.81216 0.46903 0.0
N922 N 0.24994 0.83716 0.49403 0.0
N923 N 0.26346 0.79816 0.44601 0.0
C924 C 0.28957 0.81395 0.45818 0.0
C925 C 0.28228 0.835 0.48411 0.0
C926 C 0.46842 0.08578 0.65336 0.0
C927 C 0.48774 0.0709 0.67673 0.0
C928 C 0.4803 0.08815 0.62153 0.0
C929 C 0.51184 0.07608 0.61264 0.0
H930 H 0.44278 0.09203 0.65881 0.0
H931 H 0.46355 0.09654 0.60336 0.0
S932 S 0.57465 0.04336 0.66741 0.0
N933 N 0.54159 0.05005 0.69084 0.0
N934 N 0.56453 0.05524 0.63094 0.0
C935 C 0.53308 0.06587 0.63685 0.0
C936 C 0.52076 0.063 0.66909 0.0
C937 C 0.30811 0.23474 0.93535 0.0
C938 C 0.27869 0.22038 0.94804 0.0
C939 C 0.31012 0.24837 0.9036 0.0
C940 C 0.28297 0.24791 0.88284 0.0
H941 H 0.32941 0.23639 0.95035 0.0
H942 H 0.33317 0.25947 0.89533 0.0
S943 S 0.20097 0.211 0.90385 0.0
N944 N 0.22237 0.20546 0.93658 0.0
N945 N 0.22607 0.23004 0.87787 0.0
C946 C 0.25383 0.2327 0.89521 0.0
C947 C 0.25174 0.2193 0.92738 0.0
C948 C 0.03086 0.00611 0.37968 0.0
C949 C 0.06193 0.99041 0.37811 0.0
C950 C 0.01262 0.00793 0.40863 0.0
C951 C 0.02427 0.99311 0.43645 0.0
H952 H 0.02196 0.01979 0.3593 0.0
H953 H 0.99098 0.02349 0.40992 0.0
S954 S 0.09925 0.94228 0.44364 0.0
N955 N 0.10031 0.95484 0.40572 0.0
N956 N 0.06499 0.95757 0.46009 0.0
C957 C 0.05255 0.97345 0.4343 0.0
C958 C 0.0717 0.97217 0.40498 0.0
C959 C 0.24102 0.81797 0.64368 0.0
C960 C 0.23261 0.85096 0.64278 0.0
C961 C 0.24077 0.80093 0.67287 0.0
C962 C 0.23244 0.8169 0.70152 0.0
H963 H 0.25195 0.80657 0.62253 0.0
H964 H 0.2516 0.77693 0.6734 0.0
S965 S 0.19869 0.89984 0.70988 0.0
N966 N 0.20824 0.89651 0.67112 0.0
N967 N 0.20728 0.86434 0.72633 0.0
C968 C 0.21813 0.8479 0.69991 0.0
C969 C 0.21839 0.86517 0.6702 0.0
C970 C 0.46162 0.02661 0.86454 0.0
C971 C 0.47559 0.01202 0.83702 0.0
C972 C 0.47342 0.01926 0.89493 0.0
C973 C 0.49978 0.99738 0.89871 0.0
H974 H 0.44089 0.04315 0.86271 0.0
H975 H 0.46146 0.03038 0.91569 0.0
S976 S 0.54723 0.95586 0.83347 0.0
N977 N 0.51836 0.9765 0.81485 0.0
N978 N 0.54127 0.96339 0.87213 0.0
C979 C 0.51461 0.98343 0.87122 0.0
C980 C 0.50234 0.99063 0.84029 0.0
C981 C 0.29178 0.20888 0.15765 0.0
C982 C 0.2794 0.2275 0.13191 0.0
C983 C 0.29475 0.22183 0.18897 0.0
C984 C 0.28635 0.25432 0.19602 0.0
H985 H 0.298 0.1837 0.15396 0.0
H986 H 0.30329 0.20602 0.20797 0.0
S987 S 0.25457 0.314 0.13676 0.0
N988 N 0.25976 0.28067 0.11581 0.0
N989 N 0.26613 0.30488 0.17349 0.0
C990 C 0.27514 0.27341 0.1701 0.0
C991 C 0.27148 0.26009 0.13855 0.0
C992 C 0.17564 0.10216 0.01062 0.0
C993 C 0.19202 0.10572 0.03973 0.0
C994 C 0.14737 0.08237 0.00844 0.0
C995 C 0.13358 0.06534 0.03542 0.0
H996 H 0.1839 0.116 0.98954 0.0
H997 H 0.13532 0.08169 0.98559 0.0
S998 S 0.16696 0.06684 0.11762 0.0
N999 N 0.19246 0.09042 0.09615 0.0
N1000 N 0.13957 0.05345 0.09241 0.0
C1001 C 0.15044 0.06796 0.06453 0.0
C1002 C 0.17939 0.08811 0.06663 0.0
C1003 C 0.6617 0.46163 0.02443 0.0
C1004 C 0.68968 0.47652 0.03673 0.0
C1005 C 0.63326 0.47947 0.01809 0.0
C1006 C 0.6318 0.51295 0.0234 0.0
H1007 H 0.66112 0.43574 0.02095 0.0
H1008 H 0.61189 0.46671 0.00971 0.0
S1009 S 0.69955 0.56429 0.05153 0.0
N1010 N 0.71522 0.52735 0.05128 0.0
N1011 N 0.6614 0.56092 0.03895 0.0
C1012 C 0.66017 0.52862 0.03368 0.0
C1013 C 0.68919 0.51036 0.04051 0.0
C1014 C 0.85152 0.44675 0.22597 0.0
C1015 C 0.85252 0.47797 0.23868 0.0
C1016 C 0.82851 0.42423 0.23788 0.0
C1017 C 0.80534 0.43228 0.2626 0.0
H1018 H 0.87062 0.43854 0.20905 0.0
H1019 H 0.8311 0.39969 0.22956 0.0
S1020 S 0.79069 0.51358 0.29624 0.0
N1021 N 0.82344 0.51803 0.27174 0.0
N1022 N 0.77972 0.47532 0.29372 0.0
C1023 C 0.80297 0.46458 0.27203 0.0
C1024 C 0.82653 0.48764 0.25996 0.0
C1025 C 0.89069 0.60764 0.55338 0.0
C1026 C 0.87227 0.6036 0.52544 0.0
C1027 C 0.92126 0.59153 0.55754 0.0
C1028 C 0.93456 0.57022 0.53419 0.0
H1029 H 0.88183 0.624 0.57188 0.0
H1030 H 0.93464 0.59597 0.57916 0.0
S1031 S 0.89523 0.5498 0.45743 0.0
N1032 N 0.86934 0.57571 0.47462 0.0
N1033 N 0.92584 0.54544 0.4824 0.0
C1034 C 0.91588 0.56544 0.50654 0.0
C1035 C 0.88511 0.58207 0.50219 0.0
C1036 C 0.1777 0.12693 0.31419 0.0
C1037 C 0.18888 0.09501 0.31888 0.0
C1038 C 0.19909 0.15297 0.31632 0.0
C1039 C 0.23244 0.14822 0.32333 0.0
H1040 H 0.15224 0.13203 0.30846 0.0
H1041 H 0.18941 0.17712 0.3125 0.0
S1042 S 0.27439 0.07004 0.33826 0.0
N1043 N 0.23569 0.0602 0.33145 0.0
N1044 N 0.27602 0.10987 0.33534 0.0
C1045 C 0.24405 0.11673 0.32871 0.0
C1046 C 0.22224 0.08992 0.32645 0.0
C1047 C 0.31844 0.00751 0.54487 0.0
C1048 C 0.32101 0.99488 0.57629 0.0
C1049 C 0.34333 0.02714 0.53132 0.0
C1050 C 0.37102 0.03517 0.54906 0.0
H1051 H 0.29949 0.99904 0.52923 0.0
H1052 H 0.34254 0.03291 0.5059 0.0
S1053 S 0.38153 0.01931 0.63615 0.0
N1054 N 0.34798 0.99898 0.62735 0.0
N1055 N 0.39399 0.03773 0.60238 0.0
C1056 C 0.37043 0.02778 0.5822 0.0
C1057 C 0.34548 0.00714 0.59578 0.0
C1058 C 0.84042 0.64221 0.24127 0.0
C1059 C 0.8686 0.63402 0.25861 0.0
C1060 C 0.82561 0.67263 0.24431 0.0
C1061 C 0.83896 0.696 0.26423 0.0
H1062 H 0.82951 0.62491 0.22547 0.0
H1063 H 0.80369 0.67794 0.23084 0.0
S1064 S 0.91211 0.6865 0.31514 0.0
N1065 N 0.90902 0.65157 0.2968 0.0
N1066 N 0.88135 0.70893 0.30214 0.0
C1067 C 0.86714 0.68819 0.28166 0.0
C1068 C 0.88191 0.65709 0.27898 0.0
C1069 C 0.7535 0.4164 0.85057 0.0
C1070 C 0.74763 0.43864 0.82566 0.0
C1071 C 0.77 0.38726 0.84406 0.0
C1072 C 0.78023 0.37956 0.81236 0.0
H1073 H 0.74341 0.42057 0.87463 0.0
H1074 H 0.77207 0.36957 0.86337 0.0
S1075 S 0.77341 0.4317 0.73973 0.0
N1076 N 0.75577 0.45281 0.76908 0.0
N1077 N 0.78626 0.39776 0.75666 0.0
C1078 C 0.77652 0.40274 0.78782 0.0
C1079 C 0.7602 0.43242 0.79452 0.0
C1080 C 0.02417 0.89094 -0.00041 0.0
C1081 C 0.02961 0.88219 0.96715 0.0
C1082 C 0.03014 0.92258 0.01044 0.0
C1083 C 0.04113 0.94787 0.98943 0.0
H1084 H 0.01499 0.87309 0.01697 0.0
H1085 H 0.02504 0.9274 0.03566 0.0
S1086 S 0.05887 0.93847 0.90176 0.0
N1087 N 0.04719 0.90192 0.91397 0.0
N1088 N 0.05715 0.96138 0.93402 0.0
C1089 C 0.04671 0.93956 0.95683 0.0
C1090 C 0.04136 0.90691 0.94586 0.0
C1091 C 0.93608 0.27297 0.74634 0.0
C1092 C 0.93919 0.28462 0.71447 0.0
C1093 C 0.90604 0.2756 0.76395 0.0
C1094 C 0.87827 0.29034 0.75035 0.0
H1095 H 0.95689 0.26136 0.75759 0.0
H1096 H 0.90443 0.26549 0.78813 0.0
S1097 S 0.8755 0.32927 0.66938 0.0
N1098 N 0.91322 0.31407 0.67103 0.0
N1099 N 0.8569 0.31959 0.70414 0.0
C1100 C 0.88153 0.30319 0.71885 0.0
C1101 C 0.91196 0.30016 0.70088 0.0
C1102 C 0.49203 0.18681 0.48431 0.0
C1103 C 0.51738 0.20365 0.46694 0.0
C1104 C 0.49575 0.15439 0.49455 0.0
C1105 C 0.52527 0.13683 0.48864 0.0
H1106 H 0.46858 0.19859 0.48977 0.0
H1107 H 0.4751 0.14303 0.50755 0.0
S1108 S 0.59958 0.16872 0.44384 0.0
N1109 N 0.57334 0.19948 0.44385 0.0
N1110 N 0.58046 0.13891 0.46372 0.0
C1111 C 0.55107 0.15323 0.47152 0.0
C1112 C 0.54709 0.18635 0.46052 0.0
C1113 C 0.60648 0.77422 0.21672 0.0
C1114 C 0.59126 0.7473 0.20326 0.0
C1115 C 0.63493 0.77057 0.23455 0.0
C1116 C 0.64911 0.73994 0.23952 0.0
H1117 H 0.59637 0.7983 0.21358 0.0
H1118 H 0.64587 0.79185 0.24466 0.0
S1119 S 0.62015 0.66205 0.20794 0.0
N1120 N 0.59314 0.68901 0.19538 0.0
N1121 N 0.64701 0.6825 0.22859 0.0
C1122 C 0.63435 0.71287 0.22613 0.0
C1123 C 0.60533 0.71648 0.20803 0.0
C1124 C 0.01138 0.20633 0.56285 0.0
C1125 C 0.02754 0.23458 0.55194 0.0
C1126 C 0.01328 0.17812 0.54505 0.0
C1127 C 0.03089 0.17706 0.51522 0.0
H1128 H 0.99902 0.20516 0.58638 0.0
H1129 H 1.00246 0.15662 0.556 0.0
S1130 S 0.07213 0.24623 0.47307 0.0
N1131 N 0.05828 0.26113 0.50764 0.0
N1132 N 0.06081 0.20789 0.47354 0.0
C1133 C 0.04486 0.20582 0.50277 0.0
C1134 C 0.04333 0.23464 0.5212 0.0
C1135 C 0.63793 0.30289 0.35921 0.0
C1136 C 0.61767 0.27594 0.35381 0.0
C1137 C 0.67048 0.30496 0.34597 0.0
C1138 C 0.68418 0.28025 0.32661 0.0
H1139 H 0.62878 0.32239 0.3742 0.0
H1140 H 0.685 0.32615 0.35101 0.0
S1141 S 0.64032 0.2059 0.30259 0.0
N1142 N 0.61323 0.2248 0.32627 0.0
N1143 N 0.67371 0.22881 0.30114 0.0
C1144 C 0.66386 0.25347 0.32052 0.0
C1145 C 0.63087 0.2513 0.33414 0.0
C1146 C 0.52137 0.89366 0.095 0.0
C1147 C 0.5058 0.89246 0.12579 0.0
C1148 C 0.52378 0.92259 0.07746 0.0
C1149 C 0.51128 0.95148 0.0903 0.0
H1150 H 0.53171 0.87205 0.08415 0.0
H1151 H 0.53648 0.92246 0.05407 0.0
S1152 S 0.46735 0.9615 0.1692 0.0
N1153 N 0.47655 0.92259 0.16787 0.0
N1154 N 0.48211 0.97746 0.13502 0.0
C1155 C 0.49543 0.95079 0.12086 0.0
C1156 C 0.49238 0.92112 0.13857 0.0
C1157 C 0.90672 0.764 0.86466 0.0
C1158 C 0.932 0.78719 0.86068 0.0
C1159 C 0.87968 0.76313 0.84417 0.0
C1160 C 0.87581 0.78602 0.81898 0.0
H1161 H 0.90753 0.74651 0.88428 0.0
H1162 H 0.86087 0.74498 0.84916 0.0
S1163 S 0.9351 0.85214 0.79812 0.0
N1164 N 0.95187 0.83335 0.82896 0.0
N1165 N 0.90046 0.83263 0.79123 0.0
C1166 C 0.90119 0.80922 0.81441 0.0
C1167 C 0.92933 0.80957 0.83496 0.0
C1168 C 0.94583 0.09467 0.87277 0.0
C1169 C 0.96252 0.10417 0.84414 0.0
C1170 C 0.96166 0.09631 0.90201 0.0
C1171 C 0.99455 0.10719 0.90308 0.0
H1172 H 0.92212 0.08254 0.87212 0.0
H1173 H 0.94917 0.0865 0.92343 0.0
S1174 S 0.0457 0.14047 0.83463 0.0
N1175 N 0.01067 0.1296 0.81865 0.0
N1176 N 0.0411 0.13223 0.87349 0.0
C1177 C 0.00969 0.12054 0.875 0.0
C1178 C 0.99337 0.11914 0.84541 0.0
C1179 C 0.74001 0.26294 0.5966 0.0
C1180 C 0.77076 0.24989 0.5863 0.0
C1181 C 0.73602 0.27779 0.62641 0.0
C1182 C 0.76261 0.28021 0.64701 0.0
H1183 H 0.71854 0.26116 0.58183 0.0
H1184 H 0.71168 0.28648 0.6338 0.0
S1185 S 0.84909 0.25281 0.63009 0.0
N1186 N 0.82877 0.24203 0.59822 0.0
N1187 N 0.82148 0.27066 0.65406 0.0
C1188 C 0.79382 0.26824 0.6366 0.0
C1189 C 0.79783 0.25286 0.6063 0.0
C1190 C 0.58489 0.98738 0.40246 0.0
C1191 C 0.58705 0.01494 0.38239 0.0
C1192 C 0.5629 0.98671 0.42913 0.0
C1193 C 0.54217 0.01322 0.43581 0.0
H1194 H 0.60221 0.96754 0.39931 0.0
H1195 H 0.56448 0.96687 0.44633 0.0
S1196 S 0.53426 0.08838 0.38735 0.0
N1197 N 0.56333 0.06727 0.36822 0.0
N1198 N 0.52192 0.06568 0.41845 0.0
C1199 C 0.5413 0.0391 0.41382 0.0
C1200 C 0.56395 0.0401 0.38702 0.0
C1201 C 0.83028 0.83154 0.14056 0.0
C1202 C 0.80225 0.84172 0.12357 0.0
C1203 C 0.82762 0.8179 0.17198 0.0
C1204 C 0.79669 0.81267 0.18797 0.0
H1205 H 0.85482 0.83463 0.12968 0.0
H1206 H 0.85017 0.81113 0.18376 0.0
S1207 S 0.71524 0.83457 0.15471 0.0
N1208 N 0.74222 0.84573 0.12592 0.0
N1209 N 0.73717 0.81908 0.18405 0.0
C1210 C 0.76835 0.82234 0.17121 0.0
C1211 C 0.77112 0.83709 0.13944 0.0
C1212 C 0.01669 0.04974 0.66818 0.0
C1213 C 0.99268 0.07293 0.6773 0.0
C1214 C 0.02473 0.04445 0.63588 0.0
C1215 C 0.00991 0.06287 0.61181 0.0
H1216 H 0.0273 0.03356 0.68579 0.0
H1217 H 0.04108 0.02451 0.6296 0.0
S1218 S 0.95156 0.13119 0.62268 0.0
N1219 N 0.95829 0.11797 0.65959 0.0
N1220 N 0.9744 0.10817 0.59852 0.0
C1221 C 0.98911 0.08865 0.62042 0.0
C1222 C 0.98032 0.09376 0.6534 0.0
C1223 C 0.8285 0.27795 0.41461 0.0
C1224 C 0.83078 0.2449 0.42237 0.0
C1225 C 0.82491 0.28819 0.38279 0.0
C1226 C 0.82335 0.2655 0.35805 0.0
H1227 H 0.82515 0.29554 0.43353 0.0
H1228 H 0.81962 0.31351 0.37826 0.0
S1229 S 0.83924 0.17734 0.36527 0.0
N1230 N 0.83961 0.1905 0.40256 0.0
N1231 N 0.83315 0.20963 0.34239 0.0
C1232 C 0.83148 0.23308 0.36497 0.0
C1233 C 0.83533 0.22275 0.39741 0.0
C1234 C 0.58907 0.08545 0.23516 0.0
C1235 C 0.6172 0.06581 0.23879 0.0
C1236 C 0.57373 0.088 0.2057 0.0
C1237 C 0.58609 0.07122 0.17876 0.0
H1238 H 0.57842 0.09855 0.25541 0.0
H1239 H 0.55177 0.10292 0.2041 0.0
S1240 S 0.6604 0.0182 0.17529 0.0
N1241 N 0.65736 0.02986 0.21309 0.0
N1242 N 0.62913 0.03553 0.15709 0.0
C1243 C 0.61445 0.05173 0.18195 0.0
C1244 C 0.62985 0.0488 0.21215 0.0
C1245 C 0.79126 0.81885 0.93254 0.0
C1246 C 0.78603 0.85143 0.9412 0.0
C1247 C 0.78533 0.80756 0.90128 0.0
C1248 C 0.77466 0.82833 0.87637 0.0
H1249 H 0.80052 0.80178 0.9501 0.0
H1250 H 0.79049 0.78238 0.89631 0.0
S1251 S 0.75664 0.91592 0.88584 0.0
N1252 N 0.7683 0.90421 0.92192 0.0
N1253 N 0.75847 0.88342 0.86317 0.0
C1254 C 0.76891 0.86094 0.8847 0.0
C1255 C 0.77417 0.87231 0.91694 0.0
C1256 C 0.89442 0.97742 0.05789 0.0
C1257 C 0.8836 0.9649 0.02873 0.0
C1258 C 0.92246 0.99782 0.05882 0.0
C1259 C 0.94068 0.00716 0.03056 0.0
H1260 H 0.8823 0.96991 0.08039 0.0
H1261 H 0.93067 0.00536 0.08207 0.0
S1262 S 0.92192 0.98163 0.94785 0.0
N1263 N 0.89309 0.96374 0.97087 0.0
N1264 N 0.94468 1.00257 0.97234 0.0
C1265 C 0.9291 0.99587 0.00112 0.0
C1266 C 0.90099 0.97461 0.0003 0.0
C1267 C 0.39404 0.58999 0.03347 0.0
C1268 C 0.38914 0.62099 0.02017 0.0
C1269 C 0.42442 0.574 0.02936 0.0
C1270 C 0.45088 0.58841 0.01163 0.0
H1271 H 0.37441 0.5781 0.04751 0.0
H1272 H 0.42735 0.55052 0.04081 0.0
S1273 S 0.44965 0.66792 0.96914 0.0
N1274 N 0.41264 0.66468 0.98682 0.0
N1275 N 0.46954 0.6345 0.97886 0.0
C1276 C 0.446 0.61901 0.99742 0.0
C1277 C 0.4152 0.63536 0.00178 0.0
C1278 C 0.25121 0.58948 0.78654 0.0
C1279 C 0.24002 0.58919 0.81894 0.0
C1280 C 0.26845 0.61603 0.7735 0.0
C1281 C 0.27559 0.64268 0.79264 0.0
H1282 H 0.24303 0.57123 0.77017 0.0
H1283 H 0.27301 0.61695 0.74772 0.0
S1284 S 0.26295 0.64712 0.88132 0.0
N1285 N 0.24441 0.61332 0.87144 0.0
N1286 N 0.2791 0.6624 0.8474 0.0
C1287 C 0.26975 0.63981 0.82616 0.0
C1288 C 0.25142 0.61313 0.83925 0.0
C1289 C 0.15744 0.45358 0.50613 0.0
C1290 C 0.18113 0.45436 0.53023 0.0
C1291 C 0.12667 0.4691 0.50972 0.0
C1292 C 0.11772 0.48651 0.53757 0.0
H1293 H 0.16246 0.4406 0.48406 0.0
H1294 H 0.10971 0.46732 0.49021 0.0
S1295 S 0.17031 0.49661 0.60821 0.0
N1296 N 0.19326 0.47441 0.5833 0.0
N1297 N 0.13533 0.50382 0.5899 0.0
C1298 C 0.14115 0.488 0.56187 0.0
C1299 C 0.17276 0.47192 0.55826 0.0
C1300 C 0.8672 0.96472 0.78611 0.0
C1301 C 0.87771 0.98342 0.75946 0.0
C1302 C 0.84466 0.93972 0.78257 0.0
C1303 C 0.83281 0.93214 0.75211 0.0
H1304 H 0.87638 0.96952 0.80976 0.0
H1305 H 0.83677 0.92602 0.80383 0.0
S1306 S 0.85472 0.97411 0.67477 0.0
N1307 N 0.87511 0.99382 0.70205 0.0
N1308 N 0.83427 0.94526 0.69471 0.0
C1309 C 0.84326 0.95103 0.72528 0.0
C1310 C 0.86548 0.97707 0.72914 0.0
C1311 C 0.68767 0.13115 0.47929 0.0
C1312 C 0.7208 0.12797 0.48794 0.0
C1313 C 0.66479 0.10699 0.4871 0.0
C1314 C 0.67421 0.07861 0.50353 0.0
H1315 H 0.67868 0.15338 0.46854 0.0
H1316 H 0.63914 0.11187 0.48234 0.0
S1317 S 0.75941 0.05496 0.52409 0.0
N1318 N 0.76321 0.09177 0.50853 0.0
N1319 N 0.71968 0.04604 0.52279 0.0
C1320 C 0.70783 0.07356 0.50911 0.0
C1321 C 0.7313 0.09828 0.50128 0.0
C1322 C 0.24518 0.42293 0.83001 0.0
C1323 C 0.21417 0.43041 0.81752 0.0
C1324 C 0.25881 0.392 0.82686 0.0
C1325 C 0.24159 0.36736 0.81165 0.0
H1326 H 0.25942 0.44129 0.84164 0.0
H1327 H 0.28317 0.38749 0.83613 0.0
S1328 S 0.15855 0.3742 0.77652 0.0
N1329 N 0.16599 0.41056 0.7904 0.0
N1330 N 0.19137 0.3522 0.78488 0.0
C1331 C 0.21008 0.37428 0.79989 0.0
C1332 C 0.19644 0.40591 0.80266 0.0
C1333 C 0.3472 0.64463 0.30848 0.0
C1334 C 0.35177 0.63328 0.27698 0.0
C1335 C 0.33027 0.67354 0.31448 0.0
C1336 C 0.31692 0.69188 0.28924 0.0
H1337 H 0.35825 0.63203 0.32848 0.0
H1338 H 0.32876 0.68214 0.33897 0.0
S1339 S 0.31746 0.66929 0.20313 0.0
N1340 N 0.33858 0.64021 0.22078 0.0
N1341 N 0.30613 0.69448 0.23193 0.0
C1342 C 0.31923 0.67948 0.25788 0.0
C1343 C 0.33691 0.65021 0.25178 0.0
C1344 C 0.51877 0.68447 0.58934 0.0
C1345 C 0.5329 0.68664 0.61984 0.0
C1346 C 0.51452 0.6541 0.57421 0.0
C1347 C 0.52385 0.62438 0.58891 0.0
H1348 H 0.51016 0.70621 0.57743 0.0
H1349 H 0.50356 0.65395 0.55081 0.0
S1350 S 0.56502 0.61672 0.66727 0.0
N1351 N 0.55859 0.65589 0.66278 0.0
N1352 N 0.54997 0.60004 0.63512 0.0
C1353 C 0.53872 0.62648 0.61897 0.0
C1354 C 0.54338 0.65712 0.6341 0.0
C1355 C 0.64229 0.26325 0.8425 0.0
C1356 C 0.63778 0.27707 0.87314 0.0
C1357 C 0.67259 0.26563 0.8253 0.0
C1358 C 0.69953 0.28145 0.83839 0.0
H1359 H 0.62237 0.25022 0.83174 0.0
H1360 H 0.6752 0.25427 0.80204 0.0
S1361 S 0.70006 0.32439 0.91605 0.0
N1362 N 0.66244 0.30916 0.9147 0.0
N1363 N 0.71946 0.31321 0.88244 0.0
C1364 C 0.69524 0.29613 0.8685 0.0
C1365 C 0.66431 0.29408 0.88586 0.0
C1366 C 0.0691 0.39286 0.0792 0.0
C1367 C 0.04336 0.37753 0.09765 0.0
C1368 C 0.06644 0.425 0.06742 0.0
C1369 C 0.03763 0.44378 0.07272 0.0
H1370 H 0.09201 0.38002 0.07398 0.0
H1371 H 0.08724 0.43513 0.05362 0.0
S1372 S 0.96331 0.41678 0.12088 0.0
N1373 N 0.98822 0.38503 0.12164 0.0
N1374 N 0.98297 0.44478 0.09891 0.0
C1375 C 0.01157 0.42899 0.09107 0.0
C1376 C 0.0145 0.39626 0.10365 0.0
C1377 C 0.97507 0.76848 0.33852 0.0
C1378 C 0.98705 0.79031 0.36071 0.0
C1379 C 0.95236 0.77861 0.31599 0.0
C1380 C 0.9405 0.81059 0.31571 0.0
H1381 H 0.98094 0.74295 0.34049 0.0
H1382 H 0.94153 0.76069 0.30083 0.0
S1383 S 0.96877 0.87771 0.36584 0.0
N1384 N 0.9897 0.84582 0.37837 0.0
N1385 N 0.94586 0.8649 0.33645 0.0
C1386 C 0.95521 0.83336 0.33538 0.0
C1387 C 0.97878 0.82309 0.35802 0.0
C1388 C 0.4923 0.35152 0.02711 0.0
C1389 C 0.52336 0.34002 0.01579 0.0
C1390 C 0.48889 0.38251 0.03969 0.0
C1391 C 0.51642 0.40284 0.04153 0.0
H1392 H 0.47004 0.33749 0.02419 0.0
H1393 H 0.46429 0.39143 0.04582 0.0
S1394 S 0.60398 0.38168 0.0222 0.0
N1395 N 0.58281 0.34952 0.01206 0.0
N1396 N 0.57629 0.40768 0.03645 0.0
C1397 C 0.54798 0.39052 0.03339 0.0
C1398 C 0.55149 0.35908 0.02034 0.0
C1399 C 0.91047 0.32781 0.21312 0.0
C1400 C 0.93006 0.30094 0.20392 0.0
C1401 C 0.87809 0.32422 0.22641 0.0
C1402 C 0.86331 0.29357 0.23085 0.0
H1403 H 0.92025 0.35206 0.21021 0.0
H1404 H 0.86454 0.34582 0.23326 0.0
S1405 S 0.90344 0.21512 0.21043 0.0
N1406 N 0.93183 0.24236 0.2002 0.0
N1407 N 0.87116 0.23561 0.2247 0.0
C1408 C 0.88249 0.26642 0.22156 0.0
C1409 C 0.91569 0.27008 0.20832 0.0
C1410 C 0.02947 0.63665 0.44412 0.0
C1411 C 0.04793 0.6622 0.4561 0.0
C1412 C 0.03314 0.60537 0.45641 0.0
C1413 C 0.05467 0.59926 0.4816 0.0
H1414 H 0.01034 0.64133 0.427 0.0
H1415 H 0.01638 0.58684 0.44867 0.0
S1416 S 0.11274 0.65698 0.51675 0.0
N1417 N 0.09214 0.67874 0.49043 0.0
N1418 N 0.09837 0.61978 0.51444 0.0
C1419 C 0.07587 0.62388 0.49114 0.0
C1420 C 0.07262 0.65559 0.47813 0.0
C1421 C 0.63264 0.76718 0.75036 0.0
C1422 C 0.62327 0.78753 0.72445 0.0
C1423 C 0.66339 0.77001 0.76507 0.0
C1424 C 0.68663 0.79367 0.75516 0.0
H1425 H 0.61622 0.7482 0.7593 0.0
H1426 H 0.66906 0.75314 0.7843 0.0
S1427 S 0.6752 0.85342 0.68852 0.0
N1428 N 0.6405 0.83237 0.68958 0.0
N1429 N 0.69788 0.83815 0.71737 0.0
C1430 C 0.67759 0.81459 0.72956 0.0
C1431 C 0.64621 0.81142 0.71424 0.0
C1432 C 0.64544 0.47724 0.67691 0.0
C1433 C 0.63468 0.4646 0.70691 0.0
C1434 C 0.6249 0.47604 0.65067 0.0
C1435 C 0.59303 0.46258 0.65405 0.0
H1436 H 0.66755 0.49201 0.6749 0.0
H1437 H 0.63264 0.48858 0.62866 0.0
S1438 S 0.55828 0.41833 0.72573 0.0
N1439 N 0.59465 0.43149 0.73676 0.0
N1440 N 0.55503 0.43017 0.68788 0.0
C1441 C 0.5846 0.44515 0.68246 0.0
C1442 C 0.606 0.44573 0.70886 0.0
C1443 C 0.77562 0.31581 0.97902 0.0
C1444 C 0.80109 0.32713 0.99792 0.0
C1445 C 0.78293 0.29801 0.95145 0.0
C1446 C 0.81587 0.29144 0.9416 0.0
H1447 H 0.74993 0.32093 0.98537 0.0
H1448 H 0.76276 0.29012 0.93704 0.0
S1449 S 0.89141 0.31488 0.98325 0.0
N1450 N 0.86056 0.32943 0.00577 0.0
N1451 N 0.87402 0.29654 0.95315 0.0
C1452 C 0.84149 0.30149 0.96088 0.0
C1453 C 0.83414 0.31937 0.9892 0.0
C1454 C 0.0287 0.56285 0.17598 0.0
C1455 C 0.99555 0.57065 0.1836 0.0
C1456 C 0.0408 0.5647 0.14421 0.0
C1457 C 0.01968 0.5739 0.11956 0.0
H1458 H 0.04402 0.55156 0.19389 0.0
H1459 H 0.0652 0.55492 0.13862 0.0
S1460 S 0.93447 0.60646 0.129 0.0
N1461 N 0.94464 0.59558 0.16575 0.0
N1462 N 0.96732 0.59872 0.10563 0.0
C1463 C 0.9885 0.58704 0.12774 0.0
C1464 C 0.97638 0.58558 0.16014 0.0
C1465 C 0.80936 0.72788 0.42941 0.0
C1466 C 0.77759 0.72323 0.44414 0.0
C1467 C 0.81358 0.74019 0.39721 0.0
C1468 C 0.78626 0.74765 0.37784 0.0
H1469 H 0.83115 0.72266 0.44304 0.0
H1470 H 0.83849 0.74348 0.38729 0.0
S1471 S 0.69786 0.7385 0.40424 0.0
N1472 N 0.71846 0.72667 0.43593 0.0
N1473 N 0.72623 0.74856 0.37645 0.0
C1474 C 0.75453 0.74242 0.39225 0.0
C1475 C 0.75028 0.73061 0.42492 0.0
C1476 C 0.57947 0.48477 0.89031 0.0
C1477 C 0.57316 0.50518 0.86383 0.0
C1478 C 0.5663 0.49174 0.92101 0.0
C1479 C 0.54705 0.51962 0.92604 0.0
H1480 H 0.59642 0.46455 0.88772 0.0
H1481 H 0.5736 0.47688 0.94127 0.0
S1482 S 0.51918 0.57812 0.86451 0.0
N1483 N 0.54246 0.55202 0.84427 0.0
N1484 N 0.51903 0.56554 0.90237 0.0
C1485 C 0.53829 0.53865 0.8996 0.0
C1486 C 0.55095 0.53123 0.86827 0.0
C1487 C 0.7077 0.35739 0.16954 0.0
C1488 C 0.71272 0.33896 0.14184 0.0
C1489 C 0.71209 0.34322 0.1998 0.0
C1490 C 0.7211 0.31035 0.20269 0.0
H1491 H 0.70636 0.38353 0.16772 0.0
H1492 H 0.71245 0.35897 0.22038 0.0
S1493 S 0.72178 0.25016 0.13764 0.0
N1494 N 0.71543 0.28525 0.11936 0.0
N1495 N 0.72367 0.25818 0.17634 0.0
C1496 C 0.71846 0.29065 0.17574 0.0
C1497 C 0.71373 0.30517 0.14507 0.0
C1498 C 0.95264 0.50994 0.36633 0.0
C1499 C 0.971 0.49726 0.34017 0.0
C1500 C 0.96014 0.50135 0.39774 0.0
C1501 C 0.98634 0.48008 0.40404 0.0
H1502 H 0.93216 0.52639 0.36255 0.0
H1503 H 0.94562 0.51169 0.41737 0.0
S1504 S 0.04288 0.44154 0.34391 0.0
N1505 N 0.0168 0.46283 0.32234 0.0
N1506 N 0.03133 0.44727 0.38188 0.0
C1507 C 0.00484 0.4671 0.37816 0.0
C1508 C 0.99708 0.47565 0.34605 0.0
C1509 C 0.79001 0.70797 0.65482 0.0
C1510 C 0.77889 0.72799 0.62945 0.0
C1511 C 0.79473 0.7201 0.68625 0.0
C1512 C 0.78957 0.75308 0.69372 0.0
H1513 H 0.79393 0.68243 0.65072 0.0
H1514 H 0.80218 0.70338 0.70494 0.0
S1515 S 0.7616 0.81605 0.63577 0.0
N1516 N 0.76349 0.78277 0.61437 0.0
N1517 N 0.77321 0.80542 0.6721 0.0
C1518 C 0.77945 0.77339 0.66821 0.0
C1519 C 0.77393 0.76095 0.63662 0.0
C1520 C 0.65604 0.6215 0.51389 0.0
C1521 C 0.68146 0.61492 0.5355 0.0
C1522 C 0.62789 0.60163 0.51213 0.0
C1523 C 0.62298 0.57426 0.53242 0.0
H1524 H 0.65758 0.64279 0.49842 0.0
H1525 H 0.60908 0.60875 0.49545 0.0
S1526 S 0.68229 0.54557 0.59315 0.0
N1527 N 0.70032 0.57809 0.57706 0.0
N1528 N 0.64708 0.54127 0.57457 0.0
C1529 C 0.64859 0.56686 0.55376 0.0
C1530 C 0.67779 0.58693 0.55507 0.0
C1531 C 0.14402 0.95491 0.53689 0.0
C1532 C 0.16983 0.97551 0.54515 0.0
C1533 C 0.11251 0.96722 0.53127 0.0
C1534 C 0.10599 1.00056 0.53305 0.0
H1535 H 0.14779 0.92899 0.53601 0.0
H1536 H 0.09303 0.95043 0.52581 0.0
S1537 S 0.16605 0.06485 0.55096 0.0
N1538 N 0.18754 0.0309 0.55307 0.0
N1539 N 0.12823 0.05417 0.54175 0.0
C1540 C 0.13196 0.02158 0.5398 0.0
C1541 C 0.16394 0.00899 0.54609 0.0
C1542 C 0.32834 0.99375 0.77939 0.0
C1543 C 0.34293 0.99204 0.74829 0.0
C1544 C 0.30474 0.97111 0.7899 0.0
C1545 C 0.2947 0.94659 0.76936 0.0
H1546 H 0.33789 0.01015 0.79691 0.0
H1547 H 0.29728 0.97079 0.81513 0.0
S1548 S 0.31652 0.94005 0.68233 0.0
N1549 N 0.34037 0.96926 0.69503 0.0
N1550 N 0.29347 0.92841 0.71393 0.0
C1551 C 0.3047 0.94857 0.73662 0.0
C1552 C 0.32967 0.97083 0.72628 0.0
C1553 C 0.39509 0.08187 0.00735 0.0
C1554 C 0.38086 0.10221 0.03107 0.0
C1555 C 0.4259 0.06649 0.01123 0.0
C1556 C 0.44448 0.07062 0.03899 0.0
H1557 H 0.38242 0.07779 0.98525 0.0
H1558 H 0.4354 0.0515 0.99184 0.0
S1559 S 0.41869 0.12084 0.10893 0.0
N1560 N 0.38801 0.12512 0.08393 0.0
N1561 N 0.44583 0.0965 0.09106 0.0
C1562 C 0.43055 0.09066 0.06314 0.0
C1563 C 0.3989 0.10628 0.05926 0.0
C1564 C 0.68812 0.62199 0.79404 0.0
C1565 C 0.70046 0.59096 0.80121 0.0
C1566 C 0.70638 0.64946 0.79996 0.0
C1567 C 0.73771 0.64707 0.81319 0.0
H1568 H 0.66389 0.62534 0.78409 0.0
H1569 H 0.69561 0.67286 0.79463 0.0
S1570 S 0.78266 0.57203 0.83421 0.0
N1571 N 0.74691 0.55953 0.82091 0.0
N1572 N 0.78145 0.6119 0.83188 0.0
C1573 C 0.75087 0.61646 0.81997 0.0
C1574 C 0.73223 0.58821 0.81387 0.0
C1575 C 0.83299 0.48575 0.07505 0.0
C1576 C 0.84058 0.45271 0.07843 0.0
C1577 C 0.85664 0.50741 0.06196 0.0
C1578 C 0.88793 0.49622 0.05153 0.0
H1579 H 0.80861 0.49469 0.08207 0.0
H1580 H 0.85054 0.53284 0.05976 0.0
S1581 S 0.91738 0.41145 0.04971 0.0
N1582 N 0.88015 0.40953 0.06722 0.0
N1583 N 0.92411 0.45019 0.04211 0.0
C1584 C 0.89532 0.46321 0.05391 0.0
C1585 C 0.8717 0.4414 0.06754 0.0
C1586 C 0.37856 0.16687 0.77273 0.0
C1587 C 0.3637 0.14204 0.75573 0.0
C1588 C 0.36259 0.19648 0.77701 0.0
C1589 C 0.33102 0.2021 0.76485 0.0
H1590 H 0.40278 0.16349 0.7827 0.0
H1591 H 0.3748 0.21483 0.79059 0.0
S1592 S 0.28132 0.1446 0.71897 0.0
N1593 N 0.31572 0.12471 0.72668 0.0
N1594 N 0.28538 0.18053 0.73512 0.0
C1595 C 0.31583 0.17747 0.7478 0.0
C1596 C 0.3323 0.14738 0.74309 0.0
C1597 C 0.24681 0.91551 0.35543 0.0
C1598 C 0.23347 0.93438 0.33069 0.0
C1599 C 0.2642 0.88696 0.34831 0.0
C1600 C 0.26864 0.8767 0.31629 0.0
H1601 H 0.24192 0.92163 0.38039 0.0
H1602 H 0.2722 0.87183 0.36808 0.0
S1603 S 0.24437 0.92128 0.2428 0.0
N1604 N 0.23023 0.94358 0.27289 0.0
N1605 N 0.26277 0.88997 0.25965 0.0
C1606 C 0.25798 0.89691 0.29135 0.0
C1607 C 0.24039 0.9258 0.29853 0.0
C1608 C 0.52112 0.39566 0.49947 0.0
C1609 C 0.52231 0.38915 0.46632 0.0
C1610 C 0.52674 0.4269 0.51124 0.0
C1611 C 0.53299 0.45383 0.49056 0.0
H1612 H 0.51556 0.37636 0.51669 0.0
H1613 H 0.52508 0.43 0.53705 0.0
S1614 S 0.53813 0.45028 0.40133 0.0
N1615 N 0.53067 0.41248 0.41272 0.0
N1616 N 0.53984 0.47137 0.4347 0.0
C1617 C 0.53427 0.44774 0.45721 0.0
C1618 C 0.52937 0.4155 0.4452 0.0
C1619 C 0.42479 0.76238 0.23797 0.0
C1620 C 0.42728 0.77847 0.20797 0.0
C1621 C 0.40041 0.77092 0.26098 0.0
C1622 C 0.3773 0.79534 0.25441 0.0
H1623 H 0.44171 0.74289 0.24362 0.0
H1624 H 0.39837 0.7569 0.28318 0.0
S1625 S 0.37418 0.84553 0.1799 0.0
N1626 N 0.40602 0.82104 0.17351 0.0
N1627 N 0.35901 0.83626 0.21627 0.0
C1628 C 0.38014 0.81224 0.22485 0.0
C1629 C 0.40546 0.80402 0.20172 0.0
C1630 C 0.99653 0.67788 0.98736 0.0
C1631 C 0.02262 0.6957 0.97222 0.0
C1632 C 1.00061 0.6456 0.99811 0.0
C1633 C 0.03126 0.62925 0.99512 0.0
H1634 H 0.97228 0.68881 0.99061 0.0
H1635 H 0.97939 0.63346 0.00932 0.0
S1636 S 0.10808 0.66439 0.95757 0.0
N1637 N 0.08057 0.69386 0.95458 0.0
N1638 N 0.08851 0.63382 0.97574 0.0
C1639 C 0.05781 0.64673 0.98033 0.0
C1640 C 0.05342 0.67959 0.96864 0.0
C1641 C 0.12826 0.24389 0.68758 0.0
C1642 C 0.10146 0.2647 0.69418 0.0
C1643 C 0.14974 0.23506 0.71174 0.0
C1644 C 0.14519 0.24724 0.74283 0.0
H1645 H 0.13315 0.23518 0.66342 0.0
H1646 H 0.17119 0.22027 0.70577 0.0
S1647 S 0.07902 0.3021 0.77238 0.0
N1648 N 0.07091 0.29642 0.73418 0.0
N1649 N 0.1125 0.28043 0.7794 0.0
C1650 C 0.11812 0.26723 0.75 0.0
C1651 C 0.09581 0.27578 0.72564 0.0
C1652 C 0.51275 0.72611 0.03354 0.0
C1653 C 0.53218 0.73642 0.05862 0.0
C1654 C 0.52698 0.70847 0.00814 0.0
C1655 C 0.56052 0.69906 0.00809 0.0
H1656 H 0.48614 0.7295 0.03481 0.0
H1657 H 0.51086 0.69837 0.99068 0.0
S1658 S 0.6225 0.7245 0.06611 0.0
N1659 N 0.58739 0.74078 0.07951 0.0
N1660 N 0.61358 0.70545 0.03287 0.0
C1661 C 0.58082 0.71245 0.0311 0.0
C1662 C 0.5666 0.73139 0.0564 0.0
C1663 C 0.14666 0.82653 0.85095 0.0
C1664 C 0.1264 0.79978 0.85883 0.0
C1665 C 0.17794 0.82288 0.83589 0.0
C1666 C 0.19086 0.79223 0.82777 0.0
H1667 H 0.13842 0.85082 0.85654 0.0
H1668 H 0.19205 0.84462 0.83049 0.0
S1669 S 0.14825 0.7139 0.84329 0.0
N1670 N 0.12173 0.74114 0.85743 0.0
N1671 N 0.1807 0.73433 0.8289 0.0
C1672 C 0.1709 0.76509 0.83522 0.0
C1673 C 0.13873 0.76883 0.85073 0.0
C1674 C 0.03351 0.41783 0.63004 0.0
C1675 C 0.0144 0.39208 0.61954 0.0
C1676 C 0.02668 0.44942 0.6201 0.0
C1677 C 1.00134 0.45566 0.59848 0.0
H1678 H 0.05516 0.41327 0.64414 0.0
H1679 H 0.04373 0.46832 0.62635 0.0
S1680 S 0.94133 0.3969 0.56836 0.0
N1681 N 0.96632 0.37504 0.59065 0.0
N1682 N 0.95438 0.43458 0.57058 0.0
C1683 C 0.98008 0.43053 0.59053 0.0
C1684 C 0.98648 0.39851 0.60137 0.0
C1685 C 0.40783 0.32498 0.35104 0.0
C1686 C 0.42847 0.29797 0.35616 0.0
C1687 C 0.38019 0.32335 0.3312 0.0
C1688 C 0.37126 0.29429 0.31644 0.0
H1689 H 0.4125 0.34735 0.36331 0.0
H1690 H 0.36455 0.34454 0.32904 0.0
S1691 S 0.41726 0.21665 0.3219 0.0
N1692 N 0.43859 0.2416 0.3439 0.0
N1693 N 0.38612 0.23803 0.30792 0.0
C1694 C 0.39211 0.26729 0.3209 0.0
C1695 C 0.42077 0.26924 0.34039 0.0
C1696 C 0.45946 0.59078 0.35157 0.0
C1697 C 0.47914 0.56862 0.33391 0.0
C1698 C 0.46733 0.5989 0.38296 0.0
C1699 C 0.49496 0.58509 0.39726 0.0
H1700 H 0.43736 0.60114 0.34151 0.0
H1701 H 0.45124 0.61508 0.39654 0.0
S1702 S 0.55654 0.52935 0.36048 0.0
N1703 N 0.52922 0.53551 0.33239 0.0
N1704 N 0.54338 0.55079 0.39157 0.0
C1705 C 0.51552 0.56417 0.3796 0.0
C1706 C 0.50775 0.55592 0.3478 0.0
C1707 C 0.2464 0.76694 0.09908 0.0
C1708 C 0.27449 0.74855 0.09027 0.0
C1709 C 0.2413 0.7778 0.13046 0.0
C1710 C 0.26381 0.77043 0.15457 0.0
H1711 H 0.22765 0.7725 0.08181 0.0
H1712 H 0.21912 0.79166 0.13585 0.0
S1713 S 0.3441 0.72665 0.14234 0.0
N1714 N 0.32724 0.72664 0.10683 0.0
N1715 N 0.31732 0.74565 0.16619 0.0
C1716 C 0.29312 0.75347 0.14556 0.0
C1717 C 0.29849 0.74286 0.11332 0.0
C1718 C 0.05626 0.5238 0.8919 0.0
C1719 C 0.08841 0.51122 0.88715 0.0
C1720 C 0.03883 0.51898 0.92112 0.0
C1721 C 0.05355 0.502 0.94631 0.0
H1722 H 0.04572 0.53974 0.87401 0.0
H1723 H 0.01584 0.53206 0.92529 0.0
S1724 S 0.1334 0.4578 0.9431 0.0
N1725 N 0.13131 0.47575 0.90748 0.0
N1726 N 0.09863 0.4672 0.96285 0.0
C1727 C 0.08345 0.48546 0.9402 0.0
C1728 C 0.10104 0.49006 0.91037 0.0
C1729 C 0.26358 0.33921 0.64514 0.0
C1730 C 0.29453 0.34474 0.62912 0.0
C1731 C 0.26117 0.326 0.67701 0.0
C1732 C 0.28958 0.31856 0.69481 0.0
H1733 H 0.241 0.34458 0.63279 0.0
H1734 H 0.23679 0.32206 0.68797 0.0
S1735 S 0.37655 0.32973 0.66468 0.0
N1736 N 0.35419 0.34201 0.63433 0.0
N1737 N 0.34971 0.3185 0.69347 0.0
C1738 C 0.32054 0.32456 0.67915 0.0
C1739 C 0.32298 0.33725 0.64669 0.0
C1740 C 0.53553 0.56811 0.16095 0.0
C1741 C 0.5032 0.58013 0.16665 0.0
C1742 C 0.55039 0.56926 0.13021 0.0
C1743 C 0.53377 0.58332 0.10458 0.0
H1744 H 0.54826 0.55502 0.17964 0.0
H1745 H 0.57349 0.5564 0.12587 0.0
S1746 S 0.45239 0.6246 0.10786 0.0
N1747 N 0.45751 0.61128 0.14503 0.0
N1748 N 0.48622 0.61402 0.08715 0.0
C1749 C 0.50362 0.59932 0.11067 0.0
C1750 C 0.48811 0.59771 0.14191 0.0
C1751 C 0.33326 0.73116 0.89973 0.0
C1752 C 0.32528 0.75156 0.92545 0.0
C1753 C 0.33303 0.74314 0.86819 0.0
C1754 C 0.32498 0.77573 0.86195 0.0
H1755 H 0.33555 0.7053 0.90363 0.0
H1756 H 0.33571 0.7261 0.84872 0.0
S1757 S 0.31276 0.84008 0.92243 0.0
N1758 N 0.31677 0.80641 0.94377 0.0
N1759 N 0.31707 0.82946 0.88438 0.0
C1760 C 0.3226 0.79718 0.88784 0.0
C1761 C 0.32246 0.78485 0.91983 0.0
C1762 C 0.11139 0.59285 0.7147 0.0
C1763 C 0.1101 0.5628 0.73094 0.0
C1764 C 0.09439 0.59789 0.68634 0.0
C1765 C 0.07543 0.57313 0.67358 0.0
H1766 H 0.12591 0.6125 0.72377 0.0
H1767 H 0.09662 0.62103 0.67396 0.0
S1768 S 0.06103 0.49129 0.70905 0.0
N1769 N 0.08683 0.50861 0.7334 0.0
N1770 N 0.05394 0.51848 0.68066 0.0
C1771 C 0.07313 0.54329 0.69014 0.0
C1772 C 0.09079 0.538 0.71869 0.0
C1773 C 0.26913 0.37041 0.42028 0.0
C1774 C 0.28005 0.34966 0.44516 0.0
C1775 C 0.26393 0.35903 0.38861 0.0
C1776 C 0.26847 0.32614 0.38033 0.0
H1777 H 0.26592 0.39594 0.42491 0.0
H1778 H 0.2568 0.37635 0.37031 0.0
S1779 S 0.29469 0.26135 0.43721 0.0
N1780 N 0.29395 0.29427 0.45916 0.0
N1781 N 0.28327 0.27296 0.4011 0.0
C1782 C 0.27806 0.30508 0.4055 0.0
C1783 C 0.28405 0.31676 0.43732 0.0
C1784 C 0.38632 0.48403 0.51363 0.0
C1785 C 0.37585 0.46399 0.53971 0.0
C1786 C 0.41414 0.50465 0.51561 0.0
C1787 C 0.43294 0.50597 0.54368 0.0
H1788 H 0.3739 0.48265 0.49102 0.0
H1789 H 0.42194 0.51842 0.49434 0.0
S1790 S 0.41427 0.45948 0.61938 0.0
N1791 N 0.3855 0.44782 0.59482 0.0
N1792 N 0.43701 0.48629 0.59888 0.0
C1793 C 0.42162 0.48694 0.57033 0.0
C1794 C 0.39343 0.46603 0.56822 0.0
C1795 C 0.88139 0.09979 0.53516 0.0
C1796 C 0.86968 0.10634 0.50421 0.0
C1797 C 0.90653 0.07701 0.53983 0.0
C1798 C 0.92063 0.06019 0.51371 0.0
H1799 H 0.87193 0.11316 0.55573 0.0
H1800 H 0.91659 0.07421 0.56355 0.0
S1801 S 0.89839 0.06718 0.42838 0.0
N1802 N 0.87331 0.09272 0.44733 0.0
N1803 N 0.92108 0.05045 0.45643 0.0
C1804 C 0.90832 0.06533 0.48304 0.0
C1805 C 0.88261 0.08827 0.4782 0.0
C1806 C 0.73674 0.08173 0.30046 0.0
C1807 C 0.71503 0.08472 0.32751 0.0
C1808 C 0.74993 0.10897 0.28458 0.0
C1809 C 0.74212 0.1402 0.29515 0.0
H1810 H 0.74289 0.05823 0.29075 0.0
H1811 H 0.76621 0.10557 0.26369 0.0
S1812 S 0.68805 0.16096 0.3662 0.0
N1813 N 0.68807 0.12109 0.36556 0.0
N1814 N 0.7118 0.17254 0.33509 0.0
C1815 C 0.72121 0.14355 0.32281 0.0
C1816 C 0.70796 0.11572 0.33913 0.0
C1817 C 0.68222 0.97051 0.05588 0.0
C1818 C 0.69606 0.96484 0.02474 0.0
C1819 C 0.65072 0.98522 0.06051 0.0
C1820 C 0.6315 0.99442 0.03419 0.0
H1821 H 0.6957 0.96331 0.07689 0.0
H1822 H 0.64101 0.9886 0.08483 0.0
S1823 S 0.65667 0.98689 0.94777 0.0
N1824 N 0.68799 0.97132 0.96723 0.0
N1825 N 0.62952 0.99826 0.9759 0.0
C1826 C 0.64534 0.9895 0.00305 0.0
C1827 C 0.67732 0.97493 0.99834 0.0
C1828 C 0.38487 0.44309 0.23976 0.0
C1829 C 0.37714 0.47621 0.23711 0.0
C1830 C 0.36003 0.4199 0.24256 0.0
C1831 C 0.32654 0.42883 0.24248 0.0
H1832 H 0.41033 0.43489 0.24048 0.0
H1833 H 0.36703 0.3947 0.24493 0.0
S1834 S 0.29259 0.51158 0.23469 0.0
N1835 N 0.33317 0.51656 0.23352 0.0
N1836 N 0.28642 0.47224 0.23852 0.0
C1837 C 0.31821 0.4615 0.23879 0.0
C1838 C 0.34354 0.48539 0.23621 0.0
C1839 C 0.23458 0.60438 0.02846 0.0
C1840 C 0.23256 0.62112 -0.00102 0.0
C1841 C 0.21221 0.57984 0.03684 0.0
C1842 C 0.18747 0.57091 0.01574 0.0
H1843 H 0.25175 0.61204 0.0463 0.0
H1844 H 0.2128 0.56969 0.06093 0.0
S1845 S 0.17819 0.60172 0.93216 0.0
N1846 N 0.20798 0.62396 0.9466 0.0
N1847 N 0.16712 0.57604 0.96134 0.0
C1848 C 0.18791 0.58493 0.98463 0.0
C1849 C 0.21014 0.61058 0.9765 0.0
C1850 C 0.70145 0.89831 0.2939 0.0
C1851 C 0.71562 0.92154 0.3134 0.0
C1852 C 0.71683 0.86839 0.28927 0.0
C1853 C 0.74712 0.86124 0.30346 0.0
H1854 H 0.67809 0.90305 0.28266 0.0
H1855 H 0.70518 0.85098 0.27407 0.0
S1856 S 0.79501 0.91489 0.35524 0.0
N1857 N 0.76182 0.93611 0.34624 0.0
N1858 N 0.79113 0.87995 0.3371 0.0
C1859 C 0.76181 0.88456 0.32254 0.0
C1860 C 0.74591 0.91476 0.32764 0.0
C1861 C 0.81716 0.14023 0.7981 0.0
C1862 C 0.83113 0.13264 0.76772 0.0
C1863 C 0.80097 0.16969 0.80305 0.0
C1864 C 0.79768 0.19207 0.77765 0.0
H1865 H 0.82113 0.12469 0.81882 0.0
H1866 H 0.79298 0.1759 0.82734 0.0
S1867 S 0.82431 0.18068 0.69228 0.0
N1868 N 0.83663 0.14753 0.71101 0.0
N1869 N 0.80549 0.20277 0.72017 0.0
C1870 C 0.80828 0.18318 0.74646 0.0
C1871 C 0.82528 0.15342 0.74153 0.0
loop_
_geom_bond_atom_site_label_1
_geom_bond_atom_site_label_2
_geom_bond_distance
_geom_bond_site_symmetry_2
_ccdc_geom_bond_type
Zn0 O3 2.031 . S
Zn0 O5 2.049 . S
Zn0 O10 2.067 . S
Zn1 O2 1.962 . S
Zn1 O4 1.986 1_455 S
Zn1 O6 1.996 . S
Zn1 O9 1.943 . S
O2 Zn1 1.962 . S
O2 C7 1.254 . S
O3 Zn0 2.031 . S
O3 C7 1.269 . S
O4 Zn1 1.986 1_655 S
O4 C11 1.262 . S
O5 Zn0 2.049 . S
O5 C13 1.260 . S
O6 Zn1 1.996 . S
O6 C13 1.257 . S
C7 O2 1.254 . S
C7 O3 1.269 . S
C8 O9 1.249 . S
C8 O10 1.270 . S
O9 Zn1 1.943 . S
O9 C8 1.249 . S
O10 Zn0 2.067 . S
O10 C8 1.270 . S
C11 O4 1.262 . S
C11 O12 1.232 . S
O12 C11 1.232 . S
C13 O5 1.260 . S
C13 O6 1.257 . S
Zn14 O17 2.031 . S
Zn14 O19 2.049 . S
Zn14 O24 2.067 1_455 S
Zn15 O16 1.962 . S
Zn15 O18 1.986 . S
Zn15 O20 1.996 . S
Zn15 O23 1.943 . S
O16 Zn15 1.962 . S
O16 C21 1.254 . S
O17 Zn14 2.031 . S
O17 C21 1.269 . S
O18 Zn15 1.986 . S
O18 C25 1.262 . S
O19 Zn14 2.049 . S
O19 C27 1.260 . S
O20 Zn15 1.996 . S
O20 C27 1.257 . S
C21 O16 1.254 . S
C21 O17 1.269 . S
C22 O23 1.249 . S
C22 O24 1.270 1_455 S
O23 Zn15 1.943 . S
O23 C22 1.249 . S
O24 Zn14 2.067 1_655 S
O24 C22 1.270 1_655 S
C25 O18 1.262 . S
C25 O26 1.232 . S
O26 C25 1.232 . S
C27 O19 1.260 . S
C27 O20 1.257 . S
Zn28 O31 2.031 . S
Zn28 O33 2.049 . S
Zn28 O38 2.067 . S
Zn29 O30 1.962 . S
Zn29 O32 1.986 . S
Zn29 O34 1.996 . S
Zn29 O37 1.943 . S
O30 Zn29 1.962 . S
O30 C35 1.254 . S
O31 Zn28 2.031 . S
O31 C35 1.269 . S
O32 Zn29 1.986 . S
O32 C39 1.262 . S
O33 Zn28 2.049 . S
O33 C41 1.260 . S
O34 Zn29 1.996 . S
O34 C41 1.257 . S
C35 O30 1.254 . S
C35 O31 1.269 . S
C36 O37 1.249 . S
C36 O38 1.270 . S
O37 Zn29 1.943 . S
O37 C36 1.249 . S
O38 Zn28 2.067 . S
O38 C36 1.270 . S
C39 O32 1.262 . S
C39 O40 1.232 . S
O40 C39 1.232 . S
C41 O33 1.260 . S
C41 O34 1.257 . S
Zn42 O45 2.031 . S
Zn42 O47 2.049 . S
Zn42 O52 2.067 . S
Zn43 O44 1.962 . S
Zn43 O46 1.986 . S
Zn43 O48 1.996 . S
Zn43 O51 1.943 . S
O44 Zn43 1.962 . S
O44 C49 1.254 . S
O45 Zn42 2.031 . S
O45 C49 1.269 . S
O46 Zn43 1.986 . S
O46 C53 1.262 . S
O47 Zn42 2.049 . S
O47 C55 1.260 . S
O48 Zn43 1.996 . S
O48 C55 1.257 . S
C49 O44 1.254 . S
C49 O45 1.269 . S
C50 O51 1.249 . S
C50 O52 1.270 . S
O51 Zn43 1.943 . S
O51 C50 1.249 . S
O52 Zn42 2.067 . S
O52 C50 1.270 . S
C53 O46 1.262 . S
C53 O54 1.232 . S
O54 C53 1.232 . S
C55 O47 1.260 . S
C55 O48 1.257 . S
Zn56 O59 2.031 . S
Zn56 O61 2.049 . S
Zn56 O66 2.067 . S
Zn57 O58 1.962 . S
Zn57 O60 1.986 . S
Zn57 O62 2.002 . S
Zn57 O65 1.943 1_565 S
O58 Zn57 1.962 . S
O58 C63 1.254 1_565 S
O59 Zn56 2.031 . S
O59 C63 1.269 . S
O60 Zn57 1.986 . S
O60 C67 1.262 . S
O61 Zn56 2.049 . S
O61 C69 1.260 . S
O62 Zn57 2.002 . S
O62 C69 1.245 1_565 S
C63 O58 1.254 1_545 S
C63 O59 1.269 . S
C64 O65 1.249 . S
C64 O66 1.270 . S
O65 Zn57 1.943 1_545 S
O65 C64 1.249 . S
O66 Zn56 2.067 . S
O66 C64 1.270 . S
C67 O60 1.262 . S
C67 O68 1.232 . S
O68 C67 1.232 . S
C69 O61 1.260 . S
C69 O62 1.245 1_545 S
Zn70 O73 2.031 . S
Zn70 O75 2.049 . S
Zn70 O80 2.067 . S
Zn71 O72 1.962 . S
Zn71 O74 1.986 . S
Zn71 O76 1.996 . S
Zn71 O79 1.943 . S
O72 Zn71 1.962 . S
O72 C77 1.254 . S
O73 Zn70 2.031 . S
O73 C77 1.269 . S
O74 Zn71 1.986 . S
O74 C81 1.262 . S
O75 Zn70 2.049 . S
O75 C83 1.260 . S
O76 Zn71 1.996 . S
O76 C83 1.257 . S
C77 O72 1.254 . S
C77 O73 1.269 . S
C78 O79 1.249 . S
C78 O80 1.270 . S
O79 Zn71 1.943 . S
O79 C78 1.249 . S
O80 Zn70 2.067 . S
O80 C78 1.270 . S
C81 O74 1.262 . S
C81 O82 1.232 . S
O82 C81 1.232 . S
C83 O75 1.260 . S
C83 O76 1.257 . S
Zn84 O87 2.031 . S
Zn84 O89 2.049 . S
Zn84 O94 2.067 1_545 S
Zn85 O86 1.962 . S
Zn85 O88 1.986 . S
Zn85 O90 1.996 . S
Zn85 O93 1.943 . S
O86 Zn85 1.962 . S
O86 C91 1.254 . S
O87 Zn84 2.031 . S
O87 C91 1.269 . S
O88 Zn85 1.986 . S
O88 C95 1.262 . S
O89 Zn84 2.049 . S
O89 C97 1.260 . S
O90 Zn85 1.996 . S
O90 C97 1.257 . S
C91 O86 1.254 . S
C91 O87 1.269 . S
C92 O93 1.249 . S
C92 O94 1.270 1_545 S
O93 Zn85 1.943 . S
O93 C92 1.249 . S
O94 Zn84 2.067 1_565 S
O94 C92 1.270 1_565 S
C95 O88 1.262 . S
C95 O96 1.232 . S
O96 C95 1.232 . S
C97 O89 1.260 . S
C97 O90 1.257 . S
Zn98 O101 2.031 . S
Zn98 O103 2.049 . S
Zn98 O108 2.067 . S
Zn99 O100 1.956 1_554 S
Zn99 O102 1.986 . S
Zn99 O104 1.996 . S
Zn99 O107 1.943 . S
O100 Zn99 1.956 1_556 S
O100 C105 1.257 . S
O101 Zn98 2.031 . S
O101 C105 1.269 1_554 S
O102 Zn99 1.986 . S
O102 C109 1.262 . S
O103 Zn98 2.049 . S
O103 C111 1.260 . S
O104 Zn99 1.996 . S
O104 C111 1.257 . S
C105 O100 1.257 . S
C105 O101 1.269 1_556 S
C106 O107 1.249 . S
C106 O108 1.270 . S
O107 Zn99 1.943 . S
O107 C106 1.249 . S
O108 Zn98 2.067 . S
O108 C106 1.270 . S
C109 O102 1.262 . S
C109 O110 1.232 . S
O110 C109 1.232 . S
C111 O103 1.260 . S
C111 O104 1.257 . S
Zn112 O115 2.031 . S
Zn112 O117 2.049 . S
Zn112 O122 2.067 . S
Zn113 O114 1.962 . S
Zn113 O116 1.986 . S
Zn113 O118 1.996 . S
Zn113 O121 1.943 . S
O114 Zn113 1.962 . S
O114 C119 1.254 . S
O115 Zn112 2.031 . S
O115 C119 1.269 . S
O116 Zn113 1.986 . S
O116 C123 1.262 . S
O117 Zn112 2.049 . S
O117 C125 1.260 . S
O118 Zn113 1.996 . S
O118 C125 1.257 . S
C119 O114 1.254 . S
C119 O115 1.269 . S
C120 O121 1.249 . S
C120 O122 1.270 . S
O121 Zn113 1.943 . S
O121 C120 1.249 . S
O122 Zn112 2.067 . S
O122 C120 1.270 . S
C123 O116 1.262 . S
C123 O124 1.232 . S
O124 C123 1.232 . S
C125 O117 1.260 . S
C125 O118 1.257 . S
Zn126 O129 2.031 . S
Zn126 O131 2.049 . S
Zn126 O136 2.067 . S
Zn127 O128 1.962 . S
Zn127 O130 1.986 . S
Zn127 O132 1.996 . S
Zn127 O135 1.943 . S
O128 Zn127 1.962 . S
O128 C133 1.254 . S
O129 Zn126 2.031 . S
O129 C133 1.269 . S
O130 Zn127 1.986 . S
O130 C137 1.262 . S
O131 Zn126 2.049 . S
O131 C139 1.260 . S
O132 Zn127 1.996 . S
O132 C139 1.257 . S
C133 O128 1.254 . S
C133 O129 1.269 . S
C134 O135 1.249 . S
C134 O136 1.270 . S
O135 Zn127 1.943 . S
O135 C134 1.249 . S
O136 Zn126 2.067 . S
O136 C134 1.270 . S
C137 O130 1.262 . S
C137 O138 1.232 . S
O138 C137 1.232 . S
C139 O131 1.260 . S
C139 O132 1.257 . S
Zn140 O143 2.031 . S
Zn140 O145 2.049 . S
Zn140 O150 2.067 . S
Zn141 O142 1.962 . S
Zn141 O144 1.986 . S
Zn141 O146 1.996 . S
Zn141 O149 1.943 . S
O142 Zn141 1.962 . S
O142 C147 1.254 . S
O143 Zn140 2.031 . S
O143 C147 1.269 . S
O144 Zn141 1.986 . S
O144 C151 1.262 . S
O145 Zn140 2.049 . S
O145 C153 1.260 . S
O146 Zn141 1.996 . S
O146 C153 1.257 . S
C147 O142 1.254 . S
C147 O143 1.269 . S
C148 O149 1.249 . S
C148 O150 1.270 . S
O149 Zn141 1.943 . S
O149 C148 1.249 . S
O150 Zn140 2.067 . S
O150 C148 1.270 . S
C151 O144 1.262 . S
C151 O152 1.232 . S
O152 C151 1.232 . S
C153 O145 1.260 . S
C153 O146 1.257 . S
Zn154 O157 2.031 . S
Zn154 O159 2.049 . S
Zn154 O164 2.067 . S
Zn155 O156 1.962 . S
Zn155 O158 1.986 . S
Zn155 O160 1.996 . S
Zn155 O163 1.943 . S
O156 Zn155 1.962 . S
O156 C161 1.254 . S
O157 Zn154 2.031 . S
O157 C161 1.269 . S
O158 Zn155 1.986 . S
O158 C165 1.262 . S
O159 Zn154 2.049 . S
O159 C167 1.260 . S
O160 Zn155 1.996 . S
O160 C167 1.257 . S
C161 O156 1.254 . S
C161 O157 1.269 . S
C162 O163 1.249 . S
C162 O164 1.270 . S
O163 Zn155 1.943 . S
O163 C162 1.249 . S
O164 Zn154 2.067 . S
O164 C162 1.270 . S
C165 O158 1.262 . S
C165 O166 1.232 . S
O166 C165 1.232 . S
C167 O159 1.260 . S
C167 O160 1.257 . S
Zn168 O171 2.031 . S
Zn168 O173 2.049 . S
Zn168 O178 2.067 . S
Zn169 O170 1.962 . S
Zn169 O172 1.986 . S
Zn169 O174 1.996 . S
Zn169 O177 1.943 . S
O170 Zn169 1.962 . S
O170 C175 1.254 . S
O171 Zn168 2.031 . S
O171 C175 1.269 1_655 S
O172 Zn169 1.986 . S
O172 C179 1.262 . S
O173 Zn168 2.049 . S
O173 C181 1.260 1_655 S
O174 Zn169 1.996 . S
O174 C181 1.257 . S
C175 O170 1.254 . S
C175 O171 1.269 1_455 S
C176 O177 1.249 1_655 S
C176 O178 1.270 . S
O177 Zn169 1.943 . S
O177 C176 1.249 1_455 S
O178 Zn168 2.067 . S
O178 C176 1.270 . S
C179 O172 1.262 . S
C179 O180 1.232 . S
O180 C179 1.232 . S
C181 O173 1.260 1_455 S
C181 O174 1.257 . S
Zn182 O185 2.031 . S
Zn182 O187 2.049 . S
Zn182 O192 2.067 . S
Zn183 O184 1.962 . S
Zn183 O186 1.986 . S
Zn183 O188 1.996 . S
Zn183 O191 1.943 1_655 S
O184 Zn183 1.962 . S
O184 C189 1.254 1_655 S
O185 Zn182 2.031 . S
O185 C189 1.269 . S
O186 Zn183 1.986 . S
O186 C193 1.262 . S
O187 Zn182 2.049 . S
O187 C195 1.260 . S
O188 Zn183 1.996 . S
O188 C195 1.257 1_655 S
C189 O184 1.254 1_455 S
C189 O185 1.269 . S
C190 O191 1.249 . S
C190 O192 1.270 . S
O191 Zn183 1.943 1_455 S
O191 C190 1.249 . S
O192 Zn182 2.067 . S
O192 C190 1.270 . S
C193 O186 1.262 . S
C193 O194 1.232 . S
O194 C193 1.232 . S
C195 O187 1.260 . S
C195 O188 1.257 1_455 S
Zn196 O199 2.031 . S
Zn196 O201 2.049 . S
Zn196 O206 2.067 . S
Zn197 O198 1.962 . S
Zn197 O200 1.986 . S
Zn197 O202 1.996 . S
Zn197 O205 1.943 . S
O198 Zn197 1.962 . S
O198 C203 1.254 . S
O199 Zn196 2.031 . S
O199 C203 1.269 . S
O200 Zn197 1.986 . S
O200 C207 1.262 . S
O201 Zn196 2.049 . S
O201 C209 1.260 . S
O202 Zn197 1.996 . S
O202 C209 1.257 . S
C203 O198 1.254 . S
C203 O199 1.269 . S
C204 O205 1.249 . S
C204 O206 1.270 . S
O205 Zn197 1.943 . S
O205 C204 1.249 . S
O206 Zn196 2.067 . S
O206 C204 1.270 . S
C207 O200 1.262 . S
C207 O208 1.232 . S
O208 C207 1.232 . S
C209 O201 1.260 . S
C209 O202 1.257 . S
Zn210 O213 2.031 . S
Zn210 O215 2.049 . S
Zn210 O220 2.067 . S
Zn211 O212 1.962 . S
Zn211 O214 1.986 . S
Zn211 O216 1.996 . S
Zn211 O219 1.943 . S
O212 Zn211 1.962 . S
O212 C217 1.254 . S
O213 Zn210 2.031 . S
O213 C217 1.269 . S
O214 Zn211 1.986 . S
O214 C221 1.262 . S
O215 Zn210 2.049 . S
O215 C223 1.260 . S
O216 Zn211 1.996 . S
O216 C223 1.257 . S
C217 O212 1.254 . S
C217 O213 1.269 . S
C218 O219 1.249 . S
C218 O220 1.270 . S
O219 Zn211 1.943 . S
O219 C218 1.249 . S
O220 Zn210 2.067 . S
O220 C218 1.270 . S
C221 O214 1.262 . S
C221 O222 1.232 . S
O222 C221 1.232 . S
C223 O215 1.260 . S
C223 O216 1.257 . S
Zn224 O227 2.031 . S
Zn224 O229 2.049 . S
Zn224 O234 2.067 1_545 S
Zn225 O226 1.962 . S
Zn225 O228 1.986 . S
Zn225 O230 1.996 . S
Zn225 O233 1.943 . S
O226 Zn225 1.962 . S
O226 C231 1.254 . S
O227 Zn224 2.031 . S
O227 C231 1.269 . S
O228 Zn225 1.986 . S
O228 C235 1.262 . S
O229 Zn224 2.049 . S
O229 C237 1.260 . S
O230 Zn225 1.996 . S
O230 C237 1.257 . S
C231 O226 1.254 . S
C231 O227 1.269 . S
C232 O233 1.249 . S
C232 O234 1.270 1_545 S
O233 Zn225 1.943 . S
O233 C232 1.249 . S
O234 Zn224 2.067 1_565 S
O234 C232 1.270 1_565 S
C235 O228 1.262 . S
C235 O236 1.232 . S
O236 C235 1.232 . S
C237 O229 1.260 . S
C237 O230 1.257 . S
Zn238 O241 2.031 . S
Zn238 O243 2.049 . S
Zn238 O248 2.067 . S
Zn239 O240 1.962 . S
Zn239 O242 1.986 . S
Zn239 O244 1.996 . S
Zn239 O247 1.943 . S
O240 Zn239 1.962 . S
O240 C245 1.254 . S
O241 Zn238 2.031 . S
O241 C245 1.269 . S
O242 Zn239 1.986 . S
O242 C249 1.262 . S
O243 Zn238 2.049 . S
O243 C251 1.260 . S
O244 Zn239 1.996 . S
O244 C251 1.257 . S
C245 O240 1.254 . S
C245 O241 1.269 . S
C246 O247 1.249 . S
C246 O248 1.270 . S
O247 Zn239 1.943 . S
O247 C246 1.249 . S
O248 Zn238 2.067 . S
O248 C246 1.270 . S
C249 O242 1.262 . S
C249 O250 1.232 . S
O250 C249 1.232 . S
C251 O243 1.260 . S
C251 O244 1.257 . S
Zn252 O255 2.031 . S
Zn252 O257 2.049 . S
Zn252 O262 2.067 . S
Zn253 O254 1.962 . S
Zn253 O256 1.986 . S
Zn253 O258 1.998 . S
Zn253 O261 1.943 1_565 S
O254 Zn253 1.962 . S
O254 C259 1.254 1_565 S
O255 Zn252 2.031 . S
O255 C259 1.269 . S
O256 Zn253 1.986 . S
O256 C263 1.262 . S
O257 Zn252 2.049 . S
O257 C265 1.260 . S
O258 Zn253 1.998 . S
O258 C265 1.252 1_565 S
C259 O254 1.254 1_545 S
C259 O255 1.269 . S
C260 O261 1.249 . S
C260 O262 1.270 . S
O261 Zn253 1.943 1_545 S
O261 C260 1.249 . S
O262 Zn252 2.067 . S
O262 C260 1.270 . S
C263 O256 1.262 . S
C263 O264 1.232 . S
O264 C263 1.232 . S
C265 O257 1.260 . S
C265 O258 1.252 1_545 S
Zn266 O269 2.031 1_554 S
Zn266 O271 2.049 . S
Zn266 O276 2.067 . S
Zn267 O268 1.962 1_554 S
Zn267 O270 1.986 . S
Zn267 O272 1.996 . S
Zn267 O275 1.943 . S
O268 Zn267 1.962 1_556 S
O268 C273 1.254 . S
O269 Zn266 2.031 1_556 S
O269 C273 1.269 . S
O270 Zn267 1.986 . S
O270 C277 1.262 . S
O271 Zn266 2.049 . S
O271 C279 1.260 . S
O272 Zn267 1.996 . S
O272 C279 1.257 . S
C273 O268 1.254 . S
C273 O269 1.269 . S
C274 O275 1.249 . S
C274 O276 1.270 . S
O275 Zn267 1.943 . S
O275 C274 1.249 . S
O276 Zn266 2.067 . S
O276 C274 1.270 . S
C277 O270 1.262 . S
C277 O278 1.232 . S
O278 C277 1.232 . S
C279 O271 1.260 . S
C279 O272 1.257 . S
Zn280 O283 2.031 1_554 S
Zn280 O285 2.049 . S
Zn280 O290 2.067 . S
Zn281 O282 1.962 . S
Zn281 O284 1.986 1_556 S
Zn281 O286 1.996 1_556 S
Zn281 O289 1.943 1_556 S
O282 Zn281 1.962 . S
O282 C287 1.254 . S
O283 Zn280 2.031 1_556 S
O283 C287 1.269 . S
O284 Zn281 1.986 1_554 S
O284 C291 1.262 1_554 S
O285 Zn280 2.049 . S
O285 C293 1.260 . S
O286 Zn281 1.996 1_554 S
O286 C293 1.257 . S
C287 O282 1.254 . S
C287 O283 1.269 . S
C288 O289 1.251 . S
C288 O290 1.270 . S
O289 Zn281 1.943 1_554 S
O289 C288 1.251 . S
O290 Zn280 2.067 . S
O290 C288 1.270 . S
C291 O284 1.262 1_556 S
C291 O292 1.232 . S
O292 C291 1.232 . S
C293 O285 1.260 . S
C293 O286 1.257 . S
Zn294 O297 2.031 . S
Zn294 O299 2.049 . S
Zn294 O304 2.067 . S
Zn295 O296 1.962 . S
Zn295 O298 1.986 . S
Zn295 O300 1.996 . S
Zn295 O303 1.943 . S
O296 Zn295 1.962 . S
O296 C301 1.254 . S
O297 Zn294 2.031 . S
O297 C301 1.269 . S
O298 Zn295 1.986 . S
O298 C305 1.262 . S
O299 Zn294 2.049 . S
O299 C307 1.260 . S
O300 Zn295 1.996 . S
O300 C307 1.257 . S
C301 O296 1.254 . S
C301 O297 1.269 . S
C302 O303 1.249 . S
C302 O304 1.270 . S
O303 Zn295 1.943 . S
O303 C302 1.249 . S
O304 Zn294 2.067 . S
O304 C302 1.270 . S
C305 O298 1.262 . S
C305 O306 1.232 . S
O306 C305 1.232 . S
C307 O299 1.260 . S
C307 O300 1.257 . S
Zn308 O311 2.031 . S
Zn308 O313 2.049 . S
Zn308 O318 2.067 . S
Zn309 O310 1.962 . S
Zn309 O312 1.986 . S
Zn309 O314 1.996 . S
Zn309 O317 1.943 . S
O310 Zn309 1.962 . S
O310 C315 1.254 . S
O311 Zn308 2.031 . S
O311 C315 1.269 . S
O312 Zn309 1.986 . S
O312 C319 1.262 . S
O313 Zn308 2.049 . S
O313 C321 1.260 . S
O314 Zn309 1.996 . S
O314 C321 1.257 . S
C315 O310 1.254 . S
C315 O311 1.269 . S
C316 O317 1.249 . S
C316 O318 1.270 . S
O317 Zn309 1.943 . S
O317 C316 1.249 . S
O318 Zn308 2.067 . S
O318 C316 1.270 . S
C319 O312 1.262 . S
C319 O320 1.232 . S
O320 C319 1.232 . S
C321 O313 1.260 . S
C321 O314 1.257 . S
Zn322 O325 2.031 . S
Zn322 O327 2.049 . S
Zn322 O332 2.067 . S
Zn323 O324 1.962 . S
Zn323 O326 1.986 . S
Zn323 O328 1.996 . S
Zn323 O331 1.943 . S
O324 Zn323 1.962 . S
O324 C329 1.254 . S
O325 Zn322 2.031 . S
O325 C329 1.269 . S
O326 Zn323 1.986 . S
O326 C333 1.262 . S
O327 Zn322 2.049 . S
O327 C335 1.260 . S
O328 Zn323 1.996 . S
O328 C335 1.257 . S
C329 O324 1.254 . S
C329 O325 1.269 . S
C330 O331 1.249 . S
C330 O332 1.270 . S
O331 Zn323 1.943 . S
O331 C330 1.249 . S
O332 Zn322 2.067 . S
O332 C330 1.270 . S
C333 O326 1.262 . S
C333 O334 1.232 . S
O334 C333 1.232 . S
C335 O327 1.260 . S
C335 O328 1.257 . S
Co336 N341 2.063 . S
Co336 O353 2.023 1_545 S
Co336 O356 2.060 1_456 S
Co336 O360 2.112 1_556 S
Co336 O361 2.019 . S
C337 O357 1.259 . S
C337 O360 1.258 . S
Co338 N347 2.057 1_545 S
Co338 O354 2.117 1_545 S
Co338 O355 2.020 1_455 S
Co338 O357 2.021 . S
Co338 O362 2.062 . S
C339 N341 1.316 1_655 S
C339 N342 1.347 . S
C339 H344 0.931 1_655 S
C340 N341 1.375 1_655 S
C340 C343 1.350 . S
C340 H345 0.930 . S
N341 Co336 2.063 . S
N341 C339 1.316 1_455 S
N341 C340 1.375 1_455 S
N342 C339 1.347 . S
N342 C343 1.373 . S
C343 C340 1.350 . S
C343 N342 1.373 . S
C343 H364 0.931 . S
H344 C339 0.931 1_455 S
H345 C340 0.930 . S
C346 O353 1.259 1_554 S
C346 O354 1.258 . S
N347 Co338 2.057 1_565 S
N347 C348 1.316 1_565 S
N347 C349 1.375 . S
C348 N347 1.316 1_545 S
C348 N350 1.347 1_545 S
C348 H359 0.931 . S
C349 N347 1.375 . S
C349 C351 1.350 . S
C349 H358 0.930 . S
N350 C348 1.347 1_565 S
N350 C351 1.373 . S
C351 C349 1.350 . S
C351 N350 1.373 . S
C351 H365 0.931 . S
C352 O355 1.256 . S
C352 O356 1.255 . S
O353 Co336 2.023 1_565 S
O353 C346 1.259 1_556 S
O354 Co338 2.117 1_565 S
O354 C346 1.258 . S
O355 Co338 2.020 1_655 S
O355 C352 1.256 . S
O356 Co336 2.060 1_654 S
O356 C352 1.255 . S
O357 C337 1.259 . S
O357 Co338 2.021 . S
H358 C349 0.930 . S
H359 C348 0.931 . S
O360 Co336 2.112 1_554 S
O360 C337 1.258 . S
O361 Co336 2.019 . S
O361 C363 1.252 1_556 S
O362 Co338 2.062 . S
O362 C363 1.255 . S
C363 O361 1.252 1_554 S
C363 O362 1.255 . S
H364 C343 0.931 . S
H365 C351 0.931 . S
Co366 N371 2.057 . S
Co366 O383 2.021 . S
Co366 O386 2.062 . S
Co366 O390 2.117 . S
Co366 O391 2.020 . S
C367 O387 1.259 . S
C367 O390 1.258 . S
Co368 N377 2.057 . S
Co368 O384 2.117 . S
Co368 O385 2.020 . S
Co368 O387 2.021 . S
Co368 O392 2.062 . S
C369 N371 1.316 . S
C369 N372 1.347 . S
C369 H374 0.931 . S
C370 N371 1.375 . S
C370 C373 1.350 . S
C370 H375 0.930 . S
N371 Co366 2.057 . S
N371 C369 1.316 . S
N371 C370 1.375 . S
N372 C369 1.347 . S
N372 C373 1.373 . S
C373 C370 1.350 . S
C373 N372 1.373 . S
C373 H394 0.931 . S
H374 C369 0.931 . S
H375 C370 0.930 . S
C376 O383 1.259 . S
C376 O384 1.258 . S
N377 Co368 2.057 . S
N377 C378 1.316 . S
N377 C379 1.375 . S
C378 N377 1.316 . S
C378 N380 1.347 . S
C378 H389 0.931 . S
C379 N377 1.375 . S
C379 C381 1.350 . S
C379 H388 0.930 . S
N380 C378 1.347 . S
N380 C381 1.373 . S
C381 C379 1.350 . S
C381 N380 1.373 . S
C381 H395 0.931 . S
C382 O385 1.256 . S
C382 O386 1.255 . S
O383 Co366 2.021 . S
O383 C376 1.259 . S
O384 Co368 2.117 . S
O384 C376 1.258 . S
O385 Co368 2.020 . S
O385 C382 1.256 . S
O386 Co366 2.062 . S
O386 C382 1.255 . S
O387 C367 1.259 . S
O387 Co368 2.021 . S
H388 C379 0.930 . S
H389 C378 0.931 . S
O390 Co366 2.117 . S
O390 C367 1.258 . S
O391 Co366 2.020 . S
O391 C393 1.256 . S
O392 Co368 2.062 . S
O392 C393 1.255 . S
C393 O391 1.256 . S
C393 O392 1.255 . S
H394 C373 0.931 . S
H395 C381 0.931 . S
Co396 N401 2.057 . S
Co396 O413 2.021 1_545 S
Co396 O416 2.062 . S
Co396 O420 2.117 . S
Co396 O421 2.020 . S
C397 O417 1.259 . S
C397 O420 1.258 . S
Co398 N407 2.057 . S
Co398 O414 2.117 . S
Co398 O415 2.020 . S
Co398 O417 2.021 . S
Co398 O422 2.062 . S
C399 N401 1.316 1_565 S
C399 N402 1.347 . S
C399 H404 0.931 . S
C400 N401 1.375 . S
C400 C403 1.350 . S
C400 H405 0.930 . S
N401 Co396 2.057 . S
N401 C399 1.316 1_545 S
N401 C400 1.375 . S
N402 C399 1.347 . S
N402 C403 1.373 1_565 S
C403 C400 1.350 . S
C403 N402 1.373 1_545 S
C403 H424 0.931 . S
H404 C399 0.931 . S
H405 C400 0.930 . S
C406 O413 1.259 . S
C406 O414 1.258 1_565 S
N407 Co398 2.057 . S
N407 C408 1.316 . S
N407 C409 1.375 . S
C408 N407 1.316 . S
C408 N410 1.347 . S
C408 H419 0.931 . S
C409 N407 1.375 . S
C409 C411 1.350 . S
C409 H418 0.930 . S
N410 C408 1.347 . S
N410 C411 1.373 . S
C411 C409 1.350 . S
C411 N410 1.373 . S
C411 H425 0.931 . S
C412 O415 1.256 . S
C412 O416 1.255 . S
O413 Co396 2.021 1_565 S
O413 C406 1.259 . S
O414 Co398 2.117 . S
O414 C406 1.258 1_545 S
O415 Co398 2.020 . S
O415 C412 1.256 . S
O416 Co396 2.062 . S
O416 C412 1.255 . S
O417 C397 1.259 . S
O417 Co398 2.021 . S
H418 C409 0.930 . S
H419 C408 0.931 . S
O420 Co396 2.117 . S
O420 C397 1.258 . S
O421 Co396 2.020 . S
O421 C423 1.256 . S
O422 Co398 2.062 . S
O422 C423 1.255 . S
C423 O421 1.256 . S
C423 O422 1.255 . S
H424 C403 0.931 . S
H425 C411 0.931 . S
Co426 N431 2.057 . S
Co426 O443 2.021 . S
Co426 O446 2.062 . S
Co426 O450 2.117 . S
Co426 O451 2.020 . S
C427 O447 1.259 . S
C427 O450 1.258 . S
Co428 N437 2.057 . S
Co428 O444 2.117 . S
Co428 O445 2.020 . S
Co428 O447 2.021 . S
Co428 O452 2.062 . S
C429 N431 1.316 . S
C429 N432 1.347 . S
C429 H434 0.931 . S
C430 N431 1.375 . S
C430 C433 1.350 . S
C430 H435 0.930 . S
N431 Co426 2.057 . S
N431 C429 1.316 . S
N431 C430 1.375 . S
N432 C429 1.347 . S
N432 C433 1.373 . S
C433 C430 1.350 . S
C433 N432 1.373 . S
C433 H454 0.931 . S
H434 C429 0.931 . S
H435 C430 0.930 . S
C436 O443 1.259 . S
C436 O444 1.258 . S
N437 Co428 2.057 . S
N437 C438 1.316 . S
N437 C439 1.375 . S
C438 N437 1.316 . S
C438 N440 1.347 . S
C438 H449 0.931 . S
C439 N437 1.375 . S
C439 C441 1.350 . S
C439 H448 0.930 . S
N440 C438 1.347 . S
N440 C441 1.373 . S
C441 C439 1.350 . S
C441 N440 1.373 . S
C441 H455 0.931 . S
C442 O445 1.256 . S
C442 O446 1.255 . S
O443 Co426 2.021 . S
O443 C436 1.259 . S
O444 Co428 2.117 . S
O444 C436 1.258 . S
O445 Co428 2.020 . S
O445 C442 1.256 . S
O446 Co426 2.062 . S
O446 C442 1.255 . S
O447 C427 1.259 . S
O447 Co428 2.021 . S
H448 C439 0.930 . S
H449 C438 0.931 . S
O450 Co426 2.117 . S
O450 C427 1.258 . S
O451 Co426 2.020 . S
O451 C453 1.256 . S
O452 Co428 2.062 . S
O452 C453 1.255 . S
C453 O451 1.256 . S
C453 O452 1.255 . S
H454 C433 0.931 . S
H455 C441 0.931 . S
Co456 N461 2.057 1_545 S
Co456 O473 2.021 . S
Co456 O476 2.062 1_545 S
Co456 O480 2.124 . S
Co456 O481 2.020 1_455 S
C457 O477 1.259 1_655 S
C457 O480 1.258 1_655 S
Co458 N467 2.057 . S
Co458 O474 2.117 . S
Co458 O475 2.020 . S
Co458 O477 2.021 . S
Co458 O482 2.062 1_455 S
C459 N461 1.316 . S
C459 N462 1.344 1_455 S
C459 H464 0.931 . S
C460 N461 1.375 1_655 S
C460 C463 1.350 . S
C460 H465 0.930 . S
N461 Co456 2.057 1_565 S
N461 C459 1.316 . S
N461 C460 1.375 1_455 S
N462 C459 1.344 1_655 S
N462 C463 1.377 . S
C463 C460 1.350 . S
C463 N462 1.377 . S
C463 H484 0.931 . S
H464 C459 0.931 . S
H465 C460 0.930 . S
C466 O473 1.259 . S
C466 O474 1.258 . S
N467 Co458 2.057 . S
N467 C468 1.316 . S
N467 C469 1.375 . S
C468 N467 1.316 . S
C468 N470 1.347 . S
C468 H479 0.931 . S
C469 N467 1.375 . S
C469 C471 1.350 . S
C469 H478 0.930 . S
N470 C468 1.347 . S
N470 C471 1.373 . S
C471 C469 1.350 . S
C471 N470 1.373 . S
C471 H485 0.931 . S
C472 O475 1.256 . S
C472 O476 1.255 1_545 S
O473 Co456 2.021 . S
O473 C466 1.259 . S
O474 Co458 2.117 . S
O474 C466 1.258 . S
O475 Co458 2.020 . S
O475 C472 1.256 . S
O476 Co456 2.062 1_565 S
O476 C472 1.255 1_565 S
O477 C457 1.259 1_455 S
O477 Co458 2.021 . S
H478 C469 0.930 . S
H479 C468 0.931 . S
O480 Co456 2.124 . S
O480 C457 1.258 1_455 S
O481 Co456 2.020 1_655 S
O481 C483 1.256 . S
O482 Co458 2.062 1_655 S
O482 C483 1.255 . S
C483 O481 1.256 . S
C483 O482 1.255 . S
H484 C463 0.931 . S
H485 C471 0.931 . S
Co486 N491 2.057 . S
Co486 O503 2.021 . S
Co486 O506 2.062 . S
Co486 O510 2.117 . S
Co486 O511 2.020 . S
C487 O507 1.259 . S
C487 O510 1.258 . S
Co488 N497 2.057 . S
Co488 O504 2.117 . S
Co488 O505 2.020 . S
Co488 O507 2.021 . S
Co488 O512 2.062 . S
C489 N491 1.316 . S
C489 N492 1.347 . S
C489 H494 0.931 . S
C490 N491 1.375 . S
C490 C493 1.350 . S
C490 H495 0.930 . S
N491 Co486 2.057 . S
N491 C489 1.316 . S
N491 C490 1.375 . S
N492 C489 1.347 . S
N492 C493 1.373 . S
C493 C490 1.350 . S
C493 N492 1.373 . S
C493 H514 0.931 . S
H494 C489 0.931 . S
H495 C490 0.930 . S
C496 O503 1.259 . S
C496 O504 1.258 . S
N497 Co488 2.057 . S
N497 C498 1.316 . S
N497 C499 1.375 . S
C498 N497 1.316 . S
C498 N500 1.347 . S
C498 H509 0.931 . S
C499 N497 1.375 . S
C499 C501 1.350 . S
C499 H508 0.930 . S
N500 C498 1.347 . S
N500 C501 1.373 . S
C501 C499 1.350 . S
C501 N500 1.373 . S
C501 H515 0.931 . S
C502 O505 1.256 . S
C502 O506 1.255 . S
O503 Co486 2.021 . S
O503 C496 1.259 . S
O504 Co488 2.117 . S
O504 C496 1.258 . S
O505 Co488 2.020 . S
O505 C502 1.256 . S
O506 Co486 2.062 . S
O506 C502 1.255 . S
O507 C487 1.259 . S
O507 Co488 2.021 . S
H508 C499 0.930 . S
H509 C498 0.931 . S
O510 Co486 2.117 . S
O510 C487 1.258 . S
O511 Co486 2.020 . S
O511 C513 1.256 . S
O512 Co488 2.062 . S
O512 C513 1.255 . S
C513 O511 1.256 . S
C513 O512 1.255 . S
H514 C493 0.931 . S
H515 C501 0.931 . S
Co516 N521 2.057 1_554 S
Co516 O533 2.021 . S
Co516 O536 2.062 1_554 S
Co516 O540 2.117 . S
Co516 O541 2.020 1_545 S
C517 O537 1.259 . S
C517 O540 1.258 . S
Co518 N527 2.057 . S
Co518 O534 2.117 . S
Co518 O535 2.020 . S
Co518 O537 2.021 . S
Co518 O542 2.062 1_545 S
C519 N521 1.316 . S
C519 N522 1.347 . S
C519 H524 0.931 . S
C520 N521 1.375 1_565 S
C520 C523 1.350 . S
C520 H525 0.930 . S
N521 Co516 2.057 1_556 S
N521 C519 1.316 . S
N521 C520 1.375 1_545 S
N522 C519 1.347 . S
N522 C523 1.373 1_545 S
C523 C520 1.350 . S
C523 N522 1.373 1_565 S
C523 H544 0.931 . S
H524 C519 0.931 . S
H525 C520 0.930 . S
C526 O533 1.259 . S
C526 O534 1.258 . S
N527 Co518 2.057 . S
N527 C528 1.316 . S
N527 C529 1.375 . S
C528 N527 1.316 . S
C528 N530 1.347 . S
C528 H539 0.931 . S
C529 N527 1.375 . S
C529 C531 1.350 . S
C529 H538 0.930 . S
N530 C528 1.347 . S
N530 C531 1.373 . S
C531 C529 1.350 . S
C531 N530 1.373 . S
C531 H545 0.931 . S
C532 O535 1.256 . S
C532 O536 1.255 1_554 S
O533 Co516 2.021 . S
O533 C526 1.259 . S
O534 Co518 2.117 . S
O534 C526 1.258 . S
O535 Co518 2.020 . S
O535 C532 1.256 . S
O536 Co516 2.062 1_556 S
O536 C532 1.255 1_556 S
O537 C517 1.259 . S
O537 Co518 2.021 . S
H538 C529 0.930 . S
H539 C528 0.931 . S
O540 Co516 2.117 . S
O540 C517 1.258 . S
O541 Co516 2.020 1_565 S
O541 C543 1.256 . S
O542 Co518 2.062 1_565 S
O542 C543 1.255 . S
C543 O541 1.256 . S
C543 O542 1.255 . S
H544 C523 0.931 . S
H545 C531 0.931 . S
Co546 N551 2.057 . S
Co546 O563 2.021 . S
Co546 O566 2.062 . S
Co546 O570 2.117 . S
Co546 O571 2.020 . S
C547 O567 1.259 . S
C547 O570 1.258 . S
Co548 N557 2.057 . S
Co548 O564 2.117 . S
Co548 O565 2.020 . S
Co548 O567 2.021 . S
Co548 O572 2.062 . S
C549 N551 1.316 . S
C549 N552 1.347 . S
C549 H554 0.931 . S
C550 N551 1.375 . S
C550 C553 1.350 . S
C550 H555 0.930 . S
N551 Co546 2.057 . S
N551 C549 1.316 . S
N551 C550 1.375 . S
N552 C549 1.347 . S
N552 C553 1.373 . S
C553 C550 1.350 . S
C553 N552 1.373 . S
C553 H574 0.931 . S
H554 C549 0.931 . S
H555 C550 0.930 . S
C556 O563 1.259 . S
C556 O564 1.258 . S
N557 Co548 2.057 . S
N557 C558 1.316 . S
N557 C559 1.375 . S
C558 N557 1.316 . S
C558 N560 1.347 . S
C558 H569 0.931 . S
C559 N557 1.375 . S
C559 C561 1.350 . S
C559 H568 0.930 . S
N560 C558 1.347 . S
N560 C561 1.373 . S
C561 C559 1.350 . S
C561 N560 1.373 . S
C561 H575 0.931 . S
C562 O565 1.256 . S
C562 O566 1.255 . S
O563 Co546 2.021 . S
O563 C556 1.259 . S
O564 Co548 2.117 . S
O564 C556 1.258 . S
O565 Co548 2.020 . S
O565 C562 1.256 . S
O566 Co546 2.062 . S
O566 C562 1.255 . S
O567 C547 1.259 . S
O567 Co548 2.021 . S
H568 C559 0.930 . S
H569 C558 0.931 . S
O570 Co546 2.117 . S
O570 C547 1.258 . S
O571 Co546 2.020 . S
O571 C573 1.256 . S
O572 Co548 2.062 . S
O572 C573 1.255 . S
C573 O571 1.256 . S
C573 O572 1.255 . S
H574 C553 0.931 . S
H575 C561 0.931 . S
Co576 N581 2.057 . S
Co576 O593 2.021 1_554 S
Co576 O596 2.062 . S
Co576 O600 2.117 . S
Co576 O601 2.020 . S
C577 O597 1.259 . S
C577 O600 1.258 . S
Co578 N587 2.057 . S
Co578 O594 2.117 . S
Co578 O595 2.020 . S
Co578 O597 2.021 . S
Co578 O602 2.062 . S
C579 N581 1.316 1_556 S
C579 N582 1.347 1_556 S
C579 H584 0.931 . S
C580 N581 1.375 . S
C580 C583 1.350 . S
C580 H585 0.930 . S
N581 Co576 2.057 . S
N581 C579 1.316 1_554 S
N581 C580 1.375 . S
N582 C579 1.347 1_554 S
N582 C583 1.373 . S
C583 C580 1.350 . S
C583 N582 1.373 . S
C583 H604 0.931 . S
H584 C579 0.931 . S
H585 C580 0.930 . S
C586 O593 1.259 . S
C586 O594 1.258 1_556 S
N587 Co578 2.057 . S
N587 C588 1.316 . S
N587 C589 1.375 . S
C588 N587 1.316 . S
C588 N590 1.347 . S
C588 H599 0.931 . S
C589 N587 1.375 . S
C589 C591 1.350 . S
C589 H598 0.930 . S
N590 C588 1.347 . S
N590 C591 1.373 . S
C591 C589 1.350 . S
C591 N590 1.373 . S
C591 H605 0.931 . S
C592 O595 1.256 . S
C592 O596 1.255 . S
O593 Co576 2.021 1_556 S
O593 C586 1.259 . S
O594 Co578 2.117 . S
O594 C586 1.258 1_554 S
O595 Co578 2.020 . S
O595 C592 1.256 . S
O596 Co576 2.062 . S
O596 C592 1.255 . S
O597 C577 1.259 . S
O597 Co578 2.021 . S
H598 C589 0.930 . S
H599 C588 0.931 . S
O600 Co576 2.117 . S
O600 C577 1.258 . S
O601 Co576 2.020 . S
O601 C603 1.256 . S
O602 Co578 2.062 . S
O602 C603 1.255 . S
C603 O601 1.256 . S
C603 O602 1.255 . S
H604 C583 0.931 . S
H605 C591 0.931 . S
Co606 N611 2.057 . S
Co606 O623 2.021 . S
Co606 O626 2.062 . S
Co606 O630 2.117 . S
Co606 O631 2.020 . S
C607 O627 1.259 . S
C607 O630 1.258 . S
Co608 N617 2.057 . S
Co608 O624 2.117 . S
Co608 O625 2.020 . S
Co608 O627 2.021 . S
Co608 O632 2.062 . S
C609 N611 1.316 . S
C609 N612 1.347 . S
C609 H614 0.931 . S
C610 N611 1.375 . S
C610 C613 1.350 . S
C610 H615 0.930 . S
N611 Co606 2.057 . S
N611 C609 1.316 . S
N611 C610 1.375 . S
N612 C609 1.347 . S
N612 C613 1.373 . S
C613 C610 1.350 . S
C613 N612 1.373 . S
C613 H634 0.931 . S
H614 C609 0.931 . S
H615 C610 0.930 . S
C616 O623 1.259 . S
C616 O624 1.258 . S
N617 Co608 2.057 . S
N617 C618 1.316 . S
N617 C619 1.375 . S
C618 N617 1.316 . S
C618 N620 1.347 . S
C618 H629 0.931 . S
C619 N617 1.375 . S
C619 C621 1.350 . S
C619 H628 0.930 . S
N620 C618 1.347 . S
N620 C621 1.373 . S
C621 C619 1.350 . S
C621 N620 1.373 . S
C621 H635 0.931 . S
C622 O625 1.256 . S
C622 O626 1.255 . S
O623 Co606 2.021 . S
O623 C616 1.259 . S
O624 Co608 2.117 . S
O624 C616 1.258 . S
O625 Co608 2.020 . S
O625 C622 1.256 . S
O626 Co606 2.062 . S
O626 C622 1.255 . S
O627 C607 1.259 . S
O627 Co608 2.021 . S
H628 C619 0.930 . S
H629 C618 0.931 . S
O630 Co606 2.117 . S
O630 C607 1.258 . S
O631 Co606 2.020 . S
O631 C633 1.256 . S
O632 Co608 2.062 . S
O632 C633 1.255 . S
C633 O631 1.256 . S
C633 O632 1.255 . S
H634 C613 0.931 . S
H635 C621 0.931 . S
Co636 N641 2.057 . S
Co636 O653 2.021 1_455 S
Co636 O656 2.062 . S
Co636 O660 2.117 . S
Co636 O661 2.020 . S
C637 O657 1.259 . S
C637 O660 1.258 . S
Co638 N647 2.057 . S
Co638 O654 2.117 1_455 S
Co638 O655 2.020 . S
Co638 O657 2.021 . S
Co638 O662 2.062 . S
C639 N641 1.316 1_655 S
C639 N642 1.347 . S
C639 H644 0.931 . S
C640 N641 1.375 . S
C640 C643 1.350 . S
C640 H645 0.930 . S
N641 Co636 2.057 . S
N641 C639 1.316 1_455 S
N641 C640 1.375 . S
N642 C639 1.347 . S
N642 C643 1.373 1_655 S
C643 C640 1.350 . S
C643 N642 1.373 1_455 S
C643 H664 0.931 . S
H644 C639 0.931 . S
H645 C640 0.930 . S
C646 O653 1.259 . S
C646 O654 1.258 . S
N647 Co638 2.057 . S
N647 C648 1.316 . S
N647 C649 1.375 . S
C648 N647 1.316 . S
C648 N650 1.347 . S
C648 H659 0.931 . S
C649 N647 1.375 . S
C649 C651 1.350 . S
C649 H658 0.930 . S
N650 C648 1.347 . S
N650 C651 1.373 . S
C651 C649 1.350 . S
C651 N650 1.373 . S
C651 H665 0.931 . S
C652 O655 1.256 . S
C652 O656 1.255 . S
O653 Co636 2.021 1_655 S
O653 C646 1.259 . S
O654 Co638 2.117 1_655 S
O654 C646 1.258 . S
O655 Co638 2.020 . S
O655 C652 1.256 . S
O656 Co636 2.062 . S
O656 C652 1.255 . S
O657 C637 1.259 . S
O657 Co638 2.021 . S
H658 C649 0.930 . S
H659 C648 0.931 . S
O660 Co636 2.117 . S
O660 C637 1.258 . S
O661 Co636 2.020 . S
O661 C663 1.256 . S
O662 Co638 2.062 . S
O662 C663 1.255 . S
C663 O661 1.256 . S
C663 O662 1.255 . S
H664 C643 0.931 . S
H665 C651 0.931 . S
Co666 N671 2.057 . S
Co666 O683 2.021 . S
Co666 O686 2.062 . S
Co666 O690 2.117 . S
Co666 O691 2.020 . S
C667 O687 1.259 . S
C667 O690 1.258 . S
Co668 N677 2.057 . S
Co668 O684 2.117 . S
Co668 O685 2.020 . S
Co668 O687 2.021 . S
Co668 O692 2.062 . S
C669 N671 1.316 . S
C669 N672 1.347 . S
C669 H674 0.931 . S
C670 N671 1.375 . S
C670 C673 1.350 . S
C670 H675 0.930 . S
N671 Co666 2.057 . S
N671 C669 1.316 . S
N671 C670 1.375 . S
N672 C669 1.347 . S
N672 C673 1.373 . S
C673 C670 1.350 . S
C673 N672 1.373 . S
C673 H694 0.931 . S
H674 C669 0.931 . S
H675 C670 0.930 . S
C676 O683 1.259 . S
C676 O684 1.258 . S
N677 Co668 2.057 . S
N677 C678 1.316 . S
N677 C679 1.375 . S
C678 N677 1.316 . S
C678 N680 1.347 . S
C678 H689 0.931 . S
C679 N677 1.375 . S
C679 C681 1.350 . S
C679 H688 0.930 . S
N680 C678 1.347 . S
N680 C681 1.373 . S
C681 C679 1.350 . S
C681 N680 1.373 . S
C681 H695 0.931 . S
C682 O685 1.256 . S
C682 O686 1.255 . S
O683 Co666 2.021 . S
O683 C676 1.259 . S
O684 Co668 2.117 . S
O684 C676 1.258 . S
O685 Co668 2.020 . S
O685 C682 1.256 . S
O686 Co666 2.062 . S
O686 C682 1.255 . S
O687 C667 1.259 . S
O687 Co668 2.021 . S
H688 C679 0.930 . S
H689 C678 0.931 . S
O690 Co666 2.117 . S
O690 C667 1.258 . S
O691 Co666 2.020 . S
O691 C693 1.256 . S
O692 Co668 2.062 . S
O692 C693 1.255 . S
C693 O691 1.256 . S
C693 O692 1.255 . S
H694 C673 0.931 . S
H695 C681 0.931 . S
Co696 N701 2.057 . S
Co696 O713 2.021 . S
Co696 O716 2.062 . S
Co696 O720 2.117 . S
Co696 O721 2.020 . S
C697 O717 1.259 . S
C697 O720 1.258 . S
Co698 N707 2.057 . S
Co698 O714 2.117 . S
Co698 O715 2.020 . S
Co698 O717 2.021 . S
Co698 O722 2.062 . S
C699 N701 1.316 . S
C699 N702 1.347 . S
C699 H704 0.931 . S
C700 N701 1.375 . S
C700 C703 1.350 . S
C700 H705 0.930 . S
N701 Co696 2.057 . S
N701 C699 1.316 . S
N701 C700 1.375 . S
N702 C699 1.347 . S
N702 C703 1.373 . S
C703 C700 1.350 . S
C703 N702 1.373 . S
C703 H724 0.931 . S
H704 C699 0.931 . S
H705 C700 0.930 . S
C706 O713 1.259 . S
C706 O714 1.258 . S
N707 Co698 2.057 . S
N707 C708 1.316 . S
N707 C709 1.375 . S
C708 N707 1.316 . S
C708 N710 1.347 . S
C708 H719 0.931 . S
C709 N707 1.375 . S
C709 C711 1.350 . S
C709 H718 0.930 . S
N710 C708 1.347 . S
N710 C711 1.373 . S
C711 C709 1.350 . S
C711 N710 1.373 . S
C711 H725 0.931 . S
C712 O715 1.256 . S
C712 O716 1.255 . S
O713 Co696 2.021 . S
O713 C706 1.259 . S
O714 Co698 2.117 . S
O714 C706 1.258 . S
O715 Co698 2.020 . S
O715 C712 1.256 . S
O716 Co696 2.062 . S
O716 C712 1.255 . S
O717 C697 1.259 . S
O717 Co698 2.021 . S
H718 C709 0.930 . S
H719 C708 0.931 . S
O720 Co696 2.117 . S
O720 C697 1.258 . S
O721 Co696 2.020 . S
O721 C723 1.256 . S
O722 Co698 2.062 . S
O722 C723 1.255 . S
C723 O721 1.256 . S
C723 O722 1.255 . S
H724 C703 0.931 . S
H725 C711 0.931 . S
Co726 N731 2.057 . S
Co726 O743 2.021 . S
Co726 O746 2.062 . S
Co726 O750 2.117 . S
Co726 O751 2.020 . S
C727 O747 1.259 . S
C727 O750 1.258 . S
Co728 N737 2.057 . S
Co728 O744 2.117 . S
Co728 O745 2.020 . S
Co728 O747 2.021 . S
Co728 O752 2.062 . S
C729 N731 1.316 . S
C729 N732 1.347 . S
C729 H734 0.931 . S
C730 N731 1.375 . S
C730 C733 1.350 . S
C730 H735 0.930 . S
N731 Co726 2.057 . S
N731 C729 1.316 . S
N731 C730 1.375 . S
N732 C729 1.347 . S
N732 C733 1.373 . S
C733 C730 1.350 . S
C733 N732 1.373 . S
C733 H754 0.931 . S
H734 C729 0.931 . S
H735 C730 0.930 . S
C736 O743 1.259 . S
C736 O744 1.258 . S
N737 Co728 2.057 . S
N737 C738 1.316 . S
N737 C739 1.375 . S
C738 N737 1.316 . S
C738 N740 1.347 . S
C738 H749 0.931 . S
C739 N737 1.375 . S
C739 C741 1.350 . S
C739 H748 0.930 . S
N740 C738 1.347 . S
N740 C741 1.373 . S
C741 C739 1.350 . S
C741 N740 1.373 . S
C741 H755 0.931 . S
C742 O745 1.256 . S
C742 O746 1.255 . S
O743 Co726 2.021 . S
O743 C736 1.259 . S
O744 Co728 2.117 . S
O744 C736 1.258 . S
O745 Co728 2.020 . S
O745 C742 1.256 . S
O746 Co726 2.062 . S
O746 C742 1.255 . S
O747 C727 1.259 . S
O747 Co728 2.021 . S
H748 C739 0.930 . S
H749 C738 0.931 . S
O750 Co726 2.117 . S
O750 C727 1.258 . S
O751 Co726 2.020 . S
O751 C753 1.256 . S
O752 Co728 2.062 . S
O752 C753 1.255 . S
C753 O751 1.256 . S
C753 O752 1.255 . S
H754 C733 0.931 . S
H755 C741 0.931 . S
Co756 N761 2.057 . S
Co756 O773 2.021 . S
Co756 O776 2.062 . S
Co756 O780 2.117 . S
Co756 O781 2.020 . S
C757 O777 1.259 . S
C757 O780 1.258 . S
Co758 N767 2.057 . S
Co758 O774 2.117 . S
Co758 O775 2.020 . S
Co758 O777 2.021 . S
Co758 O782 2.062 . S
C759 N761 1.316 . S
C759 N762 1.347 . S
C759 H764 0.931 . S
C760 N761 1.375 . S
C760 C763 1.350 . S
C760 H765 0.930 . S
N761 Co756 2.057 . S
N761 C759 1.316 . S
N761 C760 1.375 . S
N762 C759 1.347 . S
N762 C763 1.373 . S
C763 C760 1.350 . S
C763 N762 1.373 . S
C763 H784 0.931 . S
H764 C759 0.931 . S
H765 C760 0.930 . S
C766 O773 1.259 . S
C766 O774 1.258 . S
N767 Co758 2.057 . S
N767 C768 1.316 . S
N767 C769 1.375 . S
C768 N767 1.316 . S
C768 N770 1.347 . S
C768 H779 0.931 . S
C769 N767 1.375 . S
C769 C771 1.350 . S
C769 H778 0.930 . S
N770 C768 1.347 . S
N770 C771 1.373 . S
C771 C769 1.350 . S
C771 N770 1.373 . S
C771 H785 0.931 . S
C772 O775 1.256 . S
C772 O776 1.255 . S
O773 Co756 2.021 . S
O773 C766 1.259 . S
O774 Co758 2.117 . S
O774 C766 1.258 . S
O775 Co758 2.020 . S
O775 C772 1.256 . S
O776 Co756 2.062 . S
O776 C772 1.255 . S
O777 C757 1.259 . S
O777 Co758 2.021 . S
H778 C769 0.930 . S
H779 C768 0.931 . S
O780 Co756 2.117 . S
O780 C757 1.258 . S
O781 Co756 2.020 . S
O781 C783 1.256 . S
O782 Co758 2.062 . S
O782 C783 1.255 . S
C783 O781 1.256 . S
C783 O782 1.255 . S
H784 C763 0.931 . S
H785 C771 0.931 . S
Co786 N791 2.057 1_455 S
Co786 O803 2.021 . S
Co786 O806 2.062 1_455 S
Co786 O810 2.117 . S
Co786 O811 2.020 1_554 S
C787 O807 1.259 . S
C787 O810 1.258 . S
Co788 N797 2.057 . S
Co788 O804 2.117 . S
Co788 O805 2.020 . S
Co788 O807 2.021 . S
Co788 O812 2.062 1_554 S
C789 N791 1.316 . S
C789 N792 1.347 . S
C789 H794 0.931 . S
C790 N791 1.375 1_556 S
C790 C793 1.350 . S
C790 H795 0.930 . S
N791 Co786 2.057 1_655 S
N791 C789 1.316 . S
N791 C790 1.375 1_554 S
N792 C789 1.347 . S
N792 C793 1.373 1_554 S
C793 C790 1.350 . S
C793 N792 1.373 1_556 S
C793 H814 0.931 . S
H794 C789 0.931 . S
H795 C790 0.930 . S
C796 O803 1.259 . S
C796 O804 1.258 . S
N797 Co788 2.057 . S
N797 C798 1.316 . S
N797 C799 1.375 . S
C798 N797 1.316 . S
C798 N800 1.347 . S
C798 H809 0.931 . S
C799 N797 1.375 . S
C799 C801 1.350 . S
C799 H808 0.930 . S
N800 C798 1.347 . S
N800 C801 1.373 . S
C801 C799 1.350 . S
C801 N800 1.373 . S
C801 H815 0.931 . S
C802 O805 1.256 . S
C802 O806 1.255 1_455 S
O803 Co786 2.021 . S
O803 C796 1.259 . S
O804 Co788 2.117 . S
O804 C796 1.258 . S
O805 Co788 2.020 . S
O805 C802 1.256 . S
O806 Co786 2.062 1_655 S
O806 C802 1.255 1_655 S
O807 C787 1.259 . S
O807 Co788 2.021 . S
H808 C799 0.930 . S
H809 C798 0.931 . S
O810 Co786 2.117 . S
O810 C787 1.258 . S
O811 Co786 2.020 1_556 S
O811 C813 1.256 . S
O812 Co788 2.062 1_556 S
O812 C813 1.255 . S
C813 O811 1.256 . S
C813 O812 1.255 . S
H814 C793 0.931 . S
H815 C801 0.931 . S
C816 C817 1.369 . S
C816 C818 1.419 . S
C816 H820 0.930 . S
C817 C816 1.369 . S
C817 C826 1.429 . S
C818 C816 1.419 . S
C818 C819 1.363 . S
C818 H821 0.929 . S
C819 C818 1.363 . S
C819 C825 1.428 . S
H820 C816 0.930 . S
H821 C818 0.929 . S
S822 N823 1.613 . S
S822 N824 1.610 . S
N823 S822 1.613 . S
N823 C826 1.350 . S
N824 S822 1.610 . S
N824 C825 1.351 . S
C825 C819 1.428 . S
C825 N824 1.351 . S
C825 C826 1.434 . S
C826 C817 1.429 . S
C826 N823 1.350 . S
C826 C825 1.434 . S
C827 C828 1.369 . S
C827 C829 1.419 . S
C827 H831 0.930 . S
C828 C827 1.369 . S
C828 C837 1.429 . S
C829 C827 1.419 . S
C829 C830 1.363 . S
C829 H832 0.929 . S
C830 C829 1.363 . S
C830 C836 1.428 . S
H831 C827 0.930 . S
H832 C829 0.929 . S
S833 N834 1.613 . S
S833 N835 1.610 . S
N834 S833 1.613 . S
N834 C837 1.350 . S
N835 S833 1.610 . S
N835 C836 1.351 . S
C836 C830 1.428 . S
C836 N835 1.351 . S
C836 C837 1.434 . S
C837 C828 1.429 . S
C837 N834 1.350 . S
C837 C836 1.434 . S
C838 C839 1.369 . S
C838 C840 1.419 . S
C838 H842 0.930 . S
C839 C838 1.369 . S
C839 C848 1.429 . S
C840 C838 1.419 . S
C840 C841 1.363 . S
C840 H843 0.929 . S
C841 C840 1.363 . S
C841 C847 1.428 . S
H842 C838 0.930 . S
H843 C840 0.929 . S
S844 N845 1.613 . S
S844 N846 1.610 . S
N845 S844 1.613 . S
N845 C848 1.350 . S
N846 S844 1.610 . S
N846 C847 1.351 . S
C847 C841 1.428 . S
C847 N846 1.351 . S
C847 C848 1.434 . S
C848 C839 1.429 . S
C848 N845 1.350 . S
C848 C847 1.434 . S
C849 C850 1.369 . S
C849 C851 1.419 . S
C849 H853 0.930 . S
C850 C849 1.369 . S
C850 C859 1.429 . S
C851 C849 1.419 . S
C851 C852 1.363 . S
C851 H854 0.929 . S
C852 C851 1.363 . S
C852 C858 1.428 . S
H853 C849 0.930 . S
H854 C851 0.929 . S
S855 N856 1.613 . S
S855 N857 1.610 . S
N856 S855 1.613 . S
N856 C859 1.350 . S
N857 S855 1.610 . S
N857 C858 1.351 . S
C858 C852 1.428 . S
C858 N857 1.351 . S
C858 C859 1.434 . S
C859 C850 1.429 . S
C859 N856 1.350 . S
C859 C858 1.434 . S
C860 C861 1.369 . S
C860 C862 1.414 1_455 S
C860 H864 0.930 . S
C861 C860 1.369 . S
C861 C870 1.429 . S
C862 C860 1.414 1_655 S
C862 C863 1.360 1_655 S
C862 H865 0.937 . S
C863 C862 1.360 1_455 S
C863 C869 1.428 . S
H864 C860 0.930 . S
H865 C862 0.937 . S
S866 N867 1.613 . S
S866 N868 1.610 . S
N867 S866 1.613 . S
N867 C870 1.350 . S
N868 S866 1.610 . S
N868 C869 1.351 . S
C869 C863 1.428 . S
C869 N868 1.351 . S
C869 C870 1.434 . S
C870 C861 1.429 . S
C870 N867 1.350 . S
C870 C869 1.434 . S
C871 C872 1.369 . S
C871 C873 1.419 . S
C871 H875 0.930 . S
C872 C871 1.369 . S
C872 C881 1.429 . S
C873 C871 1.419 . S
C873 C874 1.363 . S
C873 H876 0.929 . S
C874 C873 1.363 . S
C874 C880 1.428 . S
H875 C871 0.930 . S
H876 C873 0.929 . S
S877 N878 1.613 . S
S877 N879 1.610 . S
N878 S877 1.613 . S
N878 C881 1.350 . S
N879 S877 1.610 . S
N879 C880 1.351 . S
C880 C874 1.428 . S
C880 N879 1.351 . S
C880 C881 1.434 . S
C881 C872 1.429 . S
C881 N878 1.350 . S
C881 C880 1.434 . S
C882 C883 1.369 . S
C882 C884 1.419 1_556 S
C882 H886 0.930 1_556 S
C883 C882 1.369 . S
C883 C892 1.429 . S
C884 C882 1.419 1_554 S
C884 C885 1.363 1_554 S
C884 H887 0.929 . S
C885 C884 1.363 1_556 S
C885 C891 1.428 . S
H886 C882 0.930 1_554 S
H887 C884 0.929 . S
S888 N889 1.613 . S
S888 N890 1.610 . S
N889 S888 1.613 . S
N889 C892 1.350 . S
N890 S888 1.610 . S
N890 C891 1.351 . S
C891 C885 1.428 . S
C891 N890 1.351 . S
C891 C892 1.434 . S
C892 C883 1.429 . S
C892 N889 1.350 . S
C892 C891 1.434 . S
C893 C894 1.369 . S
C893 C895 1.419 . S
C893 H897 0.930 . S
C894 C893 1.369 . S
C894 C903 1.429 . S
C895 C893 1.419 . S
C895 C896 1.363 . S
C895 H898 0.929 . S
C896 C895 1.363 . S
C896 C902 1.428 . S
H897 C893 0.930 . S
H898 C895 0.929 . S
S899 N900 1.613 . S
S899 N901 1.610 . S
N900 S899 1.613 . S
N900 C903 1.350 . S
N901 S899 1.610 . S
N901 C902 1.351 . S
C902 C896 1.428 . S
C902 N901 1.351 . S
C902 C903 1.434 . S
C903 C894 1.429 . S
C903 N900 1.350 . S
C903 C902 1.434 . S
C904 C905 1.369 1_565 S
C904 C906 1.419 . S
C904 H908 0.930 . S
C905 C904 1.369 1_545 S
C905 C914 1.429 . S
C906 C904 1.419 . S
C906 C907 1.363 . S
C906 H909 0.929 . S
C907 C906 1.363 . S
C907 C913 1.428 1_565 S
H908 C904 0.930 . S
H909 C906 0.929 . S
S910 N911 1.613 . S
S910 N912 1.610 . S
N911 S910 1.613 . S
N911 C914 1.350 . S
N912 S910 1.610 . S
N912 C913 1.351 . S
C913 C907 1.428 1_545 S
C913 N912 1.351 . S
C913 C914 1.434 . S
C914 C905 1.429 . S
C914 N911 1.350 . S
C914 C913 1.434 . S
C915 C916 1.369 . S
C915 C917 1.419 . S
C915 H919 0.930 . S
C916 C915 1.369 . S
C916 C925 1.429 . S
C917 C915 1.419 . S
C917 C918 1.363 . S
C917 H920 0.929 . S
C918 C917 1.363 . S
C918 C924 1.428 . S
H919 C915 0.930 . S
H920 C917 0.929 . S
S921 N922 1.613 . S
S921 N923 1.610 . S
N922 S921 1.613 . S
N922 C925 1.350 . S
N923 S921 1.610 . S
N923 C924 1.351 . S
C924 C918 1.428 . S
C924 N923 1.351 . S
C924 C925 1.434 . S
C925 C916 1.429 . S
C925 N922 1.350 . S
C925 C924 1.434 . S
C926 C927 1.369 . S
C926 C928 1.419 . S
C926 H930 0.930 . S
C927 C926 1.369 . S
C927 C936 1.429 . S
C928 C926 1.419 . S
C928 C929 1.363 . S
C928 H931 0.929 . S
C929 C928 1.363 . S
C929 C935 1.428 . S
H930 C926 0.930 . S
H931 C928 0.929 . S
S932 N933 1.613 . S
S932 N934 1.610 . S
N933 S932 1.613 . S
N933 C936 1.350 . S
N934 S932 1.610 . S
N934 C935 1.351 . S
C935 C929 1.428 . S
C935 N934 1.351 . S
C935 C936 1.434 . S
C936 C927 1.429 . S
C936 N933 1.350 . S
C936 C935 1.434 . S
C937 C938 1.369 . S
C937 C939 1.419 . S
C937 H941 0.930 . S
C938 C937 1.369 . S
C938 C947 1.429 . S
C939 C937 1.419 . S
C939 C940 1.363 . S
C939 H942 0.929 . S
C940 C939 1.363 . S
C940 C946 1.428 . S
H941 C937 0.930 . S
H942 C939 0.929 . S
S943 N944 1.613 . S
S943 N945 1.610 . S
N944 S943 1.613 . S
N944 C947 1.350 . S
N945 S943 1.610 . S
N945 C946 1.351 . S
C946 C940 1.428 . S
C946 N945 1.351 . S
C946 C947 1.434 . S
C947 C938 1.429 . S
C947 N944 1.350 . S
C947 C946 1.434 . S
C948 C949 1.369 . S
C948 C950 1.419 . S
C948 H952 0.930 . S
C949 C948 1.369 . S
C949 C958 1.429 . S
C950 C948 1.419 . S
C950 C951 1.363 . S
C950 H953 0.929 . S
C951 C950 1.363 . S
C951 C957 1.428 . S
H952 C948 0.930 . S
H953 C950 0.929 . S
S954 N955 1.613 . S
S954 N956 1.610 1_565 S
N955 S954 1.613 . S
N955 C958 1.350 1_565 S
N956 S954 1.610 1_545 S
N956 C957 1.351 . S
C957 C951 1.428 . S
C957 N956 1.351 . S
C957 C958 1.434 . S
C958 C949 1.429 . S
C958 N955 1.350 1_545 S
C958 C957 1.434 . S
C959 C960 1.369 . S
C959 C961 1.419 . S
C959 H963 0.930 . S
C960 C959 1.369 . S
C960 C969 1.429 . S
C961 C959 1.419 . S
C961 C962 1.363 . S
C961 H964 0.929 . S
C962 C961 1.363 . S
C962 C968 1.428 . S
H963 C959 0.930 . S
H964 C961 0.929 . S
S965 N966 1.613 . S
S965 N967 1.610 . S
N966 S965 1.613 . S
N966 C969 1.350 . S
N967 S965 1.610 . S
N967 C968 1.351 . S
C968 C962 1.428 . S
C968 N967 1.351 . S
C968 C969 1.434 . S
C969 C960 1.429 . S
C969 N966 1.350 . S
C969 C968 1.434 . S
C970 C971 1.369 . S
C970 C972 1.419 . S
C970 H974 0.930 . S
C971 C970 1.369 . S
C971 C980 1.429 . S
C972 C970 1.419 . S
C972 C973 1.363 . S
C972 H975 0.929 . S
C973 C972 1.363 . S
C973 C979 1.428 . S
H974 C970 0.930 . S
H975 C972 0.929 . S
S976 N977 1.613 1_565 S
S976 N978 1.610 . S
N977 S976 1.613 1_545 S
N977 C980 1.350 . S
N978 S976 1.610 . S
N978 C979 1.351 1_565 S
C979 C973 1.428 . S
C979 N978 1.351 1_545 S
C979 C980 1.434 . S
C980 C971 1.429 . S
C980 N977 1.350 . S
C980 C979 1.434 . S
C981 C982 1.369 . S
C981 C983 1.419 . S
C981 H985 0.930 . S
C982 C981 1.369 . S
C982 C991 1.429 . S
C983 C981 1.419 . S
C983 C984 1.363 . S
C983 H986 0.929 . S
C984 C983 1.363 . S
C984 C990 1.428 . S
H985 C981 0.930 . S
H986 C983 0.929 . S
S987 N988 1.613 . S
S987 N989 1.610 . S
N988 S987 1.613 . S
N988 C991 1.350 . S
N989 S987 1.610 . S
N989 C990 1.351 . S
C990 C984 1.428 . S
C990 N989 1.351 . S
C990 C991 1.434 . S
C991 C982 1.429 . S
C991 N988 1.350 . S
C991 C990 1.434 . S
C992 C993 1.369 . S
C992 C994 1.419 . S
C992 H996 0.930 . S
C993 C992 1.369 . S
C993 C1002 1.429 . S
C994 C992 1.419 . S
C994 C995 1.363 . S
C994 H997 0.929 . S
C995 C994 1.363 . S
C995 C1001 1.428 . S
H996 C992 0.930 . S
H997 C994 0.929 . S
S998 N999 1.613 . S
S998 N1000 1.610 . S
N999 S998 1.613 . S
N999 C1002 1.350 . S
N1000 S998 1.610 . S
N1000 C1001 1.351 . S
C1001 C995 1.428 . S
C1001 N1000 1.351 . S
C1001 C1002 1.434 . S
C1002 C993 1.429 . S
C1002 N999 1.350 . S
C1002 C1001 1.434 . S
C1003 C1004 1.369 . S
C1003 C1005 1.419 . S
C1003 H1007 0.930 . S
C1004 C1003 1.369 . S
C1004 C1013 1.429 . S
C1005 C1003 1.419 . S
C1005 C1006 1.363 . S
C1005 H1008 0.929 . S
C1006 C1005 1.363 . S
C1006 C1012 1.428 . S
H1007 C1003 0.930 . S
H1008 C1005 0.929 . S
S1009 N1010 1.613 . S
S1009 N1011 1.610 . S
N1010 S1009 1.613 . S
N1010 C1013 1.350 . S
N1011 S1009 1.610 . S
N1011 C1012 1.351 . S
C1012 C1006 1.428 . S
C1012 N1011 1.351 . S
C1012 C1013 1.434 . S
C1013 C1004 1.429 . S
C1013 N1010 1.350 . S
C1013 C1012 1.434 . S
C1014 C1015 1.369 . S
C1014 C1016 1.419 . S
C1014 H1018 0.930 . S
C1015 C1014 1.369 . S
C1015 C1024 1.429 . S
C1016 C1014 1.419 . S
C1016 C1017 1.363 . S
C1016 H1019 0.929 . S
C1017 C1016 1.363 . S
C1017 C1023 1.428 . S
H1018 C1014 0.930 . S
H1019 C1016 0.929 . S
S1020 N1021 1.613 . S
S1020 N1022 1.610 . S
N1021 S1020 1.613 . S
N1021 C1024 1.350 . S
N1022 S1020 1.610 . S
N1022 C1023 1.351 . S
C1023 C1017 1.428 . S
C1023 N1022 1.351 . S
C1023 C1024 1.434 . S
C1024 C1015 1.429 . S
C1024 N1021 1.350 . S
C1024 C1023 1.434 . S
C1025 C1026 1.369 . S
C1025 C1027 1.419 . S
C1025 H1029 0.930 . S
C1026 C1025 1.369 . S
C1026 C1035 1.429 . S
C1027 C1025 1.419 . S
C1027 C1028 1.363 . S
C1027 H1030 0.929 . S
C1028 C1027 1.363 . S
C1028 C1034 1.428 . S
H1029 C1025 0.930 . S
H1030 C1027 0.929 . S
S1031 N1032 1.613 . S
S1031 N1033 1.610 . S
N1032 S1031 1.613 . S
N1032 C1035 1.350 . S
N1033 S1031 1.610 . S
N1033 C1034 1.351 . S
C1034 C1028 1.428 . S
C1034 N1033 1.351 . S
C1034 C1035 1.434 . S
C1035 C1026 1.429 . S
C1035 N1032 1.350 . S
C1035 C1034 1.434 . S
C1036 C1037 1.369 . S
C1036 C1038 1.419 . S
C1036 H1040 0.930 . S
C1037 C1036 1.369 . S
C1037 C1046 1.429 . S
C1038 C1036 1.419 . S
C1038 C1039 1.363 . S
C1038 H1041 0.929 . S
C1039 C1038 1.363 . S
C1039 C1045 1.428 . S
H1040 C1036 0.930 . S
H1041 C1038 0.929 . S
S1042 N1043 1.613 . S
S1042 N1044 1.610 . S
N1043 S1042 1.613 . S
N1043 C1046 1.350 . S
N1044 S1042 1.610 . S
N1044 C1045 1.351 . S
C1045 C1039 1.428 . S
C1045 N1044 1.351 . S
C1045 C1046 1.434 . S
C1046 C1037 1.429 . S
C1046 N1043 1.350 . S
C1046 C1045 1.434 . S
C1047 C1048 1.369 . S
C1047 C1049 1.419 . S
C1047 H1051 0.930 . S
C1048 C1047 1.369 . S
C1048 C1057 1.429 . S
C1049 C1047 1.419 . S
C1049 C1050 1.363 . S
C1049 H1052 0.929 . S
C1050 C1049 1.363 . S
C1050 C1056 1.428 . S
H1051 C1047 0.930 . S
H1052 C1049 0.929 . S
S1053 N1054 1.613 . S
S1053 N1055 1.610 . S
N1054 S1053 1.613 . S
N1054 C1057 1.350 . S
N1055 S1053 1.610 . S
N1055 C1056 1.351 . S
C1056 C1050 1.428 . S
C1056 N1055 1.351 . S
C1056 C1057 1.434 . S
C1057 C1048 1.429 . S
C1057 N1054 1.350 . S
C1057 C1056 1.434 . S
C1058 C1059 1.369 . S
C1058 C1060 1.419 . S
C1058 H1062 0.930 . S
C1059 C1058 1.369 . S
C1059 C1068 1.429 . S
C1060 C1058 1.419 . S
C1060 C1061 1.363 . S
C1060 H1063 0.929 . S
C1061 C1060 1.363 . S
C1061 C1067 1.428 . S
H1062 C1058 0.930 . S
H1063 C1060 0.929 . S
S1064 N1065 1.613 . S
S1064 N1066 1.610 . S
N1065 S1064 1.613 . S
N1065 C1068 1.350 . S
N1066 S1064 1.610 . S
N1066 C1067 1.351 . S
C1067 C1061 1.428 . S
C1067 N1066 1.351 . S
C1067 C1068 1.434 . S
C1068 C1059 1.429 . S
C1068 N1065 1.350 . S
C1068 C1067 1.434 . S
C1069 C1070 1.369 . S
C1069 C1071 1.419 . S
C1069 H1073 0.930 . S
C1070 C1069 1.369 . S
C1070 C1079 1.429 . S
C1071 C1069 1.419 . S
C1071 C1072 1.363 . S
C1071 H1074 0.929 . S
C1072 C1071 1.363 . S
C1072 C1078 1.428 . S
H1073 C1069 0.930 . S
H1074 C1071 0.929 . S
S1075 N1076 1.613 . S
S1075 N1077 1.610 . S
N1076 S1075 1.613 . S
N1076 C1079 1.350 . S
N1077 S1075 1.610 . S
N1077 C1078 1.351 . S
C1078 C1072 1.428 . S
C1078 N1077 1.351 . S
C1078 C1079 1.434 . S
C1079 C1070 1.429 . S
C1079 N1076 1.350 . S
C1079 C1078 1.434 . S
C1080 C1081 1.369 . S
C1080 C1082 1.419 . S
C1080 H1084 0.930 . S
C1081 C1080 1.369 . S
C1081 C1090 1.429 . S
C1082 C1080 1.419 . S
C1082 C1083 1.363 . S
C1082 H1085 0.929 1_556 S
C1083 C1082 1.363 . S
C1083 C1089 1.428 . S
H1084 C1080 0.930 . S
H1085 C1082 0.929 1_554 S
S1086 N1087 1.613 . S
S1086 N1088 1.610 . S
N1087 S1086 1.613 . S
N1087 C1090 1.350 1_655 S
N1088 S1086 1.610 . S
N1088 C1089 1.351 1_655 S
C1089 C1083 1.428 . S
C1089 N1088 1.351 1_455 S
C1089 C1090 1.434 . S
C1090 C1081 1.429 . S
C1090 N1087 1.350 1_455 S
C1090 C1089 1.434 . S
C1091 C1092 1.369 . S
C1091 C1093 1.419 . S
C1091 H1095 0.930 . S
C1092 C1091 1.369 . S
C1092 C1101 1.429 . S
C1093 C1091 1.419 . S
C1093 C1094 1.363 . S
C1093 H1096 0.929 . S
C1094 C1093 1.363 . S
C1094 C1100 1.428 . S
H1095 C1091 0.930 . S
H1096 C1093 0.929 . S
S1097 N1098 1.613 . S
S1097 N1099 1.610 . S
N1098 S1097 1.613 . S
N1098 C1101 1.350 . S
N1099 S1097 1.610 . S
N1099 C1100 1.351 . S
C1100 C1094 1.428 . S
C1100 N1099 1.351 . S
C1100 C1101 1.434 . S
C1101 C1092 1.429 . S
C1101 N1098 1.350 . S
C1101 C1100 1.434 . S
C1102 C1103 1.369 . S
C1102 C1104 1.419 . S
C1102 H1106 0.930 . S
C1103 C1102 1.369 . S
C1103 C1112 1.429 . S
C1104 C1102 1.419 . S
C1104 C1105 1.363 . S
C1104 H1107 0.929 . S
C1105 C1104 1.363 . S
C1105 C1111 1.428 . S
H1106 C1102 0.930 . S
H1107 C1104 0.929 . S
S1108 N1109 1.613 . S
S1108 N1110 1.610 . S
N1109 S1108 1.613 . S
N1109 C1112 1.350 . S
N1110 S1108 1.610 . S
N1110 C1111 1.351 . S
C1111 C1105 1.428 . S
C1111 N1110 1.351 . S
C1111 C1112 1.434 . S
C1112 C1103 1.429 . S
C1112 N1109 1.350 . S
C1112 C1111 1.434 . S
C1113 C1114 1.369 . S
C1113 C1115 1.419 . S
C1113 H1117 0.930 . S
C1114 C1113 1.369 . S
C1114 C1123 1.429 . S
C1115 C1113 1.419 . S
C1115 C1116 1.363 . S
C1115 H1118 0.929 . S
C1116 C1115 1.363 . S
C1116 C1122 1.428 . S
H1117 C1113 0.930 . S
H1118 C1115 0.929 . S
S1119 N1120 1.613 . S
S1119 N1121 1.610 . S
N1120 S1119 1.613 . S
N1120 C1123 1.350 . S
N1121 S1119 1.610 . S
N1121 C1122 1.351 . S
C1122 C1116 1.428 . S
C1122 N1121 1.351 . S
C1122 C1123 1.434 . S
C1123 C1114 1.429 . S
C1123 N1120 1.350 . S
C1123 C1122 1.434 . S
C1124 C1125 1.369 . S
C1124 C1126 1.419 . S
C1124 H1128 0.930 . S
C1125 C1124 1.369 . S
C1125 C1134 1.429 . S
C1126 C1124 1.419 . S
C1126 C1127 1.363 . S
C1126 H1129 0.929 . S
C1127 C1126 1.363 . S
C1127 C1133 1.428 . S
H1128 C1124 0.930 . S
H1129 C1126 0.929 . S
S1130 N1131 1.613 . S
S1130 N1132 1.610 . S
N1131 S1130 1.613 . S
N1131 C1134 1.350 . S
N1132 S1130 1.610 . S
N1132 C1133 1.351 . S
C1133 C1127 1.428 . S
C1133 N1132 1.351 . S
C1133 C1134 1.434 . S
C1134 C1125 1.429 . S
C1134 N1131 1.350 . S
C1134 C1133 1.434 . S
C1135 C1136 1.369 . S
C1135 C1137 1.419 . S
C1135 H1139 0.930 . S
C1136 C1135 1.369 . S
C1136 C1145 1.429 . S
C1137 C1135 1.419 . S
C1137 C1138 1.363 . S
C1137 H1140 0.929 . S
C1138 C1137 1.363 . S
C1138 C1144 1.428 . S
H1139 C1135 0.930 . S
H1140 C1137 0.929 . S
S1141 N1142 1.613 . S
S1141 N1143 1.610 . S
N1142 S1141 1.613 . S
N1142 C1145 1.350 . S
N1143 S1141 1.610 . S
N1143 C1144 1.351 . S
C1144 C1138 1.428 . S
C1144 N1143 1.351 . S
C1144 C1145 1.434 . S
C1145 C1136 1.429 . S
C1145 N1142 1.350 . S
C1145 C1144 1.434 . S
C1146 C1147 1.369 . S
C1146 C1148 1.419 . S
C1146 H1150 0.930 . S
C1147 C1146 1.369 . S
C1147 C1156 1.429 . S
C1148 C1146 1.419 . S
C1148 C1149 1.363 . S
C1148 H1151 0.929 . S
C1149 C1148 1.363 . S
C1149 C1155 1.428 . S
H1150 C1146 0.930 . S
H1151 C1148 0.929 . S
S1152 N1153 1.613 . S
S1152 N1154 1.610 . S
N1153 S1152 1.613 . S
N1153 C1156 1.350 . S
N1154 S1152 1.610 . S
N1154 C1155 1.351 . S
C1155 C1149 1.428 . S
C1155 N1154 1.351 . S
C1155 C1156 1.434 . S
C1156 C1147 1.429 . S
C1156 N1153 1.350 . S
C1156 C1155 1.434 . S
C1157 C1158 1.369 . S
C1157 C1159 1.419 . S
C1157 H1161 0.930 . S
C1158 C1157 1.369 . S
C1158 C1167 1.429 . S
C1159 C1157 1.419 . S
C1159 C1160 1.363 . S
C1159 H1162 0.929 . S
C1160 C1159 1.363 . S
C1160 C1166 1.428 . S
H1161 C1157 0.930 . S
H1162 C1159 0.929 . S
S1163 N1164 1.613 . S
S1163 N1165 1.610 . S
N1164 S1163 1.613 . S
N1164 C1167 1.350 . S
N1165 S1163 1.610 . S
N1165 C1166 1.351 . S
C1166 C1160 1.428 . S
C1166 N1165 1.351 . S
C1166 C1167 1.434 . S
C1167 C1158 1.429 . S
C1167 N1164 1.350 . S
C1167 C1166 1.434 . S
C1168 C1169 1.369 . S
C1168 C1170 1.419 . S
C1168 H1172 0.930 . S
C1169 C1168 1.369 . S
C1169 C1178 1.429 . S
C1170 C1168 1.419 . S
C1170 C1171 1.363 . S
C1170 H1173 0.929 . S
C1171 C1170 1.363 . S
C1171 C1177 1.428 . S
H1172 C1168 0.930 . S
H1173 C1170 0.929 . S
S1174 N1175 1.613 . S
S1174 N1176 1.610 . S
N1175 S1174 1.613 . S
N1175 C1178 1.350 . S
N1176 S1174 1.610 . S
N1176 C1177 1.351 . S
C1177 C1171 1.428 . S
C1177 N1176 1.351 . S
C1177 C1178 1.434 . S
C1178 C1169 1.429 . S
C1178 N1175 1.350 . S
C1178 C1177 1.434 . S
C1179 C1180 1.369 . S
C1179 C1181 1.419 . S
C1179 H1183 0.930 . S
C1180 C1179 1.369 . S
C1180 C1189 1.429 . S
C1181 C1179 1.419 . S
C1181 C1182 1.363 . S
C1181 H1184 0.929 . S
C1182 C1181 1.363 . S
C1182 C1188 1.428 . S
H1183 C1179 0.930 . S
H1184 C1181 0.929 . S
S1185 N1186 1.613 . S
S1185 N1187 1.610 . S
N1186 S1185 1.613 . S
N1186 C1189 1.350 . S
N1187 S1185 1.610 . S
N1187 C1188 1.351 . S
C1188 C1182 1.428 . S
C1188 N1187 1.351 . S
C1188 C1189 1.434 . S
C1189 C1180 1.429 . S
C1189 N1186 1.350 . S
C1189 C1188 1.434 . S
C1190 C1191 1.369 1_565 S
C1190 C1192 1.419 . S
C1190 H1194 0.930 . S
C1191 C1190 1.369 1_545 S
C1191 C1200 1.429 . S
C1192 C1190 1.419 . S
C1192 C1193 1.363 1_565 S
C1192 H1195 0.929 . S
C1193 C1192 1.363 1_545 S
C1193 C1199 1.428 . S
H1194 C1190 0.930 . S
H1195 C1192 0.929 . S
S1196 N1197 1.613 . S
S1196 N1198 1.610 . S
N1197 S1196 1.613 . S
N1197 C1200 1.350 . S
N1198 S1196 1.610 . S
N1198 C1199 1.351 . S
C1199 C1193 1.428 . S
C1199 N1198 1.351 . S
C1199 C1200 1.434 . S
C1200 C1191 1.429 . S
C1200 N1197 1.350 . S
C1200 C1199 1.434 . S
C1201 C1202 1.369 . S
C1201 C1203 1.419 . S
C1201 H1205 0.930 . S
C1202 C1201 1.369 . S
C1202 C1211 1.429 . S
C1203 C1201 1.419 . S
C1203 C1204 1.363 . S
C1203 H1206 0.929 . S
C1204 C1203 1.363 . S
C1204 C1210 1.428 . S
H1205 C1201 0.930 . S
H1206 C1203 0.929 . S
S1207 N1208 1.613 . S
S1207 N1209 1.610 . S
N1208 S1207 1.613 . S
N1208 C1211 1.350 . S
N1209 S1207 1.610 . S
N1209 C1210 1.351 . S
C1210 C1204 1.428 . S
C1210 N1209 1.351 . S
C1210 C1211 1.434 . S
C1211 C1202 1.429 . S
C1211 N1208 1.350 . S
C1211 C1210 1.434 . S
C1212 C1213 1.369 . S
C1212 C1214 1.419 . S
C1212 H1216 0.930 . S
C1213 C1212 1.369 . S
C1213 C1222 1.429 . S
C1214 C1212 1.419 . S
C1214 C1215 1.363 . S
C1214 H1217 0.922 1_645 S
C1215 C1214 1.363 . S
C1215 C1221 1.428 . S
H1216 C1212 0.930 . S
H1217 C1214 0.922 1_465 S
S1218 N1219 1.613 . S
S1218 N1220 1.610 . S
N1219 S1218 1.613 . S
N1219 C1222 1.350 . S
N1220 S1218 1.610 . S
N1220 C1221 1.351 . S
C1221 C1215 1.428 . S
C1221 N1220 1.351 . S
C1221 C1222 1.434 . S
C1222 C1213 1.429 . S
C1222 N1219 1.350 . S
C1222 C1221 1.434 . S
C1223 C1224 1.369 . S
C1223 C1225 1.419 . S
C1223 H1227 0.930 . S
C1224 C1223 1.369 . S
C1224 C1233 1.429 . S
C1225 C1223 1.419 . S
C1225 C1226 1.363 . S
C1225 H1228 0.929 . S
C1226 C1225 1.363 . S
C1226 C1232 1.428 . S
H1227 C1223 0.930 . S
H1228 C1225 0.929 . S
S1229 N1230 1.613 . S
S1229 N1231 1.610 . S
N1230 S1229 1.613 . S
N1230 C1233 1.350 . S
N1231 S1229 1.610 . S
N1231 C1232 1.351 . S
C1232 C1226 1.428 . S
C1232 N1231 1.351 . S
C1232 C1233 1.434 . S
C1233 C1224 1.429 . S
C1233 N1230 1.350 . S
C1233 C1232 1.434 . S
C1234 C1235 1.369 . S
C1234 C1236 1.419 . S
C1234 H1238 0.930 1_545 S
C1235 C1234 1.369 . S
C1235 C1244 1.429 . S
C1236 C1234 1.419 . S
C1236 C1237 1.363 . S
C1236 H1239 0.929 . S
C1237 C1236 1.363 . S
C1237 C1243 1.428 . S
H1238 C1234 0.930 1_565 S
H1239 C1236 0.929 . S
S1240 N1241 1.613 . S
S1240 N1242 1.610 . S
N1241 S1240 1.613 . S
N1241 C1244 1.350 . S
N1242 S1240 1.610 . S
N1242 C1243 1.351 . S
C1243 C1237 1.428 . S
C1243 N1242 1.351 . S
C1243 C1244 1.434 . S
C1244 C1235 1.429 . S
C1244 N1241 1.350 . S
C1244 C1243 1.434 . S
C1245 C1246 1.369 . S
C1245 C1247 1.419 . S
C1245 H1249 0.930 . S
C1246 C1245 1.369 . S
C1246 C1255 1.429 . S
C1247 C1245 1.419 . S
C1247 C1248 1.363 . S
C1247 H1250 0.929 . S
C1248 C1247 1.363 . S
C1248 C1254 1.428 . S
H1249 C1245 0.930 . S
H1250 C1247 0.929 . S
S1251 N1252 1.613 . S
S1251 N1253 1.610 . S
N1252 S1251 1.613 . S
N1252 C1255 1.350 . S
N1253 S1251 1.610 . S
N1253 C1254 1.351 . S
C1254 C1248 1.428 . S
C1254 N1253 1.351 . S
C1254 C1255 1.434 . S
C1255 C1246 1.429 . S
C1255 N1252 1.350 . S
C1255 C1254 1.434 . S
C1256 C1257 1.369 . S
C1256 C1258 1.419 . S
C1256 H1260 0.930 . S
C1257 C1256 1.369 . S
C1257 C1266 1.429 . S
C1258 C1256 1.419 . S
C1258 C1259 1.363 . S
C1258 H1261 0.929 1_565 S
C1259 C1258 1.363 . S
C1259 C1265 1.428 . S
H1260 C1256 0.930 . S
H1261 C1258 0.929 1_545 S
S1262 N1263 1.613 . S
S1262 N1264 1.610 . S
N1263 S1262 1.613 . S
N1263 C1266 1.350 1_556 S
N1264 S1262 1.610 . S
N1264 C1265 1.351 1_556 S
C1265 C1259 1.428 . S
C1265 N1264 1.351 1_554 S
C1265 C1266 1.434 . S
C1266 C1257 1.429 . S
C1266 N1263 1.350 1_554 S
C1266 C1265 1.434 . S
C1267 C1268 1.369 . S
C1267 C1269 1.419 . S
C1267 H1271 0.930 . S
C1268 C1267 1.369 . S
C1268 C1277 1.429 1_554 S
C1269 C1267 1.419 . S
C1269 C1270 1.363 . S
C1269 H1272 0.929 . S
C1270 C1269 1.363 . S
C1270 C1276 1.428 1_554 S
H1271 C1267 0.930 . S
H1272 C1269 0.929 . S
S1273 N1274 1.613 . S
S1273 N1275 1.610 . S
N1274 S1273 1.613 . S
N1274 C1277 1.350 . S
N1275 S1273 1.610 . S
N1275 C1276 1.351 . S
C1276 C1270 1.428 1_556 S
C1276 N1275 1.351 . S
C1276 C1277 1.434 . S
C1277 C1268 1.429 1_556 S
C1277 N1274 1.350 . S
C1277 C1276 1.434 . S
C1278 C1279 1.369 . S
C1278 C1280 1.419 . S
C1278 H1282 0.930 . S
C1279 C1278 1.369 . S
C1279 C1288 1.429 . S
C1280 C1278 1.419 . S
C1280 C1281 1.363 . S
C1280 H1283 0.929 . S
C1281 C1280 1.363 . S
C1281 C1287 1.428 . S
H1282 C1278 0.930 . S
H1283 C1280 0.929 . S
S1284 N1285 1.613 . S
S1284 N1286 1.610 . S
N1285 S1284 1.613 . S
N1285 C1288 1.350 . S
N1286 S1284 1.610 . S
N1286 C1287 1.351 . S
C1287 C1281 1.428 . S
C1287 N1286 1.351 . S
C1287 C1288 1.434 . S
C1288 C1279 1.429 . S
C1288 N1285 1.350 . S
C1288 C1287 1.434 . S
C1289 C1290 1.369 . S
C1289 C1291 1.419 . S
C1289 H1293 0.930 . S
C1290 C1289 1.369 . S
C1290 C1299 1.429 . S
C1291 C1289 1.419 . S
C1291 C1292 1.363 . S
C1291 H1294 0.929 . S
C1292 C1291 1.363 . S
C1292 C1298 1.428 . S
H1293 C1289 0.930 . S
H1294 C1291 0.929 . S
S1295 N1296 1.613 . S
S1295 N1297 1.610 . S
N1296 S1295 1.613 . S
N1296 C1299 1.350 . S
N1297 S1295 1.610 . S
N1297 C1298 1.351 . S
C1298 C1292 1.428 . S
C1298 N1297 1.351 . S
C1298 C1299 1.434 . S
C1299 C1290 1.429 . S
C1299 N1296 1.350 . S
C1299 C1298 1.434 . S
C1300 C1301 1.369 . S
C1300 C1302 1.419 . S
C1300 H1304 0.930 . S
C1301 C1300 1.369 . S
C1301 C1310 1.429 . S
C1302 C1300 1.419 . S
C1302 C1303 1.363 . S
C1302 H1305 0.929 . S
C1303 C1302 1.363 . S
C1303 C1309 1.428 . S
H1304 C1300 0.930 . S
H1305 C1302 0.929 . S
S1306 N1307 1.613 . S
S1306 N1308 1.610 . S
N1307 S1306 1.613 . S
N1307 C1310 1.350 . S
N1308 S1306 1.610 . S
N1308 C1309 1.351 . S
C1309 C1303 1.428 . S
C1309 N1308 1.351 . S
C1309 C1310 1.434 . S
C1310 C1301 1.429 . S
C1310 N1307 1.350 . S
C1310 C1309 1.434 . S
C1311 C1312 1.369 . S
C1311 C1313 1.419 . S
C1311 H1315 0.930 . S
C1312 C1311 1.369 . S
C1312 C1321 1.429 . S
C1313 C1311 1.419 . S
C1313 C1314 1.363 . S
C1313 H1316 0.929 . S
C1314 C1313 1.363 . S
C1314 C1320 1.428 . S
H1315 C1311 0.930 . S
H1316 C1313 0.929 . S
S1317 N1318 1.613 . S
S1317 N1319 1.610 . S
N1318 S1317 1.613 . S
N1318 C1321 1.350 . S
N1319 S1317 1.610 . S
N1319 C1320 1.351 . S
C1320 C1314 1.428 . S
C1320 N1319 1.351 . S
C1320 C1321 1.434 . S
C1321 C1312 1.429 . S
C1321 N1318 1.350 . S
C1321 C1320 1.434 . S
C1322 C1323 1.369 . S
C1322 C1324 1.419 . S
C1322 H1326 0.930 . S
C1323 C1322 1.369 . S
C1323 C1332 1.429 . S
C1324 C1322 1.419 . S
C1324 C1325 1.363 . S
C1324 H1327 0.929 . S
C1325 C1324 1.363 . S
C1325 C1331 1.428 . S
H1326 C1322 0.930 . S
H1327 C1324 0.929 . S
S1328 N1329 1.613 . S
S1328 N1330 1.610 . S
N1329 S1328 1.613 . S
N1329 C1332 1.350 . S
N1330 S1328 1.610 . S
N1330 C1331 1.351 . S
C1331 C1325 1.428 . S
C1331 N1330 1.351 . S
C1331 C1332 1.434 . S
C1332 C1323 1.429 . S
C1332 N1329 1.350 . S
C1332 C1331 1.434 . S
C1333 C1334 1.369 . S
C1333 C1335 1.419 . S
C1333 H1337 0.930 . S
C1334 C1333 1.369 . S
C1334 C1343 1.429 . S
C1335 C1333 1.419 . S
C1335 C1336 1.363 . S
C1335 H1338 0.929 . S
C1336 C1335 1.363 . S
C1336 C1342 1.428 . S
H1337 C1333 0.930 . S
H1338 C1335 0.929 . S
S1339 N1340 1.613 . S
S1339 N1341 1.610 . S
N1340 S1339 1.613 . S
N1340 C1343 1.350 . S
N1341 S1339 1.610 . S
N1341 C1342 1.351 . S
C1342 C1336 1.428 . S
C1342 N1341 1.351 . S
C1342 C1343 1.434 . S
C1343 C1334 1.429 . S
C1343 N1340 1.350 . S
C1343 C1342 1.434 . S
C1344 C1345 1.369 . S
C1344 C1346 1.419 . S
C1344 H1348 0.930 . S
C1345 C1344 1.369 . S
C1345 C1354 1.429 . S
C1346 C1344 1.419 . S
C1346 C1347 1.363 . S
C1346 H1349 0.929 . S
C1347 C1346 1.363 . S
C1347 C1353 1.428 . S
H1348 C1344 0.930 . S
H1349 C1346 0.929 . S
S1350 N1351 1.613 . S
S1350 N1352 1.610 . S
N1351 S1350 1.613 . S
N1351 C1354 1.350 . S
N1352 S1350 1.610 . S
N1352 C1353 1.351 . S
C1353 C1347 1.428 . S
C1353 N1352 1.351 . S
C1353 C1354 1.434 . S
C1354 C1345 1.429 . S
C1354 N1351 1.350 . S
C1354 C1353 1.434 . S
C1355 C1356 1.369 . S
C1355 C1357 1.419 . S
C1355 H1359 0.930 . S
C1356 C1355 1.369 . S
C1356 C1365 1.429 . S
C1357 C1355 1.419 . S
C1357 C1358 1.363 . S
C1357 H1360 0.929 . S
C1358 C1357 1.363 . S
C1358 C1364 1.428 . S
H1359 C1355 0.930 . S
H1360 C1357 0.929 . S
S1361 N1362 1.613 . S
S1361 N1363 1.610 . S
N1362 S1361 1.613 . S
N1362 C1365 1.350 . S
N1363 S1361 1.610 . S
N1363 C1364 1.351 . S
C1364 C1358 1.428 . S
C1364 N1363 1.351 . S
C1364 C1365 1.434 . S
C1365 C1356 1.429 . S
C1365 N1362 1.350 . S
C1365 C1364 1.434 . S
C1366 C1367 1.369 . S
C1366 C1368 1.419 . S
C1366 H1370 0.930 . S
C1367 C1366 1.369 . S
C1367 C1376 1.429 . S
C1368 C1366 1.419 . S
C1368 C1369 1.363 . S
C1368 H1371 0.929 . S
C1369 C1368 1.363 . S
C1369 C1375 1.428 . S
H1370 C1366 0.930 . S
H1371 C1368 0.929 . S
S1372 N1373 1.613 . S
S1372 N1374 1.610 . S
N1373 S1372 1.613 . S
N1373 C1376 1.350 1_655 S
N1374 S1372 1.610 . S
N1374 C1375 1.351 1_655 S
C1375 C1369 1.428 . S
C1375 N1374 1.351 1_455 S
C1375 C1376 1.434 . S
C1376 C1367 1.429 . S
C1376 N1373 1.350 1_455 S
C1376 C1375 1.434 . S
C1377 C1378 1.369 . S
C1377 C1379 1.419 . S
C1377 H1381 0.930 . S
C1378 C1377 1.369 . S
C1378 C1387 1.429 . S
C1379 C1377 1.419 . S
C1379 C1380 1.363 . S
C1379 H1382 0.929 . S
C1380 C1379 1.363 . S
C1380 C1386 1.428 . S
H1381 C1377 0.930 . S
H1382 C1379 0.929 . S
S1383 N1384 1.613 . S
S1383 N1385 1.610 1_455 S
N1384 S1383 1.613 . S
N1384 C1387 1.350 1_455 S
N1385 S1383 1.610 1_655 S
N1385 C1386 1.351 . S
C1386 C1380 1.428 . S
C1386 N1385 1.351 . S
C1386 C1387 1.434 . S
C1387 C1378 1.429 . S
C1387 N1384 1.350 1_655 S
C1387 C1386 1.434 . S
C1388 C1389 1.369 . S
C1388 C1390 1.419 . S
C1388 H1392 0.930 . S
C1389 C1388 1.369 . S
C1389 C1398 1.429 . S
C1390 C1388 1.419 . S
C1390 C1391 1.363 . S
C1390 H1393 0.929 1_556 S
C1391 C1390 1.363 . S
C1391 C1397 1.428 . S
H1392 C1388 0.930 . S
H1393 C1390 0.929 1_554 S
S1394 N1395 1.613 . S
S1394 N1396 1.610 . S
N1395 S1394 1.613 . S
N1395 C1398 1.350 . S
N1396 S1394 1.610 . S
N1396 C1397 1.351 . S
C1397 C1391 1.428 . S
C1397 N1396 1.351 . S
C1397 C1398 1.434 . S
C1398 C1389 1.429 . S
C1398 N1395 1.350 . S
C1398 C1397 1.434 . S
C1399 C1400 1.369 . S
C1399 C1401 1.419 . S
C1399 H1403 0.930 . S
C1400 C1399 1.369 . S
C1400 C1409 1.429 . S
C1401 C1399 1.419 . S
C1401 C1402 1.363 . S
C1401 H1404 0.929 . S
C1402 C1401 1.363 . S
C1402 C1408 1.428 . S
H1403 C1399 0.930 . S
H1404 C1401 0.929 . S
S1405 N1406 1.613 . S
S1405 N1407 1.610 . S
N1406 S1405 1.613 . S
N1406 C1409 1.350 . S
N1407 S1405 1.610 . S
N1407 C1408 1.351 . S
C1408 C1402 1.428 . S
C1408 N1407 1.351 . S
C1408 C1409 1.434 . S
C1409 C1400 1.429 . S
C1409 N1406 1.350 . S
C1409 C1408 1.434 . S
C1410 C1411 1.369 . S
C1410 C1412 1.419 . S
C1410 H1414 0.930 . S
C1411 C1410 1.369 . S
C1411 C1420 1.429 . S
C1412 C1410 1.419 . S
C1412 C1413 1.363 . S
C1412 H1415 0.929 . S
C1413 C1412 1.363 . S
C1413 C1419 1.428 . S
H1414 C1410 0.930 . S
H1415 C1412 0.929 . S
S1416 N1417 1.613 . S
S1416 N1418 1.610 . S
N1417 S1416 1.613 . S
N1417 C1420 1.350 . S
N1418 S1416 1.610 . S
N1418 C1419 1.351 . S
C1419 C1413 1.428 . S
C1419 N1418 1.351 . S
C1419 C1420 1.434 . S
C1420 C1411 1.429 . S
C1420 N1417 1.350 . S
C1420 C1419 1.434 . S
C1421 C1422 1.369 . S
C1421 C1423 1.419 . S
C1421 H1425 0.930 . S
C1422 C1421 1.369 . S
C1422 C1431 1.429 . S
C1423 C1421 1.419 . S
C1423 C1424 1.363 . S
C1423 H1426 0.929 . S
C1424 C1423 1.363 . S
C1424 C1430 1.428 . S
H1425 C1421 0.930 . S
H1426 C1423 0.929 . S
S1427 N1428 1.613 . S
S1427 N1429 1.610 . S
N1428 S1427 1.613 . S
N1428 C1431 1.350 . S
N1429 S1427 1.610 . S
N1429 C1430 1.351 . S
C1430 C1424 1.428 . S
C1430 N1429 1.351 . S
C1430 C1431 1.434 . S
C1431 C1422 1.429 . S
C1431 N1428 1.350 . S
C1431 C1430 1.434 . S
C1432 C1433 1.369 . S
C1432 C1434 1.419 . S
C1432 H1436 0.930 . S
C1433 C1432 1.369 . S
C1433 C1442 1.429 . S
C1434 C1432 1.419 . S
C1434 C1435 1.363 . S
C1434 H1437 0.929 . S
C1435 C1434 1.363 . S
C1435 C1441 1.428 . S
H1436 C1432 0.930 . S
H1437 C1434 0.929 . S
S1438 N1439 1.613 . S
S1438 N1440 1.610 . S
N1439 S1438 1.613 . S
N1439 C1442 1.350 . S
N1440 S1438 1.610 . S
N1440 C1441 1.351 . S
C1441 C1435 1.428 . S
C1441 N1440 1.351 . S
C1441 C1442 1.434 . S
C1442 C1433 1.429 . S
C1442 N1439 1.350 . S
C1442 C1441 1.434 . S
C1443 C1444 1.369 . S
C1443 C1445 1.419 . S
C1443 H1447 0.930 . S
C1444 C1443 1.369 . S
C1444 C1453 1.429 . S
C1445 C1443 1.419 . S
C1445 C1446 1.363 . S
C1445 H1448 0.929 . S
C1446 C1445 1.363 . S
C1446 C1452 1.428 . S
H1447 C1443 0.930 . S
H1448 C1445 0.929 . S
S1449 N1450 1.613 1_556 S
S1449 N1451 1.610 . S
N1450 S1449 1.613 1_554 S
N1450 C1453 1.350 1_554 S
N1451 S1449 1.610 . S
N1451 C1452 1.351 . S
C1452 C1446 1.428 . S
C1452 N1451 1.351 . S
C1452 C1453 1.434 . S
C1453 C1444 1.429 . S
C1453 N1450 1.350 1_556 S
C1453 C1452 1.434 . S
C1454 C1455 1.369 . S
C1454 C1456 1.419 1_655 S
C1454 H1458 0.945 . S
C1455 C1454 1.369 . S
C1455 C1464 1.429 . S
C1456 C1454 1.419 1_455 S
C1456 C1457 1.363 1_455 S
C1456 H1459 0.929 . S
C1457 C1456 1.363 1_655 S
C1457 C1463 1.428 . S
H1458 C1454 0.945 . S
H1459 C1456 0.929 . S
S1460 N1461 1.613 . S
S1460 N1462 1.610 . S
N1461 S1460 1.613 . S
N1461 C1464 1.350 . S
N1462 S1460 1.610 . S
N1462 C1463 1.351 . S
C1463 C1457 1.428 . S
C1463 N1462 1.351 . S
C1463 C1464 1.434 . S
C1464 C1455 1.429 . S
C1464 N1461 1.350 . S
C1464 C1463 1.434 . S
C1465 C1466 1.369 . S
C1465 C1467 1.419 . S
C1465 H1469 0.930 . S
C1466 C1465 1.369 . S
C1466 C1475 1.429 . S
C1467 C1465 1.419 . S
C1467 C1468 1.363 . S
C1467 H1470 0.929 . S
C1468 C1467 1.363 . S
C1468 C1474 1.428 . S
H1469 C1465 0.930 . S
H1470 C1467 0.929 . S
S1471 N1472 1.613 . S
S1471 N1473 1.610 . S
N1472 S1471 1.613 . S
N1472 C1475 1.350 . S
N1473 S1471 1.610 . S
N1473 C1474 1.351 . S
C1474 C1468 1.428 . S
C1474 N1473 1.351 . S
C1474 C1475 1.434 . S
C1475 C1466 1.429 . S
C1475 N1472 1.350 . S
C1475 C1474 1.434 . S
C1476 C1477 1.369 . S
C1476 C1478 1.419 . S
C1476 H1480 0.930 . S
C1477 C1476 1.369 . S
C1477 C1486 1.429 . S
C1478 C1476 1.419 . S
C1478 C1479 1.363 . S
C1478 H1481 0.929 . S
C1479 C1478 1.363 . S
C1479 C1485 1.428 . S
H1480 C1476 0.930 . S
H1481 C1478 0.929 . S
S1482 N1483 1.613 . S
S1482 N1484 1.610 . S
N1483 S1482 1.613 . S
N1483 C1486 1.350 . S
N1484 S1482 1.610 . S
N1484 C1485 1.351 . S
C1485 C1479 1.428 . S
C1485 N1484 1.351 . S
C1485 C1486 1.434 . S
C1486 C1477 1.429 . S
C1486 N1483 1.350 . S
C1486 C1485 1.434 . S
C1487 C1488 1.369 . S
C1487 C1489 1.419 . S
C1487 H1491 0.930 . S
C1488 C1487 1.369 . S
C1488 C1497 1.429 . S
C1489 C1487 1.419 . S
C1489 C1490 1.363 . S
C1489 H1492 0.929 . S
C1490 C1489 1.363 . S
C1490 C1496 1.428 . S
H1491 C1487 0.930 . S
H1492 C1489 0.929 . S
S1493 N1494 1.613 . S
S1493 N1495 1.610 . S
N1494 S1493 1.613 . S
N1494 C1497 1.350 . S
N1495 S1493 1.610 . S
N1495 C1496 1.351 . S
C1496 C1490 1.428 . S
C1496 N1495 1.351 . S
C1496 C1497 1.434 . S
C1497 C1488 1.429 . S
C1497 N1494 1.350 . S
C1497 C1496 1.434 . S
C1498 C1499 1.369 . S
C1498 C1500 1.419 . S
C1498 H1502 0.930 . S
C1499 C1498 1.369 . S
C1499 C1508 1.429 . S
C1500 C1498 1.419 . S
C1500 C1501 1.363 . S
C1500 H1503 0.929 . S
C1501 C1500 1.363 . S
C1501 C1507 1.427 1_655 S
H1502 C1498 0.930 . S
H1503 C1500 0.929 . S
S1504 N1505 1.613 . S
S1504 N1506 1.610 . S
N1505 S1504 1.613 . S
N1505 C1508 1.350 1_455 S
N1506 S1504 1.610 . S
N1506 C1507 1.354 . S
C1507 C1501 1.427 1_455 S
C1507 N1506 1.354 . S
C1507 C1508 1.433 1_455 S
C1508 C1499 1.429 . S
C1508 N1505 1.350 1_655 S
C1508 C1507 1.433 1_655 S
C1509 C1510 1.369 . S
C1509 C1511 1.419 . S
C1509 H1513 0.930 . S
C1510 C1509 1.369 . S
C1510 C1519 1.429 . S
C1511 C1509 1.419 . S
C1511 C1512 1.363 . S
C1511 H1514 0.929 . S
C1512 C1511 1.363 . S
C1512 C1518 1.428 . S
H1513 C1509 0.930 . S
H1514 C1511 0.929 . S
S1515 N1516 1.613 . S
S1515 N1517 1.610 . S
N1516 S1515 1.613 . S
N1516 C1519 1.350 . S
N1517 S1515 1.610 . S
N1517 C1518 1.351 . S
C1518 C1512 1.428 . S
C1518 N1517 1.351 . S
C1518 C1519 1.434 . S
C1519 C1510 1.429 . S
C1519 N1516 1.350 . S
C1519 C1518 1.434 . S
C1520 C1521 1.369 . S
C1520 C1522 1.419 . S
C1520 H1524 0.930 . S
C1521 C1520 1.369 . S
C1521 C1530 1.429 . S
C1522 C1520 1.419 . S
C1522 C1523 1.363 . S
C1522 H1525 0.929 . S
C1523 C1522 1.363 . S
C1523 C1529 1.428 . S
H1524 C1520 0.930 . S
H1525 C1522 0.929 . S
S1526 N1527 1.613 . S
S1526 N1528 1.610 . S
N1527 S1526 1.613 . S
N1527 C1530 1.350 . S
N1528 S1526 1.610 . S
N1528 C1529 1.351 . S
C1529 C1523 1.428 . S
C1529 N1528 1.351 . S
C1529 C1530 1.434 . S
C1530 C1521 1.429 . S
C1530 N1527 1.350 . S
C1530 C1529 1.434 . S
C1531 C1532 1.369 . S
C1531 C1533 1.419 . S
C1531 H1535 0.930 . S
C1532 C1531 1.369 . S
C1532 C1541 1.429 . S
C1533 C1531 1.419 . S
C1533 C1534 1.363 . S
C1533 H1536 0.929 . S
C1534 C1533 1.363 . S
C1534 C1540 1.428 1_565 S
H1535 C1531 0.930 . S
H1536 C1533 0.929 . S
S1537 N1538 1.613 . S
S1537 N1539 1.610 . S
N1538 S1537 1.613 . S
N1538 C1541 1.350 1_545 S
N1539 S1537 1.610 . S
N1539 C1540 1.351 . S
C1540 C1534 1.428 1_545 S
C1540 N1539 1.351 . S
C1540 C1541 1.434 1_545 S
C1541 C1532 1.429 . S
C1541 N1538 1.350 1_565 S
C1541 C1540 1.434 1_565 S
C1542 C1543 1.369 . S
C1542 C1544 1.419 . S
C1542 H1546 0.930 . S
C1543 C1542 1.369 . S
C1543 C1552 1.429 . S
C1544 C1542 1.419 . S
C1544 C1545 1.363 . S
C1544 H1547 0.929 . S
C1545 C1544 1.363 . S
C1545 C1551 1.428 . S
H1546 C1542 0.930 . S
H1547 C1544 0.929 . S
S1548 N1549 1.613 . S
S1548 N1550 1.610 . S
N1549 S1548 1.613 . S
N1549 C1552 1.350 . S
N1550 S1548 1.610 . S
N1550 C1551 1.351 . S
C1551 C1545 1.428 . S
C1551 N1550 1.351 . S
C1551 C1552 1.434 . S
C1552 C1543 1.429 . S
C1552 N1549 1.350 . S
C1552 C1551 1.434 . S
C1553 C1554 1.369 . S
C1553 C1555 1.419 . S
C1553 H1557 0.930 . S
C1554 C1553 1.369 . S
C1554 C1563 1.429 . S
C1555 C1553 1.419 . S
C1555 C1556 1.363 . S
C1555 H1558 0.929 . S
C1556 C1555 1.363 . S
C1556 C1562 1.428 . S
H1557 C1553 0.930 . S
H1558 C1555 0.929 . S
S1559 N1560 1.613 . S
S1559 N1561 1.610 . S
N1560 S1559 1.613 . S
N1560 C1563 1.350 . S
N1561 S1559 1.610 . S
N1561 C1562 1.351 . S
C1562 C1556 1.428 . S
C1562 N1561 1.351 . S
C1562 C1563 1.434 . S
C1563 C1554 1.429 . S
C1563 N1560 1.350 . S
C1563 C1562 1.434 . S
C1564 C1565 1.369 . S
C1564 C1566 1.419 . S
C1564 H1568 0.930 . S
C1565 C1564 1.369 . S
C1565 C1574 1.429 . S
C1566 C1564 1.419 . S
C1566 C1567 1.363 . S
C1566 H1569 0.929 . S
C1567 C1566 1.363 . S
C1567 C1573 1.428 . S
H1568 C1564 0.930 . S
H1569 C1566 0.929 . S
S1570 N1571 1.613 . S
S1570 N1572 1.610 . S
N1571 S1570 1.613 . S
N1571 C1574 1.350 . S
N1572 S1570 1.610 . S
N1572 C1573 1.351 . S
C1573 C1567 1.428 . S
C1573 N1572 1.351 . S
C1573 C1574 1.434 . S
C1574 C1565 1.429 . S
C1574 N1571 1.350 . S
C1574 C1573 1.434 . S
C1575 C1576 1.369 . S
C1575 C1577 1.419 . S
C1575 H1579 0.930 . S
C1576 C1575 1.369 . S
C1576 C1585 1.429 . S
C1577 C1575 1.419 . S
C1577 C1578 1.363 . S
C1577 H1580 0.929 . S
C1578 C1577 1.363 . S
C1578 C1584 1.428 . S
H1579 C1575 0.930 . S
H1580 C1577 0.929 . S
S1581 N1582 1.613 . S
S1581 N1583 1.610 . S
N1582 S1581 1.613 . S
N1582 C1585 1.350 . S
N1583 S1581 1.610 . S
N1583 C1584 1.351 . S
C1584 C1578 1.428 . S
C1584 N1583 1.351 . S
C1584 C1585 1.434 . S
C1585 C1576 1.429 . S
C1585 N1582 1.350 . S
C1585 C1584 1.434 . S
C1586 C1587 1.369 . S
C1586 C1588 1.419 . S
C1586 H1590 0.930 . S
C1587 C1586 1.369 . S
C1587 C1596 1.429 . S
C1588 C1586 1.419 . S
C1588 C1589 1.363 . S
C1588 H1591 0.929 . S
C1589 C1588 1.363 . S
C1589 C1595 1.428 . S
H1590 C1586 0.930 . S
H1591 C1588 0.929 . S
S1592 N1593 1.613 . S
S1592 N1594 1.610 . S
N1593 S1592 1.613 . S
N1593 C1596 1.350 . S
N1594 S1592 1.610 . S
N1594 C1595 1.351 . S
C1595 C1589 1.428 . S
C1595 N1594 1.351 . S
C1595 C1596 1.434 . S
C1596 C1587 1.429 . S
C1596 N1593 1.350 . S
C1596 C1595 1.434 . S
C1597 C1598 1.369 . S
C1597 C1599 1.419 . S
C1597 H1601 0.930 . S
C1598 C1597 1.369 . S
C1598 C1607 1.429 . S
C1599 C1597 1.419 . S
C1599 C1600 1.363 . S
C1599 H1602 0.929 . S
C1600 C1599 1.363 . S
C1600 C1606 1.428 . S
H1601 C1597 0.930 . S
H1602 C1599 0.929 . S
S1603 N1604 1.613 . S
S1603 N1605 1.610 . S
N1604 S1603 1.613 . S
N1604 C1607 1.350 . S
N1605 S1603 1.610 . S
N1605 C1606 1.351 . S
C1606 C1600 1.428 . S
C1606 N1605 1.351 . S
C1606 C1607 1.434 . S
C1607 C1598 1.429 . S
C1607 N1604 1.350 . S
C1607 C1606 1.434 . S
C1608 C1609 1.369 . S
C1608 C1610 1.419 . S
C1608 H1612 0.930 . S
C1609 C1608 1.369 . S
C1609 C1618 1.429 . S
C1610 C1608 1.419 . S
C1610 C1611 1.363 . S
C1610 H1613 0.929 . S
C1611 C1610 1.363 . S
C1611 C1617 1.428 . S
H1612 C1608 0.930 . S
H1613 C1610 0.929 . S
S1614 N1615 1.613 . S
S1614 N1616 1.610 . S
N1615 S1614 1.613 . S
N1615 C1618 1.350 . S
N1616 S1614 1.610 . S
N1616 C1617 1.351 . S
C1617 C1611 1.428 . S
C1617 N1616 1.351 . S
C1617 C1618 1.434 . S
C1618 C1609 1.429 . S
C1618 N1615 1.350 . S
C1618 C1617 1.434 . S
C1619 C1620 1.369 . S
C1619 C1621 1.419 . S
C1619 H1623 0.930 . S
C1620 C1619 1.369 . S
C1620 C1629 1.429 . S
C1621 C1619 1.419 . S
C1621 C1622 1.363 . S
C1621 H1624 0.929 . S
C1622 C1621 1.363 . S
C1622 C1628 1.428 . S
H1623 C1619 0.930 . S
H1624 C1621 0.929 . S
S1625 N1626 1.613 . S
S1625 N1627 1.610 . S
N1626 S1625 1.613 . S
N1626 C1629 1.350 . S
N1627 S1625 1.610 . S
N1627 C1628 1.351 . S
C1628 C1622 1.428 . S
C1628 N1627 1.351 . S
C1628 C1629 1.434 . S
C1629 C1620 1.429 . S
C1629 N1626 1.350 . S
C1629 C1628 1.434 . S
C1630 C1631 1.369 1_655 S
C1630 C1632 1.419 . S
C1630 H1634 0.930 . S
C1631 C1630 1.369 1_455 S
C1631 C1640 1.429 . S
C1632 C1630 1.419 . S
C1632 C1633 1.363 1_655 S
C1632 H1635 0.929 . S
C1633 C1632 1.363 1_455 S
C1633 C1639 1.428 . S
H1634 C1630 0.930 . S
H1635 C1632 0.929 . S
S1636 N1637 1.613 . S
S1636 N1638 1.610 . S
N1637 S1636 1.613 . S
N1637 C1640 1.350 . S
N1638 S1636 1.610 . S
N1638 C1639 1.351 . S
C1639 C1633 1.428 . S
C1639 N1638 1.351 . S
C1639 C1640 1.434 . S
C1640 C1631 1.429 . S
C1640 N1637 1.350 . S
C1640 C1639 1.434 . S
C1641 C1642 1.369 . S
C1641 C1643 1.419 . S
C1641 H1645 0.930 . S
C1642 C1641 1.369 . S
C1642 C1651 1.429 . S
C1643 C1641 1.419 . S
C1643 C1644 1.363 . S
C1643 H1646 0.929 . S
C1644 C1643 1.363 . S
C1644 C1650 1.428 . S
H1645 C1641 0.930 . S
H1646 C1643 0.929 . S
S1647 N1648 1.613 . S
S1647 N1649 1.610 . S
N1648 S1647 1.613 . S
N1648 C1651 1.350 . S
N1649 S1647 1.610 . S
N1649 C1650 1.351 . S
C1650 C1644 1.428 . S
C1650 N1649 1.351 . S
C1650 C1651 1.434 . S
C1651 C1642 1.429 . S
C1651 N1648 1.350 . S
C1651 C1650 1.434 . S
C1652 C1653 1.369 . S
C1652 C1654 1.419 . S
C1652 H1656 0.930 . S
C1653 C1652 1.369 . S
C1653 C1662 1.429 . S
C1654 C1652 1.419 . S
C1654 C1655 1.363 . S
C1654 H1657 0.929 . S
C1655 C1654 1.363 . S
C1655 C1661 1.428 . S
H1656 C1652 0.930 . S
H1657 C1654 0.929 . S
S1658 N1659 1.613 . S
S1658 N1660 1.610 . S
N1659 S1658 1.613 . S
N1659 C1662 1.350 . S
N1660 S1658 1.610 . S
N1660 C1661 1.351 . S
C1661 C1655 1.428 . S
C1661 N1660 1.351 . S
C1661 C1662 1.434 . S
C1662 C1653 1.429 . S
C1662 N1659 1.350 . S
C1662 C1661 1.434 . S
C1663 C1664 1.369 . S
C1663 C1665 1.419 . S
C1663 H1667 0.930 . S
C1664 C1663 1.369 . S
C1664 C1673 1.429 . S
C1665 C1663 1.419 . S
C1665 C1666 1.363 . S
C1665 H1668 0.929 . S
C1666 C1665 1.363 . S
C1666 C1672 1.428 . S
H1667 C1663 0.930 . S
H1668 C1665 0.929 . S
S1669 N1670 1.613 . S
S1669 N1671 1.610 . S
N1670 S1669 1.613 . S
N1670 C1673 1.350 . S
N1671 S1669 1.610 . S
N1671 C1672 1.351 . S
C1672 C1666 1.428 . S
C1672 N1671 1.351 . S
C1672 C1673 1.434 . S
C1673 C1664 1.429 . S
C1673 N1670 1.350 . S
C1673 C1672 1.434 . S
C1674 C1675 1.369 . S
C1674 C1676 1.419 . S
C1674 H1678 0.930 . S
C1675 C1674 1.369 . S
C1675 C1684 1.429 1_455 S
C1676 C1674 1.419 . S
C1676 C1677 1.363 . S
C1676 H1679 0.929 . S
C1677 C1676 1.363 . S
C1677 C1683 1.428 1_455 S
H1678 C1674 0.930 . S
H1679 C1676 0.929 . S
S1680 N1681 1.613 . S
S1680 N1682 1.610 . S
N1681 S1680 1.613 . S
N1681 C1684 1.350 . S
N1682 S1680 1.610 . S
N1682 C1683 1.351 . S
C1683 C1677 1.428 1_655 S
C1683 N1682 1.351 . S
C1683 C1684 1.434 . S
C1684 C1675 1.429 1_655 S
C1684 N1681 1.350 . S
C1684 C1683 1.434 . S
C1685 C1686 1.369 . S
C1685 C1687 1.419 . S
C1685 H1689 0.930 . S
C1686 C1685 1.369 . S
C1686 C1695 1.429 . S
C1687 C1685 1.419 . S
C1687 C1688 1.363 . S
C1687 H1690 0.929 . S
C1688 C1687 1.363 . S
C1688 C1694 1.428 . S
H1689 C1685 0.930 . S
H1690 C1687 0.929 . S
S1691 N1692 1.613 . S
S1691 N1693 1.610 . S
N1692 S1691 1.613 . S
N1692 C1695 1.350 . S
N1693 S1691 1.610 . S
N1693 C1694 1.351 . S
C1694 C1688 1.428 . S
C1694 N1693 1.351 . S
C1694 C1695 1.434 . S
C1695 C1686 1.429 . S
C1695 N1692 1.350 . S
C1695 C1694 1.434 . S
C1696 C1697 1.369 . S
C1696 C1698 1.419 . S
C1696 H1700 0.930 . S
C1697 C1696 1.369 . S
C1697 C1706 1.429 . S
C1698 C1696 1.419 . S
C1698 C1699 1.363 . S
C1698 H1701 0.929 . S
C1699 C1698 1.363 . S
C1699 C1705 1.428 . S
H1700 C1696 0.930 . S
H1701 C1698 0.929 . S
S1702 N1703 1.613 . S
S1702 N1704 1.610 . S
N1703 S1702 1.613 . S
N1703 C1706 1.350 . S
N1704 S1702 1.610 . S
N1704 C1705 1.351 . S
C1705 C1699 1.428 . S
C1705 N1704 1.351 . S
C1705 C1706 1.434 . S
C1706 C1697 1.429 . S
C1706 N1703 1.350 . S
C1706 C1705 1.434 . S
C1707 C1708 1.369 . S
C1707 C1709 1.419 . S
C1707 H1711 0.930 . S
C1708 C1707 1.369 . S
C1708 C1717 1.429 . S
C1709 C1707 1.419 . S
C1709 C1710 1.363 . S
C1709 H1712 0.929 . S
C1710 C1709 1.363 . S
C1710 C1716 1.428 . S
H1711 C1707 0.930 . S
H1712 C1709 0.929 . S
S1713 N1714 1.613 . S
S1713 N1715 1.610 . S
N1714 S1713 1.613 . S
N1714 C1717 1.350 . S
N1715 S1713 1.610 . S
N1715 C1716 1.351 . S
C1716 C1710 1.428 . S
C1716 N1715 1.351 . S
C1716 C1717 1.434 . S
C1717 C1708 1.429 . S
C1717 N1714 1.350 . S
C1717 C1716 1.434 . S
C1718 C1719 1.369 . S
C1718 C1720 1.419 . S
C1718 H1722 0.930 . S
C1719 C1718 1.369 . S
C1719 C1728 1.429 . S
C1720 C1718 1.419 . S
C1720 C1721 1.363 . S
C1720 H1723 0.929 . S
C1721 C1720 1.363 . S
C1721 C1727 1.428 . S
H1722 C1718 0.930 . S
H1723 C1720 0.929 . S
S1724 N1725 1.613 . S
S1724 N1726 1.610 . S
N1725 S1724 1.613 . S
N1725 C1728 1.350 . S
N1726 S1724 1.610 . S
N1726 C1727 1.351 . S
C1727 C1721 1.428 . S
C1727 N1726 1.351 . S
C1727 C1728 1.434 . S
C1728 C1719 1.429 . S
C1728 N1725 1.350 . S
C1728 C1727 1.434 . S
C1729 C1730 1.369 . S
C1729 C1731 1.419 . S
C1729 H1733 0.930 . S
C1730 C1729 1.369 . S
C1730 C1739 1.429 . S
C1731 C1729 1.419 . S
C1731 C1732 1.363 . S
C1731 H1734 0.929 . S
C1732 C1731 1.363 . S
C1732 C1738 1.428 . S
H1733 C1729 0.930 . S
H1734 C1731 0.929 . S
S1735 N1736 1.613 . S
S1735 N1737 1.610 . S
N1736 S1735 1.613 . S
N1736 C1739 1.350 . S
N1737 S1735 1.610 . S
N1737 C1738 1.351 . S
C1738 C1732 1.428 . S
C1738 N1737 1.351 . S
C1738 C1739 1.434 . S
C1739 C1730 1.429 . S
C1739 N1736 1.350 . S
C1739 C1738 1.434 . S
C1740 C1741 1.369 . S
C1740 C1742 1.419 . S
C1740 H1744 0.930 . S
C1741 C1740 1.369 . S
C1741 C1750 1.429 . S
C1742 C1740 1.419 . S
C1742 C1743 1.363 . S
C1742 H1745 0.929 . S
C1743 C1742 1.363 . S
C1743 C1749 1.428 . S
H1744 C1740 0.930 . S
H1745 C1742 0.929 . S
S1746 N1747 1.613 . S
S1746 N1748 1.610 . S
N1747 S1746 1.613 . S
N1747 C1750 1.350 . S
N1748 S1746 1.610 . S
N1748 C1749 1.351 . S
C1749 C1743 1.428 . S
C1749 N1748 1.351 . S
C1749 C1750 1.434 . S
C1750 C1741 1.429 . S
C1750 N1747 1.350 . S
C1750 C1749 1.434 . S
C1751 C1752 1.369 . S
C1751 C1753 1.419 . S
C1751 H1755 0.930 . S
C1752 C1751 1.369 . S
C1752 C1761 1.429 . S
C1753 C1751 1.419 . S
C1753 C1754 1.363 . S
C1753 H1756 0.929 . S
C1754 C1753 1.363 . S
C1754 C1760 1.428 . S
H1755 C1751 0.930 . S
H1756 C1753 0.929 . S
S1757 N1758 1.613 . S
S1757 N1759 1.610 . S
N1758 S1757 1.613 . S
N1758 C1761 1.350 . S
N1759 S1757 1.610 . S
N1759 C1760 1.351 . S
C1760 C1754 1.428 . S
C1760 N1759 1.351 . S
C1760 C1761 1.434 . S
C1761 C1752 1.429 . S
C1761 N1758 1.350 . S
C1761 C1760 1.434 . S
C1762 C1763 1.369 . S
C1762 C1764 1.419 . S
C1762 H1766 0.930 . S
C1763 C1762 1.369 . S
C1763 C1772 1.429 . S
C1764 C1762 1.419 . S
C1764 C1765 1.363 . S
C1764 H1767 0.929 . S
C1765 C1764 1.363 . S
C1765 C1771 1.428 . S
H1766 C1762 0.930 . S
H1767 C1764 0.929 . S
S1768 N1769 1.613 . S
S1768 N1770 1.610 . S
N1769 S1768 1.613 . S
N1769 C1772 1.350 . S
N1770 S1768 1.610 . S
N1770 C1771 1.351 . S
C1771 C1765 1.428 . S
C1771 N1770 1.351 . S
C1771 C1772 1.434 . S
C1772 C1763 1.429 . S
C1772 N1769 1.350 . S
C1772 C1771 1.434 . S
C1773 C1774 1.369 . S
C1773 C1775 1.419 . S
C1773 H1777 0.930 . S
C1774 C1773 1.369 . S
C1774 C1783 1.429 . S
C1775 C1773 1.419 . S
C1775 C1776 1.363 . S
C1775 H1778 0.929 . S
C1776 C1775 1.363 . S
C1776 C1782 1.428 . S
H1777 C1773 0.930 . S
H1778 C1775 0.929 . S
S1779 N1780 1.613 . S
S1779 N1781 1.610 . S
N1780 S1779 1.613 . S
N1780 C1783 1.350 . S
N1781 S1779 1.610 . S
N1781 C1782 1.351 . S
C1782 C1776 1.428 . S
C1782 N1781 1.351 . S
C1782 C1783 1.434 . S
C1783 C1774 1.429 . S
C1783 N1780 1.350 . S
C1783 C1782 1.434 . S
C1784 C1785 1.369 . S
C1784 C1786 1.419 . S
C1784 H1788 0.930 . S
C1785 C1784 1.369 . S
C1785 C1794 1.429 . S
C1786 C1784 1.419 . S
C1786 C1787 1.363 . S
C1786 H1789 0.929 . S
C1787 C1786 1.363 . S
C1787 C1793 1.428 . S
H1788 C1784 0.930 . S
H1789 C1786 0.929 . S
S1790 N1791 1.613 . S
S1790 N1792 1.610 . S
N1791 S1790 1.613 . S
N1791 C1794 1.350 . S
N1792 S1790 1.610 . S
N1792 C1793 1.351 . S
C1793 C1787 1.428 . S
C1793 N1792 1.351 . S
C1793 C1794 1.434 . S
C1794 C1785 1.429 . S
C1794 N1791 1.350 . S
C1794 C1793 1.434 . S
C1795 C1796 1.369 . S
C1795 C1797 1.419 . S
C1795 H1799 0.930 . S
C1796 C1795 1.369 . S
C1796 C1805 1.429 . S
C1797 C1795 1.419 . S
C1797 C1798 1.363 . S
C1797 H1800 0.929 . S
C1798 C1797 1.363 . S
C1798 C1804 1.428 . S
H1799 C1795 0.930 . S
H1800 C1797 0.929 . S
S1801 N1802 1.613 . S
S1801 N1803 1.610 . S
N1802 S1801 1.613 . S
N1802 C1805 1.350 . S
N1803 S1801 1.610 . S
N1803 C1804 1.351 . S
C1804 C1798 1.428 . S
C1804 N1803 1.351 . S
C1804 C1805 1.434 . S
C1805 C1796 1.429 . S
C1805 N1802 1.350 . S
C1805 C1804 1.434 . S
C1806 C1807 1.369 . S
C1806 C1808 1.419 . S
C1806 H1810 0.930 . S
C1807 C1806 1.369 . S
C1807 C1816 1.429 . S
C1808 C1806 1.419 . S
C1808 C1809 1.363 . S
C1808 H1811 0.929 . S
C1809 C1808 1.363 . S
C1809 C1815 1.428 . S
H1810 C1806 0.930 . S
H1811 C1808 0.929 . S
S1812 N1813 1.613 . S
S1812 N1814 1.610 . S
N1813 S1812 1.613 . S
N1813 C1816 1.350 . S
N1814 S1812 1.610 . S
N1814 C1815 1.351 . S
C1815 C1809 1.428 . S
C1815 N1814 1.351 . S
C1815 C1816 1.434 . S
C1816 C1807 1.429 . S
C1816 N1813 1.350 . S
C1816 C1815 1.434 . S
C1817 C1818 1.369 . S
C1817 C1819 1.419 . S
C1817 H1821 0.930 . S
C1818 C1817 1.369 . S
C1818 C1827 1.429 . S
C1819 C1817 1.419 . S
C1819 C1820 1.363 . S
C1819 H1822 0.929 . S
C1820 C1819 1.363 . S
C1820 C1826 1.428 1_554 S
H1821 C1817 0.930 . S
H1822 C1819 0.929 . S
S1823 N1824 1.613 1_545 S
S1823 N1825 1.610 . S
N1824 S1823 1.613 1_565 S
N1824 C1827 1.350 1_556 S
N1825 S1823 1.610 . S
N1825 C1826 1.351 1_545 S
C1826 C1820 1.428 1_556 S
C1826 N1825 1.351 1_565 S
C1826 C1827 1.434 1_556 S
C1827 C1818 1.429 . S
C1827 N1824 1.350 1_554 S
C1827 C1826 1.434 1_554 S
C1828 C1829 1.369 . S
C1828 C1830 1.419 . S
C1828 H1832 0.930 . S
C1829 C1828 1.369 . S
C1829 C1838 1.429 . S
C1830 C1828 1.419 . S
C1830 C1831 1.363 . S
C1830 H1833 0.929 . S
C1831 C1830 1.363 . S
C1831 C1837 1.428 . S
H1832 C1828 0.930 . S
H1833 C1830 0.929 . S
S1834 N1835 1.613 . S
S1834 N1836 1.610 . S
N1835 S1834 1.613 . S
N1835 C1838 1.350 . S
N1836 S1834 1.610 . S
N1836 C1837 1.351 . S
C1837 C1831 1.428 . S
C1837 N1836 1.351 . S
C1837 C1838 1.434 . S
C1838 C1829 1.429 . S
C1838 N1835 1.350 . S
C1838 C1837 1.434 . S
C1839 C1840 1.369 . S
C1839 C1841 1.419 . S
C1839 H1843 0.930 . S
C1840 C1839 1.369 . S
C1840 C1849 1.429 1_554 S
C1841 C1839 1.419 . S
C1841 C1842 1.363 . S
C1841 H1844 0.929 . S
C1842 C1841 1.363 . S
C1842 C1848 1.428 . S
H1843 C1839 0.930 . S
H1844 C1841 0.929 . S
S1845 N1846 1.613 . S
S1845 N1847 1.610 . S
N1846 S1845 1.613 . S
N1846 C1849 1.350 . S
N1847 S1845 1.610 . S
N1847 C1848 1.351 1_556 S
C1848 C1842 1.428 . S
C1848 N1847 1.351 1_554 S
C1848 C1849 1.434 1_554 S
C1849 C1840 1.429 1_556 S
C1849 N1846 1.350 . S
C1849 C1848 1.434 1_556 S
C1850 C1851 1.369 . S
C1850 C1852 1.419 . S
C1850 H1854 0.930 . S
C1851 C1850 1.369 . S
C1851 C1860 1.429 . S
C1852 C1850 1.419 . S
C1852 C1853 1.363 . S
C1852 H1855 0.929 . S
C1853 C1852 1.363 . S
C1853 C1859 1.428 . S
H1854 C1850 0.930 . S
H1855 C1852 0.929 . S
S1856 N1857 1.613 . S
S1856 N1858 1.610 . S
N1857 S1856 1.613 . S
N1857 C1860 1.350 . S
N1858 S1856 1.610 . S
N1858 C1859 1.351 . S
C1859 C1853 1.428 . S
C1859 N1858 1.351 . S
C1859 C1860 1.434 . S
C1860 C1851 1.429 . S
C1860 N1857 1.350 . S
C1860 C1859 1.434 . S
C1861 C1862 1.369 . S
C1861 C1863 1.419 . S
C1861 H1865 0.930 . S
C1862 C1861 1.369 . S
C1862 C1871 1.429 . S
C1863 C1861 1.419 . S
C1863 C1864 1.363 . S
C1863 H1866 0.929 . S
C1864 C1863 1.363 . S
C1864 C1870 1.428 . S
H1865 C1861 0.930 . S
H1866 C1863 0.929 . S
S1867 N1868 1.613 . S
S1867 N1869 1.610 . S
N1868 S1867 1.613 . S
N1868 C1871 1.350 . S
N1869 S1867 1.610 . S
N1869 C1870 1.351 . S
C1870 C1864 1.428 . S
C1870 N1869 1.351 . S
C1870 C1871 1.434 . S
C1871 C1862 1.429 . S
C1871 N1868 1.350 . S
C1871 C1870 1.434 . S
C819 C337 1.832 . S
C817 C13 1.826 . S
C828 C25 0.998 . S
C830 C382 1.002 . S
C839 C39 1.702 . S
C841 C406 1.689 . S
C852 N432 1.279 . S
C850 C50 1.274 . S
C861 C21 1.230 . S
C863 N462 1.260 1_455 S
C874 C496 1.640 . S
C872 C35 1.669 . S
C885 C532 1.172 1_556 S
C883 C55 1.116 . S
C894 C8 1.911 . S
C896 C556 1.900 . S
C905 C69 1.005 . S
C907 N350 1.035 . S
C916 C77 1.255 . S
C918 N372 1.286 . S
C929 C412 1.097 . S
C927 C97 1.038 . S
C940 C436 1.823 . S
C938 C105 1.854 . S
C949 C63 1.303 . S
C951 C466 1.269 . S
C962 C502 1.173 . S
C960 C83 1.090 . S
C973 N522 1.205 . S
C971 C91 1.173 . S
C984 C562 1.801 . S
C982 C111 1.791 . S
C995 C363 1.786 . S
C993 C106 1.790 . S
C1006 C592 1.079 . S
C1004 C123 1.072 . S
C1015 C134 1.288 . S
C1017 N612 1.303 . S
C1028 C646 1.602 . S
C1026 C151 1.628 . S
C1037 C64 1.064 . S
C1039 N552 1.084 . S
C1050 N402 1.272 . S
C1048 C78 1.267 . S
C1059 C137 1.091 . S
C1061 C682 1.107 . S
C1072 C706 1.123 . S
C1070 C165 1.166 . S
C1081 C175 1.825 . S
C1083 C346 1.785 1_556 S
C1094 C723 0.900 . S
C1092 C193 0.906 . S
C1103 C209 1.579 . S
C1105 C397 1.616 . S
C1114 C223 0.984 . S
C1116 N680 1.138 . S
C1127 N470 1.199 . S
C1125 C195 1.042 . S
C1138 C607 1.495 . S
C1136 C207 1.508 . S
C1149 C543 1.041 . S
C1147 C221 1.042 . S
C1160 C727 1.794 . S
C1158 C176 1.765 . S
C1171 N342 1.016 . S
C1169 C231 1.015 . S
C1180 C251 1.070 . S
C1182 N710 1.215 . S
C1193 C423 1.035 . S
C1191 C259 1.036 . S
C1202 C279 1.708 . S
C1204 C667 1.771 . S
C1213 C237 1.129 . S
C1215 C457 1.210 . S
C1224 C245 1.086 . S
C1226 C633 1.081 . S
C1237 N530 1.192 . S
C1235 C265 1.040 . S
C1246 C273 1.758 . S
C1248 C753 1.730 . S
C1257 C274 1.673 . S
C1259 C352 1.725 1_565 S
C1268 C291 0.909 1_554 S
C1270 C603 0.907 . S
C1279 C302 1.170 . S
C1281 N500 1.277 . S
C1290 C319 1.518 . S
C1292 C637 1.505 . S
C1303 N740 1.041 . S
C1301 C232 0.999 1_565 S
C1314 N410 1.236 . S
C1312 C246 1.132 . S
C1325 C453 0.997 . S
C1323 C305 1.000 . S
C1336 C367 1.003 . S
C1334 C333 1.025 . S
C1345 C36 1.906 . S
C1347 C757 1.908 . S
C1358 C712 0.972 . S
C1356 C53 0.968 . S
C1369 C796 1.751 . S
C1367 C7 1.780 . S
C1378 C22 1.265 1_655 S
C1380 N672 1.280 . S
C1389 C49 1.241 . S
C1391 N582 1.267 1_556 S
C1402 C616 1.581 . S
C1400 C11 1.601 . S
C1413 C652 1.197 . S
C1411 C27 1.122 . S
C1424 C736 1.806 . S
C1422 C41 1.772 . S
C1435 N770 1.043 . S
C1433 C167 1.018 . S
C1444 C119 1.238 1_556 S
C1446 N702 1.279 . S
C1455 C139 1.044 . S
C1457 C802 1.111 1_655 S
C1468 C676 1.826 . S
C1466 C147 1.853 . S
C1479 C586 1.280 . S
C1477 C161 1.301 . S
C1488 C125 1.067 . S
C1490 C622 1.157 . S
C1501 N642 1.213 . S
C1499 C133 1.186 . S
C1510 C153 1.787 . S
C1512 C742 1.790 . S
C1523 C783 1.822 . S
C1521 C148 1.816 . S
C1534 C472 1.052 1_565 S
C1532 C81 1.043 . S
C1545 N492 1.303 . S
C1543 C92 1.291 1_565 S
C1554 C109 1.602 . S
C1556 C526 1.581 . S
C1567 N732 1.067 . S
C1565 C162 1.050 . S
C1576 C120 1.259 . S
C1578 N792 1.277 . S
C1589 C442 1.139 . S
C1587 C95 1.127 . S
C1600 C376 1.146 . S
C1598 C67 1.194 . S
C1609 C203 1.837 . S
C1611 C766 1.802 . S
C1622 C393 0.993 . S
C1620 C217 0.995 . S
C1633 C787 1.620 1_556 S
C1631 C181 1.580 . S
C1642 C190 1.178 . S
C1644 N440 1.277 . S
C1653 C218 1.221 . S
C1655 N590 1.348 . S
C1664 C179 1.506 . S
C1666 C487 1.502 . S
C1675 C189 1.138 . S
C1677 C663 1.133 . S
C1686 C204 1.780 . S
C1688 C547 1.812 . S
C1699 N762 1.046 . S
C1697 C329 1.046 . S
C1708 C293 1.036 . S
C1710 N380 1.168 . S
C1721 C813 1.041 . S
C1719 C301 1.047 . S
C1730 C321 1.661 . S
C1732 C427 1.728 . S
C1741 C335 1.081 . S
C1743 C577 1.150 . S
C1754 C513 1.091 . S
C1752 C287 1.092 . S
C1763 C307 1.025 . S
C1765 N650 1.142 . S
C1776 C573 1.747 . S
C1774 C315 1.781 . S
C1787 C772 1.713 . S
C1785 C316 1.662 . S
C1798 C483 0.977 . S
C1796 C249 0.980 . S
C1807 C260 1.144 . S
C1809 N620 1.267 . S
C1820 C517 1.580 1_565 S
C1818 C277 1.591 . S
C1831 N560 1.035 . S
C1829 C330 1.006 . S
C1840 C288 1.149 . S
C1842 N800 1.249 . S
C1853 C693 1.069 . S
C1851 C263 1.076 . S
C1864 C697 1.088 . S
C1862 C235 1.111 . S
