# Generated by pormake.
# Topology wbl, (4,4)-cn, num edge types: 1
# Building blocks:
#     Node 0, Type 0, BuildingBlock: MUDLON_clean_sbu_0, # of connection points: 4
#     Node 1, Type 0, BuildingBlock: MUDLON_clean_sbu_0, # of connection points: 4
#     Node 2, Type 0, BuildingBlock: MUDLON_clean_sbu_0, # of connection points: 4
#     Node 3, Type 0, BuildingBlock: MUDLON_clean_sbu_0, # of connection points: 4
#     Node 4, Type 0, BuildingBlock: MUDLON_clean_sbu_0, # of connection points: 4
#     Node 5, Type 0, BuildingBlock: MUDLON_clean_sbu_0, # of connection points: 4
#     Node 6, Type 0, BuildingBlock: MUDLON_clean_sbu_0, # of connection points: 4
#     Node 7, Type 0, BuildingBlock: MUDLON_clean_sbu_0, # of connection points: 4
#     Node 8, Type 1, BuildingBlock: GALJAG_clean_sbu_0, # of connection points: 4
#     Node 9, Type 1, BuildingBlock: GALJAG_clean_sbu_0, # of connection points: 4
#     Node 10, Type 1, BuildingBlock: GALJAG_clean_sbu_0, # of connection points: 4
#     Node 11, Type 1, BuildingBlock: GALJAG_clean_sbu_0, # of connection points: 4
#     Node 12, Type 1, BuildingBlock: GALJAG_clean_sbu_0, # of connection points: 4
#     Node 13, Type 1, BuildingBlock: GALJAG_clean_sbu_0, # of connection points: 4
#     Node 14, Type 1, BuildingBlock: GALJAG_clean_sbu_0, # of connection points: 4
#     Node 15, Type 1, BuildingBlock: GALJAG_clean_sbu_0, # of connection points: 4
#     Edge 16, Type (0, 1), BuildingBlock: XUDNAN_clean_linker_2, # of connection points: 2
#     Edge 17, Type (0, 1), BuildingBlock: XUDNAN_clean_linker_2, # of connection points: 2
#     Edge 18, Type (0, 1), BuildingBlock: XUDNAN_clean_linker_2, # of connection points: 2
#     Edge 19, Type (0, 1), BuildingBlock: XUDNAN_clean_linker_2, # of connection points: 2
#     Edge 20, Type (0, 1), BuildingBlock: XUDNAN_clean_linker_2, # of connection points: 2
#     Edge 21, Type (0, 1), BuildingBlock: XUDNAN_clean_linker_2, # of connection points: 2
#     Edge 22, Type (0, 1), BuildingBlock: XUDNAN_clean_linker_2, # of connection points: 2
#     Edge 23, Type (0, 1), BuildingBlock: XUDNAN_clean_linker_2, # of connection points: 2
#     Edge 24, Type (0, 1), BuildingBlock: XUDNAN_clean_linker_2, # of connection points: 2
#     Edge 25, Type (0, 1), BuildingBlock: XUDNAN_clean_linker_2, # of connection points: 2
#     Edge 26, Type (0, 1), BuildingBlock: XUDNAN_clean_linker_2, # of connection points: 2
#     Edge 27, Type (0, 1), BuildingBlock: XUDNAN_clean_linker_2, # of connection points: 2
#     Edge 28, Type (0, 1), BuildingBlock: XUDNAN_clean_linker_2, # of connection points: 2
#     Edge 29, Type (0, 1), BuildingBlock: XUDNAN_clean_linker_2, # of connection points: 2
#     Edge 30, Type (0, 1), BuildingBlock: XUDNAN_clean_linker_2, # of connection points: 2
#     Edge 31, Type (0, 1), BuildingBlock: XUDNAN_clean_linker_2, # of connection points: 2
#     Edge 32, Type (0, 1), BuildingBlock: XUDNAN_clean_linker_2, # of connection points: 2
#     Edge 33, Type (0, 1), BuildingBlock: XUDNAN_clean_linker_2, # of connection points: 2
#     Edge 34, Type (0, 1), BuildingBlock: XUDNAN_clean_linker_2, # of connection points: 2
#     Edge 35, Type (0, 1), BuildingBlock: XUDNAN_clean_linker_2, # of connection points: 2
#     Edge 36, Type (0, 1), BuildingBlock: XUDNAN_clean_linker_2, # of connection points: 2
#     Edge 37, Type (0, 1), BuildingBlock: XUDNAN_clean_linker_2, # of connection points: 2
#     Edge 38, Type (0, 1), BuildingBlock: XUDNAN_clean_linker_2, # of connection points: 2
#     Edge 39, Type (0, 1), BuildingBlock: XUDNAN_clean_linker_2, # of connection points: 2
#     Edge 40, Type (0, 1), BuildingBlock: XUDNAN_clean_linker_2, # of connection points: 2
#     Edge 41, Type (0, 1), BuildingBlock: XUDNAN_clean_linker_2, # of connection points: 2
#     Edge 42, Type (0, 1), BuildingBlock: XUDNAN_clean_linker_2, # of connection points: 2
#     Edge 43, Type (0, 1), BuildingBlock: XUDNAN_clean_linker_2, # of connection points: 2
#     Edge 44, Type (0, 1), BuildingBlock: XUDNAN_clean_linker_2, # of connection points: 2
#     Edge 45, Type (0, 1), BuildingBlock: XUDNAN_clean_linker_2, # of connection points: 2
#     Edge 46, Type (0, 1), BuildingBlock: XUDNAN_clean_linker_2, # of connection points: 2
#     Edge 47, Type (0, 1), BuildingBlock: XUDNAN_clean_linker_2, # of connection points: 2
# Relax obj value: 0.157
# Max RMSD: 0.185
# Mean RMSD: 0.147
data_MOF--net-wbl--node1-MUDLON_clean_sbu_0--node2-GALJAG_clean_sbu_0--edge1-XUDNAN_clean_linker_2
_symmetry_space_group_name_H-M    P1
_symmetry_Int_Tables_number       1
_symmetry_cell_setting            triclinic
loop_
_symmetry_equiv_pos_as_xyz
'x, y, z'
_cell_length_a     34.19959
_cell_length_b     34.329861
_cell_length_c     81.351179
_cell_angle_alpha  90.053746
_cell_angle_beta   90.018016
_cell_angle_gamma 90.079222
loop_
_atom_site_label
_atom_site_type_symbol
_atom_site_fract_x
_atom_site_fract_y
_atom_site_fract_z
_atom_type_partial_charge
Mg0 Mg 0.00907 0.01057 0.34313 0.0
C1 C 0.01392 0.94317 0.36524 0.0
O2 O 0.04884 0.94411 0.35853 0.0
C3 C 0.93159 0.02139 0.32502 0.0
O4 O 0.92519 0.98562 0.33008 0.0
C5 C 0.04709 0.95692 0.3194 0.0
O6 O 0.01157 0.94238 0.3202 0.0
O7 O 0.0551 0.98722 0.32774 0.0
O8 O 0.98771 0.9657 0.35957 0.0
O9 O 0.02957 0.05144 0.36145 0.0
C10 C 0.00377 0.07469 0.36692 0.0
O11 O 0.97058 0.07771 0.3589 0.0
O12 O 0.96384 0.03784 0.32848 0.0
Mg13 Mg 0.99739 0.51583 0.59103 0.0
C14 C 0.03202 0.49818 0.62418 0.0
O15 O 0.99556 0.48752 0.62657 0.0
C16 C 0.0074 0.45275 0.56473 0.0
O17 O 0.03729 0.47469 0.5606 0.0
C18 C 0.05307 0.5656 0.57229 0.0
O19 O 0.07604 0.53888 0.57863 0.0
O20 O 0.01655 0.56377 0.57525 0.0
O21 O 0.04244 0.50875 0.60984 0.0
O22 O 0.94498 0.52847 0.60524 0.0
C23 C 0.91403 0.50821 0.60363 0.0
O24 O 0.91135 0.48393 0.59119 0.0
O25 O 0.98654 0.4626 0.57697 0.0
Mg26 Mg 0.49583 0.48654 0.8466 0.0
C27 C 0.4927 0.56794 0.86241 0.0
O28 O 0.46764 0.57599 0.85067 0.0
C29 C 0.57052 0.48422 0.82495 0.0
O30 O 0.57626 0.52014 0.83 0.0
C31 C 0.45169 0.52378 0.82048 0.0
O32 O 0.48838 0.53325 0.81779 0.0
O33 O 0.44395 0.50144 0.83252 0.0
O34 O 0.51134 0.53597 0.86201 0.0
O35 O 0.49182 0.44288 0.86582 0.0
C36 C 0.52446 0.44386 0.87335 0.0
O37 O 0.55251 0.46585 0.86734 0.0
O38 O 0.54065 0.4656 0.8299 0.0
Mg39 Mg 0.49355 0.00145 0.10195 0.0
C40 C 0.54679 0.97269 0.12835 0.0
O41 O 0.51458 0.95372 0.13205 0.0
C42 C 0.48489 0.92326 0.08334 0.0
O43 O 0.5078 0.90913 0.09484 0.0
C44 C 0.53089 0.06454 0.08265 0.0
O45 O 0.55791 0.03737 0.0824 0.0
O46 O 0.49905 0.05786 0.09022 0.0
O47 O 0.54821 0.99126 0.11484 0.0
O48 O 0.45068 0.00097 0.12157 0.0
C49 C 0.41792 0.98353 0.12078 0.0
O50 O 0.40627 0.96882 0.10669 0.0
O51 O 0.4763 0.95925 0.08347 0.0
Mg52 Mg 0.99961 0.49516 0.9049 0.0
C53 C 0.98871 0.57243 0.88743 0.0
O54 O 0.00948 0.58605 0.89974 0.0
C55 C 0.9625 0.4358 0.92725 0.0
O56 O 0.9952 0.4177 0.92361 0.0
C57 C 0.07688 0.50781 0.92421 0.0
O58 O 0.08329 0.4707 0.92134 0.0
O59 O 0.0458 0.52353 0.91882 0.0
O60 O 0.97577 0.53777 0.8881 0.0
O61 O 0.01831 0.45428 0.88617 0.0
C62 C 0.99002 0.43556 0.87976 0.0
O63 O 0.95616 0.43583 0.88739 0.0
O64 O 0.95622 0.46932 0.92113 0.0
Mg65 Mg 0.51415 0.50224 0.1575 0.0
C66 C 0.43905 0.513 0.13677 0.0
O67 O 0.42249 0.52248 0.15078 0.0
C68 C 0.54017 0.43988 0.18108 0.0
O69 O 0.56662 0.46667 0.18422 0.0
C70 C 0.47378 0.53769 0.18607 0.0
O71 O 0.46161 0.5014 0.18665 0.0
O72 O 0.4975 0.54758 0.17477 0.0
O73 O 0.47457 0.50226 0.13665 0.0
O74 O 0.56941 0.5122 0.14513 0.0
C75 C 0.58883 0.48244 0.1407 0.0
O76 O 0.57852 0.44818 0.14643 0.0
O77 O 0.51434 0.44659 0.17019 0.0
Mg78 Mg 0.50484 0.00487 0.4151 0.0
C79 C 0.47199 0.05009 0.3875 0.0
O80 O 0.44495 0.02342 0.38978 0.0
C81 C 0.42864 0.02117 0.43315 0.0
O82 O 0.438 0.0571 0.42921 0.0
C83 C 0.57198 0.046 0.43293 0.0
O84 O 0.55972 0.07567 0.42414 0.0
O85 O 0.55474 0.01325 0.43148 0.0
O86 O 0.49938 0.05299 0.39801 0.0
O87 O 0.51413 0.9585 0.39731 0.0
C88 C 0.48534 0.93774 0.39267 0.0
O89 O 0.45248 0.93958 0.40099 0.0
O90 O 0.45134 0.99365 0.42893 0.0
Mg91 Mg 0.99853 0.01089 0.66633 0.0
C92 C 0.03559 0.03098 0.63423 0.0
O93 O 0.00115 0.04722 0.63237 0.0
C94 C 0.01153 0.09173 0.67991 0.0
O95 O 0.04716 0.08439 0.67473 0.0
C96 C 0.01282 0.93214 0.68225 0.0
O97 O 0.99313 0.91971 0.6694 0.0
O98 O 0.01796 0.9685 0.68422 0.0
O99 O 0.04452 0.01651 0.64812 0.0
O100 O 0.95021 0.99173 0.65112 0.0
C101 C 0.92515 0.01703 0.6468 0.0
O102 O 0.92327 0.04973 0.65516 0.0
O103 O 0.9852 0.06599 0.67805 0.0
In104 In 0.36512 0.64351 0.99929 0.0
O105 O 0.35283 0.70691 0.00608 0.0
O106 O 0.40678 0.68208 0.01383 0.0
C107 C 0.29627 0.62393 0.9853 0.0
C108 C 0.36582 0.60009 0.02695 0.0
C109 C 0.41027 0.64223 0.97199 0.0
O110 O 0.30273 0.65744 0.99116 0.0
O111 O 0.32432 0.60031 0.9867 0.0
O112 O 0.40875 0.61371 0.9818 0.0
O113 O 0.39007 0.67118 0.97625 0.0
C114 C 0.38476 0.71155 0.01367 0.0
O115 O 0.39409 0.6 0.01691 0.0
O116 O 0.33725 0.62101 0.02273 0.0
In117 In 0.35776 0.83747 0.25709 0.0
O118 O 0.35316 0.77096 0.25688 0.0
O119 O 0.3994 0.79679 0.24339 0.0
C120 C 0.28554 0.85473 0.26803 0.0
C121 C 0.35425 0.8774 0.22852 0.0
C122 C 0.40268 0.85363 0.28368 0.0
O123 O 0.29416 0.82188 0.26204 0.0
O124 O 0.31341 0.8789 0.26851 0.0
O125 O 0.40886 0.86892 0.26981 0.0
O126 O 0.37443 0.83006 0.28402 0.0
C127 C 0.38229 0.76589 0.24763 0.0
O128 O 0.38066 0.88345 0.2391 0.0
O129 O 0.32972 0.85161 0.23244 0.0
In130 In 0.13352 0.87962 0.50256 0.0
O131 O 0.1001 0.91993 0.51999 0.0
O132 O 0.15543 0.89843 0.52773 0.0
C133 C 0.08625 0.88012 0.47596 0.0
C134 C 0.12647 0.80586 0.51402 0.0
C135 C 0.19524 0.91803 0.48939 0.0
O136 O 0.07753 0.89761 0.48913 0.0
O137 O 0.11829 0.86199 0.47638 0.0
O138 O 0.19596 0.88167 0.4919 0.0
O139 O 0.16383 0.93447 0.4936 0.0
C140 C 0.126 0.91912 0.53107 0.0
O141 O 0.15863 0.81952 0.50896 0.0
O142 O 0.0981 0.82914 0.51306 0.0
In143 In 0.14267 0.63902 0.75438 0.0
O144 O 0.09983 0.60787 0.77168 0.0
O145 O 0.11407 0.66693 0.7767 0.0
C146 C 0.13766 0.59231 0.72769 0.0
C147 C 0.21396 0.62234 0.76682 0.0
C148 C 0.12308 0.70846 0.74128 0.0
O149 O 0.11114 0.59396 0.73848 0.0
O150 O 0.16697 0.61356 0.73056 0.0
O151 O 0.15206 0.70434 0.75074 0.0
O152 O 0.10428 0.67759 0.73836 0.0
C153 C 0.09494 0.63715 0.78087 0.0
O154 O 0.20776 0.65117 0.75758 0.0
O155 O 0.18413 0.60198 0.76991 0.0
In156 In 0.87905 0.14042 0.50601 0.0
O157 O 0.87223 0.20347 0.51583 0.0
O158 O 0.92863 0.18344 0.50889 0.0
C159 C 0.80704 0.11749 0.49592 0.0
C160 C 0.88704 0.10069 0.53436 0.0
C161 C 0.92021 0.12665 0.47842 0.0
O162 O 0.81752 0.15284 0.49531 0.0
O163 O 0.83231 0.09481 0.5018 0.0
O164 O 0.92905 0.11134 0.49205 0.0
O165 O 0.89041 0.14832 0.47873 0.0
C166 C 0.90833 0.21102 0.51445 0.0
O167 O 0.90229 0.08936 0.52105 0.0
O168 O 0.86833 0.1323 0.53339 0.0
In169 In 0.85776 0.3895 0.74018 0.0
O170 O 0.8672 0.44024 0.72227 0.0
O171 O 0.82782 0.39489 0.71546 0.0
C172 C 0.90124 0.40224 0.76723 0.0
C173 C 0.8985 0.32836 0.72854 0.0
C174 C 0.78811 0.39913 0.75485 0.0
O175 O 0.90379 0.42416 0.75474 0.0
O176 O 0.87706 0.37461 0.76592 0.0
O177 O 0.79955 0.36614 0.74978 0.0
O178 O 0.81151 0.42695 0.7522 0.0
C179 C 0.84407 0.42656 0.71154 0.0
O180 O 0.86329 0.32487 0.73313 0.0
O181 O 0.91246 0.36224 0.72986 0.0
In182 In 0.66473 0.35323 0.00804 0.0
O183 O 0.66193 0.29129 0.01839 0.0
O184 O 0.61155 0.32756 0.02046 0.0
C185 C 0.73624 0.3577 0.99393 0.0
C186 C 0.66921 0.40121 0.03422 0.0
C187 C 0.62007 0.36137 0.981 0.0
O188 O 0.72338 0.32612 0.99984 0.0
O189 O 0.71349 0.38623 0.99548 0.0
O190 O 0.62986 0.38975 0.98998 0.0
O191 O 0.63235 0.32861 0.98571 0.0
C192 C 0.62703 0.29492 0.02339 0.0
O193 O 0.64919 0.40928 0.02164 0.0
O194 O 0.68742 0.36932 0.03348 0.0
In195 In 0.62755 0.13438 0.25544 0.0
O196 O 0.57525 0.10539 0.26789 0.0
O197 O 0.60796 0.14652 0.28181 0.0
C198 C 0.63563 0.08954 0.22835 0.0
C199 C 0.69784 0.12208 0.26937 0.0
C200 C 0.59722 0.19977 0.24205 0.0
O201 O 0.6135 0.0803 0.24015 0.0
O202 O 0.65395 0.1211 0.23032 0.0
O203 O 0.63133 0.19894 0.24802 0.0
O204 O 0.57868 0.16817 0.24317 0.0
C205 C 0.57955 0.12307 0.28138 0.0
O206 O 0.68715 0.15545 0.26457 0.0
O207 O 0.67308 0.0953 0.26714 0.0
H208 H 0.12347 0.97947 0.31487 0.0
H209 H 0.04012 0.88861 0.30232 0.0
H210 H 0.09179 0.85325 0.28735 0.0
H211 H 0.17651 0.97779 0.27616 0.0
H212 H 0.22327 0.98622 0.28577 0.0
H213 H 0.17939 0.00498 0.2951 0.0
H214 H 0.19638 0.96904 0.32217 0.0
H215 H 0.24021 0.95006 0.31291 0.0
H216 H 0.20485 0.91723 0.32176 0.0
H217 H 0.15304 0.82629 0.27481 0.0
H218 H 0.21936 0.81081 0.26469 0.0
H219 H 0.26243 0.91974 0.28495 0.0
C220 C 0.11598 0.95228 0.30888 0.0
C221 C 0.07772 0.93682 0.30977 0.0
C222 C 0.06919 0.90109 0.30179 0.0
C223 C 0.09834 0.88075 0.29326 0.0
C224 C 0.13582 0.89661 0.29276 0.0
C225 C 0.14468 0.93166 0.30026 0.0
C226 C 0.1874 0.94206 0.29803 0.0
C227 C 0.19189 0.98001 0.28817 0.0
C228 C 0.20844 0.94474 0.31471 0.0
C229 C 0.20123 0.9072 0.28823 0.0
C230 C 0.17103 0.8813 0.28533 0.0
C231 C 0.17688 0.84646 0.2769 0.0
C232 C 0.21462 0.83789 0.27124 0.0
C233 C 0.24592 0.86414 0.27399 0.0
C234 C 0.23899 0.89925 0.28257 0.0
H235 H 0.01699 0.63216 0.56073 0.0
H236 H 0.12813 0.57117 0.5612 0.0
H237 H 0.15817 0.62456 0.54541 0.0
H238 H 0.02629 0.67284 0.51946 0.0
H239 H 0.00393 0.71851 0.525 0.0
H240 H 0.99043 0.67455 0.53568 0.0
H241 H 0.00837 0.70694 0.56347 0.0
H242 H 0.02194 0.75096 0.55287 0.0
H243 H 0.05655 0.72729 0.56625 0.0
H244 H 0.17711 0.68558 0.53043 0.0
H245 H 0.18339 0.75045 0.51749 0.0
H246 H 0.06037 0.77219 0.52678 0.0
C247 C 0.04753 0.62987 0.55737 0.0
C248 C 0.07013 0.59735 0.5622 0.0
C249 C 0.11014 0.59571 0.55768 0.0
C250 C 0.12752 0.6259 0.54866 0.0
C251 C 0.10459 0.65765 0.54423 0.0
C252 C 0.06546 0.65989 0.5484 0.0
C253 C 0.04778 0.69793 0.54256 0.0
C254 C 0.01518 0.6905 0.52992 0.0
C255 C 0.03279 0.72221 0.55716 0.0
C256 C 0.08316 0.71679 0.53461 0.0
C257 C 0.11558 0.69298 0.53563 0.0
C258 C 0.15187 0.70442 0.52947 0.0
C259 C 0.15517 0.7413 0.52215 0.0
C260 C 0.1224 0.76632 0.52109 0.0
C261 C 0.08593 0.75365 0.52733 0.0
H262 H 0.37231 0.50847 0.82098 0.0
H263 H 0.46051 0.58035 0.79735 0.0
H264 H 0.40932 0.61311 0.78128 0.0
H265 H 0.31127 0.49643 0.78474 0.0
H266 H 0.26607 0.4985 0.7961 0.0
H267 H 0.3097 0.48022 0.80581 0.0
H268 H 0.3019 0.53104 0.82915 0.0
H269 H 0.25835 0.54956 0.81948 0.0
H270 H 0.2984 0.58201 0.82404 0.0
H271 H 0.34911 0.63981 0.76841 0.0
H272 H 0.2831 0.65645 0.75839 0.0
H273 H 0.23345 0.56649 0.78956 0.0
C274 C 0.38083 0.53098 0.81238 0.0
C275 C 0.42047 0.54183 0.81046 0.0
C276 C 0.4304 0.5714 0.79904 0.0
C277 C 0.40152 0.59031 0.78985 0.0
C278 C 0.36278 0.57919 0.79211 0.0
C279 C 0.35231 0.55004 0.80297 0.0
C280 C 0.30842 0.54365 0.80289 0.0
C281 C 0.29828 0.50224 0.79703 0.0
C282 C 0.29074 0.55208 0.8199 0.0
C283 C 0.296 0.57396 0.79039 0.0
C284 C 0.32786 0.59419 0.78439 0.0
C285 C 0.3239 0.62405 0.77293 0.0
C286 C 0.2863 0.63335 0.76735 0.0
C287 C 0.25323 0.61271 0.77316 0.0
C288 C 0.25824 0.58266 0.78485 0.0
H289 H 0.50095 0.84596 0.07727 0.0
H290 H 0.42758 0.94192 0.0613 0.0
H291 H 0.39497 0.89858 0.04139 0.0
H292 H 0.51299 0.80227 0.0368 0.0
H293 H 0.51151 0.7531 0.04453 0.0
H294 H 0.5298 0.79191 0.05734 0.0
H295 H 0.47945 0.77373 0.07987 0.0
H296 H 0.46095 0.73496 0.06712 0.0
H297 H 0.42818 0.77186 0.07475 0.0
H298 H 0.36774 0.84417 0.02425 0.0
H299 H 0.35034 0.78284 0.01002 0.0
H300 H 0.44283 0.72294 0.0363 0.0
C301 C 0.4782 0.85792 0.06952 0.0
C302 C 0.46685 0.89736 0.07088 0.0
C303 C 0.43692 0.91185 0.06048 0.0
C304 C 0.41813 0.88745 0.04914 0.0
C305 C 0.42977 0.84868 0.04821 0.0
C306 C 0.45932 0.83403 0.05801 0.0
C307 C 0.46608 0.79118 0.05458 0.0
C308 C 0.50756 0.78422 0.04791 0.0
C309 C 0.45818 0.76649 0.07 0.0
C310 C 0.43545 0.784 0.04145 0.0
C311 C 0.41472 0.81752 0.038 0.0
C312 C 0.384 0.8178 0.02673 0.0
C313 C 0.37427 0.78287 0.01874 0.0
C314 C 0.39541 0.74831 0.02198 0.0
C315 C 0.42645 0.74905 0.03345 0.0
H316 H 0.14782 0.48495 0.93703 0.0
H317 H 0.07036 0.58461 0.93277 0.0
H318 H 0.11729 0.6246 0.94842 0.0
H319 H 0.18126 0.50534 0.97835 0.0
H320 H 0.23064 0.48965 0.97439 0.0
H321 H 0.19064 0.46846 0.96306 0.0
H322 H 0.22399 0.48783 0.93565 0.0
H323 H 0.2641 0.50902 0.94689 0.0
H324 H 0.23744 0.53796 0.93221 0.0
H325 H 0.17274 0.65412 0.96439 0.0
H326 H 0.23372 0.67125 0.97905 0.0
H327 H 0.27535 0.55279 0.97274 0.0
C328 C 0.14066 0.51514 0.93942 0.0
C329 C 0.10531 0.53155 0.93368 0.0
C330 C 0.09719 0.57127 0.93704 0.0
C331 C 0.12365 0.59428 0.94595 0.0
C332 C 0.15818 0.57722 0.95142 0.0
C333 C 0.1668 0.5386 0.94828 0.0
C334 C 0.20626 0.52761 0.95536 0.0
C335 C 0.20192 0.49589 0.96858 0.0
C336 C 0.23462 0.51487 0.94171 0.0
C337 C 0.21852 0.56615 0.96287 0.0
C338 C 0.19028 0.59433 0.96054 0.0
C339 C 0.19506 0.63228 0.96632 0.0
C340 C 0.22975 0.64173 0.97464 0.0
C341 C 0.25922 0.61337 0.97704 0.0
C342 C 0.25332 0.57509 0.97111 0.0
H343 H 0.48917 0.61642 0.1875 0.0
H344 H 0.4237 0.52423 0.21158 0.0
H345 H 0.39581 0.57217 0.23083 0.0
H346 H 0.5105 0.67271 0.22463 0.0
H347 H 0.50477 0.71893 0.21442 0.0
H348 H 0.52131 0.67706 0.20302 0.0
H349 H 0.46457 0.68629 0.18226 0.0
H350 H 0.44786 0.72813 0.1936 0.0
H351 H 0.41494 0.68813 0.18969 0.0
H352 H 0.37202 0.63033 0.24647 0.0
H353 H 0.35469 0.69504 0.25762 0.0
H354 H 0.4362 0.74934 0.22376 0.0
C355 C 0.46928 0.60625 0.19692 0.0
C356 C 0.45867 0.56652 0.19802 0.0
C357 C 0.43232 0.55448 0.21048 0.0
C358 C 0.41633 0.58148 0.2215 0.0
C359 C 0.42709 0.62043 0.21999 0.0
C360 C 0.45306 0.63283 0.20807 0.0
C361 C 0.45875 0.67658 0.20878 0.0
C362 C 0.50137 0.68692 0.21296 0.0
C363 C 0.44574 0.69591 0.19263 0.0
C364 C 0.4315 0.68684 0.22281 0.0
C365 C 0.41362 0.654 0.22913 0.0
C366 C 0.3861 0.65624 0.24173 0.0
C367 C 0.37641 0.69308 0.24797 0.0
C368 C 0.39426 0.7271 0.24162 0.0
C369 C 0.4224 0.72378 0.22898 0.0
H370 H 0.39969 0.94986 0.44303 0.0
H371 H 0.37421 0.07376 0.44376 0.0
H372 H 0.3127 0.06057 0.45854 0.0
H373 H 0.30103 0.91751 0.43641 0.0
H374 H 0.30537 0.87536 0.44948 0.0
H375 H 0.34788 0.89439 0.43916 0.0
H376 H 0.38364 0.9008 0.46711 0.0
H377 H 0.34122 0.8818 0.47752 0.0
H378 H 0.36126 0.92831 0.48348 0.0
H379 H 0.25359 0.03431 0.47275 0.0
H380 H 0.20049 0.99662 0.48565 0.0
H381 H 0.2638 0.88943 0.47611 0.0
C382 C 0.38125 0.97424 0.44634 0.0
C383 C 0.3919 0.01291 0.44222 0.0
C384 C 0.36681 0.04393 0.44676 0.0
C385 C 0.33177 0.03674 0.45517 0.0
C386 C 0.32214 0.99836 0.45901 0.0
C387 C 0.3461 0.9676 0.45478 0.0
C388 C 0.3286 0.92908 0.46028 0.0
C389 C 0.32022 0.90253 0.44545 0.0
C390 C 0.35527 0.90881 0.47285 0.0
C391 C 0.291 0.94305 0.46822 0.0
C392 C 0.28795 0.98314 0.46733 0.0
C393 C 0.2557 0.00293 0.47356 0.0
C394 C 0.22566 0.98121 0.48087 0.0
C395 C 0.228 0.94008 0.48193 0.0
C396 C 0.26126 0.92084 0.47556 0.0
H397 H 0.00325 0.85272 0.68334 0.0
H398 H 0.06541 0.94829 0.7067 0.0
H399 H 0.10012 0.9015 0.72445 0.0
H400 H 0.9916 0.79438 0.72035 0.0
H401 H 0.99832 0.74889 0.70965 0.0
H402 H 0.97766 0.79007 0.69906 0.0
H403 H 0.03146 0.78459 0.67674 0.0
H404 H 0.05241 0.74357 0.68732 0.0
H405 H 0.08218 0.78557 0.68277 0.0
H406 H 0.13058 0.84415 0.73869 0.0
H407 H 0.15148 0.7803 0.74963 0.0
H408 H 0.06816 0.72246 0.71757 0.0
C409 C 0.02395 0.86385 0.69226 0.0
C410 C 0.03164 0.90418 0.6936 0.0
C411 C 0.05893 0.91754 0.70546 0.0
C412 C 0.07889 0.89119 0.71558 0.0
C413 C 0.071 0.85161 0.7138 0.0
C414 C 0.04392 0.83799 0.70256 0.0
C415 C 0.04089 0.794 0.7031 0.0
C416 C 0.99967 0.78109 0.70836 0.0
C417 C 0.05243 0.77588 0.6865 0.0
C418 C 0.07084 0.78501 0.71626 0.0
C419 C 0.08798 0.81863 0.72224 0.0
C420 C 0.11717 0.81763 0.7342 0.0
C421 C 0.12893 0.78127 0.74029 0.0
C422 C 0.11134 0.74654 0.73449 0.0
C423 C 0.08197 0.74857 0.72231 0.0
H424 H 0.63647 0.51561 0.81074 0.0
H425 H 0.56819 0.40908 0.81375 0.0
H426 H 0.61516 0.37628 0.79542 0.0
H427 H 0.66363 0.50551 0.76784 0.0
H428 H 0.71209 0.52493 0.7709 0.0
H429 H 0.67256 0.54043 0.78398 0.0
H430 H 0.71218 0.51961 0.80968 0.0
H431 H 0.75182 0.50411 0.79668 0.0
H432 H 0.73035 0.47044 0.81108 0.0
H433 H 0.67078 0.35422 0.77746 0.0
H434 H 0.73101 0.34501 0.76107 0.0
H435 H 0.76224 0.46599 0.76947 0.0
C436 C 0.63129 0.48544 0.80751 0.0
C437 C 0.5986 0.46498 0.81371 0.0
C438 C 0.59297 0.42546 0.80916 0.0
C439 C 0.61948 0.40652 0.79874 0.0
C440 C 0.65142 0.42748 0.79288 0.0
C441 C 0.6574 0.46608 0.79706 0.0
C442 C 0.6944 0.48179 0.78927 0.0
C443 C 0.6851 0.51513 0.77728 0.0
C444 C 0.72393 0.49474 0.80247 0.0
C445 C 0.70845 0.44589 0.78021 0.0
C446 C 0.68324 0.41487 0.78241 0.0
C447 C 0.69064 0.37837 0.77556 0.0
C448 C 0.72487 0.3734 0.76628 0.0
C449 C 0.75115 0.40479 0.76394 0.0
C450 C 0.74255 0.4415 0.77093 0.0
H451 H 0.59724 0.08823 0.06661 0.0
H452 H 0.48017 0.12601 0.0797 0.0
H453 H 0.49195 0.1887 0.06564 0.0
H454 H 0.6442 0.18074 0.07237 0.0
H455 H 0.67709 0.17466 0.05525 0.0
H456 H 0.65925 0.13262 0.06616 0.0
H457 H 0.63294 0.10366 0.03888 0.0
H458 H 0.65065 0.14564 0.02788 0.0
H459 H 0.59986 0.13197 0.02645 0.0
H460 H 0.51653 0.24719 0.05029 0.0
H461 H 0.55233 0.29791 0.03497 0.0
H462 H 0.65357 0.22209 0.03195 0.0
C463 C 0.574 0.10962 0.06651 0.0
C464 C 0.53772 0.10217 0.07425 0.0
C465 C 0.50818 0.13104 0.07387 0.0
C466 C 0.51459 0.16671 0.0659 0.0
C467 C 0.55068 0.17306 0.0584 0.0
C468 C 0.57991 0.14536 0.05866 0.0
C469 C 0.61619 0.15958 0.04979 0.0
C470 C 0.65125 0.16205 0.0616 0.0
C471 C 0.62544 0.13367 0.03486 0.0
C472 C 0.60281 0.19968 0.04451 0.0
C473 C 0.56491 0.20683 0.04959 0.0
C474 C 0.54619 0.24192 0.04625 0.0
C475 C 0.56679 0.27052 0.03753 0.0
C476 C 0.60572 0.26391 0.03226 0.0
C477 C 0.62383 0.22794 0.03579 0.0
H478 H 0.86015 0.99453 0.31448 0.0
H479 H 0.93394 0.09758 0.31512 0.0
H480 H 0.88248 0.13453 0.30073 0.0
H481 H 0.81866 0.0107 0.27415 0.0
H482 H 0.77099 0.99283 0.27987 0.0
H483 H 0.81394 0.97435 0.29001 0.0
H484 H 0.78474 0.99374 0.31826 0.0
H485 H 0.74176 0.01236 0.3082 0.0
H486 H 0.76967 0.04338 0.32172 0.0
H487 H 0.82217 0.16083 0.28686 0.0
H488 H 0.75795 0.17381 0.27397 0.0
H489 H 0.72425 0.05346 0.28218 0.0
C490 C 0.86559 0.02481 0.31155 0.0
C491 C 0.90111 0.04312 0.31593 0.0
C492 C 0.90701 0.08285 0.31186 0.0
C493 C 0.87793 0.10414 0.3037 0.0
C494 C 0.84318 0.08527 0.29964 0.0
C495 C 0.83695 0.04647 0.30336 0.0
C496 C 0.79694 0.03313 0.2977 0.0
C497 C 0.80036 0.00085 0.28466 0.0
C498 C 0.7718 0.01988 0.31235 0.0
C499 C 0.78158 0.07055 0.29031 0.0
C500 C 0.80865 0.10031 0.29155 0.0
C501 C 0.80078 0.13771 0.28576 0.0
C502 C 0.76427 0.14483 0.27849 0.0
C503 C 0.73623 0.11465 0.27705 0.0
C504 C 0.74516 0.0771 0.28305 0.0
H505 H 0.94172 0.40613 0.5669 0.0
H506 H 0.05147 0.4192 0.54061 0.0
H507 H 0.03628 0.36054 0.52432 0.0
H508 H 0.94252 0.30181 0.56906 0.0
H509 H 0.89061 0.29651 0.5659 0.0
H510 H 0.90965 0.33997 0.57541 0.0
H511 H 0.87526 0.38208 0.55333 0.0
H512 H 0.85623 0.33872 0.54371 0.0
H513 H 0.88473 0.37286 0.53188 0.0
H514 H 0.0111 0.29957 0.5117 0.0
H515 H 0.97684 0.23979 0.50307 0.0
H516 H 0.8817 0.26634 0.53652 0.0
C517 C 0.96255 0.39665 0.55771 0.0
C518 C 0.99789 0.41731 0.55506 0.0
C519 C 0.02424 0.40399 0.54287 0.0
C520 C 0.01586 0.37068 0.53354 0.0
C521 C 0.98084 0.35109 0.53643 0.0
C522 C 0.95449 0.36354 0.54816 0.0
C523 C 0.91906 0.33682 0.5488 0.0
C524 C 0.91525 0.31764 0.5658 0.0
C525 C 0.8816 0.35895 0.54415 0.0
C526 C 0.92988 0.3072 0.53571 0.0
C527 C 0.96571 0.31611 0.52878 0.0
C528 C 0.98289 0.29245 0.51692 0.0
C529 C 0.9632 0.25854 0.51212 0.0
C530 C 0.92651 0.24861 0.51903 0.0
C531 C 0.90942 0.27356 0.53085 0.0
H532 H 0.61842 0.11077 0.43761 0.0
H533 H 0.60135 0.99178 0.45427 0.0
H534 H 0.65711 0.99904 0.47326 0.0
H535 H 0.72274 0.10878 0.43805 0.0
H536 H 0.72815 0.15826 0.44514 0.0
H537 H 0.68576 0.14447 0.43336 0.0
H538 H 0.6408 0.16985 0.45663 0.0
H539 H 0.68309 0.1836 0.46853 0.0
H540 H 0.6469 0.15144 0.47722 0.0
H541 H 0.71578 0.01789 0.4896 0.0
H542 H 0.77497 0.0466 0.50193 0.0
H543 H 0.75467 0.15388 0.47507 0.0
C544 C 0.62623 0.08629 0.44532 0.0
C545 C 0.60536 0.05067 0.44444 0.0
C546 C 0.61678 0.01933 0.45469 0.0
C547 C 0.64838 0.02321 0.46556 0.0
C548 C 0.6683 0.05862 0.46609 0.0
C549 C 0.65779 0.08964 0.45625 0.0
C550 C 0.68502 0.12408 0.45889 0.0
C551 C 0.7067 0.13449 0.44291 0.0
C552 C 0.66261 0.15933 0.46573 0.0
C553 C 0.71273 0.1074 0.47163 0.0
C554 C 0.70232 0.06964 0.47564 0.0
C555 C 0.72407 0.0475 0.48665 0.0
C556 C 0.75767 0.0641 0.49358 0.0
C557 C 0.76932 0.10255 0.48954 0.0
C558 C 0.74618 0.12464 0.47857 0.0
H559 H 0.94028 0.11655 0.69154 0.0
H560 H 0.06121 0.15278 0.68562 0.0
H561 H 0.04537 0.21642 0.69801 0.0
H562 H 0.89718 0.20847 0.68175 0.0
H563 H 0.85847 0.20428 0.69668 0.0
H564 H 0.87938 0.16109 0.68771 0.0
H565 H 0.89529 0.13472 0.71679 0.0
H566 H 0.87442 0.17785 0.72585 0.0
H567 H 0.92393 0.16406 0.7307 0.0
H568 H 0.01647 0.2764 0.71026 0.0
H569 H 0.97636 0.32924 0.72187 0.0
H570 H 0.87403 0.25433 0.72024 0.0
C571 C 0.9635 0.13778 0.69291 0.0
C572 C 0.00204 0.12964 0.68761 0.0
C573 C 0.0315 0.1583 0.68958 0.0
C574 C 0.02281 0.19454 0.69662 0.0
C575 C 0.98455 0.20164 0.70165 0.0
C576 C 0.95535 0.17411 0.69993 0.0
C577 C 0.91651 0.18943 0.70617 0.0
C578 C 0.8861 0.19091 0.69224 0.0
C579 C 0.90167 0.16506 0.72074 0.0
C580 C 0.92842 0.22998 0.71159 0.0
C581 C 0.96782 0.23632 0.70886 0.0
C582 C 0.98563 0.27174 0.71252 0.0
C583 C 0.96256 0.30158 0.71909 0.0
C584 C 0.9221 0.29585 0.72199 0.0
C585 C 0.90492 0.25945 0.71825 0.0
H586 H 0.894 0.46707 0.93881 0.0
H587 H 0.96445 0.36203 0.94012 0.0
H588 H 0.91496 0.33041 0.95778 0.0
H589 H 0.86074 0.46236 0.98084 0.0
H590 H 0.81263 0.48048 0.97605 0.0
H591 H 0.85384 0.49474 0.96364 0.0
H592 H 0.81831 0.46957 0.93755 0.0
H593 H 0.77701 0.45525 0.94986 0.0
H594 H 0.80095 0.41998 0.93691 0.0
H595 H 0.8562 0.30966 0.97487 0.0
H596 H 0.79388 0.30245 0.99018 0.0
H597 H 0.76363 0.4216 0.97786 0.0
C598 C 0.89912 0.43744 0.94282 0.0
C599 C 0.93312 0.41704 0.93805 0.0
C600 C 0.93866 0.3783 0.94362 0.0
C601 C 0.9107 0.36006 0.95366 0.0
C602 C 0.87745 0.381 0.95809 0.0
C603 C 0.87167 0.41889 0.95288 0.0
C604 C 0.83348 0.43505 0.95929 0.0
C605 C 0.84062 0.47023 0.97063 0.0
C606 C 0.80581 0.44556 0.94505 0.0
C607 C 0.81854 0.4003 0.96884 0.0
C608 C 0.84419 0.36932 0.96802 0.0
C609 C 0.836 0.33382 0.97566 0.0
C610 C 0.8006 0.32996 0.98432 0.0
C611 C 0.77406 0.36148 0.98528 0.0
C612 C 0.78343 0.39702 0.97746 0.0
H613 H 0.59854 0.41086 0.20071 0.0
H614 H 0.48327 0.38378 0.1814 0.0
H615 H 0.48436 0.32081 0.19602 0.0
H616 H 0.63716 0.31477 0.19689 0.0
H617 H 0.66564 0.31732 0.21551 0.0
H618 H 0.65505 0.36109 0.20418 0.0
H619 H 0.62445 0.3918 0.23028 0.0
H620 H 0.63487 0.34806 0.24169 0.0
H621 H 0.5856 0.36653 0.24081 0.0
H622 H 0.49826 0.26059 0.21224 0.0
H623 H 0.52512 0.2056 0.22808 0.0
H624 H 0.63204 0.27095 0.23652 0.0
C625 C 0.57339 0.39182 0.19965 0.0
C626 C 0.54073 0.4023 0.18996 0.0
C627 C 0.50861 0.37636 0.18874 0.0
C628 C 0.5089 0.34059 0.19704 0.0
C629 C 0.54157 0.33114 0.20646 0.0
C630 C 0.57332 0.35587 0.20776 0.0
C631 C 0.60539 0.33801 0.21817 0.0
C632 C 0.64303 0.33246 0.20808 0.0
C633 C 0.61301 0.36257 0.23366 0.0
C634 C 0.58679 0.29924 0.22244 0.0
C635 C 0.54986 0.29606 0.21565 0.0
C636 C 0.52709 0.26277 0.21766 0.0
C637 C 0.54262 0.23171 0.22669 0.0
C638 C 0.58064 0.23402 0.23355 0.0
C639 C 0.60282 0.26842 0.23149 0.0
H640 H 0.06307 0.89139 0.37987 0.0
H641 H 0.95547 0.95542 0.38783 0.0
H642 H 0.95713 0.93745 0.4172 0.0
H643 H 0.04517 0.81295 0.41183 0.0
H644 H 0.09625 0.81259 0.41729 0.0
H645 H 0.08174 0.82311 0.39646 0.0
H646 H 0.12055 0.88792 0.3977 0.0
H647 H 0.13466 0.87802 0.41854 0.0
H648 H 0.10962 0.92271 0.41367 0.0
H649 H 0.97782 0.92405 0.44636 0.0
H650 H 0.01341 0.91242 0.47239 0.0
H651 H 0.10678 0.85637 0.44521 0.0
C652 C 0.03901 0.90036 0.38765 0.0
C653 C 0.00908 0.92466 0.38154 0.0
C654 C 0.97847 0.93638 0.39218 0.0
C655 C 0.97923 0.92638 0.40891 0.0
C656 C 0.01039 0.90411 0.41473 0.0
C657 C 0.03933 0.89058 0.40432 0.0
C658 C 0.07187 0.87091 0.41379 0.0
C659 C 0.07385 0.82729 0.40959 0.0
C660 C 0.11148 0.89112 0.41074 0.0
C661 C 0.05781 0.87723 0.4312 0.0
C662 C 0.02205 0.89597 0.43153 0.0
C663 C 0.00529 0.90844 0.44626 0.0
C664 C 0.02577 0.90189 0.46097 0.0
C665 C 0.06262 0.88316 0.46081 0.0
C666 C 0.0783 0.87006 0.44575 0.0
H667 H 0.01167 0.49861 0.65652 0.0
H668 H 0.11126 0.51321 0.62418 0.0
H669 H 0.15228 0.53115 0.64814 0.0
H670 H 0.03401 0.584 0.68024 0.0
H671 H 0.01384 0.56333 0.69876 0.0
H672 H 0.99558 0.54857 0.67906 0.0
H673 H 0.01088 0.4761 0.68737 0.0
H674 H 0.03087 0.49245 0.70668 0.0
H675 H 0.06024 0.46334 0.69299 0.0
H676 H 0.18003 0.55508 0.67539 0.0
H677 H 0.19144 0.58343 0.70296 0.0
H678 H 0.07268 0.55404 0.71692 0.0
C679 C 0.0422 0.50493 0.65447 0.0
C680 C 0.05824 0.50427 0.63848 0.0
C681 C 0.09837 0.51323 0.63633 0.0
C682 C 0.12187 0.52345 0.64988 0.0
C683 C 0.10468 0.52489 0.66543 0.0
C684 C 0.06562 0.51612 0.66772 0.0
C685 C 0.05288 0.52402 0.68522 0.0
C686 C 0.02228 0.55687 0.68585 0.0
C687 C 0.03784 0.48675 0.69356 0.0
C688 C 0.09099 0.53768 0.6926 0.0
C689 C 0.12057 0.53835 0.68101 0.0
C690 C 0.15724 0.55402 0.6846 0.0
C691 C 0.16342 0.57011 0.70029 0.0
C692 C 0.13303 0.57055 0.71212 0.0
C693 C 0.09674 0.55334 0.70827 0.0
H694 H 0.49735 0.53754 0.89315 0.0
H695 H 0.47938 0.64589 0.86692 0.0
H696 H 0.46483 0.67911 0.89329 0.0
H697 H 0.41714 0.54863 0.91842 0.0
H698 H 0.43864 0.52589 0.93622 0.0
H699 H 0.45507 0.51265 0.91599 0.0
H700 H 0.52612 0.53066 0.9236 0.0
H701 H 0.51017 0.54262 0.94413 0.0
H702 H 0.53698 0.57789 0.93216 0.0
H703 H 0.44523 0.69834 0.92195 0.0
H704 H 0.41902 0.70182 0.95016 0.0
H705 H 0.44631 0.57964 0.95737 0.0
C706 C 0.49184 0.56861 0.89303 0.0
C707 C 0.49047 0.58952 0.87808 0.0
C708 C 0.48127 0.62965 0.8783 0.0
C709 C 0.47299 0.64866 0.89321 0.0
C710 C 0.4735 0.62691 0.9077 0.0
C711 C 0.48251 0.58769 0.90769 0.0
C712 C 0.47606 0.5697 0.92447 0.0
C713 C 0.44487 0.53733 0.92372 0.0
C714 C 0.51467 0.55434 0.93155 0.0
C715 C 0.46154 0.60475 0.93394 0.0
C716 C 0.46078 0.63759 0.9241 0.0
C717 C 0.44617 0.67294 0.92981 0.0
C718 C 0.43129 0.6746 0.94585 0.0
C719 C 0.43081 0.64104 0.95599 0.0
C720 C 0.44684 0.6059 0.95001 0.0
H721 H 0.44752 0.98532 0.15188 0.0
H722 H 0.34259 0.95681 0.12438 0.0
H723 H 0.31179 0.93216 0.1499 0.0
H724 H 0.44567 0.89847 0.1759 0.0
H725 H 0.46784 0.92321 0.1931 0.0
H726 H 0.47641 0.94003 0.17243 0.0
H727 H 0.45044 0.00965 0.18254 0.0
H728 H 0.44127 0.98912 0.20257 0.0
H729 H 0.40224 0.01224 0.19134 0.0
H730 H 0.29555 0.90437 0.17796 0.0
H731 H 0.29515 0.87599 0.20589 0.0
H732 H 0.41151 0.9221 0.21453 0.0
C733 C 0.41762 0.97497 0.15126 0.0
C734 C 0.39721 0.97351 0.13618 0.0
C735 C 0.35861 0.95853 0.13584 0.0
C736 C 0.34091 0.94451 0.15027 0.0
C737 C 0.36233 0.94548 0.16488 0.0
C738 C 0.39987 0.96031 0.16542 0.0
C739 C 0.41834 0.95441 0.18212 0.0
C740 C 0.4542 0.92749 0.18084 0.0
C741 C 0.4287 0.99367 0.19012 0.0
C742 C 0.38525 0.93439 0.19105 0.0
C743 C 0.35317 0.92933 0.1809 0.0
C744 C 0.32027 0.90873 0.18607 0.0
C745 C 0.32037 0.89262 0.20193 0.0
C746 C 0.35316 0.8972 0.21241 0.0
C747 C 0.38572 0.91879 0.20692 0.0
H748 H 0.99534 0.5367 0.85776 0.0
H749 H 0.99307 0.65054 0.88083 0.0
H750 H 0.01128 0.68085 0.85428 0.0
H751 H 0.08183 0.55565 0.83617 0.0
H752 H 0.06813 0.52485 0.81914 0.0
H753 H 0.04867 0.51576 0.83931 0.0
H754 H 0.97849 0.5195 0.82619 0.0
H755 H 0.99943 0.53098 0.80646 0.0
H756 H 0.96419 0.56339 0.81563 0.0
H757 H 0.03903 0.69731 0.82659 0.0
H758 H 0.07455 0.69892 0.80018 0.0
H759 H 0.0612 0.57371 0.79561 0.0
C760 C 0.99694 0.56818 0.85706 0.0
C761 C 0.99176 0.5915 0.87122 0.0
C762 C 0.99617 0.63235 0.87003 0.0
C763 C 0.00651 0.64973 0.85501 0.0
C764 C 0.01278 0.62572 0.8414 0.0
C765 C 0.00822 0.58578 0.84232 0.0
C766 C 0.02249 0.56589 0.82682 0.0
C767 C 0.05732 0.53894 0.83057 0.0
C768 C 0.98915 0.54364 0.81827 0.0
C769 C 0.03553 0.60083 0.81692 0.0
C770 C 0.02966 0.6351 0.82553 0.0
C771 C 0.04308 0.67076 0.81962 0.0
C772 C 0.0634 0.67135 0.80465 0.0
C773 C 0.07032 0.63647 0.7958 0.0
C774 C 0.05562 0.60092 0.80193 0.0
H775 H 0.47056 0.51236 0.10582 0.0
H776 H 0.36138 0.52962 0.13202 0.0
H777 H 0.32893 0.54687 0.10587 0.0
H778 H 0.46151 0.59252 0.0802 0.0
H779 H 0.48322 0.56994 0.0624 0.0
H780 H 0.49648 0.55369 0.08266 0.0
H781 H 0.47653 0.48315 0.07502 0.0
H782 H 0.46328 0.49915 0.05467 0.0
H783 H 0.4281 0.4737 0.06719 0.0
H784 H 0.31011 0.56829 0.07748 0.0
H785 H 0.30649 0.59373 0.04917 0.0
H786 H 0.42829 0.56348 0.04151 0.0
C787 C 0.43958 0.51883 0.10604 0.0
C788 C 0.4184 0.51933 0.12098 0.0
C789 C 0.37814 0.52884 0.12073 0.0
C790 C 0.35944 0.53856 0.10593 0.0
C791 C 0.38141 0.53859 0.09148 0.0
C792 C 0.42059 0.52888 0.09141 0.0
C793 C 0.43843 0.53436 0.07451 0.0
C794 C 0.47187 0.56442 0.07498 0.0
C795 C 0.4524 0.49525 0.06743 0.0
C796 C 0.40341 0.54969 0.06516 0.0
C797 C 0.37068 0.55139 0.07512 0.0
C798 C 0.33539 0.56661 0.06951 0.0
C799 C 0.33365 0.58103 0.05341 0.0
C800 C 0.36705 0.58037 0.04311 0.0
C801 C 0.40214 0.56385 0.04901 0.0
H802 H 0.43038 0.88883 0.37943 0.0
H803 H 0.5395 0.94768 0.36814 0.0
H804 H 0.53304 0.92792 0.33909 0.0
H805 H 0.44303 0.80683 0.34974 0.0
H806 H 0.39161 0.80619 0.34487 0.0
H807 H 0.40764 0.82065 0.36509 0.0
H808 H 0.37005 0.88572 0.36198 0.0
H809 H 0.35434 0.87177 0.34172 0.0
H810 H 0.38046 0.91687 0.34469 0.0
H811 H 0.50956 0.91013 0.3106 0.0
H812 H 0.4738 0.89039 0.28544 0.0
H813 H 0.38163 0.84107 0.31556 0.0
C814 C 0.45352 0.89662 0.37096 0.0
C815 C 0.48553 0.91965 0.37611 0.0
C816 C 0.51491 0.92967 0.36456 0.0
C817 C 0.51142 0.91871 0.34799 0.0
C818 C 0.47873 0.8972 0.34321 0.0
C819 C 0.45066 0.88564 0.35443 0.0
C820 C 0.41722 0.86461 0.34602 0.0
C821 C 0.41474 0.82204 0.35177 0.0
C822 C 0.37823 0.88604 0.34877 0.0
C823 C 0.43023 0.8672 0.32827 0.0
C824 C 0.4658 0.88606 0.32687 0.0
C825 C 0.48211 0.89458 0.31157 0.0
C826 C 0.46156 0.88344 0.29736 0.0
C827 C 0.42525 0.86382 0.29858 0.0
C828 C 0.40972 0.85535 0.31426 0.0
H829 H 0.01207 0.03042 0.60216 0.0
H830 H 0.11247 0.00879 0.63346 0.0
H831 H 0.14904 0.98373 0.60949 0.0
H832 H 0.01877 0.94488 0.58025 0.0
H833 H 0.00333 0.96482 0.5608 0.0
H834 H 0.98768 0.9872 0.57967 0.0
H835 H 0.01593 0.05318 0.57014 0.0
H836 H 0.03181 0.03114 0.55117 0.0
H837 H 0.06653 0.05634 0.56404 0.0
H838 H 0.17173 0.95419 0.58305 0.0
H839 H 0.17936 0.92266 0.55597 0.0
H840 H 0.06343 0.96193 0.54202 0.0
C841 C 0.04222 0.02168 0.60388 0.0
C842 C 0.05968 0.02202 0.61963 0.0
C843 C 0.09871 0.00909 0.62147 0.0
C844 C 0.11969 0.99486 0.60792 0.0
C845 C 0.10116 0.99373 0.59266 0.0
C846 C 0.06336 0.00699 0.59054 0.0
C847 C 0.04876 0.99897 0.57327 0.0
C848 C 0.01251 0.97235 0.57352 0.0
C849 C 0.04028 0.0372 0.56412 0.0
C850 C 0.08393 0.97825 0.56611 0.0
C851 C 0.11399 0.97596 0.57744 0.0
C852 C 0.14863 0.95628 0.574 0.0
C853 C 0.15262 0.93834 0.55861 0.0
C854 C 0.12205 0.93996 0.54688 0.0
C855 C 0.08744 0.96053 0.55068 0.0
H856 H 0.57533 0.4667 0.89682 0.0
H857 H 0.48732 0.37909 0.88627 0.0
H858 H 0.5015 0.34749 0.91314 0.0
H859 H 0.64394 0.40413 0.91628 0.0
H860 H 0.65884 0.44014 0.93116 0.0
H861 H 0.64133 0.45522 0.91129 0.0
H862 H 0.589 0.49822 0.92529 0.0
H863 H 0.60611 0.48324 0.9452 0.0
H864 H 0.55545 0.47654 0.93983 0.0
H865 H 0.52991 0.32352 0.94075 0.0
H866 H 0.56457 0.31354 0.96729 0.0
H867 H 0.62926 0.4205 0.95957 0.0
C868 C 0.55898 0.4408 0.90009 0.0
C869 C 0.53055 0.42496 0.88943 0.0
C870 C 0.50931 0.39152 0.8943 0.0
C871 C 0.51726 0.37342 0.90948 0.0
C872 C 0.54601 0.38965 0.91962 0.0
C873 C 0.56609 0.42295 0.91514 0.0
C874 C 0.59536 0.43516 0.92807 0.0
C875 C 0.63734 0.43354 0.92129 0.0
C876 C 0.58585 0.47571 0.935 0.0
C877 C 0.58849 0.40383 0.9407 0.0
C878 C 0.56051 0.37731 0.93558 0.0
C879 C 0.55134 0.34451 0.94495 0.0
C880 C 0.57111 0.33902 0.95995 0.0
C881 C 0.59883 0.36673 0.96548 0.0
C882 C 0.60743 0.39945 0.95575 0.0
H883 H 0.54098 0.95539 0.161 0.0
H884 H 0.61627 0.01237 0.12548 0.0
H885 H 0.65547 0.04004 0.14816 0.0
H886 H 0.53323 0.03249 0.18641 0.0
H887 H 0.53229 0.00571 0.20548 0.0
H888 H 0.51647 0.98281 0.18686 0.0
H889 H 0.56594 0.92696 0.19112 0.0
H890 H 0.58218 0.94961 0.20993 0.0
H891 H 0.61699 0.93836 0.19399 0.0
H892 H 0.6776 0.07201 0.17429 0.0
H893 H 0.68185 0.10365 0.20153 0.0
H894 H 0.59197 0.02599 0.21998 0.0
C895 C 0.56664 0.97235 0.15795 0.0
C896 C 0.57566 0.98148 0.14144 0.0
C897 C 0.60896 0.00468 0.13802 0.0
C898 C 0.63143 0.02052 0.15084 0.0
C899 C 0.62044 0.01262 0.16701 0.0
C900 C 0.58906 0.98865 0.17059 0.0
C901 C 0.5799 0.98895 0.18881 0.0
C902 C 0.53802 0.00341 0.19207 0.0
C903 C 0.58668 0.94856 0.19641 0.0
C904 C 0.60979 0.01809 0.19483 0.0
C905 C 0.63334 0.03104 0.18214 0.0
C906 C 0.66001 0.06134 0.18439 0.0
C907 C 0.66209 0.07927 0.19989 0.0
C908 C 0.63739 0.06706 0.21287 0.0
C909 C 0.61172 0.03544 0.21037 0.0
H910 H 0.95347 0.12451 0.38215 0.0
H911 H 0.05741 0.05501 0.39065 0.0
H912 H 0.05101 0.06629 0.42051 0.0
H913 H 0.96863 0.19494 0.41707 0.0
H914 H 0.91687 0.19649 0.42119 0.0
H915 H 0.93414 0.18906 0.40049 0.0
H916 H 0.89278 0.12591 0.39861 0.0
H917 H 0.87601 0.13261 0.41935 0.0
H918 H 0.90004 0.08793 0.4136 0.0
H919 H 0.02668 0.07571 0.44951 0.0
H920 H 0.9896 0.08748 0.47516 0.0
H921 H 0.90196 0.15085 0.44745 0.0
C922 C 0.97572 0.1128 0.39022 0.0
C923 C 0.00599 0.089 0.38405 0.0
C924 C 0.03418 0.07371 0.39506 0.0
C925 C 0.0307 0.07984 0.41207 0.0
C926 C 0.99924 0.10177 0.4178 0.0
C927 C 0.97268 0.11866 0.40717 0.0
C928 C 0.93954 0.13796 0.41641 0.0
C929 C 0.93983 0.18225 0.41362 0.0
C930 C 0.89977 0.12001 0.41171 0.0
C931 C 0.95072 0.12796 0.43387 0.0
C932 C 0.9854 0.10738 0.43448 0.0
C933 C 0.99994 0.09252 0.44921 0.0
C934 C 0.97858 0.09911 0.46369 0.0
C935 C 0.94306 0.12023 0.46327 0.0
C936 C 0.92926 0.13499 0.44817 0.0
H937 H 0.922 0.53949 0.63438 0.0
H938 H 0.846 0.4659 0.60504 0.0
H939 H 0.81045 0.44644 0.6301 0.0
H940 H 0.93675 0.47449 0.6637 0.0
H941 H 0.93865 0.50743 0.68095 0.0
H942 H 0.95003 0.52478 0.66062 0.0
H943 H 0.89802 0.57851 0.66298 0.0
H944 H 0.88623 0.56199 0.68343 0.0
H945 H 0.84839 0.56548 0.66806 0.0
H946 H 0.79301 0.42421 0.65843 0.0
H947 H 0.7946 0.40212 0.68726 0.0
H948 H 0.88302 0.48891 0.69832 0.0
C949 C 0.89673 0.5207 0.63311 0.0
C950 C 0.88671 0.5044 0.61771 0.0
C951 C 0.85412 0.479 0.61667 0.0
C952 C 0.83363 0.46785 0.63086 0.0
C953 C 0.84579 0.48266 0.646 0.0
C954 C 0.87624 0.50905 0.64717 0.0
C955 C 0.88785 0.51573 0.66492 0.0
C956 C 0.93089 0.50489 0.66773 0.0
C957 C 0.87961 0.55794 0.67016 0.0
C958 C 0.86078 0.48754 0.67353 0.0
C959 C 0.83609 0.46934 0.66245 0.0
C960 C 0.81151 0.43901 0.66725 0.0
C961 C 0.81278 0.42652 0.68366 0.0
C962 C 0.83881 0.44398 0.69505 0.0
C963 C 0.86231 0.47553 0.68997 0.0
H964 H 0.53207 0.0963 0.37627 0.0
H965 H 0.42195 0.04389 0.36143 0.0
H966 H 0.43485 0.06272 0.33273 0.0
H967 H 0.53053 0.17824 0.34562 0.0
H968 H 0.58263 0.17513 0.34253 0.0
H969 H 0.56186 0.16303 0.36224 0.0
H970 H 0.59536 0.09547 0.36095 0.0
H971 H 0.61573 0.10703 0.34117 0.0
H972 H 0.58608 0.06398 0.34363 0.0
H973 H 0.46443 0.07708 0.3053 0.0
H974 H 0.50612 0.09187 0.28127 0.0
H975 H 0.59588 0.13723 0.31376 0.0
C976 C 0.51002 0.08996 0.36709 0.0
C977 C 0.47593 0.06869 0.37115 0.0
C978 C 0.4482 0.06033 0.35868 0.0
C979 C 0.45527 0.07087 0.34231 0.0
C980 C 0.48995 0.09027 0.33861 0.0
C981 C 0.51657 0.10043 0.35067 0.0
C982 C 0.5529 0.11865 0.34326 0.0
C983 C 0.55722 0.1613 0.34874 0.0
C984 C 0.58967 0.09485 0.3475 0.0
C985 C 0.54315 0.11585 0.32513 0.0
C986 C 0.50663 0.09951 0.32271 0.0
C987 C 0.49266 0.09077 0.30703 0.0
C988 C 0.5166 0.09903 0.29347 0.0
C989 C 0.55392 0.11608 0.29568 0.0
C990 C 0.5671 0.12494 0.31171 0.0
H991 H 0.8832 0.0735 0.63105 0.0
H992 H 0.93504 0.95946 0.62369 0.0
H993 H 0.92514 0.96592 0.59379 0.0
H994 H 0.81161 0.06852 0.59597 0.0
H995 H 0.81882 0.1194 0.59141 0.0
H996 H 0.82294 0.10229 0.61228 0.0
H997 H 0.8923 0.13248 0.61404 0.0
H998 H 0.8889 0.14888 0.59312 0.0
H999 H 0.92893 0.1181 0.59931 0.0
H1000 H 0.92091 0.99002 0.56457 0.0
H1001 H 0.91552 0.02682 0.53854 0.0
H1002 H 0.86617 0.12471 0.56512 0.0
C1003 C 0.89115 0.04921 0.62324 0.0
C1004 C 0.90985 0.01596 0.62976 0.0
C1005 C 0.92042 0.98515 0.61903 0.0
C1006 C 0.91512 0.98864 0.60199 0.0
C1007 C 0.89886 0.02291 0.5959 0.0
C1008 C 0.88624 0.05231 0.60624 0.0
C1009 C 0.87284 0.08758 0.59662 0.0
C1010 C 0.82894 0.09486 0.59922 0.0
C1011 C 0.89721 0.12387 0.60104 0.0
C1012 C 0.88118 0.074 0.57929 0.0
C1013 C 0.89599 0.03656 0.57909 0.0
C1014 C 0.90861 0.01904 0.56456 0.0
C1015 C 0.90566 0.04023 0.54986 0.0
C1016 C 0.89015 0.07845 0.54983 0.0
C1017 C 0.87764 0.09533 0.56474 0.0
H1018 H 0.93676 0.3911 0.86333 0.0
H1019 H 0.04418 0.45626 0.85635 0.0
H1020 H 0.0357 0.45142 0.82617 0.0
H1021 H 0.94825 0.32661 0.82646 0.0
H1022 H 0.89634 0.32723 0.82261 0.0
H1023 H 0.91444 0.33096 0.84337 0.0
H1024 H 0.87525 0.3949 0.84716 0.0
H1025 H 0.85775 0.39193 0.82636 0.0
H1026 H 0.88341 0.43487 0.83321 0.0
H1027 H 0.00809 0.45071 0.79706 0.0
H1028 H 0.97014 0.44276 0.77123 0.0
H1029 H 0.8832 0.37543 0.79765 0.0
C1030 C 0.95919 0.40336 0.85548 0.0
C1031 C 0.991 0.42426 0.86219 0.0
C1032 C 0.01959 0.44004 0.85148 0.0
C1033 C 0.01487 0.4377 0.83434 0.0
C1034 C 0.98179 0.41899 0.82815 0.0
C1035 C 0.95507 0.40106 0.83842 0.0
C1036 C 0.92112 0.38421 0.82884 0.0
C1037 C 0.91999 0.3396 0.83041 0.0
C1038 C 0.8821 0.40259 0.83421 0.0
C1039 C 0.93214 0.3966 0.81163 0.0
C1040 C 0.96711 0.41682 0.81141 0.0
C1041 C 0.98124 0.43399 0.79702 0.0
C1042 C 0.9594 0.42964 0.78246 0.0
C1043 C 0.9241 0.40806 0.78245 0.0
C1044 C 0.91052 0.39142 0.79724 0.0
H1045 H 0.6368 0.42553 0.12892 0.0
H1046 H 0.5961 0.54268 0.11878 0.0
H1047 H 0.62356 0.53846 0.09083 0.0
H1048 H 0.72807 0.43024 0.10161 0.0
H1049 H 0.72132 0.38009 0.09565 0.0
H1050 H 0.70732 0.39595 0.11595 0.0
H1051 H 0.63753 0.36897 0.11098 0.0
H1052 H 0.65097 0.35365 0.09067 0.0
H1053 H 0.60995 0.38587 0.0935 0.0
H1054 H 0.63979 0.51564 0.06251 0.0
H1055 H 0.65014 0.47828 0.03686 0.0
H1056 H 0.68337 0.37721 0.06548 0.0
C1057 C 0.63517 0.45092 0.12106 0.0
C1058 C 0.61433 0.4844 0.12604 0.0
C1059 C 0.61225 0.51683 0.11532 0.0
C1060 C 0.62773 0.51468 0.09938 0.0
C1061 C 0.64599 0.48028 0.09449 0.0
C1062 C 0.65071 0.4493 0.10517 0.0
C1063 C 0.66724 0.41403 0.09642 0.0
C1064 C 0.70845 0.40453 0.10278 0.0
C1065 C 0.63977 0.37858 0.09799 0.0
C1066 C 0.66862 0.42911 0.07896 0.0
C1067 C 0.65672 0.46754 0.07811 0.0
C1068 C 0.65048 0.48601 0.06306 0.0
C1069 C 0.65618 0.46455 0.04857 0.0
C1070 C 0.66817 0.42518 0.04925 0.0
C1071 C 0.67535 0.40765 0.06463 0.0
loop_
_geom_bond_atom_site_label_1
_geom_bond_atom_site_label_2
_geom_bond_distance
_geom_bond_site_symmetry_2
_ccdc_geom_bond_type
Mg0 O7 2.141 1_545 S
Mg0 O8 2.048 1_545 S
Mg0 O9 2.048 1_455 S
Mg0 O12 2.141 1_455 S
C1 O2 1.313 . S
C1 O8 1.195 . S
O2 C1 1.313 . S
C3 O4 1.245 . S
C3 O12 1.289 . S
O4 C3 1.245 . S
C5 O6 1.245 . S
C5 O7 1.289 . S
O6 C5 1.245 . S
O7 Mg0 2.141 1_565 S
O7 C5 1.289 . S
O8 Mg0 2.048 1_565 S
O8 C1 1.195 . S
O9 Mg0 2.048 1_655 S
O9 C10 1.195 . S
C10 O9 1.195 . S
C10 O11 1.313 1_545 S
O11 C10 1.313 1_565 S
O12 Mg0 2.141 1_655 S
O12 C3 1.289 . S
Mg13 O20 2.141 1_655 S
Mg13 O21 2.048 1_655 S
Mg13 O22 2.048 . S
Mg13 O25 2.141 . S
C14 O15 1.313 . S
C14 O21 1.195 . S
O15 C14 1.313 . S
C16 O17 1.245 . S
C16 O25 1.289 . S
O17 C16 1.245 . S
C18 O19 1.245 . S
C18 O20 1.289 . S
O19 C18 1.245 . S
O20 Mg13 2.141 1_455 S
O20 C18 1.289 . S
O21 Mg13 2.048 1_455 S
O21 C14 1.195 . S
O22 Mg13 2.048 . S
O22 C23 1.195 . S
C23 O22 1.195 . S
C23 O24 1.313 1_655 S
O24 C23 1.313 1_455 S
O25 Mg13 2.141 . S
O25 C16 1.289 . S
Mg26 O33 2.141 . S
Mg26 O34 2.048 . S
Mg26 O35 2.048 . S
Mg26 O38 2.141 . S
C27 O28 1.313 . S
C27 O34 1.195 . S
O28 C27 1.313 . S
C29 O30 1.245 . S
C29 O38 1.289 . S
O30 C29 1.245 . S
C31 O32 1.245 . S
C31 O33 1.289 . S
O32 C31 1.245 . S
O33 Mg26 2.141 . S
O33 C31 1.289 . S
O34 Mg26 2.048 . S
O34 C27 1.195 . S
O35 Mg26 2.048 . S
O35 C36 1.195 . S
C36 O35 1.195 . S
C36 O37 1.313 . S
O37 C36 1.313 . S
O38 Mg26 2.141 . S
O38 C29 1.289 . S
Mg39 O46 2.141 . S
Mg39 O47 2.048 . S
Mg39 O48 2.048 1_545 S
Mg39 O51 2.141 1_545 S
C40 O41 1.313 . S
C40 O47 1.195 . S
O41 C40 1.313 . S
C42 O43 1.245 . S
C42 O51 1.289 . S
O43 C42 1.245 . S
C44 O45 1.245 . S
C44 O46 1.289 . S
O45 C44 1.245 . S
O46 Mg39 2.141 . S
O46 C44 1.289 . S
O47 Mg39 2.048 . S
O47 C40 1.195 . S
O48 Mg39 2.048 1_565 S
O48 C49 1.195 . S
C49 O48 1.195 . S
C49 O50 1.313 . S
O50 C49 1.313 . S
O51 Mg39 2.141 1_565 S
O51 C42 1.289 . S
Mg52 O59 2.141 . S
Mg52 O60 2.048 . S
Mg52 O61 2.048 1_455 S
Mg52 O64 2.141 1_455 S
C53 O54 1.313 . S
C53 O60 1.195 . S
O54 C53 1.313 . S
C55 O56 1.245 . S
C55 O64 1.289 . S
O56 C55 1.245 . S
C57 O58 1.245 . S
C57 O59 1.289 . S
O58 C57 1.245 . S
O59 Mg52 2.141 . S
O59 C57 1.289 . S
O60 Mg52 2.048 . S
O60 C53 1.195 . S
O61 Mg52 2.048 1_655 S
O61 C62 1.195 . S
C62 O61 1.195 . S
C62 O63 1.313 . S
O63 C62 1.313 . S
O64 Mg52 2.141 1_655 S
O64 C55 1.289 . S
Mg65 O72 2.141 . S
Mg65 O73 2.048 . S
Mg65 O74 2.048 . S
Mg65 O77 2.141 . S
C66 O67 1.313 . S
C66 O73 1.195 . S
O67 C66 1.313 . S
C68 O69 1.245 . S
C68 O77 1.289 . S
O69 C68 1.245 . S
C70 O71 1.245 . S
C70 O72 1.289 . S
O71 C70 1.245 . S
O72 Mg65 2.141 . S
O72 C70 1.289 . S
O73 Mg65 2.048 . S
O73 C66 1.195 . S
O74 Mg65 2.048 . S
O74 C75 1.195 . S
C75 O74 1.195 . S
C75 O76 1.313 . S
O76 C75 1.313 . S
O77 Mg65 2.141 . S
O77 C68 1.289 . S
Mg78 O85 2.141 1_565 S
Mg78 O86 2.048 1_565 S
Mg78 O87 2.048 . S
Mg78 O90 2.141 . S
C79 O80 1.313 . S
C79 O86 1.195 . S
O80 C79 1.313 . S
C81 O82 1.245 . S
C81 O90 1.289 . S
O82 C81 1.245 . S
C83 O84 1.245 . S
C83 O85 1.289 . S
O84 C83 1.245 . S
O85 Mg78 2.141 1_545 S
O85 C83 1.289 . S
O86 Mg78 2.048 1_545 S
O86 C79 1.195 . S
O87 Mg78 2.048 . S
O87 C88 1.195 . S
C88 O87 1.195 . S
C88 O89 1.313 1_565 S
O89 C88 1.313 1_545 S
O90 Mg78 2.141 . S
O90 C81 1.289 . S
Mg91 O98 2.141 1_655 S
Mg91 O99 2.048 1_655 S
Mg91 O100 2.048 1_565 S
Mg91 O103 2.141 1_565 S
C92 O93 1.313 . S
C92 O99 1.195 . S
O93 C92 1.313 . S
C94 O95 1.245 . S
C94 O103 1.289 . S
O95 C94 1.245 . S
C96 O97 1.245 . S
C96 O98 1.289 . S
O97 C96 1.245 . S
O98 Mg91 2.141 1_455 S
O98 C96 1.289 . S
O99 Mg91 2.048 1_455 S
O99 C92 1.195 . S
O100 Mg91 2.048 1_545 S
O100 C101 1.195 . S
C101 O100 1.195 . S
C101 O102 1.313 1_655 S
O102 C101 1.313 1_455 S
O103 Mg91 2.141 1_545 S
O103 C94 1.289 . S
In104 O105 2.294 . S
In104 O106 2.326 . S
In104 O110 2.266 1_554 S
In104 O111 2.326 1_554 S
In104 O112 2.266 1_554 S
In104 O113 2.326 1_554 S
In104 O115 2.294 . S
In104 O116 2.326 . S
O105 In104 2.294 . S
O105 C114 1.240 . S
O106 In104 2.326 . S
O106 C114 1.252 . S
C107 O110 1.252 . S
C107 O111 1.260 . S
C108 O115 1.240 . S
C108 O116 1.252 . S
C109 O112 1.252 . S
C109 O113 1.260 . S
O110 In104 2.266 1_556 S
O110 C107 1.252 . S
O111 In104 2.326 1_556 S
O111 C107 1.260 . S
O112 In104 2.266 1_556 S
O112 C109 1.252 . S
O113 In104 2.326 1_556 S
O113 C109 1.260 . S
C114 O105 1.240 . S
C114 O106 1.252 . S
O115 In104 2.294 . S
O115 C108 1.240 . S
O116 In104 2.326 . S
O116 C108 1.252 . S
In117 O118 2.294 . S
In117 O119 2.326 . S
In117 O123 2.266 . S
In117 O124 2.326 . S
In117 O125 2.266 . S
In117 O126 2.326 . S
In117 O128 2.294 . S
In117 O129 2.326 . S
O118 In117 2.294 . S
O118 C127 1.240 . S
O119 In117 2.326 . S
O119 C127 1.252 . S
C120 O123 1.252 . S
C120 O124 1.260 . S
C121 O128 1.240 . S
C121 O129 1.252 . S
C122 O125 1.252 . S
C122 O126 1.260 . S
O123 In117 2.266 . S
O123 C120 1.252 . S
O124 In117 2.326 . S
O124 C120 1.260 . S
O125 In117 2.266 . S
O125 C122 1.252 . S
O126 In117 2.326 . S
O126 C122 1.260 . S
C127 O118 1.240 . S
C127 O119 1.252 . S
O128 In117 2.294 . S
O128 C121 1.240 . S
O129 In117 2.326 . S
O129 C121 1.252 . S
In130 O131 2.294 . S
In130 O132 2.326 . S
In130 O136 2.266 . S
In130 O137 2.326 . S
In130 O138 2.266 . S
In130 O139 2.326 . S
In130 O141 2.294 . S
In130 O142 2.326 . S
O131 In130 2.294 . S
O131 C140 1.240 . S
O132 In130 2.326 . S
O132 C140 1.252 . S
C133 O136 1.252 . S
C133 O137 1.260 . S
C134 O141 1.240 . S
C134 O142 1.252 . S
C135 O138 1.252 . S
C135 O139 1.260 . S
O136 In130 2.266 . S
O136 C133 1.252 . S
O137 In130 2.326 . S
O137 C133 1.260 . S
O138 In130 2.266 . S
O138 C135 1.252 . S
O139 In130 2.326 . S
O139 C135 1.260 . S
C140 O131 1.240 . S
C140 O132 1.252 . S
O141 In130 2.294 . S
O141 C134 1.240 . S
O142 In130 2.326 . S
O142 C134 1.252 . S
In143 O144 2.294 . S
In143 O145 2.326 . S
In143 O149 2.266 . S
In143 O150 2.326 . S
In143 O151 2.266 . S
In143 O152 2.326 . S
In143 O154 2.294 . S
In143 O155 2.326 . S
O144 In143 2.294 . S
O144 C153 1.240 . S
O145 In143 2.326 . S
O145 C153 1.252 . S
C146 O149 1.252 . S
C146 O150 1.260 . S
C147 O154 1.240 . S
C147 O155 1.252 . S
C148 O151 1.252 . S
C148 O152 1.260 . S
O149 In143 2.266 . S
O149 C146 1.252 . S
O150 In143 2.326 . S
O150 C146 1.260 . S
O151 In143 2.266 . S
O151 C148 1.252 . S
O152 In143 2.326 . S
O152 C148 1.260 . S
C153 O144 1.240 . S
C153 O145 1.252 . S
O154 In143 2.294 . S
O154 C147 1.240 . S
O155 In143 2.326 . S
O155 C147 1.252 . S
In156 O157 2.294 . S
In156 O158 2.326 . S
In156 O162 2.266 . S
In156 O163 2.326 . S
In156 O164 2.266 . S
In156 O165 2.326 . S
In156 O167 2.294 . S
In156 O168 2.326 . S
O157 In156 2.294 . S
O157 C166 1.240 . S
O158 In156 2.326 . S
O158 C166 1.252 . S
C159 O162 1.252 . S
C159 O163 1.260 . S
C160 O167 1.240 . S
C160 O168 1.252 . S
C161 O164 1.252 . S
C161 O165 1.260 . S
O162 In156 2.266 . S
O162 C159 1.252 . S
O163 In156 2.326 . S
O163 C159 1.260 . S
O164 In156 2.266 . S
O164 C161 1.252 . S
O165 In156 2.326 . S
O165 C161 1.260 . S
C166 O157 1.240 . S
C166 O158 1.252 . S
O167 In156 2.294 . S
O167 C160 1.240 . S
O168 In156 2.326 . S
O168 C160 1.252 . S
In169 O170 2.294 . S
In169 O171 2.326 . S
In169 O175 2.266 . S
In169 O176 2.326 . S
In169 O177 2.266 . S
In169 O178 2.326 . S
In169 O180 2.294 . S
In169 O181 2.326 . S
O170 In169 2.294 . S
O170 C179 1.240 . S
O171 In169 2.326 . S
O171 C179 1.252 . S
C172 O175 1.252 . S
C172 O176 1.260 . S
C173 O180 1.240 . S
C173 O181 1.252 . S
C174 O177 1.252 . S
C174 O178 1.260 . S
O175 In169 2.266 . S
O175 C172 1.252 . S
O176 In169 2.326 . S
O176 C172 1.260 . S
O177 In169 2.266 . S
O177 C174 1.252 . S
O178 In169 2.326 . S
O178 C174 1.260 . S
C179 O170 1.240 . S
C179 O171 1.252 . S
O180 In169 2.294 . S
O180 C173 1.240 . S
O181 In169 2.326 . S
O181 C173 1.252 . S
In182 O183 2.294 . S
In182 O184 2.326 . S
In182 O188 2.266 1_554 S
In182 O189 2.326 1_554 S
In182 O190 2.266 1_554 S
In182 O191 2.326 1_554 S
In182 O193 2.294 . S
In182 O194 2.326 . S
O183 In182 2.294 . S
O183 C192 1.240 . S
O184 In182 2.326 . S
O184 C192 1.252 . S
C185 O188 1.252 . S
C185 O189 1.260 . S
C186 O193 1.240 . S
C186 O194 1.252 . S
C187 O190 1.252 . S
C187 O191 1.260 . S
O188 In182 2.266 1_556 S
O188 C185 1.252 . S
O189 In182 2.326 1_556 S
O189 C185 1.260 . S
O190 In182 2.266 1_556 S
O190 C187 1.252 . S
O191 In182 2.326 1_556 S
O191 C187 1.260 . S
C192 O183 1.240 . S
C192 O184 1.252 . S
O193 In182 2.294 . S
O193 C186 1.240 . S
O194 In182 2.326 . S
O194 C186 1.252 . S
In195 O196 2.294 . S
In195 O197 2.326 . S
In195 O201 2.266 . S
In195 O202 2.326 . S
In195 O203 2.266 . S
In195 O204 2.326 . S
In195 O206 2.294 . S
In195 O207 2.326 . S
O196 In195 2.294 . S
O196 C205 1.240 . S
O197 In195 2.326 . S
O197 C205 1.252 . S
C198 O201 1.252 . S
C198 O202 1.260 . S
C199 O206 1.240 . S
C199 O207 1.252 . S
C200 O203 1.252 . S
C200 O204 1.260 . S
O201 In195 2.266 . S
O201 C198 1.252 . S
O202 In195 2.326 . S
O202 C198 1.260 . S
O203 In195 2.266 . S
O203 C200 1.252 . S
O204 In195 2.326 . S
O204 C200 1.260 . S
C205 O196 1.240 . S
C205 O197 1.252 . S
O206 In195 2.294 . S
O206 C199 1.240 . S
O207 In195 2.326 . S
O207 C199 1.252 . S
H208 C220 0.930 . S
H209 C222 0.930 . S
H210 C223 0.930 . S
H211 C227 0.959 . S
H212 C227 0.959 . S
H213 C227 0.961 . S
H214 C228 0.960 . S
H215 C228 0.961 . S
H216 C228 0.959 . S
H217 C231 0.929 . S
H218 C232 0.931 . S
H219 C234 0.930 . S
C220 H208 0.930 . S
C220 C221 1.399 . S
C220 C225 1.399 . S
C221 C220 1.399 . S
C221 C222 1.376 . S
C222 H209 0.930 . S
C222 C221 1.376 . S
C222 C223 1.388 . S
C223 H210 0.930 . S
C223 C222 1.388 . S
C223 C224 1.390 . S
C224 C223 1.390 . S
C224 C225 1.394 . S
C224 C230 1.465 . S
C225 C220 1.399 . S
C225 C224 1.394 . S
C225 C226 1.516 . S
C226 C225 1.516 . S
C226 C227 1.502 . S
C226 C228 1.561 . S
C226 C229 1.526 . S
C227 H211 0.959 . S
C227 H212 0.959 . S
C227 H213 0.961 . S
C227 C226 1.502 . S
C228 H214 0.960 . S
C228 H215 0.961 . S
C228 H216 0.959 . S
C228 C226 1.561 . S
C229 C226 1.526 . S
C229 C230 1.396 . S
C229 C234 1.390 . S
C230 C224 1.465 . S
C230 C229 1.396 . S
C230 C231 1.399 . S
C231 H217 0.929 . S
C231 C230 1.399 . S
C231 C232 1.385 . S
C232 H218 0.931 . S
C232 C231 1.385 . S
C232 C233 1.389 . S
C233 C232 1.389 . S
C233 C234 1.387 . S
C234 H219 0.930 . S
C234 C229 1.390 . S
C234 C233 1.387 . S
H235 C247 0.930 . S
H236 C249 0.930 . S
H237 C250 0.930 . S
H238 C254 0.959 . S
H239 C254 0.959 . S
H240 C254 0.961 . S
H241 C255 0.960 . S
H242 C255 0.961 . S
H243 C255 0.959 . S
H244 C258 0.929 . S
H245 C259 0.931 . S
H246 C261 0.930 . S
C247 H235 0.930 . S
C247 C248 1.399 . S
C247 C252 1.399 . S
C248 C247 1.399 . S
C248 C249 1.376 . S
C249 H236 0.930 . S
C249 C248 1.376 . S
C249 C250 1.388 . S
C250 H237 0.930 . S
C250 C249 1.388 . S
C250 C251 1.390 . S
C251 C250 1.390 . S
C251 C252 1.394 . S
C251 C257 1.465 . S
C252 C247 1.399 . S
C252 C251 1.394 . S
C252 C253 1.516 . S
C253 C252 1.516 . S
C253 C254 1.502 . S
C253 C255 1.561 . S
C253 C256 1.526 . S
C254 H238 0.959 . S
C254 H239 0.959 . S
C254 H240 0.961 . S
C254 C253 1.502 . S
C255 H241 0.960 . S
C255 H242 0.961 . S
C255 H243 0.959 . S
C255 C253 1.561 . S
C256 C253 1.526 . S
C256 C257 1.396 . S
C256 C261 1.390 . S
C257 C251 1.465 . S
C257 C256 1.396 . S
C257 C258 1.399 . S
C258 H244 0.929 . S
C258 C257 1.399 . S
C258 C259 1.385 . S
C259 H245 0.931 . S
C259 C258 1.385 . S
C259 C260 1.389 . S
C260 C259 1.389 . S
C260 C261 1.387 . S
C261 H246 0.930 . S
C261 C256 1.390 . S
C261 C260 1.387 . S
H262 C274 0.930 . S
H263 C276 0.930 . S
H264 C277 0.930 . S
H265 C281 0.959 . S
H266 C281 0.959 . S
H267 C281 0.961 . S
H268 C282 0.960 . S
H269 C282 0.961 . S
H270 C282 0.959 . S
H271 C285 0.929 . S
H272 C286 0.931 . S
H273 C288 0.930 . S
C274 H262 0.930 . S
C274 C275 1.399 . S
C274 C279 1.399 . S
C275 C274 1.399 . S
C275 C276 1.376 . S
C276 H263 0.930 . S
C276 C275 1.376 . S
C276 C277 1.388 . S
C277 H264 0.930 . S
C277 C276 1.388 . S
C277 C278 1.390 . S
C278 C277 1.390 . S
C278 C279 1.394 . S
C278 C284 1.465 . S
C279 C274 1.399 . S
C279 C278 1.394 . S
C279 C280 1.516 . S
C280 C279 1.516 . S
C280 C281 1.502 . S
C280 C282 1.561 . S
C280 C283 1.526 . S
C281 H265 0.959 . S
C281 H266 0.959 . S
C281 H267 0.961 . S
C281 C280 1.502 . S
C282 H268 0.960 . S
C282 H269 0.961 . S
C282 H270 0.959 . S
C282 C280 1.561 . S
C283 C280 1.526 . S
C283 C284 1.396 . S
C283 C288 1.390 . S
C284 C278 1.465 . S
C284 C283 1.396 . S
C284 C285 1.399 . S
C285 H271 0.929 . S
C285 C284 1.399 . S
C285 C286 1.385 . S
C286 H272 0.931 . S
C286 C285 1.385 . S
C286 C287 1.389 . S
C287 C286 1.389 . S
C287 C288 1.387 . S
C288 H273 0.930 . S
C288 C283 1.390 . S
C288 C287 1.387 . S
H289 C301 0.930 . S
H290 C303 0.930 . S
H291 C304 0.930 . S
H292 C308 0.959 . S
H293 C308 0.959 . S
H294 C308 0.961 . S
H295 C309 0.960 . S
H296 C309 0.961 . S
H297 C309 0.959 . S
H298 C312 0.929 . S
H299 C313 0.955 . S
H300 C315 0.930 . S
C301 H289 0.930 . S
C301 C302 1.399 . S
C301 C306 1.399 . S
C302 C301 1.399 . S
C302 C303 1.376 . S
C303 H290 0.930 . S
C303 C302 1.376 . S
C303 C304 1.388 . S
C304 H291 0.930 . S
C304 C303 1.388 . S
C304 C305 1.390 . S
C305 C304 1.390 . S
C305 C306 1.394 . S
C305 C311 1.465 . S
C306 C301 1.399 . S
C306 C305 1.394 . S
C306 C307 1.516 . S
C307 C306 1.516 . S
C307 C308 1.502 . S
C307 C309 1.561 . S
C307 C310 1.526 . S
C308 H292 0.959 . S
C308 H293 0.959 . S
C308 H294 0.961 . S
C308 C307 1.502 . S
C309 H295 0.960 . S
C309 H296 0.961 . S
C309 H297 0.959 . S
C309 C307 1.561 . S
C310 C307 1.526 . S
C310 C311 1.396 . S
C310 C315 1.390 . S
C311 C305 1.465 . S
C311 C310 1.396 . S
C311 C312 1.399 . S
C312 H298 0.929 . S
C312 C311 1.399 . S
C312 C313 1.385 . S
C313 H299 0.955 . S
C313 C312 1.385 . S
C313 C314 1.389 . S
C314 C313 1.389 . S
C314 C315 1.387 . S
C315 H300 0.930 . S
C315 C310 1.390 . S
C315 C314 1.387 . S
H316 C328 0.930 . S
H317 C330 0.930 . S
H318 C331 0.930 . S
H319 C335 0.959 . S
H320 C335 0.985 . S
H321 C335 0.961 . S
H322 C336 0.960 . S
H323 C336 0.961 . S
H324 C336 0.959 . S
H325 C339 0.929 . S
H326 C340 0.931 . S
H327 C342 0.930 . S
C328 H316 0.930 . S
C328 C329 1.399 . S
C328 C333 1.399 . S
C329 C328 1.399 . S
C329 C330 1.376 . S
C330 H317 0.930 . S
C330 C329 1.376 . S
C330 C331 1.388 . S
C331 H318 0.930 . S
C331 C330 1.388 . S
C331 C332 1.390 . S
C332 C331 1.390 . S
C332 C333 1.394 . S
C332 C338 1.465 . S
C333 C328 1.399 . S
C333 C332 1.394 . S
C333 C334 1.516 . S
C334 C333 1.516 . S
C334 C335 1.502 . S
C334 C336 1.561 . S
C334 C337 1.526 . S
C335 H319 0.959 . S
C335 H320 0.985 . S
C335 H321 0.961 . S
C335 C334 1.502 . S
C336 H322 0.960 . S
C336 H323 0.961 . S
C336 H324 0.959 . S
C336 C334 1.561 . S
C337 C334 1.526 . S
C337 C338 1.396 . S
C337 C342 1.390 . S
C338 C332 1.465 . S
C338 C337 1.396 . S
C338 C339 1.399 . S
C339 H325 0.929 . S
C339 C338 1.399 . S
C339 C340 1.385 . S
C340 H326 0.931 . S
C340 C339 1.385 . S
C340 C341 1.389 . S
C341 C340 1.389 . S
C341 C342 1.387 . S
C342 H327 0.930 . S
C342 C337 1.390 . S
C342 C341 1.387 . S
H343 C355 0.930 . S
H344 C357 0.930 . S
H345 C358 0.930 . S
H346 C362 0.959 . S
H347 C362 0.959 . S
H348 C362 0.961 . S
H349 C363 0.960 . S
H350 C363 0.961 . S
H351 C363 0.959 . S
H352 C366 0.929 . S
H353 C367 0.931 . S
H354 C369 0.930 . S
C355 H343 0.930 . S
C355 C356 1.399 . S
C355 C360 1.399 . S
C356 C355 1.399 . S
C356 C357 1.376 . S
C357 H344 0.930 . S
C357 C356 1.376 . S
C357 C358 1.388 . S
C358 H345 0.930 . S
C358 C357 1.388 . S
C358 C359 1.390 . S
C359 C358 1.390 . S
C359 C360 1.394 . S
C359 C365 1.465 . S
C360 C355 1.399 . S
C360 C359 1.394 . S
C360 C361 1.516 . S
C361 C360 1.516 . S
C361 C362 1.502 . S
C361 C363 1.561 . S
C361 C364 1.526 . S
C362 H346 0.959 . S
C362 H347 0.959 . S
C362 H348 0.961 . S
C362 C361 1.502 . S
C363 H349 0.960 . S
C363 H350 0.961 . S
C363 H351 0.959 . S
C363 C361 1.561 . S
C364 C361 1.526 . S
C364 C365 1.396 . S
C364 C369 1.390 . S
C365 C359 1.465 . S
C365 C364 1.396 . S
C365 C366 1.399 . S
C366 H352 0.929 . S
C366 C365 1.399 . S
C366 C367 1.385 . S
C367 H353 0.931 . S
C367 C366 1.385 . S
C367 C368 1.389 . S
C368 C367 1.389 . S
C368 C369 1.387 . S
C369 H354 0.930 . S
C369 C364 1.390 . S
C369 C368 1.387 . S
H370 C382 0.930 . S
H371 C384 0.930 1_545 S
H372 C385 0.930 . S
H373 C389 0.959 . S
H374 C389 0.959 . S
H375 C389 0.961 . S
H376 C390 0.960 . S
H377 C390 0.961 . S
H378 C390 0.959 . S
H379 C393 0.929 . S
H380 C394 0.931 . S
H381 C396 0.930 . S
C382 H370 0.930 . S
C382 C383 1.399 . S
C382 C387 1.399 . S
C383 C382 1.399 . S
C383 C384 1.376 . S
C384 H371 0.930 1_565 S
C384 C383 1.376 . S
C384 C385 1.388 . S
C385 H372 0.930 . S
C385 C384 1.388 . S
C385 C386 1.390 . S
C386 C385 1.390 . S
C386 C387 1.394 . S
C386 C392 1.465 . S
C387 C382 1.399 . S
C387 C386 1.394 . S
C387 C388 1.516 . S
C388 C387 1.516 . S
C388 C389 1.502 . S
C388 C390 1.561 . S
C388 C391 1.526 . S
C389 H373 0.959 . S
C389 H374 0.959 . S
C389 H375 0.961 . S
C389 C388 1.502 . S
C390 H376 0.960 . S
C390 H377 0.961 . S
C390 H378 0.959 . S
C390 C388 1.561 . S
C391 C388 1.526 . S
C391 C392 1.396 . S
C391 C396 1.390 . S
C392 C386 1.465 . S
C392 C391 1.396 . S
C392 C393 1.399 . S
C393 H379 0.929 . S
C393 C392 1.399 . S
C393 C394 1.385 . S
C394 H380 0.931 . S
C394 C393 1.385 . S
C394 C395 1.389 . S
C395 C394 1.389 . S
C395 C396 1.387 . S
C396 H381 0.930 . S
C396 C391 1.390 . S
C396 C395 1.387 . S
H397 C409 0.930 . S
H398 C411 0.930 . S
H399 C412 0.930 . S
H400 C416 0.959 . S
H401 C416 0.959 . S
H402 C416 0.961 . S
H403 C417 0.960 . S
H404 C417 0.961 . S
H405 C417 0.959 . S
H406 C420 0.929 . S
H407 C421 0.931 . S
H408 C423 0.930 . S
C409 H397 0.930 . S
C409 C410 1.399 . S
C409 C414 1.399 . S
C410 C409 1.399 . S
C410 C411 1.376 . S
C411 H398 0.930 . S
C411 C410 1.376 . S
C411 C412 1.388 . S
C412 H399 0.930 . S
C412 C411 1.388 . S
C412 C413 1.390 . S
C413 C412 1.390 . S
C413 C414 1.394 . S
C413 C419 1.465 . S
C414 C409 1.399 . S
C414 C413 1.394 . S
C414 C415 1.516 . S
C415 C414 1.516 . S
C415 C416 1.502 . S
C415 C417 1.561 . S
C415 C418 1.526 . S
C416 H400 0.959 . S
C416 H401 0.959 . S
C416 H402 0.961 . S
C416 C415 1.502 . S
C417 H403 0.960 . S
C417 H404 0.961 . S
C417 H405 0.959 . S
C417 C415 1.561 . S
C418 C415 1.526 . S
C418 C419 1.396 . S
C418 C423 1.390 . S
C419 C413 1.465 . S
C419 C418 1.396 . S
C419 C420 1.399 . S
C420 H406 0.929 . S
C420 C419 1.399 . S
C420 C421 1.385 . S
C421 H407 0.931 . S
C421 C420 1.385 . S
C421 C422 1.389 . S
C422 C421 1.389 . S
C422 C423 1.387 . S
C423 H408 0.930 . S
C423 C418 1.390 . S
C423 C422 1.387 . S
H424 C436 0.930 . S
H425 C438 0.930 . S
H426 C439 0.930 . S
H427 C443 0.959 . S
H428 C443 0.959 . S
H429 C443 0.961 . S
H430 C444 0.960 . S
H431 C444 0.961 . S
H432 C444 0.959 . S
H433 C447 0.929 . S
H434 C448 0.931 . S
H435 C450 0.930 . S
C436 H424 0.930 . S
C436 C437 1.399 . S
C436 C441 1.399 . S
C437 C436 1.399 . S
C437 C438 1.376 . S
C438 H425 0.930 . S
C438 C437 1.376 . S
C438 C439 1.388 . S
C439 H426 0.930 . S
C439 C438 1.388 . S
C439 C440 1.390 . S
C440 C439 1.390 . S
C440 C441 1.394 . S
C440 C446 1.465 . S
C441 C436 1.399 . S
C441 C440 1.394 . S
C441 C442 1.516 . S
C442 C441 1.516 . S
C442 C443 1.502 . S
C442 C444 1.561 . S
C442 C445 1.526 . S
C443 H427 0.959 . S
C443 H428 0.959 . S
C443 H429 0.961 . S
C443 C442 1.502 . S
C444 H430 0.960 . S
C444 H431 0.961 . S
C444 H432 0.959 . S
C444 C442 1.561 . S
C445 C442 1.526 . S
C445 C446 1.396 . S
C445 C450 1.390 . S
C446 C440 1.465 . S
C446 C445 1.396 . S
C446 C447 1.399 . S
C447 H433 0.929 . S
C447 C446 1.399 . S
C447 C448 1.385 . S
C448 H434 0.931 . S
C448 C447 1.385 . S
C448 C449 1.389 . S
C449 C448 1.389 . S
C449 C450 1.387 . S
C450 H435 0.930 . S
C450 C445 1.390 . S
C450 C449 1.387 . S
H451 C463 0.930 . S
H452 C465 0.930 . S
H453 C466 0.930 . S
H454 C470 0.959 . S
H455 C470 0.959 . S
H456 C470 0.961 . S
H457 C471 0.960 . S
H458 C471 0.961 . S
H459 C471 0.959 . S
H460 C474 0.929 . S
H461 C475 0.931 . S
H462 C477 0.930 . S
C463 H451 0.930 . S
C463 C464 1.399 . S
C463 C468 1.399 . S
C464 C463 1.399 . S
C464 C465 1.376 . S
C465 H452 0.930 . S
C465 C464 1.376 . S
C465 C466 1.388 . S
C466 H453 0.930 . S
C466 C465 1.388 . S
C466 C467 1.390 . S
C467 C466 1.390 . S
C467 C468 1.394 . S
C467 C473 1.465 . S
C468 C463 1.399 . S
C468 C467 1.394 . S
C468 C469 1.516 . S
C469 C468 1.516 . S
C469 C470 1.502 . S
C469 C471 1.561 . S
C469 C472 1.526 . S
C470 H454 0.959 . S
C470 H455 0.959 . S
C470 H456 0.961 . S
C470 C469 1.502 . S
C471 H457 0.960 . S
C471 H458 0.961 . S
C471 H459 0.959 . S
C471 C469 1.561 . S
C472 C469 1.526 . S
C472 C473 1.396 . S
C472 C477 1.390 . S
C473 C467 1.465 . S
C473 C472 1.396 . S
C473 C474 1.399 . S
C474 H460 0.929 . S
C474 C473 1.399 . S
C474 C475 1.385 . S
C475 H461 0.931 . S
C475 C474 1.385 . S
C475 C476 1.389 . S
C476 C475 1.389 . S
C476 C477 1.387 . S
C477 H462 0.930 . S
C477 C472 1.390 . S
C477 C476 1.387 . S
H478 C490 0.930 . S
H479 C492 0.930 . S
H480 C493 0.930 . S
H481 C497 0.959 . S
H482 C497 0.959 . S
H483 C497 0.961 . S
H484 C498 0.960 . S
H485 C498 0.961 . S
H486 C498 0.959 . S
H487 C501 0.929 . S
H488 C502 0.931 . S
H489 C504 0.930 . S
C490 H478 0.930 . S
C490 C491 1.399 . S
C490 C495 1.399 . S
C491 C490 1.399 . S
C491 C492 1.376 . S
C492 H479 0.930 . S
C492 C491 1.376 . S
C492 C493 1.388 . S
C493 H480 0.930 . S
C493 C492 1.388 . S
C493 C494 1.390 . S
C494 C493 1.390 . S
C494 C495 1.394 . S
C494 C500 1.465 . S
C495 C490 1.399 . S
C495 C494 1.394 . S
C495 C496 1.516 . S
C496 C495 1.516 . S
C496 C497 1.502 . S
C496 C498 1.561 . S
C496 C499 1.526 . S
C497 H481 0.959 . S
C497 H482 0.959 . S
C497 H483 0.961 . S
C497 C496 1.502 . S
C498 H484 0.960 . S
C498 H485 0.961 . S
C498 H486 0.959 . S
C498 C496 1.561 . S
C499 C496 1.526 . S
C499 C500 1.396 . S
C499 C504 1.390 . S
C500 C494 1.465 . S
C500 C499 1.396 . S
C500 C501 1.399 . S
C501 H487 0.929 . S
C501 C500 1.399 . S
C501 C502 1.385 . S
C502 H488 0.931 . S
C502 C501 1.385 . S
C502 C503 1.389 . S
C503 C502 1.389 . S
C503 C504 1.387 . S
C504 H489 0.930 . S
C504 C499 1.390 . S
C504 C503 1.387 . S
H505 C517 0.930 . S
H506 C519 0.930 1_455 S
H507 C520 0.930 . S
H508 C524 0.959 . S
H509 C524 0.959 . S
H510 C524 0.961 . S
H511 C525 0.960 . S
H512 C525 0.961 . S
H513 C525 0.959 . S
H514 C528 0.929 . S
H515 C529 0.931 . S
H516 C531 0.930 . S
C517 H505 0.930 . S
C517 C518 1.399 . S
C517 C522 1.399 . S
C518 C517 1.399 . S
C518 C519 1.376 . S
C519 H506 0.930 1_655 S
C519 C518 1.376 . S
C519 C520 1.388 . S
C520 H507 0.930 . S
C520 C519 1.388 . S
C520 C521 1.390 . S
C521 C520 1.390 . S
C521 C522 1.394 . S
C521 C527 1.465 . S
C522 C517 1.399 . S
C522 C521 1.394 . S
C522 C523 1.516 . S
C523 C522 1.516 . S
C523 C524 1.502 . S
C523 C525 1.561 . S
C523 C526 1.526 . S
C524 H508 0.959 . S
C524 H509 0.959 . S
C524 H510 0.961 . S
C524 C523 1.502 . S
C525 H511 0.960 . S
C525 H512 0.961 . S
C525 H513 0.959 . S
C525 C523 1.561 . S
C526 C523 1.526 . S
C526 C527 1.396 . S
C526 C531 1.390 . S
C527 C521 1.465 . S
C527 C526 1.396 . S
C527 C528 1.399 . S
C528 H514 0.929 . S
C528 C527 1.399 . S
C528 C529 1.385 . S
C529 H515 0.931 . S
C529 C528 1.385 . S
C529 C530 1.389 . S
C530 C529 1.389 . S
C530 C531 1.387 . S
C531 H516 0.930 . S
C531 C526 1.390 . S
C531 C530 1.387 . S
H532 C544 0.930 . S
H533 C546 0.930 . S
H534 C547 0.930 . S
H535 C551 0.959 . S
H536 C551 0.959 . S
H537 C551 0.961 . S
H538 C552 0.960 . S
H539 C552 0.961 . S
H540 C552 0.959 . S
H541 C555 0.929 . S
H542 C556 0.931 . S
H543 C558 0.930 . S
C544 H532 0.930 . S
C544 C545 1.399 . S
C544 C549 1.399 . S
C545 C544 1.399 . S
C545 C546 1.376 . S
C546 H533 0.930 . S
C546 C545 1.376 . S
C546 C547 1.388 . S
C547 H534 0.930 . S
C547 C546 1.388 . S
C547 C548 1.390 . S
C548 C547 1.390 . S
C548 C549 1.394 . S
C548 C554 1.465 . S
C549 C544 1.399 . S
C549 C548 1.394 . S
C549 C550 1.516 . S
C550 C549 1.516 . S
C550 C551 1.502 . S
C550 C552 1.561 . S
C550 C553 1.526 . S
C551 H535 0.959 . S
C551 H536 0.959 . S
C551 H537 0.961 . S
C551 C550 1.502 . S
C552 H538 0.960 . S
C552 H539 0.961 . S
C552 H540 0.959 . S
C552 C550 1.561 . S
C553 C550 1.526 . S
C553 C554 1.396 . S
C553 C558 1.390 . S
C554 C548 1.465 . S
C554 C553 1.396 . S
C554 C555 1.399 . S
C555 H541 0.929 . S
C555 C554 1.399 . S
C555 C556 1.385 . S
C556 H542 0.931 . S
C556 C555 1.385 . S
C556 C557 1.389 . S
C557 C556 1.389 . S
C557 C558 1.387 . S
C558 H543 0.930 . S
C558 C553 1.390 . S
C558 C557 1.387 . S
H559 C571 0.930 . S
H560 C573 0.930 . S
H561 C574 0.930 . S
H562 C578 0.959 . S
H563 C578 0.959 . S
H564 C578 0.961 . S
H565 C579 0.960 . S
H566 C579 0.961 . S
H567 C579 0.959 . S
H568 C582 0.929 . S
H569 C583 0.931 . S
H570 C585 0.930 . S
C571 H559 0.930 . S
C571 C572 1.399 . S
C571 C576 1.399 . S
C572 C571 1.399 . S
C572 C573 1.376 . S
C573 H560 0.930 . S
C573 C572 1.376 . S
C573 C574 1.388 . S
C574 H561 0.930 . S
C574 C573 1.388 . S
C574 C575 1.390 . S
C575 C574 1.390 . S
C575 C576 1.394 . S
C575 C581 1.465 . S
C576 C571 1.399 . S
C576 C575 1.394 . S
C576 C577 1.516 . S
C577 C576 1.516 . S
C577 C578 1.502 . S
C577 C579 1.561 . S
C577 C580 1.526 . S
C578 H562 0.959 . S
C578 H563 0.959 . S
C578 H564 0.961 . S
C578 C577 1.502 . S
C579 H565 0.960 . S
C579 H566 0.961 . S
C579 H567 0.959 . S
C579 C577 1.561 . S
C580 C577 1.526 . S
C580 C581 1.396 . S
C580 C585 1.390 . S
C581 C575 1.465 . S
C581 C580 1.396 . S
C581 C582 1.399 . S
C582 H568 0.929 . S
C582 C581 1.399 . S
C582 C583 1.385 . S
C583 H569 0.931 . S
C583 C582 1.385 . S
C583 C584 1.389 . S
C584 C583 1.389 . S
C584 C585 1.387 . S
C585 H570 0.930 . S
C585 C580 1.390 . S
C585 C584 1.387 . S
H586 C598 0.930 . S
H587 C600 0.930 . S
H588 C601 0.930 . S
H589 C605 0.959 . S
H590 C605 1.011 . S
H591 C605 0.961 . S
H592 C606 0.960 . S
H593 C606 0.961 . S
H594 C606 0.959 . S
H595 C609 0.929 . S
H596 C610 0.931 . S
H597 C612 0.930 . S
C598 H586 0.930 . S
C598 C599 1.399 . S
C598 C603 1.399 . S
C599 C598 1.399 . S
C599 C600 1.376 . S
C600 H587 0.930 . S
C600 C599 1.376 . S
C600 C601 1.388 . S
C601 H588 0.930 . S
C601 C600 1.388 . S
C601 C602 1.390 . S
C602 C601 1.390 . S
C602 C603 1.394 . S
C602 C608 1.465 . S
C603 C598 1.399 . S
C603 C602 1.394 . S
C603 C604 1.516 . S
C604 C603 1.516 . S
C604 C605 1.502 . S
C604 C606 1.561 . S
C604 C607 1.526 . S
C605 H589 0.959 . S
C605 H590 1.011 . S
C605 H591 0.961 . S
C605 C604 1.502 . S
C606 H592 0.960 . S
C606 H593 0.961 . S
C606 H594 0.959 . S
C606 C604 1.561 . S
C607 C604 1.526 . S
C607 C608 1.396 . S
C607 C612 1.390 . S
C608 C602 1.465 . S
C608 C607 1.396 . S
C608 C609 1.399 . S
C609 H595 0.929 . S
C609 C608 1.399 . S
C609 C610 1.385 . S
C610 H596 0.931 . S
C610 C609 1.385 . S
C610 C611 1.389 . S
C611 C610 1.389 . S
C611 C612 1.387 . S
C612 H597 0.930 . S
C612 C607 1.390 . S
C612 C611 1.387 . S
H613 C625 0.930 . S
H614 C627 0.930 . S
H615 C628 0.930 . S
H616 C632 0.959 . S
H617 C632 0.959 . S
H618 C632 0.961 . S
H619 C633 0.960 . S
H620 C633 0.961 . S
H621 C633 0.959 . S
H622 C636 0.929 . S
H623 C637 0.931 . S
H624 C639 0.930 . S
C625 H613 0.930 . S
C625 C626 1.399 . S
C625 C630 1.399 . S
C626 C625 1.399 . S
C626 C627 1.376 . S
C627 H614 0.930 . S
C627 C626 1.376 . S
C627 C628 1.388 . S
C628 H615 0.930 . S
C628 C627 1.388 . S
C628 C629 1.390 . S
C629 C628 1.390 . S
C629 C630 1.394 . S
C629 C635 1.465 . S
C630 C625 1.399 . S
C630 C629 1.394 . S
C630 C631 1.516 . S
C631 C630 1.516 . S
C631 C632 1.502 . S
C631 C633 1.561 . S
C631 C634 1.526 . S
C632 H616 0.959 . S
C632 H617 0.959 . S
C632 H618 0.961 . S
C632 C631 1.502 . S
C633 H619 0.960 . S
C633 H620 0.961 . S
C633 H621 0.959 . S
C633 C631 1.561 . S
C634 C631 1.526 . S
C634 C635 1.396 . S
C634 C639 1.390 . S
C635 C629 1.465 . S
C635 C634 1.396 . S
C635 C636 1.399 . S
C636 H622 0.929 . S
C636 C635 1.399 . S
C636 C637 1.385 . S
C637 H623 0.931 . S
C637 C636 1.385 . S
C637 C638 1.389 . S
C638 C637 1.389 . S
C638 C639 1.387 . S
C639 H624 0.930 . S
C639 C634 1.390 . S
C639 C638 1.387 . S
H640 C652 0.930 . S
H641 C654 0.930 . S
H642 C655 0.930 . S
H643 C659 0.959 . S
H644 C659 0.959 . S
H645 C659 0.961 . S
H646 C660 0.960 . S
H647 C660 0.961 . S
H648 C660 0.959 . S
H649 C663 0.929 . S
H650 C664 0.931 . S
H651 C666 0.930 . S
C652 H640 0.930 . S
C652 C653 1.399 . S
C652 C657 1.399 . S
C653 C652 1.399 . S
C653 C654 1.376 . S
C654 H641 0.930 . S
C654 C653 1.376 . S
C654 C655 1.388 . S
C655 H642 0.930 . S
C655 C654 1.388 . S
C655 C656 1.390 . S
C656 C655 1.390 . S
C656 C657 1.394 . S
C656 C662 1.465 . S
C657 C652 1.399 . S
C657 C656 1.394 . S
C657 C658 1.516 . S
C658 C657 1.516 . S
C658 C659 1.502 . S
C658 C660 1.561 . S
C658 C661 1.526 . S
C659 H643 0.959 . S
C659 H644 0.959 . S
C659 H645 0.961 . S
C659 C658 1.502 . S
C660 H646 0.960 . S
C660 H647 0.961 . S
C660 H648 0.959 . S
C660 C658 1.561 . S
C661 C658 1.526 . S
C661 C662 1.396 . S
C661 C666 1.390 . S
C662 C656 1.465 . S
C662 C661 1.396 . S
C662 C663 1.399 . S
C663 H649 0.929 . S
C663 C662 1.399 . S
C663 C664 1.385 . S
C664 H650 0.931 . S
C664 C663 1.385 . S
C664 C665 1.389 . S
C665 C664 1.389 . S
C665 C666 1.387 . S
C666 H651 0.930 . S
C666 C661 1.390 . S
C666 C665 1.387 . S
H667 C679 0.930 . S
H668 C681 0.930 . S
H669 C682 0.930 . S
H670 C686 0.959 . S
H671 C686 0.959 . S
H672 C686 0.961 . S
H673 C687 0.960 . S
H674 C687 0.961 . S
H675 C687 0.959 . S
H676 C690 0.929 . S
H677 C691 0.931 . S
H678 C693 0.930 . S
C679 H667 0.930 . S
C679 C680 1.399 . S
C679 C684 1.399 . S
C680 C679 1.399 . S
C680 C681 1.376 . S
C681 H668 0.930 . S
C681 C680 1.376 . S
C681 C682 1.388 . S
C682 H669 0.930 . S
C682 C681 1.388 . S
C682 C683 1.390 . S
C683 C682 1.390 . S
C683 C684 1.394 . S
C683 C689 1.465 . S
C684 C679 1.399 . S
C684 C683 1.394 . S
C684 C685 1.516 . S
C685 C684 1.516 . S
C685 C686 1.502 . S
C685 C687 1.561 . S
C685 C688 1.526 . S
C686 H670 0.959 . S
C686 H671 0.959 . S
C686 H672 0.961 . S
C686 C685 1.502 . S
C687 H673 0.960 . S
C687 H674 0.961 . S
C687 H675 0.959 . S
C687 C685 1.561 . S
C688 C685 1.526 . S
C688 C689 1.396 . S
C688 C693 1.390 . S
C689 C683 1.465 . S
C689 C688 1.396 . S
C689 C690 1.399 . S
C690 H676 0.929 . S
C690 C689 1.399 . S
C690 C691 1.385 . S
C691 H677 0.931 . S
C691 C690 1.385 . S
C691 C692 1.389 . S
C692 C691 1.389 . S
C692 C693 1.387 . S
C693 H678 0.930 . S
C693 C688 1.390 . S
C693 C692 1.387 . S
H694 C706 0.930 . S
H695 C708 0.930 . S
H696 C709 0.930 . S
H697 C713 0.959 . S
H698 C713 0.959 . S
H699 C713 0.961 . S
H700 C714 0.960 . S
H701 C714 0.961 . S
H702 C714 0.959 . S
H703 C717 0.929 . S
H704 C718 0.931 . S
H705 C720 0.930 . S
C706 H694 0.930 . S
C706 C707 1.399 . S
C706 C711 1.399 . S
C707 C706 1.399 . S
C707 C708 1.376 . S
C708 H695 0.930 . S
C708 C707 1.376 . S
C708 C709 1.388 . S
C709 H696 0.930 . S
C709 C708 1.388 . S
C709 C710 1.390 . S
C710 C709 1.390 . S
C710 C711 1.394 . S
C710 C716 1.465 . S
C711 C706 1.399 . S
C711 C710 1.394 . S
C711 C712 1.516 . S
C712 C711 1.516 . S
C712 C713 1.502 . S
C712 C714 1.561 . S
C712 C715 1.526 . S
C713 H697 0.959 . S
C713 H698 0.959 . S
C713 H699 0.961 . S
C713 C712 1.502 . S
C714 H700 0.960 . S
C714 H701 0.961 . S
C714 H702 0.959 . S
C714 C712 1.561 . S
C715 C712 1.526 . S
C715 C716 1.396 . S
C715 C720 1.390 . S
C716 C710 1.465 . S
C716 C715 1.396 . S
C716 C717 1.399 . S
C717 H703 0.929 . S
C717 C716 1.399 . S
C717 C718 1.385 . S
C718 H704 0.931 . S
C718 C717 1.385 . S
C718 C719 1.389 . S
C719 C718 1.389 . S
C719 C720 1.387 . S
C720 H705 0.930 . S
C720 C715 1.390 . S
C720 C719 1.387 . S
H721 C733 0.930 . S
H722 C735 0.930 . S
H723 C736 0.930 . S
H724 C740 0.959 . S
H725 C740 0.959 . S
H726 C740 0.961 . S
H727 C741 0.960 . S
H728 C741 0.961 . S
H729 C741 0.959 . S
H730 C744 0.929 . S
H731 C745 0.931 . S
H732 C747 0.930 . S
C733 H721 0.930 . S
C733 C734 1.399 . S
C733 C738 1.399 . S
C734 C733 1.399 . S
C734 C735 1.376 . S
C735 H722 0.930 . S
C735 C734 1.376 . S
C735 C736 1.388 . S
C736 H723 0.930 . S
C736 C735 1.388 . S
C736 C737 1.390 . S
C737 C736 1.390 . S
C737 C738 1.394 . S
C737 C743 1.465 . S
C738 C733 1.399 . S
C738 C737 1.394 . S
C738 C739 1.516 . S
C739 C738 1.516 . S
C739 C740 1.502 . S
C739 C741 1.561 . S
C739 C742 1.526 . S
C740 H724 0.959 . S
C740 H725 0.959 . S
C740 H726 0.961 . S
C740 C739 1.502 . S
C741 H727 0.960 . S
C741 H728 0.961 . S
C741 H729 0.959 . S
C741 C739 1.561 . S
C742 C739 1.526 . S
C742 C743 1.396 . S
C742 C747 1.390 . S
C743 C737 1.465 . S
C743 C742 1.396 . S
C743 C744 1.399 . S
C744 H730 0.929 . S
C744 C743 1.399 . S
C744 C745 1.385 . S
C745 H731 0.931 . S
C745 C744 1.385 . S
C745 C746 1.389 . S
C746 C745 1.389 . S
C746 C747 1.387 . S
C747 H732 0.930 . S
C747 C742 1.390 . S
C747 C746 1.387 . S
H748 C760 0.930 . S
H749 C762 0.930 . S
H750 C763 0.930 . S
H751 C767 0.959 . S
H752 C767 0.959 . S
H753 C767 0.961 . S
H754 C768 0.960 . S
H755 C768 0.961 . S
H756 C768 0.959 . S
H757 C771 0.929 . S
H758 C772 0.931 . S
H759 C774 0.930 . S
C760 H748 0.930 . S
C760 C761 1.399 . S
C760 C765 1.399 . S
C761 C760 1.399 . S
C761 C762 1.376 . S
C762 H749 0.930 . S
C762 C761 1.376 . S
C762 C763 1.388 . S
C763 H750 0.930 . S
C763 C762 1.388 . S
C763 C764 1.390 . S
C764 C763 1.390 . S
C764 C765 1.394 . S
C764 C770 1.465 . S
C765 C760 1.399 . S
C765 C764 1.394 . S
C765 C766 1.516 . S
C766 C765 1.516 . S
C766 C767 1.502 . S
C766 C768 1.561 . S
C766 C769 1.526 . S
C767 H751 0.959 . S
C767 H752 0.959 . S
C767 H753 0.961 . S
C767 C766 1.502 . S
C768 H754 0.960 . S
C768 H755 0.961 . S
C768 H756 0.959 . S
C768 C766 1.561 . S
C769 C766 1.526 . S
C769 C770 1.396 . S
C769 C774 1.390 . S
C770 C764 1.465 . S
C770 C769 1.396 . S
C770 C771 1.399 . S
C771 H757 0.929 . S
C771 C770 1.399 . S
C771 C772 1.385 . S
C772 H758 0.931 . S
C772 C771 1.385 . S
C772 C773 1.389 . S
C773 C772 1.389 . S
C773 C774 1.387 . S
C774 H759 0.930 . S
C774 C769 1.390 . S
C774 C773 1.387 . S
H775 C787 0.930 . S
H776 C789 0.930 . S
H777 C790 0.930 . S
H778 C794 0.959 . S
H779 C794 0.959 . S
H780 C794 0.961 . S
H781 C795 0.960 . S
H782 C795 0.961 . S
H783 C795 0.959 . S
H784 C798 0.929 . S
H785 C799 0.931 . S
H786 C801 0.930 . S
C787 H775 0.930 . S
C787 C788 1.399 . S
C787 C792 1.399 . S
C788 C787 1.399 . S
C788 C789 1.376 . S
C789 H776 0.930 . S
C789 C788 1.376 . S
C789 C790 1.388 . S
C790 H777 0.930 . S
C790 C789 1.388 . S
C790 C791 1.390 . S
C791 C790 1.390 . S
C791 C792 1.394 . S
C791 C797 1.465 . S
C792 C787 1.399 . S
C792 C791 1.394 . S
C792 C793 1.516 . S
C793 C792 1.516 . S
C793 C794 1.502 . S
C793 C795 1.561 . S
C793 C796 1.526 . S
C794 H778 0.959 . S
C794 H779 0.959 . S
C794 H780 0.961 . S
C794 C793 1.502 . S
C795 H781 0.960 . S
C795 H782 0.961 . S
C795 H783 0.959 . S
C795 C793 1.561 . S
C796 C793 1.526 . S
C796 C797 1.396 . S
C796 C801 1.390 . S
C797 C791 1.465 . S
C797 C796 1.396 . S
C797 C798 1.399 . S
C798 H784 0.929 . S
C798 C797 1.399 . S
C798 C799 1.385 . S
C799 H785 0.931 . S
C799 C798 1.385 . S
C799 C800 1.389 . S
C800 C799 1.389 . S
C800 C801 1.387 . S
C801 H786 0.930 . S
C801 C796 1.390 . S
C801 C800 1.387 . S
H802 C814 0.930 . S
H803 C816 0.930 1_545 S
H804 C817 0.930 . S
H805 C821 0.959 . S
H806 C821 0.959 . S
H807 C821 0.961 . S
H808 C822 0.960 . S
H809 C822 0.961 . S
H810 C822 0.959 . S
H811 C825 0.929 . S
H812 C826 0.931 . S
H813 C828 0.930 . S
C814 H802 0.930 . S
C814 C815 1.399 . S
C814 C819 1.399 . S
C815 C814 1.399 . S
C815 C816 1.376 . S
C816 H803 0.930 1_565 S
C816 C815 1.376 . S
C816 C817 1.388 . S
C817 H804 0.930 . S
C817 C816 1.388 . S
C817 C818 1.390 . S
C818 C817 1.390 . S
C818 C819 1.394 . S
C818 C824 1.465 . S
C819 C814 1.399 . S
C819 C818 1.394 . S
C819 C820 1.516 . S
C820 C819 1.516 . S
C820 C821 1.502 . S
C820 C822 1.561 . S
C820 C823 1.526 . S
C821 H805 0.959 . S
C821 H806 0.959 . S
C821 H807 0.961 . S
C821 C820 1.502 . S
C822 H808 0.960 . S
C822 H809 0.961 . S
C822 H810 0.959 . S
C822 C820 1.561 . S
C823 C820 1.526 . S
C823 C824 1.396 . S
C823 C828 1.390 . S
C824 C818 1.465 . S
C824 C823 1.396 . S
C824 C825 1.399 . S
C825 H811 0.929 . S
C825 C824 1.399 . S
C825 C826 1.385 . S
C826 H812 0.931 . S
C826 C825 1.385 . S
C826 C827 1.389 . S
C827 C826 1.389 . S
C827 C828 1.387 . S
C828 H813 0.930 . S
C828 C823 1.390 . S
C828 C827 1.387 . S
H829 C841 0.930 . S
H830 C843 0.930 . S
H831 C844 0.930 . S
H832 C848 0.959 . S
H833 C848 0.959 . S
H834 C848 0.961 . S
H835 C849 0.960 . S
H836 C849 0.961 . S
H837 C849 0.959 . S
H838 C852 0.929 . S
H839 C853 0.931 . S
H840 C855 0.930 . S
C841 H829 0.930 . S
C841 C842 1.399 . S
C841 C846 1.399 . S
C842 C841 1.399 . S
C842 C843 1.376 . S
C843 H830 0.930 . S
C843 C842 1.376 . S
C843 C844 1.388 . S
C844 H831 0.930 . S
C844 C843 1.388 . S
C844 C845 1.390 . S
C845 C844 1.390 . S
C845 C846 1.394 . S
C845 C851 1.465 . S
C846 C841 1.399 . S
C846 C845 1.394 . S
C846 C847 1.516 . S
C847 C846 1.516 . S
C847 C848 1.502 . S
C847 C849 1.561 . S
C847 C850 1.526 . S
C848 H832 0.959 . S
C848 H833 0.959 . S
C848 H834 0.961 . S
C848 C847 1.502 . S
C849 H835 0.960 . S
C849 H836 0.961 . S
C849 H837 0.959 . S
C849 C847 1.561 . S
C850 C847 1.526 . S
C850 C851 1.396 . S
C850 C855 1.390 . S
C851 C845 1.465 . S
C851 C850 1.396 . S
C851 C852 1.399 . S
C852 H838 0.929 . S
C852 C851 1.399 . S
C852 C853 1.385 . S
C853 H839 0.931 . S
C853 C852 1.385 . S
C853 C854 1.389 . S
C854 C853 1.389 . S
C854 C855 1.387 . S
C855 H840 0.930 . S
C855 C850 1.390 . S
C855 C854 1.387 . S
H856 C868 0.930 . S
H857 C870 0.930 . S
H858 C871 0.930 . S
H859 C875 0.959 . S
H860 C875 0.959 . S
H861 C875 0.961 . S
H862 C876 0.960 . S
H863 C876 0.961 . S
H864 C876 0.959 . S
H865 C879 0.929 . S
H866 C880 0.931 . S
H867 C882 0.930 . S
C868 H856 0.930 . S
C868 C869 1.399 . S
C868 C873 1.399 . S
C869 C868 1.399 . S
C869 C870 1.376 . S
C870 H857 0.930 . S
C870 C869 1.376 . S
C870 C871 1.388 . S
C871 H858 0.930 . S
C871 C870 1.388 . S
C871 C872 1.390 . S
C872 C871 1.390 . S
C872 C873 1.394 . S
C872 C878 1.465 . S
C873 C868 1.399 . S
C873 C872 1.394 . S
C873 C874 1.516 . S
C874 C873 1.516 . S
C874 C875 1.502 . S
C874 C876 1.561 . S
C874 C877 1.526 . S
C875 H859 0.959 . S
C875 H860 0.959 . S
C875 H861 0.961 . S
C875 C874 1.502 . S
C876 H862 0.960 . S
C876 H863 0.961 . S
C876 H864 0.959 . S
C876 C874 1.561 . S
C877 C874 1.526 . S
C877 C878 1.396 . S
C877 C882 1.390 . S
C878 C872 1.465 . S
C878 C877 1.396 . S
C878 C879 1.399 . S
C879 H865 0.929 . S
C879 C878 1.399 . S
C879 C880 1.385 . S
C880 H866 0.931 . S
C880 C879 1.385 . S
C880 C881 1.389 . S
C881 C880 1.389 . S
C881 C882 1.387 . S
C882 H867 0.930 . S
C882 C877 1.390 . S
C882 C881 1.387 . S
H883 C895 0.930 . S
H884 C897 0.930 . S
H885 C898 0.930 . S
H886 C902 0.959 . S
H887 C902 0.959 . S
H888 C902 0.961 . S
H889 C903 0.960 . S
H890 C903 0.961 . S
H891 C903 0.959 . S
H892 C906 0.929 . S
H893 C907 0.931 . S
H894 C909 0.930 . S
C895 H883 0.930 . S
C895 C896 1.399 . S
C895 C900 1.399 . S
C896 C895 1.399 . S
C896 C897 1.376 . S
C897 H884 0.930 . S
C897 C896 1.376 . S
C897 C898 1.388 . S
C898 H885 0.930 . S
C898 C897 1.388 . S
C898 C899 1.390 . S
C899 C898 1.390 . S
C899 C900 1.394 . S
C899 C905 1.465 . S
C900 C895 1.399 . S
C900 C899 1.394 . S
C900 C901 1.516 . S
C901 C900 1.516 . S
C901 C902 1.502 . S
C901 C903 1.561 . S
C901 C904 1.526 . S
C902 H886 0.959 . S
C902 H887 0.959 . S
C902 H888 0.961 . S
C902 C901 1.502 . S
C903 H889 0.960 . S
C903 H890 0.961 . S
C903 H891 0.959 . S
C903 C901 1.561 . S
C904 C901 1.526 . S
C904 C905 1.396 . S
C904 C909 1.390 . S
C905 C899 1.465 . S
C905 C904 1.396 . S
C905 C906 1.399 . S
C906 H892 0.929 . S
C906 C905 1.399 . S
C906 C907 1.385 . S
C907 H893 0.931 . S
C907 C906 1.385 . S
C907 C908 1.389 . S
C908 C907 1.389 . S
C908 C909 1.387 . S
C909 H894 0.930 . S
C909 C904 1.390 . S
C909 C908 1.387 . S
H910 C922 0.930 . S
H911 C924 0.930 . S
H912 C925 0.930 . S
H913 C929 0.959 . S
H914 C929 0.959 . S
H915 C929 0.961 . S
H916 C930 0.960 . S
H917 C930 0.961 . S
H918 C930 0.959 . S
H919 C933 0.929 . S
H920 C934 0.931 . S
H921 C936 0.930 . S
C922 H910 0.930 . S
C922 C923 1.399 . S
C922 C927 1.399 . S
C923 C922 1.399 . S
C923 C924 1.376 . S
C924 H911 0.930 . S
C924 C923 1.376 . S
C924 C925 1.388 . S
C925 H912 0.930 . S
C925 C924 1.388 . S
C925 C926 1.390 . S
C926 C925 1.390 . S
C926 C927 1.394 . S
C926 C932 1.465 . S
C927 C922 1.399 . S
C927 C926 1.394 . S
C927 C928 1.516 . S
C928 C927 1.516 . S
C928 C929 1.502 . S
C928 C930 1.561 . S
C928 C931 1.526 . S
C929 H913 0.959 . S
C929 H914 0.959 . S
C929 H915 0.961 . S
C929 C928 1.502 . S
C930 H916 0.960 . S
C930 H917 0.961 . S
C930 H918 0.959 . S
C930 C928 1.561 . S
C931 C928 1.526 . S
C931 C932 1.396 . S
C931 C936 1.390 . S
C932 C926 1.465 . S
C932 C931 1.396 . S
C932 C933 1.399 . S
C933 H919 0.929 . S
C933 C932 1.399 . S
C933 C934 1.385 . S
C934 H920 0.931 . S
C934 C933 1.385 . S
C934 C935 1.389 . S
C935 C934 1.389 . S
C935 C936 1.387 . S
C936 H921 0.930 . S
C936 C931 1.390 . S
C936 C935 1.387 . S
H937 C949 0.930 . S
H938 C951 0.930 . S
H939 C952 0.930 . S
H940 C956 0.959 . S
H941 C956 0.959 . S
H942 C956 0.961 . S
H943 C957 0.960 . S
H944 C957 0.961 . S
H945 C957 0.959 . S
H946 C960 0.929 . S
H947 C961 0.931 . S
H948 C963 0.930 . S
C949 H937 0.930 . S
C949 C950 1.399 . S
C949 C954 1.399 . S
C950 C949 1.399 . S
C950 C951 1.376 . S
C951 H938 0.930 . S
C951 C950 1.376 . S
C951 C952 1.388 . S
C952 H939 0.930 . S
C952 C951 1.388 . S
C952 C953 1.390 . S
C953 C952 1.390 . S
C953 C954 1.394 . S
C953 C959 1.465 . S
C954 C949 1.399 . S
C954 C953 1.394 . S
C954 C955 1.516 . S
C955 C954 1.516 . S
C955 C956 1.502 . S
C955 C957 1.561 . S
C955 C958 1.526 . S
C956 H940 0.959 . S
C956 H941 0.959 . S
C956 H942 0.961 . S
C956 C955 1.502 . S
C957 H943 0.960 . S
C957 H944 0.961 . S
C957 H945 0.959 . S
C957 C955 1.561 . S
C958 C955 1.526 . S
C958 C959 1.396 . S
C958 C963 1.390 . S
C959 C953 1.465 . S
C959 C958 1.396 . S
C959 C960 1.399 . S
C960 H946 0.929 . S
C960 C959 1.399 . S
C960 C961 1.385 . S
C961 H947 0.931 . S
C961 C960 1.385 . S
C961 C962 1.389 . S
C962 C961 1.389 . S
C962 C963 1.387 . S
C963 H948 0.930 . S
C963 C958 1.390 . S
C963 C962 1.387 . S
H964 C976 0.930 . S
H965 C978 0.930 . S
H966 C979 0.930 . S
H967 C983 0.959 . S
H968 C983 0.959 . S
H969 C983 0.961 . S
H970 C984 0.960 . S
H971 C984 0.961 . S
H972 C984 0.959 . S
H973 C987 0.929 . S
H974 C988 0.931 . S
H975 C990 0.930 . S
C976 H964 0.930 . S
C976 C977 1.399 . S
C976 C981 1.399 . S
C977 C976 1.399 . S
C977 C978 1.376 . S
C978 H965 0.930 . S
C978 C977 1.376 . S
C978 C979 1.388 . S
C979 H966 0.930 . S
C979 C978 1.388 . S
C979 C980 1.390 . S
C980 C979 1.390 . S
C980 C981 1.394 . S
C980 C986 1.465 . S
C981 C976 1.399 . S
C981 C980 1.394 . S
C981 C982 1.516 . S
C982 C981 1.516 . S
C982 C983 1.502 . S
C982 C984 1.561 . S
C982 C985 1.526 . S
C983 H967 0.959 . S
C983 H968 0.959 . S
C983 H969 0.961 . S
C983 C982 1.502 . S
C984 H970 0.960 . S
C984 H971 0.961 . S
C984 H972 0.959 . S
C984 C982 1.561 . S
C985 C982 1.526 . S
C985 C986 1.396 . S
C985 C990 1.390 . S
C986 C980 1.465 . S
C986 C985 1.396 . S
C986 C987 1.399 . S
C987 H973 0.929 . S
C987 C986 1.399 . S
C987 C988 1.385 . S
C988 H974 0.931 . S
C988 C987 1.385 . S
C988 C989 1.389 . S
C989 C988 1.389 . S
C989 C990 1.387 . S
C990 H975 0.930 . S
C990 C985 1.390 . S
C990 C989 1.387 . S
H991 C1003 0.930 . S
H992 C1005 0.930 . S
H993 C1006 0.930 . S
H994 C1010 0.959 . S
H995 C1010 0.959 . S
H996 C1010 0.961 . S
H997 C1011 0.960 . S
H998 C1011 0.961 . S
H999 C1011 0.959 . S
H1000 C1014 0.929 . S
H1001 C1015 0.931 . S
H1002 C1017 0.930 . S
C1003 H991 0.930 . S
C1003 C1004 1.399 . S
C1003 C1008 1.399 . S
C1004 C1003 1.399 . S
C1004 C1005 1.376 . S
C1005 H992 0.930 . S
C1005 C1004 1.376 . S
C1005 C1006 1.388 . S
C1006 H993 0.930 . S
C1006 C1005 1.388 . S
C1006 C1007 1.390 . S
C1007 C1006 1.390 . S
C1007 C1008 1.394 . S
C1007 C1013 1.465 . S
C1008 C1003 1.399 . S
C1008 C1007 1.394 . S
C1008 C1009 1.516 . S
C1009 C1008 1.516 . S
C1009 C1010 1.502 . S
C1009 C1011 1.561 . S
C1009 C1012 1.526 . S
C1010 H994 0.959 . S
C1010 H995 0.959 . S
C1010 H996 0.961 . S
C1010 C1009 1.502 . S
C1011 H997 0.960 . S
C1011 H998 0.961 . S
C1011 H999 0.959 . S
C1011 C1009 1.561 . S
C1012 C1009 1.526 . S
C1012 C1013 1.396 . S
C1012 C1017 1.390 . S
C1013 C1007 1.465 . S
C1013 C1012 1.396 . S
C1013 C1014 1.399 . S
C1014 H1000 0.929 . S
C1014 C1013 1.399 . S
C1014 C1015 1.385 . S
C1015 H1001 0.931 . S
C1015 C1014 1.385 . S
C1015 C1016 1.389 . S
C1016 C1015 1.389 . S
C1016 C1017 1.387 . S
C1017 H1002 0.930 . S
C1017 C1012 1.390 . S
C1017 C1016 1.387 . S
H1018 C1030 0.930 . S
H1019 C1032 0.930 . S
H1020 C1033 0.930 . S
H1021 C1037 0.959 . S
H1022 C1037 0.959 . S
H1023 C1037 0.961 . S
H1024 C1038 0.960 . S
H1025 C1038 0.961 . S
H1026 C1038 0.959 . S
H1027 C1041 0.929 . S
H1028 C1042 0.931 . S
H1029 C1044 0.930 . S
C1030 H1018 0.930 . S
C1030 C1031 1.399 . S
C1030 C1035 1.399 . S
C1031 C1030 1.399 . S
C1031 C1032 1.376 . S
C1032 H1019 0.930 . S
C1032 C1031 1.376 . S
C1032 C1033 1.388 . S
C1033 H1020 0.930 . S
C1033 C1032 1.388 . S
C1033 C1034 1.390 . S
C1034 C1033 1.390 . S
C1034 C1035 1.394 . S
C1034 C1040 1.465 . S
C1035 C1030 1.399 . S
C1035 C1034 1.394 . S
C1035 C1036 1.516 . S
C1036 C1035 1.516 . S
C1036 C1037 1.502 . S
C1036 C1038 1.561 . S
C1036 C1039 1.526 . S
C1037 H1021 0.959 . S
C1037 H1022 0.959 . S
C1037 H1023 0.961 . S
C1037 C1036 1.502 . S
C1038 H1024 0.960 . S
C1038 H1025 0.961 . S
C1038 H1026 0.959 . S
C1038 C1036 1.561 . S
C1039 C1036 1.526 . S
C1039 C1040 1.396 . S
C1039 C1044 1.390 . S
C1040 C1034 1.465 . S
C1040 C1039 1.396 . S
C1040 C1041 1.399 . S
C1041 H1027 0.929 . S
C1041 C1040 1.399 . S
C1041 C1042 1.385 . S
C1042 H1028 0.931 . S
C1042 C1041 1.385 . S
C1042 C1043 1.389 . S
C1043 C1042 1.389 . S
C1043 C1044 1.387 . S
C1044 H1029 0.930 . S
C1044 C1039 1.390 . S
C1044 C1043 1.387 . S
H1045 C1057 0.930 . S
H1046 C1059 0.930 . S
H1047 C1060 0.930 . S
H1048 C1064 0.959 . S
H1049 C1064 0.959 . S
H1050 C1064 0.961 . S
H1051 C1065 0.960 . S
H1052 C1065 0.961 . S
H1053 C1065 0.959 . S
H1054 C1068 0.929 . S
H1055 C1069 0.931 . S
H1056 C1071 0.930 . S
C1057 H1045 0.930 . S
C1057 C1058 1.399 . S
C1057 C1062 1.399 . S
C1058 C1057 1.399 . S
C1058 C1059 1.376 . S
C1059 H1046 0.930 . S
C1059 C1058 1.376 . S
C1059 C1060 1.388 . S
C1060 H1047 0.930 . S
C1060 C1059 1.388 . S
C1060 C1061 1.390 . S
C1061 C1060 1.390 . S
C1061 C1062 1.394 . S
C1061 C1067 1.465 . S
C1062 C1057 1.399 . S
C1062 C1061 1.394 . S
C1062 C1063 1.516 . S
C1063 C1062 1.516 . S
C1063 C1064 1.502 . S
C1063 C1065 1.561 . S
C1063 C1066 1.526 . S
C1064 H1048 0.959 . S
C1064 H1049 0.959 . S
C1064 H1050 0.961 . S
C1064 C1063 1.502 . S
C1065 H1051 0.960 . S
C1065 H1052 0.961 . S
C1065 H1053 0.959 . S
C1065 C1063 1.561 . S
C1066 C1063 1.526 . S
C1066 C1067 1.396 . S
C1066 C1071 1.390 . S
C1067 C1061 1.465 . S
C1067 C1066 1.396 . S
C1067 C1068 1.399 . S
C1068 H1054 0.929 . S
C1068 C1067 1.399 . S
C1068 C1069 1.385 . S
C1069 H1055 0.931 . S
C1069 C1068 1.385 . S
C1069 C1070 1.389 . S
C1070 C1069 1.389 . S
C1070 C1071 1.387 . S
C1071 H1056 0.930 . S
C1071 C1066 1.390 . S
C1071 C1070 1.387 . S
C233 C120 1.268 . S
C221 C5 1.255 . S
C260 C134 1.288 . S
C248 C18 1.262 . S
C287 C147 1.285 . S
C275 C31 1.257 . S
C302 C42 1.294 . S
C314 C114 1.294 . S
C329 C57 1.270 . S
C341 C107 1.262 . S
C356 C70 1.258 . S
C368 C127 1.277 . S
C395 C135 1.254 . S
C383 C81 1.250 . S
C422 C148 1.256 . S
C410 C96 1.265 . S
C437 C29 1.239 . S
C449 C174 1.247 . S
C476 C192 1.249 . S
C464 C44 1.289 . S
C491 C3 1.240 . S
C503 C199 1.243 . S
C530 C166 1.258 . S
C518 C16 1.251 . S
C545 C83 1.290 . S
C557 C159 1.290 . S
C572 C94 1.240 . S
C584 C173 1.246 . S
C611 C185 1.249 . S
C599 C55 1.243 . S
C626 C68 1.288 . S
C638 C200 1.288 . S
C665 C133 1.507 . S
C653 C1 1.527 . S
C692 C146 1.543 . S
C680 C14 1.530 . S
C707 C27 1.494 . S
C719 C109 1.551 . S
C734 C49 1.557 . S
C746 C121 1.529 . S
C761 C53 1.491 . S
C773 C153 1.541 . S
C800 C108 1.537 . S
C788 C66 1.504 . S
C827 C122 1.498 . S
C815 C88 1.544 . S
C854 C140 1.533 . S
C842 C92 1.520 . S
C881 C187 1.555 . S
C869 C36 1.553 . S
C908 C198 1.549 . S
C896 C40 1.521 . S
C923 C10 1.542 . S
C935 C161 1.498 . S
C962 C179 1.538 . S
C950 C23 1.554 . S
C989 C205 1.510 . S
C977 C79 1.495 . S
C1004 C101 1.530 . S
C1016 C160 1.489 . S
C1043 C172 1.531 . S
C1031 C62 1.533 . S
C1070 C186 1.489 . S
C1058 C75 1.537 . S
