# Generated by pormake.
# Topology scu, (8,4)-cn, num edge types: 1
# Building blocks:
#     Node 0, Type 0, BuildingBlock: TAGTUT_clean_sbu_3, # of connection points: 8
#     Node 1, Type 1, BuildingBlock: KOZSID_clean_sbu_0, # of connection points: 4
#     Node 2, Type 1, BuildingBlock: KOZSID_clean_sbu_0, # of connection points: 4
#     Edge 3, Type (0, 1), BuildingBlock: MIFKUJ_clean_linker_0, # of connection points: 2
#     Edge 4, Type (0, 1), BuildingBlock: MIFKUJ_clean_linker_0, # of connection points: 2
#     Edge 5, Type (0, 1), BuildingBlock: MIFKUJ_clean_linker_0, # of connection points: 2
#     Edge 6, Type (0, 1), BuildingBlock: MIFKUJ_clean_linker_0, # of connection points: 2
#     Edge 7, Type (0, 1), BuildingBlock: MIFKUJ_clean_linker_0, # of connection points: 2
#     Edge 8, Type (0, 1), BuildingBlock: MIFKUJ_clean_linker_0, # of connection points: 2
#     Edge 9, Type (0, 1), BuildingBlock: MIFKUJ_clean_linker_0, # of connection points: 2
#     Edge 10, Type (0, 1), BuildingBlock: MIFKUJ_clean_linker_0, # of connection points: 2
# Relax obj value: 0.024
# Max RMSD: 0.105
# Mean RMSD: 0.060
data_MOF--net-scu--node1-TAGTUT_clean_sbu_3--node2-KOZSID_clean_sbu_0--edge1-MIFKUJ_clean_linker_0
_symmetry_space_group_name_H-M    P1
_symmetry_Int_Tables_number       1
_symmetry_cell_setting            triclinic
loop_
_symmetry_equiv_pos_as_xyz
'x, y, z'
_cell_length_a     38.186637
_cell_length_b     32.806196
_cell_length_c     26.591523
_cell_angle_alpha  86.09503
_cell_angle_beta   87.773975
_cell_angle_gamma 90.019244
loop_
_atom_site_label
_atom_site_type_symbol
_atom_site_fract_x
_atom_site_fract_y
_atom_site_fract_z
_atom_type_partial_charge
C0 C 0.00399 0.91713 0.07444 0.0
C1 C 0.87848 0.9846 0.08099 0.0
C2 C 0.90161 0.01906 0.92424 0.0
Mg3 Mg 0.07385 0.94416 0.00395 0.0
Mg4 Mg 0.08643 0.04187 0.97418 0.0
O5 O 0.05706 0.99653 0.96915 0.0
Mg6 Mg 0.00826 -0.00078 0.99934 0.0
O7 O 0.95946 0.99797 0.02988 0.0
Mg8 Mg 0.94049 0.94758 0.00158 0.0
Mg9 Mg 0.93136 0.04475 0.02333 0.0
C10 C 0.01815 0.08474 0.9289 0.0
O11 O 0.02058 0.0504 0.05116 0.0
O12 O 0.12333 0.95089 0.94846 0.0
O13 O 0.97068 0.08761 0.04658 0.0
O14 O 0.10516 0.97562 0.0621 0.0
O15 O 0.12781 0.01861 0.9273 0.0
O16 O 0.10575 0.04336 0.05014 0.0
O17 O 0.99144 0.94899 0.94995 0.0
O18 O 0.04108 0.91313 0.94711 0.0
C19 C 0.00932 0.91895 0.9344 0.0
C20 C 0.13821 0.98173 0.92359 0.0
O21 O 0.9984 0.05359 0.94179 0.0
O22 O 0.89142 0.95482 0.05702 0.0
O23 O 0.05026 0.08693 0.94164 0.0
O24 O 0.91085 0.98287 0.93864 0.0
O25 O 0.89082 0.02105 0.07523 0.0
O26 O 0.90843 0.04945 0.94981 0.0
O27 O 0.02286 0.94659 0.05441 0.0
O28 O 0.97189 0.91303 0.06315 0.0
C29 C 0.11396 0.01061 0.07568 0.0
C30 C 1.00276 0.08281 0.05907 0.0
C31 C 0.05972 0.55838 0.44641 0.0
C32 C 0.09408 0.572 0.44815 0.0
C33 C 0.10901 0.54938 0.4865 0.0
C34 C 0.08297 0.52368 0.50627 0.0
N35 N 0.05238 0.52798 0.48245 0.0
Co36 Co 0.00673 0.49979 0.50256 0.0
N37 N 0.02817 0.46864 0.56108 0.0
C38 C 0.06216 0.46915 0.57355 0.0
C39 C 0.06943 0.44347 0.61459 0.0
C40 C 0.03831 0.42496 0.62886 0.0
C41 C 0.01377 0.4405 0.59548 0.0
N42 N 0.96063 0.47326 0.52412 0.0
C43 C 0.95233 0.44593 0.56331 0.0
C44 C 0.91698 0.4358 0.56522 0.0
C45 C 0.90243 0.45736 0.52564 0.0
C46 C 0.92957 0.47938 0.502 0.0
N47 N 0.98569 0.52951 0.44279 0.0
C48 C 0.95279 0.52522 0.42678 0.0
C49 C 0.94621 0.54876 0.38363 0.0
C50 C 0.97662 0.56966 0.37163 0.0
C51 C 0.99997 0.55789 0.40863 0.0
N52 N 0.019 0.45389 0.46 0.0
C53 C 0.03573 0.38849 0.40011 0.0
C54 C 1.00115 0.40115 0.4071 0.0
C55 C 0.99346 0.43376 0.43657 0.0
C56 C 0.06195 0.40911 0.42327 0.0
C57 C 0.05304 0.44124 0.45331 0.0
N58 N 0.99448 0.54557 0.54483 0.0
C59 C 0.95542 0.60025 0.56663 0.0
C60 C 0.97856 0.61291 0.60189 0.0
C61 C 0.00945 0.59072 0.60881 0.0
C62 C 0.01682 0.55747 0.58016 0.0
C63 C 0.96381 0.56676 0.53874 0.0
H64 H 0.04089 0.54205 0.58699 0.0
H65 H 0.94528 0.55888 0.51204 0.0
H66 H 0.96661 0.44204 0.43957 0.0
H67 H 0.07416 0.4552 0.47072 0.0
C68 C 0.08627 0.49549 0.54748 0.0
C69 C 0.03468 0.57613 0.41115 0.0
C70 C 0.97729 0.4271 0.59774 0.0
C71 C 0.92758 0.50265 0.45622 0.0
H72 H 0.107 0.59623 0.42483 0.0
H73 H 0.13548 0.55193 0.49912 0.0
H74 H 0.09435 0.43891 0.63219 0.0
H75 H 0.03415 0.40248 0.66026 0.0
H76 H 0.90332 0.41427 0.59173 0.0
H77 H 0.87552 0.4561 0.51445 0.0
H78 H 0.92182 0.55156 0.36428 0.0
H79 H 0.98085 0.59191 0.34001 0.0
H80 H 0.98004 0.38638 0.3891 0.0
H81 H 0.08914 0.40013 0.41884 0.0
H82 H 0.93126 0.61661 0.55968 0.0
H83 H 0.02792 0.59883 0.6364 0.0
C84 C 0.46165 0.96827 0.59068 0.0
C85 C 0.44966 0.93114 0.61337 0.0
C86 C 0.46578 0.90125 0.58804 0.0
C87 C 0.48628 0.92161 0.55118 0.0
N88 N 0.48467 0.96279 0.55161 0.0
Co89 Co 0.5077 0.00381 0.5013 0.0
N90 N 0.52964 0.95949 0.4623 0.0
C91 C 0.5268 0.91874 0.47335 0.0
C92 C 0.54665 0.89577 0.44205 0.0
C93 C 0.56371 0.92344 0.40934 0.0
C94 C 0.55297 0.96194 0.42239 0.0
N95 N 0.53009 0.04474 0.45029 0.0
C96 C 0.55263 0.0391 0.4107 0.0
C97 C 0.56205 0.07588 0.38482 0.0
C98 C 0.54554 0.10594 0.40965 0.0
C99 C 0.52686 0.08588 0.4489 0.0
N100 N 0.4864 0.0481 0.54092 0.0
C101 C 0.4907 0.08888 0.5314 0.0
C102 C 0.47272 0.1117 0.56511 0.0
C103 C 0.45564 0.08389 0.59785 0.0
C104 C 0.46406 0.04556 0.58197 0.0
N105 N 0.55025 0.00479 0.54247 0.0
C106 C 0.61171 0.00679 0.59826 0.0
C107 C 0.59894 0.04209 0.57322 0.0
C108 C 0.56831 0.04053 0.54635 0.0
C109 C 0.59303 0.9704 0.59541 0.0
C110 C 0.5628 0.96999 0.56708 0.0
N111 N 0.46506 0.00319 0.46025 0.0
C112 C 0.41845 0.0398 0.41756 0.0
C113 C 0.40212 0.00337 0.40706 0.0
C114 C 0.41846 0.96671 0.42284 0.0
C115 C 0.4497 0.96732 0.44892 0.0
C116 C 0.44939 0.03902 0.44395 0.0
H117 H 0.46075 0.9384 0.46 0.0
H118 H 0.45994 0.06795 0.45096 0.0
H119 H 0.55989 0.06877 0.52897 0.0
H120 H 0.55015 0.94116 0.56538 0.0
C121 C 0.50637 0.90291 0.51457 0.0
C122 C 0.44922 0.0078 0.60612 0.0
C123 C 0.56704 -0.00014 0.39753 0.0
C124 C 0.50907 0.10481 0.48793 0.0
H125 H 0.4306 0.92586 0.64425 0.0
H126 H 0.46225 0.86857 0.59483 0.0
H127 H 0.54919 0.86285 0.44372 0.0
H128 H 0.5826 0.91588 0.38012 0.0
H129 H 0.57977 0.08051 0.35215 0.0
H130 H 0.54789 0.13859 0.40119 0.0
H131 H 0.47131 0.14466 0.56497 0.0
H132 H 0.43833 0.09097 0.62925 0.0
H133 H 0.61228 0.07109 0.57494 0.0
H134 H 0.60209 0.94221 0.61413 0.0
H135 H 0.4076 0.06913 0.40521 0.0
H136 H 0.40697 0.93753 0.41599 0.0
H137 H 0.99417 0.16429 0.04 0.0
H138 H 0.01347 0.21881 0.09059 0.0
H139 H 0.06535 0.12992 0.18917 0.0
H140 H 0.04767 0.07557 0.13662 0.0
H141 H 0.99088 0.22705 0.17867 0.0
H142 H 0.12548 0.17834 0.26193 0.0
H143 H 0.18041 0.1453 0.23514 0.0
H144 H 0.15984 0.17808 0.08006 0.0
H145 H 0.10542 0.21263 0.10589 0.0
H146 H 0.00524 0.31344 0.40533 0.0
H147 H 0.01179 0.26128 0.34427 0.0
H148 H 0.09028 0.33515 0.25999 0.0
H149 H 0.0843 0.38723 0.32192 0.0
H150 H 0.10406 0.25203 0.25689 0.0
H151 H 0.00898 0.34405 0.22589 0.0
H152 H 0.9559 0.38249 0.2488 0.0
H153 H 0.90046 0.26999 0.28667 0.0
H154 H 0.95343 0.23087 0.26479 0.0
C155 C 0.01036 0.15659 0.07185 0.0
C156 C 0.01904 0.1158 0.085 0.0
C157 C 0.02139 0.18772 0.10076 0.0
C158 C 0.04062 0.17859 0.1441 0.0
C159 C 0.05095 0.13797 0.15565 0.0
C160 C 0.04065 0.10686 0.12582 0.0
C161 C 0.04557 0.21056 0.18028 0.0
C162 C 0.01582 0.23252 0.19526 0.0
C163 C 0.0781 0.21814 0.20202 0.0
C164 C 0.11102 0.19771 0.18592 0.0
C165 C 0.13274 0.17877 0.22211 0.0
C166 C 0.16386 0.15985 0.20709 0.0
C167 C 0.17351 0.1594 0.15592 0.0
C168 C 0.15224 0.17827 0.11968 0.0
C169 C 0.12126 0.1976 0.13451 0.0
C170 C 0.02433 0.31818 0.37426 0.0
C171 C 0.0439 0.35451 0.36779 0.0
C172 C 0.02813 0.28839 0.33952 0.0
C173 C 0.05103 0.29475 0.29712 0.0
C174 C 0.07243 0.32971 0.29242 0.0
C175 C 0.06894 0.35942 0.32766 0.0
C176 C 0.04933 0.26732 0.25524 0.0
C177 C 0.07944 0.24639 0.23954 0.0
C178 C 0.01738 0.26115 0.23169 0.0
C179 C 0.98525 0.28455 0.24405 0.0
C180 C 0.98553 0.32752 0.23937 0.0
C181 C 0.95546 0.34942 0.25217 0.0
C182 C 0.92484 0.32869 0.26926 0.0
C183 C 0.92421 0.286 0.27346 0.0
C184 C 0.95424 0.26395 0.26083 0.0
H185 H 0.90159 0.34571 0.27917 0.0
H186 H 0.19749 0.14447 0.14439 0.0
H187 H 0.86388 0.02267 0.16661 0.0
H188 H 0.81025 0.01798 0.21986 0.0
H189 H 0.76889 0.92824 0.1267 0.0
H190 H 0.82322 0.93212 0.07353 0.0
H191 H 0.72437 0.00091 0.14533 0.0
H192 H 0.78767 0.8936 0.2338 0.0
H193 H 0.83875 0.86306 0.27587 0.0
H194 H 0.8329 0.95387 0.38477 0.0
H195 H 0.78209 0.98535 0.34289 0.0
H196 H 0.57047 0.97022 0.30397 0.0
H197 H 0.62286 0.96227 0.24927 0.0
H198 H 0.68529 0.02024 0.35627 0.0
H199 H 0.63308 0.02618 0.41197 0.0
H200 H 0.71845 0.95723 0.32778 0.0
H201 H 0.66101 0.06868 0.23992 0.0
H202 H 0.61239 0.10509 0.19832 0.0
H203 H 0.60971 0.01463 0.08917 0.0
H204 H 0.65802 0.97734 0.13058 0.0
C205 C 0.84358 0.00148 0.15784 0.0
C206 C 0.84767 0.97774 0.11594 0.0
C207 C 0.81301 0.99882 0.18832 0.0
C208 C 0.78567 0.97282 0.17714 0.0
C209 C 0.7898 0.94845 0.13588 0.0
C210 C 0.82084 0.95048 0.10583 0.0
C211 C 0.7523 0.9731 0.20741 0.0
C212 C 0.72271 0.99057 0.18499 0.0
C213 C 0.75077 0.96103 0.25948 0.0
C214 C 0.78122 0.94203 0.28493 0.0
C215 C 0.79745 0.90728 0.26646 0.0
C216 C 0.82633 0.88975 0.29033 0.0
C217 C 0.83911 0.90656 0.33291 0.0
C218 C 0.82299 0.94089 0.35177 0.0
C219 C 0.79412 0.95856 0.32801 0.0
C220 C 0.59545 0.98135 0.31545 0.0
C221 C 0.59803 0.99853 0.36206 0.0
C222 C 0.62532 0.97704 0.28417 0.0
C223 C 0.65812 0.99091 0.29837 0.0
C224 C 0.66039 0.0091 0.34452 0.0
C225 C 0.63061 0.01281 0.37612 0.0
C226 C 0.69025 0.9855 0.26595 0.0
C227 C 0.71974 0.96719 0.288 0.0
C228 C 0.69191 0.9976 0.21371 0.0
C229 C 0.66287 0.01997 0.1887 0.0
C230 C 0.64986 0.05637 0.2073 0.0
C231 C 0.62239 0.0772 0.18371 0.0
C232 C 0.6079 0.06212 0.14122 0.0
C233 C 0.62092 0.02623 0.12214 0.0
C234 C 0.64836 0.00524 0.14564 0.0
H235 H 0.58664 0.0783 0.123 0.0
H236 H 0.86147 0.89295 0.35133 0.0
H237 H 0.0714 0.8884 0.07926 0.0
H238 H 0.09314 0.83481 0.1395 0.0
H239 H 0.9914 0.82764 0.21584 0.0
H240 H 0.96931 0.87974 0.15524 0.0
H241 H 0.05825 0.82761 0.27952 0.0
H242 H 0.99868 0.76396 0.14046 0.0
H243 H 0.99408 0.75426 0.04973 0.0
H244 H 0.10156 0.71594 0.04131 0.0
H245 H 0.10686 0.72601 0.13193 0.0
H246 H 0.00388 0.65003 0.41735 0.0
H247 H 0.01457 0.712 0.36263 0.0
H248 H 0.09634 0.65024 0.28084 0.0
H249 H 0.08403 0.58737 0.33414 0.0
H250 H 0.0594 0.68844 0.21707 0.0
H251 H 0.11406 0.73077 0.36005 0.0
H252 H 0.12267 0.74166 0.44954 0.0
H253 H 0.03397 0.82201 0.45137 0.0
H254 H 0.02445 0.81114 0.3621 0.0
C255 C 0.05389 0.87562 0.10925 0.0
C256 C 0.0186 0.88776 0.11238 0.0
C257 C 0.06633 0.84522 0.14358 0.0
C258 C 0.04382 0.82759 0.18202 0.0
C259 C 0.00915 0.84117 0.18655 0.0
C260 C 0.99652 0.87061 0.15168 0.0
C261 C 0.05463 0.79216 0.21487 0.0
C262 C 0.05878 0.79708 0.2662 0.0
C263 C 0.05669 0.75278 0.19674 0.0
C264 C 0.05328 0.74617 0.14265 0.0
C265 C 0.02138 0.75378 0.11912 0.0
C266 C 0.01863 0.74816 0.06777 0.0
C267 C 0.04754 0.73462 0.03973 0.0
C268 C 0.07921 0.72652 0.06305 0.0
C269 C 0.0821 0.73216 0.11438 0.0
C270 C 0.0243 0.64997 0.38789 0.0
C271 C 0.04336 0.61433 0.37998 0.0
C272 C 0.03074 0.68547 0.35699 0.0
C273 C 0.0569 0.68626 0.3182 0.0
C274 C 0.07625 0.65058 0.31071 0.0
C275 C 0.06936 0.6148 0.34117 0.0
C276 C 0.06155 0.72326 0.28301 0.0
C277 C 0.06018 0.71876 0.23093 0.0
C278 C 0.06287 0.7631 0.30054 0.0
C279 C 0.06847 0.76997 0.35431 0.0
C280 C 0.09624 0.75057 0.37959 0.0
C281 C 0.1013 0.75677 0.43029 0.0
C282 C 0.07886 0.78248 0.45613 0.0
C283 C 0.05135 0.80211 0.43129 0.0
C284 C 0.04615 0.796 0.38059 0.0
H285 H 0.08281 0.78722 0.4954 0.0
H286 H 0.04537 0.7303 0.99998 0.0
H287 H 0.1589 0.95135 0.10662 0.0
H288 H 0.2021 0.95279 0.1707 0.0
H289 H 0.16693 0.0726 0.20693 0.0
H290 H 0.12465 0.0726 0.13927 0.0
H291 H 0.23372 0.07253 0.20541 0.0
H292 H 0.15011 0.98144 0.28717 0.0
H293 H 0.10883 0.92336 0.29664 0.0
H294 H 0.1937 0.83988 0.27449 0.0
H295 H 0.23546 0.89747 0.2641 0.0
H296 H 0.34699 0.05687 0.41488 0.0
H297 H 0.29377 0.06035 0.36672 0.0
H298 H 0.32681 0.9544 0.29027 0.0
H299 H 0.38072 0.95131 0.3371 0.0
H300 H 0.25572 0.95182 0.32258 0.0
H301 H 0.33744 0.04725 0.23337 0.0
H302 H 0.37688 0.10707 0.22571 0.0
H303 H 0.29148 0.18455 0.26753 0.0
H304 H 0.25163 0.12505 0.27619 0.0
C305 C 0.15994 0.97799 0.12847 0.0
C306 C 0.13802 0.01174 0.11807 0.0
C307 C 0.18466 0.97863 0.16557 0.0
C308 C 0.18744 0.01243 0.1948 0.0
C309 C 0.16533 0.04618 0.18495 0.0
C310 C 0.14105 0.04607 0.14653 0.0
C311 C 0.21494 0.01293 0.23325 0.0
C312 C 0.23795 0.04646 0.23179 0.0
C313 C 0.22092 0.9788 0.26762 0.0
C314 C 0.19594 0.94389 0.2746 0.0
C315 C 0.15997 0.95073 0.28406 0.0
C316 C 0.13647 0.91787 0.2896 0.0
C317 C 0.14862 0.87796 0.28611 0.0
C318 C 0.18432 0.87081 0.2772 0.0
C319 C 0.20793 0.90356 0.27157 0.0
C320 C 0.34324 0.03447 0.38749 0.0
C321 C 0.36857 0.00402 0.37967 0.0
C322 C 0.3126 0.03641 0.36018 0.0
C323 C 0.3064 0.00787 0.32455 0.0
C324 C 0.331 0.97673 0.31764 0.0
C325 C 0.36181 0.97492 0.34467 0.0
C326 C 0.27469 0.01089 0.29361 0.0
C327 C 0.25098 0.97804 0.29665 0.0
C328 C 0.26769 0.04588 0.26139 0.0
C329 C 0.29168 0.0816 0.25612 0.0
C330 C 0.32715 0.07697 0.24144 0.0
C331 C 0.34957 0.11084 0.23681 0.0
C332 C 0.33673 0.14956 0.24632 0.0
C333 C 0.30141 0.15452 0.26031 0.0
C334 C 0.27891 0.12074 0.26509 0.0
H335 H 0.35412 0.17574 0.24269 0.0
H336 H 0.13037 0.85257 0.29036 0.0
H337 H 0.04498 0.86584 0.8779 0.0
H338 H 0.02215 0.82159 0.81724 0.0
H339 H 0.91735 0.86411 0.84909 0.0
H340 H 0.9402 0.90967 0.91019 0.0
H341 H 0.93529 0.76825 0.84699 0.0
H342 H 0.93546 0.89579 0.74929 0.0
H343 H 0.95941 0.96322 0.71904 0.0
H344 H 0.0502 0.90588 0.65498 0.0
H345 H 0.02707 0.83811 0.6856 0.0
H346 H 0.91569 0.63613 0.6449 0.0
H347 H 0.90453 0.69503 0.69519 0.0
H348 H 0.0134 0.72993 0.67525 0.0
H349 H 0.02439 0.67235 0.62371 0.0
H350 H 0.97253 0.79564 0.66698 0.0
H351 H 0.98043 0.67346 0.78215 0.0
H352 H 0.96133 0.60505 0.81695 0.0
H353 H 0.85862 0.65164 0.85068 0.0
H354 H 0.87705 0.72025 0.8155 0.0
C355 C 0.01701 0.86588 0.87242 0.0
C356 C 0.99439 0.89137 0.89895 0.0
C357 C 0.00407 0.84059 0.83757 0.0
C358 C 0.9682 0.83983 0.8287 0.0
C359 C 0.94517 0.86448 0.85557 0.0
C360 C 0.95826 0.89047 0.89024 0.0
C361 C 0.95598 0.81294 0.79064 0.0
C362 C 0.94216 0.77459 0.80725 0.0
C363 C 0.96567 0.82121 0.73916 0.0
C364 C 0.97955 0.86185 0.71992 0.0
C365 C 0.96064 0.89756 0.72904 0.0
C366 C 0.97406 0.93585 0.71178 0.0
C367 C 0.00632 0.93884 0.68513 0.0
C368 C 0.02519 0.90352 0.6756 0.0
C369 C 0.01191 0.86514 0.69282 0.0
C370 C 0.9371 0.65674 0.65065 0.0
C371 C 0.97104 0.6493 0.63079 0.0
C372 C 0.93072 0.69022 0.67963 0.0
C373 C 0.9582 0.71667 0.68937 0.0
C374 C 0.99178 0.70995 0.66825 0.0
C375 C 0.99813 0.67669 0.63929 0.0
C376 C 0.95307 0.75024 0.72357 0.0
C377 C 0.964 0.78975 0.70619 0.0
C378 C 0.94094 0.74291 0.77442 0.0
C379 C 0.92995 0.70177 0.79562 0.0
C380 C 0.9537 0.66901 0.79665 0.0
C381 C 0.94302 0.63023 0.8165 0.0
C382 C 0.90874 0.62397 0.83585 0.0
C383 C 0.88512 0.65651 0.83555 0.0
C384 C 0.89567 0.69534 0.81568 0.0
H385 H 0.90052 0.59393 0.8512 0.0
H386 H 0.01668 0.96851 0.67182 0.0
H387 H 0.19451 0.9314 0.93949 0.0
H388 H 0.24914 0.93051 0.88711 0.0
H389 H 0.20487 0.01751 0.77858 0.0
H390 H 0.151 0.01945 0.8312 0.0
H391 H 0.24494 0.948 0.73757 0.0
H392 H 0.25112 0.05623 0.855 0.0
H393 H 0.24875 0.08094 0.94061 0.0
H394 H 0.33234 -0.00028 0.98311 0.0
H395 H 0.3348 0.97408 0.89787 0.0
H396 H 0.38326 0.03407 0.58761 0.0
H397 H 0.33128 0.0271 0.64458 0.0
H398 H 0.39512 0.97506 0.76303 0.0
H399 H 0.44736 0.98418 0.70663 0.0
H400 H 0.3468 0.0188 0.80325 0.0
H401 H 0.347 0.91489 0.68738 0.0
H402 H 0.35081 0.88634 0.60398 0.0
H403 H 0.2575 0.95082 0.56151 0.0
H404 H 0.25347 0.98039 0.64439 0.0
C405 C 0.19631 0.94963 0.90396 0.0
C406 C 0.16873 0.97556 0.88931 0.0
C407 C 0.22745 0.94923 0.87426 0.0
C408 C 0.23094 0.97407 0.82915 0.0
C409 C 0.20261 0.9981 0.81319 0.0
C410 C 0.17196 -0.00075 0.84331 0.0
C411 C 0.2648 0.97784 0.80018 0.0
C412 C 0.26723 0.96357 0.75169 0.0
C413 C 0.29406 0.99714 0.81938 0.0
C414 C 0.29284 0.01289 0.87033 0.0
C415 C 0.26876 0.04338 0.88275 0.0
C416 C 0.26745 0.05761 0.93117 0.0
C417 C 0.2903 0.04181 0.96733 0.0
C418 C 0.3146 0.01186 0.95509 0.0
C419 C 0.31598 0.99748 0.90674 0.0
C420 C 0.38614 0.02202 0.62619 0.0
C421 C 0.41897 0.00915 0.64283 0.0
C422 C 0.35647 0.01758 0.65854 0.0
C423 C 0.35907 -0.0007 0.70767 0.0
C424 C 0.39234 0.98883 0.72521 0.0
C425 C 0.42212 0.99398 0.69309 0.0
C426 C 0.32698 0.98963 0.73982 0.0
C427 C 0.32481 0.00275 0.78903 0.0
C428 C 0.29819 0.96846 0.7216 0.0
C429 C 0.30008 0.95012 0.67201 0.0
C430 C 0.32738 0.92316 0.66018 0.0
C431 C 0.32959 0.9068 0.61298 0.0
C432 C 0.30444 0.91681 0.57744 0.0
C433 C 0.27697 0.94312 0.58908 0.0
C434 C 0.2747 0.95968 0.63618 0.0
H435 H 0.3062 0.90413 0.5409 0.0
H436 H 0.28925 0.05285 0.0048 0.0
H437 H 0.05359 0.15202 0.88818 0.0
H438 H 0.03071 0.21008 0.83855 0.0
H439 H 0.92727 0.15646 0.85089 0.0
H440 H 0.95052 0.09694 0.8991 0.0
H441 H 0.93848 0.1884 0.75991 0.0
H442 H 0.94745 0.23782 0.91976 0.0
H443 H 0.9741 0.24879 0.00073 0.0
H444 H 0.05602 0.32057 0.92303 0.0
H445 H 0.03034 0.30933 0.84145 0.0
H446 H 0.94023 0.42833 0.68726 0.0
H447 H 0.92867 0.37041 0.74942 0.0
H448 H 0.98065 0.28968 0.64889 0.0
H449 H 0.99144 0.34734 0.58686 0.0
H450 H 0.9742 0.328 0.79833 0.0
H451 H 0.95078 0.19275 0.66745 0.0
H452 H 0.91687 0.18002 0.59313 0.0
H453 H 0.85015 0.28173 0.62221 0.0
H454 H 0.88315 0.29464 0.69731 0.0
C455 C 0.02592 0.15239 0.88061 0.0
C456 C 0.00376 0.11988 0.89839 0.0
C457 C 0.0128 0.18588 0.85242 0.0
C458 C 0.97706 0.18823 0.84214 0.0
C459 C 0.95487 0.15555 0.85888 0.0
C460 C 0.96815 0.12162 0.88668 0.0
C461 C 0.96368 0.22458 0.81267 0.0
C462 C 0.94602 0.21899 0.76835 0.0
C463 C 0.97179 0.26468 0.82523 0.0
C464 C 0.98694 0.27263 0.87435 0.0
C465 C 0.97122 0.25584 0.91987 0.0
C466 C 0.98618 0.26207 0.9659 0.0
C467 C 0.01673 0.28536 0.96702 0.0
C468 C 0.03233 0.30257 0.9221 0.0
C469 C 0.01754 0.29632 0.87593 0.0
C470 C 0.94837 0.39793 0.67836 0.0
C471 C 0.96655 0.39184 0.63267 0.0
C472 C 0.94189 0.36498 0.71372 0.0
C473 C 0.95348 0.32557 0.7037 0.0
C474 C 0.97074 0.31953 0.65714 0.0
C475 C 0.97713 0.3524 0.62187 0.0
C476 C 0.95138 0.29155 0.74353 0.0
C477 C 0.96598 0.2976 0.79011 0.0
C478 C 0.93933 0.25212 0.73376 0.0
C479 C 0.91971 0.24487 0.68797 0.0
C480 C 0.92882 0.21236 0.65817 0.0
C481 C 0.90973 0.20509 0.61586 0.0
C482 C 0.88144 0.23011 0.60288 0.0
C483 C 0.87217 0.26247 0.63218 0.0
C484 C 0.89112 0.26984 0.67458 0.0
H485 H 0.86666 0.22439 0.57015 0.0
H486 H 0.02831 0.29008 0.00269 0.0
H487 H 0.89852 0.97043 0.8453 0.0
H488 H 0.8548 0.97193 0.78061 0.0
H489 H 0.80796 0.07879 0.84126 0.0
H490 H 0.85274 0.07848 0.9045 0.0
H491 H 0.79031 0.95854 0.79156 0.0
H492 H 0.75941 0.13197 0.75679 0.0
H493 H 0.79114 0.19771 0.75231 0.0
H494 H 0.88688 0.13716 0.71239 0.0
H495 H 0.85566 0.07114 0.71582 0.0
H496 H 0.62153 0.97781 0.69549 0.0
H497 H 0.6743 0.98304 0.74406 0.0
H498 H 0.72835 0.04354 0.61416 0.0
H499 H 0.67498 0.04003 0.56644 0.0
H500 H 0.74672 0.07914 0.69026 0.0
H501 H 0.74216 0.93881 0.65568 0.0
H502 H 0.71619 0.87027 0.65218 0.0
H503 H 0.70213 0.86022 0.81355 0.0
H504 H 0.7276 0.92895 0.81797 0.0
C505 C 0.87941 0.99486 0.84405 0.0
C506 C 0.87909 0.02434 0.88006 0.0
C507 C 0.85424 0.99555 0.80719 0.0
C508 C 0.82782 0.0254 0.8058 0.0
C509 C 0.8283 0.05582 0.84065 0.0
C510 C 0.85394 0.05561 0.87697 0.0
C511 C 0.79834 0.02263 0.77077 0.0
C512 C 0.78098 0.98496 0.76925 0.0
C513 C 0.78636 0.05672 0.74065 0.0
C514 C 0.8052 0.09651 0.73707 0.0
C515 C 0.78718 0.1327 0.74672 0.0
C516 C 0.80509 0.17001 0.74442 0.0
C517 C 0.84101 0.17156 0.73228 0.0
C518 C 0.85907 0.13587 0.72198 0.0
C519 C 0.84128 0.09849 0.72414 0.0
C520 C 0.64477 0.99199 0.67732 0.0
C521 C 0.64422 0.0083 0.62714 0.0
C522 C 0.67502 0.9949 0.70502 0.0
C523 C 0.70577 0.01309 0.68271 0.0
C524 C 0.70513 0.02942 0.63247 0.0
C525 C 0.67465 0.02726 0.60511 0.0
C526 C 0.73844 0.01518 0.71174 0.0
C527 C 0.75629 0.0527 0.71227 0.0
C528 C 0.75177 0.98059 0.73953 0.0
C529 C 0.73652 0.93917 0.7371 0.0
C530 C 0.73332 0.92209 0.69039 0.0
C531 C 0.71872 0.88319 0.68825 0.0
C532 C 0.70745 0.86094 0.73261 0.0
C533 C 0.71084 0.87751 0.77922 0.0
C534 C 0.72539 0.91641 0.78157 0.0
H535 H 0.69614 0.83084 0.73087 0.0
H536 H 0.85483 0.20041 0.73093 0.0
loop_
_geom_bond_atom_site_label_1
_geom_bond_atom_site_label_2
_geom_bond_distance
_geom_bond_site_symmetry_2
_ccdc_geom_bond_type
C0 O27 1.312 1_655 S
C0 O28 1.208 . S
C1 O22 1.331 . S
C1 O25 1.244 1_565 S
C2 O24 1.264 1_545 S
C2 O26 1.273 . S
Mg3 O5 1.936 1_565 S
Mg3 O12 2.081 . S
Mg3 O14 2.023 1_556 S
Mg3 O18 2.031 . S
Mg3 O27 2.291 1_556 S
Mg4 O5 1.963 . S
Mg4 O15 1.942 . S
Mg4 O16 1.955 1_556 S
Mg4 O23 1.986 . S
O5 Mg3 1.936 1_545 S
O5 Mg4 1.963 . S
O5 Mg6 1.909 1_556 S
Mg6 O5 1.909 1_554 S
Mg6 O7 1.921 1_455 S
Mg6 O11 2.029 . S
Mg6 O17 2.100 1_444 S
Mg6 O21 1.997 1_454 S
Mg6 O27 2.126 1_545 S
O7 Mg6 1.921 1_655 S
O7 Mg8 1.936 1_545 S
O7 Mg9 1.963 . S
Mg8 O7 1.936 1_565 S
Mg8 O17 2.291 1_554 S
Mg8 O22 2.081 . S
Mg8 O24 2.023 1_554 S
Mg8 O28 2.031 . S
Mg9 O7 1.963 . S
Mg9 O13 1.986 . S
Mg9 O25 1.942 . S
Mg9 O26 1.955 1_554 S
C10 O21 1.191 1_455 S
C10 O23 1.307 . S
O11 Mg6 2.029 . S
O11 C30 1.191 1_455 S
O12 Mg3 2.081 . S
O12 C20 1.331 . S
O13 Mg9 1.986 . S
O13 C30 1.307 . S
O14 Mg3 2.023 1_554 S
O14 C29 1.264 1_565 S
O15 Mg4 1.942 . S
O15 C20 1.244 1_545 S
O16 Mg4 1.955 1_554 S
O16 C29 1.273 . S
O17 Mg6 2.100 1_666 S
O17 Mg8 2.291 1_556 S
O17 C19 1.312 1_655 S
O18 Mg3 2.031 . S
O18 C19 1.208 . S
C19 O17 1.312 1_455 S
C19 O18 1.208 . S
C20 O12 1.331 . S
C20 O15 1.244 1_565 S
O21 Mg6 1.997 1_656 S
O21 C10 1.191 1_655 S
O22 C1 1.331 . S
O22 Mg8 2.081 . S
O23 Mg4 1.986 . S
O23 C10 1.307 . S
O24 C2 1.264 1_565 S
O24 Mg8 2.023 1_556 S
O25 C1 1.244 1_545 S
O25 Mg9 1.942 . S
O26 C2 1.273 . S
O26 Mg9 1.955 1_556 S
O27 C0 1.312 1_455 S
O27 Mg3 2.291 1_554 S
O27 Mg6 2.126 1_565 S
O28 C0 1.208 . S
O28 Mg8 2.031 . S
C29 O14 1.264 1_545 S
C29 O16 1.273 . S
C30 O11 1.191 1_655 S
C30 O13 1.307 . S
C31 C32 1.443 . S
C31 N35 1.376 . S
C31 C69 1.389 . S
C32 C31 1.443 . S
C32 C33 1.340 . S
C32 H72 0.951 . S
C33 C32 1.340 . S
C33 C34 1.439 . S
C33 H73 0.950 . S
C34 C33 1.439 . S
C34 N35 1.374 . S
C34 C68 1.395 . S
N35 C31 1.376 . S
N35 C34 1.374 . S
N35 Co36 2.008 . S
Co36 N35 2.008 . S
Co36 N37 1.995 . S
Co36 N42 2.008 1_455 S
Co36 N47 1.995 1_455 S
Co36 N52 2.282 . S
Co36 N58 2.282 . S
N37 Co36 1.995 . S
N37 C38 1.376 . S
N37 C41 1.383 . S
C38 N37 1.376 . S
C38 C39 1.446 . S
C38 C68 1.391 . S
C39 C38 1.446 . S
C39 C40 1.339 . S
C39 H74 0.949 . S
C40 C39 1.339 . S
C40 C41 1.439 . S
C40 H75 0.950 . S
C41 N37 1.383 . S
C41 C40 1.439 . S
C41 C70 1.392 . S
N42 Co36 2.008 1_655 S
N42 C43 1.376 . S
N42 C46 1.374 . S
C43 N42 1.376 . S
C43 C44 1.443 . S
C43 C70 1.389 1_655 S
C44 C43 1.443 . S
C44 C45 1.340 . S
C44 H76 0.951 . S
C45 C44 1.340 . S
C45 C46 1.439 . S
C45 H77 0.950 . S
C46 N42 1.374 . S
C46 C45 1.439 . S
C46 C71 1.395 . S
N47 Co36 1.995 1_655 S
N47 C48 1.376 . S
N47 C51 1.383 . S
C48 N47 1.376 . S
C48 C49 1.446 . S
C48 C71 1.391 . S
C49 C48 1.446 . S
C49 C50 1.339 . S
C49 H78 0.949 . S
C50 C49 1.339 . S
C50 C51 1.439 . S
C50 H79 0.950 . S
C51 N47 1.383 . S
C51 C50 1.439 . S
C51 C69 1.392 1_655 S
N52 Co36 2.282 . S
N52 C55 1.332 1_455 S
N52 C57 1.332 . S
C53 C54 1.386 1_455 S
C53 C56 1.388 . S
C54 C53 1.386 1_655 S
C54 C55 1.382 . S
C54 H80 0.950 . S
C55 N52 1.332 1_655 S
C55 C54 1.382 . S
C55 H66 0.952 . S
C56 C53 1.388 . S
C56 C57 1.382 . S
C56 H81 0.950 . S
C57 N52 1.332 . S
C57 C56 1.382 . S
C57 H67 0.948 . S
N58 Co36 2.282 . S
N58 C62 1.332 . S
N58 C63 1.332 1_455 S
C59 C60 1.388 1_655 S
C59 C63 1.382 . S
C59 H82 0.950 . S
C60 C59 1.388 1_455 S
C60 C61 1.386 . S
C61 C60 1.386 . S
C61 C62 1.382 . S
C61 H83 0.950 . S
C62 N58 1.332 . S
C62 C61 1.382 . S
C62 H64 0.952 . S
C63 N58 1.332 1_655 S
C63 C59 1.382 . S
C63 H65 0.948 . S
H64 C62 0.952 . S
H65 C63 0.948 . S
H66 C55 0.952 . S
H67 C57 0.948 . S
C68 C34 1.395 . S
C68 C38 1.391 . S
C69 C31 1.389 . S
C69 C51 1.392 1_455 S
C70 C41 1.392 . S
C70 C43 1.389 1_455 S
C71 C46 1.395 . S
C71 C48 1.391 . S
H72 C32 0.951 . S
H73 C33 0.950 . S
H74 C39 0.949 . S
H75 C40 0.950 . S
H76 C44 0.951 . S
H77 C45 0.950 . S
H78 C49 0.949 . S
H79 C50 0.950 . S
H80 C54 0.950 . S
H81 C56 0.950 . S
H82 C59 0.950 . S
H83 C61 0.950 . S
C84 C85 1.443 . S
C84 N88 1.376 . S
C84 C122 1.363 1_565 S
C85 C84 1.443 . S
C85 C86 1.340 . S
C85 H125 0.951 . S
C86 C85 1.340 . S
C86 C87 1.439 . S
C86 H126 0.950 . S
C87 C86 1.439 . S
C87 N88 1.374 . S
C87 C121 1.395 . S
N88 C84 1.376 . S
N88 C87 1.374 . S
N88 Co89 2.008 1_565 S
Co89 N88 2.008 1_545 S
Co89 N90 1.995 1_545 S
Co89 N95 2.008 . S
Co89 N100 1.995 . S
Co89 N105 2.282 1_545 S
Co89 N111 2.282 . S
N90 Co89 1.995 1_565 S
N90 C91 1.376 . S
N90 C94 1.383 . S
C91 N90 1.376 . S
C91 C92 1.446 . S
C91 C121 1.391 . S
C92 C91 1.446 . S
C92 C93 1.339 . S
C92 H127 0.949 . S
C93 C92 1.339 . S
C93 C94 1.439 . S
C93 H128 0.950 . S
C94 N90 1.383 . S
C94 C93 1.439 . S
C94 C123 1.392 1_565 S
N95 Co89 2.008 . S
N95 C96 1.376 . S
N95 C99 1.374 . S
C96 N95 1.376 . S
C96 C97 1.443 . S
C96 C123 1.389 . S
C97 C96 1.443 . S
C97 C98 1.340 . S
C97 H129 0.951 . S
C98 C97 1.340 . S
C98 C99 1.439 . S
C98 H130 0.950 . S
C99 N95 1.374 . S
C99 C98 1.439 . S
C99 C124 1.395 . S
N100 Co89 1.995 . S
N100 C101 1.376 . S
N100 C104 1.383 . S
C101 N100 1.376 . S
C101 C102 1.446 . S
C101 C124 1.391 . S
C102 C101 1.446 . S
C102 C103 1.339 . S
C102 H131 0.949 . S
C103 C102 1.339 . S
C103 C104 1.439 . S
C103 H132 0.950 . S
C104 N100 1.383 . S
C104 C103 1.439 . S
C104 C122 1.417 . S
N105 Co89 2.282 1_565 S
N105 C108 1.332 1_565 S
N105 C110 1.332 . S
C106 C107 1.386 . S
C106 C109 1.388 1_545 S
C107 C106 1.386 . S
C107 C108 1.382 . S
C107 H133 0.950 . S
C108 N105 1.332 1_545 S
C108 C107 1.382 . S
C108 H119 0.952 . S
C109 C106 1.388 1_565 S
C109 C110 1.382 . S
C109 H134 0.950 . S
C110 N105 1.332 . S
C110 C109 1.382 . S
C110 H120 0.948 . S
N111 Co89 2.282 . S
N111 C115 1.332 1_545 S
N111 C116 1.332 . S
C112 C113 1.388 . S
C112 C116 1.382 . S
C112 H135 0.950 . S
C113 C112 1.388 . S
C113 C114 1.386 1_545 S
C114 C113 1.386 1_565 S
C114 C115 1.382 . S
C114 H136 0.950 . S
C115 N111 1.332 1_565 S
C115 C114 1.382 . S
C115 H117 0.952 . S
C116 N111 1.332 . S
C116 C112 1.382 . S
C116 H118 0.948 . S
H117 C115 0.952 . S
H118 C116 0.948 . S
H119 C108 0.952 . S
H120 C110 0.948 . S
C121 C87 1.395 . S
C121 C91 1.391 . S
C122 C84 1.363 1_545 S
C122 C104 1.417 . S
C123 C94 1.392 1_545 S
C123 C96 1.389 . S
C124 C99 1.395 . S
C124 C101 1.391 . S
H125 C85 0.951 . S
H126 C86 0.950 . S
H127 C92 0.949 . S
H128 C93 0.950 . S
H129 C97 0.951 . S
H130 C98 0.950 . S
H131 C102 0.949 . S
H132 C103 0.950 . S
H133 C107 0.950 . S
H134 C109 0.950 . S
H135 C112 0.950 . S
H136 C114 0.950 . S
H137 C155 0.951 . S
H138 C157 0.951 . S
H139 C159 0.950 . S
H140 C160 0.950 . S
H141 C162 0.950 . S
H142 C165 0.950 . S
H143 C166 0.950 . S
H144 C168 0.950 . S
H145 C169 0.950 . S
H146 C170 0.951 . S
H147 C172 0.951 . S
H148 C174 0.950 . S
H149 C175 0.950 . S
H150 C177 0.950 . S
H151 C180 0.950 . S
H152 C181 0.950 . S
H153 C183 0.950 . S
H154 C184 0.950 . S
C155 H137 0.951 . S
C155 C156 1.366 . S
C155 C157 1.388 . S
C156 C155 1.366 . S
C156 C160 1.385 1_455 S
C157 H138 0.951 . S
C157 C155 1.388 . S
C157 C158 1.366 . S
C158 C157 1.366 . S
C158 C159 1.414 1_455 S
C158 C161 1.499 . S
C159 H139 0.950 . S
C159 C158 1.414 1_655 S
C159 C160 1.374 . S
C160 H140 0.950 . S
C160 C156 1.385 1_655 S
C160 C159 1.374 . S
C161 C158 1.499 . S
C161 C162 1.373 1_455 S
C161 C163 1.389 . S
C162 H141 0.950 . S
C162 C161 1.373 1_655 S
C162 C178 1.377 . S
C163 C161 1.389 . S
C163 C164 1.524 . S
C163 C177 1.377 . S
C164 C163 1.524 . S
C164 C165 1.397 . S
C164 C169 1.363 . S
C165 H142 0.950 . S
C165 C164 1.397 . S
C165 C166 1.334 . S
C166 H143 0.950 . S
C166 C165 1.334 . S
C166 C167 1.287 . S
C167 C166 1.287 . S
C167 C168 1.524 . S
C167 H186 0.913 . S
C168 H144 0.950 . S
C168 C167 1.524 . S
C168 C169 1.415 . S
C169 H145 0.950 . S
C169 C164 1.363 . S
C169 C168 1.415 . S
C170 H146 0.951 . S
C170 C171 1.366 1_655 S
C170 C172 1.388 . S
C171 C170 1.366 1_455 S
C171 C175 1.385 . S
C172 H147 0.951 . S
C172 C170 1.388 . S
C172 C173 1.366 1_655 S
C173 C172 1.366 1_455 S
C173 C174 1.414 . S
C173 C176 1.499 . S
C174 H148 0.950 . S
C174 C173 1.414 . S
C174 C175 1.374 . S
C175 H149 0.950 . S
C175 C171 1.385 . S
C175 C174 1.374 . S
C176 C173 1.499 . S
C176 C177 1.373 . S
C176 C178 1.389 1_455 S
C177 H150 0.950 . S
C177 C163 1.377 . S
C177 C176 1.373 . S
C178 C162 1.377 . S
C178 C176 1.389 1_655 S
C178 C179 1.524 . S
C179 C178 1.524 . S
C179 C180 1.397 . S
C179 C184 1.363 . S
C180 H151 0.950 . S
C180 C179 1.397 . S
C180 C181 1.334 . S
C181 H152 0.950 . S
C181 C180 1.334 . S
C181 C182 1.287 . S
C182 C181 1.287 . S
C182 C183 1.524 . S
C182 H185 0.999 . S
C183 H153 0.950 . S
C183 C182 1.524 . S
C183 C184 1.415 . S
C184 H154 0.950 . S
C184 C179 1.363 . S
C184 C183 1.415 . S
H185 C182 0.999 . S
H186 C167 0.913 . S
H187 C205 0.951 . S
H188 C207 0.951 . S
H189 C209 0.950 . S
H190 C210 0.950 . S
H191 C212 0.950 . S
H192 C215 0.950 . S
H193 C216 0.950 . S
H194 C218 0.950 . S
H195 C219 0.950 . S
H196 C220 0.951 . S
H197 C222 0.951 . S
H198 C224 0.950 . S
H199 C225 0.950 . S
H200 C227 0.950 . S
H201 C230 0.950 . S
H202 C231 0.950 . S
H203 C233 0.950 . S
H204 C234 0.950 . S
C205 H187 0.951 . S
C205 C206 1.366 1_545 S
C205 C207 1.388 . S
C206 C205 1.366 1_565 S
C206 C210 1.385 . S
C207 H188 0.951 . S
C207 C205 1.388 . S
C207 C208 1.366 1_545 S
C208 C207 1.366 1_565 S
C208 C209 1.414 . S
C208 C211 1.499 . S
C209 H189 0.950 . S
C209 C208 1.414 . S
C209 C210 1.374 . S
C210 H190 0.950 . S
C210 C206 1.385 . S
C210 C209 1.374 . S
C211 C208 1.499 . S
C211 C212 1.373 1_565 S
C211 C213 1.389 . S
C212 H191 0.950 . S
C212 C211 1.373 1_545 S
C212 C228 1.377 . S
C213 C211 1.389 . S
C213 C214 1.524 . S
C213 C227 1.377 . S
C214 C213 1.524 . S
C214 C215 1.397 . S
C214 C219 1.363 . S
C215 H192 0.950 . S
C215 C214 1.397 . S
C215 C216 1.334 . S
C216 H193 0.950 . S
C216 C215 1.334 . S
C216 C217 1.287 . S
C217 C216 1.287 . S
C217 C218 1.524 . S
C217 H236 0.913 . S
C218 H194 0.950 . S
C218 C217 1.524 . S
C218 C219 1.415 . S
C219 H195 0.950 . S
C219 C214 1.363 . S
C219 C218 1.415 . S
C220 H196 0.951 . S
C220 C221 1.361 1_565 S
C220 C222 1.388 . S
C221 C220 1.361 1_545 S
C221 C225 1.389 . S
C222 H197 0.951 . S
C222 C220 1.388 . S
C222 C223 1.362 1_565 S
C223 C222 1.362 1_545 S
C223 C224 1.418 . S
C223 C226 1.498 1_545 S
C224 H198 0.950 . S
C224 C223 1.418 . S
C224 C225 1.374 . S
C225 H199 0.950 . S
C225 C221 1.389 . S
C225 C224 1.374 . S
C226 C223 1.498 1_565 S
C226 C227 1.375 . S
C226 C228 1.388 1_565 S
C227 H200 0.950 . S
C227 C213 1.377 . S
C227 C226 1.375 . S
C228 C212 1.377 . S
C228 C226 1.388 1_545 S
C228 C229 1.524 . S
C229 C228 1.524 . S
C229 C230 1.397 . S
C229 C234 1.363 . S
C230 H201 0.950 . S
C230 C229 1.397 . S
C230 C231 1.334 . S
C231 H202 0.950 . S
C231 C230 1.334 . S
C231 C232 1.287 . S
C232 C231 1.287 . S
C232 C233 1.524 . S
C232 H235 0.999 . S
C233 H203 0.950 . S
C233 C232 1.524 . S
C233 C234 1.415 . S
C234 H204 0.950 . S
C234 C229 1.363 . S
C234 C233 1.415 . S
H235 C232 0.999 . S
H236 C217 0.913 . S
H237 C255 0.951 . S
H238 C257 0.951 . S
H239 C259 0.950 . S
H240 C260 0.950 . S
H241 C262 0.953 . S
H242 C265 0.950 . S
H243 C266 0.950 . S
H244 C268 0.950 . S
H245 C269 0.950 . S
H246 C270 0.951 . S
H247 C272 0.951 . S
H248 C274 0.950 . S
H249 C275 0.950 . S
H250 C277 0.950 . S
H251 C280 0.950 . S
H252 C281 0.950 . S
H253 C283 0.950 . S
H254 C284 0.950 . S
C255 H237 0.951 . S
C255 C256 1.366 . S
C255 C257 1.388 . S
C256 C255 1.366 . S
C256 C260 1.385 1_455 S
C257 H238 0.951 . S
C257 C255 1.388 . S
C257 C258 1.366 . S
C258 C257 1.366 . S
C258 C259 1.414 1_455 S
C258 C261 1.499 . S
C259 H239 0.950 . S
C259 C258 1.414 1_655 S
C259 C260 1.374 . S
C260 H240 0.950 . S
C260 C256 1.385 1_655 S
C260 C259 1.374 . S
C261 C258 1.499 . S
C261 C262 1.373 1_455 S
C261 C263 1.389 . S
C262 H241 0.953 . S
C262 C261 1.373 1_655 S
C262 C278 1.375 1_655 S
C263 C261 1.389 . S
C263 C264 1.524 . S
C263 C277 1.377 . S
C264 C263 1.524 . S
C264 C265 1.397 1_455 S
C264 C269 1.363 . S
C265 H242 0.950 . S
C265 C264 1.397 1_655 S
C265 C266 1.334 . S
C266 H243 0.950 . S
C266 C265 1.334 . S
C266 C267 1.283 1_655 S
C267 C266 1.283 1_455 S
C267 C268 1.529 . S
C267 H286 0.911 1_455 S
C268 H244 0.950 . S
C268 C267 1.529 . S
C268 C269 1.415 . S
C269 H245 0.950 . S
C269 C264 1.363 . S
C269 C268 1.415 . S
C270 H246 0.951 . S
C270 C271 1.366 1_655 S
C270 C272 1.388 . S
C271 C270 1.366 1_455 S
C271 C275 1.385 . S
C272 H247 0.951 . S
C272 C270 1.388 . S
C272 C273 1.366 1_655 S
C273 C272 1.366 1_455 S
C273 C274 1.414 . S
C273 C276 1.499 . S
C274 H248 0.950 . S
C274 C273 1.414 . S
C274 C275 1.374 . S
C275 H249 0.950 . S
C275 C271 1.385 . S
C275 C274 1.374 . S
C276 C273 1.499 . S
C276 C277 1.373 . S
C276 C278 1.389 . S
C277 H250 0.950 . S
C277 C263 1.377 . S
C277 C276 1.373 . S
C278 C262 1.375 1_455 S
C278 C276 1.389 . S
C278 C279 1.524 . S
C279 C278 1.524 . S
C279 C280 1.422 . S
C279 C284 1.341 1_455 S
C280 H251 0.950 . S
C280 C279 1.422 . S
C280 C281 1.334 . S
C281 H252 0.950 . S
C281 C280 1.334 . S
C281 C282 1.287 . S
C282 C281 1.287 . S
C282 C283 1.524 1_455 S
C282 H285 0.999 . S
C283 H253 0.950 . S
C283 C282 1.524 1_655 S
C283 C284 1.415 . S
C284 H254 0.950 . S
C284 C279 1.341 1_655 S
C284 C283 1.415 . S
H285 C282 0.999 . S
H286 C267 0.911 1_655 S
H287 C305 0.951 . S
H288 C307 0.951 . S
H289 C309 0.950 . S
H290 C310 0.950 . S
H291 C312 0.950 . S
H292 C315 0.950 . S
H293 C316 0.950 . S
H294 C318 0.950 . S
H295 C319 0.950 . S
H296 C320 0.951 . S
H297 C322 0.951 . S
H298 C324 0.950 . S
H299 C325 0.950 . S
H300 C327 0.950 . S
H301 C330 0.950 . S
H302 C331 0.950 . S
H303 C333 0.950 . S
H304 C334 0.950 . S
C305 H287 0.951 . S
C305 C306 1.366 1_565 S
C305 C307 1.388 . S
C306 C305 1.366 1_545 S
C306 C310 1.385 . S
C307 H288 0.951 . S
C307 C305 1.388 . S
C307 C308 1.366 1_565 S
C308 C307 1.366 1_545 S
C308 C309 1.414 . S
C308 C311 1.499 . S
C309 H289 0.950 . S
C309 C308 1.414 . S
C309 C310 1.374 . S
C310 H290 0.950 . S
C310 C306 1.385 . S
C310 C309 1.374 . S
C311 C308 1.499 . S
C311 C312 1.373 . S
C311 C313 1.389 1_545 S
C312 H291 0.950 . S
C312 C311 1.373 . S
C312 C328 1.377 . S
C313 C311 1.389 1_565 S
C313 C314 1.524 . S
C313 C327 1.377 . S
C314 C313 1.524 . S
C314 C315 1.397 . S
C314 C319 1.363 . S
C315 H292 0.950 . S
C315 C314 1.397 . S
C315 C316 1.334 . S
C316 H293 0.950 . S
C316 C315 1.334 . S
C316 C317 1.287 . S
C317 C316 1.287 . S
C317 C318 1.524 . S
C317 H336 0.913 . S
C318 H294 0.950 . S
C318 C317 1.524 . S
C318 C319 1.415 . S
C319 H295 0.950 . S
C319 C314 1.363 . S
C319 C318 1.415 . S
C320 H296 0.951 . S
C320 C321 1.366 . S
C320 C322 1.388 . S
C321 C320 1.366 . S
C321 C325 1.385 1_545 S
C322 H297 0.951 . S
C322 C320 1.388 . S
C322 C323 1.366 . S
C323 C322 1.366 . S
C323 C324 1.414 1_545 S
C323 C326 1.499 . S
C324 H298 0.950 . S
C324 C323 1.414 1_565 S
C324 C325 1.374 . S
C325 H299 0.950 . S
C325 C321 1.385 1_565 S
C325 C324 1.374 . S
C326 C323 1.499 . S
C326 C327 1.373 1_545 S
C326 C328 1.389 . S
C327 H300 0.950 . S
C327 C313 1.377 . S
C327 C326 1.373 1_565 S
C328 C312 1.377 . S
C328 C326 1.389 . S
C328 C329 1.524 . S
C329 C328 1.524 . S
C329 C330 1.397 . S
C329 C334 1.363 . S
C330 H301 0.950 . S
C330 C329 1.397 . S
C330 C331 1.334 . S
C331 H302 0.950 . S
C331 C330 1.334 . S
C331 C332 1.287 . S
C332 C331 1.287 . S
C332 C333 1.524 . S
C332 H335 0.999 . S
C333 H303 0.950 . S
C333 C332 1.524 . S
C333 C334 1.415 . S
C334 H304 0.950 . S
C334 C329 1.363 . S
C334 C333 1.415 . S
H335 C332 0.999 . S
H336 C317 0.913 . S
H337 C355 0.951 . S
H338 C357 0.951 . S
H339 C359 0.950 . S
H340 C360 0.950 . S
H341 C362 0.950 . S
H342 C365 0.950 . S
H343 C366 0.950 . S
H344 C368 0.950 . S
H345 C369 0.950 . S
H346 C370 0.951 . S
H347 C372 0.951 . S
H348 C374 0.950 . S
H349 C375 0.950 . S
H350 C377 0.950 . S
H351 C380 0.950 . S
H352 C381 0.950 . S
H353 C383 0.950 . S
H354 C384 0.950 . S
C355 H337 0.951 . S
C355 C356 1.366 . S
C355 C357 1.388 . S
C356 C355 1.366 . S
C356 C360 1.385 1_455 S
C357 H338 0.951 . S
C357 C355 1.388 . S
C357 C358 1.366 . S
C358 C357 1.366 . S
C358 C359 1.414 1_455 S
C358 C361 1.499 . S
C359 H339 0.950 . S
C359 C358 1.414 1_655 S
C359 C360 1.374 . S
C360 H340 0.950 . S
C360 C356 1.385 1_655 S
C360 C359 1.374 . S
C361 C358 1.499 . S
C361 C362 1.373 1_455 S
C361 C363 1.389 . S
C362 H341 0.950 . S
C362 C361 1.373 1_655 S
C362 C378 1.377 . S
C363 C361 1.389 . S
C363 C364 1.524 . S
C363 C377 1.377 . S
C364 C363 1.524 . S
C364 C365 1.397 . S
C364 C369 1.363 . S
C365 H342 0.950 . S
C365 C364 1.397 . S
C365 C366 1.334 . S
C366 H343 0.950 . S
C366 C365 1.334 . S
C366 C367 1.287 . S
C367 C366 1.287 . S
C367 C368 1.524 . S
C367 H386 0.913 . S
C368 H344 0.950 . S
C368 C367 1.524 . S
C368 C369 1.415 . S
C369 H345 0.950 . S
C369 C364 1.363 . S
C369 C368 1.415 . S
C370 H346 0.951 . S
C370 C371 1.366 1_655 S
C370 C372 1.388 . S
C371 C370 1.366 1_455 S
C371 C375 1.385 . S
C372 H347 0.951 . S
C372 C370 1.388 . S
C372 C373 1.366 1_655 S
C373 C372 1.366 1_455 S
C373 C374 1.414 . S
C373 C376 1.499 . S
C374 H348 0.950 . S
C374 C373 1.414 . S
C374 C375 1.374 . S
C375 H349 0.950 . S
C375 C371 1.385 . S
C375 C374 1.374 . S
C376 C373 1.499 . S
C376 C377 1.373 . S
C376 C378 1.389 1_455 S
C377 H350 0.950 . S
C377 C363 1.377 . S
C377 C376 1.373 . S
C378 C362 1.377 . S
C378 C376 1.389 1_655 S
C378 C379 1.524 . S
C379 C378 1.524 . S
C379 C380 1.397 . S
C379 C384 1.363 . S
C380 H351 0.950 . S
C380 C379 1.397 . S
C380 C381 1.334 . S
C381 H352 0.950 . S
C381 C380 1.334 . S
C381 C382 1.287 . S
C382 C381 1.287 . S
C382 C383 1.524 . S
C382 H385 0.999 . S
C383 H353 0.950 . S
C383 C382 1.524 . S
C383 C384 1.415 . S
C384 H354 0.950 . S
C384 C379 1.363 . S
C384 C383 1.415 . S
H385 C382 0.999 . S
H386 C367 0.913 . S
H387 C405 0.951 . S
H388 C407 0.951 . S
H389 C409 0.950 . S
H390 C410 0.950 . S
H391 C412 0.950 . S
H392 C415 0.950 . S
H393 C416 0.950 . S
H394 C418 0.950 . S
H395 C419 0.950 . S
H396 C420 0.951 . S
H397 C422 0.951 . S
H398 C424 0.950 . S
H399 C425 0.950 . S
H400 C427 0.950 . S
H401 C430 0.950 . S
H402 C431 0.950 . S
H403 C433 0.950 . S
H404 C434 0.950 . S
C405 H387 0.951 . S
C405 C406 1.366 . S
C405 C407 1.388 . S
C406 C405 1.366 . S
C406 C410 1.385 1_565 S
C407 H388 0.951 . S
C407 C405 1.388 . S
C407 C408 1.366 . S
C408 C407 1.366 . S
C408 C409 1.414 1_565 S
C408 C411 1.499 1_565 S
C409 H389 0.950 . S
C409 C408 1.414 1_545 S
C409 C410 1.374 . S
C410 H390 0.950 . S
C410 C406 1.385 1_545 S
C410 C409 1.374 . S
C411 C408 1.499 1_545 S
C411 C412 1.358 1_545 S
C411 C413 1.403 . S
C412 H391 0.950 . S
C412 C411 1.358 1_565 S
C412 C428 1.377 . S
C413 C411 1.403 . S
C413 C414 1.524 . S
C413 C427 1.377 . S
C414 C413 1.524 . S
C414 C415 1.397 . S
C414 C419 1.363 . S
C415 H392 0.950 . S
C415 C414 1.397 . S
C415 C416 1.334 . S
C416 H393 0.950 . S
C416 C415 1.334 . S
C416 C417 1.287 . S
C417 C416 1.287 . S
C417 C418 1.524 . S
C417 H436 0.913 . S
C418 H394 0.950 . S
C418 C417 1.524 . S
C418 C419 1.415 . S
C419 H395 0.950 . S
C419 C414 1.363 . S
C419 C418 1.415 . S
C420 H396 0.951 . S
C420 C421 1.366 . S
C420 C422 1.388 . S
C421 C420 1.366 . S
C421 C425 1.385 1_545 S
C422 H397 0.951 . S
C422 C420 1.388 . S
C422 C423 1.366 1_545 S
C423 C422 1.366 1_565 S
C423 C424 1.414 . S
C423 C426 1.499 . S
C424 H398 0.950 . S
C424 C423 1.414 . S
C424 C425 1.374 . S
C425 H399 0.950 . S
C425 C421 1.385 1_565 S
C425 C424 1.374 . S
C426 C423 1.499 . S
C426 C427 1.373 1_565 S
C426 C428 1.389 . S
C427 H400 0.950 . S
C427 C413 1.377 . S
C427 C426 1.373 1_545 S
C428 C412 1.377 . S
C428 C426 1.389 . S
C428 C429 1.524 . S
C429 C428 1.524 . S
C429 C430 1.397 . S
C429 C434 1.363 . S
C430 H401 0.950 . S
C430 C429 1.397 . S
C430 C431 1.334 . S
C431 H402 0.950 . S
C431 C430 1.334 . S
C431 C432 1.287 . S
C432 C431 1.287 . S
C432 C433 1.524 . S
C432 H435 0.999 . S
C433 H403 0.950 . S
C433 C432 1.524 . S
C433 C434 1.415 . S
C434 H404 0.950 . S
C434 C429 1.363 . S
C434 C433 1.415 . S
H435 C432 0.999 . S
H436 C417 0.913 . S
H437 C455 0.951 . S
H438 C457 0.951 . S
H439 C459 0.950 . S
H440 C460 0.950 . S
H441 C462 0.950 . S
H442 C465 0.950 . S
H443 C466 0.950 . S
H444 C468 0.950 . S
H445 C469 0.950 . S
H446 C470 0.951 . S
H447 C472 0.951 . S
H448 C474 0.950 . S
H449 C475 0.950 . S
H450 C477 0.950 . S
H451 C480 0.950 . S
H452 C481 0.950 . S
H453 C483 0.950 . S
H454 C484 0.950 . S
C455 H437 0.951 . S
C455 C456 1.366 . S
C455 C457 1.388 . S
C456 C455 1.366 . S
C456 C460 1.385 1_455 S
C457 H438 0.951 . S
C457 C455 1.388 . S
C457 C458 1.366 . S
C458 C457 1.366 . S
C458 C459 1.414 1_455 S
C458 C461 1.499 . S
C459 H439 0.950 . S
C459 C458 1.414 1_655 S
C459 C460 1.374 . S
C460 H440 0.950 . S
C460 C456 1.385 1_655 S
C460 C459 1.374 . S
C461 C458 1.499 . S
C461 C462 1.373 1_455 S
C461 C463 1.389 . S
C462 H441 0.950 . S
C462 C461 1.373 1_655 S
C462 C478 1.377 . S
C463 C461 1.389 . S
C463 C464 1.524 . S
C463 C477 1.377 . S
C464 C463 1.524 . S
C464 C465 1.397 . S
C464 C469 1.363 . S
C465 H442 0.950 . S
C465 C464 1.397 . S
C465 C466 1.334 . S
C466 H443 0.950 . S
C466 C465 1.334 . S
C466 C467 1.287 . S
C467 C466 1.287 . S
C467 C468 1.524 . S
C467 H486 0.913 . S
C468 H444 0.950 . S
C468 C467 1.524 . S
C468 C469 1.415 . S
C469 H445 0.950 . S
C469 C464 1.363 . S
C469 C468 1.415 . S
C470 H446 0.951 . S
C470 C471 1.366 1_655 S
C470 C472 1.388 . S
C471 C470 1.366 1_455 S
C471 C475 1.385 . S
C472 H447 0.951 . S
C472 C470 1.388 . S
C472 C473 1.366 1_655 S
C473 C472 1.366 1_455 S
C473 C474 1.414 . S
C473 C476 1.499 . S
C474 H448 0.950 . S
C474 C473 1.414 . S
C474 C475 1.374 . S
C475 H449 0.950 . S
C475 C471 1.385 . S
C475 C474 1.374 . S
C476 C473 1.499 . S
C476 C477 1.373 . S
C476 C478 1.389 1_455 S
C477 H450 0.950 . S
C477 C463 1.377 . S
C477 C476 1.373 . S
C478 C462 1.377 . S
C478 C476 1.389 1_655 S
C478 C479 1.524 . S
C479 C478 1.524 . S
C479 C480 1.397 . S
C479 C484 1.363 . S
C480 H451 0.950 . S
C480 C479 1.397 . S
C480 C481 1.334 . S
C481 H452 0.950 . S
C481 C480 1.334 . S
C481 C482 1.287 . S
C482 C481 1.287 . S
C482 C483 1.524 . S
C482 H485 0.999 . S
C483 H453 0.950 . S
C483 C482 1.524 . S
C483 C484 1.415 . S
C484 H454 0.950 . S
C484 C479 1.363 . S
C484 C483 1.415 . S
H485 C482 0.999 . S
H486 C467 0.913 . S
H487 C505 0.951 . S
H488 C507 0.951 . S
H489 C509 0.950 . S
H490 C510 0.950 . S
H491 C512 0.950 . S
H492 C515 0.950 . S
H493 C516 0.950 . S
H494 C518 0.950 . S
H495 C519 0.950 . S
H496 C520 0.951 1_565 S
H497 C522 0.951 . S
H498 C524 0.950 . S
H499 C525 0.950 . S
H500 C527 0.950 . S
H501 C530 0.950 . S
H502 C531 0.950 . S
H503 C533 0.950 . S
H504 C534 0.950 . S
C505 H487 0.951 . S
C505 C506 1.366 . S
C505 C507 1.388 . S
C506 C505 1.366 . S
C506 C510 1.385 . S
C507 H488 0.951 . S
C507 C505 1.388 . S
C507 C508 1.366 . S
C508 C507 1.366 . S
C508 C509 1.414 . S
C508 C511 1.499 . S
C509 H489 0.950 . S
C509 C508 1.414 . S
C509 C510 1.374 . S
C510 H490 0.950 . S
C510 C506 1.385 . S
C510 C509 1.374 . S
C511 C508 1.499 . S
C511 C512 1.373 1_545 S
C511 C513 1.389 . S
C512 H491 0.950 . S
C512 C511 1.373 1_565 S
C512 C528 1.377 . S
C513 C511 1.389 . S
C513 C514 1.524 . S
C513 C527 1.377 . S
C514 C513 1.524 . S
C514 C515 1.397 . S
C514 C519 1.363 . S
C515 H492 0.950 . S
C515 C514 1.397 . S
C515 C516 1.334 . S
C516 H493 0.950 . S
C516 C515 1.334 . S
C516 C517 1.287 . S
C517 C516 1.287 . S
C517 C518 1.524 . S
C517 H536 0.913 . S
C518 H494 0.950 . S
C518 C517 1.524 . S
C518 C519 1.415 . S
C519 H495 0.950 . S
C519 C514 1.363 . S
C519 C518 1.415 . S
C520 H496 0.951 1_545 S
C520 C521 1.365 . S
C520 C522 1.389 . S
C521 C520 1.365 . S
C521 C525 1.385 . S
C522 H497 0.951 . S
C522 C520 1.389 . S
C522 C523 1.366 . S
C523 C522 1.366 . S
C523 C524 1.414 . S
C523 C526 1.499 . S
C524 H498 0.950 . S
C524 C523 1.414 . S
C524 C525 1.374 . S
C525 H499 0.950 . S
C525 C521 1.385 . S
C525 C524 1.374 . S
C526 C523 1.499 . S
C526 C527 1.373 . S
C526 C528 1.389 1_545 S
C527 H500 0.950 . S
C527 C513 1.377 . S
C527 C526 1.373 . S
C528 C512 1.377 . S
C528 C526 1.389 1_565 S
C528 C529 1.524 . S
C529 C528 1.524 . S
C529 C530 1.397 . S
C529 C534 1.363 . S
C530 H501 0.950 . S
C530 C529 1.397 . S
C530 C531 1.334 . S
C531 H502 0.950 . S
C531 C530 1.334 . S
C531 C532 1.287 . S
C532 C531 1.287 . S
C532 C533 1.524 . S
C532 H535 0.999 . S
C533 H503 0.950 . S
C533 C532 1.524 . S
C533 C534 1.415 . S
C534 H504 0.950 . S
C534 C529 1.363 . S
C534 C533 1.415 . S
H535 C532 0.999 . S
H536 C517 0.913 . S
C156 C30 1.240 1_455 S
C171 C53 1.270 . S
C206 C1 1.669 . S
C221 C123 1.711 . S
C256 C0 1.341 1_455 S
C271 C69 1.400 . S
C306 C29 1.572 . S
C321 C113 1.604 . S
C356 C19 1.231 . S
C371 C60 1.281 . S
C406 C20 1.665 . S
C421 C122 1.702 . S
C471 C70 1.391 . S
C456 C10 1.356 . S
C506 C2 1.578 . S
C521 C106 1.612 . S
