# Generated by pormake.
# Topology scu, (8,4)-cn, num edge types: 1
# Building blocks:
#     Node 0, Type 0, BuildingBlock: VETTIZ_charged_sbu_0, # of connection points: 8
#     Node 1, Type 1, BuildingBlock: KOZSID_clean_sbu_0, # of connection points: 4
#     Node 2, Type 1, BuildingBlock: KOZSID_clean_sbu_0, # of connection points: 4
#     Edge 3, Type (0, 1), BuildingBlock: EZIPEK_clean_linker_0, # of connection points: 2
#     Edge 4, Type (0, 1), BuildingBlock: EZIPEK_clean_linker_0, # of connection points: 2
#     Edge 5, Type (0, 1), BuildingBlock: EZIPEK_clean_linker_0, # of connection points: 2
#     Edge 6, Type (0, 1), BuildingBlock: EZIPEK_clean_linker_0, # of connection points: 2
#     Edge 7, Type (0, 1), BuildingBlock: EZIPEK_clean_linker_0, # of connection points: 2
#     Edge 8, Type (0, 1), BuildingBlock: EZIPEK_clean_linker_0, # of connection points: 2
#     Edge 9, Type (0, 1), BuildingBlock: EZIPEK_clean_linker_0, # of connection points: 2
#     Edge 10, Type (0, 1), BuildingBlock: EZIPEK_clean_linker_0, # of connection points: 2
# Relax obj value: 0.003
# Max RMSD: 0.036
# Mean RMSD: 0.018
data_MOF--net-scu--node1-VETTIZ_charged_sbu_0--node2-KOZSID_clean_sbu_0--edge1-EZIPEK_clean_linker_0
_symmetry_space_group_name_H-M    P1
_symmetry_Int_Tables_number       1
_symmetry_cell_setting            triclinic
loop_
_symmetry_equiv_pos_as_xyz
'x, y, z'
_cell_length_a     21.949565
_cell_length_b     22.072456
_cell_length_c     15.937809
_cell_angle_alpha  83.572379
_cell_angle_beta   83.861938
_cell_angle_gamma 91.046247
loop_
_atom_site_label
_atom_site_type_symbol
_atom_site_fract_x
_atom_site_fract_y
_atom_site_fract_z
_atom_type_partial_charge
Fe0 Fe 0.0304 0.0266 0.19415 0.0
O1 O 0.0343 0.03575 0.06882 0.0
Fe2 Fe 0.06243 0.95929 1.00612 0.0
Fe3 Fe 0.96063 0.05764 1.00857 0.0
O4 O 0.03861 0.0305 0.06937 0.0
O5 O 0.98903 0.98197 0.94559 0.0
O6 O 0.98397 0.98623 0.94602 0.0
Fe7 Fe 0.9894 0.99063 0.82138 0.0
C8 C 0.89253 0.01085 0.17708 0.0
O9 O 0.0258 0.1202 0.17276 0.0
O10 O 0.94893 0.13112 0.08347 0.0
O11 O 0.08531 0.99718 0.79734 0.0
O12 O 0.12093 0.0152 0.91844 0.0
O13 O 0.13683 0.94631 0.08017 0.0
O14 O 0.12422 0.01837 0.17491 0.0
O15 O 0.01301 0.11848 0.91644 0.0
O16 O 0.98255 0.08425 0.80219 0.0
C17 C 0.1559 0.97834 0.13692 0.0
O18 O 1.00069 0.89766 0.83982 0.0
O19 O 0.07616 0.88697 0.93075 0.0
O20 O 0.93589 0.03022 0.21453 0.0
O21 O 0.90236 1.00166 0.09911 0.0
C22 C 0.98398 0.15119 0.13653 0.0
C23 C 1.00193 0.12779 0.83874 0.0
C24 C 0.86361 0.03232 0.88637 0.0
O25 O 0.88472 0.06772 0.93778 0.0
O26 O 0.89514 0.99221 0.84767 0.0
C27 C 0.12955 0.01047 0.83899 0.0
O28 O 1.00886 0.89801 0.09248 0.0
O29 O 0.02687 0.9311 0.21461 0.0
C30 C 0.04265 0.86725 0.87607 0.0
C31 C 0.01453 0.88783 0.17146 0.0
C32 C 0.07034 0.61354 0.37877 0.0
C33 C 0.12743 0.63708 0.34258 0.0
C34 C 0.16973 0.59715 0.36999 0.0
C35 C 0.13655 0.55192 0.42215 0.0
N36 N 0.07538 0.56021 0.42943 0.0
Co37 Co 0.01176 0.5092 0.5082 0.0
N38 N 0.07496 0.45334 0.55413 0.0
C39 C 0.13607 0.45697 0.53033 0.0
C40 C 0.16794 0.41181 0.57088 0.0
C41 C 0.12456 0.37665 0.62318 0.0
C42 C 0.06851 0.40248 0.61139 0.0
N43 N 0.9482 0.45896 0.58798 0.0
C44 C 0.95356 0.40766 0.64239 0.0
C45 C 0.89714 0.3869 0.68441 0.0
C46 C 0.85469 0.42618 0.65565 0.0
C47 C 0.88731 0.46852 0.59776 0.0
N48 N 0.94844 0.56437 0.46131 0.0
C49 C 0.88711 0.55938 0.48311 0.0
C50 C 0.85467 0.60147 0.43779 0.0
C51 C 0.89784 0.63612 0.38451 0.0
C52 C 0.95454 0.61363 0.40124 0.0
N53 N 1.00146 0.45431 0.41931 0.0
C54 C 0.98606 0.36625 0.30743 0.0
C55 C 0.93571 0.39532 0.34406 0.0
C56 C 0.94428 0.43799 0.40054 0.0
C57 C 0.04449 0.3846 0.32348 0.0
C58 C 0.05114 0.42928 0.37783 0.0
N59 N 0.02215 0.56402 0.59704 0.0
C60 C 0.98053 0.63684 0.68897 0.0
C61 C 0.03903 0.65183 0.70833 0.0
C62 C 0.08845 0.61982 0.67545 0.0
C63 C 0.07913 0.57678 0.61985 0.0
C64 C 0.97307 0.59253 0.63435 0.0
H65 H 0.11909 0.55571 0.59466 0.0
H66 H 0.92737 0.58316 0.62176 0.0
H67 H 0.90375 0.45585 0.42972 0.0
H68 H 0.09686 0.44185 0.3867 0.0
C69 C 0.16191 0.50348 0.46949 0.0
C70 C 0.01275 0.64363 0.36301 0.0
C71 C 0.01041 0.37563 0.65424 0.0
C72 C 0.86157 0.51504 0.5474 0.0
H73 H 0.13778 0.67916 0.30137 0.0
H74 H 0.21905 0.60152 0.35557 0.0
H75 H 0.21683 0.40496 0.56281 0.0
H76 H 0.13304 0.33614 0.66469 0.0
H77 H 0.88748 0.34689 0.73007 0.0
H78 H 0.80561 0.42328 0.67323 0.0
H79 H 0.80553 0.60678 0.44349 0.0
H80 H 0.88864 0.6746 0.33984 0.0
H81 H 0.88964 0.38283 0.33242 0.0
H82 H 0.08484 0.36378 0.29525 0.0
H83 H 0.94095 0.66033 0.71421 0.0
H84 H 0.13446 0.62993 0.68975 0.0
C85 C 0.40239 0.95236 0.63384 0.0
C86 C 0.37902 0.89706 0.67626 0.0
C87 C 0.42321 0.85516 0.66375 0.0
C88 C 0.4706 0.88665 0.61337 0.0
N89 N 0.45913 0.94586 0.59251 0.0
Co90 Co 0.51303 1.0055 0.51228 0.0
N91 N 0.56694 0.93988 0.47177 0.0
C92 C 0.56611 0.88155 0.50778 0.0
C93 C 0.60736 0.84596 0.46668 0.0
C94 C 0.63734 0.88428 0.40146 0.0
C95 C 0.61296 0.94145 0.40694 0.0
N96 N 0.56586 0.06498 0.4297 0.0
C97 C 0.61293 0.05596 0.36936 0.0
C98 C 0.63877 0.11126 0.33024 0.0
C99 C 0.60804 0.15615 0.368 0.0
C100 C 0.56524 0.12613 0.42799 0.0
N101 N 0.4604 0.0709 0.5549 0.0
C102 C 0.47468 0.13105 0.54236 0.0
C103 C 0.4324 0.16568 0.5834 0.0
C104 C 0.38863 0.12487 0.62495 0.0
C105 C 0.40648 0.06742 0.6063 0.0
N106 N 0.56664 0.01621 0.60171 0.0
C107 C 0.64522 0.02925 0.72681 0.0
C108 C 0.66786 0.03353 0.64128 0.0
C109 C 0.62802 0.02759 0.58035 0.0
C110 C 0.58194 0.02048 0.74909 0.0
C111 C 0.54343 0.01398 0.68544 0.0
N112 N 0.4589 0.99523 0.42388 0.0
C113 C 0.38949 0.03827 0.3273 0.0
C114 C 0.3714 0.97993 0.31124 0.0
C115 C 0.40026 0.92961 0.3491 0.0
C116 C 0.44319 0.93816 0.40584 0.0
C117 C 0.43376 0.04495 0.38292 0.0
H118 H 0.46203 0.8982 0.43681 0.0
H119 H 0.44619 0.0904 0.39448 0.0
H120 H 0.64751 0.03293 0.51594 0.0
H121 H 0.495 0.00754 0.70421 0.0
C122 C 0.52152 0.86021 0.57392 0.0
C123 C 0.37186 0.01081 0.64108 0.0
C124 C 0.64154 0.99695 0.35786 0.0
C125 C 0.52373 0.15363 0.4835 0.0
H126 H 0.33488 0.88781 0.71311 0.0
H127 H 0.42009 0.80691 0.68593 0.0
H128 H 0.61444 0.79775 0.48187 0.0
H129 H 0.67474 0.87222 0.35705 0.0
H130 H 0.67789 0.11854 0.2825 0.0
H131 H 0.61691 0.20487 0.35469 0.0
H132 H 0.43253 0.21485 0.58162 0.0
H133 H 0.34822 0.13619 0.66452 0.0
H134 H 0.71641 0.0415 0.62146 0.0
H135 H 0.56266 0.0181 0.81487 0.0
H136 H 0.36837 0.07832 0.29875 0.0
H137 H 0.38754 0.88378 0.33793 0.0
C138 C 0.93547 0.21245 0.24531 0.0
C139 C 0.97209 0.21126 0.16696 0.0
C140 C 1.00458 0.31763 0.17097 0.0
C141 C 0.97763 0.31439 0.25665 0.0
N142 N 0.92561 0.25321 0.3802 0.0
N143 N 0.04508 0.26114 0.05618 0.0
C144 C 0.9446 0.26055 0.29503 0.0
C145 C 1.00732 0.26367 0.12951 0.0
N146 N 0.89224 0.16726 0.27244 0.0
N147 N 0.02649 0.3723 0.12893 0.0
H148 H 0.04687 0.2227 0.02348 0.0
H149 H 0.07692 0.29568 0.03068 0.0
H150 H 0.02388 0.41284 0.15691 0.0
H151 H 0.04161 0.37839 0.06424 0.0
H152 H 0.86076 0.16825 0.32605 0.0
H153 H 0.8833 0.13273 0.23551 0.0
H154 H 0.90711 0.2122 0.41239 0.0
H155 H 0.93406 0.28559 0.42067 0.0
C156 C 0.81805 0.98621 0.31378 0.0
C157 C 0.82816 1.00544 0.22426 0.0
C158 C 0.71555 0.0092 0.222 0.0
C159 C 0.70587 0.99536 0.31152 0.0
N160 N 0.74984 0.97584 0.44419 0.0
N161 N 0.78427 0.05645 0.10358 0.0
C162 C 0.75765 0.98531 0.35753 0.0
C163 C 0.77621 0.02214 0.18088 0.0
N164 N 0.86531 0.96659 0.35834 0.0
N165 N 0.66655 0.01066 0.17582 0.0
H166 H 0.82661 0.076 0.07802 0.0
H167 H 0.74812 0.07358 0.07166 0.0
H168 H 0.62157 1.00221 0.20387 0.0
H169 H 0.67128 0.01445 0.10964 0.0
H170 H 0.85879 0.94302 0.41912 0.0
H171 H 0.9112 0.96856 0.33462 0.0
H172 H 0.78487 0.98197 0.48195 0.0
H173 H 0.70816 0.96315 0.47911 0.0
C174 C 0.97658 0.81043 0.29639 0.0
C175 C 1.01001 0.82315 0.21507 0.0
C176 C 0.03588 0.7145 0.22385 0.0
C177 C 0.01284 0.70581 0.31139 0.0
N178 N 0.9723 0.75257 0.43491 0.0
N179 N 0.08351 0.78664 0.10921 0.0
C180 C 0.98691 0.75611 0.34904 0.0
C181 C 0.04286 0.77491 0.18043 0.0
N182 N 0.93113 0.84785 0.32064 0.0
N183 N 0.05023 0.66535 0.18151 0.0
H184 H 0.09336 0.83039 0.0786 0.0
H185 H 0.11214 0.75367 0.08615 0.0
H186 H 0.04464 0.62058 0.21069 0.0
H187 H 0.06188 0.66914 0.11593 0.0
H188 H 0.90222 0.83851 0.37715 0.0
H189 H 0.91694 0.88207 0.27714 0.0
H190 H 0.95724 0.79001 0.46506 0.0
H191 H 0.98101 0.71434 0.47614 0.0
C192 C 0.21508 0.93262 0.25096 0.0
C193 C 0.21579 0.96524 0.16921 0.0
C194 C 0.32387 0.99439 0.17266 0.0
C195 C 0.31919 0.97144 0.26025 0.0
N196 N 0.25589 0.92652 0.38638 0.0
N197 N 0.26973 0.02933 0.05168 0.0
C198 C 0.2638 0.94196 0.3003 0.0
C199 C 0.27018 0.99622 0.12931 0.0
N200 N 0.1675 0.89272 0.28142 0.0
N201 N 0.37966 0.01354 0.13085 0.0
H202 H 0.23155 0.03002 0.01782 0.0
H203 H 0.30576 0.05843 0.02309 0.0
H204 H 0.41978 0.01211 0.16064 0.0
H205 H 0.38706 0.02555 0.06542 0.0
H206 H 0.16677 0.86369 0.3378 0.0
H207 H 0.13232 0.88377 0.24507 0.0
H208 H 0.21406 0.91086 0.41952 0.0
H209 H 0.28905 0.93503 0.42612 0.0
C210 C 0.02421 0.75394 0.88672 0.0
C211 C 0.05555 0.80755 0.84535 0.0
C212 C 0.07948 0.75811 0.71654 0.0
C213 C 0.04886 0.70382 0.75782 0.0
N214 N 1.00542 0.64506 0.88781 0.0
N215 N 0.12839 0.85481 0.73264 0.0
C216 C 0.02555 0.70009 0.845 0.0
C217 C 0.08857 0.80742 0.76418 0.0
N218 N 0.99112 0.75536 0.96407 0.0
N219 N 0.09632 0.76428 0.63079 0.0
H220 H 0.13667 0.89081 0.76748 0.0
H221 H 0.15787 0.855 0.67684 0.0
H222 H 0.08873 0.73025 0.5924 0.0
H223 H 0.11267 0.80529 0.59629 0.0
H224 H 0.96173 0.71992 0.9936 0.0
H225 H 0.9908 0.79373 0.99687 0.0
H226 H 0.99314 0.63828 0.95319 0.0
H227 H 1.0062 0.60487 0.85896 0.0
C228 C 0.2051 0.04938 0.7116 0.0
C229 C 0.19388 0.01602 0.79342 0.0
C230 C 0.30344 0.99221 0.78264 0.0
C231 C 0.3106 0.01376 0.69451 0.0
N232 N 0.26262 0.05603 0.57239 0.0
N233 N 0.23339 0.94377 0.89875 0.0
C234 C 0.2596 0.04014 0.65803 0.0
C235 C 0.24344 0.98437 0.82724 0.0
N236 N 0.16585 0.09334 0.68754 0.0
N237 N 0.35371 0.98012 0.8245 0.0
H238 H 0.18996 0.93276 0.93013 0.0
H239 H 0.26755 0.9161 0.9211 0.0
H240 H 0.39833 0.98718 0.79476 0.0
H241 H 0.35079 0.96935 0.89024 0.0
H242 H 0.17368 0.12217 0.63076 0.0
H243 H 0.13116 0.10648 0.73108 0.0
H244 H 0.22467 0.07086 0.54253 0.0
H245 H 0.30125 0.0491 0.53082 0.0
C246 C 0.98838 0.24314 0.83414 0.0
C247 C 1.00459 0.19159 0.7907 0.0
C248 C 0.01384 0.26093 0.65574 0.0
C249 C 1.00843 0.31223 0.70161 0.0
N250 N 1.0002 0.35229 0.83666 0.0
N251 N 0.03871 0.1553 0.65439 0.0
C252 C 0.99931 0.3033 0.79152 0.0
C253 C 0.01884 0.20151 0.69985 0.0
N254 N 0.95643 0.23518 0.91306 0.0
N255 N 0.01235 0.26857 0.56959 0.0
H256 H 0.04209 0.11026 0.67947 0.0
H257 H 0.05756 0.16273 0.59115 0.0
H258 H 1.00946 0.31116 0.53478 0.0
H259 H 1.00804 0.23239 0.53369 0.0
H260 H 0.93944 0.27134 0.94444 0.0
H261 H 0.93891 0.19282 0.94146 0.0
H262 H 0.99958 0.34771 0.90258 0.0
H263 H 1.00688 0.39703 0.80757 0.0
C264 C 0.75947 0.98581 0.88523 0.0
C265 C 0.79908 0.03814 0.86763 0.0
C266 C 0.72201 0.09102 0.78872 0.0
C267 C 0.68945 0.03471 0.79043 0.0
N268 N 0.67745 0.92718 0.83922 0.0
N269 N 0.81902 0.14151 0.8014 0.0
C270 C 0.7074 0.9819 0.83994 0.0
C271 C 0.7801 0.09165 0.82066 0.0
N272 N 0.77196 0.93992 0.94529 0.0
N273 N 0.69743 0.1436 0.75541 0.0
H274 H 0.86173 0.14415 0.82386 0.0
H275 H 0.81069 0.1789 0.7587 0.0
H276 H 0.65479 0.144 0.73194 0.0
H277 H 0.71615 0.18686 0.75864 0.0
H278 H 0.74205 0.90289 0.96659 0.0
H279 H 0.80952 0.94229 0.98 0.0
H280 H 0.69322 0.88586 0.86554 0.0
H281 H 0.63876 0.9224 0.80762 0.0
loop_
_geom_bond_atom_site_label_1
_geom_bond_atom_site_label_2
_geom_bond_distance
_geom_bond_site_symmetry_2
_ccdc_geom_bond_type
Fe0 O1 1.886 1_565 S
Fe0 O4 1.715 1_655 S
Fe0 O9 2.077 1_565 S
Fe0 O14 1.935 1_665 S
Fe0 O20 2.077 . S
Fe0 O29 1.935 . S
O1 Fe0 1.886 1_545 S
O1 Fe3 1.715 1_554 S
Fe2 O4 1.886 . S
Fe2 O5 1.715 1_554 S
Fe2 O12 1.935 1_554 S
Fe2 O13 2.077 . S
Fe2 O19 1.935 1_554 S
Fe2 O28 2.077 . S
Fe3 O1 1.715 1_556 S
Fe3 O6 1.886 . S
Fe3 O10 1.935 1_556 S
Fe3 O15 2.077 . S
Fe3 O21 1.935 1_556 S
Fe3 O25 2.077 . S
O4 Fe0 1.715 1_455 S
O4 Fe2 1.886 . S
O5 Fe2 1.715 1_556 S
O5 Fe7 1.886 1_565 S
O6 Fe3 1.886 . S
O6 Fe7 1.715 1_655 S
Fe7 O5 1.886 1_545 S
Fe7 O6 1.715 1_455 S
Fe7 O11 2.077 . S
Fe7 O16 1.935 . S
Fe7 O18 2.077 1_545 S
Fe7 O26 1.935 1_445 S
C8 O20 1.381 1_545 S
C8 O21 1.421 . S
O9 Fe0 2.077 1_545 S
O9 C22 1.381 . S
O10 Fe3 1.935 1_554 S
O10 C22 1.421 . S
O11 Fe7 2.077 . S
O11 C27 1.381 1_545 S
O12 Fe2 1.935 1_556 S
O12 C27 1.421 . S
O13 Fe2 2.077 . S
O13 C17 1.381 . S
O14 Fe0 1.935 1_445 S
O14 C17 1.421 1_545 S
O15 Fe3 2.077 . S
O15 C23 1.381 . S
O16 Fe7 1.935 . S
O16 C23 1.421 1_455 S
C17 O13 1.381 . S
C17 O14 1.421 1_565 S
O18 Fe7 2.077 1_565 S
O18 C30 1.381 . S
O19 Fe2 1.935 1_556 S
O19 C30 1.421 . S
O20 Fe0 2.077 . S
O20 C8 1.381 1_565 S
O21 Fe3 1.935 1_554 S
O21 C8 1.421 . S
C22 O9 1.381 . S
C22 O10 1.421 . S
C23 O15 1.381 . S
C23 O16 1.421 1_655 S
C24 O25 1.381 . S
C24 O26 1.421 1_545 S
O25 Fe3 2.077 . S
O25 C24 1.381 . S
O26 Fe7 1.935 1_665 S
O26 C24 1.421 1_565 S
C27 O11 1.381 1_565 S
C27 O12 1.421 . S
O28 Fe2 2.077 . S
O28 C31 1.381 . S
O29 Fe0 1.935 . S
O29 C31 1.421 1_655 S
C30 O18 1.381 . S
C30 O19 1.421 . S
C31 O28 1.381 . S
C31 O29 1.421 1_455 S
C32 C33 1.443 . S
C32 N36 1.376 . S
C32 C70 1.404 . S
C33 C32 1.443 . S
C33 C34 1.340 . S
C33 H73 0.951 . S
C34 C33 1.340 . S
C34 C35 1.439 . S
C34 H74 0.950 . S
C35 C34 1.439 . S
C35 N36 1.374 . S
C35 C69 1.395 . S
N36 C32 1.376 . S
N36 C35 1.374 . S
N36 Co37 2.008 . S
Co37 N36 2.008 . S
Co37 N38 1.995 . S
Co37 N43 2.008 1_455 S
Co37 N48 1.995 1_455 S
Co37 N53 2.282 . S
Co37 N59 2.282 1_455 S
N38 Co37 1.995 . S
N38 C39 1.376 . S
N38 C42 1.383 . S
C39 N38 1.376 . S
C39 C40 1.446 . S
C39 C69 1.391 . S
C40 C39 1.446 . S
C40 C41 1.339 . S
C40 H75 0.949 . S
C41 C40 1.339 . S
C41 C42 1.439 . S
C41 H76 0.950 . S
C42 N38 1.383 . S
C42 C41 1.439 . S
C42 C71 1.382 1_455 S
N43 Co37 2.008 1_655 S
N43 C44 1.376 . S
N43 C47 1.374 . S
C44 N43 1.376 . S
C44 C45 1.443 . S
C44 C71 1.400 . S
C45 C44 1.443 . S
C45 C46 1.340 . S
C45 H77 0.951 . S
C46 C45 1.340 . S
C46 C47 1.439 . S
C46 H78 0.950 . S
C47 N43 1.374 . S
C47 C46 1.439 . S
C47 C72 1.395 . S
N48 Co37 1.995 1_655 S
N48 C49 1.376 . S
N48 C52 1.383 . S
C49 N48 1.376 . S
C49 C50 1.446 . S
C49 C72 1.391 . S
C50 C49 1.446 . S
C50 C51 1.339 . S
C50 H79 0.949 . S
C51 C50 1.339 . S
C51 C52 1.439 . S
C51 H80 0.950 . S
C52 N48 1.383 . S
C52 C51 1.439 . S
C52 C70 1.378 1_655 S
N53 Co37 2.282 . S
N53 C56 1.332 1_455 S
N53 C58 1.332 . S
C54 C55 1.375 1_455 S
C54 C57 1.400 . S
C55 C54 1.375 1_655 S
C55 C56 1.382 . S
C55 H81 0.950 . S
C56 N53 1.332 1_655 S
C56 C55 1.382 . S
C56 H67 0.952 . S
C57 C54 1.400 . S
C57 C58 1.382 . S
C57 H82 0.950 . S
C58 N53 1.332 . S
C58 C57 1.382 . S
C58 H68 0.948 . S
N59 Co37 2.282 1_655 S
N59 C63 1.332 1_655 S
N59 C64 1.332 . S
C60 C61 1.396 . S
C60 C64 1.382 . S
C60 H83 0.950 . S
C61 C60 1.396 . S
C61 C62 1.378 1_655 S
C62 C61 1.378 1_455 S
C62 C63 1.382 . S
C62 H84 0.950 . S
C63 N59 1.332 1_455 S
C63 C62 1.382 . S
C63 H65 0.952 . S
C64 N59 1.332 . S
C64 C60 1.382 . S
C64 H66 0.948 . S
H65 C63 0.952 . S
H66 C64 0.948 . S
H67 C56 0.952 . S
H68 C58 0.948 . S
C69 C35 1.395 . S
C69 C39 1.391 . S
C70 C32 1.404 . S
C70 C52 1.378 1_455 S
C71 C42 1.382 1_655 S
C71 C44 1.400 . S
C72 C47 1.395 . S
C72 C49 1.391 . S
H73 C33 0.951 . S
H74 C34 0.950 . S
H75 C40 0.949 . S
H76 C41 0.950 . S
H77 C45 0.951 . S
H78 C46 0.950 . S
H79 C50 0.949 . S
H80 C51 0.950 . S
H81 C55 0.950 . S
H82 C57 0.950 . S
H83 C60 0.950 . S
H84 C62 0.950 . S
C85 C86 1.443 . S
C85 N89 1.376 . S
C85 C123 1.398 . S
C86 C85 1.443 . S
C86 C87 1.340 . S
C86 H126 0.951 . S
C87 C86 1.340 . S
C87 C88 1.439 . S
C87 H127 0.950 . S
C88 C87 1.439 . S
C88 N89 1.374 . S
C88 C122 1.395 . S
N89 C85 1.376 . S
N89 C88 1.374 . S
N89 Co90 2.007 1_565 S
Co90 N89 2.007 1_545 S
Co90 N91 1.993 1_545 S
Co90 N96 2.010 . S
Co90 N101 1.996 . S
Co90 N106 2.282 1_545 S
Co90 N112 2.282 . S
N91 Co90 1.993 1_565 S
N91 C92 1.376 . S
N91 C95 1.383 . S
C92 N91 1.376 . S
C92 C93 1.446 . S
C92 C122 1.391 . S
C93 C92 1.446 . S
C93 C94 1.339 . S
C93 H128 0.949 . S
C94 C93 1.339 . S
C94 C95 1.439 . S
C94 H129 0.950 . S
C95 N91 1.383 . S
C95 C94 1.439 . S
C95 C124 1.376 1_565 S
N96 Co90 2.010 . S
N96 C97 1.376 . S
N96 C100 1.374 . S
C97 N96 1.376 . S
C97 C98 1.443 . S
C97 C124 1.406 . S
C98 C97 1.443 . S
C98 C99 1.340 . S
C98 H130 0.951 . S
C99 C98 1.340 . S
C99 C100 1.439 . S
C99 H131 0.950 . S
C100 N96 1.374 . S
C100 C99 1.439 . S
C100 C125 1.395 . S
N101 Co90 1.996 . S
N101 C102 1.376 . S
N101 C105 1.383 . S
C102 N101 1.376 . S
C102 C103 1.446 . S
C102 C125 1.391 . S
C103 C102 1.446 . S
C103 C104 1.339 . S
C103 H132 0.949 . S
C104 C103 1.339 . S
C104 C105 1.439 . S
C104 H133 0.950 . S
C105 N101 1.383 . S
C105 C104 1.439 . S
C105 C123 1.384 1_545 S
N106 Co90 2.282 1_565 S
N106 C109 1.332 1_565 S
N106 C111 1.332 . S
C107 C108 1.380 1_565 S
C107 C110 1.394 . S
C108 C107 1.380 1_545 S
C108 C109 1.382 . S
C108 H134 0.950 . S
C109 N106 1.332 1_545 S
C109 C108 1.382 . S
C109 H120 0.952 . S
C110 C107 1.394 . S
C110 C111 1.382 . S
C110 H135 0.950 . S
C111 N106 1.332 . S
C111 C110 1.382 . S
C111 H121 0.948 . S
N112 Co90 2.282 . S
N112 C116 1.332 1_545 S
N112 C117 1.332 . S
C113 C114 1.402 . S
C113 C117 1.382 . S
C113 H136 0.950 . S
C114 C113 1.402 . S
C114 C115 1.373 1_545 S
C115 C114 1.373 1_565 S
C115 C116 1.382 . S
C115 H137 0.950 . S
C116 N112 1.332 1_565 S
C116 C115 1.382 . S
C116 H118 0.952 . S
C117 N112 1.332 . S
C117 C113 1.382 . S
C117 H119 0.948 . S
H118 C116 0.952 . S
H119 C117 0.948 . S
H120 C109 0.952 . S
H121 C111 0.948 . S
C122 C88 1.395 . S
C122 C92 1.391 . S
C123 C85 1.398 . S
C123 C105 1.384 1_565 S
C124 C95 1.376 1_545 S
C124 C97 1.406 . S
C125 C100 1.395 . S
C125 C102 1.391 . S
H126 C86 0.951 . S
H127 C87 0.950 . S
H128 C93 0.949 . S
H129 C94 0.950 . S
H130 C98 0.951 . S
H131 C99 0.950 . S
H132 C103 0.949 . S
H133 C104 0.950 . S
H134 C108 0.950 . S
H135 C110 0.950 . S
H136 C113 0.950 . S
H137 C115 0.950 . S
C138 C139 1.363 . S
C138 C144 1.379 . S
C138 N146 1.356 . S
C139 C138 1.363 . S
C139 C145 1.363 1_655 S
C140 C141 1.356 1_455 S
C140 C145 1.379 . S
C140 N147 1.356 . S
C141 C140 1.356 1_655 S
C141 C144 1.371 . S
N142 C144 1.356 . S
N142 H154 0.984 . S
N142 H155 0.985 . S
N143 C145 1.356 . S
N143 H148 0.984 . S
N143 H149 0.985 . S
C144 C138 1.379 . S
C144 C141 1.371 . S
C144 N142 1.356 . S
C145 C139 1.363 1_455 S
C145 C140 1.379 . S
C145 N143 1.356 . S
N146 C138 1.356 . S
N146 H152 0.984 . S
N146 H153 0.984 . S
N147 C140 1.356 . S
N147 H150 0.984 . S
N147 H151 0.985 . S
H148 N143 0.984 . S
H149 N143 0.985 . S
H150 N147 0.984 . S
H151 N147 0.985 . S
H152 N146 0.984 . S
H153 N146 0.984 . S
H154 N142 0.984 . S
H155 N142 0.985 . S
C156 C157 1.363 . S
C156 C162 1.379 . S
C156 N164 1.356 . S
C157 C156 1.363 . S
C157 C163 1.363 1_565 S
C158 C159 1.363 1_545 S
C158 C163 1.379 . S
C158 N165 1.356 . S
C159 C158 1.363 1_565 S
C159 C162 1.363 . S
N160 C162 1.356 . S
N160 H172 0.984 . S
N160 H173 0.985 . S
N161 C163 1.356 . S
N161 H166 0.984 . S
N161 H167 0.985 . S
C162 C156 1.379 . S
C162 C159 1.363 . S
C162 N160 1.356 . S
C163 C157 1.363 1_545 S
C163 C158 1.379 . S
C163 N161 1.356 . S
N164 C156 1.356 . S
N164 H170 0.984 . S
N164 H171 0.984 . S
N165 C158 1.356 . S
N165 H168 0.984 . S
N165 H169 0.985 . S
H166 N161 0.984 . S
H167 N161 0.985 . S
H168 N165 0.984 . S
H169 N165 0.985 . S
H170 N164 0.984 . S
H171 N164 0.984 . S
H172 N160 0.984 . S
H173 N160 0.985 . S
C174 C175 1.363 . S
C174 C180 1.379 . S
C174 N182 1.356 . S
C175 C174 1.363 . S
C175 C181 1.363 1_655 S
C176 C177 1.363 1_455 S
C176 C181 1.379 . S
C176 N183 1.356 . S
C177 C176 1.363 1_655 S
C177 C180 1.363 . S
N178 C180 1.356 . S
N178 H190 0.984 . S
N178 H191 0.985 . S
N179 C181 1.356 . S
N179 H184 0.984 . S
N179 H185 0.985 . S
C180 C174 1.379 . S
C180 C177 1.363 . S
C180 N178 1.356 . S
C181 C175 1.363 1_455 S
C181 C176 1.379 . S
C181 N179 1.356 . S
N182 C174 1.356 . S
N182 H188 0.984 . S
N182 H189 0.984 . S
N183 C176 1.356 . S
N183 H186 0.984 . S
N183 H187 0.985 . S
H184 N179 0.984 . S
H185 N179 0.985 . S
H186 N183 0.984 . S
H187 N183 0.985 . S
H188 N182 0.984 . S
H189 N182 0.984 . S
H190 N178 0.984 . S
H191 N178 0.985 . S
C192 C193 1.363 . S
C192 C198 1.379 . S
C192 N200 1.356 . S
C193 C192 1.363 . S
C193 C199 1.363 1_565 S
C194 C195 1.355 1_545 S
C194 C199 1.379 . S
C194 N201 1.356 . S
C195 C194 1.355 1_565 S
C195 C198 1.372 . S
N196 C198 1.356 . S
N196 H208 0.984 . S
N196 H209 0.985 . S
N197 C199 1.356 . S
N197 H202 0.984 . S
N197 H203 0.985 . S
C198 C192 1.379 . S
C198 C195 1.372 . S
C198 N196 1.356 . S
C199 C193 1.363 1_545 S
C199 C194 1.379 . S
C199 N197 1.356 . S
N200 C192 1.356 . S
N200 H206 0.984 . S
N200 H207 0.984 . S
N201 C194 1.356 . S
N201 H204 0.984 . S
N201 H205 0.985 . S
H202 N197 0.984 . S
H203 N197 0.985 . S
H204 N201 0.984 . S
H205 N201 0.985 . S
H206 N200 0.984 . S
H207 N200 0.984 . S
H208 N196 0.984 . S
H209 N196 0.985 . S
C210 C211 1.363 . S
C210 C216 1.379 . S
C210 N218 1.356 . S
C211 C210 1.363 . S
C211 C217 1.360 1_455 S
C212 C213 1.363 1_655 S
C212 C217 1.380 . S
C212 N219 1.356 . S
C213 C212 1.363 1_455 S
C213 C216 1.363 . S
N214 C216 1.356 . S
N214 H226 0.984 . S
N214 H227 0.985 . S
N215 C217 1.358 . S
N215 H220 0.986 . S
N215 H221 0.985 . S
C216 C210 1.379 . S
C216 C213 1.363 . S
C216 N214 1.356 . S
C217 C211 1.360 1_655 S
C217 C212 1.380 . S
C217 N215 1.358 . S
N218 C210 1.356 . S
N218 H224 0.984 . S
N218 H225 0.984 . S
N219 C212 1.356 . S
N219 H222 0.984 . S
N219 H223 0.985 . S
H220 N215 0.986 . S
H221 N215 0.985 . S
H222 N219 0.984 . S
H223 N219 0.985 . S
H224 N218 0.984 . S
H225 N218 0.984 . S
H226 N214 0.984 . S
H227 N214 0.985 . S
C228 C229 1.363 . S
C228 C234 1.379 . S
C228 N236 1.356 . S
C229 C228 1.363 . S
C229 C235 1.363 1_545 S
C230 C231 1.363 1_565 S
C230 C235 1.379 . S
C230 N237 1.356 . S
C231 C230 1.363 1_545 S
C231 C234 1.363 . S
N232 C234 1.356 . S
N232 H244 0.984 . S
N232 H245 0.985 . S
N233 C235 1.356 . S
N233 H238 0.984 . S
N233 H239 0.985 . S
C234 C228 1.379 . S
C234 C231 1.363 . S
C234 N232 1.356 . S
C235 C229 1.363 1_565 S
C235 C230 1.379 . S
C235 N233 1.356 . S
N236 C228 1.356 . S
N236 H242 0.984 . S
N236 H243 0.984 . S
N237 C230 1.356 . S
N237 H240 0.984 . S
N237 H241 0.985 . S
H238 N233 0.984 . S
H239 N233 0.985 . S
H240 N237 0.984 . S
H241 N237 0.985 . S
H242 N236 0.984 . S
H243 N236 0.984 . S
H244 N232 0.984 . S
H245 N232 0.985 . S
C246 C247 1.363 1_655 S
C246 C252 1.379 . S
C246 N254 1.356 . S
C247 C246 1.363 1_455 S
C247 C253 1.363 . S
C248 C249 1.363 . S
C248 C253 1.379 . S
C248 N255 1.356 . S
C249 C248 1.363 . S
C249 C252 1.363 1_455 S
N250 C252 1.356 . S
N250 H262 0.984 . S
N250 H263 0.985 . S
N251 C253 1.356 . S
N251 H256 0.984 . S
N251 H257 0.985 . S
C252 C246 1.379 . S
C252 C249 1.363 1_655 S
C252 N250 1.356 . S
C253 C247 1.363 . S
C253 C248 1.379 . S
C253 N251 1.356 . S
N254 C246 1.356 . S
N254 H260 0.984 . S
N254 H261 0.984 . S
N255 C248 1.356 . S
N255 H258 0.984 . S
N255 H259 0.985 . S
H256 N251 0.984 . S
H257 N251 0.985 . S
H258 N255 0.984 . S
H259 N255 0.985 . S
H260 N254 0.984 . S
H261 N254 0.984 . S
H262 N250 0.984 . S
H263 N250 0.985 . S
C264 C265 1.363 1_565 S
C264 C270 1.379 . S
C264 N272 1.356 . S
C265 C264 1.363 1_545 S
C265 C271 1.363 . S
C266 C267 1.363 . S
C266 C271 1.379 . S
C266 N273 1.356 . S
C267 C266 1.363 . S
C267 C270 1.363 1_545 S
N268 C270 1.356 . S
N268 H280 0.984 . S
N268 H281 0.985 . S
N269 C271 1.356 . S
N269 H274 0.984 . S
N269 H275 0.985 . S
C270 C264 1.379 . S
C270 C267 1.363 1_565 S
C270 N268 1.356 . S
C271 C265 1.363 . S
C271 C266 1.379 . S
C271 N269 1.356 . S
N272 C264 1.356 . S
N272 H278 0.984 . S
N272 H279 0.984 . S
N273 C266 1.356 . S
N273 H276 0.984 . S
N273 H277 0.985 . S
H274 N269 0.984 . S
H275 N269 0.985 . S
H276 N273 0.984 . S
H277 N273 0.985 . S
H278 N272 0.984 . S
H279 N272 0.984 . S
H280 N268 0.984 . S
H281 N268 0.985 . S
C139 C22 1.389 . S
C141 C54 1.427 1_655 S
C157 C8 1.506 1_565 S
C159 C124 1.567 1_565 S
C175 C31 1.511 1_655 S
C177 C70 1.567 1_655 S
C193 C17 1.385 . S
C195 C114 1.427 1_565 S
C211 C30 1.389 . S
C213 C61 1.428 1_455 S
C229 C27 1.506 1_545 S
C231 C123 1.569 1_545 S
C249 C71 1.568 1_455 S
C247 C23 1.511 1_455 S
C265 C24 1.385 . S
C267 C107 1.428 1_545 S
