# Generated by pormake.
# Topology gar, (4,6)-cn, num edge types: 1
# Building blocks:
#     Node 0, Type 0, BuildingBlock: QUQFOY_clean_sbu_1, # of connection points: 4
#     Node 1, Type 0, BuildingBlock: QUQFOY_clean_sbu_1, # of connection points: 4
#     Node 2, Type 0, BuildingBlock: QUQFOY_clean_sbu_1, # of connection points: 4
#     Node 3, Type 0, BuildingBlock: QUQFOY_clean_sbu_1, # of connection points: 4
#     Node 4, Type 0, BuildingBlock: QUQFOY_clean_sbu_1, # of connection points: 4
#     Node 5, Type 0, BuildingBlock: QUQFOY_clean_sbu_1, # of connection points: 4
#     Node 6, Type 0, BuildingBlock: QUQFOY_clean_sbu_1, # of connection points: 4
#     Node 7, Type 0, BuildingBlock: QUQFOY_clean_sbu_1, # of connection points: 4
#     Node 8, Type 0, BuildingBlock: QUQFOY_clean_sbu_1, # of connection points: 4
#     Node 9, Type 0, BuildingBlock: QUQFOY_clean_sbu_1, # of connection points: 4
#     Node 10, Type 0, BuildingBlock: QUQFOY_clean_sbu_1, # of connection points: 4
#     Node 11, Type 0, BuildingBlock: QUQFOY_clean_sbu_1, # of connection points: 4
#     Node 12, Type 0, BuildingBlock: QUQFOY_clean_sbu_1, # of connection points: 4
#     Node 13, Type 0, BuildingBlock: QUQFOY_clean_sbu_1, # of connection points: 4
#     Node 14, Type 0, BuildingBlock: QUQFOY_clean_sbu_1, # of connection points: 4
#     Node 15, Type 0, BuildingBlock: QUQFOY_clean_sbu_1, # of connection points: 4
#     Node 16, Type 0, BuildingBlock: QUQFOY_clean_sbu_1, # of connection points: 4
#     Node 17, Type 0, BuildingBlock: QUQFOY_clean_sbu_1, # of connection points: 4
#     Node 18, Type 0, BuildingBlock: QUQFOY_clean_sbu_1, # of connection points: 4
#     Node 19, Type 0, BuildingBlock: QUQFOY_clean_sbu_1, # of connection points: 4
#     Node 20, Type 0, BuildingBlock: QUQFOY_clean_sbu_1, # of connection points: 4
#     Node 21, Type 0, BuildingBlock: QUQFOY_clean_sbu_1, # of connection points: 4
#     Node 22, Type 0, BuildingBlock: QUQFOY_clean_sbu_1, # of connection points: 4
#     Node 23, Type 0, BuildingBlock: QUQFOY_clean_sbu_1, # of connection points: 4
#     Node 24, Type 1, BuildingBlock: KUMBUR_clean_sbu_1, # of connection points: 6
#     Node 25, Type 1, BuildingBlock: KUMBUR_clean_sbu_1, # of connection points: 6
#     Node 26, Type 1, BuildingBlock: KUMBUR_clean_sbu_1, # of connection points: 6
#     Node 27, Type 1, BuildingBlock: KUMBUR_clean_sbu_1, # of connection points: 6
#     Node 28, Type 1, BuildingBlock: KUMBUR_clean_sbu_1, # of connection points: 6
#     Node 29, Type 1, BuildingBlock: KUMBUR_clean_sbu_1, # of connection points: 6
#     Node 30, Type 1, BuildingBlock: KUMBUR_clean_sbu_1, # of connection points: 6
#     Node 31, Type 1, BuildingBlock: KUMBUR_clean_sbu_1, # of connection points: 6
#     Node 32, Type 1, BuildingBlock: KUMBUR_clean_sbu_1, # of connection points: 6
#     Node 33, Type 1, BuildingBlock: KUMBUR_clean_sbu_1, # of connection points: 6
#     Node 34, Type 1, BuildingBlock: KUMBUR_clean_sbu_1, # of connection points: 6
#     Node 35, Type 1, BuildingBlock: KUMBUR_clean_sbu_1, # of connection points: 6
#     Node 36, Type 1, BuildingBlock: KUMBUR_clean_sbu_1, # of connection points: 6
#     Node 37, Type 1, BuildingBlock: KUMBUR_clean_sbu_1, # of connection points: 6
#     Node 38, Type 1, BuildingBlock: KUMBUR_clean_sbu_1, # of connection points: 6
#     Node 39, Type 1, BuildingBlock: KUMBUR_clean_sbu_1, # of connection points: 6
#     Edge 40, Type (0, 1), BuildingBlock: CIFDUS_clean_linker_0, # of connection points: 2
#     Edge 41, Type (0, 1), BuildingBlock: CIFDUS_clean_linker_0, # of connection points: 2
#     Edge 42, Type (0, 1), BuildingBlock: CIFDUS_clean_linker_0, # of connection points: 2
#     Edge 43, Type (0, 1), BuildingBlock: CIFDUS_clean_linker_0, # of connection points: 2
#     Edge 44, Type (0, 1), BuildingBlock: CIFDUS_clean_linker_0, # of connection points: 2
#     Edge 45, Type (0, 1), BuildingBlock: CIFDUS_clean_linker_0, # of connection points: 2
#     Edge 46, Type (0, 1), BuildingBlock: CIFDUS_clean_linker_0, # of connection points: 2
#     Edge 47, Type (0, 1), BuildingBlock: CIFDUS_clean_linker_0, # of connection points: 2
#     Edge 48, Type (0, 1), BuildingBlock: CIFDUS_clean_linker_0, # of connection points: 2
#     Edge 49, Type (0, 1), BuildingBlock: CIFDUS_clean_linker_0, # of connection points: 2
#     Edge 50, Type (0, 1), BuildingBlock: CIFDUS_clean_linker_0, # of connection points: 2
#     Edge 51, Type (0, 1), BuildingBlock: CIFDUS_clean_linker_0, # of connection points: 2
#     Edge 52, Type (0, 1), BuildingBlock: CIFDUS_clean_linker_0, # of connection points: 2
#     Edge 53, Type (0, 1), BuildingBlock: CIFDUS_clean_linker_0, # of connection points: 2
#     Edge 54, Type (0, 1), BuildingBlock: CIFDUS_clean_linker_0, # of connection points: 2
#     Edge 55, Type (0, 1), BuildingBlock: CIFDUS_clean_linker_0, # of connection points: 2
#     Edge 56, Type (0, 1), BuildingBlock: CIFDUS_clean_linker_0, # of connection points: 2
#     Edge 57, Type (0, 1), BuildingBlock: CIFDUS_clean_linker_0, # of connection points: 2
#     Edge 58, Type (0, 1), BuildingBlock: CIFDUS_clean_linker_0, # of connection points: 2
#     Edge 59, Type (0, 1), BuildingBlock: CIFDUS_clean_linker_0, # of connection points: 2
#     Edge 60, Type (0, 1), BuildingBlock: CIFDUS_clean_linker_0, # of connection points: 2
#     Edge 61, Type (0, 1), BuildingBlock: CIFDUS_clean_linker_0, # of connection points: 2
#     Edge 62, Type (0, 1), BuildingBlock: CIFDUS_clean_linker_0, # of connection points: 2
#     Edge 63, Type (0, 1), BuildingBlock: CIFDUS_clean_linker_0, # of connection points: 2
#     Edge 64, Type (0, 1), BuildingBlock: CIFDUS_clean_linker_0, # of connection points: 2
#     Edge 65, Type (0, 1), BuildingBlock: CIFDUS_clean_linker_0, # of connection points: 2
#     Edge 66, Type (0, 1), BuildingBlock: CIFDUS_clean_linker_0, # of connection points: 2
#     Edge 67, Type (0, 1), BuildingBlock: CIFDUS_clean_linker_0, # of connection points: 2
#     Edge 68, Type (0, 1), BuildingBlock: CIFDUS_clean_linker_0, # of connection points: 2
#     Edge 69, Type (0, 1), BuildingBlock: CIFDUS_clean_linker_0, # of connection points: 2
#     Edge 70, Type (0, 1), BuildingBlock: CIFDUS_clean_linker_0, # of connection points: 2
#     Edge 71, Type (0, 1), BuildingBlock: CIFDUS_clean_linker_0, # of connection points: 2
#     Edge 72, Type (0, 1), BuildingBlock: CIFDUS_clean_linker_0, # of connection points: 2
#     Edge 73, Type (0, 1), BuildingBlock: CIFDUS_clean_linker_0, # of connection points: 2
#     Edge 74, Type (0, 1), BuildingBlock: CIFDUS_clean_linker_0, # of connection points: 2
#     Edge 75, Type (0, 1), BuildingBlock: CIFDUS_clean_linker_0, # of connection points: 2
#     Edge 76, Type (0, 1), BuildingBlock: CIFDUS_clean_linker_0, # of connection points: 2
#     Edge 77, Type (0, 1), BuildingBlock: CIFDUS_clean_linker_0, # of connection points: 2
#     Edge 78, Type (0, 1), BuildingBlock: CIFDUS_clean_linker_0, # of connection points: 2
#     Edge 79, Type (0, 1), BuildingBlock: CIFDUS_clean_linker_0, # of connection points: 2
#     Edge 80, Type (0, 1), BuildingBlock: CIFDUS_clean_linker_0, # of connection points: 2
#     Edge 81, Type (0, 1), BuildingBlock: CIFDUS_clean_linker_0, # of connection points: 2
#     Edge 82, Type (0, 1), BuildingBlock: CIFDUS_clean_linker_0, # of connection points: 2
#     Edge 83, Type (0, 1), BuildingBlock: CIFDUS_clean_linker_0, # of connection points: 2
#     Edge 84, Type (0, 1), BuildingBlock: CIFDUS_clean_linker_0, # of connection points: 2
#     Edge 85, Type (0, 1), BuildingBlock: CIFDUS_clean_linker_0, # of connection points: 2
#     Edge 86, Type (0, 1), BuildingBlock: CIFDUS_clean_linker_0, # of connection points: 2
#     Edge 87, Type (0, 1), BuildingBlock: CIFDUS_clean_linker_0, # of connection points: 2
#     Edge 88, Type (0, 1), BuildingBlock: CIFDUS_clean_linker_0, # of connection points: 2
#     Edge 89, Type (0, 1), BuildingBlock: CIFDUS_clean_linker_0, # of connection points: 2
#     Edge 90, Type (0, 1), BuildingBlock: CIFDUS_clean_linker_0, # of connection points: 2
#     Edge 91, Type (0, 1), BuildingBlock: CIFDUS_clean_linker_0, # of connection points: 2
#     Edge 92, Type (0, 1), BuildingBlock: CIFDUS_clean_linker_0, # of connection points: 2
#     Edge 93, Type (0, 1), BuildingBlock: CIFDUS_clean_linker_0, # of connection points: 2
#     Edge 94, Type (0, 1), BuildingBlock: CIFDUS_clean_linker_0, # of connection points: 2
#     Edge 95, Type (0, 1), BuildingBlock: CIFDUS_clean_linker_0, # of connection points: 2
#     Edge 96, Type (0, 1), BuildingBlock: CIFDUS_clean_linker_0, # of connection points: 2
#     Edge 97, Type (0, 1), BuildingBlock: CIFDUS_clean_linker_0, # of connection points: 2
#     Edge 98, Type (0, 1), BuildingBlock: CIFDUS_clean_linker_0, # of connection points: 2
#     Edge 99, Type (0, 1), BuildingBlock: CIFDUS_clean_linker_0, # of connection points: 2
#     Edge 100, Type (0, 1), BuildingBlock: CIFDUS_clean_linker_0, # of connection points: 2
#     Edge 101, Type (0, 1), BuildingBlock: CIFDUS_clean_linker_0, # of connection points: 2
#     Edge 102, Type (0, 1), BuildingBlock: CIFDUS_clean_linker_0, # of connection points: 2
#     Edge 103, Type (0, 1), BuildingBlock: CIFDUS_clean_linker_0, # of connection points: 2
#     Edge 104, Type (0, 1), BuildingBlock: CIFDUS_clean_linker_0, # of connection points: 2
#     Edge 105, Type (0, 1), BuildingBlock: CIFDUS_clean_linker_0, # of connection points: 2
#     Edge 106, Type (0, 1), BuildingBlock: CIFDUS_clean_linker_0, # of connection points: 2
#     Edge 107, Type (0, 1), BuildingBlock: CIFDUS_clean_linker_0, # of connection points: 2
#     Edge 108, Type (0, 1), BuildingBlock: CIFDUS_clean_linker_0, # of connection points: 2
#     Edge 109, Type (0, 1), BuildingBlock: CIFDUS_clean_linker_0, # of connection points: 2
#     Edge 110, Type (0, 1), BuildingBlock: CIFDUS_clean_linker_0, # of connection points: 2
#     Edge 111, Type (0, 1), BuildingBlock: CIFDUS_clean_linker_0, # of connection points: 2
#     Edge 112, Type (0, 1), BuildingBlock: CIFDUS_clean_linker_0, # of connection points: 2
#     Edge 113, Type (0, 1), BuildingBlock: CIFDUS_clean_linker_0, # of connection points: 2
#     Edge 114, Type (0, 1), BuildingBlock: CIFDUS_clean_linker_0, # of connection points: 2
#     Edge 115, Type (0, 1), BuildingBlock: CIFDUS_clean_linker_0, # of connection points: 2
#     Edge 116, Type (0, 1), BuildingBlock: CIFDUS_clean_linker_0, # of connection points: 2
#     Edge 117, Type (0, 1), BuildingBlock: CIFDUS_clean_linker_0, # of connection points: 2
#     Edge 118, Type (0, 1), BuildingBlock: CIFDUS_clean_linker_0, # of connection points: 2
#     Edge 119, Type (0, 1), BuildingBlock: CIFDUS_clean_linker_0, # of connection points: 2
#     Edge 120, Type (0, 1), BuildingBlock: CIFDUS_clean_linker_0, # of connection points: 2
#     Edge 121, Type (0, 1), BuildingBlock: CIFDUS_clean_linker_0, # of connection points: 2
#     Edge 122, Type (0, 1), BuildingBlock: CIFDUS_clean_linker_0, # of connection points: 2
#     Edge 123, Type (0, 1), BuildingBlock: CIFDUS_clean_linker_0, # of connection points: 2
#     Edge 124, Type (0, 1), BuildingBlock: CIFDUS_clean_linker_0, # of connection points: 2
#     Edge 125, Type (0, 1), BuildingBlock: CIFDUS_clean_linker_0, # of connection points: 2
#     Edge 126, Type (0, 1), BuildingBlock: CIFDUS_clean_linker_0, # of connection points: 2
#     Edge 127, Type (0, 1), BuildingBlock: CIFDUS_clean_linker_0, # of connection points: 2
#     Edge 128, Type (0, 1), BuildingBlock: CIFDUS_clean_linker_0, # of connection points: 2
#     Edge 129, Type (0, 1), BuildingBlock: CIFDUS_clean_linker_0, # of connection points: 2
#     Edge 130, Type (0, 1), BuildingBlock: CIFDUS_clean_linker_0, # of connection points: 2
#     Edge 131, Type (0, 1), BuildingBlock: CIFDUS_clean_linker_0, # of connection points: 2
#     Edge 132, Type (0, 1), BuildingBlock: CIFDUS_clean_linker_0, # of connection points: 2
#     Edge 133, Type (0, 1), BuildingBlock: CIFDUS_clean_linker_0, # of connection points: 2
#     Edge 134, Type (0, 1), BuildingBlock: CIFDUS_clean_linker_0, # of connection points: 2
#     Edge 135, Type (0, 1), BuildingBlock: CIFDUS_clean_linker_0, # of connection points: 2
# Relax obj value: 0.103
# Max RMSD: 0.193
# Mean RMSD: 0.142
data_MOF--net-gar--node1-QUQFOY_clean_sbu_1--node2-KUMBUR_clean_sbu_1--edge1-CIFDUS_clean_linker_0
_symmetry_space_group_name_H-M    P1
_symmetry_Int_Tables_number       1
_symmetry_cell_setting            triclinic
loop_
_symmetry_equiv_pos_as_xyz
'x, y, z'
_cell_length_a     54.116198
_cell_length_b     54.147317
_cell_length_c     50.520708
_cell_angle_alpha  96.915778
_cell_angle_beta   96.845588
_cell_angle_gamma 103.98037
loop_
_atom_site_label
_atom_site_type_symbol
_atom_site_fract_x
_atom_site_fract_y
_atom_site_fract_z
_atom_type_partial_charge
O0 O 0.0767 0.29534 0.3898 0.0
Cd1 Cd 0.07857 0.31255 0.35486 0.0
Cd2 Cd 0.0556 0.35036 0.40532 0.0
O3 O 0.06482 0.31955 0.42261 0.0
O4 O 0.0982 0.29074 0.33062 0.0
O5 O 0.11786 0.32957 0.34968 0.0
C6 C 0.11975 0.30853 0.33588 0.0
C7 C 0.05464 0.38906 0.4356 0.0
C8 C 0.07152 0.29932 0.41377 0.0
C9 C 1.01989 0.32323 0.34922 0.0
O10 O 0.02557 0.33731 0.37249 0.0
O11 O 0.03732 0.31354 0.33891 0.0
O12 O 0.03822 0.36713 0.43397 0.0
O13 O 0.07215 0.38951 0.4203 0.0
O14 O 0.02747 0.72427 0.72198 0.0
Cd15 Cd 0.0343 0.75806 0.75255 0.0
Cd16 Cd 0.06014 0.77941 0.70878 0.0
O17 O 0.04398 0.74231 0.6887 0.0
O18 O 1.00546 0.75154 0.77865 0.0
O19 O 1.00528 0.77982 0.75204 0.0
C20 C 0.99373 0.76777 0.7696 0.0
C21 C 0.05858 0.81396 0.68431 0.0
C22 C 0.03301 0.72226 0.69785 0.0
C23 C 0.09757 0.77716 0.75839 0.0
O24 O 0.09394 0.78275 0.73471 0.0
O25 O 0.07743 0.76912 0.77009 0.0
O26 O 0.07261 0.79846 0.67906 0.0
O27 O 0.0451 0.80994 0.70354 0.0
O28 O 0.62644 0.8398 0.8844 0.0
Cd29 Cd 0.59856 0.84017 0.90963 0.0
Cd30 Cd 0.56673 0.84917 0.86116 0.0
O31 O 0.6017 0.83786 0.84555 0.0
O32 O 0.61274 0.8277 0.94238 0.0
O33 O 0.57626 0.80623 0.91663 0.0
C34 C 0.59312 0.80794 0.9376 0.0
C35 C 0.51814 0.8323 0.84818 0.0
C36 C 0.62384 0.83718 0.85874 0.0
C37 C 0.58344 0.89106 0.91333 0.0
O38 O 0.57499 0.88543 0.88792 0.0
O39 O 0.59208 0.87495 0.92557 0.0
O40 O 0.53212 0.84765 0.83477 0.0
O41 O 0.53147 0.82452 0.86698 0.0
O42 O 0.53355 0.213 0.20736 0.0
Cd43 Cd 0.53928 0.24528 0.24008 0.0
Cd44 Cd 0.56676 0.2697 0.20149 0.0
O45 O 0.5551 0.23357 0.17843 0.0
O46 O 0.50922 0.23718 0.26462 0.0
O47 O 0.51051 0.26738 0.24024 0.0
C48 C 0.49812 0.25423 0.25656 0.0
C49 C 0.55793 0.30612 0.18513 0.0
C50 C 0.54254 0.21263 0.18482 0.0
C51 C 0.60278 0.26644 0.25035 0.0
O52 O 0.60024 0.27435 0.22774 0.0
O53 O 0.5819 0.25606 0.2599 0.0
O54 O 0.57504 0.29568 0.17638 0.0
O55 O 0.54545 0.29559 0.20293 0.0
O56 O 0.06006 0.75601 0.11099 0.0
Cd57 Cd 0.06469 0.78905 0.13787 0.0
Cd58 Cd 0.08798 0.81713 0.09903 0.0
O59 O 0.07838 0.77473 0.07907 0.0
O60 O 0.04005 0.77862 0.16372 0.0
O61 O 0.03868 0.81015 0.14009 0.0
C62 C 0.02936 0.79644 0.15757 0.0
C63 C 0.07432 0.85739 0.08622 0.0
C64 C 0.06826 0.75374 0.08852 0.0
C65 C 0.12156 0.81423 0.15367 0.0
O66 O 0.12048 0.82336 0.13127 0.0
O67 O 0.10104 0.80101 0.1603 0.0
O68 O 0.09276 0.84951 0.07671 0.0
O69 O 0.0628 0.84229 0.10159 0.0
O70 O 0.55466 0.78081 0.46053 0.0
Cd71 Cd 0.53626 0.77819 0.49471 0.0
Cd72 Cd 0.49881 0.79992 0.4458 0.0
O73 O 0.52997 0.79204 0.42771 0.0
O74 O 0.55433 0.75469 0.51844 0.0
O75 O 0.51573 0.73949 0.49636 0.0
C76 C 0.53499 0.7346 0.51073 0.0
C77 C 0.45676 0.79469 0.41875 0.0
C78 C 0.55064 0.78605 0.4366 0.0
C79 C 0.52504 0.83675 0.50067 0.0
O80 O 0.51085 0.83105 0.47751 0.0
O81 O 0.5349 0.81935 0.5108 0.0
O82 O 0.47669 0.8127 0.41691 0.0
O83 O 0.4605 0.7792 0.43545 0.0
O84 O 0.58331 0.25657 0.62606 0.0
Cd85 Cd 0.58638 0.29028 0.65138 0.0
Cd86 Cd 0.6055 0.31747 0.6101 0.0
O87 O 0.59143 0.27495 0.59008 0.0
O88 O 0.56175 0.28134 0.67771 0.0
O89 O 0.55828 0.30884 0.64941 0.0
C90 C 0.54932 0.29668 0.66816 0.0
C91 C 0.59248 0.35859 0.59894 0.0
C92 C 0.5857 0.25413 0.60125 0.0
C93 C 0.64294 0.31659 0.66348 0.0
O94 O 0.64063 0.32283 0.63957 0.0
O95 O 0.62285 0.3057 0.67265 0.0
O96 O 0.60726 0.34813 0.58547 0.0
O97 O 0.58417 0.34567 0.61751 0.0
O98 O 1.01861 0.23364 0.95755 0.0
Cd99 Cd 1.02112 0.26631 0.93841 0.0
Cd100 Cd 1.00715 0.28866 0.98519 0.0
O101 O 1.01666 0.25216 0.99837 0.0
O102 O 0.04528 0.26532 0.91097 0.0
O103 O 0.05465 0.294 0.9481 0.0
C104 C 0.06158 0.28464 0.92625 0.0
C105 C 1.02049 0.33631 1.00351 0.0
C106 C 1.01851 0.23196 0.98255 0.0
C107 C 0.96888 0.27765 0.9315 0.0
O108 O 0.97214 0.28153 0.95735 0.0
O109 O 0.98715 0.27321 0.91949 0.0
O110 O 1.0053 0.31938 0.01433 0.0
O111 O 0.03048 0.32642 0.98415 0.0
O112 O 0.42509 1.01094 0.25487 0.0
Cd113 Cd 0.41286 0.02251 0.29028 0.0
Cd114 Cd 0.45414 1.00259 0.31022 0.0
O115 O 0.46037 1.0004 0.27064 0.0
O116 O 0.38762 0.04198 0.27834 0.0
O117 O 0.42383 0.06032 0.30619 0.0
C118 C 0.40302 0.06256 0.29237 0.0
C119 C 0.48812 1.01489 0.34601 0.0
C120 C 0.44498 1.00331 0.2509 0.0
C121 C 0.39999 0.97596 0.31767 0.0
O122 O 0.42352 0.97583 0.31902 0.0
O123 O 0.39189 0.99374 0.30814 0.0
O124 O 0.47424 0.03047 0.34033 0.0
O125 O 0.48368 0.99328 0.3302 0.0
O126 O 0.291 0.21249 0.58712 0.0
Cd127 Cd 0.28618 0.1844 0.55412 0.0
Cd128 Cd 0.26816 0.22429 0.52835 0.0
O129 O 0.27955 0.24411 0.569 0.0
O130 O 0.29669 0.15601 0.57095 0.0
O131 O 0.31717 0.17447 0.5405 0.0
C132 C 0.31477 0.15744 0.55645 0.0
C133 C 0.27969 0.24217 0.48851 0.0
C134 C 0.28715 0.23489 0.58982 0.0
C135 C 0.2295 0.17293 0.52915 0.0
O136 O 0.23325 0.19554 0.52287 0.0
O137 O 0.24821 0.16528 0.53989 0.0
O138 O 0.26327 0.24929 0.50225 0.0
O139 O 0.29061 0.22559 0.49786 0.0
O140 O 0.14188 0.06038 0.76067 0.0
Cd141 Cd 0.166 0.06201 0.79596 0.0
Cd142 Cd 0.131 0.08919 0.81421 0.0
O143 O 0.11247 0.07965 0.77277 0.0
O144 O 0.1895 0.04196 0.78152 0.0
O145 O 0.16767 0.03061 0.81403 0.0
C146 C 0.18369 0.0262 0.79823 0.0
C147 C 0.11354 0.07559 0.85361 0.0
C148 C 0.12217 0.06856 0.75424 0.0
C149 C 0.18733 0.11891 0.8162 0.0
O150 O 0.16462 0.11996 0.81986 0.0
O151 O 0.19176 0.09737 0.80858 0.0
O152 O 0.10905 0.09533 0.84377 0.0
O153 O 0.12703 0.06296 0.84066 0.0
O154 O 0.35005 0.96976 0.08524 0.0
Cd155 Cd 0.34332 0.98519 0.05097 0.0
Cd156 Cd 0.3612 0.94757 0.02633 0.0
O157 O 0.36154 0.93718 0.06437 0.0
O158 O 0.31799 1.00503 0.05708 0.0
O159 O 0.30984 0.96994 0.02633 0.0
C160 C 0.30207 0.98842 0.03848 0.0
C161 C 0.3509 0.9137 0.9901 0.0
C162 C 0.35724 0.94919 0.08581 0.0
C163 C 0.39055 1.00349 0.02824 0.0
O164 O 0.38866 0.97973 0.02089 0.0
O165 O 0.37388 1.01048 0.04078 0.0
O166 O 0.37228 0.9192 1.00634 0.0
O167 O 0.33481 0.92729 0.9946 0.0
O168 O 0.31933 0.38998 0.11538 0.0
Cd169 Cd 0.32076 0.41427 0.0858 0.0
Cd170 Cd 0.3358 0.37526 0.05747 0.0
O171 O 0.32431 0.35593 0.08987 0.0
O172 O 0.29878 0.43896 0.09291 0.0
O173 O 0.28892 0.40752 0.05815 0.0
C174 C 0.28311 0.42665 0.07152 0.0
C175 C 0.32105 0.36116 0.01043 0.0
C176 C 0.32014 0.36644 0.11243 0.0
C177 C 0.37498 0.42653 0.07232 0.0
O178 O 0.37132 0.40236 0.0656 0.0
O179 O 0.3566 0.4357 0.07888 0.0
O180 O 0.33643 0.35068 0.02398 0.0
O181 O 0.31261 0.37841 0.02388 0.0
O182 O 0.80011 0.19427 0.11174 0.0
Cd183 Cd 0.79052 0.15922 0.08631 0.0
Cd184 Cd 0.75646 0.18262 0.06125 0.0
O185 O 0.77499 0.21393 0.08953 0.0
O186 O 0.81872 0.14286 0.09696 0.0
O187 O 0.81025 0.15265 0.05613 0.0
C188 C 0.82395 0.143 0.07274 0.0
C189 C 0.74927 0.18753 0.01617 0.0
C190 C 0.79183 0.2141 0.10933 0.0
C191 C 0.73403 0.13501 0.08349 0.0
O192 O 0.72985 0.15446 0.07384 0.0
O193 O 0.75672 0.13232 0.0884 0.0
O194 O 0.73718 0.19699 0.03363 0.0
O195 O 0.76592 0.17547 0.02435 0.0
O196 O 0.18064 0.54938 0.22746 0.0
Cd197 Cd 0.21034 0.5598 0.26001 0.0
Cd198 Cd 0.17478 0.58065 0.28229 0.0
O199 O 0.15043 0.56173 0.24746 0.0
O200 O 0.23356 0.53572 0.25811 0.0
O201 O 0.20779 0.53741 0.28873 0.0
C202 C 0.22448 0.52717 0.27873 0.0
C203 C 0.167 0.57608 0.32605 0.0
C204 C 0.15756 0.55136 0.22673 0.0
C205 C 0.2235 0.61733 0.2735 0.0
O206 O 0.20065 0.61416 0.27873 0.0
O207 O 0.23233 0.59796 0.26741 0.0
O208 O 0.15499 0.58911 0.31183 0.0
O209 O 0.18215 0.56454 0.31473 0.0
O210 O 0.82424 0.89389 0.62086 0.0
Cd211 Cd 0.82619 0.91688 0.59025 0.0
Cd212 Cd 0.83924 0.87483 0.56314 0.0
O213 O 0.82869 0.85823 0.59794 0.0
O214 O 0.81073 0.94529 0.60305 0.0
O215 O 0.79353 0.91708 0.56627 0.0
C216 C 0.79278 0.93715 0.58249 0.0
C217 C 0.82145 0.85885 0.51674 0.0
C218 C 0.82471 0.87036 0.6198 0.0
C219 C 0.87909 0.92624 0.57316 0.0
O220 O 0.87496 0.90186 0.56769 0.0
O221 O 0.86158 0.93612 0.58085 0.0
O222 O 0.83763 0.84885 0.52976 0.0
O223 O 0.81386 0.87659 0.53054 0.0
O224 O 0.95075 0.02259 0.2272 0.0
Cd225 Cd 0.92875 0.02177 0.25869 0.0
Cd226 Cd 0.97163 1.01134 0.28707 0.0
O227 O 0.98754 0.02354 0.25218 0.0
O228 O 0.90029 0.03835 0.24913 0.0
O229 O 0.93126 0.05443 0.28395 0.0
C230 C 0.91017 0.05578 0.26992 0.0
C231 C 0.98767 0.02796 0.33376 0.0
C232 C 0.97493 0.02483 0.22937 0.0
C233 C 0.92089 0.97025 0.27785 0.0
O234 O 0.94538 0.97506 0.28293 0.0
O235 O 0.91038 0.98704 0.26949 0.0
O236 O 0.99852 1.01316 0.31987 0.0
O237 O 0.96925 0.03514 0.32066 0.0
O238 O 0.30331 0.66476 0.62475 0.0
Cd239 Cd 0.28885 0.63345 0.59429 0.0
Cd240 Cd 0.26777 0.66711 0.571 0.0
O241 O 0.28937 0.69314 0.60338 0.0
O242 O 0.31361 0.61149 0.59368 0.0
O243 O 0.3042 0.63234 0.56024 0.0
C244 C 0.3172 0.61757 0.57021 0.0
C245 C 0.26344 0.68104 0.52877 0.0
C246 C 0.30138 0.68765 0.6241 0.0
C247 C 0.23253 0.62141 0.58922 0.0
O248 O 0.23554 0.64275 0.58031 0.0
O249 O 0.2516 0.61212 0.59481 0.0
O250 O 0.25302 0.68944 0.54838 0.0
O251 O 0.27674 0.66469 0.53308 0.0
O252 O 0.46604 0.53433 0.7399 0.0
Cd253 Cd 0.44379 0.53503 0.77134 0.0
Cd254 Cd 0.48192 0.51368 0.7964 0.0
O255 O 0.49873 0.52346 0.76182 0.0
O256 O 0.41981 0.55755 0.76396 0.0
O257 O 0.45218 0.56808 0.79779 0.0
C258 C 0.43289 0.57379 0.78458 0.0
C259 C 0.50297 0.52519 0.84219 0.0
C260 C 0.48835 0.53018 0.74062 0.0
C261 C 0.42708 0.48106 0.78655 0.0
O262 O 0.45077 0.48122 0.79099 0.0
O263 O 0.42057 0.50101 0.78042 0.0
O264 O 0.50836 0.50796 0.82549 0.0
O265 O 0.48687 0.53724 0.83254 0.0
O266 O 0.6819 0.05852 0.73097 0.0
Cd267 Cd 0.71377 0.07291 0.76074 0.0
Cd268 Cd 0.68131 0.09944 0.78047 0.0
O269 O 0.65423 0.07595 0.75028 0.0
O270 O 0.73601 0.04802 0.76126 0.0
O271 O 0.71371 0.05609 0.79375 0.0
C272 C 0.72888 0.04353 0.7841 0.0
C273 C 0.6765 0.1014 0.82583 0.0
C274 C 0.65927 0.06154 0.73099 0.0
C275 C 0.72835 0.12977 0.76161 0.0
O276 O 0.70639 0.12934 0.76835 0.0
O277 O 0.73656 0.1096 0.75981 0.0
O278 O 0.6645 0.11336 0.81019 0.0
O279 O 0.69076 0.08814 0.81545 0.0
O280 O 0.79306 0.7105 0.09277 0.0
Cd281 Cd 0.78693 0.68607 0.05667 0.0
Cd282 Cd 0.76777 0.72535 0.03836 0.0
O283 O 0.77962 0.74329 0.08013 0.0
O284 O 0.80815 0.66098 0.06377 0.0
O285 O 0.81464 0.68652 0.03304 0.0
C286 C 0.82127 0.66904 0.0454 0.0
C287 C 0.78295 0.74099 0.99845 0.0
C288 C 0.78856 0.73233 0.0989 0.0
C289 C 0.72988 0.67246 0.03705 0.0
O290 O 0.73314 0.6957 0.03252 0.0
O291 O 0.74918 0.66441 0.04547 0.0
O292 O 0.76618 0.74985 0.01016 0.0
O293 O 0.79196 0.72421 0.00994 0.0
O294 O 0.88481 0.51445 0.76095 0.0
Cd295 Cd 0.8709 0.52059 0.79656 0.0
Cd296 Cd 0.91473 0.51011 0.81748 0.0
O297 O 0.92245 0.5096 0.77827 0.0
O298 O 0.84733 0.54261 0.78962 0.0
O299 O 0.88435 0.55605 0.81765 0.0
C300 C 0.86423 0.56114 0.80535 0.0
C301 C 0.94688 0.52893 0.85416 0.0
C302 C 0.90686 0.51125 0.75804 0.0
C303 C 0.86337 0.47512 0.82403 0.0
O304 O 0.88777 0.4799 0.8268 0.0
O305 O 0.85165 0.48948 0.81244 0.0
O306 O 0.94692 0.50787 0.83929 0.0
O307 O 0.92929 0.54033 0.84714 0.0
O308 O 0.85497 0.46093 0.57671 0.0
Cd309 Cd 0.84349 0.46627 0.53796 0.0
Cd310 Cd 0.85902 0.4237 0.52711 0.0
O311 O 0.85975 0.4217 0.56763 0.0
O312 O 0.82529 0.49374 0.54387 0.0
O313 O 0.80547 0.45418 0.52358 0.0
C314 C 0.80417 0.47701 0.53302 0.0
C315 C 0.83703 0.39056 0.49305 0.0
C316 C 0.85937 0.44082 0.58469 0.0
C317 C 0.88991 0.47152 0.51122 0.0
O318 O 0.88933 0.44886 0.51578 0.0
O319 O 0.87192 0.4817 0.5166 0.0
O320 O 0.8581 0.38955 0.50733 0.0
O321 O 0.8275 0.40978 0.49949 0.0
O322 O 0.64063 0.54805 0.26785 0.0
Cd323 Cd 0.66607 0.55642 0.30335 0.0
Cd324 Cd 0.6307 0.58195 0.3205 0.0
O325 O 0.61201 0.56854 0.27956 0.0
O326 O 0.69068 0.5352 0.29516 0.0
O327 O 0.66878 0.53088 0.32913 0.0
C328 C 0.68531 0.52386 0.3155 0.0
C329 C 0.61233 0.57348 0.36067 0.0
C330 C 0.62044 0.55546 0.26148 0.0
C331 C 0.6842 0.61453 0.31835 0.0
O332 O 0.66195 0.61455 0.32433 0.0
O333 O 0.68942 0.59344 0.31043 0.0
O334 O 0.60582 0.58938 0.34578 0.0
O335 O 0.62854 0.56143 0.35232 0.0
Tb336 Tb 0.07833 0.06425 0.06343 0.0
C337 C 0.99853 0.99655 0.96156 0.0
N338 N 1.00913 0.02161 0.97242 0.0
C339 C 1.01263 0.03247 0.928 0.0
C340 C 0.99514 0.98828 0.93351 0.0
C341 C 1.01533 0.03974 0.95594 0.0
C342 C 1.00278 1.00658 0.91675 0.0
C343 C 0.97687 0.95356 0.96818 0.0
C344 C 0.98955 0.97947 0.97856 0.0
C345 C 0.97441 0.94488 0.9404 0.0
C346 C 0.98354 0.96222 0.92309 0.0
Tb347 Tb 1.01448 0.03066 0.01871 0.0
N348 N 0.99175 0.98875 1.0051 0.0
C349 C 0.9664 0.93742 0.98594 0.0
C350 C 0.98055 0.97344 0.02232 0.0
C351 C 0.96802 0.94749 0.01309 0.0
H352 H 0.02318 0.05981 0.96434 0.0
H353 H 0.95959 0.9353 0.02689 0.0
H354 H 0.07708 0.03059 0.1147 0.0
H355 H 0.12442 0.16339 0.05877 0.0
H356 H 0.98176 0.98114 0.0433 0.0
H357 H 0.95652 0.91737 0.97879 0.0
H358 H 0.10326 0.11784 0.0401 0.0
H359 H 1.01822 0.04687 0.9152 0.0
H360 H 0.96491 0.92499 0.93203 0.0
H361 H 0.98095 0.95543 0.90162 0.0
H362 H 0.08947 0.03952 0.16405 0.0
H363 H 1.00058 1.00102 0.89509 0.0
H364 H 0.13367 0.17731 0.10823 0.0
N365 N 0.08904 0.06995 0.10943 0.0
C366 C 0.09988 0.09454 0.12174 0.0
C367 C 0.09256 0.05519 0.15238 0.0
C368 C 0.10692 0.1006 0.14998 0.0
C369 C 0.08581 0.05019 0.12428 0.0
C370 C 0.10287 0.08054 0.16534 0.0
N371 N 0.09973 0.10631 0.07858 0.0
C372 C 0.10707 0.12373 0.06171 0.0
C373 C 0.11765 0.13914 0.1173 0.0
C374 C 0.10525 0.11347 0.10571 0.0
C375 C 0.12418 0.15735 0.10014 0.0
C376 C 0.11907 0.14955 0.07221 0.0
H377 H 0.108 0.08436 0.18711 0.0
H378 H 0.12379 0.13141 0.18353 0.0
H379 H 0.13311 0.16522 0.15487 0.0
O380 O 0.0961 0.04081 0.04036 0.0
O381 O 0.05651 0.09314 0.05245 0.0
O382 O 0.02629 0.07323 0.01491 0.0
O383 O 0.1186 0.07173 0.07189 0.0
O384 O 0.07606 0.07306 0.02187 0.0
O385 O 0.04931 0.03561 0.9985 0.0
O386 O 0.99456 0.05466 0.03824 0.0
O387 O 0.03173 0.99998 0.03416 0.0
O388 O 0.06792 0.02156 0.06523 0.0
O389 O 0.97496 0.02441 1.0051 0.0
O390 O 1.01472 0.02435 0.06125 0.0
O391 O 0.04665 0.05733 0.0875 0.0
C392 C 0.0391 0.09451 0.03203 0.0
C393 C 0.1338 0.0347 0.06384 0.0
C394 C 0.16978 0.01556 0.06064 0.0
C395 C 0.16136 0.99994 0.07978 0.0
C396 C 0.12612 0.01961 0.08362 0.0
C397 C 0.13968 1.00211 0.0913 0.0
C398 C 0.1558 0.03282 0.05261 0.0
C399 C 0.06758 0.05684 0.99923 0.0
C400 C 0.1189 0.05207 0.0543 0.0
C401 C 0.11842 0.12631 0.16184 0.0
C402 C 0.12373 0.14557 0.14552 0.0
C403 C 0.05192 0.99968 0.05193 0.0
C404 C 0.96134 0.06263 0.00811 0.0
C405 C 0.92902 0.08729 1.00432 0.0
C406 C 0.93922 0.09687 0.98212 0.0
C407 C 0.97054 0.07203 0.98551 0.0
C408 C 0.94046 0.07028 0.01752 0.0
C409 C 0.95973 0.08915 0.97275 0.0
C410 C 0.02496 0.03919 0.08463 0.0
C411 C 0.97322 0.04444 0.02123 0.0
H412 H 0.17201 0.98667 0.08642 0.0
H413 H 0.10946 0.02093 0.0928 0.0
H414 H 0.13343 0.99029 0.10631 0.0
H415 H 0.16207 0.04475 0.03765 0.0
H416 H 0.9314 0.11048 0.972 0.0
H417 H 0.98619 0.06622 0.97773 0.0
H418 H 0.93287 0.06264 0.03461 0.0
H419 H 0.96729 0.09647 0.95553 0.0
Tb420 Tb 0.26509 0.79379 0.3222 0.0
C421 C 0.32873 0.78548 0.2141 0.0
N422 N 0.33248 0.79071 0.24148 0.0
C423 C 0.3647 0.76702 0.24372 0.0
C424 C 0.34227 0.77007 0.20043 0.0
C425 C 0.3508 0.78239 0.25638 0.0
C426 C 0.36027 0.76064 0.21565 0.0
C427 C 0.30715 0.79131 0.17134 0.0
C428 C 0.31147 0.79596 0.19979 0.0
C429 C 0.32011 0.77547 0.15758 0.0
C430 C 0.33767 0.7649 0.1721 0.0
Tb431 Tb 0.30905 0.81657 0.25972 0.0
N432 N 0.29963 0.81148 0.21376 0.0
C433 C 0.29033 0.80314 0.15759 0.0
C434 C 0.28414 0.82399 0.20042 0.0
C435 C 0.27897 0.81977 0.17222 0.0
H436 H 0.35468 0.78725 0.27802 0.0
H437 H 0.26657 0.82965 0.1618 0.0
H438 H 0.22884 0.83151 0.29869 0.0
H439 H 0.30638 0.78822 0.42312 0.0
H440 H 0.27659 0.838 0.21156 0.0
H441 H 0.2865 0.80008 0.13574 0.0
H442 H 0.29891 0.77788 0.37359 0.0
H443 H 0.3789 0.76018 0.25564 0.0
H444 H 0.31699 0.77159 0.13573 0.0
H445 H 0.3478 0.75301 0.16122 0.0
H446 H 0.207 0.86243 0.31769 0.0
H447 H 0.37112 0.74877 0.20591 0.0
H448 H 0.28548 0.81889 0.44592 0.0
N449 N 0.2448 0.82432 0.33685 0.0
C450 C 0.24736 0.83072 0.36408 0.0
C451 C 0.2182 0.85355 0.33099 0.0
C452 C 0.23521 0.84864 0.37585 0.0
C453 C 0.23062 0.83568 0.32024 0.0
C454 C 0.22037 0.85996 0.3589 0.0
N455 N 0.27479 0.80324 0.36804 0.0
C456 C 0.29019 0.79183 0.38311 0.0
C457 C 0.26644 0.82611 0.40853 0.0
C458 C 0.2629 0.81981 0.38019 0.0
C459 C 0.28234 0.81464 0.42408 0.0
C460 C 0.29425 0.7974 0.41129 0.0
H461 H 0.21076 0.87384 0.36713 0.0
H462 H 0.22924 0.86854 0.41348 0.0
H463 H 0.25648 0.84866 0.44213 0.0
O464 O 0.26024 0.75736 0.33493 0.0
O465 O 0.28786 0.83405 0.3307 0.0
O466 O 0.28597 0.83239 0.28615 0.0
O467 O 0.22785 0.76943 0.31701 0.0
O468 O 0.30551 0.78986 0.32925 0.0
O469 O 0.32963 0.81239 0.29927 0.0
O470 O 0.32201 0.85042 0.24324 0.0
O471 O 0.29722 0.774 0.25356 0.0
O472 O 0.28169 0.78659 0.28763 0.0
O473 O 0.34327 0.84335 0.27887 0.0
O474 O 0.26653 0.81446 0.25053 0.0
O475 O 0.24201 0.79499 0.28236 0.0
C476 C 0.29516 0.84509 0.31026 0.0
C477 C 0.21978 0.74301 0.35043 0.0
C478 C 0.21549 0.73127 0.39519 0.0
C479 C 0.18862 0.7268 0.38896 0.0
C480 C 0.19282 0.73794 0.34458 0.0
C481 C 0.1774 0.72995 0.36375 0.0
C482 C 0.23109 0.73916 0.37575 0.0
C483 C 0.32769 0.80166 0.32166 0.0
C484 C 0.23522 0.75221 0.32961 0.0
C485 C 0.2385 0.85489 0.40408 0.0
C486 C 0.25404 0.84361 0.42039 0.0
C487 C 0.28321 0.76679 0.27152 0.0
C488 C 0.36738 0.86405 0.24792 0.0
C489 C 0.38955 0.88209 0.21257 0.0
C490 C 0.41162 0.87494 0.2229 0.0
C491 C 0.38973 0.85725 0.25822 0.0
C492 C 0.36762 0.87674 0.22534 0.0
C493 C 0.4117 0.86274 0.24574 0.0
C494 C 0.24406 0.80379 0.25866 0.0
C495 C 0.34351 0.85763 0.25995 0.0
H496 H 0.17627 0.72057 0.40357 0.0
H497 H 0.18362 0.74033 0.32514 0.0
H498 H 0.15667 0.72625 0.35906 0.0
H499 H 0.2518 0.74266 0.38055 0.0
H500 H 0.42877 0.87888 0.21338 0.0
H501 H 0.39021 0.8475 0.2757 0.0
H502 H 0.35035 0.88177 0.21716 0.0
H503 H 0.42878 0.85734 0.25367 0.0
Tb504 Tb 0.51947 0.04674 0.54973 0.0
C505 C 0.6206 0.10161 0.52991 0.0
N506 N 0.60642 0.07777 0.5175 0.0
C507 C 0.61211 0.09065 0.47425 0.0
C508 C 0.62962 0.12133 0.51485 0.0
C509 C 0.604 0.07162 0.49006 0.0
C510 C 0.62444 0.11577 0.48668 0.0
C511 C 0.64361 0.12965 0.57122 0.0
C512 C 0.62778 0.10577 0.55776 0.0
C513 C 0.65145 0.14972 0.5564 0.0
C514 C 0.64446 0.14558 0.52829 0.0
Tb515 Tb 0.59355 0.04907 0.54634 0.0
N516 N 0.61931 0.08613 0.57165 0.0
C517 C 0.65141 0.13247 0.59911 0.0
C518 C 0.628 0.08827 0.59859 0.0
C519 C 0.64388 0.11157 0.61277 0.0
H520 H 0.59623 0.052 0.48009 0.0
H521 H 0.65025 0.11342 0.63422 0.0
H522 H 0.51667 0.01635 0.60321 0.0
H523 H 0.46143 0.02563 0.45101 0.0
H524 H 0.62224 0.07213 0.60912 0.0
H525 H 0.66362 0.15053 0.61019 0.0
H526 H 0.49482 0.05214 0.48784 0.0
H527 H 0.60934 0.08578 0.4525 0.0
H528 H 0.6634 0.16834 0.5664 0.0
H529 H 0.65129 0.16102 0.51704 0.0
H530 H 0.49042 0.97642 0.61487 0.0
H531 H 0.63103 0.13038 0.47438 0.0
H532 H 0.43412 0.98396 0.45829 0.0
N533 N 0.49725 1.0099 0.56282 0.0
C534 C 0.47716 0.99496 0.54443 0.0
C535 C 0.48667 0.9813 0.59489 0.0
C536 C 0.46162 0.97198 0.55024 0.0
C537 C 0.50174 1.00382 0.5881 0.0
C538 C 0.46664 0.96521 0.57584 0.0
N539 N 0.48859 0.02457 0.51446 0.0
C540 C 0.48411 0.03336 0.4906 0.0
C541 C 0.45304 0.98695 0.49925 0.0
C542 C 0.47302 1.00232 0.51926 0.0
C543 C 0.44923 0.99524 0.47423 0.0
C544 C 0.46471 0.01867 0.46999 0.0
H545 H 0.45509 0.94773 0.58115 0.0
H546 H 0.42962 0.93873 0.53438 0.0
H547 H 0.42209 0.95184 0.48974 0.0
O548 O 0.488 0.06269 0.54185 0.0
O549 O 0.52723 1.00732 0.54011 0.0
O550 O 0.5701 1.00804 0.53654 0.0
O551 O 0.50668 0.06529 0.58249 0.0
O552 O 0.53831 0.06079 0.51672 0.0
O553 O 0.56625 0.03617 0.50869 0.0
O554 O 0.62117 0.03505 0.56886 0.0
O555 O 0.58189 0.08298 0.56783 0.0
O556 O 0.5442 0.08445 0.54349 0.0
O557 O 0.62259 0.03813 0.5272 0.0
O558 O 0.57423 0.03117 0.57707 0.0
O559 O 0.54539 0.05374 0.58829 0.0
C560 C 0.54561 0.99524 0.53571 0.0
C561 C 0.46248 0.0661 0.57618 0.0
C562 C 0.42255 0.07973 0.57852 0.0
C563 C 0.41523 0.06109 0.59534 0.0
C564 C 0.45448 0.04749 0.59257 0.0
C565 C 0.43095 0.04502 0.60201 0.0
C566 C 0.44634 0.08186 0.56893 0.0
C567 C 0.54832 0.04708 0.50002 0.0
C568 C 0.48791 0.07029 0.56716 0.0
C569 C 0.44176 0.95651 0.53033 0.0
C570 C 0.4375 0.96395 0.50488 0.0
C571 C 0.56641 0.0968 0.55859 0.0
C572 C 0.66218 0.04242 0.55509 0.0
C573 C 0.70437 0.03515 0.56896 0.0
C574 C 0.71594 0.06107 0.56755 0.0
C575 C 0.67423 0.06803 0.5532 0.0
C576 C 0.67736 0.02593 0.56271 0.0
C577 C 0.70094 0.07732 0.5596 0.0
C578 C 0.56384 0.04273 0.59517 0.0
C579 C 0.63392 0.03251 0.54895 0.0
H580 H 0.39757 0.05914 0.60388 0.0
H581 H 0.46652 0.03513 0.59837 0.0
H582 H 0.42501 0.03083 0.61493 0.0
H583 H 0.4525 0.0958 0.55578 0.0
H584 H 0.73668 0.06865 0.57208 0.0
H585 H 0.66312 0.0808 0.54655 0.0
H586 H 0.66817 1.00605 0.56398 0.0
H587 H 0.71007 0.09714 0.55819 0.0
Tb588 Tb 0.33677 0.28655 0.80417 0.0
C589 C 0.25735 0.33297 0.7403 0.0
N590 N 0.27264 0.34353 0.76436 0.0
C591 C 0.28159 0.38506 0.75008 0.0
C592 C 0.25417 0.34801 0.71987 0.0
C593 C 0.28413 0.36937 0.76975 0.0
C594 C 0.26672 0.37432 0.72495 0.0
C595 C 0.22922 0.2951 0.71134 0.0
C596 C 0.24493 0.30686 0.73608 0.0
C597 C 0.22613 0.30999 0.69086 0.0
C598 C 0.23857 0.33637 0.69511 0.0
Tb599 Tb 0.27522 0.3156 0.79445 0.0
N600 N 0.24934 0.29277 0.7559 0.0
C601 C 0.2173 0.26869 0.70787 0.0
C602 C 0.2369 0.26726 0.75306 0.0
C603 C 0.22098 0.25477 0.72891 0.0
H604 H 0.29458 0.37812 0.78948 0.0
H605 H 0.21148 0.23444 0.72658 0.0
H606 H 0.32542 0.22305 0.79673 0.0
H607 H 0.39364 0.36219 0.88322 0.0
H608 H 0.23915 0.25645 0.76927 0.0
H609 H 0.20507 0.25891 0.68914 0.0
H610 H 0.36723 0.34451 0.83869 0.0
H611 H 0.29087 0.4055 0.75443 0.0
H612 H 0.21421 0.30128 0.67165 0.0
H613 H 0.23597 0.3476 0.67913 0.0
H614 H 0.33367 0.19045 0.82456 0.0
H615 H 0.26475 0.38655 0.70978 0.0
H616 H 0.40347 0.33274 0.91441 0.0
N617 N 0.34419 0.25481 0.82728 0.0
C618 C 0.3584 0.26281 0.8522 0.0
C619 C 0.34061 0.21074 0.83265 0.0
C620 C 0.36401 0.24499 0.86862 0.0
C621 C 0.33569 0.2292 0.81708 0.0
C622 C 0.35471 0.21865 0.8586 0.0
N623 N 0.36117 0.30551 0.84492 0.0
C624 C 0.37113 0.3315 0.85214 0.0
C625 C 0.38267 0.29823 0.88678 0.0
C626 C 0.36756 0.28903 0.86118 0.0
C627 C 0.39183 0.32488 0.89487 0.0
C628 C 0.38624 0.34157 0.87735 0.0
H629 H 0.35857 0.20432 0.87059 0.0
H630 H 0.38322 0.24061 0.90729 0.0
H631 H 0.39957 0.28724 0.92318 0.0
O632 O 0.37174 0.30603 0.79356 0.0
O633 O 0.3211 0.29715 0.84093 0.0
O634 O 0.29953 0.32871 0.83453 0.0
O635 O 0.35912 0.26484 0.78499 0.0
O636 O 0.33512 0.32074 0.78536 0.0
O637 O 0.31225 0.34484 0.80658 0.0
O638 O 0.24078 0.30228 0.81016 0.0
O639 O 0.29016 0.30116 0.75751 0.0
O640 O 0.30856 0.26876 0.76839 0.0
O641 O 0.25272 0.34138 0.80322 0.0
O642 O 0.27135 0.27995 0.81214 0.0
O643 O 0.29965 0.25685 0.79767 0.0
C644 C 0.31015 0.31503 0.85027 0.0
C645 C 0.38327 0.28649 0.75457 0.0
C646 C 0.41504 0.28813 0.72357 0.0
C647 C 0.39641 0.29091 0.70294 0.0
C648 C 0.36552 0.29016 0.73385 0.0
C649 C 0.37191 0.29198 0.70812 0.0
C650 C 0.4081 0.28558 0.74943 0.0
C651 C 0.3334 0.34314 0.79689 0.0
C652 C 0.37637 0.28523 0.78187 0.0
C653 C 0.37877 0.25401 0.89433 0.0
C654 C 0.3881 0.28057 0.90337 0.0
C655 C 0.29816 0.28039 0.75042 0.0
C656 C 0.22828 0.3336 0.83886 0.0
C657 C 0.19513 0.33159 0.86867 0.0
C658 C 0.2121 0.3528 0.88612 0.0
C659 C 0.24473 0.3543 0.85702 0.0
C660 C 0.20371 0.32205 0.84498 0.0
C661 C 0.23668 0.36371 0.8805 0.0
C662 C 0.27819 0.25825 0.80729 0.0
C663 C 0.23595 0.32475 0.81289 0.0
H664 H 0.40074 0.29222 0.6827 0.0
H665 H 0.34688 0.29204 0.73774 0.0
H666 H 0.35788 0.29447 0.69219 0.0
H667 H 0.42211 0.2836 0.7657 0.0
H668 H 0.20639 0.36156 0.90398 0.0
H669 H 0.26365 0.36352 0.85284 0.0
H670 H 0.19141 0.30573 0.8311 0.0
H671 H 0.24939 0.37993 0.89419 0.0
Tb672 Tb 0.06107 0.02002 0.54484 0.0
C673 C 1.01797 0.11088 0.59523 0.0
N674 N 1.00891 0.09588 0.57077 0.0
C675 C 0.9655 0.09467 0.57739 0.0
C676 C 1.00103 0.11791 0.61206 0.0
C677 C 0.9831 0.08828 0.56138 0.0
C678 C 0.97448 0.10937 0.60294 0.0
C679 C 0.05466 0.13506 0.62843 0.0
C680 C 0.04442 0.11938 0.60332 0.0
C681 C 0.03785 0.14188 0.64544 0.0
C682 C 1.01111 0.13332 0.63728 0.0
Tb683 Tb 0.03952 0.08615 0.54699 0.0
N684 N 0.06007 0.11157 0.58675 0.0
C685 C 0.08147 0.14339 0.63565 0.0
C686 C 0.08619 0.1208 0.59302 0.0
C687 C 0.09729 0.13647 0.61772 0.0
H688 H 0.97616 0.07802 0.54118 0.0
H689 H 0.11803 0.14331 0.62284 0.0
H690 H 0.12471 0.03104 0.54765 0.0
H691 H 0.98144 0.96097 0.47144 0.0
H692 H 0.09854 0.1162 0.57912 0.0
H693 H 0.09013 0.15545 0.6548 0.0
H694 H 1.00167 0.98892 0.51442 0.0
H695 H 0.94504 0.0885 0.56989 0.0
H696 H 0.04534 0.15384 0.66489 0.0
H697 H 0.99839 0.13886 0.65054 0.0
H698 H 0.15492 0.02096 0.51772 0.0
H699 H 0.9608 0.11437 0.61526 0.0
H700 H 1.00861 0.94878 0.43869 0.0
N701 N 0.09117 1.01128 0.5197 0.0
C702 C 0.08164 0.99558 0.49571 0.0
C703 C 0.13435 1.01391 0.51117 0.0
C704 C 0.09818 0.98884 0.47819 0.0
C705 C 0.11716 0.02001 0.52789 0.0
C706 C 0.12483 0.9984 0.48612 0.0
N707 N 0.0398 0.99404 0.50568 0.0
C708 C 1.0137 0.98441 0.50018 0.0
C709 C 0.04444 0.97013 0.46388 0.0
C710 C 0.05512 0.98632 0.48863 0.0
C711 C 1.0176 0.96125 0.45753 0.0
C712 C 1.00219 0.96821 0.47589 0.0
H713 H 0.13819 0.99367 0.47324 0.0
H714 H 0.10004 0.96749 0.43964 0.0
H715 H 0.05299 0.95113 0.42711 0.0
O716 O 0.0418 0.98865 0.56211 0.0
O717 O 0.05378 0.03493 0.50617 0.0
O718 O 0.0239 0.05904 0.50918 0.0
O719 O 0.08186 0.99482 0.55928 0.0
O720 O 0.02531 0.02349 0.55961 0.0
O721 O 1.00734 0.05089 0.53677 0.0
O722 O 0.06057 0.11732 0.53062 0.0
O723 O 0.04638 0.07134 0.58593 0.0
O724 O 0.07656 0.04779 0.58214 0.0
O725 O 1.02041 0.11252 0.53232 0.0
O726 O 0.07586 0.08308 0.53272 0.0
O727 O 0.09253 0.05522 0.55607 0.0
C728 C 0.03629 0.04543 0.49484 0.0
C729 C 0.06756 0.97626 0.59658 0.0
C730 C 0.0633 0.94754 0.63073 0.0
C731 C 0.07624 0.96866 0.65059 0.0
C732 C 0.081 0.99674 0.6168 0.0
C733 C 0.08516 0.993 0.64361 0.0
C734 C 0.05899 0.95142 0.60355 0.0
C735 C 1.00507 0.02992 0.54832 0.0
C736 C 0.06249 0.98108 0.56846 0.0
C737 C 0.08763 0.97281 0.45341 0.0
C738 C 0.06084 0.96348 0.44628 0.0
C739 C 0.06409 0.06094 0.59689 0.0
C740 C 0.03685 0.13236 0.49649 0.0
C741 C 0.04517 0.16255 0.46399 0.0
C742 C 0.03007 0.14301 0.44346 0.0
C743 C 1.02168 0.1135 0.47557 0.0
C744 C 0.04841 0.15713 0.49072 0.0
C745 C 1.01837 0.11877 0.44926 0.0
C746 C 0.09558 0.07581 0.54402 0.0
C747 C 0.0406 0.126 0.52416 0.0
H748 H 0.07994 0.96619 0.67153 0.0
H749 H 0.08844 0.01557 0.61169 0.0
H750 H 0.09549 1.00895 0.65905 0.0
H751 H 0.04889 0.93533 0.58805 0.0
H752 H 0.02708 0.14659 0.42282 0.0
H753 H 1.01228 0.09473 0.47973 0.0
H754 H 0.06015 0.17189 0.50676 0.0
H755 H 1.00664 0.10402 0.43326 0.0
Tb756 Tb 0.30979 0.83722 0.79332 0.0
C757 C 0.25486 0.74068 0.83743 0.0
N758 N 0.27802 0.75797 0.84713 0.0
C759 C 0.2678 0.75881 0.89215 0.0
C760 C 0.23701 0.73239 0.85477 0.0
C761 C 0.28494 0.7665 0.87426 0.0
C762 C 0.24369 0.74184 0.88238 0.0
C763 C 0.22484 0.71409 0.79902 0.0
C764 C 0.24881 0.73145 0.80983 0.0
C765 C 0.20705 0.70587 0.81628 0.0
C766 C 0.21312 0.71498 0.84405 0.0
Tb767 Tb 0.30386 0.76782 0.81512 0.0
N768 N 0.26594 0.74081 0.79342 0.0
C769 C 0.21937 0.70573 0.77112 0.0
C770 C 0.26118 0.73194 0.76641 0.0
C771 C 0.23771 0.71453 0.7548 0.0
H772 H 0.30385 0.77867 0.88252 0.0
H773 H 0.23385 0.70778 0.73329 0.0
H774 H 0.28945 0.8357 0.72847 0.0
H775 H 0.39482 0.89485 0.86028 0.0
H776 H 0.27549 0.73794 0.75384 0.0
H777 H 0.20116 0.69236 0.76203 0.0
H778 H 0.35147 0.8646 0.84875 0.0
H779 H 0.27333 0.76575 0.91357 0.0
H780 H 0.18849 0.69255 0.80834 0.0
H781 H 0.19916 0.70846 0.85709 0.0
H782 H 0.30769 0.8526 0.68964 0.0
H783 H 0.23052 0.73592 0.89636 0.0
H784 H 0.41721 0.91262 0.82407 0.0
N785 N 0.32384 0.85259 0.75627 0.0
C786 C 0.34793 0.86864 0.76051 0.0
C787 C 0.31929 0.85709 0.70943 0.0
C788 C 0.35892 0.87927 0.73915 0.0
C789 C 0.30915 0.84726 0.73135 0.0
C790 C 0.34438 0.87299 0.71329 0.0
N791 N 0.34997 0.86439 0.80652 0.0
C792 C 0.36118 0.87212 0.83289 0.0
C793 C 0.3859 0.89256 0.79213 0.0
C794 C 0.36128 0.87513 0.78656 0.0
C795 C 0.39824 0.89933 0.81894 0.0
C796 C 0.38568 0.8893 0.83944 0.0
H797 H 0.35213 0.88072 0.69631 0.0
H798 H 0.39263 0.90437 0.72824 0.0
H799 H 0.41624 0.91604 0.77465 0.0
O800 O 0.3019 0.8641 0.82248 0.0
O801 O 0.34749 0.8259 0.79966 0.0
O802 O 0.34488 0.79235 0.82513 0.0
O803 O 0.29093 0.86462 0.78039 0.0
O804 O 0.29717 0.82232 0.8287 0.0
O805 O 0.32111 0.79945 0.84797 0.0
O806 O 0.31769 0.73764 0.79666 0.0
O807 O 0.26603 0.77999 0.80525 0.0
O808 O 0.27182 0.81043 0.77645 0.0
O809 O 0.31186 0.73999 0.83796 0.0
O810 O 0.31712 0.77561 0.77693 0.0
O811 O 0.29759 0.80507 0.76003 0.0
C812 C 0.35867 0.8111 0.81387 0.0
C813 C 0.26304 0.8749 0.81022 0.0
C814 C 0.23051 0.8988 0.81642 0.0
C815 C 0.21384 0.87624 0.82171 0.0
C816 C 0.24625 0.85304 0.81649 0.0
C817 C 0.22172 0.85359 0.82179 0.0
C818 C 0.25511 0.89786 0.8102 0.0
C819 C 0.31291 0.82019 0.84923 0.0
C820 C 0.28906 0.87383 0.80487 0.0
C821 C 0.38379 0.8961 0.7444 0.0
C822 C 0.39723 0.90276 0.77084 0.0
C823 C 0.25631 0.79345 0.78798 0.0
C824 C 0.34643 0.72337 0.82697 0.0
C825 C 0.37578 0.69497 0.82478 0.0
C826 C 0.39292 0.71244 0.84595 0.0
C827 C 0.36432 0.74047 0.84751 0.0
C828 C 0.3524 0.70088 0.81534 0.0
C829 C 0.38737 0.73503 0.85682 0.0
C830 C 0.30726 0.78505 0.75665 0.0
C831 C 0.32099 0.72827 0.81896 0.0
H832 H 0.19463 0.87609 0.82587 0.0
H833 H 0.25228 0.83561 0.81781 0.0
H834 H 0.20886 0.83646 0.82629 0.0
H835 H 0.26827 0.91501 0.8061 0.0
H836 H 0.41051 0.70856 0.85482 0.0
H837 H 0.3602 0.7578 0.85686 0.0
H838 H 0.33868 0.68808 0.79913 0.0
H839 H 0.40081 0.74815 0.87302 0.0
Tb840 Tb 0.58954 0.07853 0.02531 0.0
C841 C 0.54363 1.01352 0.12456 0.0
N842 N 0.55145 1.00766 0.10056 0.0
C843 C 0.57186 0.97742 0.11886 0.0
C844 C 0.55007 1.00184 0.14694 0.0
C845 C 0.56481 0.98938 0.09717 0.0
C846 C 0.56465 0.98383 0.14393 0.0
C847 C 0.5177 0.03522 0.15007 0.0
C848 C 0.52802 0.03035 0.12621 0.0
C849 C 0.52507 0.02465 0.17286 0.0
C850 C 0.54123 1.00798 0.1713 0.0
Tb851 Tb 0.53925 0.02884 0.06703 0.0
N852 N 0.52097 0.03991 0.10365 0.0
C853 C 0.4993 0.04948 0.14988 0.0
C854 C 0.50173 0.05231 0.10285 0.0
C855 C 0.49093 0.05763 0.12601 0.0
H856 H 0.57053 0.98455 0.07792 0.0
H857 H 0.47611 0.06795 0.12539 0.0
H858 H 0.60263 0.14114 0.04544 0.0
H859 H 0.54341 0.02202 0.92782 0.0
H860 H 0.49498 0.05851 0.08443 0.0
H861 H 0.49074 0.05343 0.16773 0.0
H862 H 0.55353 0.02954 0.97715 0.0
H863 H 0.58282 0.96326 0.11624 0.0
H864 H 0.51769 0.02854 0.1915 0.0
H865 H 0.54613 0.99936 0.18881 0.0
H866 H 0.61074 0.18058 0.02436 0.0
H867 H 0.57001 0.97442 0.16065 0.0
H868 H 0.55575 0.058 0.90206 0.0
N869 N 0.59162 0.11581 0.00814 0.0
C870 C 0.58811 0.11361 0.9809 0.0
C871 C 0.60422 0.16185 0.01187 0.0
C872 C 0.59265 0.13552 0.96788 0.0
C873 C 0.59931 0.13948 0.02378 0.0
C874 C 0.6011 0.15987 0.98377 0.0
N875 N 0.57394 0.06899 0.97984 0.0
C876 C 0.5602 0.04526 0.96644 0.0
C877 C 0.57289 0.08604 0.93782 0.0
C878 C 0.57887 0.08927 0.96616 0.0
C879 C 0.56078 0.06134 0.92384 0.0
C880 C 0.55385 0.04099 0.9383 0.0
H881 H 0.60499 0.1772 0.97457 0.0
H882 H 0.59193 0.14892 0.92912 0.0
H883 H 0.57426 0.10552 0.90273 0.0
O884 O 0.62523 0.07614 0.01425 0.0
O885 O 0.54996 0.08087 0.01463 0.0
O886 O 0.5418 0.04302 0.02849 0.0
O887 O 0.62331 0.1034 0.04804 0.0
O888 O 0.58723 0.0364 0.01407 0.0
O889 O 0.56031 1.0091 0.03892 0.0
O890 O 0.50002 0.02076 0.05115 0.0
O891 O 0.57786 0.04036 0.09206 0.0
O892 O 0.5822 0.05628 0.05617 0.0
O893 O 0.51801 0.99008 0.05681 0.0
O894 O 0.54318 0.0715 0.07866 0.0
O895 O 0.57742 0.09811 0.06111 0.0
C896 C 0.53295 0.06185 0.02091 0.0
C897 C 0.65381 0.11796 0.02017 0.0
C898 C 0.66737 0.13707 0.98125 0.0
C899 C 0.67798 0.1609 0.99786 0.0
C900 C 0.66531 0.14174 0.03673 0.0
C901 C 0.67724 0.16308 0.02557 0.0
C902 C 0.65547 0.11568 0.99249 0.0
C903 C 0.57594 1.01323 0.02021 0.0
C904 C 0.63779 0.09666 0.03125 0.0
C905 C 0.58827 0.13236 0.93956 0.0
C906 C 0.57832 0.10765 0.92453 0.0
C907 C 0.59376 0.05403 0.07917 0.0
C908 C 0.47344 0.98152 0.05799 0.0
C909 C 0.44694 0.97213 0.09297 0.0
C910 C 0.42787 0.95482 0.07369 0.0
C911 C 0.45421 0.9643 0.03888 0.0
C912 C 0.46994 0.98498 0.08506 0.0
C913 C 0.43166 0.95074 0.04683 0.0
C914 C 0.55952 0.0943 0.07754 0.0
C915 C 0.49666 0.99599 0.04907 0.0
H916 H 0.68692 0.17768 0.98942 0.0
H917 H 0.66425 0.14407 0.05813 0.0
H918 H 0.68548 0.18147 0.03839 0.0
H919 H 0.64654 0.09756 0.97932 0.0
H920 H 0.41026 0.94434 0.07952 0.0
H921 H 0.45667 0.96134 0.01785 0.0
H922 H 0.48468 0.99801 0.09989 0.0
H923 H 0.41709 0.93716 0.03212 0.0
Tb924 Tb 0.29951 0.25874 0.281 0.0
C925 C 0.3878 0.33633 0.34127 0.0
N926 N 0.36376 0.32803 0.34783 0.0
C927 C 0.38266 0.32257 0.3916 0.0
C928 C 0.41007 0.33661 0.35908 0.0
C929 C 0.36122 0.32312 0.37348 0.0
C930 C 0.40715 0.32878 0.38415 0.0
C931 C 0.41474 0.35626 0.31038 0.0
C932 C 0.39025 0.34617 0.31731 0.0
C933 C 0.43687 0.35549 0.32751 0.0
C934 C 0.43454 0.34564 0.35177 0.0
Tb935 Tb 0.33056 0.32925 0.31534 0.0
N936 N 0.36842 0.34573 0.30066 0.0
C937 C 0.41619 0.36705 0.28658 0.0
C938 C 0.36967 0.35733 0.27812 0.0
C939 C 0.39356 0.36791 0.27058 0.0
H940 H 0.34296 0.32044 0.3807 0.0
H941 H 0.39452 0.37663 0.25242 0.0
H942 H 0.2655 0.27157 0.2278 0.0
H943 H 0.27404 0.19037 0.34946 0.0
H944 H 0.35219 0.35808 0.26584 0.0
H945 H 0.43467 0.37507 0.28059 0.0
H946 H 0.30387 0.22032 0.32743 0.0
H947 H 0.38034 0.31798 0.41158 0.0
H948 H 0.45588 0.36289 0.32242 0.0
H949 H 0.45182 0.34575 0.3651 0.0
H950 H 0.22006 0.25994 0.20614 0.0
H951 H 0.42376 0.32872 0.3984 0.0
H952 H 0.22708 0.17961 0.33367 0.0
N953 N 0.25798 0.24982 0.25968 0.0
C954 C 0.24024 0.23253 0.26966 0.0
C955 C 0.22545 0.25227 0.22415 0.0
C956 C 0.21409 0.2252 0.25788 0.0
C957 C 0.25118 0.25898 0.23659 0.0
C958 C 0.20677 0.23551 0.23498 0.0
N959 N 0.27408 0.22913 0.3018 0.0
C960 C 0.28339 0.21705 0.3215 0.0
C961 C 0.23077 0.20442 0.30301 0.0
C962 C 0.2485 0.22234 0.29189 0.0
C963 C 0.24007 0.19343 0.32452 0.0
C964 C 0.26654 0.19952 0.33355 0.0
H965 H 0.18685 0.2304 0.22533 0.0
H966 H 0.17597 0.20221 0.26073 0.0
H967 H 0.19058 0.18397 0.30026 0.0
O968 O 0.29895 0.21975 0.2699 0.0
O969 O 0.26941 0.28055 0.29054 0.0
O970 O 0.28955 0.3168 0.32217 0.0
O971 O 0.30903 0.24722 0.24317 0.0
O972 O 0.31909 0.26551 0.32322 0.0
O973 O 0.31235 0.30334 0.34191 0.0
O974 O 0.32251 0.36344 0.30517 0.0
O975 O 0.35238 0.308 0.28864 0.0
O976 O 0.34161 0.26706 0.2971 0.0
O977 O 0.34051 0.36225 0.34495 0.0
O978 O 0.30619 0.3244 0.27646 0.0
O979 O 0.31066 0.28717 0.25341 0.0
C980 C 0.26811 0.30029 0.30854 0.0
C981 C 0.3326 0.21559 0.24508 0.0
C982 C 0.35879 0.18517 0.25245 0.0
C983 C 0.37844 0.20051 0.24119 0.0
C984 C 0.35243 0.2303 0.23345 0.0
C985 C 0.37514 0.22277 0.23158 0.0
C986 C 0.33584 0.19282 0.25424 0.0
C987 C 0.3132 0.27951 0.34349 0.0
C988 C 0.30891 0.22417 0.24824 0.0
C989 C 0.19621 0.20791 0.26932 0.0
C990 C 0.20452 0.19758 0.29188 0.0
C991 C 0.35908 0.28615 0.29076 0.0
C992 C 0.31221 0.38942 0.34101 0.0
C993 C 0.28763 0.42187 0.33817 0.0
C994 C 0.27981 0.417 0.36309 0.0
C995 C 0.30376 0.38473 0.36561 0.0
C996 C 0.3039 0.40781 0.3273 0.0
C997 C 0.28765 0.39845 0.37649 0.0
C998 C 0.308 0.31077 0.25389 0.0
C999 C 0.33003 0.37573 0.3296 0.0
H1000 H 0.39618 0.195 0.23926 0.0
H1001 H 0.3506 0.24784 0.22606 0.0
H1002 H 0.39033 0.23435 0.22277 0.0
H1003 H 0.32066 0.18124 0.26309 0.0
H1004 H 0.26794 0.42777 0.3726 0.0
H1005 H 0.30963 0.37055 0.37653 0.0
H1006 H 0.31004 0.41095 0.30806 0.0
H1007 H 0.28139 0.39487 0.39556 0.0
Tb1008 Tb 0.55934 0.51856 0.05087 0.0
C1009 C 0.52456 0.61194 0.11007 0.0
N1010 N 0.51338 0.59687 0.08612 0.0
C1011 C 0.47147 0.59639 0.09745 0.0
C1012 C 0.50956 0.6196 0.12889 0.0
C1013 C 0.48718 0.58945 0.07937 0.0
C1014 C 0.48269 0.61141 0.1224 0.0
C1015 C 0.56365 0.63609 0.1399 0.0
C1016 C 0.55122 0.62 0.11556 0.0
C1017 C 0.54882 0.64355 0.15888 0.0
C1018 C 0.52184 0.6353 0.1534 0.0
Tb1019 Tb 0.54101 0.58629 0.05858 0.0
N1020 N 0.56492 0.61182 0.09697 0.0
C1021 C 0.59058 0.64423 0.14436 0.0
C1022 C 0.5911 0.62083 0.10063 0.0
C1023 C 0.60434 0.63678 0.12449 0.0
H1024 H 0.4784 0.57886 0.05971 0.0
H1025 H 0.62514 0.64356 0.12741 0.0
H1026 H 0.62236 0.52451 0.05505 0.0
H1027 H 0.47874 0.46873 0.97373 0.0
H1028 H 0.60191 0.61622 0.08516 0.0
H1029 H 0.60089 0.6566 0.16281 0.0
H1030 H 0.49955 0.49398 0.01804 0.0
H1031 H 0.45071 0.59041 0.092 0.0
H1032 H 0.55802 0.65581 0.17778 0.0
H1033 H 0.51065 0.64133 0.16816 0.0
H1034 H 0.65213 0.51293 0.02526 0.0
H1035 H 0.47047 0.61687 0.13631 0.0
H1036 H 0.50538 0.45515 0.9411 0.0
N1037 N 0.58886 0.50835 0.02583 0.0
C1038 C 0.57899 0.49425 1.00106 0.0
C1039 C 0.63161 0.50776 0.01811 0.0
C1040 C 0.59519 0.48674 0.98356 0.0
C1041 C 0.61475 0.51468 0.03479 0.0
C1042 C 0.62182 0.49387 0.99231 0.0
N1043 N 0.5376 0.49576 0.01032 0.0
C1044 C 0.51138 0.48853 1.00396 0.0
C1045 C 0.54145 0.47276 0.96769 0.0
C1046 C 0.55248 0.48733 0.99321 0.0
C1047 C 0.51462 0.46628 0.96056 0.0
C1048 C 0.49952 0.47402 0.97888 0.0
H1049 H 0.63494 0.48847 0.97947 0.0
H1050 H 0.59646 0.46648 0.94423 0.0
H1051 H 0.54942 0.45429 0.93032 0.0
O1052 O 0.53716 0.48453 0.06098 0.0
O1053 O 0.55334 0.53629 0.01367 0.0
O1054 O 0.5235 0.55876 0.02202 0.0
O1055 O 0.57838 0.49282 0.06746 0.0
O1056 O 0.52511 0.52291 0.06863 0.0
O1057 O 0.50797 0.55197 0.04817 0.0
O1058 O 0.55921 0.61513 0.03753 0.0
O1059 O 0.54918 0.57054 0.09648 0.0
O1060 O 0.57604 0.5436 0.08965 0.0
O1061 O 0.52054 0.61212 0.04511 0.0
O1062 O 0.57709 0.58364 0.04351 0.0
O1063 O 0.59261 0.55233 0.06222 0.0
C1064 C 0.53612 0.54836 1.00511 0.0
C1065 C 0.55604 0.47017 0.09845 0.0
C1066 C 0.55667 0.4387 0.12951 0.0
C1067 C 0.55239 0.45656 0.15 0.0
C1068 C 0.55094 0.48712 0.11907 0.0
C1069 C 0.54949 0.48049 0.14475 0.0
C1070 C 0.55883 0.4459 0.10368 0.0
C1071 C 0.50512 0.53049 0.05876 0.0
C1072 C 0.55705 0.47737 0.07123 0.0
C1073 C 0.58432 0.47236 0.958 0.0
C1074 C 0.55752 0.46537 0.95009 0.0
C1075 C 0.56527 0.55751 0.10571 0.0
C1076 C 0.54586 0.65369 0.042 0.0
C1077 C 0.55664 0.6962 0.02774 0.0
C1078 C 0.558 0.70759 0.0546 0.0
C1079 C 0.54711 0.66561 0.06852 0.0
C1080 C 0.55049 0.66907 0.02158 0.0
C1081 C 0.55323 0.69237 0.07476 0.0
C1082 C 0.59625 0.57401 0.05196 0.0
C1083 C 0.53977 0.62535 0.03533 0.0
H1084 H 0.55134 0.45207 0.17022 0.0
H1085 H 0.5478 0.5054 0.11519 0.0
H1086 H 0.54592 0.49391 0.16062 0.0
H1087 H 0.56199 0.43249 0.08752 0.0
H1088 H 0.56232 0.72832 0.05997 0.0
H1089 H 0.54317 0.65432 0.08439 0.0
H1090 H 0.54956 0.65995 1.00104 0.0
H1091 H 0.55411 0.70136 0.09531 0.0
Tb1092 Tb 0.81166 0.3297 0.29937 0.0
C1093 C 0.75112 0.22317 0.30651 0.0
N1094 N 0.77095 0.23986 0.32396 0.0
C1095 C 0.74761 0.2322 0.36085 0.0
C1096 C 0.72836 0.2109 0.3156 0.0
C1097 C 0.76976 0.24419 0.35089 0.0
C1098 C 0.72681 0.21556 0.34315 0.0
C1099 C 0.73263 0.2036 0.26039 0.0
C1100 C 0.75326 0.21973 0.27917 0.0
C1101 C 0.70993 0.19118 0.26939 0.0
C1102 C 0.70781 0.1948 0.2969 0.0
Tb1103 Tb 0.8065 0.25622 0.30542 0.0
N1104 N 0.77537 0.23249 0.27105 0.0
C1105 C 0.73547 0.20034 0.23312 0.0
C1106 C 0.77871 0.22814 0.2447 0.0
C1107 C 0.75871 0.21246 0.2253 0.0
H1108 H 0.78592 0.25659 0.36476 0.0
H1109 H 0.76141 0.20933 0.20439 0.0
H1110 H 0.79922 0.33495 0.23439 0.0
H1111 H 0.88095 0.39254 0.38002 0.0
H1112 H 0.79701 0.2357 0.23858 0.0
H1113 H 0.72007 0.18809 0.21805 0.0
H1114 H 0.84192 0.35781 0.36028 0.0
H1115 H 0.74663 0.23573 0.3822 0.0
H1116 H 0.69387 0.17874 0.25522 0.0
H1117 H 0.69012 0.18521 0.30348 0.0
H1118 H 0.8225 0.35693 0.20109 0.0
H1119 H 0.70964 0.20645 0.35095 0.0
H1120 H 0.90903 0.41458 0.35004 0.0
N1121 N 0.83004 0.35036 0.26699 0.0
C1122 C 0.85313 0.36778 0.27566 0.0
C1123 C 0.83148 0.35993 0.22195 0.0
C1124 C 0.86672 0.38152 0.25759 0.0
C1125 C 0.81852 0.34719 0.24078 0.0
C1126 C 0.85587 0.3769 0.23031 0.0
N1127 N 0.84793 0.36026 0.31986 0.0
C1128 C 0.85386 0.3676 0.34717 0.0
C1129 C 0.88481 0.39287 0.31332 0.0
C1130 C 0.86217 0.37326 0.30309 0.0
C1131 C 0.89183 0.39952 0.34135 0.0
C1132 C 0.87599 0.38717 0.35834 0.0
H1133 H 0.86571 0.38702 0.21575 0.0
H1134 H 0.90095 0.41069 0.2539 0.0
H1135 H 0.91671 0.42076 0.30276 0.0
O1136 O 0.78457 0.3402 0.32175 0.0
O1137 O 0.84992 0.3226 0.31504 0.0
O1138 O 0.8478 0.27867 0.30737 0.0
O1139 O 0.79859 0.3624 0.29169 0.0
O1140 O 0.80077 0.31184 0.33415 0.0
O1141 O 0.82201 0.28182 0.3434 0.0
O1142 O 0.81669 0.22292 0.28986 0.0
O1143 O 0.77052 0.27184 0.30341 0.0
O1144 O 0.77796 0.30131 0.2749 0.0
O1145 O 0.81794 0.23283 0.33254 0.0
O1146 O 0.82503 0.27103 0.27248 0.0
O1147 O 0.80488 0.30206 0.26227 0.0
C1148 C 0.86133 0.30324 0.31364 0.0
C1149 C 0.78499 0.3843 0.32873 0.0
C1150 C 0.76959 0.42302 0.33776 0.0
C1151 C 0.78283 0.42755 0.36429 0.0
C1152 C 0.79777 0.38915 0.35543 0.0
C1153 C 0.79685 0.41074 0.37298 0.0
C1154 C 0.77102 0.4014 0.31995 0.0
C1155 C 0.81536 0.30293 0.35099 0.0
C1156 C 0.78415 0.3605 0.31051 0.0
C1157 C 0.89011 0.40007 0.26749 0.0
C1158 C 0.89909 0.40581 0.29532 0.0
C1159 C 0.76125 0.2849 0.28564 0.0
C1160 C 0.81136 0.18848 0.31469 0.0
C1161 C 0.81626 0.1447 0.30507 0.0
C1162 C 0.79276 0.13534 0.31427 0.0
C1163 C 0.78818 0.17879 0.32422 0.0
C1164 C 0.82546 0.17138 0.30543 0.0
C1165 C 0.77894 0.15232 0.32393 0.0
C1166 C 0.81947 0.28671 0.25626 0.0
C1167 C 0.82111 0.21609 0.31335 0.0
H1168 H 0.78243 0.44417 0.37833 0.0
H1169 H 0.808 0.37601 0.36296 0.0
H1170 H 0.80678 0.41428 0.39352 0.0
H1171 H 0.76059 0.39738 0.29956 0.0
H1172 H 0.78525 0.11489 0.31429 0.0
H1173 H 0.77723 0.19155 0.33186 0.0
H1174 H 0.84335 0.17881 0.29796 0.0
H1175 H 0.76098 0.14494 0.33118 0.0
Tb1176 Tb 0.07976 0.59022 0.54123 0.0
C1177 C 0.04069 0.51021 0.63114 0.0
N1178 N 0.04192 0.50765 0.60437 0.0
C1179 C 0.05823 0.4704 0.60733 0.0
C1180 C 0.04869 0.49325 0.64732 0.0
C1181 C 0.04972 0.48752 0.5921 0.0
C1182 C 0.05796 0.47342 0.63513 0.0
C1183 C 0.02619 0.53105 0.66915 0.0
C1184 C 0.02989 0.52894 0.64187 0.0
C1185 C 0.03506 0.51495 0.68574 0.0
C1186 C 0.04636 0.49611 0.67485 0.0
Tb1187 Tb 0.02797 0.53659 0.58097 0.0
N1188 N 1.02107 0.54364 0.62498 0.0
C1189 C 1.01267 0.54842 0.67859 0.0
C1190 C 1.00614 0.55916 0.63369 0.0
C1191 C 1.00223 0.56221 0.66064 0.0
H1192 H 0.04982 0.48486 0.57061 0.0
H1193 H 0.99081 0.57491 0.66743 0.0
H1194 H 0.09294 0.64918 0.57669 0.0
H1195 H 0.063 0.55703 0.43371 0.0
H1196 H 0.99678 0.56905 0.61988 0.0
H1197 H 1.00931 0.55053 0.69936 0.0
H1198 H 0.06937 0.55235 0.48156 0.0
H1199 H 0.06484 0.4548 0.59759 0.0
H1200 H 0.03258 0.51641 0.70679 0.0
H1201 H 0.05252 0.48337 0.68767 0.0
H1202 H 0.09406 0.69307 0.56755 0.0
H1203 H 0.06431 0.45999 0.64685 0.0
H1204 H 0.06271 0.5995 0.42056 0.0
N1205 N 0.08162 0.63189 0.53541 0.0
C1206 C 0.07736 0.63604 0.5095 0.0
C1207 C 0.08915 0.67718 0.55103 0.0
C1208 C 0.07849 0.66096 0.50331 0.0
C1209 C 0.08815 0.65217 0.55613 0.0
C1210 C 0.08413 0.68159 0.52451 0.0
N1211 N 0.07211 0.59174 0.49597 0.0
C1212 C 0.06911 0.57099 0.47639 0.0
C1213 C 0.06913 0.61887 0.46182 0.0
C1214 C 0.07269 0.61532 0.48908 0.0
C1215 C 0.06537 0.59756 0.44174 0.0
C1216 C 0.06552 0.57356 0.44908 0.0
H1217 H 0.08514 0.70102 0.5206 0.0
H1218 H 0.07521 0.68356 0.47104 0.0
H1219 H 0.06711 0.64667 0.43468 0.0
O1220 O 0.11222 0.57687 0.53456 0.0
O1221 O 0.04081 0.58054 0.51782 0.0
O1222 O 0.03703 0.56104 0.55206 0.0
O1223 O 0.11667 0.61564 0.55361 0.0
O1224 O 0.07405 0.54777 0.52803 0.0
O1225 O 0.04154 0.51905 0.54544 0.0
O1226 O 0.98794 0.53293 0.57639 0.0
O1227 O 0.06926 0.53957 0.59336 0.0
O1228 O 0.07762 0.57824 0.58056 0.0
O1229 O 1.00271 0.50267 0.55875 0.0
O1230 O 0.0306 0.57877 0.59351 0.0
O1231 O 0.06173 0.60772 0.57438 0.0
C1232 C 0.02527 0.56567 0.53016 0.0
C1233 C 0.14719 0.60913 0.52593 0.0
C1234 C 0.16106 0.61084 0.48191 0.0
C1235 C 0.1849 0.62734 0.49435 0.0
C1236 C 0.1709 0.62603 0.53797 0.0
C1237 C 0.18966 0.63504 0.52224 0.0
C1238 C 0.14217 0.60185 0.49775 0.0
C1239 C 0.0593 0.5243 0.5293 0.0
C1240 C 0.1282 0.59933 0.54321 0.0
C1241 C 0.07445 0.66456 0.4762 0.0
C1242 C 0.06984 0.64356 0.4555 0.0
C1243 C 0.08624 0.55948 0.58836 0.0
C1244 C 0.96404 0.48983 0.57583 0.0
C1245 C 0.94424 0.47485 0.61379 0.0
C1246 C 0.9325 0.45085 0.59788 0.0
C1247 C 0.95206 0.46577 0.56007 0.0
C1248 C 0.95976 0.49434 0.60265 0.0
C1249 C 0.9362 0.44647 0.571 0.0
C1250 C 0.04367 0.60252 0.59057 0.0
C1251 C 0.98226 0.50917 0.56458 0.0
H1252 H 0.19968 0.63451 0.48242 0.0
H1253 H 0.17486 0.63226 0.55956 0.0
H1254 H 0.20793 0.64801 0.53167 0.0
H1255 H 0.12392 0.58889 0.48817 0.0
H1256 H 0.92044 0.43562 0.60622 0.0
H1257 H 0.9554 0.46174 0.53948 0.0
H1258 H 0.96895 0.51269 0.61517 0.0
H1259 H 0.92706 0.42795 0.55873 0.0
Tb1260 Tb 0.8222 0.78543 0.30229 0.0
C1261 C 0.73021 0.81238 0.24394 0.0
N1262 N 0.74727 0.82872 0.26423 0.0
C1263 C 0.74885 0.86355 0.23877 0.0
C1264 C 0.72224 0.82094 0.21987 0.0
C1265 C 0.75631 0.85413 0.26221 0.0
C1266 C 0.73183 0.84687 0.21745 0.0
C1267 C 0.70365 0.76929 0.2265 0.0
C1268 C 0.72129 0.78683 0.2472 0.0
C1269 C 0.69607 0.77757 0.20222 0.0
C1270 C 0.70531 0.80333 0.19893 0.0
Tb1271 Tb 0.75757 0.81157 0.30175 0.0
N1272 N 0.72906 0.77949 0.27102 0.0
C1273 C 0.69346 0.74418 0.23117 0.0
C1274 C 0.7168 0.75593 0.27656 0.0
C1275 C 0.69962 0.73767 0.25655 0.0
H1276 H 0.76912 0.86725 0.27872 0.0
H1277 H 0.69049 0.71885 0.26102 0.0
H1278 H 0.80663 0.72305 0.28068 0.0
H1279 H 0.89373 0.84514 0.38393 0.0
H1280 H 0.71883 0.7515 0.29667 0.0
H1281 H 0.67984 0.73013 0.21582 0.0
H1282 H 0.86157 0.83688 0.3428 0.0
H1283 H 0.75618 0.88368 0.23719 0.0
H1284 H 0.68269 0.7643 0.18606 0.0
H1285 H 0.69913 0.80949 0.18019 0.0
H1286 H 0.8138 0.68386 0.29766 0.0
H1287 H 0.72619 0.8542 0.19927 0.0
H1288 H 0.9028 0.80867 0.40501 0.0
N1289 N 0.82885 0.74846 0.3152 0.0
C1290 C 0.84521 0.75119 0.3385 0.0
C1291 C 0.82258 0.70267 0.30948 0.0
C1292 C 0.85055 0.72958 0.34861 0.0
C1293 C 0.81824 0.72478 0.3001 0.0
C1294 C 0.8386 0.70506 0.334 0.0
N1295 N 0.85224 0.79606 0.34065 0.0
C1296 C 0.86551 0.82079 0.35166 0.0
C1297 C 0.87583 0.77966 0.37498 0.0
C1298 C 0.85765 0.77583 0.35146 0.0
C1299 C 0.88872 0.80491 0.38689 0.0
C1300 C 0.88367 0.82555 0.37504 0.0
H1301 H 0.84214 0.68794 0.3411 0.0
H1302 H 0.87233 0.71685 0.38072 0.0
H1303 H 0.89446 0.76073 0.40383 0.0
O1304 O 0.83981 0.80313 0.27198 0.0
O1305 O 0.81498 0.79951 0.34281 0.0
O1306 O 0.78071 0.81911 0.34239 0.0
O1307 O 0.85015 0.77025 0.28503 0.0
O1308 O 0.8272 0.82665 0.30196 0.0
O1309 O 0.79221 0.84396 0.30862 0.0
O1310 O 0.72054 0.80419 0.31439 0.0
O1311 O 0.77719 0.80824 0.26543 0.0
O1312 O 0.78945 0.77171 0.26998 0.0
O1313 O 0.744 0.84315 0.31632 0.0
O1314 O 0.75982 0.77801 0.32176 0.0
O1315 O 0.78425 0.75785 0.29693 0.0
C1316 C 0.80043 0.81237 0.35496 0.0
C1317 C 0.88278 0.80111 0.27084 0.0
C1318 C 0.92245 0.80726 0.25084 0.0
C1319 C 0.93435 0.82785 0.27167 0.0
C1320 C 0.89536 0.8214 0.29164 0.0
C1321 C 0.92091 0.8347 0.29202 0.0
C1322 C 0.89656 0.79378 0.25057 0.0
C1323 C 0.81644 0.84605 0.30503 0.0
C1324 C 0.85525 0.78812 0.26999 0.0
C1325 C 0.86806 0.73321 0.37251 0.0
C1326 C 0.8807 0.7582 0.38565 0.0
C1327 C 0.78341 0.78766 0.25439 0.0
C1328 C 0.70222 0.83939 0.33163 0.0
C1329 C 0.6613 0.83516 0.34971 0.0
C1330 C 0.66475 0.86187 0.35095 0.0
C1331 C 0.70489 0.86602 0.33333 0.0
C1332 C 0.6803 0.82388 0.34014 0.0
C1333 C 0.68635 0.8771 0.34294 0.0
C1334 C 0.76797 0.75754 0.31438 0.0
C1335 C 0.72244 0.82859 0.32064 0.0
H1336 H 0.95426 0.83835 0.27249 0.0
H1337 H 0.88533 0.82722 0.30741 0.0
H1338 H 0.9303 0.85045 0.30812 0.0
H1339 H 0.88711 0.77797 0.23451 0.0
H1340 H 0.65065 0.87105 0.35832 0.0
H1341 H 0.72133 0.87843 0.32704 0.0
H1342 H 0.67785 0.8033 0.33899 0.0
H1343 H 0.68869 0.89765 0.34408 0.0
Tb1344 Tb 0.78224 0.27538 0.82095 0.0
C1345 C 0.87706 0.32874 0.7464 0.0
N1346 N 0.87301 0.33173 0.77244 0.0
C1347 C 0.91874 0.3451 0.78737 0.0
C1348 C 0.9022 0.33352 0.73977 0.0
C1349 C 0.89346 0.34034 0.79291 0.0
C1350 C 0.92315 0.34161 0.76068 0.0
C1351 C 0.85915 0.31802 0.69891 0.0
C1352 C 0.85588 0.32124 0.72628 0.0
C1353 C 0.88413 0.32257 0.69216 0.0
C1354 C 0.90561 0.33033 0.71255 0.0
Tb1355 Tb 0.83096 0.3255 0.77887 0.0
N1356 N 0.83206 0.317 0.73359 0.0
C1357 C 0.83723 0.31037 0.67916 0.0
C1358 C 0.81057 0.30938 0.71434 0.0
C1359 C 0.81284 0.30595 0.68693 0.0
H1360 H 0.89038 0.34385 0.81363 0.0
H1361 H 0.79574 0.29982 0.67182 0.0
H1362 H 0.71939 0.25637 0.80183 0.0
H1363 H 0.83859 0.32577 0.91707 0.0
H1364 H 0.79161 0.30533 0.71988 0.0
H1365 H 0.83892 0.30772 0.65791 0.0
H1366 H 0.83075 0.31384 0.86794 0.0
H1367 H 0.93481 0.35172 0.80369 0.0
H1368 H 0.88703 0.32026 0.67125 0.0
H1369 H 0.92477 0.33394 0.70706 0.0
H1370 H 0.68049 0.24678 0.82375 0.0
H1371 H 0.94277 0.34548 0.75644 0.0
H1372 H 0.80332 0.3129 0.94363 0.0
N1373 N 0.74503 0.27065 0.83874 0.0
C1374 C 0.74759 0.27539 0.86598 0.0
C1375 C 0.69924 0.25497 0.83589 0.0
C1376 C 0.72598 0.2701 0.87944 0.0
C1377 C 0.7213 0.26071 0.82351 0.0
C1378 C 0.7016 0.25953 0.86401 0.0
N1379 N 0.79188 0.29199 0.86616 0.0
C1380 C 0.81536 0.30698 0.879 0.0
C1381 C 0.77534 0.29351 0.9085 0.0
C1382 C 0.77191 0.28651 0.88025 0.0
C1383 C 0.79986 0.30708 0.92194 0.0
C1384 C 0.81981 0.31432 0.90703 0.0
H1385 H 0.6845 0.25503 0.87356 0.0
H1386 H 0.71312 0.27158 0.91849 0.0
H1387 H 0.75638 0.29239 0.94398 0.0
O1388 O 0.78559 0.24003 0.83198 0.0
O1389 O 0.77831 0.31468 0.82981 0.0
O1390 O 0.81696 0.32346 0.8175 0.0
O1391 O 0.75914 0.24137 0.79712 0.0
O1392 O 0.82438 0.27814 0.83221 0.0
O1393 O 0.85138 0.30803 0.80997 0.0
O1394 O 0.82312 0.35851 0.7654 0.0
O1395 O 0.8264 0.28591 0.75806 0.0
O1396 O 0.80328 0.28331 0.78915 0.0
O1397 O 0.8513 0.36178 0.80035 0.0
O1398 O 0.78809 0.31884 0.76557 0.0
O1399 O 0.76108 0.28771 0.78644 0.0
C1400 C 0.79762 0.3319 0.82426 0.0
C1401 C 0.74554 0.20822 0.82253 0.0
C1402 C 0.72735 0.18578 0.85754 0.0
C1403 C 0.70529 0.17311 0.83897 0.0
C1404 C 0.72324 0.19533 0.80416 0.0
C1405 C 0.70323 0.17788 0.81239 0.0
C1406 C 0.7474 0.20338 0.84931 0.0
C1407 C 0.84747 0.291 0.82726 0.0
C1408 C 0.76635 0.22691 0.81366 0.0
C1409 C 0.72943 0.27576 0.90772 0.0
C1410 C 0.75407 0.2875 0.92224 0.0
C1411 C 0.81093 0.27051 0.76998 0.0
C1412 C 0.86057 0.39374 0.77292 0.0
C1413 C 0.87832 0.4136 0.73622 0.0
C1414 C 0.89641 0.43238 0.75514 0.0
C1415 C 0.87901 0.41249 0.79157 0.0
C1416 C 0.86054 0.39417 0.74517 0.0
C1417 C 0.89686 0.43169 0.78269 0.0
C1418 C 0.76498 0.3044 0.76877 0.0
C1419 C 0.84171 0.37399 0.78289 0.0
H1420 H 0.68953 0.15998 0.84518 0.0
H1421 H 0.72114 0.19902 0.78355 0.0
H1422 H 0.68603 0.16818 0.79819 0.0
H1423 H 0.76437 0.21321 0.86386 0.0
H1424 H 0.91025 0.44742 0.74857 0.0
H1425 H 0.87965 0.41222 0.81302 0.0
H1426 H 0.84643 0.3798 0.73052 0.0
H1427 H 0.91102 0.4461 0.79717 0.0
Tb1428 Tb 0.79464 0.77601 0.79619 0.0
C1429 C 0.8859 0.8508 0.85548 0.0
N1430 N 0.86164 0.84399 0.86183 0.0
C1431 C 0.87938 0.83877 0.90618 0.0
C1432 C 0.90765 0.85042 0.87371 0.0
C1433 C 0.8585 0.83993 0.88762 0.0
C1434 C 0.90399 0.84347 0.899 0.0
C1435 C 0.91397 0.86873 0.82459 0.0
C1436 C 0.88918 0.86001 0.83137 0.0
C1437 C 0.93555 0.86719 0.84209 0.0
C1438 C 0.93239 0.85802 0.86658 0.0
Tb1439 Tb 0.82925 0.84586 0.82861 0.0
N1440 N 0.86784 0.86054 0.81454 0.0
C1441 C 0.9163 0.87913 0.80064 0.0
C1442 C 0.86999 0.87192 0.79192 0.0
C1443 C 0.89423 0.88109 0.78444 0.0
H1444 H 0.8402 0.83835 0.89459 0.0
H1445 H 0.89587 0.88957 0.76619 0.0
H1446 H 0.76187 0.78801 0.74179 0.0
H1447 H 0.76488 0.71189 0.86782 0.0
H1448 H 0.85294 0.87348 0.77948 0.0
H1449 H 0.93503 0.8861 0.79473 0.0
H1450 H 0.79611 0.73757 0.84358 0.0
H1451 H 0.87655 0.83488 0.92628 0.0
H1452 H 0.95478 0.87355 0.83714 0.0
H1453 H 0.94928 0.85761 0.88024 0.0
H1454 H 0.71624 0.77992 0.72147 0.0
H1455 H 0.92018 0.84296 0.91359 0.0
H1456 H 0.71816 0.70642 0.85442 0.0
N1457 N 0.75312 0.76979 0.77582 0.0
C1458 C 0.73452 0.75519 0.7874 0.0
C1459 C 0.72112 0.77308 0.74017 0.0
C1460 C 0.70827 0.75011 0.77657 0.0
C1461 C 0.74694 0.77774 0.75178 0.0
C1462 C 0.70167 0.75951 0.7528 0.0
N1463 N 0.76772 0.74944 0.81884 0.0
C1464 C 0.77591 0.73658 0.83846 0.0
C1465 C 0.72346 0.72976 0.82259 0.0
C1466 C 0.74208 0.74522 0.81008 0.0
C1467 C 0.73185 0.71839 0.84421 0.0
C1468 C 0.7582 0.72147 0.85187 0.0
H1469 H 0.6817 0.756 0.74379 0.0
H1470 H 0.66925 0.73169 0.78175 0.0
H1471 H 0.68255 0.71383 0.82207 0.0
O1472 O 0.78986 0.73612 0.78572 0.0
O1473 O 0.76734 0.80181 0.80311 0.0
O1474 O 0.78891 0.83449 0.83759 0.0
O1475 O 0.80246 0.76213 0.7583 0.0
O1476 O 0.81389 0.78157 0.83863 0.0
O1477 O 0.81001 0.82114 0.85572 0.0
O1478 O 0.82087 0.87956 0.81755 0.0
O1479 O 0.84981 0.82315 0.80228 0.0
O1480 O 0.83707 0.78224 0.81065 0.0
O1481 O 0.84115 0.87991 0.85679 0.0
O1482 O 0.80669 0.84167 0.78845 0.0
O1483 O 0.80804 0.80226 0.76738 0.0
C1484 C 0.76688 0.82029 0.82291 0.0
C1485 C 0.82184 0.72756 0.76089 0.0
C1486 C 0.8425 0.69301 0.76795 0.0
C1487 C 0.86463 0.70695 0.75912 0.0
C1488 C 0.84401 0.74103 0.75164 0.0
C1489 C 0.86524 0.73072 0.75081 0.0
C1490 C 0.82115 0.70342 0.76866 0.0
C1491 C 0.80953 0.79719 0.85856 0.0
C1492 C 0.79987 0.73888 0.76381 0.0
C1493 C 0.68957 0.73559 0.78958 0.0
C1494 C 0.69715 0.72547 0.81258 0.0
C1495 C 0.85528 0.80078 0.80432 0.0
C1496 C 0.81309 0.90726 0.8534 0.0
C1497 C 0.79045 0.9412 0.85133 0.0
C1498 C 0.78246 0.93648 0.87622 0.0
C1499 C 0.80441 0.90254 0.87788 0.0
C1500 C 0.80578 0.92629 0.8401 0.0
C1501 C 0.78921 0.91714 0.88918 0.0
C1502 C 0.80743 0.82632 0.76649 0.0
C1503 C 0.82992 0.89279 0.84138 0.0
H1504 H 0.88126 0.69925 0.75817 0.0
H1505 H 0.84517 0.75969 0.74543 0.0
H1506 H 0.88228 0.74128 0.74385 0.0
H1507 H 0.80416 0.69294 0.77583 0.0
H1508 H 0.77122 0.94786 0.88595 0.0
H1509 H 0.80946 0.88772 0.88837 0.0
H1510 H 0.8119 0.92917 0.8208 0.0
H1511 H 0.78278 0.9136 0.90819 0.0
Tb1512 Tb 0.59384 0.55719 0.57339 0.0
C1513 C 0.51335 0.47153 0.50738 0.0
N1514 N 0.52348 0.49534 0.50115 0.0
C1515 C 0.52796 0.47615 0.45721 0.0
C1516 C 0.51103 0.44905 0.48898 0.0
C1517 C 0.53013 0.49791 0.47617 0.0
C1518 C 0.51856 0.45162 0.46369 0.0
C1519 C 0.49661 0.4454 0.54033 0.0
C1520 C 0.50629 0.46974 0.53285 0.0
C1521 C 0.49434 0.42298 0.52205 0.0
C1522 C 0.5015 0.4248 0.49646 0.0
Tb1523 Tb 0.52565 0.52912 0.53404 0.0
N1524 N 0.50961 0.49187 0.55049 0.0
C1525 C 0.48944 0.44432 0.56594 0.0
C1526 C 0.50095 0.49084 0.57472 0.0
C1527 C 0.49127 0.46714 0.58304 0.0
H1528 H 0.53638 0.51663 0.47035 0.0
H1529 H 0.4848 0.46651 0.60247 0.0
H1530 H 0.59757 0.549 0.63776 0.0
H1531 H 0.6399 0.63704 0.5268 0.0
H1532 H 0.50045 0.50806 0.58731 0.0
H1533 H 0.4819 0.42599 0.57245 0.0
H1534 H 0.61634 0.5921 0.52791 0.0
H1535 H 0.53335 0.47833 0.43749 0.0
H1536 H 0.48702 0.40411 0.52749 0.0
H1537 H 0.49965 0.40731 0.4826 0.0
H1538 H 0.61053 0.57646 0.68238 0.0
H1539 H 0.51701 0.43481 0.44896 0.0
H1540 H 0.65311 0.66844 0.56904 0.0
N1541 N 0.60689 0.58029 0.61584 0.0
C1542 C 0.61854 0.6057 0.61726 0.0
C1543 C 0.61261 0.58501 0.6642 0.0
C1544 C 0.62727 0.62198 0.64227 0.0
C1545 C 0.60478 0.56957 0.63888 0.0
C1546 C 0.62362 0.61141 0.66592 0.0
N1547 N 0.61488 0.59839 0.56998 0.0
C1548 C 0.62162 0.60573 0.54632 0.0
C1549 C 0.63701 0.6407 0.594 0.0
C1550 C 0.62323 0.61495 0.59354 0.0
C1551 C 0.64261 0.64879 0.56959 0.0
C1552 C 0.63513 0.63114 0.54569 0.0
H1553 H 0.63 0.62326 0.68556 0.0
H1554 H 0.64674 0.66087 0.66189 0.0
H1555 H 0.65534 0.67726 0.61956 0.0
O1556 O 0.61737 0.53903 0.55214 0.0
O1557 O 0.57484 0.58883 0.56351 0.0
O1558 O 0.5367 0.572 0.53345 0.0
O1559 O 0.63023 0.5573 0.59345 0.0
O1560 O 0.58899 0.54525 0.52898 0.0
O1561 O 0.55071 0.55052 0.50915 0.0
O1562 O 0.48833 0.53047 0.54124 0.0
O1563 O 0.55379 0.50381 0.54019 0.0
O1564 O 0.57568 0.51816 0.5823 0.0
O1565 O 0.49661 0.52431 0.50091 0.0
O1566 O 0.52826 0.54878 0.5757 0.0
O1567 O 0.56448 0.54159 0.59799 0.0
C1568 C 0.55479 0.59218 0.54738 0.0
C1569 C 0.6429 0.51966 0.57942 0.0
C1570 C 0.66945 0.48981 0.571 0.0
C1571 C 0.65797 0.47526 0.5897 0.0
C1572 C 0.63199 0.50515 0.59833 0.0
C1573 C 0.63939 0.48294 0.60324 0.0
C1574 C 0.66145 0.51186 0.56573 0.0
C1575 C 0.57491 0.55082 0.50849 0.0
C1576 C 0.63489 0.54269 0.57329 0.0
C1577 C 0.64004 0.64799 0.64287 0.0
C1578 C 0.64497 0.65731 0.61878 0.0
C1579 C 0.56537 0.49854 0.56289 0.0
C1580 C 0.46769 0.54991 0.50885 0.0
C1581 C 0.43533 0.57394 0.51549 0.0
C1582 C 0.44554 0.59003 0.49736 0.0
C1583 C 0.4773 0.56616 0.49065 0.0
C1584 C 0.44656 0.55378 0.52102 0.0
C1585 C 0.46619 0.58598 0.48493 0.0
C1586 C 0.5419 0.54648 0.59822 0.0
C1587 C 0.47997 0.52942 0.5158 0.0
H1588 H 0.6639 0.45839 0.5945 0.0
H1589 H 0.61778 0.51093 0.60928 0.0
H1590 H 0.63091 0.4718 0.61783 0.0
H1591 H 0.66968 0.52306 0.55102 0.0
H1592 H 0.4379 0.60609 0.49307 0.0
H1593 H 0.49363 0.56383 0.48105 0.0
H1594 H 0.43893 0.54103 0.53475 0.0
H1595 H 0.47386 0.59849 0.47104 0.0
Tb1596 Tb 1.01638 0.54017 0.04903 0.0
C1597 C 0.11484 0.60482 0.0147 0.0
N1598 N 0.09966 0.58107 1.00327 0.0
C1599 C 0.10199 0.59288 0.95917 0.0
C1600 C 0.12366 0.62374 0.99869 0.0
C1601 C 0.09365 0.57471 0.97583 0.0
C1602 C 0.11692 0.61753 0.97063 0.0
C1603 C 0.13636 0.6349 0.05525 0.0
C1604 C 0.12121 0.61037 0.04272 0.0
C1605 C 0.14514 0.65377 0.03931 0.0
C1606 C 0.13881 0.64821 0.01113 0.0
Tb1607 Tb 0.08814 0.55355 0.03325 0.0
N1608 N 0.11134 0.59205 0.05768 0.0
C1609 C 0.14204 0.63977 0.08345 0.0
C1610 C 0.11782 0.59629 0.08505 0.0
C1611 C 0.13293 0.6203 0.09838 0.0
H1612 H 0.08306 0.55549 0.96652 0.0
H1613 H 0.13776 0.62369 0.12015 0.0
H1614 H 1.01383 0.55328 0.11456 0.0
H1615 H 0.96931 0.45696 0.97413 0.0
H1616 H 0.11187 0.58117 0.09665 0.0
H1617 H 0.15364 0.65837 0.09386 0.0
H1618 H 0.99499 0.50175 0.99028 0.0
H1619 H 0.09711 0.58778 0.93747 0.0
H1620 H 0.15675 0.67276 0.04859 0.0
H1621 H 0.1457 0.663 0.99914 0.0
H1622 H 0.99712 0.52938 0.1501 0.0
H1623 H 0.12333 0.63153 0.95762 0.0
H1624 H 0.9519 0.42938 0.00682 0.0
N1625 N 1.00078 0.5208 0.08349 0.0
C1626 C 0.98678 0.49589 0.07656 0.0
C1627 C 0.99428 0.51966 0.12953 0.0
C1628 C 0.97637 0.48164 0.09604 0.0
C1629 C 1.00406 0.53305 0.10943 0.0
C1630 C 0.98055 0.49378 0.12286 0.0
N1631 N 0.99313 0.49911 0.03162 0.0
C1632 C 0.9877 0.48981 1.00464 0.0
C1633 C 0.96754 0.45919 0.04145 0.0
C1634 C 0.98239 0.48479 0.04968 0.0
C1635 C 0.96317 0.449 0.01397 0.0
C1636 C 0.97304 0.46449 0.99546 0.0
H1637 H 0.9729 0.4835 0.13846 0.0
H1638 H 0.9539 0.4446 0.10277 0.0
H1639 H 0.9462 0.42494 0.05497 0.0
O1640 O 0.98847 0.54777 0.02082 0.0
O1641 O 0.03167 0.50461 0.04352 0.0
O1642 O 0.06546 0.51264 0.01862 0.0
O1643 O 0.98595 0.55358 0.06306 0.0
O1644 O 0.02954 0.55495 0.01332 0.0
O1645 O 0.05899 0.53565 0.9985 0.0
O1646 O 0.11777 0.54005 0.05337 0.0
O1647 O 0.07154 0.58859 0.03984 0.0
O1648 O 0.03995 0.57951 0.06683 0.0
O1649 O 0.1192 0.54938 0.01351 0.0
O1650 O 0.07876 0.53829 0.07004 0.0
O1651 O 0.0465 0.55502 0.08408 0.0
C1652 C 0.04771 0.49628 0.0287 0.0
C1653 C 0.9725 0.58265 0.03676 0.0
C1654 C 0.94484 0.61253 0.03779 0.0
C1655 C 0.9653 0.63166 0.03191 0.0
C1656 C 0.99218 0.60195 0.03013 0.0
C1657 C 0.98868 0.62633 0.02805 0.0
C1658 C 0.94879 0.58799 0.04053 0.0
C1659 C 0.03723 0.54197 0.99391 0.0
C1660 C 0.9767 0.55696 0.03919 0.0
C1661 C 0.96195 0.45591 0.08808 0.0
C1662 C 0.95753 0.44472 0.06084 0.0
C1663 C 0.05626 0.59646 0.05604 0.0
C1664 C 0.13595 0.51465 0.02334 0.0
C1665 C 0.16467 0.48573 0.02649 0.0
C1666 C 0.14961 0.47007 1.00291 0.0
C1667 C 0.12127 0.49827 1.00025 0.0
C1668 C 0.15745 0.50816 0.03664 0.0
C1669 C 0.12801 0.47613 0.99025 0.0
C1670 C 0.06699 0.54642 0.08922 0.0
C1671 C 0.12957 0.53914 0.03241 0.0
H1672 H 0.96334 0.6509 0.03045 0.0
H1673 H 1.01025 0.59813 0.02641 0.0
H1674 H 1.00417 0.64117 0.02335 0.0
H1675 H 0.93338 0.57293 0.04504 0.0
H1676 H 0.15471 0.45333 0.9936 0.0
H1677 H 0.10488 0.50292 0.98949 0.0
H1678 H 0.16848 0.5207 0.05466 0.0
H1679 H 0.11672 0.46386 0.97219 0.0
H1680 H 0.03926 0.21593 0.03202 0.0
H1681 H 0.99958 0.18513 0.95118 0.0
H1682 H 1.00192 0.14213 0.95814 0.0
H1683 H 1.01646 0.11158 0.98597 0.0
H1684 H 0.056 0.14101 0.06687 0.0
H1685 H 0.05287 0.18438 0.0608 0.0
C1686 C 0.03076 0.1999 0.01594 0.0
C1687 C 1.01903 0.20501 0.99081 0.0
C1688 C 0.0324 0.17406 0.01993 0.0
C1689 C 1.00879 0.18298 0.9707 0.0
C1690 C 1.01013 0.15784 0.97464 0.0
C1691 C 0.024 0.1272 1.00262 0.0
C1692 C 0.0362 0.1218 0.02719 0.0
C1693 C 0.02205 0.15286 0.99903 0.0
C1694 C 0.04641 0.14351 0.04768 0.0
C1695 C 0.04456 0.16879 0.04422 0.0
H1696 H 0.13009 0.78983 0.19719 0.0
H1697 H 0.17065 0.84361 0.15068 0.0
H1698 H 0.21155 0.84541 0.17875 0.0
H1699 H 0.23589 0.83162 0.21674 0.0
H1700 H 0.19497 0.77627 0.26143 0.0
H1701 H 0.15437 0.77564 0.23425 0.0
C1702 C 0.14778 0.80217 0.19314 0.0
C1703 C 0.14687 0.81674 0.17163 0.0
C1704 C 0.17138 0.80279 0.20916 0.0
C1705 C 0.17037 0.83227 0.16694 0.0
C1706 C 0.19389 0.83324 0.18305 0.0
C1707 C 0.21833 0.81895 0.22028 0.0
C1708 C 0.21914 0.80365 0.24118 0.0
C1709 C 0.19471 0.81845 0.20416 0.0
C1710 C 0.19548 0.78825 0.24571 0.0
C1711 C 0.17205 0.78785 0.23004 0.0
H1712 H 0.49684 0.87301 0.4937 0.0
H1713 H 0.56892 0.86742 0.53565 0.0
H1714 H 0.58186 0.9145 0.54935 0.0
H1715 H 0.57372 0.95874 0.54791 0.0
H1716 H 0.50024 0.96282 0.50782 0.0
H1717 H 0.48732 0.916 0.49539 0.0
C1718 C 0.51531 0.88181 0.50626 0.0
C1719 C 0.53161 0.86561 0.51357 0.0
C1720 C 0.52267 0.90934 0.51435 0.0
C1721 C 0.55547 0.87842 0.52979 0.0
C1722 C 0.56306 0.90575 0.53747 0.0
C1723 C 0.55481 0.9495 0.53649 0.0
C1724 C 0.53813 0.96534 0.52897 0.0
C1725 C 0.54703 0.92168 0.52963 0.0
C1726 C 0.51366 0.95206 0.51437 0.0
C1727 C 0.50621 0.92489 0.50704 0.0
H1728 H 0.52345 0.27032 0.70369 0.0
H1729 H 0.52049 0.32944 0.6541 0.0
H1730 H 0.47955 0.33281 0.66791 0.0
H1731 H 0.44396 0.31817 0.69288 0.0
H1732 H 0.44584 0.25796 0.74123 0.0
H1733 H 0.48804 0.25625 0.72955 0.0
C1734 C 0.51394 0.28405 0.69601 0.0
C1735 C 0.52508 0.29955 0.67778 0.0
C1736 C 0.49019 0.28575 0.70386 0.0
C1737 C 0.5124 0.31722 0.66806 0.0
C1738 C 0.48895 0.31916 0.67595 0.0
C1739 C 0.45346 0.30451 0.70076 0.0
C1740 C 0.44149 0.28806 0.71777 0.0
C1741 C 0.47753 0.30333 0.6936 0.0
C1742 C 0.45455 0.27099 0.72828 0.0
C1743 C 0.47865 0.26987 0.72143 0.0
H1744 H 0.03488 0.85295 0.69314 0.0
H1745 H 0.08284 0.82446 0.64107 0.0
H1746 H 0.08598 0.86167 0.61764 0.0
H1747 H 0.07803 0.90429 0.61414 0.0
H1748 H 0.03177 0.9337 0.66741 0.0
H1749 H 0.02469 0.89425 0.68772 0.0
C1750 C 0.04582 0.85476 0.67651 0.0
C1751 C 0.05874 0.83593 0.66909 0.0
C1752 C 0.04782 0.87647 0.66321 0.0
C1753 C 0.07281 0.83867 0.64743 0.0
C1754 C 0.07461 0.85998 0.63393 0.0
C1755 C 0.0659 0.90171 0.62973 0.0
C1756 C 0.05528 0.92176 0.63915 0.0
C1757 C 0.06256 0.87924 0.6419 0.0
C1758 C 0.04002 0.91844 0.65976 0.0
C1759 C 0.03611 0.89596 0.67149 0.0
H1760 H 0.48235 0.84743 0.81167 0.0
H1761 H 0.48461 0.80078 0.8748 0.0
H1762 H 0.43757 0.79022 0.87053 0.0
H1763 H 0.39438 0.79451 0.84956 0.0
H1764 H 0.39232 0.83996 0.78536 0.0
H1765 H 0.43915 0.85057 0.78978 0.0
C1766 C 0.47272 0.83479 0.82447 0.0
C1767 C 0.4881 0.82501 0.84362 0.0
C1768 C 0.44491 0.8286 0.82194 0.0
C1769 C 0.47422 0.80877 0.85979 0.0
C1770 C 0.4469 0.80267 0.85739 0.0
C1771 C 0.40396 0.80659 0.8363 0.0
C1772 C 0.38863 0.81654 0.81725 0.0
C1773 C 0.43177 0.81247 0.83861 0.0
C1774 C 0.40257 0.83228 0.8007 0.0
C1775 C 0.42983 0.83827 0.80305 0.0
H1776 H 0.57557 0.20386 0.15023 0.0
H1777 H 0.50644 0.16481 0.17792 0.0
H1778 H 0.50483 0.12533 0.14712 0.0
H1779 H 0.52318 0.10202 0.11144 0.0
H1780 H 0.59501 0.14118 0.08872 0.0
H1781 H 0.59501 0.18016 0.11769 0.0
C1782 C 0.55996 0.18682 0.14957 0.0
C1783 C 0.54092 0.18778 0.1664 0.0
C1784 C 0.55953 0.16399 0.13228 0.0
C1785 C 0.52132 0.16501 0.16533 0.0
C1786 C 0.52041 0.14233 0.14759 0.0
C1787 C 0.53896 0.11882 0.11287 0.0
C1788 C 0.55874 0.11805 0.09677 0.0
C1789 C 0.53944 0.14152 0.13084 0.0
C1790 C 0.5789 0.14073 0.09953 0.0
C1791 C 0.57914 0.16326 0.11658 0.0
H1792 H 0.17173 0.33949 0.34949 0.0
H1793 H 0.12743 0.26697 0.30312 0.0
H1794 H 0.16699 0.25783 0.29041 0.0
H1795 H 0.21548 0.26971 0.29244 0.0
H1796 H 0.25948 0.34194 0.33965 0.0
H1797 H 0.22 0.35128 0.3514 0.0
C1798 C 0.17046 0.32168 0.33644 0.0
C1799 C 0.14551 0.30417 0.32739 0.0
C1800 C 0.19395 0.31618 0.32915 0.0
C1801 C 0.14552 0.28119 0.31064 0.0
C1802 C 0.16852 0.27582 0.30327 0.0
C1803 C 0.21669 0.28755 0.30524 0.0
C1804 C 0.24168 0.30487 0.31483 0.0
C1805 C 0.1931 0.29305 0.31238 0.0
C1806 C 0.24148 0.32779 0.33161 0.0
C1807 C 0.21847 0.33332 0.33849 0.0
H1808 H 0.95647 1.00541 0.17585 0.0
H1809 H 0.02346 0.05493 0.22783 0.0
H1810 H 0.04402 0.06491 0.18827 0.0
H1811 H 0.04236 0.06076 0.13853 0.0
H1812 H 0.97779 1.00675 0.08704 0.0
H1813 H 0.95676 0.99808 0.12634 0.0
C1814 C 0.97564 0.01831 0.17858 0.0
C1815 C 0.98824 0.02949 0.20508 0.0
C1816 C 0.98776 0.02337 0.15561 0.0
C1817 C 1.01322 0.04593 0.20794 0.0
C1818 C 0.02497 0.05175 0.1852 0.0
C1819 C 0.02409 0.04649 0.13578 0.0
C1820 C 1.01223 0.03407 0.10936 0.0
C1821 C 1.01242 0.04067 0.15886 0.0
C1822 C 0.98781 0.01652 0.10675 0.0
C1823 C 0.97566 1.0115 0.12939 0.0
H1824 H 0.2406 0.71833 0.51649 0.0
H1825 H 0.27718 0.66269 0.48112 0.0
H1826 H 0.26773 0.67507 0.43669 0.0
H1827 H 0.2463 0.69986 0.40738 0.0
H1828 H 0.20894 0.75437 0.44341 0.0
H1829 H 0.22177 0.74457 0.48815 0.0
C1830 C 0.24668 0.70898 0.49912 0.0
C1831 C 0.25944 0.6895 0.50211 0.0
C1832 C 0.24106 0.71606 0.47374 0.0
C1833 C 0.26729 0.67773 0.47938 0.0
C1834 C 0.26187 0.68478 0.45396 0.0
C1835 C 0.24144 0.70986 0.42515 0.0
C1836 C 0.22667 0.72774 0.42223 0.0
C1837 C 0.24844 0.7037 0.45082 0.0
C1838 C 0.2202 0.74045 0.44527 0.0
C1839 C 0.22746 0.73481 0.4708 0.0
H1840 H 0.6163 0.07713 0.71603 0.0
H1841 H 0.65842 0.02219 0.69148 0.0
H1842 H 0.62983 1.00908 0.64825 0.0
H1843 H 0.59636 0.01664 0.61587 0.0
H1844 H 0.55638 0.07401 0.6387 0.0
H1845 H 0.58034 0.08238 0.68449 0.0
C1846 C 0.61891 0.06191 0.70144 0.0
C1847 C 0.63955 0.05074 0.70688 0.0
C1848 C 0.60291 0.05505 0.6763 0.0
C1849 C 0.64278 0.03119 0.6877 0.0
C1850 C 0.62648 0.02372 0.66297 0.0
C1851 C 0.59261 0.03078 0.63092 0.0
C1852 C 0.57487 0.04495 0.6238 0.0
C1853 C 0.60702 0.03607 0.6568 0.0
C1854 C 0.57001 0.06292 0.64364 0.0
C1855 C 0.58382 0.06782 0.66977 0.0
H1856 H 0.32818 0.32032 0.97763 0.0
H1857 H 0.30054 0.38839 0.97503 0.0
H1858 H 0.29449 0.38062 0.9256 0.0
H1859 H 0.29908 0.35528 0.8826 0.0
H1860 H 0.32351 0.28539 0.88656 0.0
H1861 H 0.32918 0.2934 0.93531 0.0
C1862 C 0.32065 0.33339 0.96631 0.0
C1863 C 0.31495 0.35498 0.98026 0.0
C1864 C 0.31698 0.3287 0.93781 0.0
C1865 C 0.30504 0.37155 0.965 0.0
C1866 C 0.30168 0.36718 0.93662 0.0
C1867 C 0.30537 0.34168 0.89408 0.0
C1868 C 0.31151 0.3201 0.88043 0.0
C1869 C 0.30786 0.34593 0.9227 0.0
C1870 C 0.31948 0.30268 0.89605 0.0
C1871 C 0.32251 0.30707 0.92419 0.0
H1872 H 0.02955 0.02195 0.36683 0.0
H1873 H 0.96051 0.04806 0.36931 0.0
H1874 H 0.96861 0.0549 0.41862 0.0
H1875 H 0.99442 0.05189 0.46157 0.0
H1876 H 0.06558 0.02973 0.45889 0.0
H1877 H 0.05706 0.02214 0.40978 0.0
C1878 C 1.01637 0.02937 0.37811 0.0
C1879 C 0.99439 0.03445 0.36402 0.0
C1880 C 1.02131 0.0336 0.40674 0.0
C1881 C 0.97765 0.04407 0.3793 0.0
C1882 C 0.98219 0.04787 0.40766 0.0
C1883 C 1.00839 0.04596 0.45033 0.0
C1884 C 0.0307 0.04147 0.46442 0.0
C1885 C 1.00388 0.04255 0.42169 0.0
C1886 C 0.04805 0.03304 0.44905 0.0
C1887 C 0.04331 0.02888 0.42073 0.0
H1888 H 0.28621 0.73153 0.63536 0.0
H1889 H 0.33461 0.68672 0.669 0.0
H1890 H 0.3426 0.71473 0.71251 0.0
H1891 H 0.33248 0.7491 0.7419 0.0
H1892 H 0.28121 0.79159 0.70909 0.0
H1893 H 0.27803 0.76754 0.66425 0.0
C1894 C 0.29894 0.72817 0.65204 0.0
C1895 C 0.30977 0.707 0.64892 0.0
C1896 C 0.30277 0.74382 0.67721 0.0
C1897 C 0.32599 0.70282 0.67086 0.0
C1898 C 0.33048 0.71876 0.69577 0.0
C1899 C 0.32077 0.75333 0.72493 0.0
C1900 C 0.30717 0.77228 0.72895 0.0
C1901 C 0.3184 0.73886 0.69935 0.0
C1902 C 0.29218 0.77744 0.70664 0.0
C1903 C 0.29018 0.76351 0.68097 0.0
H1904 H 0.65296 0.13206 0.85508 0.0
H1905 H 0.69701 0.07585 0.86234 0.0
H1906 H 0.69793 0.08191 0.91109 0.0
H1907 H 0.68751 0.1042 0.95189 0.0
H1908 H 0.64765 0.16362 0.94538 0.0
H1909 H 0.64476 0.15618 0.89611 0.0
C1910 C 0.66295 0.12129 0.86732 0.0
C1911 C 0.67517 0.10378 0.85507 0.0
C1912 C 0.66454 0.12579 0.89549 0.0
C1913 C 0.68755 0.08957 0.87123 0.0
C1914 C 0.6882 0.09309 0.89913 0.0
C1915 C 0.6783 0.11552 0.93957 0.0
C1916 C 0.66772 0.13431 0.95194 0.0
C1917 C 0.67704 0.11136 0.91149 0.0
C1918 C 0.65604 0.14916 0.93608 0.0
C1919 C 0.65422 0.14476 0.908 0.0
H1920 H 0.30808 0.38176 0.16208 0.0
H1921 H 0.32574 0.31756 0.11603 0.0
H1922 H 0.32298 0.29438 0.15477 0.0
H1923 H 0.31674 0.29266 0.20277 0.0
H1924 H 0.29867 0.35728 0.24784 0.0
H1925 H 0.30038 0.37949 0.20882 0.0
C1926 C 0.31124 0.36264 0.16034 0.0
C1927 C 0.31718 0.35163 0.13585 0.0
C1928 C 0.30961 0.34931 0.18281 0.0
C1929 C 0.32111 0.32672 0.13438 0.0
C1930 C 0.31958 0.31338 0.15667 0.0
C1931 C 0.31299 0.31151 0.20403 0.0
C1932 C 0.30766 0.3231 0.22864 0.0
C1933 C 0.31399 0.32451 0.18115 0.0
C1934 C 0.30291 0.34766 0.22952 0.0
C1935 C 0.3039 0.36053 0.20707 0.0
H1936 H 0.28476 0.03096 0.04442 0.0
H1937 H 0.25925 0.94846 0.02168 0.0
H1938 H 0.21459 0.94981 0.02371 0.0
H1939 H 0.18412 0.97402 0.03853 0.0
H1940 H 0.21018 0.05652 0.06125 0.0
H1941 H 0.25339 0.05574 0.05236 0.0
C1942 C 0.26932 1.01336 0.03938 0.0
C1943 C 0.27514 0.98963 0.03337 0.0
C1944 C 0.24393 1.01429 0.04088 0.0
C1945 C 0.2551 0.96695 0.02642 0.0
C1946 C 0.22964 0.9677 0.02781 0.0
C1947 C 0.19924 0.99179 0.04107 0.0
C1948 C 0.19428 1.01523 0.05083 0.0
C1949 C 0.22402 0.99116 0.03606 0.0
C1950 C 0.21371 0.03828 0.05374 0.0
C1951 C 0.23839 0.03782 0.04881 0.0
H1952 H 0.71538 0.62797 0.05822 0.0
H1953 H 0.68425 0.67842 0.01182 0.0
H1954 H 0.64056 0.65188 0.01135 0.0
H1955 H 0.61102 0.61525 0.02549 0.0
H1956 H 0.64226 0.56683 0.07476 0.0
H1957 H 0.68588 0.59142 0.07238 0.0
C1958 C 0.6991 0.63306 0.0477 0.0
C1959 C 0.7033 0.65522 0.03491 0.0
C1960 C 0.67392 0.618 0.04801 0.0
C1961 C 0.68177 0.66155 0.02178 0.0
C1962 C 0.65671 0.64636 0.02155 0.0
C1963 C 0.62732 0.6099 0.03563 0.0
C1964 C 0.62308 0.58866 0.04985 0.0
C1965 C 0.65252 0.62469 0.03484 0.0
C1966 C 0.64466 0.58243 0.063 0.0
C1967 C 0.66973 0.59673 0.06189 0.0
H1968 H 0.71565 0.50142 0.28673 0.0
H1969 H 0.68395 0.5013 0.36117 0.0
H1970 H 0.70679 0.46975 0.37432 0.0
H1971 H 0.73658 0.44295 0.36512 0.0
H1972 H 0.76797 0.44292 0.29053 0.0
H1973 H 0.74416 0.47354 0.27684 0.0
C1974 C 0.71367 0.49447 0.30582 0.0
C1975 C 0.6982 0.50386 0.32301 0.0
C1976 C 0.72677 0.47626 0.31319 0.0
C1977 C 0.69572 0.49444 0.34756 0.0
C1978 C 0.70881 0.47642 0.35511 0.0
C1979 C 0.73828 0.44973 0.34591 0.0
C1980 C 0.75418 0.44077 0.32895 0.0
C1981 C 0.72455 0.46735 0.33819 0.0
C1982 C 0.75577 0.44937 0.30389 0.0
C1983 C 0.74227 0.46698 0.29612 0.0
H1984 H 0.90715 0.52334 0.52096 0.0
H1985 H 0.92573 0.45488 0.48536 0.0
H1986 H 0.96935 0.47999 0.48333 0.0
H1987 H 1.00406 0.51955 0.49965 0.0
H1988 H 0.98628 0.58657 0.53946 0.0
H1989 H 0.94034 0.56416 0.53157 0.0
C1990 C 0.92049 0.51407 0.51198 0.0
C1991 C 0.91345 0.4873 0.50367 0.0
C1992 C 0.94575 0.52839 0.51195 0.0
C1993 C 0.93089 0.47548 0.49213 0.0
C1994 C 0.95583 0.48979 0.49104 0.0
C1995 C 0.98989 0.52931 0.50581 0.0
C1996 C 0.99803 0.55438 0.52013 0.0
C1997 C 0.96379 0.51598 0.50209 0.0
C1998 C 0.98 0.56716 0.52833 0.0
C1999 C 0.95388 0.55434 0.52396 0.0
H2000 H 0.35851 0.07184 0.2704 0.0
H2001 H 0.43551 0.11045 0.31069 0.0
H2002 H 0.42814 0.15209 0.3032 0.0
H2003 H 0.40078 0.17719 0.28237 0.0
H2004 H 0.32392 0.1382 0.24198 0.0
H2005 H 0.33018 0.09711 0.25265 0.0
C2006 C 0.37363 0.08937 0.27779 0.0
C2007 C 0.39761 0.08798 0.29088 0.0
C2008 C 0.3693 0.11319 0.2733 0.0
C2009 C 0.41688 0.11093 0.30053 0.0
C2010 C 0.41272 0.13475 0.29615 0.0
C2011 C 0.38539 0.15968 0.27599 0.0
C2012 C 0.36197 0.16073 0.26123 0.0
C2013 C 0.38918 0.13606 0.28208 0.0
C2014 C 0.34205 0.13797 0.25351 0.0
C2015 C 0.34568 0.11443 0.25945 0.0
H2016 H 0.36656 0.16739 0.5546 0.0
H2017 H 0.30037 0.10737 0.56249 0.0
H2018 H 0.32738 0.07759 0.56792 0.0
H2019 H 0.36975 0.06889 0.57185 0.0
H2020 H 0.43711 0.13029 0.56975 0.0
H2021 H 0.40976 0.15879 0.55993 0.0
C2022 C 0.35812 0.14771 0.55725 0.0
C2023 C 0.33151 0.13952 0.55802 0.0
C2024 C 0.37399 0.13087 0.56137 0.0
C2025 C 0.32082 0.11411 0.56188 0.0
C2026 C 0.33625 0.09707 0.56499 0.0
C2027 C 0.37867 0.08858 0.56967 0.0
C2028 C 0.4057 0.09714 0.57166 0.0
C2029 C 0.36291 0.10532 0.56514 0.0
C2030 C 0.41646 0.1227 0.5679 0.0
C2031 C 0.40079 0.13923 0.56253 0.0
H2032 H 0.69036 0.66255 0.34753 0.0
H2033 H 0.72125 0.62166 0.28633 0.0
H2034 H 0.75053 0.66177 0.28045 0.0
H2035 H 0.76481 0.70878 0.28978 0.0
H2036 H 0.73763 0.74996 0.35382 0.0
H2037 H 0.70928 0.70963 0.36115 0.0
C2038 C 0.70368 0.66244 0.33312 0.0
C2039 C 0.70341 0.63908 0.3173 0.0
C2040 C 0.72102 0.68568 0.33013 0.0
C2041 C 0.72101 0.63928 0.29887 0.0
C2042 C 0.73775 0.66226 0.29536 0.0
C2043 C 0.75356 0.70897 0.30607 0.0
C2044 C 0.7537 0.73252 0.32131 0.0
C2045 C 0.7377 0.68563 0.3106 0.0
C2046 C 0.73799 0.73218 0.34167 0.0
C2047 C 0.72167 0.70909 0.34587 0.0
H2048 H 0.8154 0.44469 0.80285 0.0
H2049 H 0.87966 0.4531 0.86565 0.0
H2050 H 0.86122 0.41001 0.87512 0.0
H2051 H 0.83167 0.36759 0.85967 0.0
H2052 H 0.76836 0.35743 0.79567 0.0
H2053 H 0.7811 0.40364 0.79277 0.0
C2054 C 0.82489 0.4373 0.8191 0.0
C2055 C 0.84905 0.45175 0.83321 0.0
C2056 C 0.81446 0.41215 0.824 0.0
C2057 C 0.86124 0.44209 0.85425 0.0
C2058 C 0.85073 0.41747 0.85968 0.0
C2059 C 0.82018 0.37579 0.84579 0.0
C2060 C 0.79942 0.3595 0.82773 0.0
C2061 C 0.82806 0.40196 0.84384 0.0
C2062 C 0.78449 0.36988 0.80972 0.0
C2063 C 0.79192 0.3962 0.80794 0.0
H2064 H 0.09967 0.90041 0.06242 0.0
H2065 H 0.03102 0.87318 0.09702 0.0
H2066 H 1.01757 0.91213 0.08946 0.0
H2067 H 0.02478 0.95562 0.07328 0.0
H2068 H 0.09404 0.98328 0.03999 0.0
H2069 H 0.10713 0.94399 0.04681 0.0
C2070 C 0.08166 0.90272 0.0683 0.0
C2071 C 0.06655 0.88265 0.08037 0.0
C2072 C 0.0739 0.92609 0.06417 0.0
C2073 C 0.04343 0.88734 0.08774 0.0
C2074 C 0.03558 0.91004 0.08336 0.0
C2075 C 0.04275 0.95319 0.0674 0.0
C2076 C 0.05838 0.97357 0.0562 0.0
C2077 C 0.05053 0.92983 0.07161 0.0
C2078 C 0.08154 0.96896 0.04902 0.0
C2079 C 0.08908 0.94603 0.05281 0.0
H2080 H 0.95884 0.28293 0.8778 0.0
H2081 H 0.92187 0.27468 0.94843 0.0
H2082 H 0.88118 0.27636 0.92264 0.0
H2083 H 0.85572 0.28089 0.87988 0.0
H2084 H 0.89366 0.29179 0.81023 0.0
H2085 H 0.9337 0.28819 0.83546 0.0
C2086 C 0.9419 0.28139 0.88762 0.0
C2087 C 0.94376 0.27855 0.91527 0.0
C2088 C 0.91844 0.28289 0.87268 0.0
C2089 C 0.92136 0.27689 0.92736 0.0
C2090 C 0.89792 0.27781 0.91252 0.0
C2091 C 0.87268 0.28244 0.87014 0.0
C2092 C 0.87139 0.28693 0.84299 0.0
C2093 C 0.89615 0.28089 0.88514 0.0
C2094 C 0.89388 0.2888 0.83105 0.0
C2095 C 0.91692 0.28663 0.84553 0.0
H2096 H 0.59759 0.21326 0.62307 0.0
H2097 H 0.56535 0.23036 0.54745 0.0
H2098 H 0.556 0.18443 0.52795 0.0
H2099 H 0.55557 0.13788 0.53272 0.0
H2100 H 0.59096 0.12302 0.60817 0.0
H2101 H 0.6003 0.16864 0.62676 0.0
C2102 C 0.58867 0.20722 0.60216 0.0
C2103 C 0.58227 0.22617 0.58707 0.0
C2104 C 0.58368 0.18053 0.59086 0.0
C2105 C 0.57086 0.21705 0.5599 0.0
C2106 C 0.56531 0.19042 0.54872 0.0
C2107 C 0.56534 0.14454 0.55326 0.0
C2108 C 0.57229 0.12608 0.56888 0.0
C2109 C 0.57134 0.17171 0.56402 0.0
C2110 C 0.58529 0.13597 0.59533 0.0
C2111 C 0.59064 0.16239 0.60613 0.0
H2112 H 0.55254 0.80063 0.3863 0.0
H2113 H 0.59786 0.77672 0.44978 0.0
H2114 H 0.63537 0.78652 0.42683 0.0
H2115 H 0.65706 0.80681 0.39128 0.0
H2116 H 0.61187 0.83133 0.32847 0.0
H2117 H 0.57292 0.81607 0.34816 0.0
C2118 C 0.57046 0.79711 0.39494 0.0
C2119 C 0.57214 0.78815 0.42004 0.0
C2120 C 0.59228 0.80304 0.38169 0.0
C2121 C 0.59574 0.78373 0.43067 0.0
C2122 C 0.61739 0.7894 0.41754 0.0
C2123 C 0.63854 0.80806 0.38151 0.0
C2124 C 0.6374 0.82013 0.35835 0.0
C2125 C 0.61614 0.79973 0.39338 0.0
C2126 C 0.61327 0.82203 0.34622 0.0
C2127 C 0.59098 0.81347 0.35761 0.0
H2128 H 0.08754 0.25542 0.40364 0.0
H2129 H 0.05178 0.29482 0.46129 0.0
H2130 H 0.04302 0.25697 0.48409 0.0
H2131 H 0.04106 0.21058 0.48451 0.0
H2132 H 0.07599 0.17159 0.42583 0.0
H2133 H 0.08965 0.21121 0.40691 0.0
C2134 C 0.07816 0.25598 0.42143 0.0
C2135 C 0.07016 0.27807 0.43044 0.0
C2136 C 0.07282 0.23396 0.43425 0.0
C2137 C 0.05819 0.27823 0.45373 0.0
C2138 C 0.05302 0.25645 0.46676 0.0
C2139 C 0.05219 0.21099 0.46802 0.0
C2140 C 0.05738 0.18808 0.45651 0.0
C2141 C 0.05962 0.23391 0.45679 0.0
C2142 C 0.07162 0.18888 0.43494 0.0
C2143 C 0.07937 0.21154 0.42405 0.0
H2144 H 0.64825 0.29103 0.23427 0.0
H2145 H 0.62261 0.24546 0.29483 0.0
H2146 H 0.66781 0.24631 0.31092 0.0
H2147 H 0.71609 0.25994 0.30742 0.0
H2148 H 0.73884 0.30515 0.24535 0.0
H2149 H 0.69427 0.30428 0.23087 0.0
C2150 C 0.65215 0.28129 0.25121 0.0
C2151 C 0.63097 0.26832 0.26315 0.0
C2152 C 0.67841 0.28167 0.26025 0.0
C2153 C 0.63767 0.25593 0.28504 0.0
C2154 C 0.66388 0.25631 0.29422 0.0
C2155 C 0.71142 0.26949 0.2906 0.0
C2156 C 0.732 0.28262 0.27769 0.0
C2157 C 0.68469 0.26903 0.28193 0.0
C2158 C 0.72447 0.2949 0.2561 0.0
C2159 C 0.69855 0.29444 0.24762 0.0
H2160 H 0.58154 0.90176 0.9674 0.0
H2161 H 0.58416 0.93769 0.89581 0.0
H2162 H 0.58454 0.97886 0.92251 0.0
H2163 H 0.58377 1.00486 0.96656 0.0
H2164 H 0.5763 0.96691 0.03658 0.0
H2165 H 0.5788 0.92699 0.01052 0.0
C2166 C 0.58226 0.91857 0.95753 0.0
C2167 C 0.583 0.91636 0.92942 0.0
C2168 C 0.58178 0.94212 0.97296 0.0
C2169 C 0.58355 0.93853 0.91724 0.0
C2170 C 0.58385 0.9622 0.93262 0.0
C2171 C 0.58263 0.98794 0.97623 0.0
C2172 C 0.57978 0.98939 1.00393 0.0
C2173 C 0.58295 0.96431 0.96057 0.0
C2174 C 0.57845 0.96684 0.0156 0.0
C2175 C 0.57982 0.94378 1.00056 0.0
H2176 H 0.9625 0.80178 0.75576 0.0
H2177 H 0.96436 0.74169 0.80401 0.0
H2178 H 0.92349 0.7452 0.81826 0.0
H2179 H 0.88573 0.76555 0.818 0.0
H2180 H 0.88422 0.82544 0.76944 0.0
H2181 H 0.92494 0.82189 0.75536 0.0
C2182 C 0.95423 0.78941 0.76951 0.0
C2183 C 0.96774 0.7714 0.77856 0.0
C2184 C 0.92999 0.79159 0.77805 0.0
C2185 C 0.95549 0.75585 0.79638 0.0
C2186 C 0.93165 0.75785 0.80469 0.0
C2187 C 0.89414 0.77791 0.80431 0.0
C2188 C 0.88095 0.79626 0.79544 0.0
C2189 C 0.91844 0.77568 0.79582 0.0
C2190 C 0.8932 0.81157 0.77749 0.0
C2191 C 0.91686 0.80939 0.7691 0.0
H2192 H 0.10574 0.1065 0.89776 0.0
H2193 H 0.10015 0.0272 0.86739 0.0
H2194 H 0.08491 1.01413 0.90866 0.0
H2195 H 0.0733 0.02516 0.95417 0.0
H2196 H 0.08285 0.10497 0.98597 0.0
H2197 H 0.09635 0.11772 0.94402 0.0
C2198 C 0.1011 0.08633 0.9001 0.0
C2199 C 0.10394 0.06788 0.87909 0.0
C2200 C 0.09314 0.07898 0.9245 0.0
C2201 C 0.09818 0.04189 0.88296 0.0
C2202 C 0.08943 0.03438 0.90668 0.0
C2203 C 0.07848 0.04536 0.95198 0.0
C2204 C 0.07703 0.06404 0.97353 0.0
C2205 C 0.0869 0.05272 0.92773 0.0
C2206 C 0.08394 0.09012 0.97008 0.0
C2207 C 0.09156 0.09745 0.9459 0.0
H2208 H 0.86899 0.4013 0.60951 0.0
H2209 H 0.85928 0.4783 0.62578 0.0
H2210 H 0.86489 0.47668 0.67397 0.0
H2211 H 0.87284 0.45381 0.71169 0.0
H2212 H 0.88039 0.37624 0.69603 0.0
H2213 H 0.87618 0.37794 0.64744 0.0
C2214 C 0.86831 0.41781 0.62361 0.0
C2215 C 0.8637 0.43986 0.61397 0.0
C2216 C 0.8717 0.41688 0.65143 0.0
C2217 C 0.86279 0.46105 0.63255 0.0
C2218 C 0.86614 0.46024 0.66017 0.0
C2219 C 0.8738 0.43742 0.69757 0.0
C2220 C 0.87707 0.415 0.70716 0.0
C2221 C 0.87073 0.43836 0.66983 0.0
C2222 C 0.87789 0.39366 0.68886 0.0
C2223 C 0.87549 0.39466 0.66119 0.0
H2224 H 0.50185 0.05813 0.3837 0.0
H2225 H 0.51437 0.98247 0.36623 0.0
H2226 H 0.53668 0.98678 0.41206 0.0
H2227 H 0.54757 1.00971 0.45878 0.0
H2228 H 0.53534 0.08541 0.47603 0.0
H2229 H 0.51821 0.0835 0.42869 0.0
C2230 C 0.50989 0.04279 0.38975 0.0
C2231 C 0.50609 0.01989 0.37168 0.0
C2232 C 0.52247 0.04524 0.41626 0.0
C2233 C 0.51686 1.00028 0.37978 0.0
C2234 C 0.52953 1.00265 0.40606 0.0
C2235 C 0.54158 0.02592 0.452 0.0
C2236 C 0.54197 0.04732 0.47085 0.0
C2237 C 0.53166 0.02467 0.42473 0.0
C2238 C 0.53456 0.06843 0.46188 0.0
C2239 C 0.5248 0.06738 0.43484 0.0
H2240 H 0.77597 0.77556 0.1254 0.0
H2241 H 0.8086 0.71228 0.14061 0.0
H2242 H 0.8097 0.72346 0.18858 0.0
H2243 H 0.79969 0.74935 0.22692 0.0
H2244 H 0.77138 0.81543 0.21424 0.0
H2245 H 0.77006 0.80492 0.16547 0.0
C2246 C 0.78363 0.76442 0.13918 0.0
C2247 C 0.7919 0.74278 0.12869 0.0
C2248 C 0.78458 0.77116 0.16759 0.0
C2249 C 0.80182 0.72885 0.14741 0.0
C2250 C 0.80246 0.73518 0.17518 0.0
C2251 C 0.79323 0.76158 0.21361 0.0
C2252 C 0.7846 0.78266 0.22456 0.0
C2253 C 0.79353 0.75598 0.18555 0.0
C2254 C 0.77705 0.79847 0.20663 0.0
C2255 C 0.77661 0.7926 0.17857 0.0
H2256 H 0.07634 0.07525 0.72619 0.0
H2257 H 0.1492 0.05958 0.71411 0.0
H2258 H 0.13872 0.05794 0.66611 0.0
H2259 H 0.10927 0.0599 0.62654 0.0
H2260 H 0.03503 0.0726 0.63574 0.0
H2261 H 0.04584 0.07704 0.68499 0.0
C2262 C 0.08985 0.07138 0.71306 0.0
C2263 C 0.11353 0.0673 0.7244 0.0
C2264 C 0.08355 0.07001 0.68455 0.0
C2265 C 0.13069 0.0625 0.70659 0.0
C2266 C 0.12483 0.06169 0.67882 0.0
C2267 C 0.09523 0.06332 0.63922 0.0
C2268 C 0.0711 0.06525 0.62713 0.0
C2269 C 0.10131 0.06517 0.66748 0.0
C2270 C 0.05369 0.07071 0.64424 0.0
C2271 C 0.05985 0.07314 0.67255 0.0
H2272 H 0.85568 0.3514 0.47238 0.0
H2273 H 0.79421 0.38842 0.45726 0.0
H2274 H 0.78068 0.36258 0.41248 0.0
H2275 H 0.78876 0.33252 0.37638 0.0
H2276 H 0.85171 0.29734 0.39043 0.0
H2277 H 0.86196 0.31914 0.43721 0.0
C2278 C 0.83903 0.35352 0.45951 0.0
C2279 C 0.82606 0.37192 0.46811 0.0
C2280 C 0.83174 0.33905 0.43358 0.0
C2281 C 0.80454 0.37441 0.45115 0.0
C2282 C 0.79686 0.35973 0.42548 0.0
C2283 C 0.80468 0.32953 0.38969 0.0
C2284 C 0.81971 0.31364 0.37991 0.0
C2285 C 0.81075 0.34251 0.41627 0.0
C2286 C 0.8399 0.30952 0.39753 0.0
C2287 C 0.84583 0.32207 0.4242 0.0
H2288 H 0.41434 1.00444 0.20468 0.0
H2289 H 0.48547 0.98692 0.23406 0.0
H2290 H 0.49192 0.97487 0.18772 0.0
H2291 H 0.47784 0.97032 0.13872 0.0
H2292 H 0.40668 0.98761 0.10979 0.0
H2293 H 0.39994 0.99915 0.15619 0.0
C2294 C 0.43139 0.99817 0.20104 0.0
C2295 C 0.44948 0.99679 0.22288 0.0
C2296 C 0.43499 0.9913 0.17442 0.0
C2297 C 0.47129 0.98833 0.21766 0.0
C2298 C 0.475 0.98141 0.19116 0.0
C2299 C 0.4608 0.97644 0.1427 0.0
C2300 C 0.44255 0.97781 0.12106 0.0
C2301 C 0.45706 0.98297 0.16939 0.0
C2302 C 0.42063 0.98592 0.12626 0.0
C2303 C 0.4169 0.99268 0.15272 0.0
H2304 H 0.76836 0.77684 0.9696 0.0
H2305 H 0.81537 0.72296 0.96751 0.0
H2306 H 0.82737 0.73445 0.92449 0.0
H2307 H 0.82486 0.76031 0.88673 0.0
H2308 H 0.77819 0.81448 0.89005 0.0
H2309 H 0.76608 0.80256 0.93255 0.0
C2310 C 0.78131 0.76761 0.95986 0.0
C2311 C 0.79088 0.74898 0.97226 0.0
C2312 C 0.78829 0.77441 0.9349 0.0
C2313 C 0.80764 0.73739 0.95887 0.0
C2314 C 0.81452 0.74395 0.93405 0.0
C2315 C 0.81186 0.76933 0.89661 0.0
C2316 C 0.80237 0.78828 0.88463 0.0
C2317 C 0.80498 0.76245 0.9217 0.0
C2318 C 0.78591 0.79993 0.89839 0.0
C2319 C 0.77888 0.79307 0.92289 0.0
H2320 H 0.83103 0.1275 0.02173 0.0
H2321 H 0.86372 0.13389 0.1052 0.0
H2322 H 0.89863 0.11627 0.09164 0.0
H2323 H 0.92069 0.10032 0.05588 0.0
H2324 H 0.88653 0.09204 0.97254 0.0
H2325 H 0.85149 0.10908 0.98624 0.0
C2326 C 0.84584 0.12508 0.03693 0.0
C2327 C 0.84493 0.1322 0.06439 0.0
C2328 C 0.86563 0.11458 0.02903 0.0
C2329 C 0.86402 0.1286 0.0839 0.0
C2330 C 0.884 0.11852 0.07617 0.0
C2331 C 0.90538 0.10188 0.04075 0.0
C2332 C 0.90649 0.09525 0.01321 0.0
C2333 C 0.88506 0.11152 0.04877 0.0
C2334 C 0.8865 0.09754 0.99387 0.0
C2335 C 0.86637 0.10719 1.00167 0.0
H2336 H 0.38689 0.47343 0.05525 0.0
H2337 H 0.42135 0.41825 0.08955 0.0
H2338 H 0.4644 0.44604 0.08978 0.0
H2339 H 0.49227 0.48564 0.07969 0.0
H2340 H 0.45807 0.5381 0.03962 0.0
H2341 H 0.41516 0.51211 0.04251 0.0
C2342 C 0.40386 0.46762 0.06292 0.0
C2343 C 0.40093 0.44392 0.07264 0.0
C2344 C 0.42866 0.48332 0.06206 0.0
C2345 C 0.42309 0.43639 0.08201 0.0
C2346 C 0.44771 0.4523 0.08215 0.0
C2347 C 0.47551 0.49153 0.07158 0.0
C2348 C 0.47871 0.51446 0.06021 0.0
C2349 C 0.45075 0.47575 0.07212 0.0
C2350 C 0.4565 0.52126 0.04945 0.0
C2351 C 0.43181 0.50615 0.0508 0.0
H2352 H 0.38521 0.58287 0.77983 0.0
H2353 H 0.46571 0.61996 0.80713 0.0
H2354 H 0.45536 0.66096 0.81949 0.0
H2355 H 0.4237 0.6861 0.82255 0.0
H2356 H 0.34243 0.64776 0.80168 0.0
H2357 H 0.35296 0.60789 0.78574 0.0
C2358 C 0.40045 0.59997 0.78847 0.0
C2359 C 0.42623 0.59841 0.79248 0.0
C2360 C 0.39425 0.62337 0.79639 0.0
C2361 C 0.44574 0.62063 0.80397 0.0
C2362 C 0.43982 0.6441 0.81094 0.0
C2363 C 0.40804 0.66907 0.81515 0.0
C2364 C 0.38214 0.67048 0.8137 0.0
C2365 C 0.41413 0.64566 0.80738 0.0
C2366 C 0.36256 0.64793 0.8028 0.0
C2367 C 0.36855 0.62482 0.79392 0.0
H2368 H 0.20194 0.57184 0.5749 0.0
H2369 H 0.20676 0.64607 0.62025 0.0
H2370 H 0.16246 0.63134 0.6281 0.0
H2371 H 0.12091 0.60004 0.61659 0.0
H2372 H 0.11361 0.5262 0.56956 0.0
H2373 H 0.16031 0.53765 0.56816 0.0
C2374 C 0.19333 0.58443 0.58698 0.0
C2375 C 0.20732 0.61004 0.59679 0.0
C2376 C 0.16744 0.57594 0.59094 0.0
C2377 C 0.19613 0.62636 0.61233 0.0
C2378 C 0.17085 0.61797 0.61684 0.0
C2379 C 0.12975 0.58619 0.60672 0.0
C2380 C 0.11417 0.56248 0.59311 0.0
C2381 C 0.15612 0.59318 0.60548 0.0
C2382 C 0.1255 0.54453 0.58034 0.0
C2383 C 0.15208 0.55123 0.5793 0.0
H2384 H 0.77301 0.02808 0.78285 0.0
H2385 H 0.70294 1.01542 0.81782 0.0
H2386 H 0.71538 0.98222 0.84103 0.0
H2387 H 0.74561 0.95629 0.85062 0.0
H2388 H 0.81811 0.97231 0.81988 0.0
H2389 H 0.80495 1.00416 0.79534 0.0
C2390 C 0.76051 0.01801 0.79556 0.0
C2391 C 0.73705 0.02402 0.79851 0.0
C2392 C 0.76809 0.99939 0.80943 0.0
C2393 C 0.72114 1.01113 0.8153 0.0
C2394 C 0.7282 0.99211 0.82852 0.0
C2395 C 0.75886 0.967 0.83902 0.0
C2396 C 0.78279 0.96149 0.83708 0.0
C2397 C 0.75163 0.98608 0.82573 0.0
C2398 C 0.79928 0.97544 0.82134 0.0
C2399 C 0.79189 0.99394 0.80744 0.0
H2400 H 0.78872 0.98102 0.61178 0.0
H2401 H 0.75144 0.92465 0.54177 0.0
H2402 H 0.71956 0.94901 0.53245 0.0
H2403 H 0.70364 0.98774 0.54295 0.0
H2404 H 0.74223 0.04445 0.61217 0.0
H2405 H 0.77212 0.01851 0.62312 0.0
C2406 C 0.77355 0.97392 0.59455 0.0
C2407 C 0.77256 0.95105 0.57745 0.0
C2408 C 0.75551 0.98817 0.58915 0.0
C2409 C 0.75272 0.94221 0.55523 0.0
C2410 C 0.73447 0.95615 0.54989 0.0
C2411 C 0.71839 0.99417 0.56062 0.0
C2412 C 0.72079 0.018 0.5767 0.0
C2413 C 0.73584 0.97932 0.56654 0.0
C2414 C 0.74015 0.02628 0.59938 0.0
C2415 C 0.75723 1.01146 0.60565 0.0
H2416 H 0.42592 0.43055 0.77236 0.0
H2417 H 0.38301 0.4796 0.80825 0.0
H2418 H 0.35094 0.44174 0.81608 0.0
H2419 H 0.33556 0.3944 0.81359 0.0
H2420 H 0.37568 0.34584 0.77155 0.0
H2421 H 0.40839 0.38345 0.76604 0.0
C2422 C 0.4095 0.43292 0.78183 0.0
C2423 C 0.40697 0.45789 0.78985 0.0
C2424 C 0.39067 0.41102 0.78549 0.0
C2425 C 0.38539 0.46061 0.80179 0.0
C2426 C 0.36708 0.43894 0.80638 0.0
C2427 C 0.35115 0.39196 0.80282 0.0
C2428 C 0.35292 0.36693 0.79328 0.0
C2429 C 0.36951 0.41398 0.79837 0.0
C2430 C 0.37375 0.36454 0.77974 0.0
C2431 C 0.39254 0.38619 0.77629 0.0
H2432 H 0.20606 0.65975 0.27145 0.0
H2433 H 0.276 0.63454 0.27506 0.0
H2434 H 0.30103 0.67885 0.27494 0.0
H2435 H 0.30272 0.72516 0.27393 0.0
H2436 H 0.23167 0.74814 0.26708 0.0
H2437 H 0.20739 0.70444 0.26856 0.0
C2438 C 0.22681 0.66386 0.27237 0.0
C2439 C 0.23915 0.64388 0.2735 0.0
C2440 C 0.24088 0.6891 0.27189 0.0
C2441 C 0.26602 0.64959 0.27422 0.0
C2442 C 0.28032 0.67491 0.27417 0.0
C2443 C 0.28194 0.72043 0.27289 0.0
C2444 C 0.26904 0.74001 0.27173 0.0
C2445 C 0.26794 0.69487 0.27302 0.0
C2446 C 0.24213 0.73373 0.26949 0.0
C2447 C 0.22817 0.70861 0.26994 0.0
H2448 H 0.56967 0.71595 0.54607 0.0
H2449 H 0.50067 0.6883 0.4874 0.0
H2450 H 0.50028 0.64389 0.4925 0.0
H2451 H 0.51971 0.6111 0.51298 0.0
H2452 H 0.58642 0.63892 0.57432 0.0
H2453 H 0.58749 0.6832 0.5686 0.0
C2454 C 0.55437 0.70036 0.53437 0.0
C2455 C 0.53514 0.70665 0.51612 0.0
C2456 C 0.55394 0.67396 0.53772 0.0
C2457 C 0.51579 0.68516 0.50164 0.0
C2458 C 0.51558 0.65926 0.50452 0.0
C2459 C 0.53453 0.62668 0.52529 0.0
C2460 C 0.55352 0.62036 0.54383 0.0
C2461 C 0.53456 0.6531 0.52242 0.0
C2462 C 0.57202 0.64194 0.5593 0.0
C2463 C 0.57247 0.66782 0.55618 0.0
H2464 H 0.65203 0.302 0.71298 0.0
H2465 H 0.69301 0.33649 0.65292 0.0
H2466 H 0.73416 0.33696 0.67999 0.0
H2467 H 0.75877 0.32611 0.72078 0.0
H2468 H 0.71559 0.29044 0.77893 0.0
H2469 H 0.67572 0.2921 0.75277 0.0
C2470 C 0.66986 0.30986 0.70562 0.0
C2471 C 0.66891 0.3193 0.6806 0.0
C2472 C 0.69344 0.30963 0.72109 0.0
C2473 C 0.69268 0.3292 0.67195 0.0
C2474 C 0.71637 0.32936 0.6875 0.0
C2475 C 0.74071 0.31846 0.7277 0.0
C2476 C 0.74079 0.3073 0.75189 0.0
C2477 C 0.71708 0.31935 0.7121 0.0
C2478 C 0.71673 0.29832 0.76033 0.0
C2479 C 0.69363 0.29946 0.74534 0.0
H2480 H 0.0473 0.37887 0.98134 0.0
H2481 H 1.00244 0.36153 0.0449 0.0
H2482 H 1.00614 0.40743 0.05802 0.0
H2483 H 0.0221 0.45381 0.05203 0.0
H2484 H 0.06588 0.47086 0.98763 0.0
H2485 H 0.06293 0.42518 0.97514 0.0
C2486 C 0.03845 0.38497 0.99825 0.0
C2487 C 0.02467 0.36576 0.01205 0.0
C2488 C 0.04055 0.41208 1.00587 0.0
C2489 C 1.01332 0.37504 0.03371 0.0
C2490 C 1.01539 0.40167 0.04131 0.0
C2491 C 0.03096 0.44771 0.03515 0.0
C2492 C 0.04465 0.46688 0.02123 0.0
C2493 C 0.02891 0.42059 0.0276 0.0
C2494 C 0.0558 0.45753 0.99946 0.0
C2495 C 0.0539 0.43096 0.99203 0.0
H2496 H 0.9964 0.76335 0.18187 0.0
H2497 H 1.01377 0.84082 0.16333 0.0
H2498 H 0.9808 0.8505 0.18902 0.0
H2499 H 0.94923 0.83786 0.21954 0.0
H2500 H 0.93064 0.76004 0.23675 0.0
H2501 H 0.96155 0.74938 0.20846 0.0
C2502 C 0.99283 0.78229 0.1833 0.0
C2503 C 1.00775 0.80145 0.17099 0.0
C2504 C 0.97359 0.78762 0.19783 0.0
C2505 C 1.00262 0.82577 0.17267 0.0
C2506 C 0.98381 0.83134 0.18741 0.0
C2507 C 0.95173 0.81848 0.21674 0.0
C2508 C 0.93783 0.79976 0.23027 0.0
C2509 C 0.96949 0.81255 0.20045 0.0
C2510 C 0.94103 0.77468 0.22638 0.0
C2511 C 0.95884 0.76867 0.2104 0.0
H2512 H 0.58316 0.334 0.15021 0.0
H2513 H 0.52236 0.33173 0.19869 0.0
H2514 H 0.5159 0.37165 0.18476 0.0
H2515 H 0.52819 0.40783 0.15988 0.0
H2516 H 0.58987 0.41109 0.1125 0.0
H2517 H 0.59488 0.36994 0.12447 0.0
C2518 C 0.5684 0.34215 0.15765 0.0
C2519 C 0.55333 0.32982 0.17559 0.0
C2520 C 0.56488 0.3653 0.14968 0.0
C2521 C 0.5343 0.34075 0.18495 0.0
C2522 C 0.53059 0.36362 0.17699 0.0
C2523 C 0.54288 0.39968 0.15228 0.0
C2524 C 0.55877 0.4128 0.13544 0.0
C2525 C 0.54592 0.3762 0.15958 0.0
C2526 C 0.57722 0.40146 0.12529 0.0
C2527 C 0.58023 0.37797 0.13231 0.0
H2528 H 0.98244 0.34788 0.36206 0.0
H2529 H 0.99038 0.28345 0.30786 0.0
H2530 H 0.94345 0.27124 0.2925 0.0
H2531 H 0.89856 0.27795 0.29546 0.0
H2532 H 0.89287 0.34306 0.35018 0.0
H2533 H 0.93935 0.35546 0.36376 0.0
C2534 C 0.97425 0.33122 0.34661 0.0
C2535 C 0.99104 0.3169 0.33629 0.0
C2536 C 0.94689 0.32417 0.33783 0.0
C2537 C 0.97891 0.29536 0.31628 0.0
C2538 C 0.95167 0.28818 0.30757 0.0
C2539 C 0.90739 0.29492 0.31035 0.0
C2540 C 0.89115 0.3097 0.32131 0.0
C2541 C 0.93516 0.30223 0.31835 0.0
C2542 C 0.90393 0.33153 0.34056 0.0
C2543 C 0.93093 0.33858 0.34865 0.0
H2544 H 0.03428 0.71202 0.64358 0.0
H2545 H 0.02552 0.67389 0.71334 0.0
H2546 H 0.02713 0.63343 0.68665 0.0
H2547 H 0.03475 0.60957 0.64398 0.0
H2548 H 0.04121 0.64797 0.57425 0.0
H2549 H 0.03751 0.68743 0.60044 0.0
C2550 C 0.03236 0.69484 0.65302 0.0
C2551 C 0.02978 0.69638 0.68073 0.0
C2552 C 0.03343 0.67158 0.63752 0.0
C2553 C 0.02731 0.67358 0.69219 0.0
C2554 C 0.02846 0.65036 0.67689 0.0
C2555 C 0.03467 0.6263 0.63429 0.0
C2556 C 0.03862 0.62555 0.60696 0.0
C2557 C 0.03197 0.64916 0.64958 0.0
C2558 C 0.03902 0.64793 0.59526 0.0
C2559 C 0.03661 0.67056 0.61024 0.0
H2560 H 0.6756 0.85115 0.88143 0.0
H2561 H 0.62741 0.81293 0.80663 0.0
H2562 H 0.66541 0.80352 0.78912 0.0
H2563 H 0.71383 0.80559 0.79519 0.0
H2564 H 0.76048 0.84687 0.87003 0.0
H2565 H 0.72256 0.85525 0.88649 0.0
C2566 C 0.67307 0.84086 0.86111 0.0
C2567 C 0.64768 0.83298 0.84572 0.0
C2568 C 0.6954 0.83575 0.8509 0.0
C2569 C 0.646 0.81971 0.81936 0.0
C2570 C 0.66808 0.81413 0.80929 0.0
C2571 C 0.71585 0.81626 0.81518 0.0
C2572 C 0.74114 0.82495 0.8312 0.0
C2573 C 0.69313 0.82188 0.82486 0.0
C2574 C 0.7422 0.83935 0.85684 0.0
C2575 C 0.72013 0.84434 0.86649 0.0
H2576 H 0.47503 0.54928 0.69414 0.0
H2577 H 0.5328 0.51651 0.73176 0.0
H2578 H 0.55448 0.51898 0.692 0.0
H2579 H 0.55645 0.52903 0.64559 0.0
H2580 H 0.4995 0.56311 0.60859 0.0
H2581 H 0.4782 0.5612 0.64858 0.0
C2582 C 0.49241 0.54272 0.69378 0.0
C2583 C 0.50205 0.53262 0.71628 0.0
C2584 C 0.50503 0.54435 0.6707 0.0
C2585 C 0.52474 0.52438 0.71506 0.0
C2586 C 0.53721 0.52576 0.69217 0.0
C2587 C 0.53976 0.53663 0.6464 0.0
C2588 C 0.53001 0.54658 0.62386 0.0
C2589 C 0.52753 0.53562 0.66977 0.0
C2590 C 0.50772 0.55546 0.6254 0.0
C2591 C 0.49542 0.55434 0.64838 0.0
H2592 H 0.74747 0.15293 0.97196 0.0
H2593 H 0.73849 0.22886 0.99688 0.0
H2594 H 0.73012 0.2348 0.94974 0.0
H2595 H 0.72681 0.2189 0.90142 0.0
H2596 H 0.73291 0.1421 0.87607 0.0
H2597 H 0.74074 0.13572 0.92333 0.0
C2598 C 0.7438 0.17078 0.96696 0.0
C2599 C 0.74406 0.19065 0.98768 0.0
C2600 C 0.73835 0.17378 0.93982 0.0
C2601 C 0.73859 0.21343 0.98113 0.0
C2602 C 0.73378 0.21682 0.95425 0.0
C2603 C 0.72967 0.20076 0.90641 0.0
C2604 C 0.72955 0.18105 0.88568 0.0
C2605 C 0.7338 0.19721 0.93345 0.0
C2606 C 0.73302 0.15747 0.89198 0.0
C2607 C 0.73758 0.1539 0.9189 0.0
H2608 H 0.11444 0.56731 0.21264 0.0
H2609 H 0.16115 0.51935 0.18216 0.0
H2610 H 0.13541 0.5117 0.13746 0.0
H2611 H 0.10227 0.52153 0.10633 0.0
H2612 H 0.05751 0.57204 0.13571 0.0
H2613 H 0.07955 0.57539 0.18164 0.0
C2614 C 0.11871 0.55481 0.19634 0.0
C2615 C 0.13976 0.54396 0.20075 0.0
C2616 C 0.10424 0.55104 0.17046 0.0
C2617 C 0.14516 0.52803 0.17931 0.0
C2618 C 0.13047 0.52368 0.15372 0.0
C2619 C 0.09711 0.53311 0.12278 0.0
C2620 C 0.07813 0.54643 0.11752 0.0
C2621 C 0.11039 0.53558 0.14894 0.0
C2622 C 0.07171 0.56125 0.13916 0.0
C2623 C 0.0845 0.56338 0.16543 0.0
H2624 H 0.83571 0.82362 0.48188 0.0
H2625 H 0.78938 0.87819 0.48334 0.0
H2626 H 0.77874 0.86898 0.4341 0.0
H2627 H 0.78344 0.84612 0.38991 0.0
H2628 H 0.82884 0.7907 0.3894 0.0
H2629 H 0.8391 0.7998 0.43826 0.0
C2630 C 0.82311 0.8334 0.47153 0.0
C2631 C 0.81338 0.8516 0.48666 0.0
C2632 C 0.81711 0.8281 0.443 0.0
C2633 C 0.79715 0.86403 0.47252 0.0
C2634 C 0.7911 0.85883 0.4442 0.0
C2635 C 0.79558 0.83601 0.40044 0.0
C2636 C 0.80589 0.81816 0.3854 0.0
C2637 C 0.80111 0.84102 0.4291 0.0
C2638 C 0.82132 0.80518 0.39986 0.0
C2639 C 0.82699 0.81016 0.42808 0.0
H2640 H 0.48655 0.55019 0.88464 0.0
H2641 H 0.54312 0.50922 0.86649 0.0
H2642 H 0.5589 0.51333 0.91465 0.0
H2643 H 0.55638 0.52806 0.96232 0.0
H2644 H 0.498 0.56675 0.98034 0.0
H2645 H 0.48376 0.56446 0.93229 0.0
C2646 C 0.50251 0.54239 0.89116 0.0
C2647 C 0.51367 0.52956 0.87169 0.0
C2648 C 0.51125 0.54438 0.9191 0.0
C2649 C 0.53414 0.51929 0.8808 0.0
C2650 C 0.54319 0.52159 0.90845 0.0
C2651 C 0.54034 0.53572 0.95583 0.0
C2652 C 0.52814 0.5472 0.97534 0.0
C2653 C 0.53179 0.53393 0.92787 0.0
C2654 C 0.50779 0.5576 0.96613 0.0
C2655 C 0.49955 0.55631 0.93849 0.0
H2656 H 0.83329 0.22658 0.14899 0.0
H2657 H 0.76563 0.25034 0.12026 0.0
H2658 H 0.77097 0.27931 0.16258 0.0
H2659 H 0.78998 0.29127 0.21043 0.0
H2660 H 0.85762 0.26753 0.23915 0.0
H2661 H 0.85737 0.24549 0.19404 0.0
C2662 C 0.82008 0.23855 0.15177 0.0
C2663 C 0.79882 0.23589 0.13179 0.0
C2664 C 0.82308 0.25499 0.17626 0.0
C2665 C 0.78208 0.25185 0.13543 0.0
C2666 C 0.78502 0.26834 0.15971 0.0
C2667 C 0.80529 0.28223 0.20659 0.0
C2668 C 0.82356 0.28069 0.22811 0.0
C2669 C 0.80477 0.26919 0.18069 0.0
C2670 C 0.84313 0.26864 0.22288 0.0
C2671 C 0.84293 0.25592 0.19715 0.0
H2672 H 0.13423 0.59469 0.35522 0.0
H2673 H 0.19738 0.55887 0.36247 0.0
H2674 H 0.20031 0.56549 0.4114 0.0
H2675 H 0.18751 0.58478 0.45236 0.0
H2676 H 0.12368 0.61933 0.44582 0.0
H2677 H 0.11822 0.60976 0.39641 0.0
C2678 C 0.14838 0.58802 0.3675 0.0
C2679 C 0.16574 0.57658 0.35519 0.0
C2680 C 0.14997 0.59186 0.39575 0.0
C2681 C 0.18382 0.56781 0.37138 0.0
C2682 C 0.18562 0.57169 0.39941 0.0
C2683 C 0.1723 0.58998 0.44 0.0
C2684 C 0.15617 0.60292 0.45239 0.0
C2685 C 0.16923 0.58424 0.41181 0.0
C2686 C 0.13628 0.60934 0.43647 0.0
C2687 C 0.13325 0.60396 0.40831 0.0
H2688 H 0.81406 0.89053 0.66845 0.0
H2689 H 0.82722 0.82123 0.62777 0.0
H2690 H 0.82255 0.8013 0.66862 0.0
H2691 H 0.81551 0.80376 0.71681 0.0
H2692 H 0.80237 0.87356 0.75657 0.0
H2693 H 0.80619 0.89268 0.71554 0.0
C2694 C 0.81587 0.87101 0.66833 0.0
C2695 C 0.82106 0.85757 0.64464 0.0
C2696 C 0.81316 0.8596 0.69202 0.0
C2697 C 0.82323 0.83223 0.64537 0.0
C2698 C 0.82057 0.82077 0.66889 0.0
C2699 C 0.81331 0.8231 0.7165 0.0
C2700 C 0.80863 0.83704 0.74022 0.0
C2701 C 0.81562 0.83427 0.69247 0.0
C2702 C 0.80598 0.86216 0.73902 0.0
C2703 C 0.8082 0.87323 0.71541 0.0
H2704 H 0.75668 0.44382 0.52862 0.0
H2705 H 0.79605 0.52471 0.5411 0.0
H2706 H 0.75691 0.5358 0.55171 0.0
H2707 H 0.71345 0.52251 0.56271 0.0
H2708 H 0.67378 0.44175 0.55133 0.0
H2709 H 0.71121 0.43062 0.53533 0.0
C2710 C 0.75649 0.46387 0.53308 0.0
C2711 C 0.77926 0.48341 0.53426 0.0
C2712 C 0.73405 0.47013 0.53988 0.0
C2713 C 0.77881 0.50931 0.54024 0.0
C2714 C 0.75647 0.51567 0.54642 0.0
C2715 C 0.71268 0.50248 0.55613 0.0
C2716 C 0.69088 0.483 0.55842 0.0
C2717 C 0.73425 0.49623 0.5471 0.0
C2718 C 0.69049 0.45712 0.55022 0.0
C2719 C 0.71183 0.45074 0.54094 0.0
H2720 H 0.21415 0.13152 0.55425 0.0
H2721 H 0.18466 0.17659 0.49947 0.0
H2722 H 0.14075 0.15007 0.49852 0.0
H2723 H 0.1106 0.1147 0.51439 0.0
H2724 H 0.14077 0.07254 0.57212 0.0
H2725 H 0.18443 0.09715 0.57052 0.0
C2726 C 0.19821 0.13546 0.54181 0.0
C2727 C 0.20286 0.15598 0.52675 0.0
C2728 C 0.17303 0.12058 0.5419 0.0
C2729 C 0.18176 0.16091 0.51117 0.0
C2730 C 0.15661 0.14577 0.51068 0.0
C2731 C 0.12671 0.11081 0.52657 0.0
C2732 C 0.12224 0.09118 0.54284 0.0
C2733 C 0.15197 0.12566 0.52617 0.0
C2734 C 0.14347 0.08681 0.55872 0.0
C2735 C 0.16855 0.1011 0.55803 0.0
H2736 H 0.18028 0.99248 0.83462 0.0
H2737 H 0.21277 1.00971 0.76292 0.0
H2738 H 0.23102 0.97271 0.76273 0.0
H2739 H 0.23668 0.93441 0.782 0.0
H2740 H 0.205 0.91774 0.85425 0.0
H2741 H 0.18763 0.95535 0.85508 0.0
C2742 C 0.19137 0.98815 0.81898 0.0
C2743 C 0.19499 1.00382 0.79877 0.0
C2744 C 0.20199 0.96683 0.81902 0.0
C2745 C 0.2096 0.99799 0.77874 0.0
C2746 C 0.22009 0.97679 0.77858 0.0
C2747 C 0.22628 0.93921 0.79812 0.0
C2748 C 0.22195 0.92305 0.81784 0.0
C2749 C 0.21632 0.96098 0.79854 0.0
C2750 C 0.20823 0.92952 0.83849 0.0
C2751 C 0.19834 0.95111 0.83906 0.0
H2752 H 0.42067 0.99926 0.99005 0.0
H2753 H 0.41257 0.0506 0.05875 0.0
H2754 H 0.45571 0.07796 0.05863 0.0
H2755 H 0.49842 0.08224 0.04417 0.0
H2756 H 0.50645 0.02891 0.97731 0.0
H2757 H 0.46047 1.008 0.97069 0.0
C2758 C 0.42813 0.01678 1.00457 0.0
C2759 C 0.41377 0.02272 0.02461 0.0
C2760 C 0.45294 0.03215 1.00458 0.0
C2761 C 0.42341 0.04561 0.04315 0.0
C2762 C 0.44809 0.06121 0.04316 0.0
C2763 C 0.48972 0.06679 0.02748 0.0
C2764 C 0.50545 0.05693 0.01127 0.0
C2765 C 0.46344 0.05406 0.02466 0.0
C2766 C 0.49443 0.03674 0.98988 0.0
C2767 C 0.46824 0.02459 0.98632 0.0
H2768 H 0.82391 0.57668 0.78265 0.0
H2769 H 0.89984 0.60563 0.82956 0.0
H2770 H 0.89924 0.64958 0.82334 0.0
H2771 H 0.87879 0.67914 0.80073 0.0
H2772 H 0.80344 0.64945 0.75277 0.0
H2773 H 0.80215 0.6064 0.7633 0.0
C2774 C 0.84019 0.59262 0.79189 0.0
C2775 C 0.86199 0.58786 0.80629 0.0
C2776 C 0.83995 0.61767 0.78774 0.0
C2777 C 0.88283 0.60876 0.81832 0.0
C2778 C 0.88258 0.63388 0.8146 0.0
C2779 C 0.86211 0.6632 0.79265 0.0
C2780 C 0.84135 0.66735 0.7758 0.0
C2781 C 0.86157 0.63844 0.79865 0.0
C2782 C 0.81962 0.64671 0.76585 0.0
C2783 C 0.8189 0.62209 0.77179 0.0
H2784 H 0.84222 0.63552 0.07111 0.0
H2785 H 0.85081 0.68024 1.00601 0.0
H2786 H 0.8887 0.66556 0.99707 0.0
H2787 H 0.92015 0.64115 0.00848 0.0
H2788 H 0.91288 0.59775 0.07469 0.0
H2789 H 0.87343 0.61028 0.08198 0.0
C2790 C 0.85229 0.64196 0.05486 0.0
C2791 C 0.84364 0.65907 0.03931 0.0
C2792 C 0.87429 0.6336 0.04996 0.0
C2793 C 0.857 0.66718 0.01836 0.0
C2794 C 0.87871 0.65877 0.01323 0.0
C2795 C 0.91009 0.63453 0.02466 0.0
C2796 C 0.91975 0.61865 0.04114 0.0
C2797 C 0.88768 0.64221 0.02906 0.0
C2798 C 0.90592 0.60978 0.06152 0.0
C2799 C 0.88342 0.61713 0.06584 0.0
H2800 H 0.18616 0.16934 0.82974 0.0
H2801 H 0.23599 0.12264 0.80442 0.0
H2802 H 0.26845 0.16106 0.79974 0.0
H2803 H 0.28167 0.20786 0.79962 0.0
H2804 H 0.23274 0.2547 0.82705 0.0
H2805 H 0.20126 0.21655 0.83363 0.0
C2806 C 0.20424 0.16755 0.82356 0.0
C2807 C 0.20832 0.14292 0.81732 0.0
C2808 C 0.22307 0.18987 0.82085 0.0
C2809 C 0.23205 0.1412 0.80937 0.0
C2810 C 0.25072 0.16324 0.80653 0.0
C2811 C 0.26442 0.20988 0.80746 0.0
C2812 C 0.25992 0.23444 0.81266 0.0
C2813 C 0.24628 0.18768 0.81172 0.0
C2814 C 0.237 0.23626 0.82259 0.0
C2815 C 0.21881 0.21433 0.82647 0.0
H2816 H 0.34983 0.95732 0.29631 0.0
H2817 H 0.40939 0.94377 0.35304 0.0
H2818 H 0.38065 0.90286 0.35861 0.0
H2819 H 0.33997 0.86883 0.3435 0.0
H2820 H 0.28288 0.88102 0.28292 0.0
H2821 H 0.309 0.9246 0.2828 0.0
C2822 C 0.3563 0.94569 0.31035 0.0
C2823 C 0.38158 0.95352 0.3243 0.0
C2824 C 0.34012 0.92182 0.31256 0.0
C2825 C 0.38994 0.93805 0.34206 0.0
C2826 C 0.37356 0.91466 0.34519 0.0
C2827 C 0.33317 0.88137 0.33081 0.0
C2828 C 0.30966 0.8721 0.31339 0.0
C2829 C 0.34882 0.90603 0.33001 0.0
C2830 C 0.30103 0.88802 0.29649 0.0
C2831 C 0.31593 0.91285 0.29637 0.0
H2832 H 0.58911 0.38471 0.55247 0.0
H2833 H 0.58238 0.39418 0.63699 0.0
H2834 H 0.57454 0.43649 0.63424 0.0
H2835 H 0.56953 0.47248 0.60829 0.0
H2836 H 0.57157 0.46154 0.52285 0.0
H2837 H 0.58079 0.41962 0.52562 0.0
C2838 C 0.58591 0.39586 0.57042 0.0
C2839 C 0.58673 0.3852 0.5952 0.0
C2840 C 0.58037 0.42069 0.56854 0.0
C2841 C 0.58205 0.40085 0.61762 0.0
C2842 C 0.57751 0.42551 0.61606 0.0
C2843 C 0.57191 0.46103 0.59011 0.0
C2844 C 0.56996 0.47132 0.56525 0.0
C2845 C 0.57659 0.4359 0.5917 0.0
C2846 C 0.57291 0.4551 0.54233 0.0
C2847 C 0.57831 0.43074 0.54395 0.0
H2848 H 0.44359 0.8242 0.38137 0.0
H2849 H 0.41044 0.75976 0.41968 0.0
H2850 H 0.36793 0.75616 0.39413 0.0
H2851 H 0.3396 0.77121 0.36011 0.0
H2852 H 0.37398 0.83583 0.32238 0.0
H2853 H 0.41578 0.83916 0.34807 0.0
C2854 C 0.42713 0.8093 0.38419 0.0
C2855 C 0.4306 0.79228 0.40263 0.0
C2856 C 0.40256 0.80727 0.3693 0.0
C2857 C 0.40871 0.77317 0.40574 0.0
C2858 C 0.38422 0.77111 0.39107 0.0
C2859 C 0.35615 0.78614 0.35761 0.0
C2860 C 0.35311 0.80313 0.33889 0.0
C2861 C 0.38078 0.78806 0.3727 0.0
C2862 C 0.37525 0.82215 0.33611 0.0
C2863 C 0.39942 0.82421 0.35099 0.0
H2864 H 0.04289 0.70788 0.10315 0.0
H2865 H 0.09247 0.7349 0.04627 0.0
H2866 H 0.0939 0.69015 0.03141 0.0
H2867 H 0.0815 0.642 0.03529 0.0
H2868 H 0.03213 0.6178 0.09365 0.0
H2869 H 0.03046 0.66184 0.10659 0.0
C2870 C 0.05396 0.70435 0.08725 0.0
C2871 C 0.0674 0.72577 0.07598 0.0
C2872 C 0.05494 0.67838 0.07897 0.0
C2873 C 0.08154 0.7196 0.05544 0.0
C2874 C 0.08251 0.69367 0.04701 0.0
C2875 C 0.0705 0.64625 0.05099 0.0
C2876 C 0.05708 0.62543 0.06338 0.0
C2877 C 0.06944 0.67265 0.05875 0.0
C2878 C 0.04284 0.63239 0.08346 0.0
C2879 C 0.04177 0.658 0.09101 0.0
H2880 H 0.07708 0.28201 0.87659 0.0
H2881 H 0.1051 0.31034 0.96101 0.0
H2882 H 0.14876 0.32565 0.95092 0.0
H2883 H 0.17901 0.33037 0.91849 0.0
H2884 H 0.15029 0.30704 0.83323 0.0
H2885 H 0.10731 0.28959 0.84349 0.0
C2886 C 0.09276 0.2916 0.89275 0.0
C2887 C 0.08779 0.29495 0.91955 0.0
C2888 C 0.11783 0.30096 0.88672 0.0
C2889 C 0.1083 0.30761 0.94021 0.0
C2890 C 0.13333 0.31628 0.93446 0.0
C2891 C 0.16346 0.32203 0.90189 0.0
C2892 C 0.16852 0.32026 0.87497 0.0
C2893 C 0.13834 0.31307 0.90779 0.0
C2894 C 0.14768 0.30839 0.8542 0.0
C2895 C 0.1228 0.2986 0.86001 0.0
H2896 H 0.55679 0.76152 0.93154 0.0
H2897 H 0.62317 0.81035 0.98541 0.0
H2898 H 0.6185 0.77965 0.01705 0.0
H2899 H 0.595 0.73972 0.03044 0.0
H2900 H 0.52865 0.6903 0.97733 0.0
H2901 H 0.53418 0.72007 0.94428 0.0
C2902 C 0.57025 0.76539 0.95017 0.0
C2903 C 0.5902 0.78838 0.95608 0.0
C2904 C 0.56755 0.74747 0.96843 0.0
C2905 C 0.60758 0.79293 0.98027 0.0
C2906 C 0.60495 0.77536 0.99845 0.0
C2907 C 0.58172 0.73544 0.01163 0.0
C2908 C 0.56131 0.71291 1.00649 0.0
C2909 C 0.58491 0.7527 0.99288 0.0
C2910 C 0.54461 0.70743 0.98175 0.0
C2911 C 0.54766 0.72456 0.96293 0.0
H2912 H 0.14208 0.79757 0.738 0.0
H2913 H 0.11909 0.76013 0.80497 0.0
H2914 H 0.16443 0.76055 0.81973 0.0
H2915 H 0.21219 0.77148 0.81327 0.0
H2916 H 0.23217 0.80904 0.74513 0.0
H2917 H 0.18752 0.80833 0.73183 0.0
C2918 C 0.14661 0.78952 0.75604 0.0
C2919 C 0.12609 0.77894 0.77016 0.0
C2920 C 0.17296 0.78967 0.76437 0.0
C2921 C 0.13361 0.76871 0.79344 0.0
C2922 C 0.15991 0.76883 0.80186 0.0
C2923 C 0.20687 0.77934 0.79536 0.0
C2924 C 0.22677 0.79028 0.78039 0.0
C2925 C 0.18004 0.77914 0.78743 0.0
C2926 C 0.21839 0.80046 0.75746 0.0
C2927 C 0.1924 0.80013 0.74966 0.0
H2928 H 0.08637 0.43935 0.44529 0.0
H2929 H 1.01852 0.39188 0.46835 0.0
H2930 H 1.01402 0.42858 0.49856 0.0
H2931 H 0.02876 0.47429 0.51878 0.0
H2932 H 0.09678 0.52246 0.49679 0.0
H2933 H 0.10149 0.48581 0.4662 0.0
C2934 C 0.0706 0.43699 0.45693 0.0
C2935 C 0.05284 0.41246 0.45425 0.0
C2936 C 0.06802 0.45852 0.47465 0.0
C2937 C 0.03259 0.41019 0.46971 0.0
C2938 C 0.02994 0.43132 0.48713 0.0
C2939 C 0.04476 0.47695 0.50746 0.0
C2940 C 0.06233 0.50158 0.51042 0.0
C2941 C 0.04749 0.45561 0.48983 0.0
C2942 C 0.08274 0.50409 0.49513 0.0
C2943 C 0.08552 0.48297 0.47754 0.0
H2944 H 0.46789 0.28963 0.24442 0.0
H2945 H 0.46734 0.22626 0.28856 0.0
H2946 H 0.42626 0.22946 0.30243 0.0
H2947 H 0.38898 0.25031 0.30292 0.0
H2948 H 0.38944 0.31318 0.25817 0.0
H2949 H 0.43059 0.31021 0.24466 0.0
C2950 C 0.45904 0.27647 0.2572 0.0
C2951 C 0.47196 0.25765 0.26524 0.0
C2952 C 0.43465 0.27845 0.2655 0.0
C2953 C 0.45896 0.24109 0.28178 0.0
C2954 C 0.43501 0.24292 0.28988 0.0
C2955 C 0.39796 0.26352 0.29027 0.0
C2956 C 0.38521 0.28252 0.28232 0.0
C2957 C 0.42241 0.26155 0.28204 0.0
C2958 C 0.39811 0.29883 0.26557 0.0
C2959 C 0.422 0.29696 0.25748 0.0
H2960 H 0.63107 0.55277 0.40392 0.0
H2961 H 0.57016 0.58674 0.37667 0.0
H2962 H 0.55333 0.58274 0.41916 0.0
H2963 H 0.5558 0.57 0.46462 0.0
H2964 H 0.61773 0.53782 0.49296 0.0
H2965 H 0.63409 0.54087 0.45006 0.0
C2966 C 0.61402 0.55916 0.40718 0.0
C2967 C 0.60189 0.56992 0.38673 0.0
C2968 C 0.60459 0.55726 0.43216 0.0
C2969 C 0.57998 0.57836 0.39176 0.0
C2970 C 0.5703 0.57609 0.4162 0.0
C2971 C 0.57289 0.56363 0.46147 0.0
C2972 C 0.58533 0.55355 0.48229 0.0
C2973 C 0.58244 0.56566 0.43664 0.0
C2974 C 0.60762 0.54567 0.4776 0.0
C2975 C 0.61701 0.54735 0.4529 0.0
H2976 H 0.37976 0.91079 0.09562 0.0
H2977 H 0.34589 0.96715 0.13455 0.0
H2978 H 0.35505 0.9528 0.17777 0.0
H2979 H 0.37139 0.92337 0.20414 0.0
H2980 H 0.40506 0.86696 0.16523 0.0
H2981 H 0.39812 0.88293 0.12242 0.0
C2982 C 0.37439 0.91999 0.11353 0.0
C2983 C 0.36203 0.93992 0.11179 0.0
C2984 C 0.37998 0.91189 0.13834 0.0
C2985 C 0.35526 0.95164 0.13526 0.0
C2986 C 0.36059 0.94354 0.16001 0.0
C2987 C 0.37728 0.91466 0.18627 0.0
C2988 C 0.38851 0.89392 0.1877 0.0
C2989 C 0.37279 0.92358 0.16173 0.0
C2990 C 0.39652 0.88307 0.16461 0.0
C2991 C 0.39232 0.89201 0.14011 0.0
H2992 H 0.98671 0.51004 0.87197 0.0
H2993 H 0.94678 0.56749 0.89453 0.0
H2994 H 0.97202 0.57736 0.93978 0.0
H2995 H 1.00312 0.56729 0.9738 0.0
H2996 H 0.04244 0.50935 0.95096 0.0
H2997 H 1.01968 0.50205 0.90487 0.0
C2998 C 0.98372 0.52497 0.88665 0.0
C2999 C 0.96477 0.53789 0.87993 0.0
C3000 C 0.99799 0.53025 0.91265 0.0
C3001 C 0.96127 0.55727 0.89916 0.0
C3002 C 0.97557 0.5628 0.9251 0.0
C3003 C 1.00673 0.55311 0.95872 0.0
C3004 C 0.02429 0.53873 0.96581 0.0
C3005 C 0.99357 0.54899 0.93223 0.0
C3006 C 0.02903 0.52068 0.94598 0.0
C3007 C 1.016 0.51646 0.91964 0.0
H3008 H 0.29906 0.2175 0.6367 0.0
H3009 H 0.27971 0.28305 0.60728 0.0
H3010 H 0.2807 0.30296 0.65398 0.0
H3011 H 0.28702 0.3014 0.70383 0.0
H3012 H 0.30471 0.23394 0.73075 0.0
H3013 H 0.30435 0.21546 0.68461 0.0
C3014 C 0.29519 0.23626 0.64024 0.0
C3015 C 0.28948 0.24869 0.61812 0.0
C3016 C 0.29535 0.24733 0.66699 0.0
C3017 C 0.28437 0.27297 0.62366 0.0
C3018 C 0.28482 0.28433 0.65047 0.0
C3019 C 0.29046 0.28253 0.69958 0.0
C3020 C 0.2958 0.26921 0.7212 0.0
C3021 C 0.29015 0.27161 0.67241 0.0
C3022 C 0.30056 0.24487 0.71496 0.0
C3023 C 0.30042 0.23417 0.68839 0.0
H3024 H 0.58296 0.57523 0.23495 0.0
H3025 H 0.63315 0.52555 0.22073 0.0
H3026 H 0.62135 0.52243 0.17237 0.0
H3027 H 0.59891 0.53544 0.13347 0.0
H3028 H 0.54518 0.58123 0.14644 0.0
H3029 H 0.55667 0.58466 0.19513 0.0
C3030 C 0.59103 0.56341 0.22132 0.0
C3031 C 0.60922 0.55089 0.23198 0.0
C3032 C 0.58403 0.56148 0.19294 0.0
C3033 C 0.6193 0.53567 0.21359 0.0
C3034 C 0.61265 0.5339 0.18568 0.0
C3035 C 0.58965 0.54623 0.14684 0.0
C3036 C 0.57183 0.55889 0.13582 0.0
C3037 C 0.59545 0.5471 0.17505 0.0
C3038 C 0.55977 0.57219 0.1539 0.0
C3039 C 0.56606 0.57383 0.18199 0.0
H3040 H 0.30985 0.8998 0.9497 0.0
H3041 H 0.38094 0.88157 0.97757 0.0
H3042 H 0.37476 0.84987 0.93716 0.0
H3043 H 0.35041 0.82898 0.89253 0.0
H3044 H 0.27957 0.84756 0.86472 0.0
H3045 H 0.28439 0.87731 0.90629 0.0
C3046 C 0.32386 0.88874 0.94703 0.0
C3047 C 0.34585 0.89317 0.96654 0.0
C3048 C 0.32036 0.87068 0.92361 0.0
C3049 C 0.36385 0.87864 0.9628 0.0
C3050 C 0.36037 0.86049 0.93967 0.0
C3051 C 0.33595 0.83938 0.89577 0.0
C3052 C 0.31496 0.83646 0.87543 0.0
C3053 C 0.33889 0.8566 0.91976 0.0
C3054 C 0.29628 0.84996 0.87981 0.0
C3055 C 0.29892 0.86689 0.90366 0.0
H3056 H 0.93759 0.48303 0.73803 0.0
H3057 H 0.89251 0.53548 0.71714 0.0
H3058 H 0.90202 0.53049 0.67099 0.0
H3059 H 0.92051 0.50875 0.63573 0.0
H3060 H 0.96004 0.45154 0.65487 0.0
H3061 H 0.95453 0.45989 0.70235 0.0
C3062 C 0.92967 0.49314 0.72329 0.0
C3063 C 0.91409 0.50928 0.73079 0.0
C3064 C 0.9339 0.48896 0.69643 0.0
C3065 C 0.90436 0.52274 0.71169 0.0
C3066 C 0.9098 0.51992 0.68535 0.0
C3067 C 0.92796 0.49827 0.65045 0.0
C3068 C 0.94062 0.47964 0.64217 0.0
C3069 C 0.92407 0.50267 0.67736 0.0
C3070 C 0.95007 0.46586 0.66105 0.0
C3071 C 0.94704 0.47073 0.68809 0.0
H3072 H 0.30954 0.22797 0.45114 0.0
H3073 H 0.26106 0.27904 0.46669 0.0
H3074 H 0.26709 0.29479 0.42408 0.0
H3075 H 0.28543 0.29398 0.38163 0.0
H3076 H 0.33441 0.24368 0.36568 0.0
H3077 H 0.32872 0.22778 0.40855 0.0
C3078 C 0.30039 0.24264 0.44531 0.0
C3079 C 0.28483 0.25221 0.46252 0.0
C3080 C 0.30383 0.25169 0.42034 0.0
C3081 C 0.27313 0.27118 0.45421 0.0
C3082 C 0.27655 0.28025 0.42967 0.0
C3083 C 0.29491 0.27953 0.3875 0.0
C3084 C 0.30995 0.26974 0.36992 0.0
C3085 C 0.29174 0.27062 0.41246 0.0
C3086 C 0.32215 0.25114 0.37822 0.0
C3087 C 0.31907 0.24217 0.40297 0.0
H3088 H 0.35467 0.59617 0.59015 0.0
H3089 H 0.32282 0.61903 0.5174 0.0
H3090 H 0.35557 0.60608 0.49371 0.0
H3091 H 0.39389 0.58947 0.49398 0.0
H3092 H 0.42763 0.56953 0.56766 0.0
H3093 H 0.39311 0.5795 0.59039 0.0
C3094 C 0.35477 0.59814 0.56905 0.0
C3095 C 0.33631 0.60856 0.55557 0.0
C3096 C 0.37395 0.59109 0.55567 0.0
C3097 C 0.33684 0.61115 0.52829 0.0
C3098 C 0.35556 0.60374 0.51471 0.0
C3099 C 0.39389 0.58749 0.51508 0.0
C3100 C 0.41351 0.57879 0.52901 0.0
C3101 C 0.37438 0.59396 0.52829 0.0
C3102 C 0.41269 0.57581 0.55621 0.0
C3103 C 0.39304 0.58174 0.56935 0.0
H3104 H 0.88848 0.97137 0.55243 0.0
H3105 H 0.92658 0.91903 0.5875 0.0
H3106 H 0.96859 0.94701 0.58397 0.0
H3107 H 0.99435 0.98609 0.5711 0.0
H3108 H 0.95662 0.03563 0.53015 0.0
H3109 H 0.91472 1.00928 0.53609 0.0
C3110 C 0.90603 0.96619 0.55936 0.0
C3111 C 0.90444 0.94327 0.57051 0.0
C3112 C 0.93017 0.98197 0.55637 0.0
C3113 C 0.92728 0.93653 0.5789 0.0
C3114 C 0.9513 0.95256 0.57692 0.0
C3115 C 0.97709 0.99133 0.5634 0.0
C3116 C 0.97904 1.01361 0.55094 0.0
C3117 C 0.95297 0.97531 0.56569 0.0
C3118 C 0.9561 0.01939 0.54075 0.0
C3119 C 0.93199 1.00406 0.54387 0.0
H3120 H 0.86084 0.05611 0.25255 0.0
H3121 H 0.92963 0.10039 0.3059 0.0
H3122 H 0.90704 0.13247 0.32059 0.0
H3123 H 0.86712 0.14722 0.31936 0.0
H3124 H 0.79796 0.10142 0.26773 0.0
H3125 H 0.82125 0.07068 0.25131 0.0
C3126 C 0.87099 0.07288 0.26724 0.0
C3127 C 0.89695 0.07589 0.27801 0.0
C3128 C 0.85772 0.09092 0.27601 0.0
C3129 C 0.90967 0.09759 0.29727 0.0
C3130 C 0.89675 0.11595 0.3057 0.0
C3131 C 0.85727 0.13059 0.30436 0.0
C3132 C 0.83087 0.12657 0.29476 0.0
C3133 C 0.8707 0.11271 0.29536 0.0
C3134 C 0.81822 0.1048 0.27557 0.0
C3135 C 0.83154 0.08727 0.26613 0.0
H3136 H 0.69497 0.14091 0.10982 0.0
H3137 H 0.72377 0.08401 0.06487 0.0
H3138 H 0.68293 0.05166 0.06305 0.0
H3139 H 0.63697 0.04207 0.0681 0.0
H3140 H 0.60867 0.0985 0.11433 0.0
H3141 H 0.65158 0.12862 0.12249 0.0
C3142 C 0.69241 0.12122 0.10027 0.0
C3143 C 0.71193 0.11469 0.08722 0.0
C3144 C 0.66908 0.10282 0.09956 0.0
C3145 C 0.7088 0.08925 0.07502 0.0
C3146 C 0.68549 0.07085 0.07389 0.0
C3147 C 0.6406 0.06062 0.08078 0.0
C3148 C 0.62007 0.06844 0.09044 0.0
C3149 C 0.66522 0.0777 0.08527 0.0
C3150 C 0.62448 0.09238 0.10674 0.0
C3151 C 0.64889 0.10958 0.11123 0.0
H3152 H 0.26876 0.51207 0.27521 0.0
H3153 H 0.19799 0.49486 0.30877 0.0
H3154 H 0.21057 0.46 0.32866 0.0
H3155 H 0.24158 0.43462 0.33681 0.0
H3156 H 0.31447 0.45441 0.30733 0.0
H3157 H 0.3008 0.48739 0.28497 0.0
C3158 C 0.2561 0.5006 0.28681 0.0
C3159 C 0.23246 0.50602 0.29046 0.0
C3160 C 0.26373 0.4809 0.29878 0.0
C3161 C 0.21634 0.49117 0.30575 0.0
C3162 C 0.22349 0.47118 0.31709 0.0
C3163 C 0.25476 0.44633 0.32589 0.0
C3164 C 0.27911 0.4418 0.32394 0.0
C3165 C 0.2472 0.46597 0.31389 0.0
C3166 C 0.29544 0.45692 0.30892 0.0
C3167 C 0.28774 0.47606 0.29629 0.0
H3168 H 0.27383 0.47431 0.07868 0.0
H3169 H 0.23799 0.39485 0.0449 0.0
H3170 H 0.19772 0.40574 0.03061 0.0
H3171 H 0.17291 0.43758 0.02723 0.0
H3172 H 0.21017 0.5182 0.05511 0.0
H3173 H 0.24909 0.50693 0.07319 0.0
C3174 C 0.25715 0.45942 0.06824 0.0
C3175 C 0.25889 0.43377 0.0629 0.0
C3176 C 0.23418 0.46597 0.05928 0.0
C3177 C 0.23722 0.41472 0.04913 0.0
C3178 C 0.21414 0.42093 0.04104 0.0
C3179 C 0.18956 0.45295 0.03672 0.0
C3180 C 0.18821 0.47887 0.03935 0.0
C3181 C 0.21246 0.44651 0.04581 0.0
C3182 C 0.21006 0.49805 0.05292 0.0
C3183 C 0.23261 0.49165 0.06305 0.0
H3184 H 0.87213 0.9605 0.29075 0.0
H3185 H 0.93275 0.92394 0.2758 0.0
H3186 H 0.90591 0.88283 0.28319 0.0
H3187 H 0.86529 0.85727 0.29298 0.0
H3188 H 0.80534 0.89359 0.31121 0.0
H3189 H 0.83186 0.93482 0.30341 0.0
C3190 C 0.87943 0.9435 0.28905 0.0
C3191 C 0.90441 0.94529 0.28245 0.0
C3192 C 0.86407 0.91994 0.29401 0.0
C3193 C 0.91369 0.92316 0.28079 0.0
C3194 C 0.89833 0.89962 0.28504 0.0
C3195 C 0.85801 0.87413 0.29577 0.0
C3196 C 0.83312 0.87195 0.3027 0.0
C3197 C 0.87353 0.8978 0.29167 0.0
C3198 C 0.82421 0.89434 0.30571 0.0
C3199 C 0.83943 0.91802 0.30126 0.0
H3200 H 0.77891 0.15386 0.77948 0.0
H3201 H 0.71137 0.1596 0.72858 0.0
H3202 H 0.73375 0.20272 0.72174 0.0
H3203 H 0.76973 0.24119 0.73633 0.0
H3204 H 0.83544 0.23763 0.79132 0.0
H3205 H 0.81717 0.19131 0.79014 0.0
C3206 C 0.76944 0.16442 0.76642 0.0
C3207 C 0.74358 0.15386 0.75468 0.0
C3208 C 0.78215 0.18963 0.76341 0.0
C3209 C 0.73126 0.16761 0.73795 0.0
C3210 C 0.74404 0.1922 0.73401 0.0
C3211 C 0.78034 0.22993 0.74723 0.0
C3212 C 0.80374 0.24238 0.76379 0.0
C3213 C 0.7691 0.20376 0.74746 0.0
C3214 C 0.81737 0.22811 0.77834 0.0
C3215 C 0.80683 0.20175 0.77782 0.0
loop_
_geom_bond_atom_site_label_1
_geom_bond_atom_site_label_2
_geom_bond_distance
_geom_bond_site_symmetry_2
_ccdc_geom_bond_type
O0 Cd1 2.223 . S
O0 C8 1.315 . S
Cd1 O0 2.223 . S
Cd1 O4 2.297 . S
Cd1 O5 2.439 . S
Cd1 O11 2.240 . S
Cd2 O3 2.240 . S
Cd2 O10 2.223 1_455 S
Cd2 O12 2.297 . S
Cd2 O13 2.439 . S
O3 Cd2 2.240 . S
O3 C8 1.279 . S
O4 Cd1 2.297 . S
O4 C6 1.247 . S
O5 Cd1 2.439 . S
O5 C6 1.208 . S
C6 O4 1.247 . S
C6 O5 1.208 . S
C7 O12 1.247 . S
C7 O13 1.208 . S
C8 O0 1.315 . S
C8 O3 1.279 . S
C9 O10 1.315 . S
C9 O11 1.279 1_655 S
O10 Cd2 2.223 1_655 S
O10 C9 1.315 . S
O11 Cd1 2.240 . S
O11 C9 1.279 1_455 S
O12 Cd2 2.297 . S
O12 C7 1.247 . S
O13 Cd2 2.439 . S
O13 C7 1.208 . S
O14 Cd15 2.223 . S
O14 C22 1.315 . S
Cd15 O14 2.223 . S
Cd15 O18 2.297 1_455 S
Cd15 O19 2.439 1_455 S
Cd15 O25 2.240 . S
Cd16 O17 2.240 . S
Cd16 O24 2.223 . S
Cd16 O26 2.297 . S
Cd16 O27 2.439 . S
O17 Cd16 2.240 . S
O17 C22 1.279 . S
O18 Cd15 2.297 1_655 S
O18 C20 1.247 . S
O19 Cd15 2.439 1_655 S
O19 C20 1.208 . S
C20 O18 1.247 . S
C20 O19 1.208 . S
C21 O26 1.247 . S
C21 O27 1.208 . S
C22 O14 1.315 . S
C22 O17 1.279 . S
C23 O24 1.315 . S
C23 O25 1.279 . S
O24 Cd16 2.223 . S
O24 C23 1.315 . S
O25 Cd15 2.240 . S
O25 C23 1.279 . S
O26 Cd16 2.297 . S
O26 C21 1.247 . S
O27 Cd16 2.439 . S
O27 C21 1.208 . S
O28 Cd29 2.223 . S
O28 C36 1.315 . S
Cd29 O28 2.223 . S
Cd29 O32 2.297 . S
Cd29 O33 2.439 . S
Cd29 O39 2.240 . S
Cd30 O31 2.240 . S
Cd30 O38 2.223 . S
Cd30 O40 2.297 . S
Cd30 O41 2.439 . S
O31 Cd30 2.240 . S
O31 C36 1.279 . S
O32 Cd29 2.297 . S
O32 C34 1.247 . S
O33 Cd29 2.439 . S
O33 C34 1.208 . S
C34 O32 1.247 . S
C34 O33 1.208 . S
C35 O40 1.247 . S
C35 O41 1.208 . S
C36 O28 1.315 . S
C36 O31 1.279 . S
C37 O38 1.315 . S
C37 O39 1.279 . S
O38 Cd30 2.223 . S
O38 C37 1.315 . S
O39 Cd29 2.240 . S
O39 C37 1.279 . S
O40 Cd30 2.297 . S
O40 C35 1.247 . S
O41 Cd30 2.439 . S
O41 C35 1.208 . S
O42 Cd43 2.223 . S
O42 C50 1.315 . S
Cd43 O42 2.223 . S
Cd43 O46 2.297 . S
Cd43 O47 2.439 . S
Cd43 O53 2.240 . S
Cd44 O45 2.240 . S
Cd44 O52 2.223 . S
Cd44 O54 2.297 . S
Cd44 O55 2.439 . S
O45 Cd44 2.240 . S
O45 C50 1.279 . S
O46 Cd43 2.297 . S
O46 C48 1.247 . S
O47 Cd43 2.439 . S
O47 C48 1.208 . S
C48 O46 1.247 . S
C48 O47 1.208 . S
C49 O54 1.247 . S
C49 O55 1.208 . S
C50 O42 1.315 . S
C50 O45 1.279 . S
C51 O52 1.315 . S
C51 O53 1.279 . S
O52 Cd44 2.223 . S
O52 C51 1.315 . S
O53 Cd43 2.240 . S
O53 C51 1.279 . S
O54 Cd44 2.297 . S
O54 C49 1.247 . S
O55 Cd44 2.439 . S
O55 C49 1.208 . S
O56 Cd57 2.223 . S
O56 C64 1.315 . S
Cd57 O56 2.223 . S
Cd57 O60 2.297 . S
Cd57 O61 2.439 . S
Cd57 O67 2.240 . S
Cd58 O59 2.240 . S
Cd58 O66 2.223 . S
Cd58 O68 2.297 . S
Cd58 O69 2.439 . S
O59 Cd58 2.240 . S
O59 C64 1.279 . S
O60 Cd57 2.297 . S
O60 C62 1.247 . S
O61 Cd57 2.439 . S
O61 C62 1.208 . S
C62 O60 1.247 . S
C62 O61 1.208 . S
C63 O68 1.247 . S
C63 O69 1.208 . S
C64 O56 1.315 . S
C64 O59 1.279 . S
C65 O66 1.315 . S
C65 O67 1.279 . S
O66 Cd58 2.223 . S
O66 C65 1.315 . S
O67 Cd57 2.240 . S
O67 C65 1.279 . S
O68 Cd58 2.297 . S
O68 C63 1.247 . S
O69 Cd58 2.439 . S
O69 C63 1.208 . S
O70 Cd71 2.223 . S
O70 C78 1.315 . S
Cd71 O70 2.223 . S
Cd71 O74 2.297 . S
Cd71 O75 2.439 . S
Cd71 O81 2.240 . S
Cd72 O73 2.240 . S
Cd72 O80 2.223 . S
Cd72 O82 2.297 . S
Cd72 O83 2.439 . S
O73 Cd72 2.240 . S
O73 C78 1.279 . S
O74 Cd71 2.297 . S
O74 C76 1.247 . S
O75 Cd71 2.439 . S
O75 C76 1.208 . S
C76 O74 1.247 . S
C76 O75 1.208 . S
C77 O82 1.247 . S
C77 O83 1.208 . S
C78 O70 1.315 . S
C78 O73 1.279 . S
C79 O80 1.315 . S
C79 O81 1.279 . S
O80 Cd72 2.223 . S
O80 C79 1.315 . S
O81 Cd71 2.240 . S
O81 C79 1.279 . S
O82 Cd72 2.297 . S
O82 C77 1.247 . S
O83 Cd72 2.439 . S
O83 C77 1.208 . S
O84 Cd85 2.223 . S
O84 C92 1.315 . S
Cd85 O84 2.223 . S
Cd85 O88 2.297 . S
Cd85 O89 2.439 . S
Cd85 O95 2.240 . S
Cd86 O87 2.240 . S
Cd86 O94 2.223 . S
Cd86 O96 2.297 . S
Cd86 O97 2.439 . S
O87 Cd86 2.240 . S
O87 C92 1.279 . S
O88 Cd85 2.297 . S
O88 C90 1.247 . S
O89 Cd85 2.439 . S
O89 C90 1.208 . S
C90 O88 1.247 . S
C90 O89 1.208 . S
C91 O96 1.247 . S
C91 O97 1.208 . S
C92 O84 1.315 . S
C92 O87 1.279 . S
C93 O94 1.315 . S
C93 O95 1.279 . S
O94 Cd86 2.223 . S
O94 C93 1.315 . S
O95 Cd85 2.240 . S
O95 C93 1.279 . S
O96 Cd86 2.297 . S
O96 C91 1.247 . S
O97 Cd86 2.439 . S
O97 C91 1.208 . S
O98 Cd99 2.223 1_655 S
O98 C106 1.315 . S
Cd99 O98 2.223 1_455 S
Cd99 O102 2.297 . S
Cd99 O103 2.439 . S
Cd99 O109 2.240 1_455 S
Cd100 O101 2.240 1_655 S
Cd100 O108 2.223 . S
Cd100 O110 2.297 1_556 S
Cd100 O111 2.439 1_655 S
O101 Cd100 2.240 1_455 S
O101 C106 1.279 1_455 S
O102 Cd99 2.297 . S
O102 C104 1.247 . S
O103 Cd99 2.439 . S
O103 C104 1.208 . S
C104 O102 1.247 . S
C104 O103 1.208 . S
C105 O110 1.247 1_456 S
C105 O111 1.208 . S
C106 O98 1.315 . S
C106 O101 1.279 1_655 S
C107 O108 1.315 . S
C107 O109 1.279 . S
O108 Cd100 2.223 . S
O108 C107 1.315 . S
O109 Cd99 2.240 1_655 S
O109 C107 1.279 . S
O110 Cd100 2.297 1_554 S
O110 C105 1.247 1_654 S
O111 Cd100 2.439 1_455 S
O111 C105 1.208 . S
O112 Cd113 2.217 1_565 S
O112 C120 1.315 1_565 S
Cd113 O112 2.217 1_545 S
Cd113 O116 2.297 . S
Cd113 O117 2.439 . S
Cd113 O123 2.240 1_545 S
Cd114 O115 2.240 . S
Cd114 O122 2.223 1_545 S
Cd114 O124 2.297 1_545 S
Cd114 O125 2.439 . S
O115 Cd114 2.240 . S
O115 C120 1.279 . S
O116 Cd113 2.297 . S
O116 C118 1.247 . S
O117 Cd113 2.439 . S
O117 C118 1.208 . S
C118 O116 1.247 . S
C118 O117 1.208 . S
C119 O124 1.247 1_545 S
C119 O125 1.208 . S
C120 O112 1.315 1_545 S
C120 O115 1.279 . S
C121 O122 1.315 . S
C121 O123 1.279 . S
O122 Cd114 2.223 1_565 S
O122 C121 1.315 . S
O123 Cd113 2.240 1_565 S
O123 C121 1.279 . S
O124 Cd114 2.297 1_565 S
O124 C119 1.247 1_565 S
O125 Cd114 2.439 . S
O125 C119 1.208 . S
O126 Cd127 2.223 . S
O126 C134 1.315 . S
Cd127 O126 2.223 . S
Cd127 O130 2.297 . S
Cd127 O131 2.439 . S
Cd127 O137 2.240 . S
Cd128 O129 2.240 . S
Cd128 O136 2.223 . S
Cd128 O138 2.297 . S
Cd128 O139 2.439 . S
O129 Cd128 2.240 . S
O129 C134 1.279 . S
O130 Cd127 2.297 . S
O130 C132 1.247 . S
O131 Cd127 2.439 . S
O131 C132 1.208 . S
C132 O130 1.247 . S
C132 O131 1.208 . S
C133 O138 1.247 . S
C133 O139 1.208 . S
C134 O126 1.315 . S
C134 O129 1.279 . S
C135 O136 1.315 . S
C135 O137 1.279 . S
O136 Cd128 2.223 . S
O136 C135 1.315 . S
O137 Cd127 2.240 . S
O137 C135 1.279 . S
O138 Cd128 2.297 . S
O138 C133 1.247 . S
O139 Cd128 2.439 . S
O139 C133 1.208 . S
O140 Cd141 2.223 . S
O140 C148 1.315 . S
Cd141 O140 2.223 . S
Cd141 O144 2.297 . S
Cd141 O145 2.439 . S
Cd141 O151 2.240 . S
Cd142 O143 2.240 . S
Cd142 O150 2.223 . S
Cd142 O152 2.297 . S
Cd142 O153 2.439 . S
O143 Cd142 2.240 . S
O143 C148 1.279 . S
O144 Cd141 2.297 . S
O144 C146 1.249 . S
O145 Cd141 2.439 . S
O145 C146 1.210 . S
C146 O144 1.249 . S
C146 O145 1.210 . S
C147 O152 1.247 . S
C147 O153 1.208 . S
C148 O140 1.315 . S
C148 O143 1.279 . S
C149 O150 1.315 . S
C149 O151 1.279 . S
O150 Cd142 2.223 . S
O150 C149 1.315 . S
O151 Cd141 2.240 . S
O151 C149 1.279 . S
O152 Cd142 2.297 . S
O152 C147 1.247 . S
O153 Cd142 2.439 . S
O153 C147 1.208 . S
O154 Cd155 2.223 . S
O154 C162 1.315 . S
Cd155 O154 2.223 . S
Cd155 O158 2.297 . S
Cd155 O159 2.439 1_554 S
Cd155 O165 2.240 1_554 S
Cd156 O157 2.240 1_556 S
Cd156 O164 2.223 1_556 S
Cd156 O166 2.297 . S
Cd156 O167 2.439 . S
O157 Cd156 2.240 1_554 S
O157 C162 1.279 . S
O158 Cd155 2.297 . S
O158 C160 1.247 . S
O159 Cd155 2.439 1_556 S
O159 C160 1.208 1_556 S
C160 O158 1.247 . S
C160 O159 1.208 1_554 S
C161 O166 1.247 . S
C161 O167 1.208 . S
C162 O154 1.315 . S
C162 O157 1.279 . S
C163 O164 1.315 . S
C163 O165 1.279 1_554 S
O164 Cd156 2.223 1_554 S
O164 C163 1.315 . S
O165 Cd155 2.240 1_556 S
O165 C163 1.279 1_556 S
O166 Cd156 2.297 . S
O166 C161 1.247 . S
O167 Cd156 2.439 . S
O167 C161 1.208 . S
O168 Cd169 2.223 . S
O168 C176 1.315 . S
Cd169 O168 2.223 . S
Cd169 O172 2.297 . S
Cd169 O173 2.439 . S
Cd169 O179 2.240 . S
Cd170 O171 2.240 . S
Cd170 O178 2.223 . S
Cd170 O180 2.297 . S
Cd170 O181 2.439 . S
O171 Cd170 2.240 . S
O171 C176 1.279 . S
O172 Cd169 2.297 . S
O172 C174 1.247 . S
O173 Cd169 2.439 . S
O173 C174 1.208 . S
C174 O172 1.247 . S
C174 O173 1.208 . S
C175 O180 1.247 1_556 S
C175 O181 1.208 1_556 S
C176 O168 1.315 . S
C176 O171 1.279 . S
C177 O178 1.315 . S
C177 O179 1.279 . S
O178 Cd170 2.223 . S
O178 C177 1.315 . S
O179 Cd169 2.240 . S
O179 C177 1.279 . S
O180 Cd170 2.297 . S
O180 C175 1.247 1_554 S
O181 Cd170 2.439 . S
O181 C175 1.208 1_554 S
O182 Cd183 2.223 . S
O182 C190 1.315 . S
Cd183 O182 2.223 . S
Cd183 O186 2.297 . S
Cd183 O187 2.439 . S
Cd183 O193 2.240 . S
Cd184 O185 2.240 . S
Cd184 O192 2.223 . S
Cd184 O194 2.297 . S
Cd184 O195 2.439 . S
O185 Cd184 2.240 . S
O185 C190 1.279 . S
O186 Cd183 2.297 . S
O186 C188 1.247 . S
O187 Cd183 2.439 . S
O187 C188 1.208 . S
C188 O186 1.247 . S
C188 O187 1.208 . S
C189 O194 1.247 . S
C189 O195 1.208 . S
C190 O182 1.315 . S
C190 O185 1.279 . S
C191 O192 1.315 . S
C191 O193 1.279 . S
O192 Cd184 2.223 . S
O192 C191 1.315 . S
O193 Cd183 2.240 . S
O193 C191 1.279 . S
O194 Cd184 2.297 . S
O194 C189 1.247 . S
O195 Cd184 2.439 . S
O195 C189 1.208 . S
O196 Cd197 2.223 . S
O196 C204 1.315 . S
Cd197 O196 2.223 . S
Cd197 O200 2.297 . S
Cd197 O201 2.439 . S
Cd197 O207 2.240 . S
Cd198 O199 2.240 . S
Cd198 O206 2.223 . S
Cd198 O208 2.297 . S
Cd198 O209 2.439 . S
O199 Cd198 2.240 . S
O199 C204 1.279 . S
O200 Cd197 2.297 . S
O200 C202 1.247 . S
O201 Cd197 2.439 . S
O201 C202 1.208 . S
C202 O200 1.247 . S
C202 O201 1.208 . S
C203 O208 1.247 . S
C203 O209 1.208 . S
C204 O196 1.315 . S
C204 O199 1.279 . S
C205 O206 1.315 . S
C205 O207 1.279 . S
O206 Cd198 2.223 . S
O206 C205 1.315 . S
O207 Cd197 2.240 . S
O207 C205 1.279 . S
O208 Cd198 2.297 . S
O208 C203 1.247 . S
O209 Cd198 2.439 . S
O209 C203 1.208 . S
O210 Cd211 2.223 . S
O210 C218 1.315 . S
Cd211 O210 2.223 . S
Cd211 O214 2.297 . S
Cd211 O215 2.439 . S
Cd211 O221 2.240 . S
Cd212 O213 2.240 . S
Cd212 O220 2.223 . S
Cd212 O222 2.297 . S
Cd212 O223 2.439 . S
O213 Cd212 2.240 . S
O213 C218 1.279 . S
O214 Cd211 2.297 . S
O214 C216 1.247 . S
O215 Cd211 2.439 . S
O215 C216 1.208 . S
C216 O214 1.247 . S
C216 O215 1.208 . S
C217 O222 1.247 . S
C217 O223 1.208 . S
C218 O210 1.315 . S
C218 O213 1.279 . S
C219 O220 1.315 . S
C219 O221 1.279 . S
O220 Cd212 2.223 . S
O220 C219 1.315 . S
O221 Cd211 2.240 . S
O221 C219 1.279 . S
O222 Cd212 2.297 . S
O222 C217 1.247 . S
O223 Cd212 2.439 . S
O223 C217 1.208 . S
O224 Cd225 2.223 . S
O224 C232 1.315 . S
Cd225 O224 2.223 . S
Cd225 O228 2.297 . S
Cd225 O229 2.439 . S
Cd225 O235 2.240 1_545 S
Cd226 O227 2.240 . S
Cd226 O234 2.223 1_545 S
Cd226 O236 2.297 1_545 S
Cd226 O237 2.439 . S
O227 Cd226 2.240 . S
O227 C232 1.279 . S
O228 Cd225 2.297 . S
O228 C230 1.247 . S
O229 Cd225 2.439 . S
O229 C230 1.208 . S
C230 O228 1.247 . S
C230 O229 1.208 . S
C231 O236 1.247 1_545 S
C231 O237 1.208 . S
C232 O224 1.315 . S
C232 O227 1.279 . S
C233 O234 1.315 . S
C233 O235 1.279 . S
O234 Cd226 2.223 1_565 S
O234 C233 1.315 . S
O235 Cd225 2.240 1_565 S
O235 C233 1.279 . S
O236 Cd226 2.297 1_565 S
O236 C231 1.247 1_565 S
O237 Cd226 2.439 . S
O237 C231 1.208 . S
O238 Cd239 2.223 . S
O238 C246 1.315 . S
Cd239 O238 2.223 . S
Cd239 O242 2.297 . S
Cd239 O243 2.439 . S
Cd239 O249 2.240 . S
Cd240 O241 2.240 . S
Cd240 O248 2.223 . S
Cd240 O250 2.297 . S
Cd240 O251 2.439 . S
O241 Cd240 2.240 . S
O241 C246 1.279 . S
O242 Cd239 2.297 . S
O242 C244 1.247 . S
O243 Cd239 2.439 . S
O243 C244 1.208 . S
C244 O242 1.247 . S
C244 O243 1.208 . S
C245 O250 1.247 . S
C245 O251 1.208 . S
C246 O238 1.315 . S
C246 O241 1.279 . S
C247 O248 1.315 . S
C247 O249 1.279 . S
O248 Cd240 2.223 . S
O248 C247 1.315 . S
O249 Cd239 2.240 . S
O249 C247 1.279 . S
O250 Cd240 2.297 . S
O250 C245 1.247 . S
O251 Cd240 2.439 . S
O251 C245 1.208 . S
O252 Cd253 2.223 . S
O252 C260 1.315 . S
Cd253 O252 2.223 . S
Cd253 O256 2.297 . S
Cd253 O257 2.439 . S
Cd253 O263 2.240 . S
Cd254 O255 2.240 . S
Cd254 O262 2.223 . S
Cd254 O264 2.297 . S
Cd254 O265 2.439 . S
O255 Cd254 2.240 . S
O255 C260 1.279 . S
O256 Cd253 2.297 . S
O256 C258 1.247 . S
O257 Cd253 2.439 . S
O257 C258 1.208 . S
C258 O256 1.247 . S
C258 O257 1.208 . S
C259 O264 1.247 . S
C259 O265 1.208 . S
C260 O252 1.315 . S
C260 O255 1.279 . S
C261 O262 1.315 . S
C261 O263 1.279 . S
O262 Cd254 2.223 . S
O262 C261 1.315 . S
O263 Cd253 2.240 . S
O263 C261 1.279 . S
O264 Cd254 2.297 . S
O264 C259 1.247 . S
O265 Cd254 2.439 . S
O265 C259 1.208 . S
O266 Cd267 2.223 . S
O266 C274 1.315 . S
Cd267 O266 2.223 . S
Cd267 O270 2.297 . S
Cd267 O271 2.439 . S
Cd267 O277 2.240 . S
Cd268 O269 2.240 . S
Cd268 O276 2.223 . S
Cd268 O278 2.297 . S
Cd268 O279 2.439 . S
O269 Cd268 2.240 . S
O269 C274 1.279 . S
O270 Cd267 2.297 . S
O270 C272 1.247 . S
O271 Cd267 2.439 . S
O271 C272 1.208 . S
C272 O270 1.247 . S
C272 O271 1.208 . S
C273 O278 1.247 . S
C273 O279 1.208 . S
C274 O266 1.315 . S
C274 O269 1.279 . S
C275 O276 1.315 . S
C275 O277 1.279 . S
O276 Cd268 2.223 . S
O276 C275 1.315 . S
O277 Cd267 2.240 . S
O277 C275 1.279 . S
O278 Cd268 2.297 . S
O278 C273 1.247 . S
O279 Cd268 2.439 . S
O279 C273 1.208 . S
O280 Cd281 2.223 . S
O280 C288 1.315 . S
Cd281 O280 2.223 . S
Cd281 O284 2.297 . S
Cd281 O285 2.439 . S
Cd281 O291 2.240 . S
Cd282 O283 2.240 . S
Cd282 O290 2.223 . S
Cd282 O292 2.297 1_554 S
Cd282 O293 2.439 1_554 S
O283 Cd282 2.240 . S
O283 C288 1.279 . S
O284 Cd281 2.297 . S
O284 C286 1.247 . S
O285 Cd281 2.439 . S
O285 C286 1.208 . S
C286 O284 1.247 . S
C286 O285 1.208 . S
C287 O292 1.247 . S
C287 O293 1.208 . S
C288 O280 1.315 . S
C288 O283 1.279 . S
C289 O290 1.315 . S
C289 O291 1.279 . S
O290 Cd282 2.223 . S
O290 C289 1.315 . S
O291 Cd281 2.240 . S
O291 C289 1.279 . S
O292 Cd282 2.297 1_556 S
O292 C287 1.247 . S
O293 Cd282 2.439 1_556 S
O293 C287 1.208 . S
O294 Cd295 2.223 . S
O294 C302 1.315 . S
Cd295 O294 2.223 . S
Cd295 O298 2.297 . S
Cd295 O299 2.439 . S
Cd295 O305 2.240 . S
Cd296 O297 2.240 . S
Cd296 O304 2.223 . S
Cd296 O306 2.297 . S
Cd296 O307 2.439 . S
O297 Cd296 2.240 . S
O297 C302 1.279 . S
O298 Cd295 2.297 . S
O298 C300 1.247 . S
O299 Cd295 2.439 . S
O299 C300 1.208 . S
C300 O298 1.247 . S
C300 O299 1.208 . S
C301 O306 1.247 . S
C301 O307 1.208 . S
C302 O294 1.315 . S
C302 O297 1.279 . S
C303 O304 1.315 . S
C303 O305 1.279 . S
O304 Cd296 2.223 . S
O304 C303 1.315 . S
O305 Cd295 2.240 . S
O305 C303 1.279 . S
O306 Cd296 2.297 . S
O306 C301 1.247 . S
O307 Cd296 2.439 . S
O307 C301 1.208 . S
O308 Cd309 2.223 . S
O308 C316 1.315 . S
Cd309 O308 2.223 . S
Cd309 O312 2.297 . S
Cd309 O313 2.439 . S
Cd309 O319 2.240 . S
Cd310 O311 2.240 . S
Cd310 O318 2.223 . S
Cd310 O320 2.297 . S
Cd310 O321 2.439 . S
O311 Cd310 2.240 . S
O311 C316 1.279 . S
O312 Cd309 2.297 . S
O312 C314 1.247 . S
O313 Cd309 2.439 . S
O313 C314 1.208 . S
C314 O312 1.247 . S
C314 O313 1.208 . S
C315 O320 1.247 . S
C315 O321 1.208 . S
C316 O308 1.315 . S
C316 O311 1.279 . S
C317 O318 1.315 . S
C317 O319 1.279 . S
O318 Cd310 2.223 . S
O318 C317 1.315 . S
O319 Cd309 2.240 . S
O319 C317 1.279 . S
O320 Cd310 2.297 . S
O320 C315 1.247 . S
O321 Cd310 2.439 . S
O321 C315 1.208 . S
O322 Cd323 2.223 . S
O322 C330 1.315 . S
Cd323 O322 2.223 . S
Cd323 O326 2.297 . S
Cd323 O327 2.439 . S
Cd323 O333 2.240 . S
Cd324 O325 2.240 . S
Cd324 O332 2.223 . S
Cd324 O334 2.297 . S
Cd324 O335 2.439 . S
O325 Cd324 2.240 . S
O325 C330 1.279 . S
O326 Cd323 2.297 . S
O326 C328 1.247 . S
O327 Cd323 2.439 . S
O327 C328 1.208 . S
C328 O326 1.247 . S
C328 O327 1.208 . S
C329 O334 1.247 . S
C329 O335 1.208 . S
C330 O322 1.315 . S
C330 O325 1.279 . S
C331 O332 1.315 . S
C331 O333 1.279 . S
O332 Cd324 2.223 . S
O332 C331 1.315 . S
O333 Cd323 2.240 . S
O333 C331 1.279 . S
O334 Cd324 2.297 . S
O334 C329 1.247 . S
O335 Cd324 2.439 . S
O335 C329 1.208 . S
Tb336 N365 2.617 . S
Tb336 N371 2.572 . S
Tb336 O380 2.465 . S
Tb336 O381 2.387 . S
Tb336 O383 2.428 . S
Tb336 O384 2.308 . S
Tb336 O388 2.349 . S
Tb336 O391 2.393 . S
Tb336 C400 2.802 . S
C337 N338 1.377 1_554 S
C337 C340 1.412 1_554 S
C337 C344 1.429 . S
N338 C337 1.377 1_556 S
N338 C341 1.334 . S
N338 Tb347 2.617 1_566 S
C339 C341 1.390 . S
C339 C342 1.339 . S
C339 H359 0.930 . S
C340 C337 1.412 1_556 S
C340 C342 1.416 . S
C340 C346 1.448 . S
C341 N338 1.334 . S
C341 C339 1.390 . S
C341 H352 0.930 1_565 S
C342 C339 1.339 . S
C342 C340 1.416 . S
C342 H363 0.930 . S
C343 C344 1.413 . S
C343 C345 1.427 . S
C343 C349 1.416 . S
C344 C337 1.429 . S
C344 C343 1.413 . S
C344 N348 1.361 . S
C345 C343 1.427 . S
C345 C346 1.328 1_554 S
C345 H360 0.929 . S
C346 C340 1.448 . S
C346 C345 1.328 1_556 S
C346 H361 0.930 . S
Tb347 N338 2.617 1_544 S
Tb347 N348 2.572 1_545 S
Tb347 O382 2.349 1_655 S
Tb347 O385 2.366 1_654 S
Tb347 O386 2.465 . S
Tb347 O387 2.360 1_645 S
Tb347 O389 2.428 . S
Tb347 O390 2.308 1_655 S
Tb347 C411 2.802 . S
N348 C344 1.361 . S
N348 Tb347 2.572 1_565 S
N348 C350 1.340 . S
C349 C343 1.416 . S
C349 C351 1.332 . S
C349 H357 0.931 . S
C350 N348 1.340 . S
C350 C351 1.407 . S
C350 H356 0.930 1_565 S
C351 C349 1.332 . S
C351 C350 1.407 . S
C351 H353 0.929 . S
H352 C341 0.930 1_545 S
H353 C351 0.929 . S
H354 C369 0.930 . S
H355 C376 0.929 . S
H356 C350 0.930 1_545 S
H357 C349 0.931 . S
H358 C372 0.930 . S
H359 C339 0.930 . S
H360 C345 0.929 . S
H361 C346 0.930 . S
H362 C367 0.930 . S
H363 C342 0.930 . S
H364 C375 0.931 . S
N365 Tb336 2.617 . S
N365 C366 1.379 . S
N365 C369 1.334 . S
C366 N365 1.379 . S
C366 C368 1.416 . S
C366 C374 1.424 . S
C367 H362 0.930 . S
C367 C369 1.390 . S
C367 C370 1.339 . S
C368 C366 1.416 . S
C368 C370 1.416 . S
C368 C401 1.448 . S
C369 H354 0.930 . S
C369 N365 1.334 . S
C369 C367 1.390 . S
C370 C367 1.339 . S
C370 C368 1.416 . S
C370 H377 0.930 . S
N371 Tb336 2.572 . S
N371 C372 1.340 . S
N371 C374 1.361 . S
C372 H358 0.930 . S
C372 N371 1.340 . S
C372 C376 1.407 . S
C373 C374 1.413 . S
C373 C375 1.416 . S
C373 C402 1.427 . S
C374 C366 1.424 . S
C374 N371 1.361 . S
C374 C373 1.413 . S
C375 H364 0.931 . S
C375 C373 1.416 . S
C375 C376 1.332 . S
C376 H355 0.929 . S
C376 C372 1.407 . S
C376 C375 1.332 . S
H377 C370 0.930 . S
H378 C401 0.930 . S
H379 C402 0.929 . S
O380 Tb336 2.465 . S
O380 C400 1.264 . S
O381 Tb336 2.387 . S
O381 C392 1.264 . S
O382 Tb347 2.349 1_455 S
O382 C392 1.243 . S
O383 Tb336 2.428 . S
O383 C400 1.256 . S
O384 Tb336 2.308 . S
O384 C399 1.266 . S
O385 Tb347 2.366 1_456 S
O385 C399 1.246 1_556 S
O386 Tb347 2.465 . S
O386 C411 1.264 . S
O387 Tb347 2.360 1_465 S
O387 C403 1.275 . S
O388 Tb336 2.349 . S
O388 C403 1.243 1_545 S
O389 Tb347 2.428 . S
O389 C411 1.256 . S
O390 Tb347 2.308 1_455 S
O390 C410 1.266 . S
O391 Tb336 2.393 . S
O391 C410 1.248 . S
C392 O381 1.264 . S
C392 O382 1.243 . S
C393 C396 1.399 . S
C393 C398 1.383 . S
C393 C400 1.496 . S
C394 C395 1.399 . S
C394 C398 1.389 . S
C395 C394 1.399 . S
C395 C397 1.380 . S
C395 H412 0.929 . S
C396 C393 1.399 . S
C396 C397 1.392 . S
C396 H413 0.929 . S
C397 C395 1.380 . S
C397 C396 1.392 . S
C397 H414 0.929 . S
C398 C393 1.383 . S
C398 C394 1.389 . S
C398 H415 0.931 . S
C399 O384 1.266 . S
C399 O385 1.246 1_554 S
C400 Tb336 2.802 . S
C400 O380 1.264 . S
C400 O383 1.256 . S
C400 C393 1.496 . S
C401 C368 1.448 . S
C401 H378 0.930 . S
C401 C402 1.328 . S
C402 C373 1.427 . S
C402 H379 0.929 . S
C402 C401 1.328 . S
C403 O387 1.275 . S
C403 O388 1.243 1_565 S
C404 C407 1.399 1_554 S
C404 C408 1.383 . S
C404 C411 1.496 . S
C405 C406 1.399 . S
C405 C408 1.389 . S
C406 C405 1.399 . S
C406 C409 1.380 1_554 S
C406 H416 0.929 . S
C407 C404 1.399 1_556 S
C407 C409 1.392 . S
C407 H417 0.929 . S
C408 C404 1.383 . S
C408 C405 1.389 . S
C408 H418 0.931 . S
C409 C406 1.380 1_556 S
C409 C407 1.392 . S
C409 H419 0.929 . S
C410 O390 1.266 . S
C410 O391 1.248 . S
C411 Tb347 2.802 . S
C411 O386 1.264 . S
C411 O389 1.256 . S
C411 C404 1.496 . S
H412 C395 0.929 . S
H413 C396 0.929 . S
H414 C397 0.929 . S
H415 C398 0.931 . S
H416 C406 0.929 . S
H417 C407 0.929 . S
H418 C408 0.931 . S
H419 C409 0.929 . S
Tb420 N449 2.617 . S
Tb420 N455 2.572 . S
Tb420 O464 2.465 . S
Tb420 O465 2.387 . S
Tb420 O467 2.428 . S
Tb420 O468 2.308 . S
Tb420 O472 2.349 . S
Tb420 O475 2.393 . S
Tb420 C484 2.802 . S
C421 N422 1.379 . S
C421 C424 1.416 . S
C421 C428 1.424 . S
N422 C421 1.379 . S
N422 C425 1.334 . S
N422 Tb431 2.617 . S
C423 C425 1.390 . S
C423 C426 1.339 . S
C423 H443 0.930 . S
C424 C421 1.416 . S
C424 C426 1.416 . S
C424 C430 1.448 . S
C425 N422 1.334 . S
C425 C423 1.390 . S
C425 H436 0.930 . S
C426 C423 1.339 . S
C426 C424 1.416 . S
C426 H447 0.930 . S
C427 C428 1.413 . S
C427 C429 1.427 . S
C427 C433 1.416 . S
C428 C421 1.424 . S
C428 C427 1.413 . S
C428 N432 1.361 . S
C429 C427 1.427 . S
C429 C430 1.328 . S
C429 H444 0.929 . S
C430 C424 1.448 . S
C430 C429 1.328 . S
C430 H445 0.930 . S
Tb431 N422 2.617 . S
Tb431 N432 2.572 . S
Tb431 O466 2.349 . S
Tb431 O469 2.393 . S
Tb431 O470 2.465 . S
Tb431 O471 2.387 . S
Tb431 O473 2.428 . S
Tb431 O474 2.308 . S
Tb431 C495 2.802 . S
N432 C428 1.361 . S
N432 Tb431 2.572 . S
N432 C434 1.340 . S
C433 C427 1.416 . S
C433 C435 1.332 . S
C433 H441 0.931 . S
C434 N432 1.340 . S
C434 C435 1.407 . S
C434 H440 0.930 . S
C435 C433 1.332 . S
C435 C434 1.407 . S
C435 H437 0.929 . S
H436 C425 0.930 . S
H437 C435 0.929 . S
H438 C453 0.930 . S
H439 C460 0.929 . S
H440 C434 0.930 . S
H441 C433 0.931 . S
H442 C456 0.930 . S
H443 C423 0.930 . S
H444 C429 0.929 . S
H445 C430 0.930 . S
H446 C451 0.930 . S
H447 C426 0.930 . S
H448 C459 0.931 . S
N449 Tb420 2.617 . S
N449 C450 1.379 . S
N449 C453 1.334 . S
C450 N449 1.379 . S
C450 C452 1.416 . S
C450 C458 1.424 . S
C451 H446 0.930 . S
C451 C453 1.390 . S
C451 C454 1.339 . S
C452 C450 1.416 . S
C452 C454 1.416 . S
C452 C485 1.448 . S
C453 H438 0.930 . S
C453 N449 1.334 . S
C453 C451 1.390 . S
C454 C451 1.339 . S
C454 C452 1.416 . S
C454 H461 0.930 . S
N455 Tb420 2.572 . S
N455 C456 1.340 . S
N455 C458 1.361 . S
C456 H442 0.930 . S
C456 N455 1.340 . S
C456 C460 1.407 . S
C457 C458 1.413 . S
C457 C459 1.416 . S
C457 C486 1.427 . S
C458 C450 1.424 . S
C458 N455 1.361 . S
C458 C457 1.413 . S
C459 H448 0.931 . S
C459 C457 1.416 . S
C459 C460 1.332 . S
C460 H439 0.929 . S
C460 C456 1.407 . S
C460 C459 1.332 . S
H461 C454 0.930 . S
H462 C485 0.930 . S
H463 C486 0.929 . S
O464 Tb420 2.465 . S
O464 C484 1.264 . S
O465 Tb420 2.387 . S
O465 C476 1.264 . S
O466 Tb431 2.349 . S
O466 C476 1.243 . S
O467 Tb420 2.428 . S
O467 C484 1.256 . S
O468 Tb420 2.308 . S
O468 C483 1.266 . S
O469 Tb431 2.393 . S
O469 C483 1.248 . S
O470 Tb431 2.465 . S
O470 C495 1.264 . S
O471 Tb431 2.387 . S
O471 C487 1.264 . S
O472 Tb420 2.349 . S
O472 C487 1.243 . S
O473 Tb431 2.428 . S
O473 C495 1.256 . S
O474 Tb431 2.308 . S
O474 C494 1.266 . S
O475 Tb420 2.393 . S
O475 C494 1.248 . S
C476 O465 1.264 . S
C476 O466 1.243 . S
C477 C480 1.399 . S
C477 C482 1.383 . S
C477 C484 1.496 . S
C478 C479 1.399 . S
C478 C482 1.389 . S
C479 C478 1.399 . S
C479 C481 1.380 . S
C479 H496 0.929 . S
C480 C477 1.399 . S
C480 C481 1.392 . S
C480 H497 0.929 . S
C481 C479 1.380 . S
C481 C480 1.392 . S
C481 H498 0.929 . S
C482 C477 1.383 . S
C482 C478 1.389 . S
C482 H499 0.931 . S
C483 O468 1.266 . S
C483 O469 1.248 . S
C484 Tb420 2.802 . S
C484 O464 1.264 . S
C484 O467 1.256 . S
C484 C477 1.496 . S
C485 C452 1.448 . S
C485 H462 0.930 . S
C485 C486 1.328 . S
C486 C457 1.427 . S
C486 H463 0.929 . S
C486 C485 1.328 . S
C487 O471 1.264 . S
C487 O472 1.243 . S
C488 C491 1.399 . S
C488 C492 1.383 . S
C488 C495 1.496 . S
C489 C490 1.399 . S
C489 C492 1.389 . S
C490 C489 1.399 . S
C490 C493 1.380 . S
C490 H500 0.929 . S
C491 C488 1.399 . S
C491 C493 1.392 . S
C491 H501 0.929 . S
C492 C488 1.383 . S
C492 C489 1.389 . S
C492 H502 0.931 . S
C493 C490 1.380 . S
C493 C491 1.392 . S
C493 H503 0.929 . S
C494 O474 1.266 . S
C494 O475 1.248 . S
C495 Tb431 2.802 . S
C495 O470 1.264 . S
C495 O473 1.256 . S
C495 C488 1.496 . S
H496 C479 0.929 . S
H497 C480 0.929 . S
H498 C481 0.929 . S
H499 C482 0.931 . S
H500 C490 0.929 . S
H501 C491 0.929 . S
H502 C492 0.931 . S
H503 C493 0.929 . S
Tb504 N533 2.617 . S
Tb504 N539 2.572 1_545 S
Tb504 O548 2.465 . S
Tb504 O549 2.387 1_545 S
Tb504 O551 2.428 . S
Tb504 O552 2.308 . S
Tb504 O556 2.349 . S
Tb504 O559 2.393 . S
Tb504 C568 2.802 . S
C505 N506 1.379 . S
C505 C508 1.416 . S
C505 C512 1.424 . S
N506 C505 1.379 . S
N506 C509 1.334 . S
N506 Tb515 2.617 . S
C507 C509 1.390 . S
C507 C510 1.339 . S
C507 H527 0.930 . S
C508 C505 1.416 . S
C508 C510 1.416 . S
C508 C514 1.448 . S
C509 N506 1.334 . S
C509 C507 1.390 . S
C509 H520 0.930 . S
C510 C507 1.339 . S
C510 C508 1.416 . S
C510 H531 0.930 . S
C511 C512 1.413 . S
C511 C513 1.427 . S
C511 C517 1.416 . S
C512 C505 1.424 . S
C512 C511 1.413 . S
C512 N516 1.361 . S
C513 C511 1.427 . S
C513 C514 1.328 . S
C513 H528 0.929 . S
C514 C508 1.448 . S
C514 C513 1.328 . S
C514 H529 0.930 . S
Tb515 N506 2.617 . S
Tb515 N516 2.572 . S
Tb515 O550 2.349 1_545 S
Tb515 O553 2.393 . S
Tb515 O554 2.465 . S
Tb515 O555 2.387 . S
Tb515 O557 2.428 . S
Tb515 O558 2.308 . S
Tb515 C579 2.802 . S
N516 C512 1.361 . S
N516 Tb515 2.572 . S
N516 C518 1.340 . S
C517 C511 1.416 . S
C517 C519 1.332 . S
C517 H525 0.931 . S
C518 N516 1.340 . S
C518 C519 1.407 . S
C518 H524 0.930 . S
C519 C517 1.332 . S
C519 C518 1.407 . S
C519 H521 0.929 . S
H520 C509 0.930 . S
H521 C519 0.929 . S
H522 C537 0.930 . S
H523 C544 0.929 . S
H524 C518 0.930 . S
H525 C517 0.931 . S
H526 C540 0.946 . S
H527 C507 0.930 . S
H528 C513 0.929 . S
H529 C514 0.930 . S
H530 C535 0.930 . S
H531 C510 0.930 . S
H532 C543 0.931 . S
N533 Tb504 2.617 . S
N533 C534 1.379 1_545 S
N533 C537 1.334 . S
C534 N533 1.379 1_565 S
C534 C536 1.416 . S
C534 C542 1.424 . S
C535 H530 0.930 . S
C535 C537 1.390 1_565 S
C535 C538 1.339 . S
C536 C534 1.416 . S
C536 C538 1.416 . S
C536 C569 1.448 . S
C537 H522 0.930 . S
C537 N533 1.334 . S
C537 C535 1.390 1_545 S
C538 C535 1.339 . S
C538 C536 1.416 . S
C538 H545 0.930 . S
N539 Tb504 2.572 1_565 S
N539 C540 1.340 . S
N539 C542 1.361 . S
C540 H526 0.946 . S
C540 N539 1.340 . S
C540 C544 1.407 . S
C541 C542 1.413 . S
C541 C543 1.416 . S
C541 C570 1.427 . S
C542 C534 1.424 . S
C542 N539 1.361 . S
C542 C541 1.413 . S
C543 H532 0.931 . S
C543 C541 1.416 . S
C543 C544 1.332 . S
C544 H523 0.929 . S
C544 C540 1.407 . S
C544 C543 1.332 . S
H545 C538 0.930 . S
H546 C569 0.930 . S
H547 C570 0.929 . S
O548 Tb504 2.465 . S
O548 C568 1.264 . S
O549 Tb504 2.387 1_565 S
O549 C560 1.264 . S
O550 Tb515 2.349 1_565 S
O550 C560 1.243 . S
O551 Tb504 2.428 . S
O551 C568 1.256 . S
O552 Tb504 2.308 . S
O552 C567 1.266 . S
O553 Tb515 2.393 . S
O553 C567 1.248 . S
O554 Tb515 2.465 . S
O554 C579 1.264 . S
O555 Tb515 2.387 . S
O555 C571 1.264 . S
O556 Tb504 2.349 . S
O556 C571 1.243 . S
O557 Tb515 2.428 . S
O557 C579 1.256 . S
O558 Tb515 2.308 . S
O558 C578 1.266 . S
O559 Tb504 2.393 . S
O559 C578 1.248 . S
C560 O549 1.264 . S
C560 O550 1.243 . S
C561 C564 1.399 . S
C561 C566 1.383 . S
C561 C568 1.496 . S
C562 C563 1.399 . S
C562 C566 1.389 . S
C563 C562 1.399 . S
C563 C565 1.380 . S
C563 H580 0.929 . S
C564 C561 1.399 . S
C564 C565 1.392 . S
C564 H581 0.929 . S
C565 C563 1.380 . S
C565 C564 1.392 . S
C565 H582 0.929 . S
C566 C561 1.383 . S
C566 C562 1.389 . S
C566 H583 0.931 . S
C567 O552 1.266 . S
C567 O553 1.248 . S
C568 Tb504 2.802 . S
C568 O548 1.264 . S
C568 O551 1.256 . S
C568 C561 1.496 . S
C569 C536 1.448 . S
C569 H546 0.930 . S
C569 C570 1.328 . S
C570 C541 1.427 . S
C570 H547 0.929 . S
C570 C569 1.328 . S
C571 O555 1.264 . S
C571 O556 1.243 . S
C572 C575 1.399 1_545 S
C572 C576 1.383 1_545 S
C572 C579 1.496 . S
C573 C574 1.399 . S
C573 C576 1.389 . S
C574 C573 1.399 . S
C574 C577 1.380 . S
C574 H584 0.929 . S
C575 C572 1.399 1_565 S
C575 C577 1.392 . S
C575 H585 0.949 . S
C576 C572 1.383 1_565 S
C576 C573 1.389 . S
C576 H586 0.930 . S
C577 C574 1.380 . S
C577 C575 1.392 . S
C577 H587 0.929 . S
C578 O558 1.266 . S
C578 O559 1.248 . S
C579 Tb515 2.802 . S
C579 O554 1.264 . S
C579 O557 1.256 . S
C579 C572 1.496 . S
H580 C563 0.929 . S
H581 C564 0.929 . S
H582 C565 0.929 . S
H583 C566 0.931 . S
H584 C574 0.929 . S
H585 C575 0.949 . S
H586 C576 0.930 . S
H587 C577 0.929 . S
Tb588 N617 2.617 . S
Tb588 N623 2.572 . S
Tb588 O632 2.465 . S
Tb588 O633 2.387 . S
Tb588 O635 2.428 . S
Tb588 O636 2.308 . S
Tb588 O640 2.349 . S
Tb588 O643 2.393 . S
Tb588 C652 2.802 . S
C589 N590 1.379 . S
C589 C592 1.416 . S
C589 C596 1.424 . S
N590 C589 1.379 . S
N590 C593 1.334 . S
N590 Tb599 2.617 . S
C591 C593 1.390 . S
C591 C594 1.339 . S
C591 H611 0.930 . S
C592 C589 1.416 . S
C592 C594 1.416 . S
C592 C598 1.448 . S
C593 N590 1.334 . S
C593 C591 1.390 . S
C593 H604 0.930 . S
C594 C591 1.339 . S
C594 C592 1.416 . S
C594 H615 0.930 . S
C595 C596 1.413 . S
C595 C597 1.427 . S
C595 C601 1.416 . S
C596 C589 1.424 . S
C596 C595 1.413 . S
C596 N600 1.361 . S
C597 C595 1.427 . S
C597 C598 1.328 . S
C597 H612 0.929 . S
C598 C592 1.448 . S
C598 C597 1.328 . S
C598 H613 0.930 . S
Tb599 N590 2.617 . S
Tb599 N600 2.572 . S
Tb599 O634 2.349 . S
Tb599 O637 2.393 . S
Tb599 O638 2.465 . S
Tb599 O639 2.387 . S
Tb599 O641 2.428 . S
Tb599 O642 2.308 . S
Tb599 C663 2.802 . S
N600 C596 1.361 . S
N600 Tb599 2.572 . S
N600 C602 1.340 . S
C601 C595 1.416 . S
C601 C603 1.332 . S
C601 H609 0.931 . S
C602 N600 1.340 . S
C602 C603 1.407 . S
C602 H608 0.930 . S
C603 C601 1.332 . S
C603 C602 1.407 . S
C603 H605 0.929 . S
H604 C593 0.930 . S
H605 C603 0.929 . S
H606 C621 0.930 . S
H607 C628 0.929 . S
H608 C602 0.930 . S
H609 C601 0.931 . S
H610 C624 0.930 . S
H611 C591 0.930 . S
H612 C597 0.929 . S
H613 C598 0.930 . S
H614 C619 0.930 . S
H615 C594 0.930 . S
H616 C627 0.931 . S
N617 Tb588 2.617 . S
N617 C618 1.379 . S
N617 C621 1.334 . S
C618 N617 1.379 . S
C618 C620 1.416 . S
C618 C626 1.424 . S
C619 H614 0.930 . S
C619 C621 1.390 . S
C619 C622 1.339 . S
C620 C618 1.416 . S
C620 C622 1.416 . S
C620 C653 1.448 . S
C621 H606 0.930 . S
C621 N617 1.334 . S
C621 C619 1.390 . S
C622 C619 1.339 . S
C622 C620 1.416 . S
C622 H629 0.930 . S
N623 Tb588 2.572 . S
N623 C624 1.340 . S
N623 C626 1.361 . S
C624 H610 0.930 . S
C624 N623 1.340 . S
C624 C628 1.407 . S
C625 C626 1.413 . S
C625 C627 1.416 . S
C625 C654 1.427 . S
C626 C618 1.424 . S
C626 N623 1.361 . S
C626 C625 1.413 . S
C627 H616 0.931 . S
C627 C625 1.416 . S
C627 C628 1.332 . S
C628 H607 0.929 . S
C628 C624 1.407 . S
C628 C627 1.332 . S
H629 C622 0.930 . S
H630 C653 0.930 . S
H631 C654 0.929 . S
O632 Tb588 2.465 . S
O632 C652 1.264 . S
O633 Tb588 2.387 . S
O633 C644 1.264 . S
O634 Tb599 2.349 . S
O634 C644 1.243 . S
O635 Tb588 2.428 . S
O635 C652 1.256 . S
O636 Tb588 2.308 . S
O636 C651 1.266 . S
O637 Tb599 2.393 . S
O637 C651 1.248 . S
O638 Tb599 2.465 . S
O638 C663 1.264 . S
O639 Tb599 2.387 . S
O639 C655 1.264 . S
O640 Tb588 2.349 . S
O640 C655 1.243 . S
O641 Tb599 2.428 . S
O641 C663 1.256 . S
O642 Tb599 2.308 . S
O642 C662 1.266 . S
O643 Tb588 2.393 . S
O643 C662 1.248 . S
C644 O633 1.264 . S
C644 O634 1.243 . S
C645 C648 1.399 . S
C645 C650 1.383 . S
C645 C652 1.496 . S
C646 C647 1.399 . S
C646 C650 1.389 . S
C647 C646 1.399 . S
C647 C649 1.380 . S
C647 H664 0.929 . S
C648 C645 1.399 . S
C648 C649 1.392 . S
C648 H665 0.929 . S
C649 C647 1.380 . S
C649 C648 1.392 . S
C649 H666 0.929 . S
C650 C645 1.383 . S
C650 C646 1.389 . S
C650 H667 0.931 . S
C651 O636 1.266 . S
C651 O637 1.248 . S
C652 Tb588 2.802 . S
C652 O632 1.264 . S
C652 O635 1.256 . S
C652 C645 1.496 . S
C653 C620 1.448 . S
C653 H630 0.930 . S
C653 C654 1.328 . S
C654 C625 1.427 . S
C654 H631 0.929 . S
C654 C653 1.328 . S
C655 O639 1.264 . S
C655 O640 1.243 . S
C656 C659 1.399 . S
C656 C660 1.383 . S
C656 C663 1.496 . S
C657 C658 1.399 . S
C657 C660 1.389 . S
C658 C657 1.399 . S
C658 C661 1.380 . S
C658 H668 0.929 . S
C659 C656 1.399 . S
C659 C661 1.392 . S
C659 H669 0.929 . S
C660 C656 1.383 . S
C660 C657 1.389 . S
C660 H670 0.931 . S
C661 C658 1.380 . S
C661 C659 1.392 . S
C661 H671 0.929 . S
C662 O642 1.266 . S
C662 O643 1.248 . S
C663 Tb599 2.802 . S
C663 O638 1.264 . S
C663 O641 1.256 . S
C663 C656 1.496 . S
H664 C647 0.929 . S
H665 C648 0.929 . S
H666 C649 0.929 . S
H667 C650 0.931 . S
H668 C658 0.929 . S
H669 C659 0.929 . S
H670 C660 0.931 . S
H671 C661 0.929 . S
Tb672 N701 2.617 1_545 S
Tb672 N707 2.572 1_545 S
Tb672 O716 2.465 1_545 S
Tb672 O717 2.387 . S
Tb672 O719 2.428 1_545 S
Tb672 O720 2.308 . S
Tb672 O724 2.349 . S
Tb672 O727 2.393 . S
Tb672 C736 2.802 1_545 S
C673 N674 1.379 . S
C673 C676 1.416 . S
C673 C680 1.424 . S
N674 C673 1.379 . S
N674 C677 1.334 1_455 S
N674 Tb683 2.617 . S
C675 C677 1.390 . S
C675 C678 1.339 . S
C675 H695 0.930 . S
C676 C673 1.416 . S
C676 C678 1.416 1_455 S
C676 C682 1.448 . S
C677 N674 1.334 1_655 S
C677 C675 1.390 . S
C677 H688 0.930 . S
C678 C675 1.339 . S
C678 C676 1.416 1_655 S
C678 H699 0.930 . S
C679 C680 1.413 . S
C679 C681 1.427 . S
C679 C685 1.416 . S
C680 C673 1.424 . S
C680 C679 1.413 . S
C680 N684 1.361 . S
C681 C679 1.427 . S
C681 C682 1.328 . S
C681 H696 0.929 . S
C682 C676 1.448 . S
C682 C681 1.328 . S
C682 H697 0.930 . S
Tb683 N674 2.617 . S
Tb683 N684 2.572 . S
Tb683 O718 2.349 . S
Tb683 O721 2.393 1_455 S
Tb683 O722 2.465 . S
Tb683 O723 2.387 . S
Tb683 O725 2.428 . S
Tb683 O726 2.308 . S
Tb683 C747 2.802 . S
N684 C680 1.361 . S
N684 Tb683 2.572 . S
N684 C686 1.340 . S
C685 C679 1.416 . S
C685 C687 1.332 . S
C685 H693 0.931 . S
C686 N684 1.340 . S
C686 C687 1.407 . S
C686 H692 0.930 . S
C687 C685 1.332 . S
C687 C686 1.407 . S
C687 H689 0.929 . S
H688 C677 0.930 . S
H689 C687 0.929 . S
H690 C705 0.954 . S
H691 C712 0.929 . S
H692 C686 0.930 . S
H693 C685 0.931 . S
H694 C708 0.930 1_655 S
H695 C675 0.930 . S
H696 C681 0.929 . S
H697 C682 0.930 . S
H698 C703 0.930 1_545 S
H699 C678 0.930 . S
H700 C711 0.942 . S
N701 Tb672 2.617 1_565 S
N701 C702 1.379 . S
N701 C705 1.326 1_565 S
C702 N701 1.379 . S
C702 C704 1.416 . S
C702 C710 1.424 . S
C703 H698 0.930 1_565 S
C703 C705 1.378 1_565 S
C703 C706 1.339 . S
C704 C702 1.416 . S
C704 C706 1.416 . S
C704 C737 1.448 . S
C705 H690 0.954 . S
C705 N701 1.326 1_545 S
C705 C703 1.378 1_545 S
C706 C703 1.339 . S
C706 C704 1.416 . S
C706 H713 0.930 . S
N707 Tb672 2.572 1_565 S
N707 C708 1.340 . S
N707 C710 1.361 . S
C708 H694 0.930 1_455 S
C708 N707 1.340 . S
C708 C712 1.407 1_455 S
C709 C710 1.413 . S
C709 C711 1.383 1_455 S
C709 C738 1.427 . S
C710 C702 1.424 . S
C710 N707 1.361 . S
C710 C709 1.413 . S
C711 H700 0.942 . S
C711 C709 1.383 1_655 S
C711 C712 1.355 . S
C712 H691 0.929 . S
C712 C708 1.407 1_655 S
C712 C711 1.355 . S
H713 C706 0.930 . S
H714 C737 0.930 . S
H715 C738 0.929 . S
O716 Tb672 2.465 1_565 S
O716 C736 1.264 . S
O717 Tb672 2.387 . S
O717 C728 1.264 . S
O718 Tb683 2.349 . S
O718 C728 1.243 . S
O719 Tb672 2.428 1_565 S
O719 C736 1.256 . S
O720 Tb672 2.308 . S
O720 C735 1.266 1_455 S
O721 Tb683 2.393 1_655 S
O721 C735 1.248 . S
O722 Tb683 2.465 . S
O722 C747 1.264 . S
O723 Tb683 2.387 . S
O723 C739 1.264 . S
O724 Tb672 2.349 . S
O724 C739 1.243 . S
O725 Tb683 2.428 . S
O725 C747 1.256 . S
O726 Tb683 2.308 . S
O726 C746 1.266 . S
O727 Tb672 2.393 . S
O727 C746 1.248 . S
C728 O717 1.264 . S
C728 O718 1.243 . S
C729 C732 1.399 . S
C729 C734 1.383 . S
C729 C736 1.496 . S
C730 C731 1.399 . S
C730 C734 1.389 . S
C731 C730 1.399 . S
C731 C733 1.380 . S
C731 H748 0.929 . S
C732 C729 1.399 . S
C732 C733 1.392 . S
C732 H749 0.929 . S
C733 C731 1.380 . S
C733 C732 1.392 . S
C733 H750 0.929 . S
C734 C729 1.383 . S
C734 C730 1.389 . S
C734 H751 0.931 . S
C735 O720 1.266 1_655 S
C735 O721 1.248 . S
C736 Tb672 2.802 1_565 S
C736 O716 1.264 . S
C736 O719 1.256 . S
C736 C729 1.496 . S
C737 C704 1.448 . S
C737 H714 0.930 . S
C737 C738 1.328 . S
C738 C709 1.427 . S
C738 H715 0.929 . S
C738 C737 1.328 . S
C739 O723 1.264 . S
C739 O724 1.243 . S
C740 C743 1.399 1_455 S
C740 C744 1.383 . S
C740 C747 1.496 . S
C741 C742 1.399 . S
C741 C744 1.389 . S
C742 C741 1.399 . S
C742 C745 1.380 1_455 S
C742 H752 0.929 . S
C743 C740 1.399 1_655 S
C743 C745 1.392 . S
C743 H753 0.929 . S
C744 C740 1.383 . S
C744 C741 1.389 . S
C744 H754 0.931 . S
C745 C742 1.380 1_655 S
C745 C743 1.392 . S
C745 H755 0.929 . S
C746 O726 1.266 . S
C746 O727 1.248 . S
C747 Tb683 2.802 . S
C747 O722 1.264 . S
C747 O725 1.256 . S
C747 C740 1.496 . S
H748 C731 0.929 . S
H749 C732 0.929 . S
H750 C733 0.929 . S
H751 C734 0.931 . S
H752 C742 0.929 . S
H753 C743 0.929 . S
H754 C744 0.931 . S
H755 C745 0.929 . S
Tb756 N785 2.617 . S
Tb756 N791 2.572 . S
Tb756 O800 2.465 . S
Tb756 O801 2.387 . S
Tb756 O803 2.428 . S
Tb756 O804 2.308 . S
Tb756 O808 2.349 . S
Tb756 O811 2.393 . S
Tb756 C820 2.802 . S
C757 N758 1.379 . S
C757 C760 1.416 . S
C757 C764 1.424 . S
N758 C757 1.379 . S
N758 C761 1.334 . S
N758 Tb767 2.617 . S
C759 C761 1.390 . S
C759 C762 1.339 . S
C759 H779 0.930 . S
C760 C757 1.416 . S
C760 C762 1.416 . S
C760 C766 1.448 . S
C761 N758 1.334 . S
C761 C759 1.390 . S
C761 H772 0.930 . S
C762 C759 1.339 . S
C762 C760 1.416 . S
C762 H783 0.930 . S
C763 C764 1.413 . S
C763 C765 1.427 . S
C763 C769 1.416 . S
C764 C757 1.424 . S
C764 C763 1.413 . S
C764 N768 1.361 . S
C765 C763 1.427 . S
C765 C766 1.328 . S
C765 H780 0.929 . S
C766 C760 1.448 . S
C766 C765 1.328 . S
C766 H781 0.930 . S
Tb767 N758 2.617 . S
Tb767 N768 2.572 . S
Tb767 O802 2.349 . S
Tb767 O805 2.393 . S
Tb767 O806 2.465 . S
Tb767 O807 2.387 . S
Tb767 O809 2.428 . S
Tb767 O810 2.308 . S
Tb767 C831 2.802 . S
N768 C764 1.361 . S
N768 Tb767 2.572 . S
N768 C770 1.340 . S
C769 C763 1.416 . S
C769 C771 1.332 . S
C769 H777 0.931 . S
C770 N768 1.340 . S
C770 C771 1.407 . S
C770 H776 0.930 . S
C771 C769 1.332 . S
C771 C770 1.407 . S
C771 H773 0.929 . S
H772 C761 0.930 . S
H773 C771 0.929 . S
H774 C789 0.930 . S
H775 C796 0.929 . S
H776 C770 0.930 . S
H777 C769 0.931 . S
H778 C792 0.930 . S
H779 C759 0.930 . S
H780 C765 0.929 . S
H781 C766 0.930 . S
H782 C787 0.930 . S
H783 C762 0.930 . S
H784 C795 0.931 . S
N785 Tb756 2.617 . S
N785 C786 1.379 . S
N785 C789 1.334 . S
C786 N785 1.379 . S
C786 C788 1.416 . S
C786 C794 1.424 . S
C787 H782 0.930 . S
C787 C789 1.390 . S
C787 C790 1.339 . S
C788 C786 1.416 . S
C788 C790 1.416 . S
C788 C821 1.448 . S
C789 H774 0.930 . S
C789 N785 1.334 . S
C789 C787 1.390 . S
C790 C787 1.339 . S
C790 C788 1.416 . S
C790 H797 0.930 . S
N791 Tb756 2.572 . S
N791 C792 1.340 . S
N791 C794 1.361 . S
C792 H778 0.930 . S
C792 N791 1.340 . S
C792 C796 1.407 . S
C793 C794 1.413 . S
C793 C795 1.416 . S
C793 C822 1.427 . S
C794 C786 1.424 . S
C794 N791 1.361 . S
C794 C793 1.413 . S
C795 H784 0.931 . S
C795 C793 1.416 . S
C795 C796 1.332 . S
C796 H775 0.929 . S
C796 C792 1.407 . S
C796 C795 1.332 . S
H797 C790 0.930 . S
H798 C821 0.930 . S
H799 C822 0.929 . S
O800 Tb756 2.465 . S
O800 C820 1.264 . S
O801 Tb756 2.387 . S
O801 C812 1.264 . S
O802 Tb767 2.349 . S
O802 C812 1.243 . S
O803 Tb756 2.428 . S
O803 C820 1.256 . S
O804 Tb756 2.308 . S
O804 C819 1.266 . S
O805 Tb767 2.393 . S
O805 C819 1.248 . S
O806 Tb767 2.465 . S
O806 C831 1.264 . S
O807 Tb767 2.387 . S
O807 C823 1.264 . S
O808 Tb756 2.349 . S
O808 C823 1.243 . S
O809 Tb767 2.428 . S
O809 C831 1.256 . S
O810 Tb767 2.308 . S
O810 C830 1.266 . S
O811 Tb756 2.393 . S
O811 C830 1.248 . S
C812 O801 1.264 . S
C812 O802 1.243 . S
C813 C816 1.399 . S
C813 C818 1.383 . S
C813 C820 1.496 . S
C814 C815 1.399 . S
C814 C818 1.389 . S
C815 C814 1.399 . S
C815 C817 1.380 . S
C815 H832 0.929 . S
C816 C813 1.399 . S
C816 C817 1.392 . S
C816 H833 0.929 . S
C817 C815 1.380 . S
C817 C816 1.392 . S
C817 H834 0.929 . S
C818 C813 1.383 . S
C818 C814 1.389 . S
C818 H835 0.931 . S
C819 O804 1.266 . S
C819 O805 1.248 . S
C820 Tb756 2.802 . S
C820 O800 1.264 . S
C820 O803 1.256 . S
C820 C813 1.496 . S
C821 C788 1.448 . S
C821 H798 0.930 . S
C821 C822 1.328 . S
C822 C793 1.427 . S
C822 H799 0.929 . S
C822 C821 1.328 . S
C823 O807 1.264 . S
C823 O808 1.243 . S
C824 C827 1.399 . S
C824 C828 1.383 . S
C824 C831 1.496 . S
C825 C826 1.399 . S
C825 C828 1.389 . S
C826 C825 1.399 . S
C826 C829 1.380 . S
C826 H836 0.929 . S
C827 C824 1.399 . S
C827 C829 1.392 . S
C827 H837 0.929 . S
C828 C824 1.383 . S
C828 C825 1.389 . S
C828 H838 0.931 . S
C829 C826 1.380 . S
C829 C827 1.392 . S
C829 H839 0.929 . S
C830 O810 1.266 . S
C830 O811 1.248 . S
C831 Tb767 2.802 . S
C831 O806 1.264 . S
C831 O809 1.256 . S
C831 C824 1.496 . S
H832 C815 0.929 . S
H833 C816 0.929 . S
H834 C817 0.929 . S
H835 C818 0.931 . S
H836 C826 0.929 . S
H837 C827 0.929 . S
H838 C828 0.931 . S
H839 C829 0.929 . S
Tb840 N869 2.617 1_554 S
Tb840 N875 2.572 1_554 S
Tb840 O884 2.465 1_554 S
Tb840 O885 2.387 . S
Tb840 O887 2.428 1_554 S
Tb840 O888 2.308 . S
Tb840 O892 2.349 . S
Tb840 O895 2.393 . S
Tb840 C904 2.802 1_554 S
C841 N842 1.379 1_545 S
C841 C844 1.416 1_545 S
C841 C848 1.424 . S
N842 C841 1.379 1_565 S
N842 C845 1.334 . S
N842 Tb851 2.617 1_565 S
C843 C845 1.390 . S
C843 C846 1.339 . S
C843 H863 0.930 . S
C844 C841 1.416 1_565 S
C844 C846 1.416 . S
C844 C850 1.448 1_565 S
C845 N842 1.334 . S
C845 C843 1.390 . S
C845 H856 0.930 . S
C846 C843 1.339 . S
C846 C844 1.416 . S
C846 H867 0.930 . S
C847 C848 1.413 . S
C847 C849 1.427 . S
C847 C853 1.416 . S
C848 C841 1.424 . S
C848 C847 1.413 . S
C848 N852 1.361 . S
C849 C847 1.427 . S
C849 C850 1.328 . S
C849 H864 0.929 . S
C850 C844 1.448 1_545 S
C850 C849 1.328 . S
C850 H865 0.930 1_545 S
Tb851 N842 2.617 1_545 S
Tb851 N852 2.572 . S
Tb851 O886 2.349 . S
Tb851 O889 2.393 1_545 S
Tb851 O890 2.465 . S
Tb851 O891 2.387 . S
Tb851 O893 2.428 1_545 S
Tb851 O894 2.308 . S
Tb851 C915 2.802 . S
N852 C848 1.361 . S
N852 Tb851 2.572 . S
N852 C854 1.340 . S
C853 C847 1.416 . S
C853 C855 1.332 . S
C853 H861 0.931 . S
C854 N852 1.340 . S
C854 C855 1.407 . S
C854 H860 0.930 . S
C855 C853 1.332 . S
C855 C854 1.407 . S
C855 H857 0.929 . S
H856 C845 0.930 . S
H857 C855 0.929 . S
H858 C873 0.930 . S
H859 C880 0.929 . S
H860 C854 0.930 . S
H861 C853 0.931 . S
H862 C876 0.930 . S
H863 C843 0.930 . S
H864 C849 0.929 . S
H865 C850 0.930 1_565 S
H866 C871 0.930 . S
H867 C846 0.930 . S
H868 C879 0.927 1_565 S
N869 Tb840 2.617 1_556 S
N869 C870 1.379 . S
N869 C873 1.334 1_556 S
C870 N869 1.379 . S
C870 C872 1.416 . S
C870 C878 1.424 . S
C871 H866 0.930 . S
C871 C873 1.390 . S
C871 C874 1.339 1_554 S
C872 C870 1.416 . S
C872 C874 1.416 . S
C872 C905 1.448 . S
C873 H858 0.930 . S
C873 N869 1.334 1_554 S
C873 C871 1.390 . S
C874 C871 1.339 1_556 S
C874 C872 1.416 . S
C874 H881 0.930 . S
N875 Tb840 2.572 1_556 S
N875 C876 1.340 . S
N875 C878 1.361 . S
C876 H862 0.930 . S
C876 N875 1.340 . S
C876 C880 1.407 1_545 S
C877 C878 1.413 . S
C877 C879 1.416 . S
C877 C906 1.427 . S
C878 C870 1.424 . S
C878 N875 1.361 . S
C878 C877 1.413 . S
C879 H868 0.927 1_545 S
C879 C877 1.416 . S
C879 C880 1.332 1_545 S
C880 H859 0.929 . S
C880 C876 1.407 1_565 S
C880 C879 1.332 1_565 S
H881 C874 0.930 . S
H882 C905 0.930 . S
H883 C906 0.929 . S
O884 Tb840 2.465 1_556 S
O884 C904 1.264 . S
O885 Tb840 2.387 . S
O885 C896 1.264 . S
O886 Tb851 2.349 . S
O886 C896 1.243 . S
O887 Tb840 2.428 1_556 S
O887 C904 1.256 . S
O888 Tb840 2.308 . S
O888 C903 1.266 1_545 S
O889 Tb851 2.393 1_565 S
O889 C903 1.248 . S
O890 Tb851 2.465 . S
O890 C915 1.264 . S
O891 Tb851 2.387 . S
O891 C907 1.264 . S
O892 Tb840 2.349 . S
O892 C907 1.243 . S
O893 Tb851 2.428 1_565 S
O893 C915 1.256 1_565 S
O894 Tb851 2.308 . S
O894 C914 1.266 . S
O895 Tb840 2.393 . S
O895 C914 1.248 . S
C896 O885 1.264 . S
C896 O886 1.243 . S
C897 C900 1.399 . S
C897 C902 1.383 . S
C897 C904 1.496 . S
C898 C899 1.399 . S
C898 C902 1.389 . S
C899 C898 1.399 . S
C899 C901 1.380 . S
C899 H916 0.929 . S
C900 C897 1.399 . S
C900 C901 1.392 . S
C900 H917 0.929 . S
C901 C899 1.380 . S
C901 C900 1.392 . S
C901 H918 0.929 . S
C902 C897 1.383 . S
C902 C898 1.389 . S
C902 H919 0.931 . S
C903 O888 1.266 1_565 S
C903 O889 1.248 . S
C904 Tb840 2.802 1_556 S
C904 O884 1.264 . S
C904 O887 1.256 . S
C904 C897 1.496 . S
C905 C872 1.448 . S
C905 H882 0.930 . S
C905 C906 1.328 . S
C906 C877 1.427 . S
C906 H883 0.929 . S
C906 C905 1.328 . S
C907 O891 1.264 . S
C907 O892 1.243 . S
C908 C911 1.399 . S
C908 C912 1.383 1_565 S
C908 C915 1.496 1_565 S
C909 C910 1.399 1_545 S
C909 C912 1.389 . S
C910 C909 1.399 1_565 S
C910 C913 1.380 . S
C910 H920 0.929 . S
C911 C908 1.399 . S
C911 C913 1.392 . S
C911 H921 0.929 . S
C912 C908 1.383 1_545 S
C912 C909 1.389 . S
C912 H922 0.931 . S
C913 C910 1.380 . S
C913 C911 1.392 . S
C913 H923 0.929 . S
C914 O894 1.266 . S
C914 O895 1.248 . S
C915 Tb851 2.802 . S
C915 O890 1.264 . S
C915 O893 1.256 1_545 S
C915 C908 1.496 1_545 S
H916 C899 0.929 . S
H917 C900 0.929 . S
H918 C901 0.929 . S
H919 C902 0.931 . S
H920 C910 0.929 . S
H921 C911 0.929 . S
H922 C912 0.931 . S
H923 C913 0.929 . S
Tb924 N953 2.617 . S
Tb924 N959 2.572 . S
Tb924 O968 2.465 . S
Tb924 O969 2.387 . S
Tb924 O971 2.428 . S
Tb924 O972 2.308 . S
Tb924 O976 2.349 . S
Tb924 O979 2.393 . S
Tb924 C988 2.802 . S
C925 N926 1.379 . S
C925 C928 1.416 . S
C925 C932 1.424 . S
N926 C925 1.379 . S
N926 C929 1.334 . S
N926 Tb935 2.617 . S
C927 C929 1.390 . S
C927 C930 1.339 . S
C927 H947 0.930 . S
C928 C925 1.416 . S
C928 C930 1.416 . S
C928 C934 1.448 . S
C929 N926 1.334 . S
C929 C927 1.390 . S
C929 H940 0.930 . S
C930 C927 1.339 . S
C930 C928 1.416 . S
C930 H951 0.930 . S
C931 C932 1.413 . S
C931 C933 1.427 . S
C931 C937 1.416 . S
C932 C925 1.424 . S
C932 C931 1.413 . S
C932 N936 1.361 . S
C933 C931 1.427 . S
C933 C934 1.328 . S
C933 H948 0.929 . S
C934 C928 1.448 . S
C934 C933 1.328 . S
C934 H949 0.930 . S
Tb935 N926 2.617 . S
Tb935 N936 2.572 . S
Tb935 O970 2.349 . S
Tb935 O973 2.393 . S
Tb935 O974 2.465 . S
Tb935 O975 2.387 . S
Tb935 O977 2.428 . S
Tb935 O978 2.308 . S
Tb935 C999 2.802 . S
N936 C932 1.361 . S
N936 Tb935 2.572 . S
N936 C938 1.340 . S
C937 C931 1.416 . S
C937 C939 1.332 . S
C937 H945 0.931 . S
C938 N936 1.340 . S
C938 C939 1.407 . S
C938 H944 0.930 . S
C939 C937 1.332 . S
C939 C938 1.407 . S
C939 H941 0.929 . S
H940 C929 0.930 . S
H941 C939 0.929 . S
H942 C957 0.930 . S
H943 C964 0.929 . S
H944 C938 0.930 . S
H945 C937 0.931 . S
H946 C960 0.930 . S
H947 C927 0.930 . S
H948 C933 0.929 . S
H949 C934 0.930 . S
H950 C955 0.930 . S
H951 C930 0.930 . S
H952 C963 0.931 . S
N953 Tb924 2.617 . S
N953 C954 1.379 . S
N953 C957 1.334 . S
C954 N953 1.379 . S
C954 C956 1.416 . S
C954 C962 1.424 . S
C955 H950 0.930 . S
C955 C957 1.390 . S
C955 C958 1.339 . S
C956 C954 1.416 . S
C956 C958 1.416 . S
C956 C989 1.448 . S
C957 H942 0.930 . S
C957 N953 1.334 . S
C957 C955 1.390 . S
C958 C955 1.339 . S
C958 C956 1.416 . S
C958 H965 0.930 . S
N959 Tb924 2.572 . S
N959 C960 1.340 . S
N959 C962 1.361 . S
C960 H946 0.930 . S
C960 N959 1.340 . S
C960 C964 1.407 . S
C961 C962 1.413 . S
C961 C963 1.416 . S
C961 C990 1.427 . S
C962 C954 1.424 . S
C962 N959 1.361 . S
C962 C961 1.413 . S
C963 H952 0.931 . S
C963 C961 1.416 . S
C963 C964 1.332 . S
C964 H943 0.929 . S
C964 C960 1.407 . S
C964 C963 1.332 . S
H965 C958 0.930 . S
H966 C989 0.930 . S
H967 C990 0.929 . S
O968 Tb924 2.465 . S
O968 C988 1.264 . S
O969 Tb924 2.387 . S
O969 C980 1.264 . S
O970 Tb935 2.349 . S
O970 C980 1.243 . S
O971 Tb924 2.428 . S
O971 C988 1.256 . S
O972 Tb924 2.308 . S
O972 C987 1.266 . S
O973 Tb935 2.393 . S
O973 C987 1.248 . S
O974 Tb935 2.465 . S
O974 C999 1.264 . S
O975 Tb935 2.387 . S
O975 C991 1.264 . S
O976 Tb924 2.349 . S
O976 C991 1.243 . S
O977 Tb935 2.428 . S
O977 C999 1.256 . S
O978 Tb935 2.308 . S
O978 C998 1.266 . S
O979 Tb924 2.393 . S
O979 C998 1.248 . S
C980 O969 1.264 . S
C980 O970 1.243 . S
C981 C984 1.399 . S
C981 C986 1.383 . S
C981 C988 1.496 . S
C982 C983 1.399 . S
C982 C986 1.389 . S
C983 C982 1.399 . S
C983 C985 1.380 . S
C983 H1000 0.929 . S
C984 C981 1.399 . S
C984 C985 1.392 . S
C984 H1001 0.929 . S
C985 C983 1.380 . S
C985 C984 1.392 . S
C985 H1002 0.929 . S
C986 C981 1.383 . S
C986 C982 1.389 . S
C986 H1003 0.931 . S
C987 O972 1.266 . S
C987 O973 1.248 . S
C988 Tb924 2.802 . S
C988 O968 1.264 . S
C988 O971 1.256 . S
C988 C981 1.496 . S
C989 C956 1.448 . S
C989 H966 0.930 . S
C989 C990 1.328 . S
C990 C961 1.427 . S
C990 H967 0.929 . S
C990 C989 1.328 . S
C991 O975 1.264 . S
C991 O976 1.243 . S
C992 C995 1.399 . S
C992 C996 1.383 . S
C992 C999 1.496 . S
C993 C994 1.399 . S
C993 C996 1.389 . S
C994 C993 1.399 . S
C994 C997 1.380 . S
C994 H1004 0.929 . S
C995 C992 1.399 . S
C995 C997 1.392 . S
C995 H1005 0.929 . S
C996 C992 1.383 . S
C996 C993 1.389 . S
C996 H1006 0.931 . S
C997 C994 1.380 . S
C997 C995 1.392 . S
C997 H1007 0.929 . S
C998 O978 1.266 . S
C998 O979 1.248 . S
C999 Tb935 2.802 . S
C999 O974 1.264 . S
C999 O977 1.256 . S
C999 C992 1.496 . S
H1000 C983 0.929 . S
H1001 C984 0.929 . S
H1002 C985 0.929 . S
H1003 C986 0.931 . S
H1004 C994 0.929 . S
H1005 C995 0.929 . S
H1006 C996 0.931 . S
H1007 C997 0.929 . S
Tb1008 N1037 2.617 . S
Tb1008 N1043 2.572 . S
Tb1008 O1052 2.465 . S
Tb1008 O1053 2.387 . S
Tb1008 O1055 2.428 . S
Tb1008 O1056 2.308 . S
Tb1008 O1060 2.349 . S
Tb1008 O1063 2.393 . S
Tb1008 C1072 2.802 . S
C1009 N1010 1.379 . S
C1009 C1012 1.416 . S
C1009 C1016 1.424 . S
N1010 C1009 1.379 . S
N1010 C1013 1.334 . S
N1010 Tb1019 2.617 . S
C1011 C1013 1.390 . S
C1011 C1014 1.339 . S
C1011 H1031 0.930 . S
C1012 C1009 1.416 . S
C1012 C1014 1.416 . S
C1012 C1018 1.448 . S
C1013 N1010 1.334 . S
C1013 C1011 1.390 . S
C1013 H1024 0.930 . S
C1014 C1011 1.339 . S
C1014 C1012 1.416 . S
C1014 H1035 0.930 . S
C1015 C1016 1.413 . S
C1015 C1017 1.427 . S
C1015 C1021 1.416 . S
C1016 C1009 1.424 . S
C1016 C1015 1.413 . S
C1016 N1020 1.361 . S
C1017 C1015 1.427 . S
C1017 C1018 1.328 . S
C1017 H1032 0.929 . S
C1018 C1012 1.448 . S
C1018 C1017 1.328 . S
C1018 H1033 0.930 . S
Tb1019 N1010 2.617 . S
Tb1019 N1020 2.572 . S
Tb1019 O1054 2.349 . S
Tb1019 O1057 2.393 . S
Tb1019 O1058 2.465 . S
Tb1019 O1059 2.387 . S
Tb1019 O1061 2.428 . S
Tb1019 O1062 2.308 . S
Tb1019 C1083 2.802 . S
N1020 C1016 1.361 . S
N1020 Tb1019 2.572 . S
N1020 C1022 1.340 . S
C1021 C1015 1.416 . S
C1021 C1023 1.332 . S
C1021 H1029 0.931 . S
C1022 N1020 1.340 . S
C1022 C1023 1.407 . S
C1022 H1028 0.930 . S
C1023 C1021 1.332 . S
C1023 C1022 1.407 . S
C1023 H1025 0.929 . S
H1024 C1013 0.930 . S
H1025 C1023 0.929 . S
H1026 C1041 0.930 . S
H1027 C1048 0.929 . S
H1028 C1022 0.930 . S
H1029 C1021 0.931 . S
H1030 C1044 0.930 . S
H1031 C1011 0.930 . S
H1032 C1017 0.929 . S
H1033 C1018 0.930 . S
H1034 C1039 0.930 . S
H1035 C1014 0.930 . S
H1036 C1047 0.931 . S
N1037 Tb1008 2.617 . S
N1037 C1038 1.379 1_554 S
N1037 C1041 1.334 . S
C1038 N1037 1.379 1_556 S
C1038 C1040 1.416 . S
C1038 C1046 1.424 . S
C1039 H1034 0.930 . S
C1039 C1041 1.390 1_556 S
C1039 C1042 1.339 . S
C1040 C1038 1.416 . S
C1040 C1042 1.416 . S
C1040 C1073 1.448 . S
C1041 H1026 0.930 . S
C1041 N1037 1.334 . S
C1041 C1039 1.390 1_554 S
C1042 C1039 1.339 . S
C1042 C1040 1.416 . S
C1042 H1049 0.930 . S
N1043 Tb1008 2.572 . S
N1043 C1044 1.340 . S
N1043 C1046 1.361 1_554 S
C1044 H1030 0.930 . S
C1044 N1043 1.340 . S
C1044 C1048 1.407 1_554 S
C1045 C1046 1.413 . S
C1045 C1047 1.416 . S
C1045 C1074 1.427 . S
C1046 C1038 1.424 . S
C1046 N1043 1.361 1_556 S
C1046 C1045 1.413 . S
C1047 H1036 0.931 . S
C1047 C1045 1.416 . S
C1047 C1048 1.332 . S
C1048 H1027 0.929 . S
C1048 C1044 1.407 1_556 S
C1048 C1047 1.332 . S
H1049 C1042 0.930 . S
H1050 C1073 0.930 . S
H1051 C1074 0.929 . S
O1052 Tb1008 2.465 . S
O1052 C1072 1.264 . S
O1053 Tb1008 2.387 . S
O1053 C1064 1.264 1_554 S
O1054 Tb1019 2.349 . S
O1054 C1064 1.243 1_554 S
O1055 Tb1008 2.428 . S
O1055 C1072 1.256 . S
O1056 Tb1008 2.308 . S
O1056 C1071 1.266 . S
O1057 Tb1019 2.393 . S
O1057 C1071 1.248 . S
O1058 Tb1019 2.465 . S
O1058 C1083 1.264 . S
O1059 Tb1019 2.387 . S
O1059 C1075 1.264 . S
O1060 Tb1008 2.349 . S
O1060 C1075 1.243 . S
O1061 Tb1019 2.428 . S
O1061 C1083 1.256 . S
O1062 Tb1019 2.308 . S
O1062 C1082 1.266 . S
O1063 Tb1008 2.393 . S
O1063 C1082 1.248 . S
C1064 O1053 1.264 1_556 S
C1064 O1054 1.243 1_556 S
C1065 C1068 1.399 . S
C1065 C1070 1.383 . S
C1065 C1072 1.496 . S
C1066 C1067 1.399 . S
C1066 C1070 1.389 . S
C1067 C1066 1.399 . S
C1067 C1069 1.380 . S
C1067 H1084 0.929 . S
C1068 C1065 1.399 . S
C1068 C1069 1.392 . S
C1068 H1085 0.929 . S
C1069 C1067 1.380 . S
C1069 C1068 1.392 . S
C1069 H1086 0.929 . S
C1070 C1065 1.383 . S
C1070 C1066 1.389 . S
C1070 H1087 0.931 . S
C1071 O1056 1.266 . S
C1071 O1057 1.248 . S
C1072 Tb1008 2.802 . S
C1072 O1052 1.264 . S
C1072 O1055 1.256 . S
C1072 C1065 1.496 . S
C1073 C1040 1.448 . S
C1073 H1050 0.930 . S
C1073 C1074 1.328 . S
C1074 C1045 1.427 . S
C1074 H1051 0.929 . S
C1074 C1073 1.328 . S
C1075 O1059 1.264 . S
C1075 O1060 1.243 . S
C1076 C1079 1.399 . S
C1076 C1080 1.383 . S
C1076 C1083 1.496 . S
C1077 C1078 1.399 . S
C1077 C1080 1.389 1_556 S
C1078 C1077 1.399 . S
C1078 C1081 1.400 . S
C1078 H1088 0.929 . S
C1079 C1076 1.399 . S
C1079 C1081 1.372 1_554 S
C1079 H1089 0.929 . S
C1080 C1076 1.383 . S
C1080 C1077 1.389 1_554 S
C1080 H1090 0.931 . S
C1081 C1078 1.400 . S
C1081 C1079 1.372 1_556 S
C1081 H1091 0.931 . S
C1082 O1062 1.266 . S
C1082 O1063 1.248 . S
C1083 Tb1019 2.802 . S
C1083 O1058 1.264 . S
C1083 O1061 1.256 . S
C1083 C1076 1.496 . S
H1084 C1067 0.929 . S
H1085 C1068 0.929 . S
H1086 C1069 0.929 . S
H1087 C1070 0.931 . S
H1088 C1078 0.929 . S
H1089 C1079 0.929 . S
H1090 C1080 0.931 . S
H1091 C1081 0.931 . S
Tb1092 N1121 2.617 . S
Tb1092 N1127 2.572 . S
Tb1092 O1136 2.465 . S
Tb1092 O1137 2.387 . S
Tb1092 O1139 2.428 . S
Tb1092 O1140 2.308 . S
Tb1092 O1144 2.349 . S
Tb1092 O1147 2.393 . S
Tb1092 C1156 2.802 . S
C1093 N1094 1.379 . S
C1093 C1096 1.416 . S
C1093 C1100 1.424 . S
N1094 C1093 1.379 . S
N1094 C1097 1.334 . S
N1094 Tb1103 2.617 . S
C1095 C1097 1.390 . S
C1095 C1098 1.339 . S
C1095 H1115 0.930 . S
C1096 C1093 1.416 . S
C1096 C1098 1.416 . S
C1096 C1102 1.448 . S
C1097 N1094 1.334 . S
C1097 C1095 1.390 . S
C1097 H1108 0.930 . S
C1098 C1095 1.339 . S
C1098 C1096 1.416 . S
C1098 H1119 0.930 . S
C1099 C1100 1.413 . S
C1099 C1101 1.427 . S
C1099 C1105 1.416 . S
C1100 C1093 1.424 . S
C1100 C1099 1.413 . S
C1100 N1104 1.361 . S
C1101 C1099 1.427 . S
C1101 C1102 1.328 . S
C1101 H1116 0.929 . S
C1102 C1096 1.448 . S
C1102 C1101 1.328 . S
C1102 H1117 0.930 . S
Tb1103 N1094 2.617 . S
Tb1103 N1104 2.572 . S
Tb1103 O1138 2.349 . S
Tb1103 O1141 2.393 . S
Tb1103 O1142 2.465 . S
Tb1103 O1143 2.387 . S
Tb1103 O1145 2.428 . S
Tb1103 O1146 2.308 . S
Tb1103 C1167 2.802 . S
N1104 C1100 1.361 . S
N1104 Tb1103 2.572 . S
N1104 C1106 1.340 . S
C1105 C1099 1.416 . S
C1105 C1107 1.332 . S
C1105 H1113 0.931 . S
C1106 N1104 1.340 . S
C1106 C1107 1.407 . S
C1106 H1112 0.930 . S
C1107 C1105 1.332 . S
C1107 C1106 1.407 . S
C1107 H1109 0.929 . S
H1108 C1097 0.930 . S
H1109 C1107 0.929 . S
H1110 C1125 0.930 . S
H1111 C1132 0.929 . S
H1112 C1106 0.930 . S
H1113 C1105 0.931 . S
H1114 C1128 0.930 . S
H1115 C1095 0.930 . S
H1116 C1101 0.929 . S
H1117 C1102 0.930 . S
H1118 C1123 0.930 . S
H1119 C1098 0.930 . S
H1120 C1131 0.931 . S
N1121 Tb1092 2.617 . S
N1121 C1122 1.379 . S
N1121 C1125 1.334 . S
C1122 N1121 1.379 . S
C1122 C1124 1.416 . S
C1122 C1130 1.424 . S
C1123 H1118 0.930 . S
C1123 C1125 1.390 . S
C1123 C1126 1.339 . S
C1124 C1122 1.416 . S
C1124 C1126 1.416 . S
C1124 C1157 1.448 . S
C1125 H1110 0.930 . S
C1125 N1121 1.334 . S
C1125 C1123 1.390 . S
C1126 C1123 1.339 . S
C1126 C1124 1.416 . S
C1126 H1133 0.930 . S
N1127 Tb1092 2.572 . S
N1127 C1128 1.340 . S
N1127 C1130 1.361 . S
C1128 H1114 0.930 . S
C1128 N1127 1.340 . S
C1128 C1132 1.407 . S
C1129 C1130 1.413 . S
C1129 C1131 1.416 . S
C1129 C1158 1.427 . S
C1130 C1122 1.424 . S
C1130 N1127 1.361 . S
C1130 C1129 1.413 . S
C1131 H1120 0.931 . S
C1131 C1129 1.416 . S
C1131 C1132 1.332 . S
C1132 H1111 0.929 . S
C1132 C1128 1.407 . S
C1132 C1131 1.332 . S
H1133 C1126 0.930 . S
H1134 C1157 0.930 . S
H1135 C1158 0.929 . S
O1136 Tb1092 2.465 . S
O1136 C1156 1.264 . S
O1137 Tb1092 2.387 . S
O1137 C1148 1.264 . S
O1138 Tb1103 2.349 . S
O1138 C1148 1.243 . S
O1139 Tb1092 2.428 . S
O1139 C1156 1.256 . S
O1140 Tb1092 2.308 . S
O1140 C1155 1.266 . S
O1141 Tb1103 2.393 . S
O1141 C1155 1.248 . S
O1142 Tb1103 2.465 . S
O1142 C1167 1.264 . S
O1143 Tb1103 2.387 . S
O1143 C1159 1.264 . S
O1144 Tb1092 2.349 . S
O1144 C1159 1.243 . S
O1145 Tb1103 2.428 . S
O1145 C1167 1.256 . S
O1146 Tb1103 2.308 . S
O1146 C1166 1.266 . S
O1147 Tb1092 2.393 . S
O1147 C1166 1.248 . S
C1148 O1137 1.264 . S
C1148 O1138 1.243 . S
C1149 C1152 1.399 . S
C1149 C1154 1.383 . S
C1149 C1156 1.496 . S
C1150 C1151 1.399 . S
C1150 C1154 1.389 . S
C1151 C1150 1.399 . S
C1151 C1153 1.380 . S
C1151 H1168 0.929 . S
C1152 C1149 1.399 . S
C1152 C1153 1.392 . S
C1152 H1169 0.929 . S
C1153 C1151 1.380 . S
C1153 C1152 1.392 . S
C1153 H1170 0.929 . S
C1154 C1149 1.383 . S
C1154 C1150 1.389 . S
C1154 H1171 0.931 . S
C1155 O1140 1.266 . S
C1155 O1141 1.248 . S
C1156 Tb1092 2.802 . S
C1156 O1136 1.264 . S
C1156 O1139 1.256 . S
C1156 C1149 1.496 . S
C1157 C1124 1.448 . S
C1157 H1134 0.930 . S
C1157 C1158 1.328 . S
C1158 C1129 1.427 . S
C1158 H1135 0.929 . S
C1158 C1157 1.328 . S
C1159 O1143 1.264 . S
C1159 O1144 1.243 . S
C1160 C1163 1.399 . S
C1160 C1164 1.383 . S
C1160 C1167 1.496 . S
C1161 C1162 1.399 . S
C1161 C1164 1.389 . S
C1162 C1161 1.399 . S
C1162 C1165 1.380 . S
C1162 H1172 0.929 . S
C1163 C1160 1.399 . S
C1163 C1165 1.392 . S
C1163 H1173 0.929 . S
C1164 C1160 1.383 . S
C1164 C1161 1.389 . S
C1164 H1174 0.931 . S
C1165 C1162 1.380 . S
C1165 C1163 1.392 . S
C1165 H1175 0.929 . S
C1166 O1146 1.266 . S
C1166 O1147 1.248 . S
C1167 Tb1103 2.802 . S
C1167 O1142 1.264 . S
C1167 O1145 1.256 . S
C1167 C1160 1.496 . S
H1168 C1151 0.929 . S
H1169 C1152 0.929 . S
H1170 C1153 0.929 . S
H1171 C1154 0.931 . S
H1172 C1162 0.929 . S
H1173 C1163 0.929 . S
H1174 C1164 0.931 . S
H1175 C1165 0.929 . S
Tb1176 N1205 2.617 1_455 S
Tb1176 N1211 2.572 1_455 S
Tb1176 O1220 2.465 . S
Tb1176 O1221 2.387 1_455 S
Tb1176 O1223 2.428 . S
Tb1176 O1224 2.308 . S
Tb1176 O1228 2.349 . S
Tb1176 O1231 2.393 . S
Tb1176 C1240 2.802 . S
C1177 N1178 1.379 . S
C1177 C1180 1.416 . S
C1177 C1184 1.424 . S
N1178 C1177 1.379 . S
N1178 C1181 1.334 . S
N1178 Tb1187 2.617 . S
C1179 C1181 1.390 . S
C1179 C1182 1.339 . S
C1179 H1199 0.930 . S
C1180 C1177 1.416 . S
C1180 C1182 1.416 . S
C1180 C1186 1.448 . S
C1181 N1178 1.334 . S
C1181 C1179 1.390 . S
C1181 H1192 0.930 . S
C1182 C1179 1.339 . S
C1182 C1180 1.416 . S
C1182 H1203 0.930 . S
C1183 C1184 1.413 . S
C1183 C1185 1.427 . S
C1183 C1189 1.416 . S
C1184 C1177 1.424 . S
C1184 C1183 1.413 . S
C1184 N1188 1.361 . S
C1185 C1183 1.427 . S
C1185 C1186 1.328 . S
C1185 H1200 0.929 . S
C1186 C1180 1.448 . S
C1186 C1185 1.328 . S
C1186 H1201 0.930 . S
Tb1187 N1178 2.617 . S
Tb1187 N1188 2.572 . S
Tb1187 O1222 2.349 1_455 S
Tb1187 O1225 2.393 . S
Tb1187 O1226 2.465 . S
Tb1187 O1227 2.387 . S
Tb1187 O1229 2.428 . S
Tb1187 O1230 2.308 . S
Tb1187 C1251 2.802 . S
N1188 C1184 1.361 . S
N1188 Tb1187 2.572 . S
N1188 C1190 1.340 . S
C1189 C1183 1.416 . S
C1189 C1191 1.332 . S
C1189 H1197 0.931 . S
C1190 N1188 1.340 . S
C1190 C1191 1.407 . S
C1190 H1196 0.930 . S
C1191 C1189 1.332 . S
C1191 C1190 1.407 . S
C1191 H1193 0.929 . S
H1192 C1181 0.930 . S
H1193 C1191 0.929 . S
H1194 C1209 0.930 1_455 S
H1195 C1216 0.929 . S
H1196 C1190 0.930 . S
H1197 C1189 0.931 . S
H1198 C1212 0.934 1_455 S
H1199 C1179 0.930 . S
H1200 C1185 0.929 . S
H1201 C1186 0.930 . S
H1202 C1207 0.930 . S
H1203 C1182 0.930 . S
H1204 C1215 0.931 . S
N1205 Tb1176 2.617 1_655 S
N1205 C1206 1.379 . S
N1205 C1209 1.334 . S
C1206 N1205 1.379 . S
C1206 C1208 1.416 . S
C1206 C1214 1.424 . S
C1207 H1202 0.930 . S
C1207 C1209 1.390 . S
C1207 C1210 1.339 . S
C1208 C1206 1.416 . S
C1208 C1210 1.416 . S
C1208 C1241 1.448 . S
C1209 H1194 0.930 1_655 S
C1209 N1205 1.334 . S
C1209 C1207 1.390 . S
C1210 C1207 1.339 . S
C1210 C1208 1.416 . S
C1210 H1217 0.930 . S
N1211 Tb1176 2.572 1_655 S
N1211 C1212 1.340 . S
N1211 C1214 1.361 . S
C1212 H1198 0.934 1_655 S
C1212 N1211 1.340 . S
C1212 C1216 1.407 . S
C1213 C1214 1.413 . S
C1213 C1215 1.416 . S
C1213 C1242 1.427 . S
C1214 C1206 1.424 . S
C1214 N1211 1.361 . S
C1214 C1213 1.413 . S
C1215 H1204 0.931 . S
C1215 C1213 1.416 . S
C1215 C1216 1.332 . S
C1216 H1195 0.929 . S
C1216 C1212 1.407 . S
C1216 C1215 1.332 . S
H1217 C1210 0.930 . S
H1218 C1241 0.930 . S
H1219 C1242 0.929 . S
O1220 Tb1176 2.465 . S
O1220 C1240 1.264 . S
O1221 Tb1176 2.387 1_655 S
O1221 C1232 1.264 . S
O1222 Tb1187 2.349 1_655 S
O1222 C1232 1.243 . S
O1223 Tb1176 2.428 . S
O1223 C1240 1.256 . S
O1224 Tb1176 2.308 . S
O1224 C1239 1.266 . S
O1225 Tb1187 2.393 . S
O1225 C1239 1.248 . S
O1226 Tb1187 2.465 . S
O1226 C1251 1.264 . S
O1227 Tb1187 2.387 . S
O1227 C1243 1.264 . S
O1228 Tb1176 2.349 . S
O1228 C1243 1.243 . S
O1229 Tb1187 2.428 . S
O1229 C1251 1.256 . S
O1230 Tb1187 2.308 . S
O1230 C1250 1.266 . S
O1231 Tb1176 2.393 . S
O1231 C1250 1.248 . S
C1232 O1221 1.264 . S
C1232 O1222 1.243 . S
C1233 C1236 1.399 . S
C1233 C1238 1.383 . S
C1233 C1240 1.496 . S
C1234 C1235 1.399 . S
C1234 C1238 1.389 . S
C1235 C1234 1.399 . S
C1235 C1237 1.380 . S
C1235 H1252 0.929 . S
C1236 C1233 1.399 . S
C1236 C1237 1.392 . S
C1236 H1253 0.929 . S
C1237 C1235 1.380 . S
C1237 C1236 1.392 . S
C1237 H1254 0.929 . S
C1238 C1233 1.383 . S
C1238 C1234 1.389 . S
C1238 H1255 0.931 . S
C1239 O1224 1.266 . S
C1239 O1225 1.248 . S
C1240 Tb1176 2.802 . S
C1240 O1220 1.264 . S
C1240 O1223 1.256 . S
C1240 C1233 1.496 . S
C1241 C1208 1.448 . S
C1241 H1218 0.930 . S
C1241 C1242 1.328 . S
C1242 C1213 1.427 . S
C1242 H1219 0.929 . S
C1242 C1241 1.328 . S
C1243 O1227 1.264 . S
C1243 O1228 1.243 . S
C1244 C1247 1.399 . S
C1244 C1248 1.383 . S
C1244 C1251 1.496 1_655 S
C1245 C1246 1.399 . S
C1245 C1248 1.389 . S
C1246 C1245 1.399 . S
C1246 C1249 1.380 . S
C1246 H1256 0.929 . S
C1247 C1244 1.399 . S
C1247 C1249 1.392 . S
C1247 H1257 0.929 . S
C1248 C1244 1.383 . S
C1248 C1245 1.389 . S
C1248 H1258 0.931 . S
C1249 C1246 1.380 . S
C1249 C1247 1.392 . S
C1249 H1259 0.929 . S
C1250 O1230 1.266 . S
C1250 O1231 1.248 . S
C1251 Tb1187 2.802 . S
C1251 O1226 1.264 . S
C1251 O1229 1.256 . S
C1251 C1244 1.496 1_455 S
H1252 C1235 0.929 . S
H1253 C1236 0.929 . S
H1254 C1237 0.929 . S
H1255 C1238 0.931 . S
H1256 C1246 0.929 . S
H1257 C1247 0.929 . S
H1258 C1248 0.931 . S
H1259 C1249 0.929 . S
Tb1260 N1289 2.617 . S
Tb1260 N1295 2.572 . S
Tb1260 O1304 2.465 . S
Tb1260 O1305 2.387 . S
Tb1260 O1307 2.428 . S
Tb1260 O1308 2.308 . S
Tb1260 O1312 2.349 . S
Tb1260 O1315 2.393 . S
Tb1260 C1324 2.802 . S
C1261 N1262 1.379 . S
C1261 C1264 1.416 . S
C1261 C1268 1.424 . S
N1262 C1261 1.379 . S
N1262 C1265 1.334 . S
N1262 Tb1271 2.617 . S
C1263 C1265 1.390 . S
C1263 C1266 1.339 . S
C1263 H1283 0.930 . S
C1264 C1261 1.416 . S
C1264 C1266 1.416 . S
C1264 C1270 1.448 . S
C1265 N1262 1.334 . S
C1265 C1263 1.390 . S
C1265 H1276 0.930 . S
C1266 C1263 1.339 . S
C1266 C1264 1.416 . S
C1266 H1287 0.930 . S
C1267 C1268 1.413 . S
C1267 C1269 1.427 . S
C1267 C1273 1.416 . S
C1268 C1261 1.424 . S
C1268 C1267 1.413 . S
C1268 N1272 1.361 . S
C1269 C1267 1.427 . S
C1269 C1270 1.328 . S
C1269 H1284 0.929 . S
C1270 C1264 1.448 . S
C1270 C1269 1.328 . S
C1270 H1285 0.930 . S
Tb1271 N1262 2.617 . S
Tb1271 N1272 2.572 . S
Tb1271 O1306 2.349 . S
Tb1271 O1309 2.393 . S
Tb1271 O1310 2.465 . S
Tb1271 O1311 2.387 . S
Tb1271 O1313 2.428 . S
Tb1271 O1314 2.308 . S
Tb1271 C1335 2.802 . S
N1272 C1268 1.361 . S
N1272 Tb1271 2.572 . S
N1272 C1274 1.340 . S
C1273 C1267 1.416 . S
C1273 C1275 1.332 . S
C1273 H1281 0.931 . S
C1274 N1272 1.340 . S
C1274 C1275 1.407 . S
C1274 H1280 0.930 . S
C1275 C1273 1.332 . S
C1275 C1274 1.407 . S
C1275 H1277 0.929 . S
H1276 C1265 0.930 . S
H1277 C1275 0.929 . S
H1278 C1293 0.930 . S
H1279 C1300 0.929 . S
H1280 C1274 0.930 . S
H1281 C1273 0.931 . S
H1282 C1296 0.930 . S
H1283 C1263 0.930 . S
H1284 C1269 0.929 . S
H1285 C1270 0.930 . S
H1286 C1291 0.930 . S
H1287 C1266 0.930 . S
H1288 C1299 0.931 . S
N1289 Tb1260 2.617 . S
N1289 C1290 1.379 . S
N1289 C1293 1.334 . S
C1290 N1289 1.379 . S
C1290 C1292 1.416 . S
C1290 C1298 1.424 . S
C1291 H1286 0.930 . S
C1291 C1293 1.390 . S
C1291 C1294 1.339 . S
C1292 C1290 1.416 . S
C1292 C1294 1.416 . S
C1292 C1325 1.448 . S
C1293 H1278 0.930 . S
C1293 N1289 1.334 . S
C1293 C1291 1.390 . S
C1294 C1291 1.339 . S
C1294 C1292 1.416 . S
C1294 H1301 0.930 . S
N1295 Tb1260 2.572 . S
N1295 C1296 1.340 . S
N1295 C1298 1.361 . S
C1296 H1282 0.930 . S
C1296 N1295 1.340 . S
C1296 C1300 1.407 . S
C1297 C1298 1.413 . S
C1297 C1299 1.416 . S
C1297 C1326 1.427 . S
C1298 C1290 1.424 . S
C1298 N1295 1.361 . S
C1298 C1297 1.413 . S
C1299 H1288 0.931 . S
C1299 C1297 1.416 . S
C1299 C1300 1.332 . S
C1300 H1279 0.929 . S
C1300 C1296 1.407 . S
C1300 C1299 1.332 . S
H1301 C1294 0.930 . S
H1302 C1325 0.930 . S
H1303 C1326 0.929 . S
O1304 Tb1260 2.465 . S
O1304 C1324 1.264 . S
O1305 Tb1260 2.387 . S
O1305 C1316 1.264 . S
O1306 Tb1271 2.349 . S
O1306 C1316 1.243 . S
O1307 Tb1260 2.428 . S
O1307 C1324 1.256 . S
O1308 Tb1260 2.308 . S
O1308 C1323 1.266 . S
O1309 Tb1271 2.393 . S
O1309 C1323 1.248 . S
O1310 Tb1271 2.465 . S
O1310 C1335 1.264 . S
O1311 Tb1271 2.387 . S
O1311 C1327 1.264 . S
O1312 Tb1260 2.349 . S
O1312 C1327 1.243 . S
O1313 Tb1271 2.428 . S
O1313 C1335 1.256 . S
O1314 Tb1271 2.308 . S
O1314 C1334 1.266 . S
O1315 Tb1260 2.393 . S
O1315 C1334 1.248 . S
C1316 O1305 1.264 . S
C1316 O1306 1.243 . S
C1317 C1320 1.399 . S
C1317 C1322 1.383 . S
C1317 C1324 1.496 . S
C1318 C1319 1.399 . S
C1318 C1322 1.389 . S
C1319 C1318 1.399 . S
C1319 C1321 1.380 . S
C1319 H1336 0.929 . S
C1320 C1317 1.399 . S
C1320 C1321 1.392 . S
C1320 H1337 0.929 . S
C1321 C1319 1.380 . S
C1321 C1320 1.392 . S
C1321 H1338 0.929 . S
C1322 C1317 1.383 . S
C1322 C1318 1.389 . S
C1322 H1339 0.931 . S
C1323 O1308 1.266 . S
C1323 O1309 1.248 . S
C1324 Tb1260 2.802 . S
C1324 O1304 1.264 . S
C1324 O1307 1.256 . S
C1324 C1317 1.496 . S
C1325 C1292 1.448 . S
C1325 H1302 0.930 . S
C1325 C1326 1.328 . S
C1326 C1297 1.427 . S
C1326 H1303 0.929 . S
C1326 C1325 1.328 . S
C1327 O1311 1.264 . S
C1327 O1312 1.243 . S
C1328 C1331 1.399 . S
C1328 C1332 1.383 . S
C1328 C1335 1.496 . S
C1329 C1330 1.399 . S
C1329 C1332 1.389 . S
C1330 C1329 1.399 . S
C1330 C1333 1.380 . S
C1330 H1340 0.929 . S
C1331 C1328 1.399 . S
C1331 C1333 1.392 . S
C1331 H1341 0.929 . S
C1332 C1328 1.383 . S
C1332 C1329 1.389 . S
C1332 H1342 0.931 . S
C1333 C1330 1.380 . S
C1333 C1331 1.392 . S
C1333 H1343 0.929 . S
C1334 O1314 1.266 . S
C1334 O1315 1.248 . S
C1335 Tb1271 2.802 . S
C1335 O1310 1.264 . S
C1335 O1313 1.256 . S
C1335 C1328 1.496 . S
H1336 C1319 0.929 . S
H1337 C1320 0.929 . S
H1338 C1321 0.929 . S
H1339 C1322 0.931 . S
H1340 C1330 0.929 . S
H1341 C1331 0.929 . S
H1342 C1332 0.931 . S
H1343 C1333 0.929 . S
Tb1344 N1373 2.617 . S
Tb1344 N1379 2.572 . S
Tb1344 O1388 2.465 . S
Tb1344 O1389 2.387 . S
Tb1344 O1391 2.428 . S
Tb1344 O1392 2.308 . S
Tb1344 O1396 2.349 . S
Tb1344 O1399 2.393 . S
Tb1344 C1408 2.802 . S
C1345 N1346 1.379 . S
C1345 C1348 1.416 . S
C1345 C1352 1.424 . S
N1346 C1345 1.379 . S
N1346 C1349 1.334 . S
N1346 Tb1355 2.617 . S
C1347 C1349 1.390 . S
C1347 C1350 1.339 . S
C1347 H1367 0.930 . S
C1348 C1345 1.416 . S
C1348 C1350 1.416 . S
C1348 C1354 1.448 . S
C1349 N1346 1.334 . S
C1349 C1347 1.390 . S
C1349 H1360 0.930 . S
C1350 C1347 1.339 . S
C1350 C1348 1.416 . S
C1350 H1371 0.930 . S
C1351 C1352 1.413 . S
C1351 C1353 1.427 . S
C1351 C1357 1.416 . S
C1352 C1345 1.424 . S
C1352 C1351 1.413 . S
C1352 N1356 1.361 . S
C1353 C1351 1.427 . S
C1353 C1354 1.328 . S
C1353 H1368 0.929 . S
C1354 C1348 1.448 . S
C1354 C1353 1.328 . S
C1354 H1369 0.930 . S
Tb1355 N1346 2.617 . S
Tb1355 N1356 2.572 . S
Tb1355 O1390 2.349 . S
Tb1355 O1393 2.393 . S
Tb1355 O1394 2.465 . S
Tb1355 O1395 2.387 . S
Tb1355 O1397 2.428 . S
Tb1355 O1398 2.308 . S
Tb1355 C1419 2.802 . S
N1356 C1352 1.361 . S
N1356 Tb1355 2.572 . S
N1356 C1358 1.340 . S
C1357 C1351 1.416 . S
C1357 C1359 1.332 . S
C1357 H1365 0.931 . S
C1358 N1356 1.340 . S
C1358 C1359 1.407 . S
C1358 H1364 0.930 . S
C1359 C1357 1.332 . S
C1359 C1358 1.407 . S
C1359 H1361 0.929 . S
H1360 C1349 0.930 . S
H1361 C1359 0.929 . S
H1362 C1377 0.930 . S
H1363 C1384 0.929 . S
H1364 C1358 0.930 . S
H1365 C1357 0.931 . S
H1366 C1380 0.930 . S
H1367 C1347 0.930 . S
H1368 C1353 0.929 . S
H1369 C1354 0.930 . S
H1370 C1375 0.930 . S
H1371 C1350 0.930 . S
H1372 C1383 0.931 . S
N1373 Tb1344 2.617 . S
N1373 C1374 1.379 . S
N1373 C1377 1.334 . S
C1374 N1373 1.379 . S
C1374 C1376 1.416 . S
C1374 C1382 1.424 . S
C1375 H1370 0.930 . S
C1375 C1377 1.390 . S
C1375 C1378 1.339 . S
C1376 C1374 1.416 . S
C1376 C1378 1.416 . S
C1376 C1409 1.448 . S
C1377 H1362 0.930 . S
C1377 N1373 1.334 . S
C1377 C1375 1.390 . S
C1378 C1375 1.339 . S
C1378 C1376 1.416 . S
C1378 H1385 0.930 . S
N1379 Tb1344 2.572 . S
N1379 C1380 1.340 . S
N1379 C1382 1.361 . S
C1380 H1366 0.930 . S
C1380 N1379 1.340 . S
C1380 C1384 1.407 . S
C1381 C1382 1.413 . S
C1381 C1383 1.416 . S
C1381 C1410 1.427 . S
C1382 C1374 1.424 . S
C1382 N1379 1.361 . S
C1382 C1381 1.413 . S
C1383 H1372 0.931 . S
C1383 C1381 1.416 . S
C1383 C1384 1.332 . S
C1384 H1363 0.929 . S
C1384 C1380 1.407 . S
C1384 C1383 1.332 . S
H1385 C1378 0.930 . S
H1386 C1409 0.930 . S
H1387 C1410 0.929 . S
O1388 Tb1344 2.465 . S
O1388 C1408 1.264 . S
O1389 Tb1344 2.387 . S
O1389 C1400 1.264 . S
O1390 Tb1355 2.349 . S
O1390 C1400 1.243 . S
O1391 Tb1344 2.428 . S
O1391 C1408 1.256 . S
O1392 Tb1344 2.308 . S
O1392 C1407 1.266 . S
O1393 Tb1355 2.393 . S
O1393 C1407 1.248 . S
O1394 Tb1355 2.465 . S
O1394 C1419 1.264 . S
O1395 Tb1355 2.387 . S
O1395 C1411 1.264 . S
O1396 Tb1344 2.349 . S
O1396 C1411 1.243 . S
O1397 Tb1355 2.428 . S
O1397 C1419 1.256 . S
O1398 Tb1355 2.308 . S
O1398 C1418 1.266 . S
O1399 Tb1344 2.393 . S
O1399 C1418 1.248 . S
C1400 O1389 1.264 . S
C1400 O1390 1.243 . S
C1401 C1404 1.399 . S
C1401 C1406 1.383 . S
C1401 C1408 1.496 . S
C1402 C1403 1.399 . S
C1402 C1406 1.389 . S
C1403 C1402 1.399 . S
C1403 C1405 1.380 . S
C1403 H1420 0.929 . S
C1404 C1401 1.399 . S
C1404 C1405 1.392 . S
C1404 H1421 0.929 . S
C1405 C1403 1.380 . S
C1405 C1404 1.392 . S
C1405 H1422 0.929 . S
C1406 C1401 1.383 . S
C1406 C1402 1.389 . S
C1406 H1423 0.931 . S
C1407 O1392 1.266 . S
C1407 O1393 1.248 . S
C1408 Tb1344 2.802 . S
C1408 O1388 1.264 . S
C1408 O1391 1.256 . S
C1408 C1401 1.496 . S
C1409 C1376 1.448 . S
C1409 H1386 0.930 . S
C1409 C1410 1.328 . S
C1410 C1381 1.427 . S
C1410 H1387 0.929 . S
C1410 C1409 1.328 . S
C1411 O1395 1.264 . S
C1411 O1396 1.243 . S
C1412 C1415 1.399 . S
C1412 C1416 1.383 . S
C1412 C1419 1.496 . S
C1413 C1414 1.399 . S
C1413 C1416 1.389 . S
C1414 C1413 1.399 . S
C1414 C1417 1.380 . S
C1414 H1424 0.929 . S
C1415 C1412 1.399 . S
C1415 C1417 1.392 . S
C1415 H1425 0.929 . S
C1416 C1412 1.383 . S
C1416 C1413 1.389 . S
C1416 H1426 0.931 . S
C1417 C1414 1.380 . S
C1417 C1415 1.392 . S
C1417 H1427 0.929 . S
C1418 O1398 1.266 . S
C1418 O1399 1.248 . S
C1419 Tb1355 2.802 . S
C1419 O1394 1.264 . S
C1419 O1397 1.256 . S
C1419 C1412 1.496 . S
H1420 C1403 0.929 . S
H1421 C1404 0.929 . S
H1422 C1405 0.929 . S
H1423 C1406 0.931 . S
H1424 C1414 0.929 . S
H1425 C1415 0.929 . S
H1426 C1416 0.931 . S
H1427 C1417 0.929 . S
Tb1428 N1457 2.617 . S
Tb1428 N1463 2.572 . S
Tb1428 O1472 2.465 . S
Tb1428 O1473 2.387 . S
Tb1428 O1475 2.428 . S
Tb1428 O1476 2.308 . S
Tb1428 O1480 2.349 . S
Tb1428 O1483 2.393 . S
Tb1428 C1492 2.802 . S
C1429 N1430 1.379 . S
C1429 C1432 1.416 . S
C1429 C1436 1.424 . S
N1430 C1429 1.379 . S
N1430 C1433 1.334 . S
N1430 Tb1439 2.617 . S
C1431 C1433 1.390 . S
C1431 C1434 1.339 . S
C1431 H1451 0.930 . S
C1432 C1429 1.416 . S
C1432 C1434 1.416 . S
C1432 C1438 1.448 . S
C1433 N1430 1.334 . S
C1433 C1431 1.390 . S
C1433 H1444 0.930 . S
C1434 C1431 1.339 . S
C1434 C1432 1.416 . S
C1434 H1455 0.930 . S
C1435 C1436 1.413 . S
C1435 C1437 1.427 . S
C1435 C1441 1.416 . S
C1436 C1429 1.424 . S
C1436 C1435 1.413 . S
C1436 N1440 1.361 . S
C1437 C1435 1.427 . S
C1437 C1438 1.328 . S
C1437 H1452 0.929 . S
C1438 C1432 1.448 . S
C1438 C1437 1.328 . S
C1438 H1453 0.930 . S
Tb1439 N1430 2.617 . S
Tb1439 N1440 2.572 . S
Tb1439 O1474 2.349 . S
Tb1439 O1477 2.393 . S
Tb1439 O1478 2.465 . S
Tb1439 O1479 2.387 . S
Tb1439 O1481 2.428 . S
Tb1439 O1482 2.308 . S
Tb1439 C1503 2.802 . S
N1440 C1436 1.361 . S
N1440 Tb1439 2.572 . S
N1440 C1442 1.340 . S
C1441 C1435 1.416 . S
C1441 C1443 1.332 . S
C1441 H1449 0.931 . S
C1442 N1440 1.340 . S
C1442 C1443 1.407 . S
C1442 H1448 0.930 . S
C1443 C1441 1.332 . S
C1443 C1442 1.407 . S
C1443 H1445 0.929 . S
H1444 C1433 0.930 . S
H1445 C1443 0.929 . S
H1446 C1461 0.930 . S
H1447 C1468 0.929 . S
H1448 C1442 0.930 . S
H1449 C1441 0.931 . S
H1450 C1464 0.930 . S
H1451 C1431 0.930 . S
H1452 C1437 0.929 . S
H1453 C1438 0.930 . S
H1454 C1459 0.930 . S
H1455 C1434 0.930 . S
H1456 C1467 0.931 . S
N1457 Tb1428 2.617 . S
N1457 C1458 1.379 . S
N1457 C1461 1.334 . S
C1458 N1457 1.379 . S
C1458 C1460 1.416 . S
C1458 C1466 1.424 . S
C1459 H1454 0.930 . S
C1459 C1461 1.390 . S
C1459 C1462 1.339 . S
C1460 C1458 1.416 . S
C1460 C1462 1.416 . S
C1460 C1493 1.448 . S
C1461 H1446 0.930 . S
C1461 N1457 1.334 . S
C1461 C1459 1.390 . S
C1462 C1459 1.339 . S
C1462 C1460 1.416 . S
C1462 H1469 0.930 . S
N1463 Tb1428 2.572 . S
N1463 C1464 1.340 . S
N1463 C1466 1.361 . S
C1464 H1450 0.930 . S
C1464 N1463 1.340 . S
C1464 C1468 1.407 . S
C1465 C1466 1.413 . S
C1465 C1467 1.416 . S
C1465 C1494 1.427 . S
C1466 C1458 1.424 . S
C1466 N1463 1.361 . S
C1466 C1465 1.413 . S
C1467 H1456 0.931 . S
C1467 C1465 1.416 . S
C1467 C1468 1.332 . S
C1468 H1447 0.929 . S
C1468 C1464 1.407 . S
C1468 C1467 1.332 . S
H1469 C1462 0.930 . S
H1470 C1493 0.930 . S
H1471 C1494 0.929 . S
O1472 Tb1428 2.465 . S
O1472 C1492 1.264 . S
O1473 Tb1428 2.387 . S
O1473 C1484 1.264 . S
O1474 Tb1439 2.349 . S
O1474 C1484 1.243 . S
O1475 Tb1428 2.428 . S
O1475 C1492 1.256 . S
O1476 Tb1428 2.308 . S
O1476 C1491 1.266 . S
O1477 Tb1439 2.393 . S
O1477 C1491 1.248 . S
O1478 Tb1439 2.465 . S
O1478 C1503 1.264 . S
O1479 Tb1439 2.387 . S
O1479 C1495 1.264 . S
O1480 Tb1428 2.349 . S
O1480 C1495 1.243 . S
O1481 Tb1439 2.428 . S
O1481 C1503 1.256 . S
O1482 Tb1439 2.308 . S
O1482 C1502 1.266 . S
O1483 Tb1428 2.393 . S
O1483 C1502 1.248 . S
C1484 O1473 1.264 . S
C1484 O1474 1.243 . S
C1485 C1488 1.399 . S
C1485 C1490 1.383 . S
C1485 C1492 1.496 . S
C1486 C1487 1.399 . S
C1486 C1490 1.389 . S
C1487 C1486 1.399 . S
C1487 C1489 1.380 . S
C1487 H1504 0.929 . S
C1488 C1485 1.399 . S
C1488 C1489 1.392 . S
C1488 H1505 0.929 . S
C1489 C1487 1.380 . S
C1489 C1488 1.392 . S
C1489 H1506 0.929 . S
C1490 C1485 1.383 . S
C1490 C1486 1.389 . S
C1490 H1507 0.931 . S
C1491 O1476 1.266 . S
C1491 O1477 1.248 . S
C1492 Tb1428 2.802 . S
C1492 O1472 1.264 . S
C1492 O1475 1.256 . S
C1492 C1485 1.496 . S
C1493 C1460 1.448 . S
C1493 H1470 0.930 . S
C1493 C1494 1.328 . S
C1494 C1465 1.427 . S
C1494 H1471 0.929 . S
C1494 C1493 1.328 . S
C1495 O1479 1.264 . S
C1495 O1480 1.243 . S
C1496 C1499 1.399 . S
C1496 C1500 1.383 . S
C1496 C1503 1.496 . S
C1497 C1498 1.399 . S
C1497 C1500 1.389 . S
C1498 C1497 1.399 . S
C1498 C1501 1.380 . S
C1498 H1508 0.929 . S
C1499 C1496 1.399 . S
C1499 C1501 1.392 . S
C1499 H1509 0.929 . S
C1500 C1496 1.383 . S
C1500 C1497 1.389 . S
C1500 H1510 0.931 . S
C1501 C1498 1.380 . S
C1501 C1499 1.392 . S
C1501 H1511 0.929 . S
C1502 O1482 1.266 . S
C1502 O1483 1.248 . S
C1503 Tb1439 2.802 . S
C1503 O1478 1.264 . S
C1503 O1481 1.256 . S
C1503 C1496 1.496 . S
H1504 C1487 0.929 . S
H1505 C1488 0.929 . S
H1506 C1489 0.929 . S
H1507 C1490 0.931 . S
H1508 C1498 0.929 . S
H1509 C1499 0.929 . S
H1510 C1500 0.931 . S
H1511 C1501 0.929 . S
Tb1512 N1541 2.617 . S
Tb1512 N1547 2.572 . S
Tb1512 O1556 2.465 . S
Tb1512 O1557 2.387 . S
Tb1512 O1559 2.428 . S
Tb1512 O1560 2.308 . S
Tb1512 O1564 2.349 . S
Tb1512 O1567 2.393 . S
Tb1512 C1576 2.802 . S
C1513 N1514 1.379 . S
C1513 C1516 1.416 . S
C1513 C1520 1.424 . S
N1514 C1513 1.379 . S
N1514 C1517 1.334 . S
N1514 Tb1523 2.617 . S
C1515 C1517 1.390 . S
C1515 C1518 1.339 . S
C1515 H1535 0.930 . S
C1516 C1513 1.416 . S
C1516 C1518 1.416 . S
C1516 C1522 1.448 . S
C1517 N1514 1.334 . S
C1517 C1515 1.390 . S
C1517 H1528 0.930 . S
C1518 C1515 1.339 . S
C1518 C1516 1.416 . S
C1518 H1539 0.930 . S
C1519 C1520 1.413 . S
C1519 C1521 1.427 . S
C1519 C1525 1.416 . S
C1520 C1513 1.424 . S
C1520 C1519 1.413 . S
C1520 N1524 1.361 . S
C1521 C1519 1.427 . S
C1521 C1522 1.328 . S
C1521 H1536 0.929 . S
C1522 C1516 1.448 . S
C1522 C1521 1.328 . S
C1522 H1537 0.930 . S
Tb1523 N1514 2.617 . S
Tb1523 N1524 2.572 . S
Tb1523 O1558 2.349 . S
Tb1523 O1561 2.393 . S
Tb1523 O1562 2.465 . S
Tb1523 O1563 2.387 . S
Tb1523 O1565 2.428 . S
Tb1523 O1566 2.308 . S
Tb1523 C1587 2.802 . S
N1524 C1520 1.361 . S
N1524 Tb1523 2.572 . S
N1524 C1526 1.340 . S
C1525 C1519 1.416 . S
C1525 C1527 1.332 . S
C1525 H1533 0.931 . S
C1526 N1524 1.340 . S
C1526 C1527 1.407 . S
C1526 H1532 0.930 . S
C1527 C1525 1.332 . S
C1527 C1526 1.407 . S
C1527 H1529 0.929 . S
H1528 C1517 0.930 . S
H1529 C1527 0.929 . S
H1530 C1545 0.930 . S
H1531 C1552 0.929 . S
H1532 C1526 0.930 . S
H1533 C1525 0.931 . S
H1534 C1548 0.930 . S
H1535 C1515 0.930 . S
H1536 C1521 0.929 . S
H1537 C1522 0.930 . S
H1538 C1543 0.930 . S
H1539 C1518 0.930 . S
H1540 C1551 0.931 . S
N1541 Tb1512 2.617 . S
N1541 C1542 1.379 . S
N1541 C1545 1.334 . S
C1542 N1541 1.379 . S
C1542 C1544 1.416 . S
C1542 C1550 1.424 . S
C1543 H1538 0.930 . S
C1543 C1545 1.390 . S
C1543 C1546 1.339 . S
C1544 C1542 1.416 . S
C1544 C1546 1.416 . S
C1544 C1577 1.448 . S
C1545 H1530 0.930 . S
C1545 N1541 1.334 . S
C1545 C1543 1.390 . S
C1546 C1543 1.339 . S
C1546 C1544 1.416 . S
C1546 H1553 0.930 . S
N1547 Tb1512 2.572 . S
N1547 C1548 1.340 . S
N1547 C1550 1.361 . S
C1548 H1534 0.930 . S
C1548 N1547 1.340 . S
C1548 C1552 1.407 . S
C1549 C1550 1.413 . S
C1549 C1551 1.416 . S
C1549 C1578 1.427 . S
C1550 C1542 1.424 . S
C1550 N1547 1.361 . S
C1550 C1549 1.413 . S
C1551 H1540 0.931 . S
C1551 C1549 1.416 . S
C1551 C1552 1.332 . S
C1552 H1531 0.929 . S
C1552 C1548 1.407 . S
C1552 C1551 1.332 . S
H1553 C1546 0.930 . S
H1554 C1577 0.930 . S
H1555 C1578 0.929 . S
O1556 Tb1512 2.465 . S
O1556 C1576 1.264 . S
O1557 Tb1512 2.387 . S
O1557 C1568 1.264 . S
O1558 Tb1523 2.349 . S
O1558 C1568 1.243 . S
O1559 Tb1512 2.428 . S
O1559 C1576 1.256 . S
O1560 Tb1512 2.308 . S
O1560 C1575 1.266 . S
O1561 Tb1523 2.393 . S
O1561 C1575 1.248 . S
O1562 Tb1523 2.465 . S
O1562 C1587 1.264 . S
O1563 Tb1523 2.387 . S
O1563 C1579 1.264 . S
O1564 Tb1512 2.349 . S
O1564 C1579 1.243 . S
O1565 Tb1523 2.428 . S
O1565 C1587 1.256 . S
O1566 Tb1523 2.308 . S
O1566 C1586 1.266 . S
O1567 Tb1512 2.393 . S
O1567 C1586 1.248 . S
C1568 O1557 1.264 . S
C1568 O1558 1.243 . S
C1569 C1572 1.399 . S
C1569 C1574 1.383 . S
C1569 C1576 1.496 . S
C1570 C1571 1.399 . S
C1570 C1574 1.389 . S
C1571 C1570 1.399 . S
C1571 C1573 1.380 . S
C1571 H1588 0.929 . S
C1572 C1569 1.399 . S
C1572 C1573 1.392 . S
C1572 H1589 0.929 . S
C1573 C1571 1.380 . S
C1573 C1572 1.392 . S
C1573 H1590 0.929 . S
C1574 C1569 1.383 . S
C1574 C1570 1.389 . S
C1574 H1591 0.931 . S
C1575 O1560 1.266 . S
C1575 O1561 1.248 . S
C1576 Tb1512 2.802 . S
C1576 O1556 1.264 . S
C1576 O1559 1.256 . S
C1576 C1569 1.496 . S
C1577 C1544 1.448 . S
C1577 H1554 0.930 . S
C1577 C1578 1.328 . S
C1578 C1549 1.427 . S
C1578 H1555 0.929 . S
C1578 C1577 1.328 . S
C1579 O1563 1.264 . S
C1579 O1564 1.243 . S
C1580 C1583 1.399 . S
C1580 C1584 1.383 . S
C1580 C1587 1.496 . S
C1581 C1582 1.399 . S
C1581 C1584 1.389 . S
C1582 C1581 1.399 . S
C1582 C1585 1.380 . S
C1582 H1592 0.929 . S
C1583 C1580 1.399 . S
C1583 C1585 1.392 . S
C1583 H1593 0.929 . S
C1584 C1580 1.383 . S
C1584 C1581 1.389 . S
C1584 H1594 0.931 . S
C1585 C1582 1.380 . S
C1585 C1583 1.392 . S
C1585 H1595 0.929 . S
C1586 O1566 1.266 . S
C1586 O1567 1.248 . S
C1587 Tb1523 2.802 . S
C1587 O1562 1.264 . S
C1587 O1565 1.256 . S
C1587 C1580 1.496 . S
H1588 C1571 0.929 . S
H1589 C1572 0.929 . S
H1590 C1573 0.929 . S
H1591 C1574 0.931 . S
H1592 C1582 0.929 . S
H1593 C1583 0.929 . S
H1594 C1584 0.931 . S
H1595 C1585 0.929 . S
Tb1596 N1625 2.617 1_455 S
Tb1596 N1631 2.572 1_455 S
Tb1596 O1640 2.465 1_455 S
Tb1596 O1641 2.387 . S
Tb1596 O1643 2.428 1_455 S
Tb1596 O1644 2.308 . S
Tb1596 O1648 2.349 . S
Tb1596 O1651 2.393 . S
Tb1596 C1660 2.802 1_455 S
C1597 N1598 1.379 . S
C1597 C1600 1.416 . S
C1597 C1604 1.424 . S
N1598 C1597 1.379 . S
N1598 C1601 1.334 1_554 S
N1598 Tb1607 2.617 . S
C1599 C1601 1.390 . S
C1599 C1602 1.339 . S
C1599 H1619 0.930 . S
C1600 C1597 1.416 . S
C1600 C1602 1.416 1_554 S
C1600 C1606 1.448 . S
C1601 N1598 1.334 1_556 S
C1601 C1599 1.390 . S
C1601 H1612 0.930 . S
C1602 C1599 1.339 . S
C1602 C1600 1.416 1_556 S
C1602 H1623 0.930 . S
C1603 C1604 1.413 . S
C1603 C1605 1.427 . S
C1603 C1609 1.416 . S
C1604 C1597 1.424 . S
C1604 C1603 1.413 . S
C1604 N1608 1.361 . S
C1605 C1603 1.427 . S
C1605 C1606 1.328 . S
C1605 H1620 0.929 . S
C1606 C1600 1.448 . S
C1606 C1605 1.328 . S
C1606 H1621 0.930 . S
Tb1607 N1598 2.617 . S
Tb1607 N1608 2.572 . S
Tb1607 O1642 2.349 . S
Tb1607 O1645 2.393 . S
Tb1607 O1646 2.465 . S
Tb1607 O1647 2.387 . S
Tb1607 O1649 2.428 . S
Tb1607 O1650 2.308 . S
Tb1607 C1671 2.802 . S
N1608 C1604 1.361 . S
N1608 Tb1607 2.572 . S
N1608 C1610 1.340 . S
C1609 C1603 1.416 . S
C1609 C1611 1.332 . S
C1609 H1617 0.931 . S
C1610 N1608 1.340 . S
C1610 C1611 1.407 . S
C1610 H1616 0.930 . S
C1611 C1609 1.332 . S
C1611 C1610 1.407 . S
C1611 H1613 0.929 . S
H1612 C1601 0.930 . S
H1613 C1611 0.929 . S
H1614 C1629 0.929 . S
H1615 C1636 0.929 . S
H1616 C1610 0.930 . S
H1617 C1609 0.931 . S
H1618 C1632 0.930 . S
H1619 C1599 0.930 . S
H1620 C1605 0.929 . S
H1621 C1606 0.930 . S
H1622 C1627 0.930 1_455 S
H1623 C1602 0.930 . S
H1624 C1635 0.931 . S
N1625 Tb1596 2.617 1_655 S
N1625 C1626 1.379 . S
N1625 C1629 1.335 1_655 S
C1626 N1625 1.379 . S
C1626 C1628 1.416 . S
C1626 C1634 1.424 . S
C1627 H1622 0.930 1_655 S
C1627 C1629 1.390 1_655 S
C1627 C1630 1.339 . S
C1628 C1626 1.416 . S
C1628 C1630 1.416 . S
C1628 C1661 1.448 . S
C1629 H1614 0.929 . S
C1629 N1625 1.335 1_455 S
C1629 C1627 1.390 1_455 S
C1630 C1627 1.339 . S
C1630 C1628 1.416 . S
C1630 H1637 0.930 . S
N1631 Tb1596 2.572 1_655 S
N1631 C1632 1.340 . S
N1631 C1634 1.361 . S
C1632 H1618 0.930 . S
C1632 N1631 1.340 . S
C1632 C1636 1.407 . S
C1633 C1634 1.413 . S
C1633 C1635 1.416 . S
C1633 C1662 1.427 . S
C1634 C1626 1.424 . S
C1634 N1631 1.361 . S
C1634 C1633 1.413 . S
C1635 H1624 0.931 . S
C1635 C1633 1.416 . S
C1635 C1636 1.332 . S
C1636 H1615 0.929 . S
C1636 C1632 1.407 . S
C1636 C1635 1.332 . S
H1637 C1630 0.930 . S
H1638 C1661 0.930 . S
H1639 C1662 0.929 . S
O1640 Tb1596 2.465 1_655 S
O1640 C1660 1.264 . S
O1641 Tb1596 2.387 . S
O1641 C1652 1.264 . S
O1642 Tb1607 2.349 . S
O1642 C1652 1.243 . S
O1643 Tb1596 2.428 1_655 S
O1643 C1660 1.256 . S
O1644 Tb1596 2.308 . S
O1644 C1659 1.266 . S
O1645 Tb1607 2.393 . S
O1645 C1659 1.248 . S
O1646 Tb1607 2.465 . S
O1646 C1671 1.264 . S
O1647 Tb1607 2.387 . S
O1647 C1663 1.264 . S
O1648 Tb1596 2.349 . S
O1648 C1663 1.243 . S
O1649 Tb1607 2.428 . S
O1649 C1671 1.256 . S
O1650 Tb1607 2.308 . S
O1650 C1670 1.266 . S
O1651 Tb1596 2.393 . S
O1651 C1670 1.248 . S
C1652 O1641 1.264 . S
C1652 O1642 1.243 . S
C1653 C1656 1.399 . S
C1653 C1658 1.383 . S
C1653 C1660 1.496 . S
C1654 C1655 1.399 . S
C1654 C1658 1.389 . S
C1655 C1654 1.399 . S
C1655 C1657 1.380 . S
C1655 H1672 0.929 . S
C1656 C1653 1.399 . S
C1656 C1657 1.392 . S
C1656 H1673 0.929 . S
C1657 C1655 1.380 . S
C1657 C1656 1.392 . S
C1657 H1674 0.929 . S
C1658 C1653 1.383 . S
C1658 C1654 1.389 . S
C1658 H1675 0.931 . S
C1659 O1644 1.266 . S
C1659 O1645 1.248 . S
C1660 Tb1596 2.802 1_655 S
C1660 O1640 1.264 . S
C1660 O1643 1.256 . S
C1660 C1653 1.496 . S
C1661 C1628 1.448 . S
C1661 H1638 0.930 . S
C1661 C1662 1.328 . S
C1662 C1633 1.427 . S
C1662 H1639 0.929 . S
C1662 C1661 1.328 . S
C1663 O1647 1.264 . S
C1663 O1648 1.243 . S
C1664 C1667 1.399 . S
C1664 C1668 1.383 . S
C1664 C1671 1.496 . S
C1665 C1666 1.399 . S
C1665 C1668 1.389 . S
C1666 C1665 1.399 . S
C1666 C1669 1.386 . S
C1666 H1676 0.929 . S
C1667 C1664 1.399 . S
C1667 C1669 1.394 . S
C1667 H1677 0.929 1_554 S
C1668 C1664 1.383 . S
C1668 C1665 1.389 . S
C1668 H1678 0.931 . S
C1669 C1666 1.386 . S
C1669 C1667 1.394 . S
C1669 H1679 0.920 1_554 S
C1670 O1650 1.266 . S
C1670 O1651 1.248 . S
C1671 Tb1607 2.802 . S
C1671 O1646 1.264 . S
C1671 O1649 1.256 . S
C1671 C1664 1.496 . S
H1672 C1655 0.929 . S
H1673 C1656 0.929 . S
H1674 C1657 0.929 . S
H1675 C1658 0.931 . S
H1676 C1666 0.929 . S
H1677 C1667 0.929 1_556 S
H1678 C1668 0.931 . S
H1679 C1669 0.920 1_556 S
H1680 C1686 0.930 . S
H1681 C1689 0.930 . S
H1682 C1690 0.930 . S
H1683 C1691 0.930 . S
H1684 C1694 0.938 . S
H1685 C1695 0.930 . S
C1686 H1680 0.930 . S
C1686 C1687 1.353 1_654 S
C1686 C1688 1.415 1_655 S
C1687 C1686 1.353 1_456 S
C1687 C1689 1.425 . S
C1688 C1686 1.415 1_455 S
C1688 C1693 1.425 . S
C1688 C1695 1.409 1_455 S
C1689 H1681 0.930 . S
C1689 C1687 1.425 . S
C1689 C1690 1.362 . S
C1690 H1682 0.930 . S
C1690 C1689 1.362 . S
C1690 C1693 1.409 1_556 S
C1691 H1683 0.930 . S
C1691 C1692 1.355 . S
C1691 C1693 1.415 . S
C1692 C1691 1.355 . S
C1692 C1694 1.419 . S
C1693 C1688 1.425 . S
C1693 C1690 1.409 1_554 S
C1693 C1691 1.415 . S
C1694 H1684 0.938 . S
C1694 C1692 1.419 . S
C1694 C1695 1.362 1_455 S
C1695 H1685 0.930 . S
C1695 C1688 1.409 1_655 S
C1695 C1694 1.362 1_655 S
H1696 C1702 0.930 . S
H1697 C1705 0.930 . S
H1698 C1706 0.930 . S
H1699 C1707 0.930 . S
H1700 C1710 0.930 . S
H1701 C1711 0.930 . S
C1702 H1696 0.930 . S
C1702 C1703 1.355 . S
C1702 C1704 1.415 . S
C1703 C1702 1.355 . S
C1703 C1705 1.419 . S
C1704 C1702 1.415 . S
C1704 C1709 1.425 . S
C1704 C1711 1.409 . S
C1705 H1697 0.930 . S
C1705 C1703 1.419 . S
C1705 C1706 1.362 . S
C1706 H1698 0.930 . S
C1706 C1705 1.362 . S
C1706 C1709 1.409 . S
C1707 H1699 0.930 . S
C1707 C1708 1.355 . S
C1707 C1709 1.415 . S
C1708 C1707 1.355 . S
C1708 C1710 1.419 . S
C1709 C1704 1.425 . S
C1709 C1706 1.409 . S
C1709 C1707 1.415 . S
C1710 H1700 0.930 . S
C1710 C1708 1.419 . S
C1710 C1711 1.362 . S
C1711 H1701 0.930 . S
C1711 C1704 1.409 . S
C1711 C1710 1.362 . S
H1712 C1718 0.930 . S
H1713 C1721 0.930 . S
H1714 C1722 0.930 . S
H1715 C1723 0.930 . S
H1716 C1726 0.930 . S
H1717 C1727 0.930 . S
C1718 H1712 0.930 . S
C1718 C1719 1.355 . S
C1718 C1720 1.415 . S
C1719 C1718 1.355 . S
C1719 C1721 1.419 . S
C1720 C1718 1.415 . S
C1720 C1725 1.425 . S
C1720 C1727 1.409 . S
C1721 H1713 0.930 . S
C1721 C1719 1.419 . S
C1721 C1722 1.362 . S
C1722 H1714 0.930 . S
C1722 C1721 1.362 . S
C1722 C1725 1.409 . S
C1723 H1715 0.930 . S
C1723 C1724 1.355 . S
C1723 C1725 1.415 . S
C1724 C1723 1.355 . S
C1724 C1726 1.419 . S
C1725 C1720 1.425 . S
C1725 C1722 1.409 . S
C1725 C1723 1.415 . S
C1726 H1716 0.930 . S
C1726 C1724 1.419 . S
C1726 C1727 1.362 . S
C1727 H1717 0.930 . S
C1727 C1720 1.409 . S
C1727 C1726 1.362 . S
H1728 C1734 0.930 . S
H1729 C1737 0.930 . S
H1730 C1738 0.930 . S
H1731 C1739 0.930 . S
H1732 C1742 0.930 . S
H1733 C1743 0.930 . S
C1734 H1728 0.930 . S
C1734 C1735 1.355 . S
C1734 C1736 1.415 . S
C1735 C1734 1.355 . S
C1735 C1737 1.419 . S
C1736 C1734 1.415 . S
C1736 C1741 1.425 . S
C1736 C1743 1.409 . S
C1737 H1729 0.930 . S
C1737 C1735 1.419 . S
C1737 C1738 1.362 . S
C1738 H1730 0.930 . S
C1738 C1737 1.362 . S
C1738 C1741 1.409 . S
C1739 H1731 0.930 . S
C1739 C1740 1.355 . S
C1739 C1741 1.415 . S
C1740 C1739 1.355 . S
C1740 C1742 1.419 . S
C1741 C1736 1.425 . S
C1741 C1738 1.409 . S
C1741 C1739 1.415 . S
C1742 H1732 0.930 . S
C1742 C1740 1.419 . S
C1742 C1743 1.362 . S
C1743 H1733 0.930 . S
C1743 C1736 1.409 . S
C1743 C1742 1.362 . S
H1744 C1750 0.930 . S
H1745 C1753 0.930 . S
H1746 C1754 0.930 . S
H1747 C1755 0.930 . S
H1748 C1758 0.930 . S
H1749 C1759 0.930 . S
C1750 H1744 0.930 . S
C1750 C1751 1.355 . S
C1750 C1752 1.415 . S
C1751 C1750 1.355 . S
C1751 C1753 1.419 . S
C1752 C1750 1.415 . S
C1752 C1757 1.425 . S
C1752 C1759 1.409 . S
C1753 H1745 0.930 . S
C1753 C1751 1.419 . S
C1753 C1754 1.362 . S
C1754 H1746 0.930 . S
C1754 C1753 1.362 . S
C1754 C1757 1.409 . S
C1755 H1747 0.930 . S
C1755 C1756 1.355 . S
C1755 C1757 1.415 . S
C1756 C1755 1.355 . S
C1756 C1758 1.419 . S
C1757 C1752 1.425 . S
C1757 C1754 1.409 . S
C1757 C1755 1.415 . S
C1758 H1748 0.930 . S
C1758 C1756 1.419 . S
C1758 C1759 1.362 . S
C1759 H1749 0.930 . S
C1759 C1752 1.409 . S
C1759 C1758 1.362 . S
H1760 C1766 0.930 . S
H1761 C1769 0.930 . S
H1762 C1770 0.930 . S
H1763 C1771 0.930 . S
H1764 C1774 0.930 . S
H1765 C1775 0.930 . S
C1766 H1760 0.930 . S
C1766 C1767 1.355 . S
C1766 C1768 1.415 . S
C1767 C1766 1.355 . S
C1767 C1769 1.419 . S
C1768 C1766 1.415 . S
C1768 C1773 1.425 . S
C1768 C1775 1.409 . S
C1769 H1761 0.930 . S
C1769 C1767 1.419 . S
C1769 C1770 1.362 . S
C1770 H1762 0.930 . S
C1770 C1769 1.362 . S
C1770 C1773 1.409 . S
C1771 H1763 0.930 . S
C1771 C1772 1.355 . S
C1771 C1773 1.415 . S
C1772 C1771 1.355 . S
C1772 C1774 1.419 . S
C1773 C1768 1.425 . S
C1773 C1770 1.409 . S
C1773 C1771 1.415 . S
C1774 H1764 0.930 . S
C1774 C1772 1.419 . S
C1774 C1775 1.362 . S
C1775 H1765 0.930 . S
C1775 C1768 1.409 . S
C1775 C1774 1.362 . S
H1776 C1782 0.930 . S
H1777 C1785 0.930 . S
H1778 C1786 0.930 . S
H1779 C1787 0.930 . S
H1780 C1790 0.930 . S
H1781 C1791 0.930 . S
C1782 H1776 0.930 . S
C1782 C1783 1.355 . S
C1782 C1784 1.415 . S
C1783 C1782 1.355 . S
C1783 C1785 1.419 . S
C1784 C1782 1.415 . S
C1784 C1789 1.425 . S
C1784 C1791 1.409 . S
C1785 H1777 0.930 . S
C1785 C1783 1.419 . S
C1785 C1786 1.362 . S
C1786 H1778 0.930 . S
C1786 C1785 1.362 . S
C1786 C1789 1.409 . S
C1787 H1779 0.930 . S
C1787 C1788 1.355 . S
C1787 C1789 1.415 . S
C1788 C1787 1.355 . S
C1788 C1790 1.419 . S
C1789 C1784 1.425 . S
C1789 C1786 1.409 . S
C1789 C1787 1.415 . S
C1790 H1780 0.930 . S
C1790 C1788 1.419 . S
C1790 C1791 1.362 . S
C1791 H1781 0.930 . S
C1791 C1784 1.409 . S
C1791 C1790 1.362 . S
H1792 C1798 0.930 . S
H1793 C1801 0.930 . S
H1794 C1802 0.930 . S
H1795 C1803 0.930 . S
H1796 C1806 0.930 . S
H1797 C1807 0.930 . S
C1798 H1792 0.930 . S
C1798 C1799 1.355 . S
C1798 C1800 1.415 . S
C1799 C1798 1.355 . S
C1799 C1801 1.419 . S
C1800 C1798 1.415 . S
C1800 C1805 1.425 . S
C1800 C1807 1.409 . S
C1801 H1793 0.930 . S
C1801 C1799 1.419 . S
C1801 C1802 1.362 . S
C1802 H1794 0.930 . S
C1802 C1801 1.362 . S
C1802 C1805 1.409 . S
C1803 H1795 0.930 . S
C1803 C1804 1.355 . S
C1803 C1805 1.415 . S
C1804 C1803 1.355 . S
C1804 C1806 1.419 . S
C1805 C1800 1.425 . S
C1805 C1802 1.409 . S
C1805 C1803 1.415 . S
C1806 H1796 0.930 . S
C1806 C1804 1.419 . S
C1806 C1807 1.362 . S
C1807 H1797 0.930 . S
C1807 C1800 1.409 . S
C1807 C1806 1.362 . S
H1808 C1814 0.930 1_565 S
H1809 C1817 0.930 . S
H1810 C1818 0.930 1_455 S
H1811 C1819 0.930 . S
H1812 C1822 0.930 . S
H1813 C1823 0.930 1_565 S
C1814 H1808 0.930 1_545 S
C1814 C1815 1.355 . S
C1814 C1816 1.415 . S
C1815 C1814 1.355 . S
C1815 C1817 1.419 . S
C1816 C1814 1.415 . S
C1816 C1821 1.425 . S
C1816 C1823 1.409 . S
C1817 H1809 0.930 . S
C1817 C1815 1.419 . S
C1817 C1818 1.362 . S
C1818 H1810 0.930 1_655 S
C1818 C1817 1.362 . S
C1818 C1821 1.409 . S
C1819 H1811 0.930 . S
C1819 C1820 1.355 . S
C1819 C1821 1.415 1_455 S
C1820 C1819 1.355 . S
C1820 C1822 1.419 1_455 S
C1821 C1816 1.425 . S
C1821 C1818 1.409 . S
C1821 C1819 1.415 1_655 S
C1822 H1812 0.930 . S
C1822 C1820 1.419 1_655 S
C1822 C1823 1.362 . S
C1823 H1813 0.930 1_545 S
C1823 C1816 1.409 . S
C1823 C1822 1.362 . S
H1824 C1830 0.930 . S
H1825 C1833 0.930 . S
H1826 C1834 0.930 . S
H1827 C1835 0.930 . S
H1828 C1838 0.930 . S
H1829 C1839 0.930 . S
C1830 H1824 0.930 . S
C1830 C1831 1.355 . S
C1830 C1832 1.415 . S
C1831 C1830 1.355 . S
C1831 C1833 1.419 . S
C1832 C1830 1.415 . S
C1832 C1837 1.425 . S
C1832 C1839 1.409 . S
C1833 H1825 0.930 . S
C1833 C1831 1.419 . S
C1833 C1834 1.362 . S
C1834 H1826 0.930 . S
C1834 C1833 1.362 . S
C1834 C1837 1.409 . S
C1835 H1827 0.930 . S
C1835 C1836 1.355 . S
C1835 C1837 1.415 . S
C1836 C1835 1.355 . S
C1836 C1838 1.419 . S
C1837 C1832 1.425 . S
C1837 C1834 1.409 . S
C1837 C1835 1.415 . S
C1838 H1828 0.930 . S
C1838 C1836 1.419 . S
C1838 C1839 1.362 . S
C1839 H1829 0.930 . S
C1839 C1832 1.409 . S
C1839 C1838 1.362 . S
H1840 C1846 0.930 . S
H1841 C1849 0.930 . S
H1842 C1850 0.930 . S
H1843 C1851 0.930 . S
H1844 C1854 0.930 . S
H1845 C1855 0.930 . S
C1846 H1840 0.930 . S
C1846 C1847 1.355 . S
C1846 C1848 1.415 . S
C1847 C1846 1.355 . S
C1847 C1849 1.419 . S
C1848 C1846 1.415 . S
C1848 C1853 1.425 . S
C1848 C1855 1.409 . S
C1849 H1841 0.930 . S
C1849 C1847 1.419 . S
C1849 C1850 1.362 . S
C1850 H1842 0.930 . S
C1850 C1849 1.362 . S
C1850 C1853 1.409 . S
C1851 H1843 0.930 . S
C1851 C1852 1.355 . S
C1851 C1853 1.415 . S
C1852 C1851 1.355 . S
C1852 C1854 1.419 . S
C1853 C1848 1.425 . S
C1853 C1850 1.409 . S
C1853 C1851 1.415 . S
C1854 H1844 0.930 . S
C1854 C1852 1.419 . S
C1854 C1855 1.362 . S
C1855 H1845 0.930 . S
C1855 C1848 1.409 . S
C1855 C1854 1.362 . S
H1856 C1862 0.930 . S
H1857 C1865 0.930 . S
H1858 C1866 0.930 . S
H1859 C1867 0.930 . S
H1860 C1870 0.930 . S
H1861 C1871 0.930 . S
C1862 H1856 0.930 . S
C1862 C1863 1.355 . S
C1862 C1864 1.415 . S
C1863 C1862 1.355 . S
C1863 C1865 1.419 . S
C1864 C1862 1.415 . S
C1864 C1869 1.425 . S
C1864 C1871 1.409 . S
C1865 H1857 0.930 . S
C1865 C1863 1.419 . S
C1865 C1866 1.362 . S
C1866 H1858 0.930 . S
C1866 C1865 1.362 . S
C1866 C1869 1.409 . S
C1867 H1859 0.930 . S
C1867 C1868 1.355 . S
C1867 C1869 1.415 . S
C1868 C1867 1.355 . S
C1868 C1870 1.419 . S
C1869 C1864 1.425 . S
C1869 C1866 1.409 . S
C1869 C1867 1.415 . S
C1870 H1860 0.930 . S
C1870 C1868 1.419 . S
C1870 C1871 1.362 . S
C1871 H1861 0.930 . S
C1871 C1864 1.409 . S
C1871 C1870 1.362 . S
H1872 C1878 0.930 . S
H1873 C1881 0.930 . S
H1874 C1882 0.930 . S
H1875 C1883 0.930 . S
H1876 C1886 0.930 . S
H1877 C1887 0.930 . S
C1878 H1872 0.930 . S
C1878 C1879 1.355 . S
C1878 C1880 1.415 . S
C1879 C1878 1.355 . S
C1879 C1881 1.419 1_545 S
C1880 C1878 1.415 . S
C1880 C1885 1.425 . S
C1880 C1887 1.409 1_655 S
C1881 H1873 0.930 . S
C1881 C1879 1.419 1_565 S
C1881 C1882 1.362 . S
C1882 H1874 0.930 . S
C1882 C1881 1.362 . S
C1882 C1885 1.409 1_565 S
C1883 H1875 0.930 . S
C1883 C1884 1.355 1_655 S
C1883 C1885 1.415 . S
C1884 C1883 1.355 1_455 S
C1884 C1886 1.419 . S
C1885 C1880 1.425 . S
C1885 C1882 1.409 1_545 S
C1885 C1883 1.415 . S
C1886 H1876 0.930 . S
C1886 C1884 1.419 . S
C1886 C1887 1.362 . S
C1887 H1877 0.930 . S
C1887 C1880 1.409 1_455 S
C1887 C1886 1.362 . S
H1888 C1894 0.930 . S
H1889 C1897 0.930 . S
H1890 C1898 0.930 . S
H1891 C1899 0.930 . S
H1892 C1902 0.930 . S
H1893 C1903 0.930 . S
C1894 H1888 0.930 . S
C1894 C1895 1.355 . S
C1894 C1896 1.415 . S
C1895 C1894 1.355 . S
C1895 C1897 1.419 . S
C1896 C1894 1.415 . S
C1896 C1901 1.425 . S
C1896 C1903 1.409 . S
C1897 H1889 0.930 . S
C1897 C1895 1.419 . S
C1897 C1898 1.362 . S
C1898 H1890 0.930 . S
C1898 C1897 1.362 . S
C1898 C1901 1.409 . S
C1899 H1891 0.930 . S
C1899 C1900 1.355 . S
C1899 C1901 1.415 . S
C1900 C1899 1.355 . S
C1900 C1902 1.419 . S
C1901 C1896 1.425 . S
C1901 C1898 1.409 . S
C1901 C1899 1.415 . S
C1902 H1892 0.930 . S
C1902 C1900 1.419 . S
C1902 C1903 1.362 . S
C1903 H1893 0.930 . S
C1903 C1896 1.409 . S
C1903 C1902 1.362 . S
H1904 C1910 0.930 . S
H1905 C1913 0.930 . S
H1906 C1914 0.930 . S
H1907 C1915 0.930 . S
H1908 C1918 0.930 . S
H1909 C1919 0.930 . S
C1910 H1904 0.930 . S
C1910 C1911 1.355 . S
C1910 C1912 1.415 . S
C1911 C1910 1.355 . S
C1911 C1913 1.419 . S
C1912 C1910 1.415 . S
C1912 C1917 1.425 . S
C1912 C1919 1.409 . S
C1913 H1905 0.930 . S
C1913 C1911 1.419 . S
C1913 C1914 1.362 . S
C1914 H1906 0.930 . S
C1914 C1913 1.362 . S
C1914 C1917 1.409 . S
C1915 H1907 0.930 . S
C1915 C1916 1.355 . S
C1915 C1917 1.415 . S
C1916 C1915 1.355 . S
C1916 C1918 1.419 . S
C1917 C1912 1.425 . S
C1917 C1914 1.409 . S
C1917 C1915 1.415 . S
C1918 H1908 0.930 . S
C1918 C1916 1.419 . S
C1918 C1919 1.362 . S
C1919 H1909 0.930 . S
C1919 C1912 1.409 . S
C1919 C1918 1.362 . S
H1920 C1926 0.930 . S
H1921 C1929 0.930 . S
H1922 C1930 0.930 . S
H1923 C1931 0.930 . S
H1924 C1934 0.930 . S
H1925 C1935 0.930 . S
C1926 H1920 0.930 . S
C1926 C1927 1.355 . S
C1926 C1928 1.415 . S
C1927 C1926 1.355 . S
C1927 C1929 1.419 . S
C1928 C1926 1.415 . S
C1928 C1933 1.425 . S
C1928 C1935 1.409 . S
C1929 H1921 0.930 . S
C1929 C1927 1.419 . S
C1929 C1930 1.362 . S
C1930 H1922 0.930 . S
C1930 C1929 1.362 . S
C1930 C1933 1.409 . S
C1931 H1923 0.930 . S
C1931 C1932 1.355 . S
C1931 C1933 1.415 . S
C1932 C1931 1.355 . S
C1932 C1934 1.419 . S
C1933 C1928 1.425 . S
C1933 C1930 1.409 . S
C1933 C1931 1.415 . S
C1934 H1924 0.930 . S
C1934 C1932 1.419 . S
C1934 C1935 1.362 . S
C1935 H1925 0.930 . S
C1935 C1928 1.409 . S
C1935 C1934 1.362 . S
H1936 C1942 0.930 1_556 S
H1937 C1945 0.930 . S
H1938 C1946 0.930 . S
H1939 C1947 0.930 . S
H1940 C1950 0.930 . S
H1941 C1951 0.930 1_556 S
C1942 H1936 0.930 1_554 S
C1942 C1943 1.355 . S
C1942 C1944 1.415 . S
C1943 C1942 1.355 . S
C1943 C1945 1.419 . S
C1944 C1942 1.415 . S
C1944 C1949 1.425 . S
C1944 C1951 1.409 1_565 S
C1945 H1937 0.930 . S
C1945 C1943 1.419 . S
C1945 C1946 1.362 . S
C1946 H1938 0.930 . S
C1946 C1945 1.362 . S
C1946 C1949 1.409 . S
C1947 H1939 0.930 . S
C1947 C1948 1.355 1_565 S
C1947 C1949 1.415 . S
C1948 C1947 1.355 1_545 S
C1948 C1950 1.419 . S
C1949 C1944 1.425 . S
C1949 C1946 1.409 . S
C1949 C1947 1.415 . S
C1950 H1940 0.930 . S
C1950 C1948 1.419 . S
C1950 C1951 1.362 . S
C1951 H1941 0.930 1_554 S
C1951 C1944 1.409 1_545 S
C1951 C1950 1.362 . S
H1952 C1958 0.930 . S
H1953 C1961 0.930 . S
H1954 C1962 0.930 . S
H1955 C1963 0.930 . S
H1956 C1966 0.930 . S
H1957 C1967 0.930 . S
C1958 H1952 0.930 . S
C1958 C1959 1.355 . S
C1958 C1960 1.415 . S
C1959 C1958 1.355 . S
C1959 C1961 1.419 . S
C1960 C1958 1.415 . S
C1960 C1965 1.425 . S
C1960 C1967 1.409 . S
C1961 H1953 0.930 . S
C1961 C1959 1.419 . S
C1961 C1962 1.362 . S
C1962 H1954 0.930 . S
C1962 C1961 1.362 . S
C1962 C1965 1.409 . S
C1963 H1955 0.930 . S
C1963 C1964 1.355 . S
C1963 C1965 1.415 . S
C1964 C1963 1.355 . S
C1964 C1966 1.419 . S
C1965 C1960 1.425 . S
C1965 C1962 1.409 . S
C1965 C1963 1.415 . S
C1966 H1956 0.930 . S
C1966 C1964 1.419 . S
C1966 C1967 1.362 . S
C1967 H1957 0.930 . S
C1967 C1960 1.409 . S
C1967 C1966 1.362 . S
H1968 C1974 0.930 . S
H1969 C1977 0.930 . S
H1970 C1978 0.930 . S
H1971 C1979 0.930 . S
H1972 C1982 0.930 . S
H1973 C1983 0.930 . S
C1974 H1968 0.930 . S
C1974 C1975 1.355 . S
C1974 C1976 1.415 . S
C1975 C1974 1.355 . S
C1975 C1977 1.419 . S
C1976 C1974 1.415 . S
C1976 C1981 1.425 . S
C1976 C1983 1.409 . S
C1977 H1969 0.930 . S
C1977 C1975 1.419 . S
C1977 C1978 1.362 . S
C1978 H1970 0.930 . S
C1978 C1977 1.362 . S
C1978 C1981 1.409 . S
C1979 H1971 0.930 . S
C1979 C1980 1.355 . S
C1979 C1981 1.415 . S
C1980 C1979 1.355 . S
C1980 C1982 1.419 . S
C1981 C1976 1.425 . S
C1981 C1978 1.409 . S
C1981 C1979 1.415 . S
C1982 H1972 0.930 . S
C1982 C1980 1.419 . S
C1982 C1983 1.362 . S
C1983 H1973 0.930 . S
C1983 C1976 1.409 . S
C1983 C1982 1.362 . S
H1984 C1990 0.930 . S
H1985 C1993 0.930 . S
H1986 C1994 0.930 . S
H1987 C1995 0.930 . S
H1988 C1998 0.930 . S
H1989 C1999 0.930 . S
C1990 H1984 0.930 . S
C1990 C1991 1.355 . S
C1990 C1992 1.415 . S
C1991 C1990 1.355 . S
C1991 C1993 1.419 . S
C1992 C1990 1.415 . S
C1992 C1997 1.425 . S
C1992 C1999 1.409 . S
C1993 H1985 0.930 . S
C1993 C1991 1.419 . S
C1993 C1994 1.362 . S
C1994 H1986 0.930 . S
C1994 C1993 1.362 . S
C1994 C1997 1.409 . S
C1995 H1987 0.930 . S
C1995 C1996 1.355 . S
C1995 C1997 1.415 . S
C1996 C1995 1.355 . S
C1996 C1998 1.419 . S
C1997 C1992 1.425 . S
C1997 C1994 1.409 . S
C1997 C1995 1.415 . S
C1998 H1988 0.930 . S
C1998 C1996 1.419 . S
C1998 C1999 1.362 . S
C1999 H1989 0.930 . S
C1999 C1992 1.409 . S
C1999 C1998 1.362 . S
H2000 C2006 0.930 . S
H2001 C2009 0.930 . S
H2002 C2010 0.930 . S
H2003 C2011 0.930 . S
H2004 C2014 0.930 . S
H2005 C2015 0.930 . S
C2006 H2000 0.930 . S
C2006 C2007 1.355 . S
C2006 C2008 1.415 . S
C2007 C2006 1.355 . S
C2007 C2009 1.419 . S
C2008 C2006 1.415 . S
C2008 C2013 1.425 . S
C2008 C2015 1.409 . S
C2009 H2001 0.930 . S
C2009 C2007 1.419 . S
C2009 C2010 1.362 . S
C2010 H2002 0.930 . S
C2010 C2009 1.362 . S
C2010 C2013 1.409 . S
C2011 H2003 0.930 . S
C2011 C2012 1.355 . S
C2011 C2013 1.415 . S
C2012 C2011 1.355 . S
C2012 C2014 1.419 . S
C2013 C2008 1.425 . S
C2013 C2010 1.409 . S
C2013 C2011 1.415 . S
C2014 H2004 0.930 . S
C2014 C2012 1.419 . S
C2014 C2015 1.362 . S
C2015 H2005 0.930 . S
C2015 C2008 1.409 . S
C2015 C2014 1.362 . S
H2016 C2022 0.930 . S
H2017 C2025 0.930 . S
H2018 C2026 0.930 . S
H2019 C2027 0.930 . S
H2020 C2030 0.930 . S
H2021 C2031 0.930 . S
C2022 H2016 0.930 . S
C2022 C2023 1.355 . S
C2022 C2024 1.415 . S
C2023 C2022 1.355 . S
C2023 C2025 1.419 . S
C2024 C2022 1.415 . S
C2024 C2029 1.425 . S
C2024 C2031 1.409 . S
C2025 H2017 0.930 . S
C2025 C2023 1.419 . S
C2025 C2026 1.362 . S
C2026 H2018 0.930 . S
C2026 C2025 1.362 . S
C2026 C2029 1.409 . S
C2027 H2019 0.930 . S
C2027 C2028 1.355 . S
C2027 C2029 1.415 . S
C2028 C2027 1.355 . S
C2028 C2030 1.419 . S
C2029 C2024 1.425 . S
C2029 C2026 1.409 . S
C2029 C2027 1.415 . S
C2030 H2020 0.930 . S
C2030 C2028 1.419 . S
C2030 C2031 1.362 . S
C2031 H2021 0.930 . S
C2031 C2024 1.409 . S
C2031 C2030 1.362 . S
H2032 C2038 0.930 . S
H2033 C2041 0.930 . S
H2034 C2042 0.930 . S
H2035 C2043 0.930 . S
H2036 C2046 0.930 . S
H2037 C2047 0.930 . S
C2038 H2032 0.930 . S
C2038 C2039 1.355 . S
C2038 C2040 1.415 . S
C2039 C2038 1.355 . S
C2039 C2041 1.419 . S
C2040 C2038 1.415 . S
C2040 C2045 1.425 . S
C2040 C2047 1.409 . S
C2041 H2033 0.930 . S
C2041 C2039 1.419 . S
C2041 C2042 1.362 . S
C2042 H2034 0.930 . S
C2042 C2041 1.362 . S
C2042 C2045 1.409 . S
C2043 H2035 0.930 . S
C2043 C2044 1.355 . S
C2043 C2045 1.415 . S
C2044 C2043 1.355 . S
C2044 C2046 1.419 . S
C2045 C2040 1.425 . S
C2045 C2042 1.409 . S
C2045 C2043 1.415 . S
C2046 H2036 0.930 . S
C2046 C2044 1.419 . S
C2046 C2047 1.362 . S
C2047 H2037 0.930 . S
C2047 C2040 1.409 . S
C2047 C2046 1.362 . S
H2048 C2054 0.930 . S
H2049 C2057 0.930 . S
H2050 C2058 0.930 . S
H2051 C2059 0.930 . S
H2052 C2062 0.930 . S
H2053 C2063 0.930 . S
C2054 H2048 0.930 . S
C2054 C2055 1.355 . S
C2054 C2056 1.415 . S
C2055 C2054 1.355 . S
C2055 C2057 1.419 . S
C2056 C2054 1.415 . S
C2056 C2061 1.425 . S
C2056 C2063 1.409 . S
C2057 H2049 0.930 . S
C2057 C2055 1.419 . S
C2057 C2058 1.362 . S
C2058 H2050 0.930 . S
C2058 C2057 1.362 . S
C2058 C2061 1.409 . S
C2059 H2051 0.930 . S
C2059 C2060 1.355 . S
C2059 C2061 1.415 . S
C2060 C2059 1.355 . S
C2060 C2062 1.419 . S
C2061 C2056 1.425 . S
C2061 C2058 1.409 . S
C2061 C2059 1.415 . S
C2062 H2052 0.930 . S
C2062 C2060 1.419 . S
C2062 C2063 1.362 . S
C2063 H2053 0.930 . S
C2063 C2056 1.409 . S
C2063 C2062 1.362 . S
H2064 C2070 0.930 . S
H2065 C2073 0.930 . S
H2066 C2074 0.930 . S
H2067 C2075 0.930 . S
H2068 C2078 0.930 . S
H2069 C2079 0.930 . S
C2070 H2064 0.930 . S
C2070 C2071 1.355 . S
C2070 C2072 1.415 . S
C2071 C2070 1.355 . S
C2071 C2073 1.419 . S
C2072 C2070 1.415 . S
C2072 C2077 1.425 . S
C2072 C2079 1.409 . S
C2073 H2065 0.930 . S
C2073 C2071 1.419 . S
C2073 C2074 1.362 . S
C2074 H2066 0.930 . S
C2074 C2073 1.362 . S
C2074 C2077 1.409 . S
C2075 H2067 0.930 . S
C2075 C2076 1.355 . S
C2075 C2077 1.415 . S
C2076 C2075 1.355 . S
C2076 C2078 1.419 . S
C2077 C2072 1.425 . S
C2077 C2074 1.409 . S
C2077 C2075 1.415 . S
C2078 H2068 0.930 . S
C2078 C2076 1.419 . S
C2078 C2079 1.362 . S
C2079 H2069 0.930 . S
C2079 C2072 1.409 . S
C2079 C2078 1.362 . S
H2080 C2086 0.930 . S
H2081 C2089 0.930 . S
H2082 C2090 0.930 . S
H2083 C2091 0.930 . S
H2084 C2094 0.930 . S
H2085 C2095 0.930 . S
C2086 H2080 0.930 . S
C2086 C2087 1.355 . S
C2086 C2088 1.415 . S
C2087 C2086 1.355 . S
C2087 C2089 1.419 . S
C2088 C2086 1.415 . S
C2088 C2093 1.425 . S
C2088 C2095 1.409 . S
C2089 H2081 0.930 . S
C2089 C2087 1.419 . S
C2089 C2090 1.362 . S
C2090 H2082 0.930 . S
C2090 C2089 1.362 . S
C2090 C2093 1.409 . S
C2091 H2083 0.930 . S
C2091 C2092 1.355 . S
C2091 C2093 1.415 . S
C2092 C2091 1.355 . S
C2092 C2094 1.419 . S
C2093 C2088 1.425 . S
C2093 C2090 1.409 . S
C2093 C2091 1.415 . S
C2094 H2084 0.930 . S
C2094 C2092 1.419 . S
C2094 C2095 1.362 . S
C2095 H2085 0.930 . S
C2095 C2088 1.409 . S
C2095 C2094 1.362 . S
H2096 C2102 0.930 . S
H2097 C2105 0.930 . S
H2098 C2106 0.930 . S
H2099 C2107 0.930 . S
H2100 C2110 0.930 . S
H2101 C2111 0.930 . S
C2102 H2096 0.930 . S
C2102 C2103 1.355 . S
C2102 C2104 1.415 . S
C2103 C2102 1.355 . S
C2103 C2105 1.419 . S
C2104 C2102 1.415 . S
C2104 C2109 1.425 . S
C2104 C2111 1.409 . S
C2105 H2097 0.930 . S
C2105 C2103 1.419 . S
C2105 C2106 1.362 . S
C2106 H2098 0.930 . S
C2106 C2105 1.362 . S
C2106 C2109 1.409 . S
C2107 H2099 0.930 . S
C2107 C2108 1.355 . S
C2107 C2109 1.415 . S
C2108 C2107 1.355 . S
C2108 C2110 1.419 . S
C2109 C2104 1.425 . S
C2109 C2106 1.409 . S
C2109 C2107 1.415 . S
C2110 H2100 0.930 . S
C2110 C2108 1.419 . S
C2110 C2111 1.362 . S
C2111 H2101 0.930 . S
C2111 C2104 1.409 . S
C2111 C2110 1.362 . S
H2112 C2118 0.930 . S
H2113 C2121 0.930 . S
H2114 C2122 0.930 . S
H2115 C2123 0.930 . S
H2116 C2126 0.930 . S
H2117 C2127 0.930 . S
C2118 H2112 0.930 . S
C2118 C2119 1.355 . S
C2118 C2120 1.415 . S
C2119 C2118 1.355 . S
C2119 C2121 1.419 . S
C2120 C2118 1.415 . S
C2120 C2125 1.425 . S
C2120 C2127 1.409 . S
C2121 H2113 0.930 . S
C2121 C2119 1.419 . S
C2121 C2122 1.362 . S
C2122 H2114 0.930 . S
C2122 C2121 1.362 . S
C2122 C2125 1.409 . S
C2123 H2115 0.930 . S
C2123 C2124 1.355 . S
C2123 C2125 1.415 . S
C2124 C2123 1.355 . S
C2124 C2126 1.419 . S
C2125 C2120 1.425 . S
C2125 C2122 1.409 . S
C2125 C2123 1.415 . S
C2126 H2116 0.930 . S
C2126 C2124 1.419 . S
C2126 C2127 1.362 . S
C2127 H2117 0.930 . S
C2127 C2120 1.409 . S
C2127 C2126 1.362 . S
H2128 C2134 0.930 . S
H2129 C2137 0.930 . S
H2130 C2138 0.930 . S
H2131 C2139 0.930 . S
H2132 C2142 0.930 . S
H2133 C2143 0.930 . S
C2134 H2128 0.930 . S
C2134 C2135 1.355 . S
C2134 C2136 1.415 . S
C2135 C2134 1.355 . S
C2135 C2137 1.419 . S
C2136 C2134 1.415 . S
C2136 C2141 1.425 . S
C2136 C2143 1.409 . S
C2137 H2129 0.930 . S
C2137 C2135 1.419 . S
C2137 C2138 1.362 . S
C2138 H2130 0.930 . S
C2138 C2137 1.362 . S
C2138 C2141 1.409 . S
C2139 H2131 0.930 . S
C2139 C2140 1.355 . S
C2139 C2141 1.415 . S
C2140 C2139 1.355 . S
C2140 C2142 1.419 . S
C2141 C2136 1.425 . S
C2141 C2138 1.409 . S
C2141 C2139 1.415 . S
C2142 H2132 0.930 . S
C2142 C2140 1.419 . S
C2142 C2143 1.362 . S
C2143 H2133 0.930 . S
C2143 C2136 1.409 . S
C2143 C2142 1.362 . S
H2144 C2150 0.930 . S
H2145 C2153 0.930 . S
H2146 C2154 0.930 . S
H2147 C2155 0.930 . S
H2148 C2158 0.930 . S
H2149 C2159 0.930 . S
C2150 H2144 0.930 . S
C2150 C2151 1.355 . S
C2150 C2152 1.415 . S
C2151 C2150 1.355 . S
C2151 C2153 1.419 . S
C2152 C2150 1.415 . S
C2152 C2157 1.425 . S
C2152 C2159 1.409 . S
C2153 H2145 0.930 . S
C2153 C2151 1.419 . S
C2153 C2154 1.362 . S
C2154 H2146 0.930 . S
C2154 C2153 1.362 . S
C2154 C2157 1.409 . S
C2155 H2147 0.930 . S
C2155 C2156 1.355 . S
C2155 C2157 1.415 . S
C2156 C2155 1.355 . S
C2156 C2158 1.419 . S
C2157 C2152 1.425 . S
C2157 C2154 1.409 . S
C2157 C2155 1.415 . S
C2158 H2148 0.930 . S
C2158 C2156 1.419 . S
C2158 C2159 1.362 . S
C2159 H2149 0.930 . S
C2159 C2152 1.409 . S
C2159 C2158 1.362 . S
H2160 C2166 0.930 . S
H2161 C2169 0.930 . S
H2162 C2170 0.930 . S
H2163 C2171 0.930 . S
H2164 C2174 0.956 . S
H2165 C2175 0.930 . S
C2166 H2160 0.930 . S
C2166 C2167 1.355 . S
C2166 C2168 1.415 . S
C2167 C2166 1.355 . S
C2167 C2169 1.419 . S
C2168 C2166 1.415 . S
C2168 C2173 1.425 . S
C2168 C2175 1.409 . S
C2169 H2161 0.930 . S
C2169 C2167 1.419 . S
C2169 C2170 1.362 . S
C2170 H2162 0.930 . S
C2170 C2169 1.362 . S
C2170 C2173 1.409 . S
C2171 H2163 0.930 . S
C2171 C2172 1.355 . S
C2171 C2173 1.415 . S
C2172 C2171 1.355 . S
C2172 C2174 1.419 . S
C2173 C2168 1.425 . S
C2173 C2170 1.409 . S
C2173 C2171 1.415 . S
C2174 H2164 0.956 . S
C2174 C2172 1.419 . S
C2174 C2175 1.362 . S
C2175 H2165 0.930 . S
C2175 C2168 1.409 . S
C2175 C2174 1.362 . S
H2176 C2182 0.930 . S
H2177 C2185 0.930 . S
H2178 C2186 0.930 . S
H2179 C2187 0.930 . S
H2180 C2190 0.930 . S
H2181 C2191 0.930 . S
C2182 H2176 0.930 . S
C2182 C2183 1.355 . S
C2182 C2184 1.415 . S
C2183 C2182 1.355 . S
C2183 C2185 1.419 . S
C2184 C2182 1.415 . S
C2184 C2189 1.425 . S
C2184 C2191 1.409 . S
C2185 H2177 0.930 . S
C2185 C2183 1.419 . S
C2185 C2186 1.362 . S
C2186 H2178 0.930 . S
C2186 C2185 1.362 . S
C2186 C2189 1.409 . S
C2187 H2179 0.930 . S
C2187 C2188 1.355 . S
C2187 C2189 1.415 . S
C2188 C2187 1.355 . S
C2188 C2190 1.419 . S
C2189 C2184 1.425 . S
C2189 C2186 1.409 . S
C2189 C2187 1.415 . S
C2190 H2180 0.930 . S
C2190 C2188 1.419 . S
C2190 C2191 1.362 . S
C2191 H2181 0.930 . S
C2191 C2184 1.409 . S
C2191 C2190 1.362 . S
H2192 C2198 0.930 . S
H2193 C2201 0.930 . S
H2194 C2202 0.930 . S
H2195 C2203 0.930 . S
H2196 C2206 0.926 . S
H2197 C2207 0.930 . S
C2198 H2192 0.930 . S
C2198 C2199 1.355 . S
C2198 C2200 1.415 . S
C2199 C2198 1.355 . S
C2199 C2201 1.419 . S
C2200 C2198 1.415 . S
C2200 C2205 1.425 . S
C2200 C2207 1.409 . S
C2201 H2193 0.930 . S
C2201 C2199 1.419 . S
C2201 C2202 1.362 . S
C2202 H2194 0.930 . S
C2202 C2201 1.362 . S
C2202 C2205 1.409 . S
C2203 H2195 0.930 . S
C2203 C2204 1.355 . S
C2203 C2205 1.415 . S
C2204 C2203 1.355 . S
C2204 C2206 1.419 . S
C2205 C2200 1.425 . S
C2205 C2202 1.409 . S
C2205 C2203 1.415 . S
C2206 H2196 0.926 . S
C2206 C2204 1.419 . S
C2206 C2207 1.362 . S
C2207 H2197 0.930 . S
C2207 C2200 1.409 . S
C2207 C2206 1.362 . S
H2208 C2214 0.930 . S
H2209 C2217 0.930 . S
H2210 C2218 0.930 . S
H2211 C2219 0.930 . S
H2212 C2222 0.930 . S
H2213 C2223 0.930 . S
C2214 H2208 0.930 . S
C2214 C2215 1.355 . S
C2214 C2216 1.415 . S
C2215 C2214 1.355 . S
C2215 C2217 1.419 . S
C2216 C2214 1.415 . S
C2216 C2221 1.425 . S
C2216 C2223 1.409 . S
C2217 H2209 0.930 . S
C2217 C2215 1.419 . S
C2217 C2218 1.362 . S
C2218 H2210 0.930 . S
C2218 C2217 1.362 . S
C2218 C2221 1.409 . S
C2219 H2211 0.930 . S
C2219 C2220 1.355 . S
C2219 C2221 1.415 . S
C2220 C2219 1.355 . S
C2220 C2222 1.419 . S
C2221 C2216 1.425 . S
C2221 C2218 1.409 . S
C2221 C2219 1.415 . S
C2222 H2212 0.930 . S
C2222 C2220 1.419 . S
C2222 C2223 1.362 . S
C2223 H2213 0.930 . S
C2223 C2216 1.409 . S
C2223 C2222 1.362 . S
H2224 C2230 0.930 . S
H2225 C2233 0.930 . S
H2226 C2234 0.930 . S
H2227 C2235 0.930 . S
H2228 C2238 0.930 . S
H2229 C2239 0.930 . S
C2230 H2224 0.930 . S
C2230 C2231 1.355 . S
C2230 C2232 1.415 . S
C2231 C2230 1.355 . S
C2231 C2233 1.419 . S
C2232 C2230 1.415 . S
C2232 C2237 1.425 . S
C2232 C2239 1.409 . S
C2233 H2225 0.930 . S
C2233 C2231 1.419 . S
C2233 C2234 1.362 . S
C2234 H2226 0.930 . S
C2234 C2233 1.362 . S
C2234 C2237 1.409 . S
C2235 H2227 0.930 . S
C2235 C2236 1.355 . S
C2235 C2237 1.415 . S
C2236 C2235 1.355 . S
C2236 C2238 1.419 . S
C2237 C2232 1.425 . S
C2237 C2234 1.409 . S
C2237 C2235 1.415 . S
C2238 H2228 0.930 . S
C2238 C2236 1.419 . S
C2238 C2239 1.362 . S
C2239 H2229 0.930 . S
C2239 C2232 1.409 . S
C2239 C2238 1.362 . S
H2240 C2246 0.930 . S
H2241 C2249 0.930 . S
H2242 C2250 0.930 . S
H2243 C2251 0.930 . S
H2244 C2254 0.930 . S
H2245 C2255 0.930 . S
C2246 H2240 0.930 . S
C2246 C2247 1.355 . S
C2246 C2248 1.415 . S
C2247 C2246 1.355 . S
C2247 C2249 1.419 . S
C2248 C2246 1.415 . S
C2248 C2253 1.425 . S
C2248 C2255 1.409 . S
C2249 H2241 0.930 . S
C2249 C2247 1.419 . S
C2249 C2250 1.362 . S
C2250 H2242 0.930 . S
C2250 C2249 1.362 . S
C2250 C2253 1.409 . S
C2251 H2243 0.930 . S
C2251 C2252 1.355 . S
C2251 C2253 1.415 . S
C2252 C2251 1.355 . S
C2252 C2254 1.419 . S
C2253 C2248 1.425 . S
C2253 C2250 1.409 . S
C2253 C2251 1.415 . S
C2254 H2244 0.930 . S
C2254 C2252 1.419 . S
C2254 C2255 1.362 . S
C2255 H2245 0.930 . S
C2255 C2248 1.409 . S
C2255 C2254 1.362 . S
H2256 C2262 0.930 . S
H2257 C2265 0.930 . S
H2258 C2266 0.930 . S
H2259 C2267 0.930 . S
H2260 C2270 0.930 . S
H2261 C2271 0.930 . S
C2262 H2256 0.930 . S
C2262 C2263 1.355 . S
C2262 C2264 1.415 . S
C2263 C2262 1.355 . S
C2263 C2265 1.419 . S
C2264 C2262 1.415 . S
C2264 C2269 1.425 . S
C2264 C2271 1.409 . S
C2265 H2257 0.930 . S
C2265 C2263 1.419 . S
C2265 C2266 1.362 . S
C2266 H2258 0.930 . S
C2266 C2265 1.362 . S
C2266 C2269 1.409 . S
C2267 H2259 0.930 . S
C2267 C2268 1.355 . S
C2267 C2269 1.415 . S
C2268 C2267 1.355 . S
C2268 C2270 1.419 . S
C2269 C2264 1.425 . S
C2269 C2266 1.409 . S
C2269 C2267 1.415 . S
C2270 H2260 0.930 . S
C2270 C2268 1.419 . S
C2270 C2271 1.362 . S
C2271 H2261 0.930 . S
C2271 C2264 1.409 . S
C2271 C2270 1.362 . S
H2272 C2278 0.930 . S
H2273 C2281 0.930 . S
H2274 C2282 0.930 . S
H2275 C2283 0.930 . S
H2276 C2286 0.930 . S
H2277 C2287 0.930 . S
C2278 H2272 0.930 . S
C2278 C2279 1.355 . S
C2278 C2280 1.415 . S
C2279 C2278 1.355 . S
C2279 C2281 1.419 . S
C2280 C2278 1.415 . S
C2280 C2285 1.425 . S
C2280 C2287 1.409 . S
C2281 H2273 0.930 . S
C2281 C2279 1.419 . S
C2281 C2282 1.362 . S
C2282 H2274 0.930 . S
C2282 C2281 1.362 . S
C2282 C2285 1.409 . S
C2283 H2275 0.930 . S
C2283 C2284 1.355 . S
C2283 C2285 1.415 . S
C2284 C2283 1.355 . S
C2284 C2286 1.419 . S
C2285 C2280 1.425 . S
C2285 C2282 1.409 . S
C2285 C2283 1.415 . S
C2286 H2276 0.930 . S
C2286 C2284 1.419 . S
C2286 C2287 1.362 . S
C2287 H2277 0.930 . S
C2287 C2280 1.409 . S
C2287 C2286 1.362 . S
H2288 C2294 0.930 1_565 S
H2289 C2297 0.930 . S
H2290 C2298 0.930 . S
H2291 C2299 0.930 . S
H2292 C2302 0.930 . S
H2293 C2303 0.930 . S
C2294 H2288 0.930 1_545 S
C2294 C2295 1.355 . S
C2294 C2296 1.415 . S
C2295 C2294 1.355 . S
C2295 C2297 1.419 . S
C2296 C2294 1.415 . S
C2296 C2301 1.425 . S
C2296 C2303 1.409 . S
C2297 H2289 0.930 . S
C2297 C2295 1.419 . S
C2297 C2298 1.362 . S
C2298 H2290 0.930 . S
C2298 C2297 1.362 . S
C2298 C2301 1.409 . S
C2299 H2291 0.930 . S
C2299 C2300 1.355 . S
C2299 C2301 1.415 . S
C2300 C2299 1.355 . S
C2300 C2302 1.419 . S
C2301 C2296 1.425 . S
C2301 C2298 1.409 . S
C2301 C2299 1.415 . S
C2302 H2292 0.930 . S
C2302 C2300 1.419 . S
C2302 C2303 1.362 . S
C2303 H2293 0.930 . S
C2303 C2296 1.409 . S
C2303 C2302 1.362 . S
H2304 C2310 0.930 . S
H2305 C2313 0.930 . S
H2306 C2314 0.930 . S
H2307 C2315 0.930 . S
H2308 C2318 0.930 . S
H2309 C2319 0.930 . S
C2310 H2304 0.930 . S
C2310 C2311 1.355 . S
C2310 C2312 1.415 . S
C2311 C2310 1.355 . S
C2311 C2313 1.419 . S
C2312 C2310 1.415 . S
C2312 C2317 1.425 . S
C2312 C2319 1.409 . S
C2313 H2305 0.930 . S
C2313 C2311 1.419 . S
C2313 C2314 1.362 . S
C2314 H2306 0.930 . S
C2314 C2313 1.362 . S
C2314 C2317 1.409 . S
C2315 H2307 0.930 . S
C2315 C2316 1.355 . S
C2315 C2317 1.415 . S
C2316 C2315 1.355 . S
C2316 C2318 1.419 . S
C2317 C2312 1.425 . S
C2317 C2314 1.409 . S
C2317 C2315 1.415 . S
C2318 H2308 0.930 . S
C2318 C2316 1.419 . S
C2318 C2319 1.362 . S
C2319 H2309 0.930 . S
C2319 C2312 1.409 . S
C2319 C2318 1.362 . S
H2320 C2326 0.930 . S
H2321 C2329 0.930 . S
H2322 C2330 0.930 . S
H2323 C2331 0.930 . S
H2324 C2334 0.930 . S
H2325 C2335 0.930 . S
C2326 H2320 0.930 . S
C2326 C2327 1.355 . S
C2326 C2328 1.415 . S
C2327 C2326 1.355 . S
C2327 C2329 1.419 . S
C2328 C2326 1.415 . S
C2328 C2333 1.425 . S
C2328 C2335 1.409 . S
C2329 H2321 0.930 . S
C2329 C2327 1.419 . S
C2329 C2330 1.362 . S
C2330 H2322 0.930 . S
C2330 C2329 1.362 . S
C2330 C2333 1.409 . S
C2331 H2323 0.930 . S
C2331 C2332 1.355 . S
C2331 C2333 1.415 . S
C2332 C2331 1.355 . S
C2332 C2334 1.419 . S
C2333 C2328 1.425 . S
C2333 C2330 1.409 . S
C2333 C2331 1.415 . S
C2334 H2324 0.930 . S
C2334 C2332 1.419 . S
C2334 C2335 1.362 . S
C2335 H2325 0.930 . S
C2335 C2328 1.409 . S
C2335 C2334 1.362 . S
H2336 C2342 0.930 . S
H2337 C2345 0.930 . S
H2338 C2346 0.930 . S
H2339 C2347 0.930 . S
H2340 C2350 0.930 . S
H2341 C2351 0.930 . S
C2342 H2336 0.930 . S
C2342 C2343 1.355 . S
C2342 C2344 1.415 . S
C2343 C2342 1.355 . S
C2343 C2345 1.419 . S
C2344 C2342 1.415 . S
C2344 C2349 1.425 . S
C2344 C2351 1.409 . S
C2345 H2337 0.930 . S
C2345 C2343 1.419 . S
C2345 C2346 1.362 . S
C2346 H2338 0.930 . S
C2346 C2345 1.362 . S
C2346 C2349 1.409 . S
C2347 H2339 0.930 . S
C2347 C2348 1.355 . S
C2347 C2349 1.415 . S
C2348 C2347 1.355 . S
C2348 C2350 1.419 . S
C2349 C2344 1.425 . S
C2349 C2346 1.409 . S
C2349 C2347 1.415 . S
C2350 H2340 0.930 . S
C2350 C2348 1.419 . S
C2350 C2351 1.362 . S
C2351 H2341 0.930 . S
C2351 C2344 1.409 . S
C2351 C2350 1.362 . S
H2352 C2358 0.930 . S
H2353 C2361 0.930 . S
H2354 C2362 0.930 . S
H2355 C2363 0.930 . S
H2356 C2366 0.930 . S
H2357 C2367 0.930 . S
C2358 H2352 0.930 . S
C2358 C2359 1.355 . S
C2358 C2360 1.415 . S
C2359 C2358 1.355 . S
C2359 C2361 1.419 . S
C2360 C2358 1.415 . S
C2360 C2365 1.425 . S
C2360 C2367 1.409 . S
C2361 H2353 0.930 . S
C2361 C2359 1.419 . S
C2361 C2362 1.362 . S
C2362 H2354 0.930 . S
C2362 C2361 1.362 . S
C2362 C2365 1.409 . S
C2363 H2355 0.930 . S
C2363 C2364 1.355 . S
C2363 C2365 1.415 . S
C2364 C2363 1.355 . S
C2364 C2366 1.419 . S
C2365 C2360 1.425 . S
C2365 C2362 1.409 . S
C2365 C2363 1.415 . S
C2366 H2356 0.930 . S
C2366 C2364 1.419 . S
C2366 C2367 1.362 . S
C2367 H2357 0.930 . S
C2367 C2360 1.409 . S
C2367 C2366 1.362 . S
H2368 C2374 0.930 . S
H2369 C2377 0.930 . S
H2370 C2378 0.930 . S
H2371 C2379 0.930 . S
H2372 C2382 0.930 . S
H2373 C2383 0.930 . S
C2374 H2368 0.930 . S
C2374 C2375 1.355 . S
C2374 C2376 1.415 . S
C2375 C2374 1.355 . S
C2375 C2377 1.419 . S
C2376 C2374 1.415 . S
C2376 C2381 1.425 . S
C2376 C2383 1.409 . S
C2377 H2369 0.930 . S
C2377 C2375 1.419 . S
C2377 C2378 1.362 . S
C2378 H2370 0.930 . S
C2378 C2377 1.362 . S
C2378 C2381 1.409 . S
C2379 H2371 0.930 . S
C2379 C2380 1.355 . S
C2379 C2381 1.415 . S
C2380 C2379 1.355 . S
C2380 C2382 1.419 . S
C2381 C2376 1.425 . S
C2381 C2378 1.409 . S
C2381 C2379 1.415 . S
C2382 H2372 0.930 . S
C2382 C2380 1.419 . S
C2382 C2383 1.362 . S
C2383 H2373 0.930 . S
C2383 C2376 1.409 . S
C2383 C2382 1.362 . S
H2384 C2390 0.930 1_545 S
H2385 C2393 0.930 . S
H2386 C2394 0.930 . S
H2387 C2395 0.930 . S
H2388 C2398 0.930 . S
H2389 C2399 0.930 . S
C2390 H2384 0.930 1_565 S
C2390 C2391 1.355 . S
C2390 C2392 1.415 . S
C2391 C2390 1.355 . S
C2391 C2393 1.419 . S
C2392 C2390 1.415 . S
C2392 C2397 1.425 . S
C2392 C2399 1.409 . S
C2393 H2385 0.930 . S
C2393 C2391 1.419 . S
C2393 C2394 1.362 . S
C2394 H2386 0.930 . S
C2394 C2393 1.362 . S
C2394 C2397 1.409 . S
C2395 H2387 0.930 . S
C2395 C2396 1.355 . S
C2395 C2397 1.415 . S
C2396 C2395 1.355 . S
C2396 C2398 1.419 . S
C2397 C2392 1.425 . S
C2397 C2394 1.409 . S
C2397 C2395 1.415 . S
C2398 H2388 0.930 . S
C2398 C2396 1.419 . S
C2398 C2399 1.362 . S
C2399 H2389 0.930 . S
C2399 C2392 1.409 . S
C2399 C2398 1.362 . S
H2400 C2406 0.930 . S
H2401 C2409 0.930 . S
H2402 C2410 0.930 . S
H2403 C2411 0.930 . S
H2404 C2414 0.930 1_545 S
H2405 C2415 0.930 . S
C2406 H2400 0.930 . S
C2406 C2407 1.355 . S
C2406 C2408 1.415 . S
C2407 C2406 1.355 . S
C2407 C2409 1.419 . S
C2408 C2406 1.415 . S
C2408 C2413 1.425 . S
C2408 C2415 1.409 . S
C2409 H2401 0.930 . S
C2409 C2407 1.419 . S
C2409 C2410 1.362 . S
C2410 H2402 0.930 . S
C2410 C2409 1.362 . S
C2410 C2413 1.409 . S
C2411 H2403 0.930 . S
C2411 C2412 1.355 . S
C2411 C2413 1.415 . S
C2412 C2411 1.355 . S
C2412 C2414 1.419 . S
C2413 C2408 1.425 . S
C2413 C2410 1.409 . S
C2413 C2411 1.415 . S
C2414 H2404 0.930 1_565 S
C2414 C2412 1.419 . S
C2414 C2415 1.362 . S
C2415 H2405 0.930 . S
C2415 C2408 1.409 . S
C2415 C2414 1.362 . S
H2416 C2422 0.930 . S
H2417 C2425 0.930 . S
H2418 C2426 0.930 . S
H2419 C2427 0.930 . S
H2420 C2430 0.930 . S
H2421 C2431 0.930 . S
C2422 H2416 0.930 . S
C2422 C2423 1.355 . S
C2422 C2424 1.415 . S
C2423 C2422 1.355 . S
C2423 C2425 1.419 . S
C2424 C2422 1.415 . S
C2424 C2429 1.425 . S
C2424 C2431 1.409 . S
C2425 H2417 0.930 . S
C2425 C2423 1.419 . S
C2425 C2426 1.362 . S
C2426 H2418 0.930 . S
C2426 C2425 1.362 . S
C2426 C2429 1.409 . S
C2427 H2419 0.930 . S
C2427 C2428 1.355 . S
C2427 C2429 1.415 . S
C2428 C2427 1.355 . S
C2428 C2430 1.419 . S
C2429 C2424 1.425 . S
C2429 C2426 1.409 . S
C2429 C2427 1.415 . S
C2430 H2420 0.930 . S
C2430 C2428 1.419 . S
C2430 C2431 1.362 . S
C2431 H2421 0.930 . S
C2431 C2424 1.409 . S
C2431 C2430 1.362 . S
H2432 C2438 0.930 . S
H2433 C2441 0.930 . S
H2434 C2442 0.930 . S
H2435 C2443 0.930 . S
H2436 C2446 0.930 . S
H2437 C2447 0.930 . S
C2438 H2432 0.930 . S
C2438 C2439 1.355 . S
C2438 C2440 1.415 . S
C2439 C2438 1.355 . S
C2439 C2441 1.419 . S
C2440 C2438 1.415 . S
C2440 C2445 1.425 . S
C2440 C2447 1.409 . S
C2441 H2433 0.930 . S
C2441 C2439 1.419 . S
C2441 C2442 1.362 . S
C2442 H2434 0.930 . S
C2442 C2441 1.362 . S
C2442 C2445 1.409 . S
C2443 H2435 0.930 . S
C2443 C2444 1.355 . S
C2443 C2445 1.415 . S
C2444 C2443 1.355 . S
C2444 C2446 1.419 . S
C2445 C2440 1.425 . S
C2445 C2442 1.409 . S
C2445 C2443 1.415 . S
C2446 H2436 0.930 . S
C2446 C2444 1.419 . S
C2446 C2447 1.362 . S
C2447 H2437 0.930 . S
C2447 C2440 1.409 . S
C2447 C2446 1.362 . S
H2448 C2454 0.930 . S
H2449 C2457 0.930 . S
H2450 C2458 0.930 . S
H2451 C2459 0.930 . S
H2452 C2462 0.930 . S
H2453 C2463 0.930 . S
C2454 H2448 0.930 . S
C2454 C2455 1.355 . S
C2454 C2456 1.415 . S
C2455 C2454 1.355 . S
C2455 C2457 1.419 . S
C2456 C2454 1.415 . S
C2456 C2461 1.425 . S
C2456 C2463 1.409 . S
C2457 H2449 0.930 . S
C2457 C2455 1.419 . S
C2457 C2458 1.362 . S
C2458 H2450 0.930 . S
C2458 C2457 1.362 . S
C2458 C2461 1.409 . S
C2459 H2451 0.930 . S
C2459 C2460 1.355 . S
C2459 C2461 1.415 . S
C2460 C2459 1.355 . S
C2460 C2462 1.419 . S
C2461 C2456 1.425 . S
C2461 C2458 1.409 . S
C2461 C2459 1.415 . S
C2462 H2452 0.930 . S
C2462 C2460 1.419 . S
C2462 C2463 1.362 . S
C2463 H2453 0.930 . S
C2463 C2456 1.409 . S
C2463 C2462 1.362 . S
H2464 C2470 0.930 . S
H2465 C2473 0.930 . S
H2466 C2474 0.930 . S
H2467 C2475 0.930 . S
H2468 C2478 0.930 . S
H2469 C2479 0.930 . S
C2470 H2464 0.930 . S
C2470 C2471 1.355 . S
C2470 C2472 1.415 . S
C2471 C2470 1.355 . S
C2471 C2473 1.419 . S
C2472 C2470 1.415 . S
C2472 C2477 1.425 . S
C2472 C2479 1.409 . S
C2473 H2465 0.930 . S
C2473 C2471 1.419 . S
C2473 C2474 1.362 . S
C2474 H2466 0.930 . S
C2474 C2473 1.362 . S
C2474 C2477 1.409 . S
C2475 H2467 0.930 . S
C2475 C2476 1.355 . S
C2475 C2477 1.415 . S
C2476 C2475 1.355 . S
C2476 C2478 1.419 . S
C2477 C2472 1.425 . S
C2477 C2474 1.409 . S
C2477 C2475 1.415 . S
C2478 H2468 0.930 . S
C2478 C2476 1.419 . S
C2478 C2479 1.362 . S
C2479 H2469 0.930 . S
C2479 C2472 1.409 . S
C2479 C2478 1.362 . S
H2480 C2486 0.902 1_556 S
H2481 C2489 0.930 . S
H2482 C2490 0.930 . S
H2483 C2491 0.930 1_655 S
H2484 C2494 0.930 . S
H2485 C2495 0.930 1_556 S
C2486 H2480 0.902 1_554 S
C2486 C2487 1.368 . S
C2486 C2488 1.429 . S
C2487 C2486 1.368 . S
C2487 C2489 1.419 1_455 S
C2488 C2486 1.429 . S
C2488 C2493 1.425 . S
C2488 C2495 1.409 . S
C2489 H2481 0.930 . S
C2489 C2487 1.419 1_655 S
C2489 C2490 1.362 . S
C2490 H2482 0.930 . S
C2490 C2489 1.362 . S
C2490 C2493 1.409 1_655 S
C2491 H2483 0.930 1_455 S
C2491 C2492 1.355 . S
C2491 C2493 1.415 . S
C2492 C2491 1.355 . S
C2492 C2494 1.419 . S
C2493 C2488 1.425 . S
C2493 C2490 1.409 1_455 S
C2493 C2491 1.415 . S
C2494 H2484 0.930 . S
C2494 C2492 1.419 . S
C2494 C2495 1.362 . S
C2495 H2485 0.930 1_554 S
C2495 C2488 1.409 . S
C2495 C2494 1.362 . S
H2496 C2502 0.930 . S
H2497 C2505 0.930 . S
H2498 C2506 0.930 . S
H2499 C2507 0.930 . S
H2500 C2510 0.930 . S
H2501 C2511 0.930 . S
C2502 H2496 0.930 . S
C2502 C2503 1.355 . S
C2502 C2504 1.415 . S
C2503 C2502 1.355 . S
C2503 C2505 1.419 1_655 S
C2504 C2502 1.415 . S
C2504 C2509 1.425 . S
C2504 C2511 1.409 . S
C2505 H2497 0.930 . S
C2505 C2503 1.419 1_455 S
C2505 C2506 1.362 1_455 S
C2506 H2498 0.930 . S
C2506 C2505 1.362 1_655 S
C2506 C2509 1.409 . S
C2507 H2499 0.930 . S
C2507 C2508 1.355 . S
C2507 C2509 1.415 . S
C2508 C2507 1.355 . S
C2508 C2510 1.419 . S
C2509 C2504 1.425 . S
C2509 C2506 1.409 . S
C2509 C2507 1.415 . S
C2510 H2500 0.930 . S
C2510 C2508 1.419 . S
C2510 C2511 1.362 . S
C2511 H2501 0.930 . S
C2511 C2504 1.409 . S
C2511 C2510 1.362 . S
H2512 C2518 0.930 . S
H2513 C2521 0.930 . S
H2514 C2522 0.930 . S
H2515 C2523 0.930 . S
H2516 C2526 0.930 . S
H2517 C2527 0.930 . S
C2518 H2512 0.930 . S
C2518 C2519 1.355 . S
C2518 C2520 1.415 . S
C2519 C2518 1.355 . S
C2519 C2521 1.419 . S
C2520 C2518 1.415 . S
C2520 C2525 1.425 . S
C2520 C2527 1.409 . S
C2521 H2513 0.930 . S
C2521 C2519 1.419 . S
C2521 C2522 1.362 . S
C2522 H2514 0.930 . S
C2522 C2521 1.362 . S
C2522 C2525 1.409 . S
C2523 H2515 0.930 . S
C2523 C2524 1.355 . S
C2523 C2525 1.415 . S
C2524 C2523 1.355 . S
C2524 C2526 1.419 . S
C2525 C2520 1.425 . S
C2525 C2522 1.409 . S
C2525 C2523 1.415 . S
C2526 H2516 0.930 . S
C2526 C2524 1.419 . S
C2526 C2527 1.362 . S
C2527 H2517 0.930 . S
C2527 C2520 1.409 . S
C2527 C2526 1.362 . S
H2528 C2534 0.930 . S
H2529 C2537 0.930 . S
H2530 C2538 0.930 . S
H2531 C2539 0.930 . S
H2532 C2542 0.930 . S
H2533 C2543 0.930 . S
C2534 H2528 0.930 . S
C2534 C2535 1.355 . S
C2534 C2536 1.415 . S
C2535 C2534 1.355 . S
C2535 C2537 1.419 . S
C2536 C2534 1.415 . S
C2536 C2541 1.425 . S
C2536 C2543 1.409 . S
C2537 H2529 0.930 . S
C2537 C2535 1.419 . S
C2537 C2538 1.362 . S
C2538 H2530 0.930 . S
C2538 C2537 1.362 . S
C2538 C2541 1.409 . S
C2539 H2531 0.930 . S
C2539 C2540 1.355 . S
C2539 C2541 1.415 . S
C2540 C2539 1.355 . S
C2540 C2542 1.419 . S
C2541 C2536 1.425 . S
C2541 C2538 1.409 . S
C2541 C2539 1.415 . S
C2542 H2532 0.930 . S
C2542 C2540 1.419 . S
C2542 C2543 1.362 . S
C2543 H2533 0.930 . S
C2543 C2536 1.409 . S
C2543 C2542 1.362 . S
H2544 C2550 0.947 . S
H2545 C2553 0.930 . S
H2546 C2554 0.930 . S
H2547 C2555 0.930 . S
H2548 C2558 0.930 . S
H2549 C2559 0.930 . S
C2550 H2544 0.947 . S
C2550 C2551 1.347 1_655 S
C2550 C2552 1.405 1_655 S
C2551 C2550 1.347 1_455 S
C2551 C2553 1.419 . S
C2552 C2550 1.405 1_455 S
C2552 C2557 1.425 . S
C2552 C2559 1.409 1_455 S
C2553 H2545 0.930 . S
C2553 C2551 1.419 . S
C2553 C2554 1.362 . S
C2554 H2546 0.930 . S
C2554 C2553 1.362 . S
C2554 C2557 1.409 . S
C2555 H2547 0.930 . S
C2555 C2556 1.355 . S
C2555 C2557 1.415 . S
C2556 C2555 1.355 . S
C2556 C2558 1.419 1_455 S
C2557 C2552 1.425 . S
C2557 C2554 1.409 . S
C2557 C2555 1.415 . S
C2558 H2548 0.930 . S
C2558 C2556 1.419 1_655 S
C2558 C2559 1.362 . S
C2559 H2549 0.930 . S
C2559 C2552 1.409 1_655 S
C2559 C2558 1.362 . S
H2560 C2566 0.930 . S
H2561 C2569 0.930 . S
H2562 C2570 0.930 . S
H2563 C2571 0.930 . S
H2564 C2574 0.930 . S
H2565 C2575 0.930 . S
C2566 H2560 0.930 . S
C2566 C2567 1.355 . S
C2566 C2568 1.415 . S
C2567 C2566 1.355 . S
C2567 C2569 1.419 . S
C2568 C2566 1.415 . S
C2568 C2573 1.425 . S
C2568 C2575 1.409 . S
C2569 H2561 0.930 . S
C2569 C2567 1.419 . S
C2569 C2570 1.362 . S
C2570 H2562 0.930 . S
C2570 C2569 1.362 . S
C2570 C2573 1.409 . S
C2571 H2563 0.930 . S
C2571 C2572 1.355 . S
C2571 C2573 1.415 . S
C2572 C2571 1.355 . S
C2572 C2574 1.419 . S
C2573 C2568 1.425 . S
C2573 C2570 1.409 . S
C2573 C2571 1.415 . S
C2574 H2564 0.930 . S
C2574 C2572 1.419 . S
C2574 C2575 1.362 . S
C2575 H2565 0.930 . S
C2575 C2568 1.409 . S
C2575 C2574 1.362 . S
H2576 C2582 0.930 . S
H2577 C2585 0.930 . S
H2578 C2586 0.930 . S
H2579 C2587 0.930 . S
H2580 C2590 0.930 . S
H2581 C2591 0.930 . S
C2582 H2576 0.930 . S
C2582 C2583 1.355 . S
C2582 C2584 1.415 . S
C2583 C2582 1.355 . S
C2583 C2585 1.419 . S
C2584 C2582 1.415 . S
C2584 C2589 1.425 . S
C2584 C2591 1.409 . S
C2585 H2577 0.930 . S
C2585 C2583 1.419 . S
C2585 C2586 1.362 . S
C2586 H2578 0.930 . S
C2586 C2585 1.362 . S
C2586 C2589 1.409 . S
C2587 H2579 0.930 . S
C2587 C2588 1.355 . S
C2587 C2589 1.415 . S
C2588 C2587 1.355 . S
C2588 C2590 1.419 . S
C2589 C2584 1.425 . S
C2589 C2586 1.409 . S
C2589 C2587 1.415 . S
C2590 H2580 0.930 . S
C2590 C2588 1.419 . S
C2590 C2591 1.362 . S
C2591 H2581 0.930 . S
C2591 C2584 1.409 . S
C2591 C2590 1.362 . S
H2592 C2598 0.930 . S
H2593 C2601 0.930 . S
H2594 C2602 0.930 . S
H2595 C2603 0.930 . S
H2596 C2606 0.930 . S
H2597 C2607 0.930 . S
C2598 H2592 0.930 . S
C2598 C2599 1.359 . S
C2598 C2600 1.415 . S
C2599 C2598 1.359 . S
C2599 C2601 1.419 1_556 S
C2600 C2598 1.415 . S
C2600 C2605 1.425 . S
C2600 C2607 1.409 . S
C2601 H2593 0.930 . S
C2601 C2599 1.419 1_554 S
C2601 C2602 1.362 1_554 S
C2602 H2594 0.930 . S
C2602 C2601 1.362 1_556 S
C2602 C2605 1.409 . S
C2603 H2595 0.930 . S
C2603 C2604 1.355 . S
C2603 C2605 1.415 . S
C2604 C2603 1.355 . S
C2604 C2606 1.419 . S
C2605 C2600 1.425 . S
C2605 C2602 1.409 . S
C2605 C2603 1.415 . S
C2606 H2596 0.930 . S
C2606 C2604 1.419 . S
C2606 C2607 1.362 . S
C2607 H2597 0.930 . S
C2607 C2600 1.409 . S
C2607 C2606 1.362 . S
H2608 C2614 0.930 . S
H2609 C2617 0.930 . S
H2610 C2618 0.930 . S
H2611 C2619 0.930 . S
H2612 C2622 0.930 . S
H2613 C2623 0.930 . S
C2614 H2608 0.930 . S
C2614 C2615 1.355 . S
C2614 C2616 1.415 . S
C2615 C2614 1.355 . S
C2615 C2617 1.419 . S
C2616 C2614 1.415 . S
C2616 C2621 1.425 . S
C2616 C2623 1.409 . S
C2617 H2609 0.930 . S
C2617 C2615 1.419 . S
C2617 C2618 1.362 . S
C2618 H2610 0.930 . S
C2618 C2617 1.362 . S
C2618 C2621 1.409 . S
C2619 H2611 0.930 . S
C2619 C2620 1.355 . S
C2619 C2621 1.415 . S
C2620 C2619 1.355 . S
C2620 C2622 1.419 . S
C2621 C2616 1.425 . S
C2621 C2618 1.409 . S
C2621 C2619 1.415 . S
C2622 H2612 0.930 . S
C2622 C2620 1.419 . S
C2622 C2623 1.362 . S
C2623 H2613 0.930 . S
C2623 C2616 1.409 . S
C2623 C2622 1.362 . S
H2624 C2630 0.930 . S
H2625 C2633 0.930 . S
H2626 C2634 0.930 . S
H2627 C2635 0.930 . S
H2628 C2638 0.930 . S
H2629 C2639 0.930 . S
C2630 H2624 0.930 . S
C2630 C2631 1.355 . S
C2630 C2632 1.415 . S
C2631 C2630 1.355 . S
C2631 C2633 1.419 . S
C2632 C2630 1.415 . S
C2632 C2637 1.425 . S
C2632 C2639 1.409 . S
C2633 H2625 0.930 . S
C2633 C2631 1.419 . S
C2633 C2634 1.362 . S
C2634 H2626 0.930 . S
C2634 C2633 1.362 . S
C2634 C2637 1.409 . S
C2635 H2627 0.930 . S
C2635 C2636 1.355 . S
C2635 C2637 1.415 . S
C2636 C2635 1.355 . S
C2636 C2638 1.419 . S
C2637 C2632 1.425 . S
C2637 C2634 1.409 . S
C2637 C2635 1.415 . S
C2638 H2628 0.930 . S
C2638 C2636 1.419 . S
C2638 C2639 1.362 . S
C2639 H2629 0.930 . S
C2639 C2632 1.409 . S
C2639 C2638 1.362 . S
H2640 C2646 0.930 . S
H2641 C2649 0.930 . S
H2642 C2650 0.930 . S
H2643 C2651 0.930 . S
H2644 C2654 0.930 . S
H2645 C2655 0.930 . S
C2646 H2640 0.930 . S
C2646 C2647 1.355 . S
C2646 C2648 1.415 . S
C2647 C2646 1.355 . S
C2647 C2649 1.419 . S
C2648 C2646 1.415 . S
C2648 C2653 1.425 . S
C2648 C2655 1.409 . S
C2649 H2641 0.930 . S
C2649 C2647 1.419 . S
C2649 C2650 1.362 . S
C2650 H2642 0.930 . S
C2650 C2649 1.362 . S
C2650 C2653 1.409 . S
C2651 H2643 0.930 . S
C2651 C2652 1.355 . S
C2651 C2653 1.415 . S
C2652 C2651 1.355 . S
C2652 C2654 1.419 . S
C2653 C2648 1.425 . S
C2653 C2650 1.409 . S
C2653 C2651 1.415 . S
C2654 H2644 0.930 . S
C2654 C2652 1.419 . S
C2654 C2655 1.362 . S
C2655 H2645 0.930 . S
C2655 C2648 1.409 . S
C2655 C2654 1.362 . S
H2656 C2662 0.930 . S
H2657 C2665 0.930 . S
H2658 C2666 0.930 . S
H2659 C2667 0.930 . S
H2660 C2670 0.930 . S
H2661 C2671 0.930 . S
C2662 H2656 0.930 . S
C2662 C2663 1.355 . S
C2662 C2664 1.415 . S
C2663 C2662 1.355 . S
C2663 C2665 1.419 . S
C2664 C2662 1.415 . S
C2664 C2669 1.425 . S
C2664 C2671 1.409 . S
C2665 H2657 0.930 . S
C2665 C2663 1.419 . S
C2665 C2666 1.362 . S
C2666 H2658 0.930 . S
C2666 C2665 1.362 . S
C2666 C2669 1.409 . S
C2667 H2659 0.930 . S
C2667 C2668 1.355 . S
C2667 C2669 1.415 . S
C2668 C2667 1.355 . S
C2668 C2670 1.419 . S
C2669 C2664 1.425 . S
C2669 C2666 1.409 . S
C2669 C2667 1.415 . S
C2670 H2660 0.930 . S
C2670 C2668 1.419 . S
C2670 C2671 1.362 . S
C2671 H2661 0.930 . S
C2671 C2664 1.409 . S
C2671 C2670 1.362 . S
H2672 C2678 0.930 . S
H2673 C2681 0.930 . S
H2674 C2682 0.930 . S
H2675 C2683 0.930 . S
H2676 C2686 0.930 . S
H2677 C2687 0.930 . S
C2678 H2672 0.930 . S
C2678 C2679 1.355 . S
C2678 C2680 1.415 . S
C2679 C2678 1.355 . S
C2679 C2681 1.419 . S
C2680 C2678 1.415 . S
C2680 C2685 1.425 . S
C2680 C2687 1.409 . S
C2681 H2673 0.930 . S
C2681 C2679 1.419 . S
C2681 C2682 1.362 . S
C2682 H2674 0.930 . S
C2682 C2681 1.362 . S
C2682 C2685 1.409 . S
C2683 H2675 0.930 . S
C2683 C2684 1.355 . S
C2683 C2685 1.415 . S
C2684 C2683 1.355 . S
C2684 C2686 1.419 . S
C2685 C2680 1.425 . S
C2685 C2682 1.409 . S
C2685 C2683 1.415 . S
C2686 H2676 0.930 . S
C2686 C2684 1.419 . S
C2686 C2687 1.362 . S
C2687 H2677 0.930 . S
C2687 C2680 1.409 . S
C2687 C2686 1.362 . S
H2688 C2694 0.930 . S
H2689 C2697 0.930 . S
H2690 C2698 0.930 . S
H2691 C2699 0.930 . S
H2692 C2702 0.930 . S
H2693 C2703 0.930 . S
C2694 H2688 0.930 . S
C2694 C2695 1.355 . S
C2694 C2696 1.415 . S
C2695 C2694 1.355 . S
C2695 C2697 1.419 . S
C2696 C2694 1.415 . S
C2696 C2701 1.425 . S
C2696 C2703 1.409 . S
C2697 H2689 0.930 . S
C2697 C2695 1.419 . S
C2697 C2698 1.362 . S
C2698 H2690 0.930 . S
C2698 C2697 1.362 . S
C2698 C2701 1.409 . S
C2699 H2691 0.930 . S
C2699 C2700 1.355 . S
C2699 C2701 1.415 . S
C2700 C2699 1.355 . S
C2700 C2702 1.419 . S
C2701 C2696 1.425 . S
C2701 C2698 1.409 . S
C2701 C2699 1.415 . S
C2702 H2692 0.930 . S
C2702 C2700 1.419 . S
C2702 C2703 1.362 . S
C2703 H2693 0.930 . S
C2703 C2696 1.409 . S
C2703 C2702 1.362 . S
H2704 C2710 0.930 . S
H2705 C2713 0.930 . S
H2706 C2714 0.930 . S
H2707 C2715 0.930 . S
H2708 C2718 0.930 . S
H2709 C2719 0.930 . S
C2710 H2704 0.930 . S
C2710 C2711 1.355 . S
C2710 C2712 1.415 . S
C2711 C2710 1.355 . S
C2711 C2713 1.419 . S
C2712 C2710 1.415 . S
C2712 C2717 1.425 . S
C2712 C2719 1.409 . S
C2713 H2705 0.930 . S
C2713 C2711 1.419 . S
C2713 C2714 1.362 . S
C2714 H2706 0.930 . S
C2714 C2713 1.362 . S
C2714 C2717 1.409 . S
C2715 H2707 0.930 . S
C2715 C2716 1.355 . S
C2715 C2717 1.415 . S
C2716 C2715 1.355 . S
C2716 C2718 1.419 . S
C2717 C2712 1.425 . S
C2717 C2714 1.409 . S
C2717 C2715 1.415 . S
C2718 H2708 0.930 . S
C2718 C2716 1.419 . S
C2718 C2719 1.362 . S
C2719 H2709 0.930 . S
C2719 C2712 1.409 . S
C2719 C2718 1.362 . S
H2720 C2726 0.930 . S
H2721 C2729 0.930 . S
H2722 C2730 0.930 . S
H2723 C2731 0.930 . S
H2724 C2734 0.930 . S
H2725 C2735 0.930 . S
C2726 H2720 0.930 . S
C2726 C2727 1.355 . S
C2726 C2728 1.415 . S
C2727 C2726 1.355 . S
C2727 C2729 1.419 . S
C2728 C2726 1.415 . S
C2728 C2733 1.425 . S
C2728 C2735 1.409 . S
C2729 H2721 0.930 . S
C2729 C2727 1.419 . S
C2729 C2730 1.362 . S
C2730 H2722 0.930 . S
C2730 C2729 1.362 . S
C2730 C2733 1.409 . S
C2731 H2723 0.930 . S
C2731 C2732 1.355 . S
C2731 C2733 1.415 . S
C2732 C2731 1.355 . S
C2732 C2734 1.419 . S
C2733 C2728 1.425 . S
C2733 C2730 1.409 . S
C2733 C2731 1.415 . S
C2734 H2724 0.930 . S
C2734 C2732 1.419 . S
C2734 C2735 1.362 . S
C2735 H2725 0.930 . S
C2735 C2728 1.409 . S
C2735 C2734 1.362 . S
H2736 C2742 0.930 . S
H2737 C2745 0.930 1_545 S
H2738 C2746 0.930 . S
H2739 C2747 0.930 . S
H2740 C2750 0.930 . S
H2741 C2751 0.930 . S
C2742 H2736 0.930 . S
C2742 C2743 1.355 . S
C2742 C2744 1.415 . S
C2743 C2742 1.355 . S
C2743 C2745 1.419 . S
C2744 C2742 1.415 . S
C2744 C2749 1.425 . S
C2744 C2751 1.409 . S
C2745 H2737 0.930 1_565 S
C2745 C2743 1.419 . S
C2745 C2746 1.362 . S
C2746 H2738 0.930 . S
C2746 C2745 1.362 . S
C2746 C2749 1.409 . S
C2747 H2739 0.930 . S
C2747 C2748 1.355 . S
C2747 C2749 1.415 . S
C2748 C2747 1.355 . S
C2748 C2750 1.419 . S
C2749 C2744 1.425 . S
C2749 C2746 1.409 . S
C2749 C2747 1.415 . S
C2750 H2740 0.930 . S
C2750 C2748 1.419 . S
C2750 C2751 1.362 . S
C2751 H2741 0.930 . S
C2751 C2744 1.409 . S
C2751 C2750 1.362 . S
H2752 C2758 0.923 1_556 S
H2753 C2761 0.930 . S
H2754 C2762 0.930 . S
H2755 C2763 0.930 . S
H2756 C2766 0.930 1_556 S
H2757 C2767 0.930 . S
C2758 H2752 0.923 1_554 S
C2758 C2759 1.359 . S
C2758 C2760 1.416 . S
C2759 C2758 1.359 . S
C2759 C2761 1.419 . S
C2760 C2758 1.416 . S
C2760 C2765 1.425 . S
C2760 C2767 1.409 1_554 S
C2761 H2753 0.930 . S
C2761 C2759 1.419 . S
C2761 C2762 1.362 . S
C2762 H2754 0.930 . S
C2762 C2761 1.362 . S
C2762 C2765 1.409 . S
C2763 H2755 0.930 . S
C2763 C2764 1.355 . S
C2763 C2765 1.415 1_545 S
C2764 C2763 1.355 . S
C2764 C2766 1.419 . S
C2765 C2760 1.425 . S
C2765 C2762 1.409 . S
C2765 C2763 1.415 1_565 S
C2766 H2756 0.930 1_554 S
C2766 C2764 1.419 . S
C2766 C2767 1.362 1_544 S
C2767 H2757 0.930 . S
C2767 C2760 1.409 1_556 S
C2767 C2766 1.362 1_566 S
H2768 C2774 0.930 . S
H2769 C2777 0.930 . S
H2770 C2778 0.930 . S
H2771 C2779 0.930 . S
H2772 C2782 0.930 . S
H2773 C2783 0.930 . S
C2774 H2768 0.930 . S
C2774 C2775 1.355 . S
C2774 C2776 1.415 . S
C2775 C2774 1.355 . S
C2775 C2777 1.419 . S
C2776 C2774 1.415 . S
C2776 C2781 1.425 . S
C2776 C2783 1.409 . S
C2777 H2769 0.930 . S
C2777 C2775 1.419 . S
C2777 C2778 1.362 . S
C2778 H2770 0.930 . S
C2778 C2777 1.362 . S
C2778 C2781 1.409 . S
C2779 H2771 0.930 . S
C2779 C2780 1.355 . S
C2779 C2781 1.415 . S
C2780 C2779 1.355 . S
C2780 C2782 1.419 . S
C2781 C2776 1.425 . S
C2781 C2778 1.409 . S
C2781 C2779 1.415 . S
C2782 H2772 0.930 . S
C2782 C2780 1.419 . S
C2782 C2783 1.362 . S
C2783 H2773 0.930 . S
C2783 C2776 1.409 . S
C2783 C2782 1.362 . S
H2784 C2790 0.930 . S
H2785 C2793 0.930 . S
H2786 C2794 0.930 . S
H2787 C2795 0.930 . S
H2788 C2798 0.930 . S
H2789 C2799 0.930 . S
C2790 H2784 0.930 . S
C2790 C2791 1.355 . S
C2790 C2792 1.415 . S
C2791 C2790 1.355 . S
C2791 C2793 1.419 . S
C2792 C2790 1.415 . S
C2792 C2797 1.425 . S
C2792 C2799 1.409 . S
C2793 H2785 0.930 . S
C2793 C2791 1.419 . S
C2793 C2794 1.362 . S
C2794 H2786 0.930 . S
C2794 C2793 1.362 . S
C2794 C2797 1.409 . S
C2795 H2787 0.930 . S
C2795 C2796 1.355 . S
C2795 C2797 1.415 . S
C2796 C2795 1.355 . S
C2796 C2798 1.419 . S
C2797 C2792 1.425 . S
C2797 C2794 1.409 . S
C2797 C2795 1.415 . S
C2798 H2788 0.930 . S
C2798 C2796 1.419 . S
C2798 C2799 1.362 . S
C2799 H2789 0.930 . S
C2799 C2792 1.409 . S
C2799 C2798 1.362 . S
H2800 C2806 0.930 . S
H2801 C2809 0.930 . S
H2802 C2810 0.930 . S
H2803 C2811 0.930 . S
H2804 C2814 0.930 . S
H2805 C2815 0.930 . S
C2806 H2800 0.930 . S
C2806 C2807 1.355 . S
C2806 C2808 1.415 . S
C2807 C2806 1.355 . S
C2807 C2809 1.419 . S
C2808 C2806 1.415 . S
C2808 C2813 1.425 . S
C2808 C2815 1.409 . S
C2809 H2801 0.930 . S
C2809 C2807 1.419 . S
C2809 C2810 1.362 . S
C2810 H2802 0.930 . S
C2810 C2809 1.362 . S
C2810 C2813 1.409 . S
C2811 H2803 0.930 . S
C2811 C2812 1.355 . S
C2811 C2813 1.415 . S
C2812 C2811 1.355 . S
C2812 C2814 1.419 . S
C2813 C2808 1.425 . S
C2813 C2810 1.409 . S
C2813 C2811 1.415 . S
C2814 H2804 0.930 . S
C2814 C2812 1.419 . S
C2814 C2815 1.362 . S
C2815 H2805 0.930 . S
C2815 C2808 1.409 . S
C2815 C2814 1.362 . S
H2816 C2822 0.930 . S
H2817 C2825 0.930 . S
H2818 C2826 0.930 . S
H2819 C2827 0.930 . S
H2820 C2830 0.930 . S
H2821 C2831 0.930 . S
C2822 H2816 0.930 . S
C2822 C2823 1.355 . S
C2822 C2824 1.415 . S
C2823 C2822 1.355 . S
C2823 C2825 1.419 . S
C2824 C2822 1.415 . S
C2824 C2829 1.425 . S
C2824 C2831 1.409 . S
C2825 H2817 0.930 . S
C2825 C2823 1.419 . S
C2825 C2826 1.362 . S
C2826 H2818 0.930 . S
C2826 C2825 1.362 . S
C2826 C2829 1.409 . S
C2827 H2819 0.930 . S
C2827 C2828 1.355 . S
C2827 C2829 1.415 . S
C2828 C2827 1.355 . S
C2828 C2830 1.419 . S
C2829 C2824 1.425 . S
C2829 C2826 1.409 . S
C2829 C2827 1.415 . S
C2830 H2820 0.930 . S
C2830 C2828 1.419 . S
C2830 C2831 1.362 . S
C2831 H2821 0.930 . S
C2831 C2824 1.409 . S
C2831 C2830 1.362 . S
H2832 C2838 0.930 . S
H2833 C2841 0.930 . S
H2834 C2842 0.930 . S
H2835 C2843 0.930 . S
H2836 C2846 0.930 . S
H2837 C2847 0.930 . S
C2838 H2832 0.930 . S
C2838 C2839 1.355 . S
C2838 C2840 1.415 . S
C2839 C2838 1.355 . S
C2839 C2841 1.419 . S
C2840 C2838 1.415 . S
C2840 C2845 1.425 . S
C2840 C2847 1.409 . S
C2841 H2833 0.930 . S
C2841 C2839 1.419 . S
C2841 C2842 1.362 . S
C2842 H2834 0.930 . S
C2842 C2841 1.362 . S
C2842 C2845 1.409 . S
C2843 H2835 0.930 . S
C2843 C2844 1.355 . S
C2843 C2845 1.415 . S
C2844 C2843 1.355 . S
C2844 C2846 1.419 . S
C2845 C2840 1.425 . S
C2845 C2842 1.409 . S
C2845 C2843 1.415 . S
C2846 H2836 0.930 . S
C2846 C2844 1.419 . S
C2846 C2847 1.362 . S
C2847 H2837 0.930 . S
C2847 C2840 1.409 . S
C2847 C2846 1.362 . S
H2848 C2854 0.930 . S
H2849 C2857 0.930 . S
H2850 C2858 0.930 . S
H2851 C2859 0.930 . S
H2852 C2862 0.930 . S
H2853 C2863 0.930 . S
C2854 H2848 0.930 . S
C2854 C2855 1.355 . S
C2854 C2856 1.415 . S
C2855 C2854 1.355 . S
C2855 C2857 1.419 . S
C2856 C2854 1.415 . S
C2856 C2861 1.425 . S
C2856 C2863 1.409 . S
C2857 H2849 0.930 . S
C2857 C2855 1.419 . S
C2857 C2858 1.362 . S
C2858 H2850 0.930 . S
C2858 C2857 1.362 . S
C2858 C2861 1.409 . S
C2859 H2851 0.930 . S
C2859 C2860 1.355 . S
C2859 C2861 1.415 . S
C2860 C2859 1.355 . S
C2860 C2862 1.419 . S
C2861 C2856 1.425 . S
C2861 C2858 1.409 . S
C2861 C2859 1.415 . S
C2862 H2852 0.930 . S
C2862 C2860 1.419 . S
C2862 C2863 1.362 . S
C2863 H2853 0.930 . S
C2863 C2856 1.409 . S
C2863 C2862 1.362 . S
H2864 C2870 0.930 . S
H2865 C2873 0.930 . S
H2866 C2874 0.930 . S
H2867 C2875 0.930 . S
H2868 C2878 0.930 . S
H2869 C2879 0.930 . S
C2870 H2864 0.930 . S
C2870 C2871 1.355 . S
C2870 C2872 1.415 . S
C2871 C2870 1.355 . S
C2871 C2873 1.419 . S
C2872 C2870 1.415 . S
C2872 C2877 1.425 . S
C2872 C2879 1.409 . S
C2873 H2865 0.930 . S
C2873 C2871 1.419 . S
C2873 C2874 1.362 . S
C2874 H2866 0.930 . S
C2874 C2873 1.362 . S
C2874 C2877 1.409 . S
C2875 H2867 0.930 . S
C2875 C2876 1.355 . S
C2875 C2877 1.415 . S
C2876 C2875 1.355 . S
C2876 C2878 1.419 . S
C2877 C2872 1.425 . S
C2877 C2874 1.409 . S
C2877 C2875 1.415 . S
C2878 H2868 0.930 . S
C2878 C2876 1.419 . S
C2878 C2879 1.362 . S
C2879 H2869 0.930 . S
C2879 C2872 1.409 . S
C2879 C2878 1.362 . S
H2880 C2886 0.930 . S
H2881 C2889 0.930 . S
H2882 C2890 0.930 . S
H2883 C2891 0.930 . S
H2884 C2894 0.930 . S
H2885 C2895 0.930 . S
C2886 H2880 0.930 . S
C2886 C2887 1.355 . S
C2886 C2888 1.415 . S
C2887 C2886 1.355 . S
C2887 C2889 1.419 . S
C2888 C2886 1.415 . S
C2888 C2893 1.425 . S
C2888 C2895 1.409 . S
C2889 H2881 0.930 . S
C2889 C2887 1.419 . S
C2889 C2890 1.362 . S
C2890 H2882 0.930 . S
C2890 C2889 1.362 . S
C2890 C2893 1.409 . S
C2891 H2883 0.930 . S
C2891 C2892 1.355 . S
C2891 C2893 1.415 . S
C2892 C2891 1.355 . S
C2892 C2894 1.419 . S
C2893 C2888 1.425 . S
C2893 C2890 1.409 . S
C2893 C2891 1.415 . S
C2894 H2884 0.930 . S
C2894 C2892 1.419 . S
C2894 C2895 1.362 . S
C2895 H2885 0.930 . S
C2895 C2888 1.409 . S
C2895 C2894 1.362 . S
H2896 C2902 0.930 . S
H2897 C2905 0.930 . S
H2898 C2906 0.930 . S
H2899 C2907 0.930 . S
H2900 C2910 0.930 . S
H2901 C2911 0.930 . S
C2902 H2896 0.930 . S
C2902 C2903 1.355 . S
C2902 C2904 1.415 . S
C2903 C2902 1.355 . S
C2903 C2905 1.419 . S
C2904 C2902 1.415 . S
C2904 C2909 1.425 . S
C2904 C2911 1.409 . S
C2905 H2897 0.930 . S
C2905 C2903 1.419 . S
C2905 C2906 1.362 . S
C2906 H2898 0.930 . S
C2906 C2905 1.362 . S
C2906 C2909 1.409 . S
C2907 H2899 0.930 . S
C2907 C2908 1.355 . S
C2907 C2909 1.415 . S
C2908 C2907 1.355 . S
C2908 C2910 1.419 . S
C2909 C2904 1.425 . S
C2909 C2906 1.409 . S
C2909 C2907 1.415 . S
C2910 H2900 0.930 . S
C2910 C2908 1.419 . S
C2910 C2911 1.362 . S
C2911 H2901 0.930 . S
C2911 C2904 1.409 . S
C2911 C2910 1.362 . S
H2912 C2918 0.930 . S
H2913 C2921 0.930 . S
H2914 C2922 0.930 . S
H2915 C2923 0.930 . S
H2916 C2926 0.930 . S
H2917 C2927 0.930 . S
C2918 H2912 0.930 . S
C2918 C2919 1.355 . S
C2918 C2920 1.415 . S
C2919 C2918 1.355 . S
C2919 C2921 1.419 . S
C2920 C2918 1.415 . S
C2920 C2925 1.425 . S
C2920 C2927 1.409 . S
C2921 H2913 0.930 . S
C2921 C2919 1.419 . S
C2921 C2922 1.362 . S
C2922 H2914 0.930 . S
C2922 C2921 1.362 . S
C2922 C2925 1.409 . S
C2923 H2915 0.930 . S
C2923 C2924 1.355 . S
C2923 C2925 1.415 . S
C2924 C2923 1.355 . S
C2924 C2926 1.419 . S
C2925 C2920 1.425 . S
C2925 C2922 1.409 . S
C2925 C2923 1.415 . S
C2926 H2916 0.930 . S
C2926 C2924 1.419 . S
C2926 C2927 1.362 . S
C2927 H2917 0.930 . S
C2927 C2920 1.409 . S
C2927 C2926 1.362 . S
H2928 C2934 0.930 . S
H2929 C2937 0.930 . S
H2930 C2938 0.930 . S
H2931 C2939 0.930 . S
H2932 C2942 0.930 . S
H2933 C2943 0.930 . S
C2934 H2928 0.930 . S
C2934 C2935 1.355 . S
C2934 C2936 1.415 . S
C2935 C2934 1.355 . S
C2935 C2937 1.419 . S
C2936 C2934 1.415 . S
C2936 C2941 1.425 . S
C2936 C2943 1.409 . S
C2937 H2929 0.930 . S
C2937 C2935 1.419 . S
C2937 C2938 1.362 . S
C2938 H2930 0.930 . S
C2938 C2937 1.362 . S
C2938 C2941 1.409 . S
C2939 H2931 0.930 . S
C2939 C2940 1.355 . S
C2939 C2941 1.415 . S
C2940 C2939 1.355 . S
C2940 C2942 1.419 . S
C2941 C2936 1.425 . S
C2941 C2938 1.409 . S
C2941 C2939 1.415 . S
C2942 H2932 0.930 . S
C2942 C2940 1.419 . S
C2942 C2943 1.362 . S
C2943 H2933 0.930 . S
C2943 C2936 1.409 . S
C2943 C2942 1.362 . S
H2944 C2950 0.930 . S
H2945 C2953 0.930 . S
H2946 C2954 0.930 . S
H2947 C2955 0.930 . S
H2948 C2958 0.930 . S
H2949 C2959 0.930 . S
C2950 H2944 0.930 . S
C2950 C2951 1.355 . S
C2950 C2952 1.415 . S
C2951 C2950 1.355 . S
C2951 C2953 1.419 . S
C2952 C2950 1.415 . S
C2952 C2957 1.425 . S
C2952 C2959 1.409 . S
C2953 H2945 0.930 . S
C2953 C2951 1.419 . S
C2953 C2954 1.362 . S
C2954 H2946 0.930 . S
C2954 C2953 1.362 . S
C2954 C2957 1.409 . S
C2955 H2947 0.930 . S
C2955 C2956 1.355 . S
C2955 C2957 1.415 . S
C2956 C2955 1.355 . S
C2956 C2958 1.419 . S
C2957 C2952 1.425 . S
C2957 C2954 1.409 . S
C2957 C2955 1.415 . S
C2958 H2948 0.930 . S
C2958 C2956 1.419 . S
C2958 C2959 1.362 . S
C2959 H2949 0.930 . S
C2959 C2952 1.409 . S
C2959 C2958 1.362 . S
H2960 C2966 0.930 . S
H2961 C2969 0.930 . S
H2962 C2970 0.930 . S
H2963 C2971 0.930 . S
H2964 C2974 0.930 . S
H2965 C2975 0.930 . S
C2966 H2960 0.930 . S
C2966 C2967 1.355 . S
C2966 C2968 1.415 . S
C2967 C2966 1.355 . S
C2967 C2969 1.419 . S
C2968 C2966 1.415 . S
C2968 C2973 1.425 . S
C2968 C2975 1.409 . S
C2969 H2961 0.930 . S
C2969 C2967 1.419 . S
C2969 C2970 1.362 . S
C2970 H2962 0.930 . S
C2970 C2969 1.362 . S
C2970 C2973 1.409 . S
C2971 H2963 0.930 . S
C2971 C2972 1.355 . S
C2971 C2973 1.415 . S
C2972 C2971 1.355 . S
C2972 C2974 1.419 . S
C2973 C2968 1.425 . S
C2973 C2970 1.409 . S
C2973 C2971 1.415 . S
C2974 H2964 0.930 . S
C2974 C2972 1.419 . S
C2974 C2975 1.362 . S
C2975 H2965 0.930 . S
C2975 C2968 1.409 . S
C2975 C2974 1.362 . S
H2976 C2982 0.930 . S
H2977 C2985 0.930 . S
H2978 C2986 0.930 . S
H2979 C2987 0.930 . S
H2980 C2990 0.930 . S
H2981 C2991 0.930 . S
C2982 H2976 0.930 . S
C2982 C2983 1.355 . S
C2982 C2984 1.415 . S
C2983 C2982 1.355 . S
C2983 C2985 1.419 . S
C2984 C2982 1.415 . S
C2984 C2989 1.425 . S
C2984 C2991 1.409 . S
C2985 H2977 0.930 . S
C2985 C2983 1.419 . S
C2985 C2986 1.362 . S
C2986 H2978 0.930 . S
C2986 C2985 1.362 . S
C2986 C2989 1.409 . S
C2987 H2979 0.930 . S
C2987 C2988 1.355 . S
C2987 C2989 1.415 . S
C2988 C2987 1.355 . S
C2988 C2990 1.419 . S
C2989 C2984 1.425 . S
C2989 C2986 1.409 . S
C2989 C2987 1.415 . S
C2990 H2980 0.930 . S
C2990 C2988 1.419 . S
C2990 C2991 1.362 . S
C2991 H2981 0.930 . S
C2991 C2984 1.409 . S
C2991 C2990 1.362 . S
H2992 C2998 0.930 . S
H2993 C3001 0.930 . S
H2994 C3002 0.930 . S
H2995 C3003 0.930 1_455 S
H2996 C3006 0.930 . S
H2997 C3007 0.930 . S
C2998 H2992 0.930 . S
C2998 C2999 1.355 . S
C2998 C3000 1.415 . S
C2999 C2998 1.355 . S
C2999 C3001 1.419 . S
C3000 C2998 1.415 . S
C3000 C3005 1.425 . S
C3000 C3007 1.409 . S
C3001 H2993 0.930 . S
C3001 C2999 1.419 . S
C3001 C3002 1.362 . S
C3002 H2994 0.930 . S
C3002 C3001 1.362 . S
C3002 C3005 1.409 . S
C3003 H2995 0.930 1_655 S
C3003 C3004 1.355 1_556 S
C3003 C3005 1.415 . S
C3004 C3003 1.355 1_554 S
C3004 C3006 1.419 . S
C3005 C3000 1.425 . S
C3005 C3002 1.409 . S
C3005 C3003 1.415 . S
C3006 H2996 0.930 . S
C3006 C3004 1.419 . S
C3006 C3007 1.362 1_554 S
C3007 H2997 0.930 . S
C3007 C3000 1.409 . S
C3007 C3006 1.362 1_556 S
H3008 C3014 0.930 . S
H3009 C3017 0.930 . S
H3010 C3018 0.930 . S
H3011 C3019 0.930 . S
H3012 C3022 0.930 . S
H3013 C3023 0.930 . S
C3014 H3008 0.930 . S
C3014 C3015 1.355 . S
C3014 C3016 1.415 . S
C3015 C3014 1.355 . S
C3015 C3017 1.419 . S
C3016 C3014 1.415 . S
C3016 C3021 1.425 . S
C3016 C3023 1.409 . S
C3017 H3009 0.930 . S
C3017 C3015 1.419 . S
C3017 C3018 1.362 . S
C3018 H3010 0.930 . S
C3018 C3017 1.362 . S
C3018 C3021 1.409 . S
C3019 H3011 0.930 . S
C3019 C3020 1.355 . S
C3019 C3021 1.415 . S
C3020 C3019 1.355 . S
C3020 C3022 1.419 . S
C3021 C3016 1.425 . S
C3021 C3018 1.409 . S
C3021 C3019 1.415 . S
C3022 H3012 0.930 . S
C3022 C3020 1.419 . S
C3022 C3023 1.362 . S
C3023 H3013 0.930 . S
C3023 C3016 1.409 . S
C3023 C3022 1.362 . S
H3024 C3030 0.930 . S
H3025 C3033 0.930 . S
H3026 C3034 0.930 . S
H3027 C3035 0.930 . S
H3028 C3038 0.930 . S
H3029 C3039 0.930 . S
C3030 H3024 0.930 . S
C3030 C3031 1.355 . S
C3030 C3032 1.415 . S
C3031 C3030 1.355 . S
C3031 C3033 1.419 . S
C3032 C3030 1.415 . S
C3032 C3037 1.425 . S
C3032 C3039 1.409 . S
C3033 H3025 0.930 . S
C3033 C3031 1.419 . S
C3033 C3034 1.362 . S
C3034 H3026 0.930 . S
C3034 C3033 1.362 . S
C3034 C3037 1.409 . S
C3035 H3027 0.930 . S
C3035 C3036 1.355 . S
C3035 C3037 1.415 . S
C3036 C3035 1.355 . S
C3036 C3038 1.419 . S
C3037 C3032 1.425 . S
C3037 C3034 1.409 . S
C3037 C3035 1.415 . S
C3038 H3028 0.930 . S
C3038 C3036 1.419 . S
C3038 C3039 1.362 . S
C3039 H3029 0.930 . S
C3039 C3032 1.409 . S
C3039 C3038 1.362 . S
H3040 C3046 0.930 . S
H3041 C3049 0.930 . S
H3042 C3050 0.930 . S
H3043 C3051 0.930 . S
H3044 C3054 0.930 . S
H3045 C3055 0.930 . S
C3046 H3040 0.930 . S
C3046 C3047 1.355 . S
C3046 C3048 1.415 . S
C3047 C3046 1.355 . S
C3047 C3049 1.419 . S
C3048 C3046 1.415 . S
C3048 C3053 1.425 . S
C3048 C3055 1.409 . S
C3049 H3041 0.930 . S
C3049 C3047 1.419 . S
C3049 C3050 1.362 . S
C3050 H3042 0.930 . S
C3050 C3049 1.362 . S
C3050 C3053 1.409 . S
C3051 H3043 0.930 . S
C3051 C3052 1.355 . S
C3051 C3053 1.415 . S
C3052 C3051 1.355 . S
C3052 C3054 1.419 . S
C3053 C3048 1.425 . S
C3053 C3050 1.409 . S
C3053 C3051 1.415 . S
C3054 H3044 0.930 . S
C3054 C3052 1.419 . S
C3054 C3055 1.362 . S
C3055 H3045 0.930 . S
C3055 C3048 1.409 . S
C3055 C3054 1.362 . S
H3056 C3062 0.930 . S
H3057 C3065 0.930 . S
H3058 C3066 0.930 . S
H3059 C3067 0.930 . S
H3060 C3070 0.930 . S
H3061 C3071 0.930 . S
C3062 H3056 0.930 . S
C3062 C3063 1.355 . S
C3062 C3064 1.415 . S
C3063 C3062 1.355 . S
C3063 C3065 1.419 . S
C3064 C3062 1.415 . S
C3064 C3069 1.425 . S
C3064 C3071 1.409 . S
C3065 H3057 0.930 . S
C3065 C3063 1.419 . S
C3065 C3066 1.362 . S
C3066 H3058 0.930 . S
C3066 C3065 1.362 . S
C3066 C3069 1.409 . S
C3067 H3059 0.930 . S
C3067 C3068 1.355 . S
C3067 C3069 1.415 . S
C3068 C3067 1.355 . S
C3068 C3070 1.419 . S
C3069 C3064 1.425 . S
C3069 C3066 1.409 . S
C3069 C3067 1.415 . S
C3070 H3060 0.930 . S
C3070 C3068 1.419 . S
C3070 C3071 1.362 . S
C3071 H3061 0.930 . S
C3071 C3064 1.409 . S
C3071 C3070 1.362 . S
H3072 C3078 0.930 . S
H3073 C3081 0.930 . S
H3074 C3082 0.930 . S
H3075 C3083 0.930 . S
H3076 C3086 0.930 . S
H3077 C3087 0.930 . S
C3078 H3072 0.930 . S
C3078 C3079 1.355 . S
C3078 C3080 1.415 . S
C3079 C3078 1.355 . S
C3079 C3081 1.419 . S
C3080 C3078 1.415 . S
C3080 C3085 1.425 . S
C3080 C3087 1.409 . S
C3081 H3073 0.930 . S
C3081 C3079 1.419 . S
C3081 C3082 1.362 . S
C3082 H3074 0.930 . S
C3082 C3081 1.362 . S
C3082 C3085 1.409 . S
C3083 H3075 0.930 . S
C3083 C3084 1.355 . S
C3083 C3085 1.415 . S
C3084 C3083 1.355 . S
C3084 C3086 1.419 . S
C3085 C3080 1.425 . S
C3085 C3082 1.409 . S
C3085 C3083 1.415 . S
C3086 H3076 0.930 . S
C3086 C3084 1.419 . S
C3086 C3087 1.362 . S
C3087 H3077 0.930 . S
C3087 C3080 1.409 . S
C3087 C3086 1.362 . S
H3088 C3094 0.930 . S
H3089 C3097 0.930 . S
H3090 C3098 0.930 . S
H3091 C3099 0.930 . S
H3092 C3102 0.930 . S
H3093 C3103 0.930 . S
C3094 H3088 0.930 . S
C3094 C3095 1.355 . S
C3094 C3096 1.415 . S
C3095 C3094 1.355 . S
C3095 C3097 1.419 . S
C3096 C3094 1.415 . S
C3096 C3101 1.425 . S
C3096 C3103 1.409 . S
C3097 H3089 0.930 . S
C3097 C3095 1.419 . S
C3097 C3098 1.362 . S
C3098 H3090 0.930 . S
C3098 C3097 1.362 . S
C3098 C3101 1.409 . S
C3099 H3091 0.930 . S
C3099 C3100 1.355 . S
C3099 C3101 1.415 . S
C3100 C3099 1.355 . S
C3100 C3102 1.419 . S
C3101 C3096 1.425 . S
C3101 C3098 1.409 . S
C3101 C3099 1.415 . S
C3102 H3092 0.930 . S
C3102 C3100 1.419 . S
C3102 C3103 1.362 . S
C3103 H3093 0.930 . S
C3103 C3096 1.409 . S
C3103 C3102 1.362 . S
H3104 C3110 0.930 . S
H3105 C3113 0.930 . S
H3106 C3114 0.930 . S
H3107 C3115 0.930 . S
H3108 C3118 0.930 . S
H3109 C3119 0.930 . S
C3110 H3104 0.930 . S
C3110 C3111 1.355 . S
C3110 C3112 1.415 . S
C3111 C3110 1.355 . S
C3111 C3113 1.419 . S
C3112 C3110 1.415 . S
C3112 C3117 1.425 . S
C3112 C3119 1.409 . S
C3113 H3105 0.930 . S
C3113 C3111 1.419 . S
C3113 C3114 1.362 . S
C3114 H3106 0.930 . S
C3114 C3113 1.362 . S
C3114 C3117 1.409 . S
C3115 H3107 0.930 . S
C3115 C3116 1.355 . S
C3115 C3117 1.415 . S
C3116 C3115 1.355 . S
C3116 C3118 1.419 1_565 S
C3117 C3112 1.425 . S
C3117 C3114 1.409 . S
C3117 C3115 1.415 . S
C3118 H3108 0.930 . S
C3118 C3116 1.419 1_545 S
C3118 C3119 1.362 1_545 S
C3119 H3109 0.930 . S
C3119 C3112 1.409 . S
C3119 C3118 1.362 1_565 S
H3120 C3126 0.930 . S
H3121 C3129 0.930 . S
H3122 C3130 0.930 . S
H3123 C3131 0.930 . S
H3124 C3134 0.930 . S
H3125 C3135 0.930 . S
C3126 H3120 0.930 . S
C3126 C3127 1.355 . S
C3126 C3128 1.415 . S
C3127 C3126 1.355 . S
C3127 C3129 1.419 . S
C3128 C3126 1.415 . S
C3128 C3133 1.425 . S
C3128 C3135 1.409 . S
C3129 H3121 0.930 . S
C3129 C3127 1.419 . S
C3129 C3130 1.362 . S
C3130 H3122 0.930 . S
C3130 C3129 1.362 . S
C3130 C3133 1.409 . S
C3131 H3123 0.930 . S
C3131 C3132 1.355 . S
C3131 C3133 1.415 . S
C3132 C3131 1.355 . S
C3132 C3134 1.419 . S
C3133 C3128 1.425 . S
C3133 C3130 1.409 . S
C3133 C3131 1.415 . S
C3134 H3124 0.930 . S
C3134 C3132 1.419 . S
C3134 C3135 1.362 . S
C3135 H3125 0.930 . S
C3135 C3128 1.409 . S
C3135 C3134 1.362 . S
H3136 C3142 0.930 . S
H3137 C3145 0.930 . S
H3138 C3146 0.930 . S
H3139 C3147 0.930 . S
H3140 C3150 0.930 . S
H3141 C3151 0.930 . S
C3142 H3136 0.930 . S
C3142 C3143 1.355 . S
C3142 C3144 1.415 . S
C3143 C3142 1.355 . S
C3143 C3145 1.419 . S
C3144 C3142 1.415 . S
C3144 C3149 1.425 . S
C3144 C3151 1.409 . S
C3145 H3137 0.930 . S
C3145 C3143 1.419 . S
C3145 C3146 1.362 . S
C3146 H3138 0.930 . S
C3146 C3145 1.362 . S
C3146 C3149 1.409 . S
C3147 H3139 0.930 . S
C3147 C3148 1.355 . S
C3147 C3149 1.415 . S
C3148 C3147 1.355 . S
C3148 C3150 1.419 . S
C3149 C3144 1.425 . S
C3149 C3146 1.409 . S
C3149 C3147 1.415 . S
C3150 H3140 0.930 . S
C3150 C3148 1.419 . S
C3150 C3151 1.362 . S
C3151 H3141 0.930 . S
C3151 C3144 1.409 . S
C3151 C3150 1.362 . S
H3152 C3158 0.930 . S
H3153 C3161 0.930 . S
H3154 C3162 0.930 . S
H3155 C3163 0.930 . S
H3156 C3166 0.930 . S
H3157 C3167 0.930 . S
C3158 H3152 0.930 . S
C3158 C3159 1.355 . S
C3158 C3160 1.415 . S
C3159 C3158 1.355 . S
C3159 C3161 1.419 . S
C3160 C3158 1.415 . S
C3160 C3165 1.425 . S
C3160 C3167 1.409 . S
C3161 H3153 0.930 . S
C3161 C3159 1.419 . S
C3161 C3162 1.362 . S
C3162 H3154 0.930 . S
C3162 C3161 1.362 . S
C3162 C3165 1.409 . S
C3163 H3155 0.930 . S
C3163 C3164 1.355 . S
C3163 C3165 1.415 . S
C3164 C3163 1.355 . S
C3164 C3166 1.419 . S
C3165 C3160 1.425 . S
C3165 C3162 1.409 . S
C3165 C3163 1.415 . S
C3166 H3156 0.930 . S
C3166 C3164 1.419 . S
C3166 C3167 1.362 . S
C3167 H3157 0.930 . S
C3167 C3160 1.409 . S
C3167 C3166 1.362 . S
H3168 C3174 0.930 . S
H3169 C3177 0.930 . S
H3170 C3178 0.930 . S
H3171 C3179 0.930 . S
H3172 C3182 0.930 . S
H3173 C3183 0.930 . S
C3174 H3168 0.930 . S
C3174 C3175 1.355 . S
C3174 C3176 1.415 . S
C3175 C3174 1.355 . S
C3175 C3177 1.419 . S
C3176 C3174 1.415 . S
C3176 C3181 1.425 . S
C3176 C3183 1.409 . S
C3177 H3169 0.930 . S
C3177 C3175 1.419 . S
C3177 C3178 1.362 . S
C3178 H3170 0.930 . S
C3178 C3177 1.362 . S
C3178 C3181 1.409 . S
C3179 H3171 0.930 . S
C3179 C3180 1.355 . S
C3179 C3181 1.415 . S
C3180 C3179 1.355 . S
C3180 C3182 1.419 . S
C3181 C3176 1.425 . S
C3181 C3178 1.409 . S
C3181 C3179 1.415 . S
C3182 H3172 0.930 . S
C3182 C3180 1.419 . S
C3182 C3183 1.362 . S
C3183 H3173 0.930 . S
C3183 C3176 1.409 . S
C3183 C3182 1.362 . S
H3184 C3190 0.930 . S
H3185 C3193 0.930 . S
H3186 C3194 0.930 . S
H3187 C3195 0.930 . S
H3188 C3198 0.930 . S
H3189 C3199 0.930 . S
C3190 H3184 0.930 . S
C3190 C3191 1.355 . S
C3190 C3192 1.415 . S
C3191 C3190 1.355 . S
C3191 C3193 1.419 . S
C3192 C3190 1.415 . S
C3192 C3197 1.425 . S
C3192 C3199 1.409 . S
C3193 H3185 0.930 . S
C3193 C3191 1.419 . S
C3193 C3194 1.362 . S
C3194 H3186 0.930 . S
C3194 C3193 1.362 . S
C3194 C3197 1.409 . S
C3195 H3187 0.930 . S
C3195 C3196 1.355 . S
C3195 C3197 1.415 . S
C3196 C3195 1.355 . S
C3196 C3198 1.419 . S
C3197 C3192 1.425 . S
C3197 C3194 1.409 . S
C3197 C3195 1.415 . S
C3198 H3188 0.930 . S
C3198 C3196 1.419 . S
C3198 C3199 1.362 . S
C3199 H3189 0.930 . S
C3199 C3192 1.409 . S
C3199 C3198 1.362 . S
H3200 C3206 0.930 . S
H3201 C3209 0.930 . S
H3202 C3210 0.930 . S
H3203 C3211 0.930 . S
H3204 C3214 0.930 . S
H3205 C3215 0.930 . S
C3206 H3200 0.930 . S
C3206 C3207 1.355 . S
C3206 C3208 1.415 . S
C3207 C3206 1.355 . S
C3207 C3209 1.419 . S
C3208 C3206 1.415 . S
C3208 C3213 1.425 . S
C3208 C3215 1.409 . S
C3209 H3201 0.930 . S
C3209 C3207 1.419 . S
C3209 C3210 1.362 . S
C3210 H3202 0.930 . S
C3210 C3209 1.362 . S
C3210 C3213 1.409 . S
C3211 H3203 0.930 . S
C3211 C3212 1.355 . S
C3211 C3213 1.415 . S
C3212 C3211 1.355 . S
C3212 C3214 1.419 . S
C3213 C3208 1.425 . S
C3213 C3210 1.409 . S
C3213 C3211 1.415 . S
C3214 H3204 0.930 . S
C3214 C3212 1.419 . S
C3214 C3215 1.362 . S
C3215 H3205 0.930 . S
C3215 C3208 1.409 . S
C3215 C3214 1.362 . S
C1687 C106 2.435 1_455 S
C1692 C392 2.515 . S
C1703 C65 1.897 . S
C1708 C494 1.868 . S
C1719 C79 2.119 . S
C1724 C560 2.151 . S
C1740 C646 1.190 . S
C1735 C90 1.271 . S
C1751 C21 1.221 . S
C1756 C730 1.245 . S
C1772 C812 1.819 . S
C1767 C35 1.796 . S
C1788 C914 1.944 . S
C1783 C50 1.964 . S
C1799 C6 2.057 . S
C1804 C980 2.124 . S
C1820 C410 1.955 . S
C1815 C232 1.981 . S
C1831 C245 0.930 . S
C1836 C478 1.006 . S
C1852 C578 1.223 . S
C1847 C274 1.248 . S
C1868 C644 1.639 . S
C1863 C175 1.620 . S
C1879 C231 1.476 . S
C1884 C728 1.493 . S
C1900 C830 1.165 . S
C1895 C246 1.175 . S
C1916 C898 0.922 . S
C1911 C273 0.923 . S
C1932 C998 1.907 . S
C1927 C176 1.926 . S
C1948 C394 1.183 . S
C1943 C160 1.060 . S
C1959 C289 1.681 . S
C1964 C1082 1.658 . S
C1980 C1150 1.343 . S
C1975 C328 1.342 . S
C1996 C1232 0.998 . S
C1991 C317 0.973 . S
C2007 C118 1.132 . S
C2012 C982 1.167 . S
C2023 C132 1.370 . S
C2028 C562 1.334 . S
C2039 C331 1.744 . S
C2044 C1334 1.741 . S
C2060 C1400 1.051 . S
C2055 C303 1.030 . S
C2076 C403 2.158 . S
C2071 C63 2.156 . S
C2092 C1407 2.328 . S
C2087 C107 2.269 . S
C2103 C92 1.984 . S
C2108 C571 2.063 . S
C2119 C78 1.770 . S
C2124 C1329 1.640 . S
C2140 C741 1.649 . S
C2135 C8 1.774 . S
C2151 C51 2.029 . S
C2156 C1159 2.061 . S
C2172 C903 2.324 1_556 S
C2167 C37 2.286 . S
C2188 C1495 2.179 . S
C2183 C20 2.169 . S
C2204 C399 1.772 1_556 S
C2199 C147 1.797 . S
C2220 C1413 1.072 . S
C2215 C316 1.137 . S
C2231 C119 1.128 . S
C2236 C567 1.248 . S
C2247 C288 1.774 . S
C2252 C1327 1.805 . S
C2263 C148 1.775 . S
C2268 C739 1.812 . S
C2284 C1155 1.241 . S
C2279 C315 1.241 . S
C2295 C120 1.152 . S
C2300 C909 1.093 . S
C2311 C287 1.829 . S
C2316 C1491 1.789 . S
C2327 C188 1.031 . S
C2332 C405 0.942 . S
C2343 C177 1.968 . S
C2348 C1071 1.978 . S
C2359 C258 1.478 . S
C2364 C825 1.392 . S
C2375 C247 0.997 . S
C2380 C1243 1.025 . S
C2396 C1497 0.973 . S
C2391 C272 1.042 1_565 S
C2407 C216 1.320 . S
C2412 C573 1.269 . S
C2428 C651 1.984 . S
C2423 C261 1.986 . S
C2444 C487 1.034 . S
C2439 C205 1.058 . S
C2455 C76 2.089 . S
C2460 C1568 2.142 . S
C2476 C1418 1.935 . S
C2471 C93 1.963 . S
C2487 C105 1.782 1_554 S
C2492 C1652 1.809 . S
C2503 C62 1.241 1_655 S
C2508 C1318 1.164 . S
C2519 C49 1.252 . S
C2524 C1066 1.232 . S
C2540 C1148 2.167 . S
C2535 C9 2.122 . S
C2556 C1250 1.886 . S
C2551 C22 1.893 . S
C2572 C1484 2.529 . S
C2567 C36 2.482 . S
C2588 C1586 1.899 . S
C2583 C260 1.923 . S
C2599 C189 0.810 1_556 S
C2604 C1402 0.897 . S
C2620 C1670 1.167 . S
C2615 C204 1.191 . S
C2636 C1316 1.496 . S
C2631 C217 1.489 . S
C2652 C1064 1.639 . S
C2647 C259 1.584 . S
C2663 C190 1.283 . S
C2668 C1166 1.286 . S
C2684 C1234 0.895 . S
C2679 C203 1.004 . S
C2695 C218 2.010 . S
C2700 C1502 1.991 . S
C2716 C1570 1.103 . S
C2711 C314 1.123 . S
C2727 C135 1.741 . S
C2732 C746 1.712 . S
C2748 C814 1.343 . S
C2743 C146 1.319 1_565 S
C2764 C896 1.052 . S
C2759 C163 1.052 . S
C2780 C1486 1.145 . S
C2775 C300 1.157 . S
C2791 C286 1.363 . S
C2796 C1654 1.416 . S
C2812 C662 1.669 . S
C2807 C149 1.675 . S
C2828 C476 0.996 . S
C2823 C121 0.971 . S
C2839 C91 2.149 . S
C2844 C1579 2.148 . S
C2860 C483 1.943 . S
C2855 C77 1.852 . S
C2871 C64 2.008 . S
C2876 C1663 2.049 . S
C2887 C104 1.453 . S
C2892 C657 1.348 . S
C2903 C34 1.378 . S
C2908 C1077 1.360 . S
C2924 C823 2.057 . S
C2919 C23 2.020 . S
C2935 C7 1.802 . S
C2940 C1239 1.954 . S
C2951 C48 2.166 . S
C2956 C991 2.173 . S
C2972 C1575 1.777 . S
C2967 C329 1.800 . S
C2983 C162 1.160 . S
C2988 C489 1.061 . S
C3004 C1659 1.207 1_655 S
C2999 C301 1.154 . S
C3015 C134 1.819 . S
C3020 C655 1.819 . S
C3031 C330 1.786 . S
C3036 C1075 1.822 . S
C3052 C819 1.224 . S
C3047 C161 1.127 . S
C3063 C302 1.153 . S
C3068 C1245 1.031 . S
C3084 C987 1.785 . S
C3079 C133 1.795 . S
C3100 C1581 1.156 . S
C3095 C244 1.120 . S
C3116 C735 1.949 1_565 S
C3111 C219 1.921 . S
C3127 C230 1.309 . S
C3132 C1161 1.303 . S
C3148 C907 0.998 . S
C3143 C191 1.024 . S
C3159 C202 1.144 . S
C3164 C993 1.142 . S
C3175 C174 1.481 . S
C3180 C1665 1.399 . S
C3196 C1323 1.946 . S
C3191 C233 1.928 . S
C3212 C1411 1.002 . S
C3207 C275 0.968 . S
