# Generated by pormake.
# Topology iac, (4,6)-cn, num edge types: 1
# Building blocks:
#     Node 0, Type 0, BuildingBlock: QUQFOY_clean_sbu_1, # of connection points: 4
#     Node 1, Type 0, BuildingBlock: QUQFOY_clean_sbu_1, # of connection points: 4
#     Node 2, Type 0, BuildingBlock: QUQFOY_clean_sbu_1, # of connection points: 4
#     Node 3, Type 0, BuildingBlock: QUQFOY_clean_sbu_1, # of connection points: 4
#     Node 4, Type 0, BuildingBlock: QUQFOY_clean_sbu_1, # of connection points: 4
#     Node 5, Type 0, BuildingBlock: QUQFOY_clean_sbu_1, # of connection points: 4
#     Node 6, Type 0, BuildingBlock: QUQFOY_clean_sbu_1, # of connection points: 4
#     Node 7, Type 0, BuildingBlock: QUQFOY_clean_sbu_1, # of connection points: 4
#     Node 8, Type 0, BuildingBlock: QUQFOY_clean_sbu_1, # of connection points: 4
#     Node 9, Type 0, BuildingBlock: QUQFOY_clean_sbu_1, # of connection points: 4
#     Node 10, Type 0, BuildingBlock: QUQFOY_clean_sbu_1, # of connection points: 4
#     Node 11, Type 0, BuildingBlock: QUQFOY_clean_sbu_1, # of connection points: 4
#     Node 12, Type 0, BuildingBlock: QUQFOY_clean_sbu_1, # of connection points: 4
#     Node 13, Type 0, BuildingBlock: QUQFOY_clean_sbu_1, # of connection points: 4
#     Node 14, Type 0, BuildingBlock: QUQFOY_clean_sbu_1, # of connection points: 4
#     Node 15, Type 0, BuildingBlock: QUQFOY_clean_sbu_1, # of connection points: 4
#     Node 16, Type 0, BuildingBlock: QUQFOY_clean_sbu_1, # of connection points: 4
#     Node 17, Type 0, BuildingBlock: QUQFOY_clean_sbu_1, # of connection points: 4
#     Node 18, Type 0, BuildingBlock: QUQFOY_clean_sbu_1, # of connection points: 4
#     Node 19, Type 0, BuildingBlock: QUQFOY_clean_sbu_1, # of connection points: 4
#     Node 20, Type 0, BuildingBlock: QUQFOY_clean_sbu_1, # of connection points: 4
#     Node 21, Type 0, BuildingBlock: QUQFOY_clean_sbu_1, # of connection points: 4
#     Node 22, Type 0, BuildingBlock: QUQFOY_clean_sbu_1, # of connection points: 4
#     Node 23, Type 0, BuildingBlock: QUQFOY_clean_sbu_1, # of connection points: 4
#     Node 24, Type 1, BuildingBlock: FUNLAD_clean_sbu_0, # of connection points: 6
#     Node 25, Type 1, BuildingBlock: FUNLAD_clean_sbu_0, # of connection points: 6
#     Node 26, Type 1, BuildingBlock: FUNLAD_clean_sbu_0, # of connection points: 6
#     Node 27, Type 1, BuildingBlock: FUNLAD_clean_sbu_0, # of connection points: 6
#     Node 28, Type 1, BuildingBlock: FUNLAD_clean_sbu_0, # of connection points: 6
#     Node 29, Type 1, BuildingBlock: FUNLAD_clean_sbu_0, # of connection points: 6
#     Node 30, Type 1, BuildingBlock: FUNLAD_clean_sbu_0, # of connection points: 6
#     Node 31, Type 1, BuildingBlock: FUNLAD_clean_sbu_0, # of connection points: 6
#     Node 32, Type 1, BuildingBlock: FUNLAD_clean_sbu_0, # of connection points: 6
#     Node 33, Type 1, BuildingBlock: FUNLAD_clean_sbu_0, # of connection points: 6
#     Node 34, Type 1, BuildingBlock: FUNLAD_clean_sbu_0, # of connection points: 6
#     Node 35, Type 1, BuildingBlock: FUNLAD_clean_sbu_0, # of connection points: 6
#     Node 36, Type 1, BuildingBlock: FUNLAD_clean_sbu_0, # of connection points: 6
#     Node 37, Type 1, BuildingBlock: FUNLAD_clean_sbu_0, # of connection points: 6
#     Node 38, Type 1, BuildingBlock: FUNLAD_clean_sbu_0, # of connection points: 6
#     Node 39, Type 1, BuildingBlock: FUNLAD_clean_sbu_0, # of connection points: 6
#     Edge 40, Type (0, 1), BuildingBlock: OJICUG_clean_linker_0, # of connection points: 2
#     Edge 41, Type (0, 1), BuildingBlock: OJICUG_clean_linker_0, # of connection points: 2
#     Edge 42, Type (0, 1), BuildingBlock: OJICUG_clean_linker_0, # of connection points: 2
#     Edge 43, Type (0, 1), BuildingBlock: OJICUG_clean_linker_0, # of connection points: 2
#     Edge 44, Type (0, 1), BuildingBlock: OJICUG_clean_linker_0, # of connection points: 2
#     Edge 45, Type (0, 1), BuildingBlock: OJICUG_clean_linker_0, # of connection points: 2
#     Edge 46, Type (0, 1), BuildingBlock: OJICUG_clean_linker_0, # of connection points: 2
#     Edge 47, Type (0, 1), BuildingBlock: OJICUG_clean_linker_0, # of connection points: 2
#     Edge 48, Type (0, 1), BuildingBlock: OJICUG_clean_linker_0, # of connection points: 2
#     Edge 49, Type (0, 1), BuildingBlock: OJICUG_clean_linker_0, # of connection points: 2
#     Edge 50, Type (0, 1), BuildingBlock: OJICUG_clean_linker_0, # of connection points: 2
#     Edge 51, Type (0, 1), BuildingBlock: OJICUG_clean_linker_0, # of connection points: 2
#     Edge 52, Type (0, 1), BuildingBlock: OJICUG_clean_linker_0, # of connection points: 2
#     Edge 53, Type (0, 1), BuildingBlock: OJICUG_clean_linker_0, # of connection points: 2
#     Edge 54, Type (0, 1), BuildingBlock: OJICUG_clean_linker_0, # of connection points: 2
#     Edge 55, Type (0, 1), BuildingBlock: OJICUG_clean_linker_0, # of connection points: 2
#     Edge 56, Type (0, 1), BuildingBlock: OJICUG_clean_linker_0, # of connection points: 2
#     Edge 57, Type (0, 1), BuildingBlock: OJICUG_clean_linker_0, # of connection points: 2
#     Edge 58, Type (0, 1), BuildingBlock: OJICUG_clean_linker_0, # of connection points: 2
#     Edge 59, Type (0, 1), BuildingBlock: OJICUG_clean_linker_0, # of connection points: 2
#     Edge 60, Type (0, 1), BuildingBlock: OJICUG_clean_linker_0, # of connection points: 2
#     Edge 61, Type (0, 1), BuildingBlock: OJICUG_clean_linker_0, # of connection points: 2
#     Edge 62, Type (0, 1), BuildingBlock: OJICUG_clean_linker_0, # of connection points: 2
#     Edge 63, Type (0, 1), BuildingBlock: OJICUG_clean_linker_0, # of connection points: 2
#     Edge 64, Type (0, 1), BuildingBlock: OJICUG_clean_linker_0, # of connection points: 2
#     Edge 65, Type (0, 1), BuildingBlock: OJICUG_clean_linker_0, # of connection points: 2
#     Edge 66, Type (0, 1), BuildingBlock: OJICUG_clean_linker_0, # of connection points: 2
#     Edge 67, Type (0, 1), BuildingBlock: OJICUG_clean_linker_0, # of connection points: 2
#     Edge 68, Type (0, 1), BuildingBlock: OJICUG_clean_linker_0, # of connection points: 2
#     Edge 69, Type (0, 1), BuildingBlock: OJICUG_clean_linker_0, # of connection points: 2
#     Edge 70, Type (0, 1), BuildingBlock: OJICUG_clean_linker_0, # of connection points: 2
#     Edge 71, Type (0, 1), BuildingBlock: OJICUG_clean_linker_0, # of connection points: 2
#     Edge 72, Type (0, 1), BuildingBlock: OJICUG_clean_linker_0, # of connection points: 2
#     Edge 73, Type (0, 1), BuildingBlock: OJICUG_clean_linker_0, # of connection points: 2
#     Edge 74, Type (0, 1), BuildingBlock: OJICUG_clean_linker_0, # of connection points: 2
#     Edge 75, Type (0, 1), BuildingBlock: OJICUG_clean_linker_0, # of connection points: 2
#     Edge 76, Type (0, 1), BuildingBlock: OJICUG_clean_linker_0, # of connection points: 2
#     Edge 77, Type (0, 1), BuildingBlock: OJICUG_clean_linker_0, # of connection points: 2
#     Edge 78, Type (0, 1), BuildingBlock: OJICUG_clean_linker_0, # of connection points: 2
#     Edge 79, Type (0, 1), BuildingBlock: OJICUG_clean_linker_0, # of connection points: 2
#     Edge 80, Type (0, 1), BuildingBlock: OJICUG_clean_linker_0, # of connection points: 2
#     Edge 81, Type (0, 1), BuildingBlock: OJICUG_clean_linker_0, # of connection points: 2
#     Edge 82, Type (0, 1), BuildingBlock: OJICUG_clean_linker_0, # of connection points: 2
#     Edge 83, Type (0, 1), BuildingBlock: OJICUG_clean_linker_0, # of connection points: 2
#     Edge 84, Type (0, 1), BuildingBlock: OJICUG_clean_linker_0, # of connection points: 2
#     Edge 85, Type (0, 1), BuildingBlock: OJICUG_clean_linker_0, # of connection points: 2
#     Edge 86, Type (0, 1), BuildingBlock: OJICUG_clean_linker_0, # of connection points: 2
#     Edge 87, Type (0, 1), BuildingBlock: OJICUG_clean_linker_0, # of connection points: 2
#     Edge 88, Type (0, 1), BuildingBlock: OJICUG_clean_linker_0, # of connection points: 2
#     Edge 89, Type (0, 1), BuildingBlock: OJICUG_clean_linker_0, # of connection points: 2
#     Edge 90, Type (0, 1), BuildingBlock: OJICUG_clean_linker_0, # of connection points: 2
#     Edge 91, Type (0, 1), BuildingBlock: OJICUG_clean_linker_0, # of connection points: 2
#     Edge 92, Type (0, 1), BuildingBlock: OJICUG_clean_linker_0, # of connection points: 2
#     Edge 93, Type (0, 1), BuildingBlock: OJICUG_clean_linker_0, # of connection points: 2
#     Edge 94, Type (0, 1), BuildingBlock: OJICUG_clean_linker_0, # of connection points: 2
#     Edge 95, Type (0, 1), BuildingBlock: OJICUG_clean_linker_0, # of connection points: 2
#     Edge 96, Type (0, 1), BuildingBlock: OJICUG_clean_linker_0, # of connection points: 2
#     Edge 97, Type (0, 1), BuildingBlock: OJICUG_clean_linker_0, # of connection points: 2
#     Edge 98, Type (0, 1), BuildingBlock: OJICUG_clean_linker_0, # of connection points: 2
#     Edge 99, Type (0, 1), BuildingBlock: OJICUG_clean_linker_0, # of connection points: 2
#     Edge 100, Type (0, 1), BuildingBlock: OJICUG_clean_linker_0, # of connection points: 2
#     Edge 101, Type (0, 1), BuildingBlock: OJICUG_clean_linker_0, # of connection points: 2
#     Edge 102, Type (0, 1), BuildingBlock: OJICUG_clean_linker_0, # of connection points: 2
#     Edge 103, Type (0, 1), BuildingBlock: OJICUG_clean_linker_0, # of connection points: 2
#     Edge 104, Type (0, 1), BuildingBlock: OJICUG_clean_linker_0, # of connection points: 2
#     Edge 105, Type (0, 1), BuildingBlock: OJICUG_clean_linker_0, # of connection points: 2
#     Edge 106, Type (0, 1), BuildingBlock: OJICUG_clean_linker_0, # of connection points: 2
#     Edge 107, Type (0, 1), BuildingBlock: OJICUG_clean_linker_0, # of connection points: 2
#     Edge 108, Type (0, 1), BuildingBlock: OJICUG_clean_linker_0, # of connection points: 2
#     Edge 109, Type (0, 1), BuildingBlock: OJICUG_clean_linker_0, # of connection points: 2
#     Edge 110, Type (0, 1), BuildingBlock: OJICUG_clean_linker_0, # of connection points: 2
#     Edge 111, Type (0, 1), BuildingBlock: OJICUG_clean_linker_0, # of connection points: 2
#     Edge 112, Type (0, 1), BuildingBlock: OJICUG_clean_linker_0, # of connection points: 2
#     Edge 113, Type (0, 1), BuildingBlock: OJICUG_clean_linker_0, # of connection points: 2
#     Edge 114, Type (0, 1), BuildingBlock: OJICUG_clean_linker_0, # of connection points: 2
#     Edge 115, Type (0, 1), BuildingBlock: OJICUG_clean_linker_0, # of connection points: 2
#     Edge 116, Type (0, 1), BuildingBlock: OJICUG_clean_linker_0, # of connection points: 2
#     Edge 117, Type (0, 1), BuildingBlock: OJICUG_clean_linker_0, # of connection points: 2
#     Edge 118, Type (0, 1), BuildingBlock: OJICUG_clean_linker_0, # of connection points: 2
#     Edge 119, Type (0, 1), BuildingBlock: OJICUG_clean_linker_0, # of connection points: 2
#     Edge 120, Type (0, 1), BuildingBlock: OJICUG_clean_linker_0, # of connection points: 2
#     Edge 121, Type (0, 1), BuildingBlock: OJICUG_clean_linker_0, # of connection points: 2
#     Edge 122, Type (0, 1), BuildingBlock: OJICUG_clean_linker_0, # of connection points: 2
#     Edge 123, Type (0, 1), BuildingBlock: OJICUG_clean_linker_0, # of connection points: 2
#     Edge 124, Type (0, 1), BuildingBlock: OJICUG_clean_linker_0, # of connection points: 2
#     Edge 125, Type (0, 1), BuildingBlock: OJICUG_clean_linker_0, # of connection points: 2
#     Edge 126, Type (0, 1), BuildingBlock: OJICUG_clean_linker_0, # of connection points: 2
#     Edge 127, Type (0, 1), BuildingBlock: OJICUG_clean_linker_0, # of connection points: 2
#     Edge 128, Type (0, 1), BuildingBlock: OJICUG_clean_linker_0, # of connection points: 2
#     Edge 129, Type (0, 1), BuildingBlock: OJICUG_clean_linker_0, # of connection points: 2
#     Edge 130, Type (0, 1), BuildingBlock: OJICUG_clean_linker_0, # of connection points: 2
#     Edge 131, Type (0, 1), BuildingBlock: OJICUG_clean_linker_0, # of connection points: 2
#     Edge 132, Type (0, 1), BuildingBlock: OJICUG_clean_linker_0, # of connection points: 2
#     Edge 133, Type (0, 1), BuildingBlock: OJICUG_clean_linker_0, # of connection points: 2
#     Edge 134, Type (0, 1), BuildingBlock: OJICUG_clean_linker_0, # of connection points: 2
#     Edge 135, Type (0, 1), BuildingBlock: OJICUG_clean_linker_0, # of connection points: 2
# Relax obj value: 0.396
# Max RMSD: 0.286
# Mean RMSD: 0.191
data_MOF--net-iac--node1-QUQFOY_clean_sbu_1--node2-FUNLAD_clean_sbu_0--edge1-OJICUG_clean_linker_0
_symmetry_space_group_name_H-M    P1
_symmetry_Int_Tables_number       1
_symmetry_cell_setting            triclinic
loop_
_symmetry_equiv_pos_as_xyz
'x, y, z'
_cell_length_a     41.298808
_cell_length_b     40.068595
_cell_length_c     46.516221
_cell_angle_alpha  90.084085
_cell_angle_beta   91.863802
_cell_angle_gamma 92.721085
loop_
_atom_site_label
_atom_site_type_symbol
_atom_site_fract_x
_atom_site_fract_y
_atom_site_fract_z
_atom_type_partial_charge
O0 O 0.05943 0.15332 0.15703 0.0
Cd1 Cd 0.0692 0.18951 0.18733 0.0
Cd2 Cd 0.09989 0.22277 0.14468 0.0
O3 O 0.08347 0.18124 0.12228 0.0
O4 O 0.03737 0.18251 0.21744 0.0
O5 O 0.03895 0.2263 0.18801 0.0
C6 C 0.02558 0.2102 0.20894 0.0
C7 C 0.09249 0.27246 0.12139 0.0
C8 C 0.06679 0.15604 0.13088 0.0
C9 C 0.13773 0.21142 0.19936 0.0
O10 O 0.13777 0.22313 0.17408 0.0
O11 O 0.11276 0.19599 0.20868 0.0
O12 O 0.11587 0.25391 0.11498 0.0
O13 O 0.07315 0.26268 0.14131 0.0
O14 O 0.11703 0.76161 0.39269 0.0
Cd15 Cd 0.07986 0.76042 0.42274 0.0
Cd16 Cd 0.04823 0.79465 0.37231 0.0
O17 O 0.09199 0.78021 0.35347 0.0
O18 O 0.09466 0.73022 0.45497 0.0
O19 O 0.05285 0.71683 0.42594 0.0
C20 C 0.0717 0.70882 0.4473 0.0
C21 C 0.99646 0.78768 0.34794 0.0
C22 C 0.1172 0.76859 0.36588 0.0
C23 C 0.0548 0.83086 0.43135 0.0
O24 O 0.04915 0.83207 0.40421 0.0
O25 O 0.06557 0.80444 0.44275 0.0
O26 O 0.01762 0.81055 0.34062 0.0
O27 O 1.00516 0.7675 0.36811 0.0
O28 O 0.5617 0.65729 0.63779 0.0
Cd29 Cd 0.57288 0.69891 0.66318 0.0
Cd30 Cd 0.60816 0.71621 0.6162 0.0
O31 O 0.58297 0.67675 0.598 0.0
O32 O 0.54735 0.69176 0.69816 0.0
O33 O 0.53716 0.73046 0.66545 0.0
C34 C 0.52982 0.71566 0.68919 0.0
C35 C 0.59947 0.76837 0.59924 0.0
C36 C 0.5656 0.65505 0.61091 0.0
C37 C 0.64587 0.71812 0.66786 0.0
O38 O 0.64899 0.71251 0.64135 0.0
O39 O 0.61808 0.71564 0.6788 0.0
O40 O 0.61804 0.74884 0.58596 0.0
O41 O 0.58518 0.75762 0.62201 0.0
O42 O 0.62285 0.26568 0.89291 0.0
Cd43 Cd 0.58522 0.26299 0.92236 0.0
Cd44 Cd 0.55344 0.29676 0.87252 0.0
O45 O 0.59757 0.28378 0.85364 0.0
O46 O 0.59998 0.2324 0.95422 0.0
O47 O 0.55874 0.21904 0.92449 0.0
C48 C 0.57737 0.21088 0.94595 0.0
C49 C 0.50181 0.28906 0.84815 0.0
C50 C 0.62305 0.27292 0.86617 0.0
C51 C 0.55913 0.33252 0.93163 0.0
O52 O 0.55364 0.33393 0.90449 0.0
O53 O 0.57019 0.30619 0.94289 0.0
O54 O 0.52257 0.3124 0.84101 0.0
O55 O 0.51089 0.26879 0.86812 0.0
O56 O 0.18734 0.9939 0.19884 0.0
Cd57 Cd 0.21717 -0.00275 0.2351 0.0
Cd58 Cd 0.15978 0.0222 0.2583 0.0
O59 O 0.14109 0.00587 0.21806 0.0
O60 O 0.25262 0.96738 0.22739 0.0
O61 O 0.21808 0.95902 0.26257 0.0
C62 C 0.24278 0.94963 0.24879 0.0
C63 C 0.12902 0.01832 0.29933 0.0
C64 C 0.15681 0.99646 0.19662 0.0
C65 C 0.22442 0.06406 0.26143 0.0
O66 O 0.19399 0.06116 0.26473 0.0
O67 O 0.23911 0.04132 0.24908 0.0
O68 O 0.12243 0.03915 0.27914 0.0
O69 O 0.15128 -0.00258 0.29501 0.0
O70 O 0.28058 0.896 0.61351 0.0
Cd71 Cd 0.28249 0.92848 0.5779 0.0
Cd72 Cd 0.30857 0.87228 0.5557 0.0
O73 O 0.29448 0.84971 0.59246 0.0
O74 O 0.25124 0.96393 0.58605 0.0
O75 O 0.24376 0.92787 0.55013 0.0
C76 C 0.2334 0.95255 0.5646 0.0
C77 C 0.30489 0.84275 0.51309 0.0
C78 C 0.28504 0.86471 0.61439 0.0
C79 C 0.35106 0.93452 0.55698 0.0
O80 O 0.34918 0.9029 0.55641 0.0
O81 O 0.32648 0.95067 0.56364 0.0
O82 O 0.32417 0.83439 0.53383 0.0
O83 O 0.28575 0.86674 0.51729 0.0
O84 O 0.42273 0.03795 0.67991 0.0
Cd85 Cd 0.39113 0.03571 0.71426 0.0
Cd86 Cd 0.44543 0.00749 0.73987 0.0
O87 O 0.46715 0.02232 0.7027 0.0
O88 O 0.35779 0.06906 0.70495 0.0
O89 O 0.39317 0.0745 0.74172 0.0
C90 C 0.36946 0.08629 0.72668 0.0
C91 C 0.47355 0.01192 0.78369 0.0
C92 C 0.45301 0.03309 0.68018 0.0
C93 C 0.38287 0.96594 0.73819 0.0
O94 O 0.41358 0.96692 0.74045 0.0
O95 O 0.36828 0.99128 0.7289 0.0
O96 O 0.4817 0.99137 0.7642 0.0
O97 O 0.45073 0.03195 0.77746 0.0
O98 O 0.3879 0.1907 0.09597 0.0
Cd99 Cd 0.36937 0.1615 0.06231 0.0
Cd100 Cd 0.33064 0.21752 0.0596 0.0
O101 O 0.36254 0.23757 0.09013 0.0
O102 O 0.38668 0.11818 0.07373 0.0
O103 O 0.39851 0.14338 0.03288 0.0
C104 C 0.40102 0.11791 0.04964 0.0
C105 C 0.32859 0.22882 0.01176 0.0
C106 C 0.38355 0.22065 0.10333 0.0
C107 C 0.29457 0.15631 0.06276 0.0
O108 O 0.29211 0.18648 0.07028 0.0
O109 O 0.32203 0.14549 0.05738 0.0
O110 O 0.31556 0.24851 0.02968 0.0
O111 O 0.34595 0.20508 0.02163 0.0
O112 O 0.7807 0.4009 0.11659 0.0
Cd113 Cd 0.78411 0.4329 0.08088 0.0
Cd114 Cd 0.81044 0.37669 0.05995 0.0
O115 O 0.79292 0.35393 0.09572 0.0
O116 O 0.75312 0.46864 0.08834 0.0
O117 O 0.74588 0.432 0.05276 0.0
C118 C 0.73545 0.45687 0.06693 0.0
C119 C 0.80832 0.34953 0.0161 0.0
C120 C 0.78339 0.36934 0.11744 0.0
C121 C 0.85331 0.43817 0.06192 0.0
O122 O 0.85163 0.40655 0.06306 0.0
O123 O 0.8283 0.4545 0.06674 0.0
O124 O 0.826 0.3393 0.03729 0.0
O125 O 0.78962 0.37386 0.02051 0.0
O126 O 0.92247 0.53604 0.18191 0.0
Cd127 Cd 0.88878 0.53449 0.21495 0.0
Cd128 Cd 0.94259 0.50383 0.2424 0.0
O129 O 0.96433 0.51423 0.20444 0.0
O130 O 0.85673 0.5689 0.20518 0.0
O131 O 0.89026 0.57245 0.24333 0.0
C132 C 0.86726 0.58498 0.22792 0.0
C133 C 0.9738 0.50461 0.28444 0.0
C134 C 0.95183 0.52743 0.18221 0.0
C135 C 0.87634 0.46685 0.24115 0.0
O136 O 0.9067 0.46772 0.24603 0.0
O137 O 0.86324 0.49107 0.22836 0.0
O138 O 0.97644 0.48174 0.26534 0.0
O139 O 0.95514 0.52886 0.27862 0.0
O140 O 0.88229 0.65603 0.60599 0.0
Cd141 Cd 0.85638 0.62405 0.57876 0.0
Cd142 Cd 0.84507 0.67953 0.55 0.0
O143 O 0.87899 0.70064 0.57871 0.0
O144 O 0.87307 0.5795 0.58618 0.0
O145 O 0.87837 0.6069 0.54493 0.0
C146 C 0.88416 0.58107 0.56057 0.0
C147 C 0.84596 0.69001 0.50148 0.0
C148 C 0.8901 0.68643 0.60106 0.0
C149 C 0.78757 0.64162 0.57131 0.0
O150 O 0.79811 0.66945 0.56155 0.0
O151 O 0.80711 0.61962 0.57909 0.0
O152 O 0.85376 0.66117 0.51113 0.0
O153 O 0.84034 0.71326 0.51955 0.0
O154 O 0.68188 0.4936 0.69893 0.0
Cd155 Cd 0.71041 0.49912 0.73583 0.0
Cd156 Cd 0.65285 0.5231 0.75557 0.0
O157 O 0.63433 0.50322 0.71677 0.0
O158 O 0.74842 0.47263 0.728 0.0
O159 O 0.71497 0.4613 0.76345 0.0
C160 C 0.7403 0.45414 0.74948 0.0
C161 C 0.62584 0.51905 0.79864 0.0
C162 C 0.65127 0.49451 0.69589 0.0
C163 C 0.71266 0.56945 0.75522 0.0
O164 O 0.68202 0.56613 0.75649 0.0
O165 O 0.72918 0.5451 0.7481 0.0
O166 O 0.61528 0.53703 0.77771 0.0
O167 O 0.65012 0.50072 0.79409 0.0
O168 O 0.03431 0.84141 0.85781 0.0
Cd169 Cd 0.01157 0.83158 0.89624 0.0
Cd170 Cd 0.97951 0.89102 0.86114 0.0
O171 O 0.01279 0.88168 0.83093 0.0
O172 O 0.03476 0.80205 0.92271 0.0
O173 O 0.98823 0.78779 0.8992 0.0
C174 C 0.01088 0.78054 0.91766 0.0
C175 C 0.93434 0.85343 0.86455 0.0
C176 C 0.03353 0.85945 0.83518 0.0
C177 C 1.00467 0.89505 0.9186 0.0
O178 O 1.00278 0.91334 0.89654 0.0
O179 O 0.989 0.86734 0.91789 0.0
O180 O 0.9302 0.88419 0.85774 0.0
O181 O 0.96336 0.8447 0.86917 0.0
O182 O 0.04165 0.19895 0.64966 0.0
Cd183 Cd 0.04349 0.23772 0.68093 0.0
Cd184 Cd 0.07663 0.27235 0.63196 0.0
O185 O 0.06456 0.22577 0.61332 0.0
O186 O 0.01255 0.22581 0.71337 0.0
O187 O 1.00451 0.26759 0.6839 0.0
C188 C 0.99481 0.25007 0.70557 0.0
C189 C 0.06764 0.32097 0.60372 0.0
C190 C 0.05149 0.1992 0.6238 0.0
C191 C 0.11538 0.26329 0.68928 0.0
O192 O 0.11442 0.27375 0.66332 0.0
O193 O 0.08995 0.24965 0.7002 0.0
O194 O 0.09084 0.30163 0.59855 0.0
O195 O 0.04953 0.313 0.62503 0.0
O196 O 0.46399 0.28495 0.40203 0.0
Cd197 Cd 0.47474 0.32992 0.3808 0.0
Cd198 Cd 0.4515 0.34845 0.44391 0.0
O199 O 0.44114 0.29867 0.44292 0.0
O200 O 0.49313 0.32584 0.34185 0.0
O201 O 0.52172 0.34152 0.38136 0.0
C202 C 0.52053 0.33549 0.35413 0.0
C203 C 0.50459 0.36064 0.45744 0.0
C204 C 0.45014 0.27687 0.42538 0.0
C205 C 0.42167 0.36808 0.39832 0.0
O206 O 0.4178 0.37759 0.42381 0.0
O207 O 0.45039 0.37208 0.38982 0.0
O208 O 0.4822 0.36094 0.47624 0.0
O209 O 0.49625 0.35655 0.43075 0.0
O210 O 0.53784 0.69974 0.1492 0.0
Cd211 Cd 0.53853 0.73804 0.18052 0.0
Cd212 Cd 0.57153 0.77392 0.13177 0.0
O213 O 0.55996 0.72721 0.11279 0.0
O214 O 0.50785 0.72425 0.21259 0.0
O215 O 0.49855 0.76636 0.18378 0.0
C216 C 0.48926 0.7479 0.20503 0.0
C217 C 0.56264 0.82323 0.10396 0.0
C218 C 0.5476 0.70029 0.12335 0.0
C219 C 0.61012 0.76381 0.18929 0.0
O220 O 0.6092 0.77466 0.16342 0.0
O221 O 0.58467 0.75014 0.20011 0.0
O222 O 0.58579 0.80389 0.09864 0.0
O223 O 0.54446 0.81489 0.12513 0.0
O224 O 0.9248 0.01112 0.76147 0.0
Cd225 Cd 0.89761 0.01771 0.79727 0.0
Cd226 Cd 0.94918 0.98653 0.82168 0.0
O227 O 0.96985 0.99395 0.78205 0.0
O228 O 0.86269 0.04532 0.78126 0.0
O229 O 0.89566 0.06207 0.81731 0.0
C230 C 0.87165 0.06794 0.79987 0.0
C231 C 0.97726 -0.00096 0.86525 0.0
C232 C 0.95366 0.00187 0.75954 0.0
C233 C 0.88392 0.94924 0.81755 0.0
O234 O 0.91443 0.94783 0.82175 0.0
O235 O 0.87147 0.97646 0.81057 0.0
O236 O 0.98521 0.97471 0.84917 0.0
O237 O 0.95377 0.01699 0.85636 0.0
O238 O 0.80022 0.13984 0.54909 0.0
Cd239 Cd 0.79802 0.10817 0.51419 0.0
Cd240 Cd 0.77261 0.16779 0.48922 0.0
O241 O 0.78541 0.18706 0.52919 0.0
O242 O 0.82457 0.06985 0.52794 0.0
O243 O 0.83876 0.10183 0.49159 0.0
C244 C 0.84559 0.0778 0.50893 0.0
C245 C 0.7809 0.20235 0.44879 0.0
C246 C 0.79429 0.17057 0.55116 0.0
C247 C 0.72667 0.10664 0.49701 0.0
O248 O 0.73107 0.137 0.48946 0.0
O249 O 0.75066 0.08957 0.50513 0.0
O250 O 0.75865 0.20771 0.46674 0.0
O251 O 0.79877 0.17726 0.45375 0.0
O252 O 0.67371 0.01386 0.25953 0.0
Cd253 Cd 0.70208 0.01666 0.29645 0.0
Cd254 Cd 0.64572 0.03995 0.31675 0.0
O255 O 0.62694 0.02697 0.27689 0.0
O256 O 0.74057 0.99222 0.28464 0.0
O257 O 0.70926 0.97456 0.31952 0.0
C258 C 0.73334 0.96957 0.30326 0.0
C259 C 0.61373 0.02624 0.35612 0.0
C260 C 0.64375 0.01886 0.25587 0.0
C261 C 0.70266 0.08941 0.31044 0.0
O262 O 0.67297 0.08453 0.31645 0.0
O263 O 0.71987 0.06484 0.30478 0.0
O264 O 0.6065 0.04975 0.33855 0.0
O265 O 0.63969 0.01051 0.35162 0.0
O266 O 0.80704 0.91558 0.04404 0.0
Cd267 Cd 0.79711 0.9354 0.00438 0.0
Cd268 Cd 0.77278 0.87188 0.99214 0.0
O269 O 0.77892 0.86791 0.03563 0.0
O270 O 0.77993 0.98128 0.00677 0.0
O271 O 0.75182 0.93511 0.99265 0.0
C272 C 0.75275 0.9666 -0.00185 0.0
C273 C 0.72549 0.84893 0.96923 0.0
C274 C 0.79605 0.88721 0.05236 0.0
C275 C 0.83532 0.8959 0.96567 0.0
O276 O 0.81627 0.87113 0.97159 0.0
O277 O 0.82881 0.92538 0.97309 0.0
O278 O 0.74679 0.83012 0.9807 0.0
O279 O 0.73087 0.88072 0.97095 0.0
O280 O 0.30209 0.6388 0.04668 0.0
Cd281 Cd 0.30051 0.6071 0.01193 0.0
Cd282 Cd 0.27421 0.66542 0.98678 0.0
O283 O 0.2858 0.68542 0.02677 0.0
O284 O 0.32676 0.56918 0.02656 0.0
O285 O 0.34123 0.60021 0.98968 0.0
C286 C 0.3478 0.57653 0.00745 0.0
C287 C 0.28408 0.69926 0.94606 0.0
C288 C 0.29507 0.66923 0.04878 0.0
C289 C 0.2294 0.60353 0.9954 0.0
O290 O 0.23304 0.63381 0.98729 0.0
O291 O 0.25385 0.5872 0.00346 0.0
O292 O 0.26098 0.7048 0.96312 0.0
O293 O 0.3017 0.6742 0.95193 0.0
O294 O 0.17372 0.51108 0.76185 0.0
Cd295 Cd 0.20242 0.51434 0.79871 0.0
Cd296 Cd 0.14661 0.54069 0.81849 0.0
O297 O 0.12771 0.52766 0.77848 0.0
O298 O 0.24079 0.48947 0.78712 0.0
O299 O 0.21005 0.47274 0.82262 0.0
C300 C 0.23411 0.46749 0.80644 0.0
C301 C 0.11512 0.52766 0.85853 0.0
C302 C 0.14416 0.51772 0.7578 0.0
C303 C 0.20532 0.58779 0.81136 0.0
O304 O 0.1756 0.58427 0.81772 0.0
O305 O 0.22143 0.56236 0.80583 0.0
O306 O 0.10803 0.55138 0.84109 0.0
O307 O 0.14056 0.51129 0.85345 0.0
O308 O 0.29688 0.42469 0.55598 0.0
Cd309 Cd 0.28687 0.42396 0.51263 0.0
Cd310 Cd 0.2581 0.36769 0.52803 0.0
O311 O 0.25253 0.39467 0.56476 0.0
O312 O 0.27614 0.4692 0.49939 0.0
O313 O 0.24131 0.4248 0.50091 0.0
C314 C 0.24687 0.45634 0.49645 0.0
C315 C 0.21898 0.32929 0.5098 0.0
C316 C 0.27669 0.41302 0.57378 0.0
C317 C 0.32376 0.36875 0.50162 0.0
O318 O 0.30516 0.35558 0.52012 0.0
O319 O 0.31603 0.39565 0.4893 0.0
O320 O 0.23568 0.32308 0.53292 0.0
O321 O 0.2229 0.35843 0.49828 0.0
O322 O 0.41921 0.49883 0.25811 0.0
Cd323 Cd 0.38881 0.50649 0.2912 0.0
Cd324 Cd 0.43786 0.47057 0.3209 0.0
O325 O 0.45755 0.47054 0.27994 0.0
O326 O 0.35659 0.53638 0.27354 0.0
O327 O 0.38694 0.55046 0.31202 0.0
C328 C 0.3646 0.55791 0.29337 0.0
C329 C 0.47134 0.47963 0.36234 0.0
C330 C 0.44528 0.48329 0.2572 0.0
C331 C 0.36803 0.44169 0.31773 0.0
O332 O 0.39703 0.43947 0.32734 0.0
O333 O 0.35997 0.46634 0.30254 0.0
O334 O 0.47025 0.45164 0.34859 0.0
O335 O 0.45439 0.50335 0.35197 0.0
C336 C 0.04094 0.00609 0.97747 0.0
N337 N 1.00155 0.95182 0.04431 0.0
C338 C 0.97537 0.96894 0.03556 0.0
C339 C 0.95092 0.95322 0.01858 0.0
C340 C 0.95329 0.91958 0.0108 0.0
C341 C 0.97767 0.90121 0.02402 0.0
C342 C 1.00156 0.91796 0.04134 0.0
Zn343 Zn 0.04442 0.97862 0.04005 0.0
C344 C 0.08752 0.93462 0.00561 0.0
N345 N 0.13079 0.02851 0.01664 0.0
C346 C 0.12986 0.0612 0.00897 0.0
C347 C 0.15846 0.01528 0.02701 0.0
C348 C 0.18594 0.03584 0.03262 0.0
C349 C 0.18499 0.07024 0.0271 0.0
C350 C 0.15695 0.08271 0.01405 0.0
Zn351 Zn 0.08913 0.00189 0.02275 0.0
O352 O 0.02553 0.99247 -0.00209 0.0
C353 C 0.04508 0.04685 0.05482 0.0
O354 O 0.07075 0.01444 0.98153 0.0
H355 H 0.15844 0.98928 0.03321 0.0
H356 H 0.97557 0.99577 0.03789 0.0
H357 H 0.10742 0.07111 0.00089 0.0
O358 O 0.02671 0.02115 0.05867 0.0
O359 O 0.07055 0.04457 0.0406 0.0
H360 H 0.02222 0.90454 0.04903 0.0
O361 O 0.10755 0.98912 0.06468 0.0
O362 O 0.06284 0.96581 0.08137 0.0
O363 O 0.10724 0.95968 0.004 0.0
O364 O 0.06331 0.93647 0.02147 0.0
C365 C 0.09242 0.97554 0.08534 0.0
H366 H 0.93147 0.96791 0.01004 0.0
H367 H 0.97968 0.87492 0.01932 0.0
H368 H 0.20694 0.02516 0.04289 0.0
H369 H 0.15554 0.10897 0.00891 0.0
C370 C 0.36493 0.7602 0.26069 0.0
N371 N 0.27488 0.73994 0.21944 0.0
C372 C 0.28733 0.76125 0.19936 0.0
C373 C 0.28685 0.75211 0.1705 0.0
C374 C 0.27391 0.72052 0.16221 0.0
C375 C 0.25905 0.69994 0.18292 0.0
C376 C 0.25972 0.71028 0.21165 0.0
Zn377 Zn 0.28983 0.74946 0.261 0.0
C378 C 0.31108 0.68816 0.29071 0.0
N379 N 0.32853 0.77042 0.34458 0.0
C380 C 0.34272 0.80071 0.3519 0.0
C381 C 0.31706 0.74889 0.36489 0.0
C382 C 0.31721 0.75855 0.39358 0.0
C383 C 0.3287 0.79084 0.40124 0.0
C384 C 0.34279 0.81165 0.38038 0.0
Zn385 Zn 0.31323 0.76086 0.3035 0.0
O386 O 0.33924 0.75359 0.24545 0.0
C387 C 0.29285 0.82186 0.27334 0.0
O388 O 0.36219 0.76571 0.28749 0.0
H389 H 0.30507 0.72532 0.35863 0.0
H390 H 0.30021 0.78426 0.20586 0.0
H391 H 0.35161 0.81743 0.33541 0.0
O392 O 0.28451 0.80037 0.25423 0.0
O393 O 0.30577 0.8126 0.29693 0.0
H394 H 0.25024 0.69358 0.22792 0.0
O395 O 0.26443 0.75581 0.3193 0.0
O396 O 0.2401 0.74636 0.2774 0.0
O397 O 0.32056 0.70968 0.30952 0.0
O398 O 0.29588 0.69763 0.2682 0.0
C399 C 0.23814 0.75103 0.30449 0.0
H400 H 0.29887 0.76851 0.15527 0.0
H401 H 0.2485 0.67547 0.17719 0.0
H402 H 0.30595 0.74201 0.40915 0.0
H403 H 0.35213 0.83667 0.38579 0.0
C404 C 0.52039 0.04373 0.57372 0.0
N405 N 0.56133 0.96133 0.53689 0.0
C406 C 0.57973 0.95998 0.5616 0.0
C407 C 0.58904 0.92926 0.57217 0.0
C408 C 0.57964 0.90011 0.55678 0.0
C409 C 0.56167 0.90235 0.53088 0.0
C410 C 0.5525 0.93342 0.52137 0.0
Zn411 Zn 0.54348 0.00458 0.52374 0.0
C412 C 0.47117 -0.00308 0.51767 0.0
N413 N 0.50171 0.09321 0.49613 0.0
C414 C 0.50941 0.12346 0.50839 0.0
C415 C 0.48076 0.08991 0.47297 0.0
C416 C 0.4674 0.11789 0.46059 0.0
C417 C 0.47523 0.14937 0.47254 0.0
C418 C 0.49614 0.15211 0.49694 0.0
Zn419 Zn 0.52156 0.05122 0.51088 0.0
O420 O 0.53416 0.01726 0.56697 0.0
C421 C 0.59468 0.0577 0.5179 0.0
O422 O 0.51394 0.06485 0.55423 0.0
H423 H 0.4747 0.06553 0.46379 0.0
H424 H 0.58644 0.98261 0.57348 0.0
H425 H 0.52615 0.12535 0.52675 0.0
O426 O 0.59005 0.02777 0.52625 0.0
O427 O 0.57015 0.07461 0.51106 0.0
H428 H 0.53746 0.93513 0.50202 0.0
O429 O 0.52883 0.03741 0.4676 0.0
O430 O 0.55306 0.9923 0.48049 0.0
O431 O 0.47406 0.02765 0.51122 0.0
O432 O 0.49662 0.98074 0.52157 0.0
C433 C 0.54441 0.01219 0.46084 0.0
H434 H 0.60304 0.92819 0.59222 0.0
H435 H 0.55372 0.88018 0.51874 0.0
H436 H 0.45123 0.115 0.44184 0.0
H437 H 0.50288 0.17624 0.50648 0.0
C438 C 0.32101 0.21477 0.75508 0.0
N439 N 0.28492 0.24501 0.83365 0.0
C440 C 0.30672 0.22304 0.84362 0.0
C441 C 0.30943 0.21598 0.87272 0.0
C442 C 0.28947 0.2316 0.89193 0.0
C443 C 0.26488 0.2515 0.88079 0.0
C444 C 0.26307 0.25801 0.85128 0.0
Zn445 Zn 0.29569 0.2663 0.7954 0.0
C446 C 0.36974 0.28475 0.7982 0.0
N447 N 0.32809 0.31073 0.71927 0.0
C448 C 0.31294 0.29953 0.69454 0.0
C449 C 0.34307 0.34172 0.72125 0.0
C450 C 0.33935 0.36449 0.6989 0.0
C451 C 0.32014 0.35475 0.67477 0.0
C452 C 0.30856 0.32141 0.67181 0.0
Zn453 Zn 0.31569 0.2874 0.75577 0.0
O454 O 0.30783 0.21894 0.77903 0.0
C455 C 0.24172 0.26909 0.75192 0.0
O456 O 0.32669 0.23987 0.73902 0.0
H457 H 0.35487 0.35 0.74127 0.0
H458 H 0.32452 0.21361 0.82959 0.0
H459 H 0.30125 0.2748 0.69357 0.0
O460 O 0.24602 0.25893 0.77771 0.0
O461 O 0.26622 0.28125 0.7389 0.0
H462 H 0.24605 0.27557 0.84293 0.0
O463 O 0.30457 0.33473 0.77244 0.0
O464 O 0.28344 0.31422 0.81141 0.0
O465 O 0.36451 0.2936 0.77233 0.0
O466 O 0.34573 0.27377 0.81251 0.0
C467 C 0.29047 0.33933 0.79582 0.0
H468 H 0.32904 0.20087 0.8802 0.0
H469 H 0.24855 0.26349 0.89485 0.0
H470 H 0.34883 0.39002 0.70151 0.0
H471 H 0.29419 0.31311 0.653 0.0
C472 C 0.10495 -0.0005 0.54019 0.0
N473 N 0.05867 0.04281 0.46817 0.0
C474 C 0.08961 0.05358 0.46265 0.0
C475 C 0.10062 0.053 0.43452 0.0
C476 C 0.07939 0.04185 0.41193 0.0
C477 C 0.04691 0.0339 0.41788 0.0
C478 C 0.03709 0.03422 0.44629 0.0
Zn479 Zn 0.04702 0.0259 0.50849 0.0
C480 C 0.03421 0.9495 0.50145 0.0
N481 N 0.02178 0.98223 0.58901 0.0
C482 C 0.04254 0.99287 0.61087 0.0
C483 C 0.99203 0.9681 0.59459 0.0
C484 C 0.98143 0.96647 0.6229 0.0
C485 C 1.0017 0.97937 0.64559 0.0
C486 C 0.03308 0.99144 0.63934 0.0
Zn487 Zn 0.03328 -0.00083 0.54857 0.0
O488 O 0.09686 0.01432 0.51709 0.0
C489 C 0.04716 0.07564 0.5554 0.0
O490 O 0.08326 0.99135 0.55792 0.0
H491 H 0.97565 0.96016 0.57702 0.0
H492 H 0.10652 0.06014 0.4802 0.0
H493 H 0.06563 0.00514 0.60625 0.0
O494 O 0.05462 0.07477 0.52896 0.0
O495 O 0.03796 0.04845 0.56741 0.0
H496 H 0.01294 0.02466 0.45092 0.0
O497 O 0.98293 0.00771 0.53854 0.0
O498 O 0.99696 0.0369 0.50078 0.0
O499 O 0.02947 0.9495 0.52848 0.0
O500 O 0.03968 0.97737 0.48905 0.0
C501 C 0.9749 0.02583 0.51723 0.0
H502 H 0.12582 0.05969 0.43064 0.0
H503 H 0.02989 0.02496 0.40107 0.0
H504 H 0.95711 0.9566 0.62684 0.0
H505 H 0.04935 0.00209 0.65601 0.0
C506 C 0.27654 0.79476 0.7224 0.0
N507 N 0.35266 0.75329 0.76777 0.0
C508 C 0.35397 0.73329 0.74424 0.0
C509 C 0.38373 0.72603 0.73325 0.0
C510 C 0.4123 0.73907 0.7469 0.0
C511 C 0.41049 0.75759 0.77233 0.0
C512 C 0.38007 0.76471 0.78239 0.0
Zn513 Zn 0.30909 0.7715 0.77622 0.0
C514 C 0.31564 0.84659 0.78062 0.0
N515 N 0.21867 0.81292 0.79007 0.0
C516 C 0.19481 0.79974 0.772 0.0
C517 C 0.2128 0.83747 0.80915 0.0
C518 C 0.18151 0.84907 0.81097 0.0
C519 C 0.15635 0.83525 0.79289 0.0
C520 C 0.16348 0.8107 0.77293 0.0
Zn521 Zn 0.26318 0.79491 0.78493 0.0
O522 O 0.30139 0.77981 0.73114 0.0
C523 C 0.25778 0.7192 0.78048 0.0
O524 O 0.25554 0.80181 0.74034 0.0
H525 H 0.23225 0.84773 0.8231 0.0
H526 H 0.33186 0.7245 0.73299 0.0
H527 H 0.20001 0.78046 0.75679 0.0
O528 O 0.28736 0.72299 0.77409 0.0
O529 O 0.24164 0.74498 0.78449 0.0
H530 H 0.37833 0.7808 0.80091 0.0
O531 O 0.27119 0.78821 0.83012 0.0
O532 O 0.31619 0.76348 0.8212 0.0
O533 O 0.28541 0.84433 0.78524 0.0
O534 O 0.33101 0.82004 0.77843 0.0
C535 C 0.29533 0.77196 0.83908 0.0
H536 H 0.38445 0.71134 0.71372 0.0
H537 H 0.43223 0.76799 0.78329 0.0
H538 H 0.17684 0.86772 0.827 0.0
H539 H 0.14486 0.79961 0.75848 0.0
C540 C 0.553 0.94841 0.04099 0.0
N541 N 0.57673 0.03813 0.08263 0.0
C542 C 0.55598 0.02503 0.10227 0.0
C543 C 0.56473 0.02529 0.13133 0.0
C544 C 0.59526 0.03884 0.14024 0.0
C545 C 0.61531 0.05439 0.11987 0.0
C546 C 0.60544 0.05381 0.09089 0.0
Zn547 Zn 0.56683 0.02473 0.04117 0.0
C548 C 0.62393 0.0056 0.0109 0.0
N549 N 0.54201 0.99021 0.95666 0.0
C550 C 0.51233 0.97638 0.94872 0.0
C551 C 0.56287 0.00238 0.9367 0.0
C552 C 0.55349 0.00274 0.9077 0.0
C553 C 0.52212 0.99116 0.89926 0.0
C554 C 0.50169 0.97689 0.91991 0.0
Zn555 Zn 0.55255 0.00335 -0.00155 0.0
O556 O 0.56071 0.97422 0.05605 0.0
C557 C 0.49598 0.02545 0.028 0.0
O558 O 0.54742 0.95191 0.01402 0.0
H559 H 0.58595 0.01422 0.94333 0.0
H560 H 0.53359 0.01197 0.09532 0.0
H561 H 0.49604 0.96699 0.96489 0.0
O562 O 0.51803 0.03242 0.04687 0.0
O563 O 0.50307 0.01167 0.00464 0.0
H564 H 0.62157 0.06394 0.0749 0.0
O565 O 0.55804 0.05433 0.98395 0.0
O566 O 0.57298 0.07517 0.02617 0.0
O567 O 0.60196 0.99661 0.99243 0.0
O568 O 0.6161 0.01791 0.03467 0.0
C569 C 0.56663 0.07957 -0.0005 0.0
H570 H 0.54876 0.01275 0.14633 0.0
H571 H 0.63893 0.06548 0.12613 0.0
H572 H 0.56975 0.01417 0.89235 0.0
H573 H 0.47736 0.96747 0.91398 0.0
C574 C 0.29098 0.18005 0.31154 0.0
N575 N 0.34325 0.25181 0.26503 0.0
C576 C 0.37097 0.23477 0.2654 0.0
C577 C 0.39118 0.23647 0.24189 0.0
C578 C 0.38236 0.2554 0.21765 0.0
C579 C 0.35457 0.27427 0.21887 0.0
C580 C 0.33547 0.27222 0.24284 0.0
Zn581 Zn 0.3118 0.24825 0.29747 0.0
C582 C 0.24435 0.24608 0.27728 0.0
N583 N 0.24699 0.24634 0.3663 0.0
C584 C 0.24759 0.22205 0.38665 0.0
C585 C 0.22561 0.27097 0.36737 0.0
C586 C 0.20672 0.27438 0.3913 0.0
C587 C 0.20912 0.25169 0.41436 0.0
C588 C 0.22815 0.22378 0.41058 0.0
Zn589 Zn 0.27915 0.24843 0.33408 0.0
O590 O 0.31062 0.19594 0.29551 0.0
C591 C 0.34677 0.25463 0.35382 0.0
O592 O 0.27673 0.19579 0.33085 0.0
H593 H 0.22453 0.28931 0.3504 0.0
H594 H 0.37692 0.21912 0.28355 0.0
H595 H 0.26417 0.2021 0.38502 0.0
O596 O 0.3503 0.25048 0.32708 0.0
O597 O 0.3187 0.25006 0.36399 0.0
H598 H 0.31364 0.28605 0.24322 0.0
O599 O 0.28218 0.30146 0.33653 0.0
O600 O 0.3124 0.30058 0.29873 0.0
O601 O 0.24004 0.24807 0.3041 0.0
O602 O 0.27287 0.2465 0.26806 0.0
C603 C 0.29877 0.31689 0.31787 0.0
H604 H 0.41261 0.22192 0.2422 0.0
H605 H 0.34614 0.28878 0.20075 0.0
H606 H 0.19264 0.29636 0.39227 0.0
H607 H 0.22983 0.20446 0.42668 0.0
C608 C 0.60641 0.5012 0.04208 0.0
N609 N 0.56035 0.54346 0.96939 0.0
C610 C 0.59125 0.55421 0.96365 0.0
C611 C 0.60194 0.55389 0.93538 0.0
C612 C 0.58047 0.5429 0.91289 0.0
C613 C 0.5481 0.5348 0.91916 0.0
C614 C 0.5386 0.53495 0.94763 0.0
Zn615 Zn 0.54861 0.52624 0.00965 0.0
C616 C 0.53715 0.45007 0.00222 0.0
N617 N 0.52261 0.48075 0.08939 0.0
C618 C 0.54146 0.49162 0.11244 0.0
C619 C 0.49408 0.46313 0.09312 0.0
C620 C 0.48258 0.45781 0.12081 0.0
C621 C 0.50068 0.47061 0.14486 0.0
C622 C 0.53104 0.48659 0.14043 0.0
Zn623 Zn 0.53476 0.49929 0.04964 0.0
O624 O 0.59827 0.51554 0.01877 0.0
C625 C 0.54704 0.57582 0.05659 0.0
O626 O 0.58472 0.49279 0.05978 0.0
H627 H 0.47933 0.45486 0.07459 0.0
H628 H 0.60835 0.56062 0.9811 0.0
H629 H 0.56372 0.50622 0.10918 0.0
O630 O 0.55507 0.5749 0.03031 0.0
O631 O 0.53803 0.54858 0.06871 0.0
H632 H 0.51452 0.52525 0.95233 0.0
O633 O 0.48443 0.50664 0.03892 0.0
O634 O 0.49878 0.53637 0.00156 0.0
O635 O 0.53237 0.44984 0.02923 0.0
O636 O 0.54224 0.47804 0.98994 0.0
C637 C 0.47659 0.52475 0.01755 0.0
H638 H 0.62706 0.56073 0.93132 0.0
H639 H 0.53086 0.52588 0.90251 0.0
H640 H 0.45911 0.44509 0.12331 0.0
H641 H 0.54559 0.49724 0.15827 0.0
C642 C 0.76769 0.30044 0.22522 0.0
N643 N 0.84388 0.25956 0.27085 0.0
C644 C 0.84685 0.24082 0.24678 0.0
C645 C 0.87738 0.23307 0.2379 0.0
C646 C 0.90478 0.24424 0.25431 0.0
C647 C 0.90111 0.26197 0.27983 0.0
C648 C 0.87009 0.26972 0.28766 0.0
Zn649 Zn 0.80015 0.27638 0.27908 0.0
C650 C 0.80547 0.35111 0.28493 0.0
N651 N 0.70933 0.3155 0.29485 0.0
C652 C 0.68471 0.3072 0.27566 0.0
C653 C 0.70406 0.33268 0.31932 0.0
C654 C 0.67267 0.34062 0.32599 0.0
C655 C 0.64653 0.33152 0.30693 0.0
C656 C 0.65315 0.31557 0.28101 0.0
Zn657 Zn 0.7538 0.29867 0.28748 0.0
O658 O 0.79242 0.28564 0.23442 0.0
C659 C 0.7499 0.22319 0.28145 0.0
O660 O 0.74604 0.30724 0.24273 0.0
H661 H 0.72402 0.33912 0.33422 0.0
H662 H 0.82559 0.23289 0.23391 0.0
H663 H 0.68928 0.29316 0.25648 0.0
O664 O 0.77956 0.22795 0.27575 0.0
O665 O 0.7329 0.24836 0.28559 0.0
H666 H 0.86701 0.28484 0.30656 0.0
O667 O 0.76241 0.29024 0.33268 0.0
O668 O 0.8079 0.26709 0.32344 0.0
O669 O 0.77515 0.34847 0.28904 0.0
O670 O 0.82115 0.32484 0.28247 0.0
C671 C 0.787 0.27466 0.34146 0.0
H672 H 0.87967 0.21898 0.21822 0.0
H673 H 0.922 0.27084 0.29285 0.0
H674 H 0.66898 0.35239 0.3465 0.0
H675 H 0.6341 0.3087 0.26529 0.0
C676 C 0.05707 0.44518 0.54006 0.0
N677 N 0.07761 0.5342 0.58348 0.0
C678 C 0.05736 0.52001 0.60303 0.0
C679 C 0.06611 0.52018 0.63214 0.0
C680 C 0.0962 0.53467 0.64125 0.0
C681 C 0.11589 0.55089 0.62095 0.0
C682 C 0.106 0.55045 0.59193 0.0
Zn683 Zn 0.06753 0.52192 0.54151 0.0
C684 C 0.12396 0.5065 0.50915 0.0
N685 N 0.04239 0.48849 0.45718 0.0
C686 C 0.01635 0.46868 0.44818 0.0
C687 C 0.06084 0.50607 0.43815 0.0
C688 C 0.05214 0.5061 0.40912 0.0
C689 C 0.02441 0.48758 0.3995 0.0
C690 C 0.00695 0.46766 0.41901 0.0
Zn691 Zn 0.05201 0.50055 0.49907 0.0
O692 O 0.06418 0.47105 0.55519 0.0
C693 C 0.99538 0.51611 0.53014 0.0
O694 O 0.05064 0.44863 0.51323 0.0
H695 H 0.08125 0.52197 0.44563 0.0
H696 H 0.03533 0.50636 0.596 0.0
H697 H 1.00188 0.45523 0.46374 0.0
O698 O 0.01773 0.5258 0.54803 0.0
O699 O 1.0025 0.50367 0.50624 0.0
H700 H 0.12183 0.56137 0.57606 0.0
O701 O 0.05357 0.55252 0.48612 0.0
O702 O 0.07086 0.57304 0.5278 0.0
O703 O 0.10107 0.49755 0.49169 0.0
O704 O 0.11741 0.51789 0.53367 0.0
C705 C 0.06246 0.57774 0.50159 0.0
H706 H 0.05044 0.50707 0.64706 0.0
H707 H 0.13919 0.56263 0.62732 0.0
H708 H 0.06614 0.52157 0.39449 0.0
H709 H 0.98529 0.45317 0.41205 0.0
C710 C 0.81617 0.7116 0.25834 0.0
N711 N 0.77969 0.7478 0.33541 0.0
C712 C 0.7783 0.71427 0.34046 0.0
C713 C 0.78675 0.70204 0.36767 0.0
C714 C 0.79554 0.72463 0.39003 0.0
C715 C 0.79162 0.75878 0.38519 0.0
C716 C 0.78434 0.76992 0.35758 0.0
Zn717 Zn 0.79067 0.7653 0.29507 0.0
C718 C 0.86459 0.78408 0.29739 0.0
N719 N 0.82314 0.80265 0.21598 0.0
C720 C 0.80997 0.78541 0.19298 0.0
C721 C 0.83997 0.83236 0.21287 0.0
C722 C 0.84238 0.8468 0.18569 0.0
C723 C 0.82723 0.83035 0.16181 0.0
C724 C 0.81164 0.79886 0.16564 0.0
Zn725 Zn 0.81061 0.78523 0.25474 0.0
O726 O 0.80385 0.71652 0.28252 0.0
C727 C 0.73665 0.76671 0.25156 0.0
O728 O 0.82061 0.73608 0.24147 0.0
H729 H 0.85013 0.84559 0.2316 0.0
H730 H 0.77368 0.69675 0.32298 0.0
H731 H 0.79636 0.76203 0.19599 0.0
O732 O 0.74105 0.75645 0.27734 0.0
O733 O 0.76107 0.77899 0.23851 0.0
H734 H 0.78564 0.79645 0.35383 0.0
O735 O 0.80104 0.83438 0.26765 0.0
O736 O 0.77798 0.81503 0.30624 0.0
O737 O 0.85958 0.79163 0.27113 0.0
O738 O 0.84043 0.77406 0.31201 0.0
C739 C 0.78594 0.83968 0.29041 0.0
H740 H 0.78876 0.6754 0.37039 0.0
H741 H 0.79644 0.77712 0.4021 0.0
H742 H 0.85491 0.87099 0.18353 0.0
H743 H 0.799 0.78554 0.14803 0.0
C744 C 0.8719 0.26871 0.76206 0.0
N745 N 0.78184 0.24671 0.72127 0.0
C746 C 0.79442 0.26696 0.70052 0.0
C747 C 0.79318 0.25677 0.67189 0.0
C748 C 0.77922 0.22526 0.66453 0.0
C749 C 0.7644 0.20579 0.686 0.0
C750 C 0.76593 0.21712 0.71446 0.0
Zn751 Zn 0.79682 0.25778 0.76251 0.0
C752 C 0.81828 0.19775 0.79378 0.0
N753 N 0.83488 0.2815 0.84611 0.0
C754 C 0.84783 0.31232 0.85343 0.0
C755 C 0.82399 0.2597 0.86647 0.0
C756 C 0.82378 0.26935 0.89515 0.0
C757 C 0.83424 0.30194 0.90288 0.0
C758 C 0.84748 0.32326 0.88194 0.0
Zn759 Zn 0.8201 0.27066 0.80485 0.0
O760 O 0.84616 0.26156 0.74705 0.0
C761 C 0.79895 0.33052 0.7734 0.0
O762 O 0.86924 0.27535 0.78872 0.0
H763 H 0.81275 0.23576 0.86032 0.0
H764 H 0.80775 0.28997 0.70631 0.0
H765 H 0.85617 0.32934 0.83693 0.0
O766 O 0.7911 0.30853 0.75453 0.0
O767 O 0.81197 0.32194 0.79717 0.0
H768 H 0.75633 0.2013 0.73129 0.0
O769 O 0.77125 0.26536 0.82052 0.0
O770 O 0.7472 0.25465 0.7787 0.0
O771 O 0.82787 0.21996 0.81192 0.0
O772 O 0.80304 0.20632 0.77101 0.0
C773 C 0.74509 0.25976 0.80569 0.0
H774 H 0.80518 0.27237 0.65607 0.0
H775 H 0.75304 0.18145 0.68103 0.0
H776 H 0.81309 0.25237 0.9107 0.0
H777 H 0.85602 0.34854 0.88734 0.0
C778 C 0.7754 0.69513 0.78849 0.0
N779 N 0.84919 0.75226 0.74973 0.0
C780 C 0.86355 0.72256 0.74766 0.0
C781 C 0.88584 0.71762 0.7264 0.0
C782 C 0.89444 0.74389 0.70755 0.0
C783 C 0.88285 0.77556 0.71321 0.0
C784 C 0.85934 0.77891 0.73363 0.0
Zn785 Zn 0.81058 0.75646 0.77607 0.0
C786 C 0.74925 0.76635 0.74371 0.0
N787 N 0.73284 0.77255 0.83055 0.0
C788 C 0.73222 0.753 0.85431 0.0
C789 C 0.70984 0.79513 0.82529 0.0
C790 C 0.68725 0.8014 0.8461 0.0
C791 C 0.68943 0.78531 0.87297 0.0
C792 C 0.71067 0.75886 0.87583 0.0
Zn793 Zn 0.77076 0.76809 0.80462 0.0
O794 O 0.79983 0.70537 0.77468 0.0
C795 C 0.8326 0.76099 0.83675 0.0
O796 O 0.76052 0.71569 0.80344 0.0
H797 H 0.71021 0.80971 0.80575 0.0
H798 H 0.8564 0.70191 0.76132 0.0
H799 H 0.7501 0.7344 0.85759 0.0
O800 O 0.84161 0.75226 0.8121 0.0
O801 O 0.80284 0.76565 0.84044 0.0
H802 H 0.84826 0.80263 0.7353 0.0
O803 O 0.78112 0.82054 0.80599 0.0
O804 O 0.82071 0.80744 0.77864 0.0
O805 O 0.7401 0.77174 0.76898 0.0
O806 O 0.7788 0.76081 0.73968 0.0
C807 C 0.80686 0.829 0.79316 0.0
H808 H 0.89389 0.69258 0.72356 0.0
H809 H 0.8898 0.79719 0.70054 0.0
H810 H 0.67033 0.82079 0.84205 0.0
H811 H 0.71357 0.74502 0.89559 0.0
C812 C 0.53845 0.49026 0.47336 0.0
N813 N 0.50327 0.43988 0.5445 0.0
C814 C 0.4751 0.45351 0.53583 0.0
C815 C 0.44791 0.43315 0.52907 0.0
C816 C 0.44977 0.39841 0.53088 0.0
C817 C 0.47789 0.3849 0.54264 0.0
C818 C 0.50477 0.40641 0.54938 0.0
Zn819 Zn 0.54364 0.46929 0.5377 0.0
C820 C 0.59212 0.42571 0.50943 0.0
N821 N 0.62652 0.52432 0.51191 0.0
C822 C 0.62335 0.55735 0.50623 0.0
C823 C 0.65494 0.51266 0.52226 0.0
C824 C 0.68021 0.53495 0.5308 0.0
C825 C 0.67595 0.56945 0.5289 0.0
C826 C 0.64796 0.58064 0.51483 0.0
Zn827 Zn 0.58637 0.49501 0.51887 0.0
O828 O 0.52506 0.47554 0.49439 0.0
C829 C 0.5382 0.5385 0.54741 0.0
O830 O 0.56669 0.50388 0.47699 0.0
H831 H 0.65683 0.48637 0.52684 0.0
H832 H 0.4744 0.4799 0.53137 0.0
H833 H 0.60049 0.56603 0.49789 0.0
O834 O 0.52142 0.512 0.55229 0.0
O835 O 0.56449 0.53697 0.53434 0.0
H836 H 0.52746 0.39604 0.55617 0.0
O837 O 0.6057 0.48623 0.56183 0.0
O838 O 0.56163 0.46285 0.57959 0.0
O839 O 0.60782 0.45239 0.50276 0.0
O840 O 0.5669 0.42754 0.52413 0.0
C841 C 0.59081 0.4738 0.58316 0.0
H842 H 0.42619 0.44437 0.52069 0.0
H843 H 0.47979 0.35813 0.54461 0.0
H844 H 0.70201 0.52531 0.54057 0.0
H845 H 0.64399 0.60705 0.51261 0.0
C846 C 0.0251 0.53927 0.0787 0.0
N847 N 0.06243 0.45713 0.03901 0.0
C848 C 0.08484 0.45547 0.06098 0.0
C849 C 0.09223 0.42467 0.07261 0.0
C850 C 0.07586 0.39571 0.06179 0.0
C851 C 0.05378 0.39789 0.03848 0.0
C852 C 0.04764 0.42913 0.02709 0.0
Zn853 Zn 0.04701 0.50213 0.02717 0.0
C854 C 0.97368 0.49876 0.02141 0.0
N855 N 0.01079 0.59491 0.00439 0.0
C856 C 0.02342 0.62228 0.01881 0.0
C857 C 0.9922 0.59761 0.97994 0.0
C858 C 0.98799 0.62884 0.96767 0.0
C859 C 1.00288 0.65736 0.98094 0.0
C860 C 0.01948 0.654 0.00752 0.0
Zn861 Zn 0.02601 0.54987 0.01612 0.0
O862 O 0.03903 0.51313 0.07126 0.0
C863 C 0.09978 0.55279 0.02215 0.0
O864 O 0.019 0.56114 0.05982 0.0
H865 H 0.98241 0.57539 0.96893 0.0
H866 H 0.09592 0.47812 0.07032 0.0
H867 H 0.0382 0.6194 0.03818 0.0
O868 O 0.09506 0.52248 0.02936 0.0
O869 O 0.07534 0.57031 0.01705 0.0
H870 H 0.03002 0.43115 0.00954 0.0
O871 O 0.03261 0.5382 0.9722 0.0
O872 O 0.05491 0.49123 0.98318 0.0
O873 O 0.97732 0.52956 0.01528 0.0
O874 O 0.99868 0.48177 0.02504 0.0
C875 C 0.04709 0.51262 0.96436 0.0
H876 H 0.10925 0.4236 0.09077 0.0
H877 H 0.04092 0.37578 0.02971 0.0
H878 H 0.97514 0.63027 0.94708 0.0
H879 H 0.0307 0.67547 0.01875 0.0
C880 C 0.03762 0.10149 0.11881 0.0
C881 C 0.05582 0.12999 0.11006 0.0
H882 H 0.01874 0.05246 0.10729 0.0
C883 C 0.06418 0.1332 0.08114 0.0
H884 H 0.03028 0.09867 0.14085 0.0
C885 C 0.05721 0.10706 0.06198 0.0
C886 C 0.04173 0.07736 0.07141 0.0
H887 H 0.07753 0.15521 0.07356 0.0
H888 H 0.06601 0.10916 0.04032 0.0
C889 C 0.03049 0.0753 0.09951 0.0
C890 C 0.17671 0.75591 0.36419 0.0
C891 C 0.14753 0.76306 0.34937 0.0
H892 H 0.22724 0.74651 0.36204 0.0
C893 C 0.14811 0.76467 0.31902 0.0
H894 H 0.17762 0.75436 0.38744 0.0
C895 C 0.17693 0.75957 0.30418 0.0
C896 C 0.2062 0.75314 0.31924 0.0
H897 H 0.12627 0.76995 0.30668 0.0
H898 H 0.17647 0.76152 0.28096 0.0
C899 C 0.2054 0.75129 0.34949 0.0
C900 C 0.58174 0.8262 0.60636 0.0
C901 C 0.59513 0.80235 0.58873 0.0
H902 H 0.56682 0.87644 0.60997 0.0
C903 C 0.60476 0.8113 0.56101 0.0
H904 H 0.57433 0.81994 0.6279 0.0
C905 C 0.60037 0.84344 0.55081 0.0
C906 C 0.58672 0.86715 0.56834 0.0
H907 H 0.61521 0.79337 0.54701 0.0
H908 H 0.60743 0.84976 0.52918 0.0
C909 C 0.57775 0.85851 0.59628 0.0
C910 C 0.44294 0.26819 0.84785 0.0
C911 C 0.46822 0.2869 0.83487 0.0
H912 H 0.39222 0.25329 0.84693 0.0
C913 C 0.46067 0.30498 0.80978 0.0
H914 H 0.44771 0.25415 0.86729 0.0
C915 C 0.42888 0.30425 0.79793 0.0
C916 C 0.40351 0.28591 0.81111 0.0
H917 H 0.4794 0.31976 0.7992 0.0
H918 H 0.42413 0.31836 0.77853 0.0
C919 C 0.41101 0.26791 0.83627 0.0
C920 C 0.04884 0.85886 0.48014 0.0
C921 C 0.04826 0.86061 0.44979 0.0
H922 H 0.04422 0.88495 0.5203 0.0
C923 C 0.04099 0.89132 0.43702 0.0
H924 H 0.05412 0.83568 0.49087 0.0
C925 C 0.0354 0.91946 0.45387 0.0
C926 C 0.03643 0.91797 0.48418 0.0
H927 H 0.04014 0.8939 0.41384 0.0
H928 H 0.03068 0.94271 0.443 0.0
C929 C 0.04284 0.88708 0.49709 0.0
C930 C 0.49747 0.71414 0.73363 0.0
C931 C 0.5011 0.72439 0.70496 0.0
H932 H 0.46629 0.71131 0.76969 0.0
C933 C 0.47613 0.74117 0.6909 0.0
H934 H 0.51648 0.70128 0.74499 0.0
C935 C 0.44742 0.74632 0.70484 0.0
C936 C 0.4435 0.73532 0.7332 0.0
H937 H 0.47827 0.74928 0.66881 0.0
H938 H 0.42808 0.75859 0.69337 0.0
C939 C 0.46893 0.71988 0.74777 0.0
C940 C 0.58894 0.17184 0.98714 0.0
C941 C 0.57366 0.17765 0.96021 0.0
H942 H 0.59841 0.13666 0.02087 0.0
C943 C 0.5556 0.15108 0.9467 0.0
H944 H 0.603 0.19174 -0.0018 0.0
C945 C 0.55343 0.11939 0.95947 0.0
C946 C 0.56878 0.11352 0.98637 0.0
H947 H 0.5436 0.15459 0.92595 0.0
H948 H 0.5396 0.09945 0.94825 0.0
C949 C 0.58628 0.14026 0.00019 0.0
C950 C 0.16182 0.21635 0.2489 0.0
C951 C 0.16552 0.21914 0.21908 0.0
H952 H 0.18373 0.22365 0.29075 0.0
C953 C 0.19503 0.23195 0.20853 0.0
H954 H 0.13919 0.20693 0.25765 0.0
C955 C 0.22054 0.24159 0.22753 0.0
C956 C 0.21672 0.23896 0.25733 0.0
H957 H 0.19843 0.23454 0.18564 0.0
H958 H 0.24325 0.25097 0.21889 0.0
C959 C 0.18714 0.2264 0.26786 0.0
C960 C 0.15792 0.98468 0.14375 0.0
C961 C 0.13985 0.98844 0.16858 0.0
H962 H 0.15709 0.97727 0.09818 0.0
C963 C 0.10581 0.98458 0.16611 0.0
H964 H 0.18415 0.98731 0.14479 0.0
C965 C 0.09024 0.97809 0.13926 0.0
C966 C 0.10841 0.97582 0.11433 0.0
H967 H 0.09117 0.98703 0.18483 0.0
H968 H 0.06398 0.97645 0.13783 0.0
C969 C 0.14241 0.97872 0.11699 0.0
C970 C 0.3238 0.79776 0.48177 0.0
C971 C 0.30782 0.82774 0.48455 0.0
H972 H 0.34319 0.76265 0.45293 0.0
C973 C 0.29842 0.84522 0.45979 0.0
H974 H 0.3314 0.78388 0.50058 0.0
C975 C 0.30585 0.83347 0.43269 0.0
C976 C 0.32236 0.80385 0.42997 0.0
H977 H 0.28637 0.86856 0.46138 0.0
H978 H 0.29852 0.8474 0.41381 0.0
C979 C 0.33077 0.78575 0.45464 0.0
C980 C 0.46022 0.0588 0.63133 0.0
C981 C 0.472 0.03905 0.65396 0.0
H982 H 0.46703 0.07679 0.58847 0.0
C983 C 0.50195 0.02424 0.65108 0.0
H984 H 0.4374 0.0708 0.63298 0.0
C985 C 0.51879 0.02747 0.62555 0.0
C986 C 0.50644 0.04618 0.60253 0.0
H987 H 0.51181 0.00897 0.66813 0.0
H988 H 0.54094 0.01434 0.62346 0.0
C989 C 0.47743 0.06259 0.60598 0.0
C990 C 0.32108 0.20145 0.96401 0.0
C991 C 0.31998 0.23036 0.98094 0.0
H992 H 0.31038 0.17848 0.92319 0.0
C993 C 0.30718 0.2592 0.96894 0.0
H994 H 0.33001 0.17856 0.97296 0.0
C995 C 0.29626 0.25931 0.94023 0.0
C996 C 0.29742 0.23038 0.92318 0.0
H997 H 0.30577 0.2817 0.98169 0.0
H998 H 0.28772 0.28234 0.93125 0.0
C999 C 0.30958 0.20134 0.93554 0.0
C1000 C 0.12998 0.00901 0.35251 0.0
C1001 C 0.11434 0.02142 0.32775 0.0
H1002 H 0.13149 0.00643 0.39855 0.0
C1003 C 0.08674 0.04021 0.33085 0.0
H1004 H 0.15148 0.99476 0.35086 0.0
C1005 C 0.07527 0.04681 0.35815 0.0
C1006 C 0.09157 0.03534 0.38291 0.0
H1007 H 0.07427 0.05026 0.31217 0.0
H1008 H 0.05404 0.06146 0.35996 0.0
C1009 C 0.11885 0.01613 0.37982 0.0
C1010 C 0.2969 0.81566 0.64561 0.0
C1011 C 0.28063 0.84544 0.64124 0.0
H1012 H 0.30842 0.77616 0.67474 0.0
C1013 C 0.26075 0.85657 0.66282 0.0
H1014 H 0.31244 0.80642 0.62936 0.0
C1015 C 0.25776 0.83866 0.68847 0.0
C1016 C 0.27518 0.80969 0.69334 0.0
H1017 H 0.24775 0.87925 0.65999 0.0
H1018 H 0.24297 0.84845 0.70504 0.0
C1019 C 0.29452 0.79819 0.67152 0.0
C1020 C 0.51655 0.99319 0.81805 0.0
C1021 C 0.48757 0.0096 0.81309 0.0
H1022 H 0.5502 0.9744 0.84942 0.0
C1023 C 0.47028 0.02026 0.83664 0.0
H1024 H 0.53028 0.98458 0.80026 0.0
C1025 C 0.48129 0.0137 0.86467 0.0
C1026 C 0.51001 -0.00313 0.86958 0.0
H1027 H 0.4477 0.03265 0.83343 0.0
H1028 H 0.46747 0.02195 0.88254 0.0
C1029 C 0.52785 0.98718 0.84609 0.0
C1030 C 0.39499 0.26648 0.13908 0.0
C1031 C 0.39737 0.23292 0.13117 0.0
H1032 H 0.39106 0.30092 0.17372 0.0
C1033 C 0.40596 0.20964 0.1523 0.0
H1034 H 0.38947 0.28518 0.12309 0.0
C1035 C 0.40562 0.21828 0.18129 0.0
C1036 C 0.39738 0.25053 0.18943 0.0
H1037 H 0.40875 0.18367 0.14681 0.0
H1038 H 0.40774 0.19846 0.19691 0.0
C1039 C 0.39566 0.27537 0.16811 0.0
C1040 C 0.23421 0.14476 0.05857 0.0
C1041 C 0.26587 0.13417 0.05588 0.0
H1042 H 0.18347 0.13255 0.0517 0.0
C1043 C 0.27051 0.10267 0.04367 0.0
H1044 H 0.22993 0.16896 0.06773 0.0
C1045 C 0.24431 0.08251 0.03377 0.0
C1046 C 0.21264 0.09289 0.03634 0.0
H1047 H 0.29456 0.0937 0.04096 0.0
H1048 H 0.24897 0.05884 0.0238 0.0
C1049 C 0.20773 0.12415 0.04897 0.0
C1050 C 0.69049 0.47001 0.03168 0.0
C1051 C 0.70336 0.47034 0.06002 0.0
H1052 H 0.64993 0.48069 0.00365 0.0
C1053 C 0.68471 0.48248 0.08215 0.0
H1054 H 0.70438 0.46081 0.01423 0.0
C1055 C 0.65331 0.49289 0.07625 0.0
C1056 C 0.64038 0.49246 0.04796 0.0
H1057 H 0.69396 0.48284 0.10422 0.0
H1058 H 0.63908 0.50115 0.09385 0.0
C1059 C 0.65947 0.48153 0.02563 0.0
C1060 C 0.82276 0.43633 0.25172 0.0
C1061 C 0.8569 0.43822 0.2531 0.0
H1062 H 0.77928 0.40737 0.26151 0.0
C1063 C 0.87317 0.41294 0.26781 0.0
H1064 H 0.80947 0.45558 0.2409 0.0
C1065 C 0.85607 0.38604 0.27995 0.0
C1066 C 0.82212 0.3834 0.27781 0.0
H1067 H 0.8994 0.41355 0.26977 0.0
H1068 H 0.86963 0.3666 0.29025 0.0
C1069 C 0.80548 0.40909 0.264 0.0
C1070 C 0.92385 0.53814 0.57178 0.0
C1071 C 0.9068 0.55651 0.55108 0.0
H1072 H 0.96611 0.51071 0.58107 0.0
C1073 C 0.91548 0.55523 0.52217 0.0
H1074 H 0.91757 0.53856 0.5942 0.0
C1075 C 0.94283 0.53852 0.51459 0.0
C1076 C 0.96201 0.52369 0.53599 0.0
H1077 H 0.90247 0.56897 0.50581 0.0
H1078 H 0.95063 0.53995 0.49259 0.0
C1079 C 0.95159 0.52222 0.56433 0.0
C1080 C 0.23038 0.10837 0.29898 0.0
C1081 C 0.24313 0.09232 0.2753 0.0
H1082 H 0.23635 0.14748 0.33005 0.0
C1083 C 0.27424 0.1024 0.26634 0.0
H1084 H 0.20683 0.10058 0.30691 0.0
C1085 C 0.29132 0.12955 0.27966 0.0
C1086 C 0.27781 0.14659 0.30252 0.0
H1087 H 0.28488 0.09005 0.24846 0.0
H1088 H 0.31442 0.13808 0.27124 0.0
C1089 C 0.24764 0.13491 0.31263 0.0
C1090 C 0.40843 0.93231 0.54195 0.0
C1091 C 0.38158 0.95155 0.54728 0.0
H1092 H 0.45703 0.93121 0.52783 0.0
C1093 C 0.38383 0.98592 0.54114 0.0
H1094 H 0.40768 0.90571 0.5462 0.0
C1095 C 0.41243 0.00063 0.53017 0.0
C1096 C 0.43931 0.98122 0.52521 0.0
H1097 H 0.36352 0.00139 0.54467 0.0
H1098 H 0.41376 0.02729 0.52626 0.0
C1099 C 0.43679 0.94689 0.53111 0.0
C1100 C 0.84063 0.63777 0.21446 0.0
C1101 C 0.85336 0.61692 0.23586 0.0
H1102 H 0.81931 0.68442 0.20481 0.0
C1103 C 0.85263 0.62687 0.26479 0.0
H1104 H 0.84094 0.63071 0.19198 0.0
C1105 C 0.83933 0.65709 0.27218 0.0
C1106 C 0.82744 0.67837 0.2507 0.0
H1107 H 0.86211 0.61116 0.28171 0.0
H1108 H 0.83924 0.66429 0.29464 0.0
C1109 C 0.82826 0.66845 0.22178 0.0
C1110 C 0.77499 0.40837 0.73516 0.0
C1111 C 0.75868 0.42463 0.75676 0.0
H1112 H 0.80053 0.3653 0.72364 0.0
C1113 C 0.75898 0.41157 0.78475 0.0
H1114 H 0.77508 0.41795 0.71339 0.0
C1115 C 0.7745 0.38201 0.7908 0.0
C1116 C 0.78903 0.36477 0.76872 0.0
H1117 H 0.74673 0.42385 0.80178 0.0
H1118 H 0.77343 0.37163 0.81227 0.0
C1119 C 0.78961 0.37838 0.74099 0.0
C1120 C 0.03534 0.87864 0.96292 0.0
C1121 C 0.03321 0.89882 0.93832 0.0
H1122 H 0.05855 0.87218 0.00406 0.0
C1123 C 0.05885 0.92188 0.93269 0.0
H1124 H 0.01664 0.85959 0.96725 0.0
C1125 C 0.0835 0.92828 0.95346 0.0
C1126 C 0.08182 0.9127 0.98049 0.0
H1127 H 0.05887 0.9364 0.91308 0.0
H1128 H 0.10055 0.94918 0.95001 0.0
C1129 C 0.06001 0.88505 0.98362 0.0
C1130 C 0.93761 0.27054 0.70566 0.0
C1131 C 0.96408 0.25696 0.72062 0.0
H1132 H 0.8879 0.28429 0.70671 0.0
C1133 C 0.96043 0.24906 0.74992 0.0
H1134 H 0.93936 0.27681 0.6831 0.0
C1135 C 0.93121 0.25446 0.76378 0.0
C1136 C 0.90436 0.26691 0.74851 0.0
H1137 H 0.98024 0.23861 0.76219 0.0
H1138 H 0.92922 0.24765 0.7862 0.0
C1139 C 0.90805 0.27486 0.71924 0.0
C1140 C 0.44137 0.23419 0.46351 0.0
C1141 C 0.44949 0.24182 0.43502 0.0
H1142 H 0.44365 0.19877 0.49783 0.0
C1143 C 0.46182 0.21685 0.41781 0.0
H1144 H 0.43153 0.25271 0.47734 0.0
C1145 C 0.46843 0.18581 0.42964 0.0
C1146 C 0.46306 0.17953 0.45883 0.0
H1147 H 0.46812 0.22188 0.39576 0.0
H1148 H 0.47962 0.16753 0.41648 0.0
C1149 C 0.44844 0.20343 0.47539 0.0
C1150 C 0.67029 0.77883 0.19367 0.0
C1151 C 0.64196 0.76543 0.20623 0.0
H1152 H 0.72149 0.78948 0.19765 0.0
C1153 C 0.64504 0.75236 0.23434 0.0
H1154 H 0.66929 0.78905 0.17214 0.0
C1155 C 0.67548 0.75257 0.24923 0.0
C1156 C 0.70378 0.76575 0.23641 0.0
H1157 H 0.62395 0.74167 0.24482 0.0
H1158 H 0.67684 0.74229 0.27073 0.0
C1159 C 0.70051 0.77894 0.20841 0.0
C1160 C 0.05943 0.16796 0.57714 0.0
C1161 C 0.04931 0.16781 0.60588 0.0
H1162 H 0.06679 0.13957 0.53875 0.0
C1163 C 0.03838 0.13706 0.61751 0.0
H1164 H 0.06809 0.19103 0.56729 0.0
C1165 C 0.03787 0.1075 0.60114 0.0
C1166 C 0.04815 0.10758 0.57247 0.0
H1167 H 0.0305 0.13568 0.63948 0.0
H1168 H 0.02937 0.08443 0.61111 0.0
C1169 C 0.05879 0.13835 0.56068 0.0
C1170 C 0.57443 0.36266 0.34549 0.0
C1171 C 0.55047 0.3379 0.33816 0.0
H1172 H 0.62301 0.3814 0.33998 0.0
C1173 C 0.55683 0.31336 0.31797 0.0
H1174 H 0.56975 0.38205 0.36087 0.0
C1175 C 0.58773 0.31203 0.30691 0.0
C1176 C 0.61252 0.33584 0.31527 0.0
H1177 H 0.53865 0.29388 0.31226 0.0
H1178 H 0.59246 0.29116 0.29313 0.0
C1179 C 0.60501 0.362 0.33375 0.0
C1180 C 0.56793 0.85705 0.05819 0.0
C1181 C 0.55775 0.85431 0.08679 0.0
H1182 H 0.57335 0.8884 0.02085 0.0
C1183 C 0.54387 0.88206 0.09917 0.0
H1184 H 0.57865 0.83614 0.04794 0.0
C1185 C 0.54158 0.91215 0.08389 0.0
C1186 C 0.55205 0.91507 0.05543 0.0
H1187 H 0.53587 0.88096 0.12111 0.0
H1188 H 0.53193 0.93341 0.09455 0.0
C1189 C 0.56467 0.8869 0.04255 0.0
C1190 C 0.91433 0.79416 0.8602 0.0
C1191 C 0.90762 0.82782 0.86489 0.0
H1192 H 0.89498 0.74542 0.84829 0.0
C1193 C 0.87545 0.83643 0.86786 0.0
H1194 H 0.939 0.78673 0.85803 0.0
C1195 C 0.85023 0.81228 0.86344 0.0
C1196 C 0.85694 0.77957 0.855 0.0
H1197 H 0.86971 0.86208 0.87194 0.0
H1198 H 0.82555 0.82034 0.86323 0.0
C1199 C 0.88918 0.77028 0.85504 0.0
C1200 C 0.02764 0.00391 0.89653 0.0
C1201 C 0.99376 0.00489 0.8936 0.0
H1202 H 0.06927 0.00498 0.92536 0.0
C1203 C 0.97563 0.00877 0.9183 0.0
H1204 H 0.0421 0.00071 0.87779 0.0
C1205 C 0.99103 0.01006 0.94561 0.0
C1206 C 0.02495 0.0087 0.94861 0.0
H1207 H 0.94943 0.00917 0.9166 0.0
H1208 H 0.97635 0.01152 0.96442 0.0
C1209 C 0.04316 0.0065 0.92372 0.0
C1210 C 0.78371 0.21876 0.58345 0.0
C1211 C 0.79333 0.18582 0.58007 0.0
H1212 H 0.771 0.25687 0.61284 0.0
C1213 C 0.79858 0.16625 0.60471 0.0
H1214 H 0.77925 0.23443 0.56493 0.0
C1215 C 0.79348 0.17897 0.63201 0.0
C1216 C 0.78321 0.21161 0.63535 0.0
H1217 H 0.80595 0.14076 0.60293 0.0
H1218 H 0.7979 0.16332 0.65057 0.0
C1219 C 0.77878 0.23155 0.61085 0.0
C1220 C 0.6019 0.99468 0.4016 0.0
C1221 C 0.59325 0.01866 0.38108 0.0
H1222 H 0.59264 0.97314 0.44285 0.0
C1223 C 0.56543 0.03675 0.38528 0.0
H1224 H 0.62302 0.98011 0.39886 0.0
C1225 C 0.54794 0.03264 0.41031 0.0
C1226 C 0.55781 0.0103 0.43176 0.0
H1227 H 0.5578 0.05512 0.36972 0.0
H1228 H 0.52763 0.04825 0.41348 0.0
C1229 C 0.5843 0.99048 0.4267 0.0
C1230 C 0.80887 0.89453 0.10486 0.0
C1231 C 0.8067 0.87427 0.08024 0.0
H1232 H 0.8167 0.89622 0.15053 0.0
C1233 C 0.81538 0.84094 0.08202 0.0
H1234 H 0.80265 0.92047 0.1037 0.0
C1235 C 0.82466 0.82747 0.10831 0.0
C1236 C 0.82444 0.84679 0.1335 0.0
H1237 H 0.81484 0.82519 0.06303 0.0
H1238 H 0.8309 0.80152 0.10905 0.0
C1239 C 0.81733 0.88075 0.13147 0.0
C1240 C 0.99778 0.98474 0.72716 0.0
C1241 C 0.96687 -0.00277 0.73056 0.0
H1242 H 0.03282 0.96861 0.69771 0.0
C1243 C 0.94743 0.003 0.70582 0.0
H1244 H 0.01328 0.97969 0.74572 0.0
C1245 C 0.95846 0.99634 0.67843 0.0
C1246 C 0.9893 0.98385 0.67497 0.0
H1247 H 0.92344 0.01249 0.70753 0.0
H1248 H 0.94302 0.00168 0.65989 0.0
C1249 C 0.00891 0.97823 0.69965 0.0
C1250 C 0.7624 0.24814 0.41621 0.0
C1251 C 0.78481 0.22367 0.42289 0.0
H1252 H 0.74568 0.28379 0.38549 0.0
C1253 C 0.81003 0.21896 0.40398 0.0
H1254 H 0.74274 0.25258 0.43038 0.0
C1255 C 0.81195 0.2372 0.37837 0.0
C1256 C 0.78853 0.26042 0.37094 0.0
H1257 H 0.82784 0.20052 0.40856 0.0
H1258 H 0.83103 0.23196 0.36381 0.0
C1259 C 0.76417 0.26621 0.39051 0.0
C1260 C 0.64959 0.0151 0.20284 0.0
C1261 C 0.6299 0.02043 0.22634 0.0
H1262 H 0.65407 0.01714 0.15725 0.0
C1263 C 0.59837 0.03133 0.22128 0.0
H1264 H 0.674 0.00671 0.20599 0.0
C1265 C 0.58715 0.03772 0.19331 0.0
C1266 C 0.60728 0.03338 0.16997 0.0
H1267 H 0.58268 0.0359 0.23893 0.0
H1268 H 0.56295 0.0466 0.18997 0.0
C1269 C 0.63841 0.02159 0.17496 0.0
C1270 C 0.69096 0.80048 0.95075 0.0
C1271 C 0.69962 0.8347 0.94986 0.0
H1272 H 0.67537 0.75727 0.9263 0.0
C1273 C 0.68971 0.85335 0.92596 0.0
H1274 H 0.69686 0.78577 0.96956 0.0
C1275 C 0.67907 0.8369 0.90076 0.0
C1276 C 0.67822 0.80169 0.89953 0.0
H1277 H 0.69483 0.88011 0.92515 0.0
H1278 H 0.67689 0.85196 0.8816 0.0
C1279 C 0.6789 0.7842 0.92581 0.0
C1280 C 0.88971 0.91651 0.95188 0.0
C1281 C 0.86981 0.89002 0.96198 0.0
H1282 H 0.93312 0.9467 0.95987 0.0
C1283 C 0.88366 0.8663 0.98035 0.0
H1284 H 0.87996 0.93461 0.93706 0.0
C1285 C 0.91346 0.87396 0.99445 0.0
C1286 C 0.92996 0.90459 0.9891 0.0
H1287 H 0.86917 0.84505 0.98796 0.0
H1288 H 0.92127 0.85811 0.01194 0.0
C1289 C 0.9198 0.9238 0.96547 0.0
C1290 C 0.38699 0.53652 0.02893 0.0
C1291 C 0.37947 0.56015 0.00764 0.0
H1292 H 0.42324 0.5067 0.04871 0.0
C1293 C 0.40347 0.5698 0.98814 0.0
H1294 H 0.36913 0.52845 0.04432 0.0
C1295 C 0.43456 0.55722 0.99064 0.0
C1296 C 0.44251 0.53473 0.01274 0.0
H1297 H 0.39857 0.58788 0.97147 0.0
H1298 H 0.45269 0.566 0.97575 0.0
C1299 C 0.41809 0.52401 0.03147 0.0
C1300 C 0.25096 0.62595 0.79479 0.0
C1301 C 0.21963 0.62179 0.80565 0.0
H1302 H 0.28721 0.6596 0.7777 0.0
C1303 C 0.2007 0.64997 0.80753 0.0
H1304 H 0.26614 0.60483 0.79273 0.0
C1305 C 0.21265 0.68139 0.7985 0.0
C1306 C 0.24385 0.68544 0.78738 0.0
H1307 H 0.17634 0.64772 0.8155 0.0
H1308 H 0.19749 0.70255 0.80046 0.0
C1309 C 0.2629 0.65735 0.78577 0.0
C1310 C 0.19337 0.46682 0.47474 0.0
C1311 C 0.21921 0.47733 0.49322 0.0
H1312 H 0.1428 0.46862 0.46495 0.0
C1313 C 0.21484 0.5019 0.51408 0.0
H1314 H 0.19636 0.44759 0.45876 0.0
C1315 C 0.18389 0.51314 0.51847 0.0
C1316 C 0.15739 0.50034 0.50157 0.0
H1317 H 0.23456 0.50984 0.52884 0.0
H1318 H 0.18044 0.53022 0.53606 0.0
C1319 C 0.16272 0.47864 0.47859 0.0
C1320 C 0.82995 0.91757 0.8177 0.0
C1321 C 0.86379 0.91812 0.81469 0.0
H1322 H 0.78484 0.88847 0.8134 0.0
C1323 C 0.87814 0.88955 0.80475 0.0
H1324 H 0.81834 0.93955 0.82509 0.0
C1325 C 0.85915 0.8613 0.79714 0.0
C1326 C 0.82529 0.86055 0.79977 0.0
H1327 H 0.90403 0.88936 0.80168 0.0
H1328 H 0.87132 0.83977 0.7895 0.0
C1329 C 0.8108 0.88866 0.81072 0.0
C1330 C 0.66622 0.11277 0.4935 0.0
C1331 C 0.69277 0.093 0.50032 0.0
H1332 H 0.61472 0.11762 0.49409 0.0
C1333 C 0.6866 0.06181 0.51332 0.0
H1334 H 0.66995 0.13707 0.48366 0.0
C1335 C 0.6549 0.05088 0.51962 0.0
C1336 C 0.62842 0.07081 0.5131 0.0
H1337 H 0.70632 0.04602 0.51918 0.0
H1338 H 0.65118 0.02664 0.52958 0.0
C1339 C 0.63449 0.10183 0.4998 0.0
C1340 C 0.27768 0.43181 0.78942 0.0
C1341 C 0.25183 0.43608 0.8078 0.0
H1342 H 0.31029 0.39818 0.77155 0.0
C1343 C 0.2414 0.40904 0.82501 0.0
H1344 H 0.28655 0.45211 0.776 0.0
C1345 C 0.25525 0.37785 0.82253 0.0
C1346 C 0.27967 0.37316 0.80269 0.0
H1347 H 0.22157 0.41152 0.83942 0.0
H1348 H 0.2457 0.35706 0.83503 0.0
C1349 C 0.29135 0.40079 0.78686 0.0
C1350 C 0.35632 0.61331 0.31637 0.0
C1351 C 0.34882 0.59022 0.29415 0.0
H1352 H 0.34973 0.66219 0.33304 0.0
C1353 C 0.32645 0.59854 0.27216 0.0
H1354 H 0.37324 0.60752 0.33374 0.0
C1355 C 0.31294 0.62983 0.27173 0.0
C1356 C 0.3214 0.65343 0.29335 0.0
H1357 H 0.31996 0.58119 0.25481 0.0
H1358 H 0.29665 0.63587 0.25396 0.0
C1359 C 0.34268 0.64457 0.31603 0.0
C1360 C 0.55059 0.62802 0.56403 0.0
C1361 C 0.55034 0.62701 0.59421 0.0
H1362 H 0.54515 0.60003 0.52497 0.0
C1363 C 0.53723 0.5984 0.60784 0.0
H1364 H 0.55963 0.65007 0.55284 0.0
C1365 C 0.52822 0.56987 0.59164 0.0
C1366 C 0.53242 0.56988 0.56183 0.0
H1367 H 0.53621 0.59721 0.63106 0.0
H1368 H 0.5215 0.54694 0.60275 0.0
C1369 C 0.5417 0.59964 0.54797 0.0
C1370 C 0.65444 0.27007 0.81958 0.0
C1371 C 0.65374 0.26868 0.84991 0.0
H1372 H 0.68322 0.26774 0.78173 0.0
C1373 C 0.68312 0.26298 0.86499 0.0
H1374 H 0.63244 0.27426 0.80707 0.0
C1375 C 0.71214 0.25951 0.85052 0.0
C1376 C 0.71304 0.26107 0.82027 0.0
H1377 H 0.68392 0.26168 0.88825 0.0
H1378 H 0.73411 0.25576 0.86323 0.0
C1379 C 0.6836 0.26609 0.80497 0.0
C1380 C 0.0576 0.31785 0.10437 0.0
C1381 C 0.08814 0.30396 0.10612 0.0
H1382 H 0.02978 0.35792 0.08811 0.0
C1383 C 0.11455 0.32014 0.09278 0.0
H1384 H 0.03688 0.30569 0.11439 0.0
C1385 C 0.11059 0.3501 0.07822 0.0
C1386 C 0.08001 0.36372 0.07627 0.0
H1387 H 0.13837 0.3099 0.09394 0.0
H1388 H 0.13127 0.36256 0.06838 0.0
C1389 C 0.0535 0.34743 0.08925 0.0
C1390 C 0.93723 0.76823 0.34794 0.0
C1391 C 0.96289 0.78589 0.33457 0.0
H1392 H 0.8863 0.75436 0.34719 0.0
C1393 C 0.95579 0.80317 0.30895 0.0
H1394 H 0.94164 0.75485 0.36779 0.0
C1395 C 0.92405 0.8026 0.29693 0.0
C1396 C 0.89831 0.78529 0.31047 0.0
H1397 H 0.97483 0.81712 0.29805 0.0
H1398 H 0.91966 0.816 0.27708 0.0
C1399 C 0.90537 0.76818 0.33621 0.0
C1400 C 0.55284 0.35994 0.98052 0.0
C1401 C 0.55217 0.36195 0.95019 0.0
H1402 H 0.54799 0.38565 0.02081 0.0
C1403 C 0.54448 0.3926 0.93757 0.0
H1404 H 0.55844 0.33677 0.99112 0.0
C1405 C 0.53857 0.42049 0.95456 0.0
C1406 C 0.53973 0.41876 0.98484 0.0
H1407 H 0.54355 0.39532 0.9144 0.0
H1408 H 0.53352 0.44373 0.94381 0.0
C1409 C 0.54653 0.38792 -0.00238 0.0
C1410 C 0.97589 0.24266 0.20624 0.0
C1411 C 0.99641 0.22197 0.22192 0.0
H1412 H 0.93006 0.26557 0.20442 0.0
C1413 C 0.98765 0.21061 0.24927 0.0
H1414 H 0.98213 0.25163 0.18507 0.0
C1415 C 0.95822 0.21899 0.26043 0.0
C1416 C 0.93708 0.23824 0.24408 0.0
H1417 H 1.00327 0.19476 0.2618 0.0
H1418 H 0.95142 0.20944 0.28128 0.0
C1419 C 0.94619 0.25047 0.21715 0.0
C1420 C 0.08392 0.67013 0.48865 0.0
C1421 C 0.06792 0.67581 0.46201 0.0
H1422 H 0.0944 0.63511 0.52226 0.0
C1423 C 0.04923 0.64925 0.44913 0.0
H1424 H 0.09848 0.69001 0.49924 0.0
C1425 C 0.0473 0.61765 0.46213 0.0
C1426 C 0.06353 0.61185 0.48864 0.0
H1427 H 0.03666 0.65264 0.42862 0.0
H1428 H 0.03314 0.59766 0.45127 0.0
C1429 C 0.08152 0.63865 0.50192 0.0
C1430 C 0.7056 0.72824 0.67827 0.0
C1431 C 0.67329 0.73249 0.68544 0.0
H1432 H 0.7557 0.73626 0.69119 0.0
C1433 C 0.66678 0.75222 0.70933 0.0
H1434 H 0.71119 0.71364 0.65961 0.0
C1435 C 0.69193 0.7659 0.7267 0.0
C1436 C 0.72423 0.75969 0.72093 0.0
H1437 H 0.64211 0.75687 0.71488 0.0
H1438 H 0.68589 0.77996 0.74555 0.0
C1439 C 0.731 0.74159 0.69607 0.0
C1440 C 0.65465 0.48645 0.64275 0.0
C1441 C 0.63574 0.48663 0.66736 0.0
H1442 H 0.6553 0.48227 0.5969 0.0
C1443 C 0.60206 0.48016 0.66418 0.0
H1444 H 0.68067 0.49136 0.6444 0.0
C1445 C 0.58758 0.47434 0.63689 0.0
C1446 C 0.60643 0.47543 0.61222 0.0
H1447 H 0.58686 0.47997 0.68273 0.0
H1448 H 0.56148 0.47023 0.63502 0.0
C1449 C 0.64014 0.4812 0.61549 0.0
C1450 C 0.8035 0.35449 0.9627 0.0
C1451 C 0.81247 0.33606 0.98708 0.0
H1452 H 0.80415 0.35834 0.91679 0.0
C1453 C 0.82881 0.30642 0.98361 0.0
H1454 H 0.7912 0.37761 0.96479 0.0
C1455 C 0.8363 0.29553 0.95625 0.0
C1456 C 0.82799 0.31434 0.93193 0.0
H1457 H 0.83616 0.29182 0.00207 0.0
H1458 H 0.84889 0.27259 0.95408 0.0
C1459 C 0.81139 0.34381 0.93533 0.0
C1460 C 1.00055 0.51516 0.15381 0.0
C1461 C 0.97203 0.53267 0.15661 0.0
H1462 H 0.03995 0.50375 0.12713 0.0
C1463 C 0.96331 0.55511 0.13485 0.0
H1464 H 0.0081 0.49777 0.17024 0.0
C1465 C 0.98212 0.55918 0.11046 0.0
C1466 C 0.00975 0.54044 0.10704 0.0
H1467 H 0.94173 0.56925 0.13648 0.0
H1468 H 0.97401 0.57577 0.09362 0.0
C1469 C 0.019 0.51875 0.1292 0.0
C1470 C 0.84821 0.72565 0.45827 0.0
C1471 C 0.83858 0.69534 0.47094 0.0
H1472 H 0.84352 0.75785 0.42223 0.0
C1473 C 0.81664 0.67317 0.45609 0.0
H1474 H 0.86507 0.74308 0.4695 0.0
C1475 C 0.80281 0.68228 0.42959 0.0
C1476 C 0.81125 0.71345 0.41735 0.0
H1477 H 0.80844 0.64988 0.46591 0.0
H1478 H 0.78452 0.66554 0.41943 0.0
C1479 C 0.83521 0.73433 0.43149 0.0
C1480 C 0.5845 0.54001 0.83155 0.0
C1481 C 0.61284 0.52262 0.82771 0.0
H1482 H 0.55227 0.56041 0.86145 0.0
C1483 C 0.63043 0.51197 0.85211 0.0
H1484 H 0.57052 0.54876 0.81319 0.0
C1485 C 0.62026 0.51918 0.87974 0.0
C1486 C 0.5921 0.53686 0.88355 0.0
H1487 H 0.65253 0.49881 0.84989 0.0
H1488 H 0.63424 0.51058 0.89816 0.0
C1489 C 0.57413 0.54686 0.85916 0.0
C1490 C 0.75713 0.36299 0.16526 0.0
C1491 C 0.77667 0.35029 0.14406 0.0
H1492 H 0.73799 0.35642 0.20726 0.0
C1493 C 0.79049 0.31922 0.14871 0.0
H1494 H 0.74597 0.38671 0.16223 0.0
C1495 C 0.78624 0.30206 0.17457 0.0
C1496 C 0.76741 0.31517 0.19607 0.0
H1497 H 0.80567 0.30871 0.13278 0.0
H1498 H 0.79843 0.27899 0.17806 0.0
C1499 C 0.75225 0.34541 0.19089 0.0
C1500 C 0.99284 0.52828 0.33199 0.0
C1501 C 0.98899 0.50092 0.31318 0.0
H1502 H 0.00751 0.54522 0.37434 0.0
C1503 C 0.99732 0.46907 0.32283 0.0
H1504 H 0.98642 0.553 0.32511 0.0
C1505 C 0.00858 0.46452 0.35107 0.0
C1506 C 0.01233 0.49187 0.36979 0.0
H1507 H 0.9942 0.44745 0.30883 0.0
H1508 H 0.01447 0.43976 0.35827 0.0
C1509 C 1.00477 0.52383 0.36004 0.0
C1510 C 0.8973 0.73995 0.62744 0.0
C1511 C 0.90566 0.7067 0.62445 0.0
H1512 H 0.88702 0.77836 0.65632 0.0
C1513 C 0.92162 0.69113 0.6475 0.0
H1514 H 0.88575 0.75297 0.60977 0.0
C1515 C 0.92355 0.70631 0.67457 0.0
C1516 C 0.90812 0.73642 0.67902 0.0
H1517 H 0.92953 0.66587 0.64538 0.0
H1518 H 0.93373 0.69255 0.69241 0.0
C1519 C 0.89822 0.75465 0.65458 0.0
C1520 C 0.74042 0.60359 0.58149 0.0
C1521 C 0.75341 0.6309 0.56619 0.0
H1522 H 0.70507 0.56302 0.58177 0.0
C1523 C 0.737 0.64163 0.54115 0.0
H1524 H 0.75248 0.59506 0.60097 0.0
C1525 C 0.71045 0.62267 0.52962 0.0
C1526 C 0.69985 0.59309 0.54323 0.0
H1527 H 0.74664 0.66256 0.52885 0.0
H1528 H 0.69992 0.62977 0.50903 0.0
C1529 C 0.7137 0.58495 0.57018 0.0
C1530 C 0.18844 0.96655 0.52948 0.0
C1531 C 0.20139 0.96644 0.55781 0.0
H1532 H 0.14808 0.97829 0.50154 0.0
C1533 C 0.18297 0.97884 0.58 0.0
H1534 H 0.20213 0.95721 0.51196 0.0
C1535 C 0.1518 0.98996 0.57418 0.0
C1536 C 0.1388 0.99003 0.5459 0.0
H1537 H 0.19225 0.97892 0.60206 0.0
H1538 H 0.13778 -0.00158 0.59185 0.0
C1539 C 0.15765 0.97878 0.52351 0.0
C1540 C 0.33083 0.93455 0.75167 0.0
C1541 C 0.36475 0.93583 0.74914 0.0
H1542 H 0.28852 0.90554 0.7643 0.0
C1543 C 0.38211 0.90856 0.7592 0.0
H1544 H 0.31675 0.95527 0.74449 0.0
C1545 C 0.36614 0.88058 0.77089 0.0
C1546 C 0.33225 0.87885 0.77292 0.0
H1547 H 0.40825 0.90861 0.75797 0.0
H1548 H 0.38043 0.85986 0.77774 0.0
C1549 C 0.31473 0.90631 0.76347 0.0
C1550 C 0.4299 0.06725 0.06396 0.0
C1551 C 0.42058 0.0896 0.04231 0.0
H1552 H 0.46126 0.0283 0.07601 0.0
C1553 C 0.43135 0.08541 0.01428 0.0
H1554 H 0.42165 0.06964 0.08571 0.0
C1555 C 0.45321 0.06088 0.00857 0.0
C1556 C 0.46493 0.04087 0.03098 0.0
H1557 H 0.42407 0.10199 -0.00287 0.0
H1558 H 0.46321 0.05976 0.98736 0.0
C1559 C 0.4522 0.0433 0.0584 0.0
C1560 C 0.71293 0.62411 0.78073 0.0
C1561 C 0.72931 0.60114 0.76441 0.0
H1562 H 0.71509 0.6714 0.80203 0.0
C1563 C 0.76201 0.60806 0.75825 0.0
H1564 H 0.68787 0.6192 0.78625 0.0
C1565 C 0.77768 0.63804 0.76735 0.0
C1566 C 0.761 0.66135 0.78308 0.0
H1567 H 0.77532 0.59062 0.74595 0.0
H1568 H 0.80257 0.6433 0.76146 0.0
C1569 C 0.72868 0.65381 0.79015 0.0
C1570 C 0.91039 0.43515 0.04632 0.0
C1571 C 0.88389 0.45477 0.05188 0.0
H1572 H 0.95864 0.4333 0.0316 0.0
C1573 C 0.88646 0.48911 0.04555 0.0
H1574 H 0.90938 0.40856 0.05061 0.0
C1575 C 0.91509 0.50342 0.03427 0.0
C1576 C 0.94161 0.48363 0.02908 0.0
H1577 H 0.86641 0.50488 0.04924 0.0
H1578 H 0.91672 0.53007 0.03031 0.0
C1579 C 0.9387 0.44931 0.03507 0.0
C1580 C 0.34418 0.13955 0.71203 0.0
C1581 C 0.35627 0.11881 0.73385 0.0
H1582 H 0.32416 0.18675 0.70156 0.0
C1583 C 0.35599 0.12957 0.76255 0.0
H1584 H 0.34428 0.13185 0.6897 0.0
C1585 C 0.34358 0.16037 0.76935 0.0
C1586 C 0.33218 0.18148 0.74752 0.0
H1587 H 0.36508 0.11404 0.77976 0.0
H1588 H 0.3437 0.16805 0.7917 0.0
C1589 C 0.33275 0.1709 0.71877 0.0
C1590 C 0.27436 0.90127 0.23498 0.0
C1591 C 0.25864 0.91861 0.25629 0.0
H1592 H 0.29747 0.85656 0.22385 0.0
C1593 C 0.25726 0.90541 0.2842 0.0
H1594 H 0.27573 0.91093 0.21329 0.0
C1595 C 0.27064 0.87474 0.29044 0.0
C1596 C 0.28468 0.85663 0.26863 0.0
H1597 H 0.24543 0.9185 0.30101 0.0
H1598 H 0.2684 0.86435 0.31182 0.0
C1599 C 0.28685 0.87028 0.241 0.0
C1600 C 0.55976 0.38612 0.44982 0.0
C1601 C 0.53881 0.36583 0.46622 0.0
H1602 H 0.6011 0.42014 0.45168 0.0
C1603 C 0.55004 0.35359 0.49276 0.0
H1604 H 0.55224 0.39455 0.42862 0.0
C1605 C 0.57928 0.36662 0.50495 0.0
C1606 C 0.59405 0.39511 0.49238 0.0
H1607 H 0.53499 0.33642 0.50512 0.0
H1608 H 0.58494 0.36065 0.52722 0.0
C1609 C 0.58837 0.39996 0.46275 0.0
C1610 C 0.45432 0.74415 0.24891 0.0
C1611 C 0.45803 0.75301 0.21983 0.0
H1612 H 0.4227 0.74051 0.28482 0.0
C1613 C 0.43115 0.76572 0.20481 0.0
H1614 H 0.47444 0.73432 0.2612 0.0
C1615 C 0.4012 0.76837 0.21814 0.0
C1616 C 0.39749 0.75953 0.24722 0.0
H1617 H 0.43296 0.77264 0.1824 0.0
H1618 H 0.38082 0.7773 0.20561 0.0
C1619 C 0.42467 0.74788 0.26253 0.0
C1620 C 0.0354 0.73899 0.95037 0.0
C1621 C 0.00878 0.74898 0.9336 0.0
H1622 H 0.05451 0.70196 0.97811 0.0
C1623 C 0.97974 0.72923 0.93307 0.0
H1624 H 0.05809 0.75374 0.95113 0.0
C1625 C 0.97741 0.69987 0.94908 0.0
C1626 C 1.00417 0.68967 0.96567 0.0
H1627 H 0.95869 0.7366 0.92056 0.0
H1628 H 0.95468 0.68522 0.94849 0.0
C1629 C 0.03318 0.70953 0.96612 0.0
C1630 C 0.17528 0.27969 0.69378 0.0
C1631 C 0.14717 0.26565 0.70628 0.0
H1632 H 0.22629 0.29163 0.69793 0.0
C1633 C 0.1504 0.25287 0.73447 0.0
H1634 H 0.17414 0.28978 0.6722 0.0
C1635 C 0.18079 0.25391 0.74946 0.0
C1636 C 0.20889 0.26768 0.73669 0.0
H1637 H 0.12949 0.24175 0.74492 0.0
H1638 H 0.18228 0.24375 0.771 0.0
C1639 C 0.20547 0.28066 0.70864 0.0
C1640 C 0.55695 0.66865 0.07716 0.0
C1641 C 0.54632 0.66872 0.10571 0.0
H1642 H 0.56563 0.63979 0.03934 0.0
C1643 C 0.53586 0.63795 0.11763 0.0
H1644 H 0.5653 0.69172 0.06713 0.0
C1645 C 0.53629 0.60814 0.10172 0.0
C1646 C 0.54709 0.60799 0.07325 0.0
H1647 H 0.52763 0.63674 0.13949 0.0
H1648 H 0.52811 0.58508 0.11188 0.0
C1649 C 0.55727 0.63876 0.06115 0.0
C1650 C 0.0676 0.82342 0.8076 0.0
C1651 C 0.06001 0.85576 0.81556 0.0
H1652 H 0.10419 0.79162 0.79431 0.0
C1653 C 0.08266 0.88246 0.81175 0.0
H1654 H 0.05054 0.80246 0.81086 0.0
C1655 C 0.11378 0.87626 0.80268 0.0
C1656 C 0.12226 0.84337 0.79704 0.0
H1657 H 0.07735 0.90752 0.81834 0.0
H1658 H 0.13165 0.89685 0.80154 0.0
C1659 C 0.09839 0.81727 0.79827 0.0
C1660 C 0.07344 0.3544 0.55786 0.0
C1661 C 0.06267 0.35171 0.58628 0.0
H1662 H 0.07914 0.38561 0.52045 0.0
C1663 C 0.04805 0.37923 0.59826 0.0
H1664 H 0.08473 0.33363 0.54793 0.0
C1665 C 0.04556 0.40908 0.58279 0.0
C1666 C 0.05665 0.41198 0.55454 0.0
H1667 H 0.03957 0.37812 0.62005 0.0
H1668 H 0.03525 0.43019 0.59313 0.0
C1669 C 0.07003 0.38405 0.542 0.0
C1670 C 0.41035 0.32332 0.36189 0.0
C1671 C 0.4037 0.33701 0.38868 0.0
H1672 H 0.40052 0.28448 0.33142 0.0
C1673 C 0.38083 0.32016 0.40596 0.0
H1674 H 0.42723 0.33599 0.34775 0.0
C1675 C 0.36443 0.29071 0.39612 0.0
C1676 C 0.37077 0.27754 0.36893 0.0
H1677 H 0.37512 0.33002 0.42679 0.0
H1678 H 0.34552 0.27942 0.40903 0.0
C1679 C 0.39508 0.29345 0.35263 0.0
C1680 C 0.50583 0.51319 0.39882 0.0
C1681 C 0.48941 0.48306 0.39029 0.0
H1682 H 0.53539 0.53892 0.43171 0.0
C1683 C 0.48962 0.4557 0.4091 0.0
H1684 H 0.50602 0.53464 0.38468 0.0
C1685 C 0.50522 0.45851 0.43613 0.0
C1686 C 0.52205 0.48836 0.44461 0.0
H1687 H 0.47699 0.43229 0.40321 0.0
H1688 H 0.50443 0.43709 0.45033 0.0
C1689 C 0.52263 0.51562 0.4256 0.0
C1690 C 0.29822 0.66421 0.10226 0.0
C1691 C 0.29283 0.68397 0.07776 0.0
H1692 H 0.29601 0.66016 0.14797 0.0
C1693 C 0.28151 0.71623 0.08129 0.0
H1694 H 0.30688 0.63922 0.10039 0.0
C1695 C 0.275 0.72809 0.10868 0.0
C1696 C 0.27946 0.70783 0.13299 0.0
H1697 H 0.27689 0.73201 0.06287 0.0
H1698 H 0.26596 0.75288 0.11081 0.0
C1699 C 0.29149 0.67596 0.12953 0.0
C1700 C 0.06834 0.53974 0.88926 0.0
C1701 C 0.09506 0.52041 0.88391 0.0
H1702 H 0.03174 0.55191 0.91851 0.0
C1703 C 0.10298 0.49526 0.90362 0.0
H1704 H 0.06132 0.55911 0.87442 0.0
C1705 C 0.08568 0.49085 0.9289 0.0
C1706 C 0.06022 0.51164 0.93505 0.0
H1707 H 0.12324 0.47974 0.90004 0.0
H1708 H 0.09345 0.47241 0.94433 0.0
C1709 C 0.05119 0.53545 0.91451 0.0
C1710 C 0.31976 0.41342 0.61228 0.0
C1711 C 0.28653 0.41094 0.60431 0.0
H1712 H 0.35684 0.39656 0.64144 0.0
C1713 C 0.26431 0.39728 0.62373 0.0
H1714 H 0.33745 0.42417 0.59784 0.0
C1715 C 0.2755 0.38141 0.6484 0.0
C1716 C 0.30893 0.37941 0.65397 0.0
H1717 H 0.23855 0.39562 0.61837 0.0
H1718 H 0.25814 0.36828 0.66183 0.0
C1719 C 0.33097 0.39747 0.63707 0.0
C1720 C 0.49167 0.46815 0.22622 0.0
C1721 C 0.45993 0.47882 0.22877 0.0
H1722 H 0.52957 0.45701 0.1976 0.0
C1723 C 0.4415 0.48502 0.20352 0.0
H1724 H 0.50644 0.46302 0.24522 0.0
C1725 C 0.45447 0.48113 0.17648 0.0
C1726 C 0.48637 0.47122 0.17381 0.0
H1727 H 0.41687 0.49301 0.20456 0.0
H1728 H 0.43975 0.48695 0.15761 0.0
C1729 C 0.50487 0.46468 0.19899 0.0
C1730 C 0.31492 0.71499 0.90183 0.0
C1731 C 0.28939 0.72052 0.92026 0.0
H1732 H 0.33736 0.72745 0.86213 0.0
C1733 C 0.26816 0.74598 0.91327 0.0
H1734 H 0.33187 0.6958 0.90664 0.0
C1735 C 0.27133 0.76424 0.88777 0.0
C1736 C 0.29591 0.75764 0.86862 0.0
H1737 H 0.24836 0.75113 0.92707 0.0
H1738 H 0.25366 0.78261 0.88253 0.0
C1739 C 0.31819 0.73338 0.87637 0.0
C1740 C 0.15056 0.51344 0.70477 0.0
C1741 C 0.13053 0.51873 0.72807 0.0
H1742 H 0.15546 0.51477 0.65916 0.0
C1743 C 0.09879 0.52881 0.72255 0.0
H1744 H 0.17517 0.50574 0.70822 0.0
C1745 C 0.08762 0.53425 0.69435 0.0
C1746 C 0.10806 0.52993 0.67121 0.0
H1747 H 0.08281 0.53331 0.74001 0.0
H1748 H 0.06321 0.54242 0.69067 0.0
C1749 C 0.13948 0.51911 0.67667 0.0
C1750 C 0.2177 0.27096 0.49299 0.0
C1751 C 0.20309 0.30181 0.49289 0.0
H1752 H 0.23144 0.23027 0.46798 0.0
C1753 C 0.18051 0.30866 0.47082 0.0
H1754 H 0.23465 0.26459 0.51017 0.0
C1755 C 0.17732 0.28786 0.44667 0.0
C1756 C 0.19839 0.26144 0.44357 0.0
H1757 H 0.16797 0.33181 0.4708 0.0
H1758 H 0.16123 0.29509 0.42921 0.0
C1759 C 0.21574 0.25106 0.46836 0.0
C1760 C 0.37178 0.34783 0.52814 0.0
C1761 C 0.35821 0.36081 0.50254 0.0
H1762 H 0.41279 0.35028 0.55775 0.0
C1763 C 0.3788 0.37625 0.48268 0.0
H1764 H 0.35658 0.33528 0.54372 0.0
C1765 C 0.41083 0.38473 0.4908 0.0
C1766 C 0.42258 0.37745 0.51863 0.0
H1767 H 0.36911 0.38592 0.4626 0.0
H1768 H 0.4252 0.40059 0.47675 0.0
C1769 C 0.40396 0.35646 0.53632 0.0
C1770 C 0.90136 0.07174 0.48925 0.0
C1771 C 0.87749 0.06166 0.50876 0.0
H1772 H 0.95051 0.06824 0.47637 0.0
C1773 C 0.88534 0.03773 0.5297 0.0
H1774 H 0.89627 0.0901 0.47286 0.0
C1775 C 0.91652 0.02524 0.5318 0.0
C1776 C 0.94077 0.03624 0.51297 0.0
H1777 H 0.86766 0.02932 0.54512 0.0
H1778 H 0.92184 0.00761 0.54874 0.0
C1779 C 0.93255 0.05917 0.49129 0.0
C1780 C 0.74657 0.12968 0.29405 0.0
C1781 C 0.71555 0.12402 0.30516 0.0
H1782 H 0.78131 0.16503 0.27714 0.0
C1783 C 0.6955 0.15128 0.30763 0.0
H1784 H 0.76256 0.10929 0.2915 0.0
C1785 C 0.70612 0.18331 0.29899 0.0
C1786 C 0.73705 0.18885 0.28767 0.0
H1787 H 0.67131 0.14783 0.3158 0.0
H1788 H 0.6902 0.20377 0.30147 0.0
C1789 C 0.75716 0.16165 0.2854 0.0
C1790 C 0.71513 0.00538 0.01967 0.0
C1791 C 0.72223 0.9836 -0.00262 0.0
H1792 H 0.67778 0.02911 0.04184 0.0
C1793 C 0.69765 0.9726 0.97763 0.0
H1794 H 0.73378 0.01381 0.0353 0.0
C1795 C 0.66587 0.98126 0.98126 0.0
C1796 C 0.6581 0.00062 0.00501 0.0
H1797 H 0.70273 0.95573 0.96027 0.0
H1798 H 0.64719 0.97122 0.96633 0.0
C1799 C 0.68311 0.01368 0.02361 0.0
C1800 C 0.34604 0.39248 0.34512 0.0
C1801 C 0.34459 0.41324 0.32088 0.0
H1802 H 0.33045 0.34571 0.36364 0.0
C1803 C 0.32298 0.40443 0.29784 0.0
H1804 H 0.36249 0.39881 0.36313 0.0
C1805 C 0.30547 0.3738 0.29783 0.0
C1806 C 0.30832 0.35227 0.32136 0.0
H1807 H 0.32159 0.41993 0.27881 0.0
H1808 H 0.29125 0.36604 0.27879 0.0
C1809 C 0.32754 0.36238 0.34553 0.0
C1810 C 0.19099 0.55756 0.01247 0.0
C1811 C 0.196 0.58927 -1e-05 0.0
H1812 H 0.15702 0.52147 0.02976 0.0
C1813 C 0.16899 0.60901 0.9953 0.0
H1814 H 0.21117 0.54177 0.01671 0.0
C1815 C 0.138 0.59759 0.00324 0.0
C1816 C 0.13308 0.56606 0.01601 0.0
H1817 H 0.17183 0.63369 0.98598 0.0
H1818 H 0.11783 0.61346 -0.00083 0.0
C1819 C 0.15994 0.54609 0.02033 0.0
C1820 C 0.77463 0.93258 0.28391 0.0
C1821 C 0.75013 0.93761 0.30354 0.0
H1822 H 0.80517 0.89793 0.26449 0.0
C1823 C 0.73982 0.91079 0.32102 0.0
H1824 H 0.78329 0.95267 0.27018 0.0
C1825 C 0.75256 0.8792 0.31781 0.0
C1826 C 0.77569 0.87381 0.29693 0.0
H1827 H 0.721 0.91383 0.33636 0.0
H1828 H 0.74326 0.85872 0.33081 0.0
C1829 C 0.78717 0.90109 0.28059 0.0
C1830 C 0.83226 0.1071 0.77856 0.0
C1831 C 0.85546 0.09996 0.80022 0.0
H1832 H 0.80203 0.1436 0.75964 0.0
C1833 C 0.86385 0.12415 0.82133 0.0
H1834 H 0.82512 0.08886 0.76206 0.0
C1835 C 0.85033 0.15542 0.8201 0.0
C1836 C 0.82837 0.16315 0.79758 0.0
H1837 H 0.88144 0.11926 0.8384 0.0
H1838 H 0.8581 0.17394 0.83618 0.0
C1839 C 0.81892 0.13843 0.7772 0.0
loop_
_geom_bond_atom_site_label_1
_geom_bond_atom_site_label_2
_geom_bond_distance
_geom_bond_site_symmetry_2
_ccdc_geom_bond_type
O0 Cd1 2.223 . S
O0 C8 1.315 . S
Cd1 O0 2.223 . S
Cd1 O4 2.297 . S
Cd1 O5 2.439 . S
Cd1 O11 2.240 . S
Cd2 O3 2.240 . S
Cd2 O10 2.223 . S
Cd2 O12 2.297 . S
Cd2 O13 2.439 . S
O3 Cd2 2.240 . S
O3 C8 1.279 . S
O4 Cd1 2.297 . S
O4 C6 1.247 . S
O5 Cd1 2.439 . S
O5 C6 1.208 . S
C6 O4 1.247 . S
C6 O5 1.208 . S
C7 O12 1.247 . S
C7 O13 1.208 . S
C8 O0 1.315 . S
C8 O3 1.279 . S
C9 O10 1.315 . S
C9 O11 1.279 . S
O10 Cd2 2.223 . S
O10 C9 1.315 . S
O11 Cd1 2.240 . S
O11 C9 1.279 . S
O12 Cd2 2.297 . S
O12 C7 1.247 . S
O13 Cd2 2.439 . S
O13 C7 1.208 . S
O14 Cd15 2.223 . S
O14 C22 1.315 . S
Cd15 O14 2.223 . S
Cd15 O18 2.297 . S
Cd15 O19 2.439 . S
Cd15 O25 2.240 . S
Cd16 O17 2.240 . S
Cd16 O24 2.223 . S
Cd16 O26 2.297 1_455 S
Cd16 O27 2.439 1_455 S
O17 Cd16 2.240 . S
O17 C22 1.279 . S
O18 Cd15 2.297 . S
O18 C20 1.247 . S
O19 Cd15 2.439 . S
O19 C20 1.208 . S
C20 O18 1.247 . S
C20 O19 1.208 . S
C21 O26 1.247 . S
C21 O27 1.208 . S
C22 O14 1.315 . S
C22 O17 1.279 . S
C23 O24 1.315 . S
C23 O25 1.279 . S
O24 Cd16 2.223 . S
O24 C23 1.315 . S
O25 Cd15 2.240 . S
O25 C23 1.279 . S
O26 Cd16 2.297 1_655 S
O26 C21 1.247 . S
O27 Cd16 2.439 1_655 S
O27 C21 1.208 . S
O28 Cd29 2.223 . S
O28 C36 1.315 . S
Cd29 O28 2.223 . S
Cd29 O32 2.297 . S
Cd29 O33 2.439 . S
Cd29 O39 2.240 . S
Cd30 O31 2.240 . S
Cd30 O38 2.223 . S
Cd30 O40 2.297 . S
Cd30 O41 2.439 . S
O31 Cd30 2.240 . S
O31 C36 1.279 . S
O32 Cd29 2.297 . S
O32 C34 1.247 . S
O33 Cd29 2.439 . S
O33 C34 1.208 . S
C34 O32 1.247 . S
C34 O33 1.208 . S
C35 O40 1.247 . S
C35 O41 1.208 . S
C36 O28 1.315 . S
C36 O31 1.279 . S
C37 O38 1.315 . S
C37 O39 1.279 . S
O38 Cd30 2.223 . S
O38 C37 1.315 . S
O39 Cd29 2.240 . S
O39 C37 1.279 . S
O40 Cd30 2.297 . S
O40 C35 1.247 . S
O41 Cd30 2.439 . S
O41 C35 1.208 . S
O42 Cd43 2.223 . S
O42 C50 1.315 . S
Cd43 O42 2.223 . S
Cd43 O46 2.297 . S
Cd43 O47 2.439 . S
Cd43 O53 2.240 . S
Cd44 O45 2.240 . S
Cd44 O52 2.223 . S
Cd44 O54 2.297 . S
Cd44 O55 2.439 . S
O45 Cd44 2.240 . S
O45 C50 1.279 . S
O46 Cd43 2.297 . S
O46 C48 1.247 . S
O47 Cd43 2.439 . S
O47 C48 1.208 . S
C48 O46 1.247 . S
C48 O47 1.208 . S
C49 O54 1.247 . S
C49 O55 1.208 . S
C50 O42 1.315 . S
C50 O45 1.279 . S
C51 O52 1.315 . S
C51 O53 1.279 . S
O52 Cd44 2.223 . S
O52 C51 1.315 . S
O53 Cd43 2.240 . S
O53 C51 1.279 . S
O54 Cd44 2.297 . S
O54 C49 1.247 . S
O55 Cd44 2.439 . S
O55 C49 1.208 . S
O56 Cd57 2.223 . S
O56 C64 1.315 . S
Cd57 O56 2.223 . S
Cd57 O60 2.297 1_545 S
Cd57 O61 2.439 1_545 S
Cd57 O67 2.240 . S
Cd58 O59 2.240 . S
Cd58 O66 2.223 . S
Cd58 O68 2.297 . S
Cd58 O69 2.439 . S
O59 Cd58 2.240 . S
O59 C64 1.279 . S
O60 Cd57 2.297 1_565 S
O60 C62 1.247 . S
O61 Cd57 2.439 1_565 S
O61 C62 1.208 . S
C62 O60 1.247 . S
C62 O61 1.208 . S
C63 O68 1.247 . S
C63 O69 1.208 . S
C64 O56 1.315 . S
C64 O59 1.279 . S
C65 O66 1.315 . S
C65 O67 1.279 . S
O66 Cd58 2.223 . S
O66 C65 1.315 . S
O67 Cd57 2.240 . S
O67 C65 1.279 . S
O68 Cd58 2.297 . S
O68 C63 1.247 . S
O69 Cd58 2.439 . S
O69 C63 1.208 . S
O70 Cd71 2.223 . S
O70 C78 1.315 . S
Cd71 O70 2.223 . S
Cd71 O74 2.297 . S
Cd71 O75 2.439 . S
Cd71 O81 2.240 . S
Cd72 O73 2.240 . S
Cd72 O80 2.223 . S
Cd72 O82 2.297 . S
Cd72 O83 2.439 . S
O73 Cd72 2.240 . S
O73 C78 1.279 . S
O74 Cd71 2.297 . S
O74 C76 1.247 . S
O75 Cd71 2.439 . S
O75 C76 1.208 . S
C76 O74 1.247 . S
C76 O75 1.208 . S
C77 O82 1.247 . S
C77 O83 1.208 . S
C78 O70 1.315 . S
C78 O73 1.279 . S
C79 O80 1.315 . S
C79 O81 1.279 . S
O80 Cd72 2.223 . S
O80 C79 1.315 . S
O81 Cd71 2.240 . S
O81 C79 1.279 . S
O82 Cd72 2.297 . S
O82 C77 1.247 . S
O83 Cd72 2.439 . S
O83 C77 1.208 . S
O84 Cd85 2.223 . S
O84 C92 1.315 . S
Cd85 O84 2.223 . S
Cd85 O88 2.297 . S
Cd85 O89 2.439 . S
Cd85 O95 2.240 1_545 S
Cd86 O87 2.240 . S
Cd86 O94 2.223 1_545 S
Cd86 O96 2.297 1_545 S
Cd86 O97 2.439 . S
O87 Cd86 2.240 . S
O87 C92 1.279 . S
O88 Cd85 2.297 . S
O88 C90 1.247 . S
O89 Cd85 2.439 . S
O89 C90 1.208 . S
C90 O88 1.247 . S
C90 O89 1.208 . S
C91 O96 1.247 1_545 S
C91 O97 1.208 . S
C92 O84 1.315 . S
C92 O87 1.279 . S
C93 O94 1.315 . S
C93 O95 1.279 . S
O94 Cd86 2.223 1_565 S
O94 C93 1.315 . S
O95 Cd85 2.240 1_565 S
O95 C93 1.279 . S
O96 Cd86 2.297 1_565 S
O96 C91 1.247 1_565 S
O97 Cd86 2.439 . S
O97 C91 1.208 . S
O98 Cd99 2.223 . S
O98 C106 1.315 . S
Cd99 O98 2.223 . S
Cd99 O102 2.297 . S
Cd99 O103 2.439 . S
Cd99 O109 2.240 . S
Cd100 O101 2.240 . S
Cd100 O108 2.223 . S
Cd100 O110 2.297 1_554 S
Cd100 O111 2.439 1_554 S
O101 Cd100 2.240 . S
O101 C106 1.279 . S
O102 Cd99 2.297 . S
O102 C104 1.247 . S
O103 Cd99 2.439 . S
O103 C104 1.208 . S
C104 O102 1.247 . S
C104 O103 1.208 . S
C105 O110 1.247 . S
C105 O111 1.208 . S
C106 O98 1.315 . S
C106 O101 1.279 . S
C107 O108 1.315 . S
C107 O109 1.279 . S
O108 Cd100 2.223 . S
O108 C107 1.315 . S
O109 Cd99 2.240 . S
O109 C107 1.279 . S
O110 Cd100 2.297 1_556 S
O110 C105 1.247 . S
O111 Cd100 2.439 1_556 S
O111 C105 1.208 . S
O112 Cd113 2.223 . S
O112 C120 1.315 . S
Cd113 O112 2.223 . S
Cd113 O116 2.297 . S
Cd113 O117 2.439 . S
Cd113 O123 2.240 . S
Cd114 O115 2.240 . S
Cd114 O122 2.223 . S
Cd114 O124 2.297 . S
Cd114 O125 2.439 . S
O115 Cd114 2.240 . S
O115 C120 1.279 . S
O116 Cd113 2.297 . S
O116 C118 1.247 . S
O117 Cd113 2.439 . S
O117 C118 1.208 . S
C118 O116 1.247 . S
C118 O117 1.208 . S
C119 O124 1.247 . S
C119 O125 1.208 . S
C120 O112 1.315 . S
C120 O115 1.279 . S
C121 O122 1.315 . S
C121 O123 1.279 . S
O122 Cd114 2.223 . S
O122 C121 1.315 . S
O123 Cd113 2.240 . S
O123 C121 1.279 . S
O124 Cd114 2.297 . S
O124 C119 1.247 . S
O125 Cd114 2.439 . S
O125 C119 1.208 . S
O126 Cd127 2.223 . S
O126 C134 1.315 . S
Cd127 O126 2.223 . S
Cd127 O130 2.297 . S
Cd127 O131 2.439 . S
Cd127 O137 2.240 . S
Cd128 O129 2.240 . S
Cd128 O136 2.223 . S
Cd128 O138 2.297 . S
Cd128 O139 2.439 . S
O129 Cd128 2.240 . S
O129 C134 1.279 . S
O130 Cd127 2.297 . S
O130 C132 1.247 . S
O131 Cd127 2.439 . S
O131 C132 1.208 . S
C132 O130 1.247 . S
C132 O131 1.208 . S
C133 O138 1.247 . S
C133 O139 1.208 . S
C134 O126 1.315 . S
C134 O129 1.279 . S
C135 O136 1.315 . S
C135 O137 1.279 . S
O136 Cd128 2.223 . S
O136 C135 1.315 . S
O137 Cd127 2.240 . S
O137 C135 1.279 . S
O138 Cd128 2.297 . S
O138 C133 1.247 . S
O139 Cd128 2.439 . S
O139 C133 1.208 . S
O140 Cd141 2.223 . S
O140 C148 1.315 . S
Cd141 O140 2.223 . S
Cd141 O144 2.297 . S
Cd141 O145 2.439 . S
Cd141 O151 2.240 . S
Cd142 O143 2.240 . S
Cd142 O150 2.223 . S
Cd142 O152 2.297 . S
Cd142 O153 2.439 . S
O143 Cd142 2.240 . S
O143 C148 1.279 . S
O144 Cd141 2.297 . S
O144 C146 1.247 . S
O145 Cd141 2.439 . S
O145 C146 1.208 . S
C146 O144 1.247 . S
C146 O145 1.208 . S
C147 O152 1.247 . S
C147 O153 1.208 . S
C148 O140 1.315 . S
C148 O143 1.279 . S
C149 O150 1.315 . S
C149 O151 1.279 . S
O150 Cd142 2.223 . S
O150 C149 1.315 . S
O151 Cd141 2.240 . S
O151 C149 1.279 . S
O152 Cd142 2.297 . S
O152 C147 1.247 . S
O153 Cd142 2.439 . S
O153 C147 1.208 . S
O154 Cd155 2.223 . S
O154 C162 1.315 . S
Cd155 O154 2.223 . S
Cd155 O158 2.297 . S
Cd155 O159 2.439 . S
Cd155 O165 2.240 . S
Cd156 O157 2.240 . S
Cd156 O164 2.223 . S
Cd156 O166 2.297 . S
Cd156 O167 2.439 . S
O157 Cd156 2.240 . S
O157 C162 1.279 . S
O158 Cd155 2.297 . S
O158 C160 1.247 . S
O159 Cd155 2.439 . S
O159 C160 1.208 . S
C160 O158 1.247 . S
C160 O159 1.208 . S
C161 O166 1.247 . S
C161 O167 1.208 . S
C162 O154 1.315 . S
C162 O157 1.279 . S
C163 O164 1.315 . S
C163 O165 1.279 . S
O164 Cd156 2.223 . S
O164 C163 1.315 . S
O165 Cd155 2.240 . S
O165 C163 1.279 . S
O166 Cd156 2.297 . S
O166 C161 1.247 . S
O167 Cd156 2.439 . S
O167 C161 1.208 . S
O168 Cd169 2.223 . S
O168 C176 1.315 . S
Cd169 O168 2.223 . S
Cd169 O172 2.297 . S
Cd169 O173 2.439 1_455 S
Cd169 O179 2.240 1_455 S
Cd170 O171 2.240 1_655 S
Cd170 O178 2.223 1_655 S
Cd170 O180 2.297 . S
Cd170 O181 2.439 . S
O171 Cd170 2.240 1_455 S
O171 C176 1.279 . S
O172 Cd169 2.297 . S
O172 C174 1.247 . S
O173 Cd169 2.439 1_655 S
O173 C174 1.208 1_655 S
C174 O172 1.247 . S
C174 O173 1.208 1_455 S
C175 O180 1.247 . S
C175 O181 1.208 . S
C176 O168 1.315 . S
C176 O171 1.279 . S
C177 O178 1.315 . S
C177 O179 1.279 1_455 S
O178 Cd170 2.223 1_455 S
O178 C177 1.315 . S
O179 Cd169 2.240 1_655 S
O179 C177 1.279 1_655 S
O180 Cd170 2.297 . S
O180 C175 1.247 . S
O181 Cd170 2.439 . S
O181 C175 1.208 . S
O182 Cd183 2.223 . S
O182 C190 1.315 . S
Cd183 O182 2.223 . S
Cd183 O186 2.297 1_455 S
Cd183 O187 2.439 1_455 S
Cd183 O193 2.240 . S
Cd184 O185 2.240 . S
Cd184 O192 2.223 . S
Cd184 O194 2.297 . S
Cd184 O195 2.439 . S
O185 Cd184 2.240 . S
O185 C190 1.279 . S
O186 Cd183 2.297 1_655 S
O186 C188 1.247 . S
O187 Cd183 2.439 1_655 S
O187 C188 1.208 . S
C188 O186 1.247 . S
C188 O187 1.208 . S
C189 O194 1.247 . S
C189 O195 1.208 . S
C190 O182 1.315 . S
C190 O185 1.279 . S
C191 O192 1.315 . S
C191 O193 1.279 . S
O192 Cd184 2.223 . S
O192 C191 1.315 . S
O193 Cd183 2.240 . S
O193 C191 1.279 . S
O194 Cd184 2.297 . S
O194 C189 1.247 . S
O195 Cd184 2.439 . S
O195 C189 1.208 . S
O196 Cd197 2.223 . S
O196 C204 1.315 . S
Cd197 O196 2.223 . S
Cd197 O200 2.297 . S
Cd197 O201 2.439 . S
Cd197 O207 2.240 . S
Cd198 O199 2.240 . S
Cd198 O206 2.223 . S
Cd198 O208 2.297 . S
Cd198 O209 2.439 . S
O199 Cd198 2.240 . S
O199 C204 1.279 . S
O200 Cd197 2.297 . S
O200 C202 1.247 . S
O201 Cd197 2.439 . S
O201 C202 1.208 . S
C202 O200 1.247 . S
C202 O201 1.208 . S
C203 O208 1.247 . S
C203 O209 1.208 . S
C204 O196 1.315 . S
C204 O199 1.279 . S
C205 O206 1.315 . S
C205 O207 1.279 . S
O206 Cd198 2.223 . S
O206 C205 1.315 . S
O207 Cd197 2.240 . S
O207 C205 1.279 . S
O208 Cd198 2.297 . S
O208 C203 1.247 . S
O209 Cd198 2.439 . S
O209 C203 1.208 . S
O210 Cd211 2.223 . S
O210 C218 1.315 . S
Cd211 O210 2.223 . S
Cd211 O214 2.297 . S
Cd211 O215 2.439 . S
Cd211 O221 2.240 . S
Cd212 O213 2.240 . S
Cd212 O220 2.223 . S
Cd212 O222 2.297 . S
Cd212 O223 2.439 . S
O213 Cd212 2.240 . S
O213 C218 1.279 . S
O214 Cd211 2.297 . S
O214 C216 1.247 . S
O215 Cd211 2.439 . S
O215 C216 1.208 . S
C216 O214 1.247 . S
C216 O215 1.208 . S
C217 O222 1.247 . S
C217 O223 1.208 . S
C218 O210 1.315 . S
C218 O213 1.279 . S
C219 O220 1.315 . S
C219 O221 1.279 . S
O220 Cd212 2.223 . S
O220 C219 1.315 . S
O221 Cd211 2.240 . S
O221 C219 1.279 . S
O222 Cd212 2.297 . S
O222 C217 1.247 . S
O223 Cd212 2.439 . S
O223 C217 1.208 . S
O224 Cd225 2.223 . S
O224 C232 1.315 . S
Cd225 O224 2.223 . S
Cd225 O228 2.297 . S
Cd225 O229 2.439 . S
Cd225 O235 2.240 1_545 S
Cd226 O227 2.240 1_565 S
Cd226 O234 2.223 . S
Cd226 O236 2.297 . S
Cd226 O237 2.439 1_565 S
O227 Cd226 2.240 1_545 S
O227 C232 1.279 . S
O228 Cd225 2.297 . S
O228 C230 1.247 . S
O229 Cd225 2.439 . S
O229 C230 1.208 . S
C230 O228 1.247 . S
C230 O229 1.208 . S
C231 O236 1.247 . S
C231 O237 1.208 1_565 S
C232 O224 1.315 . S
C232 O227 1.279 . S
C233 O234 1.315 . S
C233 O235 1.279 . S
O234 Cd226 2.223 . S
O234 C233 1.315 . S
O235 Cd225 2.240 1_565 S
O235 C233 1.279 . S
O236 Cd226 2.297 . S
O236 C231 1.247 . S
O237 Cd226 2.439 1_545 S
O237 C231 1.208 1_545 S
O238 Cd239 2.223 . S
O238 C246 1.315 . S
Cd239 O238 2.223 . S
Cd239 O242 2.297 . S
Cd239 O243 2.439 . S
Cd239 O249 2.240 . S
Cd240 O241 2.240 . S
Cd240 O248 2.223 . S
Cd240 O250 2.297 . S
Cd240 O251 2.439 . S
O241 Cd240 2.240 . S
O241 C246 1.279 . S
O242 Cd239 2.297 . S
O242 C244 1.247 . S
O243 Cd239 2.439 . S
O243 C244 1.208 . S
C244 O242 1.247 . S
C244 O243 1.208 . S
C245 O250 1.247 . S
C245 O251 1.208 . S
C246 O238 1.315 . S
C246 O241 1.279 . S
C247 O248 1.315 . S
C247 O249 1.279 . S
O248 Cd240 2.223 . S
O248 C247 1.315 . S
O249 Cd239 2.240 . S
O249 C247 1.279 . S
O250 Cd240 2.297 . S
O250 C245 1.247 . S
O251 Cd240 2.439 . S
O251 C245 1.208 . S
O252 Cd253 2.223 . S
O252 C260 1.315 . S
Cd253 O252 2.223 . S
Cd253 O256 2.297 1_545 S
Cd253 O257 2.439 1_545 S
Cd253 O263 2.240 . S
Cd254 O255 2.240 . S
Cd254 O262 2.223 . S
Cd254 O264 2.297 . S
Cd254 O265 2.439 . S
O255 Cd254 2.240 . S
O255 C260 1.279 . S
O256 Cd253 2.297 1_565 S
O256 C258 1.247 . S
O257 Cd253 2.439 1_565 S
O257 C258 1.208 . S
C258 O256 1.247 . S
C258 O257 1.208 . S
C259 O264 1.247 . S
C259 O265 1.208 . S
C260 O252 1.315 . S
C260 O255 1.279 . S
C261 O262 1.315 . S
C261 O263 1.279 . S
O262 Cd254 2.223 . S
O262 C261 1.315 . S
O263 Cd253 2.240 . S
O263 C261 1.279 . S
O264 Cd254 2.297 . S
O264 C259 1.247 . S
O265 Cd254 2.439 . S
O265 C259 1.208 . S
O266 Cd267 2.223 . S
O266 C274 1.315 . S
Cd267 O266 2.223 . S
Cd267 O270 2.297 . S
Cd267 O271 2.439 . S
Cd267 O277 2.240 . S
Cd268 O269 2.240 . S
Cd268 O276 2.223 . S
Cd268 O278 2.297 1_554 S
Cd268 O279 2.439 1_554 S
O269 Cd268 2.240 . S
O269 C274 1.279 . S
O270 Cd267 2.297 . S
O270 C272 1.247 . S
O271 Cd267 2.439 . S
O271 C272 1.208 . S
C272 O270 1.247 . S
C272 O271 1.208 . S
C273 O278 1.247 . S
C273 O279 1.208 . S
C274 O266 1.315 . S
C274 O269 1.279 . S
C275 O276 1.315 . S
C275 O277 1.279 . S
O276 Cd268 2.223 . S
O276 C275 1.315 . S
O277 Cd267 2.240 . S
O277 C275 1.279 . S
O278 Cd268 2.297 1_556 S
O278 C273 1.247 . S
O279 Cd268 2.439 1_556 S
O279 C273 1.208 . S
O280 Cd281 2.223 . S
O280 C288 1.315 . S
Cd281 O280 2.223 . S
Cd281 O284 2.297 . S
Cd281 O285 2.439 1_554 S
Cd281 O291 2.240 1_554 S
Cd282 O283 2.240 1_556 S
Cd282 O290 2.223 1_556 S
Cd282 O292 2.297 . S
Cd282 O293 2.439 . S
O283 Cd282 2.240 1_554 S
O283 C288 1.279 . S
O284 Cd281 2.297 . S
O284 C286 1.247 . S
O285 Cd281 2.439 1_556 S
O285 C286 1.208 1_556 S
C286 O284 1.247 . S
C286 O285 1.208 1_554 S
C287 O292 1.247 . S
C287 O293 1.208 . S
C288 O280 1.315 . S
C288 O283 1.279 . S
C289 O290 1.315 . S
C289 O291 1.279 1_554 S
O290 Cd282 2.223 1_554 S
O290 C289 1.315 . S
O291 Cd281 2.240 1_556 S
O291 C289 1.279 1_556 S
O292 Cd282 2.297 . S
O292 C287 1.247 . S
O293 Cd282 2.439 . S
O293 C287 1.208 . S
O294 Cd295 2.223 . S
O294 C302 1.315 . S
Cd295 O294 2.223 . S
Cd295 O298 2.297 . S
Cd295 O299 2.439 . S
Cd295 O305 2.240 . S
Cd296 O297 2.240 . S
Cd296 O304 2.223 . S
Cd296 O306 2.297 . S
Cd296 O307 2.439 . S
O297 Cd296 2.240 . S
O297 C302 1.279 . S
O298 Cd295 2.297 . S
O298 C300 1.247 . S
O299 Cd295 2.439 . S
O299 C300 1.208 . S
C300 O298 1.247 . S
C300 O299 1.208 . S
C301 O306 1.247 . S
C301 O307 1.208 . S
C302 O294 1.315 . S
C302 O297 1.279 . S
C303 O304 1.315 . S
C303 O305 1.279 . S
O304 Cd296 2.223 . S
O304 C303 1.315 . S
O305 Cd295 2.240 . S
O305 C303 1.279 . S
O306 Cd296 2.297 . S
O306 C301 1.247 . S
O307 Cd296 2.439 . S
O307 C301 1.208 . S
O308 Cd309 2.223 . S
O308 C316 1.315 . S
Cd309 O308 2.223 . S
Cd309 O312 2.297 . S
Cd309 O313 2.439 . S
Cd309 O319 2.240 . S
Cd310 O311 2.240 . S
Cd310 O318 2.223 . S
Cd310 O320 2.297 . S
Cd310 O321 2.439 . S
O311 Cd310 2.240 . S
O311 C316 1.279 . S
O312 Cd309 2.297 . S
O312 C314 1.247 . S
O313 Cd309 2.439 . S
O313 C314 1.208 . S
C314 O312 1.247 . S
C314 O313 1.208 . S
C315 O320 1.247 . S
C315 O321 1.208 . S
C316 O308 1.315 . S
C316 O311 1.279 . S
C317 O318 1.315 . S
C317 O319 1.279 . S
O318 Cd310 2.223 . S
O318 C317 1.315 . S
O319 Cd309 2.240 . S
O319 C317 1.279 . S
O320 Cd310 2.297 . S
O320 C315 1.247 . S
O321 Cd310 2.439 . S
O321 C315 1.208 . S
O322 Cd323 2.223 . S
O322 C330 1.315 . S
Cd323 O322 2.223 . S
Cd323 O326 2.297 . S
Cd323 O327 2.439 . S
Cd323 O333 2.240 . S
Cd324 O325 2.240 . S
Cd324 O332 2.223 . S
Cd324 O334 2.297 . S
Cd324 O335 2.439 . S
O325 Cd324 2.240 . S
O325 C330 1.279 . S
O326 Cd323 2.297 . S
O326 C328 1.247 . S
O327 Cd323 2.439 . S
O327 C328 1.208 . S
C328 O326 1.247 . S
C328 O327 1.208 . S
C329 O334 1.247 . S
C329 O335 1.208 . S
C330 O322 1.315 . S
C330 O325 1.279 . S
C331 O332 1.315 . S
C331 O333 1.279 . S
O332 Cd324 2.223 . S
O332 C331 1.315 . S
O333 Cd323 2.240 . S
O333 C331 1.279 . S
O334 Cd324 2.297 . S
O334 C329 1.247 . S
O335 Cd324 2.439 . S
O335 C329 1.208 . S
C336 O352 1.251 1_556 S
C336 O354 1.254 . S
N337 C338 1.350 . S
N337 C342 1.307 . S
N337 Zn343 2.020 1_655 S
C338 N337 1.350 . S
C338 C339 1.384 . S
C338 H356 0.930 1_565 S
C339 C338 1.384 . S
C339 C340 1.390 . S
C339 H366 0.949 1_565 S
C340 C339 1.390 . S
C340 C341 1.357 . S
C341 C340 1.357 . S
C341 C342 1.370 . S
C341 H367 0.950 . S
C342 N337 1.307 . S
C342 C341 1.370 . S
C342 H360 0.948 . S
Zn343 N337 2.020 1_455 S
Zn343 O352 2.039 1_565 S
Zn343 O358 2.034 1_565 S
Zn343 O362 2.025 . S
Zn343 O364 2.024 . S
C344 O363 1.246 . S
C344 O364 1.249 . S
N345 C346 1.307 . S
N345 C347 1.333 . S
N345 Zn351 2.020 . S
C346 N345 1.307 . S
C346 C350 1.370 1_554 S
C346 H357 0.948 1_554 S
C347 N345 1.333 . S
C347 C348 1.379 . S
C347 H355 0.952 1_545 S
C348 C347 1.379 . S
C348 C349 1.390 . S
C348 H368 0.949 . S
C349 C348 1.390 . S
C349 C350 1.357 1_554 S
C350 C346 1.370 1_556 S
C350 C349 1.357 1_556 S
C350 H369 0.950 . S
Zn351 N345 2.020 . S
Zn351 O354 2.025 1_554 S
Zn351 O359 2.024 . S
Zn351 O361 2.032 1_545 S
Zn351 O363 2.034 1_545 S
O352 C336 1.251 1_554 S
O352 Zn343 2.039 1_545 S
C353 O358 1.246 . S
C353 O359 1.249 . S
O354 C336 1.254 . S
O354 Zn351 2.025 1_556 S
H355 C347 0.952 1_565 S
H356 C338 0.930 1_545 S
H357 C346 0.948 1_556 S
O358 Zn343 2.034 1_545 S
O358 C353 1.246 . S
O359 Zn351 2.024 . S
O359 C353 1.249 . S
H360 C342 0.948 . S
O361 Zn351 2.032 1_565 S
O361 C365 1.258 . S
O362 Zn343 2.025 . S
O362 C365 1.254 . S
O363 C344 1.246 . S
O363 Zn351 2.034 1_565 S
O364 Zn343 2.024 . S
O364 C344 1.249 . S
C365 O361 1.258 . S
C365 O362 1.254 . S
H366 C339 0.949 1_545 S
H367 C341 0.950 . S
H368 C348 0.949 . S
H369 C350 0.950 . S
C370 O386 1.251 . S
C370 O388 1.254 . S
N371 C372 1.333 . S
N371 C376 1.307 . S
N371 Zn377 2.020 . S
C372 N371 1.333 . S
C372 C373 1.379 . S
C372 H390 0.952 . S
C373 C372 1.379 . S
C373 C374 1.390 . S
C373 H400 0.949 . S
C374 C373 1.390 . S
C374 C375 1.357 . S
C375 C374 1.357 . S
C375 C376 1.370 . S
C375 H401 0.950 . S
C376 N371 1.307 . S
C376 C375 1.370 . S
C376 H394 0.948 . S
Zn377 N371 2.020 . S
Zn377 O386 2.039 . S
Zn377 O392 2.034 . S
Zn377 O396 2.025 . S
Zn377 O398 2.024 . S
C378 O397 1.246 . S
C378 O398 1.249 . S
N379 C380 1.307 . S
N379 C381 1.333 . S
N379 Zn385 2.020 . S
C380 N379 1.307 . S
C380 C384 1.370 . S
C380 H391 0.948 . S
C381 N379 1.333 . S
C381 C382 1.379 . S
C381 H389 0.952 . S
C382 C381 1.379 . S
C382 C383 1.390 . S
C382 H402 0.949 . S
C383 C382 1.390 . S
C383 C384 1.357 . S
C384 C380 1.370 . S
C384 C383 1.357 . S
C384 H403 0.950 . S
Zn385 N379 2.020 . S
Zn385 O388 2.025 . S
Zn385 O393 2.024 . S
Zn385 O395 2.039 . S
Zn385 O397 2.034 . S
O386 C370 1.251 . S
O386 Zn377 2.039 . S
C387 O392 1.246 . S
C387 O393 1.249 . S
O388 C370 1.254 . S
O388 Zn385 2.025 . S
H389 C381 0.952 . S
H390 C372 0.952 . S
H391 C380 0.948 . S
O392 Zn377 2.034 . S
O392 C387 1.246 . S
O393 Zn385 2.024 . S
O393 C387 1.249 . S
H394 C376 0.948 . S
O395 Zn385 2.039 . S
O395 C399 1.251 . S
O396 Zn377 2.025 . S
O396 C399 1.254 . S
O397 C378 1.246 . S
O397 Zn385 2.034 . S
O398 Zn377 2.024 . S
O398 C378 1.249 . S
C399 O395 1.251 . S
C399 O396 1.254 . S
H400 C373 0.949 . S
H401 C375 0.950 . S
H402 C382 0.949 . S
H403 C384 0.950 . S
C404 O420 1.251 . S
C404 O422 1.254 . S
N405 C406 1.333 . S
N405 C410 1.307 . S
N405 Zn411 2.020 . S
C406 N405 1.333 . S
C406 C407 1.379 . S
C406 H424 0.952 . S
C407 C406 1.379 . S
C407 C408 1.390 . S
C407 H434 0.949 . S
C408 C407 1.390 . S
C408 C409 1.357 . S
C409 C408 1.357 . S
C409 C410 1.370 . S
C409 H435 0.950 . S
C410 N405 1.307 . S
C410 C409 1.370 . S
C410 H428 0.948 . S
Zn411 N405 2.020 . S
Zn411 O420 2.039 1_565 S
Zn411 O426 2.034 1_565 S
Zn411 O430 2.025 . S
Zn411 O432 2.024 . S
C412 O431 1.246 . S
C412 O432 1.249 1_545 S
N413 C414 1.307 . S
N413 C415 1.333 . S
N413 Zn419 2.020 . S
C414 N413 1.307 . S
C414 C418 1.370 . S
C414 H425 0.948 . S
C415 N413 1.333 . S
C415 C416 1.379 . S
C415 H423 0.952 . S
C416 C415 1.379 . S
C416 C417 1.390 . S
C416 H436 0.949 . S
C417 C416 1.390 . S
C417 C418 1.357 . S
C418 C414 1.370 . S
C418 C417 1.357 . S
C418 H437 0.950 . S
Zn419 N413 2.020 . S
Zn419 O422 2.025 . S
Zn419 O427 2.024 . S
Zn419 O429 2.039 . S
Zn419 O431 2.034 . S
O420 C404 1.251 . S
O420 Zn411 2.039 1_545 S
C421 O426 1.246 . S
C421 O427 1.249 . S
O422 C404 1.254 . S
O422 Zn419 2.025 . S
H423 C415 0.952 . S
H424 C406 0.952 . S
H425 C414 0.948 . S
O426 Zn411 2.034 1_545 S
O426 C421 1.246 . S
O427 Zn419 2.024 . S
O427 C421 1.249 . S
H428 C410 0.948 . S
O429 Zn419 2.039 . S
O429 C433 1.251 . S
O430 Zn411 2.025 . S
O430 C433 1.254 1_565 S
O431 C412 1.246 . S
O431 Zn419 2.034 . S
O432 Zn411 2.024 . S
O432 C412 1.249 1_565 S
C433 O429 1.251 . S
C433 O430 1.254 1_545 S
H434 C407 0.949 . S
H435 C409 0.950 . S
H436 C416 0.949 . S
H437 C418 0.950 . S
C438 O454 1.251 . S
C438 O456 1.254 . S
N439 C440 1.333 . S
N439 C444 1.307 . S
N439 Zn445 2.020 . S
C440 N439 1.333 . S
C440 C441 1.379 . S
C440 H458 0.952 . S
C441 C440 1.379 . S
C441 C442 1.390 . S
C441 H468 0.949 . S
C442 C441 1.390 . S
C442 C443 1.357 . S
C443 C442 1.357 . S
C443 C444 1.370 . S
C443 H469 0.950 . S
C444 N439 1.307 . S
C444 C443 1.370 . S
C444 H462 0.948 . S
Zn445 N439 2.020 . S
Zn445 O454 2.039 . S
Zn445 O460 2.034 . S
Zn445 O464 2.025 . S
Zn445 O466 2.024 . S
C446 O465 1.246 . S
C446 O466 1.249 . S
N447 C448 1.307 . S
N447 C449 1.333 . S
N447 Zn453 2.020 . S
C448 N447 1.307 . S
C448 C452 1.370 . S
C448 H459 0.948 . S
C449 N447 1.333 . S
C449 C450 1.379 . S
C449 H457 0.952 . S
C450 C449 1.379 . S
C450 C451 1.390 . S
C450 H470 0.949 . S
C451 C450 1.390 . S
C451 C452 1.357 . S
C452 C448 1.370 . S
C452 C451 1.357 . S
C452 H471 0.950 . S
Zn453 N447 2.020 . S
Zn453 O456 2.025 . S
Zn453 O461 2.024 . S
Zn453 O463 2.039 . S
Zn453 O465 2.034 . S
O454 C438 1.251 . S
O454 Zn445 2.039 . S
C455 O460 1.246 . S
C455 O461 1.249 . S
O456 C438 1.254 . S
O456 Zn453 2.025 . S
H457 C449 0.952 . S
H458 C440 0.952 . S
H459 C448 0.948 . S
O460 Zn445 2.034 . S
O460 C455 1.246 . S
O461 Zn453 2.024 . S
O461 C455 1.249 . S
H462 C444 0.948 . S
O463 Zn453 2.039 . S
O463 C467 1.251 . S
O464 Zn445 2.025 . S
O464 C467 1.254 . S
O465 C446 1.246 . S
O465 Zn453 2.034 . S
O466 Zn445 2.024 . S
O466 C446 1.249 . S
C467 O463 1.251 . S
C467 O464 1.254 . S
H468 C441 0.949 . S
H469 C443 0.950 . S
H470 C450 0.949 . S
H471 C452 0.950 . S
C472 O488 1.251 . S
C472 O490 1.254 . S
N473 C474 1.333 . S
N473 C478 1.307 . S
N473 Zn479 2.020 . S
C474 N473 1.333 . S
C474 C475 1.379 . S
C474 H492 0.952 . S
C475 C474 1.379 . S
C475 C476 1.390 . S
C475 H502 0.949 . S
C476 C475 1.390 . S
C476 C477 1.357 . S
C477 C476 1.357 . S
C477 C478 1.370 . S
C477 H503 0.950 . S
C478 N473 1.307 . S
C478 C477 1.370 . S
C478 H496 0.948 . S
Zn479 N473 2.020 . S
Zn479 O488 2.039 . S
Zn479 O494 2.034 . S
Zn479 O498 2.025 . S
Zn479 O500 2.024 1_545 S
C480 O499 1.246 . S
C480 O500 1.249 . S
N481 C482 1.307 . S
N481 C483 1.333 1_455 S
N481 Zn487 2.020 1_565 S
C482 N481 1.307 . S
C482 C486 1.370 . S
C482 H493 0.948 1_565 S
C483 N481 1.333 1_655 S
C483 C484 1.379 . S
C483 H491 0.952 . S
C484 C483 1.379 . S
C484 C485 1.390 . S
C484 H504 0.949 . S
C485 C484 1.390 . S
C485 C486 1.357 1_655 S
C486 C482 1.370 . S
C486 C485 1.357 1_455 S
C486 H505 0.950 . S
Zn487 N481 2.020 1_545 S
Zn487 O490 2.025 . S
Zn487 O495 2.024 . S
Zn487 O497 2.039 1_455 S
Zn487 O499 2.034 1_545 S
O488 C472 1.251 . S
O488 Zn479 2.039 . S
C489 O494 1.246 . S
C489 O495 1.249 . S
O490 C472 1.254 . S
O490 Zn487 2.025 . S
H491 C483 0.952 . S
H492 C474 0.952 . S
H493 C482 0.948 1_545 S
O494 Zn479 2.034 . S
O494 C489 1.246 . S
O495 Zn487 2.024 . S
O495 C489 1.249 . S
H496 C478 0.948 . S
O497 Zn487 2.039 1_655 S
O497 C501 1.251 . S
O498 Zn479 2.025 . S
O498 C501 1.254 1_455 S
O499 C480 1.246 . S
O499 Zn487 2.034 1_565 S
O500 Zn479 2.024 1_565 S
O500 C480 1.249 . S
C501 O497 1.251 . S
C501 O498 1.254 1_655 S
H502 C475 0.949 . S
H503 C477 0.950 . S
H504 C484 0.949 . S
H505 C486 0.950 . S
C506 O522 1.251 . S
C506 O524 1.254 . S
N507 C508 1.333 . S
N507 C512 1.307 . S
N507 Zn513 2.020 . S
C508 N507 1.333 . S
C508 C509 1.379 . S
C508 H526 0.952 . S
C509 C508 1.379 . S
C509 C510 1.390 . S
C509 H536 0.949 . S
C510 C509 1.390 . S
C510 C511 1.357 . S
C511 C510 1.357 . S
C511 C512 1.370 . S
C511 H537 0.950 . S
C512 N507 1.307 . S
C512 C511 1.370 . S
C512 H530 0.948 . S
Zn513 N507 2.020 . S
Zn513 O522 2.039 . S
Zn513 O528 2.034 . S
Zn513 O532 2.025 . S
Zn513 O534 2.024 . S
C514 O533 1.246 . S
C514 O534 1.249 . S
N515 C516 1.307 . S
N515 C517 1.333 . S
N515 Zn521 2.020 . S
C516 N515 1.307 . S
C516 C520 1.370 . S
C516 H527 0.948 . S
C517 N515 1.333 . S
C517 C518 1.379 . S
C517 H525 0.952 . S
C518 C517 1.379 . S
C518 C519 1.390 . S
C518 H538 0.949 . S
C519 C518 1.390 . S
C519 C520 1.357 . S
C520 C516 1.370 . S
C520 C519 1.357 . S
C520 H539 0.950 . S
Zn521 N515 2.020 . S
Zn521 O524 2.025 . S
Zn521 O529 2.024 . S
Zn521 O531 2.039 . S
Zn521 O533 2.034 . S
O522 C506 1.251 . S
O522 Zn513 2.039 . S
C523 O528 1.246 . S
C523 O529 1.249 . S
O524 C506 1.254 . S
O524 Zn521 2.025 . S
H525 C517 0.952 . S
H526 C508 0.952 . S
H527 C516 0.948 . S
O528 Zn513 2.034 . S
O528 C523 1.246 . S
O529 Zn521 2.024 . S
O529 C523 1.249 . S
H530 C512 0.948 . S
O531 Zn521 2.039 . S
O531 C535 1.251 . S
O532 Zn513 2.025 . S
O532 C535 1.254 . S
O533 C514 1.246 . S
O533 Zn521 2.034 . S
O534 Zn513 2.024 . S
O534 C514 1.249 . S
C535 O531 1.251 . S
C535 O532 1.254 . S
H536 C509 0.949 . S
H537 C511 0.950 . S
H538 C518 0.949 . S
H539 C520 0.950 . S
C540 O556 1.251 . S
C540 O558 1.254 . S
N541 C542 1.333 . S
N541 C546 1.307 . S
N541 Zn547 2.020 . S
C542 N541 1.333 . S
C542 C543 1.379 . S
C542 H560 0.952 . S
C543 C542 1.379 . S
C543 C544 1.390 . S
C543 H570 0.949 . S
C544 C543 1.390 . S
C544 C545 1.357 . S
C545 C544 1.357 . S
C545 C546 1.370 . S
C545 H571 0.950 . S
C546 N541 1.307 . S
C546 C545 1.370 . S
C546 H564 0.948 . S
Zn547 N541 2.020 . S
Zn547 O556 2.039 1_545 S
Zn547 O562 2.034 . S
Zn547 O566 2.025 . S
Zn547 O568 2.024 . S
C548 O567 1.246 . S
C548 O568 1.249 . S
N549 C550 1.307 1_545 S
N549 C551 1.333 . S
N549 Zn555 2.020 1_556 S
C550 N549 1.307 1_565 S
C550 C554 1.370 . S
C550 H561 0.948 . S
C551 N549 1.333 . S
C551 C552 1.379 . S
C551 H559 0.952 . S
C552 C551 1.379 . S
C552 C553 1.390 1_545 S
C552 H572 0.949 . S
C553 C552 1.390 1_565 S
C553 C554 1.357 . S
C554 C550 1.370 . S
C554 C553 1.357 . S
C554 H573 0.950 . S
Zn555 N549 2.020 1_554 S
Zn555 O558 2.025 1_545 S
Zn555 O563 2.024 . S
Zn555 O565 2.039 . S
Zn555 O567 2.034 . S
O556 C540 1.251 . S
O556 Zn547 2.039 1_565 S
C557 O562 1.246 . S
C557 O563 1.249 . S
O558 C540 1.254 . S
O558 Zn555 2.025 1_565 S
H559 C551 0.952 . S
H560 C542 0.952 . S
H561 C550 0.948 . S
O562 Zn547 2.034 . S
O562 C557 1.246 . S
O563 Zn555 2.024 . S
O563 C557 1.249 . S
H564 C546 0.948 . S
O565 Zn555 2.039 . S
O565 C569 1.251 . S
O566 Zn547 2.025 . S
O566 C569 1.254 . S
O567 C548 1.246 . S
O567 Zn555 2.034 . S
O568 Zn547 2.024 . S
O568 C548 1.249 . S
C569 O565 1.251 . S
C569 O566 1.254 . S
H570 C543 0.949 . S
H571 C545 0.950 . S
H572 C552 0.949 . S
H573 C554 0.950 . S
C574 O590 1.251 . S
C574 O592 1.254 . S
N575 C576 1.333 . S
N575 C580 1.307 . S
N575 Zn581 2.020 . S
C576 N575 1.333 . S
C576 C577 1.379 . S
C576 H594 0.952 . S
C577 C576 1.379 . S
C577 C578 1.390 . S
C577 H604 0.949 . S
C578 C577 1.390 . S
C578 C579 1.357 . S
C579 C578 1.357 . S
C579 C580 1.370 . S
C579 H605 0.950 . S
C580 N575 1.307 . S
C580 C579 1.370 . S
C580 H598 0.948 . S
Zn581 N575 2.020 . S
Zn581 O590 2.039 . S
Zn581 O596 2.034 . S
Zn581 O600 2.025 . S
Zn581 O602 2.024 . S
C582 O601 1.246 . S
C582 O602 1.249 . S
N583 C584 1.307 . S
N583 C585 1.333 . S
N583 Zn589 2.020 . S
C584 N583 1.307 . S
C584 C588 1.370 . S
C584 H595 0.948 . S
C585 N583 1.333 . S
C585 C586 1.379 . S
C585 H593 0.952 . S
C586 C585 1.379 . S
C586 C587 1.390 . S
C586 H606 0.949 . S
C587 C586 1.390 . S
C587 C588 1.357 . S
C588 C584 1.370 . S
C588 C587 1.357 . S
C588 H607 0.950 . S
Zn589 N583 2.020 . S
Zn589 O592 2.025 . S
Zn589 O597 2.024 . S
Zn589 O599 2.039 . S
Zn589 O601 2.034 . S
O590 C574 1.251 . S
O590 Zn581 2.039 . S
C591 O596 1.246 . S
C591 O597 1.249 . S
O592 C574 1.254 . S
O592 Zn589 2.025 . S
H593 C585 0.952 . S
H594 C576 0.952 . S
H595 C584 0.948 . S
O596 Zn581 2.034 . S
O596 C591 1.246 . S
O597 Zn589 2.024 . S
O597 C591 1.249 . S
H598 C580 0.948 . S
O599 Zn589 2.039 . S
O599 C603 1.251 . S
O600 Zn581 2.025 . S
O600 C603 1.254 . S
O601 C582 1.246 . S
O601 Zn589 2.034 . S
O602 Zn581 2.024 . S
O602 C582 1.249 . S
C603 O599 1.251 . S
C603 O600 1.254 . S
H604 C577 0.949 . S
H605 C579 0.950 . S
H606 C586 0.949 . S
H607 C588 0.950 . S
C608 O624 1.251 . S
C608 O626 1.254 . S
N609 C610 1.333 . S
N609 C614 1.307 . S
N609 Zn615 2.020 1_556 S
C610 N609 1.333 . S
C610 C611 1.379 . S
C610 H628 0.952 . S
C611 C610 1.379 . S
C611 C612 1.390 . S
C611 H638 0.949 . S
C612 C611 1.390 . S
C612 C613 1.357 . S
C613 C612 1.357 . S
C613 C614 1.370 . S
C613 H639 0.950 . S
C614 N609 1.307 . S
C614 C613 1.370 . S
C614 H632 0.948 . S
Zn615 N609 2.020 1_554 S
Zn615 O624 2.039 . S
Zn615 O630 2.034 . S
Zn615 O634 2.025 . S
Zn615 O636 2.024 . S
C616 O635 1.246 . S
C616 O636 1.249 . S
N617 C618 1.307 . S
N617 C619 1.333 . S
N617 Zn623 2.020 . S
C618 N617 1.307 . S
C618 C622 1.370 . S
C618 H629 0.948 . S
C619 N617 1.333 . S
C619 C620 1.379 . S
C619 H627 0.952 . S
C620 C619 1.379 . S
C620 C621 1.390 . S
C620 H640 0.949 . S
C621 C620 1.390 . S
C621 C622 1.357 . S
C622 C618 1.370 . S
C622 C621 1.357 . S
C622 H641 0.950 . S
Zn623 N617 2.020 . S
Zn623 O626 2.025 . S
Zn623 O631 2.024 . S
Zn623 O633 2.039 . S
Zn623 O635 2.034 . S
O624 C608 1.251 . S
O624 Zn615 2.039 . S
C625 O630 1.246 . S
C625 O631 1.249 . S
O626 C608 1.254 . S
O626 Zn623 2.025 . S
H627 C619 0.952 . S
H628 C610 0.952 . S
H629 C618 0.948 . S
O630 Zn615 2.034 . S
O630 C625 1.246 . S
O631 Zn623 2.024 . S
O631 C625 1.249 . S
H632 C614 0.948 . S
O633 Zn623 2.039 . S
O633 C637 1.251 . S
O634 Zn615 2.025 . S
O634 C637 1.254 . S
O635 C616 1.246 . S
O635 Zn623 2.034 . S
O636 Zn615 2.024 . S
O636 C616 1.249 . S
C637 O633 1.251 . S
C637 O634 1.254 . S
H638 C611 0.949 . S
H639 C613 0.950 . S
H640 C620 0.949 . S
H641 C622 0.950 . S
C642 O658 1.251 . S
C642 O660 1.254 . S
N643 C644 1.333 . S
N643 C648 1.307 . S
N643 Zn649 2.020 . S
C644 N643 1.333 . S
C644 C645 1.379 . S
C644 H662 0.952 . S
C645 C644 1.379 . S
C645 C646 1.390 . S
C645 H672 0.949 . S
C646 C645 1.390 . S
C646 C647 1.357 . S
C647 C646 1.357 . S
C647 C648 1.370 . S
C647 H673 0.950 . S
C648 N643 1.307 . S
C648 C647 1.370 . S
C648 H666 0.948 . S
Zn649 N643 2.020 . S
Zn649 O658 2.039 . S
Zn649 O664 2.034 . S
Zn649 O668 2.025 . S
Zn649 O670 2.024 . S
C650 O669 1.246 . S
C650 O670 1.249 . S
N651 C652 1.307 . S
N651 C653 1.333 . S
N651 Zn657 2.020 . S
C652 N651 1.307 . S
C652 C656 1.370 . S
C652 H663 0.948 . S
C653 N651 1.333 . S
C653 C654 1.379 . S
C653 H661 0.952 . S
C654 C653 1.379 . S
C654 C655 1.390 . S
C654 H674 0.949 . S
C655 C654 1.390 . S
C655 C656 1.357 . S
C656 C652 1.370 . S
C656 C655 1.357 . S
C656 H675 0.950 . S
Zn657 N651 2.020 . S
Zn657 O660 2.025 . S
Zn657 O665 2.024 . S
Zn657 O667 2.039 . S
Zn657 O669 2.034 . S
O658 C642 1.251 . S
O658 Zn649 2.039 . S
C659 O664 1.246 . S
C659 O665 1.249 . S
O660 C642 1.254 . S
O660 Zn657 2.025 . S
H661 C653 0.952 . S
H662 C644 0.952 . S
H663 C652 0.948 . S
O664 Zn649 2.034 . S
O664 C659 1.246 . S
O665 Zn657 2.024 . S
O665 C659 1.249 . S
H666 C648 0.948 . S
O667 Zn657 2.039 . S
O667 C671 1.251 . S
O668 Zn649 2.025 . S
O668 C671 1.254 . S
O669 C650 1.246 . S
O669 Zn657 2.034 . S
O670 Zn649 2.024 . S
O670 C650 1.249 . S
C671 O667 1.251 . S
C671 O668 1.254 . S
H672 C645 0.949 . S
H673 C647 0.950 . S
H674 C654 0.949 . S
H675 C656 0.950 . S
C676 O692 1.251 . S
C676 O694 1.254 . S
N677 C678 1.333 . S
N677 C682 1.307 . S
N677 Zn683 2.020 . S
C678 N677 1.333 . S
C678 C679 1.379 . S
C678 H696 0.952 . S
C679 C678 1.379 . S
C679 C680 1.390 . S
C679 H706 0.949 . S
C680 C679 1.390 . S
C680 C681 1.357 . S
C681 C680 1.357 . S
C681 C682 1.370 . S
C681 H707 0.950 . S
C682 N677 1.307 . S
C682 C681 1.370 . S
C682 H700 0.948 . S
Zn683 N677 2.020 . S
Zn683 O692 2.039 . S
Zn683 O698 2.034 . S
Zn683 O702 2.025 . S
Zn683 O704 2.024 . S
C684 O703 1.246 . S
C684 O704 1.249 . S
N685 C686 1.307 1_455 S
N685 C687 1.333 . S
N685 Zn691 2.020 . S
C686 N685 1.307 1_655 S
C686 C690 1.370 . S
C686 H697 0.948 . S
C687 N685 1.333 . S
C687 C688 1.379 . S
C687 H695 0.952 . S
C688 C687 1.379 . S
C688 C689 1.390 1_455 S
C688 H708 0.949 . S
C689 C688 1.390 1_655 S
C689 C690 1.357 . S
C690 C686 1.370 . S
C690 C689 1.357 . S
C690 H709 0.950 . S
Zn691 N685 2.020 . S
Zn691 O694 2.025 . S
Zn691 O699 2.024 1_455 S
Zn691 O701 2.039 . S
Zn691 O703 2.034 . S
O692 C676 1.251 . S
O692 Zn683 2.039 . S
C693 O698 1.246 1_655 S
C693 O699 1.249 . S
O694 C676 1.254 . S
O694 Zn691 2.025 . S
H695 C687 0.952 . S
H696 C678 0.952 . S
H697 C686 0.948 . S
O698 Zn683 2.034 . S
O698 C693 1.246 1_455 S
O699 Zn691 2.024 1_655 S
O699 C693 1.249 . S
H700 C682 0.948 . S
O701 Zn691 2.039 . S
O701 C705 1.251 . S
O702 Zn683 2.025 . S
O702 C705 1.254 . S
O703 C684 1.246 . S
O703 Zn691 2.034 . S
O704 Zn683 2.024 . S
O704 C684 1.249 . S
C705 O701 1.251 . S
C705 O702 1.254 . S
H706 C679 0.949 . S
H707 C681 0.950 . S
H708 C688 0.949 . S
H709 C690 0.950 . S
C710 O726 1.251 . S
C710 O728 1.254 . S
N711 C712 1.333 . S
N711 C716 1.307 . S
N711 Zn717 2.020 . S
C712 N711 1.333 . S
C712 C713 1.379 . S
C712 H730 0.952 . S
C713 C712 1.379 . S
C713 C714 1.390 . S
C713 H740 0.949 . S
C714 C713 1.390 . S
C714 C715 1.357 . S
C715 C714 1.357 . S
C715 C716 1.370 . S
C715 H741 0.950 . S
C716 N711 1.307 . S
C716 C715 1.370 . S
C716 H734 0.948 . S
Zn717 N711 2.020 . S
Zn717 O726 2.039 . S
Zn717 O732 2.034 . S
Zn717 O736 2.025 . S
Zn717 O738 2.024 . S
C718 O737 1.246 . S
C718 O738 1.249 . S
N719 C720 1.307 . S
N719 C721 1.333 . S
N719 Zn725 2.020 . S
C720 N719 1.307 . S
C720 C724 1.370 . S
C720 H731 0.948 . S
C721 N719 1.333 . S
C721 C722 1.379 . S
C721 H729 0.952 . S
C722 C721 1.379 . S
C722 C723 1.390 . S
C722 H742 0.949 . S
C723 C722 1.390 . S
C723 C724 1.357 . S
C724 C720 1.370 . S
C724 C723 1.357 . S
C724 H743 0.950 . S
Zn725 N719 2.020 . S
Zn725 O728 2.025 . S
Zn725 O733 2.024 . S
Zn725 O735 2.039 . S
Zn725 O737 2.034 . S
O726 C710 1.251 . S
O726 Zn717 2.039 . S
C727 O732 1.246 . S
C727 O733 1.249 . S
O728 C710 1.254 . S
O728 Zn725 2.025 . S
H729 C721 0.952 . S
H730 C712 0.952 . S
H731 C720 0.948 . S
O732 Zn717 2.034 . S
O732 C727 1.246 . S
O733 Zn725 2.024 . S
O733 C727 1.249 . S
H734 C716 0.948 . S
O735 Zn725 2.039 . S
O735 C739 1.251 . S
O736 Zn717 2.025 . S
O736 C739 1.254 . S
O737 C718 1.246 . S
O737 Zn725 2.034 . S
O738 Zn717 2.024 . S
O738 C718 1.249 . S
C739 O735 1.251 . S
C739 O736 1.254 . S
H740 C713 0.949 . S
H741 C715 0.950 . S
H742 C722 0.949 . S
H743 C724 0.950 . S
C744 O760 1.251 . S
C744 O762 1.254 . S
N745 C746 1.333 . S
N745 C750 1.307 . S
N745 Zn751 2.020 . S
C746 N745 1.333 . S
C746 C747 1.379 . S
C746 H764 0.952 . S
C747 C746 1.379 . S
C747 C748 1.390 . S
C747 H774 0.949 . S
C748 C747 1.390 . S
C748 C749 1.357 . S
C749 C748 1.357 . S
C749 C750 1.370 . S
C749 H775 0.950 . S
C750 N745 1.307 . S
C750 C749 1.370 . S
C750 H768 0.948 . S
Zn751 N745 2.020 . S
Zn751 O760 2.039 . S
Zn751 O766 2.034 . S
Zn751 O770 2.025 . S
Zn751 O772 2.024 . S
C752 O771 1.246 . S
C752 O772 1.249 . S
N753 C754 1.307 . S
N753 C755 1.333 . S
N753 Zn759 2.020 . S
C754 N753 1.307 . S
C754 C758 1.370 . S
C754 H765 0.948 . S
C755 N753 1.333 . S
C755 C756 1.379 . S
C755 H763 0.952 . S
C756 C755 1.379 . S
C756 C757 1.390 . S
C756 H776 0.949 . S
C757 C756 1.390 . S
C757 C758 1.357 . S
C758 C754 1.370 . S
C758 C757 1.357 . S
C758 H777 0.950 . S
Zn759 N753 2.020 . S
Zn759 O762 2.025 . S
Zn759 O767 2.024 . S
Zn759 O769 2.039 . S
Zn759 O771 2.034 . S
O760 C744 1.251 . S
O760 Zn751 2.039 . S
C761 O766 1.246 . S
C761 O767 1.249 . S
O762 C744 1.254 . S
O762 Zn759 2.025 . S
H763 C755 0.952 . S
H764 C746 0.952 . S
H765 C754 0.948 . S
O766 Zn751 2.034 . S
O766 C761 1.246 . S
O767 Zn759 2.024 . S
O767 C761 1.249 . S
H768 C750 0.948 . S
O769 Zn759 2.039 . S
O769 C773 1.251 . S
O770 Zn751 2.025 . S
O770 C773 1.254 . S
O771 C752 1.246 . S
O771 Zn759 2.034 . S
O772 Zn751 2.024 . S
O772 C752 1.249 . S
C773 O769 1.251 . S
C773 O770 1.254 . S
H774 C747 0.949 . S
H775 C749 0.950 . S
H776 C756 0.949 . S
H777 C758 0.950 . S
C778 O794 1.251 . S
C778 O796 1.254 . S
N779 C780 1.333 . S
N779 C784 1.307 . S
N779 Zn785 2.020 . S
C780 N779 1.333 . S
C780 C781 1.379 . S
C780 H798 0.952 . S
C781 C780 1.379 . S
C781 C782 1.390 . S
C781 H808 0.949 . S
C782 C781 1.390 . S
C782 C783 1.357 . S
C783 C782 1.357 . S
C783 C784 1.370 . S
C783 H809 0.950 . S
C784 N779 1.307 . S
C784 C783 1.370 . S
C784 H802 0.948 . S
Zn785 N779 2.020 . S
Zn785 O794 2.039 . S
Zn785 O800 2.034 . S
Zn785 O804 2.025 . S
Zn785 O806 2.024 . S
C786 O805 1.246 . S
C786 O806 1.249 . S
N787 C788 1.307 . S
N787 C789 1.333 . S
N787 Zn793 2.020 . S
C788 N787 1.307 . S
C788 C792 1.370 . S
C788 H799 0.948 . S
C789 N787 1.333 . S
C789 C790 1.379 . S
C789 H797 0.952 . S
C790 C789 1.379 . S
C790 C791 1.390 . S
C790 H810 0.949 . S
C791 C790 1.390 . S
C791 C792 1.357 . S
C792 C788 1.370 . S
C792 C791 1.357 . S
C792 H811 0.950 . S
Zn793 N787 2.020 . S
Zn793 O796 2.025 . S
Zn793 O801 2.024 . S
Zn793 O803 2.039 . S
Zn793 O805 2.034 . S
O794 C778 1.251 . S
O794 Zn785 2.039 . S
C795 O800 1.246 . S
C795 O801 1.249 . S
O796 C778 1.254 . S
O796 Zn793 2.025 . S
H797 C789 0.952 . S
H798 C780 0.952 . S
H799 C788 0.948 . S
O800 Zn785 2.034 . S
O800 C795 1.246 . S
O801 Zn793 2.024 . S
O801 C795 1.249 . S
H802 C784 0.948 . S
O803 Zn793 2.039 . S
O803 C807 1.251 . S
O804 Zn785 2.025 . S
O804 C807 1.254 . S
O805 C786 1.246 . S
O805 Zn793 2.034 . S
O806 Zn785 2.024 . S
O806 C786 1.249 . S
C807 O803 1.251 . S
C807 O804 1.254 . S
H808 C781 0.949 . S
H809 C783 0.950 . S
H810 C790 0.949 . S
H811 C792 0.950 . S
C812 O828 1.251 . S
C812 O830 1.254 . S
N813 C814 1.333 . S
N813 C818 1.307 . S
N813 Zn819 2.020 . S
C814 N813 1.333 . S
C814 C815 1.379 . S
C814 H832 0.952 . S
C815 C814 1.379 . S
C815 C816 1.390 . S
C815 H842 0.949 . S
C816 C815 1.390 . S
C816 C817 1.357 . S
C817 C816 1.357 . S
C817 C818 1.370 . S
C817 H843 0.950 . S
C818 N813 1.307 . S
C818 C817 1.370 . S
C818 H836 0.948 . S
Zn819 N813 2.020 . S
Zn819 O828 2.039 . S
Zn819 O834 2.034 . S
Zn819 O838 2.025 . S
Zn819 O840 2.024 . S
C820 O839 1.246 . S
C820 O840 1.249 . S
N821 C822 1.307 . S
N821 C823 1.333 . S
N821 Zn827 2.020 . S
C822 N821 1.307 . S
C822 C826 1.370 . S
C822 H833 0.948 . S
C823 N821 1.333 . S
C823 C824 1.379 . S
C823 H831 0.952 . S
C824 C823 1.379 . S
C824 C825 1.390 . S
C824 H844 0.949 . S
C825 C824 1.390 . S
C825 C826 1.357 . S
C826 C822 1.370 . S
C826 C825 1.357 . S
C826 H845 0.950 . S
Zn827 N821 2.020 . S
Zn827 O830 2.025 . S
Zn827 O835 2.024 . S
Zn827 O837 2.039 . S
Zn827 O839 2.034 . S
O828 C812 1.251 . S
O828 Zn819 2.039 . S
C829 O834 1.246 . S
C829 O835 1.249 . S
O830 C812 1.254 . S
O830 Zn827 2.025 . S
H831 C823 0.952 . S
H832 C814 0.952 . S
H833 C822 0.948 . S
O834 Zn819 2.034 . S
O834 C829 1.246 . S
O835 Zn827 2.024 . S
O835 C829 1.249 . S
H836 C818 0.948 . S
O837 Zn827 2.039 . S
O837 C841 1.251 . S
O838 Zn819 2.025 . S
O838 C841 1.254 . S
O839 C820 1.246 . S
O839 Zn827 2.034 . S
O840 Zn819 2.024 . S
O840 C820 1.249 . S
C841 O837 1.251 . S
C841 O838 1.254 . S
H842 C815 0.949 . S
H843 C817 0.950 . S
H844 C824 0.949 . S
H845 C826 0.950 . S
C846 O862 1.251 . S
C846 O864 1.254 . S
N847 C848 1.333 . S
N847 C852 1.307 . S
N847 Zn853 2.020 . S
C848 N847 1.333 . S
C848 C849 1.379 . S
C848 H866 0.952 . S
C849 C848 1.379 . S
C849 C850 1.390 . S
C849 H876 0.949 . S
C850 C849 1.390 . S
C850 C851 1.357 . S
C851 C850 1.357 . S
C851 C852 1.370 . S
C851 H877 0.950 . S
C852 N847 1.307 . S
C852 C851 1.370 . S
C852 H870 0.948 . S
Zn853 N847 2.020 . S
Zn853 O862 2.039 . S
Zn853 O868 2.034 . S
Zn853 O872 2.025 . S
Zn853 O874 2.024 . S
C854 O873 1.240 1_655 S
C854 O874 1.249 1_655 S
N855 C856 1.307 . S
N855 C857 1.333 1_554 S
N855 Zn861 2.020 . S
C856 N855 1.307 . S
C856 C860 1.370 . S
C856 H867 0.948 . S
C857 N855 1.333 1_556 S
C857 C858 1.379 . S
C857 H865 0.952 . S
C858 C857 1.379 . S
C858 C859 1.390 . S
C858 H878 0.949 . S
C859 C858 1.390 . S
C859 C860 1.357 1_556 S
C860 C856 1.370 . S
C860 C859 1.357 1_554 S
C860 H879 0.950 . S
Zn861 N855 2.020 . S
Zn861 O864 2.025 . S
Zn861 O869 2.024 . S
Zn861 O871 2.039 1_554 S
Zn861 O873 2.060 . S
O862 C846 1.251 . S
O862 Zn853 2.039 . S
C863 O868 1.246 . S
C863 O869 1.249 . S
O864 C846 1.254 . S
O864 Zn861 2.025 . S
H865 C857 0.952 . S
H866 C848 0.952 . S
H867 C856 0.948 . S
O868 Zn853 2.034 . S
O868 C863 1.246 . S
O869 Zn861 2.024 . S
O869 C863 1.249 . S
H870 C852 0.948 . S
O871 Zn861 2.039 1_556 S
O871 C875 1.251 . S
O872 Zn853 2.025 . S
O872 C875 1.254 1_554 S
O873 C854 1.240 1_455 S
O873 Zn861 2.060 . S
O874 Zn853 2.024 . S
O874 C854 1.249 1_455 S
C875 O871 1.251 . S
C875 O872 1.254 1_556 S
H876 C849 0.949 . S
H877 C851 0.950 . S
H878 C858 0.949 . S
H879 C860 0.950 . S
C880 C881 1.387 . S
C880 H884 0.950 . S
C880 C889 1.390 . S
C881 C880 1.387 . S
C881 C883 1.387 . S
H882 C889 0.950 . S
C883 C881 1.387 . S
C883 C885 1.390 . S
C883 H887 0.950 . S
H884 C880 0.950 . S
C885 C883 1.390 . S
C885 C886 1.387 . S
C885 H888 0.950 . S
C886 C885 1.387 . S
C886 C889 1.387 . S
H887 C883 0.950 . S
H888 C885 0.950 . S
C889 C880 1.390 . S
C889 H882 0.950 . S
C889 C886 1.387 . S
C890 C891 1.387 . S
C890 H894 0.950 . S
C890 C899 1.390 . S
C891 C890 1.387 . S
C891 C893 1.387 . S
H892 C899 0.950 . S
C893 C891 1.387 . S
C893 C895 1.390 . S
C893 H897 0.950 . S
H894 C890 0.950 . S
C895 C893 1.390 . S
C895 C896 1.387 . S
C895 H898 0.950 . S
C896 C895 1.387 . S
C896 C899 1.387 . S
H897 C893 0.950 . S
H898 C895 0.950 . S
C899 C890 1.390 . S
C899 H892 0.950 . S
C899 C896 1.387 . S
C900 C901 1.387 . S
C900 H904 0.950 . S
C900 C909 1.390 . S
C901 C900 1.387 . S
C901 C903 1.387 . S
H902 C909 0.950 . S
C903 C901 1.387 . S
C903 C905 1.390 . S
C903 H907 0.950 . S
H904 C900 0.950 . S
C905 C903 1.390 . S
C905 C906 1.387 . S
C905 H908 0.950 . S
C906 C905 1.387 . S
C906 C909 1.387 . S
H907 C903 0.950 . S
H908 C905 0.950 . S
C909 C900 1.390 . S
C909 H902 0.950 . S
C909 C906 1.387 . S
C910 C911 1.387 . S
C910 H914 0.950 . S
C910 C919 1.390 . S
C911 C910 1.387 . S
C911 C913 1.387 . S
H912 C919 0.950 . S
C913 C911 1.387 . S
C913 C915 1.390 . S
C913 H917 0.950 . S
H914 C910 0.950 . S
C915 C913 1.390 . S
C915 C916 1.387 . S
C915 H918 0.950 . S
C916 C915 1.387 . S
C916 C919 1.387 . S
H917 C913 0.950 . S
H918 C915 0.950 . S
C919 C910 1.390 . S
C919 H912 0.950 . S
C919 C916 1.387 . S
C920 C921 1.387 . S
C920 H924 0.950 . S
C920 C929 1.390 . S
C921 C920 1.387 . S
C921 C923 1.387 . S
H922 C929 0.956 . S
C923 C921 1.387 . S
C923 C925 1.390 . S
C923 H927 0.950 . S
H924 C920 0.950 . S
C925 C923 1.390 . S
C925 C926 1.387 . S
C925 H928 0.950 . S
C926 C925 1.387 . S
C926 C929 1.387 . S
H927 C923 0.950 . S
H928 C925 0.950 . S
C929 C920 1.390 . S
C929 H922 0.956 . S
C929 C926 1.387 . S
C930 C931 1.387 . S
C930 H934 0.950 . S
C930 C939 1.390 . S
C931 C930 1.387 . S
C931 C933 1.387 . S
H932 C939 0.950 . S
C933 C931 1.387 . S
C933 C935 1.390 . S
C933 H937 0.950 . S
H934 C930 0.950 . S
C935 C933 1.390 . S
C935 C936 1.387 . S
C935 H938 0.950 . S
C936 C935 1.387 . S
C936 C939 1.387 . S
H937 C933 0.950 . S
H938 C935 0.950 . S
C939 C930 1.390 . S
C939 H932 0.950 . S
C939 C936 1.387 . S
C940 C941 1.387 . S
C940 H944 0.950 . S
C940 C949 1.390 . S
C941 C940 1.387 . S
C941 C943 1.387 . S
H942 C949 0.950 . S
C943 C941 1.387 . S
C943 C945 1.390 . S
C943 H947 0.950 . S
H944 C940 0.950 . S
C945 C943 1.390 . S
C945 C946 1.387 . S
C945 H948 0.950 1_556 S
C946 C945 1.387 . S
C946 C949 1.387 . S
H947 C943 0.950 . S
H948 C945 0.950 1_554 S
C949 C940 1.390 . S
C949 H942 0.950 . S
C949 C946 1.387 . S
C950 C951 1.387 . S
C950 H954 0.950 . S
C950 C959 1.390 . S
C951 C950 1.387 . S
C951 C953 1.387 . S
H952 C959 0.950 . S
C953 C951 1.387 . S
C953 C955 1.390 . S
C953 H957 0.950 . S
H954 C950 0.950 . S
C955 C953 1.390 . S
C955 C956 1.387 . S
C955 H958 0.950 . S
C956 C955 1.387 . S
C956 C959 1.387 . S
H957 C953 0.950 . S
H958 C955 0.950 . S
C959 C950 1.390 . S
C959 H952 0.950 . S
C959 C956 1.387 . S
C960 C961 1.387 1_565 S
C960 H964 0.950 . S
C960 C969 1.390 . S
C961 C960 1.387 1_545 S
C961 C963 1.387 . S
H962 C969 0.950 . S
C963 C961 1.387 . S
C963 C965 1.390 . S
C963 H967 0.950 . S
H964 C960 0.950 . S
C965 C963 1.390 . S
C965 C966 1.387 1_545 S
C965 H968 0.950 . S
C966 C965 1.387 1_565 S
C966 C969 1.387 . S
H967 C963 0.950 . S
H968 C965 0.950 . S
C969 C960 1.390 . S
C969 H962 0.950 . S
C969 C966 1.387 . S
C970 C971 1.387 . S
C970 H974 0.950 . S
C970 C979 1.390 . S
C971 C970 1.387 . S
C971 C973 1.387 . S
H972 C979 0.950 . S
C973 C971 1.387 . S
C973 C975 1.390 . S
C973 H977 0.950 . S
H974 C970 0.950 . S
C975 C973 1.390 . S
C975 C976 1.387 . S
C975 H978 0.950 . S
C976 C975 1.387 . S
C976 C979 1.387 . S
H977 C973 0.950 . S
H978 C975 0.950 . S
C979 C970 1.390 . S
C979 H972 0.950 . S
C979 C976 1.387 . S
C980 C981 1.387 . S
C980 H984 0.950 . S
C980 C989 1.390 . S
C981 C980 1.387 . S
C981 C983 1.385 1_545 S
H982 C989 0.950 . S
C983 C981 1.385 1_565 S
C983 C985 1.389 1_565 S
C983 H987 0.953 . S
H984 C980 0.950 . S
C985 C983 1.389 1_545 S
C985 C986 1.387 . S
C985 H988 0.950 1_545 S
C986 C985 1.387 . S
C986 C989 1.387 . S
H987 C983 0.953 . S
H988 C985 0.950 1_565 S
C989 C980 1.390 . S
C989 H982 0.950 . S
C989 C986 1.387 . S
C990 C991 1.387 . S
C990 H994 0.950 . S
C990 C999 1.390 . S
C991 C990 1.387 . S
C991 C993 1.387 . S
H992 C999 0.950 . S
C993 C991 1.387 . S
C993 C995 1.390 . S
C993 H997 0.950 . S
H994 C990 0.950 . S
C995 C993 1.390 . S
C995 C996 1.387 . S
C995 H998 0.950 . S
C996 C995 1.387 . S
C996 C999 1.387 . S
H997 C993 0.950 . S
H998 C995 0.950 . S
C999 C990 1.390 . S
C999 H992 0.950 . S
C999 C996 1.387 . S
C1000 C1001 1.387 . S
C1000 H1004 0.950 1_545 S
C1000 C1009 1.390 . S
C1001 C1000 1.387 . S
C1001 C1003 1.387 . S
H1002 C1009 0.950 . S
C1003 C1001 1.387 . S
C1003 C1005 1.390 . S
C1003 H1007 0.950 . S
H1004 C1000 0.950 1_565 S
C1005 C1003 1.390 . S
C1005 C1006 1.387 . S
C1005 H1008 0.950 . S
C1006 C1005 1.387 . S
C1006 C1009 1.387 . S
H1007 C1003 0.950 . S
H1008 C1005 0.950 . S
C1009 C1000 1.390 . S
C1009 H1002 0.950 . S
C1009 C1006 1.387 . S
C1010 C1011 1.387 . S
C1010 H1014 0.950 . S
C1010 C1019 1.390 . S
C1011 C1010 1.387 . S
C1011 C1013 1.387 . S
H1012 C1019 0.950 . S
C1013 C1011 1.387 . S
C1013 C1015 1.390 . S
C1013 H1017 0.950 . S
H1014 C1010 0.950 . S
C1015 C1013 1.390 . S
C1015 C1016 1.387 . S
C1015 H1018 0.950 . S
C1016 C1015 1.387 . S
C1016 C1019 1.387 . S
H1017 C1013 0.950 . S
H1018 C1015 0.950 . S
C1019 C1010 1.390 . S
C1019 H1012 0.950 . S
C1019 C1016 1.387 . S
C1020 C1021 1.387 1_565 S
C1020 H1024 0.950 . S
C1020 C1029 1.390 . S
C1021 C1020 1.387 1_545 S
C1021 C1023 1.387 . S
H1022 C1029 0.950 . S
C1023 C1021 1.387 . S
C1023 C1025 1.390 . S
C1023 H1027 0.950 . S
H1024 C1020 0.950 . S
C1025 C1023 1.390 . S
C1025 C1026 1.387 1_545 S
C1025 H1028 0.950 . S
C1026 C1025 1.387 1_565 S
C1026 C1029 1.387 . S
H1027 C1023 0.950 . S
H1028 C1025 0.950 . S
C1029 C1020 1.390 . S
C1029 H1022 0.950 . S
C1029 C1026 1.387 . S
C1030 C1031 1.387 . S
C1030 H1034 0.950 . S
C1030 C1039 1.390 . S
C1031 C1030 1.387 . S
C1031 C1033 1.387 . S
H1032 C1039 0.950 . S
C1033 C1031 1.387 . S
C1033 C1035 1.390 . S
C1033 H1037 0.950 . S
H1034 C1030 0.950 . S
C1035 C1033 1.390 . S
C1035 C1036 1.387 . S
C1035 H1038 0.950 . S
C1036 C1035 1.387 . S
C1036 C1039 1.387 . S
H1037 C1033 0.950 . S
H1038 C1035 0.950 . S
C1039 C1030 1.390 . S
C1039 H1032 0.950 . S
C1039 C1036 1.387 . S
C1040 C1041 1.387 . S
C1040 H1044 0.950 . S
C1040 C1049 1.390 . S
C1041 C1040 1.387 . S
C1041 C1043 1.387 . S
H1042 C1049 0.950 . S
C1043 C1041 1.387 . S
C1043 C1045 1.384 1_554 S
C1043 H1047 0.950 . S
H1044 C1040 0.950 . S
C1045 C1043 1.384 1_556 S
C1045 C1046 1.379 1_556 S
C1045 H1048 0.965 . S
C1046 C1045 1.379 1_554 S
C1046 C1049 1.387 . S
H1047 C1043 0.950 . S
H1048 C1045 0.965 . S
C1049 C1040 1.390 . S
C1049 H1042 0.950 . S
C1049 C1046 1.387 . S
C1050 C1051 1.387 . S
C1050 H1054 0.950 . S
C1050 C1059 1.390 . S
C1051 C1050 1.387 . S
C1051 C1053 1.387 . S
H1052 C1059 0.950 . S
C1053 C1051 1.387 . S
C1053 C1055 1.390 . S
C1053 H1057 0.950 . S
H1054 C1050 0.950 . S
C1055 C1053 1.390 . S
C1055 C1056 1.387 . S
C1055 H1058 0.950 . S
C1056 C1055 1.387 . S
C1056 C1059 1.387 . S
H1057 C1053 0.950 . S
H1058 C1055 0.950 . S
C1059 C1050 1.390 . S
C1059 H1052 0.950 . S
C1059 C1056 1.387 . S
C1060 C1061 1.387 . S
C1060 H1064 0.950 . S
C1060 C1069 1.390 . S
C1061 C1060 1.387 . S
C1061 C1063 1.387 . S
H1062 C1069 0.950 . S
C1063 C1061 1.387 . S
C1063 C1065 1.390 . S
C1063 H1067 0.950 . S
H1064 C1060 0.950 . S
C1065 C1063 1.390 . S
C1065 C1066 1.387 . S
C1065 H1068 0.950 . S
C1066 C1065 1.387 . S
C1066 C1069 1.387 . S
H1067 C1063 0.950 . S
H1068 C1065 0.950 . S
C1069 C1060 1.390 . S
C1069 H1062 0.950 . S
C1069 C1066 1.387 . S
C1070 C1071 1.387 . S
C1070 H1074 0.950 . S
C1070 C1079 1.390 . S
C1071 C1070 1.387 . S
C1071 C1073 1.387 . S
H1072 C1079 0.950 . S
C1073 C1071 1.387 . S
C1073 C1075 1.390 . S
C1073 H1077 0.950 . S
H1074 C1070 0.950 . S
C1075 C1073 1.390 . S
C1075 C1076 1.387 . S
C1075 H1078 0.950 . S
C1076 C1075 1.387 . S
C1076 C1079 1.387 . S
H1077 C1073 0.950 . S
H1078 C1075 0.950 . S
C1079 C1070 1.390 . S
C1079 H1072 0.950 . S
C1079 C1076 1.387 . S
C1080 C1081 1.387 . S
C1080 H1084 0.950 . S
C1080 C1089 1.390 . S
C1081 C1080 1.387 . S
C1081 C1083 1.387 . S
H1082 C1089 0.950 . S
C1083 C1081 1.387 . S
C1083 C1085 1.390 . S
C1083 H1087 0.950 . S
H1084 C1080 0.950 . S
C1085 C1083 1.390 . S
C1085 C1086 1.387 . S
C1085 H1088 0.950 . S
C1086 C1085 1.387 . S
C1086 C1089 1.387 . S
H1087 C1083 0.950 . S
H1088 C1085 0.950 . S
C1089 C1080 1.390 . S
C1089 H1082 0.950 . S
C1089 C1086 1.387 . S
C1090 C1091 1.387 . S
C1090 H1094 0.950 . S
C1090 C1099 1.390 . S
C1091 C1090 1.387 . S
C1091 C1093 1.387 . S
H1092 C1099 0.950 . S
C1093 C1091 1.387 . S
C1093 C1095 1.390 . S
C1093 H1097 0.950 . S
H1094 C1090 0.950 . S
C1095 C1093 1.390 . S
C1095 C1096 1.387 . S
C1095 H1098 0.950 . S
C1096 C1095 1.387 . S
C1096 C1099 1.387 . S
H1097 C1093 0.950 . S
H1098 C1095 0.950 . S
C1099 C1090 1.390 . S
C1099 H1092 0.950 . S
C1099 C1096 1.387 . S
C1100 C1101 1.387 . S
C1100 H1104 0.950 . S
C1100 C1109 1.390 . S
C1101 C1100 1.387 . S
C1101 C1103 1.387 . S
H1102 C1109 0.950 . S
C1103 C1101 1.387 . S
C1103 C1105 1.390 . S
C1103 H1107 0.950 . S
H1104 C1100 0.950 . S
C1105 C1103 1.390 . S
C1105 C1106 1.387 . S
C1105 H1108 0.950 . S
C1106 C1105 1.387 . S
C1106 C1109 1.387 . S
H1107 C1103 0.950 . S
H1108 C1105 0.950 . S
C1109 C1100 1.390 . S
C1109 H1102 0.950 . S
C1109 C1106 1.387 . S
C1110 C1111 1.387 . S
C1110 H1114 0.950 . S
C1110 C1119 1.390 . S
C1111 C1110 1.387 . S
C1111 C1113 1.387 . S
H1112 C1119 0.950 . S
C1113 C1111 1.387 . S
C1113 C1115 1.390 . S
C1113 H1117 0.950 . S
H1114 C1110 0.950 . S
C1115 C1113 1.390 . S
C1115 C1116 1.387 . S
C1115 H1118 0.950 . S
C1116 C1115 1.387 . S
C1116 C1119 1.387 . S
H1117 C1113 0.950 . S
H1118 C1115 0.950 . S
C1119 C1110 1.390 . S
C1119 H1112 0.950 . S
C1119 C1116 1.387 . S
C1120 C1121 1.387 . S
C1120 H1124 0.950 . S
C1120 C1129 1.390 . S
C1121 C1120 1.387 . S
C1121 C1123 1.387 . S
H1122 C1129 0.950 . S
C1123 C1121 1.387 . S
C1123 C1125 1.390 . S
C1123 H1127 0.950 . S
H1124 C1120 0.950 . S
C1125 C1123 1.390 . S
C1125 C1126 1.387 . S
C1125 H1128 0.950 . S
C1126 C1125 1.387 . S
C1126 C1129 1.387 . S
H1127 C1123 0.950 . S
H1128 C1125 0.950 . S
C1129 C1120 1.390 . S
C1129 H1122 0.950 . S
C1129 C1126 1.387 . S
C1130 C1131 1.387 . S
C1130 H1134 0.950 . S
C1130 C1139 1.390 . S
C1131 C1130 1.387 . S
C1131 C1133 1.387 . S
H1132 C1139 0.950 . S
C1133 C1131 1.387 . S
C1133 C1135 1.390 . S
C1133 H1137 0.950 . S
H1134 C1130 0.950 . S
C1135 C1133 1.390 . S
C1135 C1136 1.387 . S
C1135 H1138 0.950 . S
C1136 C1135 1.387 . S
C1136 C1139 1.387 . S
H1137 C1133 0.950 . S
H1138 C1135 0.950 . S
C1139 C1130 1.390 . S
C1139 H1132 0.950 . S
C1139 C1136 1.387 . S
C1140 C1141 1.387 . S
C1140 H1144 0.950 . S
C1140 C1149 1.390 . S
C1141 C1140 1.387 . S
C1141 C1143 1.387 . S
H1142 C1149 0.950 . S
C1143 C1141 1.387 . S
C1143 C1145 1.390 . S
C1143 H1147 0.950 . S
H1144 C1140 0.950 . S
C1145 C1143 1.390 . S
C1145 C1146 1.387 . S
C1145 H1148 0.950 . S
C1146 C1145 1.387 . S
C1146 C1149 1.387 . S
H1147 C1143 0.950 . S
H1148 C1145 0.950 . S
C1149 C1140 1.390 . S
C1149 H1142 0.950 . S
C1149 C1146 1.387 . S
C1150 C1151 1.387 . S
C1150 H1154 0.950 . S
C1150 C1159 1.390 . S
C1151 C1150 1.387 . S
C1151 C1153 1.387 . S
H1152 C1159 0.950 . S
C1153 C1151 1.387 . S
C1153 C1155 1.390 . S
C1153 H1157 0.950 . S
H1154 C1150 0.950 . S
C1155 C1153 1.390 . S
C1155 C1156 1.387 . S
C1155 H1158 0.950 . S
C1156 C1155 1.387 . S
C1156 C1159 1.387 . S
H1157 C1153 0.950 . S
H1158 C1155 0.950 . S
C1159 C1150 1.390 . S
C1159 H1152 0.950 . S
C1159 C1156 1.387 . S
C1160 C1161 1.387 . S
C1160 H1164 0.950 . S
C1160 C1169 1.390 . S
C1161 C1160 1.387 . S
C1161 C1163 1.387 . S
H1162 C1169 0.950 . S
C1163 C1161 1.387 . S
C1163 C1165 1.390 . S
C1163 H1167 0.950 . S
H1164 C1160 0.950 . S
C1165 C1163 1.390 . S
C1165 C1166 1.387 . S
C1165 H1168 0.950 . S
C1166 C1165 1.387 . S
C1166 C1169 1.387 . S
H1167 C1163 0.950 . S
H1168 C1165 0.950 . S
C1169 C1160 1.390 . S
C1169 H1162 0.950 . S
C1169 C1166 1.387 . S
C1170 C1171 1.387 . S
C1170 H1174 0.950 . S
C1170 C1179 1.390 . S
C1171 C1170 1.387 . S
C1171 C1173 1.387 . S
H1172 C1179 0.950 . S
C1173 C1171 1.387 . S
C1173 C1175 1.390 . S
C1173 H1177 0.950 . S
H1174 C1170 0.950 . S
C1175 C1173 1.390 . S
C1175 C1176 1.387 . S
C1175 H1178 0.950 . S
C1176 C1175 1.387 . S
C1176 C1179 1.387 . S
H1177 C1173 0.950 . S
H1178 C1175 0.950 . S
C1179 C1170 1.390 . S
C1179 H1172 0.950 . S
C1179 C1176 1.387 . S
C1180 C1181 1.387 . S
C1180 H1184 0.950 . S
C1180 C1189 1.390 . S
C1181 C1180 1.387 . S
C1181 C1183 1.387 . S
H1182 C1189 0.950 . S
C1183 C1181 1.387 . S
C1183 C1185 1.390 . S
C1183 H1187 0.950 . S
H1184 C1180 0.950 . S
C1185 C1183 1.390 . S
C1185 C1186 1.387 . S
C1185 H1188 0.950 . S
C1186 C1185 1.387 . S
C1186 C1189 1.387 . S
H1187 C1183 0.950 . S
H1188 C1185 0.950 . S
C1189 C1180 1.390 . S
C1189 H1182 0.950 . S
C1189 C1186 1.387 . S
C1190 C1191 1.387 . S
C1190 H1194 0.950 . S
C1190 C1199 1.390 . S
C1191 C1190 1.387 . S
C1191 C1193 1.387 . S
H1192 C1199 0.950 . S
C1193 C1191 1.387 . S
C1193 C1195 1.390 . S
C1193 H1197 0.950 . S
H1194 C1190 0.950 . S
C1195 C1193 1.390 . S
C1195 C1196 1.387 . S
C1195 H1198 0.950 . S
C1196 C1195 1.387 . S
C1196 C1199 1.387 . S
H1197 C1193 0.950 . S
H1198 C1195 0.950 . S
C1199 C1190 1.390 . S
C1199 H1192 0.950 . S
C1199 C1196 1.387 . S
C1200 C1201 1.387 . S
C1200 H1204 0.950 . S
C1200 C1209 1.390 1_655 S
C1201 C1200 1.387 . S
C1201 C1203 1.387 1_545 S
H1202 C1209 0.950 . S
C1203 C1201 1.387 1_565 S
C1203 C1205 1.386 1_565 S
C1203 H1207 0.950 . S
H1204 C1200 0.950 . S
C1205 C1203 1.386 1_545 S
C1205 C1206 1.401 1_655 S
C1205 H1208 0.942 1_545 S
C1206 C1205 1.401 1_455 S
C1206 C1209 1.387 . S
H1207 C1203 0.950 . S
H1208 C1205 0.942 1_565 S
C1209 C1200 1.390 1_455 S
C1209 H1202 0.950 . S
C1209 C1206 1.387 . S
C1210 C1211 1.387 . S
C1210 H1214 0.950 . S
C1210 C1219 1.390 . S
C1211 C1210 1.387 . S
C1211 C1213 1.387 . S
H1212 C1219 0.950 . S
C1213 C1211 1.387 . S
C1213 C1215 1.390 . S
C1213 H1217 0.950 . S
H1214 C1210 0.950 . S
C1215 C1213 1.390 . S
C1215 C1216 1.387 . S
C1215 H1218 0.950 . S
C1216 C1215 1.387 . S
C1216 C1219 1.387 . S
H1217 C1213 0.950 . S
H1218 C1215 0.950 . S
C1219 C1210 1.390 . S
C1219 H1212 0.950 . S
C1219 C1216 1.387 . S
C1220 C1221 1.385 . S
C1220 H1224 0.951 1_545 S
C1220 C1229 1.391 1_545 S
C1221 C1220 1.385 . S
C1221 C1223 1.387 . S
H1222 C1229 0.950 . S
C1223 C1221 1.387 . S
C1223 C1225 1.390 . S
C1223 H1227 0.950 . S
H1224 C1220 0.951 1_565 S
C1225 C1223 1.390 . S
C1225 C1226 1.387 . S
C1225 H1228 0.950 . S
C1226 C1225 1.387 . S
C1226 C1229 1.387 1_545 S
H1227 C1223 0.950 . S
H1228 C1225 0.950 . S
C1229 C1220 1.391 1_565 S
C1229 H1222 0.950 . S
C1229 C1226 1.387 1_565 S
C1230 C1231 1.387 . S
C1230 H1234 0.950 . S
C1230 C1239 1.390 . S
C1231 C1230 1.387 . S
C1231 C1233 1.387 . S
H1232 C1239 0.950 . S
C1233 C1231 1.387 . S
C1233 C1235 1.390 . S
C1233 H1237 0.950 . S
H1234 C1230 0.950 . S
C1235 C1233 1.390 . S
C1235 C1236 1.387 . S
C1235 H1238 0.950 . S
C1236 C1235 1.387 . S
C1236 C1239 1.387 . S
H1237 C1233 0.950 . S
H1238 C1235 0.950 . S
C1239 C1230 1.390 . S
C1239 H1232 0.950 . S
C1239 C1236 1.387 . S
C1240 C1241 1.371 1_565 S
C1240 H1244 0.950 . S
C1240 C1249 1.390 . S
C1241 C1240 1.371 1_545 S
C1241 C1243 1.399 . S
H1242 C1249 0.950 . S
C1243 C1241 1.399 . S
C1243 C1245 1.390 . S
C1243 H1247 0.950 . S
H1244 C1240 0.950 . S
C1245 C1243 1.390 . S
C1245 C1246 1.387 1_545 S
C1245 H1248 0.950 . S
C1246 C1245 1.387 1_565 S
C1246 C1249 1.387 . S
H1247 C1243 0.950 . S
H1248 C1245 0.950 . S
C1249 C1240 1.390 . S
C1249 H1242 0.950 . S
C1249 C1246 1.387 . S
C1250 C1251 1.387 . S
C1250 H1254 0.950 . S
C1250 C1259 1.390 . S
C1251 C1250 1.387 . S
C1251 C1253 1.387 . S
H1252 C1259 0.950 . S
C1253 C1251 1.387 . S
C1253 C1255 1.390 . S
C1253 H1257 0.950 . S
H1254 C1250 0.950 . S
C1255 C1253 1.390 . S
C1255 C1256 1.387 . S
C1255 H1258 0.950 . S
C1256 C1255 1.387 . S
C1256 C1259 1.387 . S
H1257 C1253 0.950 . S
H1258 C1255 0.950 . S
C1259 C1250 1.390 . S
C1259 H1252 0.950 . S
C1259 C1256 1.387 . S
C1260 C1261 1.387 . S
C1260 H1264 0.950 1_545 S
C1260 C1269 1.390 . S
C1261 C1260 1.387 . S
C1261 C1263 1.387 . S
H1262 C1269 0.950 . S
C1263 C1261 1.387 . S
C1263 C1265 1.390 . S
C1263 H1267 0.950 . S
H1264 C1260 0.950 1_565 S
C1265 C1263 1.390 . S
C1265 C1266 1.387 . S
C1265 H1268 0.950 . S
C1266 C1265 1.387 . S
C1266 C1269 1.387 . S
H1267 C1263 0.950 . S
H1268 C1265 0.950 . S
C1269 C1260 1.390 . S
C1269 H1262 0.950 . S
C1269 C1266 1.387 . S
C1270 C1271 1.387 . S
C1270 H1274 0.950 . S
C1270 C1279 1.390 . S
C1271 C1270 1.387 . S
C1271 C1273 1.387 . S
H1272 C1279 0.950 . S
C1273 C1271 1.387 . S
C1273 C1275 1.390 . S
C1273 H1277 0.950 . S
H1274 C1270 0.950 . S
C1275 C1273 1.390 . S
C1275 C1276 1.387 . S
C1275 H1278 0.950 . S
C1276 C1275 1.387 . S
C1276 C1279 1.387 . S
H1277 C1273 0.950 . S
H1278 C1275 0.950 . S
C1279 C1270 1.390 . S
C1279 H1272 0.950 . S
C1279 C1276 1.387 . S
C1280 C1281 1.387 . S
C1280 H1284 0.950 . S
C1280 C1289 1.390 . S
C1281 C1280 1.387 . S
C1281 C1283 1.387 . S
H1282 C1289 0.950 . S
C1283 C1281 1.387 . S
C1283 C1285 1.390 . S
C1283 H1287 0.950 . S
H1284 C1280 0.950 . S
C1285 C1283 1.390 . S
C1285 C1286 1.387 . S
C1285 H1288 0.950 1_565 S
C1286 C1285 1.387 . S
C1286 C1289 1.387 . S
H1287 C1283 0.950 . S
H1288 C1285 0.950 1_545 S
C1289 C1280 1.390 . S
C1289 H1282 0.950 . S
C1289 C1286 1.387 . S
C1290 C1291 1.387 . S
C1290 H1294 0.950 . S
C1290 C1299 1.390 . S
C1291 C1290 1.387 . S
C1291 C1293 1.387 1_554 S
H1292 C1299 0.950 . S
C1293 C1291 1.387 1_556 S
C1293 C1295 1.390 . S
C1293 H1297 0.950 . S
H1294 C1290 0.950 . S
C1295 C1293 1.390 . S
C1295 C1296 1.387 1_556 S
C1295 H1298 0.950 . S
C1296 C1295 1.387 1_554 S
C1296 C1299 1.387 . S
H1297 C1293 0.950 . S
H1298 C1295 0.950 . S
C1299 C1290 1.390 . S
C1299 H1292 0.950 . S
C1299 C1296 1.387 . S
C1300 C1301 1.387 . S
C1300 H1304 0.950 . S
C1300 C1309 1.390 . S
C1301 C1300 1.387 . S
C1301 C1303 1.387 . S
H1302 C1309 0.950 . S
C1303 C1301 1.387 . S
C1303 C1305 1.390 . S
C1303 H1307 0.950 . S
H1304 C1300 0.950 . S
C1305 C1303 1.390 . S
C1305 C1306 1.387 . S
C1305 H1308 0.950 . S
C1306 C1305 1.387 . S
C1306 C1309 1.387 . S
H1307 C1303 0.950 . S
H1308 C1305 0.950 . S
C1309 C1300 1.390 . S
C1309 H1302 0.950 . S
C1309 C1306 1.387 . S
C1310 C1311 1.387 . S
C1310 H1314 0.950 . S
C1310 C1319 1.390 . S
C1311 C1310 1.387 . S
C1311 C1313 1.387 . S
H1312 C1319 0.950 . S
C1313 C1311 1.387 . S
C1313 C1315 1.390 . S
C1313 H1317 0.950 . S
H1314 C1310 0.950 . S
C1315 C1313 1.390 . S
C1315 C1316 1.387 . S
C1315 H1318 0.950 . S
C1316 C1315 1.387 . S
C1316 C1319 1.387 . S
H1317 C1313 0.950 . S
H1318 C1315 0.950 . S
C1319 C1310 1.390 . S
C1319 H1312 0.950 . S
C1319 C1316 1.387 . S
C1320 C1321 1.387 . S
C1320 H1324 0.950 . S
C1320 C1329 1.390 . S
C1321 C1320 1.387 . S
C1321 C1323 1.387 . S
H1322 C1329 0.950 . S
C1323 C1321 1.387 . S
C1323 C1325 1.390 . S
C1323 H1327 0.950 . S
H1324 C1320 0.950 . S
C1325 C1323 1.390 . S
C1325 C1326 1.387 . S
C1325 H1328 0.950 . S
C1326 C1325 1.387 . S
C1326 C1329 1.387 . S
H1327 C1323 0.950 . S
H1328 C1325 0.950 . S
C1329 C1320 1.390 . S
C1329 H1322 0.950 . S
C1329 C1326 1.387 . S
C1330 C1331 1.387 . S
C1330 H1334 0.950 . S
C1330 C1339 1.390 . S
C1331 C1330 1.387 . S
C1331 C1333 1.387 . S
H1332 C1339 0.950 . S
C1333 C1331 1.387 . S
C1333 C1335 1.390 . S
C1333 H1337 0.950 . S
H1334 C1330 0.950 . S
C1335 C1333 1.390 . S
C1335 C1336 1.387 . S
C1335 H1338 0.950 . S
C1336 C1335 1.387 . S
C1336 C1339 1.387 . S
H1337 C1333 0.950 . S
H1338 C1335 0.950 . S
C1339 C1330 1.390 . S
C1339 H1332 0.950 . S
C1339 C1336 1.387 . S
C1340 C1341 1.387 . S
C1340 H1344 0.950 . S
C1340 C1349 1.390 . S
C1341 C1340 1.387 . S
C1341 C1343 1.387 . S
H1342 C1349 0.950 . S
C1343 C1341 1.387 . S
C1343 C1345 1.390 . S
C1343 H1347 0.950 . S
H1344 C1340 0.950 . S
C1345 C1343 1.390 . S
C1345 C1346 1.387 . S
C1345 H1348 0.950 . S
C1346 C1345 1.387 . S
C1346 C1349 1.387 . S
H1347 C1343 0.950 . S
H1348 C1345 0.950 . S
C1349 C1340 1.390 . S
C1349 H1342 0.950 . S
C1349 C1346 1.387 . S
C1350 C1351 1.387 . S
C1350 H1354 0.950 . S
C1350 C1359 1.390 . S
C1351 C1350 1.387 . S
C1351 C1353 1.387 . S
H1352 C1359 0.950 . S
C1353 C1351 1.387 . S
C1353 C1355 1.390 . S
C1353 H1357 0.950 . S
H1354 C1350 0.950 . S
C1355 C1353 1.390 . S
C1355 C1356 1.387 . S
C1355 H1358 0.950 . S
C1356 C1355 1.387 . S
C1356 C1359 1.387 . S
H1357 C1353 0.950 . S
H1358 C1355 0.950 . S
C1359 C1350 1.390 . S
C1359 H1352 0.950 . S
C1359 C1356 1.387 . S
C1360 C1361 1.387 . S
C1360 H1364 0.950 . S
C1360 C1369 1.390 . S
C1361 C1360 1.387 . S
C1361 C1363 1.387 . S
H1362 C1369 0.950 . S
C1363 C1361 1.387 . S
C1363 C1365 1.390 . S
C1363 H1367 0.950 . S
H1364 C1360 0.950 . S
C1365 C1363 1.390 . S
C1365 C1366 1.387 . S
C1365 H1368 0.950 . S
C1366 C1365 1.387 . S
C1366 C1369 1.387 . S
H1367 C1363 0.950 . S
H1368 C1365 0.950 . S
C1369 C1360 1.390 . S
C1369 H1362 0.950 . S
C1369 C1366 1.387 . S
C1370 C1371 1.387 . S
C1370 H1374 0.950 . S
C1370 C1379 1.390 . S
C1371 C1370 1.387 . S
C1371 C1373 1.387 . S
H1372 C1379 0.950 . S
C1373 C1371 1.387 . S
C1373 C1375 1.390 . S
C1373 H1377 0.950 . S
H1374 C1370 0.950 . S
C1375 C1373 1.390 . S
C1375 C1376 1.387 . S
C1375 H1378 0.950 . S
C1376 C1375 1.387 . S
C1376 C1379 1.387 . S
H1377 C1373 0.950 . S
H1378 C1375 0.950 . S
C1379 C1370 1.390 . S
C1379 H1372 0.950 . S
C1379 C1376 1.387 . S
C1380 C1381 1.387 . S
C1380 H1384 0.950 . S
C1380 C1389 1.390 . S
C1381 C1380 1.387 . S
C1381 C1383 1.387 . S
H1382 C1389 0.950 . S
C1383 C1381 1.387 . S
C1383 C1385 1.390 . S
C1383 H1387 0.950 . S
H1384 C1380 0.950 . S
C1385 C1383 1.390 . S
C1385 C1386 1.387 . S
C1385 H1388 0.950 . S
C1386 C1385 1.387 . S
C1386 C1389 1.387 . S
H1387 C1383 0.950 . S
H1388 C1385 0.950 . S
C1389 C1380 1.390 . S
C1389 H1382 0.950 . S
C1389 C1386 1.387 . S
C1390 C1391 1.387 . S
C1390 H1394 0.950 . S
C1390 C1399 1.390 . S
C1391 C1390 1.387 . S
C1391 C1393 1.387 . S
H1392 C1399 0.950 . S
C1393 C1391 1.387 . S
C1393 C1395 1.390 . S
C1393 H1397 0.950 . S
H1394 C1390 0.950 . S
C1395 C1393 1.390 . S
C1395 C1396 1.387 . S
C1395 H1398 0.950 . S
C1396 C1395 1.387 . S
C1396 C1399 1.387 . S
H1397 C1393 0.950 . S
H1398 C1395 0.950 . S
C1399 C1390 1.390 . S
C1399 H1392 0.950 . S
C1399 C1396 1.387 . S
C1400 C1401 1.387 . S
C1400 H1404 0.950 . S
C1400 C1409 1.390 . S
C1401 C1400 1.387 . S
C1401 C1403 1.387 . S
H1402 C1409 0.950 1_554 S
C1403 C1401 1.387 . S
C1403 C1405 1.390 . S
C1403 H1407 0.950 . S
H1404 C1400 0.950 . S
C1405 C1403 1.390 . S
C1405 C1406 1.387 . S
C1405 H1408 0.950 . S
C1406 C1405 1.387 . S
C1406 C1409 1.387 . S
H1407 C1403 0.950 . S
H1408 C1405 0.950 . S
C1409 C1400 1.390 . S
C1409 H1402 0.950 1_556 S
C1409 C1406 1.387 . S
C1410 C1411 1.387 . S
C1410 H1414 0.950 . S
C1410 C1419 1.390 . S
C1411 C1410 1.387 . S
C1411 C1413 1.387 . S
H1412 C1419 0.950 . S
C1413 C1411 1.387 . S
C1413 C1415 1.390 . S
C1413 H1417 0.950 . S
H1414 C1410 0.950 . S
C1415 C1413 1.390 . S
C1415 C1416 1.387 . S
C1415 H1418 0.950 . S
C1416 C1415 1.387 . S
C1416 C1419 1.387 . S
H1417 C1413 0.950 . S
H1418 C1415 0.950 . S
C1419 C1410 1.390 . S
C1419 H1412 0.950 . S
C1419 C1416 1.387 . S
C1420 C1421 1.387 . S
C1420 H1424 0.950 . S
C1420 C1429 1.390 . S
C1421 C1420 1.387 . S
C1421 C1423 1.387 . S
H1422 C1429 0.950 . S
C1423 C1421 1.387 . S
C1423 C1425 1.390 . S
C1423 H1427 0.950 . S
H1424 C1420 0.950 . S
C1425 C1423 1.390 . S
C1425 C1426 1.387 . S
C1425 H1428 0.950 . S
C1426 C1425 1.387 . S
C1426 C1429 1.387 . S
H1427 C1423 0.950 . S
H1428 C1425 0.950 . S
C1429 C1420 1.390 . S
C1429 H1422 0.950 . S
C1429 C1426 1.387 . S
C1430 C1431 1.387 . S
C1430 H1434 0.950 . S
C1430 C1439 1.390 . S
C1431 C1430 1.387 . S
C1431 C1433 1.387 . S
H1432 C1439 0.950 . S
C1433 C1431 1.387 . S
C1433 C1435 1.390 . S
C1433 H1437 0.950 . S
H1434 C1430 0.950 . S
C1435 C1433 1.390 . S
C1435 C1436 1.387 . S
C1435 H1438 0.950 . S
C1436 C1435 1.387 . S
C1436 C1439 1.387 . S
H1437 C1433 0.950 . S
H1438 C1435 0.950 . S
C1439 C1430 1.390 . S
C1439 H1432 0.950 . S
C1439 C1436 1.387 . S
C1440 C1441 1.387 . S
C1440 H1444 0.950 . S
C1440 C1449 1.390 . S
C1441 C1440 1.387 . S
C1441 C1443 1.387 . S
H1442 C1449 0.950 . S
C1443 C1441 1.387 . S
C1443 C1445 1.390 . S
C1443 H1447 0.950 . S
H1444 C1440 0.950 . S
C1445 C1443 1.390 . S
C1445 C1446 1.387 . S
C1445 H1448 0.950 . S
C1446 C1445 1.387 . S
C1446 C1449 1.387 . S
H1447 C1443 0.950 . S
H1448 C1445 0.950 . S
C1449 C1440 1.390 . S
C1449 H1442 0.950 . S
C1449 C1446 1.387 . S
C1450 C1451 1.387 . S
C1450 H1454 0.950 . S
C1450 C1459 1.390 . S
C1451 C1450 1.387 . S
C1451 C1453 1.387 . S
H1452 C1459 0.950 . S
C1453 C1451 1.387 . S
C1453 C1455 1.390 . S
C1453 H1457 0.950 . S
H1454 C1450 0.950 . S
C1455 C1453 1.390 . S
C1455 C1456 1.387 . S
C1455 H1458 0.950 . S
C1456 C1455 1.387 . S
C1456 C1459 1.387 . S
H1457 C1453 0.950 . S
H1458 C1455 0.950 . S
C1459 C1450 1.390 . S
C1459 H1452 0.950 . S
C1459 C1456 1.387 . S
C1460 C1461 1.387 . S
C1460 H1464 0.950 . S
C1460 C1469 1.390 . S
C1461 C1460 1.387 . S
C1461 C1463 1.387 . S
H1462 C1469 0.950 1_455 S
C1463 C1461 1.387 . S
C1463 C1465 1.390 . S
C1463 H1467 0.950 . S
H1464 C1460 0.950 . S
C1465 C1463 1.390 . S
C1465 C1466 1.387 1_655 S
C1465 H1468 0.950 . S
C1466 C1465 1.387 1_455 S
C1466 C1469 1.387 1_455 S
H1467 C1463 0.950 . S
H1468 C1465 0.950 . S
C1469 C1460 1.390 . S
C1469 H1462 0.950 1_655 S
C1469 C1466 1.387 1_655 S
C1470 C1471 1.387 . S
C1470 H1474 0.950 . S
C1470 C1479 1.390 . S
C1471 C1470 1.387 . S
C1471 C1473 1.387 . S
H1472 C1479 0.950 . S
C1473 C1471 1.387 . S
C1473 C1475 1.390 . S
C1473 H1477 0.950 . S
H1474 C1470 0.950 . S
C1475 C1473 1.390 . S
C1475 C1476 1.387 . S
C1475 H1478 0.950 . S
C1476 C1475 1.387 . S
C1476 C1479 1.387 . S
H1477 C1473 0.950 . S
H1478 C1475 0.950 . S
C1479 C1470 1.390 . S
C1479 H1472 0.950 . S
C1479 C1476 1.387 . S
C1480 C1481 1.387 . S
C1480 H1484 0.950 . S
C1480 C1489 1.390 . S
C1481 C1480 1.387 . S
C1481 C1483 1.387 . S
H1482 C1489 0.950 . S
C1483 C1481 1.387 . S
C1483 C1485 1.390 . S
C1483 H1487 0.950 . S
H1484 C1480 0.950 . S
C1485 C1483 1.390 . S
C1485 C1486 1.387 . S
C1485 H1488 0.950 . S
C1486 C1485 1.387 . S
C1486 C1489 1.387 . S
H1487 C1483 0.950 . S
H1488 C1485 0.950 . S
C1489 C1480 1.390 . S
C1489 H1482 0.950 . S
C1489 C1486 1.387 . S
C1490 C1491 1.387 . S
C1490 H1494 0.950 . S
C1490 C1499 1.390 . S
C1491 C1490 1.387 . S
C1491 C1493 1.387 . S
H1492 C1499 0.950 . S
C1493 C1491 1.387 . S
C1493 C1495 1.390 . S
C1493 H1497 0.950 . S
H1494 C1490 0.950 . S
C1495 C1493 1.390 . S
C1495 C1496 1.387 . S
C1495 H1498 0.950 . S
C1496 C1495 1.387 . S
C1496 C1499 1.387 . S
H1497 C1493 0.950 . S
H1498 C1495 0.950 . S
C1499 C1490 1.390 . S
C1499 H1492 0.950 . S
C1499 C1496 1.387 . S
C1500 C1501 1.387 . S
C1500 H1504 0.950 . S
C1500 C1509 1.390 . S
C1501 C1500 1.387 . S
C1501 C1503 1.387 . S
H1502 C1509 0.950 . S
C1503 C1501 1.387 . S
C1503 C1505 1.390 . S
C1503 H1507 0.950 . S
H1504 C1500 0.950 . S
C1505 C1503 1.390 . S
C1505 C1506 1.387 . S
C1505 H1508 0.950 . S
C1506 C1505 1.387 . S
C1506 C1509 1.387 . S
H1507 C1503 0.950 . S
H1508 C1505 0.950 . S
C1509 C1500 1.390 . S
C1509 H1502 0.950 . S
C1509 C1506 1.387 . S
C1510 C1511 1.387 . S
C1510 H1514 0.950 . S
C1510 C1519 1.390 . S
C1511 C1510 1.387 . S
C1511 C1513 1.387 . S
H1512 C1519 0.950 . S
C1513 C1511 1.387 . S
C1513 C1515 1.390 . S
C1513 H1517 0.950 . S
H1514 C1510 0.950 . S
C1515 C1513 1.390 . S
C1515 C1516 1.387 . S
C1515 H1518 0.950 . S
C1516 C1515 1.387 . S
C1516 C1519 1.387 . S
H1517 C1513 0.950 . S
H1518 C1515 0.950 . S
C1519 C1510 1.390 . S
C1519 H1512 0.950 . S
C1519 C1516 1.387 . S
C1520 C1521 1.387 . S
C1520 H1524 0.950 . S
C1520 C1529 1.390 . S
C1521 C1520 1.387 . S
C1521 C1523 1.387 . S
H1522 C1529 0.950 . S
C1523 C1521 1.387 . S
C1523 C1525 1.390 . S
C1523 H1527 0.950 . S
H1524 C1520 0.950 . S
C1525 C1523 1.390 . S
C1525 C1526 1.387 . S
C1525 H1528 0.950 . S
C1526 C1525 1.387 . S
C1526 C1529 1.387 . S
H1527 C1523 0.950 . S
H1528 C1525 0.950 . S
C1529 C1520 1.390 . S
C1529 H1522 0.950 . S
C1529 C1526 1.387 . S
C1530 C1531 1.387 . S
C1530 H1534 0.950 . S
C1530 C1539 1.390 . S
C1531 C1530 1.387 . S
C1531 C1533 1.387 . S
H1532 C1539 0.950 . S
C1533 C1531 1.387 . S
C1533 C1535 1.390 . S
C1533 H1537 0.950 . S
H1534 C1530 0.950 . S
C1535 C1533 1.390 . S
C1535 C1536 1.387 . S
C1535 H1538 0.950 1_565 S
C1536 C1535 1.387 . S
C1536 C1539 1.387 . S
H1537 C1533 0.950 . S
H1538 C1535 0.950 1_545 S
C1539 C1530 1.390 . S
C1539 H1532 0.950 . S
C1539 C1536 1.387 . S
C1540 C1541 1.387 . S
C1540 H1544 0.950 . S
C1540 C1549 1.390 . S
C1541 C1540 1.387 . S
C1541 C1543 1.387 . S
H1542 C1549 0.950 . S
C1543 C1541 1.387 . S
C1543 C1545 1.390 . S
C1543 H1547 0.950 . S
H1544 C1540 0.950 . S
C1545 C1543 1.390 . S
C1545 C1546 1.387 . S
C1545 H1548 0.950 . S
C1546 C1545 1.387 . S
C1546 C1549 1.387 . S
H1547 C1543 0.950 . S
H1548 C1545 0.950 . S
C1549 C1540 1.390 . S
C1549 H1542 0.950 . S
C1549 C1546 1.387 . S
C1550 C1551 1.387 . S
C1550 H1554 0.950 . S
C1550 C1559 1.390 . S
C1551 C1550 1.387 . S
C1551 C1553 1.387 . S
H1552 C1559 0.950 . S
C1553 C1551 1.387 . S
C1553 C1555 1.390 . S
C1553 H1557 0.952 . S
H1554 C1550 0.950 . S
C1555 C1553 1.390 . S
C1555 C1556 1.387 . S
C1555 H1558 0.950 . S
C1556 C1555 1.387 . S
C1556 C1559 1.387 . S
H1557 C1553 0.952 . S
H1558 C1555 0.950 . S
C1559 C1550 1.390 . S
C1559 H1552 0.950 . S
C1559 C1556 1.387 . S
C1560 C1561 1.387 . S
C1560 H1564 0.950 . S
C1560 C1569 1.390 . S
C1561 C1560 1.387 . S
C1561 C1563 1.387 . S
H1562 C1569 0.950 . S
C1563 C1561 1.387 . S
C1563 C1565 1.390 . S
C1563 H1567 0.950 . S
H1564 C1560 0.950 . S
C1565 C1563 1.390 . S
C1565 C1566 1.387 . S
C1565 H1568 0.950 . S
C1566 C1565 1.387 . S
C1566 C1569 1.387 . S
H1567 C1563 0.950 . S
H1568 C1565 0.950 . S
C1569 C1560 1.390 . S
C1569 H1562 0.950 . S
C1569 C1566 1.387 . S
C1570 C1571 1.387 . S
C1570 H1574 0.950 . S
C1570 C1579 1.390 . S
C1571 C1570 1.387 . S
C1571 C1573 1.387 . S
H1572 C1579 0.950 . S
C1573 C1571 1.387 . S
C1573 C1575 1.390 . S
C1573 H1577 0.950 . S
H1574 C1570 0.950 . S
C1575 C1573 1.390 . S
C1575 C1576 1.387 . S
C1575 H1578 0.950 . S
C1576 C1575 1.387 . S
C1576 C1579 1.387 . S
H1577 C1573 0.950 . S
H1578 C1575 0.950 . S
C1579 C1570 1.390 . S
C1579 H1572 0.950 . S
C1579 C1576 1.387 . S
C1580 C1581 1.387 . S
C1580 H1584 0.950 . S
C1580 C1589 1.390 . S
C1581 C1580 1.387 . S
C1581 C1583 1.387 . S
H1582 C1589 0.950 . S
C1583 C1581 1.387 . S
C1583 C1585 1.390 . S
C1583 H1587 0.950 . S
H1584 C1580 0.950 . S
C1585 C1583 1.390 . S
C1585 C1586 1.387 . S
C1585 H1588 0.950 . S
C1586 C1585 1.387 . S
C1586 C1589 1.387 . S
H1587 C1583 0.950 . S
H1588 C1585 0.950 . S
C1589 C1580 1.390 . S
C1589 H1582 0.950 . S
C1589 C1586 1.387 . S
C1590 C1591 1.387 . S
C1590 H1594 0.950 . S
C1590 C1599 1.390 . S
C1591 C1590 1.387 . S
C1591 C1593 1.387 . S
H1592 C1599 0.950 . S
C1593 C1591 1.387 . S
C1593 C1595 1.390 . S
C1593 H1597 0.950 . S
H1594 C1590 0.950 . S
C1595 C1593 1.390 . S
C1595 C1596 1.387 . S
C1595 H1598 0.950 . S
C1596 C1595 1.387 . S
C1596 C1599 1.387 . S
H1597 C1593 0.950 . S
H1598 C1595 0.950 . S
C1599 C1590 1.390 . S
C1599 H1592 0.950 . S
C1599 C1596 1.387 . S
C1600 C1601 1.387 . S
C1600 H1604 0.950 . S
C1600 C1609 1.390 . S
C1601 C1600 1.387 . S
C1601 C1603 1.387 . S
H1602 C1609 0.950 . S
C1603 C1601 1.387 . S
C1603 C1605 1.390 . S
C1603 H1607 0.950 . S
H1604 C1600 0.950 . S
C1605 C1603 1.390 . S
C1605 C1606 1.387 . S
C1605 H1608 0.950 . S
C1606 C1605 1.387 . S
C1606 C1609 1.387 . S
H1607 C1603 0.950 . S
H1608 C1605 0.950 . S
C1609 C1600 1.390 . S
C1609 H1602 0.950 . S
C1609 C1606 1.387 . S
C1610 C1611 1.387 . S
C1610 H1614 0.950 . S
C1610 C1619 1.390 . S
C1611 C1610 1.387 . S
C1611 C1613 1.387 . S
H1612 C1619 0.950 . S
C1613 C1611 1.387 . S
C1613 C1615 1.390 . S
C1613 H1617 0.950 . S
H1614 C1610 0.950 . S
C1615 C1613 1.390 . S
C1615 C1616 1.387 . S
C1615 H1618 0.950 . S
C1616 C1615 1.387 . S
C1616 C1619 1.387 . S
H1617 C1613 0.950 . S
H1618 C1615 0.950 . S
C1619 C1610 1.390 . S
C1619 H1612 0.950 . S
C1619 C1616 1.387 . S
C1620 C1621 1.387 . S
C1620 H1624 0.950 . S
C1620 C1629 1.390 . S
C1621 C1620 1.387 . S
C1621 C1623 1.387 1_455 S
H1622 C1629 0.950 . S
C1623 C1621 1.387 1_655 S
C1623 C1625 1.390 . S
C1623 H1627 0.950 . S
H1624 C1620 0.950 . S
C1625 C1623 1.390 . S
C1625 C1626 1.387 1_655 S
C1625 H1628 0.950 . S
C1626 C1625 1.387 1_455 S
C1626 C1629 1.387 . S
H1627 C1623 0.950 . S
H1628 C1625 0.950 . S
C1629 C1620 1.390 . S
C1629 H1622 0.950 . S
C1629 C1626 1.387 . S
C1630 C1631 1.387 . S
C1630 H1634 0.950 . S
C1630 C1639 1.390 . S
C1631 C1630 1.387 . S
C1631 C1633 1.387 . S
H1632 C1639 0.950 . S
C1633 C1631 1.387 . S
C1633 C1635 1.390 . S
C1633 H1637 0.950 . S
H1634 C1630 0.950 . S
C1635 C1633 1.390 . S
C1635 C1636 1.387 . S
C1635 H1638 0.950 . S
C1636 C1635 1.387 . S
C1636 C1639 1.387 . S
H1637 C1633 0.950 . S
H1638 C1635 0.950 . S
C1639 C1630 1.390 . S
C1639 H1632 0.950 . S
C1639 C1636 1.387 . S
C1640 C1641 1.387 . S
C1640 H1644 0.950 . S
C1640 C1649 1.390 . S
C1641 C1640 1.387 . S
C1641 C1643 1.387 . S
H1642 C1649 0.950 . S
C1643 C1641 1.387 . S
C1643 C1645 1.390 . S
C1643 H1647 0.950 . S
H1644 C1640 0.950 . S
C1645 C1643 1.390 . S
C1645 C1646 1.387 . S
C1645 H1648 0.950 . S
C1646 C1645 1.387 . S
C1646 C1649 1.387 . S
H1647 C1643 0.950 . S
H1648 C1645 0.950 . S
C1649 C1640 1.390 . S
C1649 H1642 0.950 . S
C1649 C1646 1.387 . S
C1650 C1651 1.387 . S
C1650 H1654 0.950 . S
C1650 C1659 1.390 . S
C1651 C1650 1.387 . S
C1651 C1653 1.387 . S
H1652 C1659 0.950 . S
C1653 C1651 1.387 . S
C1653 C1655 1.390 . S
C1653 H1657 0.950 . S
H1654 C1650 0.950 . S
C1655 C1653 1.390 . S
C1655 C1656 1.387 . S
C1655 H1658 0.950 . S
C1656 C1655 1.387 . S
C1656 C1659 1.387 . S
H1657 C1653 0.950 . S
H1658 C1655 0.950 . S
C1659 C1650 1.390 . S
C1659 H1652 0.950 . S
C1659 C1656 1.387 . S
C1660 C1661 1.387 . S
C1660 H1664 0.950 . S
C1660 C1669 1.390 . S
C1661 C1660 1.387 . S
C1661 C1663 1.387 . S
H1662 C1669 0.950 . S
C1663 C1661 1.387 . S
C1663 C1665 1.390 . S
C1663 H1667 0.950 . S
H1664 C1660 0.950 . S
C1665 C1663 1.390 . S
C1665 C1666 1.387 . S
C1665 H1668 0.950 1_455 S
C1666 C1665 1.387 . S
C1666 C1669 1.387 . S
H1667 C1663 0.950 . S
H1668 C1665 0.950 1_655 S
C1669 C1660 1.390 . S
C1669 H1662 0.950 . S
C1669 C1666 1.387 . S
C1670 C1671 1.387 . S
C1670 H1674 0.950 . S
C1670 C1679 1.390 . S
C1671 C1670 1.387 . S
C1671 C1673 1.387 . S
H1672 C1679 0.950 . S
C1673 C1671 1.387 . S
C1673 C1675 1.390 . S
C1673 H1677 0.950 . S
H1674 C1670 0.950 . S
C1675 C1673 1.390 . S
C1675 C1676 1.387 . S
C1675 H1678 0.950 . S
C1676 C1675 1.387 . S
C1676 C1679 1.387 . S
H1677 C1673 0.950 . S
H1678 C1675 0.950 . S
C1679 C1670 1.390 . S
C1679 H1672 0.950 . S
C1679 C1676 1.387 . S
C1680 C1681 1.387 . S
C1680 H1684 0.950 . S
C1680 C1689 1.390 . S
C1681 C1680 1.387 . S
C1681 C1683 1.387 . S
H1682 C1689 0.950 . S
C1683 C1681 1.387 . S
C1683 C1685 1.390 . S
C1683 H1687 0.950 . S
H1684 C1680 0.950 . S
C1685 C1683 1.390 . S
C1685 C1686 1.387 . S
C1685 H1688 0.950 . S
C1686 C1685 1.387 . S
C1686 C1689 1.387 . S
H1687 C1683 0.950 . S
H1688 C1685 0.950 . S
C1689 C1680 1.390 . S
C1689 H1682 0.950 . S
C1689 C1686 1.387 . S
C1690 C1691 1.387 . S
C1690 H1694 0.950 . S
C1690 C1699 1.390 . S
C1691 C1690 1.387 . S
C1691 C1693 1.387 . S
H1692 C1699 0.950 . S
C1693 C1691 1.387 . S
C1693 C1695 1.390 . S
C1693 H1697 0.950 . S
H1694 C1690 0.950 . S
C1695 C1693 1.390 . S
C1695 C1696 1.387 . S
C1695 H1698 0.950 . S
C1696 C1695 1.387 . S
C1696 C1699 1.387 . S
H1697 C1693 0.950 . S
H1698 C1695 0.950 . S
C1699 C1690 1.390 . S
C1699 H1692 0.950 . S
C1699 C1696 1.387 . S
C1700 C1701 1.387 . S
C1700 H1704 0.950 . S
C1700 C1709 1.390 . S
C1701 C1700 1.387 . S
C1701 C1703 1.387 . S
H1702 C1709 0.950 . S
C1703 C1701 1.387 . S
C1703 C1705 1.390 . S
C1703 H1707 0.950 . S
H1704 C1700 0.950 . S
C1705 C1703 1.390 . S
C1705 C1706 1.387 . S
C1705 H1708 0.950 . S
C1706 C1705 1.387 . S
C1706 C1709 1.387 . S
H1707 C1703 0.950 . S
H1708 C1705 0.950 . S
C1709 C1700 1.390 . S
C1709 H1702 0.950 . S
C1709 C1706 1.387 . S
C1710 C1711 1.387 . S
C1710 H1714 0.950 . S
C1710 C1719 1.390 . S
C1711 C1710 1.387 . S
C1711 C1713 1.387 . S
H1712 C1719 0.950 . S
C1713 C1711 1.387 . S
C1713 C1715 1.390 . S
C1713 H1717 0.950 . S
H1714 C1710 0.950 . S
C1715 C1713 1.390 . S
C1715 C1716 1.387 . S
C1715 H1718 0.950 . S
C1716 C1715 1.387 . S
C1716 C1719 1.387 . S
H1717 C1713 0.950 . S
H1718 C1715 0.950 . S
C1719 C1710 1.390 . S
C1719 H1712 0.950 . S
C1719 C1716 1.387 . S
C1720 C1721 1.387 . S
C1720 H1724 0.950 . S
C1720 C1729 1.390 . S
C1721 C1720 1.387 . S
C1721 C1723 1.387 . S
H1722 C1729 0.950 . S
C1723 C1721 1.387 . S
C1723 C1725 1.390 . S
C1723 H1727 0.950 . S
H1724 C1720 0.950 . S
C1725 C1723 1.390 . S
C1725 C1726 1.387 . S
C1725 H1728 0.950 . S
C1726 C1725 1.387 . S
C1726 C1729 1.387 . S
H1727 C1723 0.950 . S
H1728 C1725 0.950 . S
C1729 C1720 1.390 . S
C1729 H1722 0.950 . S
C1729 C1726 1.387 . S
C1730 C1731 1.387 . S
C1730 H1734 0.950 . S
C1730 C1739 1.390 . S
C1731 C1730 1.387 . S
C1731 C1733 1.387 . S
H1732 C1739 0.950 . S
C1733 C1731 1.387 . S
C1733 C1735 1.390 . S
C1733 H1737 0.950 . S
H1734 C1730 0.950 . S
C1735 C1733 1.390 . S
C1735 C1736 1.387 . S
C1735 H1738 0.950 . S
C1736 C1735 1.387 . S
C1736 C1739 1.387 . S
H1737 C1733 0.950 . S
H1738 C1735 0.950 . S
C1739 C1730 1.390 . S
C1739 H1732 0.950 . S
C1739 C1736 1.387 . S
C1740 C1741 1.387 . S
C1740 H1744 0.950 . S
C1740 C1749 1.390 . S
C1741 C1740 1.387 . S
C1741 C1743 1.387 . S
H1742 C1749 0.950 . S
C1743 C1741 1.387 . S
C1743 C1745 1.390 . S
C1743 H1747 0.950 . S
H1744 C1740 0.950 . S
C1745 C1743 1.390 . S
C1745 C1746 1.387 . S
C1745 H1748 0.950 . S
C1746 C1745 1.387 . S
C1746 C1749 1.387 . S
H1747 C1743 0.950 . S
H1748 C1745 0.950 . S
C1749 C1740 1.390 . S
C1749 H1742 0.950 . S
C1749 C1746 1.387 . S
C1750 C1751 1.387 . S
C1750 H1754 0.950 . S
C1750 C1759 1.390 . S
C1751 C1750 1.387 . S
C1751 C1753 1.387 . S
H1752 C1759 0.950 . S
C1753 C1751 1.387 . S
C1753 C1755 1.390 . S
C1753 H1757 0.950 . S
H1754 C1750 0.950 . S
C1755 C1753 1.390 . S
C1755 C1756 1.387 . S
C1755 H1758 0.950 . S
C1756 C1755 1.387 . S
C1756 C1759 1.387 . S
H1757 C1753 0.950 . S
H1758 C1755 0.950 . S
C1759 C1750 1.390 . S
C1759 H1752 0.950 . S
C1759 C1756 1.387 . S
C1760 C1761 1.387 . S
C1760 H1764 0.950 . S
C1760 C1769 1.390 . S
C1761 C1760 1.387 . S
C1761 C1763 1.387 . S
H1762 C1769 0.950 . S
C1763 C1761 1.387 . S
C1763 C1765 1.390 . S
C1763 H1767 0.950 . S
H1764 C1760 0.950 . S
C1765 C1763 1.390 . S
C1765 C1766 1.387 . S
C1765 H1768 0.950 . S
C1766 C1765 1.387 . S
C1766 C1769 1.387 . S
H1767 C1763 0.950 . S
H1768 C1765 0.950 . S
C1769 C1760 1.390 . S
C1769 H1762 0.950 . S
C1769 C1766 1.387 . S
C1770 C1771 1.387 . S
C1770 H1774 0.950 . S
C1770 C1779 1.390 . S
C1771 C1770 1.387 . S
C1771 C1773 1.387 . S
H1772 C1779 0.950 . S
C1773 C1771 1.387 . S
C1773 C1775 1.390 . S
C1773 H1777 0.950 . S
H1774 C1770 0.950 . S
C1775 C1773 1.390 . S
C1775 C1776 1.387 . S
C1775 H1778 0.950 . S
C1776 C1775 1.387 . S
C1776 C1779 1.387 . S
H1777 C1773 0.950 . S
H1778 C1775 0.950 . S
C1779 C1770 1.390 . S
C1779 H1772 0.950 . S
C1779 C1776 1.387 . S
C1780 C1781 1.387 . S
C1780 H1784 0.950 . S
C1780 C1789 1.390 . S
C1781 C1780 1.387 . S
C1781 C1783 1.387 . S
H1782 C1789 0.950 . S
C1783 C1781 1.387 . S
C1783 C1785 1.390 . S
C1783 H1787 0.950 . S
H1784 C1780 0.950 . S
C1785 C1783 1.390 . S
C1785 C1786 1.387 . S
C1785 H1788 0.950 . S
C1786 C1785 1.387 . S
C1786 C1789 1.387 . S
H1787 C1783 0.950 . S
H1788 C1785 0.950 . S
C1789 C1780 1.390 . S
C1789 H1782 0.950 . S
C1789 C1786 1.387 . S
C1790 C1791 1.387 . S
C1790 H1794 0.950 . S
C1790 C1799 1.390 1_565 S
C1791 C1790 1.387 . S
C1791 C1793 1.387 . S
H1792 C1799 0.950 . S
C1793 C1791 1.387 . S
C1793 C1795 1.390 . S
C1793 H1797 0.942 1_554 S
H1794 C1790 0.950 . S
C1795 C1793 1.390 . S
C1795 C1796 1.387 1_565 S
C1795 H1798 0.950 1_554 S
C1796 C1795 1.387 1_545 S
C1796 C1799 1.387 . S
H1797 C1793 0.942 1_556 S
H1798 C1795 0.950 1_556 S
C1799 C1790 1.390 1_545 S
C1799 H1792 0.950 . S
C1799 C1796 1.387 . S
C1800 C1801 1.387 . S
C1800 H1804 0.950 . S
C1800 C1809 1.390 . S
C1801 C1800 1.387 . S
C1801 C1803 1.387 . S
H1802 C1809 0.950 . S
C1803 C1801 1.387 . S
C1803 C1805 1.390 . S
C1803 H1807 0.950 . S
H1804 C1800 0.950 . S
C1805 C1803 1.390 . S
C1805 C1806 1.387 . S
C1805 H1808 0.950 . S
C1806 C1805 1.387 . S
C1806 C1809 1.387 . S
H1807 C1803 0.950 . S
H1808 C1805 0.950 . S
C1809 C1800 1.390 . S
C1809 H1802 0.950 . S
C1809 C1806 1.387 . S
C1810 C1811 1.387 . S
C1810 H1814 0.950 . S
C1810 C1819 1.390 . S
C1811 C1810 1.387 . S
C1811 C1813 1.387 . S
H1812 C1819 0.950 . S
C1813 C1811 1.387 . S
C1813 C1815 1.390 . S
C1813 H1817 0.950 . S
H1814 C1810 0.950 . S
C1815 C1813 1.390 . S
C1815 C1816 1.387 . S
C1815 H1818 0.950 . S
C1816 C1815 1.387 . S
C1816 C1819 1.387 . S
H1817 C1813 0.950 . S
H1818 C1815 0.950 . S
C1819 C1810 1.390 . S
C1819 H1812 0.950 . S
C1819 C1816 1.387 . S
C1820 C1821 1.387 . S
C1820 H1824 0.950 . S
C1820 C1829 1.390 . S
C1821 C1820 1.387 . S
C1821 C1823 1.387 . S
H1822 C1829 0.950 . S
C1823 C1821 1.387 . S
C1823 C1825 1.390 . S
C1823 H1827 0.950 . S
H1824 C1820 0.950 . S
C1825 C1823 1.390 . S
C1825 C1826 1.387 . S
C1825 H1828 0.950 . S
C1826 C1825 1.387 . S
C1826 C1829 1.387 . S
H1827 C1823 0.950 . S
H1828 C1825 0.950 . S
C1829 C1820 1.390 . S
C1829 H1822 0.950 . S
C1829 C1826 1.387 . S
C1830 C1831 1.387 . S
C1830 H1834 0.950 . S
C1830 C1839 1.390 . S
C1831 C1830 1.387 . S
C1831 C1833 1.387 . S
H1832 C1839 0.950 . S
C1833 C1831 1.387 . S
C1833 C1835 1.390 . S
C1833 H1837 0.950 . S
H1834 C1830 0.950 . S
C1835 C1833 1.390 . S
C1835 C1836 1.387 . S
C1835 H1838 0.950 . S
C1836 C1835 1.387 . S
C1836 C1839 1.387 . S
H1837 C1833 0.950 . S
H1838 C1835 0.950 . S
C1839 C1830 1.390 . S
C1839 H1832 0.950 . S
C1839 C1836 1.387 . S
C886 C353 1.404 . S
C881 C8 1.394 . S
C891 C22 2.318 . S
C896 C399 2.297 . S
C901 C35 0.860 . S
C906 C408 0.876 . S
C916 C446 1.761 . S
C911 C49 1.738 . S
C921 C23 2.153 . S
C926 C480 2.104 . S
C936 C510 0.855 . S
C931 C34 0.849 . S
C946 C569 1.674 1_556 S
C941 C48 1.612 . S
C951 C9 1.321 . S
C956 C582 1.348 . S
C961 C64 1.654 . S
C966 C365 1.628 . S
C971 C77 1.203 . S
C976 C383 1.224 . S
C986 C404 2.089 . S
C981 C92 2.130 . S
C996 C442 1.140 . S
C991 C105 1.115 . S
C1001 C63 1.371 . S
C1006 C476 1.356 . S
C1016 C506 2.017 . S
C1011 C78 2.047 . S
C1026 C553 1.376 . S
C1021 C91 1.353 . S
C1036 C578 0.949 . S
C1031 C106 0.966 . S
C1046 C349 0.978 . S
C1041 C107 0.989 . S
C1056 C608 1.660 . S
C1051 C118 1.637 . S
C1061 C135 1.788 . S
C1066 C650 1.828 . S
C1076 C693 0.646 . S
C1071 C146 0.654 . S
C1081 C65 1.632 . S
C1086 C574 1.609 . S
C1096 C412 1.859 1_565 S
C1091 C79 1.825 . S
C1101 C132 1.492 . S
C1106 C710 1.524 . S
C1116 C761 1.627 . S
C1111 C160 1.588 . S
C1121 C177 1.554 . S
C1126 C344 1.491 1_556 S
C1136 C744 1.825 . S
C1131 C188 1.807 . S
C1141 C204 1.242 . S
C1146 C417 1.227 . S
C1151 C219 1.825 . S
C1156 C727 1.775 . S
C1166 C489 1.810 . S
C1161 C190 1.866 . S
C1176 C655 0.925 . S
C1171 C202 0.907 . S
C1186 C540 1.628 . S
C1181 C217 1.594 . S
C1196 C795 1.277 . S
C1191 C175 1.253 . S
C1206 C336 1.557 . S
C1201 C231 1.553 1_545 S
C1211 C246 1.455 . S
C1216 C748 1.415 . S
C1226 C433 1.747 . S
C1221 C259 1.714 . S
C1231 C274 1.207 . S
C1236 C723 1.136 . S
C1241 C232 1.492 . S
C1246 C485 1.441 . S
C1251 C245 1.659 . S
C1256 C671 1.674 . S
C1266 C544 1.386 . S
C1261 C260 1.442 . S
C1271 C273 0.827 . S
C1276 C791 0.830 . S
C1281 C275 1.013 . S
C1286 C340 0.988 . S
C1291 C286 1.605 . S
C1296 C637 1.634 . S
C1301 C303 1.636 . S
C1306 C523 1.597 . S
C1311 C314 0.582 . S
C1316 C684 0.531 . S
C1326 C807 1.587 . S
C1321 C233 1.682 . S
C1336 C421 1.670 . S
C1331 C247 1.701 . S
C1346 C467 1.387 . S
C1341 C300 1.349 . S
C1356 C378 1.609 . S
C1351 C328 1.566 . S
C1361 C36 1.316 . S
C1366 C829 1.322 . S
C1376 C773 2.301 . S
C1371 C50 2.320 . S
C1386 C850 0.912 . S
C1381 C7 0.896 . S
C1391 C21 1.738 . S
C1396 C718 1.762 . S
C1401 C51 2.150 . S
C1406 C616 2.098 1_556 S
C1416 C646 0.888 . S
C1411 C6 0.879 1_655 S
C1426 C705 1.676 . S
C1421 C20 1.615 . S
C1436 C786 1.277 . S
C1431 C37 1.254 . S
C1446 C841 1.562 . S
C1441 C162 1.596 . S
C1451 C119 1.183 1_556 S
C1456 C757 1.205 . S
C1461 C134 2.094 . S
C1466 C846 2.033 . S
C1476 C714 1.110 . S
C1471 C147 1.085 . S
C1486 C612 1.345 . S
C1481 C161 1.361 . S
C1491 C120 2.017 . S
C1496 C642 1.965 . S
C1506 C689 1.347 . S
C1501 C133 1.320 . S
C1511 C148 0.975 . S
C1516 C782 0.951 . S
C1526 C825 0.919 . S
C1521 C149 0.913 . S
C1536 C472 1.603 1_565 S
C1531 C76 1.577 . S
C1546 C514 1.818 . S
C1541 C93 1.787 . S
C1551 C104 0.632 . S
C1556 C557 0.612 . S
C1566 C778 1.631 . S
C1561 C163 1.628 . S
C1571 C121 1.828 . S
C1576 C854 1.875 . S
C1586 C438 1.485 . S
C1581 C90 1.450 . S
C1596 C387 1.587 . S
C1591 C62 1.542 . S
C1601 C203 1.283 . S
C1606 C820 1.404 . S
C1616 C370 1.865 . S
C1611 C216 1.842 . S
C1626 C859 1.039 . S
C1621 C174 0.999 . S
C1631 C191 1.865 . S
C1636 C455 1.809 . S
C1641 C218 1.814 . S
C1646 C625 1.760 . S
C1651 C176 1.136 . S
C1656 C519 1.128 . S
C1661 C189 1.547 . S
C1666 C676 1.572 . S
C1671 C205 1.433 . S
C1676 C591 1.354 . S
C1686 C812 1.541 . S
C1681 C329 1.562 . S
C1691 C288 1.420 . S
C1696 C374 1.376 . S
C1706 C875 1.697 . S
C1701 C301 1.680 . S
C1711 C316 1.182 . S
C1716 C451 1.110 . S
C1721 C330 1.536 . S
C1726 C621 1.494 . S
C1736 C535 1.720 . S
C1731 C287 1.694 . S
C1741 C302 1.475 . S
C1746 C680 1.419 . S
C1756 C587 0.887 . S
C1751 C315 0.869 . S
C1766 C816 1.000 . S
C1761 C317 1.042 . S
C1776 C501 1.625 . S
C1771 C244 1.603 . S
C1781 C261 1.597 . S
C1786 C659 1.541 . S
C1796 C548 0.514 . S
C1791 C272 0.536 . S
C1806 C603 1.643 . S
C1801 C331 1.709 . S
C1811 C289 1.640 . S
C1816 C863 1.596 . S
C1826 C739 1.432 . S
C1821 C258 1.382 . S
C1836 C752 1.631 . S
C1831 C230 1.570 . S
