# Generated by pormake.
# Topology gar, (4,6)-cn, num edge types: 1
# Building blocks:
#     Node 0, Type 0, BuildingBlock: NAHDIM_clean_sbu_0, # of connection points: 4
#     Node 1, Type 0, BuildingBlock: NAHDIM_clean_sbu_0, # of connection points: 4
#     Node 2, Type 0, BuildingBlock: NAHDIM_clean_sbu_0, # of connection points: 4
#     Node 3, Type 0, BuildingBlock: NAHDIM_clean_sbu_0, # of connection points: 4
#     Node 4, Type 0, BuildingBlock: NAHDIM_clean_sbu_0, # of connection points: 4
#     Node 5, Type 0, BuildingBlock: NAHDIM_clean_sbu_0, # of connection points: 4
#     Node 6, Type 0, BuildingBlock: NAHDIM_clean_sbu_0, # of connection points: 4
#     Node 7, Type 0, BuildingBlock: NAHDIM_clean_sbu_0, # of connection points: 4
#     Node 8, Type 0, BuildingBlock: NAHDIM_clean_sbu_0, # of connection points: 4
#     Node 9, Type 0, BuildingBlock: NAHDIM_clean_sbu_0, # of connection points: 4
#     Node 10, Type 0, BuildingBlock: NAHDIM_clean_sbu_0, # of connection points: 4
#     Node 11, Type 0, BuildingBlock: NAHDIM_clean_sbu_0, # of connection points: 4
#     Node 12, Type 0, BuildingBlock: NAHDIM_clean_sbu_0, # of connection points: 4
#     Node 13, Type 0, BuildingBlock: NAHDIM_clean_sbu_0, # of connection points: 4
#     Node 14, Type 0, BuildingBlock: NAHDIM_clean_sbu_0, # of connection points: 4
#     Node 15, Type 0, BuildingBlock: NAHDIM_clean_sbu_0, # of connection points: 4
#     Node 16, Type 0, BuildingBlock: NAHDIM_clean_sbu_0, # of connection points: 4
#     Node 17, Type 0, BuildingBlock: NAHDIM_clean_sbu_0, # of connection points: 4
#     Node 18, Type 0, BuildingBlock: NAHDIM_clean_sbu_0, # of connection points: 4
#     Node 19, Type 0, BuildingBlock: NAHDIM_clean_sbu_0, # of connection points: 4
#     Node 20, Type 0, BuildingBlock: NAHDIM_clean_sbu_0, # of connection points: 4
#     Node 21, Type 0, BuildingBlock: NAHDIM_clean_sbu_0, # of connection points: 4
#     Node 22, Type 0, BuildingBlock: NAHDIM_clean_sbu_0, # of connection points: 4
#     Node 23, Type 0, BuildingBlock: NAHDIM_clean_sbu_0, # of connection points: 4
#     Node 24, Type 1, BuildingBlock: MIFKUJ_clean_sbu_0, # of connection points: 6
#     Node 25, Type 1, BuildingBlock: MIFKUJ_clean_sbu_0, # of connection points: 6
#     Node 26, Type 1, BuildingBlock: MIFKUJ_clean_sbu_0, # of connection points: 6
#     Node 27, Type 1, BuildingBlock: MIFKUJ_clean_sbu_0, # of connection points: 6
#     Node 28, Type 1, BuildingBlock: MIFKUJ_clean_sbu_0, # of connection points: 6
#     Node 29, Type 1, BuildingBlock: MIFKUJ_clean_sbu_0, # of connection points: 6
#     Node 30, Type 1, BuildingBlock: MIFKUJ_clean_sbu_0, # of connection points: 6
#     Node 31, Type 1, BuildingBlock: MIFKUJ_clean_sbu_0, # of connection points: 6
#     Node 32, Type 1, BuildingBlock: MIFKUJ_clean_sbu_0, # of connection points: 6
#     Node 33, Type 1, BuildingBlock: MIFKUJ_clean_sbu_0, # of connection points: 6
#     Node 34, Type 1, BuildingBlock: MIFKUJ_clean_sbu_0, # of connection points: 6
#     Node 35, Type 1, BuildingBlock: MIFKUJ_clean_sbu_0, # of connection points: 6
#     Node 36, Type 1, BuildingBlock: MIFKUJ_clean_sbu_0, # of connection points: 6
#     Node 37, Type 1, BuildingBlock: MIFKUJ_clean_sbu_0, # of connection points: 6
#     Node 38, Type 1, BuildingBlock: MIFKUJ_clean_sbu_0, # of connection points: 6
#     Node 39, Type 1, BuildingBlock: MIFKUJ_clean_sbu_0, # of connection points: 6
#     Edge 40, Type (0, 1), BuildingBlock: UVAHIK_clean_linker_0, # of connection points: 2
#     Edge 41, Type (0, 1), BuildingBlock: UVAHIK_clean_linker_0, # of connection points: 2
#     Edge 42, Type (0, 1), BuildingBlock: UVAHIK_clean_linker_0, # of connection points: 2
#     Edge 43, Type (0, 1), BuildingBlock: UVAHIK_clean_linker_0, # of connection points: 2
#     Edge 44, Type (0, 1), BuildingBlock: UVAHIK_clean_linker_0, # of connection points: 2
#     Edge 45, Type (0, 1), BuildingBlock: UVAHIK_clean_linker_0, # of connection points: 2
#     Edge 46, Type (0, 1), BuildingBlock: UVAHIK_clean_linker_0, # of connection points: 2
#     Edge 47, Type (0, 1), BuildingBlock: UVAHIK_clean_linker_0, # of connection points: 2
#     Edge 48, Type (0, 1), BuildingBlock: UVAHIK_clean_linker_0, # of connection points: 2
#     Edge 49, Type (0, 1), BuildingBlock: UVAHIK_clean_linker_0, # of connection points: 2
#     Edge 50, Type (0, 1), BuildingBlock: UVAHIK_clean_linker_0, # of connection points: 2
#     Edge 51, Type (0, 1), BuildingBlock: UVAHIK_clean_linker_0, # of connection points: 2
#     Edge 52, Type (0, 1), BuildingBlock: UVAHIK_clean_linker_0, # of connection points: 2
#     Edge 53, Type (0, 1), BuildingBlock: UVAHIK_clean_linker_0, # of connection points: 2
#     Edge 54, Type (0, 1), BuildingBlock: UVAHIK_clean_linker_0, # of connection points: 2
#     Edge 55, Type (0, 1), BuildingBlock: UVAHIK_clean_linker_0, # of connection points: 2
#     Edge 56, Type (0, 1), BuildingBlock: UVAHIK_clean_linker_0, # of connection points: 2
#     Edge 57, Type (0, 1), BuildingBlock: UVAHIK_clean_linker_0, # of connection points: 2
#     Edge 58, Type (0, 1), BuildingBlock: UVAHIK_clean_linker_0, # of connection points: 2
#     Edge 59, Type (0, 1), BuildingBlock: UVAHIK_clean_linker_0, # of connection points: 2
#     Edge 60, Type (0, 1), BuildingBlock: UVAHIK_clean_linker_0, # of connection points: 2
#     Edge 61, Type (0, 1), BuildingBlock: UVAHIK_clean_linker_0, # of connection points: 2
#     Edge 62, Type (0, 1), BuildingBlock: UVAHIK_clean_linker_0, # of connection points: 2
#     Edge 63, Type (0, 1), BuildingBlock: UVAHIK_clean_linker_0, # of connection points: 2
#     Edge 64, Type (0, 1), BuildingBlock: UVAHIK_clean_linker_0, # of connection points: 2
#     Edge 65, Type (0, 1), BuildingBlock: UVAHIK_clean_linker_0, # of connection points: 2
#     Edge 66, Type (0, 1), BuildingBlock: UVAHIK_clean_linker_0, # of connection points: 2
#     Edge 67, Type (0, 1), BuildingBlock: UVAHIK_clean_linker_0, # of connection points: 2
#     Edge 68, Type (0, 1), BuildingBlock: UVAHIK_clean_linker_0, # of connection points: 2
#     Edge 69, Type (0, 1), BuildingBlock: UVAHIK_clean_linker_0, # of connection points: 2
#     Edge 70, Type (0, 1), BuildingBlock: UVAHIK_clean_linker_0, # of connection points: 2
#     Edge 71, Type (0, 1), BuildingBlock: UVAHIK_clean_linker_0, # of connection points: 2
#     Edge 72, Type (0, 1), BuildingBlock: UVAHIK_clean_linker_0, # of connection points: 2
#     Edge 73, Type (0, 1), BuildingBlock: UVAHIK_clean_linker_0, # of connection points: 2
#     Edge 74, Type (0, 1), BuildingBlock: UVAHIK_clean_linker_0, # of connection points: 2
#     Edge 75, Type (0, 1), BuildingBlock: UVAHIK_clean_linker_0, # of connection points: 2
#     Edge 76, Type (0, 1), BuildingBlock: UVAHIK_clean_linker_0, # of connection points: 2
#     Edge 77, Type (0, 1), BuildingBlock: UVAHIK_clean_linker_0, # of connection points: 2
#     Edge 78, Type (0, 1), BuildingBlock: UVAHIK_clean_linker_0, # of connection points: 2
#     Edge 79, Type (0, 1), BuildingBlock: UVAHIK_clean_linker_0, # of connection points: 2
#     Edge 80, Type (0, 1), BuildingBlock: UVAHIK_clean_linker_0, # of connection points: 2
#     Edge 81, Type (0, 1), BuildingBlock: UVAHIK_clean_linker_0, # of connection points: 2
#     Edge 82, Type (0, 1), BuildingBlock: UVAHIK_clean_linker_0, # of connection points: 2
#     Edge 83, Type (0, 1), BuildingBlock: UVAHIK_clean_linker_0, # of connection points: 2
#     Edge 84, Type (0, 1), BuildingBlock: UVAHIK_clean_linker_0, # of connection points: 2
#     Edge 85, Type (0, 1), BuildingBlock: UVAHIK_clean_linker_0, # of connection points: 2
#     Edge 86, Type (0, 1), BuildingBlock: UVAHIK_clean_linker_0, # of connection points: 2
#     Edge 87, Type (0, 1), BuildingBlock: UVAHIK_clean_linker_0, # of connection points: 2
#     Edge 88, Type (0, 1), BuildingBlock: UVAHIK_clean_linker_0, # of connection points: 2
#     Edge 89, Type (0, 1), BuildingBlock: UVAHIK_clean_linker_0, # of connection points: 2
#     Edge 90, Type (0, 1), BuildingBlock: UVAHIK_clean_linker_0, # of connection points: 2
#     Edge 91, Type (0, 1), BuildingBlock: UVAHIK_clean_linker_0, # of connection points: 2
#     Edge 92, Type (0, 1), BuildingBlock: UVAHIK_clean_linker_0, # of connection points: 2
#     Edge 93, Type (0, 1), BuildingBlock: UVAHIK_clean_linker_0, # of connection points: 2
#     Edge 94, Type (0, 1), BuildingBlock: UVAHIK_clean_linker_0, # of connection points: 2
#     Edge 95, Type (0, 1), BuildingBlock: UVAHIK_clean_linker_0, # of connection points: 2
#     Edge 96, Type (0, 1), BuildingBlock: UVAHIK_clean_linker_0, # of connection points: 2
#     Edge 97, Type (0, 1), BuildingBlock: UVAHIK_clean_linker_0, # of connection points: 2
#     Edge 98, Type (0, 1), BuildingBlock: UVAHIK_clean_linker_0, # of connection points: 2
#     Edge 99, Type (0, 1), BuildingBlock: UVAHIK_clean_linker_0, # of connection points: 2
#     Edge 100, Type (0, 1), BuildingBlock: UVAHIK_clean_linker_0, # of connection points: 2
#     Edge 101, Type (0, 1), BuildingBlock: UVAHIK_clean_linker_0, # of connection points: 2
#     Edge 102, Type (0, 1), BuildingBlock: UVAHIK_clean_linker_0, # of connection points: 2
#     Edge 103, Type (0, 1), BuildingBlock: UVAHIK_clean_linker_0, # of connection points: 2
#     Edge 104, Type (0, 1), BuildingBlock: UVAHIK_clean_linker_0, # of connection points: 2
#     Edge 105, Type (0, 1), BuildingBlock: UVAHIK_clean_linker_0, # of connection points: 2
#     Edge 106, Type (0, 1), BuildingBlock: UVAHIK_clean_linker_0, # of connection points: 2
#     Edge 107, Type (0, 1), BuildingBlock: UVAHIK_clean_linker_0, # of connection points: 2
#     Edge 108, Type (0, 1), BuildingBlock: UVAHIK_clean_linker_0, # of connection points: 2
#     Edge 109, Type (0, 1), BuildingBlock: UVAHIK_clean_linker_0, # of connection points: 2
#     Edge 110, Type (0, 1), BuildingBlock: UVAHIK_clean_linker_0, # of connection points: 2
#     Edge 111, Type (0, 1), BuildingBlock: UVAHIK_clean_linker_0, # of connection points: 2
#     Edge 112, Type (0, 1), BuildingBlock: UVAHIK_clean_linker_0, # of connection points: 2
#     Edge 113, Type (0, 1), BuildingBlock: UVAHIK_clean_linker_0, # of connection points: 2
#     Edge 114, Type (0, 1), BuildingBlock: UVAHIK_clean_linker_0, # of connection points: 2
#     Edge 115, Type (0, 1), BuildingBlock: UVAHIK_clean_linker_0, # of connection points: 2
#     Edge 116, Type (0, 1), BuildingBlock: UVAHIK_clean_linker_0, # of connection points: 2
#     Edge 117, Type (0, 1), BuildingBlock: UVAHIK_clean_linker_0, # of connection points: 2
#     Edge 118, Type (0, 1), BuildingBlock: UVAHIK_clean_linker_0, # of connection points: 2
#     Edge 119, Type (0, 1), BuildingBlock: UVAHIK_clean_linker_0, # of connection points: 2
#     Edge 120, Type (0, 1), BuildingBlock: UVAHIK_clean_linker_0, # of connection points: 2
#     Edge 121, Type (0, 1), BuildingBlock: UVAHIK_clean_linker_0, # of connection points: 2
#     Edge 122, Type (0, 1), BuildingBlock: UVAHIK_clean_linker_0, # of connection points: 2
#     Edge 123, Type (0, 1), BuildingBlock: UVAHIK_clean_linker_0, # of connection points: 2
#     Edge 124, Type (0, 1), BuildingBlock: UVAHIK_clean_linker_0, # of connection points: 2
#     Edge 125, Type (0, 1), BuildingBlock: UVAHIK_clean_linker_0, # of connection points: 2
#     Edge 126, Type (0, 1), BuildingBlock: UVAHIK_clean_linker_0, # of connection points: 2
#     Edge 127, Type (0, 1), BuildingBlock: UVAHIK_clean_linker_0, # of connection points: 2
#     Edge 128, Type (0, 1), BuildingBlock: UVAHIK_clean_linker_0, # of connection points: 2
#     Edge 129, Type (0, 1), BuildingBlock: UVAHIK_clean_linker_0, # of connection points: 2
#     Edge 130, Type (0, 1), BuildingBlock: UVAHIK_clean_linker_0, # of connection points: 2
#     Edge 131, Type (0, 1), BuildingBlock: UVAHIK_clean_linker_0, # of connection points: 2
#     Edge 132, Type (0, 1), BuildingBlock: UVAHIK_clean_linker_0, # of connection points: 2
#     Edge 133, Type (0, 1), BuildingBlock: UVAHIK_clean_linker_0, # of connection points: 2
#     Edge 134, Type (0, 1), BuildingBlock: UVAHIK_clean_linker_0, # of connection points: 2
#     Edge 135, Type (0, 1), BuildingBlock: UVAHIK_clean_linker_0, # of connection points: 2
# Relax obj value: 0.109
# Max RMSD: 0.265
# Mean RMSD: 0.158
data_MOF--net-gar--node1-NAHDIM_clean_sbu_0--node2-MIFKUJ_clean_sbu_0--edge1-UVAHIK_clean_linker_0
_symmetry_space_group_name_H-M    P1
_symmetry_Int_Tables_number       1
_symmetry_cell_setting            triclinic
loop_
_symmetry_equiv_pos_as_xyz
'x, y, z'
_cell_length_a     72.781813
_cell_length_b     71.396676
_cell_length_c     67.817418
_cell_angle_alpha  94.366649
_cell_angle_beta   94.692241
_cell_angle_gamma 98.989642
loop_
_atom_site_label
_atom_site_type_symbol
_atom_site_fract_x
_atom_site_fract_y
_atom_site_fract_z
_atom_type_partial_charge
C0 C 0.04624 0.26176 0.36807 0.0
O1 O 0.03038 0.25719 0.35676 0.0
O2 O 0.02326 0.24542 0.42039 0.0
Zn3 Zn 0.02299 0.26573 0.40126 0.0
O4 O 0.02435 0.29107 0.41706 0.0
C5 C 0.98804 0.24518 0.38078 0.0
O6 O 0.99246 0.23098 0.39039 0.0
O7 O 0.046 0.26602 0.38658 0.0
C8 C 0.00938 0.29637 0.4221 0.0
O9 O 0.99328 0.28547 0.41636 0.0
C10 C 0.01177 0.24245 0.43341 0.0
O11 O 0.99843 0.2528 0.43464 0.0
O12 O -0.00075 0.26089 0.38258 0.0
C13 C 0.96613 0.76618 0.65819 0.0
O14 O 0.96584 0.76805 0.63905 0.0
O15 O 0.9948 0.73414 0.63354 0.0
Zn16 Zn 0.00181 0.75932 0.65007 0.0
O17 O 0.00418 0.78057 0.63194 0.0
C18 C 0.03806 0.74993 0.65889 0.0
O19 O 0.03337 0.74036 0.64141 0.0
O20 O 0.9809 0.7624 0.66729 0.0
C21 C 0.01749 0.78448 0.62114 0.0
O22 O 0.03132 0.77466 0.62188 0.0
C23 C 0.98837 0.73217 0.61536 0.0
O24 O 0.98544 0.74724 0.60639 0.0
O25 O 0.0265 0.75944 0.66634 0.0
C26 C 0.54966 0.77714 0.87794 0.0
O27 O 0.54345 0.79325 0.88158 0.0
O28 O 0.52285 0.74111 0.92086 0.0
Zn29 Zn 0.52126 0.76247 0.90315 0.0
O30 O 0.52491 0.78772 0.91978 0.0
C31 C 0.48201 0.74796 0.89164 0.0
O32 O 0.48394 0.73837 0.90724 0.0
O33 O 0.54204 0.76231 0.88525 0.0
C34 C 0.51102 0.79356 0.92698 0.0
O35 O 0.49446 0.78289 0.92361 0.0
C36 C 0.51745 0.74065 0.93822 0.0
O37 O 0.50999 0.75482 0.94582 0.0
O38 O 0.49617 0.75877 0.88668 0.0
C39 C 0.4682 0.26523 0.1571 0.0
O40 O 0.46859 0.26909 0.13849 0.0
O41 O 0.49518 0.22993 0.13187 0.0
Zn42 Zn 0.50288 0.25509 0.14836 0.0
O43 O 0.50655 0.27641 0.13036 0.0
C44 C 0.53881 0.24509 0.15692 0.0
O45 O 0.5342 0.23641 0.13902 0.0
O46 O 0.48206 0.25906 0.16548 0.0
C47 C 0.51503 0.27563 0.11472 0.0
O48 O 0.52242 0.26046 0.10996 0.0
C49 C 0.48581 0.22755 0.11495 0.0
O50 O 0.48004 0.24219 0.10726 0.0
O51 O 0.52728 0.25434 0.16482 0.0
C52 C 0.99026 0.78333 0.18228 0.0
O53 O 0.00286 0.79877 0.1831 0.0
O54 O 0.00861 0.7456 0.13491 0.0
Zn55 Zn 0.01269 0.76993 0.15281 0.0
O56 O 0.01297 0.79232 0.13628 0.0
C57 C 0.04184 0.75726 0.17678 0.0
O58 O 0.03093 0.74075 0.17228 0.0
O59 O 0.9916 0.76911 0.17035 0.0
C60 C 0.0234 0.8081 0.14203 0.0
O61 O 0.03428 0.80956 0.1587 0.0
C62 C 0.01992 0.742 0.12237 0.0
O63 O 0.03471 0.75471 0.12068 0.0
O64 O 0.03696 0.77204 0.17004 0.0
C65 C 0.53838 0.75836 0.37398 0.0
O66 O 0.54176 0.76664 0.39217 0.0
O67 O 0.49744 0.72782 0.40019 0.0
Zn68 Zn 0.50036 0.7508 0.38462 0.0
O69 O 0.504 0.77509 0.40264 0.0
C70 C 0.47092 0.73688 0.35307 0.0
O71 O 0.47996 0.72242 0.35089 0.0
O72 O 0.52183 0.75051 0.36774 0.0
C73 C 0.50584 0.79044 0.39414 0.0
O74 O 0.50581 0.78943 0.37471 0.0
C75 C 0.50791 0.72652 0.4158 0.0
O76 O 0.52123 0.74078 0.42235 0.0
O77 O 0.47703 0.75028 0.36654 0.0
C78 C 0.47459 0.26424 0.65786 0.0
O79 O 0.47062 0.25524 0.64002 0.0
O80 O 0.50668 0.24774 0.62757 0.0
Zn81 Zn 0.51124 0.2728 0.64436 0.0
O82 O 0.51115 0.29466 0.62712 0.0
C83 C 0.54072 0.26053 0.66803 0.0
O84 O 0.52974 0.24402 0.66386 0.0
O85 O 0.49107 0.27302 0.66291 0.0
C86 C 0.52633 0.30501 0.62408 0.0
O87 O 0.54223 0.30109 0.63198 0.0
C88 C 0.51764 0.24319 0.61503 0.0
O89 O 0.53239 0.25552 0.61223 0.0
O90 O 0.53577 0.27525 0.66119 0.0
C91 C 0.03669 0.25071 0.88287 0.0
O92 O 0.03784 0.24447 0.90058 0.0
O93 O 0.9972 0.22842 0.90529 0.0
Zn94 Zn -0.00034 0.25315 0.89261 0.0
O95 O 0.00367 0.27561 0.91313 0.0
C96 C 0.97015 0.24123 0.86083 0.0
O97 O 0.97928 0.227 0.8574 0.0
O98 O 0.02142 0.25534 0.87605 0.0
C99 C 0.98992 0.28255 0.91931 0.0
O100 O 0.97284 0.27439 0.91275 0.0
C101 C 0.00273 0.22715 0.92334 0.0
O102 O 0.01027 0.24265 0.93465 0.0
O103 O 0.97635 0.25388 0.87501 0.0
C104 C 0.36177 0.06066 0.2707 0.0
O105 O 0.37936 0.06771 0.27631 0.0
O106 O 0.39068 0.02683 0.24558 0.0
Zn107 Zn 0.37567 0.02493 0.26921 0.0
O108 O 0.39314 0.03067 0.29433 0.0
C109 C 0.3673 0.98449 0.25872 0.0
O110 O 0.38197 0.98818 0.24875 0.0
O111 O 0.35698 0.04275 0.26732 0.0
C112 C 0.40712 0.02197 0.29529 0.0
O113 O 0.40919 0.00999 0.28026 0.0
C114 C 0.40655 0.03722 0.2456 0.0
O115 O 0.41361 0.04849 0.26153 0.0
O116 O 0.36183 0.99807 0.26865 0.0
C117 C 0.28827 0.08819 0.49129 0.0
O118 O 0.27405 0.08384 0.47763 0.0
O119 O 0.27251 0.13635 0.5278 0.0
Zn120 Zn 0.27052 0.12086 0.50134 0.0
O121 O 0.27514 0.13822 0.47954 0.0
C122 C 0.23063 0.11298 0.49938 0.0
O123 O 0.23313 0.13137 0.50453 0.0
O124 O 0.28967 0.10336 0.5028 0.0
C125 C 0.26906 0.13262 0.46163 0.0
O126 O 0.25975 0.11528 0.45745 0.0
C127 C 0.27021 0.15367 0.52978 0.0
O128 O 0.2666 0.16239 0.51388 0.0
O129 O 0.24479 0.10507 0.49661 0.0
C130 C 0.16809 0.97561 0.79953 0.0
O131 O 0.16239 0.98013 0.81689 0.0
O132 O 0.13043 0.00027 0.7585 0.0
Zn133 Zn 0.14498 0.00255 0.78539 0.0
O134 O 0.12756 0.99808 0.8069 0.0
C135 C 0.15451 0.04239 0.78142 0.0
O136 O 0.13835 0.03891 0.77058 0.0
O137 O 0.16239 0.98334 0.78444 0.0
C138 C 0.11347 0.00657 0.80746 0.0
O139 O 0.11055 0.01835 0.79401 0.0
C140 C 0.11407 0.99105 0.75376 0.0
O141 O 0.10531 0.9815 0.76697 0.0
O142 O 0.16034 0.02892 0.78999 0.0
C143 C 0.2103 0.91052 0.01113 0.0
O144 O 0.20383 0.89384 0.00146 0.0
O145 O 0.2455 0.88042 0.03972 0.0
Zn146 Zn 0.24473 0.895 0.01549 0.0
O147 O 0.23692 0.87631 0.99116 0.0
C148 C 0.28427 0.89981 0.01441 0.0
O149 O 0.2812 0.88184 0.01805 0.0
O150 O 0.2273 0.91413 0.01824 0.0
C151 C 0.23946 0.85912 0.9918 0.0
O152 O 0.24665 0.85377 0.00843 0.0
C153 C 0.23077 0.87085 0.04501 0.0
O154 O 0.21459 0.87156 0.03525 0.0
O155 O 0.27055 0.90881 0.01281 0.0
C156 C 0.22101 0.41189 0.02476 0.0
O157 O 0.21646 0.39409 0.01726 0.0
O158 O 0.25303 0.38552 0.05998 0.0
Zn159 Zn 0.25616 0.39977 0.0356 0.0
O160 O 0.2528 0.38147 0.01089 0.0
C161 C 0.29519 0.41331 0.04995 0.0
O162 O 0.29204 0.40091 0.06312 0.0
O163 O 0.23728 0.41755 0.03348 0.0
C164 C 0.26638 0.37407 0.00492 0.0
O165 O 0.28274 0.37801 0.01537 0.0
C166 C 0.24284 0.36929 0.05959 0.0
O167 O 0.23376 0.36139 0.04272 0.0
O168 O 0.28196 0.41532 0.03724 0.0
C169 C 0.80442 0.10266 0.00293 0.0
O170 O 0.80189 0.1127 0.98778 0.0
O171 O 0.7905 0.14318 0.04862 0.0
Zn172 Zn 0.7818 0.12742 0.02264 0.0
O173 O 0.78304 0.14458 0.00028 0.0
C174 C 0.74341 0.12666 0.02812 0.0
O175 O 0.74931 0.1451 0.03107 0.0
O176 O 0.79729 0.10657 0.01893 0.0
C177 C 0.77038 0.14244 0.98585 0.0
O178 O 0.75666 0.12795 0.98474 0.0
C179 C 0.79632 0.16101 0.04982 0.0
O180 O 0.79764 0.16968 0.03347 0.0
O181 O 0.75504 0.11568 0.02419 0.0
C182 C 0.16266 0.46414 0.2838 0.0
O183 O 0.1541 0.46906 0.29924 0.0
O184 O 0.12684 0.48488 0.23667 0.0
Zn185 Zn 0.13993 0.48807 0.26415 0.0
O186 O 0.12091 0.4849 0.28394 0.0
C187 C 0.16667 0.52049 0.25797 0.0
O188 O 0.1706 0.50882 0.24356 0.0
O189 O 0.15841 0.47011 0.26713 0.0
C190 C 0.11013 0.49724 0.28531 0.0
O191 O 0.11173 0.51115 0.27363 0.0
C192 C 0.11141 0.47382 0.23192 0.0
O193 O 0.10399 0.46323 0.24517 0.0
O194 O 0.15399 0.51463 0.26888 0.0
C195 C 0.72077 0.91421 0.52628 0.0
O196 O 0.71533 0.89637 0.51925 0.0
O197 O 0.75073 0.88491 0.55923 0.0
Zn198 Zn 0.75446 0.89963 0.53528 0.0
O199 O 0.74938 0.88234 0.50995 0.0
C200 C 0.78818 0.92779 0.54657 0.0
O201 O 0.77746 0.9368 0.55726 0.0
O202 O 0.73739 0.9193 0.5343 0.0
C203 C 0.75896 0.86929 0.50622 0.0
O204 O 0.77198 0.86634 0.51969 0.0
C205 C 0.73966 0.8692 0.55876 0.0
O206 O 0.72996 0.86199 0.54197 0.0
O207 O 0.78125 0.91218 0.53654 0.0
C208 C 0.85306 0.0422 0.26349 0.0
O209 O 0.85765 0.035 0.2801 0.0
O210 O 0.89522 0.02131 0.22681 0.0
Zn211 Zn 0.87942 0.01996 0.24972 0.0
O212 O 0.89547 0.02534 0.2757 0.0
C213 C 0.85051 0.98751 0.23756 0.0
O214 O 0.84418 -0.00105 0.22533 0.0
O215 O 0.86092 0.03804 0.24805 0.0
C216 C 0.90927 0.01677 0.27918 0.0
O217 O 0.91363 0.005 0.26512 0.0
C218 C 0.90859 0.03477 0.22551 0.0
O219 O 0.91231 0.0489 0.23957 0.0
O220 O 0.86528 0.99348 0.24905 0.0
C221 C 0.29636 0.59914 0.50539 0.0
O222 O 0.2913 0.60619 0.48883 0.0
O223 O 0.28155 0.64201 0.54952 0.0
Zn224 Zn 0.27561 0.62651 0.52307 0.0
O225 O 0.28001 0.64366 0.50112 0.0
C226 C 0.24192 0.60151 0.53037 0.0
O227 O 0.25325 0.59475 0.54306 0.0
O228 O 0.29135 0.60573 0.52168 0.0
C229 C 0.26836 0.65476 0.4974 0.0
O230 O 0.25394 0.65455 0.50787 0.0
C231 C 0.29115 0.65865 0.55171 0.0
O232 O 0.29798 0.66618 0.53623 0.0
O233 O 0.24849 0.61485 0.52027 0.0
C234 C 0.35467 0.54184 0.76352 0.0
O235 O 0.35875 0.53421 0.78002 0.0
O236 O 0.39579 0.51884 0.72687 0.0
Zn237 Zn 0.37951 0.51789 0.74942 0.0
O238 O 0.39526 0.52174 0.77561 0.0
C239 C 0.349 0.48692 0.73661 0.0
O240 O 0.34367 0.49871 0.72418 0.0
O241 O 0.3623 0.53731 0.74804 0.0
C242 C 0.40924 0.51325 0.77838 0.0
O243 O 0.414 0.50274 0.76349 0.0
C244 C 0.40868 0.53279 0.72556 0.0
O245 O 0.41128 0.54733 0.73914 0.0
O246 O 0.36384 0.49208 0.74822 0.0
C247 C 0.67041 0.96772 0.78237 0.0
O248 O 0.6648 0.97754 0.79725 0.0
O249 O 0.63267 0.98424 0.73357 0.0
Zn250 Zn 0.64764 0.98924 0.76012 0.0
O251 O 0.62955 0.98989 0.78081 0.0
C252 C 0.66639 0.02407 0.74662 0.0
O253 O 0.65824 0.0166 0.72918 0.0
O254 O 0.66433 0.96984 0.76471 0.0
C255 C 0.61891 0.0024 0.78014 0.0
O256 O 0.62039 0.01427 0.76626 0.0
C257 C 0.61731 0.97279 0.73039 0.0
O258 O 0.6115 0.96236 0.7445 0.0
O259 O 0.66386 0.01491 0.76179 0.0
C260 C 0.78942 0.59294 0.99196 0.0
O261 O 0.77578 0.58948 0.97757 0.0
O262 O 0.77197 0.63893 0.03066 0.0
Zn263 Zn 0.76994 0.62347 0.0042 0.0
O264 O 0.77294 0.64087 0.98213 0.0
C265 C 0.72994 0.61391 -5e-05 0.0
O266 O 0.73133 0.63251 0.00272 0.0
O267 O 0.7899 0.60692 0.00487 0.0
C268 C 0.76441 0.63565 0.96502 0.0
O269 O 0.75403 0.61872 0.96187 0.0
C270 C 0.76812 0.65569 0.03275 0.0
O271 O 0.7627 0.66376 0.01699 0.0
O272 O 0.74476 0.60658 -4e-05 0.0
C273 C 0.86569 0.56154 0.76203 0.0
O274 O 0.88131 0.56764 0.77338 0.0
O275 O 0.89874 0.52684 0.7398 0.0
Zn276 Zn 0.8795 0.5254 0.75949 0.0
O277 O 0.89349 0.53 0.78669 0.0
C278 C 0.86749 0.48572 0.74503 0.0
O279 O 0.88141 0.48905 0.73394 0.0
O280 O 0.86225 0.54431 0.75471 0.0
C281 C 0.90326 0.5173 0.79085 0.0
O282 O 0.903 0.50271 0.77774 0.0
C283 C 0.91329 0.5395 0.74225 0.0
O284 O 0.91525 0.55257 0.75732 0.0
O285 O 0.86403 0.49912 0.75687 0.0
C286 C 0.70535 0.40579 0.52099 0.0
O287 O 0.69795 0.38768 0.51936 0.0
O288 O 0.73824 0.37452 0.54201 0.0
Zn289 Zn 0.7403 0.39111 0.51927 0.0
O290 O 0.73526 0.37419 0.49356 0.0
C291 C 0.78009 0.39943 0.53035 0.0
O292 O 0.77655 0.38413 0.53988 0.0
O293 O 0.72292 0.41041 0.521 0.0
C294 C 0.74383 0.35997 0.49265 0.0
O295 O 0.7549 0.35734 0.50812 0.0
C296 C 0.72664 0.35917 0.5415 0.0
O297 O 0.71427 0.35418 0.52605 0.0
O298 O 0.76672 0.40524 0.52063 0.0
C299 C 0.65217 0.46793 0.2896 0.0
O300 O 0.63398 0.46407 0.29022 0.0
O301 O 0.6307 0.50312 0.26145 0.0
Zn302 Zn 0.64374 0.50548 0.28912 0.0
O303 O 0.62516 0.50226 0.3096 0.0
C304 C 0.65546 0.54477 0.28461 0.0
O305 O 0.63973 0.54178 0.27302 0.0
O306 O 0.65989 0.48517 0.28972 0.0
C307 C 0.61103 0.51072 0.30888 0.0
O308 O 0.60873 0.52195 0.29472 0.0
C309 C 0.61442 0.49412 0.25577 0.0
O310 O 0.60452 0.48512 0.26855 0.0
O311 O 0.66016 0.5312 0.29392 0.0
Zn312 Zn 0.02936 0.01216 0.02534 0.0
Zn313 Zn 0.98957 0.00574 0.00611 0.0
C314 C 0.02787 0.98229 0.04904 0.0
O315 O 0.03553 0.99734 0.06097 0.0
C316 C 0.99185 0.03774 0.9846 0.0
O317 O 0.98435 0.02393 0.97105 0.0
O318 O 0.05685 0.0183 0.03472 0.0
O319 O 0.02751 0.01483 0.99604 0.0
O320 O 0.00411 0.99149 0.98752 0.0
C321 C 0.06937 0.0249 0.02391 0.0
O322 O 0.06431 0.03124 0.00696 0.0
O323 O 0.02304 0.98453 0.03101 0.0
C324 C 0.94953 0.99305 0.00714 0.0
O325 O 0.95457 0.98609 0.02375 0.0
O326 O 0.96208 0.00029 0.9967 0.0
O327 O 0.99162 0.00278 0.03548 0.0
O328 O 0.01448 0.0269 0.04287 0.0
O329 O 0.9962 0.03361 0.0021 0.0
C330 C 0.01878 0.00194 0.98322 0.0
C331 C -5e-05 0.01652 0.04761 0.0
Zn332 Zn 0.25991 0.75661 0.28539 0.0
Zn333 Zn 0.25799 0.75326 0.24196 0.0
C334 C 0.24088 0.71958 0.2886 0.0
O335 O 0.23268 0.72956 0.30128 0.0
C336 C 0.27874 0.78903 0.23891 0.0
O337 O 0.28649 0.77781 0.22702 0.0
O338 O 0.26331 0.75957 0.31536 0.0
O339 O 0.28506 0.7653 0.27588 0.0
O340 O 0.28036 0.74193 0.25213 0.0
C341 C 0.27762 0.75364 0.32304 0.0
O342 O 0.28961 0.74811 0.3113 0.0
O343 O 0.25357 0.72818 0.27922 0.0
C344 C 0.23946 0.75198 0.20292 0.0
O345 O 0.22504 0.75304 0.21315 0.0
O346 O 0.25496 0.75013 0.21202 0.0
O347 O 0.23288 0.74451 0.25154 0.0
O348 O 0.23733 0.7678 0.27535 0.0
O349 O 0.26503 0.78177 0.24785 0.0
C350 C 0.29147 0.75311 0.26489 0.0
C351 C 0.22631 0.75645 0.26267 0.0
Zn352 Zn 0.4882 0.00996 0.52186 0.0
Zn353 Zn 0.52896 0.01267 0.51564 0.0
C354 C 0.48953 0.04545 0.54384 0.0
O355 O 0.4787 0.03418 0.55408 0.0
C356 C 0.52628 0.97919 0.49097 0.0
O357 O 0.5353 0.99206 0.48085 0.0
O358 O 0.46032 0.00618 0.52324 0.0
O359 O 0.49241 0.00383 0.49343 0.0
O360 O 0.51697 0.02618 0.49406 0.0
C361 C 0.44833 0.99791 0.50936 0.0
O362 O 0.45404 0.98934 0.49371 0.0
O363 O 0.49618 0.03825 0.52881 0.0
C364 C 0.56538 0.00874 0.52869 0.0
O365 O 0.55549 0.0004 0.54187 0.0
O366 O 0.55704 0.01653 0.51509 0.0
O367 O 0.52429 0.01892 0.54407 0.0
O368 O 0.50013 0.99618 0.54303 0.0
O369 O 0.52137 0.98443 0.50782 0.0
C370 C 0.5025 0.01611 0.48463 0.0
C371 C 0.51455 0.00614 0.55258 0.0
Zn372 Zn 0.27636 0.26166 0.76455 0.0
Zn373 Zn 0.23635 0.26765 0.76794 0.0
C374 C 0.27427 0.23727 0.73018 0.0
O375 O 0.2819 0.22802 0.74384 0.0
C376 C 0.24423 0.29144 0.80311 0.0
O377 O 0.23531 0.3014 0.79119 0.0
O378 O 0.30417 0.26168 0.76755 0.0
O379 O 0.2732 0.28915 0.77005 0.0
O380 O 0.24694 0.28801 0.7512 0.0
C381 C 0.31356 0.27446 0.75867 0.0
O382 O 0.3048 0.28683 0.75 0.0
O383 O 0.26961 0.25324 0.73537 0.0
C384 C 0.20293 0.25626 0.78271 0.0
O385 O 0.21442 0.24585 0.79069 0.0
O386 O 0.20888 0.26762 0.77021 0.0
O387 O 0.23849 0.24073 0.75925 0.0
O388 O 0.26335 0.24091 0.77985 0.0
O389 O 0.2474 0.27523 0.79641 0.0
C390 C 0.26254 0.29725 0.7589 0.0
C391 C 0.24825 0.23197 0.77059 0.0
Zn392 Zn 0.01517 0.98797 0.51671 0.0
Zn393 Zn 0.00919 0.02907 0.51785 0.0
C394 C 0.03819 0.99211 0.55262 0.0
O395 O 0.04928 0.98605 0.54009 0.0
C396 C 0.98653 0.02797 0.48252 0.0
O397 O 0.97739 0.03637 0.49558 0.0
O398 O 0.01646 0.9599 0.51376 0.0
O399 O 0.98806 0.99048 0.51033 0.0
O400 O 0.98943 0.01484 0.53254 0.0
C401 C 0.00418 0.94975 0.52242 0.0
O402 O 0.99151 0.95798 0.53084 0.0
O403 O 0.02199 0.99467 0.54608 0.0
C404 C 0.02062 0.06717 0.5127 0.0
O405 O 0.032 0.05856 0.50255 0.0
O406 O 0.00867 0.0572 0.5219 0.0
O407 O 0.03589 0.02648 0.52453 0.0
O408 O 0.03557 0.0024 0.50233 0.0
O409 O 0.0017 0.02254 0.4885 0.0
C410 C 0.98022 -0.00013 0.52296 0.0
C411 C 0.04424 0.01758 0.51207 0.0
Zn412 Zn 0.26118 0.77533 0.76872 0.0
Zn413 Zn 0.2615 0.73387 0.77754 0.0
C414 C 0.2283 0.76612 0.74235 0.0
O415 O 0.24036 0.77318 0.73037 0.0
C416 C 0.29344 0.73703 0.80471 0.0
O417 O 0.28058 0.7276 0.81434 0.0
O418 O 0.26216 0.80375 0.76819 0.0
O419 O 0.26765 0.77143 0.79738 0.0
O420 O 0.24592 0.74631 0.79633 0.0
C421 C 0.25274 0.81039 0.78129 0.0
O422 O 0.24424 0.7987 0.79295 0.0
O423 O 0.23397 0.76481 0.76036 0.0
C424 C 0.24986 0.69338 0.76577 0.0
O425 O 0.24171 0.69919 0.74989 0.0
O426 O 0.25761 0.70559 0.7798 0.0
O427 O 0.25875 0.73712 0.74834 0.0
O428 O 0.2769 0.76488 0.74869 0.0
O429 O 0.28867 0.74218 0.78775 0.0
C430 C 0.25524 0.76127 0.8058 0.0
C431 C 0.27056 0.74836 0.74022 0.0
Zn432 Zn 0.51507 0.02395 0.99028 0.0
Zn433 Zn 0.50798 0.01283 0.03173 0.0
C434 C 0.54778 0.05073 0.00135 0.0
O435 O 0.53689 0.06148 0.99292 0.0
C436 C 0.47547 0.9859 0.02188 0.0
O437 O 0.48635 0.97615 0.03187 0.0
O438 O 0.51672 0.02604 0.961 0.0
O439 O 0.5084 0.9958 0.99228 0.0
O440 O 0.52454 0.99511 0.02094 0.0
C441 C 0.52747 0.01517 0.95425 0.0
O442 O 0.53581 0.00512 0.96657 0.0
O443 O 0.54137 0.0333 0.00264 0.0
C444 C 0.49161 0.01704 0.06651 0.0
O445 O 0.4812 0.02466 0.05364 0.0
O446 O 0.50575 0.01041 0.06089 0.0
O447 O 0.51429 0.04096 0.03006 0.0
O448 O 0.49823 0.04133 0.00131 0.0
O449 O 0.48182 0.00297 0.01888 0.0
C450 C 0.51801 0.98709 0.00388 0.0
C451 C 0.50374 0.04898 0.01877 0.0
Zn452 Zn 0.25928 0.24288 0.25608 0.0
Zn453 Zn 0.2608 0.28042 0.28183 0.0
C454 C 0.28984 0.25407 0.23466 0.0
O455 O 0.27611 0.24924 0.22049 0.0
C456 C 0.22973 0.27115 0.3033 0.0
O457 O 0.24317 0.27691 0.31762 0.0
O458 O 0.256 0.21619 0.24299 0.0
O459 O 0.25626 0.23954 0.2848 0.0
O460 O 0.27669 0.26447 0.29703 0.0
C461 C 0.24699 0.20223 0.25054 0.0
O462 O 0.23676 0.20561 0.26508 0.0
O463 O 0.28626 0.25309 0.25263 0.0
C464 C 0.27469 0.3208 0.2879 0.0
O465 O 0.28468 0.31708 0.27324 0.0
O466 O 0.26488 0.30708 0.29505 0.0
O467 O 0.26322 0.2837 0.25282 0.0
O468 O 0.24301 0.25842 0.24103 0.0
O469 O 0.2338 0.2707 0.2854 0.0
C470 C 0.26865 0.24754 0.29837 0.0
C471 C 0.25096 0.27529 0.23928 0.0
Zn472 Zn 0.52066 0.48023 0.01549 0.0
Zn473 Zn 0.51175 0.52052 0.01443 0.0
C474 C 0.5456 0.48796 0.05036 0.0
O475 O 0.5568 0.48263 0.03755 0.0
C476 C 0.48685 0.51577 0.9803 0.0
O477 O 0.47766 0.52373 0.99364 0.0
O478 O 0.52423 0.45276 0.01378 0.0
O479 O 0.49295 0.48068 0.01088 0.0
O480 O 0.49364 0.5064 0.03113 0.0
C481 C 0.51163 0.43885 0.00703 0.0
O482 O 0.49573 0.44225 -0.00138 0.0
O483 O 0.52877 0.48876 0.0443 0.0
C484 C 0.51991 0.55724 0.00432 0.0
O485 O 0.52894 0.54735 0.99243 0.0
O486 O 0.51026 0.54858 0.01669 0.0
O487 O 0.53906 0.51985 0.01978 0.0
O488 O 0.53892 0.49482 -0.00111 0.0
O489 O 0.50287 0.51191 0.9857 0.0
C490 C 0.48495 0.49052 0.02294 0.0
C491 C 0.5471 0.51089 0.00709 0.0
Zn492 Zn 0.76095 0.27451 0.2649 0.0
Zn493 Zn 0.76439 0.23459 0.27658 0.0
C494 C 0.72862 0.25955 0.23931 0.0
O495 O 0.73967 0.2676 0.22689 0.0
C496 C 0.79688 0.23487 0.30277 0.0
O497 O 0.78441 0.22423 0.31185 0.0
O498 O 0.75684 0.30155 0.26213 0.0
O499 O 0.76925 0.27404 0.29367 0.0
O500 O 0.74932 0.24802 0.29538 0.0
C501 C 0.7434 0.30508 0.27194 0.0
O502 O 0.73546 0.29191 0.28245 0.0
O503 O 0.7349 0.25949 0.25736 0.0
C504 C 0.75088 0.19442 0.26508 0.0
O505 O 0.74344 0.20061 0.24903 0.0
O506 O 0.75902 0.20638 0.27913 0.0
O507 O 0.76314 0.23697 0.24699 0.0
O508 O 0.7782 0.26605 0.24576 0.0
O509 O 0.79156 0.24194 0.28705 0.0
C510 C 0.75815 0.26384 0.30352 0.0
C511 C 0.77377 0.24891 0.2383 0.0
Zn512 Zn 0.00706 0.52006 0.49716 0.0
Zn513 Zn 0.00597 0.51318 0.54061 0.0
C514 C 0.04291 0.54168 0.50206 0.0
O515 O 0.03361 0.55187 0.49077 0.0
C516 C 0.97231 0.48853 0.54179 0.0
O517 O 0.98444 0.47953 0.55098 0.0
O518 O 0.00779 0.51974 0.4674 0.0
O519 O 0.99665 0.49326 0.50176 0.0
O520 O 0.01805 0.49305 0.52635 0.0
C521 C 0.01644 0.50672 0.46095 0.0
O522 O 0.02323 0.49598 0.47365 0.0
O523 O 0.03421 0.52654 0.50785 0.0
C524 C 0.02041 0.52513 0.58191 0.0
O525 O 0.02992 0.53983 0.57471 0.0
O526 O 0.01069 0.51197 0.57004 0.0
O527 O 0.01145 0.54105 0.53603 0.0
O528 O 0.99373 0.54055 0.50803 0.0
O529 O 0.97818 0.5044 0.53529 0.0
C530 C 0.00754 0.48432 0.51152 0.0
C531 C 0.00094 0.54908 0.52465 0.0
Zn532 Zn 0.77981 0.76266 0.26891 0.0
Zn533 Zn 0.73868 0.76596 0.26783 0.0
C534 C 0.77968 0.73983 0.23376 0.0
O535 O 0.78793 0.73071 0.24711 0.0
C536 C 0.73951 0.78796 0.30366 0.0
O537 O 0.72982 0.79665 0.2911 0.0
O538 O 0.80785 0.76349 0.27283 0.0
O539 O 0.77486 0.78937 0.27544 0.0
O540 O 0.7509 0.78723 0.25306 0.0
C541 C 0.81849 0.7788 0.27009 0.0
O542 O 0.81105 0.79397 0.26664 0.0
O543 O 0.77401 0.75516 0.23945 0.0
C544 C 0.7018 0.7516 0.27401 0.0
O545 O 0.71105 0.73918 0.2819 0.0
O546 O 0.71071 0.7649 0.26539 0.0
O547 O 0.74313 0.73945 0.26036 0.0
O548 O 0.7668 0.74107 0.283 0.0
O549 O 0.74588 0.77331 0.29717 0.0
C550 C 0.76525 0.79709 0.26286 0.0
C551 C 0.75263 0.73138 0.27269 0.0
Zn552 Zn 0.75405 0.25823 0.78662 0.0
Zn553 Zn 0.75836 0.25579 0.74404 0.0
C554 C 0.7548 0.21789 0.78678 0.0
O555 O 0.76605 0.22333 0.80305 0.0
C556 C 0.78063 0.2907 0.7411 0.0
O557 O 0.78962 0.27855 0.73195 0.0
O558 O 0.752 0.25828 0.81607 0.0
O559 O 0.78082 0.2673 0.78222 0.0
O560 O 0.77917 0.24464 0.75805 0.0
C561 C 0.76574 0.26376 0.82911 0.0
O562 O 0.78162 0.27221 0.82363 0.0
O563 O 0.74819 0.23033 0.7772 0.0
C564 C 0.74477 0.24497 0.70232 0.0
O565 O 0.72898 0.2381 0.70919 0.0
O566 O 0.75903 0.25123 0.71447 0.0
O567 O 0.73148 0.24855 0.7496 0.0
O568 O 0.73368 0.27097 0.77407 0.0
O569 O 0.76575 0.28433 0.74868 0.0
C570 C 0.78866 0.25551 0.77226 0.0
C571 C 0.72394 0.26035 0.75986 0.0
Zn572 Zn 0.75638 0.74202 0.75475 0.0
Zn573 Zn 0.75875 0.7799 0.78036 0.0
C574 C 0.78748 0.75404 0.73493 0.0
O575 O 0.77412 0.74852 0.72047 0.0
C576 C 0.7285 0.77524 0.80368 0.0
O577 O 0.74276 0.78024 0.81723 0.0
O578 O 0.75492 0.71563 0.74132 0.0
O579 O 0.75137 0.73857 0.78295 0.0
O580 O 0.77299 0.76235 0.79539 0.0
C581 C 0.74735 0.70071 0.7485 0.0
O582 O 0.7373 0.70243 0.76356 0.0
O583 O 0.78346 0.75327 0.75279 0.0
C584 C 0.77503 0.81988 0.78507 0.0
O585 O 0.78245 0.81568 0.76861 0.0
O586 O 0.76593 0.80657 0.79347 0.0
O587 O 0.75984 0.78259 0.75094 0.0
O588 O 0.74014 0.75694 0.739 0.0
O589 O 0.73165 0.77326 0.78553 0.0
C590 C 0.76335 0.7462 0.79706 0.0
C591 C 0.74772 0.77395 0.73736 0.0
Zn592 Zn 0.52681 0.5165 0.52132 0.0
Zn593 Zn 0.48588 0.50897 0.50771 0.0
C594 C 0.53067 0.48415 0.54039 0.0
O595 O 0.54064 0.49808 0.55232 0.0
C596 C 0.48329 0.54237 0.48915 0.0
O597 O 0.47349 0.5292 0.47619 0.0
O598 O 0.55494 0.52315 0.52713 0.0
O599 O 0.52089 0.52179 0.49303 0.0
O600 O 0.49908 0.49671 0.48625 0.0
C601 C 0.56496 0.51998 0.51311 0.0
O602 O 0.55681 0.5155 0.49501 0.0
O603 O 0.52205 0.48814 0.52456 0.0
C604 C 0.44661 0.49654 0.51354 0.0
O605 O 0.45328 0.49223 0.5309 0.0
O606 O 0.45791 0.50224 0.50109 0.0
O607 O 0.49144 0.50438 0.53641 0.0
O608 O 0.51392 0.52901 0.54272 0.0
O609 O 0.49075 0.53734 0.5051 0.0
C610 C 0.51212 0.50854 0.48064 0.0
C611 C 0.50052 0.51775 0.54851 0.0
Zn612 Zn 0.98935 0.51282 0.01827 0.0
Zn613 Zn 0.02986 0.51522 0.01246 0.0
C614 C 0.98995 0.54849 0.03891 0.0
O615 O 0.97924 0.53716 0.0492 0.0
C616 C 0.02591 0.47919 0.99121 0.0
O617 O 0.0353 0.49002 0.97939 0.0
O618 O 0.96139 0.50872 0.0195 0.0
O619 O 0.99386 0.50529 0.99017 0.0
O620 O 0.01812 0.52784 0.98991 0.0
C621 C 0.94957 0.50177 0.00492 0.0
O622 O 0.95548 0.49469 0.9886 0.0
O623 O 0.99688 0.54129 0.02408 0.0
C624 C 0.06537 0.50864 0.0248 0.0
O625 O 0.05486 0.5005 0.0376 0.0
O626 O 0.05784 0.51746 0.01154 0.0
O627 O 0.02565 0.5232 0.04063 0.0
O628 O 0.00161 0.50045 0.04038 0.0
O629 O 0.02123 0.48687 0.00716 0.0
C630 C 0.00384 0.51716 0.98084 0.0
C631 C 0.01614 0.51058 0.04957 0.0
C632 C 0.00788 0.20651 0.95097 0.0
C633 C 0.00127 0.20827 0.93124 0.0
C634 C 0.00679 0.18857 0.95819 0.0
C635 C 0.98206 0.13903 0.94796 0.0
H636 H 0.02446 0.12624 0.97957 0.0
C637 C 0.98842 0.06182 0.96036 0.0
C638 C 0.99415 0.05772 0.97962 0.0
C639 C 0.98948 0.08061 0.95568 0.0
C640 C 0.01243 0.12969 0.97097 0.0
H641 H 0.98835 0.19257 0.90362 0.0
H642 H 0.98663 0.16139 0.91613 0.0
H643 H 0.02562 0.15845 0.96926 0.0
H644 H 0.00595 0.07015 0.00899 0.0
H645 H 0.00782 0.10316 0.00075 0.0
H646 H 0.96896 0.11026 0.9494 0.0
C647 C 0.99241 0.17386 0.92614 0.0
C648 C 0.01308 0.14813 0.96508 0.0
C649 C 0.9935 0.19174 0.91893 0.0
C650 C 0.0014 0.07286 0.99402 0.0
C651 C 0.00253 0.09174 0.9893 0.0
C652 C 0.98143 0.12064 0.9538 0.0
C653 C -0.00096 0.17205 0.94584 0.0
C654 C 0.99799 0.15291 0.95326 0.0
C655 C 0.99633 0.09578 0.97014 0.0
C656 C 0.99671 0.11568 0.9651 0.0
H657 H 0.01393 0.21898 0.96084 0.0
H658 H 0.01187 0.18765 0.9735 0.0
H659 H 0.97004 0.14236 0.93924 0.0
H660 H 0.98287 0.05051 0.94887 0.0
H661 H 0.98493 0.08326 0.94069 0.0
C662 C 0.06674 0.74192 0.19358 0.0
C663 C 0.05971 0.75853 0.18927 0.0
C664 C 0.08383 0.74304 0.20493 0.0
C665 C 0.12777 0.77627 0.22106 0.0
H666 H 0.13625 0.73662 0.25514 0.0
C667 C 0.19961 0.77473 0.26403 0.0
C668 C 0.20621 0.75754 0.25975 0.0
C669 C 0.18087 0.77608 0.25884 0.0
C670 C 0.13404 0.74784 0.24575 0.0
H671 H 0.06488 0.78937 0.1939 0.0
H672 H 0.09452 0.79133 0.21415 0.0
H673 H 0.10489 0.73695 0.23956 0.0
H674 H 0.19831 0.72809 0.24772 0.0
H675 H 0.16563 0.73036 0.23908 0.0
H676 H 0.15702 0.78703 0.22725 0.0
C677 C 0.08703 0.77742 0.20838 0.0
C678 C 0.11612 0.74797 0.2367 0.0
C679 C 0.07 0.7763 0.19685 0.0
C680 C 0.19361 0.74154 0.25112 0.0
C681 C 0.17488 0.7428 0.24628 0.0
C682 C 0.14565 0.77625 0.23031 0.0
C683 C 0.09424 0.76081 0.21246 0.0
C684 C 0.11284 0.76189 0.22382 0.0
C685 C 0.1684 0.76017 0.2497 0.0
C686 C 0.14903 0.76177 0.24234 0.0
H687 H 0.05921 0.72801 0.18788 0.0
H688 H 0.08908 0.72995 0.20739 0.0
H689 H 0.12586 0.78709 0.21108 0.0
H690 H 0.20907 0.78729 0.2706 0.0
H691 H 0.17617 0.78962 0.26168 0.0
C692 C 0.51015 0.82595 0.39607 0.0
C693 C 0.50723 0.80914 0.40568 0.0
C694 C 0.51076 0.84363 0.4066 0.0
C695 C 0.51795 0.86849 0.45707 0.0
H696 H 0.49509 0.90661 0.43069 0.0
C697 C 0.516 0.94436 0.4943 0.0
C698 C 0.52189 0.95913 0.48252 0.0
C699 C 0.51257 0.92538 0.4861 0.0
C700 C 0.50156 0.89611 0.43823 0.0
H701 H 0.50287 0.79772 0.43398 0.0
H702 H 0.50373 0.8287 0.45238 0.0
H703 H 0.4924 0.87462 0.41427 0.0
H704 H 0.52844 0.96565 0.45289 0.0
H705 H 0.52235 0.93275 0.43868 0.0
H706 H 0.5272 0.8902 0.48101 0.0
C707 C 0.50573 0.82817 0.43671 0.0
C708 C 0.50009 0.87781 0.42881 0.0
C709 C 0.50518 0.81043 0.42615 0.0
C710 C 0.52397 0.95461 0.46239 0.0
C711 C 0.52036 0.93575 0.45419 0.0
C712 C 0.51934 0.88684 0.46657 0.0
C713 C 0.50836 0.84497 0.42699 0.0
C714 C 0.50863 0.8639 0.4379 0.0
C715 C 0.5147 0.92093 0.46594 0.0
C716 C 0.5115 0.90093 0.45703 0.0
H717 H 0.51193 0.8255 0.38035 0.0
H718 H 0.51323 0.8563 0.39874 0.0
H719 H 0.52478 0.85814 0.46444 0.0
H720 H 0.51431 0.94743 0.50987 0.0
H721 H 0.50815 0.91421 0.49546 0.0
C722 C 0.44166 0.25509 0.66608 0.0
C723 C 0.46007 0.26413 0.67193 0.0
C724 C 0.42787 0.25522 0.67923 0.0
C725 C 0.41634 0.28235 0.72354 0.0
H726 H 0.37675 0.23908 0.72307 0.0
C727 C 0.34155 0.25786 0.75915 0.0
C728 C 0.33333 0.27397 0.75549 0.0
C729 C 0.35925 0.25638 0.75313 0.0
C730 C 0.38786 0.25119 0.7237 0.0
H731 H 0.47853 0.28008 0.69633 0.0
H732 H 0.45446 0.28017 0.71931 0.0
H733 H 0.40343 0.23619 0.70425 0.0
H734 H 0.33769 0.30164 0.74388 0.0
H735 H 0.3683 0.29901 0.73331 0.0
H736 H 0.40069 0.29739 0.74287 0.0
C737 C 0.45065 0.27319 0.70447 0.0
C738 C 0.40303 0.24961 0.71267 0.0
C739 C 0.46445 0.27309 0.69131 0.0
C740 C 0.34359 0.289 0.74682 0.0
C741 C 0.36124 0.28755 0.74089 0.0
C742 C 0.40119 0.28392 0.7346 0.0
C743 C 0.43217 0.26435 0.69855 0.0
C744 C 0.4172 0.26533 0.71205 0.0
C745 C 0.36908 0.27102 0.74347 0.0
C746 C 0.38653 0.26851 0.73439 0.0
H747 H 0.43781 0.24808 0.65126 0.0
H748 H 0.41372 0.24856 0.67405 0.0
H749 H 0.42697 0.29477 0.72334 0.0
H750 H 0.334 0.24606 0.76585 0.0
H751 H 0.36503 0.24356 0.75555 0.0
C752 C 0.03223 0.80517 0.59649 0.0
C753 C 0.01696 0.79949 0.60732 0.0
C754 C 0.03158 0.81934 0.5834 0.0
C755 C -0.00139 0.84412 0.55509 0.0
H756 H 0.04015 0.88587 0.55891 0.0
C757 C 0.9906 0.91845 0.53333 0.0
C758 C 0.00538 0.9297 0.5255 0.0
C759 C 0.99248 0.90044 0.53904 0.0
C760 C 0.02859 0.87414 0.5573 0.0
H761 H 0.98896 0.8041 0.61274 0.0
H762 H 0.98788 0.82879 0.59005 0.0
H763 H 0.0428 0.85834 0.5775 0.0
H764 H 0.03339 0.9305 0.51653 0.0
H765 H 0.03668 0.89886 0.5265 0.0
H766 H 0.98421 0.86011 0.53532 0.0
C767 C 0.00029 0.82219 0.59151 0.0
C768 C 0.0301 0.85838 0.56801 0.0
C769 C 0.00098 0.80815 0.60466 0.0
C770 C 0.02177 0.92216 0.52255 0.0
C771 C 0.02369 0.90411 0.52838 0.0
C772 C 0.99713 0.85983 0.54435 0.0
C773 C 0.01558 0.82797 0.58076 0.0
C774 C 0.01492 0.84347 0.56745 0.0
C775 C 0.00921 0.89324 0.5371 0.0
C776 C 0.01189 0.87527 0.54579 0.0
H777 H 0.04473 0.79873 0.59817 0.0
H778 H 0.04354 0.82345 0.57525 0.0
H779 H 0.98682 0.83265 0.55406 0.0
H780 H 0.97776 0.92381 0.53573 0.0
H781 H 0.98113 0.89258 0.54591 0.0
C782 C 0.46084 0.75724 0.86415 0.0
C783 C 0.46324 0.74747 0.88119 0.0
C784 C 0.44292 0.75754 0.85507 0.0
C785 C 0.39393 0.7525 0.86624 0.0
H786 H 0.38174 0.74214 0.80933 0.0
C787 C 0.31811 0.73407 0.83159 0.0
C788 C 0.31319 0.74072 0.81323 0.0
C789 C 0.33674 0.73667 0.83945 0.0
C790 C 0.38498 0.74539 0.82521 0.0
H791 H 0.44869 0.73008 0.9018 0.0
H792 H 0.41757 0.73066 0.88601 0.0
H793 H 0.41387 0.7431 0.82359 0.0
H794 H 0.324 0.75561 0.78885 0.0
H795 H 0.35666 0.7604 0.80276 0.0
H796 H 0.36518 0.75481 0.868 0.0
C797 C 0.42951 0.73822 0.87978 0.0
C798 C 0.40337 0.74588 0.83336 0.0
C799 C 0.44738 0.73778 0.88873 0.0
C800 C 0.32735 0.75029 0.80302 0.0
C801 C 0.34606 0.75293 0.81093 0.0
C802 C 0.37563 0.75214 0.85811 0.0
C803 C 0.42706 0.74824 0.86297 0.0
C804 C 0.40794 0.74908 0.85401 0.0
C805 C 0.35097 0.74607 0.82922 0.0
C806 C 0.37082 0.7482 0.83754 0.0
H807 H 0.47279 0.76484 0.85796 0.0
H808 H 0.44143 0.76542 0.84216 0.0
H809 H 0.39713 0.7554 0.88217 0.0
H810 H 0.30759 0.72657 0.83983 0.0
H811 H 0.34001 0.7309 0.85339 0.0
C812 C 0.47535 0.20633 0.0835 0.0
C813 C 0.48257 0.20863 0.10357 0.0
C814 C 0.47353 0.18862 0.07251 0.0
C815 C 0.47207 0.13723 0.07799 0.0
H816 H 0.49338 0.13589 0.02741 0.0
C817 C 0.50114 0.07276 0.04678 0.0
C818 C 0.4979 0.06689 0.02637 0.0
C819 C 0.49573 0.08951 0.05439 0.0
C820 C 0.48704 0.13603 0.04131 0.0
H821 H 0.49304 0.19405 0.12798 0.0
H822 H 0.4899 0.16333 0.10889 0.0
H823 H 0.48992 0.16646 0.0443 0.0
H824 H 0.4864 0.074 0.99791 0.0
H825 H 0.4771 0.10367 0.01132 0.0
H826 H 0.4698 0.10689 0.07539 0.0
C827 C 0.4855 0.17511 0.10163 0.0
C828 C 0.48506 0.15352 0.05099 0.0
C829 C 0.48744 0.19278 0.11255 0.0
C830 C 0.48908 0.07818 0.0137 0.0
C831 C 0.4838 0.09514 0.02135 0.0
C832 C 0.47406 0.11979 0.06836 0.0
C833 C 0.47872 0.17286 0.08145 0.0
C834 C 0.4781 0.15432 0.06973 0.0
C835 C 0.48703 0.10091 0.04181 0.0
C836 C 0.48212 0.11905 0.05024 0.0
H837 H 0.47147 0.21828 0.07615 0.0
H838 H 0.46816 0.18728 0.057 0.0
H839 H 0.4663 0.13737 0.09222 0.0
H840 H 0.50784 0.06439 0.05699 0.0
H841 H 0.49872 0.09372 0.07016 0.0
C842 C 0.08101 0.26402 0.37225 0.0
C843 C 0.06431 0.26119 0.35963 0.0
C844 C 0.09806 0.26297 0.36455 0.0
C845 C 0.12208 0.26732 0.31926 0.0
H846 H 0.15764 0.24136 0.34756 0.0
C847 C 0.19525 0.26268 0.29302 0.0
C848 C 0.21014 0.26662 0.30808 0.0
C849 C 0.17673 0.25976 0.29784 0.0
C850 C 0.14792 0.24876 0.33953 0.0
H851 H 0.0525 0.25525 0.32895 0.0
H852 H 0.08244 0.25354 0.31548 0.0
H853 H 0.12661 0.24095 0.35871 0.0
H854 H 0.21726 0.2701 0.34 0.0
H855 H 0.18516 0.2652 0.34835 0.0
H856 H 0.14359 0.27554 0.30038 0.0
C857 C 0.08224 0.25658 0.33135 0.0
C858 C 0.13014 0.24851 0.34592 0.0
C859 C 0.06511 0.2575 0.33908 0.0
C860 C 0.20614 0.26709 0.32801 0.0
C861 C 0.1877 0.26415 0.33282 0.0
C862 C 0.13993 0.26762 0.31289 0.0
C863 C 0.09888 0.25916 0.34404 0.0
C864 C 0.11715 0.25809 0.3361 0.0
C865 C 0.17275 0.26063 0.31782 0.0
C866 C 0.15318 0.25865 0.3232 0.0
H867 H 0.08094 0.26693 0.38815 0.0
H868 H 0.11066 0.26535 0.37469 0.0
H869 H 0.11241 0.27493 0.31146 0.0
H870 H 0.19788 0.26219 0.27751 0.0
H871 H 0.16553 0.25688 0.28594 0.0
C872 C 0.93472 0.04904 0.20647 0.0
C873 C 0.92008 0.03414 0.20852 0.0
C874 C 0.94563 0.04814 0.19046 0.0
C875 C 0.95917 0.01374 0.15308 0.0
H876 H 0.96996 0.05718 0.12244 0.0
C877 C 0.97914 0.00594 0.07347 0.0
C878 C 0.99326 0.01948 0.06744 0.0
C879 C 0.97248 0.00853 0.092 0.0
C880 C 0.96733 0.04504 0.13104 0.0
H881 H 0.90538 0.00668 0.19529 0.0
H882 H 0.92425 0.00521 0.16745 0.0
H883 H 0.95397 0.06036 0.15257 0.0
H884 H 0.01153 0.04635 0.07624 0.0
H885 H -0.00026 0.05092 0.10881 0.0
H886 H 0.97211 0.99829 0.1314 0.0
C887 C 0.92749 0.01747 0.17832 0.0
C888 C 0.95817 0.04685 0.14828 0.0
C889 C 0.91657 0.01839 0.19422 0.0
C890 C 0.00064 0.03567 0.08046 0.0
C891 C 0.99385 0.03833 0.09904 0.0
C892 C 0.96828 0.01194 0.1359 0.0
C893 C 0.94218 0.03228 0.17628 0.0
C894 C 0.9536 0.03108 0.1592 0.0
C895 C 0.97972 0.02474 0.10499 0.0
C896 C 0.97207 0.02742 0.12443 0.0
H897 H 0.93779 0.06137 0.21724 0.0
H898 H 0.95692 0.05973 0.18932 0.0
H899 H 0.95622 0.00145 0.16143 0.0
H900 H 0.97315 0.99328 0.06385 0.0
H901 H 0.96139 0.99794 0.096 0.0
C902 C 0.25693 0.67819 0.4757 0.0
C903 C 0.27095 0.6677 0.48147 0.0
C904 C 0.25912 0.69002 0.46028 0.0
C905 C 0.28535 0.69685 0.41639 0.0
H906 H 0.26659 0.74484 0.41699 0.0
C907 C 0.29546 0.74373 0.35233 0.0
C908 C 0.27919 0.74964 0.34412 0.0
C909 C 0.29596 0.73658 0.3709 0.0
C910 C 0.27185 0.73145 0.41663 0.0
H911 H 0.29854 0.66183 0.47601 0.0
H912 H 0.30252 0.68272 0.44937 0.0
H913 H 0.26469 0.72653 0.44602 0.0
H914 H 0.25111 0.75392 0.34954 0.0
H915 H 0.25196 0.74131 0.38204 0.0
H916 H 0.29236 0.70161 0.38701 0.0
C917 C 0.28964 0.68151 0.45645 0.0
C918 C 0.27072 0.72093 0.4332 0.0
C919 C 0.28739 0.66959 0.47178 0.0
C920 C 0.26386 0.74948 0.35547 0.0
C921 C 0.26435 0.74228 0.3741 0.0
C922 C 0.28657 0.70738 0.39992 0.0
C923 C 0.27545 0.69171 0.45036 0.0
C924 C 0.27735 0.70344 0.43322 0.0
C925 C 0.28019 0.73516 0.38168 0.0
C926 C 0.27975 0.72473 0.39979 0.0
H927 H 0.24408 0.67703 0.48286 0.0
H928 H 0.24781 0.69746 0.45581 0.0
H929 H 0.29024 0.68327 0.41569 0.0
H930 H 0.30759 0.74388 0.34406 0.0
H931 H 0.3085 0.73157 0.37656 0.0
C932 C 0.58789 0.96089 0.708 0.0
C933 C 0.60497 0.9734 0.71209 0.0
C934 C 0.57548 0.96293 0.69169 0.0
C935 C 0.56259 -0.00055 0.66109 0.0
H936 H 0.54245 0.9587 0.62033 0.0
C937 C 0.53634 0.01431 0.58338 0.0
C938 C 0.52101 0.00224 0.57287 0.0
C939 C 0.54364 0.01008 0.60182 0.0
C940 C 0.54763 0.97013 0.6318 0.0
H941 H 0.62268 0.99743 0.7019 0.0
H942 H 0.60104 0.00101 0.67373 0.0
H943 H 0.56124 0.95187 0.64977 0.0
H944 H 0.50095 0.9765 0.57374 0.0
H945 H 0.51372 0.96915 0.60629 0.0
H946 H 0.54929 0.01779 0.64325 0.0
C947 C 0.59719 0.98974 0.68317 0.0
C948 C 0.55842 0.96622 0.64858 0.0
C949 C 0.60964 0.98758 0.69924 0.0
C950 C 0.51278 0.98607 0.5815 0.0
C951 C 0.52015 0.98181 0.60005 0.0
C952 C 0.55172 0.00332 0.64449 0.0
C953 C 0.57989 0.97766 0.67944 0.0
C954 C 0.56647 0.98099 0.66302 0.0
C955 C 0.53577 0.99371 0.61031 0.0
C956 C 0.54463 0.98885 0.62933 0.0
H957 H 0.58392 0.9498 0.71761 0.0
H958 H 0.56222 0.95342 0.68904 0.0
H959 H 0.56835 0.01101 0.67225 0.0
H960 H 0.54304 0.02687 0.57717 0.0
H961 H 0.55588 0.01939 0.60913 0.0
C962 C 0.24638 0.35654 0.97537 0.0
C963 C 0.26417 0.36239 0.98563 0.0
C964 C 0.24442 0.34677 0.95647 0.0
C965 C 0.2696 0.32095 0.92021 0.0
H966 H 0.23386 0.3368 0.882 0.0
C967 C 0.25274 0.28641 0.83877 0.0
C968 C 0.24916 0.29867 0.82417 0.0
C969 C 0.2553 0.29318 0.85891 0.0
C970 C 0.24404 0.33231 0.89242 0.0
H971 H 0.2938 0.36205 0.98435 0.0
H972 H 0.29043 0.34545 0.95121 0.0
H973 H 0.23662 0.34992 0.91635 0.0
H974 H 0.24659 0.32781 0.81908 0.0
H975 H 0.25152 0.33966 0.85394 0.0
H976 H 0.27744 0.30383 0.89592 0.0
C977 C 0.27794 0.34809 0.95787 0.0
C978 C 0.2454 0.33962 0.91224 0.0
C979 C 0.27989 0.35773 0.97685 0.0
C980 C 0.24905 0.31794 0.83 0.0
C981 C 0.25175 0.32472 0.85002 0.0
C982 C 0.26828 0.31367 0.90029 0.0
C983 C 0.26021 0.34278 0.9473 0.0
C984 C 0.25826 0.33413 0.9264 0.0
C985 C 0.25443 0.31235 0.86477 0.0
C986 C 0.25561 0.31944 0.88612 0.0
H987 H 0.23397 0.35973 0.98182 0.0
H988 H 0.23051 0.34254 0.94896 0.0
H989 H 0.27951 0.31625 0.93076 0.0
H990 H 0.25285 0.27147 0.8347 0.0
H991 H 0.25727 0.28326 0.8699 0.0
C992 C 0.91255 0.02895 0.31507 0.0
C993 C 0.9191 0.01863 0.29939 0.0
C994 C 0.92075 0.02941 0.33447 0.0
C995 C 0.96302 0.02238 0.36458 0.0
H996 H 0.92905 0.0137 0.40534 0.0
C997 C 0.98855 0.01622 0.44696 0.0
C998 C 0.97938 0.02553 0.46128 0.0
C999 C 0.9817 0.01435 0.42687 0.0
C1000 C 0.93874 0.01634 0.39419 0.0
H1001 H 0.93988 0.00128 0.29168 0.0
H1002 H 0.95429 0.00222 0.32567 0.0
H1003 H 0.91656 0.0132 0.37087 0.0
H1004 H 0.95591 0.04026 0.46572 0.0
H1005 H 0.94423 0.03729 0.43092 0.0
H1006 H 0.98522 0.02586 0.38802 0.0
C1007 C 0.94277 0.0099 0.32288 0.0
C1008 C 0.93158 0.01603 0.37444 0.0
C1009 C 0.93447 0.00932 0.30345 0.0
C1010 C 0.96326 0.03289 0.45512 0.0
C1011 C 0.95648 0.03108 0.43513 0.0
C1012 C 0.97022 0.0228 0.38442 0.0
C1013 C 0.93577 0.01967 0.33863 0.0
C1014 C 0.94361 0.01929 0.35945 0.0
C1015 C 0.96556 0.02176 0.42075 0.0
C1016 C 0.95814 0.02004 0.39949 0.0
H1017 H 0.90079 0.03634 0.31247 0.0
H1018 H 0.91525 0.03731 0.34628 0.0
H1019 H 0.97262 0.02501 0.35333 0.0
H1020 H 0.00101 0.01038 0.45126 0.0
H1021 H 0.98893 0.00695 0.41618 0.0
C1022 C 0.28827 0.66094 0.58824 0.0
C1023 C 0.29386 0.6697 0.57137 0.0
C1024 C 0.28999 0.67147 0.60667 0.0
C1025 C 0.29124 0.71972 0.62936 0.0
H1026 H 0.30535 0.69721 0.67744 0.0
C1027 C 0.28627 0.75446 0.70902 0.0
C1028 C 0.27681 0.74174 0.72108 0.0
C1029 C 0.29189 0.7477 0.69088 0.0
C1030 C 0.30143 0.70371 0.66414 0.0
H1031 H 0.30593 0.69634 0.56065 0.0
H1032 H 0.30883 0.71479 0.59298 0.0
H1033 H 0.30899 0.68139 0.64519 0.0
H1034 H 0.26619 0.71197 0.72375 0.0
H1035 H 0.27587 0.70034 0.69243 0.0
H1036 H 0.28306 0.74172 0.64841 0.0
C1037 C 0.30309 0.69977 0.59185 0.0
C1038 C 0.30349 0.69465 0.6457 0.0
C1039 C 0.3015 0.68918 0.57339 0.0
C1040 C 0.27332 0.7222 0.7148 0.0
C1041 C 0.27906 0.71548 0.69691 0.0
C1042 C 0.28917 0.72882 0.64788 0.0
C1043 C 0.29727 0.69102 0.60866 0.0
C1044 C 0.29784 0.70222 0.6281 0.0
C1045 C 0.28839 0.7281 0.68473 0.0
C1046 C 0.29365 0.72053 0.66541 0.0
H1047 H 0.28234 0.64597 0.58721 0.0
H1048 H 0.28512 0.66437 0.61929 0.0
H1049 H 0.2867 0.72585 0.61604 0.0
H1050 H 0.28916 0.7696 0.7135 0.0
H1051 H 0.29907 0.75773 0.68175 0.0
C1052 C 0.60236 0.98991 0.80851 0.0
C1053 C 0.60516 0.00368 0.79486 0.0
C1054 C 0.58969 0.99132 0.8227 0.0
C1055 C 0.568 0.02619 0.85074 0.0
H1056 H 0.53755 0.98105 0.86609 0.0
C1057 C 0.52724 0.02772 0.92058 0.0
C1058 C 0.53098 0.01371 0.93312 0.0
C1059 C 0.5322 0.02673 0.90103 0.0
C1060 C 0.54591 0.9938 0.86191 0.0
H1061 H 0.59665 0.02959 0.78519 0.0
H1062 H 0.57458 0.03209 0.81017 0.0
H1063 H 0.55431 0.97886 0.8365 0.0
H1064 H 0.54196 0.98725 0.93481 0.0
H1065 H 0.55054 0.98555 0.90102 0.0
H1066 H 0.56022 0.04094 0.87665 0.0
C1067 C 0.58224 0.02025 0.80986 0.0
C1068 C 0.55552 0.99253 0.84502 0.0
C1069 C 0.59484 0.01877 0.79554 0.0
C1070 C 0.53902 0.99835 0.92556 0.0
C1071 C 0.54377 0.99726 0.9061 0.0
C1072 C 0.55839 0.02744 0.86769 0.0
C1073 C 0.5796 0.00657 0.82363 0.0
C1074 C 0.56716 0.00857 0.83964 0.0
C1075 C 0.54069 0.01156 0.8937 0.0
C1076 C 0.54777 0.01111 0.87382 0.0
H1077 H 0.61007 0.97809 0.80836 0.0
H1078 H 0.58818 0.98071 0.83332 0.0
H1079 H 0.57693 0.03877 0.847 0.0
H1080 H 0.52104 0.03971 0.92604 0.0
H1081 H 0.52962 0.03791 0.89175 0.0
C1082 C 0.25099 0.36799 0.09602 0.0
C1083 C 0.24149 0.35934 0.07793 0.0
C1084 C 0.24997 0.35855 0.11329 0.0
C1085 C 0.24043 0.31072 0.13071 0.0
H1086 H 0.23658 0.33887 0.181 0.0
C1087 C 0.23607 0.27469 0.20437 0.0
C1088 C 0.2474 0.28459 0.22087 0.0
C1089 C 0.23347 0.28346 0.1868 0.0
C1090 C 0.23778 0.33083 0.1671 0.0
H1091 H 0.22337 0.334 0.06386 0.0
H1092 H 0.22155 0.31755 0.0941 0.0
H1093 H 0.23559 0.35484 0.15052 0.0
H1094 H 0.26463 0.31156 0.23192 0.0
H1095 H 0.26024 0.32668 0.20138 0.0
H1096 H 0.24292 0.28678 0.14737 0.0
C1097 C 0.22991 0.33159 0.09484 0.0
C1098 C 0.23722 0.33998 0.14963 0.0
C1099 C 0.23088 0.34106 0.07754 0.0
C1100 C 0.25582 0.3035 0.21951 0.0
C1101 C 0.25319 0.31224 0.20202 0.0
C1102 C 0.24101 0.30155 0.14821 0.0
C1103 C 0.23946 0.34023 0.11291 0.0
C1104 C 0.23881 0.33012 0.13127 0.0
C1105 C 0.24207 0.30232 0.18542 0.0
C1106 C 0.23997 0.31158 0.16664 0.0
H1107 H 0.25933 0.38204 0.09684 0.0
H1108 H 0.25772 0.3655 0.12689 0.0
H1109 H 0.24189 0.30276 0.11684 0.0
H1110 H 0.22938 0.26011 0.20494 0.0
H1111 H 0.22469 0.27549 0.17433 0.0
C1112 C 0.17857 0.91999 0.00857 0.0
C1113 C 0.19783 0.92477 0.01424 0.0
C1114 C 0.16669 0.93323 0.012 0.0
C1115 C 0.16548 0.98441 0.02041 0.0
H1116 H 0.11801 0.96687 0.04049 0.0
C1117 C 0.09329 0.01165 0.04485 0.0
C1118 C 0.08849 0.02051 0.02778 0.0
C1119 C 0.10933 0.00318 0.04626 0.0
C1120 C 0.13133 0.97213 0.03519 0.0
H1121 H 0.21979 0.94732 0.02769 0.0
H1122 H 0.19898 0.97047 0.03359 0.0
H1123 H 0.14026 0.94507 0.0365 0.0
H1124 H 0.09778 0.02911 -0.00026 0.0
H1125 H 0.12566 0.01422 0.00215 0.0
H1126 H 0.15634 0.01145 0.01885 0.0
C1127 C 0.19312 0.95648 0.02648 0.0
C1128 C 0.14396 0.95953 0.03264 0.0
C1129 C 0.205 0.94318 0.02317 0.0
C1130 C 0.101 0.0223 0.01304 0.0
C1131 C 0.11705 0.01379 0.01445 0.0
C1132 C 0.15275 0.99703 0.02286 0.0
C1133 C 0.17382 0.95158 0.02107 0.0
C1134 C 0.16104 0.96543 0.02493 0.0
C1135 C 0.12091 0.0034 0.03065 0.0
C1136 C 0.13544 0.99094 0.03006 0.0
H1137 H 0.1726 0.90596 0.00162 0.0
H1138 H 0.15191 0.92914 0.00741 0.0
H1139 H 0.17852 0.98934 0.01438 0.0
H1140 H 0.08408 0.01021 0.0566 0.0
H1141 H 0.11218 0.99564 0.05915 0.0
C1142 C 0.69515 0.60972 -0.00086 0.0
C1143 C 0.71137 0.6017 0.99696 0.0
C1144 C 0.6776 0.59826 0.99674 0.0
C1145 C 0.6545 0.54857 0.99801 0.0
H1146 H 0.61151 0.56871 0.97608 0.0
C1147 C 0.5777 0.5084 0.99305 0.0
C1148 C 0.56584 0.51942 0.00223 0.0
C1149 C 0.59565 0.51681 0.98924 0.0
C1150 C 0.62342 0.56286 0.98213 0.0
H1151 H 0.72188 0.57537 0.99017 0.0
H1152 H 0.69114 0.55536 0.98565 0.0
H1153 H 0.64279 0.5865 0.97498 0.0
H1154 H 0.56337 0.54787 0.01432 0.0
H1155 H 0.59428 0.56245 0.00729 0.0
H1156 H 0.6349 0.525 0.00532 0.0
C1157 C 0.69203 0.57049 0.98954 0.0
C1158 C 0.64132 0.57309 0.98163 0.0
C1159 C 0.70964 0.58197 0.99206 0.0
C1160 C 0.57212 0.53897 0.0072 0.0
C1161 C 0.5898 0.54738 0.00308 0.0
C1162 C 0.63655 0.53823 0.99832 0.0
C1163 C 0.67579 0.5785 0.99192 0.0
C1164 C 0.65705 0.56638 0.99013 0.0
C1165 C 0.60178 0.5364 0.99418 0.0
C1166 C 0.62083 0.54558 0.99091 0.0
H1167 H 0.69599 0.62486 0.003 0.0
H1168 H 0.66545 0.60489 -0.0009 0.0
H1169 H 0.66627 0.54303 0.00482 0.0
H1170 H 0.57325 0.49329 0.98914 0.0
H1171 H 0.6047 0.50807 0.98239 0.0
C1172 C 0.68209 0.45619 0.28331 0.0
C1173 C 0.66323 0.45236 0.28718 0.0
C1174 C 0.69213 0.4413 0.27974 0.0
C1175 C 0.68476 0.3896 0.26447 0.0
H1176 H 0.73578 0.39223 0.28751 0.0
C1177 C 0.71767 0.32359 0.27649 0.0
C1178 C 0.73577 0.323 0.27096 0.0
C1179 C 0.71007 0.34027 0.27598 0.0
C1180 C 0.72166 0.39146 0.2807 0.0
H1181 H 0.64033 0.42994 0.29094 0.0
H1182 H 0.6579 0.40407 0.28517 0.0
H1183 H 0.71998 0.41988 0.2922 0.0
H1184 H 0.76014 0.3394 0.26056 0.0
H1185 H 0.74681 0.36903 0.2601 0.0
H1186 H 0.68619 0.36097 0.25366 0.0
C1187 C 0.66482 0.41853 0.28438 0.0
C1188 C 0.71259 0.40725 0.2834 0.0
C1189 C 0.65478 0.43338 0.28786 0.0
C1190 C 0.74615 0.33949 0.26486 0.0
C1191 C 0.73858 0.35639 0.26466 0.0
C1192 C 0.69375 0.37384 0.26191 0.0
C1193 C 0.68354 0.42229 0.28001 0.0
C1194 C 0.69388 0.4063 0.27572 0.0
C1195 C 0.72042 0.35684 0.27015 0.0
C1196 C 0.71211 0.37447 0.27039 0.0
H1197 H 0.689 0.47068 0.28264 0.0
H1198 H 0.70649 0.44467 0.27632 0.0
H1199 H 0.67053 0.38857 0.25789 0.0
H1200 H 0.70927 0.31111 0.28117 0.0
H1201 H 0.69614 0.34028 0.28052 0.0
C1202 C 0.81432 0.40209 0.54013 0.0
C1203 C 0.79951 0.40943 0.53054 0.0
C1204 C 0.83272 0.41118 0.54 0.0
C1205 C 0.86134 0.45712 0.53386 0.0
H1206 H 0.89955 0.42603 0.52479 0.0
C1207 C 0.93905 0.48923 0.52902 0.0
C1208 C 0.95229 0.48009 0.53909 0.0
C1209 C 0.92015 0.48103 0.52663 0.0
C1210 C 0.88907 0.4349 0.5275 0.0
H1211 H 0.79238 0.43223 0.51348 0.0
H1212 H 0.82464 0.44814 0.51328 0.0
H1213 H 0.86698 0.411 0.52333 0.0
H1214 H 0.95607 0.45528 0.55461 0.0
H1215 H 0.92325 0.4412 0.55065 0.0
H1216 H 0.88354 0.48101 0.53834 0.0
C1217 C 0.82194 0.43537 0.52095 0.0
C1218 C 0.87042 0.42629 0.52666 0.0
C1219 C 0.80349 0.42621 0.521 0.0
C1220 C 0.94626 0.46266 0.5467 0.0
C1221 C 0.92744 0.4545 0.54431 0.0
C1222 C 0.88006 0.46576 0.53476 0.0
C1223 C 0.83675 0.42786 0.53033 0.0
C1224 C 0.85639 0.43726 0.5301 0.0
C1225 C 0.91416 0.46354 0.53421 0.0
C1226 C 0.89415 0.45469 0.53188 0.0
H1227 H 0.81175 0.38923 0.54767 0.0
H1228 H 0.84381 0.40521 0.54763 0.0
H1229 H 0.85084 0.46592 0.53672 0.0
H1230 H 0.94328 0.50267 0.52296 0.0
H1231 H 0.91026 0.48827 0.51864 0.0
C1232 C 0.32958 0.06595 0.25898 0.0
C1233 C 0.34786 0.0734 0.26726 0.0
C1234 C 0.31666 0.07804 0.25492 0.0
C1235 C 0.31415 0.12823 0.24675 0.0
H1236 H 0.26242 0.11486 0.25744 0.0
C1237 C 0.24945 0.16985 0.26103 0.0
C1238 C 0.25232 0.1832 0.24693 0.0
C1239 C 0.25852 0.15398 0.26044 0.0
C1240 C 0.27681 0.1188 0.25436 0.0
H1241 H 0.36676 0.09935 0.27817 0.0
H1242 H 0.34415 0.1204 0.27146 0.0
H1243 H 0.28422 0.09282 0.26388 0.0
H1244 H 0.26529 0.18934 0.21997 0.0
H1245 H 0.2806 0.16132 0.21857 0.0
H1246 H 0.30709 0.15454 0.23815 0.0
C1247 C 0.3399 0.10524 0.26769 0.0
C1248 C 0.28927 0.1061 0.2579 0.0
C1249 C 0.35284 0.09316 0.27168 0.0
C1250 C 0.26299 0.17942 0.23118 0.0
C1251 C 0.2719 0.16345 0.23049 0.0
C1252 C 0.30174 0.14093 0.24331 0.0
C1253 C 0.32171 0.09784 0.25909 0.0
C1254 C 0.30816 0.11081 0.25441 0.0
C1255 C 0.27048 0.15104 0.24563 0.0
C1256 C 0.28297 0.1365 0.24729 0.0
H1257 H 0.3253 0.05077 0.25534 0.0
H1258 H 0.30284 0.07188 0.24813 0.0
H1259 H 0.32851 0.13217 0.24357 0.0
H1260 H 0.24134 0.17235 0.27338 0.0
H1261 H 0.25714 0.14478 0.2724 0.0
C1262 C 0.30243 0.06006 0.47931 0.0
C1263 C 0.30242 0.0755 0.49347 0.0
C1264 C 0.31598 0.04825 0.4813 0.0
C1265 C 0.35007 0.03346 0.51785 0.0
H1266 H 0.37695 0.02321 0.47223 0.0
C1267 C 0.42327 0.01261 0.52471 0.0
C1268 C 0.42867 0.00097 0.5093 0.0
C1269 C 0.40566 0.0181 0.52324 0.0
C1270 C 0.36935 0.02554 0.48504 0.0
H1271 H 0.31645 0.09048 0.52098 0.0
H1272 H 0.34003 0.0699 0.52442 0.0
H1273 H 0.35029 0.03987 0.46856 0.0
H1274 H 0.41931 0.98488 0.48086 0.0
H1275 H 0.38839 0.99418 0.47847 0.0
H1276 H 0.36927 0.01939 0.53442 0.0
C1277 C 0.32951 0.06685 0.51186 0.0
C1278 C 0.3541 0.03516 0.48292 0.0
C1279 C 0.31608 0.07873 0.50978 0.0
C1280 C 0.41564 0.99398 0.49293 0.0
C1281 C 0.39796 -0.00057 0.49149 0.0
C1282 C 0.36525 0.02373 0.51995 0.0
C1283 C 0.32967 0.05154 0.49759 0.0
C1284 C 0.34457 0.0396 0.4994 0.0
C1285 C 0.39296 0.01199 0.50637 0.0
C1286 C 0.37535 0.02003 0.50367 0.0
H1287 H 0.29208 0.05717 0.46659 0.0
H1288 H 0.31571 0.0365 0.47014 0.0
H1289 H 0.34278 0.03641 0.53075 0.0
H1290 H 0.43294 0.01825 0.53755 0.0
H1291 H 0.4024 0.02794 0.5349 0.0
C1292 C 0.68409 0.56756 0.29914 0.0
C1293 C 0.66813 0.56319 0.28541 0.0
C1294 C 0.69641 0.58471 0.29904 0.0
C1295 C 0.71176 0.62079 0.26579 0.0
H1296 H 0.72539 0.65607 0.31298 0.0
C1297 C 0.7328 0.70023 0.26115 0.0
C1298 C 0.74695 0.71086 0.27468 0.0
C1299 C 0.72656 0.6811 0.26317 0.0
C1300 C 0.72205 0.64621 0.29976 0.0
H1301 H 0.65246 0.57346 0.26102 0.0
H1302 H 0.67396 0.60312 0.26077 0.0
H1303 H 0.70778 0.62431 0.31562 0.0
H1304 H 0.76585 0.70967 0.30082 0.0
H1305 H 0.75479 0.67592 0.30438 0.0
H1306 H 0.72558 0.64263 0.2498 0.0
C1307 C 0.67701 0.59329 0.27153 0.0
C1308 C 0.71195 0.62808 0.30128 0.0
C1309 C 0.66462 0.57635 0.27178 0.0
C1310 C 0.75494 0.70182 0.29015 0.0
C1311 C 0.74857 0.68257 0.29225 0.0
C1312 C 0.72192 0.63877 0.26429 0.0
C1313 C 0.69309 0.59757 0.28501 0.0
C1314 C 0.70618 0.6155 0.28417 0.0
C1315 C 0.73427 0.67205 0.27876 0.0
C1316 C 0.72658 0.65193 0.28112 0.0
H1317 H 0.68713 0.5577 0.30986 0.0
H1318 H 0.70872 0.58773 0.30962 0.0
H1319 H 0.70779 0.61119 0.25244 0.0
H1320 H 0.72632 0.70672 0.24905 0.0
H1321 H 0.71529 0.67352 0.25274 0.0
C1322 C 0.84138 0.46269 0.75591 0.0
C1323 C 0.85636 0.46643 0.74418 0.0
C1324 C 0.8312 0.44432 0.75538 0.0
C1325 C 0.82116 0.39799 0.72484 0.0
H1326 H 0.80873 0.37743 0.77429 0.0
C1327 C 0.8027 0.3179 0.73116 0.0
C1328 C 0.78762 0.31135 0.74188 0.0
C1329 C 0.80929 0.33732 0.73137 0.0
C1330 C 0.81187 0.38307 0.76035 0.0
H1331 H 0.87236 0.45381 0.72263 0.0
H1332 H 0.85483 0.42182 0.72191 0.0
H1333 H 0.82359 0.41062 0.77464 0.0
H1334 H 0.76772 0.32002 0.7614 0.0
H1335 H 0.77943 0.35419 0.76187 0.0
H1336 H 0.80987 0.37034 0.71063 0.0
C1337 C 0.85072 0.43311 0.73129 0.0
C1338 C 0.82036 0.40207 0.76053 0.0
C1339 C 0.86086 0.45145 0.7318 0.0
C1340 C 0.77935 0.32466 0.75298 0.0
C1341 C 0.78608 0.34418 0.75331 0.0
C1342 C 0.81276 0.37902 0.72468 0.0
C1343 C 0.83579 0.42931 0.74309 0.0
C1344 C 0.8254 0.40964 0.74281 0.0
C1345 C 0.80104 0.35068 0.74237 0.0
C1346 C 0.80833 0.37127 0.74246 0.0
H1347 H 0.83753 0.47394 0.76558 0.0
H1348 H 0.81967 0.4419 0.7645 0.0
H1349 H 0.82448 0.40348 0.71088 0.0
H1350 H 0.80941 0.30804 0.72247 0.0
H1351 H 0.82104 0.34188 0.72306 0.0
C1352 C 0.01274 0.82319 0.11176 0.0
C1353 C 0.02264 0.82491 0.13069 0.0
C1354 C 0.01162 0.8393 0.10145 0.0
C1355 C 0.01426 0.89095 0.1101 0.0
H1356 H 0.02558 0.89284 0.05531 0.0
C1357 C 0.03167 0.96169 0.07659 0.0
C1358 C 0.02519 0.96335 0.05682 0.0
C1359 C 0.02947 0.94407 0.08435 0.0
C1360 C 0.02205 0.89243 0.07049 0.0
H1361 H 0.03931 0.84484 0.15351 0.0
H1362 H 0.03721 0.87284 0.13562 0.0
H1363 H 0.02538 0.86313 0.07118 0.0
H1364 H 0.01128 0.94771 0.02962 0.0
H1365 H 0.00723 0.91667 0.04335 0.0
H1366 H 0.01095 0.92011 0.1096 0.0
C1367 C 0.03025 0.85907 0.1288 0.0
C1368 C 0.022 0.87545 0.07958 0.0
C1369 C 0.03154 0.843 0.13899 0.0
C1370 C 0.01643 0.94688 0.04492 0.0
C1371 C 0.01418 0.92912 0.05275 0.0
C1372 C 0.01417 0.90781 0.10102 0.0
C1373 C 0.02018 0.85742 0.11 0.0
C1374 C 0.01855 0.87471 0.09962 0.0
C1375 C 0.02063 0.92757 0.07261 0.0
C1376 C 0.01855 0.90892 0.08128 0.0
H1377 H 0.00577 0.80943 0.10494 0.0
H1378 H 0.00373 0.83764 0.08699 0.0
H1379 H 0.01116 0.89067 0.12544 0.0
H1380 H 0.03861 0.97403 0.08617 0.0
H1381 H 0.035 0.94336 0.09955 0.0
C1382 C 0.94326 0.25795 0.85232 0.0
C1383 C 0.9527 0.24251 0.84858 0.0
C1384 C 0.92661 0.25914 0.84111 0.0
C1385 C 0.88701 0.22979 0.81062 0.0
H1386 H 0.87655 0.27882 0.79607 0.0
C1387 C 0.81656 0.23917 0.76936 0.0
C1388 C 0.80846 0.25419 0.77769 0.0
C1389 C 0.83506 0.23756 0.77535 0.0
C1390 C 0.87926 0.26504 0.80007 0.0
H1391 H 0.95216 0.21629 0.82999 0.0
H1392 H 0.923 0.21842 0.81031 0.0
H1393 H 0.90746 0.27625 0.81135 0.0
H1394 H 0.81353 0.27952 0.79846 0.0
H1395 H 0.84565 0.27667 0.80889 0.0
H1396 H 0.85866 0.21868 0.79967 0.0
C1397 C 0.92847 0.22952 0.82204 0.0
C1398 C 0.89694 0.26356 0.80883 0.0
C1399 C 0.94519 0.22834 0.83326 0.0
C1400 C 0.81933 0.26776 0.79178 0.0
C1401 C 0.8378 0.26621 0.79765 0.0
C1402 C 0.86931 0.23127 0.8018 0.0
C1403 C 0.91899 0.24492 0.82589 0.0
C1404 C 0.90089 0.24601 0.81462 0.0
C1405 C 0.84583 0.25103 0.78963 0.0
C1406 C 0.86514 0.249 0.79685 0.0
H1407 H 0.94862 0.2691 0.86404 0.0
H1408 H 0.9195 0.27102 0.84469 0.0
H1409 H 0.88957 0.2161 0.81507 0.0
H1410 H 0.80854 0.22849 0.75847 0.0
H1411 H 0.84094 0.22577 0.76882 0.0
C1412 C 0.52627 0.2184 0.59077 0.0
C1413 C 0.51438 0.22375 0.60475 0.0
C1414 C 0.5236 0.19973 0.58183 0.0
C1415 C 0.48849 0.15542 0.573 0.0
H1416 H 0.5318 0.13058 0.56774 0.0
C1417 C 0.48301 0.07417 0.56369 0.0
C1418 C 0.49309 0.06624 0.54931 0.0
C1419 C 0.48578 0.0938 0.56857 0.0
C1420 C 0.5196 0.13741 0.56888 0.0
H1421 H 0.49024 0.21373 0.62014 0.0
H1422 H 0.4858 0.18126 0.60491 0.0
H1423 H 0.53613 0.16433 0.57946 0.0
H1424 H 0.51422 0.07269 0.52894 0.0
H1425 H 0.51922 0.10715 0.53772 0.0
H1426 H 0.47198 0.12836 0.563 0.0
C1427 C 0.49699 0.1915 0.60052 0.0
C1428 C 0.52206 0.15675 0.57555 0.0
C1429 C 0.49962 0.21013 0.60937 0.0
C1430 C 0.50622 0.07838 0.54007 0.0
C1431 C 0.50913 0.09808 0.54513 0.0
C1432 C 0.48605 0.1361 0.56649 0.0
C1433 C 0.509 0.18602 0.58671 0.0
C1434 C 0.50651 0.16591 0.57801 0.0
C1435 C 0.49881 0.10598 0.55931 0.0
C1436 C 0.50156 0.12682 0.56467 0.0
H1437 H 0.53774 0.22858 0.58684 0.0
H1438 H 0.53296 0.19605 0.57108 0.0
H1439 H 0.47622 0.16211 0.57428 0.0
H1440 H 0.4728 0.06523 0.5711 0.0
H1441 H 0.47782 0.09946 0.57977 0.0
C1442 C 0.57193 0.76699 0.36761 0.0
C1443 C 0.5536 0.75836 0.36078 0.0
C1444 C 0.58632 0.76694 0.35518 0.0
C1445 C 0.59938 0.74089 0.31092 0.0
H1446 H 0.63864 0.78467 0.31284 0.0
C1447 C 0.67351 0.76763 0.27508 0.0
C1448 C 0.68212 0.75161 0.27794 0.0
C1449 C 0.65595 0.76862 0.28173 0.0
C1450 C 0.62765 0.77242 0.31186 0.0
H1451 H 0.53595 0.74307 0.33543 0.0
H1452 H 0.56105 0.74308 0.31373 0.0
H1453 H 0.61166 0.78671 0.33146 0.0
H1454 H 0.6786 0.72362 0.28889 0.0
H1455 H 0.64816 0.72538 0.3005 0.0
H1456 H 0.61544 0.72656 0.2914 0.0
C1457 C 0.56434 0.74972 0.32876 0.0
C1458 C 0.61231 0.77351 0.32275 0.0
C1459 C 0.54994 0.74977 0.3412 0.0
C1460 C 0.67238 0.7362 0.28653 0.0
C1461 C 0.65485 0.73716 0.29308 0.0
C1462 C 0.61473 0.7398 0.30003 0.0
C1463 C 0.5827 0.75826 0.33563 0.0
C1464 C 0.59818 0.75764 0.32272 0.0
C1465 C 0.64663 0.75356 0.29123 0.0
C1466 C 0.62922 0.75543 0.30068 0.0
H1467 H 0.57524 0.77371 0.38261 0.0
H1468 H 0.60036 0.77338 0.36104 0.0
H1469 H 0.5888 0.72837 0.31064 0.0
H1470 H 0.68066 0.77973 0.26849 0.0
H1471 H 0.64986 0.78135 0.27986 0.0
C1472 C 0.02816 0.21694 0.44627 0.0
C1473 C 0.0131 0.22706 0.44659 0.0
C1474 C 0.02916 0.20199 0.45821 0.0
C1475 C -0.00054 0.16622 0.48215 0.0
H1476 H 0.0468 0.15732 0.50715 0.0
C1477 C 0.00599 0.09654 0.51797 0.0
C1478 C 0.02075 0.08778 0.51164 0.0
C1479 C 0.00525 0.11554 0.51467 0.0
C1480 C 0.03347 0.15962 0.50027 0.0
H1481 H 0.98743 0.22966 0.46 0.0
H1482 H 0.98916 0.20339 0.48081 0.0
H1483 H 0.04504 0.18715 0.4923 0.0
H1484 H 0.0468 0.09229 0.49792 0.0
H1485 H 0.04544 0.12516 0.49206 0.0
H1486 H 0.98804 0.1384 0.48937 0.0
C1487 C 0.00014 0.20704 0.47124 0.0
C1488 C 0.03247 0.17668 0.49177 0.0
C1489 C -0.0008 0.2221 0.45937 0.0
C1490 C 0.03518 0.0986 0.50288 0.0
C1491 C 0.03448 0.11753 0.49967 0.0
C1492 C 0.00047 0.14913 0.49061 0.0
C1493 C 0.01508 0.19676 0.47069 0.0
C1494 C 0.01557 0.17993 0.48213 0.0
C1495 C 0.01932 0.12612 0.50513 0.0
C1496 C 0.0176 0.14541 0.49924 0.0
H1497 H 0.03912 0.22041 0.43663 0.0
H1498 H 0.0407 0.19416 0.45723 0.0
H1499 H 0.98627 0.16825 0.47469 0.0
H1500 H 0.99468 0.08856 0.52481 0.0
H1501 H 0.99348 0.12184 0.51921 0.0
C1502 C 0.57106 0.23735 0.15655 0.0
C1503 C 0.55752 0.24466 0.16711 0.0
C1504 C 0.58901 0.23753 0.16559 0.0
C1505 C 0.61708 0.23922 0.21306 0.0
H1506 H 0.65776 0.26027 0.18367 0.0
C1507 C 0.69493 0.25475 0.24599 0.0
C1508 C 0.70862 0.25331 0.23275 0.0
C1509 C 0.67599 0.25204 0.2389 0.0
C1510 C 0.64663 0.254 0.19197 0.0
H1511 H 0.55205 0.25737 0.19567 0.0
H1512 H 0.58359 0.25747 0.2116 0.0
H1513 H 0.6257 0.25892 0.16983 0.0
H1514 H 0.71327 0.2465 0.20209 0.0
H1515 H 0.68035 0.24086 0.18986 0.0
H1516 H 0.63807 0.23397 0.23508 0.0
C1517 C 0.58019 0.25168 0.19627 0.0
C1518 C 0.62823 0.25336 0.18406 0.0
C1519 C 0.56221 0.25172 0.18712 0.0
C1520 C 0.703 0.24791 0.21258 0.0
C1521 C 0.68412 0.24488 0.20556 0.0
C1522 C 0.63558 0.23964 0.22092 0.0
C1523 C 0.59382 0.24483 0.18546 0.0
C1524 C 0.61327 0.24589 0.19444 0.0
C1525 C 0.6704 0.24759 0.21849 0.0
C1526 C 0.65061 0.24693 0.21039 0.0
H1527 H 0.56794 0.23176 0.14114 0.0
H1528 H 0.59919 0.23198 0.15698 0.0
H1529 H 0.60576 0.2333 0.22132 0.0
H1530 H 0.69891 0.25905 0.26162 0.0
H1531 H 0.66586 0.25435 0.2493 0.0
C1532 C 0.53015 0.82512 0.93986 0.0
C1533 C 0.51321 0.81235 0.93848 0.0
C1534 C 0.53166 0.84337 0.94959 0.0
C1535 C 0.53315 0.87904 0.97816 0.0
H1536 H 0.49103 0.90469 0.96568 0.0
C1537 C 0.52677 0.95546 0.01154 0.0
C1538 C 0.51979 0.96714 0.99794 0.0
C1539 C 0.527 0.93621 0.00583 0.0
C1540 C 0.50293 0.89775 0.96927 0.0
H1541 H 0.4849 0.80836 0.9471 0.0
H1542 H 0.48761 0.84001 0.96421 0.0
H1543 H 0.48954 0.8716 0.95336 0.0
H1544 H 0.50843 0.96801 0.96745 0.0
H1545 H 0.50896 0.93476 0.95759 0.0
H1546 H 0.54668 0.90559 0.99364 0.0
C1547 C 0.49961 0.8361 0.95744 0.0
C1548 C 0.50199 0.8787 0.96242 0.0
C1549 C 0.49808 0.81793 0.94767 0.0
C1550 C 0.51366 0.95938 0.9784 0.0
C1551 C 0.51389 0.94028 0.97274 0.0
C1552 C 0.53406 0.89818 0.9851 0.0
C1553 C 0.51629 0.84917 0.95817 0.0
C1554 C 0.51714 0.86914 0.9666 0.0
C1555 C 0.52021 0.92838 0.98645 0.0
C1556 C 0.51905 0.90779 0.98044 0.0
H1557 H 0.54209 0.82123 0.93296 0.0
H1558 H 0.54465 0.85316 0.94974 0.0
H1559 H 0.54498 0.87201 0.98177 0.0
H1560 H 0.5316 0.96104 0.02669 0.0
H1561 H 0.53193 0.92734 0.0167 0.0
C1562 C 0.94839 0.76404 0.68856 0.0
C1563 C 0.94911 0.76748 0.66846 0.0
C1564 C 0.93176 0.76416 0.6976 0.0
C1565 C 0.88107 0.75667 0.68429 0.0
H1566 H 0.87792 0.78095 0.73678 0.0
C1567 C 0.81016 0.76407 0.71074 0.0
C1568 C 0.80691 0.75939 0.73002 0.0
C1569 C 0.82822 0.76666 0.70487 0.0
C1570 C 0.87863 0.77396 0.72218 0.0
H1571 H 0.93313 0.77449 0.64237 0.0
H1572 H 0.90437 0.77474 0.65809 0.0
H1573 H 0.90843 0.78217 0.72352 0.0
H1574 H 0.82013 0.75474 0.75865 0.0
H1575 H 0.85188 0.75899 0.74823 0.0
H1576 H 0.85152 0.74828 0.68283 0.0
C1577 C 0.91651 0.77166 0.6668 0.0
C1578 C 0.89607 0.77465 0.71461 0.0
C1579 C 0.93306 0.77159 0.65781 0.0
C1580 C 0.82224 0.75834 0.74368 0.0
C1581 C 0.84041 0.7608 0.73772 0.0
C1582 C 0.86376 0.75593 0.69183 0.0
C1583 C 0.91555 0.76762 0.68667 0.0
C1584 C 0.8974 0.76626 0.69544 0.0
C1585 C 0.8435 0.76444 0.71805 0.0
C1586 C 0.86225 0.76481 0.71072 0.0
H1587 H 0.96054 0.76088 0.69718 0.0
H1588 H 0.93141 0.76094 0.71293 0.0
H1589 H 0.88168 0.74965 0.66968 0.0
H1590 H 0.79866 0.76529 0.69997 0.0
H1591 H 0.83015 0.77 0.68978 0.0
C1592 C 0.08407 0.01136 0.82246 0.0
C1593 C 0.1005 0.00329 0.82302 0.0
C1594 C 0.07216 0.00898 0.83754 0.0
C1595 C 0.06118 0.98095 0.8804 0.0
H1596 H 0.04421 0.0269 0.90066 0.0
C1597 C 0.03867 0.01501 0.95771 0.0
C1598 C 0.02515 0.00047 0.96307 0.0
C1599 C 0.04514 0.014 0.93898 0.0
C1600 C 0.04878 0.01392 0.89513 0.0
H1601 H 0.11703 0.9859 0.83955 0.0
H1602 H 0.09646 0.98209 0.8661 0.0
H1603 H 0.06079 0.02717 0.87097 0.0
H1604 H 0.00773 0.97344 0.95285 0.0
H1605 H 0.01928 0.97159 0.91982 0.0
H1606 H 0.0498 0.96802 0.90525 0.0
C1607 C 0.09262 0.99002 0.85385 0.0
C1608 C 0.05813 0.01401 0.87798 0.0
C1609 C 0.1045 0.99234 0.83871 0.0
C1610 C 0.01815 0.98486 0.94914 0.0
C1611 C 0.0248 0.98377 0.93031 0.0
C1612 C 0.05177 0.98086 0.8976 0.0
C1613 C 0.07644 0.99854 0.85358 0.0
C1614 C 0.0648 0.99766 0.87063 0.0
C1615 C 0.03833 0.9984 0.92505 0.0
C1616 C 0.0459 0.9975 0.9054 0.0
H1617 H 0.08046 0.0197 0.81047 0.0
H1618 H 0.05967 0.01548 0.83671 0.0
H1619 H 0.06592 0.96804 0.87495 0.0
H1620 H 0.04433 0.0273 0.96799 0.0
H1621 H 0.05578 0.02535 0.93552 0.0
C1622 C 0.74484 0.34859 0.57021 0.0
C1623 C 0.7285 0.34606 0.55712 0.0
C1624 C 0.7472 0.33567 0.58426 0.0
C1625 C 0.729 0.28689 0.59708 0.0
H1626 H 0.75431 0.30651 0.64876 0.0
C1627 C 0.7281 0.24724 0.66897 0.0
C1628 C 0.74479 0.2502 0.68162 0.0
C1629 C 0.72708 0.25626 0.65141 0.0
C1630 C 0.74745 0.30078 0.63429 0.0
H1631 H 0.70169 0.32814 0.54862 0.0
H1632 H 0.70547 0.30593 0.57372 0.0
H1633 H 0.74979 0.32834 0.62374 0.0
H1634 H 0.77401 0.26333 0.6847 0.0
H1635 H 0.77215 0.27904 0.65416 0.0
H1636 H 0.72607 0.25932 0.60825 0.0
C1637 C 0.71671 0.31762 0.57278 0.0
C1638 C 0.74486 0.31329 0.61991 0.0
C1639 C 0.71445 0.33044 0.55851 0.0
C1640 C 0.76086 0.26091 0.67544 0.0
C1641 C 0.7598 0.27 0.65799 0.0
C1642 C 0.73139 0.27436 0.61164 0.0
C1643 C 0.73316 0.32004 0.58579 0.0
C1644 C 0.73567 0.30654 0.60108 0.0
C1645 C 0.74272 0.26842 0.64628 0.0
C1646 C 0.74073 0.28121 0.63033 0.0
H1647 H 0.75604 0.36034 0.56935 0.0
H1648 H 0.76021 0.33781 0.59372 0.0
H1649 H 0.72207 0.28114 0.58266 0.0
H1650 H 0.71549 0.23898 0.67323 0.0
H1651 H 0.71374 0.25479 0.6426 0.0
C1652 C 0.41719 0.03489 0.3306 0.0
C1653 C 0.42078 0.02494 0.31303 0.0
C1654 C 0.4296 0.03639 0.34773 0.0
C1655 C 0.46469 0.01085 0.37045 0.0
H1656 H 0.47336 0.05421 0.41006 0.0
C1657 C 0.50453 0.03445 0.45445 0.0
C1658 C 0.49726 0.01819 0.46352 0.0
C1659 C 0.4983 0.03667 0.4348 0.0
C1660 C 0.47133 0.04211 0.399 0.0
H1661 H 0.44071 0.00975 0.29928 0.0
H1662 H 0.46243 0.01262 0.32899 0.0
H1663 H 0.45685 0.05663 0.37769 0.0
H1664 H 0.47832 0.99122 0.45892 0.0
H1665 H 0.46756 0.99507 0.42491 0.0
H1666 H 0.47891 0.99625 0.39177 0.0
C1667 C 0.44984 0.01887 0.32972 0.0
C1668 C 0.46169 0.04341 0.38057 0.0
C1669 C 0.4374 0.01726 0.31267 0.0
C1670 C 0.48413 0.00397 0.45242 0.0
C1671 C 0.47807 0.0061 0.43284 0.0
C1672 C 0.47429 0.00956 0.38881 0.0
C1673 C 0.4459 0.02807 0.34757 0.0
C1674 C 0.45791 0.02764 0.36626 0.0
C1675 C 0.48492 0.02253 0.42386 0.0
C1676 C 0.47728 0.02499 0.40346 0.0
H1677 H 0.40452 0.04099 0.33132 0.0
H1678 H 0.42603 0.0434 0.36129 0.0
H1679 H 0.4619 0.99836 0.35987 0.0
H1680 H 0.51465 0.04564 0.46268 0.0
H1681 H 0.50386 0.04944 0.42818 0.0
C1682 C 0.77639 0.65763 0.06947 0.0
C1683 C 0.76948 0.66585 0.05281 0.0
C1684 C 0.77761 0.66706 0.08845 0.0
C1685 C 0.75847 0.7035 0.11797 0.0
H1686 H 0.80242 0.7029 0.15418 0.0
C1687 C 0.7703 0.7426 0.19768 0.0
C1688 C 0.77764 0.73245 0.21259 0.0
C1689 C 0.76922 0.73569 0.17765 0.0
C1690 C 0.78998 0.70307 0.14431 0.0
H1691 H 0.75837 0.69044 0.04304 0.0
H1692 H 0.76054 0.70694 0.07629 0.0
H1693 H 0.80087 0.68867 0.12018 0.0
H1694 H 0.78912 0.70685 0.21819 0.0
H1695 H 0.78704 0.6948 0.18352 0.0
H1696 H 0.7475 0.7177 0.14228 0.0
C1697 C 0.76492 0.69313 0.07461 0.0
C1698 C 0.7891 0.69492 0.12482 0.0
C1699 C 0.76377 0.68372 0.05557 0.0
C1700 C 0.78354 0.71513 0.20709 0.0
C1701 C 0.78247 0.70826 0.18717 0.0
C1702 C 0.75933 0.71164 0.13753 0.0
C1703 C 0.77191 0.68492 0.09124 0.0
C1704 C 0.77323 0.69477 0.11152 0.0
C1705 C 0.7755 0.71853 0.17219 0.0
C1706 C 0.77498 0.71122 0.15101 0.0
H1707 H 0.78086 0.64385 0.0679 0.0
H1708 H 0.78281 0.66022 0.10099 0.0
H1709 H 0.746 0.70349 0.10809 0.0
H1710 H 0.76563 0.75599 0.20145 0.0
H1711 H 0.76385 0.74396 0.16642 0.0
C1712 C 0.08542 0.98624 0.72956 0.0
C1713 C 0.10481 0.99187 0.7337 0.0
C1714 C 0.0767 0.98781 0.71072 0.0
C1715 C 0.0848 0.01163 0.66446 0.0
H1716 H 0.04472 0.97212 0.64066 0.0
C1717 C 0.06349 0.99787 0.58045 0.0
C1718 C 0.04435 0.99504 0.57404 0.0
C1719 C 0.06948 -0.00057 0.60066 0.0
C1720 C 0.05573 0.98338 0.64726 0.0
H1721 H 0.13035 0.00312 0.72125 0.0
H1722 H 0.11536 0.00518 0.68836 0.0
H1723 H 0.05799 0.97048 0.67461 0.0
H1724 H 0.01643 0.99185 0.58366 0.0
H1725 H 0.02698 0.99413 0.61918 0.0
H1726 H 0.08305 0.02398 0.63668 0.0
C1727 C 0.1067 0.00015 0.69974 0.0
C1728 C 0.06332 0.98249 0.66671 0.0
C1729 C 0.11535 -0.00119 0.71858 0.0
C1730 C 0.03128 0.9941 0.58823 0.0
C1731 C 0.03728 0.9953 0.60849 0.0
C1732 C 0.07739 0.01236 0.64495 0.0
C1733 C 0.08724 0.99484 0.69559 0.0
C1734 C 0.07817 0.99645 0.67545 0.0
C1735 C 0.05644 0.99787 0.61484 0.0
C1736 C 0.06297 0.99811 0.63609 0.0
H1737 H 0.07691 0.98096 0.74096 0.0
H1738 H 0.06168 0.98378 0.70814 0.0
H1739 H 0.09588 0.0229 0.67085 0.0
H1740 H 0.07387 -0.00128 0.56984 0.0
H1741 H 0.08433 0.00126 0.60519 0.0
C1742 C 0.75146 0.33112 0.47398 0.0
C1743 C 0.74218 0.34698 0.47431 0.0
C1744 C 0.75121 0.31953 0.45643 0.0
C1745 C 0.76072 0.30812 0.41522 0.0
H1746 H 0.71761 0.29375 0.37643 0.0
C1747 C 0.76755 0.28675 0.33352 0.0
C1748 C 0.75536 0.27087 0.32393 0.0
C1749 C 0.76492 0.29397 0.35256 0.0
C1750 C 0.7297 0.29748 0.38724 0.0
H1751 H 0.72469 0.36264 0.45665 0.0
H1752 H 0.72445 0.34245 0.42583 0.0
H1753 H 0.71407 0.30991 0.40877 0.0
H1754 H 0.73081 0.2501 0.3268 0.0
H1755 H 0.72612 0.26293 0.36029 0.0
H1756 H 0.77641 0.29599 0.39371 0.0
C1757 C 0.73179 0.33893 0.43924 0.0
C1758 C 0.72772 0.30688 0.40563 0.0
C1759 C 0.73203 0.35056 0.45686 0.0
C1760 C 0.74046 0.26232 0.33385 0.0
C1761 C 0.73771 0.2697 0.35293 0.0
C1762 C 0.76271 0.29887 0.39685 0.0
C1763 C 0.7417 0.32352 0.43877 0.0
C1764 C 0.74327 0.31247 0.41973 0.0
C1765 C 0.74998 0.28557 0.36246 0.0
C1766 C 0.7473 0.29371 0.38256 0.0
H1767 H 0.75924 0.32782 0.48722 0.0
H1768 H 0.75872 0.30758 0.45661 0.0
H1769 H 0.77301 0.31241 0.42566 0.0
H1770 H 0.77917 0.29369 0.32631 0.0
H1771 H 0.77445 0.30637 0.35942 0.0
C1772 C 0.4092 0.02497 0.2107 0.0
C1773 C 0.41768 0.03495 0.22859 0.0
C1774 C 0.41982 0.02156 0.19501 0.0
C1775 C 0.46481 0.03766 0.17508 0.0
H1776 H 0.45022 0.99027 0.14156 0.0
C1777 C 0.49947 0.01784 0.10331 0.0
C1778 C 0.48611 0.01565 0.08679 0.0
C1779 C 0.49377 0.0183 0.12256 0.0
C1780 C 0.45457 0.00345 0.15096 0.0
H1781 H 0.44395 0.04937 0.24403 0.0
H1782 H 0.46262 0.04313 0.21666 0.0
H1783 H 0.43521 0.99521 0.17196 0.0
H1784 H 0.4565 0.01136 0.07718 0.0
H1785 H 0.44659 0.01151 0.11064 0.0
H1786 H 0.48408 0.04582 0.15373 0.0
C1787 C 0.44769 0.03816 0.21468 0.0
C1788 C 0.44587 0.0064 0.16823 0.0
C1789 C 0.437 0.04173 0.23036 0.0
C1790 C 0.46706 0.01315 0.08971 0.0
C1791 C 0.46139 0.01313 0.1088 0.0
C1792 C 0.47371 0.03457 0.15789 0.0
C1793 C 0.43923 0.02786 0.19688 0.0
C1794 C 0.45038 0.02381 0.18011 0.0
C1795 C 0.47467 0.01601 0.12538 0.0
C1796 C 0.4682 0.01769 0.14539 0.0
H1797 H 0.39432 0.01968 0.20881 0.0
H1798 H 0.41273 0.01405 0.18134 0.0
H1799 H 0.46857 0.05126 0.18382 0.0
H1800 H 0.51425 0.01989 0.10135 0.0
H1801 H 0.50421 0.02058 0.13521 0.0
C1802 C 0.77728 0.66644 0.95173 0.0
C1803 C 0.76551 0.64865 0.94902 0.0
C1804 C 0.77786 0.6788 0.93663 0.0
C1805 C 0.74973 0.68909 0.89237 0.0
H1806 H 0.79669 0.71368 0.87596 0.0
C1807 C 0.75366 0.71905 0.81701 0.0
C1808 C 0.76491 0.73671 0.81566 0.0
C1809 C 0.75438 0.71008 0.83451 0.0
C1810 C 0.78347 0.70716 0.88059 0.0
H1811 H 0.74528 0.62982 0.92827 0.0
H1812 H 0.74631 0.65129 0.90207 0.0
H1813 H 0.79678 0.69461 0.9045 0.0
H1814 H 0.78594 0.75869 0.83166 0.0
H1815 H 0.78717 0.74288 0.8625 0.0
H1816 H 0.73638 0.70134 0.86845 0.0
C1817 C 0.75495 0.65579 0.9159 0.0
C1818 C 0.78352 0.69623 0.8969 0.0
C1819 C 0.75447 0.64343 0.93088 0.0
C1820 C 0.77711 0.74509 0.83223 0.0
C1821 C 0.77785 0.73602 0.84985 0.0
C1822 C 0.74968 0.7 0.87618 0.0
C1823 C 0.76655 0.67365 0.91863 0.0
C1824 C 0.76665 0.68673 0.90264 0.0
C1825 C 0.76632 0.7185 0.8512 0.0
C1826 C 0.76654 0.70877 0.86979 0.0
H1827 H 0.78598 0.67088 0.96554 0.0
H1828 H 0.78687 0.6925 0.93917 0.0
H1829 H 0.73649 0.6823 0.89673 0.0
H1830 H 0.74416 0.71209 0.80455 0.0
H1831 H 0.7456 0.69641 0.83491 0.0
C1832 C 0.81682 0.07516 0.01695 0.0
C1833 C 0.81583 0.08725 0.00162 0.0
C1834 C 0.82819 0.06112 0.01617 0.0
C1835 C 0.8553 0.03484 0.98243 0.0
H1836 H 0.88492 0.03024 0.03146 0.0
C1837 C 0.92527 0.00625 0.98656 0.0
C1838 C 0.93013 0.9966 0.00304 0.0
C1839 C 0.90837 0.01324 0.9849 0.0
C1840 C 0.8765 0.03102 0.01771 0.0
H1841 H 0.82568 0.09377 0.9732 0.0
H1842 H 0.84588 0.0696 0.97206 0.0
H1843 H 0.86125 0.05071 0.03163 0.0
H1844 H 0.92029 0.98524 0.02976 0.0
H1845 H 0.89074 0.99732 0.02675 0.0
H1846 H 0.87119 0.01563 0.96843 0.0
C1847 C 0.83761 0.07072 0.98454 0.0
C1848 C 0.8629 0.0428 0.0178 0.0
C1849 C 0.82613 0.08469 0.98526 0.0
C1850 C 0.91707 0.99276 0.01697 0.0
C1851 C 0.90018 -0.00021 0.01532 0.0
C1852 C 0.86899 0.0231 0.98233 0.0
C1853 C 0.83896 0.0589 0.0001 0.0
C1854 C 0.85231 0.0451 0.00012 0.0
C1855 C 0.89598 0.01073 -0.00032 0.0
C1856 C 0.87993 0.02127 -6e-05 0.0
H1857 H 0.80891 0.07661 0.02968 0.0
H1858 H 0.82863 0.05206 0.02824 0.0
H1859 H 0.84718 0.03604 0.96861 0.0
H1860 H 0.93497 0.00938 0.9755 0.0
H1861 H 0.9056 0.02167 0.9727 0.0
C1862 C 0.3292 0.42095 0.06219 0.0
C1863 C 0.31425 0.4238 0.04888 0.0
C1864 C 0.3474 0.42988 0.06029 0.0
C1865 C 0.3764 0.45008 0.02281 0.0
H1866 H 0.41177 0.47012 0.06823 0.0
C1867 C 0.45542 0.46691 0.01647 0.0
C1868 C 0.46534 0.48385 0.02661 0.0
C1869 C 0.43685 0.46063 0.01964 0.0
C1870 C 0.40201 0.46473 0.0554 0.0
H1871 H 0.30662 0.4388 0.02357 0.0
H1872 H 0.33833 0.45443 0.02037 0.0
H1873 H 0.37934 0.45799 0.07329 0.0
H1874 H 0.46352 0.50743 0.04813 0.0
H1875 H 0.43098 0.49642 0.05361 0.0
H1876 H 0.39897 0.45683 0.0049 0.0
C1877 C 0.33601 0.44509 0.03209 0.0
C1878 C 0.3835 0.45762 0.0583 0.0
C1879 C 0.31782 0.43619 0.034 0.0
C1880 C 0.45627 0.49431 0.04009 0.0
C1881 C 0.43767 0.48797 0.04331 0.0
C1882 C 0.39489 0.4571 0.01991 0.0
C1883 C 0.35104 0.44182 0.04503 0.0
C1884 C 0.37052 0.45012 0.04204 0.0
C1885 C 0.42774 0.4711 0.03304 0.0
C1886 C 0.40794 0.46436 0.03617 0.0
H1887 H 0.32692 0.41151 0.07383 0.0
H1888 H 0.3587 0.42693 0.07039 0.0
H1889 H 0.36681 0.44422 0.00998 0.0
H1890 H 0.46196 0.45847 0.00601 0.0
H1891 H 0.42966 0.44742 0.01171 0.0
C1892 C 0.33555 0.56315 0.78063 0.0
C1893 C 0.34108 0.55521 0.76293 0.0
C1894 C 0.32274 0.57581 0.78014 0.0
C1895 C 0.30264 0.60802 0.74716 0.0
H1896 H 0.26798 0.60997 0.78751 0.0
C1897 C 0.2521 0.66215 0.74754 0.0
C1898 C 0.25379 0.67367 0.76556 0.0
C1899 C 0.25939 0.64515 0.74657 0.0
C1900 C 0.27755 0.60952 0.77613 0.0
H1901 H 0.33719 0.55395 0.73078 0.0
H1902 H 0.31447 0.57563 0.72987 0.0
H1903 H 0.28759 0.58515 0.78669 0.0
H1904 H 0.26307 0.67567 0.79698 0.0
H1905 H 0.27556 0.64588 0.79531 0.0
H1906 H 0.29261 0.63242 0.73666 0.0
C1907 C 0.32036 0.57249 0.74418 0.0
C1908 C 0.28888 0.59541 0.77571 0.0
C1909 C 0.33335 0.55999 0.74469 0.0
C1910 C 0.26162 0.66714 0.78286 0.0
C1911 C 0.26872 0.65004 0.78193 0.0
C1912 C 0.29117 0.62197 0.74744 0.0
C1913 C 0.31497 0.58067 0.76191 0.0
C1914 C 0.30183 0.59469 0.76144 0.0
C1915 C 0.26827 0.63924 0.76364 0.0
C1916 C 0.27874 0.62305 0.76212 0.0
H1917 H 0.34131 0.5598 0.79493 0.0
H1918 H 0.31923 0.58208 0.79409 0.0
H1919 H 0.31262 0.60816 0.73616 0.0
H1920 H 0.24614 0.66676 0.73393 0.0
H1921 H 0.25869 0.63697 0.73233 0.0
C1922 C 0.20958 0.60207 0.51513 0.0
C1923 C 0.22166 0.59397 0.52795 0.0
C1924 C 0.19044 0.59517 0.51284 0.0
C1925 C 0.15259 0.56792 0.53704 0.0
H1926 H 0.12605 0.56479 0.48462 0.0
C1927 C 0.07362 0.53657 0.51879 0.0
C1928 C 0.06335 0.54717 0.50667 0.0
C1929 C 0.0931 0.54135 0.52209 0.0
C1930 C 0.13325 0.5657 0.49937 0.0
H1931 H 0.2231 0.57224 0.54844 0.0
H1932 H 0.1896 0.56 0.54425 0.0
H1933 H 0.15982 0.57441 0.48877 0.0
H1934 H 0.0654 0.57135 0.48895 0.0
H1935 H 0.0992 0.57962 0.49472 0.0
H1936 H 0.12585 0.55916 0.54755 0.0
C1937 C 0.19496 0.57185 0.53614 0.0
C1938 C 0.1526 0.57124 0.50177 0.0
C1939 C 0.21416 0.5788 0.53846 0.0
C1940 C 0.07288 0.56283 0.49828 0.0
C1941 C 0.09227 0.56751 0.50148 0.0
C1942 C 0.13318 0.56227 0.53461 0.0
C1943 C 0.18289 0.57994 0.52326 0.0
C1944 C 0.16248 0.57273 0.52067 0.0
C1945 C 0.10262 0.55671 0.51322 0.0
C1946 C 0.1233 0.56143 0.5158 0.0
H1947 H 0.21486 0.61385 0.50689 0.0
H1948 H 0.18152 0.60197 0.50308 0.0
H1949 H 0.15976 0.56907 0.55182 0.0
H1950 H 0.06667 0.52444 0.52549 0.0
H1951 H 0.10074 0.53276 0.53117 0.0
C1952 C 0.68848 0.94984 0.8053 0.0
C1953 C 0.68434 0.95509 0.78608 0.0
C1954 C 0.70176 0.938 0.8088 0.0
C1955 C 0.74219 0.92101 0.78877 0.0
H1956 H 0.7263 0.87513 0.81409 0.0
C1957 C 0.77424 0.85315 0.77659 0.0
C1958 C 0.77271 0.83971 0.79069 0.0
C1959 C 0.76743 0.87025 0.77983 0.0
C1960 C 0.73128 0.88808 0.80748 0.0
H1961 H 0.69111 0.95237 0.75553 0.0
H1962 H 0.7144 0.93182 0.7617 0.0
H1963 H 0.70623 0.89923 0.81236 0.0
H1964 H 0.76487 0.83451 0.82019 0.0
H1965 H 0.75375 0.86472 0.82625 0.0
H1966 H 0.76718 0.90985 0.78371 0.0
C1967 C 0.70738 0.93689 0.77404 0.0
C1968 C 0.71966 0.90185 0.8064 0.0
C1969 C 0.69392 0.94849 0.77049 0.0
C1970 C 0.766 0.84451 0.80893 0.0
C1971 C 0.75946 0.86175 0.81231 0.0
C1972 C 0.75396 0.90736 0.79009 0.0
C1973 C 0.71136 0.93145 0.7932 0.0
C1974 C 0.72477 0.91817 0.79655 0.0
C1975 C 0.75921 0.87439 0.79739 0.0
C1976 C 0.74841 0.89044 0.79895 0.0
H1977 H 0.68134 0.95473 0.81762 0.0
H1978 H 0.7046 0.93401 0.8237 0.0
H1979 H 0.74655 0.93364 0.78135 0.0
H1980 H 0.77932 0.84987 0.76236 0.0
H1981 H 0.76742 0.87951 0.76792 0.0
C1982 C 0.71309 0.94713 0.53271 0.0
C1983 C 0.70765 0.92806 0.52489 0.0
C1984 C 0.70043 0.95998 0.53167 0.0
C1985 C 0.65513 0.96673 0.50598 0.0
H1986 H 0.65117 0.99846 0.55394 0.0
C1987 C 0.59437 -0.00022 0.54477 0.0
C1988 C 0.58525 0.00664 0.52842 0.0
C1989 C 0.61207 0.99484 0.54371 0.0
C1990 C 0.65216 0.98976 0.54039 0.0
H1991 H 0.68473 0.90763 0.50962 0.0
H1992 H 0.66269 0.92988 0.50807 0.0
H1993 H 0.6766 0.97998 0.55266 0.0
H1994 H 0.58802 0.01483 0.49854 0.0
H1995 H 0.61915 0.00624 0.4967 0.0
H1996 H 0.6301 0.97562 0.4941 0.0
C1997 C 0.67679 0.93503 0.51473 0.0
C1998 C 0.66684 0.9793 0.53959 0.0
C1999 C 0.6894 0.92221 0.51578 0.0
C2000 C 0.59469 0.00953 0.51137 0.0
C2001 C 0.61244 0.00449 0.51027 0.0
C2002 C 0.64045 0.97716 0.50679 0.0
C2003 C 0.6821 0.95405 0.52274 0.0
C2004 C 0.66816 0.96721 0.52259 0.0
C2005 C 0.62111 0.9966 0.52625 0.0
C2006 C 0.63847 0.98835 0.52422 0.0
H2007 H 0.72708 0.9521 0.53975 0.0
H2008 H 0.705 0.97456 0.53785 0.0
H2009 H 0.65595 0.95781 0.49253 0.0
H2010 H 0.58752 0.9975 0.55818 0.0
H2011 H 0.61819 0.98863 0.55623 0.0
C2012 C 0.34266 0.45636 0.75235 0.0
C2013 C 0.33753 0.46809 0.73783 0.0
C2014 C 0.3317 0.43884 0.75406 0.0
C2015 C 0.29731 0.40095 0.7267 0.0
H2016 H 0.28986 0.38592 0.77961 0.0
C2017 C 0.25817 0.3266 0.74193 0.0
C2018 C 0.268 0.31764 0.75617 0.0
C2019 C 0.26394 0.34583 0.73927 0.0
C2020 C 0.29181 0.38992 0.76474 0.0
H2021 H 0.31693 0.4705 0.71355 0.0
H2022 H 0.29773 0.43965 0.71655 0.0
H2023 H 0.30511 0.41809 0.77552 0.0
H2024 H 0.29142 0.32189 0.77894 0.0
H2025 H 0.30134 0.35517 0.77434 0.0
H2026 H 0.28438 0.37251 0.71601 0.0
C2027 C 0.31029 0.44412 0.72656 0.0
C2028 C 0.30057 0.40831 0.76239 0.0
C2029 C 0.32126 0.46178 0.72489 0.0
C2030 C 0.28351 0.32832 0.76783 0.0
C2031 C 0.28914 0.34747 0.76531 0.0
C2032 C 0.2885 0.38248 0.72905 0.0
C2033 C 0.31535 0.43256 0.7413 0.0
C2034 C 0.3039 0.41385 0.7434 0.0
C2035 C 0.27947 0.35643 0.751 0.0
C2036 C 0.28618 0.37665 0.74815 0.0
H2037 H 0.35514 0.46073 0.76252 0.0
H2038 H 0.33616 0.43008 0.76532 0.0
H2039 H 0.29974 0.40482 0.71188 0.0
H2040 H 0.24618 0.31872 0.7327 0.0
H2041 H 0.25623 0.35243 0.72816 0.0
C2042 C 0.19034 0.54719 0.24906 0.0
C2043 C 0.17657 0.54033 0.26128 0.0
C2044 C 0.19934 0.56612 0.25203 0.0
C2045 C 0.20903 0.60768 0.28952 0.0
H2046 H 0.21505 0.63703 0.24397 0.0
C2047 C 0.22222 0.68931 0.29688 0.0
C2048 C 0.2353 0.69872 0.28534 0.0
C2049 C 0.21684 0.66962 0.29393 0.0
C2050 C 0.21371 0.62895 0.25681 0.0
H2051 H 0.16152 0.54791 0.28627 0.0
H2052 H 0.17704 0.58084 0.29129 0.0
H2053 H 0.20249 0.60307 0.23888 0.0
H2054 H 0.25302 0.69486 0.26162 0.0
H2055 H 0.24355 0.66031 0.25646 0.0
H2056 H 0.21988 0.63361 0.30745 0.0
C2057 C 0.18109 0.57157 0.27959 0.0
C2058 C 0.20654 0.60951 0.2539 0.0
C2059 C 0.1721 0.55271 0.27662 0.0
C2060 C 0.2429 0.688 0.27075 0.0
C2061 C 0.23744 0.66826 0.26773 0.0
C2062 C 0.21615 0.62709 0.29242 0.0
C2063 C 0.19477 0.57851 0.26731 0.0
C2064 C 0.20383 0.59875 0.27025 0.0
C2065 C 0.22438 0.65887 0.27934 0.0
C2066 C 0.21827 0.63799 0.27611 0.0
H2067 H 0.19412 0.53799 0.23714 0.0
H2068 H 0.20994 0.57101 0.24244 0.0
H2069 H 0.20745 0.59969 0.30239 0.0
H2070 H 0.21608 0.69715 0.30822 0.0
H2071 H 0.20653 0.66282 0.30289 0.0
C2072 C 0.51686 0.70707 0.44331 0.0
C2073 C 0.50523 0.70894 0.42621 0.0
C2074 C 0.51444 0.69025 0.45282 0.0
C2075 C 0.4799 0.647 0.45686 0.0
H2076 H 0.52332 0.6246 0.47314 0.0
C2077 C 0.47505 0.56787 0.46858 0.0
C2078 C 0.48568 0.56254 0.48482 0.0
C2079 C 0.47733 0.58674 0.46398 0.0
C2080 C 0.51108 0.63082 0.46897 0.0
H2081 H 0.48189 0.69462 0.40575 0.0
H2082 H 0.47783 0.66536 0.42214 0.0
H2083 H 0.52753 0.6559 0.46031 0.0
H2084 H 0.50706 0.57287 0.50905 0.0
H2085 H 0.51116 0.60604 0.50087 0.0
H2086 H 0.46345 0.62173 0.465 0.0
C2087 C 0.48865 0.67695 0.42842 0.0
C2088 C 0.51348 0.64875 0.46162 0.0
C2089 C 0.49106 0.6937 0.41893 0.0
C2090 C 0.49864 0.57656 0.49646 0.0
C2091 C 0.50105 0.5955 0.49173 0.0
C2092 C 0.47751 0.6291 0.46412 0.0
C2093 C 0.50031 0.67499 0.44546 0.0
C2094 C 0.4979 0.65685 0.45509 0.0
C2095 C 0.49039 0.60076 0.47544 0.0
C2096 C 0.49306 0.62064 0.46986 0.0
H2097 H 0.52789 0.71855 0.44932 0.0
H2098 H 0.52355 0.68925 0.46602 0.0
H2099 H 0.46761 0.65302 0.45238 0.0
H2100 H 0.46494 0.55744 0.4593 0.0
H2101 H 0.46912 0.59029 0.45116 0.0
C2102 C 0.56588 0.24531 0.68442 0.0
C2103 C 0.55865 0.26188 0.6804 0.0
C2104 C 0.58293 0.24648 0.69584 0.0
C2105 C 0.62636 0.28007 0.71342 0.0
H2106 H 0.63465 0.23969 0.74659 0.0
C2107 C 0.69691 0.27831 0.75961 0.0
C2108 C 0.70405 0.2615 0.75493 0.0
C2109 C 0.67837 0.27961 0.75331 0.0
C2110 C 0.63247 0.2511 0.73746 0.0
H2111 H 0.56345 0.29268 0.68551 0.0
H2112 H 0.59299 0.29472 0.70596 0.0
H2113 H 0.60351 0.23988 0.7304 0.0
H2114 H 0.6973 0.23269 0.74072 0.0
H2115 H 0.66495 0.23483 0.7302 0.0
H2116 H 0.65545 0.29122 0.72064 0.0
C2117 C 0.58571 0.28082 0.6999 0.0
C2118 C 0.6147 0.25116 0.72805 0.0
C2119 C 0.56873 0.27965 0.68825 0.0
C2120 C 0.6922 0.24585 0.74449 0.0
C2121 C 0.67365 0.24702 0.73856 0.0
C2122 C 0.6441 0.28014 0.72308 0.0
C2123 C 0.59308 0.26424 0.70377 0.0
C2124 C 0.61151 0.26535 0.71547 0.0
C2125 C 0.66664 0.26398 0.74266 0.0
C2126 C 0.64739 0.26541 0.73478 0.0
H2127 H 0.55851 0.2314 0.67846 0.0
H2128 H 0.58831 0.23342 0.6981 0.0
H2129 H 0.62453 0.29111 0.7037 0.0
H2130 H 0.70579 0.29061 0.76757 0.0
H2131 H 0.67323 0.29283 0.75664 0.0
C2132 C 0.01125 0.30863 0.94045 0.0
C2133 C 0.9932 0.30083 0.93186 0.0
C2134 C 0.01479 0.32688 0.95035 0.0
C2135 C 0.02092 0.36974 0.9552 0.0
H2136 H 0.9851 0.39207 0.98481 0.0
C2137 C 0.02501 0.45049 0.96755 0.0
C2138 C 0.02139 0.4584 0.98615 0.0
C2139 C 0.02154 0.43083 0.96287 0.0
C2140 C 0.99535 0.386 0.97678 0.0
H2141 H 0.9645 0.30568 0.92774 0.0
H2142 H 0.97074 0.33769 0.94453 0.0
H2143 H 0.97941 0.35793 0.97478 0.0
H2144 H 0.01104 0.4519 0.01436 0.0
H2145 H 0.00519 0.41741 0.00624 0.0
H2146 H 0.03697 0.39766 0.95735 0.0
C2147 C 0.98215 0.32963 0.94394 0.0
C2148 C 0.992 0.36647 0.97085 0.0
C2149 C 0.97858 0.31129 0.93419 0.0
C2150 C 0.01394 0.44622 -0.00011 0.0
C2151 C 0.01053 0.42648 0.99521 0.0
C2152 C 0.0243 0.38918 0.96119 0.0
C2153 C 0.00039 0.33783 0.95172 0.0
C2154 C 0.00462 0.35816 0.95972 0.0
C2155 C 0.01448 0.41856 0.97671 0.0
C2156 C 0.0114 0.39762 0.97171 0.0
H2157 H 0.02277 0.30081 0.93912 0.0
H2158 H 0.02892 0.33258 0.95656 0.0
H2159 H 0.03085 0.36393 0.94645 0.0
H2160 H 0.03058 0.45949 0.95656 0.0
H2161 H 0.02433 0.42525 0.94831 0.0
C2162 C 0.97119 0.79934 0.2054 0.0
C2163 C 0.9744 0.78271 0.19469 0.0
C2164 C 0.95578 0.79896 0.21646 0.0
C2165 C 0.9208 0.76725 0.24005 0.0
H2166 H 0.89023 0.80633 0.23184 0.0
C2167 C 0.84507 0.76196 0.26216 0.0
C2168 C 0.83845 0.77893 0.26744 0.0
C2169 C 0.8631 0.76252 0.25621 0.0
C2170 C 0.89876 0.79552 0.23468 0.0
H2171 H 0.96425 0.75252 0.18763 0.0
H2172 H 0.93735 0.75188 0.20701 0.0
H2173 H 0.91899 0.80718 0.21588 0.0
H2174 H 0.84591 0.80964 0.27216 0.0
H2175 H 0.8775 0.81059 0.26253 0.0
H2176 H 0.90051 0.75555 0.25885 0.0
C2177 C 0.9468 0.76519 0.20687 0.0
C2178 C 0.91524 0.79598 0.22544 0.0
C2179 C 0.96212 0.76559 0.19566 0.0
C2180 C 0.85057 0.79634 0.26795 0.0
C2181 C 0.86863 0.79688 0.26226 0.0
C2182 C 0.90435 0.76686 0.24947 0.0
C2183 C 0.94335 0.78192 0.21718 0.0
C2184 C 0.92636 0.78178 0.22789 0.0
C2185 C 0.87491 0.78004 0.25564 0.0
C2186 C 0.89304 0.78093 0.24677 0.0
H2187 H 0.98041 0.81275 0.20501 0.0
H2188 H 0.95356 0.81204 0.22441 0.0
H2189 H 0.92921 0.75622 0.24234 0.0
H2190 H 0.836 0.74833 0.26152 0.0
H2191 H 0.86738 0.74927 0.25109 0.0
C2192 C 0.50687 0.30699 0.10609 0.0
C2193 C 0.51554 0.29117 0.10142 0.0
C2194 C 0.50673 0.32135 0.09325 0.0
C2195 C 0.53088 0.34267 0.05267 0.0
H2196 H 0.48591 0.36507 0.04476 0.0
C2197 C 0.52974 0.4162 0.02329 0.0
C2198 C 0.51362 0.41937 0.01199 0.0
C2199 C 0.53043 0.39865 0.03089 0.0
C2200 C 0.4985 0.3588 0.04652 0.0
H2201 H 0.53102 0.27814 0.07964 0.0
H2202 H 0.5307 0.30325 0.05715 0.0
H2203 H 0.48594 0.33823 0.0648 0.0
H2204 H 0.48611 0.40614 -0.0014 0.0
H2205 H 0.48743 0.37542 0.01166 0.0
H2206 H 0.54344 0.36331 0.03437 0.0
C2207 C 0.52413 0.30457 0.07084 0.0
C2208 C 0.4986 0.34358 0.05826 0.0
C2209 C 0.52425 0.29016 0.0837 0.0
C2210 C 0.49868 0.40422 0.00739 0.0
C2211 C 0.49938 0.38666 0.01498 0.0
C2212 C 0.5308 0.35793 0.04091 0.0
C2213 C 0.51525 0.32026 0.07542 0.0
C2214 C 0.51487 0.33555 0.06177 0.0
C2215 C 0.51503 0.38387 0.02733 0.0
C2216 C 0.51468 0.36636 0.03795 0.0
H2217 H 0.50007 0.30826 0.11965 0.0
H2218 H 0.50006 0.33342 0.09739 0.0
H2219 H 0.54367 0.33685 0.05514 0.0
H2220 H 0.54153 0.42754 0.02708 0.0
H2221 H 0.54265 0.39706 0.04045 0.0
C2222 C 0.95533 0.22822 0.37182 0.0
C2223 C 0.96941 0.24358 0.36967 0.0
C2224 C 0.93726 0.22745 0.36275 0.0
C2225 C 0.90567 0.25843 0.34159 0.0
H2226 H 0.87465 0.20995 0.32355 0.0
C2227 C 0.83028 0.25032 0.30214 0.0
C2228 C 0.81694 0.23712 0.30986 0.0
C2229 C 0.84931 0.25166 0.30833 0.0
C2230 C 0.88316 0.22359 0.32858 0.0
H2231 H 0.97576 0.26985 0.3557 0.0
H2232 H 0.94437 0.26822 0.33932 0.0
H2233 H 0.90735 0.21087 0.33531 0.0
H2234 H 0.81309 0.21509 0.3302 0.0
H2235 H 0.84622 0.2173 0.34074 0.0
H2236 H 0.88135 0.27107 0.33455 0.0
C2237 C 0.94713 0.25701 0.34847 0.0
C2238 C 0.90188 0.22413 0.33541 0.0
C2239 C 0.96518 0.25787 0.35774 0.0
C2240 C 0.82299 0.22543 0.32398 0.0
C2241 C 0.84198 0.22658 0.32992 0.0
C2242 C 0.88698 0.25789 0.33451 0.0
C2243 C 0.93286 0.24192 0.35109 0.0
C2244 C 0.91332 0.24152 0.34234 0.0
C2245 C 0.85533 0.23961 0.32209 0.0
C2246 C 0.87547 0.24043 0.32827 0.0
H2247 H 0.95808 0.21703 0.38103 0.0
H2248 H 0.92662 0.21577 0.36542 0.0
H2249 H 0.91394 0.27206 0.34705 0.0
H2250 H 0.82604 0.25953 0.29126 0.0
H2251 H 0.85935 0.2618 0.30204 0.0
C2252 C 0.9796 0.71078 0.58375 0.0
C2253 C 0.98528 0.71313 0.60423 0.0
C2254 C 0.97774 0.69288 0.57315 0.0
C2255 C 0.97362 0.64137 0.58009 0.0
H2256 H 0.99654 0.63796 0.53054 0.0
C2257 C 0.00081 0.57477 0.55158 0.0
C2258 C 0.99675 0.56799 0.53144 0.0
C2259 C 0.99646 0.59224 0.55853 0.0
C2260 C 0.9898 0.63872 0.54417 0.0
H2261 H 0.99313 0.69845 0.62971 0.0
H2262 H 0.99009 0.66745 0.61129 0.0
H2263 H 0.9939 0.6692 0.5465 0.0
H2264 H 0.9851 0.57437 0.50273 0.0
H2265 H 0.97777 0.60538 0.51497 0.0
H2266 H 0.97025 0.61096 0.57821 0.0
C2267 C 0.9868 0.67932 0.6034 0.0
C2268 C 0.98826 0.65658 0.55331 0.0
C2269 C 0.98868 0.69715 0.61395 0.0
C2270 C 0.98838 0.57923 0.51833 0.0
C2271 C 0.98422 0.59694 0.52529 0.0
C2272 C 0.97526 0.62359 0.57104 0.0
C2273 C 0.98144 0.67697 0.58286 0.0
C2274 C 0.98065 0.65811 0.57167 0.0
C2275 C 0.98808 0.60349 0.54551 0.0
C2276 C 0.98384 0.62211 0.55331 0.0
H2277 H 0.97684 0.72281 0.57582 0.0
H2278 H 0.97345 0.69149 0.55736 0.0
H2279 H 0.96729 0.64204 0.59398 0.0
H2280 H 0.00718 0.56647 0.56212 0.0
H2281 H -0.00014 0.59707 0.57413 0.0
C2282 C 0.57298 0.75928 0.86303 0.0
C2283 C 0.56625 0.77651 0.86677 0.0
C2284 C 0.58945 0.75891 0.85384 0.0
C2285 C 0.6332 0.7899 0.84715 0.0
H2286 H 0.64015 0.74872 0.8092 0.0
C2287 C 0.69364 0.7694 0.79525 0.0
C2288 C 0.70919 0.7736 0.80953 0.0
C2289 C 0.67553 0.76928 0.80091 0.0
C2290 C 0.63837 0.76038 0.81967 0.0
H2291 H 0.5712 0.80674 0.86309 0.0
H2292 H 0.59991 0.80607 0.84702 0.0
H2293 H 0.60922 0.74982 0.82054 0.0
H2294 H 0.71784 0.78035 0.841 0.0
H2295 H 0.68641 0.78006 0.85077 0.0
H2296 H 0.66227 0.80045 0.84637 0.0
C2297 C 0.59254 0.79288 0.85141 0.0
C2298 C 0.62072 0.76094 0.82628 0.0
C2299 C 0.57604 0.79325 0.86054 0.0
C2300 C 0.70621 0.77718 0.82958 0.0
C2301 C 0.68819 0.77714 0.8352 0.0
C2302 C 0.65082 0.78928 0.84064 0.0
C2303 C 0.59959 0.77576 0.84824 0.0
C2304 C 0.61798 0.77564 0.84021 0.0
C2305 C 0.67266 0.77346 0.82091 0.0
C2306 C 0.65366 0.77442 0.827 0.0
H2307 H 0.56576 0.7461 0.86759 0.0
H2308 H 0.59458 0.74551 0.85178 0.0
H2309 H 0.63162 0.80131 0.85803 0.0
H2310 H 0.69547 0.76657 0.77968 0.0
H2311 H 0.66384 0.76644 0.78956 0.0
C2312 C 0.43454 0.54803 0.7068 0.0
C2313 C 0.42082 0.53236 0.70911 0.0
C2314 C 0.446 0.54744 0.69123 0.0
C2315 C 0.46301 0.51371 0.65574 0.0
H2316 H 0.47019 0.55615 0.62319 0.0
C2317 C 0.4828 0.50542 0.57603 0.0
C2318 C 0.49517 0.52001 0.56901 0.0
C2319 C 0.47665 0.50771 0.59486 0.0
C2320 C 0.46862 0.54432 0.63235 0.0
H2321 H 0.40839 0.50377 0.69691 0.0
H2322 H 0.42822 0.50281 0.66981 0.0
H2323 H 0.45372 0.55885 0.653 0.0
H2324 H 0.51117 0.54828 0.57646 0.0
H2325 H 0.50033 0.55231 0.60957 0.0
H2326 H 0.47749 0.49901 0.6349 0.0
C2327 C 0.43031 0.51547 0.68013 0.0
C2328 C 0.45916 0.54586 0.6494 0.0
C2329 C 0.41884 0.51609 0.69559 0.0
C2330 C 0.50162 0.5368 0.58146 0.0
C2331 C 0.49535 0.53915 0.60034 0.0
C2332 C 0.47245 0.51218 0.63875 0.0
C2333 C 0.44403 0.53112 0.67777 0.0
C2334 C 0.45585 0.53038 0.66099 0.0
C2335 C 0.48269 0.52465 0.60716 0.0
C2336 C 0.47495 0.52729 0.62658 0.0
H2337 H 0.43644 0.56077 0.71698 0.0
H2338 H 0.45651 0.55968 0.68984 0.0
H2339 H 0.46103 0.50169 0.66461 0.0
H2340 H 0.47763 0.49225 0.56688 0.0
H2341 H 0.46671 0.49637 0.59954 0.0
C2342 C 0.755 0.15603 0.95712 0.0
C2343 C 0.77039 0.15683 0.97127 0.0
C2344 C 0.75458 0.17008 0.94392 0.0
C2345 C 0.78486 0.20586 0.92022 0.0
H2346 H 0.73915 0.22623 0.90879 0.0
C2347 C 0.78087 0.26081 0.86304 0.0
C2348 C 0.76504 0.25689 0.84913 0.0
C2349 C 0.78136 0.25153 0.88046 0.0
C2350 C 0.752 0.22063 0.91175 0.0
H2351 H 0.79749 0.17295 0.98256 0.0
H2352 H 0.7968 0.1974 0.95934 0.0
H2353 H 0.74056 0.20358 0.93385 0.0
H2354 H 0.73687 0.24107 0.84325 0.0
H2355 H 0.73784 0.22475 0.87333 0.0
H2356 H 0.79615 0.22235 0.89772 0.0
C2357 C 0.78508 0.18588 0.95848 0.0
C2358 C 0.7528 0.20765 0.92609 0.0
C2359 C 0.78545 0.17189 0.97179 0.0
C2360 C 0.7493 0.24442 0.85362 0.0
C2361 C 0.74983 0.2351 0.87097 0.0
C2362 C 0.78404 0.21875 0.9058 0.0
C2363 C 0.76959 0.18517 0.94449 0.0
C2364 C 0.76915 0.19992 0.93026 0.0
C2365 C 0.76607 0.2381 0.88431 0.0
C2366 C 0.76751 0.22608 0.90117 0.0
H2367 H 0.74317 0.14464 0.95633 0.0
H2368 H 0.74258 0.16901 0.9331 0.0
H2369 H 0.7976 0.20001 0.92298 0.0
H2370 H 0.79318 0.27044 0.86011 0.0
H2371 H 0.79395 0.25446 0.89062 0.0
C2372 C 0.10878 0.4866 0.19873 0.0
C2373 C 0.10124 0.47422 0.21221 0.0
C2374 C 0.09873 0.48812 0.18069 0.0
C2375 C 0.05075 0.4807 0.15641 0.0
H2376 H 0.0766 0.48958 0.10936 0.0
C2377 C 0.01467 0.49076 0.07864 0.0
C2378 C 0.02362 0.50611 0.06928 0.0
C2379 C 0.02301 0.48538 0.0962 0.0
C2380 C 0.06921 0.48717 0.12241 0.0
H2381 H 0.0774 0.45331 0.21709 0.0
H2382 H 0.05989 0.45579 0.18533 0.0
H2383 H 0.09362 0.48165 0.13919 0.0
H2384 H 0.04792 0.52838 0.07154 0.0
H2385 H 0.06241 0.51891 0.10196 0.0
H2386 H 0.02631 0.4863 0.13943 0.0
C2387 C 0.0735 0.46453 0.18891 0.0
C2388 C 0.07895 0.48266 0.1395 0.0
C2389 C 0.08357 0.46302 0.20704 0.0
C2390 C 0.04069 0.51639 0.07824 0.0
C2391 C 0.04908 0.51091 0.09561 0.0
C2392 C 0.04095 0.48509 0.13921 0.0
C2393 C 0.08091 0.47724 0.17562 0.0
C2394 C 0.06996 0.47983 0.15685 0.0
C2395 C 0.04051 0.49515 0.10455 0.0
C2396 C 0.05023 0.4888 0.12223 0.0
H2397 H 0.12232 0.49548 0.20226 0.0
H2398 H 0.10473 0.49829 0.17097 0.0
H2399 H 0.04344 0.47876 0.16958 0.0
H2400 H 0.00148 0.48258 0.07212 0.0
H2401 H 0.01612 0.47319 0.10286 0.0
C2402 C 0.76719 0.84445 0.48173 0.0
C2403 C 0.75655 0.85877 0.48626 0.0
C2404 C 0.76589 0.83563 0.4624 0.0
C2405 C 0.75402 0.84488 0.41092 0.0
H2406 H 0.74932 0.79028 0.39878 0.0
C2407 C 0.73386 0.81037 0.33167 0.0
C2408 C 0.74257 0.7952 0.32489 0.0
C2409 C 0.7365 0.81744 0.35159 0.0
C2410 C 0.75092 0.80557 0.40195 0.0
H2411 H 0.73572 0.87459 0.4742 0.0
H2412 H 0.73352 0.85925 0.4406 0.0
H2413 H 0.75186 0.8036 0.43343 0.0
H2414 H 0.76085 0.77546 0.33375 0.0
H2415 H 0.76571 0.78807 0.36873 0.0
H2416 H 0.75321 0.84702 0.37964 0.0
C2417 C 0.74301 0.85499 0.45193 0.0
C2418 C 0.75231 0.81318 0.42177 0.0
C2419 C 0.74421 0.86369 0.47122 0.0
C2420 C 0.75395 0.78717 0.33854 0.0
C2421 C 0.75666 0.79432 0.35858 0.0
C2422 C 0.75275 0.83733 0.39119 0.0
C2423 C 0.75404 0.84109 0.44724 0.0
C2424 C 0.75355 0.83289 0.4264 0.0
C2425 C 0.74802 0.80963 0.36529 0.0
C2426 C 0.75084 0.81757 0.38642 0.0
H2427 H 0.7768 0.84031 0.49301 0.0
H2428 H 0.77459 0.82499 0.45918 0.0
H2429 H 0.75539 0.86017 0.41406 0.0
H2430 H 0.72487 0.81679 0.32161 0.0
H2431 H 0.72931 0.82895 0.3563 0.0
C2432 C 0.41144 0.52189 0.81504 0.0
C2433 C 0.4188 0.51369 0.79856 0.0
C2434 C 0.41949 0.52094 0.83426 0.0
C2435 C 0.46237 0.51448 0.86335 0.0
H2436 H 0.42861 0.4993 0.90277 0.0
C2437 C 0.48902 0.50526 0.94445 0.0
C2438 C 0.47909 0.51279 0.95925 0.0
C2439 C 0.48195 0.50363 0.92444 0.0
C2440 C 0.43823 0.50371 0.892 0.0
H2441 H 0.44079 0.49864 0.78931 0.0
H2442 H 0.45497 0.49718 0.823 0.0
H2443 H 0.41614 0.50077 0.86859 0.0
H2444 H 0.45386 0.52424 0.96468 0.0
H2445 H 0.44179 0.52172 0.93004 0.0
H2446 H 0.48444 0.5179 0.88689 0.0
C2447 C 0.44292 0.50426 0.82096 0.0
C2448 C 0.43108 0.50454 0.87242 0.0
C2449 C 0.43476 0.50506 0.8017 0.0
C2450 C 0.46185 0.51832 0.95369 0.0
C2451 C 0.45484 0.51675 0.93377 0.0
C2452 C 0.46955 0.51379 0.88302 0.0
C2453 C 0.43516 0.51192 0.83744 0.0
C2454 C 0.44303 0.51018 0.85796 0.0
C2455 C 0.46483 0.50949 0.91887 0.0
C2456 C 0.45752 0.50868 0.89764 0.0
H2457 H 0.39919 0.52869 0.81315 0.0
H2458 H 0.41338 0.52722 0.84668 0.0
H2459 H 0.47189 0.51895 0.8525 0.0
H2460 H 0.50234 0.50084 0.94827 0.0
H2461 H 0.48989 0.49778 0.91335 0.0
C2462 C 0.80441 0.1921 0.07093 0.0
C2463 C 0.79981 0.17214 0.06946 0.0
C2464 C 0.80598 0.20268 0.08939 0.0
C2465 C 0.81026 0.1983 0.14378 0.0
H2466 H 0.78341 0.24115 0.14637 0.0
C2467 C 0.77905 0.22298 0.21379 0.0
C2468 C 0.78039 0.24257 0.21927 0.0
C2469 C 0.78503 0.21659 0.19588 0.0
C2470 C 0.79128 0.22946 0.14586 0.0
H2471 H 0.79394 0.14759 0.0863 0.0
H2472 H 0.79647 0.16597 0.11834 0.0
H2473 H 0.78776 0.22574 0.11409 0.0
H2474 H 0.7892 0.27084 0.21028 0.0
H2475 H 0.79946 0.25952 0.17855 0.0
H2476 H 0.81305 0.20152 0.17557 0.0
C2477 C 0.79908 0.1735 0.10531 0.0
C2478 C 0.79379 0.22063 0.12737 0.0
C2479 C 0.7975 0.16295 0.0869 0.0
C2480 C 0.78799 0.25566 0.20644 0.0
C2481 C 0.79381 0.24921 0.18831 0.0
C2482 C 0.80768 0.20706 0.16222 0.0
C2483 C 0.80305 0.1935 0.10675 0.0
C2484 C 0.80284 0.2046 0.12615 0.0
C2485 C 0.7924 0.22959 0.1829 0.0
C2486 C 0.79769 0.22237 0.16345 0.0
H2487 H 0.80637 0.19962 0.05779 0.0
H2488 H 0.80926 0.21806 0.09005 0.0
H2489 H 0.81765 0.18625 0.14333 0.0
H2490 H 0.77336 0.21251 0.22336 0.0
H2491 H 0.7835 0.20138 0.19198 0.0
C2492 C 0.094 0.481 0.31204 0.0
C2493 C 0.0968 0.49663 0.30064 0.0
C2494 C 0.08244 0.48102 0.32747 0.0
C2495 C 0.04621 0.50524 0.34934 0.0
H2496 H 0.06615 0.48723 0.39784 0.0
C2497 C 0.02059 0.51921 0.42766 0.0
C2498 C 0.02038 0.50427 0.44001 0.0
C2499 C 0.02728 0.51746 0.40892 0.0
C2500 C 0.06023 0.49207 0.38434 0.0
H2501 H 0.08914 0.52426 0.296 0.0
H2502 H 0.06929 0.52446 0.32325 0.0
H2503 H 0.08284 0.48552 0.36841 0.0
H2504 H 0.02541 0.47526 0.44187 0.0
H2505 H 0.03673 0.47215 0.40926 0.0
H2506 H 0.02376 0.51218 0.36569 0.0
C2507 C 0.07581 0.51207 0.32009 0.0
C2508 C 0.06979 0.49105 0.36743 0.0
C2509 C 0.0873 0.512 0.30455 0.0
C2510 C 0.02573 0.48715 0.43282 0.0
C2511 C 0.03227 0.48538 0.41416 0.0
C2512 C 0.03663 0.50633 0.36637 0.0
C2513 C 0.07354 0.49673 0.33196 0.0
C2514 C 0.06289 0.49755 0.3497 0.0
C2515 C 0.03376 0.50073 0.40231 0.0
C2516 C 0.04353 0.49965 0.38401 0.0
H2517 H 0.10095 0.46884 0.30925 0.0
H2518 H 0.08068 0.46879 0.33607 0.0
H2519 H 0.04048 0.51026 0.33586 0.0
H2520 H 0.01654 0.53255 0.43288 0.0
H2521 H 0.02829 0.52953 0.40008 0.0
C2522 C 0.7475 0.86737 0.59514 0.0
C2523 C 0.73798 0.85905 0.57694 0.0
C2524 C 0.7462 0.85775 0.61226 0.0
C2525 C 0.73621 0.80981 0.62907 0.0
H2526 H 0.73224 0.83753 0.67957 0.0
C2527 C 0.73262 0.77328 0.70252 0.0
C2528 C 0.74393 0.78324 0.719 0.0
C2529 C 0.72978 0.78209 0.68502 0.0
C2530 C 0.73346 0.82961 0.6656 0.0
H2531 H 0.71954 0.83408 0.56252 0.0
H2532 H 0.7173 0.81726 0.59251 0.0
H2533 H 0.73125 0.85376 0.64925 0.0
H2534 H 0.76088 0.81037 0.73007 0.0
H2535 H 0.75609 0.82554 0.69966 0.0
H2536 H 0.73881 0.78575 0.6455 0.0
C2537 C 0.72584 0.83121 0.59344 0.0
C2538 C 0.73289 0.83891 0.64823 0.0
C2539 C 0.72706 0.84089 0.57629 0.0
C2540 C 0.75208 0.80225 0.71768 0.0
C2541 C 0.74922 0.81102 0.70027 0.0
C2542 C 0.73682 0.8005 0.64647 0.0
C2543 C 0.73542 0.83954 0.61162 0.0
C2544 C 0.73457 0.82921 0.62981 0.0
C2545 C 0.73811 0.80106 0.68369 0.0
C2546 C 0.73578 0.81039 0.66498 0.0
H2547 H 0.75605 0.88133 0.59617 0.0
H2548 H 0.75397 0.86445 0.62597 0.0
H2549 H 0.7377 0.80199 0.61512 0.0
H2550 H 0.72613 0.75863 0.70306 0.0
H2551 H 0.72101 0.77408 0.67255 0.0
C2552 C 0.70126 0.44009 0.52473 0.0
C2553 C 0.6934 0.42068 0.52302 0.0
C2554 C 0.68994 0.45413 0.5266 0.0
C2555 C 0.64308 0.4617 0.53975 0.0
H2556 H 0.65066 0.50424 0.50738 0.0
C2557 C 0.59515 0.51299 0.5019 0.0
C2558 C 0.58435 0.51664 0.51756 0.0
C2559 C 0.61157 0.50546 0.50535 0.0
C2560 C 0.64843 0.4925 0.5166 0.0
H2561 H 0.66748 0.40081 0.52205 0.0
H2562 H 0.64774 0.42524 0.52506 0.0
H2563 H 0.67265 0.48171 0.50783 0.0
H2564 H 0.58318 0.51686 0.54945 0.0
H2565 H 0.61203 0.5039 0.55551 0.0
H2566 H 0.61836 0.47186 0.54772 0.0
C2567 C 0.66269 0.42964 0.52525 0.0
C2568 C 0.6611 0.47967 0.51697 0.0
C2569 C 0.67399 0.41562 0.52335 0.0
C2570 C 0.59114 0.51413 0.53703 0.0
C2571 C 0.60759 0.50654 0.54049 0.0
C2572 C 0.63042 0.47451 0.53937 0.0
C2573 C 0.67052 0.44905 0.52686 0.0
C2574 C 0.65829 0.46385 0.52816 0.0
C2575 C 0.61757 0.50141 0.52456 0.0
C2576 C 0.63269 0.4898 0.52741 0.0
H2577 H 0.71618 0.44448 0.52459 0.0
H2578 H 0.69641 0.46895 0.52797 0.0
H2579 H 0.6407 0.44983 0.54878 0.0
H2580 H 0.59036 0.51488 0.48674 0.0
H2581 H 0.61883 0.50159 0.49271 0.0
C2582 C 0.19719 0.10942 0.50638 0.0
C2583 C 0.21179 0.10146 0.4985 0.0
C2584 C 0.17973 0.09832 0.50699 0.0
C2585 C 0.14777 0.0564 0.48476 0.0
H2586 H 0.12705 0.05866 0.53562 0.0
C2587 C 0.07481 0.01465 0.49797 0.0
C2588 C 0.064 0.02497 0.50959 0.0
C2589 C 0.09358 0.022 0.49618 0.0
C2590 C 0.13254 0.05797 0.52126 0.0
H2591 H 0.21932 0.07579 0.48438 0.0
H2592 H 0.18847 0.05642 0.48513 0.0
H2593 H 0.15827 0.07563 0.53271 0.0
H2594 H 0.06434 0.05128 0.52806 0.0
H2595 H 0.09652 0.0641 0.52461 0.0
H2596 H 0.12168 0.03928 0.47315 0.0
C2597 C 0.19073 0.07123 0.49098 0.0
C2598 C 0.15044 0.06764 0.51964 0.0
C2599 C 0.20835 0.08229 0.49062 0.0
C2600 C 0.07225 0.04281 0.51914 0.0
C2601 C 0.09083 0.05014 0.51729 0.0
C2602 C 0.12968 0.04683 0.48633 0.0
C2603 C 0.17638 0.07908 0.49951 0.0
C2604 C 0.15807 0.0673 0.50131 0.0
C2605 C 0.10182 0.03979 0.50598 0.0
C2606 C 0.12171 0.04791 0.50452 0.0
H2607 H 0.19936 0.12413 0.51255 0.0
H2608 H 0.16881 0.10476 0.51343 0.0
H2609 H 0.15339 0.05593 0.47046 0.0
H2610 H 0.06884 0.00086 0.49042 0.0
H2611 H 0.1017 0.01366 0.4874 0.0
C2612 C 0.18801 0.95777 0.77912 0.0
C2613 C 0.18072 0.96137 0.79736 0.0
C2614 C 0.19944 0.9439 0.77681 0.0
C2615 C 0.22791 0.91425 0.80518 0.0
H2616 H 0.21773 0.87983 0.75708 0.0
C2617 C 0.24399 0.83818 0.80046 0.0
C2618 C 0.25014 0.83052 0.78296 0.0
C2619 C 0.23934 0.85641 0.80168 0.0
C2620 C 0.22103 0.88954 0.77041 0.0
H2621 H 0.17995 0.95342 0.82754 0.0
H2622 H 0.19955 0.92896 0.82341 0.0
H2623 H 0.20185 0.90737 0.76029 0.0
H2624 H 0.25695 0.83618 0.75324 0.0
H2625 H 0.24856 0.86822 0.75531 0.0
H2626 H 0.24652 0.89591 0.81557 0.0
C2627 C 0.19673 0.93709 0.81098 0.0
C2628 C 0.21191 0.90533 0.77229 0.0
C2629 C 0.18536 0.95102 0.81332 0.0
C2630 C 0.25227 0.84176 0.76692 0.0
C2631 C 0.24738 0.86001 0.76806 0.0
C2632 C 0.23695 0.89842 0.80333 0.0
C2633 C 0.20379 0.93326 0.79265 0.0
C2634 C 0.21492 0.91763 0.78988 0.0
C2635 C 0.24058 0.86737 0.78537 0.0
C2636 C 0.23328 0.88566 0.78611 0.0
H2637 H 0.18482 0.96559 0.76656 0.0
H2638 H 0.20484 0.9415 0.76259 0.0
H2639 H 0.23085 0.92367 0.81874 0.0
H2640 H 0.2423 0.82989 0.81312 0.0
H2641 H 0.23395 0.86156 0.81513 0.0
C2642 C 0.31854 0.89937 0.01419 0.0
C2643 C 0.30343 0.90936 0.01211 0.0
C2644 C 0.33666 0.90831 0.01214 0.0
C2645 C 0.36581 0.95561 0.01526 0.0
H2646 H 0.4003 0.92768 0.98964 0.0
C2647 C 0.44265 0.989 0.00985 0.0
C2648 C 0.45574 0.97755 0.01591 0.0
C2649 C 0.42367 0.98127 0.00623 0.0
C2650 C 0.39083 0.93565 0.99686 0.0
H2651 H 0.29548 0.93656 0.00605 0.0
H2652 H 0.32717 0.95215 0.00233 0.0
H2653 H 0.36767 0.91309 0.98953 0.0
H2654 H 0.45937 0.94891 0.02206 0.0
H2655 H 0.4264 0.9355 0.01578 0.0
H2656 H 0.38909 0.97802 0.02292 0.0
C2657 C 0.32499 0.93744 0.00576 0.0
C2658 C 0.37216 0.92729 0.99685 0.0
C2659 C 0.30683 0.92848 0.00781 0.0
C2660 C 0.44962 0.95812 0.01748 0.0
C2661 C 0.43072 0.95039 0.01374 0.0
C2662 C 0.38449 0.96399 0.01525 0.0
C2663 C 0.34012 0.92746 0.00792 0.0
C2664 C 0.35952 0.93702 0.00639 0.0
C2665 C 0.41749 0.96194 0.00841 0.0
C2666 C 0.39728 0.95395 0.00639 0.0
H2667 H 0.31642 0.88464 0.01754 0.0
H2668 H 0.34804 0.9003 0.01423 0.0
H2669 H 0.35648 0.96341 0.02292 0.0
H2670 H 0.44696 0.00403 0.00851 0.0
H2671 H 0.4138 0.99047 0.00195 0.0
C2672 C 0.83519 0.56774 0.74607 0.0
C2673 C 0.85212 0.57448 0.75781 0.0
C2674 C 0.82231 0.5799 0.74215 0.0
C2675 C 0.8185 0.63078 0.7415 0.0
H2676 H 0.76579 0.61357 0.74551 0.0
C2677 C 0.75075 0.66748 0.75563 0.0
C2678 C 0.75393 0.68251 0.74345 0.0
C2679 C 0.76056 0.65219 0.75386 0.0
C2680 C 0.78045 0.61856 0.74429 0.0
H2681 H 0.86876 0.59929 0.77465 0.0
H2682 H 0.84623 0.62046 0.76794 0.0
H2683 H 0.78803 0.59161 0.75034 0.0
H2684 H 0.76845 0.6923 0.7185 0.0
H2685 H 0.78526 0.66545 0.71517 0.0
H2686 H 0.81113 0.65788 0.73624 0.0
C2687 C 0.84302 0.60582 0.76156 0.0
C2688 C 0.79317 0.60595 0.7469 0.0
C2689 C 0.85589 0.59365 0.76551 0.0
C2690 C 0.76585 0.68107 0.72829 0.0
C2691 C 0.77559 0.66575 0.72647 0.0
C2692 C 0.8058 0.64334 0.73886 0.0
C2693 C 0.82608 0.59908 0.74984 0.0
C2694 C 0.81238 0.61203 0.74585 0.0
C2695 C 0.77366 0.65157 0.73979 0.0
C2696 C 0.78666 0.63747 0.74049 0.0
H2697 H 0.83185 0.55304 0.73987 0.0
H2698 H 0.80947 0.57433 0.73292 0.0
H2699 H 0.83316 0.63581 0.74032 0.0
H2700 H 0.74164 0.66811 0.76744 0.0
H2701 H 0.75877 0.64154 0.76439 0.0
C2702 C 0.81706 0.58275 0.01003 0.0
C2703 C 0.80387 0.58051 0.99334 0.0
C2704 C 0.8307 0.57103 0.01141 0.0
C2705 C 0.85652 0.54186 0.9808 0.0
H2706 H 0.87033 0.52224 0.03072 0.0
C2707 C 0.91717 0.49928 0.98818 0.0
C2708 C 0.92997 0.50499 0.00502 0.0
C2709 C 0.89964 0.50506 0.98703 0.0
C2710 C 0.8667 0.52767 0.0167 0.0
H2711 H 0.7946 0.56413 0.96504 0.0
H2712 H 0.81854 0.54373 0.9674 0.0
H2713 H 0.84394 0.5395 0.02799 0.0
H2714 H 0.93397 0.52028 0.03436 0.0
H2715 H 0.90365 0.53054 0.03225 0.0
H2716 H 0.87961 0.53069 0.96965 0.0
C2717 C 0.81832 0.5546 0.97939 0.0
C2718 C 0.85158 0.53755 0.01514 0.0
C2719 C 0.80458 0.56625 0.97808 0.0
C2720 C 0.92446 0.51564 0.02115 0.0
C2721 C 0.90699 0.52146 0.01997 0.0
C2722 C 0.87169 0.53209 0.98238 0.0
C2723 C 0.83152 0.55688 0.99608 0.0
C2724 C 0.84653 0.54502 0.99727 0.0
C2725 C 0.89457 0.51669 0.00268 0.0
C2726 C 0.87717 0.52514 0.00045 0.0
H2727 H 0.8169 0.59359 0.02207 0.0
H2728 H 0.84084 0.5733 0.02432 0.0
H2729 H 0.85309 0.54763 0.96689 0.0
H2730 H 0.92092 0.49096 0.97554 0.0
H2731 H 0.89026 0.50083 0.97365 0.0
C2732 C 0.16077 0.07507 0.77021 0.0
C2733 C 0.16626 0.06138 0.78226 0.0
C2734 C 0.17221 0.09259 0.76987 0.0
C2735 C 0.20929 0.12705 0.79775 0.0
H2736 H 0.21593 0.14509 0.74587 0.0
C2737 C 0.2512 0.20143 0.78607 0.0
C2738 C 0.24185 0.21154 0.77254 0.0
C2739 C 0.24452 0.18216 0.78785 0.0
C2740 C 0.21419 0.14027 0.76048 0.0
H2741 H 0.18785 0.05559 0.80389 0.0
H2742 H 0.20784 0.08655 0.80342 0.0
H2743 H 0.19913 0.11319 0.7483 0.0
H2744 H 0.21822 0.20932 0.75025 0.0
H2745 H 0.2067 0.17612 0.7534 0.0
H2746 H 0.22387 0.1545 0.8099 0.0
C2747 C 0.19468 0.08353 0.79418 0.0
C2748 C 0.20458 0.12202 0.76186 0.0
C2749 C 0.18326 0.06583 0.7944 0.0
C2750 C 0.22584 0.202 0.76078 0.0
C2751 C 0.21928 0.18287 0.76248 0.0
C2752 C 0.21888 0.14544 0.79637 0.0
C2753 C 0.18936 0.09694 0.78165 0.0
C2754 C 0.20156 0.11541 0.78049 0.0
C2755 C 0.22852 0.1727 0.77598 0.0
C2756 C 0.22094 0.15241 0.77769 0.0
H2757 H 0.14775 0.07216 0.76074 0.0
H2758 H 0.16761 0.1028 0.76033 0.0
H2759 H 0.20714 0.12228 0.8123 0.0
H2760 H 0.26355 0.2084 0.79536 0.0
H2761 H 0.25194 0.17465 0.79835 0.0
C2762 C 0.34162 0.96044 0.26893 0.0
C2763 C 0.35745 0.96471 0.25848 0.0
C2764 C 0.33251 0.94165 0.26869 0.0
C2765 C 0.34025 0.89202 0.25915 0.0
H2766 H 0.2862 0.87992 0.25048 0.0
C2767 C 0.30273 0.81664 0.23353 0.0
C2768 C 0.2867 0.80947 0.24252 0.0
C2769 C 0.31081 0.83574 0.23721 0.0
C2770 C 0.30128 0.88312 0.2532 0.0
H2771 H 0.37602 0.95262 0.2395 0.0
H2772 H 0.36009 0.92001 0.23896 0.0
H2773 H 0.30147 0.91321 0.25383 0.0
H2774 H 0.26639 0.81678 0.26225 0.0
H2775 H 0.28058 0.85039 0.26865 0.0
H2776 H 0.34014 0.862 0.25817 0.0
C2777 C 0.35486 0.9311 0.24757 0.0
C2778 C 0.31002 0.90215 0.25511 0.0
C2779 C 0.36392 0.94983 0.24777 0.0
C2780 C 0.27875 0.82191 0.25511 0.0
C2781 C 0.28682 0.84112 0.25872 0.0
C2782 C 0.33154 0.87305 0.25721 0.0
C2783 C 0.3391 0.92677 0.25808 0.0
C2784 C 0.32962 0.90676 0.25772 0.0
C2785 C 0.30304 0.84816 0.24993 0.0
C2786 C 0.312 0.86838 0.25382 0.0
H2787 H 0.3363 0.9716 0.27734 0.0
H2788 H 0.32047 0.93873 0.27703 0.0
H2789 H 0.35535 0.89513 0.2616 0.0
H2790 H 0.30919 0.80749 0.2237 0.0
H2791 H 0.32311 0.84082 0.22994 0.0
C2792 C 0.54232 0.33567 0.61347 0.0
C2793 C 0.52611 0.322 0.6129 0.0
C2794 C 0.54195 0.35235 0.60407 0.0
C2795 C 0.51762 0.3746 0.56525 0.0
H2796 H 0.53789 0.42141 0.59782 0.0
C2797 C 0.51435 0.45025 0.53925 0.0
C2798 C 0.52975 0.46442 0.54581 0.0
C2799 C 0.51311 0.43212 0.54622 0.0
C2800 C 0.53242 0.4085 0.58838 0.0
H2801 H 0.49693 0.31479 0.60139 0.0
H2802 H 0.49641 0.34398 0.58467 0.0
H2803 H 0.53747 0.39107 0.61188 0.0
H2804 H 0.55641 0.47049 0.56372 0.0
H2805 H 0.55463 0.43899 0.5752 0.0
H2806 H 0.51298 0.39207 0.54156 0.0
C2807 C 0.50934 0.34173 0.59252 0.0
C2808 C 0.53211 0.39112 0.5965 0.0
C2809 C 0.50964 0.3251 0.60216 0.0
C2810 C 0.5442 0.45995 0.55868 0.0
C2811 C 0.54311 0.44189 0.56538 0.0
C2812 C 0.51813 0.39206 0.55699 0.0
C2813 C 0.52542 0.35565 0.59371 0.0
C2814 C 0.52492 0.37399 0.58499 0.0
C2815 C 0.52735 0.42787 0.55969 0.0
C2816 C 0.52579 0.40922 0.56841 0.0
H2817 H 0.55525 0.33372 0.62156 0.0
H2818 H 0.55459 0.36277 0.60503 0.0
H2819 H 0.512 0.36155 0.55607 0.0
H2820 H 0.503 0.45337 0.52934 0.0
H2821 H 0.50075 0.42169 0.54158 0.0
C2822 C 0.44597 0.72249 0.32599 0.0
C2823 C 0.45385 0.73777 0.33997 0.0
C2824 C 0.42966 0.7234 0.31389 0.0
C2825 C 0.40048 0.75753 0.29516 0.0
H2826 H 0.35982 0.71488 0.29123 0.0
C2827 C 0.32388 0.76574 0.27985 0.0
C2828 C 0.31144 0.75137 0.26811 0.0
C2829 C 0.34237 0.76357 0.28461 0.0
C2830 C 0.37115 0.72677 0.29183 0.0
H2831 H 0.45091 0.76608 0.35205 0.0
H2832 H 0.42254 0.76759 0.33114 0.0
H2833 H 0.39033 0.71182 0.30731 0.0
H2834 H 0.30879 0.72372 0.25157 0.0
H2835 H 0.34129 0.71988 0.26 0.0
H2836 H 0.38116 0.77269 0.28027 0.0
C2837 C 0.42903 0.75498 0.32932 0.0
C2838 C 0.38862 0.72502 0.30106 0.0
C2839 C 0.44522 0.75404 0.34144 0.0
C2840 C 0.31806 0.73503 0.26065 0.0
C2841 C 0.33661 0.73279 0.26556 0.0
C2842 C 0.38304 0.75927 0.28596 0.0
C2843 C 0.42102 0.73967 0.31545 0.0
C2844 C 0.40331 0.74058 0.30332 0.0
C2845 C 0.34888 0.74695 0.2778 0.0
C2846 C 0.36804 0.7441 0.28469 0.0
H2847 H 0.45231 0.70976 0.32447 0.0
H2848 H 0.42385 0.71142 0.30326 0.0
H2849 H 0.41165 0.76964 0.29631 0.0
H2850 H 0.31923 0.77853 0.28578 0.0
H2851 H 0.35138 0.77463 0.29428 0.0
C2852 C 0.00144 0.70949 0.1132 0.0
C2853 C 0.01677 0.72333 0.11046 0.0
C2854 C -0.00129 0.69161 0.10256 0.0
C2855 C 0.02382 0.65821 0.07581 0.0
H2856 H 0.97353 0.63216 0.05881 0.0
C2857 C 0.00722 0.58141 0.03613 0.0
C2858 C 0.9934 0.56925 0.04445 0.0
C2859 C 0.01037 0.60103 0.04173 0.0
C2860 C 0.98765 0.63926 0.06348 0.0
H2861 H 0.04113 0.72933 0.09414 0.0
H2862 H 0.03622 0.69808 0.07536 0.0
H2863 H 0.9784 0.66523 0.07274 0.0
H2864 H 0.97195 0.56814 0.06496 0.0
H2865 H 0.97737 0.60219 0.07455 0.0
H2866 H 0.03297 0.63204 0.06669 0.0
C2867 C 0.02644 0.70103 0.08594 0.0
C2868 C 0.99045 0.65818 0.07151 0.0
C2869 C 0.0292 0.71896 0.09663 0.0
C2870 C 0.98272 0.57709 0.05829 0.0
C2871 C 0.98572 0.59663 0.06368 0.0
C2872 C 0.02101 0.63927 0.06765 0.0
C2873 C 0.01119 0.68712 0.08885 0.0
C2874 C 0.00852 0.66774 0.07824 0.0
C2875 C -0.00043 0.60881 0.05551 0.0
C2876 C 0.00285 0.62949 0.06187 0.0
H2877 H 0.99163 0.71233 0.12378 0.0
H2878 H 0.98701 0.68114 0.10546 0.0
H2879 H 0.0379 0.6651 0.08099 0.0
H2880 H 0.01568 0.57577 0.02544 0.0
H2881 H 0.02111 0.61013 0.03517 0.0
C2882 C 0.06927 0.24569 0.87799 0.0
C2883 C 0.05306 0.25254 0.87118 0.0
C2884 C 0.08487 0.24757 0.8672 0.0
C2885 C 0.09995 0.25565 0.81735 0.0
H2886 H 0.14896 0.26619 0.84677 0.0
C2887 C 0.17168 0.26731 0.78246 0.0
C2888 C 0.18438 0.25612 0.79014 0.0
C2889 C 0.15486 0.26809 0.79097 0.0
C2890 C 0.13535 0.26326 0.83837 0.0
H2891 H 0.04045 0.2667 0.84763 0.0
H2892 H 0.06789 0.27028 0.82893 0.0
H2893 H 0.12119 0.26579 0.86456 0.0
H2894 H 0.18908 0.23651 0.81231 0.0
H2895 H 0.16007 0.2381 0.8271 0.0
H2896 H 0.1144 0.2532 0.79112 0.0
C2897 C 0.06842 0.26322 0.84249 0.0
C2898 C 0.11944 0.26291 0.84854 0.0
C2899 C 0.05274 0.26124 0.85326 0.0
C2900 C 0.17971 0.24537 0.80606 0.0
C2901 C 0.16312 0.24632 0.81464 0.0
C2902 C 0.11595 0.25618 0.80712 0.0
C2903 C 0.08471 0.25649 0.8494 0.0
C2904 C 0.10153 0.25862 0.83823 0.0
C2905 C 0.15068 0.25789 0.80741 0.0
C2906 C 0.13375 0.25952 0.81763 0.0
H2907 H 0.06993 0.23878 0.89164 0.0
H2908 H 0.09701 0.24184 0.87275 0.0
H2909 H 0.08636 0.25221 0.80896 0.0
H2910 H 0.17489 0.27573 0.77018 0.0
H2911 H 0.14542 0.27709 0.78514 0.0
C2912 C 0.52985 0.71042 0.94298 0.0
C2913 C 0.5189 0.72385 0.94936 0.0
C2914 C 0.53087 0.69425 0.95307 0.0
C2915 C 0.50455 0.66199 0.98345 0.0
H2916 H 0.55181 0.64404 0.99307 0.0
C2917 C 0.50948 0.58859 0.01308 0.0
C2918 C 0.52079 0.57787 0.00263 0.0
C2919 C 0.50995 0.60793 0.0104 0.0
C2920 C 0.53849 0.64884 0.99045 0.0
H2921 H 0.50051 0.73091 0.97142 0.0
H2922 H 0.5021 0.70236 0.98892 0.0
H2923 H 0.55133 0.67529 0.981 0.0
H2924 H 0.54177 0.57913 0.98156 0.0
H2925 H 0.54239 0.61245 0.97674 0.0
H2926 H 0.49162 0.63518 0.99205 0.0
C2927 C 0.50993 0.70448 0.97614 0.0
C2928 C 0.53824 0.66673 0.98358 0.0
C2929 C 0.50909 0.72082 0.96617 0.0
C2930 C 0.53284 0.58693 0.98983 0.0
C2931 C 0.53334 0.60615 0.9872 0.0
C2932 C 0.50478 0.64399 0.99021 0.0
C2933 C 0.52082 0.69104 0.96965 0.0
C2934 C 0.52123 0.67326 0.9795 0.0
C2935 C 0.52183 0.61687 0.99732 0.0
C2936 C 0.52173 0.637 0.99322 0.0
H2937 H 0.5376 0.71235 0.9301 0.0
H2938 H 0.53918 0.684 0.94758 0.0
H2939 H 0.49123 0.66665 0.98033 0.0
H2940 H 0.50007 0.58199 0.02307 0.0
H2941 H 0.501 0.61586 0.01849 0.0
C2942 C 0.07084 0.74381 0.65839 0.0
C2943 C 0.05693 0.75034 0.669 0.0
C2944 C 0.08892 0.74474 0.66741 0.0
C2945 C 0.11691 0.74633 0.71465 0.0
H2946 H 0.15718 0.77037 0.68648 0.0
C2947 C 0.19442 0.76197 0.74834 0.0
C2948 C 0.20828 0.76135 0.73518 0.0
C2949 C 0.17555 0.75969 0.74107 0.0
C2950 C 0.14618 0.76329 0.69443 0.0
H2951 H 0.05096 0.76249 0.6976 0.0
H2952 H 0.0827 0.76379 0.71355 0.0
H2953 H 0.12502 0.76817 0.6725 0.0
H2954 H 0.2133 0.75664 0.70428 0.0
H2955 H 0.18052 0.7518 0.69167 0.0
H2956 H 0.13809 0.74095 0.73634 0.0
C2957 C 0.0795 0.75808 0.69818 0.0
C2958 C 0.12773 0.76218 0.68645 0.0
C2959 C 0.0614 0.75742 0.68903 0.0
C2960 C 0.20291 0.75746 0.71475 0.0
C2961 C 0.1841 0.75485 0.70753 0.0
C2962 C 0.13545 0.74719 0.72254 0.0
C2963 C 0.09346 0.75197 0.68734 0.0
C2964 C 0.11292 0.75361 0.6964 0.0
C2965 C 0.17019 0.75647 0.72051 0.0
C2966 C 0.15035 0.75557 0.71244 0.0
H2967 H 0.06788 0.73827 0.64294 0.0
H2968 H 0.09939 0.73979 0.65879 0.0
H2969 H 0.1057 0.73956 0.72255 0.0
H2970 H 0.1982 0.76505 0.76418 0.0
H2971 H 0.16529 0.76117 0.75153 0.0
C2972 C 0.02591 0.32863 0.43621 0.0
C2973 C 0.00998 0.31448 0.43437 0.0
C2974 C 0.02603 0.34606 0.44715 0.0
C2975 C 0.99323 0.37651 0.46554 0.0
H2976 H 0.03826 0.40598 0.49377 0.0
C2977 C 0.01823 0.45299 0.51643 0.0
C2978 C 0.00818 0.46424 0.50492 0.0
C2979 C 0.01857 0.43398 0.50981 0.0
C2980 C 0.0255 0.39783 0.48619 0.0
H2981 H 0.98203 0.30707 0.44332 0.0
H2982 H 0.98241 0.33714 0.46287 0.0
H2983 H 0.03875 0.37368 0.47942 0.0
H2984 H 0.99089 0.46448 0.4773 0.0
H2985 H 0.99186 0.43181 0.46566 0.0
H2986 H 0.97985 0.40038 0.47261 0.0
C2987 C 0.99462 0.33511 0.45537 0.0
C2988 C 0.02584 0.3794 0.47772 0.0
C2989 C 0.99441 0.31782 0.44421 0.0
C2990 C -0.00138 0.45618 0.48667 0.0
C2991 C -0.00093 0.43735 0.48002 0.0
C2992 C 0.99285 0.39479 0.47413 0.0
C2993 C 0.01029 0.3496 0.45669 0.0
C2994 C 0.00977 0.36863 0.46701 0.0
C2995 C 0.00891 0.42595 0.49154 0.0
C2996 C 0.00906 0.40584 0.48418 0.0
H2997 H 0.03812 0.32644 0.42876 0.0
H2998 H 0.03824 0.35695 0.4476 0.0
H2999 H 0.98063 0.3688 0.45723 0.0
H3000 H 0.02571 0.45882 0.53058 0.0
H3001 H 0.02618 0.42553 0.51909 0.0
C3002 C 0.43584 0.27272 0.15729 0.0
C3003 C 0.45128 0.26686 0.16743 0.0
C3004 C 0.41927 0.27297 0.16621 0.0
C3005 C 0.39825 0.27355 0.21369 0.0
H3006 H 0.35341 0.25014 0.1805 0.0
C3007 C 0.3246 0.25735 0.24261 0.0
C3008 C 0.30919 0.25905 0.22936 0.0
C3009 C 0.34266 0.25977 0.23639 0.0
C3010 C 0.36572 0.25701 0.18991 0.0
H3011 H 0.46166 0.2574 0.19525 0.0
H3012 H 0.43252 0.25789 0.2109 0.0
H3013 H 0.38359 0.25168 0.16737 0.0
H3014 H 0.30069 0.26597 0.19976 0.0
H3015 H 0.33204 0.27075 0.18915 0.0
H3016 H 0.38022 0.27899 0.23623 0.0
C3017 C 0.43335 0.26227 0.19601 0.0
C3018 C 0.38305 0.25783 0.18238 0.0
C3019 C 0.44998 0.26192 0.18702 0.0
C3020 C 0.31226 0.26426 0.21021 0.0
C3021 C 0.33024 0.26687 0.20409 0.0
C3022 C 0.38081 0.27285 0.22124 0.0
C3023 C 0.41772 0.26745 0.18552 0.0
C3024 C 0.39949 0.26625 0.19408 0.0
C3025 C 0.3456 0.2641 0.21687 0.0
C3026 C 0.36431 0.26473 0.20933 0.0
H3027 H 0.43637 0.27677 0.14226 0.0
H3028 H 0.40756 0.27734 0.15787 0.0
H3029 H 0.41071 0.28018 0.22302 0.0
H3030 H 0.32263 0.25333 0.25747 0.0
H3031 H 0.35416 0.25748 0.24661 0.0
C3032 C 0.58052 0.51532 0.32153 0.0
C3033 C 0.59727 0.50789 0.32372 0.0
C3034 C 0.56777 0.51316 0.33585 0.0
C3035 C 0.55566 0.48672 0.3796 0.0
H3036 H 0.53514 0.53186 0.39555 0.0
C3037 C 0.52922 0.52267 0.45361 0.0
C3038 C 0.5174 0.5073 0.46004 0.0
C3039 C 0.53553 0.52145 0.43481 0.0
C3040 C 0.5407 0.51911 0.39123 0.0
H3041 H 0.61359 0.49198 0.34244 0.0
H3042 H 0.59164 0.48867 0.36766 0.0
H3043 H 0.55315 0.53166 0.36693 0.0
H3044 H 0.5025 0.47872 0.45154 0.0
H3045 H 0.51364 0.47656 0.41837 0.0
H3046 H 0.54402 0.47462 0.40469 0.0
C3047 C 0.58813 0.49584 0.3547 0.0
C3048 C 0.55087 0.5189 0.37467 0.0
C3049 C 0.60082 0.49789 0.34031 0.0
C3050 C 0.5116 0.49079 0.44698 0.0
C3051 C 0.51806 0.48952 0.42807 0.0
C3052 C 0.54551 0.48695 0.39624 0.0
C3053 C 0.57154 0.50363 0.35275 0.0
C3054 C 0.55888 0.50289 0.36893 0.0
C3055 C 0.53022 0.50482 0.42188 0.0
C3056 C 0.53837 0.50336 0.40255 0.0
H3057 H 0.57727 0.52291 0.3088 0.0
H3058 H 0.55501 0.51908 0.33371 0.0
H3059 H 0.56136 0.47403 0.37537 0.0
H3060 H 0.5339 0.53564 0.46325 0.0
H3061 H 0.54512 0.53338 0.43067 0.0
C3062 C 0.21599 0.84706 0.06669 0.0
C3063 C 0.23217 0.85732 0.06031 0.0
C3064 C 0.21734 0.83347 0.08029 0.0
C3065 C 0.25032 0.81885 0.11827 0.0
H3066 H 0.21443 0.77206 0.11298 0.0
C3067 C 0.2554 0.76273 0.17345 0.0
C3068 C 0.23879 0.75749 0.18233 0.0
C3069 C 0.25514 0.77195 0.15601 0.0
C3070 C 0.22455 0.78506 0.11461 0.0
H3071 H 0.26249 0.86135 0.06318 0.0
H3072 H 0.26482 0.83751 0.08665 0.0
H3073 H 0.21292 0.79488 0.08804 0.0
H3074 H 0.20871 0.75624 0.17893 0.0
H3075 H 0.20828 0.77226 0.1485 0.0
H3076 H 0.26182 0.80916 0.14491 0.0
C3077 C 0.25108 0.84015 0.08142 0.0
C3078 C 0.22363 0.79818 0.10042 0.0
C3079 C 0.24974 0.85381 0.06792 0.0
C3080 C 0.22176 0.76021 0.17253 0.0
C3081 C 0.2215 0.76933 0.15503 0.0
C3082 C 0.2513 0.8057 0.13236 0.0
C3083 C 0.2349 0.82977 0.08773 0.0
C3084 C 0.23636 0.81535 0.10223 0.0
C3085 C 0.23826 0.77596 0.14704 0.0
C3086 C 0.23829 0.78877 0.13083 0.0
H3087 H 0.20225 0.84945 0.06112 0.0
H3088 H 0.2046 0.82598 0.0851 0.0
H3089 H 0.26016 0.83204 0.12031 0.0
H3090 H 0.26875 0.76076 0.18057 0.0
H3091 H 0.26824 0.77663 0.14997 0.0
C3092 C 0.92152 0.50257 0.81636 0.0
C3093 C 0.9148 0.51872 0.81001 0.0
C3094 C 0.93237 0.50362 0.83444 0.0
C3095 C 0.96415 0.53508 0.87106 0.0
H3096 H 0.94799 0.49765 0.90722 0.0
C3097 C 0.99836 0.53606 0.95196 0.0
C3098 C 0.9982 0.51839 0.95974 0.0
C3099 C 0.98965 0.53702 0.93295 0.0
C3100 C 0.95295 0.508 0.8972 0.0
H3101 H 0.91451 0.54877 0.81737 0.0
H3102 H 0.93387 0.55064 0.84907 0.0
H3103 H 0.92975 0.49778 0.87563 0.0
H3104 H 0.99038 0.48786 0.95347 0.0
H3105 H 0.97616 0.48938 0.92005 0.0
H3106 H 0.98768 0.545 0.89244 0.0
C3107 C 0.93056 0.53718 0.83999 0.0
C3108 C 0.94237 0.50815 0.87916 0.0
C3109 C 0.91941 0.53607 0.82198 0.0
C3110 C 0.99044 0.50168 0.94782 0.0
C3111 C 0.98213 0.50259 0.92877 0.0
C3112 C 0.97495 0.53478 0.88907 0.0
C3113 C 0.93696 0.5209 0.84643 0.0
C3114 C 0.94793 0.52157 0.86587 0.0
C3115 C 0.98092 0.52029 0.92137 0.0
C3116 C 0.96956 0.52108 0.90227 0.0
H3117 H 0.91823 0.48901 0.80746 0.0
H3118 H 0.93726 0.49091 0.83905 0.0
H3119 H 0.96872 0.54552 0.86096 0.0
H3120 H 0.00418 0.54913 0.96101 0.0
H3121 H 0.98895 0.55089 0.92777 0.0
C3122 C 0.27562 0.1545 0.56678 0.0
C3123 C 0.27096 0.16363 0.54986 0.0
C3124 C 0.27605 0.16368 0.58577 0.0
C3125 C 0.25791 0.20187 0.61378 0.0
H3126 H 0.29791 0.19689 0.65347 0.0
C3127 C 0.26705 0.24033 0.69375 0.0
C3128 C 0.27233 0.22953 0.70911 0.0
C3129 C 0.26662 0.23324 0.67384 0.0
C3130 C 0.28655 0.19828 0.64261 0.0
H3131 H 0.2631 0.18961 0.53966 0.0
H3132 H 0.26392 0.20568 0.57293 0.0
H3133 H 0.29804 0.18296 0.6196 0.0
H3134 H 0.28057 0.20256 0.71565 0.0
H3135 H 0.27957 0.19021 0.68117 0.0
H3136 H 0.24633 0.21705 0.63696 0.0
C3137 C 0.26711 0.19135 0.57144 0.0
C3138 C 0.28663 0.1903 0.6232 0.0
C3139 C 0.26676 0.18218 0.55239 0.0
C3140 C 0.27663 0.21135 0.70419 0.0
C3141 C 0.27618 0.20429 0.68439 0.0
C3142 C 0.25781 0.20985 0.63327 0.0
C3143 C 0.2718 0.1822 0.58833 0.0
C3144 C 0.27219 0.19176 0.60863 0.0
C3145 C 0.27147 0.21525 0.66897 0.0
C3146 C 0.27198 0.20788 0.64797 0.0
H3147 H 0.27887 0.14019 0.56539 0.0
H3148 H 0.27945 0.15613 0.59849 0.0
H3149 H 0.24651 0.20311 0.6029 0.0
H3150 H 0.26367 0.25441 0.69708 0.0
H3151 H 0.26298 0.24205 0.66228 0.0
C3152 C 0.58761 0.4881 0.22918 0.0
C3153 C 0.60676 0.49404 0.2349 0.0
C3154 C 0.58047 0.48831 0.20942 0.0
C3155 C 0.59414 0.4857 0.1589 0.0
H3156 H 0.55088 0.50936 0.14534 0.0
C3157 C 0.5714 0.49464 0.07773 0.0
C3158 C 0.55218 0.4914 0.07168 0.0
C3159 C 0.57776 0.49619 0.09785 0.0
C3160 C 0.56282 0.50247 0.14886 0.0
H3161 H 0.63346 0.50477 0.22442 0.0
H3162 H 0.62104 0.5048 0.18994 0.0
H3163 H 0.5622 0.50887 0.18021 0.0
H3164 H 0.52451 0.48773 0.08192 0.0
H3165 H 0.53557 0.48983 0.11707 0.0
H3166 H 0.59462 0.47878 0.1278 0.0
C3167 C 0.61156 0.50006 0.20074 0.0
C3168 C 0.56931 0.50224 0.16882 0.0
C3169 C 0.61864 0.5001 0.22049 0.0
C3170 C 0.53942 0.4903 0.08617 0.0
C3171 C 0.54578 0.49158 0.10633 0.0
C3172 C 0.58755 0.48571 0.139 0.0
C3173 C 0.59242 0.49418 0.19502 0.0
C3174 C 0.58511 0.49398 0.17398 0.0
C3175 C 0.56504 0.49423 0.1124 0.0
C3176 C 0.5719 0.49423 0.13369 0.0
H3177 H 0.57811 0.48343 0.23998 0.0
H3178 H 0.56567 0.48361 0.20533 0.0
H3179 H 0.6062 0.47899 0.16251 0.0
H3180 H 0.58157 0.49577 0.06689 0.0
H3181 H 0.59269 0.49876 0.10197 0.0
C3182 C 0.23025 0.85158 0.95523 0.0
C3183 C 0.23614 0.84569 0.97368 0.0
C3184 C 0.22914 0.83939 0.93788 0.0
C3185 C 0.2217 0.80741 0.90397 0.0
H3186 H 0.26644 0.78483 0.89894 0.0
C3187 C 0.23442 0.76104 0.83354 0.0
C3188 C 0.25157 0.76741 0.82616 0.0
C3189 C 0.23071 0.76814 0.85237 0.0
C3190 C 0.25381 0.79093 0.9002 0.0
H3191 H 0.24438 0.822 0.98855 0.0
H3192 H 0.24246 0.80083 0.95831 0.0
H3193 H 0.26222 0.80191 0.93031 0.0
H3194 H 0.27847 0.78569 0.83284 0.0
H3195 H 0.27212 0.79776 0.86568 0.0
H3196 H 0.21366 0.79685 0.87352 0.0
C3197 C 0.23894 0.81493 0.95723 0.0
C3198 C 0.25131 0.80058 0.91818 0.0
C3199 C 0.23999 0.82707 0.97455 0.0
C3200 C 0.26511 0.78055 0.83811 0.0
C3201 C 0.26152 0.78738 0.85695 0.0
C3202 C 0.22413 0.79757 0.88598 0.0
C3203 C 0.23395 0.82112 0.93867 0.0
C3204 C 0.23542 0.80924 0.92015 0.0
C3205 C 0.24425 0.7814 0.8642 0.0
C3206 C 0.24041 0.78962 0.88383 0.0
H3207 H 0.22711 0.86582 0.95408 0.0
H3208 H 0.22538 0.84459 0.92375 0.0
H3209 H 0.20926 0.81385 0.90514 0.0
H3210 H 0.22371 0.75098 0.82458 0.0
H3211 H 0.21731 0.76329 0.85769 0.0
C3212 C 0.94338 0.55386 0.72983 0.0
C3213 C 0.92832 0.53876 0.72896 0.0
C3214 C 0.95769 0.55294 0.7174 0.0
C3215 C 0.97954 0.51918 0.6869 0.0
H3216 H 0.992 0.56128 0.65492 0.0
C3217 C 0.00644 0.51031 0.61056 0.0
C3218 C 0.01758 0.52567 0.60328 0.0
C3219 C 0.00036 0.51214 0.62948 0.0
C3220 C 0.98911 0.54957 0.66405 0.0
H3221 H 0.91659 0.51077 0.71456 0.0
H3222 H 0.94152 0.50919 0.69295 0.0
H3223 H 0.97161 0.56438 0.68128 0.0
H3224 H 0.03249 0.55442 0.61084 0.0
H3225 H 0.02208 0.55751 0.64408 0.0
H3226 H 0.99665 0.50417 0.66939 0.0
C3227 C 0.94232 0.52168 0.70331 0.0
C3228 C 0.97734 0.55134 0.67912 0.0
C3229 C 0.92795 0.52267 0.71556 0.0
C3230 C 0.02379 0.54237 0.61595 0.0
C3231 C 0.01771 0.54419 0.63494 0.0
C3232 C 0.99143 0.51745 0.67195 0.0
C3233 C 0.95731 0.5368 0.70406 0.0
C3234 C 0.97196 0.53594 0.69024 0.0
C3235 C 0.00535 0.52935 0.64161 0.0
C3236 C 0.99584 0.53239 0.65989 0.0
H3237 H 0.94407 0.56644 0.74004 0.0
H3238 H 0.9691 0.56479 0.71829 0.0
H3239 H 0.97587 0.50721 0.69552 0.0
H3240 H 0.0015 0.49719 0.60123 0.0
H3241 H 0.99074 0.50045 0.63401 0.0
C3242 C 0.26639 0.13887 0.42579 0.0
C3243 C 0.27226 0.14549 0.44569 0.0
C3244 C 0.26915 0.15098 0.41071 0.0
C3245 C 0.27603 0.20151 0.4014 0.0
H3246 H 0.28988 0.182 0.35073 0.0
C3247 C 0.28217 0.24663 0.33362 0.0
C3248 C 0.27285 0.23715 0.31581 0.0
C3249 C 0.28506 0.23653 0.35024 0.0
C3250 C 0.28598 0.18766 0.36479 0.0
H3251 H 0.28573 0.17007 0.46536 0.0
H3252 H 0.29056 0.19124 0.43893 0.0
H3253 H 0.28926 0.16222 0.37849 0.0
H3254 H 0.25976 0.20959 0.30129 0.0
H3255 H 0.26472 0.19216 0.33003 0.0
H3256 H 0.27232 0.2268 0.38747 0.0
C3257 C 0.28373 0.17668 0.43505 0.0
C3258 C 0.28559 0.17631 0.38067 0.0
C3259 C 0.28103 0.16452 0.45017 0.0
C3260 C 0.2669 0.21738 0.3148 0.0
C3261 C 0.2699 0.20732 0.33125 0.0
C3262 C 0.27642 0.21288 0.38547 0.0
C3263 C 0.27782 0.17003 0.41515 0.0
C3264 C 0.28016 0.18291 0.39901 0.0
C3265 C 0.27888 0.21676 0.34921 0.0
C3266 C 0.28094 0.20588 0.36685 0.0
H3267 H 0.25955 0.12432 0.42182 0.0
H3268 H 0.26415 0.14549 0.39557 0.0
H3269 H 0.27168 0.20696 0.41531 0.0
H3270 H 0.28689 0.26187 0.33484 0.0
H3271 H 0.2921 0.24416 0.36388 0.0
C3272 C 0.31693 0.57939 0.48821 0.0
C3273 C 0.30821 0.58409 0.50523 0.0
C3274 C 0.32895 0.56591 0.48847 0.0
C3275 C 0.35867 0.54411 0.52382 0.0
H3276 H 0.36415 0.51119 0.4772 0.0
C3277 C 0.41505 0.49664 0.52566 0.0
C3278 C 0.4268 0.499 0.51028 0.0
C3279 C 0.39772 0.50279 0.52426 0.0
C3280 C 0.36273 0.52028 0.49034 0.0
H3281 H 0.3046 0.5777 0.53557 0.0
H3282 H 0.32521 0.55393 0.53588 0.0
H3283 H 0.33909 0.53037 0.47648 0.0
H3284 H 0.42884 0.50813 0.48061 0.0
H3285 H 0.39866 0.51888 0.47822 0.0
H3286 H 0.38244 0.53434 0.53756 0.0
C3287 C 0.32316 0.56099 0.52248 0.0
C3288 C 0.34845 0.53133 0.48992 0.0
C3289 C 0.31128 0.57457 0.52229 0.0
C3290 C 0.42018 0.5062 0.49279 0.0
C3291 C 0.40282 0.51229 0.49137 0.0
C3292 C 0.37283 0.533 0.52427 0.0
C3293 C 0.33241 0.55672 0.5057 0.0
C3294 C 0.34645 0.54363 0.50655 0.0
C3295 C 0.39174 0.51134 0.50741 0.0
C3296 C 0.37523 0.5212 0.50745 0.0
H3297 H 0.31486 0.58648 0.47484 0.0
H3298 H 0.33601 0.56319 0.47535 0.0
H3299 H 0.35781 0.55365 0.53678 0.0
H3300 H 0.41963 0.491 0.53927 0.0
H3301 H 0.38932 0.50156 0.53671 0.0
C3302 C 0.81618 0.95311 0.55658 0.0
C3303 C 0.80814 0.93573 0.54587 0.0
C3304 C 0.83502 0.96055 0.5556 0.0
C3305 C 0.87961 0.94642 0.54246 0.0
H3306 H 0.89425 5e-05 0.53605 0.0
C3307 C 0.95086 0.97597 0.51682 0.0
C3308 C 0.96056 0.99324 0.52645 0.0
C3309 C 0.93245 0.96942 0.52039 0.0
C3310 C 0.89041 0.98509 0.53809 0.0
H3311 H 0.81361 0.91254 0.52574 0.0
H3312 H 0.84623 0.92557 0.52389 0.0
H3313 H 0.86174 0.98771 0.54044 0.0
H3314 H 0.95843 0.01728 0.54726 0.0
H3315 H 0.9262 0.00577 0.55348 0.0
H3316 H 0.90818 0.94372 0.53984 0.0
C3317 C 0.83812 0.93334 0.53328 0.0
C3318 C 0.8718 0.97803 0.54062 0.0
C3319 C 0.81934 0.92593 0.53424 0.0
C3320 C 0.95135 0.00391 0.5396 0.0
C3321 C 0.93287 0.99737 0.5431 0.0
C3322 C 0.89816 0.95346 0.53989 0.0
C3323 C 0.84619 0.95073 0.54394 0.0
C3324 C 0.86615 0.95856 0.54257 0.0
C3325 C 0.92327 0.97999 0.53362 0.0
C3326 C 0.90373 0.97282 0.53741 0.0
H3327 H 0.80793 0.961 0.5657 0.0
H3328 H 0.84088 0.9739 0.56412 0.0
H3329 H 0.87579 0.93142 0.54433 0.0
H3330 H 0.95751 0.96742 0.50656 0.0
H3331 H 0.92534 0.95611 0.51261 0.0
C3332 C 0.83329 0.06292 0.28042 0.0
C3333 C 0.83886 0.0549 0.26278 0.0
C3334 C 0.82017 0.07525 0.27981 0.0
C3335 C 0.79971 0.10675 0.24637 0.0
H3336 H 0.76582 0.10988 0.28733 0.0
C3337 C 0.75116 0.16256 0.24712 0.0
C3338 C 0.75366 0.17434 0.26503 0.0
C3339 C 0.75758 0.14509 0.24618 0.0
C3340 C 0.77515 0.10908 0.27575 0.0
H3341 H 0.83458 0.05298 0.23062 0.0
H3342 H 0.81131 0.07406 0.2295 0.0
H3343 H 0.78504 0.08471 0.28654 0.0
H3344 H 0.76332 0.17631 0.29635 0.0
H3345 H 0.77434 0.14574 0.29473 0.0
H3346 H 0.78991 0.13119 0.2357 0.0
C3347 C 0.81743 0.07127 0.24386 0.0
C3348 C 0.78626 0.09477 0.27535 0.0
C3349 C 0.83073 0.05913 0.24448 0.0
C3350 C 0.76129 0.1676 0.28231 0.0
C3351 C 0.76753 0.15005 0.28141 0.0
C3352 C 0.78846 0.12089 0.24664 0.0
C3353 C 0.81213 0.07967 0.26151 0.0
C3354 C 0.79897 0.09368 0.26089 0.0
C3355 C 0.7664 0.13899 0.26318 0.0
C3356 C 0.77633 0.12242 0.26155 0.0
H3357 H 0.83935 0.05998 0.29476 0.0
H3358 H 0.81672 0.08169 0.29371 0.0
H3359 H 0.80952 0.10661 0.23521 0.0
H3360 H 0.74529 0.1673 0.23354 0.0
H3361 H 0.75635 0.13671 0.23199 0.0
C3362 C 0.71711 0.09917 0.0266 0.0
C3363 C 0.72335 0.11894 0.02831 0.0
C3364 C 0.69806 0.09195 0.02596 0.0
C3365 C 0.65231 0.10462 0.01208 0.0
H3366 H 0.63315 0.06243 0.04145 0.0
C3367 C 0.57351 0.07839 0.00966 0.0
C3368 C 0.5675 0.05862 0.00794 0.0
C3369 C 0.59238 0.08594 0.01426 0.0
C3370 C 0.63829 0.07409 0.033 0.0
H3371 H 0.71453 0.1466 0.03107 0.0
H3372 H 0.6813 0.13396 0.02983 0.0
H3373 H 0.66655 0.07515 0.04537 0.0
H3374 H 0.57646 0.03123 0.01025 0.0
H3375 H 0.60952 0.04437 0.01778 0.0
H3376 H 0.62433 0.10335 -0.00075 0.0
C3377 C 0.69114 0.12408 0.0289 0.0
C3378 C 0.65741 0.08139 0.03529 0.0
C3379 C 0.71018 0.13131 0.02969 0.0
C3380 C 0.58068 0.04655 0.01153 0.0
C3381 C 0.59962 0.0541 0.01593 0.0
C3382 C 0.63327 0.09725 0.00966 0.0
C3383 C 0.68487 0.10434 0.02685 0.0
C3384 C 0.66459 0.09673 0.02485 0.0
C3385 C 0.60574 0.07388 0.01702 0.0
C3386 C 0.626 0.0819 0.02009 0.0
H3387 H 0.72692 0.08927 0.02554 0.0
H3388 H 0.69361 0.07666 0.02422 0.0
H3389 H 0.65749 0.11624 0.00358 0.0
H3390 H 0.56365 0.08808 0.00722 0.0
H3391 H 0.59651 0.10125 0.01545 0.0
C3392 C 0.18988 0.45117 0.27115 0.0
C3393 C 0.17755 0.45234 0.28591 0.0
C3394 C 0.20401 0.44009 0.2731 0.0
C3395 C 0.22946 0.41431 0.30954 0.0
H3396 H 0.23842 0.38484 0.2619 0.0
C3397 C 0.25971 0.34422 0.3077 0.0
C3398 C 0.27095 0.34036 0.29247 0.0
C3399 C 0.25242 0.3612 0.30906 0.0
C3400 C 0.23638 0.39325 0.27529 0.0
H3401 H 0.1704 0.44291 0.31436 0.0
H3402 H 0.19458 0.42295 0.31743 0.0
H3403 H 0.21692 0.40751 0.25959 0.0
H3404 H 0.28478 0.35205 0.2679 0.0
H3405 H 0.27197 0.38165 0.27028 0.0
H3406 H 0.24833 0.39912 0.32529 0.0
C3407 C 0.19371 0.431 0.30458 0.0
C3408 C 0.22402 0.40628 0.27398 0.0
C3409 C 0.17972 0.44231 0.30275 0.0
C3410 C 0.27607 0.35452 0.27973 0.0
C3411 C 0.26866 0.37143 0.281 0.0
C3412 C 0.24171 0.40108 0.31086 0.0
C3413 C 0.20598 0.42967 0.28973 0.0
C3414 C 0.2202 0.41682 0.2911 0.0
C3415 C 0.25615 0.37457 0.29515 0.0
C3416 C 0.24511 0.39026 0.29377 0.0
H3417 H 0.18873 0.45895 0.25812 0.0
H3418 H 0.21341 0.43972 0.26155 0.0
H3419 H 0.22713 0.42243 0.32298 0.0
H3420 H 0.25561 0.33365 0.31784 0.0
H3421 H 0.24279 0.3632 0.3201 0.0
C3422 C 0.21218 0.4443 0.03086 0.0
C3423 C 0.20732 0.42516 0.02312 0.0
C3424 C 0.19911 0.45669 0.02964 0.0
C3425 C 0.15357 0.46223 0.00363 0.0
H3426 H 0.14955 0.4948 0.05098 0.0
C3427 C 0.09336 0.49799 0.04109 0.0
C3428 C 0.08489 0.50528 0.02463 0.0
C3429 C 0.11066 0.49204 0.04025 0.0
C3430 C 0.15053 0.48584 0.0376 0.0
H3431 H 0.18498 0.4041 0.00781 0.0
H3432 H 0.16214 0.42559 0.00595 0.0
H3433 H 0.17486 0.47617 0.05027 0.0
H3434 H 0.08834 0.51297 0.99469 0.0
H3435 H 0.11877 0.50259 0.99321 0.0
H3436 H 0.12868 0.47118 0.99134 0.0
C3437 C 0.17613 0.43113 0.01269 0.0
C3438 C 0.16515 0.4753 0.03712 0.0
C3439 C 0.18919 0.41876 0.01391 0.0
C3440 C 0.09454 0.50741 0.00762 0.0
C3441 C 0.11188 0.50133 0.00672 0.0
C3442 C 0.13894 0.47278 0.00411 0.0
C3443 C 0.18089 0.45023 0.02064 0.0
C3444 C 0.16658 0.46301 0.02031 0.0
C3445 C 0.11992 0.49319 0.02289 0.0
C3446 C 0.13699 0.48435 0.02129 0.0
H3447 H 0.22607 0.44973 0.03797 0.0
H3448 H 0.20328 0.47136 0.03572 0.0
H3449 H 0.15445 0.45314 0.99032 0.0
H3450 H 0.08632 0.49623 0.05447 0.0
H3451 H 0.11631 0.48566 0.0529 0.0
C3452 C 0.84726 0.95604 0.25176 0.0
C3453 C 0.84057 0.96788 0.23819 0.0
C3454 C 0.83802 0.93752 0.25252 0.0
C3455 C 0.79274 0.90616 0.23987 0.0
H3456 H 0.82286 0.86674 0.24852 0.0
C3457 C 0.76318 0.8255 0.24346 0.0
C3458 C 0.77147 0.81719 0.25935 0.0
C3459 C 0.77038 0.84403 0.23941 0.0
C3460 C 0.81427 0.87762 0.24616 0.0
H3461 H 0.81885 0.96957 0.2148 0.0
H3462 H 0.80276 0.93698 0.21603 0.0
H3463 H 0.83803 0.89866 0.24353 0.0
H3464 H 0.79307 0.82222 0.2841 0.0
H3465 H 0.8056 0.85424 0.2769 0.0
H3466 H 0.76896 0.88488 0.24262 0.0
C3467 C 0.81509 0.94217 0.22618 0.0
C3468 C 0.82295 0.8959 0.24335 0.0
C3469 C 0.82435 0.96079 0.22542 0.0
C3470 C 0.78656 0.82802 0.27152 0.0
C3471 C 0.79379 0.84637 0.26739 0.0
C3472 C 0.78402 0.88775 0.24259 0.0
C3473 C 0.8219 0.93032 0.23969 0.0
C3474 C 0.81234 0.91051 0.24066 0.0
C3475 C 0.78602 0.85444 0.2511 0.0
C3476 C 0.79478 0.87345 0.24623 0.0
H3477 H 0.85963 0.96108 0.2619 0.0
H3478 H 0.84343 0.9289 0.26338 0.0
H3479 H 0.7842 0.91714 0.23792 0.0
H3480 H 0.75148 0.81753 0.23387 0.0
H3481 H 0.76413 0.84998 0.22677 0.0
C3482 C 0.68838 0.05029 0.76682 0.0
C3483 C 0.67791 0.04319 0.74873 0.0
C3484 C 0.69872 0.06864 0.76905 0.0
C3485 C 0.6995 0.11504 0.75001 0.0
H3486 H 0.74958 0.12648 0.77694 0.0
C3487 C 0.73917 0.19175 0.76152 0.0
C3488 C 0.74891 0.19748 0.78029 0.0
C3489 C 0.73239 0.17254 0.75591 0.0
C3490 C 0.73555 0.12354 0.76953 0.0
H3491 H 0.67034 0.04963 0.71866 0.0
H3492 H 0.6883 0.08179 0.72267 0.0
H3493 H 0.73409 0.09342 0.77051 0.0
H3494 H 0.75963 0.18757 0.80771 0.0
H3495 H 0.74736 0.15411 0.79817 0.0
H3496 H 0.70056 0.14506 0.74959 0.0
C3497 C 0.68845 0.07312 0.7351 0.0
C3498 C 0.72672 0.10462 0.76581 0.0
C3499 C 0.67823 0.05471 0.73281 0.0
C3500 C 0.75221 0.18358 0.79312 0.0
C3501 C 0.74527 0.16438 0.78759 0.0
C3502 C 0.70824 0.13395 0.75386 0.0
C3503 C 0.69867 0.08031 0.75329 0.0
C3504 C 0.70855 0.10022 0.75617 0.0
C3505 C 0.73503 0.15865 0.76902 0.0
C3506 C 0.72631 0.13845 0.76383 0.0
H3507 H 0.68847 0.04175 0.77935 0.0
H3508 H 0.70634 0.0739 0.7833 0.0
H3509 H 0.68539 0.11207 0.74279 0.0
H3510 H 0.73659 0.20214 0.75121 0.0
H3511 H 0.72491 0.1686 0.74134 0.0
loop_
_geom_bond_atom_site_label_1
_geom_bond_atom_site_label_2
_geom_bond_distance
_geom_bond_site_symmetry_2
_ccdc_geom_bond_type
C0 O1 1.160 . S
C0 O7 1.185 . S
O1 C0 1.160 . S
O2 Zn3 1.899 . S
O2 C10 1.284 . S
Zn3 O2 1.899 . S
Zn3 O4 2.032 . S
Zn3 O7 2.086 . S
Zn3 O12 1.977 1_455 S
O4 Zn3 2.032 . S
O4 C8 1.278 . S
C5 O6 1.203 . S
C5 O12 1.267 . S
O6 C5 1.203 . S
O7 C0 1.185 . S
O7 Zn3 2.086 . S
C8 O4 1.278 . S
C8 O9 1.242 . S
O9 C8 1.242 . S
C10 O2 1.284 . S
C10 O11 1.273 . S
O11 C10 1.273 . S
O12 Zn3 1.977 1_655 S
O12 C5 1.267 . S
C13 O14 1.160 . S
C13 O20 1.185 . S
O14 C13 1.160 . S
O15 Zn16 1.898 . S
O15 C23 1.289 . S
Zn16 O15 1.898 . S
Zn16 O17 2.032 1_455 S
Zn16 O20 2.086 1_455 S
Zn16 O25 1.977 . S
O17 Zn16 2.032 1_655 S
O17 C21 1.278 1_655 S
C18 O19 1.203 . S
C18 O25 1.267 . S
O19 C18 1.203 . S
O20 C13 1.185 . S
O20 Zn16 2.086 1_655 S
C21 O17 1.278 1_455 S
C21 O22 1.211 . S
O22 C21 1.211 . S
C23 O15 1.289 . S
C23 O24 1.273 . S
O24 C23 1.273 . S
O25 Zn16 1.977 . S
O25 C18 1.267 . S
C26 O27 1.160 . S
C26 O33 1.185 . S
O27 C26 1.160 . S
O28 Zn29 1.899 . S
O28 C36 1.284 . S
Zn29 O28 1.899 . S
Zn29 O30 2.032 . S
Zn29 O33 2.086 . S
Zn29 O38 1.977 . S
O30 Zn29 2.032 . S
O30 C34 1.278 . S
C31 O32 1.203 . S
C31 O38 1.267 . S
O32 C31 1.203 . S
O33 C26 1.185 . S
O33 Zn29 2.086 . S
C34 O30 1.278 . S
C34 O35 1.211 . S
O35 C34 1.211 . S
C36 O28 1.284 . S
C36 O37 1.273 . S
O37 C36 1.273 . S
O38 Zn29 1.977 . S
O38 C31 1.267 . S
C39 O40 1.160 . S
C39 O46 1.185 . S
O40 C39 1.160 . S
O41 Zn42 1.899 . S
O41 C49 1.284 . S
Zn42 O41 1.899 . S
Zn42 O43 2.032 . S
Zn42 O46 2.086 . S
Zn42 O51 1.977 . S
O43 Zn42 2.032 . S
O43 C47 1.278 . S
C44 O45 1.203 . S
C44 O51 1.267 . S
O45 C44 1.203 . S
O46 C39 1.185 . S
O46 Zn42 2.086 . S
C47 O43 1.278 . S
C47 O48 1.211 . S
O48 C47 1.211 . S
C49 O41 1.284 . S
C49 O50 1.273 . S
O50 C49 1.273 . S
O51 Zn42 1.977 . S
O51 C44 1.267 . S
C52 O53 1.160 . S
C52 O59 1.148 1_655 S
O53 C52 1.160 . S
O54 Zn55 1.899 . S
O54 C62 1.284 . S
Zn55 O54 1.899 . S
Zn55 O56 2.032 . S
Zn55 O59 2.117 . S
Zn55 O64 1.977 . S
O56 Zn55 2.032 . S
O56 C60 1.278 . S
C57 O58 1.203 . S
C57 O64 1.267 . S
O58 C57 1.203 . S
O59 C52 1.148 1_455 S
O59 Zn55 2.117 . S
C60 O56 1.278 . S
C60 O61 1.211 . S
O61 C60 1.211 . S
C62 O54 1.284 . S
C62 O63 1.273 . S
O63 C62 1.273 . S
O64 Zn55 1.977 . S
O64 C57 1.267 . S
C65 O66 1.160 . S
C65 O72 1.185 . S
O66 C65 1.160 . S
O67 Zn68 1.899 . S
O67 C75 1.284 . S
Zn68 O67 1.899 . S
Zn68 O69 2.032 . S
Zn68 O72 2.086 . S
Zn68 O77 1.977 . S
O69 Zn68 2.032 . S
O69 C73 1.278 . S
C70 O71 1.203 . S
C70 O77 1.267 . S
O71 C70 1.203 . S
O72 C65 1.185 . S
O72 Zn68 2.086 . S
C73 O69 1.278 . S
C73 O74 1.211 . S
O74 C73 1.211 . S
C75 O67 1.284 . S
C75 O76 1.273 . S
O76 C75 1.273 . S
O77 Zn68 1.977 . S
O77 C70 1.267 . S
C78 O79 1.160 . S
C78 O85 1.185 . S
O79 C78 1.160 . S
O80 Zn81 1.899 . S
O80 C88 1.284 . S
Zn81 O80 1.899 . S
Zn81 O82 2.032 . S
Zn81 O85 2.086 . S
Zn81 O90 1.977 . S
O82 Zn81 2.032 . S
O82 C86 1.278 . S
C83 O84 1.203 . S
C83 O90 1.267 . S
O84 C83 1.203 . S
O85 C78 1.185 . S
O85 Zn81 2.086 . S
C86 O82 1.278 . S
C86 O87 1.211 . S
O87 C86 1.211 . S
C88 O80 1.284 . S
C88 O89 1.273 . S
O89 C88 1.273 . S
O90 Zn81 1.977 . S
O90 C83 1.267 . S
C91 O92 1.160 . S
C91 O98 1.185 . S
O92 C91 1.160 . S
O93 Zn94 1.899 . S
O93 C101 1.284 1_455 S
Zn94 O93 1.899 . S
Zn94 O95 2.032 . S
Zn94 O98 2.086 . S
Zn94 O103 1.977 1_455 S
O95 Zn94 2.032 . S
O95 C99 1.324 . S
C96 O97 1.203 . S
C96 O103 1.267 . S
O97 C96 1.203 . S
O98 C91 1.185 . S
O98 Zn94 2.086 . S
C99 O95 1.324 . S
C99 O100 1.152 1_455 S
O100 C99 1.152 1_655 S
C101 O93 1.284 1_655 S
C101 O102 1.273 . S
O102 C101 1.273 . S
O103 Zn94 1.977 1_655 S
O103 C96 1.267 . S
C104 O105 1.160 . S
C104 O111 1.185 . S
O105 C104 1.160 . S
O106 Zn107 1.899 . S
O106 C114 1.284 . S
Zn107 O106 1.899 . S
Zn107 O108 2.032 . S
Zn107 O111 2.086 . S
Zn107 O116 1.947 1_545 S
O108 Zn107 2.032 . S
O108 C112 1.278 . S
C109 O110 1.203 . S
C109 O116 1.304 . S
O110 C109 1.203 . S
O111 C104 1.185 . S
O111 Zn107 2.086 . S
C112 O108 1.278 . S
C112 O113 1.211 . S
O113 C112 1.211 . S
C114 O106 1.284 . S
C114 O115 1.273 . S
O115 C114 1.273 . S
O116 Zn107 1.947 1_565 S
O116 C109 1.304 . S
C117 O118 1.160 . S
C117 O124 1.185 . S
O118 C117 1.160 . S
O119 Zn120 1.899 . S
O119 C127 1.284 . S
Zn120 O119 1.899 . S
Zn120 O121 2.032 . S
Zn120 O124 2.086 . S
Zn120 O129 1.977 . S
O121 Zn120 2.032 . S
O121 C125 1.278 . S
C122 O123 1.203 . S
C122 O129 1.267 . S
O123 C122 1.203 . S
O124 C117 1.185 . S
O124 Zn120 2.086 . S
C125 O121 1.278 . S
C125 O126 1.211 . S
O126 C125 1.211 . S
C127 O119 1.284 . S
C127 O128 1.273 . S
O128 C127 1.273 . S
O129 Zn120 1.977 . S
O129 C122 1.267 . S
C130 O131 1.160 . S
C130 O137 1.185 . S
O131 C130 1.160 . S
O132 Zn133 1.899 . S
O132 C140 1.284 . S
Zn133 O132 1.899 . S
Zn133 O134 2.032 1_545 S
Zn133 O137 2.086 1_545 S
Zn133 O142 1.977 . S
O134 Zn133 2.032 1_565 S
O134 C138 1.278 1_565 S
C135 O136 1.203 . S
C135 O142 1.267 . S
O136 C135 1.203 . S
O137 C130 1.185 . S
O137 Zn133 2.086 1_565 S
C138 O134 1.278 1_545 S
C138 O139 1.211 . S
O139 C138 1.211 . S
C140 O132 1.284 . S
C140 O141 1.273 . S
O141 C140 1.273 . S
O142 Zn133 1.977 . S
O142 C135 1.267 . S
C143 O144 1.160 . S
C143 O150 1.185 . S
O144 C143 1.160 . S
O145 Zn146 1.899 . S
O145 C153 1.284 . S
Zn146 O145 1.899 . S
Zn146 O147 2.032 1_554 S
Zn146 O150 2.086 . S
Zn146 O155 1.977 . S
O147 Zn146 2.032 1_556 S
O147 C151 1.278 . S
C148 O149 1.203 . S
C148 O155 1.267 . S
O149 C148 1.203 . S
O150 C143 1.185 . S
O150 Zn146 2.086 . S
C151 O147 1.278 . S
C151 O152 1.211 . S
O152 C151 1.211 . S
C153 O145 1.284 . S
C153 O154 1.273 . S
O154 C153 1.273 . S
O155 Zn146 1.977 . S
O155 C148 1.267 . S
C156 O157 1.160 . S
C156 O163 1.185 . S
O157 C156 1.160 . S
O158 Zn159 1.899 . S
O158 C166 1.284 . S
Zn159 O158 1.899 . S
Zn159 O160 2.032 . S
Zn159 O163 2.086 . S
Zn159 O168 1.977 . S
O160 Zn159 2.032 . S
O160 C164 1.278 . S
C161 O162 1.203 . S
C161 O168 1.267 . S
O162 C161 1.203 . S
O163 C156 1.185 . S
O163 Zn159 2.086 . S
C164 O160 1.278 . S
C164 O165 1.211 . S
O165 C164 1.211 . S
C166 O158 1.284 . S
C166 O167 1.273 . S
O167 C166 1.273 . S
O168 Zn159 1.977 . S
O168 C161 1.267 . S
C169 O170 1.160 . S
C169 O176 1.185 . S
O170 C169 1.160 . S
O171 Zn172 1.899 . S
O171 C179 1.284 . S
Zn172 O171 1.899 . S
Zn172 O173 2.004 1_554 S
Zn172 O176 2.086 . S
Zn172 O181 1.977 . S
O173 Zn172 2.004 1_556 S
O173 C177 1.295 . S
C174 O175 1.203 . S
C174 O181 1.267 . S
O175 C174 1.203 . S
O176 C169 1.185 . S
O176 Zn172 2.086 . S
C177 O173 1.295 . S
C177 O178 1.211 . S
O178 C177 1.211 . S
C179 O171 1.284 . S
C179 O180 1.273 . S
O180 C179 1.273 . S
O181 Zn172 1.977 . S
O181 C174 1.267 . S
C182 O183 1.160 . S
C182 O189 1.185 . S
O183 C182 1.160 . S
O184 Zn185 1.899 . S
O184 C192 1.284 . S
Zn185 O184 1.899 . S
Zn185 O186 2.032 . S
Zn185 O189 2.086 . S
Zn185 O194 1.977 . S
O186 Zn185 2.032 . S
O186 C190 1.278 . S
C187 O188 1.203 . S
C187 O194 1.267 . S
O188 C187 1.203 . S
O189 C182 1.185 . S
O189 Zn185 2.086 . S
C190 O186 1.278 . S
C190 O191 1.211 . S
O191 C190 1.211 . S
C192 O184 1.284 . S
C192 O193 1.273 . S
O193 C192 1.273 . S
O194 Zn185 1.977 . S
O194 C187 1.267 . S
C195 O196 1.160 . S
C195 O202 1.185 . S
O196 C195 1.160 . S
O197 Zn198 1.899 . S
O197 C205 1.284 . S
Zn198 O197 1.899 . S
Zn198 O199 2.032 . S
Zn198 O202 2.086 . S
Zn198 O207 1.977 . S
O199 Zn198 2.032 . S
O199 C203 1.278 . S
C200 O201 1.203 . S
C200 O207 1.267 . S
O201 C200 1.203 . S
O202 C195 1.185 . S
O202 Zn198 2.086 . S
C203 O199 1.278 . S
C203 O204 1.211 . S
O204 C203 1.211 . S
C205 O197 1.284 . S
C205 O206 1.273 . S
O206 C205 1.273 . S
O207 Zn198 1.977 . S
O207 C200 1.267 . S
C208 O209 1.160 . S
C208 O215 1.185 . S
O209 C208 1.160 . S
O210 Zn211 1.899 . S
O210 C218 1.284 . S
Zn211 O210 1.899 . S
Zn211 O212 2.032 . S
Zn211 O215 2.086 . S
Zn211 O220 1.977 1_545 S
O212 Zn211 2.032 . S
O212 C216 1.278 . S
C213 O214 1.203 . S
C213 O220 1.267 . S
O214 C213 1.203 . S
O215 C208 1.185 . S
O215 Zn211 2.086 . S
C216 O212 1.278 . S
C216 O217 1.211 1_545 S
O217 C216 1.211 1_565 S
C218 O210 1.284 . S
C218 O219 1.273 . S
O219 C218 1.273 . S
O220 Zn211 1.977 1_565 S
O220 C213 1.267 . S
C221 O222 1.160 . S
C221 O228 1.185 . S
O222 C221 1.160 . S
O223 Zn224 1.899 . S
O223 C231 1.284 . S
Zn224 O223 1.899 . S
Zn224 O225 2.032 . S
Zn224 O228 2.086 . S
Zn224 O233 1.977 . S
O225 Zn224 2.032 . S
O225 C229 1.278 . S
C226 O227 1.203 . S
C226 O233 1.267 . S
O227 C226 1.203 . S
O228 C221 1.185 . S
O228 Zn224 2.086 . S
C229 O225 1.278 . S
C229 O230 1.211 . S
O230 C229 1.211 . S
C231 O223 1.284 . S
C231 O232 1.273 . S
O232 C231 1.273 . S
O233 Zn224 1.977 . S
O233 C226 1.267 . S
C234 O235 1.160 . S
C234 O241 1.185 . S
O235 C234 1.160 . S
O236 Zn237 1.899 . S
O236 C244 1.284 . S
Zn237 O236 1.899 . S
Zn237 O238 2.032 . S
Zn237 O241 2.086 . S
Zn237 O246 1.977 . S
O238 Zn237 2.032 . S
O238 C242 1.278 . S
C239 O240 1.203 . S
C239 O246 1.267 . S
O240 C239 1.203 . S
O241 C234 1.185 . S
O241 Zn237 2.086 . S
C242 O238 1.278 . S
C242 O243 1.211 . S
O243 C242 1.211 . S
C244 O236 1.284 . S
C244 O245 1.273 . S
O245 C244 1.273 . S
O246 Zn237 1.977 . S
O246 C239 1.267 . S
C247 O248 1.160 . S
C247 O254 1.185 . S
O248 C247 1.160 . S
O249 Zn250 1.899 . S
O249 C257 1.284 . S
Zn250 O249 1.899 . S
Zn250 O251 2.032 . S
Zn250 O254 2.086 . S
Zn250 O259 1.977 1_565 S
O251 Zn250 2.032 . S
O251 C255 1.278 1_565 S
C252 O253 1.203 . S
C252 O259 1.267 . S
O253 C252 1.203 . S
O254 C247 1.185 . S
O254 Zn250 2.086 . S
C255 O251 1.278 1_545 S
C255 O256 1.211 . S
O256 C255 1.211 . S
C257 O249 1.284 . S
C257 O258 1.273 1_565 S
O258 C257 1.273 1_545 S
O259 Zn250 1.977 1_545 S
O259 C252 1.267 . S
C260 O261 1.160 . S
C260 O267 1.185 1_554 S
O261 C260 1.160 . S
O262 Zn263 1.899 . S
O262 C270 1.284 . S
Zn263 O262 1.899 . S
Zn263 O264 2.032 1_554 S
Zn263 O267 2.086 1_554 S
Zn263 O272 1.977 1_554 S
O264 Zn263 2.032 1_556 S
O264 C268 1.278 . S
C265 O266 1.204 . S
C265 O272 1.266 1_554 S
O266 C265 1.204 . S
O267 C260 1.185 1_556 S
O267 Zn263 2.086 1_556 S
C268 O264 1.278 . S
C268 O269 1.211 . S
O269 C268 1.211 . S
C270 O262 1.284 . S
C270 O271 1.273 . S
O271 C270 1.273 . S
O272 Zn263 1.977 1_556 S
O272 C265 1.266 1_556 S
C273 O274 1.160 . S
C273 O280 1.185 . S
O274 C273 1.160 . S
O275 Zn276 1.899 . S
O275 C283 1.284 . S
Zn276 O275 1.899 . S
Zn276 O277 2.032 . S
Zn276 O280 2.086 . S
Zn276 O285 1.977 . S
O277 Zn276 2.032 . S
O277 C281 1.278 . S
C278 O279 1.203 . S
C278 O285 1.267 . S
O279 C278 1.203 . S
O280 C273 1.185 . S
O280 Zn276 2.086 . S
C281 O277 1.278 . S
C281 O282 1.211 . S
O282 C281 1.211 . S
C283 O275 1.284 . S
C283 O284 1.273 . S
O284 C283 1.273 . S
O285 Zn276 1.977 . S
O285 C278 1.267 . S
C286 O287 1.160 . S
C286 O293 1.185 . S
O287 C286 1.160 . S
O288 Zn289 1.899 . S
O288 C296 1.284 . S
Zn289 O288 1.899 . S
Zn289 O290 2.032 . S
Zn289 O293 2.086 . S
Zn289 O298 1.977 . S
O290 Zn289 2.032 . S
O290 C294 1.278 . S
C291 O292 1.203 . S
C291 O298 1.267 . S
O292 C291 1.203 . S
O293 C286 1.185 . S
O293 Zn289 2.086 . S
C294 O290 1.278 . S
C294 O295 1.211 . S
O295 C294 1.211 . S
C296 O288 1.284 . S
C296 O297 1.273 . S
O297 C296 1.273 . S
O298 Zn289 1.977 . S
O298 C291 1.267 . S
C299 O300 1.160 . S
C299 O306 1.185 . S
O300 C299 1.160 . S
O301 Zn302 1.899 . S
O301 C309 1.284 . S
Zn302 O301 1.899 . S
Zn302 O303 2.032 . S
Zn302 O306 2.086 . S
Zn302 O311 1.977 . S
O303 Zn302 2.032 . S
O303 C307 1.278 . S
C304 O305 1.203 . S
C304 O311 1.267 . S
O305 C304 1.203 . S
O306 C299 1.185 . S
O306 Zn302 2.086 . S
C307 O303 1.278 . S
C307 O308 1.211 . S
O308 C307 1.211 . S
C309 O301 1.284 . S
C309 O310 1.273 . S
O310 C309 1.273 . S
O311 Zn302 1.977 . S
O311 C304 1.267 . S
Zn312 O318 1.969 . S
Zn312 O319 1.965 1_565 S
Zn312 O323 2.024 . S
Zn312 O328 1.969 . S
Zn313 O320 1.969 1_654 S
Zn313 O326 1.969 1_554 S
Zn313 O327 1.965 . S
Zn313 O329 2.024 1_655 S
C314 O315 1.229 . S
C314 O323 1.058 . S
O315 C314 1.229 . S
C316 O317 1.189 1_454 S
C316 O329 1.100 . S
O317 C316 1.189 1_656 S
O318 Zn312 1.969 . S
O318 C321 1.267 . S
O319 Zn312 1.965 1_545 S
O319 C330 1.260 1_554 S
O320 Zn313 1.969 1_456 S
O320 C330 1.258 . S
C321 O318 1.267 . S
C321 O322 1.228 . S
O322 C321 1.228 . S
O323 Zn312 2.024 . S
O323 C314 1.058 . S
C324 O325 1.228 . S
C324 O326 1.267 1_554 S
O325 C324 1.228 . S
O326 Zn313 1.969 1_556 S
O326 C324 1.267 1_556 S
O327 Zn313 1.965 . S
O327 C331 1.272 . S
O328 Zn312 1.969 . S
O328 C331 1.236 1_465 S
O329 Zn313 2.024 1_455 S
O329 C316 1.100 . S
C330 O319 1.260 1_556 S
C330 O320 1.258 . S
C331 O327 1.272 . S
C331 O328 1.236 1_645 S
Zn332 O338 1.969 . S
Zn332 O339 1.965 . S
Zn332 O343 2.024 . S
Zn332 O348 1.969 . S
Zn333 O340 1.969 . S
Zn333 O346 1.969 . S
Zn333 O347 1.965 . S
Zn333 O349 2.024 . S
C334 O335 1.229 . S
C334 O343 1.058 . S
O335 C334 1.229 . S
C336 O337 1.229 . S
C336 O349 1.058 . S
O337 C336 1.229 . S
O338 Zn332 1.969 . S
O338 C341 1.267 . S
O339 Zn332 1.965 . S
O339 C350 1.260 . S
O340 Zn333 1.969 . S
O340 C350 1.258 . S
C341 O338 1.267 . S
C341 O342 1.228 . S
O342 C341 1.228 . S
O343 Zn332 2.024 . S
O343 C334 1.058 . S
C344 O345 1.228 . S
C344 O346 1.267 . S
O345 C344 1.228 . S
O346 Zn333 1.969 . S
O346 C344 1.267 . S
O347 Zn333 1.965 . S
O347 C351 1.260 . S
O348 Zn332 1.969 . S
O348 C351 1.258 . S
O349 Zn333 2.024 . S
O349 C336 1.058 . S
C350 O339 1.260 . S
C350 O340 1.258 . S
C351 O347 1.260 . S
C351 O348 1.258 . S
Zn352 O358 1.969 . S
Zn352 O359 1.965 . S
Zn352 O363 2.024 . S
Zn352 O368 1.969 . S
Zn353 O360 1.969 1_565 S
Zn353 O366 1.969 . S
Zn353 O367 1.965 1_565 S
Zn353 O369 2.024 . S
C354 O355 1.229 . S
C354 O363 1.058 . S
O355 C354 1.229 . S
C356 O357 1.229 . S
C356 O369 1.058 . S
O357 C356 1.229 . S
O358 Zn352 1.969 . S
O358 C361 1.267 . S
O359 Zn352 1.965 . S
O359 C370 1.260 . S
O360 Zn353 1.969 1_545 S
O360 C370 1.258 . S
C361 O358 1.267 . S
C361 O362 1.228 . S
O362 C361 1.228 . S
O363 Zn352 2.024 . S
O363 C354 1.058 . S
C364 O365 1.228 . S
C364 O366 1.267 . S
O365 C364 1.228 . S
O366 Zn353 1.969 . S
O366 C364 1.267 . S
O367 Zn353 1.965 1_545 S
O367 C371 1.260 . S
O368 Zn352 1.969 . S
O368 C371 1.258 . S
O369 Zn353 2.024 . S
O369 C356 1.058 . S
C370 O359 1.260 . S
C370 O360 1.258 . S
C371 O367 1.260 . S
C371 O368 1.258 . S
Zn372 O378 1.969 . S
Zn372 O379 1.965 . S
Zn372 O383 2.024 . S
Zn372 O388 1.969 . S
Zn373 O380 1.969 . S
Zn373 O386 1.969 . S
Zn373 O387 1.965 . S
Zn373 O389 2.024 . S
C374 O375 1.229 . S
C374 O383 1.058 . S
O375 C374 1.229 . S
C376 O377 1.229 . S
C376 O389 1.058 . S
O377 C376 1.229 . S
O378 Zn372 1.969 . S
O378 C381 1.267 . S
O379 Zn372 1.965 . S
O379 C390 1.260 . S
O380 Zn373 1.969 . S
O380 C390 1.258 . S
C381 O378 1.267 . S
C381 O382 1.228 . S
O382 C381 1.228 . S
O383 Zn372 2.024 . S
O383 C374 1.058 . S
C384 O385 1.228 . S
C384 O386 1.267 . S
O385 C384 1.228 . S
O386 Zn373 1.969 . S
O386 C384 1.267 . S
O387 Zn373 1.965 . S
O387 C391 1.260 . S
O388 Zn372 1.969 . S
O388 C391 1.258 . S
O389 Zn373 2.024 . S
O389 C376 1.058 . S
C390 O379 1.260 . S
C390 O380 1.258 . S
C391 O387 1.260 . S
C391 O388 1.258 . S
Zn392 O398 1.969 . S
Zn392 O399 1.965 1_455 S
Zn392 O403 2.024 1_565 S
Zn392 O408 1.969 1_565 S
Zn393 O400 1.951 1_455 S
Zn393 O406 1.959 1_455 S
Zn393 O407 1.985 . S
Zn393 O409 2.030 . S
C394 O395 1.229 1_545 S
C394 O403 1.058 . S
O395 C394 1.229 1_565 S
C396 O397 1.229 . S
C396 O409 1.058 1_655 S
O397 C396 1.229 . S
O398 Zn392 1.969 . S
O398 C401 1.267 . S
O399 Zn392 1.965 1_655 S
O399 C410 1.260 1_565 S
O400 Zn393 1.951 1_655 S
O400 C410 1.258 . S
C401 O398 1.267 . S
C401 O402 1.228 . S
O402 C401 1.228 . S
O403 Zn392 2.024 1_545 S
O403 C394 1.058 . S
C404 O405 1.228 . S
C404 O406 1.267 1_455 S
O405 C404 1.228 . S
O406 Zn393 1.959 1_655 S
O406 C404 1.267 1_655 S
O407 Zn393 1.985 . S
O407 C411 1.260 . S
O408 Zn392 1.969 1_545 S
O408 C411 1.258 . S
O409 Zn393 2.030 . S
O409 C396 1.058 1_455 S
C410 O399 1.260 1_545 S
C410 O400 1.258 . S
C411 O407 1.260 . S
C411 O408 1.258 . S
Zn412 O418 1.969 . S
Zn412 O419 1.965 . S
Zn412 O423 2.024 . S
Zn412 O428 1.969 . S
Zn413 O420 1.969 . S
Zn413 O426 1.969 . S
Zn413 O427 1.965 . S
Zn413 O429 2.024 . S
C414 O415 1.229 . S
C414 O423 1.058 . S
O415 C414 1.229 . S
C416 O417 1.229 . S
C416 O429 1.058 . S
O417 C416 1.229 . S
O418 Zn412 1.969 . S
O418 C421 1.267 . S
O419 Zn412 1.965 . S
O419 C430 1.260 . S
O420 Zn413 1.969 . S
O420 C430 1.258 . S
C421 O418 1.267 . S
C421 O422 1.228 . S
O422 C421 1.228 . S
O423 Zn412 2.024 . S
O423 C414 1.058 . S
C424 O425 1.228 . S
C424 O426 1.267 . S
O425 C424 1.228 . S
O426 Zn413 1.969 . S
O426 C424 1.267 . S
O427 Zn413 1.965 . S
O427 C431 1.260 . S
O428 Zn412 1.969 . S
O428 C431 1.258 . S
O429 Zn413 2.024 . S
O429 C416 1.058 . S
C430 O419 1.260 . S
C430 O420 1.258 . S
C431 O427 1.260 . S
C431 O428 1.258 . S
Zn432 O438 1.969 1_554 S
Zn432 O439 1.965 1_545 S
Zn432 O443 2.024 . S
Zn432 O448 1.969 . S
Zn433 O440 1.969 . S
Zn433 O446 1.969 . S
Zn433 O447 1.965 1_565 S
Zn433 O449 2.024 1_565 S
C434 O435 1.229 . S
C434 O443 1.058 . S
O435 C434 1.229 . S
C436 O437 1.229 . S
C436 O449 1.058 1_565 S
O437 C436 1.229 . S
O438 Zn432 1.969 1_556 S
O438 C441 1.267 . S
O439 Zn432 1.965 1_565 S
O439 C450 1.260 . S
O440 Zn433 1.969 . S
O440 C450 1.258 . S
C441 O438 1.267 . S
C441 O442 1.228 . S
O442 C441 1.228 . S
O443 Zn432 2.024 . S
O443 C434 1.058 . S
C444 O445 1.231 . S
C444 O446 1.266 1_545 S
O445 C444 1.231 . S
O446 Zn433 1.969 . S
O446 C444 1.266 1_565 S
O447 Zn433 1.965 1_545 S
O447 C451 1.260 . S
O448 Zn432 1.969 . S
O448 C451 1.258 . S
O449 Zn433 2.024 1_545 S
O449 C436 1.058 1_545 S
C450 O439 1.260 . S
C450 O440 1.258 . S
C451 O447 1.260 . S
C451 O448 1.258 . S
Zn452 O458 1.969 . S
Zn452 O459 1.965 . S
Zn452 O463 2.024 . S
Zn452 O468 1.969 . S
Zn453 O460 1.969 . S
Zn453 O466 1.969 . S
Zn453 O467 1.965 . S
Zn453 O469 2.024 . S
C454 O455 1.229 . S
C454 O463 1.058 . S
O455 C454 1.229 . S
C456 O457 1.229 . S
C456 O469 1.058 . S
O457 C456 1.229 . S
O458 Zn452 1.969 . S
O458 C461 1.267 . S
O459 Zn452 1.965 . S
O459 C470 1.260 . S
O460 Zn453 1.969 . S
O460 C470 1.258 . S
C461 O458 1.267 . S
C461 O462 1.228 . S
O462 C461 1.228 . S
O463 Zn452 2.024 . S
O463 C454 1.058 . S
C464 O465 1.228 . S
C464 O466 1.267 . S
O465 C464 1.228 . S
O466 Zn453 1.969 . S
O466 C464 1.267 . S
O467 Zn453 1.965 . S
O467 C471 1.260 . S
O468 Zn452 1.969 . S
O468 C471 1.258 . S
O469 Zn453 2.024 . S
O469 C456 1.058 . S
C470 O459 1.260 . S
C470 O460 1.258 . S
C471 O467 1.260 . S
C471 O468 1.258 . S
Zn472 O478 1.969 . S
Zn472 O479 1.965 . S
Zn472 O483 2.024 . S
Zn472 O488 1.969 . S
Zn473 O480 1.969 1_556 S
Zn473 O486 1.969 1_556 S
Zn473 O487 1.965 1_556 S
Zn473 O489 2.024 . S
C474 O475 1.229 . S
C474 O483 1.058 . S
O475 C474 1.229 . S
C476 O477 1.229 . S
C476 O489 1.058 . S
O477 C476 1.229 . S
O478 Zn472 1.969 . S
O478 C481 1.267 . S
O479 Zn472 1.965 . S
O479 C490 1.260 . S
O480 Zn473 1.969 1_554 S
O480 C490 1.258 . S
C481 O478 1.267 . S
C481 O482 1.228 . S
O482 C481 1.228 . S
O483 Zn472 2.024 . S
O483 C474 1.058 . S
C484 O485 1.228 . S
C484 O486 1.267 1_556 S
O485 C484 1.228 . S
O486 Zn473 1.969 1_554 S
O486 C484 1.267 1_554 S
O487 Zn473 1.965 1_554 S
O487 C491 1.260 . S
O488 Zn472 1.969 . S
O488 C491 1.258 . S
O489 Zn473 2.024 . S
O489 C476 1.058 . S
C490 O479 1.260 . S
C490 O480 1.258 . S
C491 O487 1.260 . S
C491 O488 1.258 . S
Zn492 O498 1.969 . S
Zn492 O499 1.965 . S
Zn492 O503 2.024 . S
Zn492 O508 1.969 . S
Zn493 O500 1.969 . S
Zn493 O506 1.969 . S
Zn493 O507 1.965 . S
Zn493 O509 2.024 . S
C494 O495 1.229 . S
C494 O503 1.058 . S
O495 C494 1.229 . S
C496 O497 1.229 . S
C496 O509 1.058 . S
O497 C496 1.229 . S
O498 Zn492 1.969 . S
O498 C501 1.267 . S
O499 Zn492 1.965 . S
O499 C510 1.260 . S
O500 Zn493 1.969 . S
O500 C510 1.258 . S
C501 O498 1.267 . S
C501 O502 1.228 . S
O502 C501 1.228 . S
O503 Zn492 2.024 . S
O503 C494 1.058 . S
C504 O505 1.228 . S
C504 O506 1.267 . S
O505 C504 1.228 . S
O506 Zn493 1.969 . S
O506 C504 1.267 . S
O507 Zn493 1.965 . S
O507 C511 1.260 . S
O508 Zn492 1.969 . S
O508 C511 1.258 . S
O509 Zn493 2.024 . S
O509 C496 1.058 . S
C510 O499 1.260 . S
C510 O500 1.258 . S
C511 O507 1.260 . S
C511 O508 1.258 . S
Zn512 O518 1.969 . S
Zn512 O519 1.965 . S
Zn512 O523 2.024 . S
Zn512 O528 1.969 . S
Zn513 O520 1.969 1_655 S
Zn513 O526 1.969 . S
Zn513 O527 1.965 1_655 S
Zn513 O529 2.024 . S
C514 O515 1.229 . S
C514 O523 1.058 . S
O515 C514 1.229 . S
C516 O517 1.229 . S
C516 O529 1.058 . S
O517 C516 1.229 . S
O518 Zn512 1.969 . S
O518 C521 1.267 . S
O519 Zn512 1.965 . S
O519 C530 1.260 . S
O520 Zn513 1.969 1_455 S
O520 C530 1.258 . S
C521 O518 1.267 . S
C521 O522 1.228 . S
O522 C521 1.228 . S
O523 Zn512 2.024 . S
O523 C514 1.058 . S
C524 O525 1.228 . S
C524 O526 1.267 . S
O525 C524 1.228 . S
O526 Zn513 1.969 . S
O526 C524 1.267 . S
O527 Zn513 1.965 1_455 S
O527 C531 1.260 . S
O528 Zn512 1.969 . S
O528 C531 1.258 . S
O529 Zn513 2.024 . S
O529 C516 1.058 . S
C530 O519 1.260 . S
C530 O520 1.258 . S
C531 O527 1.260 . S
C531 O528 1.258 . S
Zn532 O538 1.969 . S
Zn532 O539 1.965 . S
Zn532 O543 2.024 . S
Zn532 O548 1.969 . S
Zn533 O540 1.969 . S
Zn533 O546 1.969 . S
Zn533 O547 1.965 . S
Zn533 O549 2.024 . S
C534 O535 1.229 . S
C534 O543 1.058 . S
O535 C534 1.229 . S
C536 O537 1.229 . S
C536 O549 1.058 . S
O537 C536 1.229 . S
O538 Zn532 1.969 . S
O538 C541 1.267 . S
O539 Zn532 1.965 . S
O539 C550 1.260 . S
O540 Zn533 1.969 . S
O540 C550 1.258 . S
C541 O538 1.267 . S
C541 O542 1.228 . S
O542 C541 1.228 . S
O543 Zn532 2.024 . S
O543 C534 1.058 . S
C544 O545 1.228 . S
C544 O546 1.267 . S
O545 C544 1.228 . S
O546 Zn533 1.969 . S
O546 C544 1.267 . S
O547 Zn533 1.965 . S
O547 C551 1.260 . S
O548 Zn532 1.969 . S
O548 C551 1.258 . S
O549 Zn533 2.024 . S
O549 C536 1.058 . S
C550 O539 1.260 . S
C550 O540 1.258 . S
C551 O547 1.260 . S
C551 O548 1.258 . S
Zn552 O558 1.969 . S
Zn552 O559 1.965 . S
Zn552 O563 2.024 . S
Zn552 O568 1.969 . S
Zn553 O560 1.969 . S
Zn553 O566 1.969 . S
Zn553 O567 1.965 . S
Zn553 O569 2.024 . S
C554 O555 1.229 . S
C554 O563 1.058 . S
O555 C554 1.229 . S
C556 O557 1.229 . S
C556 O569 1.058 . S
O557 C556 1.229 . S
O558 Zn552 1.969 . S
O558 C561 1.267 . S
O559 Zn552 1.965 . S
O559 C570 1.260 . S
O560 Zn553 1.969 . S
O560 C570 1.258 . S
C561 O558 1.267 . S
C561 O562 1.228 . S
O562 C561 1.228 . S
O563 Zn552 2.024 . S
O563 C554 1.058 . S
C564 O565 1.228 . S
C564 O566 1.267 . S
O565 C564 1.228 . S
O566 Zn553 1.969 . S
O566 C564 1.267 . S
O567 Zn553 1.965 . S
O567 C571 1.260 . S
O568 Zn552 1.969 . S
O568 C571 1.258 . S
O569 Zn553 2.024 . S
O569 C556 1.058 . S
C570 O559 1.260 . S
C570 O560 1.258 . S
C571 O567 1.260 . S
C571 O568 1.258 . S
Zn572 O578 1.969 . S
Zn572 O579 1.965 . S
Zn572 O583 2.024 . S
Zn572 O588 1.969 . S
Zn573 O580 1.969 . S
Zn573 O586 1.969 . S
Zn573 O587 1.965 . S
Zn573 O589 2.024 . S
C574 O575 1.229 . S
C574 O583 1.058 . S
O575 C574 1.229 . S
C576 O577 1.229 . S
C576 O589 1.058 . S
O577 C576 1.229 . S
O578 Zn572 1.969 . S
O578 C581 1.267 . S
O579 Zn572 1.965 . S
O579 C590 1.260 . S
O580 Zn573 1.969 . S
O580 C590 1.258 . S
C581 O578 1.267 . S
C581 O582 1.228 . S
O582 C581 1.228 . S
O583 Zn572 2.024 . S
O583 C574 1.058 . S
C584 O585 1.228 . S
C584 O586 1.267 . S
O585 C584 1.228 . S
O586 Zn573 1.969 . S
O586 C584 1.267 . S
O587 Zn573 1.965 . S
O587 C591 1.260 . S
O588 Zn572 1.969 . S
O588 C591 1.258 . S
O589 Zn573 2.024 . S
O589 C576 1.058 . S
C590 O579 1.260 . S
C590 O580 1.258 . S
C591 O587 1.260 . S
C591 O588 1.258 . S
Zn592 O598 1.969 . S
Zn592 O599 1.965 . S
Zn592 O603 2.024 . S
Zn592 O608 1.969 . S
Zn593 O600 1.969 . S
Zn593 O606 1.969 . S
Zn593 O607 1.965 . S
Zn593 O609 2.024 . S
C594 O595 1.229 . S
C594 O603 1.058 . S
O595 C594 1.229 . S
C596 O597 1.229 . S
C596 O609 1.058 . S
O597 C596 1.229 . S
O598 Zn592 1.969 . S
O598 C601 1.267 . S
O599 Zn592 1.965 . S
O599 C610 1.260 . S
O600 Zn593 1.969 . S
O600 C610 1.258 . S
C601 O598 1.267 . S
C601 O602 1.228 . S
O602 C601 1.228 . S
O603 Zn592 2.024 . S
O603 C594 1.058 . S
C604 O605 1.228 . S
C604 O606 1.267 . S
O605 C604 1.228 . S
O606 Zn593 1.969 . S
O606 C604 1.267 . S
O607 Zn593 1.965 . S
O607 C611 1.260 . S
O608 Zn592 1.969 . S
O608 C611 1.258 . S
O609 Zn593 2.024 . S
O609 C596 1.058 . S
C610 O599 1.260 . S
C610 O600 1.258 . S
C611 O607 1.260 . S
C611 O608 1.258 . S
Zn612 O618 1.969 . S
Zn612 O619 1.965 . S
Zn612 O623 2.024 1_655 S
Zn612 O628 1.969 1_655 S
Zn613 O620 1.969 1_554 S
Zn613 O626 1.969 1_554 S
Zn613 O627 1.965 . S
Zn613 O629 2.024 . S
C614 O615 1.229 . S
C614 O623 1.058 . S
O615 C614 1.229 . S
C616 O617 1.229 . S
C616 O629 1.058 1_556 S
O617 C616 1.229 . S
O618 Zn612 1.969 . S
O618 C621 1.267 . S
O619 Zn612 1.965 . S
O619 C630 1.260 1_654 S
O620 Zn613 1.969 1_556 S
O620 C630 1.258 . S
C621 O618 1.267 . S
C621 O622 1.228 . S
O622 C621 1.228 . S
O623 Zn612 2.024 1_455 S
O623 C614 1.058 . S
C624 O625 1.228 . S
C624 O626 1.267 1_554 S
O625 C624 1.228 . S
O626 Zn613 1.969 1_556 S
O626 C624 1.267 1_556 S
O627 Zn613 1.965 . S
O627 C631 1.260 . S
O628 Zn612 1.969 1_455 S
O628 C631 1.258 . S
O629 Zn613 2.024 . S
O629 C616 1.058 1_554 S
C630 O619 1.260 1_456 S
C630 O620 1.258 . S
C631 O627 1.260 . S
C631 O628 1.258 . S
C632 C633 1.349 . S
C632 C634 1.327 . S
C632 H657 0.950 . S
C633 C632 1.349 . S
C633 C649 1.349 1_655 S
C634 C632 1.327 . S
C634 C653 1.416 1_655 S
C634 H658 0.950 . S
C635 C652 1.574 . S
C635 C654 1.368 . S
C635 H659 0.949 . S
H636 C640 0.949 . S
C637 C638 1.349 . S
C637 C639 1.327 . S
C637 H660 0.950 . S
C638 C637 1.349 . S
C638 C650 1.378 1_556 S
C639 C637 1.327 . S
C639 C655 1.429 . S
C639 H661 0.950 . S
C640 H636 0.949 . S
C640 C648 1.574 . S
C640 C656 1.368 1_655 S
H641 C649 0.950 . S
H642 C647 0.950 . S
H643 C648 0.949 . S
H644 C650 0.931 1_655 S
H645 C651 0.981 1_554 S
H646 C652 0.949 . S
C647 H642 0.950 . S
C647 C649 1.327 . S
C647 C653 1.438 . S
C648 C640 1.574 . S
C648 H643 0.949 . S
C648 C654 1.368 1_655 S
C649 C633 1.349 1_455 S
C649 H641 0.950 . S
C649 C647 1.327 . S
C650 C638 1.378 1_554 S
C650 H644 0.931 1_455 S
C650 C651 1.313 1_454 S
C651 H645 0.981 1_556 S
C651 C650 1.313 1_656 S
C651 C655 1.409 1_655 S
C652 C635 1.574 . S
C652 H646 0.949 . S
C652 C656 1.368 . S
C653 C634 1.416 1_455 S
C653 C647 1.438 . S
C653 C654 1.527 . S
C654 C635 1.368 . S
C654 C648 1.368 1_455 S
C654 C653 1.527 . S
C655 C639 1.429 . S
C655 C651 1.409 1_455 S
C655 C656 1.523 . S
C656 C640 1.368 1_455 S
C656 C652 1.368 . S
C656 C655 1.523 . S
H657 C632 0.950 . S
H658 C634 0.950 . S
H659 C635 0.949 . S
H660 C637 0.950 . S
H661 C639 0.950 . S
C662 C663 1.349 . S
C662 C664 1.327 . S
C662 H687 0.950 . S
C663 C662 1.349 . S
C663 C679 1.349 . S
C664 C662 1.327 . S
C664 C683 1.429 . S
C664 H688 0.950 . S
C665 C682 1.574 . S
C665 C684 1.368 . S
C665 H689 0.949 . S
H666 C670 0.949 . S
C667 C668 1.349 . S
C667 C669 1.327 . S
C667 H690 0.950 . S
C668 C667 1.349 . S
C668 C680 1.349 . S
C669 C667 1.327 . S
C669 C685 1.429 . S
C669 H691 0.950 . S
C670 H666 0.949 . S
C670 C678 1.574 . S
C670 C686 1.368 . S
H671 C679 0.950 . S
H672 C677 0.950 . S
H673 C678 0.949 . S
H674 C680 0.950 . S
H675 C681 0.950 . S
H676 C682 0.949 . S
C677 H672 0.950 . S
C677 C679 1.327 . S
C677 C683 1.429 . S
C678 C670 1.574 . S
C678 H673 0.949 . S
C678 C684 1.368 . S
C679 C663 1.349 . S
C679 H671 0.950 . S
C679 C677 1.327 . S
C680 C668 1.349 . S
C680 H674 0.950 . S
C680 C681 1.327 . S
C681 H675 0.950 . S
C681 C680 1.327 . S
C681 C685 1.429 . S
C682 C665 1.574 . S
C682 H676 0.949 . S
C682 C686 1.368 . S
C683 C664 1.429 . S
C683 C677 1.429 . S
C683 C684 1.523 . S
C684 C665 1.368 . S
C684 C678 1.368 . S
C684 C683 1.523 . S
C685 C669 1.429 . S
C685 C681 1.429 . S
C685 C686 1.523 . S
C686 C670 1.368 . S
C686 C682 1.368 . S
C686 C685 1.523 . S
H687 C662 0.950 . S
H688 C664 0.950 . S
H689 C665 0.949 . S
H690 C667 0.950 . S
H691 C669 0.950 . S
C692 C693 1.349 . S
C692 C694 1.327 . S
C692 H717 0.950 . S
C693 C692 1.349 . S
C693 C709 1.349 . S
C694 C692 1.327 . S
C694 C713 1.429 . S
C694 H718 0.950 . S
C695 C712 1.574 . S
C695 C714 1.368 . S
C695 H719 0.949 . S
H696 C700 0.949 . S
C697 C698 1.349 . S
C697 C699 1.327 . S
C697 H720 0.950 . S
C698 C697 1.349 . S
C698 C710 1.349 . S
C699 C697 1.327 . S
C699 C715 1.429 . S
C699 H721 0.950 . S
C700 H696 0.949 . S
C700 C708 1.574 . S
C700 C716 1.368 . S
H701 C709 0.950 . S
H702 C707 0.950 . S
H703 C708 0.949 . S
H704 C710 0.950 . S
H705 C711 0.950 . S
H706 C712 0.949 . S
C707 H702 0.950 . S
C707 C709 1.327 . S
C707 C713 1.429 . S
C708 C700 1.574 . S
C708 H703 0.949 . S
C708 C714 1.368 . S
C709 C693 1.349 . S
C709 H701 0.950 . S
C709 C707 1.327 . S
C710 C698 1.349 . S
C710 H704 0.950 . S
C710 C711 1.327 . S
C711 H705 0.950 . S
C711 C710 1.327 . S
C711 C715 1.429 . S
C712 C695 1.574 . S
C712 H706 0.949 . S
C712 C716 1.368 . S
C713 C694 1.429 . S
C713 C707 1.429 . S
C713 C714 1.523 . S
C714 C695 1.368 . S
C714 C708 1.368 . S
C714 C713 1.523 . S
C715 C699 1.429 . S
C715 C711 1.429 . S
C715 C716 1.523 . S
C716 C700 1.368 . S
C716 C712 1.368 . S
C716 C715 1.523 . S
H717 C692 0.950 . S
H718 C694 0.950 . S
H719 C695 0.949 . S
H720 C697 0.950 . S
H721 C699 0.950 . S
C722 C723 1.349 . S
C722 C724 1.327 . S
C722 H747 0.950 . S
C723 C722 1.349 . S
C723 C739 1.349 . S
C724 C722 1.327 . S
C724 C743 1.429 . S
C724 H748 0.950 . S
C725 C742 1.574 . S
C725 C744 1.368 . S
C725 H749 0.949 . S
H726 C730 0.949 . S
C727 C728 1.349 . S
C727 C729 1.327 . S
C727 H750 0.950 . S
C728 C727 1.349 . S
C728 C740 1.349 . S
C729 C727 1.327 . S
C729 C745 1.429 . S
C729 H751 0.950 . S
C730 H726 0.949 . S
C730 C738 1.574 . S
C730 C746 1.368 . S
H731 C739 0.950 . S
H732 C737 0.950 . S
H733 C738 0.949 . S
H734 C740 0.950 . S
H735 C741 0.950 . S
H736 C742 0.949 . S
C737 H732 0.950 . S
C737 C739 1.327 . S
C737 C743 1.429 . S
C738 C730 1.574 . S
C738 H733 0.949 . S
C738 C744 1.368 . S
C739 C723 1.349 . S
C739 H731 0.950 . S
C739 C737 1.327 . S
C740 C728 1.349 . S
C740 H734 0.950 . S
C740 C741 1.327 . S
C741 H735 0.950 . S
C741 C740 1.327 . S
C741 C745 1.429 . S
C742 C725 1.574 . S
C742 H736 0.949 . S
C742 C746 1.368 . S
C743 C724 1.429 . S
C743 C737 1.429 . S
C743 C744 1.523 . S
C744 C725 1.368 . S
C744 C738 1.368 . S
C744 C743 1.523 . S
C745 C729 1.429 . S
C745 C741 1.429 . S
C745 C746 1.523 . S
C746 C730 1.368 . S
C746 C742 1.368 . S
C746 C745 1.523 . S
H747 C722 0.950 . S
H748 C724 0.950 . S
H749 C725 0.949 . S
H750 C727 0.950 . S
H751 C729 0.950 . S
C752 C753 1.349 . S
C752 C754 1.327 . S
C752 H777 0.950 . S
C753 C752 1.349 . S
C753 C769 1.349 . S
C754 C752 1.327 . S
C754 C773 1.429 . S
C754 H778 0.950 . S
C755 C772 1.574 . S
C755 C774 1.368 . S
C755 H779 0.949 . S
H756 C760 0.949 . S
C757 C758 1.349 . S
C757 C759 1.327 . S
C757 H780 0.950 . S
C758 C757 1.349 . S
C758 C770 1.349 . S
C759 C757 1.327 . S
C759 C775 1.429 . S
C759 H781 0.950 . S
C760 H756 0.949 . S
C760 C768 1.574 . S
C760 C776 1.368 . S
H761 C769 0.950 . S
H762 C767 0.950 . S
H763 C768 0.949 . S
H764 C770 0.950 . S
H765 C771 0.950 . S
H766 C772 0.949 . S
C767 H762 0.950 . S
C767 C769 1.327 . S
C767 C773 1.429 . S
C768 C760 1.574 . S
C768 H763 0.949 . S
C768 C774 1.368 . S
C769 C753 1.349 . S
C769 H761 0.950 . S
C769 C767 1.327 . S
C770 C758 1.349 . S
C770 H764 0.950 . S
C770 C771 1.327 . S
C771 H765 0.950 . S
C771 C770 1.327 . S
C771 C775 1.429 . S
C772 C755 1.574 . S
C772 H766 0.949 . S
C772 C776 1.368 . S
C773 C754 1.429 . S
C773 C767 1.429 . S
C773 C774 1.523 . S
C774 C755 1.368 . S
C774 C768 1.368 . S
C774 C773 1.523 . S
C775 C759 1.429 . S
C775 C771 1.429 . S
C775 C776 1.523 . S
C776 C760 1.368 . S
C776 C772 1.368 . S
C776 C775 1.523 . S
H777 C752 0.950 . S
H778 C754 0.950 . S
H779 C755 0.949 . S
H780 C757 0.950 . S
H781 C759 0.950 . S
C782 C783 1.349 . S
C782 C784 1.327 . S
C782 H807 0.950 . S
C783 C782 1.349 . S
C783 C799 1.349 . S
C784 C782 1.327 . S
C784 C803 1.429 . S
C784 H808 0.950 . S
C785 C802 1.574 . S
C785 C804 1.368 . S
C785 H809 0.949 . S
H786 C790 0.949 . S
C787 C788 1.349 . S
C787 C789 1.327 . S
C787 H810 0.950 . S
C788 C787 1.349 . S
C788 C800 1.349 . S
C789 C787 1.327 . S
C789 C805 1.429 . S
C789 H811 0.950 . S
C790 H786 0.949 . S
C790 C798 1.574 . S
C790 C806 1.368 . S
H791 C799 0.950 . S
H792 C797 0.950 . S
H793 C798 0.949 . S
H794 C800 0.950 . S
H795 C801 0.950 . S
H796 C802 0.949 . S
C797 H792 0.950 . S
C797 C799 1.327 . S
C797 C803 1.429 . S
C798 C790 1.574 . S
C798 H793 0.949 . S
C798 C804 1.368 . S
C799 C783 1.349 . S
C799 H791 0.950 . S
C799 C797 1.327 . S
C800 C788 1.349 . S
C800 H794 0.950 . S
C800 C801 1.327 . S
C801 H795 0.950 . S
C801 C800 1.327 . S
C801 C805 1.429 . S
C802 C785 1.574 . S
C802 H796 0.949 . S
C802 C806 1.368 . S
C803 C784 1.429 . S
C803 C797 1.429 . S
C803 C804 1.523 . S
C804 C785 1.368 . S
C804 C798 1.368 . S
C804 C803 1.523 . S
C805 C789 1.429 . S
C805 C801 1.429 . S
C805 C806 1.523 . S
C806 C790 1.368 . S
C806 C802 1.368 . S
C806 C805 1.523 . S
H807 C782 0.950 . S
H808 C784 0.950 . S
H809 C785 0.949 . S
H810 C787 0.950 . S
H811 C789 0.950 . S
C812 C813 1.349 . S
C812 C814 1.327 . S
C812 H837 0.950 . S
C813 C812 1.349 . S
C813 C829 1.349 . S
C814 C812 1.327 . S
C814 C833 1.429 . S
C814 H838 0.950 . S
C815 C832 1.574 . S
C815 C834 1.368 . S
C815 H839 0.949 . S
H816 C820 0.949 . S
C817 C818 1.349 . S
C817 C819 1.327 . S
C817 H840 0.950 . S
C818 C817 1.349 . S
C818 C830 1.349 . S
C819 C817 1.327 . S
C819 C835 1.429 . S
C819 H841 0.950 . S
C820 H816 0.949 . S
C820 C828 1.574 . S
C820 C836 1.368 . S
H821 C829 0.950 . S
H822 C827 0.950 . S
H823 C828 0.949 . S
H824 C830 0.950 . S
H825 C831 0.950 . S
H826 C832 0.949 . S
C827 H822 0.950 . S
C827 C829 1.327 . S
C827 C833 1.429 . S
C828 C820 1.574 . S
C828 H823 0.949 . S
C828 C834 1.368 . S
C829 C813 1.349 . S
C829 H821 0.950 . S
C829 C827 1.327 . S
C830 C818 1.349 . S
C830 H824 0.950 . S
C830 C831 1.327 . S
C831 H825 0.950 . S
C831 C830 1.327 . S
C831 C835 1.429 . S
C832 C815 1.574 . S
C832 H826 0.949 . S
C832 C836 1.368 . S
C833 C814 1.429 . S
C833 C827 1.429 . S
C833 C834 1.523 . S
C834 C815 1.368 . S
C834 C828 1.368 . S
C834 C833 1.523 . S
C835 C819 1.429 . S
C835 C831 1.429 . S
C835 C836 1.523 . S
C836 C820 1.368 . S
C836 C832 1.368 . S
C836 C835 1.523 . S
H837 C812 0.950 . S
H838 C814 0.950 . S
H839 C815 0.949 . S
H840 C817 0.950 . S
H841 C819 0.950 . S
C842 C843 1.349 . S
C842 C844 1.327 . S
C842 H867 0.950 . S
C843 C842 1.349 . S
C843 C859 1.349 . S
C844 C842 1.327 . S
C844 C863 1.429 . S
C844 H868 0.950 . S
C845 C862 1.574 . S
C845 C864 1.368 . S
C845 H869 0.949 . S
H846 C850 0.949 . S
C847 C848 1.349 . S
C847 C849 1.327 . S
C847 H870 0.950 . S
C848 C847 1.349 . S
C848 C860 1.349 . S
C849 C847 1.327 . S
C849 C865 1.429 . S
C849 H871 0.950 . S
C850 H846 0.949 . S
C850 C858 1.574 . S
C850 C866 1.368 . S
H851 C859 0.950 . S
H852 C857 0.950 . S
H853 C858 0.949 . S
H854 C860 0.950 . S
H855 C861 0.950 . S
H856 C862 0.949 . S
C857 H852 0.950 . S
C857 C859 1.327 . S
C857 C863 1.429 . S
C858 C850 1.574 . S
C858 H853 0.949 . S
C858 C864 1.368 . S
C859 C843 1.349 . S
C859 H851 0.950 . S
C859 C857 1.327 . S
C860 C848 1.349 . S
C860 H854 0.950 . S
C860 C861 1.327 . S
C861 H855 0.950 . S
C861 C860 1.327 . S
C861 C865 1.429 . S
C862 C845 1.574 . S
C862 H856 0.949 . S
C862 C866 1.368 . S
C863 C844 1.429 . S
C863 C857 1.429 . S
C863 C864 1.523 . S
C864 C845 1.368 . S
C864 C858 1.368 . S
C864 C863 1.523 . S
C865 C849 1.429 . S
C865 C861 1.429 . S
C865 C866 1.523 . S
C866 C850 1.368 . S
C866 C862 1.368 . S
C866 C865 1.523 . S
H867 C842 0.950 . S
H868 C844 0.950 . S
H869 C845 0.949 . S
H870 C847 0.950 . S
H871 C849 0.950 . S
C872 C873 1.349 . S
C872 C874 1.327 . S
C872 H897 0.950 . S
C873 C872 1.349 . S
C873 C889 1.323 1_545 S
C874 C872 1.327 . S
C874 C893 1.429 . S
C874 H898 0.950 . S
C875 C892 1.574 . S
C875 C894 1.368 1_565 S
C875 H899 0.949 . S
H876 C880 0.949 . S
C877 C878 1.349 . S
C877 C879 1.327 1_545 S
C877 H900 0.949 1_545 S
C878 C877 1.349 . S
C878 C890 1.349 . S
C879 C877 1.327 1_565 S
C879 C895 1.417 1_565 S
C879 H901 0.962 . S
C880 H876 0.949 . S
C880 C888 1.574 . S
C880 C896 1.368 . S
H881 C889 0.976 . S
H882 C887 0.990 . S
H883 C888 0.949 . S
H884 C890 0.950 1_455 S
H885 C891 0.950 . S
H886 C892 0.949 . S
C887 H882 0.990 . S
C887 C889 1.327 . S
C887 C893 1.392 1_565 S
C888 C880 1.574 . S
C888 H883 0.949 . S
C888 C894 1.368 . S
C889 C873 1.323 1_565 S
C889 H881 0.976 . S
C889 C887 1.327 . S
C890 C878 1.349 . S
C890 H884 0.950 1_655 S
C890 C891 1.327 . S
C891 H885 0.950 . S
C891 C890 1.327 . S
C891 C895 1.429 . S
C892 C875 1.574 . S
C892 H886 0.949 . S
C892 C896 1.368 1_565 S
C893 C874 1.429 . S
C893 C887 1.392 1_545 S
C893 C894 1.523 . S
C894 C875 1.368 1_545 S
C894 C888 1.368 . S
C894 C893 1.523 . S
C895 C879 1.417 1_545 S
C895 C891 1.429 . S
C895 C896 1.523 . S
C896 C880 1.368 . S
C896 C892 1.368 1_545 S
C896 C895 1.523 . S
H897 C872 0.950 . S
H898 C874 0.950 . S
H899 C875 0.949 . S
H900 C877 0.949 1_565 S
H901 C879 0.962 . S
C902 C903 1.349 . S
C902 C904 1.327 . S
C902 H927 0.950 . S
C903 C902 1.349 . S
C903 C919 1.349 . S
C904 C902 1.327 . S
C904 C923 1.429 . S
C904 H928 0.950 . S
C905 C922 1.574 . S
C905 C924 1.368 . S
C905 H929 0.949 . S
H906 C910 0.949 . S
C907 C908 1.349 . S
C907 C909 1.327 . S
C907 H930 0.950 . S
C908 C907 1.349 . S
C908 C920 1.349 . S
C909 C907 1.327 . S
C909 C925 1.429 . S
C909 H931 0.950 . S
C910 H906 0.949 . S
C910 C918 1.574 . S
C910 C926 1.368 . S
H911 C919 0.950 . S
H912 C917 0.950 . S
H913 C918 0.949 . S
H914 C920 0.950 . S
H915 C921 0.950 . S
H916 C922 0.949 . S
C917 H912 0.950 . S
C917 C919 1.327 . S
C917 C923 1.429 . S
C918 C910 1.574 . S
C918 H913 0.949 . S
C918 C924 1.368 . S
C919 C903 1.349 . S
C919 H911 0.950 . S
C919 C917 1.327 . S
C920 C908 1.349 . S
C920 H914 0.950 . S
C920 C921 1.327 . S
C921 H915 0.950 . S
C921 C920 1.327 . S
C921 C925 1.429 . S
C922 C905 1.574 . S
C922 H916 0.949 . S
C922 C926 1.368 . S
C923 C904 1.429 . S
C923 C917 1.429 . S
C923 C924 1.523 . S
C924 C905 1.368 . S
C924 C918 1.368 . S
C924 C923 1.523 . S
C925 C909 1.429 . S
C925 C921 1.429 . S
C925 C926 1.523 . S
C926 C910 1.368 . S
C926 C922 1.368 . S
C926 C925 1.523 . S
H927 C902 0.950 . S
H928 C904 0.950 . S
H929 C905 0.949 . S
H930 C907 0.950 . S
H931 C909 0.950 . S
C932 C933 1.349 . S
C932 C934 1.327 . S
C932 H957 0.950 . S
C933 C932 1.349 . S
C933 C949 1.349 1_565 S
C934 C932 1.327 . S
C934 C953 1.422 1_565 S
C934 H958 0.950 . S
C935 C952 1.574 . S
C935 C954 1.368 . S
C935 H959 0.949 . S
H936 C940 0.949 . S
C937 C938 1.349 . S
C937 C939 1.327 . S
C937 H960 0.950 . S
C938 C937 1.349 . S
C938 C950 1.349 1_545 S
C939 C937 1.327 . S
C939 C955 1.429 . S
C939 H961 0.950 . S
C940 H936 0.949 . S
C940 C948 1.574 . S
C940 C956 1.368 1_565 S
H941 C949 0.950 . S
H942 C947 0.950 . S
H943 C948 0.949 . S
H944 C950 0.950 . S
H945 C951 0.950 . S
H946 C952 0.949 . S
C947 H942 0.950 . S
C947 C949 1.327 . S
C947 C953 1.433 . S
C948 C940 1.574 . S
C948 H943 0.949 . S
C948 C954 1.368 1_565 S
C949 C933 1.349 1_545 S
C949 H941 0.950 . S
C949 C947 1.327 . S
C950 C938 1.349 1_565 S
C950 H944 0.950 . S
C950 C951 1.327 . S
C951 H945 0.950 . S
C951 C950 1.327 . S
C951 C955 1.429 1_565 S
C952 C935 1.574 . S
C952 H946 0.949 . S
C952 C956 1.368 . S
C953 C934 1.422 1_545 S
C953 C947 1.433 . S
C953 C954 1.524 . S
C954 C935 1.368 . S
C954 C948 1.368 1_545 S
C954 C953 1.524 . S
C955 C939 1.429 . S
C955 C951 1.429 1_545 S
C955 C956 1.523 . S
C956 C940 1.368 1_545 S
C956 C952 1.368 . S
C956 C955 1.523 . S
H957 C932 0.950 . S
H958 C934 0.950 . S
H959 C935 0.949 . S
H960 C937 0.950 . S
H961 C939 0.950 . S
C962 C963 1.349 . S
C962 C964 1.327 . S
C962 H987 0.950 . S
C963 C962 1.349 . S
C963 C979 1.349 . S
C964 C962 1.327 . S
C964 C983 1.429 . S
C964 H988 0.950 . S
C965 C982 1.574 . S
C965 C984 1.368 . S
C965 H989 0.949 . S
H966 C970 0.949 . S
C967 C968 1.349 . S
C967 C969 1.327 . S
C967 H990 0.950 . S
C968 C967 1.349 . S
C968 C980 1.349 . S
C969 C967 1.327 . S
C969 C985 1.429 . S
C969 H991 0.950 . S
C970 H966 0.949 . S
C970 C978 1.574 . S
C970 C986 1.368 . S
H971 C979 0.950 . S
H972 C977 0.950 . S
H973 C978 0.949 . S
H974 C980 0.950 . S
H975 C981 0.950 . S
H976 C982 0.949 . S
C977 H972 0.950 . S
C977 C979 1.327 . S
C977 C983 1.429 . S
C978 C970 1.574 . S
C978 H973 0.949 . S
C978 C984 1.368 . S
C979 C963 1.349 . S
C979 H971 0.950 . S
C979 C977 1.327 . S
C980 C968 1.349 . S
C980 H974 0.950 . S
C980 C981 1.327 . S
C981 H975 0.950 . S
C981 C980 1.327 . S
C981 C985 1.429 . S
C982 C965 1.574 . S
C982 H976 0.949 . S
C982 C986 1.368 . S
C983 C964 1.429 . S
C983 C977 1.429 . S
C983 C984 1.523 . S
C984 C965 1.368 . S
C984 C978 1.368 . S
C984 C983 1.523 . S
C985 C969 1.429 . S
C985 C981 1.429 . S
C985 C986 1.523 . S
C986 C970 1.368 . S
C986 C982 1.368 . S
C986 C985 1.523 . S
H987 C962 0.950 . S
H988 C964 0.950 . S
H989 C965 0.949 . S
H990 C967 0.950 . S
H991 C969 0.950 . S
C992 C993 1.349 . S
C992 C994 1.327 . S
C992 H1017 0.950 . S
C993 C992 1.349 . S
C993 C1009 1.349 . S
C994 C992 1.327 . S
C994 C1013 1.429 . S
C994 H1018 0.950 . S
C995 C1012 1.574 . S
C995 C1014 1.368 . S
C995 H1019 0.949 1_545 S
H996 C1000 0.949 . S
C997 C998 1.377 . S
C997 C999 1.336 . S
C997 H1020 0.913 1_645 S
C998 C997 1.377 . S
C998 C1010 1.349 . S
C999 C997 1.336 . S
C999 C1015 1.429 . S
C999 H1021 0.950 1_545 S
C1000 H996 0.949 . S
C1000 C1008 1.574 . S
C1000 C1016 1.368 . S
H1001 C1009 0.944 1_565 S
H1002 C1007 0.950 1_565 S
H1003 C1008 0.949 . S
H1004 C1010 0.950 . S
H1005 C1011 0.950 . S
H1006 C1012 0.949 1_565 S
C1007 H1002 0.950 1_545 S
C1007 C1009 1.327 . S
C1007 C1013 1.429 . S
C1008 C1000 1.574 . S
C1008 H1003 0.949 . S
C1008 C1014 1.368 . S
C1009 C993 1.349 . S
C1009 H1001 0.944 1_545 S
C1009 C1007 1.327 . S
C1010 C998 1.349 . S
C1010 H1004 0.950 . S
C1010 C1011 1.327 . S
C1011 H1005 0.950 . S
C1011 C1010 1.327 . S
C1011 C1015 1.429 . S
C1012 C995 1.574 . S
C1012 H1006 0.949 1_545 S
C1012 C1016 1.368 . S
C1013 C994 1.429 . S
C1013 C1007 1.429 . S
C1013 C1014 1.523 . S
C1014 C995 1.368 . S
C1014 C1008 1.368 . S
C1014 C1013 1.523 . S
C1015 C999 1.429 . S
C1015 C1011 1.429 . S
C1015 C1016 1.523 . S
C1016 C1000 1.368 . S
C1016 C1012 1.368 . S
C1016 C1015 1.523 . S
H1017 C992 0.950 . S
H1018 C994 0.950 . S
H1019 C995 0.949 1_565 S
H1020 C997 0.913 1_465 S
H1021 C999 0.950 1_565 S
C1022 C1023 1.349 . S
C1022 C1024 1.327 . S
C1022 H1047 0.950 . S
C1023 C1022 1.349 . S
C1023 C1039 1.349 . S
C1024 C1022 1.327 . S
C1024 C1043 1.429 . S
C1024 H1048 0.950 . S
C1025 C1042 1.574 . S
C1025 C1044 1.368 . S
C1025 H1049 0.949 . S
H1026 C1030 0.949 . S
C1027 C1028 1.349 . S
C1027 C1029 1.327 . S
C1027 H1050 0.950 . S
C1028 C1027 1.349 . S
C1028 C1040 1.349 . S
C1029 C1027 1.327 . S
C1029 C1045 1.429 . S
C1029 H1051 0.950 . S
C1030 H1026 0.949 . S
C1030 C1038 1.574 . S
C1030 C1046 1.368 . S
H1031 C1039 0.950 . S
H1032 C1037 0.950 . S
H1033 C1038 0.949 . S
H1034 C1040 0.950 . S
H1035 C1041 0.950 . S
H1036 C1042 0.949 . S
C1037 H1032 0.950 . S
C1037 C1039 1.327 . S
C1037 C1043 1.429 . S
C1038 C1030 1.574 . S
C1038 H1033 0.949 . S
C1038 C1044 1.368 . S
C1039 C1023 1.349 . S
C1039 H1031 0.950 . S
C1039 C1037 1.327 . S
C1040 C1028 1.349 . S
C1040 H1034 0.950 . S
C1040 C1041 1.327 . S
C1041 H1035 0.950 . S
C1041 C1040 1.327 . S
C1041 C1045 1.429 . S
C1042 C1025 1.574 . S
C1042 H1036 0.949 . S
C1042 C1046 1.368 . S
C1043 C1024 1.429 . S
C1043 C1037 1.429 . S
C1043 C1044 1.523 . S
C1044 C1025 1.368 . S
C1044 C1038 1.368 . S
C1044 C1043 1.523 . S
C1045 C1029 1.429 . S
C1045 C1041 1.429 . S
C1045 C1046 1.523 . S
C1046 C1030 1.368 . S
C1046 C1042 1.368 . S
C1046 C1045 1.523 . S
H1047 C1022 0.950 . S
H1048 C1024 0.950 . S
H1049 C1025 0.949 . S
H1050 C1027 0.950 . S
H1051 C1029 0.950 . S
C1052 C1053 1.386 . S
C1052 C1054 1.327 . S
C1052 H1077 0.950 . S
C1053 C1052 1.386 . S
C1053 C1069 1.306 1_565 S
C1054 C1052 1.327 . S
C1054 C1073 1.429 1_565 S
C1054 H1078 0.950 . S
C1055 C1072 1.574 . S
C1055 C1074 1.368 . S
C1055 H1079 0.949 . S
H1056 C1060 0.980 . S
C1057 C1058 1.349 . S
C1057 C1059 1.327 . S
C1057 H1080 0.950 . S
C1058 C1057 1.349 . S
C1058 C1070 1.349 . S
C1059 C1057 1.327 . S
C1059 C1075 1.429 . S
C1059 H1081 0.950 . S
C1060 H1056 0.980 . S
C1060 C1068 1.581 . S
C1060 C1076 1.329 1_565 S
H1061 C1069 0.950 . S
H1062 C1067 0.950 . S
H1063 C1068 0.949 . S
H1064 C1070 0.981 . S
H1065 C1071 0.950 1_565 S
H1066 C1072 0.949 . S
C1067 H1062 0.950 . S
C1067 C1069 1.327 . S
C1067 C1073 1.429 . S
C1068 C1060 1.581 . S
C1068 H1063 0.949 . S
C1068 C1074 1.368 1_565 S
C1069 C1053 1.306 1_545 S
C1069 H1061 0.950 . S
C1069 C1067 1.327 . S
C1070 C1058 1.349 . S
C1070 H1064 0.981 . S
C1070 C1071 1.327 . S
C1071 H1065 0.950 1_545 S
C1071 C1070 1.327 . S
C1071 C1075 1.429 . S
C1072 C1055 1.574 . S
C1072 H1066 0.949 . S
C1072 C1076 1.368 . S
C1073 C1054 1.429 1_545 S
C1073 C1067 1.429 . S
C1073 C1074 1.523 . S
C1074 C1055 1.368 . S
C1074 C1068 1.368 1_545 S
C1074 C1073 1.523 . S
C1075 C1059 1.429 . S
C1075 C1071 1.429 . S
C1075 C1076 1.523 . S
C1076 C1060 1.329 1_545 S
C1076 C1072 1.368 . S
C1076 C1075 1.523 . S
H1077 C1052 0.950 . S
H1078 C1054 0.950 . S
H1079 C1055 0.949 . S
H1080 C1057 0.950 . S
H1081 C1059 0.950 . S
C1082 C1083 1.349 . S
C1082 C1084 1.327 . S
C1082 H1107 0.950 . S
C1083 C1082 1.349 . S
C1083 C1099 1.349 . S
C1084 C1082 1.327 . S
C1084 C1103 1.429 . S
C1084 H1108 0.950 . S
C1085 C1102 1.574 . S
C1085 C1104 1.368 . S
C1085 H1109 0.949 . S
H1086 C1090 0.949 . S
C1087 C1088 1.349 . S
C1087 C1089 1.327 . S
C1087 H1110 0.950 . S
C1088 C1087 1.349 . S
C1088 C1100 1.349 . S
C1089 C1087 1.327 . S
C1089 C1105 1.429 . S
C1089 H1111 0.950 . S
C1090 H1086 0.949 . S
C1090 C1098 1.574 . S
C1090 C1106 1.368 . S
H1091 C1099 0.950 . S
H1092 C1097 0.950 . S
H1093 C1098 0.949 . S
H1094 C1100 0.950 . S
H1095 C1101 0.950 . S
H1096 C1102 0.949 . S
C1097 H1092 0.950 . S
C1097 C1099 1.327 . S
C1097 C1103 1.429 . S
C1098 C1090 1.574 . S
C1098 H1093 0.949 . S
C1098 C1104 1.368 . S
C1099 C1083 1.349 . S
C1099 H1091 0.950 . S
C1099 C1097 1.327 . S
C1100 C1088 1.349 . S
C1100 H1094 0.950 . S
C1100 C1101 1.327 . S
C1101 H1095 0.950 . S
C1101 C1100 1.327 . S
C1101 C1105 1.429 . S
C1102 C1085 1.574 . S
C1102 H1096 0.949 . S
C1102 C1106 1.368 . S
C1103 C1084 1.429 . S
C1103 C1097 1.429 . S
C1103 C1104 1.523 . S
C1104 C1085 1.368 . S
C1104 C1098 1.368 . S
C1104 C1103 1.523 . S
C1105 C1089 1.429 . S
C1105 C1101 1.429 . S
C1105 C1106 1.523 . S
C1106 C1090 1.368 . S
C1106 C1102 1.368 . S
C1106 C1105 1.523 . S
H1107 C1082 0.950 . S
H1108 C1084 0.950 . S
H1109 C1085 0.949 . S
H1110 C1087 0.950 . S
H1111 C1089 0.950 . S
C1112 C1113 1.349 . S
C1112 C1114 1.327 . S
C1112 H1137 0.950 1_554 S
C1113 C1112 1.349 . S
C1113 C1129 1.349 . S
C1114 C1112 1.327 . S
C1114 C1133 1.429 . S
C1114 H1138 0.950 1_554 S
C1115 C1132 1.574 . S
C1115 C1134 1.368 . S
C1115 H1139 0.949 . S
H1116 C1120 0.949 1_556 S
C1117 C1118 1.349 . S
C1117 C1119 1.327 . S
C1117 H1140 0.950 . S
C1118 C1117 1.349 . S
C1118 C1130 1.349 . S
C1119 C1117 1.327 . S
C1119 C1135 1.429 . S
C1119 H1141 0.950 . S
C1120 H1116 0.949 1_554 S
C1120 C1128 1.574 . S
C1120 C1136 1.368 . S
H1121 C1129 0.950 . S
H1122 C1127 0.950 . S
H1123 C1128 0.949 1_556 S
H1124 C1130 0.950 . S
H1125 C1131 0.939 1_556 S
H1126 C1132 0.949 . S
C1127 H1122 0.950 . S
C1127 C1129 1.327 . S
C1127 C1133 1.429 . S
C1128 C1120 1.574 . S
C1128 H1123 0.949 1_554 S
C1128 C1134 1.368 . S
C1129 C1113 1.349 . S
C1129 H1121 0.950 . S
C1129 C1127 1.327 . S
C1130 C1118 1.349 . S
C1130 H1124 0.950 . S
C1130 C1131 1.327 . S
C1131 H1125 0.939 1_554 S
C1131 C1130 1.327 . S
C1131 C1135 1.429 . S
C1132 C1115 1.574 . S
C1132 H1126 0.949 . S
C1132 C1136 1.368 . S
C1133 C1114 1.429 . S
C1133 C1127 1.429 . S
C1133 C1134 1.523 . S
C1134 C1115 1.368 . S
C1134 C1128 1.368 . S
C1134 C1133 1.523 . S
C1135 C1119 1.429 . S
C1135 C1131 1.429 . S
C1135 C1136 1.523 . S
C1136 C1120 1.368 . S
C1136 C1132 1.368 . S
C1136 C1135 1.523 . S
H1137 C1112 0.950 1_556 S
H1138 C1114 0.950 1_556 S
H1139 C1115 0.949 . S
H1140 C1117 0.950 . S
H1141 C1119 0.950 . S
C1142 C1143 1.349 . S
C1142 C1144 1.327 . S
C1142 H1167 0.950 . S
C1143 C1142 1.349 . S
C1143 C1159 1.349 1_556 S
C1144 C1142 1.327 . S
C1144 C1163 1.429 1_556 S
C1144 H1168 0.950 . S
C1145 C1162 1.574 . S
C1145 C1164 1.368 . S
C1145 H1169 0.949 . S
H1146 C1150 0.949 . S
C1147 C1148 1.349 . S
C1147 C1149 1.327 . S
C1147 H1170 0.950 . S
C1148 C1147 1.349 . S
C1148 C1160 1.349 . S
C1149 C1147 1.327 . S
C1149 C1165 1.429 . S
C1149 H1171 0.950 . S
C1150 H1146 0.949 . S
C1150 C1158 1.574 . S
C1150 C1166 1.368 1_556 S
H1151 C1159 0.950 . S
H1152 C1157 0.950 . S
H1153 C1158 0.949 . S
H1154 C1160 0.950 1_556 S
H1155 C1161 0.950 . S
H1156 C1162 0.949 . S
C1157 H1152 0.950 . S
C1157 C1159 1.327 . S
C1157 C1163 1.429 . S
C1158 C1150 1.574 . S
C1158 H1153 0.949 . S
C1158 C1164 1.368 1_556 S
C1159 C1143 1.349 1_554 S
C1159 H1151 0.950 . S
C1159 C1157 1.327 . S
C1160 C1148 1.349 . S
C1160 H1154 0.950 1_554 S
C1160 C1161 1.327 1_554 S
C1161 H1155 0.950 . S
C1161 C1160 1.327 1_556 S
C1161 C1165 1.429 1_556 S
C1162 C1145 1.574 . S
C1162 H1156 0.949 . S
C1162 C1166 1.368 . S
C1163 C1144 1.429 1_554 S
C1163 C1157 1.429 . S
C1163 C1164 1.523 . S
C1164 C1145 1.368 . S
C1164 C1158 1.368 1_554 S
C1164 C1163 1.523 . S
C1165 C1149 1.429 . S
C1165 C1161 1.429 1_554 S
C1165 C1166 1.523 . S
C1166 C1150 1.368 1_554 S
C1166 C1162 1.368 . S
C1166 C1165 1.523 . S
H1167 C1142 0.950 . S
H1168 C1144 0.950 . S
H1169 C1145 0.949 . S
H1170 C1147 0.950 . S
H1171 C1149 0.950 . S
C1172 C1173 1.349 . S
C1172 C1174 1.327 . S
C1172 H1197 0.950 . S
C1173 C1172 1.349 . S
C1173 C1189 1.349 . S
C1174 C1172 1.327 . S
C1174 C1193 1.429 . S
C1174 H1198 0.950 . S
C1175 C1192 1.574 . S
C1175 C1194 1.368 . S
C1175 H1199 0.949 . S
H1176 C1180 0.949 . S
C1177 C1178 1.349 . S
C1177 C1179 1.327 . S
C1177 H1200 0.950 . S
C1178 C1177 1.349 . S
C1178 C1190 1.349 . S
C1179 C1177 1.327 . S
C1179 C1195 1.429 . S
C1179 H1201 0.950 . S
C1180 H1176 0.949 . S
C1180 C1188 1.574 . S
C1180 C1196 1.368 . S
H1181 C1189 0.950 . S
H1182 C1187 0.950 . S
H1183 C1188 0.949 . S
H1184 C1190 0.950 . S
H1185 C1191 0.950 . S
H1186 C1192 0.949 . S
C1187 H1182 0.950 . S
C1187 C1189 1.327 . S
C1187 C1193 1.429 . S
C1188 C1180 1.574 . S
C1188 H1183 0.949 . S
C1188 C1194 1.368 . S
C1189 C1173 1.349 . S
C1189 H1181 0.950 . S
C1189 C1187 1.327 . S
C1190 C1178 1.349 . S
C1190 H1184 0.950 . S
C1190 C1191 1.327 . S
C1191 H1185 0.950 . S
C1191 C1190 1.327 . S
C1191 C1195 1.429 . S
C1192 C1175 1.574 . S
C1192 H1186 0.949 . S
C1192 C1196 1.368 . S
C1193 C1174 1.429 . S
C1193 C1187 1.429 . S
C1193 C1194 1.523 . S
C1194 C1175 1.368 . S
C1194 C1188 1.368 . S
C1194 C1193 1.523 . S
C1195 C1179 1.429 . S
C1195 C1191 1.429 . S
C1195 C1196 1.523 . S
C1196 C1180 1.368 . S
C1196 C1192 1.368 . S
C1196 C1195 1.523 . S
H1197 C1172 0.950 . S
H1198 C1174 0.950 . S
H1199 C1175 0.949 . S
H1200 C1177 0.950 . S
H1201 C1179 0.950 . S
C1202 C1203 1.349 . S
C1202 C1204 1.327 . S
C1202 H1227 0.950 . S
C1203 C1202 1.349 . S
C1203 C1219 1.349 . S
C1204 C1202 1.327 . S
C1204 C1223 1.429 . S
C1204 H1228 0.950 . S
C1205 C1222 1.574 . S
C1205 C1224 1.368 . S
C1205 H1229 0.949 . S
H1206 C1210 0.949 . S
C1207 C1208 1.349 . S
C1207 C1209 1.327 . S
C1207 H1230 0.950 . S
C1208 C1207 1.349 . S
C1208 C1220 1.349 . S
C1209 C1207 1.327 . S
C1209 C1225 1.429 . S
C1209 H1231 0.950 . S
C1210 H1206 0.949 . S
C1210 C1218 1.574 . S
C1210 C1226 1.368 . S
H1211 C1219 0.950 . S
H1212 C1217 0.950 . S
H1213 C1218 0.949 . S
H1214 C1220 0.950 . S
H1215 C1221 0.950 . S
H1216 C1222 0.949 . S
C1217 H1212 0.950 . S
C1217 C1219 1.327 . S
C1217 C1223 1.429 . S
C1218 C1210 1.574 . S
C1218 H1213 0.949 . S
C1218 C1224 1.368 . S
C1219 C1203 1.349 . S
C1219 H1211 0.950 . S
C1219 C1217 1.327 . S
C1220 C1208 1.349 . S
C1220 H1214 0.950 . S
C1220 C1221 1.327 . S
C1221 H1215 0.950 . S
C1221 C1220 1.327 . S
C1221 C1225 1.429 . S
C1222 C1205 1.574 . S
C1222 H1216 0.949 . S
C1222 C1226 1.368 . S
C1223 C1204 1.429 . S
C1223 C1217 1.429 . S
C1223 C1224 1.523 . S
C1224 C1205 1.368 . S
C1224 C1218 1.368 . S
C1224 C1223 1.523 . S
C1225 C1209 1.429 . S
C1225 C1221 1.429 . S
C1225 C1226 1.523 . S
C1226 C1210 1.368 . S
C1226 C1222 1.368 . S
C1226 C1225 1.523 . S
H1227 C1202 0.950 . S
H1228 C1204 0.950 . S
H1229 C1205 0.949 . S
H1230 C1207 0.950 . S
H1231 C1209 0.950 . S
C1232 C1233 1.349 . S
C1232 C1234 1.327 . S
C1232 H1257 0.950 . S
C1233 C1232 1.349 . S
C1233 C1249 1.349 . S
C1234 C1232 1.327 . S
C1234 C1253 1.429 . S
C1234 H1258 0.950 . S
C1235 C1252 1.574 . S
C1235 C1254 1.368 . S
C1235 H1259 0.949 . S
H1236 C1240 0.949 . S
C1237 C1238 1.349 . S
C1237 C1239 1.327 . S
C1237 H1260 0.950 . S
C1238 C1237 1.349 . S
C1238 C1250 1.349 . S
C1239 C1237 1.327 . S
C1239 C1255 1.429 . S
C1239 H1261 0.950 . S
C1240 H1236 0.949 . S
C1240 C1248 1.574 . S
C1240 C1256 1.368 . S
H1241 C1249 0.950 . S
H1242 C1247 0.950 . S
H1243 C1248 0.949 . S
H1244 C1250 0.950 . S
H1245 C1251 0.950 . S
H1246 C1252 0.949 . S
C1247 H1242 0.950 . S
C1247 C1249 1.327 . S
C1247 C1253 1.429 . S
C1248 C1240 1.574 . S
C1248 H1243 0.949 . S
C1248 C1254 1.368 . S
C1249 C1233 1.349 . S
C1249 H1241 0.950 . S
C1249 C1247 1.327 . S
C1250 C1238 1.349 . S
C1250 H1244 0.950 . S
C1250 C1251 1.327 . S
C1251 H1245 0.950 . S
C1251 C1250 1.327 . S
C1251 C1255 1.429 . S
C1252 C1235 1.574 . S
C1252 H1246 0.949 . S
C1252 C1256 1.368 . S
C1253 C1234 1.429 . S
C1253 C1247 1.429 . S
C1253 C1254 1.523 . S
C1254 C1235 1.368 . S
C1254 C1248 1.368 . S
C1254 C1253 1.523 . S
C1255 C1239 1.429 . S
C1255 C1251 1.429 . S
C1255 C1256 1.523 . S
C1256 C1240 1.368 . S
C1256 C1252 1.368 . S
C1256 C1255 1.523 . S
H1257 C1232 0.950 . S
H1258 C1234 0.950 . S
H1259 C1235 0.949 . S
H1260 C1237 0.950 . S
H1261 C1239 0.950 . S
C1262 C1263 1.349 . S
C1262 C1264 1.327 . S
C1262 H1287 0.950 . S
C1263 C1262 1.349 . S
C1263 C1279 1.349 . S
C1264 C1262 1.327 . S
C1264 C1283 1.429 . S
C1264 H1288 0.950 . S
C1265 C1282 1.574 . S
C1265 C1284 1.368 . S
C1265 H1289 0.949 . S
H1266 C1270 0.949 . S
C1267 C1268 1.349 . S
C1267 C1269 1.327 . S
C1267 H1290 0.950 . S
C1268 C1267 1.349 . S
C1268 C1280 1.349 . S
C1269 C1267 1.327 . S
C1269 C1285 1.429 . S
C1269 H1291 0.950 . S
C1270 H1266 0.949 . S
C1270 C1278 1.574 . S
C1270 C1286 1.368 . S
H1271 C1279 0.950 . S
H1272 C1277 0.950 . S
H1273 C1278 0.949 . S
H1274 C1280 0.950 . S
H1275 C1281 0.950 . S
H1276 C1282 0.949 . S
C1277 H1272 0.950 . S
C1277 C1279 1.327 . S
C1277 C1283 1.429 . S
C1278 C1270 1.574 . S
C1278 H1273 0.949 . S
C1278 C1284 1.368 . S
C1279 C1263 1.349 . S
C1279 H1271 0.950 . S
C1279 C1277 1.327 . S
C1280 C1268 1.349 . S
C1280 H1274 0.950 . S
C1280 C1281 1.327 . S
C1281 H1275 0.950 . S
C1281 C1280 1.327 . S
C1281 C1285 1.429 . S
C1282 C1265 1.574 . S
C1282 H1276 0.949 . S
C1282 C1286 1.368 . S
C1283 C1264 1.429 . S
C1283 C1277 1.429 . S
C1283 C1284 1.523 . S
C1284 C1265 1.368 . S
C1284 C1278 1.368 . S
C1284 C1283 1.523 . S
C1285 C1269 1.429 . S
C1285 C1281 1.429 . S
C1285 C1286 1.523 . S
C1286 C1270 1.368 . S
C1286 C1282 1.368 . S
C1286 C1285 1.523 . S
H1287 C1262 0.950 . S
H1288 C1264 0.950 . S
H1289 C1265 0.949 . S
H1290 C1267 0.950 . S
H1291 C1269 0.950 . S
C1292 C1293 1.349 . S
C1292 C1294 1.327 . S
C1292 H1317 0.950 . S
C1293 C1292 1.349 . S
C1293 C1309 1.349 . S
C1294 C1292 1.327 . S
C1294 C1313 1.429 . S
C1294 H1318 0.950 . S
C1295 C1312 1.574 . S
C1295 C1314 1.368 . S
C1295 H1319 0.949 . S
H1296 C1300 0.949 . S
C1297 C1298 1.349 . S
C1297 C1299 1.327 . S
C1297 H1320 0.950 . S
C1298 C1297 1.349 . S
C1298 C1310 1.349 . S
C1299 C1297 1.327 . S
C1299 C1315 1.429 . S
C1299 H1321 0.950 . S
C1300 H1296 0.949 . S
C1300 C1308 1.574 . S
C1300 C1316 1.368 . S
H1301 C1309 0.950 . S
H1302 C1307 0.950 . S
H1303 C1308 0.949 . S
H1304 C1310 0.950 . S
H1305 C1311 0.950 . S
H1306 C1312 0.949 . S
C1307 H1302 0.950 . S
C1307 C1309 1.327 . S
C1307 C1313 1.429 . S
C1308 C1300 1.574 . S
C1308 H1303 0.949 . S
C1308 C1314 1.368 . S
C1309 C1293 1.349 . S
C1309 H1301 0.950 . S
C1309 C1307 1.327 . S
C1310 C1298 1.349 . S
C1310 H1304 0.950 . S
C1310 C1311 1.327 . S
C1311 H1305 0.950 . S
C1311 C1310 1.327 . S
C1311 C1315 1.429 . S
C1312 C1295 1.574 . S
C1312 H1306 0.949 . S
C1312 C1316 1.368 . S
C1313 C1294 1.429 . S
C1313 C1307 1.429 . S
C1313 C1314 1.523 . S
C1314 C1295 1.368 . S
C1314 C1308 1.368 . S
C1314 C1313 1.523 . S
C1315 C1299 1.429 . S
C1315 C1311 1.429 . S
C1315 C1316 1.523 . S
C1316 C1300 1.368 . S
C1316 C1312 1.368 . S
C1316 C1315 1.523 . S
H1317 C1292 0.950 . S
H1318 C1294 0.950 . S
H1319 C1295 0.949 . S
H1320 C1297 0.950 . S
H1321 C1299 0.950 . S
C1322 C1323 1.349 . S
C1322 C1324 1.327 . S
C1322 H1347 0.950 . S
C1323 C1322 1.349 . S
C1323 C1339 1.349 . S
C1324 C1322 1.327 . S
C1324 C1343 1.429 . S
C1324 H1348 0.950 . S
C1325 C1342 1.574 . S
C1325 C1344 1.368 . S
C1325 H1349 0.949 . S
H1326 C1330 0.949 . S
C1327 C1328 1.349 . S
C1327 C1329 1.327 . S
C1327 H1350 0.950 . S
C1328 C1327 1.349 . S
C1328 C1340 1.349 . S
C1329 C1327 1.327 . S
C1329 C1345 1.429 . S
C1329 H1351 0.950 . S
C1330 H1326 0.949 . S
C1330 C1338 1.574 . S
C1330 C1346 1.368 . S
H1331 C1339 0.950 . S
H1332 C1337 0.950 . S
H1333 C1338 0.949 . S
H1334 C1340 0.950 . S
H1335 C1341 0.950 . S
H1336 C1342 0.949 . S
C1337 H1332 0.950 . S
C1337 C1339 1.327 . S
C1337 C1343 1.429 . S
C1338 C1330 1.574 . S
C1338 H1333 0.949 . S
C1338 C1344 1.368 . S
C1339 C1323 1.349 . S
C1339 H1331 0.950 . S
C1339 C1337 1.327 . S
C1340 C1328 1.349 . S
C1340 H1334 0.950 . S
C1340 C1341 1.327 . S
C1341 H1335 0.950 . S
C1341 C1340 1.327 . S
C1341 C1345 1.429 . S
C1342 C1325 1.574 . S
C1342 H1336 0.949 . S
C1342 C1346 1.368 . S
C1343 C1324 1.429 . S
C1343 C1337 1.429 . S
C1343 C1344 1.523 . S
C1344 C1325 1.368 . S
C1344 C1338 1.368 . S
C1344 C1343 1.523 . S
C1345 C1329 1.429 . S
C1345 C1341 1.429 . S
C1345 C1346 1.523 . S
C1346 C1330 1.368 . S
C1346 C1342 1.368 . S
C1346 C1345 1.523 . S
H1347 C1322 0.950 . S
H1348 C1324 0.950 . S
H1349 C1325 0.949 . S
H1350 C1327 0.950 . S
H1351 C1329 0.950 . S
C1352 C1353 1.349 . S
C1352 C1354 1.327 . S
C1352 H1377 0.950 1_455 S
C1353 C1352 1.349 . S
C1353 C1369 1.349 . S
C1354 C1352 1.327 . S
C1354 C1373 1.429 . S
C1354 H1378 0.950 1_455 S
C1355 C1372 1.574 . S
C1355 C1374 1.368 . S
C1355 H1379 0.949 . S
H1356 C1360 0.949 . S
C1357 C1358 1.349 . S
C1357 C1359 1.327 . S
C1357 H1380 0.950 . S
C1358 C1357 1.349 . S
C1358 C1370 1.349 1_455 S
C1359 C1357 1.327 . S
C1359 C1375 1.429 . S
C1359 H1381 0.950 . S
C1360 H1356 0.949 . S
C1360 C1368 1.572 1_655 S
C1360 C1376 1.368 1_655 S
H1361 C1369 0.950 . S
H1362 C1367 0.950 . S
H1363 C1368 0.946 1_655 S
H1364 C1370 0.950 . S
H1365 C1371 0.950 . S
H1366 C1372 0.949 . S
C1367 H1362 0.950 . S
C1367 C1369 1.327 . S
C1367 C1373 1.429 . S
C1368 C1360 1.572 1_455 S
C1368 H1363 0.946 1_455 S
C1368 C1374 1.373 . S
C1369 C1353 1.349 . S
C1369 H1361 0.950 . S
C1369 C1367 1.327 . S
C1370 C1358 1.349 1_655 S
C1370 H1364 0.950 . S
C1370 C1371 1.327 . S
C1371 H1365 0.950 . S
C1371 C1370 1.327 . S
C1371 C1375 1.429 1_655 S
C1372 C1355 1.574 . S
C1372 H1366 0.949 . S
C1372 C1376 1.368 . S
C1373 C1354 1.429 . S
C1373 C1367 1.429 . S
C1373 C1374 1.523 . S
C1374 C1355 1.368 . S
C1374 C1368 1.373 . S
C1374 C1373 1.523 . S
C1375 C1359 1.429 . S
C1375 C1371 1.429 1_455 S
C1375 C1376 1.523 . S
C1376 C1360 1.368 1_455 S
C1376 C1372 1.368 . S
C1376 C1375 1.523 . S
H1377 C1352 0.950 1_655 S
H1378 C1354 0.950 1_655 S
H1379 C1355 0.949 . S
H1380 C1357 0.950 . S
H1381 C1359 0.950 . S
C1382 C1383 1.349 . S
C1382 C1384 1.327 . S
C1382 H1407 0.950 . S
C1383 C1382 1.349 . S
C1383 C1399 1.349 . S
C1384 C1382 1.327 . S
C1384 C1403 1.429 . S
C1384 H1408 0.950 . S
C1385 C1402 1.574 . S
C1385 C1404 1.368 . S
C1385 H1409 0.949 . S
H1386 C1390 0.949 . S
C1387 C1388 1.349 . S
C1387 C1389 1.327 . S
C1387 H1410 0.950 . S
C1388 C1387 1.349 . S
C1388 C1400 1.349 . S
C1389 C1387 1.327 . S
C1389 C1405 1.429 . S
C1389 H1411 0.950 . S
C1390 H1386 0.949 . S
C1390 C1398 1.574 . S
C1390 C1406 1.368 . S
H1391 C1399 0.950 . S
H1392 C1397 0.950 . S
H1393 C1398 0.949 . S
H1394 C1400 0.950 . S
H1395 C1401 0.950 . S
H1396 C1402 0.949 . S
C1397 H1392 0.950 . S
C1397 C1399 1.327 . S
C1397 C1403 1.429 . S
C1398 C1390 1.574 . S
C1398 H1393 0.949 . S
C1398 C1404 1.368 . S
C1399 C1383 1.349 . S
C1399 H1391 0.950 . S
C1399 C1397 1.327 . S
C1400 C1388 1.349 . S
C1400 H1394 0.950 . S
C1400 C1401 1.327 . S
C1401 H1395 0.950 . S
C1401 C1400 1.327 . S
C1401 C1405 1.429 . S
C1402 C1385 1.574 . S
C1402 H1396 0.949 . S
C1402 C1406 1.368 . S
C1403 C1384 1.429 . S
C1403 C1397 1.429 . S
C1403 C1404 1.523 . S
C1404 C1385 1.368 . S
C1404 C1398 1.368 . S
C1404 C1403 1.523 . S
C1405 C1389 1.429 . S
C1405 C1401 1.429 . S
C1405 C1406 1.523 . S
C1406 C1390 1.368 . S
C1406 C1402 1.368 . S
C1406 C1405 1.523 . S
H1407 C1382 0.950 . S
H1408 C1384 0.950 . S
H1409 C1385 0.949 . S
H1410 C1387 0.950 . S
H1411 C1389 0.950 . S
C1412 C1413 1.349 . S
C1412 C1414 1.327 . S
C1412 H1437 0.950 . S
C1413 C1412 1.349 . S
C1413 C1429 1.349 . S
C1414 C1412 1.327 . S
C1414 C1433 1.429 . S
C1414 H1438 0.950 . S
C1415 C1432 1.574 . S
C1415 C1434 1.368 . S
C1415 H1439 0.949 . S
H1416 C1420 0.949 . S
C1417 C1418 1.349 . S
C1417 C1419 1.327 . S
C1417 H1440 0.950 . S
C1418 C1417 1.349 . S
C1418 C1430 1.349 . S
C1419 C1417 1.327 . S
C1419 C1435 1.429 . S
C1419 H1441 0.950 . S
C1420 H1416 0.949 . S
C1420 C1428 1.574 . S
C1420 C1436 1.368 . S
H1421 C1429 0.950 . S
H1422 C1427 0.950 . S
H1423 C1428 0.949 . S
H1424 C1430 0.950 . S
H1425 C1431 0.950 . S
H1426 C1432 0.949 . S
C1427 H1422 0.950 . S
C1427 C1429 1.327 . S
C1427 C1433 1.429 . S
C1428 C1420 1.574 . S
C1428 H1423 0.949 . S
C1428 C1434 1.368 . S
C1429 C1413 1.349 . S
C1429 H1421 0.950 . S
C1429 C1427 1.327 . S
C1430 C1418 1.349 . S
C1430 H1424 0.950 . S
C1430 C1431 1.327 . S
C1431 H1425 0.950 . S
C1431 C1430 1.327 . S
C1431 C1435 1.429 . S
C1432 C1415 1.574 . S
C1432 H1426 0.949 . S
C1432 C1436 1.368 . S
C1433 C1414 1.429 . S
C1433 C1427 1.429 . S
C1433 C1434 1.523 . S
C1434 C1415 1.368 . S
C1434 C1428 1.368 . S
C1434 C1433 1.523 . S
C1435 C1419 1.429 . S
C1435 C1431 1.429 . S
C1435 C1436 1.523 . S
C1436 C1420 1.368 . S
C1436 C1432 1.368 . S
C1436 C1435 1.523 . S
H1437 C1412 0.950 . S
H1438 C1414 0.950 . S
H1439 C1415 0.949 . S
H1440 C1417 0.950 . S
H1441 C1419 0.950 . S
C1442 C1443 1.349 . S
C1442 C1444 1.327 . S
C1442 H1467 0.950 . S
C1443 C1442 1.349 . S
C1443 C1459 1.349 . S
C1444 C1442 1.327 . S
C1444 C1463 1.429 . S
C1444 H1468 0.950 . S
C1445 C1462 1.574 . S
C1445 C1464 1.368 . S
C1445 H1469 0.949 . S
H1446 C1450 0.949 . S
C1447 C1448 1.349 . S
C1447 C1449 1.327 . S
C1447 H1470 0.950 . S
C1448 C1447 1.349 . S
C1448 C1460 1.349 . S
C1449 C1447 1.327 . S
C1449 C1465 1.429 . S
C1449 H1471 0.950 . S
C1450 H1446 0.949 . S
C1450 C1458 1.574 . S
C1450 C1466 1.368 . S
H1451 C1459 0.950 . S
H1452 C1457 0.950 . S
H1453 C1458 0.949 . S
H1454 C1460 0.950 . S
H1455 C1461 0.950 . S
H1456 C1462 0.949 . S
C1457 H1452 0.950 . S
C1457 C1459 1.327 . S
C1457 C1463 1.429 . S
C1458 C1450 1.574 . S
C1458 H1453 0.949 . S
C1458 C1464 1.368 . S
C1459 C1443 1.349 . S
C1459 H1451 0.950 . S
C1459 C1457 1.327 . S
C1460 C1448 1.349 . S
C1460 H1454 0.950 . S
C1460 C1461 1.327 . S
C1461 H1455 0.950 . S
C1461 C1460 1.327 . S
C1461 C1465 1.429 . S
C1462 C1445 1.574 . S
C1462 H1456 0.949 . S
C1462 C1466 1.368 . S
C1463 C1444 1.429 . S
C1463 C1457 1.429 . S
C1463 C1464 1.523 . S
C1464 C1445 1.368 . S
C1464 C1458 1.368 . S
C1464 C1463 1.523 . S
C1465 C1449 1.429 . S
C1465 C1461 1.429 . S
C1465 C1466 1.523 . S
C1466 C1450 1.368 . S
C1466 C1462 1.368 . S
C1466 C1465 1.523 . S
H1467 C1442 0.950 . S
H1468 C1444 0.950 . S
H1469 C1445 0.949 . S
H1470 C1447 0.950 . S
H1471 C1449 0.950 . S
C1472 C1473 1.349 . S
C1472 C1474 1.327 . S
C1472 H1497 0.950 . S
C1473 C1472 1.349 . S
C1473 C1489 1.349 . S
C1474 C1472 1.327 . S
C1474 C1493 1.429 . S
C1474 H1498 0.950 . S
C1475 C1492 1.574 . S
C1475 C1494 1.368 1_655 S
C1475 H1499 0.949 . S
H1476 C1480 0.949 . S
C1477 C1478 1.349 1_655 S
C1477 C1479 1.327 . S
C1477 H1500 0.950 . S
C1478 C1477 1.349 1_455 S
C1478 C1490 1.349 . S
C1479 C1477 1.327 . S
C1479 C1495 1.429 1_655 S
C1479 H1501 0.950 . S
C1480 H1476 0.949 . S
C1480 C1488 1.574 . S
C1480 C1496 1.368 . S
H1481 C1489 0.950 1_655 S
H1482 C1487 0.950 1_655 S
H1483 C1488 0.949 . S
H1484 C1490 0.950 . S
H1485 C1491 0.950 . S
H1486 C1492 0.949 . S
C1487 H1482 0.950 1_455 S
C1487 C1489 1.327 . S
C1487 C1493 1.429 . S
C1488 C1480 1.574 . S
C1488 H1483 0.949 . S
C1488 C1494 1.368 . S
C1489 C1473 1.349 . S
C1489 H1481 0.950 1_455 S
C1489 C1487 1.327 . S
C1490 C1478 1.349 . S
C1490 H1484 0.950 . S
C1490 C1491 1.327 . S
C1491 H1485 0.950 . S
C1491 C1490 1.327 . S
C1491 C1495 1.429 . S
C1492 C1475 1.574 . S
C1492 H1486 0.949 . S
C1492 C1496 1.368 1_655 S
C1493 C1474 1.429 . S
C1493 C1487 1.429 . S
C1493 C1494 1.523 . S
C1494 C1475 1.368 1_455 S
C1494 C1488 1.368 . S
C1494 C1493 1.523 . S
C1495 C1479 1.429 1_455 S
C1495 C1491 1.429 . S
C1495 C1496 1.523 . S
C1496 C1480 1.368 . S
C1496 C1492 1.368 1_455 S
C1496 C1495 1.523 . S
H1497 C1472 0.950 . S
H1498 C1474 0.950 . S
H1499 C1475 0.949 . S
H1500 C1477 0.950 . S
H1501 C1479 0.950 . S
C1502 C1503 1.349 . S
C1502 C1504 1.327 . S
C1502 H1527 0.950 . S
C1503 C1502 1.349 . S
C1503 C1519 1.349 . S
C1504 C1502 1.327 . S
C1504 C1523 1.429 . S
C1504 H1528 0.950 . S
C1505 C1522 1.574 . S
C1505 C1524 1.368 . S
C1505 H1529 0.949 . S
H1506 C1510 0.949 . S
C1507 C1508 1.349 . S
C1507 C1509 1.327 . S
C1507 H1530 0.950 . S
C1508 C1507 1.349 . S
C1508 C1520 1.349 . S
C1509 C1507 1.327 . S
C1509 C1525 1.429 . S
C1509 H1531 0.950 . S
C1510 H1506 0.949 . S
C1510 C1518 1.574 . S
C1510 C1526 1.368 . S
H1511 C1519 0.950 . S
H1512 C1517 0.950 . S
H1513 C1518 0.949 . S
H1514 C1520 0.950 . S
H1515 C1521 0.950 . S
H1516 C1522 0.949 . S
C1517 H1512 0.950 . S
C1517 C1519 1.327 . S
C1517 C1523 1.429 . S
C1518 C1510 1.574 . S
C1518 H1513 0.949 . S
C1518 C1524 1.368 . S
C1519 C1503 1.349 . S
C1519 H1511 0.950 . S
C1519 C1517 1.327 . S
C1520 C1508 1.349 . S
C1520 H1514 0.950 . S
C1520 C1521 1.327 . S
C1521 H1515 0.950 . S
C1521 C1520 1.327 . S
C1521 C1525 1.429 . S
C1522 C1505 1.574 . S
C1522 H1516 0.949 . S
C1522 C1526 1.368 . S
C1523 C1504 1.429 . S
C1523 C1517 1.429 . S
C1523 C1524 1.523 . S
C1524 C1505 1.368 . S
C1524 C1518 1.368 . S
C1524 C1523 1.523 . S
C1525 C1509 1.429 . S
C1525 C1521 1.429 . S
C1525 C1526 1.523 . S
C1526 C1510 1.368 . S
C1526 C1522 1.368 . S
C1526 C1525 1.523 . S
H1527 C1502 0.950 . S
H1528 C1504 0.950 . S
H1529 C1505 0.949 . S
H1530 C1507 0.950 . S
H1531 C1509 0.950 . S
C1532 C1533 1.349 . S
C1532 C1534 1.327 . S
C1532 H1557 0.950 . S
C1533 C1532 1.349 . S
C1533 C1549 1.349 . S
C1534 C1532 1.327 . S
C1534 C1553 1.429 . S
C1534 H1558 0.950 . S
C1535 C1552 1.574 . S
C1535 C1554 1.368 . S
C1535 H1559 0.949 . S
H1536 C1540 0.949 . S
C1537 C1538 1.349 . S
C1537 C1539 1.327 . S
C1537 H1560 0.950 . S
C1538 C1537 1.349 . S
C1538 C1550 1.349 1_554 S
C1539 C1537 1.327 . S
C1539 C1555 1.429 1_554 S
C1539 H1561 0.950 . S
C1540 H1536 0.949 . S
C1540 C1548 1.574 . S
C1540 C1556 1.368 . S
H1541 C1549 0.950 . S
H1542 C1547 0.950 . S
H1543 C1548 0.949 . S
H1544 C1550 0.950 . S
H1545 C1551 0.950 . S
H1546 C1552 0.907 1_554 S
C1547 H1542 0.950 . S
C1547 C1549 1.327 . S
C1547 C1553 1.429 . S
C1548 C1540 1.574 . S
C1548 H1543 0.949 . S
C1548 C1554 1.368 . S
C1549 C1533 1.349 . S
C1549 H1541 0.950 . S
C1549 C1547 1.327 . S
C1550 C1538 1.349 1_556 S
C1550 H1544 0.950 . S
C1550 C1551 1.327 . S
C1551 H1545 0.950 . S
C1551 C1550 1.327 . S
C1551 C1555 1.429 . S
C1552 C1535 1.574 . S
C1552 H1546 0.907 1_556 S
C1552 C1556 1.368 . S
C1553 C1534 1.429 . S
C1553 C1547 1.429 . S
C1553 C1554 1.523 . S
C1554 C1535 1.368 . S
C1554 C1548 1.368 . S
C1554 C1553 1.523 . S
C1555 C1539 1.429 1_556 S
C1555 C1551 1.429 . S
C1555 C1556 1.523 . S
C1556 C1540 1.368 . S
C1556 C1552 1.368 . S
C1556 C1555 1.523 . S
H1557 C1532 0.950 . S
H1558 C1534 0.950 . S
H1559 C1535 0.949 . S
H1560 C1537 0.950 . S
H1561 C1539 0.950 . S
C1562 C1563 1.349 . S
C1562 C1564 1.327 . S
C1562 H1587 0.950 . S
C1563 C1562 1.349 . S
C1563 C1579 1.349 . S
C1564 C1562 1.327 . S
C1564 C1583 1.429 . S
C1564 H1588 0.950 . S
C1565 C1582 1.574 . S
C1565 C1584 1.368 . S
C1565 H1589 0.949 . S
H1566 C1570 0.949 . S
C1567 C1568 1.349 . S
C1567 C1569 1.327 . S
C1567 H1590 0.950 . S
C1568 C1567 1.349 . S
C1568 C1580 1.349 . S
C1569 C1567 1.327 . S
C1569 C1585 1.429 . S
C1569 H1591 0.950 . S
C1570 H1566 0.949 . S
C1570 C1578 1.574 . S
C1570 C1586 1.368 . S
H1571 C1579 0.950 . S
H1572 C1577 0.950 . S
H1573 C1578 0.949 . S
H1574 C1580 0.950 . S
H1575 C1581 0.950 . S
H1576 C1582 0.949 . S
C1577 H1572 0.950 . S
C1577 C1579 1.327 . S
C1577 C1583 1.429 . S
C1578 C1570 1.574 . S
C1578 H1573 0.949 . S
C1578 C1584 1.368 . S
C1579 C1563 1.349 . S
C1579 H1571 0.950 . S
C1579 C1577 1.327 . S
C1580 C1568 1.349 . S
C1580 H1574 0.950 . S
C1580 C1581 1.327 . S
C1581 H1575 0.950 . S
C1581 C1580 1.327 . S
C1581 C1585 1.429 . S
C1582 C1565 1.574 . S
C1582 H1576 0.949 . S
C1582 C1586 1.368 . S
C1583 C1564 1.429 . S
C1583 C1577 1.429 . S
C1583 C1584 1.523 . S
C1584 C1565 1.368 . S
C1584 C1578 1.368 . S
C1584 C1583 1.523 . S
C1585 C1569 1.429 . S
C1585 C1581 1.429 . S
C1585 C1586 1.523 . S
C1586 C1570 1.368 . S
C1586 C1582 1.368 . S
C1586 C1585 1.523 . S
H1587 C1562 0.950 . S
H1588 C1564 0.950 . S
H1589 C1565 0.949 . S
H1590 C1567 0.950 . S
H1591 C1569 0.950 . S
C1592 C1593 1.349 . S
C1592 C1594 1.327 . S
C1592 H1617 0.950 . S
C1593 C1592 1.349 . S
C1593 C1609 1.349 1_545 S
C1594 C1592 1.327 . S
C1594 C1613 1.429 . S
C1594 H1618 0.950 . S
C1595 C1612 1.574 . S
C1595 C1614 1.368 1_565 S
C1595 H1619 0.949 . S
H1596 C1600 0.949 . S
C1597 C1598 1.349 . S
C1597 C1599 1.327 . S
C1597 H1620 0.950 . S
C1598 C1597 1.349 . S
C1598 C1610 1.349 1_565 S
C1599 C1597 1.327 . S
C1599 C1615 1.422 1_565 S
C1599 H1621 0.950 . S
C1600 H1596 0.949 . S
C1600 C1608 1.574 . S
C1600 C1616 1.368 . S
H1601 C1609 0.950 . S
H1602 C1607 0.950 . S
H1603 C1608 0.949 . S
H1604 C1610 0.950 . S
H1605 C1611 0.950 . S
H1606 C1612 0.949 . S
C1607 H1602 0.950 . S
C1607 C1609 1.327 . S
C1607 C1613 1.429 1_565 S
C1608 C1600 1.574 . S
C1608 H1603 0.949 . S
C1608 C1614 1.368 . S
C1609 C1593 1.349 1_565 S
C1609 H1601 0.950 . S
C1609 C1607 1.327 . S
C1610 C1598 1.349 1_545 S
C1610 H1604 0.950 . S
C1610 C1611 1.327 . S
C1611 H1605 0.950 . S
C1611 C1610 1.327 . S
C1611 C1615 1.435 . S
C1612 C1595 1.574 . S
C1612 H1606 0.949 . S
C1612 C1616 1.368 1_565 S
C1613 C1594 1.429 . S
C1613 C1607 1.429 1_545 S
C1613 C1614 1.523 . S
C1614 C1595 1.368 1_545 S
C1614 C1608 1.368 . S
C1614 C1613 1.523 . S
C1615 C1599 1.422 1_545 S
C1615 C1611 1.435 . S
C1615 C1616 1.523 . S
C1616 C1600 1.368 . S
C1616 C1612 1.368 1_545 S
C1616 C1615 1.523 . S
H1617 C1592 0.950 . S
H1618 C1594 0.950 . S
H1619 C1595 0.949 . S
H1620 C1597 0.950 . S
H1621 C1599 0.950 . S
C1622 C1623 1.349 . S
C1622 C1624 1.327 . S
C1622 H1647 0.950 . S
C1623 C1622 1.349 . S
C1623 C1639 1.349 . S
C1624 C1622 1.327 . S
C1624 C1643 1.429 . S
C1624 H1648 0.950 . S
C1625 C1642 1.574 . S
C1625 C1644 1.368 . S
C1625 H1649 0.949 . S
H1626 C1630 0.949 . S
C1627 C1628 1.349 . S
C1627 C1629 1.327 . S
C1627 H1650 0.950 . S
C1628 C1627 1.349 . S
C1628 C1640 1.349 . S
C1629 C1627 1.327 . S
C1629 C1645 1.429 . S
C1629 H1651 0.950 . S
C1630 H1626 0.949 . S
C1630 C1638 1.574 . S
C1630 C1646 1.368 . S
H1631 C1639 0.950 . S
H1632 C1637 0.950 . S
H1633 C1638 0.949 . S
H1634 C1640 0.950 . S
H1635 C1641 0.950 . S
H1636 C1642 0.949 . S
C1637 H1632 0.950 . S
C1637 C1639 1.327 . S
C1637 C1643 1.429 . S
C1638 C1630 1.574 . S
C1638 H1633 0.949 . S
C1638 C1644 1.368 . S
C1639 C1623 1.349 . S
C1639 H1631 0.950 . S
C1639 C1637 1.327 . S
C1640 C1628 1.349 . S
C1640 H1634 0.950 . S
C1640 C1641 1.327 . S
C1641 H1635 0.950 . S
C1641 C1640 1.327 . S
C1641 C1645 1.429 . S
C1642 C1625 1.574 . S
C1642 H1636 0.949 . S
C1642 C1646 1.368 . S
C1643 C1624 1.429 . S
C1643 C1637 1.429 . S
C1643 C1644 1.523 . S
C1644 C1625 1.368 . S
C1644 C1638 1.368 . S
C1644 C1643 1.523 . S
C1645 C1629 1.429 . S
C1645 C1641 1.429 . S
C1645 C1646 1.523 . S
C1646 C1630 1.368 . S
C1646 C1642 1.368 . S
C1646 C1645 1.523 . S
H1647 C1622 0.950 . S
H1648 C1624 0.950 . S
H1649 C1625 0.949 . S
H1650 C1627 0.950 . S
H1651 C1629 0.950 . S
C1652 C1653 1.349 . S
C1652 C1654 1.327 . S
C1652 H1677 0.950 . S
C1653 C1652 1.349 . S
C1653 C1669 1.349 . S
C1654 C1652 1.327 . S
C1654 C1673 1.429 . S
C1654 H1678 0.950 . S
C1655 C1672 1.574 . S
C1655 C1674 1.368 . S
C1655 H1679 0.949 . S
H1656 C1660 0.949 . S
C1657 C1658 1.349 . S
C1657 C1659 1.327 . S
C1657 H1680 0.909 1_545 S
C1658 C1657 1.349 . S
C1658 C1670 1.349 . S
C1659 C1657 1.327 . S
C1659 C1675 1.429 . S
C1659 H1681 0.945 1_545 S
C1660 H1656 0.949 . S
C1660 C1668 1.574 . S
C1660 C1676 1.368 . S
H1661 C1669 0.950 . S
H1662 C1667 0.950 . S
H1663 C1668 0.949 . S
H1664 C1670 0.950 . S
H1665 C1671 0.950 . S
H1666 C1672 0.979 . S
C1667 H1662 0.950 . S
C1667 C1669 1.327 . S
C1667 C1673 1.429 . S
C1668 C1660 1.574 . S
C1668 H1663 0.949 . S
C1668 C1674 1.368 . S
C1669 C1653 1.349 . S
C1669 H1661 0.950 . S
C1669 C1667 1.327 . S
C1670 C1658 1.349 . S
C1670 H1664 0.950 . S
C1670 C1671 1.327 . S
C1671 H1665 0.950 . S
C1671 C1670 1.327 . S
C1671 C1675 1.429 . S
C1672 C1655 1.574 . S
C1672 H1666 0.979 . S
C1672 C1676 1.368 . S
C1673 C1654 1.429 . S
C1673 C1667 1.429 . S
C1673 C1674 1.523 . S
C1674 C1655 1.368 . S
C1674 C1668 1.368 . S
C1674 C1673 1.523 . S
C1675 C1659 1.429 . S
C1675 C1671 1.429 . S
C1675 C1676 1.523 . S
C1676 C1660 1.368 . S
C1676 C1672 1.368 . S
C1676 C1675 1.523 . S
H1677 C1652 0.950 . S
H1678 C1654 0.950 . S
H1679 C1655 0.949 . S
H1680 C1657 0.909 1_565 S
H1681 C1659 0.945 1_565 S
C1682 C1683 1.349 . S
C1682 C1684 1.327 . S
C1682 H1707 0.950 . S
C1683 C1682 1.349 . S
C1683 C1699 1.349 . S
C1684 C1682 1.327 . S
C1684 C1703 1.429 . S
C1684 H1708 0.950 . S
C1685 C1702 1.574 . S
C1685 C1704 1.368 . S
C1685 H1709 0.949 . S
H1686 C1690 0.949 . S
C1687 C1688 1.349 . S
C1687 C1689 1.327 . S
C1687 H1710 0.950 . S
C1688 C1687 1.349 . S
C1688 C1700 1.349 . S
C1689 C1687 1.327 . S
C1689 C1705 1.429 . S
C1689 H1711 0.950 . S
C1690 H1686 0.949 . S
C1690 C1698 1.574 . S
C1690 C1706 1.368 . S
H1691 C1699 0.950 . S
H1692 C1697 0.950 . S
H1693 C1698 0.949 . S
H1694 C1700 0.950 . S
H1695 C1701 0.950 . S
H1696 C1702 0.949 . S
C1697 H1692 0.950 . S
C1697 C1699 1.327 . S
C1697 C1703 1.429 . S
C1698 C1690 1.574 . S
C1698 H1693 0.949 . S
C1698 C1704 1.368 . S
C1699 C1683 1.349 . S
C1699 H1691 0.950 . S
C1699 C1697 1.327 . S
C1700 C1688 1.349 . S
C1700 H1694 0.950 . S
C1700 C1701 1.327 . S
C1701 H1695 0.950 . S
C1701 C1700 1.327 . S
C1701 C1705 1.429 . S
C1702 C1685 1.574 . S
C1702 H1696 0.949 . S
C1702 C1706 1.368 . S
C1703 C1684 1.429 . S
C1703 C1697 1.429 . S
C1703 C1704 1.523 . S
C1704 C1685 1.368 . S
C1704 C1698 1.368 . S
C1704 C1703 1.523 . S
C1705 C1689 1.429 . S
C1705 C1701 1.429 . S
C1705 C1706 1.523 . S
C1706 C1690 1.368 . S
C1706 C1702 1.368 . S
C1706 C1705 1.523 . S
H1707 C1682 0.950 . S
H1708 C1684 0.950 . S
H1709 C1685 0.949 . S
H1710 C1687 0.950 . S
H1711 C1689 0.950 . S
C1712 C1713 1.349 1_565 S
C1712 C1714 1.327 . S
C1712 H1737 0.950 . S
C1713 C1712 1.349 1_545 S
C1713 C1729 1.349 . S
C1714 C1712 1.327 . S
C1714 C1733 1.429 1_565 S
C1714 H1738 0.950 . S
C1715 C1732 1.574 . S
C1715 C1734 1.368 . S
C1715 H1739 0.949 . S
H1716 C1720 0.949 . S
C1717 C1718 1.349 . S
C1717 C1719 1.327 . S
C1717 H1740 0.950 . S
C1718 C1717 1.349 . S
C1718 C1730 1.349 1_545 S
C1719 C1717 1.327 . S
C1719 C1735 1.429 . S
C1719 H1741 0.950 . S
C1720 H1716 0.949 . S
C1720 C1728 1.574 . S
C1720 C1736 1.368 1_565 S
H1721 C1729 0.950 . S
H1722 C1727 0.950 . S
H1723 C1728 0.949 . S
H1724 C1730 0.950 . S
H1725 C1731 0.950 . S
H1726 C1732 0.949 . S
C1727 H1722 0.950 . S
C1727 C1729 1.327 . S
C1727 C1733 1.429 . S
C1728 C1720 1.574 . S
C1728 H1723 0.949 . S
C1728 C1734 1.368 1_565 S
C1729 C1713 1.349 . S
C1729 H1721 0.950 . S
C1729 C1727 1.327 . S
C1730 C1718 1.349 1_565 S
C1730 H1724 0.950 . S
C1730 C1731 1.327 . S
C1731 H1725 0.950 . S
C1731 C1730 1.327 . S
C1731 C1735 1.429 1_565 S
C1732 C1715 1.574 . S
C1732 H1726 0.949 . S
C1732 C1736 1.368 . S
C1733 C1714 1.429 1_545 S
C1733 C1727 1.429 . S
C1733 C1734 1.523 . S
C1734 C1715 1.368 . S
C1734 C1728 1.368 1_545 S
C1734 C1733 1.523 . S
C1735 C1719 1.429 . S
C1735 C1731 1.429 1_545 S
C1735 C1736 1.523 . S
C1736 C1720 1.368 1_545 S
C1736 C1732 1.368 . S
C1736 C1735 1.523 . S
H1737 C1712 0.950 . S
H1738 C1714 0.950 . S
H1739 C1715 0.949 . S
H1740 C1717 0.950 . S
H1741 C1719 0.950 . S
C1742 C1743 1.349 . S
C1742 C1744 1.327 . S
C1742 H1767 0.950 . S
C1743 C1742 1.349 . S
C1743 C1759 1.349 . S
C1744 C1742 1.327 . S
C1744 C1763 1.429 . S
C1744 H1768 0.950 . S
C1745 C1762 1.574 . S
C1745 C1764 1.368 . S
C1745 H1769 0.949 . S
H1746 C1750 0.949 . S
C1747 C1748 1.349 . S
C1747 C1749 1.327 . S
C1747 H1770 0.950 . S
C1748 C1747 1.349 . S
C1748 C1760 1.349 . S
C1749 C1747 1.327 . S
C1749 C1765 1.429 . S
C1749 H1771 0.950 . S
C1750 H1746 0.949 . S
C1750 C1758 1.574 . S
C1750 C1766 1.368 . S
H1751 C1759 0.950 . S
H1752 C1757 0.950 . S
H1753 C1758 0.949 . S
H1754 C1760 0.950 . S
H1755 C1761 0.950 . S
H1756 C1762 0.949 . S
C1757 H1752 0.950 . S
C1757 C1759 1.327 . S
C1757 C1763 1.429 . S
C1758 C1750 1.574 . S
C1758 H1753 0.949 . S
C1758 C1764 1.368 . S
C1759 C1743 1.349 . S
C1759 H1751 0.950 . S
C1759 C1757 1.327 . S
C1760 C1748 1.349 . S
C1760 H1754 0.950 . S
C1760 C1761 1.327 . S
C1761 H1755 0.950 . S
C1761 C1760 1.327 . S
C1761 C1765 1.429 . S
C1762 C1745 1.574 . S
C1762 H1756 0.949 . S
C1762 C1766 1.368 . S
C1763 C1744 1.429 . S
C1763 C1757 1.429 . S
C1763 C1764 1.523 . S
C1764 C1745 1.368 . S
C1764 C1758 1.368 . S
C1764 C1763 1.523 . S
C1765 C1749 1.429 . S
C1765 C1761 1.429 . S
C1765 C1766 1.523 . S
C1766 C1750 1.368 . S
C1766 C1762 1.368 . S
C1766 C1765 1.523 . S
H1767 C1742 0.950 . S
H1768 C1744 0.950 . S
H1769 C1745 0.949 . S
H1770 C1747 0.950 . S
H1771 C1749 0.950 . S
C1772 C1773 1.349 . S
C1772 C1774 1.327 . S
C1772 H1797 0.950 1_545 S
C1773 C1772 1.349 . S
C1773 C1789 1.349 . S
C1774 C1772 1.327 . S
C1774 C1793 1.429 . S
C1774 H1798 0.950 1_545 S
C1775 C1792 1.574 . S
C1775 C1794 1.368 . S
C1775 H1799 0.949 . S
H1776 C1780 0.949 . S
C1777 C1778 1.349 1_545 S
C1777 C1779 1.327 . S
C1777 H1800 0.950 . S
C1778 C1777 1.349 1_565 S
C1778 C1790 1.349 . S
C1779 C1777 1.327 . S
C1779 C1795 1.429 . S
C1779 H1801 0.950 . S
C1780 H1776 0.949 . S
C1780 C1788 1.574 . S
C1780 C1796 1.368 1_565 S
H1781 C1789 0.950 . S
H1782 C1787 0.950 . S
H1783 C1788 0.949 . S
H1784 C1790 0.950 . S
H1785 C1791 0.950 . S
H1786 C1792 0.949 . S
C1787 H1782 0.950 . S
C1787 C1789 1.327 . S
C1787 C1793 1.429 . S
C1788 C1780 1.574 . S
C1788 H1783 0.949 . S
C1788 C1794 1.368 1_565 S
C1789 C1773 1.349 . S
C1789 H1781 0.950 . S
C1789 C1787 1.327 . S
C1790 C1778 1.349 . S
C1790 H1784 0.950 . S
C1790 C1791 1.327 . S
C1791 H1785 0.950 . S
C1791 C1790 1.327 . S
C1791 C1795 1.429 1_565 S
C1792 C1775 1.574 . S
C1792 H1786 0.949 . S
C1792 C1796 1.368 . S
C1793 C1774 1.429 . S
C1793 C1787 1.429 . S
C1793 C1794 1.523 . S
C1794 C1775 1.368 . S
C1794 C1788 1.368 1_545 S
C1794 C1793 1.523 . S
C1795 C1779 1.429 . S
C1795 C1791 1.429 1_545 S
C1795 C1796 1.523 . S
C1796 C1780 1.368 1_545 S
C1796 C1792 1.368 . S
C1796 C1795 1.523 . S
H1797 C1772 0.950 1_565 S
H1798 C1774 0.950 1_565 S
H1799 C1775 0.949 . S
H1800 C1777 0.950 . S
H1801 C1779 0.950 . S
C1802 C1803 1.349 . S
C1802 C1804 1.327 . S
C1802 H1827 0.950 . S
C1803 C1802 1.349 . S
C1803 C1819 1.349 . S
C1804 C1802 1.327 . S
C1804 C1823 1.429 . S
C1804 H1828 0.950 . S
C1805 C1822 1.574 . S
C1805 C1824 1.368 . S
C1805 H1829 0.949 . S
H1806 C1810 0.949 . S
C1807 C1808 1.349 . S
C1807 C1809 1.327 . S
C1807 H1830 0.950 . S
C1808 C1807 1.349 . S
C1808 C1820 1.349 . S
C1809 C1807 1.327 . S
C1809 C1825 1.429 . S
C1809 H1831 0.950 . S
C1810 H1806 0.949 . S
C1810 C1818 1.574 . S
C1810 C1826 1.368 . S
H1811 C1819 0.950 . S
H1812 C1817 0.950 . S
H1813 C1818 0.949 . S
H1814 C1820 0.950 . S
H1815 C1821 0.950 . S
H1816 C1822 0.949 . S
C1817 H1812 0.950 . S
C1817 C1819 1.327 . S
C1817 C1823 1.429 . S
C1818 C1810 1.574 . S
C1818 H1813 0.949 . S
C1818 C1824 1.368 . S
C1819 C1803 1.349 . S
C1819 H1811 0.950 . S
C1819 C1817 1.327 . S
C1820 C1808 1.349 . S
C1820 H1814 0.950 . S
C1820 C1821 1.327 . S
C1821 H1815 0.950 . S
C1821 C1820 1.327 . S
C1821 C1825 1.429 . S
C1822 C1805 1.574 . S
C1822 H1816 0.949 . S
C1822 C1826 1.368 . S
C1823 C1804 1.429 . S
C1823 C1817 1.429 . S
C1823 C1824 1.523 . S
C1824 C1805 1.368 . S
C1824 C1818 1.368 . S
C1824 C1823 1.523 . S
C1825 C1809 1.429 . S
C1825 C1821 1.429 . S
C1825 C1826 1.523 . S
C1826 C1810 1.368 . S
C1826 C1822 1.368 . S
C1826 C1825 1.523 . S
H1827 C1802 0.950 . S
H1828 C1804 0.950 . S
H1829 C1805 0.949 . S
H1830 C1807 0.950 . S
H1831 C1809 0.950 . S
C1832 C1833 1.349 . S
C1832 C1834 1.327 . S
C1832 H1857 0.950 . S
C1833 C1832 1.349 . S
C1833 C1849 1.349 . S
C1834 C1832 1.327 . S
C1834 C1853 1.429 . S
C1834 H1858 0.950 . S
C1835 C1852 1.574 . S
C1835 C1854 1.368 1_556 S
C1835 H1859 0.949 . S
H1836 C1840 0.949 . S
C1837 C1838 1.349 . S
C1837 C1839 1.327 . S
C1837 H1860 0.950 . S
C1838 C1837 1.349 . S
C1838 C1850 1.349 1_556 S
C1839 C1837 1.327 . S
C1839 C1855 1.429 1_556 S
C1839 H1861 0.950 . S
C1840 H1836 0.949 . S
C1840 C1848 1.574 . S
C1840 C1856 1.368 . S
H1841 C1849 0.950 1_556 S
H1842 C1847 0.950 1_556 S
H1843 C1848 0.949 . S
H1844 C1850 0.950 . S
H1845 C1851 0.950 . S
H1846 C1852 0.949 . S
C1847 H1842 0.950 1_554 S
C1847 C1849 1.327 . S
C1847 C1853 1.429 . S
C1848 C1840 1.574 . S
C1848 H1843 0.949 . S
C1848 C1854 1.368 . S
C1849 C1833 1.349 . S
C1849 H1841 0.950 1_554 S
C1849 C1847 1.327 . S
C1850 C1838 1.349 1_554 S
C1850 H1844 0.950 . S
C1850 C1851 1.327 . S
C1851 H1845 0.950 . S
C1851 C1850 1.327 . S
C1851 C1855 1.429 . S
C1852 C1835 1.574 . S
C1852 H1846 0.949 . S
C1852 C1856 1.368 1_556 S
C1853 C1834 1.429 . S
C1853 C1847 1.429 . S
C1853 C1854 1.523 . S
C1854 C1835 1.368 1_554 S
C1854 C1848 1.368 . S
C1854 C1853 1.523 . S
C1855 C1839 1.429 1_554 S
C1855 C1851 1.429 . S
C1855 C1856 1.523 . S
C1856 C1840 1.368 . S
C1856 C1852 1.368 1_554 S
C1856 C1855 1.523 . S
H1857 C1832 0.950 . S
H1858 C1834 0.950 . S
H1859 C1835 0.949 . S
H1860 C1837 0.950 . S
H1861 C1839 0.950 . S
C1862 C1863 1.349 . S
C1862 C1864 1.327 . S
C1862 H1887 0.950 . S
C1863 C1862 1.349 . S
C1863 C1879 1.349 . S
C1864 C1862 1.327 . S
C1864 C1883 1.429 . S
C1864 H1888 0.950 . S
C1865 C1882 1.574 . S
C1865 C1884 1.368 . S
C1865 H1889 0.949 . S
H1866 C1870 0.949 . S
C1867 C1868 1.349 . S
C1867 C1869 1.327 . S
C1867 H1890 0.949 . S
C1868 C1867 1.349 . S
C1868 C1880 1.349 . S
C1869 C1867 1.327 . S
C1869 C1885 1.429 . S
C1869 H1891 0.950 . S
C1870 H1866 0.949 . S
C1870 C1878 1.574 . S
C1870 C1886 1.368 . S
H1871 C1879 0.950 . S
H1872 C1877 0.950 . S
H1873 C1878 0.949 . S
H1874 C1880 0.950 . S
H1875 C1881 0.950 . S
H1876 C1882 0.949 . S
C1877 H1872 0.950 . S
C1877 C1879 1.327 . S
C1877 C1883 1.429 . S
C1878 C1870 1.574 . S
C1878 H1873 0.949 . S
C1878 C1884 1.368 . S
C1879 C1863 1.349 . S
C1879 H1871 0.950 . S
C1879 C1877 1.327 . S
C1880 C1868 1.349 . S
C1880 H1874 0.950 . S
C1880 C1881 1.327 . S
C1881 H1875 0.950 . S
C1881 C1880 1.327 . S
C1881 C1885 1.429 . S
C1882 C1865 1.574 . S
C1882 H1876 0.949 . S
C1882 C1886 1.368 . S
C1883 C1864 1.429 . S
C1883 C1877 1.429 . S
C1883 C1884 1.523 . S
C1884 C1865 1.368 . S
C1884 C1878 1.368 . S
C1884 C1883 1.523 . S
C1885 C1869 1.429 . S
C1885 C1881 1.429 . S
C1885 C1886 1.523 . S
C1886 C1870 1.368 . S
C1886 C1882 1.368 . S
C1886 C1885 1.523 . S
H1887 C1862 0.950 . S
H1888 C1864 0.950 . S
H1889 C1865 0.949 . S
H1890 C1867 0.949 . S
H1891 C1869 0.950 . S
C1892 C1893 1.349 . S
C1892 C1894 1.327 . S
C1892 H1917 0.950 . S
C1893 C1892 1.349 . S
C1893 C1909 1.349 . S
C1894 C1892 1.327 . S
C1894 C1913 1.429 . S
C1894 H1918 0.950 . S
C1895 C1912 1.574 . S
C1895 C1914 1.368 . S
C1895 H1919 0.949 . S
H1896 C1900 0.949 . S
C1897 C1898 1.349 . S
C1897 C1899 1.327 . S
C1897 H1920 0.950 . S
C1898 C1897 1.349 . S
C1898 C1910 1.349 . S
C1899 C1897 1.327 . S
C1899 C1915 1.429 . S
C1899 H1921 0.950 . S
C1900 H1896 0.949 . S
C1900 C1908 1.574 . S
C1900 C1916 1.368 . S
H1901 C1909 0.950 . S
H1902 C1907 0.950 . S
H1903 C1908 0.949 . S
H1904 C1910 0.950 . S
H1905 C1911 0.950 . S
H1906 C1912 0.949 . S
C1907 H1902 0.950 . S
C1907 C1909 1.327 . S
C1907 C1913 1.429 . S
C1908 C1900 1.574 . S
C1908 H1903 0.949 . S
C1908 C1914 1.368 . S
C1909 C1893 1.349 . S
C1909 H1901 0.950 . S
C1909 C1907 1.327 . S
C1910 C1898 1.349 . S
C1910 H1904 0.950 . S
C1910 C1911 1.327 . S
C1911 H1905 0.950 . S
C1911 C1910 1.327 . S
C1911 C1915 1.429 . S
C1912 C1895 1.574 . S
C1912 H1906 0.949 . S
C1912 C1916 1.368 . S
C1913 C1894 1.429 . S
C1913 C1907 1.429 . S
C1913 C1914 1.523 . S
C1914 C1895 1.368 . S
C1914 C1908 1.368 . S
C1914 C1913 1.523 . S
C1915 C1899 1.429 . S
C1915 C1911 1.429 . S
C1915 C1916 1.523 . S
C1916 C1900 1.368 . S
C1916 C1912 1.368 . S
C1916 C1915 1.523 . S
H1917 C1892 0.950 . S
H1918 C1894 0.950 . S
H1919 C1895 0.949 . S
H1920 C1897 0.950 . S
H1921 C1899 0.950 . S
C1922 C1923 1.349 . S
C1922 C1924 1.327 . S
C1922 H1947 0.950 . S
C1923 C1922 1.349 . S
C1923 C1939 1.349 . S
C1924 C1922 1.327 . S
C1924 C1943 1.429 . S
C1924 H1948 0.950 . S
C1925 C1942 1.574 . S
C1925 C1944 1.368 . S
C1925 H1949 0.949 . S
H1926 C1930 0.949 . S
C1927 C1928 1.349 . S
C1927 C1929 1.327 . S
C1927 H1950 0.950 . S
C1928 C1927 1.349 . S
C1928 C1940 1.349 . S
C1929 C1927 1.327 . S
C1929 C1945 1.429 . S
C1929 H1951 0.950 . S
C1930 H1926 0.949 . S
C1930 C1938 1.574 . S
C1930 C1946 1.368 . S
H1931 C1939 0.950 . S
H1932 C1937 0.950 . S
H1933 C1938 0.949 . S
H1934 C1940 0.950 . S
H1935 C1941 0.950 . S
H1936 C1942 0.949 . S
C1937 H1932 0.950 . S
C1937 C1939 1.327 . S
C1937 C1943 1.429 . S
C1938 C1930 1.574 . S
C1938 H1933 0.949 . S
C1938 C1944 1.368 . S
C1939 C1923 1.349 . S
C1939 H1931 0.950 . S
C1939 C1937 1.327 . S
C1940 C1928 1.349 . S
C1940 H1934 0.950 . S
C1940 C1941 1.327 . S
C1941 H1935 0.950 . S
C1941 C1940 1.327 . S
C1941 C1945 1.429 . S
C1942 C1925 1.574 . S
C1942 H1936 0.949 . S
C1942 C1946 1.368 . S
C1943 C1924 1.429 . S
C1943 C1937 1.429 . S
C1943 C1944 1.523 . S
C1944 C1925 1.368 . S
C1944 C1938 1.368 . S
C1944 C1943 1.523 . S
C1945 C1929 1.429 . S
C1945 C1941 1.429 . S
C1945 C1946 1.523 . S
C1946 C1930 1.368 . S
C1946 C1942 1.368 . S
C1946 C1945 1.523 . S
H1947 C1922 0.950 . S
H1948 C1924 0.950 . S
H1949 C1925 0.949 . S
H1950 C1927 0.950 . S
H1951 C1929 0.950 . S
C1952 C1953 1.349 . S
C1952 C1954 1.327 . S
C1952 H1977 0.950 . S
C1953 C1952 1.349 . S
C1953 C1969 1.349 . S
C1954 C1952 1.327 . S
C1954 C1973 1.429 . S
C1954 H1978 0.950 . S
C1955 C1972 1.574 . S
C1955 C1974 1.368 . S
C1955 H1979 0.949 . S
H1956 C1960 0.949 . S
C1957 C1958 1.349 . S
C1957 C1959 1.327 . S
C1957 H1980 0.950 . S
C1958 C1957 1.349 . S
C1958 C1970 1.349 . S
C1959 C1957 1.327 . S
C1959 C1975 1.429 . S
C1959 H1981 0.950 . S
C1960 H1956 0.949 . S
C1960 C1968 1.574 . S
C1960 C1976 1.368 . S
H1961 C1969 0.950 . S
H1962 C1967 0.950 . S
H1963 C1968 0.949 . S
H1964 C1970 0.950 . S
H1965 C1971 0.950 . S
H1966 C1972 0.949 . S
C1967 H1962 0.950 . S
C1967 C1969 1.327 . S
C1967 C1973 1.429 . S
C1968 C1960 1.574 . S
C1968 H1963 0.949 . S
C1968 C1974 1.368 . S
C1969 C1953 1.349 . S
C1969 H1961 0.950 . S
C1969 C1967 1.327 . S
C1970 C1958 1.349 . S
C1970 H1964 0.950 . S
C1970 C1971 1.327 . S
C1971 H1965 0.950 . S
C1971 C1970 1.327 . S
C1971 C1975 1.429 . S
C1972 C1955 1.574 . S
C1972 H1966 0.949 . S
C1972 C1976 1.368 . S
C1973 C1954 1.429 . S
C1973 C1967 1.429 . S
C1973 C1974 1.523 . S
C1974 C1955 1.368 . S
C1974 C1968 1.368 . S
C1974 C1973 1.523 . S
C1975 C1959 1.429 . S
C1975 C1971 1.429 . S
C1975 C1976 1.523 . S
C1976 C1960 1.368 . S
C1976 C1972 1.368 . S
C1976 C1975 1.523 . S
H1977 C1952 0.950 . S
H1978 C1954 0.950 . S
H1979 C1955 0.949 . S
H1980 C1957 0.950 . S
H1981 C1959 0.950 . S
C1982 C1983 1.349 . S
C1982 C1984 1.327 . S
C1982 H2007 0.950 . S
C1983 C1982 1.349 . S
C1983 C1999 1.349 . S
C1984 C1982 1.327 . S
C1984 C2003 1.429 . S
C1984 H2008 0.950 . S
C1985 C2002 1.574 . S
C1985 C2004 1.368 . S
C1985 H2009 0.949 . S
H1986 C1990 0.949 . S
C1987 C1988 1.349 . S
C1987 C1989 1.327 . S
C1987 H2010 0.950 . S
C1988 C1987 1.349 . S
C1988 C2000 1.349 . S
C1989 C1987 1.327 . S
C1989 C2005 1.429 . S
C1989 H2011 0.950 . S
C1990 H1986 0.949 . S
C1990 C1998 1.574 . S
C1990 C2006 1.368 . S
H1991 C1999 0.950 . S
H1992 C1997 0.950 . S
H1993 C1998 0.949 . S
H1994 C2000 0.950 1_545 S
H1995 C2001 0.950 . S
H1996 C2002 0.949 . S
C1997 H1992 0.950 . S
C1997 C1999 1.327 . S
C1997 C2003 1.429 . S
C1998 C1990 1.574 . S
C1998 H1993 0.949 . S
C1998 C2004 1.368 . S
C1999 C1983 1.349 . S
C1999 H1991 0.950 . S
C1999 C1997 1.327 . S
C2000 C1988 1.349 . S
C2000 H1994 0.950 1_565 S
C2000 C2001 1.327 . S
C2001 H1995 0.950 . S
C2001 C2000 1.327 . S
C2001 C2005 1.429 . S
C2002 C1985 1.574 . S
C2002 H1996 0.949 . S
C2002 C2006 1.368 . S
C2003 C1984 1.429 . S
C2003 C1997 1.429 . S
C2003 C2004 1.523 . S
C2004 C1985 1.368 . S
C2004 C1998 1.368 . S
C2004 C2003 1.523 . S
C2005 C1989 1.429 . S
C2005 C2001 1.429 . S
C2005 C2006 1.523 . S
C2006 C1990 1.368 . S
C2006 C2002 1.368 . S
C2006 C2005 1.523 . S
H2007 C1982 0.950 . S
H2008 C1984 0.950 . S
H2009 C1985 0.949 . S
H2010 C1987 0.950 . S
H2011 C1989 0.950 . S
C2012 C2013 1.349 . S
C2012 C2014 1.327 . S
C2012 H2037 0.950 . S
C2013 C2012 1.349 . S
C2013 C2029 1.349 . S
C2014 C2012 1.327 . S
C2014 C2033 1.429 . S
C2014 H2038 0.950 . S
C2015 C2032 1.574 . S
C2015 C2034 1.368 . S
C2015 H2039 0.949 . S
H2016 C2020 0.949 . S
C2017 C2018 1.349 . S
C2017 C2019 1.327 . S
C2017 H2040 0.950 . S
C2018 C2017 1.349 . S
C2018 C2030 1.349 . S
C2019 C2017 1.327 . S
C2019 C2035 1.429 . S
C2019 H2041 0.950 . S
C2020 H2016 0.949 . S
C2020 C2028 1.574 . S
C2020 C2036 1.368 . S
H2021 C2029 0.950 . S
H2022 C2027 0.950 . S
H2023 C2028 0.949 . S
H2024 C2030 0.950 . S
H2025 C2031 0.950 . S
H2026 C2032 0.949 . S
C2027 H2022 0.950 . S
C2027 C2029 1.327 . S
C2027 C2033 1.429 . S
C2028 C2020 1.574 . S
C2028 H2023 0.949 . S
C2028 C2034 1.368 . S
C2029 C2013 1.349 . S
C2029 H2021 0.950 . S
C2029 C2027 1.327 . S
C2030 C2018 1.349 . S
C2030 H2024 0.950 . S
C2030 C2031 1.327 . S
C2031 H2025 0.950 . S
C2031 C2030 1.327 . S
C2031 C2035 1.429 . S
C2032 C2015 1.574 . S
C2032 H2026 0.949 . S
C2032 C2036 1.368 . S
C2033 C2014 1.429 . S
C2033 C2027 1.429 . S
C2033 C2034 1.523 . S
C2034 C2015 1.368 . S
C2034 C2028 1.368 . S
C2034 C2033 1.523 . S
C2035 C2019 1.429 . S
C2035 C2031 1.429 . S
C2035 C2036 1.523 . S
C2036 C2020 1.368 . S
C2036 C2032 1.368 . S
C2036 C2035 1.523 . S
H2037 C2012 0.950 . S
H2038 C2014 0.950 . S
H2039 C2015 0.949 . S
H2040 C2017 0.950 . S
H2041 C2019 0.950 . S
C2042 C2043 1.349 . S
C2042 C2044 1.327 . S
C2042 H2067 0.950 . S
C2043 C2042 1.349 . S
C2043 C2059 1.349 . S
C2044 C2042 1.327 . S
C2044 C2063 1.429 . S
C2044 H2068 0.950 . S
C2045 C2062 1.574 . S
C2045 C2064 1.368 . S
C2045 H2069 0.949 . S
H2046 C2050 0.949 . S
C2047 C2048 1.349 . S
C2047 C2049 1.327 . S
C2047 H2070 0.950 . S
C2048 C2047 1.349 . S
C2048 C2060 1.349 . S
C2049 C2047 1.327 . S
C2049 C2065 1.429 . S
C2049 H2071 0.950 . S
C2050 H2046 0.949 . S
C2050 C2058 1.574 . S
C2050 C2066 1.368 . S
H2051 C2059 0.950 . S
H2052 C2057 0.950 . S
H2053 C2058 0.949 . S
H2054 C2060 0.950 . S
H2055 C2061 0.950 . S
H2056 C2062 0.949 . S
C2057 H2052 0.950 . S
C2057 C2059 1.327 . S
C2057 C2063 1.429 . S
C2058 C2050 1.574 . S
C2058 H2053 0.949 . S
C2058 C2064 1.368 . S
C2059 C2043 1.349 . S
C2059 H2051 0.950 . S
C2059 C2057 1.327 . S
C2060 C2048 1.349 . S
C2060 H2054 0.950 . S
C2060 C2061 1.327 . S
C2061 H2055 0.950 . S
C2061 C2060 1.327 . S
C2061 C2065 1.429 . S
C2062 C2045 1.574 . S
C2062 H2056 0.949 . S
C2062 C2066 1.368 . S
C2063 C2044 1.429 . S
C2063 C2057 1.429 . S
C2063 C2064 1.523 . S
C2064 C2045 1.368 . S
C2064 C2058 1.368 . S
C2064 C2063 1.523 . S
C2065 C2049 1.429 . S
C2065 C2061 1.429 . S
C2065 C2066 1.523 . S
C2066 C2050 1.368 . S
C2066 C2062 1.368 . S
C2066 C2065 1.523 . S
H2067 C2042 0.950 . S
H2068 C2044 0.950 . S
H2069 C2045 0.949 . S
H2070 C2047 0.950 . S
H2071 C2049 0.950 . S
C2072 C2073 1.349 . S
C2072 C2074 1.327 . S
C2072 H2097 0.950 . S
C2073 C2072 1.349 . S
C2073 C2089 1.349 . S
C2074 C2072 1.327 . S
C2074 C2093 1.429 . S
C2074 H2098 0.950 . S
C2075 C2092 1.574 . S
C2075 C2094 1.368 . S
C2075 H2099 0.949 . S
H2076 C2080 0.949 . S
C2077 C2078 1.349 . S
C2077 C2079 1.327 . S
C2077 H2100 0.950 . S
C2078 C2077 1.349 . S
C2078 C2090 1.349 . S
C2079 C2077 1.327 . S
C2079 C2095 1.429 . S
C2079 H2101 0.950 . S
C2080 H2076 0.949 . S
C2080 C2088 1.574 . S
C2080 C2096 1.368 . S
H2081 C2089 0.950 . S
H2082 C2087 0.950 . S
H2083 C2088 0.949 . S
H2084 C2090 0.950 . S
H2085 C2091 0.950 . S
H2086 C2092 0.949 . S
C2087 H2082 0.950 . S
C2087 C2089 1.327 . S
C2087 C2093 1.429 . S
C2088 C2080 1.574 . S
C2088 H2083 0.949 . S
C2088 C2094 1.368 . S
C2089 C2073 1.349 . S
C2089 H2081 0.950 . S
C2089 C2087 1.327 . S
C2090 C2078 1.349 . S
C2090 H2084 0.950 . S
C2090 C2091 1.327 . S
C2091 H2085 0.950 . S
C2091 C2090 1.327 . S
C2091 C2095 1.429 . S
C2092 C2075 1.574 . S
C2092 H2086 0.949 . S
C2092 C2096 1.368 . S
C2093 C2074 1.429 . S
C2093 C2087 1.429 . S
C2093 C2094 1.523 . S
C2094 C2075 1.368 . S
C2094 C2088 1.368 . S
C2094 C2093 1.523 . S
C2095 C2079 1.429 . S
C2095 C2091 1.429 . S
C2095 C2096 1.523 . S
C2096 C2080 1.368 . S
C2096 C2092 1.368 . S
C2096 C2095 1.523 . S
H2097 C2072 0.950 . S
H2098 C2074 0.950 . S
H2099 C2075 0.949 . S
H2100 C2077 0.950 . S
H2101 C2079 0.950 . S
C2102 C2103 1.349 . S
C2102 C2104 1.327 . S
C2102 H2127 0.950 . S
C2103 C2102 1.349 . S
C2103 C2119 1.349 . S
C2104 C2102 1.327 . S
C2104 C2123 1.429 . S
C2104 H2128 0.950 . S
C2105 C2122 1.574 . S
C2105 C2124 1.368 . S
C2105 H2129 0.949 . S
H2106 C2110 0.949 . S
C2107 C2108 1.349 . S
C2107 C2109 1.327 . S
C2107 H2130 0.950 . S
C2108 C2107 1.349 . S
C2108 C2120 1.349 . S
C2109 C2107 1.327 . S
C2109 C2125 1.429 . S
C2109 H2131 0.950 . S
C2110 H2106 0.949 . S
C2110 C2118 1.574 . S
C2110 C2126 1.368 . S
H2111 C2119 0.950 . S
H2112 C2117 0.950 . S
H2113 C2118 0.949 . S
H2114 C2120 0.950 . S
H2115 C2121 0.950 . S
H2116 C2122 0.949 . S
C2117 H2112 0.950 . S
C2117 C2119 1.327 . S
C2117 C2123 1.429 . S
C2118 C2110 1.574 . S
C2118 H2113 0.949 . S
C2118 C2124 1.368 . S
C2119 C2103 1.349 . S
C2119 H2111 0.950 . S
C2119 C2117 1.327 . S
C2120 C2108 1.349 . S
C2120 H2114 0.950 . S
C2120 C2121 1.327 . S
C2121 H2115 0.950 . S
C2121 C2120 1.327 . S
C2121 C2125 1.429 . S
C2122 C2105 1.574 . S
C2122 H2116 0.949 . S
C2122 C2126 1.368 . S
C2123 C2104 1.429 . S
C2123 C2117 1.429 . S
C2123 C2124 1.523 . S
C2124 C2105 1.368 . S
C2124 C2118 1.368 . S
C2124 C2123 1.523 . S
C2125 C2109 1.429 . S
C2125 C2121 1.429 . S
C2125 C2126 1.523 . S
C2126 C2110 1.368 . S
C2126 C2122 1.368 . S
C2126 C2125 1.523 . S
H2127 C2102 0.950 . S
H2128 C2104 0.950 . S
H2129 C2105 0.949 . S
H2130 C2107 0.950 . S
H2131 C2109 0.950 . S
C2132 C2133 1.349 . S
C2132 C2134 1.327 . S
C2132 H2157 0.950 . S
C2133 C2132 1.349 . S
C2133 C2149 1.349 . S
C2134 C2132 1.327 . S
C2134 C2153 1.429 . S
C2134 H2158 0.950 . S
C2135 C2152 1.574 . S
C2135 C2154 1.368 . S
C2135 H2159 0.949 . S
H2136 C2140 0.949 . S
C2137 C2138 1.349 . S
C2137 C2139 1.327 . S
C2137 H2160 0.950 . S
C2138 C2137 1.349 . S
C2138 C2150 1.349 1_556 S
C2139 C2137 1.327 . S
C2139 C2155 1.429 . S
C2139 H2161 0.950 . S
C2140 H2136 0.949 . S
C2140 C2148 1.574 . S
C2140 C2156 1.368 . S
H2141 C2149 0.950 . S
H2142 C2147 0.950 . S
H2143 C2148 0.949 . S
H2144 C2150 0.950 . S
H2145 C2151 0.950 1_554 S
H2146 C2152 0.949 . S
C2147 H2142 0.950 . S
C2147 C2149 1.327 . S
C2147 C2153 1.429 . S
C2148 C2140 1.574 . S
C2148 H2143 0.949 . S
C2148 C2154 1.368 . S
C2149 C2133 1.349 . S
C2149 H2141 0.950 . S
C2149 C2147 1.327 . S
C2150 C2138 1.349 1_554 S
C2150 H2144 0.950 . S
C2150 C2151 1.327 1_554 S
C2151 H2145 0.950 1_556 S
C2151 C2150 1.327 1_556 S
C2151 C2155 1.429 . S
C2152 C2135 1.574 . S
C2152 H2146 0.949 . S
C2152 C2156 1.368 . S
C2153 C2134 1.429 . S
C2153 C2147 1.429 . S
C2153 C2154 1.523 . S
C2154 C2135 1.368 . S
C2154 C2148 1.368 . S
C2154 C2153 1.523 . S
C2155 C2139 1.429 . S
C2155 C2151 1.429 . S
C2155 C2156 1.523 . S
C2156 C2140 1.368 . S
C2156 C2152 1.368 . S
C2156 C2155 1.523 . S
H2157 C2132 0.950 . S
H2158 C2134 0.950 . S
H2159 C2135 0.949 . S
H2160 C2137 0.950 . S
H2161 C2139 0.950 . S
C2162 C2163 1.349 . S
C2162 C2164 1.327 . S
C2162 H2187 0.950 . S
C2163 C2162 1.349 . S
C2163 C2179 1.349 . S
C2164 C2162 1.327 . S
C2164 C2183 1.429 . S
C2164 H2188 0.950 . S
C2165 C2182 1.574 . S
C2165 C2184 1.368 . S
C2165 H2189 0.949 . S
H2166 C2170 0.949 . S
C2167 C2168 1.349 . S
C2167 C2169 1.327 . S
C2167 H2190 0.950 . S
C2168 C2167 1.349 . S
C2168 C2180 1.349 . S
C2169 C2167 1.327 . S
C2169 C2185 1.429 . S
C2169 H2191 0.950 . S
C2170 H2166 0.949 . S
C2170 C2178 1.574 . S
C2170 C2186 1.368 . S
H2171 C2179 0.950 . S
H2172 C2177 0.950 . S
H2173 C2178 0.949 . S
H2174 C2180 0.950 . S
H2175 C2181 0.950 . S
H2176 C2182 0.949 . S
C2177 H2172 0.950 . S
C2177 C2179 1.327 . S
C2177 C2183 1.429 . S
C2178 C2170 1.574 . S
C2178 H2173 0.949 . S
C2178 C2184 1.368 . S
C2179 C2163 1.349 . S
C2179 H2171 0.950 . S
C2179 C2177 1.327 . S
C2180 C2168 1.349 . S
C2180 H2174 0.950 . S
C2180 C2181 1.327 . S
C2181 H2175 0.950 . S
C2181 C2180 1.327 . S
C2181 C2185 1.429 . S
C2182 C2165 1.574 . S
C2182 H2176 0.949 . S
C2182 C2186 1.368 . S
C2183 C2164 1.429 . S
C2183 C2177 1.429 . S
C2183 C2184 1.523 . S
C2184 C2165 1.368 . S
C2184 C2178 1.368 . S
C2184 C2183 1.523 . S
C2185 C2169 1.429 . S
C2185 C2181 1.429 . S
C2185 C2186 1.523 . S
C2186 C2170 1.368 . S
C2186 C2182 1.368 . S
C2186 C2185 1.523 . S
H2187 C2162 0.950 . S
H2188 C2164 0.950 . S
H2189 C2165 0.949 . S
H2190 C2167 0.950 . S
H2191 C2169 0.950 . S
C2192 C2193 1.349 . S
C2192 C2194 1.327 . S
C2192 H2217 0.950 . S
C2193 C2192 1.349 . S
C2193 C2209 1.349 . S
C2194 C2192 1.327 . S
C2194 C2213 1.429 . S
C2194 H2218 0.950 . S
C2195 C2212 1.574 . S
C2195 C2214 1.368 . S
C2195 H2219 0.949 . S
H2196 C2200 0.949 . S
C2197 C2198 1.349 . S
C2197 C2199 1.327 . S
C2197 H2220 0.950 . S
C2198 C2197 1.349 . S
C2198 C2210 1.349 . S
C2199 C2197 1.327 . S
C2199 C2215 1.429 . S
C2199 H2221 0.950 . S
C2200 H2196 0.949 . S
C2200 C2208 1.574 . S
C2200 C2216 1.368 . S
H2201 C2209 0.950 . S
H2202 C2207 0.950 . S
H2203 C2208 0.949 . S
H2204 C2210 0.950 . S
H2205 C2211 0.950 . S
H2206 C2212 0.949 . S
C2207 H2202 0.950 . S
C2207 C2209 1.327 . S
C2207 C2213 1.429 . S
C2208 C2200 1.574 . S
C2208 H2203 0.949 . S
C2208 C2214 1.368 . S
C2209 C2193 1.349 . S
C2209 H2201 0.950 . S
C2209 C2207 1.327 . S
C2210 C2198 1.349 . S
C2210 H2204 0.950 . S
C2210 C2211 1.327 . S
C2211 H2205 0.950 . S
C2211 C2210 1.327 . S
C2211 C2215 1.429 . S
C2212 C2195 1.574 . S
C2212 H2206 0.949 . S
C2212 C2216 1.368 . S
C2213 C2194 1.429 . S
C2213 C2207 1.429 . S
C2213 C2214 1.523 . S
C2214 C2195 1.368 . S
C2214 C2208 1.368 . S
C2214 C2213 1.523 . S
C2215 C2199 1.429 . S
C2215 C2211 1.429 . S
C2215 C2216 1.523 . S
C2216 C2200 1.368 . S
C2216 C2212 1.368 . S
C2216 C2215 1.523 . S
H2217 C2192 0.950 . S
H2218 C2194 0.950 . S
H2219 C2195 0.949 . S
H2220 C2197 0.950 . S
H2221 C2199 0.950 . S
C2222 C2223 1.349 . S
C2222 C2224 1.327 . S
C2222 H2247 0.950 . S
C2223 C2222 1.349 . S
C2223 C2239 1.349 . S
C2224 C2222 1.327 . S
C2224 C2243 1.429 . S
C2224 H2248 0.950 . S
C2225 C2242 1.574 . S
C2225 C2244 1.368 . S
C2225 H2249 0.949 . S
H2226 C2230 0.949 . S
C2227 C2228 1.349 . S
C2227 C2229 1.327 . S
C2227 H2250 0.950 . S
C2228 C2227 1.349 . S
C2228 C2240 1.349 . S
C2229 C2227 1.327 . S
C2229 C2245 1.429 . S
C2229 H2251 0.950 . S
C2230 H2226 0.949 . S
C2230 C2238 1.574 . S
C2230 C2246 1.368 . S
H2231 C2239 0.950 . S
H2232 C2237 0.950 . S
H2233 C2238 0.949 . S
H2234 C2240 0.950 . S
H2235 C2241 0.950 . S
H2236 C2242 0.949 . S
C2237 H2232 0.950 . S
C2237 C2239 1.327 . S
C2237 C2243 1.429 . S
C2238 C2230 1.574 . S
C2238 H2233 0.949 . S
C2238 C2244 1.368 . S
C2239 C2223 1.349 . S
C2239 H2231 0.950 . S
C2239 C2237 1.327 . S
C2240 C2228 1.349 . S
C2240 H2234 0.950 . S
C2240 C2241 1.327 . S
C2241 H2235 0.950 . S
C2241 C2240 1.327 . S
C2241 C2245 1.429 . S
C2242 C2225 1.574 . S
C2242 H2236 0.949 . S
C2242 C2246 1.368 . S
C2243 C2224 1.429 . S
C2243 C2237 1.429 . S
C2243 C2244 1.523 . S
C2244 C2225 1.368 . S
C2244 C2238 1.368 . S
C2244 C2243 1.523 . S
C2245 C2229 1.429 . S
C2245 C2241 1.429 . S
C2245 C2246 1.523 . S
C2246 C2230 1.368 . S
C2246 C2242 1.368 . S
C2246 C2245 1.523 . S
H2247 C2222 0.950 . S
H2248 C2224 0.950 . S
H2249 C2225 0.949 . S
H2250 C2227 0.950 . S
H2251 C2229 0.950 . S
C2252 C2253 1.349 . S
C2252 C2254 1.327 . S
C2252 H2277 0.950 . S
C2253 C2252 1.349 . S
C2253 C2269 1.349 1_455 S
C2254 C2252 1.327 . S
C2254 C2273 1.429 . S
C2254 H2278 0.950 . S
C2255 C2272 1.574 . S
C2255 C2274 1.368 1_655 S
C2255 H2279 0.949 . S
H2256 C2260 0.949 . S
C2257 C2258 1.374 . S
C2257 C2259 1.317 1_455 S
C2257 H2280 0.938 1_455 S
C2258 C2257 1.374 . S
C2258 C2270 1.349 . S
C2259 C2257 1.317 1_655 S
C2259 C2275 1.429 1_655 S
C2259 H2281 0.948 . S
C2260 H2256 0.949 . S
C2260 C2268 1.574 . S
C2260 C2276 1.368 . S
H2261 C2269 0.950 . S
H2262 C2267 0.950 . S
H2263 C2268 0.949 . S
H2264 C2270 0.950 . S
H2265 C2271 0.950 . S
H2266 C2272 0.949 . S
C2267 H2262 0.950 . S
C2267 C2269 1.327 . S
C2267 C2273 1.429 1_655 S
C2268 C2260 1.574 . S
C2268 H2263 0.949 . S
C2268 C2274 1.368 . S
C2269 C2253 1.349 1_655 S
C2269 H2261 0.950 . S
C2269 C2267 1.327 . S
C2270 C2258 1.349 . S
C2270 H2264 0.950 . S
C2270 C2271 1.327 . S
C2271 H2265 0.950 . S
C2271 C2270 1.327 . S
C2271 C2275 1.429 . S
C2272 C2255 1.574 . S
C2272 H2266 0.949 . S
C2272 C2276 1.368 1_655 S
C2273 C2254 1.429 . S
C2273 C2267 1.429 1_455 S
C2273 C2274 1.523 . S
C2274 C2255 1.368 1_455 S
C2274 C2268 1.368 . S
C2274 C2273 1.523 . S
C2275 C2259 1.429 1_455 S
C2275 C2271 1.429 . S
C2275 C2276 1.523 . S
C2276 C2260 1.368 . S
C2276 C2272 1.368 1_455 S
C2276 C2275 1.523 . S
H2277 C2252 0.950 . S
H2278 C2254 0.950 . S
H2279 C2255 0.949 . S
H2280 C2257 0.938 1_655 S
H2281 C2259 0.948 . S
C2282 C2283 1.349 . S
C2282 C2284 1.327 . S
C2282 H2307 0.950 . S
C2283 C2282 1.349 . S
C2283 C2299 1.349 . S
C2284 C2282 1.327 . S
C2284 C2303 1.429 . S
C2284 H2308 0.950 . S
C2285 C2302 1.574 . S
C2285 C2304 1.368 . S
C2285 H2309 0.949 . S
H2286 C2290 0.949 . S
C2287 C2288 1.349 . S
C2287 C2289 1.327 . S
C2287 H2310 0.950 . S
C2288 C2287 1.349 . S
C2288 C2300 1.349 . S
C2289 C2287 1.327 . S
C2289 C2305 1.429 . S
C2289 H2311 0.950 . S
C2290 H2286 0.949 . S
C2290 C2298 1.574 . S
C2290 C2306 1.368 . S
H2291 C2299 0.950 . S
H2292 C2297 0.950 . S
H2293 C2298 0.949 . S
H2294 C2300 0.950 . S
H2295 C2301 0.950 . S
H2296 C2302 0.949 . S
C2297 H2292 0.950 . S
C2297 C2299 1.327 . S
C2297 C2303 1.429 . S
C2298 C2290 1.574 . S
C2298 H2293 0.949 . S
C2298 C2304 1.368 . S
C2299 C2283 1.349 . S
C2299 H2291 0.950 . S
C2299 C2297 1.327 . S
C2300 C2288 1.349 . S
C2300 H2294 0.950 . S
C2300 C2301 1.327 . S
C2301 H2295 0.950 . S
C2301 C2300 1.327 . S
C2301 C2305 1.429 . S
C2302 C2285 1.574 . S
C2302 H2296 0.949 . S
C2302 C2306 1.368 . S
C2303 C2284 1.429 . S
C2303 C2297 1.429 . S
C2303 C2304 1.523 . S
C2304 C2285 1.368 . S
C2304 C2298 1.368 . S
C2304 C2303 1.523 . S
C2305 C2289 1.429 . S
C2305 C2301 1.429 . S
C2305 C2306 1.523 . S
C2306 C2290 1.368 . S
C2306 C2302 1.368 . S
C2306 C2305 1.523 . S
H2307 C2282 0.950 . S
H2308 C2284 0.950 . S
H2309 C2285 0.949 . S
H2310 C2287 0.950 . S
H2311 C2289 0.950 . S
C2312 C2313 1.349 . S
C2312 C2314 1.327 . S
C2312 H2337 0.950 . S
C2313 C2312 1.349 . S
C2313 C2329 1.349 . S
C2314 C2312 1.327 . S
C2314 C2333 1.429 . S
C2314 H2338 0.950 . S
C2315 C2332 1.574 . S
C2315 C2334 1.368 . S
C2315 H2339 0.949 . S
H2316 C2320 0.949 . S
C2317 C2318 1.349 . S
C2317 C2319 1.327 . S
C2317 H2340 0.950 . S
C2318 C2317 1.349 . S
C2318 C2330 1.349 . S
C2319 C2317 1.327 . S
C2319 C2335 1.429 . S
C2319 H2341 0.950 . S
C2320 H2316 0.949 . S
C2320 C2328 1.574 . S
C2320 C2336 1.368 . S
H2321 C2329 0.950 . S
H2322 C2327 0.950 . S
H2323 C2328 0.949 . S
H2324 C2330 0.950 . S
H2325 C2331 0.950 . S
H2326 C2332 0.949 . S
C2327 H2322 0.950 . S
C2327 C2329 1.327 . S
C2327 C2333 1.429 . S
C2328 C2320 1.574 . S
C2328 H2323 0.949 . S
C2328 C2334 1.368 . S
C2329 C2313 1.349 . S
C2329 H2321 0.950 . S
C2329 C2327 1.327 . S
C2330 C2318 1.349 . S
C2330 H2324 0.950 . S
C2330 C2331 1.327 . S
C2331 H2325 0.950 . S
C2331 C2330 1.327 . S
C2331 C2335 1.429 . S
C2332 C2315 1.574 . S
C2332 H2326 0.949 . S
C2332 C2336 1.368 . S
C2333 C2314 1.429 . S
C2333 C2327 1.429 . S
C2333 C2334 1.523 . S
C2334 C2315 1.368 . S
C2334 C2328 1.368 . S
C2334 C2333 1.523 . S
C2335 C2319 1.429 . S
C2335 C2331 1.429 . S
C2335 C2336 1.523 . S
C2336 C2320 1.368 . S
C2336 C2332 1.368 . S
C2336 C2335 1.523 . S
H2337 C2312 0.950 . S
H2338 C2314 0.950 . S
H2339 C2315 0.949 . S
H2340 C2317 0.950 . S
H2341 C2319 0.950 . S
C2342 C2343 1.349 . S
C2342 C2344 1.327 . S
C2342 H2367 0.950 . S
C2343 C2342 1.349 . S
C2343 C2359 1.349 . S
C2344 C2342 1.327 . S
C2344 C2363 1.429 . S
C2344 H2368 0.950 . S
C2345 C2362 1.574 . S
C2345 C2364 1.368 . S
C2345 H2369 0.949 . S
H2346 C2350 0.949 . S
C2347 C2348 1.349 . S
C2347 C2349 1.327 . S
C2347 H2370 0.950 . S
C2348 C2347 1.349 . S
C2348 C2360 1.349 . S
C2349 C2347 1.327 . S
C2349 C2365 1.429 . S
C2349 H2371 0.950 . S
C2350 H2346 0.949 . S
C2350 C2358 1.574 . S
C2350 C2366 1.368 . S
H2351 C2359 0.950 . S
H2352 C2357 0.950 . S
H2353 C2358 0.949 . S
H2354 C2360 0.950 . S
H2355 C2361 0.950 . S
H2356 C2362 0.949 . S
C2357 H2352 0.950 . S
C2357 C2359 1.327 . S
C2357 C2363 1.429 . S
C2358 C2350 1.574 . S
C2358 H2353 0.949 . S
C2358 C2364 1.368 . S
C2359 C2343 1.349 . S
C2359 H2351 0.950 . S
C2359 C2357 1.327 . S
C2360 C2348 1.349 . S
C2360 H2354 0.950 . S
C2360 C2361 1.327 . S
C2361 H2355 0.950 . S
C2361 C2360 1.327 . S
C2361 C2365 1.429 . S
C2362 C2345 1.574 . S
C2362 H2356 0.949 . S
C2362 C2366 1.368 . S
C2363 C2344 1.429 . S
C2363 C2357 1.429 . S
C2363 C2364 1.523 . S
C2364 C2345 1.368 . S
C2364 C2358 1.368 . S
C2364 C2363 1.523 . S
C2365 C2349 1.429 . S
C2365 C2361 1.429 . S
C2365 C2366 1.523 . S
C2366 C2350 1.368 . S
C2366 C2362 1.368 . S
C2366 C2365 1.523 . S
H2367 C2342 0.950 . S
H2368 C2344 0.950 . S
H2369 C2345 0.949 . S
H2370 C2347 0.950 . S
H2371 C2349 0.950 . S
C2372 C2373 1.349 . S
C2372 C2374 1.327 . S
C2372 H2397 0.950 . S
C2373 C2372 1.349 . S
C2373 C2389 1.349 . S
C2374 C2372 1.327 . S
C2374 C2393 1.429 . S
C2374 H2398 0.950 . S
C2375 C2392 1.574 . S
C2375 C2394 1.368 . S
C2375 H2399 0.949 . S
H2376 C2380 0.949 . S
C2377 C2378 1.349 . S
C2377 C2379 1.327 . S
C2377 H2400 0.950 . S
C2378 C2377 1.349 . S
C2378 C2390 1.349 . S
C2379 C2377 1.327 . S
C2379 C2395 1.429 . S
C2379 H2401 0.950 . S
C2380 H2376 0.949 . S
C2380 C2388 1.574 . S
C2380 C2396 1.368 . S
H2381 C2389 0.950 . S
H2382 C2387 0.950 . S
H2383 C2388 0.949 . S
H2384 C2390 0.950 . S
H2385 C2391 0.950 . S
H2386 C2392 0.949 . S
C2387 H2382 0.950 . S
C2387 C2389 1.327 . S
C2387 C2393 1.429 . S
C2388 C2380 1.574 . S
C2388 H2383 0.949 . S
C2388 C2394 1.368 . S
C2389 C2373 1.349 . S
C2389 H2381 0.950 . S
C2389 C2387 1.327 . S
C2390 C2378 1.349 . S
C2390 H2384 0.950 . S
C2390 C2391 1.327 . S
C2391 H2385 0.950 . S
C2391 C2390 1.327 . S
C2391 C2395 1.429 . S
C2392 C2375 1.574 . S
C2392 H2386 0.949 . S
C2392 C2396 1.368 . S
C2393 C2374 1.429 . S
C2393 C2387 1.429 . S
C2393 C2394 1.523 . S
C2394 C2375 1.368 . S
C2394 C2388 1.368 . S
C2394 C2393 1.523 . S
C2395 C2379 1.429 . S
C2395 C2391 1.429 . S
C2395 C2396 1.523 . S
C2396 C2380 1.368 . S
C2396 C2392 1.368 . S
C2396 C2395 1.523 . S
H2397 C2372 0.950 . S
H2398 C2374 0.950 . S
H2399 C2375 0.949 . S
H2400 C2377 0.950 . S
H2401 C2379 0.950 . S
C2402 C2403 1.349 . S
C2402 C2404 1.327 . S
C2402 H2427 0.950 . S
C2403 C2402 1.349 . S
C2403 C2419 1.349 . S
C2404 C2402 1.327 . S
C2404 C2423 1.429 . S
C2404 H2428 0.950 . S
C2405 C2422 1.574 . S
C2405 C2424 1.368 . S
C2405 H2429 0.949 . S
H2406 C2410 0.949 . S
C2407 C2408 1.349 . S
C2407 C2409 1.327 . S
C2407 H2430 0.950 . S
C2408 C2407 1.349 . S
C2408 C2420 1.349 . S
C2409 C2407 1.327 . S
C2409 C2425 1.429 . S
C2409 H2431 0.950 . S
C2410 H2406 0.949 . S
C2410 C2418 1.574 . S
C2410 C2426 1.368 . S
H2411 C2419 0.950 . S
H2412 C2417 0.950 . S
H2413 C2418 0.949 . S
H2414 C2420 0.950 . S
H2415 C2421 0.950 . S
H2416 C2422 0.949 . S
C2417 H2412 0.950 . S
C2417 C2419 1.327 . S
C2417 C2423 1.429 . S
C2418 C2410 1.574 . S
C2418 H2413 0.949 . S
C2418 C2424 1.368 . S
C2419 C2403 1.349 . S
C2419 H2411 0.950 . S
C2419 C2417 1.327 . S
C2420 C2408 1.349 . S
C2420 H2414 0.950 . S
C2420 C2421 1.327 . S
C2421 H2415 0.950 . S
C2421 C2420 1.327 . S
C2421 C2425 1.429 . S
C2422 C2405 1.574 . S
C2422 H2416 0.949 . S
C2422 C2426 1.368 . S
C2423 C2404 1.429 . S
C2423 C2417 1.429 . S
C2423 C2424 1.523 . S
C2424 C2405 1.368 . S
C2424 C2418 1.368 . S
C2424 C2423 1.523 . S
C2425 C2409 1.429 . S
C2425 C2421 1.429 . S
C2425 C2426 1.523 . S
C2426 C2410 1.368 . S
C2426 C2422 1.368 . S
C2426 C2425 1.523 . S
H2427 C2402 0.950 . S
H2428 C2404 0.950 . S
H2429 C2405 0.949 . S
H2430 C2407 0.950 . S
H2431 C2409 0.950 . S
C2432 C2433 1.349 . S
C2432 C2434 1.327 . S
C2432 H2457 0.950 . S
C2433 C2432 1.349 . S
C2433 C2449 1.349 . S
C2434 C2432 1.327 . S
C2434 C2453 1.429 . S
C2434 H2458 0.950 . S
C2435 C2452 1.574 . S
C2435 C2454 1.368 . S
C2435 H2459 0.949 . S
H2436 C2440 0.949 . S
C2437 C2438 1.349 . S
C2437 C2439 1.327 . S
C2437 H2460 0.950 . S
C2438 C2437 1.349 . S
C2438 C2450 1.349 . S
C2439 C2437 1.327 . S
C2439 C2455 1.429 . S
C2439 H2461 0.950 . S
C2440 H2436 0.949 . S
C2440 C2448 1.574 . S
C2440 C2456 1.368 . S
H2441 C2449 0.950 . S
H2442 C2447 0.950 . S
H2443 C2448 0.949 . S
H2444 C2450 0.950 . S
H2445 C2451 0.950 . S
H2446 C2452 0.949 . S
C2447 H2442 0.950 . S
C2447 C2449 1.327 . S
C2447 C2453 1.429 . S
C2448 C2440 1.574 . S
C2448 H2443 0.949 . S
C2448 C2454 1.368 . S
C2449 C2433 1.349 . S
C2449 H2441 0.950 . S
C2449 C2447 1.327 . S
C2450 C2438 1.349 . S
C2450 H2444 0.950 . S
C2450 C2451 1.327 . S
C2451 H2445 0.950 . S
C2451 C2450 1.327 . S
C2451 C2455 1.429 . S
C2452 C2435 1.574 . S
C2452 H2446 0.949 . S
C2452 C2456 1.368 . S
C2453 C2434 1.429 . S
C2453 C2447 1.429 . S
C2453 C2454 1.523 . S
C2454 C2435 1.368 . S
C2454 C2448 1.368 . S
C2454 C2453 1.523 . S
C2455 C2439 1.429 . S
C2455 C2451 1.429 . S
C2455 C2456 1.523 . S
C2456 C2440 1.368 . S
C2456 C2452 1.368 . S
C2456 C2455 1.523 . S
H2457 C2432 0.950 . S
H2458 C2434 0.950 . S
H2459 C2435 0.949 . S
H2460 C2437 0.950 . S
H2461 C2439 0.950 . S
C2462 C2463 1.349 . S
C2462 C2464 1.327 . S
C2462 H2487 0.950 . S
C2463 C2462 1.349 . S
C2463 C2479 1.349 . S
C2464 C2462 1.327 . S
C2464 C2483 1.429 . S
C2464 H2488 0.950 . S
C2465 C2482 1.574 . S
C2465 C2484 1.368 . S
C2465 H2489 0.949 . S
H2466 C2470 0.949 . S
C2467 C2468 1.349 . S
C2467 C2469 1.327 . S
C2467 H2490 0.950 . S
C2468 C2467 1.349 . S
C2468 C2480 1.349 . S
C2469 C2467 1.327 . S
C2469 C2485 1.429 . S
C2469 H2491 0.950 . S
C2470 H2466 0.949 . S
C2470 C2478 1.574 . S
C2470 C2486 1.368 . S
H2471 C2479 0.950 . S
H2472 C2477 0.950 . S
H2473 C2478 0.949 . S
H2474 C2480 0.950 . S
H2475 C2481 0.950 . S
H2476 C2482 0.949 . S
C2477 H2472 0.950 . S
C2477 C2479 1.327 . S
C2477 C2483 1.429 . S
C2478 C2470 1.574 . S
C2478 H2473 0.949 . S
C2478 C2484 1.368 . S
C2479 C2463 1.349 . S
C2479 H2471 0.950 . S
C2479 C2477 1.327 . S
C2480 C2468 1.349 . S
C2480 H2474 0.950 . S
C2480 C2481 1.327 . S
C2481 H2475 0.950 . S
C2481 C2480 1.327 . S
C2481 C2485 1.429 . S
C2482 C2465 1.574 . S
C2482 H2476 0.949 . S
C2482 C2486 1.368 . S
C2483 C2464 1.429 . S
C2483 C2477 1.429 . S
C2483 C2484 1.523 . S
C2484 C2465 1.368 . S
C2484 C2478 1.368 . S
C2484 C2483 1.523 . S
C2485 C2469 1.429 . S
C2485 C2481 1.429 . S
C2485 C2486 1.523 . S
C2486 C2470 1.368 . S
C2486 C2482 1.368 . S
C2486 C2485 1.523 . S
H2487 C2462 0.950 . S
H2488 C2464 0.950 . S
H2489 C2465 0.949 . S
H2490 C2467 0.950 . S
H2491 C2469 0.950 . S
C2492 C2493 1.349 . S
C2492 C2494 1.327 . S
C2492 H2517 0.950 . S
C2493 C2492 1.349 . S
C2493 C2509 1.349 . S
C2494 C2492 1.327 . S
C2494 C2513 1.429 . S
C2494 H2518 0.950 . S
C2495 C2512 1.574 . S
C2495 C2514 1.368 . S
C2495 H2519 0.949 . S
H2496 C2500 0.949 . S
C2497 C2498 1.349 . S
C2497 C2499 1.327 . S
C2497 H2520 0.950 . S
C2498 C2497 1.349 . S
C2498 C2510 1.349 . S
C2499 C2497 1.327 . S
C2499 C2515 1.429 . S
C2499 H2521 0.950 . S
C2500 H2496 0.949 . S
C2500 C2508 1.574 . S
C2500 C2516 1.368 . S
H2501 C2509 0.950 . S
H2502 C2507 0.950 . S
H2503 C2508 0.949 . S
H2504 C2510 0.950 . S
H2505 C2511 0.950 . S
H2506 C2512 0.949 . S
C2507 H2502 0.950 . S
C2507 C2509 1.327 . S
C2507 C2513 1.429 . S
C2508 C2500 1.574 . S
C2508 H2503 0.949 . S
C2508 C2514 1.368 . S
C2509 C2493 1.349 . S
C2509 H2501 0.950 . S
C2509 C2507 1.327 . S
C2510 C2498 1.349 . S
C2510 H2504 0.950 . S
C2510 C2511 1.327 . S
C2511 H2505 0.950 . S
C2511 C2510 1.327 . S
C2511 C2515 1.429 . S
C2512 C2495 1.574 . S
C2512 H2506 0.949 . S
C2512 C2516 1.368 . S
C2513 C2494 1.429 . S
C2513 C2507 1.429 . S
C2513 C2514 1.523 . S
C2514 C2495 1.368 . S
C2514 C2508 1.368 . S
C2514 C2513 1.523 . S
C2515 C2499 1.429 . S
C2515 C2511 1.429 . S
C2515 C2516 1.523 . S
C2516 C2500 1.368 . S
C2516 C2512 1.368 . S
C2516 C2515 1.523 . S
H2517 C2492 0.950 . S
H2518 C2494 0.950 . S
H2519 C2495 0.949 . S
H2520 C2497 0.950 . S
H2521 C2499 0.950 . S
C2522 C2523 1.349 . S
C2522 C2524 1.327 . S
C2522 H2547 0.950 . S
C2523 C2522 1.349 . S
C2523 C2539 1.349 . S
C2524 C2522 1.327 . S
C2524 C2543 1.429 . S
C2524 H2548 0.950 . S
C2525 C2542 1.574 . S
C2525 C2544 1.368 . S
C2525 H2549 0.949 . S
H2526 C2530 0.949 . S
C2527 C2528 1.349 . S
C2527 C2529 1.327 . S
C2527 H2550 0.950 . S
C2528 C2527 1.349 . S
C2528 C2540 1.349 . S
C2529 C2527 1.327 . S
C2529 C2545 1.429 . S
C2529 H2551 0.950 . S
C2530 H2526 0.949 . S
C2530 C2538 1.574 . S
C2530 C2546 1.368 . S
H2531 C2539 0.950 . S
H2532 C2537 0.950 . S
H2533 C2538 0.949 . S
H2534 C2540 0.950 . S
H2535 C2541 0.950 . S
H2536 C2542 0.949 . S
C2537 H2532 0.950 . S
C2537 C2539 1.327 . S
C2537 C2543 1.429 . S
C2538 C2530 1.574 . S
C2538 H2533 0.949 . S
C2538 C2544 1.368 . S
C2539 C2523 1.349 . S
C2539 H2531 0.950 . S
C2539 C2537 1.327 . S
C2540 C2528 1.349 . S
C2540 H2534 0.950 . S
C2540 C2541 1.327 . S
C2541 H2535 0.950 . S
C2541 C2540 1.327 . S
C2541 C2545 1.429 . S
C2542 C2525 1.574 . S
C2542 H2536 0.949 . S
C2542 C2546 1.368 . S
C2543 C2524 1.429 . S
C2543 C2537 1.429 . S
C2543 C2544 1.523 . S
C2544 C2525 1.368 . S
C2544 C2538 1.368 . S
C2544 C2543 1.523 . S
C2545 C2529 1.429 . S
C2545 C2541 1.429 . S
C2545 C2546 1.523 . S
C2546 C2530 1.368 . S
C2546 C2542 1.368 . S
C2546 C2545 1.523 . S
H2547 C2522 0.950 . S
H2548 C2524 0.950 . S
H2549 C2525 0.949 . S
H2550 C2527 0.950 . S
H2551 C2529 0.950 . S
C2552 C2553 1.349 . S
C2552 C2554 1.327 . S
C2552 H2577 0.950 . S
C2553 C2552 1.349 . S
C2553 C2569 1.349 . S
C2554 C2552 1.327 . S
C2554 C2573 1.429 . S
C2554 H2578 0.950 . S
C2555 C2572 1.574 . S
C2555 C2574 1.368 . S
C2555 H2579 0.949 . S
H2556 C2560 0.949 . S
C2557 C2558 1.349 . S
C2557 C2559 1.327 . S
C2557 H2580 0.950 . S
C2558 C2557 1.349 . S
C2558 C2570 1.349 . S
C2559 C2557 1.327 . S
C2559 C2575 1.429 . S
C2559 H2581 0.950 . S
C2560 H2556 0.949 . S
C2560 C2568 1.574 . S
C2560 C2576 1.368 . S
H2561 C2569 0.950 . S
H2562 C2567 0.950 . S
H2563 C2568 0.949 . S
H2564 C2570 0.950 . S
H2565 C2571 0.950 . S
H2566 C2572 0.949 . S
C2567 H2562 0.950 . S
C2567 C2569 1.327 . S
C2567 C2573 1.429 . S
C2568 C2560 1.574 . S
C2568 H2563 0.949 . S
C2568 C2574 1.368 . S
C2569 C2553 1.349 . S
C2569 H2561 0.950 . S
C2569 C2567 1.327 . S
C2570 C2558 1.349 . S
C2570 H2564 0.950 . S
C2570 C2571 1.327 . S
C2571 H2565 0.950 . S
C2571 C2570 1.327 . S
C2571 C2575 1.429 . S
C2572 C2555 1.574 . S
C2572 H2566 0.949 . S
C2572 C2576 1.368 . S
C2573 C2554 1.429 . S
C2573 C2567 1.429 . S
C2573 C2574 1.523 . S
C2574 C2555 1.368 . S
C2574 C2568 1.368 . S
C2574 C2573 1.523 . S
C2575 C2559 1.429 . S
C2575 C2571 1.429 . S
C2575 C2576 1.523 . S
C2576 C2560 1.368 . S
C2576 C2572 1.368 . S
C2576 C2575 1.523 . S
H2577 C2552 0.950 . S
H2578 C2554 0.950 . S
H2579 C2555 0.949 . S
H2580 C2557 0.950 . S
H2581 C2559 0.950 . S
C2582 C2583 1.349 . S
C2582 C2584 1.327 . S
C2582 H2607 0.950 . S
C2583 C2582 1.349 . S
C2583 C2599 1.349 . S
C2584 C2582 1.327 . S
C2584 C2603 1.429 . S
C2584 H2608 0.950 . S
C2585 C2602 1.574 . S
C2585 C2604 1.368 . S
C2585 H2609 0.949 . S
H2586 C2590 0.949 . S
C2587 C2588 1.349 . S
C2587 C2589 1.327 . S
C2587 H2610 0.950 . S
C2588 C2587 1.349 . S
C2588 C2600 1.349 . S
C2589 C2587 1.327 . S
C2589 C2605 1.429 . S
C2589 H2611 0.950 . S
C2590 H2586 0.949 . S
C2590 C2598 1.574 . S
C2590 C2606 1.368 . S
H2591 C2599 0.950 . S
H2592 C2597 0.950 . S
H2593 C2598 0.949 . S
H2594 C2600 0.950 . S
H2595 C2601 0.950 . S
H2596 C2602 0.949 . S
C2597 H2592 0.950 . S
C2597 C2599 1.327 . S
C2597 C2603 1.429 . S
C2598 C2590 1.574 . S
C2598 H2593 0.949 . S
C2598 C2604 1.368 . S
C2599 C2583 1.349 . S
C2599 H2591 0.950 . S
C2599 C2597 1.327 . S
C2600 C2588 1.349 . S
C2600 H2594 0.950 . S
C2600 C2601 1.327 . S
C2601 H2595 0.950 . S
C2601 C2600 1.327 . S
C2601 C2605 1.429 . S
C2602 C2585 1.574 . S
C2602 H2596 0.949 . S
C2602 C2606 1.368 . S
C2603 C2584 1.429 . S
C2603 C2597 1.429 . S
C2603 C2604 1.523 . S
C2604 C2585 1.368 . S
C2604 C2598 1.368 . S
C2604 C2603 1.523 . S
C2605 C2589 1.429 . S
C2605 C2601 1.429 . S
C2605 C2606 1.523 . S
C2606 C2590 1.368 . S
C2606 C2602 1.368 . S
C2606 C2605 1.523 . S
H2607 C2582 0.950 . S
H2608 C2584 0.950 . S
H2609 C2585 0.949 . S
H2610 C2587 0.950 . S
H2611 C2589 0.950 . S
C2612 C2613 1.349 . S
C2612 C2614 1.327 . S
C2612 H2637 0.950 . S
C2613 C2612 1.349 . S
C2613 C2629 1.349 . S
C2614 C2612 1.327 . S
C2614 C2633 1.429 . S
C2614 H2638 0.950 . S
C2615 C2632 1.574 . S
C2615 C2634 1.368 . S
C2615 H2639 0.949 . S
H2616 C2620 0.949 . S
C2617 C2618 1.349 . S
C2617 C2619 1.327 . S
C2617 H2640 0.950 . S
C2618 C2617 1.349 . S
C2618 C2630 1.349 . S
C2619 C2617 1.327 . S
C2619 C2635 1.429 . S
C2619 H2641 0.950 . S
C2620 H2616 0.949 . S
C2620 C2628 1.574 . S
C2620 C2636 1.368 . S
H2621 C2629 0.950 . S
H2622 C2627 0.950 . S
H2623 C2628 0.949 . S
H2624 C2630 0.950 . S
H2625 C2631 0.950 . S
H2626 C2632 0.949 . S
C2627 H2622 0.950 . S
C2627 C2629 1.327 . S
C2627 C2633 1.429 . S
C2628 C2620 1.574 . S
C2628 H2623 0.949 . S
C2628 C2634 1.368 . S
C2629 C2613 1.349 . S
C2629 H2621 0.950 . S
C2629 C2627 1.327 . S
C2630 C2618 1.349 . S
C2630 H2624 0.950 . S
C2630 C2631 1.327 . S
C2631 H2625 0.950 . S
C2631 C2630 1.327 . S
C2631 C2635 1.429 . S
C2632 C2615 1.574 . S
C2632 H2626 0.949 . S
C2632 C2636 1.368 . S
C2633 C2614 1.429 . S
C2633 C2627 1.429 . S
C2633 C2634 1.523 . S
C2634 C2615 1.368 . S
C2634 C2628 1.368 . S
C2634 C2633 1.523 . S
C2635 C2619 1.429 . S
C2635 C2631 1.429 . S
C2635 C2636 1.523 . S
C2636 C2620 1.368 . S
C2636 C2632 1.368 . S
C2636 C2635 1.523 . S
H2637 C2612 0.950 . S
H2638 C2614 0.950 . S
H2639 C2615 0.949 . S
H2640 C2617 0.950 . S
H2641 C2619 0.950 . S
C2642 C2643 1.349 . S
C2642 C2644 1.327 . S
C2642 H2667 0.950 . S
C2643 C2642 1.349 . S
C2643 C2659 1.349 . S
C2644 C2642 1.327 . S
C2644 C2663 1.429 . S
C2644 H2668 0.950 . S
C2645 C2662 1.574 . S
C2645 C2664 1.368 . S
C2645 H2669 0.949 1_554 S
H2646 C2650 0.949 . S
C2647 C2648 1.349 . S
C2647 C2649 1.327 . S
C2647 H2670 0.950 1_554 S
C2648 C2647 1.349 . S
C2648 C2660 1.349 . S
C2649 C2647 1.327 . S
C2649 C2665 1.429 . S
C2649 H2671 0.950 1_554 S
C2650 H2646 0.949 . S
C2650 C2658 1.574 . S
C2650 C2666 1.368 . S
H2651 C2659 0.950 1_556 S
H2652 C2657 0.950 1_556 S
H2653 C2658 0.949 . S
H2654 C2660 0.950 . S
H2655 C2661 0.950 . S
H2656 C2662 0.949 1_556 S
C2657 H2652 0.950 1_554 S
C2657 C2659 1.327 . S
C2657 C2663 1.429 . S
C2658 C2650 1.574 . S
C2658 H2653 0.949 . S
C2658 C2664 1.368 . S
C2659 C2643 1.349 . S
C2659 H2651 0.950 1_554 S
C2659 C2657 1.327 . S
C2660 C2648 1.349 . S
C2660 H2654 0.950 . S
C2660 C2661 1.327 . S
C2661 H2655 0.950 . S
C2661 C2660 1.327 . S
C2661 C2665 1.429 . S
C2662 C2645 1.574 . S
C2662 H2656 0.949 1_554 S
C2662 C2666 1.368 . S
C2663 C2644 1.429 . S
C2663 C2657 1.429 . S
C2663 C2664 1.523 . S
C2664 C2645 1.368 . S
C2664 C2658 1.368 . S
C2664 C2663 1.523 . S
C2665 C2649 1.429 . S
C2665 C2661 1.429 . S
C2665 C2666 1.523 . S
C2666 C2650 1.368 . S
C2666 C2662 1.368 . S
C2666 C2665 1.523 . S
H2667 C2642 0.950 . S
H2668 C2644 0.950 . S
H2669 C2645 0.949 1_556 S
H2670 C2647 0.950 1_556 S
H2671 C2649 0.950 1_556 S
C2672 C2673 1.349 . S
C2672 C2674 1.327 . S
C2672 H2697 0.950 . S
C2673 C2672 1.349 . S
C2673 C2689 1.349 . S
C2674 C2672 1.327 . S
C2674 C2693 1.429 . S
C2674 H2698 0.950 . S
C2675 C2692 1.574 . S
C2675 C2694 1.368 . S
C2675 H2699 0.949 . S
H2676 C2680 0.949 . S
C2677 C2678 1.349 . S
C2677 C2679 1.327 . S
C2677 H2700 0.950 . S
C2678 C2677 1.349 . S
C2678 C2690 1.349 . S
C2679 C2677 1.327 . S
C2679 C2695 1.429 . S
C2679 H2701 0.950 . S
C2680 H2676 0.949 . S
C2680 C2688 1.574 . S
C2680 C2696 1.368 . S
H2681 C2689 0.950 . S
H2682 C2687 0.950 . S
H2683 C2688 0.949 . S
H2684 C2690 0.950 . S
H2685 C2691 0.950 . S
H2686 C2692 0.949 . S
C2687 H2682 0.950 . S
C2687 C2689 1.327 . S
C2687 C2693 1.429 . S
C2688 C2680 1.574 . S
C2688 H2683 0.949 . S
C2688 C2694 1.368 . S
C2689 C2673 1.349 . S
C2689 H2681 0.950 . S
C2689 C2687 1.327 . S
C2690 C2678 1.349 . S
C2690 H2684 0.950 . S
C2690 C2691 1.327 . S
C2691 H2685 0.950 . S
C2691 C2690 1.327 . S
C2691 C2695 1.429 . S
C2692 C2675 1.574 . S
C2692 H2686 0.949 . S
C2692 C2696 1.368 . S
C2693 C2674 1.429 . S
C2693 C2687 1.429 . S
C2693 C2694 1.523 . S
C2694 C2675 1.368 . S
C2694 C2688 1.368 . S
C2694 C2693 1.523 . S
C2695 C2679 1.429 . S
C2695 C2691 1.429 . S
C2695 C2696 1.523 . S
C2696 C2680 1.368 . S
C2696 C2692 1.368 . S
C2696 C2695 1.523 . S
H2697 C2672 0.950 . S
H2698 C2674 0.950 . S
H2699 C2675 0.949 . S
H2700 C2677 0.950 . S
H2701 C2679 0.950 . S
C2702 C2703 1.359 . S
C2702 C2704 1.327 . S
C2702 H2727 0.950 . S
C2703 C2702 1.359 . S
C2703 C2719 1.340 1_554 S
C2704 C2702 1.327 . S
C2704 C2723 1.429 . S
C2704 H2728 0.950 . S
C2705 C2722 1.574 . S
C2705 C2724 1.368 1_556 S
C2705 H2729 0.949 . S
H2706 C2710 0.949 . S
C2707 C2708 1.349 . S
C2707 C2709 1.327 . S
C2707 H2730 0.950 1_554 S
C2708 C2707 1.349 . S
C2708 C2720 1.349 . S
C2709 C2707 1.327 . S
C2709 C2725 1.429 . S
C2709 H2731 0.950 1_554 S
C2710 H2706 0.949 . S
C2710 C2718 1.574 . S
C2710 C2726 1.368 . S
H2711 C2719 0.950 . S
H2712 C2717 0.950 . S
H2713 C2718 0.949 . S
H2714 C2720 0.950 . S
H2715 C2721 0.950 . S
H2716 C2722 0.949 . S
C2717 H2712 0.950 . S
C2717 C2719 1.327 . S
C2717 C2723 1.429 1_556 S
C2718 C2710 1.574 . S
C2718 H2713 0.949 . S
C2718 C2724 1.368 . S
C2719 C2703 1.340 1_556 S
C2719 H2711 0.950 . S
C2719 C2717 1.327 . S
C2720 C2708 1.349 . S
C2720 H2714 0.950 . S
C2720 C2721 1.327 . S
C2721 H2715 0.950 . S
C2721 C2720 1.327 . S
C2721 C2725 1.429 . S
C2722 C2705 1.574 . S
C2722 H2716 0.949 . S
C2722 C2726 1.368 1_556 S
C2723 C2704 1.429 . S
C2723 C2717 1.429 1_554 S
C2723 C2724 1.523 . S
C2724 C2705 1.368 1_554 S
C2724 C2718 1.368 . S
C2724 C2723 1.523 . S
C2725 C2709 1.429 . S
C2725 C2721 1.429 . S
C2725 C2726 1.523 . S
C2726 C2710 1.368 . S
C2726 C2722 1.368 1_554 S
C2726 C2725 1.523 . S
H2727 C2702 0.950 . S
H2728 C2704 0.950 . S
H2729 C2705 0.949 . S
H2730 C2707 0.950 1_556 S
H2731 C2709 0.950 1_556 S
C2732 C2733 1.349 . S
C2732 C2734 1.327 . S
C2732 H2757 0.950 . S
C2733 C2732 1.349 . S
C2733 C2749 1.349 . S
C2734 C2732 1.327 . S
C2734 C2753 1.429 . S
C2734 H2758 0.950 . S
C2735 C2752 1.574 . S
C2735 C2754 1.368 . S
C2735 H2759 0.949 . S
H2736 C2740 0.949 . S
C2737 C2738 1.349 . S
C2737 C2739 1.327 . S
C2737 H2760 0.950 . S
C2738 C2737 1.349 . S
C2738 C2750 1.349 . S
C2739 C2737 1.327 . S
C2739 C2755 1.429 . S
C2739 H2761 0.950 . S
C2740 H2736 0.949 . S
C2740 C2748 1.574 . S
C2740 C2756 1.368 . S
H2741 C2749 0.950 . S
H2742 C2747 0.950 . S
H2743 C2748 0.949 . S
H2744 C2750 0.950 . S
H2745 C2751 0.950 . S
H2746 C2752 0.949 . S
C2747 H2742 0.950 . S
C2747 C2749 1.327 . S
C2747 C2753 1.429 . S
C2748 C2740 1.574 . S
C2748 H2743 0.949 . S
C2748 C2754 1.368 . S
C2749 C2733 1.349 . S
C2749 H2741 0.950 . S
C2749 C2747 1.327 . S
C2750 C2738 1.349 . S
C2750 H2744 0.950 . S
C2750 C2751 1.327 . S
C2751 H2745 0.950 . S
C2751 C2750 1.327 . S
C2751 C2755 1.429 . S
C2752 C2735 1.574 . S
C2752 H2746 0.949 . S
C2752 C2756 1.368 . S
C2753 C2734 1.429 . S
C2753 C2747 1.429 . S
C2753 C2754 1.523 . S
C2754 C2735 1.368 . S
C2754 C2748 1.368 . S
C2754 C2753 1.523 . S
C2755 C2739 1.429 . S
C2755 C2751 1.429 . S
C2755 C2756 1.523 . S
C2756 C2740 1.368 . S
C2756 C2752 1.368 . S
C2756 C2755 1.523 . S
H2757 C2732 0.950 . S
H2758 C2734 0.950 . S
H2759 C2735 0.949 . S
H2760 C2737 0.950 . S
H2761 C2739 0.950 . S
C2762 C2763 1.349 . S
C2762 C2764 1.327 . S
C2762 H2787 0.950 . S
C2763 C2762 1.349 . S
C2763 C2779 1.349 . S
C2764 C2762 1.327 . S
C2764 C2783 1.429 . S
C2764 H2788 0.950 . S
C2765 C2782 1.574 . S
C2765 C2784 1.368 . S
C2765 H2789 0.949 . S
H2766 C2770 0.949 . S
C2767 C2768 1.349 . S
C2767 C2769 1.327 . S
C2767 H2790 0.950 . S
C2768 C2767 1.349 . S
C2768 C2780 1.349 . S
C2769 C2767 1.327 . S
C2769 C2785 1.429 . S
C2769 H2791 0.950 . S
C2770 H2766 0.949 . S
C2770 C2778 1.574 . S
C2770 C2786 1.368 . S
H2771 C2779 0.950 . S
H2772 C2777 0.950 . S
H2773 C2778 0.949 . S
H2774 C2780 0.950 . S
H2775 C2781 0.950 . S
H2776 C2782 0.949 . S
C2777 H2772 0.950 . S
C2777 C2779 1.327 . S
C2777 C2783 1.429 . S
C2778 C2770 1.574 . S
C2778 H2773 0.949 . S
C2778 C2784 1.368 . S
C2779 C2763 1.349 . S
C2779 H2771 0.950 . S
C2779 C2777 1.327 . S
C2780 C2768 1.349 . S
C2780 H2774 0.950 . S
C2780 C2781 1.327 . S
C2781 H2775 0.950 . S
C2781 C2780 1.327 . S
C2781 C2785 1.429 . S
C2782 C2765 1.574 . S
C2782 H2776 0.949 . S
C2782 C2786 1.368 . S
C2783 C2764 1.429 . S
C2783 C2777 1.429 . S
C2783 C2784 1.523 . S
C2784 C2765 1.368 . S
C2784 C2778 1.368 . S
C2784 C2783 1.523 . S
C2785 C2769 1.429 . S
C2785 C2781 1.429 . S
C2785 C2786 1.523 . S
C2786 C2770 1.368 . S
C2786 C2782 1.368 . S
C2786 C2785 1.523 . S
H2787 C2762 0.950 . S
H2788 C2764 0.950 . S
H2789 C2765 0.949 . S
H2790 C2767 0.950 . S
H2791 C2769 0.950 . S
C2792 C2793 1.349 . S
C2792 C2794 1.327 . S
C2792 H2817 0.950 . S
C2793 C2792 1.349 . S
C2793 C2809 1.349 . S
C2794 C2792 1.327 . S
C2794 C2813 1.429 . S
C2794 H2818 0.950 . S
C2795 C2812 1.574 . S
C2795 C2814 1.368 . S
C2795 H2819 0.949 . S
H2796 C2800 0.949 . S
C2797 C2798 1.349 . S
C2797 C2799 1.327 . S
C2797 H2820 0.950 . S
C2798 C2797 1.349 . S
C2798 C2810 1.349 . S
C2799 C2797 1.327 . S
C2799 C2815 1.429 . S
C2799 H2821 0.950 . S
C2800 H2796 0.949 . S
C2800 C2808 1.574 . S
C2800 C2816 1.368 . S
H2801 C2809 0.950 . S
H2802 C2807 0.950 . S
H2803 C2808 0.949 . S
H2804 C2810 0.950 . S
H2805 C2811 0.950 . S
H2806 C2812 0.949 . S
C2807 H2802 0.950 . S
C2807 C2809 1.327 . S
C2807 C2813 1.429 . S
C2808 C2800 1.574 . S
C2808 H2803 0.949 . S
C2808 C2814 1.368 . S
C2809 C2793 1.349 . S
C2809 H2801 0.950 . S
C2809 C2807 1.327 . S
C2810 C2798 1.349 . S
C2810 H2804 0.950 . S
C2810 C2811 1.327 . S
C2811 H2805 0.950 . S
C2811 C2810 1.327 . S
C2811 C2815 1.429 . S
C2812 C2795 1.574 . S
C2812 H2806 0.949 . S
C2812 C2816 1.368 . S
C2813 C2794 1.429 . S
C2813 C2807 1.429 . S
C2813 C2814 1.523 . S
C2814 C2795 1.368 . S
C2814 C2808 1.368 . S
C2814 C2813 1.523 . S
C2815 C2799 1.429 . S
C2815 C2811 1.429 . S
C2815 C2816 1.523 . S
C2816 C2800 1.368 . S
C2816 C2812 1.368 . S
C2816 C2815 1.523 . S
H2817 C2792 0.950 . S
H2818 C2794 0.950 . S
H2819 C2795 0.949 . S
H2820 C2797 0.950 . S
H2821 C2799 0.950 . S
C2822 C2823 1.349 . S
C2822 C2824 1.327 . S
C2822 H2847 0.950 . S
C2823 C2822 1.349 . S
C2823 C2839 1.349 . S
C2824 C2822 1.327 . S
C2824 C2843 1.429 . S
C2824 H2848 0.950 . S
C2825 C2842 1.574 . S
C2825 C2844 1.368 . S
C2825 H2849 0.949 . S
H2826 C2830 0.949 . S
C2827 C2828 1.349 . S
C2827 C2829 1.327 . S
C2827 H2850 0.950 . S
C2828 C2827 1.349 . S
C2828 C2840 1.349 . S
C2829 C2827 1.327 . S
C2829 C2845 1.429 . S
C2829 H2851 0.950 . S
C2830 H2826 0.949 . S
C2830 C2838 1.574 . S
C2830 C2846 1.368 . S
H2831 C2839 0.950 . S
H2832 C2837 0.950 . S
H2833 C2838 0.949 . S
H2834 C2840 0.950 . S
H2835 C2841 0.950 . S
H2836 C2842 0.949 . S
C2837 H2832 0.950 . S
C2837 C2839 1.327 . S
C2837 C2843 1.429 . S
C2838 C2830 1.574 . S
C2838 H2833 0.949 . S
C2838 C2844 1.368 . S
C2839 C2823 1.349 . S
C2839 H2831 0.950 . S
C2839 C2837 1.327 . S
C2840 C2828 1.349 . S
C2840 H2834 0.950 . S
C2840 C2841 1.327 . S
C2841 H2835 0.950 . S
C2841 C2840 1.327 . S
C2841 C2845 1.429 . S
C2842 C2825 1.574 . S
C2842 H2836 0.949 . S
C2842 C2846 1.368 . S
C2843 C2824 1.429 . S
C2843 C2837 1.429 . S
C2843 C2844 1.523 . S
C2844 C2825 1.368 . S
C2844 C2838 1.368 . S
C2844 C2843 1.523 . S
C2845 C2829 1.429 . S
C2845 C2841 1.429 . S
C2845 C2846 1.523 . S
C2846 C2830 1.368 . S
C2846 C2842 1.368 . S
C2846 C2845 1.523 . S
H2847 C2822 0.950 . S
H2848 C2824 0.950 . S
H2849 C2825 0.949 . S
H2850 C2827 0.950 . S
H2851 C2829 0.950 . S
C2852 C2853 1.349 . S
C2852 C2854 1.327 . S
C2852 H2877 0.950 . S
C2853 C2852 1.349 . S
C2853 C2869 1.349 . S
C2854 C2852 1.327 . S
C2854 C2873 1.429 . S
C2854 H2878 0.950 . S
C2855 C2872 1.574 . S
C2855 C2874 1.368 . S
C2855 H2879 0.949 . S
H2856 C2860 0.949 . S
C2857 C2858 1.349 . S
C2857 C2859 1.327 . S
C2857 H2880 0.950 . S
C2858 C2857 1.349 . S
C2858 C2870 1.349 . S
C2859 C2857 1.327 . S
C2859 C2875 1.429 . S
C2859 H2881 0.950 . S
C2860 H2856 0.949 . S
C2860 C2868 1.574 . S
C2860 C2876 1.368 . S
H2861 C2869 0.950 . S
H2862 C2867 0.950 . S
H2863 C2868 0.949 . S
H2864 C2870 0.950 . S
H2865 C2871 0.950 . S
H2866 C2872 0.949 . S
C2867 H2862 0.950 . S
C2867 C2869 1.327 . S
C2867 C2873 1.429 . S
C2868 C2860 1.574 . S
C2868 H2863 0.949 . S
C2868 C2874 1.368 . S
C2869 C2853 1.349 . S
C2869 H2861 0.950 . S
C2869 C2867 1.327 . S
C2870 C2858 1.349 . S
C2870 H2864 0.950 . S
C2870 C2871 1.327 . S
C2871 H2865 0.950 . S
C2871 C2870 1.327 . S
C2871 C2875 1.429 . S
C2872 C2855 1.574 . S
C2872 H2866 0.949 . S
C2872 C2876 1.368 . S
C2873 C2854 1.429 . S
C2873 C2867 1.429 . S
C2873 C2874 1.523 . S
C2874 C2855 1.368 . S
C2874 C2868 1.368 . S
C2874 C2873 1.523 . S
C2875 C2859 1.429 . S
C2875 C2871 1.429 . S
C2875 C2876 1.523 . S
C2876 C2860 1.368 . S
C2876 C2872 1.368 . S
C2876 C2875 1.523 . S
H2877 C2852 0.950 . S
H2878 C2854 0.950 . S
H2879 C2855 0.949 . S
H2880 C2857 0.950 . S
H2881 C2859 0.950 . S
C2882 C2883 1.349 . S
C2882 C2884 1.327 . S
C2882 H2907 0.950 . S
C2883 C2882 1.349 . S
C2883 C2899 1.349 . S
C2884 C2882 1.327 . S
C2884 C2903 1.429 . S
C2884 H2908 0.950 . S
C2885 C2902 1.574 . S
C2885 C2904 1.368 . S
C2885 H2909 0.949 . S
H2886 C2890 0.949 . S
C2887 C2888 1.349 . S
C2887 C2889 1.327 . S
C2887 H2910 0.950 . S
C2888 C2887 1.349 . S
C2888 C2900 1.349 . S
C2889 C2887 1.327 . S
C2889 C2905 1.429 . S
C2889 H2911 0.950 . S
C2890 H2886 0.949 . S
C2890 C2898 1.574 . S
C2890 C2906 1.368 . S
H2891 C2899 0.950 . S
H2892 C2897 0.950 . S
H2893 C2898 0.949 . S
H2894 C2900 0.950 . S
H2895 C2901 0.950 . S
H2896 C2902 0.949 . S
C2897 H2892 0.950 . S
C2897 C2899 1.327 . S
C2897 C2903 1.429 . S
C2898 C2890 1.574 . S
C2898 H2893 0.949 . S
C2898 C2904 1.368 . S
C2899 C2883 1.349 . S
C2899 H2891 0.950 . S
C2899 C2897 1.327 . S
C2900 C2888 1.349 . S
C2900 H2894 0.950 . S
C2900 C2901 1.327 . S
C2901 H2895 0.950 . S
C2901 C2900 1.327 . S
C2901 C2905 1.429 . S
C2902 C2885 1.574 . S
C2902 H2896 0.949 . S
C2902 C2906 1.368 . S
C2903 C2884 1.429 . S
C2903 C2897 1.429 . S
C2903 C2904 1.523 . S
C2904 C2885 1.368 . S
C2904 C2898 1.368 . S
C2904 C2903 1.523 . S
C2905 C2889 1.429 . S
C2905 C2901 1.429 . S
C2905 C2906 1.523 . S
C2906 C2890 1.368 . S
C2906 C2902 1.368 . S
C2906 C2905 1.523 . S
H2907 C2882 0.950 . S
H2908 C2884 0.950 . S
H2909 C2885 0.949 . S
H2910 C2887 0.950 . S
H2911 C2889 0.950 . S
C2912 C2913 1.349 . S
C2912 C2914 1.327 . S
C2912 H2937 0.950 . S
C2913 C2912 1.349 . S
C2913 C2929 1.349 . S
C2914 C2912 1.327 . S
C2914 C2933 1.429 . S
C2914 H2938 0.950 . S
C2915 C2932 1.574 . S
C2915 C2934 1.368 . S
C2915 H2939 0.949 . S
H2916 C2920 0.949 . S
C2917 C2918 1.328 1_554 S
C2917 C2919 1.302 1_554 S
C2917 H2940 0.998 . S
C2918 C2917 1.328 1_556 S
C2918 C2930 1.349 . S
C2919 C2917 1.302 1_556 S
C2919 C2935 1.429 . S
C2919 H2941 0.967 . S
C2920 H2916 0.949 . S
C2920 C2928 1.574 . S
C2920 C2936 1.368 . S
H2921 C2929 0.950 . S
H2922 C2927 0.950 . S
H2923 C2928 0.949 . S
H2924 C2930 0.950 . S
H2925 C2931 0.950 . S
H2926 C2932 0.949 . S
C2927 H2922 0.950 . S
C2927 C2929 1.327 . S
C2927 C2933 1.429 . S
C2928 C2920 1.574 . S
C2928 H2923 0.949 . S
C2928 C2934 1.368 . S
C2929 C2913 1.349 . S
C2929 H2921 0.950 . S
C2929 C2927 1.327 . S
C2930 C2918 1.349 . S
C2930 H2924 0.950 . S
C2930 C2931 1.327 . S
C2931 H2925 0.950 . S
C2931 C2930 1.327 . S
C2931 C2935 1.429 . S
C2932 C2915 1.574 . S
C2932 H2926 0.949 . S
C2932 C2936 1.368 . S
C2933 C2914 1.429 . S
C2933 C2927 1.429 . S
C2933 C2934 1.523 . S
C2934 C2915 1.368 . S
C2934 C2928 1.368 . S
C2934 C2933 1.523 . S
C2935 C2919 1.429 . S
C2935 C2931 1.429 . S
C2935 C2936 1.523 . S
C2936 C2920 1.368 . S
C2936 C2932 1.368 . S
C2936 C2935 1.523 . S
H2937 C2912 0.950 . S
H2938 C2914 0.950 . S
H2939 C2915 0.949 . S
H2940 C2917 0.998 . S
H2941 C2919 0.967 . S
C2942 C2943 1.349 . S
C2942 C2944 1.327 . S
C2942 H2967 0.950 . S
C2943 C2942 1.349 . S
C2943 C2959 1.349 . S
C2944 C2942 1.327 . S
C2944 C2963 1.429 . S
C2944 H2968 0.950 . S
C2945 C2962 1.574 . S
C2945 C2964 1.368 . S
C2945 H2969 0.949 . S
H2946 C2950 0.949 . S
C2947 C2948 1.349 . S
C2947 C2949 1.327 . S
C2947 H2970 0.950 . S
C2948 C2947 1.349 . S
C2948 C2960 1.349 . S
C2949 C2947 1.327 . S
C2949 C2965 1.429 . S
C2949 H2971 0.950 . S
C2950 H2946 0.949 . S
C2950 C2958 1.574 . S
C2950 C2966 1.368 . S
H2951 C2959 0.950 . S
H2952 C2957 0.950 . S
H2953 C2958 0.949 . S
H2954 C2960 0.950 . S
H2955 C2961 0.950 . S
H2956 C2962 0.949 . S
C2957 H2952 0.950 . S
C2957 C2959 1.327 . S
C2957 C2963 1.429 . S
C2958 C2950 1.574 . S
C2958 H2953 0.949 . S
C2958 C2964 1.368 . S
C2959 C2943 1.349 . S
C2959 H2951 0.950 . S
C2959 C2957 1.327 . S
C2960 C2948 1.349 . S
C2960 H2954 0.950 . S
C2960 C2961 1.327 . S
C2961 H2955 0.950 . S
C2961 C2960 1.327 . S
C2961 C2965 1.429 . S
C2962 C2945 1.574 . S
C2962 H2956 0.949 . S
C2962 C2966 1.368 . S
C2963 C2944 1.429 . S
C2963 C2957 1.429 . S
C2963 C2964 1.523 . S
C2964 C2945 1.368 . S
C2964 C2958 1.368 . S
C2964 C2963 1.523 . S
C2965 C2949 1.429 . S
C2965 C2961 1.429 . S
C2965 C2966 1.523 . S
C2966 C2950 1.368 . S
C2966 C2962 1.368 . S
C2966 C2965 1.523 . S
H2967 C2942 0.950 . S
H2968 C2944 0.950 . S
H2969 C2945 0.949 . S
H2970 C2947 0.950 . S
H2971 C2949 0.950 . S
C2972 C2973 1.349 . S
C2972 C2974 1.327 . S
C2972 H2997 0.950 . S
C2973 C2972 1.349 . S
C2973 C2989 1.349 . S
C2974 C2972 1.327 . S
C2974 C2993 1.429 . S
C2974 H2998 0.950 . S
C2975 C2992 1.574 . S
C2975 C2994 1.368 . S
C2975 H2999 0.918 1_455 S
H2976 C2980 0.949 . S
C2977 C2978 1.349 . S
C2977 C2979 1.327 . S
C2977 H3000 0.950 1_455 S
C2978 C2977 1.349 . S
C2978 C2990 1.349 . S
C2979 C2977 1.327 . S
C2979 C2995 1.429 . S
C2979 H3001 0.950 1_455 S
C2980 H2976 0.949 . S
C2980 C2988 1.574 . S
C2980 C2996 1.368 . S
H2981 C2989 0.986 . S
H2982 C2987 0.941 1_655 S
H2983 C2988 0.949 . S
H2984 C2990 0.950 . S
H2985 C2991 0.950 . S
H2986 C2992 0.949 1_655 S
C2987 H2982 0.941 1_455 S
C2987 C2989 1.327 . S
C2987 C2993 1.429 . S
C2988 C2980 1.574 . S
C2988 H2983 0.949 . S
C2988 C2994 1.368 . S
C2989 C2973 1.349 . S
C2989 H2981 0.986 . S
C2989 C2987 1.327 . S
C2990 C2978 1.349 . S
C2990 H2984 0.950 . S
C2990 C2991 1.327 . S
C2991 H2985 0.950 . S
C2991 C2990 1.327 . S
C2991 C2995 1.429 . S
C2992 C2975 1.574 . S
C2992 H2986 0.949 1_455 S
C2992 C2996 1.368 . S
C2993 C2974 1.429 . S
C2993 C2987 1.429 . S
C2993 C2994 1.523 . S
C2994 C2975 1.368 . S
C2994 C2988 1.368 . S
C2994 C2993 1.523 . S
C2995 C2979 1.429 . S
C2995 C2991 1.429 . S
C2995 C2996 1.523 . S
C2996 C2980 1.368 . S
C2996 C2992 1.368 . S
C2996 C2995 1.523 . S
H2997 C2972 0.950 . S
H2998 C2974 0.950 . S
H2999 C2975 0.918 1_655 S
H3000 C2977 0.950 1_655 S
H3001 C2979 0.950 1_655 S
C3002 C3003 1.349 . S
C3002 C3004 1.327 . S
C3002 H3027 0.950 . S
C3003 C3002 1.349 . S
C3003 C3019 1.349 . S
C3004 C3002 1.327 . S
C3004 C3023 1.429 . S
C3004 H3028 0.950 . S
C3005 C3022 1.574 . S
C3005 C3024 1.368 . S
C3005 H3029 0.949 . S
H3006 C3010 0.949 . S
C3007 C3008 1.349 . S
C3007 C3009 1.327 . S
C3007 H3030 0.950 . S
C3008 C3007 1.349 . S
C3008 C3020 1.349 . S
C3009 C3007 1.327 . S
C3009 C3025 1.429 . S
C3009 H3031 0.950 . S
C3010 H3006 0.949 . S
C3010 C3018 1.574 . S
C3010 C3026 1.368 . S
H3011 C3019 0.950 . S
H3012 C3017 0.950 . S
H3013 C3018 0.949 . S
H3014 C3020 0.950 . S
H3015 C3021 0.950 . S
H3016 C3022 0.949 . S
C3017 H3012 0.950 . S
C3017 C3019 1.327 . S
C3017 C3023 1.429 . S
C3018 C3010 1.574 . S
C3018 H3013 0.949 . S
C3018 C3024 1.368 . S
C3019 C3003 1.349 . S
C3019 H3011 0.950 . S
C3019 C3017 1.327 . S
C3020 C3008 1.349 . S
C3020 H3014 0.950 . S
C3020 C3021 1.327 . S
C3021 H3015 0.950 . S
C3021 C3020 1.327 . S
C3021 C3025 1.429 . S
C3022 C3005 1.574 . S
C3022 H3016 0.949 . S
C3022 C3026 1.368 . S
C3023 C3004 1.429 . S
C3023 C3017 1.429 . S
C3023 C3024 1.523 . S
C3024 C3005 1.368 . S
C3024 C3018 1.368 . S
C3024 C3023 1.523 . S
C3025 C3009 1.429 . S
C3025 C3021 1.429 . S
C3025 C3026 1.523 . S
C3026 C3010 1.368 . S
C3026 C3022 1.368 . S
C3026 C3025 1.523 . S
H3027 C3002 0.950 . S
H3028 C3004 0.950 . S
H3029 C3005 0.949 . S
H3030 C3007 0.950 . S
H3031 C3009 0.950 . S
C3032 C3033 1.349 . S
C3032 C3034 1.327 . S
C3032 H3057 0.950 . S
C3033 C3032 1.349 . S
C3033 C3049 1.349 . S
C3034 C3032 1.327 . S
C3034 C3053 1.429 . S
C3034 H3058 0.950 . S
C3035 C3052 1.574 . S
C3035 C3054 1.368 . S
C3035 H3059 0.949 . S
H3036 C3040 0.949 . S
C3037 C3038 1.349 . S
C3037 C3039 1.327 . S
C3037 H3060 0.950 . S
C3038 C3037 1.349 . S
C3038 C3050 1.349 . S
C3039 C3037 1.327 . S
C3039 C3055 1.429 . S
C3039 H3061 0.950 . S
C3040 H3036 0.949 . S
C3040 C3048 1.574 . S
C3040 C3056 1.368 . S
H3041 C3049 0.950 . S
H3042 C3047 0.950 . S
H3043 C3048 0.949 . S
H3044 C3050 0.950 . S
H3045 C3051 0.950 . S
H3046 C3052 0.949 . S
C3047 H3042 0.950 . S
C3047 C3049 1.327 . S
C3047 C3053 1.429 . S
C3048 C3040 1.574 . S
C3048 H3043 0.949 . S
C3048 C3054 1.368 . S
C3049 C3033 1.349 . S
C3049 H3041 0.950 . S
C3049 C3047 1.327 . S
C3050 C3038 1.349 . S
C3050 H3044 0.950 . S
C3050 C3051 1.327 . S
C3051 H3045 0.950 . S
C3051 C3050 1.327 . S
C3051 C3055 1.429 . S
C3052 C3035 1.574 . S
C3052 H3046 0.949 . S
C3052 C3056 1.368 . S
C3053 C3034 1.429 . S
C3053 C3047 1.429 . S
C3053 C3054 1.523 . S
C3054 C3035 1.368 . S
C3054 C3048 1.368 . S
C3054 C3053 1.523 . S
C3055 C3039 1.429 . S
C3055 C3051 1.429 . S
C3055 C3056 1.523 . S
C3056 C3040 1.368 . S
C3056 C3052 1.368 . S
C3056 C3055 1.523 . S
H3057 C3032 0.950 . S
H3058 C3034 0.950 . S
H3059 C3035 0.949 . S
H3060 C3037 0.950 . S
H3061 C3039 0.950 . S
C3062 C3063 1.349 . S
C3062 C3064 1.327 . S
C3062 H3087 0.950 . S
C3063 C3062 1.349 . S
C3063 C3079 1.349 . S
C3064 C3062 1.327 . S
C3064 C3083 1.429 . S
C3064 H3088 0.950 . S
C3065 C3082 1.574 . S
C3065 C3084 1.368 . S
C3065 H3089 0.949 . S
H3066 C3070 0.949 . S
C3067 C3068 1.349 . S
C3067 C3069 1.327 . S
C3067 H3090 0.950 . S
C3068 C3067 1.349 . S
C3068 C3080 1.349 . S
C3069 C3067 1.327 . S
C3069 C3085 1.429 . S
C3069 H3091 0.950 . S
C3070 H3066 0.949 . S
C3070 C3078 1.574 . S
C3070 C3086 1.368 . S
H3071 C3079 0.950 . S
H3072 C3077 0.950 . S
H3073 C3078 0.949 . S
H3074 C3080 0.950 . S
H3075 C3081 0.950 . S
H3076 C3082 0.949 . S
C3077 H3072 0.950 . S
C3077 C3079 1.327 . S
C3077 C3083 1.429 . S
C3078 C3070 1.574 . S
C3078 H3073 0.949 . S
C3078 C3084 1.368 . S
C3079 C3063 1.349 . S
C3079 H3071 0.950 . S
C3079 C3077 1.327 . S
C3080 C3068 1.349 . S
C3080 H3074 0.950 . S
C3080 C3081 1.327 . S
C3081 H3075 0.950 . S
C3081 C3080 1.327 . S
C3081 C3085 1.429 . S
C3082 C3065 1.574 . S
C3082 H3076 0.949 . S
C3082 C3086 1.368 . S
C3083 C3064 1.429 . S
C3083 C3077 1.429 . S
C3083 C3084 1.523 . S
C3084 C3065 1.368 . S
C3084 C3078 1.368 . S
C3084 C3083 1.523 . S
C3085 C3069 1.429 . S
C3085 C3081 1.429 . S
C3085 C3086 1.523 . S
C3086 C3070 1.368 . S
C3086 C3082 1.368 . S
C3086 C3085 1.523 . S
H3087 C3062 0.950 . S
H3088 C3064 0.950 . S
H3089 C3065 0.949 . S
H3090 C3067 0.950 . S
H3091 C3069 0.950 . S
C3092 C3093 1.349 . S
C3092 C3094 1.327 . S
C3092 H3117 0.950 . S
C3093 C3092 1.349 . S
C3093 C3109 1.349 . S
C3094 C3092 1.327 . S
C3094 C3113 1.429 . S
C3094 H3118 0.950 . S
C3095 C3112 1.574 . S
C3095 C3114 1.368 . S
C3095 H3119 0.949 . S
H3096 C3100 0.949 . S
C3097 C3098 1.349 . S
C3097 C3099 1.327 . S
C3097 H3120 0.950 1_655 S
C3098 C3097 1.349 . S
C3098 C3110 1.349 . S
C3099 C3097 1.327 . S
C3099 C3115 1.429 . S
C3099 H3121 0.950 . S
C3100 H3096 0.949 . S
C3100 C3108 1.574 . S
C3100 C3116 1.368 . S
H3101 C3109 0.950 . S
H3102 C3107 0.950 . S
H3103 C3108 0.949 . S
H3104 C3110 0.950 . S
H3105 C3111 0.950 . S
H3106 C3112 0.949 . S
C3107 H3102 0.950 . S
C3107 C3109 1.327 . S
C3107 C3113 1.429 . S
C3108 C3100 1.574 . S
C3108 H3103 0.949 . S
C3108 C3114 1.368 . S
C3109 C3093 1.349 . S
C3109 H3101 0.950 . S
C3109 C3107 1.327 . S
C3110 C3098 1.349 . S
C3110 H3104 0.950 . S
C3110 C3111 1.327 . S
C3111 H3105 0.950 . S
C3111 C3110 1.327 . S
C3111 C3115 1.429 . S
C3112 C3095 1.574 . S
C3112 H3106 0.949 . S
C3112 C3116 1.368 . S
C3113 C3094 1.429 . S
C3113 C3107 1.429 . S
C3113 C3114 1.523 . S
C3114 C3095 1.368 . S
C3114 C3108 1.368 . S
C3114 C3113 1.523 . S
C3115 C3099 1.429 . S
C3115 C3111 1.429 . S
C3115 C3116 1.523 . S
C3116 C3100 1.368 . S
C3116 C3112 1.368 . S
C3116 C3115 1.523 . S
H3117 C3092 0.950 . S
H3118 C3094 0.950 . S
H3119 C3095 0.949 . S
H3120 C3097 0.950 1_455 S
H3121 C3099 0.950 . S
C3122 C3123 1.349 . S
C3122 C3124 1.327 . S
C3122 H3147 0.950 . S
C3123 C3122 1.349 . S
C3123 C3139 1.349 . S
C3124 C3122 1.327 . S
C3124 C3143 1.429 . S
C3124 H3148 0.950 . S
C3125 C3142 1.574 . S
C3125 C3144 1.368 . S
C3125 H3149 0.949 . S
H3126 C3130 0.949 . S
C3127 C3128 1.349 . S
C3127 C3129 1.327 . S
C3127 H3150 0.950 . S
C3128 C3127 1.349 . S
C3128 C3140 1.349 . S
C3129 C3127 1.327 . S
C3129 C3145 1.429 . S
C3129 H3151 0.950 . S
C3130 H3126 0.949 . S
C3130 C3138 1.574 . S
C3130 C3146 1.368 . S
H3131 C3139 0.950 . S
H3132 C3137 0.950 . S
H3133 C3138 0.949 . S
H3134 C3140 0.950 . S
H3135 C3141 0.950 . S
H3136 C3142 0.949 . S
C3137 H3132 0.950 . S
C3137 C3139 1.327 . S
C3137 C3143 1.429 . S
C3138 C3130 1.574 . S
C3138 H3133 0.949 . S
C3138 C3144 1.368 . S
C3139 C3123 1.349 . S
C3139 H3131 0.950 . S
C3139 C3137 1.327 . S
C3140 C3128 1.349 . S
C3140 H3134 0.950 . S
C3140 C3141 1.327 . S
C3141 H3135 0.950 . S
C3141 C3140 1.327 . S
C3141 C3145 1.429 . S
C3142 C3125 1.574 . S
C3142 H3136 0.949 . S
C3142 C3146 1.368 . S
C3143 C3124 1.429 . S
C3143 C3137 1.429 . S
C3143 C3144 1.523 . S
C3144 C3125 1.368 . S
C3144 C3138 1.368 . S
C3144 C3143 1.523 . S
C3145 C3129 1.429 . S
C3145 C3141 1.429 . S
C3145 C3146 1.523 . S
C3146 C3130 1.368 . S
C3146 C3142 1.368 . S
C3146 C3145 1.523 . S
H3147 C3122 0.950 . S
H3148 C3124 0.950 . S
H3149 C3125 0.949 . S
H3150 C3127 0.950 . S
H3151 C3129 0.950 . S
C3152 C3153 1.349 . S
C3152 C3154 1.327 . S
C3152 H3177 0.950 . S
C3153 C3152 1.349 . S
C3153 C3169 1.349 . S
C3154 C3152 1.327 . S
C3154 C3173 1.429 . S
C3154 H3178 0.950 . S
C3155 C3172 1.574 . S
C3155 C3174 1.368 . S
C3155 H3179 0.949 . S
H3156 C3160 0.949 . S
C3157 C3158 1.349 . S
C3157 C3159 1.327 . S
C3157 H3180 0.950 . S
C3158 C3157 1.349 . S
C3158 C3170 1.349 . S
C3159 C3157 1.327 . S
C3159 C3175 1.429 . S
C3159 H3181 0.950 . S
C3160 H3156 0.949 . S
C3160 C3168 1.574 . S
C3160 C3176 1.368 . S
H3161 C3169 0.950 . S
H3162 C3167 0.950 . S
H3163 C3168 0.949 . S
H3164 C3170 0.950 . S
H3165 C3171 0.950 . S
H3166 C3172 0.949 . S
C3167 H3162 0.950 . S
C3167 C3169 1.327 . S
C3167 C3173 1.429 . S
C3168 C3160 1.574 . S
C3168 H3163 0.949 . S
C3168 C3174 1.368 . S
C3169 C3153 1.349 . S
C3169 H3161 0.950 . S
C3169 C3167 1.327 . S
C3170 C3158 1.349 . S
C3170 H3164 0.950 . S
C3170 C3171 1.327 . S
C3171 H3165 0.950 . S
C3171 C3170 1.327 . S
C3171 C3175 1.429 . S
C3172 C3155 1.574 . S
C3172 H3166 0.949 . S
C3172 C3176 1.368 . S
C3173 C3154 1.429 . S
C3173 C3167 1.429 . S
C3173 C3174 1.523 . S
C3174 C3155 1.368 . S
C3174 C3168 1.368 . S
C3174 C3173 1.523 . S
C3175 C3159 1.429 . S
C3175 C3171 1.429 . S
C3175 C3176 1.523 . S
C3176 C3160 1.368 . S
C3176 C3172 1.368 . S
C3176 C3175 1.523 . S
H3177 C3152 0.950 . S
H3178 C3154 0.950 . S
H3179 C3155 0.949 . S
H3180 C3157 0.950 . S
H3181 C3159 0.950 . S
C3182 C3183 1.349 . S
C3182 C3184 1.327 . S
C3182 H3207 0.950 . S
C3183 C3182 1.349 . S
C3183 C3199 1.349 . S
C3184 C3182 1.327 . S
C3184 C3203 1.429 . S
C3184 H3208 0.950 . S
C3185 C3202 1.574 . S
C3185 C3204 1.368 . S
C3185 H3209 0.949 . S
H3186 C3190 0.949 . S
C3187 C3188 1.349 . S
C3187 C3189 1.327 . S
C3187 H3210 0.950 . S
C3188 C3187 1.349 . S
C3188 C3200 1.349 . S
C3189 C3187 1.327 . S
C3189 C3205 1.429 . S
C3189 H3211 0.950 . S
C3190 H3186 0.949 . S
C3190 C3198 1.574 . S
C3190 C3206 1.368 . S
H3191 C3199 0.950 . S
H3192 C3197 0.950 . S
H3193 C3198 0.949 . S
H3194 C3200 0.950 . S
H3195 C3201 0.950 . S
H3196 C3202 0.949 . S
C3197 H3192 0.950 . S
C3197 C3199 1.327 . S
C3197 C3203 1.429 . S
C3198 C3190 1.574 . S
C3198 H3193 0.949 . S
C3198 C3204 1.368 . S
C3199 C3183 1.349 . S
C3199 H3191 0.950 . S
C3199 C3197 1.327 . S
C3200 C3188 1.349 . S
C3200 H3194 0.950 . S
C3200 C3201 1.327 . S
C3201 H3195 0.950 . S
C3201 C3200 1.327 . S
C3201 C3205 1.429 . S
C3202 C3185 1.574 . S
C3202 H3196 0.949 . S
C3202 C3206 1.368 . S
C3203 C3184 1.429 . S
C3203 C3197 1.429 . S
C3203 C3204 1.523 . S
C3204 C3185 1.368 . S
C3204 C3198 1.368 . S
C3204 C3203 1.523 . S
C3205 C3189 1.429 . S
C3205 C3201 1.429 . S
C3205 C3206 1.523 . S
C3206 C3190 1.368 . S
C3206 C3202 1.368 . S
C3206 C3205 1.523 . S
H3207 C3182 0.950 . S
H3208 C3184 0.950 . S
H3209 C3185 0.949 . S
H3210 C3187 0.950 . S
H3211 C3189 0.950 . S
C3212 C3213 1.349 . S
C3212 C3214 1.327 . S
C3212 H3237 0.950 . S
C3213 C3212 1.349 . S
C3213 C3229 1.349 . S
C3214 C3212 1.327 . S
C3214 C3233 1.429 . S
C3214 H3238 0.950 . S
C3215 C3232 1.574 . S
C3215 C3234 1.368 . S
C3215 H3239 0.949 . S
H3216 C3220 0.949 . S
C3217 C3218 1.349 . S
C3217 C3219 1.327 . S
C3217 H3240 0.950 . S
C3218 C3217 1.349 . S
C3218 C3230 1.349 . S
C3219 C3217 1.327 . S
C3219 C3235 1.429 . S
C3219 H3241 0.950 . S
C3220 H3216 0.949 . S
C3220 C3228 1.574 . S
C3220 C3236 1.368 . S
H3221 C3229 0.950 . S
H3222 C3227 0.950 . S
H3223 C3228 0.949 . S
H3224 C3230 0.950 . S
H3225 C3231 0.950 . S
H3226 C3232 0.949 . S
C3227 H3222 0.950 . S
C3227 C3229 1.327 . S
C3227 C3233 1.429 . S
C3228 C3220 1.574 . S
C3228 H3223 0.949 . S
C3228 C3234 1.368 . S
C3229 C3213 1.349 . S
C3229 H3221 0.950 . S
C3229 C3227 1.327 . S
C3230 C3218 1.349 . S
C3230 H3224 0.950 . S
C3230 C3231 1.327 . S
C3231 H3225 0.950 . S
C3231 C3230 1.327 . S
C3231 C3235 1.429 . S
C3232 C3215 1.574 . S
C3232 H3226 0.949 . S
C3232 C3236 1.368 . S
C3233 C3214 1.429 . S
C3233 C3227 1.429 . S
C3233 C3234 1.523 . S
C3234 C3215 1.368 . S
C3234 C3228 1.368 . S
C3234 C3233 1.523 . S
C3235 C3219 1.429 . S
C3235 C3231 1.429 . S
C3235 C3236 1.523 . S
C3236 C3220 1.368 . S
C3236 C3232 1.368 . S
C3236 C3235 1.523 . S
H3237 C3212 0.950 . S
H3238 C3214 0.950 . S
H3239 C3215 0.949 . S
H3240 C3217 0.950 . S
H3241 C3219 0.950 . S
C3242 C3243 1.349 . S
C3242 C3244 1.327 . S
C3242 H3267 0.950 . S
C3243 C3242 1.349 . S
C3243 C3259 1.349 . S
C3244 C3242 1.327 . S
C3244 C3263 1.429 . S
C3244 H3268 0.950 . S
C3245 C3262 1.574 . S
C3245 C3264 1.368 . S
C3245 H3269 0.949 . S
H3246 C3250 0.949 . S
C3247 C3248 1.349 . S
C3247 C3249 1.327 . S
C3247 H3270 0.950 . S
C3248 C3247 1.349 . S
C3248 C3260 1.349 . S
C3249 C3247 1.327 . S
C3249 C3265 1.429 . S
C3249 H3271 0.950 . S
C3250 H3246 0.949 . S
C3250 C3258 1.574 . S
C3250 C3266 1.368 . S
H3251 C3259 0.950 . S
H3252 C3257 0.950 . S
H3253 C3258 0.949 . S
H3254 C3260 0.950 . S
H3255 C3261 0.950 . S
H3256 C3262 0.949 . S
C3257 H3252 0.950 . S
C3257 C3259 1.327 . S
C3257 C3263 1.429 . S
C3258 C3250 1.574 . S
C3258 H3253 0.949 . S
C3258 C3264 1.368 . S
C3259 C3243 1.349 . S
C3259 H3251 0.950 . S
C3259 C3257 1.327 . S
C3260 C3248 1.349 . S
C3260 H3254 0.950 . S
C3260 C3261 1.327 . S
C3261 H3255 0.950 . S
C3261 C3260 1.327 . S
C3261 C3265 1.429 . S
C3262 C3245 1.574 . S
C3262 H3256 0.949 . S
C3262 C3266 1.368 . S
C3263 C3244 1.429 . S
C3263 C3257 1.429 . S
C3263 C3264 1.523 . S
C3264 C3245 1.368 . S
C3264 C3258 1.368 . S
C3264 C3263 1.523 . S
C3265 C3249 1.429 . S
C3265 C3261 1.429 . S
C3265 C3266 1.523 . S
C3266 C3250 1.368 . S
C3266 C3262 1.368 . S
C3266 C3265 1.523 . S
H3267 C3242 0.950 . S
H3268 C3244 0.950 . S
H3269 C3245 0.949 . S
H3270 C3247 0.950 . S
H3271 C3249 0.950 . S
C3272 C3273 1.349 . S
C3272 C3274 1.327 . S
C3272 H3297 0.950 . S
C3273 C3272 1.349 . S
C3273 C3289 1.349 . S
C3274 C3272 1.327 . S
C3274 C3293 1.429 . S
C3274 H3298 0.950 . S
C3275 C3292 1.574 . S
C3275 C3294 1.368 . S
C3275 H3299 0.949 . S
H3276 C3280 0.949 . S
C3277 C3278 1.349 . S
C3277 C3279 1.327 . S
C3277 H3300 0.950 . S
C3278 C3277 1.349 . S
C3278 C3290 1.349 . S
C3279 C3277 1.327 . S
C3279 C3295 1.429 . S
C3279 H3301 0.950 . S
C3280 H3276 0.949 . S
C3280 C3288 1.574 . S
C3280 C3296 1.368 . S
H3281 C3289 0.950 . S
H3282 C3287 0.950 . S
H3283 C3288 0.949 . S
H3284 C3290 0.950 . S
H3285 C3291 0.950 . S
H3286 C3292 0.949 . S
C3287 H3282 0.950 . S
C3287 C3289 1.327 . S
C3287 C3293 1.429 . S
C3288 C3280 1.574 . S
C3288 H3283 0.949 . S
C3288 C3294 1.368 . S
C3289 C3273 1.349 . S
C3289 H3281 0.950 . S
C3289 C3287 1.327 . S
C3290 C3278 1.349 . S
C3290 H3284 0.950 . S
C3290 C3291 1.327 . S
C3291 H3285 0.950 . S
C3291 C3290 1.327 . S
C3291 C3295 1.429 . S
C3292 C3275 1.574 . S
C3292 H3286 0.949 . S
C3292 C3296 1.368 . S
C3293 C3274 1.429 . S
C3293 C3287 1.429 . S
C3293 C3294 1.523 . S
C3294 C3275 1.368 . S
C3294 C3288 1.368 . S
C3294 C3293 1.523 . S
C3295 C3279 1.429 . S
C3295 C3291 1.429 . S
C3295 C3296 1.523 . S
C3296 C3280 1.368 . S
C3296 C3292 1.368 . S
C3296 C3295 1.523 . S
H3297 C3272 0.950 . S
H3298 C3274 0.950 . S
H3299 C3275 0.949 . S
H3300 C3277 0.950 . S
H3301 C3279 0.950 . S
C3302 C3303 1.349 . S
C3302 C3304 1.327 . S
C3302 H3327 0.950 . S
C3303 C3302 1.349 . S
C3303 C3319 1.349 . S
C3304 C3302 1.327 . S
C3304 C3323 1.429 . S
C3304 H3328 0.950 . S
C3305 C3322 1.574 . S
C3305 C3324 1.368 . S
C3305 H3329 0.949 . S
H3306 C3310 0.949 . S
C3307 C3308 1.349 . S
C3307 C3309 1.327 . S
C3307 H3330 0.950 . S
C3308 C3307 1.349 . S
C3308 C3320 1.349 . S
C3309 C3307 1.327 . S
C3309 C3325 1.429 . S
C3309 H3331 0.950 . S
C3310 H3306 0.949 . S
C3310 C3318 1.574 . S
C3310 C3326 1.368 . S
H3311 C3319 0.950 . S
H3312 C3317 0.950 . S
H3313 C3318 0.949 . S
H3314 C3320 0.950 . S
H3315 C3321 0.950 . S
H3316 C3322 0.949 . S
C3317 H3312 0.950 . S
C3317 C3319 1.327 . S
C3317 C3323 1.429 . S
C3318 C3310 1.574 . S
C3318 H3313 0.949 . S
C3318 C3324 1.368 . S
C3319 C3303 1.349 . S
C3319 H3311 0.950 . S
C3319 C3317 1.327 . S
C3320 C3308 1.349 . S
C3320 H3314 0.950 . S
C3320 C3321 1.327 . S
C3321 H3315 0.950 . S
C3321 C3320 1.327 . S
C3321 C3325 1.429 . S
C3322 C3305 1.574 . S
C3322 H3316 0.949 . S
C3322 C3326 1.368 . S
C3323 C3304 1.429 . S
C3323 C3317 1.429 . S
C3323 C3324 1.523 . S
C3324 C3305 1.368 . S
C3324 C3318 1.368 . S
C3324 C3323 1.523 . S
C3325 C3309 1.429 . S
C3325 C3321 1.429 . S
C3325 C3326 1.523 . S
C3326 C3310 1.368 . S
C3326 C3322 1.368 . S
C3326 C3325 1.523 . S
H3327 C3302 0.950 . S
H3328 C3304 0.950 . S
H3329 C3305 0.949 . S
H3330 C3307 0.950 . S
H3331 C3309 0.950 . S
C3332 C3333 1.349 . S
C3332 C3334 1.327 . S
C3332 H3357 0.950 . S
C3333 C3332 1.349 . S
C3333 C3349 1.349 . S
C3334 C3332 1.327 . S
C3334 C3353 1.429 . S
C3334 H3358 0.950 . S
C3335 C3352 1.574 . S
C3335 C3354 1.368 . S
C3335 H3359 0.949 . S
H3336 C3340 0.949 . S
C3337 C3338 1.349 . S
C3337 C3339 1.327 . S
C3337 H3360 0.950 . S
C3338 C3337 1.349 . S
C3338 C3350 1.349 . S
C3339 C3337 1.327 . S
C3339 C3355 1.429 . S
C3339 H3361 0.950 . S
C3340 H3336 0.949 . S
C3340 C3348 1.574 . S
C3340 C3356 1.368 . S
H3341 C3349 0.950 . S
H3342 C3347 0.950 . S
H3343 C3348 0.949 . S
H3344 C3350 0.950 . S
H3345 C3351 0.950 . S
H3346 C3352 0.949 . S
C3347 H3342 0.950 . S
C3347 C3349 1.327 . S
C3347 C3353 1.429 . S
C3348 C3340 1.574 . S
C3348 H3343 0.949 . S
C3348 C3354 1.368 . S
C3349 C3333 1.349 . S
C3349 H3341 0.950 . S
C3349 C3347 1.327 . S
C3350 C3338 1.349 . S
C3350 H3344 0.950 . S
C3350 C3351 1.327 . S
C3351 H3345 0.950 . S
C3351 C3350 1.327 . S
C3351 C3355 1.429 . S
C3352 C3335 1.574 . S
C3352 H3346 0.949 . S
C3352 C3356 1.368 . S
C3353 C3334 1.429 . S
C3353 C3347 1.429 . S
C3353 C3354 1.523 . S
C3354 C3335 1.368 . S
C3354 C3348 1.368 . S
C3354 C3353 1.523 . S
C3355 C3339 1.429 . S
C3355 C3351 1.429 . S
C3355 C3356 1.523 . S
C3356 C3340 1.368 . S
C3356 C3352 1.368 . S
C3356 C3355 1.523 . S
H3357 C3332 0.950 . S
H3358 C3334 0.950 . S
H3359 C3335 0.949 . S
H3360 C3337 0.950 . S
H3361 C3339 0.950 . S
C3362 C3363 1.349 . S
C3362 C3364 1.327 . S
C3362 H3387 0.950 1_554 S
C3363 C3362 1.349 . S
C3363 C3379 1.349 . S
C3364 C3362 1.327 . S
C3364 C3383 1.429 . S
C3364 H3388 0.926 1_554 S
C3365 C3382 1.574 . S
C3365 C3384 1.368 . S
C3365 H3389 0.949 . S
H3366 C3370 0.949 . S
C3367 C3368 1.349 . S
C3367 C3369 1.327 . S
C3367 H3390 0.950 . S
C3368 C3367 1.349 . S
C3368 C3380 1.349 . S
C3369 C3367 1.327 . S
C3369 C3385 1.429 . S
C3369 H3391 0.950 . S
C3370 H3366 0.949 . S
C3370 C3378 1.574 . S
C3370 C3386 1.368 . S
H3371 C3379 0.950 . S
H3372 C3377 0.950 . S
H3373 C3378 0.951 1_556 S
H3374 C3380 0.950 . S
H3375 C3381 0.950 . S
H3376 C3382 0.949 . S
C3377 H3372 0.950 . S
C3377 C3379 1.327 . S
C3377 C3383 1.429 . S
C3378 C3370 1.574 . S
C3378 H3373 0.951 1_554 S
C3378 C3384 1.368 . S
C3379 C3363 1.349 . S
C3379 H3371 0.950 . S
C3379 C3377 1.327 . S
C3380 C3368 1.349 . S
C3380 H3374 0.950 . S
C3380 C3381 1.327 . S
C3381 H3375 0.950 . S
C3381 C3380 1.327 . S
C3381 C3385 1.429 . S
C3382 C3365 1.574 . S
C3382 H3376 0.949 . S
C3382 C3386 1.368 . S
C3383 C3364 1.429 . S
C3383 C3377 1.429 . S
C3383 C3384 1.523 . S
C3384 C3365 1.368 . S
C3384 C3378 1.368 . S
C3384 C3383 1.523 . S
C3385 C3369 1.429 . S
C3385 C3381 1.429 . S
C3385 C3386 1.523 . S
C3386 C3370 1.368 . S
C3386 C3382 1.368 . S
C3386 C3385 1.523 . S
H3387 C3362 0.950 1_556 S
H3388 C3364 0.926 1_556 S
H3389 C3365 0.949 . S
H3390 C3367 0.950 . S
H3391 C3369 0.950 . S
C3392 C3393 1.349 . S
C3392 C3394 1.327 . S
C3392 H3417 0.950 . S
C3393 C3392 1.349 . S
C3393 C3409 1.349 . S
C3394 C3392 1.327 . S
C3394 C3413 1.429 . S
C3394 H3418 0.950 . S
C3395 C3412 1.574 . S
C3395 C3414 1.368 . S
C3395 H3419 0.949 . S
H3396 C3400 0.949 . S
C3397 C3398 1.349 . S
C3397 C3399 1.327 . S
C3397 H3420 0.950 . S
C3398 C3397 1.349 . S
C3398 C3410 1.349 . S
C3399 C3397 1.327 . S
C3399 C3415 1.429 . S
C3399 H3421 0.950 . S
C3400 H3396 0.949 . S
C3400 C3408 1.574 . S
C3400 C3416 1.368 . S
H3401 C3409 0.950 . S
H3402 C3407 0.950 . S
H3403 C3408 0.949 . S
H3404 C3410 0.950 . S
H3405 C3411 0.950 . S
H3406 C3412 0.949 . S
C3407 H3402 0.950 . S
C3407 C3409 1.327 . S
C3407 C3413 1.429 . S
C3408 C3400 1.574 . S
C3408 H3403 0.949 . S
C3408 C3414 1.368 . S
C3409 C3393 1.349 . S
C3409 H3401 0.950 . S
C3409 C3407 1.327 . S
C3410 C3398 1.349 . S
C3410 H3404 0.950 . S
C3410 C3411 1.327 . S
C3411 H3405 0.950 . S
C3411 C3410 1.327 . S
C3411 C3415 1.429 . S
C3412 C3395 1.574 . S
C3412 H3406 0.949 . S
C3412 C3416 1.368 . S
C3413 C3394 1.429 . S
C3413 C3407 1.429 . S
C3413 C3414 1.523 . S
C3414 C3395 1.368 . S
C3414 C3408 1.368 . S
C3414 C3413 1.523 . S
C3415 C3399 1.429 . S
C3415 C3411 1.429 . S
C3415 C3416 1.523 . S
C3416 C3400 1.368 . S
C3416 C3412 1.368 . S
C3416 C3415 1.523 . S
H3417 C3392 0.950 . S
H3418 C3394 0.950 . S
H3419 C3395 0.949 . S
H3420 C3397 0.950 . S
H3421 C3399 0.950 . S
C3422 C3423 1.349 . S
C3422 C3424 1.327 . S
C3422 H3447 0.950 . S
C3423 C3422 1.349 . S
C3423 C3439 1.349 . S
C3424 C3422 1.327 . S
C3424 C3443 1.429 . S
C3424 H3448 0.950 . S
C3425 C3442 1.574 . S
C3425 C3444 1.368 . S
C3425 H3449 0.949 . S
H3426 C3430 0.949 . S
C3427 C3428 1.349 1_556 S
C3427 C3429 1.333 . S
C3427 H3450 0.950 . S
C3428 C3427 1.349 1_554 S
C3428 C3440 1.349 . S
C3429 C3427 1.333 . S
C3429 C3445 1.401 1_556 S
C3429 H3451 0.974 . S
C3430 H3426 0.949 . S
C3430 C3438 1.574 . S
C3430 C3446 1.368 . S
H3431 C3439 0.950 . S
H3432 C3437 0.950 . S
H3433 C3438 0.949 . S
H3434 C3440 0.950 . S
H3435 C3441 0.950 . S
H3436 C3442 0.949 1_556 S
C3437 H3432 0.950 . S
C3437 C3439 1.327 . S
C3437 C3443 1.429 . S
C3438 C3430 1.574 . S
C3438 H3433 0.949 . S
C3438 C3444 1.368 . S
C3439 C3423 1.349 . S
C3439 H3431 0.950 . S
C3439 C3437 1.327 . S
C3440 C3428 1.349 . S
C3440 H3434 0.950 . S
C3440 C3441 1.327 . S
C3441 H3435 0.950 . S
C3441 C3440 1.327 . S
C3441 C3445 1.429 . S
C3442 C3425 1.574 . S
C3442 H3436 0.949 1_554 S
C3442 C3446 1.368 . S
C3443 C3424 1.429 . S
C3443 C3437 1.429 . S
C3443 C3444 1.523 . S
C3444 C3425 1.368 . S
C3444 C3438 1.368 . S
C3444 C3443 1.523 . S
C3445 C3429 1.401 1_554 S
C3445 C3441 1.429 . S
C3445 C3446 1.523 . S
C3446 C3430 1.368 . S
C3446 C3442 1.368 . S
C3446 C3445 1.523 . S
H3447 C3422 0.950 . S
H3448 C3424 0.950 . S
H3449 C3425 0.949 . S
H3450 C3427 0.950 . S
H3451 C3429 0.974 . S
C3452 C3453 1.349 . S
C3452 C3454 1.327 . S
C3452 H3477 0.950 . S
C3453 C3452 1.349 . S
C3453 C3469 1.349 . S
C3454 C3452 1.327 . S
C3454 C3473 1.429 . S
C3454 H3478 0.950 . S
C3455 C3472 1.574 . S
C3455 C3474 1.368 . S
C3455 H3479 0.949 . S
H3456 C3460 0.949 . S
C3457 C3458 1.349 . S
C3457 C3459 1.327 . S
C3457 H3480 0.950 . S
C3458 C3457 1.349 . S
C3458 C3470 1.349 . S
C3459 C3457 1.327 . S
C3459 C3475 1.429 . S
C3459 H3481 0.950 . S
C3460 H3456 0.949 . S
C3460 C3468 1.574 . S
C3460 C3476 1.368 . S
H3461 C3469 0.950 . S
H3462 C3467 0.950 . S
H3463 C3468 0.949 . S
H3464 C3470 0.950 . S
H3465 C3471 0.950 . S
H3466 C3472 0.949 . S
C3467 H3462 0.950 . S
C3467 C3469 1.327 . S
C3467 C3473 1.429 . S
C3468 C3460 1.574 . S
C3468 H3463 0.949 . S
C3468 C3474 1.368 . S
C3469 C3453 1.349 . S
C3469 H3461 0.950 . S
C3469 C3467 1.327 . S
C3470 C3458 1.349 . S
C3470 H3464 0.950 . S
C3470 C3471 1.327 . S
C3471 H3465 0.950 . S
C3471 C3470 1.327 . S
C3471 C3475 1.429 . S
C3472 C3455 1.574 . S
C3472 H3466 0.949 . S
C3472 C3476 1.368 . S
C3473 C3454 1.429 . S
C3473 C3467 1.429 . S
C3473 C3474 1.523 . S
C3474 C3455 1.368 . S
C3474 C3468 1.368 . S
C3474 C3473 1.523 . S
C3475 C3459 1.429 . S
C3475 C3471 1.429 . S
C3475 C3476 1.523 . S
C3476 C3460 1.368 . S
C3476 C3472 1.368 . S
C3476 C3475 1.523 . S
H3477 C3452 0.950 . S
H3478 C3454 0.950 . S
H3479 C3455 0.949 . S
H3480 C3457 0.950 . S
H3481 C3459 0.950 . S
C3482 C3483 1.349 . S
C3482 C3484 1.327 . S
C3482 H3507 0.950 . S
C3483 C3482 1.349 . S
C3483 C3499 1.349 . S
C3484 C3482 1.327 . S
C3484 C3503 1.429 . S
C3484 H3508 0.950 . S
C3485 C3502 1.574 . S
C3485 C3504 1.368 . S
C3485 H3509 0.949 . S
H3486 C3490 0.949 . S
C3487 C3488 1.349 . S
C3487 C3489 1.327 . S
C3487 H3510 0.950 . S
C3488 C3487 1.349 . S
C3488 C3500 1.349 . S
C3489 C3487 1.327 . S
C3489 C3505 1.429 . S
C3489 H3511 0.950 . S
C3490 H3486 0.949 . S
C3490 C3498 1.574 . S
C3490 C3506 1.368 . S
H3491 C3499 0.950 . S
H3492 C3497 0.950 . S
H3493 C3498 0.949 . S
H3494 C3500 0.950 . S
H3495 C3501 0.950 . S
H3496 C3502 0.949 . S
C3497 H3492 0.950 . S
C3497 C3499 1.327 . S
C3497 C3503 1.429 . S
C3498 C3490 1.574 . S
C3498 H3493 0.949 . S
C3498 C3504 1.368 . S
C3499 C3483 1.349 . S
C3499 H3491 0.950 . S
C3499 C3497 1.327 . S
C3500 C3488 1.349 . S
C3500 H3494 0.950 . S
C3500 C3501 1.327 . S
C3501 H3495 0.950 . S
C3501 C3500 1.327 . S
C3501 C3505 1.429 . S
C3502 C3485 1.574 . S
C3502 H3496 0.949 . S
C3502 C3506 1.368 . S
C3503 C3484 1.429 . S
C3503 C3497 1.429 . S
C3503 C3504 1.523 . S
C3504 C3485 1.368 . S
C3504 C3498 1.368 . S
C3504 C3503 1.523 . S
C3505 C3489 1.429 . S
C3505 C3501 1.429 . S
C3505 C3506 1.523 . S
C3506 C3490 1.368 . S
C3506 C3502 1.368 . S
C3506 C3505 1.523 . S
H3507 C3482 0.950 . S
H3508 C3484 0.950 . S
H3509 C3485 0.949 . S
H3510 C3487 0.950 . S
H3511 C3489 0.950 . S
C633 C101 1.341 . S
C638 C316 1.203 1_556 S
C663 C57 1.428 . S
C668 C351 1.439 . S
C693 C73 0.999 . S
C698 C356 0.963 . S
C728 C381 1.359 . S
C723 C78 1.385 . S
C753 C21 1.499 . S
C758 C401 1.470 . S
C788 C416 0.924 . S
C783 C31 0.968 . S
C818 C451 1.466 . S
C813 C49 1.498 . S
C843 C0 1.211 . S
C848 C456 1.130 . S
C878 C331 1.420 . S
C873 C218 1.457 . S
C903 C229 0.882 . S
C908 C341 0.874 . S
C938 C371 1.400 . S
C933 C257 1.431 . S
C968 C376 1.043 . S
C963 C164 1.080 1_556 S
C993 C216 1.071 . S
C998 C396 1.032 . S
C1028 C431 1.402 . S
C1023 C231 1.433 . S
C1058 C441 0.888 . S
C1053 C255 0.882 1_565 S
C1088 C471 1.398 . S
C1083 C166 1.447 . S
C1118 C321 1.235 . S
C1113 C143 1.287 . S
C1143 C265 1.716 1_556 S
C1148 C491 1.735 . S
C1178 C501 1.325 . S
C1173 C299 1.362 . S
C1208 C516 0.924 . S
C1203 C291 0.966 . S
C1233 C104 1.213 . S
C1238 C461 1.160 . S
C1263 C117 1.416 . S
C1268 C361 1.382 . S
C1293 C304 1.645 . S
C1298 C551 1.661 . S
C1328 C556 0.865 . S
C1323 C278 0.898 . S
C1358 C314 1.169 . S
C1353 C60 1.302 . S
C1388 C570 1.340 . S
C1383 C96 1.352 . S
C1413 C88 0.937 . S
C1418 C354 0.886 . S
C1443 C65 1.308 . S
C1448 C544 1.269 . S
C1478 C404 1.367 . S
C1473 C10 1.437 . S
C1503 C44 0.897 . S
C1508 C494 0.862 . S
C1538 C450 1.376 . S
C1533 C34 1.361 . S
C1568 C574 1.075 . S
C1563 C13 1.196 . S
C1598 C330 1.330 1_565 S
C1593 C138 1.366 . S
C1628 C564 0.785 . S
C1623 C296 0.794 . S
C1653 C112 1.305 . S
C1658 C370 1.316 . S
C1683 C270 1.030 . S
C1688 C534 0.957 . S
C1713 C140 1.009 . S
C1718 C394 0.946 . S
C1748 C510 1.316 . S
C1743 C294 1.303 . S
C1773 C114 0.821 . S
C1778 C444 0.806 1_565 S
C1803 C268 1.360 . S
C1808 C590 1.330 . S
C1833 C169 1.271 . S
C1838 C324 1.180 1_556 S
C1863 C161 1.651 . S
C1868 C490 1.646 . S
C1893 C234 1.342 . S
C1898 C424 1.258 . S
C1923 C226 0.882 . S
C1928 C514 0.852 . S
C1958 C584 1.098 . S
C1953 C247 1.188 . S
C1983 C195 1.384 . S
C1988 C364 1.305 . S
C2018 C390 1.563 . S
C2013 C239 1.575 . S
C2048 C334 0.800 . S
C2043 C187 0.817 . S
C2073 C75 1.342 . S
C2078 C596 1.215 . S
C2108 C571 1.439 . S
C2103 C83 1.428 . S
C2133 C99 1.011 . S
C2138 C616 0.963 . S
C2163 C52 1.385 . S
C2168 C541 1.359 . S
C2193 C47 1.499 . S
C2198 C481 1.470 . S
C2228 C496 0.924 . S
C2223 C5 0.968 . S
C2258 C531 1.466 . S
C2253 C23 1.498 . S
C2288 C576 1.130 . S
C2283 C26 1.211 . S
C2318 C611 1.407 . S
C2313 C244 1.457 . S
C2343 C177 0.882 . S
C2348 C561 0.874 . S
C2378 C631 1.400 . S
C2373 C192 1.432 . S
C2408 C536 1.043 . S
C2403 C203 1.080 . S
C2438 C476 1.033 . S
C2433 C242 1.071 . S
C2463 C179 1.433 . S
C2468 C511 1.402 . S
C2498 C521 0.888 . S
C2493 C190 0.897 . S
C2523 C205 1.447 . S
C2528 C591 1.398 . S
C2558 C601 1.235 . S
C2553 C286 1.287 . S
C2583 C122 1.716 . S
C2588 C411 1.737 . S
C2618 C421 1.325 . S
C2613 C130 1.362 . S
C2648 C436 0.924 . S
C2643 C148 0.966 . S
C2678 C581 1.160 . S
C2673 C273 1.213 . S
C2703 C260 1.418 . S
C2708 C621 1.383 . S
C2738 C391 1.661 . S
C2733 C135 1.645 . S
C2768 C336 0.865 . S
C2763 C109 0.898 . S
C2793 C86 1.301 . S
C2798 C594 1.169 . S
C2828 C350 1.340 . S
C2823 C70 1.352 . S
C2853 C62 0.937 . S
C2858 C614 0.886 . S
C2883 C91 1.308 . S
C2888 C384 1.269 . S
C2913 C36 1.437 . S
C2918 C484 1.367 . S
C2948 C414 0.862 . S
C2943 C18 0.897 . S
C2973 C8 1.361 . S
C2978 C530 1.376 . S
C3003 C39 1.196 . S
C3008 C454 1.075 . S
C3038 C610 1.330 . S
C3033 C307 1.366 . S
C3063 C153 0.794 . S
C3068 C344 0.785 . S
C3098 C630 1.317 1_655 S
C3093 C281 1.305 . S
C3123 C127 1.030 . S
C3128 C374 0.963 . S
C3153 C309 1.009 . S
C3158 C474 0.946 . S
C3188 C430 1.316 . S
C3183 C151 1.303 . S
C3213 C283 0.821 . S
C3218 C524 0.807 . S
C3248 C470 1.324 . S
C3243 C125 1.359 . S
C3278 C604 1.180 . S
C3273 C221 1.271 . S
C3308 C410 1.645 1_565 S
C3303 C200 1.651 . S
C3333 C208 1.342 . S
C3338 C504 1.258 . S
C3368 C434 0.852 . S
C3363 C174 0.882 . S
C3393 C182 1.184 . S
C3398 C464 1.098 . S
C3423 C156 1.384 . S
C3428 C624 1.304 . S
C3458 C550 1.563 . S
C3453 C213 1.574 . S
C3488 C554 0.800 . S
C3483 C252 0.814 . S
