# Generated by pormake.
# Topology pth, (4,4)-cn, num edge types: 1
# Building blocks:
#     Node 0, Type 0, BuildingBlock: GALJAG_clean_sbu_0, # of connection points: 4
#     Node 1, Type 0, BuildingBlock: GALJAG_clean_sbu_0, # of connection points: 4
#     Node 2, Type 0, BuildingBlock: GALJAG_clean_sbu_0, # of connection points: 4
#     Node 3, Type 1, BuildingBlock: KOZSID_clean_sbu_0, # of connection points: 4
#     Node 4, Type 1, BuildingBlock: KOZSID_clean_sbu_0, # of connection points: 4
#     Node 5, Type 1, BuildingBlock: KOZSID_clean_sbu_0, # of connection points: 4
#     Edge 6, Type (0, 1), BuildingBlock: EZIPEK_clean_linker_0, # of connection points: 2
#     Edge 7, Type (0, 1), BuildingBlock: EZIPEK_clean_linker_0, # of connection points: 2
#     Edge 8, Type (0, 1), BuildingBlock: EZIPEK_clean_linker_0, # of connection points: 2
#     Edge 9, Type (0, 1), BuildingBlock: EZIPEK_clean_linker_0, # of connection points: 2
#     Edge 10, Type (0, 1), BuildingBlock: EZIPEK_clean_linker_0, # of connection points: 2
#     Edge 11, Type (0, 1), BuildingBlock: EZIPEK_clean_linker_0, # of connection points: 2
#     Edge 12, Type (0, 1), BuildingBlock: EZIPEK_clean_linker_0, # of connection points: 2
#     Edge 13, Type (0, 1), BuildingBlock: EZIPEK_clean_linker_0, # of connection points: 2
#     Edge 14, Type (0, 1), BuildingBlock: EZIPEK_clean_linker_0, # of connection points: 2
#     Edge 15, Type (0, 1), BuildingBlock: EZIPEK_clean_linker_0, # of connection points: 2
#     Edge 16, Type (0, 1), BuildingBlock: EZIPEK_clean_linker_0, # of connection points: 2
#     Edge 17, Type (0, 1), BuildingBlock: EZIPEK_clean_linker_0, # of connection points: 2
# Relax obj value: 0.002
# Max RMSD: 0.047
# Mean RMSD: 0.027
data_MOF--net-pth--node1-GALJAG_clean_sbu_0--node2-KOZSID_clean_sbu_0--edge1-EZIPEK_clean_linker_0
_symmetry_space_group_name_H-M    P1
_symmetry_Int_Tables_number       1
_symmetry_cell_setting            triclinic
loop_
_symmetry_equiv_pos_as_xyz
'x, y, z'
_cell_length_a     20.477831
_cell_length_b     20.47649
_cell_length_c     44.734391
_cell_angle_alpha  86.649549
_cell_angle_beta   86.666837
_cell_angle_gamma 120.03013
loop_
_atom_site_label
_atom_site_type_symbol
_atom_site_fract_x
_atom_site_fract_y
_atom_site_fract_z
_atom_type_partial_charge
In0 In 0.09515 0.06737 0.04968 0.0
O1 O 0.03539 0.13412 0.06125 0.0
O2 O 0.1147 0.13553 0.09017 0.0
C3 C 0.97885 0.97277 0.01961 0.0
C4 C 0.21804 0.173 0.013 0.0
C5 C 0.10432 0.95763 0.08367 0.0
O6 O 0.96807 0.98863 0.04573 0.0
O7 O 0.04718 0.0066 0.00848 0.0
O8 O 0.08987 0.95263 0.05666 0.0
O9 O 0.11782 0.01951 0.09317 0.0
C10 C 0.07063 0.15938 0.08399 0.0
O11 O 0.22258 0.12956 0.03288 0.0
O12 O 0.15231 0.16164 0.01098 0.0
In13 In 0.06915 0.08942 0.38337 0.0
O14 O 0.12865 0.21277 0.36214 0.0
O15 O 0.02475 0.1333 0.34618 0.0
C16 C 0.17781 0.09606 0.41716 0.0
C17 C 0.95717 0.08218 0.42137 0.0
C18 C 0.06163 0.98046 0.34976 0.0
O19 O 0.19187 0.14601 0.39584 0.0
O20 O 0.10909 0.04464 0.42201 0.0
O21 O 0.01626 0.9656 0.37288 0.0
O22 O 0.10921 0.04988 0.34306 0.0
C23 C 0.07795 0.20123 0.34488 0.0
O24 O 0.94477 0.03375 0.40292 0.0
O25 O 0.02599 0.13212 0.42154 0.0
In26 In 0.09987 0.07465 0.71708 0.0
O27 O 0.02683 0.94847 0.73384 0.0
O28 O 0.01047 0.02704 0.75771 0.0
C29 C 0.20796 0.07085 0.6805 0.0
C30 C 1.00155 0.08743 0.68251 0.0
C31 C 0.19714 0.17879 0.75121 0.0
O32 O 0.16992 0.02074 0.70219 0.0
O33 O 0.18988 0.12104 0.67669 0.0
O34 O 0.1711 0.19668 0.72926 0.0
O35 O 0.17264 0.10878 0.75653 0.0
C36 C 0.99024 0.95864 0.755 0.0
O37 O 0.03553 0.13373 0.7014 0.0
O38 O 0.01938 0.0371 0.6803 0.0
C39 C 0.15669 0.71074 0.16781 0.0
C40 C 0.22817 0.76679 0.15508 0.0
C41 C 0.27937 0.75535 0.16917 0.0
C42 C 0.2366 0.69345 0.18969 0.0
N43 N 0.16099 0.66412 0.18945 0.0
Co44 Co 0.07876 0.57568 0.21652 0.0
N45 N 0.15475 0.56489 0.23946 0.0
C46 C 0.23087 0.61091 0.23584 0.0
C47 C 0.26843 0.58925 0.25477 0.0
C48 C 0.21305 0.5249 0.27126 0.0
C49 C 0.14474 0.51092 0.26127 0.0
N50 N 0.99685 0.48506 0.24277 0.0
C51 C 1.00204 0.43606 0.26297 0.0
C52 C 0.93111 0.37653 0.27434 0.0
C53 C 0.87917 0.38769 0.2606 0.0
C54 C 0.92119 0.45294 0.24159 0.0
N55 N 1.00288 0.58853 0.19432 0.0
C56 C 0.9265 0.54676 0.19986 0.0
C57 C 0.88909 0.57089 0.18192 0.0
C58 C 0.94487 0.63267 0.16422 0.0
C59 C 0.01339 0.64276 0.17245 0.0
N60 N 0.07954 0.50517 0.1878 0.0
C61 C 0.07598 0.39484 0.15194 0.0
C62 C 0.01047 0.39737 0.15959 0.0
C63 C 0.0135 0.45263 0.17729 0.0
C64 C 0.14402 0.44984 0.16156 0.0
C65 C 0.14463 0.50444 0.17927 0.0
N66 N 0.07703 0.64593 0.24534 0.0
C67 C 0.00602 0.68341 0.27838 0.0
C68 C 0.07131 0.75187 0.28156 0.0
C69 C 0.14005 0.76549 0.26728 0.0
C70 C 0.14176 0.71187 0.24964 0.0
C71 C 0.01006 0.6318 0.2603 0.0
H72 H 0.19597 0.72558 0.23936 0.0
H73 H 0.95785 0.58145 0.25845 0.0
H74 H 0.96125 0.45072 0.18258 0.0
H75 H 0.19803 0.54472 0.18625 0.0
C76 C 0.26571 0.66803 0.21204 0.0
C77 C 0.08677 0.70668 0.15971 0.0
C78 C 0.0727 0.4427 0.27156 0.0
C79 C 0.89168 0.48439 0.22171 0.0
H80 H 0.24219 0.81273 0.13802 0.0
H81 H 0.34054 0.79018 0.16584 0.0
H82 H 0.32906 0.61515 0.25552 0.0
H83 H 0.22205 0.49055 0.28797 0.0
H84 H 0.91839 0.32938 0.29057 0.0
H85 H 0.81811 0.35159 0.26359 0.0
H86 H 0.82847 0.54682 0.18189 0.0
H87 H 0.93621 0.66718 0.14747 0.0
H88 H 0.95682 0.35606 0.15226 0.0
H89 H 0.19621 0.44999 0.15578 0.0
H90 H 0.95173 0.67047 0.28936 0.0
H91 H 0.19215 0.81766 0.26952 0.0
C92 C 0.45016 0.01163 0.59825 0.0
C93 C 0.39121 0.94129 0.61059 0.0
C94 C 0.4003 0.88832 0.59678 0.0
C95 C 0.46386 0.92917 0.57684 0.0
N96 N 0.49693 0.00509 0.57743 0.0
Co97 Co 0.58636 0.08541 0.55022 0.0
N98 N 0.5965 0.00745 0.52842 0.0
C99 C 0.5531 0.93123 0.5341 0.0
C100 C 0.57681 0.89222 0.51696 0.0
C101 C 0.64011 0.94674 0.49965 0.0
C102 C 0.6512 0.01608 0.50724 0.0
N103 N 0.67421 0.16566 0.52236 0.0
C104 C 0.71973 0.15918 0.50091 0.0
C105 C 0.77508 0.22941 0.48697 0.0
C106 C 0.76506 0.28233 0.50045 0.0
C107 C 0.70425 0.24155 0.52171 0.0
N108 N 0.57781 0.1633 0.57268 0.0
C109 C 0.62382 0.23942 0.56807 0.0
C110 C 0.60313 0.2783 0.58668 0.0
C111 C 0.5396 0.22385 0.60399 0.0
C112 C 0.52506 0.15468 0.59482 0.0
N113 N 0.65795 0.0848 0.57852 0.0
C114 C 0.76607 0.08357 0.61456 0.0
C115 C 0.7768 0.15137 0.60066 0.0
C116 C 0.72221 0.15081 0.5831 0.0
C117 C 0.69958 0.01648 0.61092 0.0
C118 C 0.64666 0.01832 0.59288 0.0
N119 N 0.51485 0.08629 0.52189 0.0
C120 C 0.46323 0.15394 0.49519 0.0
C121 C 0.40637 0.08684 0.48585 0.0
C122 C 0.40555 0.01962 0.49405 0.0
C123 C 0.45988 0.02056 0.51201 0.0
C124 C 0.51681 0.15252 0.51282 0.0
H125 H 0.4556 0.96731 0.51794 0.0
H126 H 0.55858 0.20571 0.51919 0.0
H127 H 0.73397 0.2045 0.5731 0.0
H128 H 0.59762 0.96517 0.59053 0.0
C129 C 0.49234 0.89807 0.55655 0.0
C130 C 0.45764 0.08288 0.60633 0.0
C131 C 0.71602 0.08841 0.49446 0.0
C132 C 0.68016 0.27272 0.54378 0.0
H133 H 0.34556 0.92957 0.62743 0.0
H134 H 0.36386 0.82734 0.60033 0.0
H135 H 0.55217 0.83141 0.51756 0.0
H136 H 0.67508 0.93665 0.48369 0.0
H137 H 0.81967 0.24115 0.46959 0.0
H138 H 0.8001 0.34336 0.49621 0.0
H139 H 0.62916 0.33913 0.58676 0.0
H140 H 0.5062 0.23391 0.62074 0.0
H141 H 0.8275 0.20461 0.60317 0.0
H142 H 0.68924 0.96276 0.62151 0.0
H143 H 0.46595 0.20729 0.48905 0.0
H144 H 0.36236 0.96643 0.48708 0.0
C145 C 0.73847 0.64216 0.83786 0.0
C146 C 0.79612 0.6312 0.82615 0.0
C147 C 0.78568 0.56624 0.84116 0.0
C148 C 0.72236 0.54122 0.86098 0.0
N149 N 0.69115 0.58578 0.85935 0.0
Co150 Co 0.5987 0.5702 0.88414 0.0
N151 N 0.58972 0.48064 0.90892 0.0
C152 C 0.63809 0.45386 0.90707 0.0
C153 C 0.6174 0.39182 0.92707 0.0
C154 C 0.55139 0.37757 0.94246 0.0
C155 C 0.5355 0.43178 0.93076 0.0
N156 N 0.5042 0.55228 0.9081 0.0
C157 C 0.45594 0.49422 0.9289 0.0
C158 C 0.39349 0.50009 0.93832 0.0
C159 C 0.40208 0.56365 0.92267 0.0
C160 C 0.46884 0.59266 0.90457 0.0
N161 N 0.61015 0.66208 0.86023 0.0
C162 C 0.56518 0.69254 0.86363 0.0
C163 C 0.59033 0.75881 0.84563 0.0
C164 C 0.65616 0.77239 0.83021 0.0
C165 C 0.66718 0.7132 0.83966 0.0
N166 N 0.5333 0.50248 0.8549 0.0
C167 C 0.42795 0.39851 0.81902 0.0
C168 C 0.42912 0.46553 0.82404 0.0
C169 C 0.48188 0.51636 0.8418 0.0
C170 C 0.48219 0.38544 0.83114 0.0
C171 C 0.5344 0.4381 0.84874 0.0
N172 N 0.66329 0.63814 0.91344 0.0
C173 C 0.69212 0.73946 0.94512 0.0
C174 C 0.76045 0.74427 0.95081 0.0
C175 C 0.77853 0.69358 0.93841 0.0
C176 C 0.72925 0.64097 0.92002 0.0
C177 C 0.64479 0.68646 0.92656 0.0
H178 H 0.74616 0.60395 0.91101 0.0
H179 H 0.59409 0.68666 0.92282 0.0
H180 H 0.47876 0.56578 0.84503 0.0
H181 H 0.57419 0.42489 0.85758 0.0
C182 C 0.69702 0.48241 0.88396 0.0
C183 C 0.73393 0.70934 0.82918 0.0
C184 C 0.46569 0.43123 0.9397 0.0
C185 C 0.49997 0.65759 0.88407 0.0
H186 H 0.84235 0.66778 0.80921 0.0
H187 H 0.82194 0.54207 0.83886 0.0
H188 H 0.64526 0.35895 0.92931 0.0
H189 H 0.51741 0.33104 0.95965 0.0
H190 H 0.34614 0.46178 0.95452 0.0
H191 H 0.36368 0.58549 0.92402 0.0
H192 H 0.56455 0.79377 0.84425 0.0
H193 H 0.69261 0.82092 0.81417 0.0
H194 H 0.38842 0.47798 0.81471 0.0
H195 H 0.4835 0.33429 0.82741 0.0
H196 H 0.67595 0.77747 0.95457 0.0
H197 H 0.83091 0.69527 0.94258 0.0
C198 C 0.0366 0.20048 0.13134 0.0
C199 C 0.06684 0.2182 0.1007 0.0
C200 C 0.09662 0.34989 0.10293 0.0
C201 C 0.0726 0.33386 0.13422 0.0
N202 N 0.02672 0.2465 0.17923 0.0
N203 N 0.13611 0.31175 0.05828 0.0
C204 C 0.04429 0.25972 0.14871 0.0
C205 C 0.09934 0.29338 0.08667 0.0
N206 N 0.99854 0.12655 0.14355 0.0
N207 N 0.11506 0.41863 0.08858 0.0
H208 H 0.13905 0.27218 0.04547 0.0
H209 H 0.16891 0.3672 0.04824 0.0
H210 H 0.11479 0.46177 0.0998 0.0
H211 H 0.12472 0.43088 0.06528 0.0
H212 H 0.96824 0.10844 0.16476 0.0
H213 H 0.99193 0.08193 0.13144 0.0
H214 H 0.01443 0.19649 0.19172 0.0
H215 H 0.02946 0.28776 0.19254 0.0
C216 C 0.83658 0.08731 0.42594 0.0
C217 C 0.8954 0.08374 0.44002 0.0
C218 C 0.8426 0.09508 0.48888 0.0
C219 C 0.77933 0.08961 0.47535 0.0
N220 N 0.71122 0.07271 0.43164 0.0
N221 N 0.94831 0.07283 0.48557 0.0
C222 C 0.77486 0.08328 0.44404 0.0
C223 C 0.89705 0.085 0.47168 0.0
N224 N 0.84175 0.09894 0.39527 0.0
N225 N 0.85145 0.1113 0.51806 0.0
H226 H 0.98786 0.06329 0.47391 0.0
H227 H 0.9471 0.06512 0.50886 0.0
H228 H 0.81156 0.11648 0.53172 0.0
H229 H 0.90133 0.12608 0.52785 0.0
H230 H 0.80498 0.11017 0.38387 0.0
H231 H 0.88711 0.10485 0.38115 0.0
H232 H 0.70056 0.0586 0.40975 0.0
H233 H 0.66637 0.0728 0.44392 0.0
C234 C 0.92807 0.88533 0.80548 0.0
C235 C 0.92485 0.89496 0.77401 0.0
C236 C 0.79795 0.78138 0.77846 0.0
C237 C 0.79901 0.77485 0.81014 0.0
N238 N 0.85996 0.82455 0.85458 0.0
N239 N 0.85204 0.86116 0.7312 0.0
C240 C 0.86266 0.82814 0.82388 0.0
C241 C 0.85856 0.84529 0.76064 0.0
N242 N 0.99463 0.92901 0.81754 0.0
N243 N 0.73971 0.72548 0.76535 0.0
H244 H 0.89465 0.90782 0.71745 0.0
H245 H 0.80202 0.83206 0.72108 0.0
H246 H 0.69336 0.67891 0.77775 0.0
H247 H 0.73992 0.72222 0.74221 0.0
H248 H 1.0035 0.9198 0.83968 0.0
H249 H 0.04358 0.97126 0.80475 0.0
H250 H 0.90102 0.86594 0.86616 0.0
H251 H 0.81361 0.78258 0.86869 0.0
C252 C 0.06573 0.87562 0.13327 0.0
C253 C 0.1006 0.8938 0.10316 0.0
C254 C 0.11511 0.78172 0.10885 0.0
C255 C 0.09052 0.77064 0.13997 0.0
N256 N 0.05763 0.81769 0.18305 0.0
N257 N 0.17403 0.87239 0.06474 0.0
C258 C 0.07061 0.82095 0.15257 0.0
C259 C 0.12943 0.84895 0.09153 0.0
N260 N 0.02366 0.90652 0.14308 0.0
N261 N 0.12433 0.72786 0.09576 0.0
H262 H 0.19029 0.92366 0.05223 0.0
H263 H 0.20205 0.84525 0.0567 0.0
H264 H 0.11458 0.67809 0.10782 0.0
H265 H 0.135 0.72957 0.07258 0.0
H266 H 0.9916 0.88936 0.16396 0.0
H267 H 0.01288 0.94202 0.12923 0.0
H268 H 0.05104 0.85865 0.19337 0.0
H269 H 0.06088 0.77863 0.19803 0.0
C270 C 0.30124 0.09695 0.41936 0.0
C271 C 0.23748 0.0955 0.43457 0.0
C272 C 0.27959 0.0777 0.48316 0.0
C273 C 0.34716 0.08731 0.46804 0.0
N274 N 0.42756 0.11585 0.42194 0.0
N275 N 0.17312 0.09822 0.481 0.0
C276 C 0.35961 0.10005 0.43617 0.0
C277 C 0.22849 0.08942 0.46652 0.0
N278 N 0.30418 0.09102 0.38908 0.0
N279 N 0.26346 0.05583 0.51338 0.0
H280 H 0.13608 0.10924 0.46963 0.0
H281 H 0.16862 0.10212 0.50405 0.0
H282 H 0.29946 0.04655 0.52623 0.0
H283 H 0.21158 0.04024 0.52518 0.0
H284 H 0.3449 0.08333 0.37738 0.0
H285 H 0.26189 0.08645 0.37598 0.0
H286 H 0.44347 0.13445 0.39912 0.0
H287 H 0.47046 0.11567 0.43337 0.0
C288 C 0.23578 0.24482 0.7981 0.0
C289 C 0.25578 0.23587 0.76837 0.0
C290 C 0.38759 0.33637 0.77114 0.0
C291 C 0.36883 0.3418 0.8016 0.0
N292 N 0.27776 0.2962 0.84544 0.0
N293 N 0.35174 0.2642 0.72781 0.0
C294 C 0.29354 0.29461 0.81546 0.0
C295 C 0.33199 0.27933 0.75519 0.0
N296 N 0.16112 0.20739 0.80938 0.0
N297 N 0.45793 0.38746 0.75717 0.0
H298 H 0.31252 0.2239 0.71519 0.0
H299 H 0.40757 0.28729 0.71854 0.0
H300 H 0.50034 0.42941 0.7682 0.0
H301 H 0.47261 0.39221 0.73415 0.0
H302 H 0.1414 0.21739 0.82957 0.0
H303 H 0.11759 0.16986 0.79743 0.0
H304 H 0.22665 0.25739 0.85784 0.0
H305 H 0.31786 0.33351 0.85861 0.0
C306 C 0.94676 0.08649 0.63349 0.0
C307 C 0.94227 0.089 0.66517 0.0
C308 C 0.8243 0.09275 0.66343 0.0
C309 C 0.82538 0.08314 0.63229 0.0
N310 N 0.87962 0.05618 0.58884 0.0
N311 N 0.86793 0.07803 0.71118 0.0
C312 C 0.88426 0.07556 0.61767 0.0
C313 C 0.87881 0.08806 0.68043 0.0
N314 N 0.01203 0.09777 0.61828 0.0
N315 N 0.77149 0.1069 0.67676 0.0
H316 H 0.90458 0.07136 0.72458 0.0
H317 H 0.81867 0.06877 0.7234 0.0
H318 H 0.72893 0.10785 0.66534 0.0
H319 H 0.77329 0.12318 0.69847 0.0
H320 H 0.02143 0.10415 0.59488 0.0
H321 H 0.05999 0.10848 0.62887 0.0
H322 H 0.91669 0.04216 0.57801 0.0
H323 H 0.83439 0.04717 0.57669 0.0
C324 C 0.90464 0.93697 0.97472 0.0
C325 C 0.91731 0.91523 0.00352 0.0
C326 C 0.81986 0.78292 0.9993 0.0
C327 C 0.81345 0.80342 0.96922 0.0
N328 N 0.85495 0.89839 0.92689 0.0
N329 N 0.89466 0.81604 0.04183 0.0
C330 C 0.85711 0.88015 0.95657 0.0
C331 C 0.87656 0.83785 0.01558 0.0
N332 N 0.93627 0.01224 0.96512 0.0
N333 N 0.77051 0.71129 0.01256 0.0
H334 H 0.9354 0.85407 0.05459 0.0
H335 H 0.87362 0.7596 0.04981 0.0
H336 H 0.72875 0.66943 1.00127 0.0
H337 H 0.76664 0.69516 0.0354 0.0
H338 H 0.92317 0.03215 0.94576 0.0
H339 H 0.97054 0.05529 0.978 0.0
H340 H 0.89202 0.95134 0.91534 0.0
H341 H 0.81962 0.85886 0.91305 0.0
C342 C 0.09937 0.88245 0.34341 0.0
C343 C 0.0622 0.92068 0.33273 0.0
C344 C 0.0343 0.8513 0.28785 0.0
C345 C 0.06733 0.80951 0.29942 0.0
N346 N 0.11978 0.7759 0.3404 0.0
N347 N 0.9856 0.9356 0.29722 0.0
C348 C 0.09681 0.82259 0.32782 0.0
C349 C 0.02718 0.9034 0.30561 0.0
N350 N 0.13898 0.90487 0.36802 0.0
N351 N 0.012 0.84293 0.25944 0.0
H352 H 0.98057 0.97511 0.30938 0.0
H353 H 0.95154 0.91933 0.27957 0.0
H354 H 0.01469 0.80425 0.24605 0.0
H355 H 0.9958 0.87773 0.24824 0.0
H356 H 0.17477 0.88574 0.37487 0.0
H357 H 0.14058 0.9471 0.38047 0.0
H358 H 0.13415 0.77706 0.36239 0.0
H359 H 0.1185 0.73137 0.32974 0.0
C360 C 0.33359 0.07561 0.67541 0.0
C361 C 0.27157 0.07311 0.66166 0.0
C362 C 0.33692 0.08778 0.61176 0.0
C363 C 0.39469 0.08202 0.62556 0.0
N364 N 0.44496 0.06234 0.67037 0.0
N365 N 0.20841 0.06468 0.61694 0.0
C366 C 0.39202 0.07342 0.65738 0.0
C367 C 0.27183 0.07633 0.62985 0.0
N368 N 0.33891 0.08429 0.70542 0.0
N369 N 0.34483 0.10552 0.58135 0.0
H370 H 0.15887 0.05413 0.62941 0.0
H371 H 0.20227 0.05836 0.59416 0.0
H372 H 0.39027 0.11167 0.56718 0.0
H373 H 0.30978 0.12044 0.57055 0.0
H374 H 0.38675 0.09494 0.716 0.0
H375 H 0.29851 0.08798 0.71934 0.0
H376 H 0.44098 0.04665 0.69327 0.0
H377 H 0.49037 0.06363 0.65793 0.0
C378 C 0.33115 0.30435 0.0081 0.0
C379 C 0.28484 0.23671 0.99484 0.0
C380 C 0.35419 0.29763 0.94529 0.0
C381 C 0.40285 0.36402 0.95881 0.0
N382 N 0.44657 0.4273 0.00336 0.0
N383 N 0.25748 0.16394 0.95222 0.0
C384 C 0.39394 0.36637 0.99034 0.0
C385 C 0.29791 0.23193 0.96378 0.0
N386 N 0.31316 0.31042 0.03734 0.0
N387 N 0.3609 0.29822 0.91466 0.0
H388 H 0.21567 0.11503 0.96521 0.0
H389 H 0.26887 0.15406 0.93052 0.0
H390 H 0.40205 0.34496 0.90049 0.0
H391 H 0.32296 0.25452 0.90301 0.0
H392 H 0.33879 0.36108 0.04724 0.0
H393 H 0.26861 0.26583 0.05128 0.0
H394 H 0.44825 0.42896 0.02653 0.0
H395 H 0.49236 0.4744 0.99097 0.0
C396 C 0.08431 0.26563 0.2942 0.0
C397 C 0.07745 0.26337 0.32609 0.0
C398 C 0.06119 0.37484 0.32231 0.0
C399 C 0.07211 0.37934 0.29047 0.0
N400 N 0.10226 0.33568 0.24576 0.0
N401 N 0.06259 0.31646 0.37099 0.0
C402 C 0.08571 0.32637 0.27632 0.0
C403 C 0.06703 0.31838 0.34028 0.0
N404 N 0.08879 0.20917 0.28103 0.0
N405 N 0.04371 0.42383 0.33525 0.0
H406 H 0.0607 0.27301 0.38506 0.0
H407 H 0.06393 0.35929 0.38281 0.0
H408 H 0.04168 0.4674 0.32283 0.0
H409 H 0.02698 0.41939 0.35802 0.0
H410 H 0.08436 0.20184 0.25826 0.0
H411 H 0.09296 0.16656 0.29316 0.0
H412 H 0.12206 0.30534 0.23422 0.0
H413 H 0.10062 0.37738 0.23182 0.0
loop_
_geom_bond_atom_site_label_1
_geom_bond_atom_site_label_2
_geom_bond_distance
_geom_bond_site_symmetry_2
_ccdc_geom_bond_type
In0 O1 2.294 . S
In0 O2 2.326 . S
In0 O6 2.266 1_455 S
In0 O7 2.326 1_545 S
In0 O8 2.266 1_545 S
In0 O9 2.326 1_545 S
In0 O11 2.294 . S
In0 O12 2.326 . S
O1 In0 2.294 . S
O1 C10 1.240 . S
O2 In0 2.326 . S
O2 C10 1.252 . S
C3 O6 1.253 1_465 S
C3 O7 1.260 . S
C4 O11 1.240 . S
C4 O12 1.252 . S
C5 O8 1.252 . S
C5 O9 1.260 . S
O6 In0 2.266 1_655 S
O6 C3 1.253 1_645 S
O7 In0 2.326 1_565 S
O7 C3 1.260 . S
O8 In0 2.266 1_565 S
O8 C5 1.252 . S
O9 In0 2.326 1_565 S
O9 C5 1.260 . S
C10 O1 1.240 . S
C10 O2 1.252 . S
O11 In0 2.294 . S
O11 C4 1.240 . S
O12 In0 2.326 . S
O12 C4 1.252 . S
In13 O14 2.294 . S
In13 O15 2.326 1_455 S
In13 O19 2.266 . S
In13 O20 2.326 . S
In13 O21 2.266 1_545 S
In13 O22 2.326 . S
In13 O24 2.294 1_455 S
In13 O25 2.326 . S
O14 In13 2.294 . S
O14 C23 1.240 . S
O15 In13 2.326 1_655 S
O15 C23 1.252 1_655 S
C16 O19 1.252 . S
C16 O20 1.260 . S
C17 O24 1.240 . S
C17 O25 1.252 1_655 S
C18 O21 1.252 1_545 S
C18 O22 1.260 . S
O19 In13 2.266 . S
O19 C16 1.252 . S
O20 In13 2.326 . S
O20 C16 1.260 . S
O21 In13 2.266 1_565 S
O21 C18 1.252 1_565 S
O22 In13 2.326 . S
O22 C18 1.260 . S
C23 O14 1.240 . S
C23 O15 1.252 1_455 S
O24 In13 2.294 1_655 S
O24 C17 1.240 . S
O25 In13 2.326 . S
O25 C17 1.252 1_455 S
In26 O27 2.294 1_545 S
In26 O28 2.326 1_455 S
In26 O32 2.266 . S
In26 O33 2.326 . S
In26 O34 2.266 . S
In26 O35 2.326 . S
In26 O37 2.294 . S
In26 O38 2.326 1_445 S
O27 In26 2.294 1_565 S
O27 C36 1.240 1_455 S
O28 In26 2.326 1_655 S
O28 C36 1.252 1_545 S
C29 O32 1.252 . S
C29 O33 1.260 . S
C30 O37 1.240 1_655 S
C30 O38 1.252 1_545 S
C31 O34 1.252 . S
C31 O35 1.260 . S
O32 In26 2.266 . S
O32 C29 1.252 . S
O33 In26 2.326 . S
O33 C29 1.260 . S
O34 In26 2.266 . S
O34 C31 1.252 . S
O35 In26 2.326 . S
O35 C31 1.260 . S
C36 O27 1.240 1_655 S
C36 O28 1.252 1_565 S
O37 In26 2.294 . S
O37 C30 1.240 1_455 S
O38 In26 2.326 1_665 S
O38 C30 1.252 1_565 S
C39 C40 1.443 . S
C39 N43 1.376 . S
C39 C77 1.389 . S
C40 C39 1.443 . S
C40 C41 1.340 . S
C40 H80 0.951 . S
C41 C40 1.340 . S
C41 C42 1.439 . S
C41 H81 0.950 . S
C42 C41 1.439 . S
C42 N43 1.374 . S
C42 C76 1.395 . S
N43 C39 1.376 . S
N43 C42 1.374 . S
N43 Co44 2.008 . S
Co44 N43 2.008 . S
Co44 N45 1.995 . S
Co44 N50 2.008 1_455 S
Co44 N55 1.995 1_455 S
Co44 N60 2.282 . S
Co44 N66 2.282 . S
N45 Co44 1.995 . S
N45 C46 1.376 . S
N45 C49 1.383 . S
C46 N45 1.376 . S
C46 C47 1.446 . S
C46 C76 1.391 . S
C47 C46 1.446 . S
C47 C48 1.339 . S
C47 H82 0.949 . S
C48 C47 1.339 . S
C48 C49 1.439 . S
C48 H83 0.950 . S
C49 N45 1.383 . S
C49 C48 1.439 . S
C49 C78 1.392 . S
N50 Co44 2.008 1_655 S
N50 C51 1.376 . S
N50 C54 1.374 . S
C51 N50 1.376 . S
C51 C52 1.443 . S
C51 C78 1.389 1_655 S
C52 C51 1.443 . S
C52 C53 1.340 . S
C52 H84 0.951 . S
C53 C52 1.340 . S
C53 C54 1.439 . S
C53 H85 0.950 . S
C54 N50 1.374 . S
C54 C53 1.439 . S
C54 C79 1.395 . S
N55 Co44 1.995 1_655 S
N55 C56 1.376 . S
N55 C59 1.383 1_655 S
C56 N55 1.376 . S
C56 C57 1.446 . S
C56 C79 1.391 . S
C57 C56 1.446 . S
C57 C58 1.339 . S
C57 H86 0.949 . S
C58 C57 1.339 . S
C58 C59 1.439 1_655 S
C58 H87 0.950 . S
C59 N55 1.383 1_455 S
C59 C58 1.439 1_455 S
C59 C77 1.392 . S
N60 Co44 2.282 . S
N60 C63 1.332 . S
N60 C65 1.332 . S
C61 C62 1.386 . S
C61 C64 1.388 . S
C62 C61 1.386 . S
C62 C63 1.382 . S
C62 H88 0.950 1_455 S
C63 N60 1.332 . S
C63 C62 1.382 . S
C63 H74 0.952 1_455 S
C64 C61 1.388 . S
C64 C65 1.382 . S
C64 H89 0.950 . S
C65 N60 1.332 . S
C65 C64 1.382 . S
C65 H75 0.948 . S
N66 Co44 2.282 . S
N66 C70 1.332 . S
N66 C71 1.332 1_455 S
C67 C68 1.388 1_655 S
C67 C71 1.382 . S
C67 H90 0.950 . S
C68 C67 1.388 1_455 S
C68 C69 1.386 . S
C69 C68 1.386 . S
C69 C70 1.382 . S
C69 H91 0.950 . S
C70 N66 1.332 . S
C70 C69 1.382 . S
C70 H72 0.952 . S
C71 N66 1.332 1_655 S
C71 C67 1.382 . S
C71 H73 0.948 . S
H72 C70 0.952 . S
H73 C71 0.948 . S
H74 C63 0.952 1_655 S
H75 C65 0.948 . S
C76 C42 1.395 . S
C76 C46 1.391 . S
C77 C39 1.389 . S
C77 C59 1.392 . S
C78 C49 1.392 . S
C78 C51 1.389 1_455 S
C79 C54 1.395 . S
C79 C56 1.391 . S
H80 C40 0.951 . S
H81 C41 0.950 . S
H82 C47 0.949 . S
H83 C48 0.950 . S
H84 C52 0.951 . S
H85 C53 0.950 . S
H86 C57 0.949 . S
H87 C58 0.950 . S
H88 C62 0.950 1_655 S
H89 C64 0.950 . S
H90 C67 0.950 . S
H91 C69 0.950 . S
C92 C93 1.443 1_545 S
C92 N96 1.376 . S
C92 C130 1.389 . S
C93 C92 1.443 1_565 S
C93 C94 1.340 . S
C93 H133 0.951 . S
C94 C93 1.340 . S
C94 C95 1.439 . S
C94 H134 0.950 . S
C95 C94 1.439 . S
C95 N96 1.374 1_565 S
C95 C129 1.395 . S
N96 C92 1.376 . S
N96 C95 1.374 1_545 S
N96 Co97 2.008 . S
Co97 N96 2.008 . S
Co97 N98 1.995 . S
Co97 N103 2.008 . S
Co97 N108 1.995 . S
Co97 N113 2.282 . S
Co97 N119 2.282 . S
N98 Co97 1.995 . S
N98 C99 1.376 1_545 S
N98 C102 1.383 . S
C99 N98 1.376 1_565 S
C99 C100 1.446 . S
C99 C129 1.391 . S
C100 C99 1.446 . S
C100 C101 1.339 . S
C100 H135 0.949 . S
C101 C100 1.339 . S
C101 C102 1.439 1_565 S
C101 H136 0.950 . S
C102 N98 1.383 . S
C102 C101 1.439 1_545 S
C102 C131 1.392 . S
N103 Co97 2.008 . S
N103 C104 1.376 . S
N103 C107 1.374 . S
C104 N103 1.376 . S
C104 C105 1.443 . S
C104 C131 1.389 . S
C105 C104 1.443 . S
C105 C106 1.340 . S
C105 H137 0.951 . S
C106 C105 1.340 . S
C106 C107 1.439 . S
C106 H138 0.950 . S
C107 N103 1.374 . S
C107 C106 1.439 . S
C107 C132 1.395 . S
N108 Co97 1.995 . S
N108 C109 1.376 . S
N108 C112 1.383 . S
C109 N108 1.376 . S
C109 C110 1.446 . S
C109 C132 1.391 . S
C110 C109 1.446 . S
C110 C111 1.339 . S
C110 H139 0.949 . S
C111 C110 1.339 . S
C111 C112 1.439 . S
C111 H140 0.950 . S
C112 N108 1.383 . S
C112 C111 1.439 . S
C112 C130 1.392 . S
N113 Co97 2.282 . S
N113 C116 1.332 . S
N113 C118 1.332 . S
C114 C115 1.386 . S
C114 C117 1.388 . S
C115 C114 1.386 . S
C115 C116 1.382 . S
C115 H141 0.950 . S
C116 N113 1.332 . S
C116 C115 1.382 . S
C116 H127 0.952 . S
C117 C114 1.388 . S
C117 C118 1.382 . S
C117 H142 0.950 1_545 S
C118 N113 1.332 . S
C118 C117 1.382 . S
C118 H128 0.948 1_545 S
N119 Co97 2.282 . S
N119 C123 1.332 . S
N119 C124 1.332 . S
C120 C121 1.388 . S
C120 C124 1.382 . S
C120 H143 0.950 . S
C121 C120 1.388 . S
C121 C122 1.386 . S
C122 C121 1.386 . S
C122 C123 1.382 . S
C122 H144 0.950 1_545 S
C123 N119 1.332 . S
C123 C122 1.382 . S
C123 H125 0.952 1_545 S
C124 N119 1.332 . S
C124 C120 1.382 . S
C124 H126 0.948 . S
H125 C123 0.952 1_565 S
H126 C124 0.948 . S
H127 C116 0.952 . S
H128 C118 0.948 1_565 S
C129 C95 1.395 . S
C129 C99 1.391 . S
C130 C92 1.389 . S
C130 C112 1.392 . S
C131 C102 1.392 . S
C131 C104 1.389 . S
C132 C107 1.395 . S
C132 C109 1.391 . S
H133 C93 0.951 . S
H134 C94 0.950 . S
H135 C100 0.949 . S
H136 C101 0.950 . S
H137 C105 0.951 . S
H138 C106 0.950 . S
H139 C110 0.949 . S
H140 C111 0.950 . S
H141 C115 0.950 . S
H142 C117 0.950 1_565 S
H143 C120 0.950 . S
H144 C122 0.950 1_565 S
C145 C146 1.443 . S
C145 N149 1.376 . S
C145 C183 1.389 . S
C146 C145 1.443 . S
C146 C147 1.340 . S
C146 H186 0.951 . S
C147 C146 1.340 . S
C147 C148 1.439 . S
C147 H187 0.950 . S
C148 C147 1.439 . S
C148 N149 1.374 . S
C148 C182 1.395 . S
N149 C145 1.376 . S
N149 C148 1.374 . S
N149 Co150 2.008 . S
Co150 N149 2.008 . S
Co150 N151 1.995 . S
Co150 N156 2.008 . S
Co150 N161 1.995 . S
Co150 N166 2.282 . S
Co150 N172 2.282 . S
N151 Co150 1.995 . S
N151 C152 1.376 . S
N151 C155 1.383 . S
C152 N151 1.376 . S
C152 C153 1.446 . S
C152 C182 1.391 . S
C153 C152 1.446 . S
C153 C154 1.339 . S
C153 H188 0.949 . S
C154 C153 1.339 . S
C154 C155 1.439 . S
C154 H189 0.950 . S
C155 N151 1.383 . S
C155 C154 1.439 . S
C155 C184 1.392 . S
N156 Co150 2.008 . S
N156 C157 1.376 . S
N156 C160 1.374 . S
C157 N156 1.376 . S
C157 C158 1.443 . S
C157 C184 1.389 . S
C158 C157 1.443 . S
C158 C159 1.340 . S
C158 H190 0.951 . S
C159 C158 1.340 . S
C159 C160 1.439 . S
C159 H191 0.950 . S
C160 N156 1.374 . S
C160 C159 1.439 . S
C160 C185 1.395 . S
N161 Co150 1.995 . S
N161 C162 1.376 . S
N161 C165 1.383 . S
C162 N161 1.376 . S
C162 C163 1.446 . S
C162 C185 1.391 . S
C163 C162 1.446 . S
C163 C164 1.339 . S
C163 H192 0.949 . S
C164 C163 1.339 . S
C164 C165 1.439 . S
C164 H193 0.950 . S
C165 N161 1.383 . S
C165 C164 1.439 . S
C165 C183 1.392 . S
N166 Co150 2.282 . S
N166 C169 1.332 . S
N166 C171 1.332 . S
C167 C168 1.386 . S
C167 C170 1.388 . S
C168 C167 1.386 . S
C168 C169 1.382 . S
C168 H194 0.950 . S
C169 N166 1.332 . S
C169 C168 1.382 . S
C169 H180 0.952 . S
C170 C167 1.388 . S
C170 C171 1.382 . S
C170 H195 0.950 . S
C171 N166 1.332 . S
C171 C170 1.382 . S
C171 H181 0.948 . S
N172 Co150 2.282 . S
N172 C176 1.332 . S
N172 C177 1.332 . S
C173 C174 1.388 . S
C173 C177 1.382 . S
C173 H196 0.950 . S
C174 C173 1.388 . S
C174 C175 1.386 . S
C175 C174 1.386 . S
C175 C176 1.382 . S
C175 H197 0.950 . S
C176 N172 1.332 . S
C176 C175 1.382 . S
C176 H178 0.952 . S
C177 N172 1.332 . S
C177 C173 1.382 . S
C177 H179 0.948 . S
H178 C176 0.952 . S
H179 C177 0.948 . S
H180 C169 0.952 . S
H181 C171 0.948 . S
C182 C148 1.395 . S
C182 C152 1.391 . S
C183 C145 1.389 . S
C183 C165 1.392 . S
C184 C155 1.392 . S
C184 C157 1.389 . S
C185 C160 1.395 . S
C185 C162 1.391 . S
H186 C146 0.951 . S
H187 C147 0.950 . S
H188 C153 0.949 . S
H189 C154 0.950 . S
H190 C158 0.951 . S
H191 C159 0.950 . S
H192 C163 0.949 . S
H193 C164 0.950 . S
H194 C168 0.950 . S
H195 C170 0.950 . S
H196 C173 0.950 . S
H197 C175 0.950 . S
C198 C199 1.363 . S
C198 C204 1.379 . S
C198 N206 1.356 . S
C199 C198 1.363 . S
C199 C205 1.363 . S
C200 C201 1.363 . S
C200 C205 1.379 . S
C200 N207 1.356 . S
C201 C200 1.363 . S
C201 C204 1.363 . S
N202 C204 1.356 . S
N202 H214 0.984 1_455 S
N202 H215 0.985 . S
N203 C205 1.356 . S
N203 H208 0.984 . S
N203 H209 0.985 . S
C204 C198 1.379 . S
C204 C201 1.363 . S
C204 N202 1.356 . S
C205 C199 1.363 . S
C205 C200 1.379 . S
C205 N203 1.356 . S
N206 C198 1.356 . S
N206 H212 0.984 . S
N206 H213 0.984 . S
N207 C200 1.356 . S
N207 H210 0.984 . S
N207 H211 0.985 . S
H208 N203 0.984 . S
H209 N203 0.985 . S
H210 N207 0.984 . S
H211 N207 0.985 . S
H212 N206 0.984 . S
H213 N206 0.984 . S
H214 N202 0.984 1_655 S
H215 N202 0.985 . S
C216 C217 1.363 . S
C216 C222 1.379 . S
C216 N224 1.356 . S
C217 C216 1.363 . S
C217 C223 1.363 . S
C218 C219 1.363 . S
C218 C223 1.379 . S
C218 N225 1.356 . S
C219 C218 1.363 . S
C219 C222 1.363 . S
N220 C222 1.356 1_565 S
N220 H232 0.984 . S
N220 H233 0.985 1_565 S
N221 C223 1.356 . S
N221 H226 0.984 1_655 S
N221 H227 0.985 1_655 S
C222 C216 1.379 . S
C222 C219 1.363 . S
C222 N220 1.356 1_545 S
C223 C217 1.363 . S
C223 C218 1.379 . S
C223 N221 1.356 . S
N224 C216 1.356 . S
N224 H230 0.984 1_545 S
N224 H231 0.984 . S
N225 C218 1.356 . S
N225 H228 0.984 . S
N225 H229 0.985 . S
H226 N221 0.984 1_455 S
H227 N221 0.985 1_455 S
H228 N225 0.984 . S
H229 N225 0.985 . S
H230 N224 0.984 1_565 S
H231 N224 0.984 . S
H232 N220 0.984 . S
H233 N220 0.985 1_545 S
C234 C235 1.363 . S
C234 C240 1.379 . S
C234 N242 1.356 . S
C235 C234 1.363 . S
C235 C241 1.363 . S
C236 C237 1.363 . S
C236 C241 1.379 . S
C236 N243 1.356 . S
C237 C236 1.363 . S
C237 C240 1.363 . S
N238 C240 1.356 . S
N238 H250 0.984 . S
N238 H251 0.985 . S
N239 C241 1.356 . S
N239 H244 0.984 . S
N239 H245 0.985 . S
C240 C234 1.379 . S
C240 C237 1.363 . S
C240 N238 1.356 . S
C241 C235 1.363 . S
C241 C236 1.379 . S
C241 N239 1.356 . S
N242 C234 1.356 . S
N242 H248 0.984 . S
N242 H249 0.984 1_655 S
N243 C236 1.356 . S
N243 H246 0.984 . S
N243 H247 0.985 . S
H244 N239 0.984 . S
H245 N239 0.985 . S
H246 N243 0.984 . S
H247 N243 0.985 . S
H248 N242 0.984 . S
H249 N242 0.984 1_455 S
H250 N238 0.984 . S
H251 N238 0.985 . S
C252 C253 1.363 . S
C252 C258 1.379 . S
C252 N260 1.356 1_455 S
C253 C252 1.363 . S
C253 C259 1.363 . S
C254 C255 1.363 . S
C254 C259 1.379 . S
C254 N261 1.356 . S
C255 C254 1.363 . S
C255 C258 1.363 . S
N256 C258 1.356 1_655 S
N256 H268 0.984 . S
N256 H269 0.985 . S
N257 C259 1.356 . S
N257 H262 0.984 . S
N257 H263 0.985 . S
C258 C252 1.379 . S
C258 C255 1.363 . S
C258 N256 1.356 1_455 S
C259 C253 1.363 . S
C259 C254 1.379 . S
C259 N257 1.356 . S
N260 C252 1.356 1_655 S
N260 H266 0.984 . S
N260 H267 0.984 . S
N261 C254 1.356 . S
N261 H264 0.984 . S
N261 H265 0.985 . S
H262 N257 0.984 . S
H263 N257 0.985 . S
H264 N261 0.984 . S
H265 N261 0.985 . S
H266 N260 0.984 . S
H267 N260 0.984 . S
H268 N256 0.984 . S
H269 N256 0.985 . S
C270 C271 1.363 . S
C270 C276 1.379 . S
C270 N278 1.356 . S
C271 C270 1.363 . S
C271 C277 1.363 . S
C272 C273 1.363 . S
C272 C277 1.379 . S
C272 N279 1.356 . S
C273 C272 1.363 . S
C273 C276 1.363 . S
N274 C276 1.356 . S
N274 H286 0.984 . S
N274 H287 0.985 . S
N275 C277 1.356 . S
N275 H280 0.984 . S
N275 H281 0.985 1_545 S
C276 C270 1.379 . S
C276 C273 1.363 . S
C276 N274 1.356 . S
C277 C271 1.363 . S
C277 C272 1.379 . S
C277 N275 1.356 . S
N278 C270 1.356 . S
N278 H284 0.984 . S
N278 H285 0.984 . S
N279 C272 1.356 . S
N279 H282 0.984 . S
N279 H283 0.985 1_545 S
H280 N275 0.984 . S
H281 N275 0.985 1_565 S
H282 N279 0.984 . S
H283 N279 0.985 1_565 S
H284 N278 0.984 . S
H285 N278 0.984 . S
H286 N274 0.984 . S
H287 N274 0.985 . S
C288 C289 1.363 . S
C288 C294 1.379 . S
C288 N296 1.356 . S
C289 C288 1.363 . S
C289 C295 1.363 . S
C290 C291 1.363 . S
C290 C295 1.379 . S
C290 N297 1.356 . S
C291 C290 1.363 . S
C291 C294 1.363 . S
N292 C294 1.356 . S
N292 H304 0.984 . S
N292 H305 0.985 . S
N293 C295 1.356 . S
N293 H298 0.984 . S
N293 H299 0.985 . S
C294 C288 1.379 . S
C294 C291 1.363 . S
C294 N292 1.356 . S
C295 C289 1.363 . S
C295 C290 1.379 . S
C295 N293 1.356 . S
N296 C288 1.356 . S
N296 H302 0.984 . S
N296 H303 0.984 . S
N297 C290 1.356 . S
N297 H300 0.984 . S
N297 H301 0.985 . S
H298 N293 0.984 . S
H299 N293 0.985 . S
H300 N297 0.984 . S
H301 N297 0.985 . S
H302 N296 0.984 . S
H303 N296 0.984 . S
H304 N292 0.984 . S
H305 N292 0.985 . S
C306 C307 1.363 . S
C306 C312 1.379 . S
C306 N314 1.356 1_545 S
C307 C306 1.363 . S
C307 C313 1.363 . S
C308 C309 1.363 . S
C308 C313 1.379 . S
C308 N315 1.356 . S
C309 C308 1.363 . S
C309 C312 1.363 . S
N310 C312 1.356 1_565 S
N310 H322 0.984 . S
N310 H323 0.985 1_565 S
N311 C313 1.356 . S
N311 H316 0.984 . S
N311 H317 0.985 . S
C312 C306 1.379 . S
C312 C309 1.363 . S
C312 N310 1.356 1_545 S
C313 C307 1.363 . S
C313 C308 1.379 . S
C313 N311 1.356 . S
N314 C306 1.356 1_565 S
N314 H320 0.984 . S
N314 H321 0.984 . S
N315 C308 1.356 . S
N315 H318 0.984 . S
N315 H319 0.985 . S
H316 N311 0.984 . S
H317 N311 0.985 . S
H318 N315 0.984 . S
H319 N315 0.985 . S
H320 N314 0.984 . S
H321 N314 0.984 . S
H322 N310 0.984 . S
H323 N310 0.985 1_545 S
C324 C325 1.363 . S
C324 C330 1.379 . S
C324 N332 1.356 . S
C325 C324 1.363 . S
C325 C331 1.363 1_556 S
C326 C327 1.363 . S
C326 C331 1.379 1_556 S
C326 N333 1.356 . S
C327 C326 1.363 . S
C327 C330 1.363 . S
N328 C330 1.356 . S
N328 H340 0.984 . S
N328 H341 0.985 . S
N329 C331 1.356 . S
N329 H334 0.984 1_655 S
N329 H335 0.985 . S
C330 C324 1.379 . S
C330 C327 1.363 . S
C330 N328 1.356 . S
C331 C325 1.363 1_554 S
C331 C326 1.379 1_554 S
C331 N329 1.356 . S
N332 C324 1.356 . S
N332 H338 0.984 1_565 S
N332 H339 0.984 1_565 S
N333 C326 1.356 . S
N333 H336 0.984 . S
N333 H337 0.985 . S
H334 N329 0.984 1_455 S
H335 N329 0.985 . S
H336 N333 0.984 . S
H337 N333 0.985 . S
H338 N332 0.984 1_545 S
H339 N332 0.984 1_545 S
H340 N328 0.984 . S
H341 N328 0.985 . S
C342 C343 1.363 . S
C342 C348 1.379 . S
C342 N350 1.356 . S
C343 C342 1.363 . S
C343 C349 1.363 . S
C344 C345 1.363 . S
C344 C349 1.379 . S
C344 N351 1.356 1_455 S
C345 C344 1.363 . S
C345 C348 1.363 . S
N346 C348 1.356 . S
N346 H358 0.984 . S
N346 H359 0.985 . S
N347 C349 1.356 1_655 S
N347 H352 0.984 . S
N347 H353 0.985 . S
C348 C342 1.379 . S
C348 C345 1.363 . S
C348 N346 1.356 . S
C349 C343 1.363 . S
C349 C344 1.379 . S
C349 N347 1.356 1_455 S
N350 C342 1.356 . S
N350 H356 0.984 . S
N350 H357 0.984 1_565 S
N351 C344 1.356 1_655 S
N351 H354 0.984 . S
N351 H355 0.985 . S
H352 N347 0.984 . S
H353 N347 0.985 . S
H354 N351 0.984 . S
H355 N351 0.985 . S
H356 N350 0.984 . S
H357 N350 0.984 1_545 S
H358 N346 0.984 . S
H359 N346 0.985 . S
C360 C361 1.363 . S
C360 C366 1.379 . S
C360 N368 1.356 1_545 S
C361 C360 1.363 . S
C361 C367 1.363 . S
C362 C363 1.363 . S
C362 C367 1.379 . S
C362 N369 1.356 . S
C363 C362 1.363 . S
C363 C366 1.363 . S
N364 C366 1.356 1_565 S
N364 H376 0.984 . S
N364 H377 0.985 . S
N365 C367 1.356 . S
N365 H370 0.984 . S
N365 H371 0.985 . S
C366 C360 1.379 . S
C366 C363 1.363 . S
C366 N364 1.356 1_545 S
C367 C361 1.363 . S
C367 C362 1.379 . S
C367 N365 1.356 . S
N368 C360 1.356 1_565 S
N368 H374 0.984 . S
N368 H375 0.984 . S
N369 C362 1.356 . S
N369 H372 0.984 . S
N369 H373 0.985 . S
H370 N365 0.984 . S
H371 N365 0.985 . S
H372 N369 0.984 . S
H373 N369 0.985 . S
H374 N368 0.984 . S
H375 N368 0.984 . S
H376 N364 0.984 . S
H377 N364 0.985 . S
C378 C379 1.376 . S
C378 C384 1.396 . S
C378 N386 1.327 1_556 S
C379 C378 1.376 . S
C379 C385 1.363 . S
C380 C381 1.363 . S
C380 C385 1.379 . S
C380 N387 1.356 . S
C381 C380 1.363 . S
C381 C384 1.363 . S
N382 C384 1.356 . S
N382 H394 1.015 . S
N382 H395 0.985 . S
N383 C385 1.356 . S
N383 H388 0.984 . S
N383 H389 0.985 . S
C384 C378 1.396 . S
C384 C381 1.363 . S
C384 N382 1.356 . S
C385 C379 1.363 . S
C385 C380 1.379 . S
C385 N383 1.356 . S
N386 C378 1.327 1_554 S
N386 H392 0.984 . S
N386 H393 0.984 . S
N387 C380 1.356 . S
N387 H390 0.984 . S
N387 H391 0.985 . S
H388 N383 0.984 . S
H389 N383 0.985 . S
H390 N387 0.984 . S
H391 N387 0.985 . S
H392 N386 0.984 . S
H393 N386 0.984 . S
H394 N382 1.015 . S
H395 N382 0.985 . S
C396 C397 1.363 . S
C396 C402 1.379 . S
C396 N404 1.356 . S
C397 C396 1.363 . S
C397 C403 1.363 . S
C398 C399 1.363 . S
C398 C403 1.379 . S
C398 N405 1.356 . S
C399 C398 1.363 . S
C399 C402 1.363 . S
N400 C402 1.356 . S
N400 H412 0.985 1_455 S
N400 H413 0.985 . S
N401 C403 1.356 . S
N401 H406 0.984 . S
N401 H407 0.985 . S
C402 C396 1.379 . S
C402 C399 1.363 . S
C402 N400 1.356 . S
C403 C397 1.363 . S
C403 C398 1.379 . S
C403 N401 1.356 . S
N404 C396 1.356 . S
N404 H410 0.984 1_455 S
N404 H411 0.984 . S
N405 C398 1.356 . S
N405 H408 0.984 . S
N405 H409 0.985 . S
H406 N401 0.984 . S
H407 N401 0.985 . S
H408 N405 0.984 . S
H409 N405 0.985 . S
H410 N404 0.984 1_655 S
H411 N404 0.984 . S
H412 N400 0.985 1_655 S
H413 N400 0.985 . S
C201 C61 1.513 . S
C199 C10 1.513 . S
C217 C17 1.515 . S
C219 C131 1.515 . S
C235 C36 1.519 . S
C237 C183 1.520 . S
C253 C5 1.516 . S
C255 C77 1.516 . S
C273 C121 1.516 . S
C271 C16 1.516 . S
C289 C31 1.516 . S
C291 C167 1.516 . S
C309 C114 1.513 . S
C307 C30 1.513 . S
C325 C3 1.516 1_656 S
C327 C174 1.516 . S
C345 C68 1.516 . S
C343 C18 1.516 1_565 S
C363 C130 1.516 . S
C361 C29 1.516 . S
C381 C184 1.518 . S
C379 C4 1.520 1_556 S
C397 C23 1.514 . S
C399 C78 1.514 . S
