# Generated by pormake.
# Topology gar, (4,6)-cn, num edge types: 1
# Building blocks:
#     Node 0, Type 0, BuildingBlock: TATPOV_clean_sbu_0, # of connection points: 4
#     Node 1, Type 0, BuildingBlock: TATPOV_clean_sbu_0, # of connection points: 4
#     Node 2, Type 0, BuildingBlock: TATPOV_clean_sbu_0, # of connection points: 4
#     Node 3, Type 0, BuildingBlock: TATPOV_clean_sbu_0, # of connection points: 4
#     Node 4, Type 0, BuildingBlock: TATPOV_clean_sbu_0, # of connection points: 4
#     Node 5, Type 0, BuildingBlock: TATPOV_clean_sbu_0, # of connection points: 4
#     Node 6, Type 0, BuildingBlock: TATPOV_clean_sbu_0, # of connection points: 4
#     Node 7, Type 0, BuildingBlock: TATPOV_clean_sbu_0, # of connection points: 4
#     Node 8, Type 0, BuildingBlock: TATPOV_clean_sbu_0, # of connection points: 4
#     Node 9, Type 0, BuildingBlock: TATPOV_clean_sbu_0, # of connection points: 4
#     Node 10, Type 0, BuildingBlock: TATPOV_clean_sbu_0, # of connection points: 4
#     Node 11, Type 0, BuildingBlock: TATPOV_clean_sbu_0, # of connection points: 4
#     Node 12, Type 0, BuildingBlock: TATPOV_clean_sbu_0, # of connection points: 4
#     Node 13, Type 0, BuildingBlock: TATPOV_clean_sbu_0, # of connection points: 4
#     Node 14, Type 0, BuildingBlock: TATPOV_clean_sbu_0, # of connection points: 4
#     Node 15, Type 0, BuildingBlock: TATPOV_clean_sbu_0, # of connection points: 4
#     Node 16, Type 0, BuildingBlock: TATPOV_clean_sbu_0, # of connection points: 4
#     Node 17, Type 0, BuildingBlock: TATPOV_clean_sbu_0, # of connection points: 4
#     Node 18, Type 0, BuildingBlock: TATPOV_clean_sbu_0, # of connection points: 4
#     Node 19, Type 0, BuildingBlock: TATPOV_clean_sbu_0, # of connection points: 4
#     Node 20, Type 0, BuildingBlock: TATPOV_clean_sbu_0, # of connection points: 4
#     Node 21, Type 0, BuildingBlock: TATPOV_clean_sbu_0, # of connection points: 4
#     Node 22, Type 0, BuildingBlock: TATPOV_clean_sbu_0, # of connection points: 4
#     Node 23, Type 0, BuildingBlock: TATPOV_clean_sbu_0, # of connection points: 4
#     Node 24, Type 1, BuildingBlock: BETGAK_clean_sbu_0, # of connection points: 6
#     Node 25, Type 1, BuildingBlock: BETGAK_clean_sbu_0, # of connection points: 6
#     Node 26, Type 1, BuildingBlock: BETGAK_clean_sbu_0, # of connection points: 6
#     Node 27, Type 1, BuildingBlock: BETGAK_clean_sbu_0, # of connection points: 6
#     Node 28, Type 1, BuildingBlock: BETGAK_clean_sbu_0, # of connection points: 6
#     Node 29, Type 1, BuildingBlock: BETGAK_clean_sbu_0, # of connection points: 6
#     Node 30, Type 1, BuildingBlock: BETGAK_clean_sbu_0, # of connection points: 6
#     Node 31, Type 1, BuildingBlock: BETGAK_clean_sbu_0, # of connection points: 6
#     Node 32, Type 1, BuildingBlock: BETGAK_clean_sbu_0, # of connection points: 6
#     Node 33, Type 1, BuildingBlock: BETGAK_clean_sbu_0, # of connection points: 6
#     Node 34, Type 1, BuildingBlock: BETGAK_clean_sbu_0, # of connection points: 6
#     Node 35, Type 1, BuildingBlock: BETGAK_clean_sbu_0, # of connection points: 6
#     Node 36, Type 1, BuildingBlock: BETGAK_clean_sbu_0, # of connection points: 6
#     Node 37, Type 1, BuildingBlock: BETGAK_clean_sbu_0, # of connection points: 6
#     Node 38, Type 1, BuildingBlock: BETGAK_clean_sbu_0, # of connection points: 6
#     Node 39, Type 1, BuildingBlock: BETGAK_clean_sbu_0, # of connection points: 6
#     Edge 40, Type (0, 1), BuildingBlock: AJUNOK_clean_linker_0, # of connection points: 2
#     Edge 41, Type (0, 1), BuildingBlock: AJUNOK_clean_linker_0, # of connection points: 2
#     Edge 42, Type (0, 1), BuildingBlock: AJUNOK_clean_linker_0, # of connection points: 2
#     Edge 43, Type (0, 1), BuildingBlock: AJUNOK_clean_linker_0, # of connection points: 2
#     Edge 44, Type (0, 1), BuildingBlock: AJUNOK_clean_linker_0, # of connection points: 2
#     Edge 45, Type (0, 1), BuildingBlock: AJUNOK_clean_linker_0, # of connection points: 2
#     Edge 46, Type (0, 1), BuildingBlock: AJUNOK_clean_linker_0, # of connection points: 2
#     Edge 47, Type (0, 1), BuildingBlock: AJUNOK_clean_linker_0, # of connection points: 2
#     Edge 48, Type (0, 1), BuildingBlock: AJUNOK_clean_linker_0, # of connection points: 2
#     Edge 49, Type (0, 1), BuildingBlock: AJUNOK_clean_linker_0, # of connection points: 2
#     Edge 50, Type (0, 1), BuildingBlock: AJUNOK_clean_linker_0, # of connection points: 2
#     Edge 51, Type (0, 1), BuildingBlock: AJUNOK_clean_linker_0, # of connection points: 2
#     Edge 52, Type (0, 1), BuildingBlock: AJUNOK_clean_linker_0, # of connection points: 2
#     Edge 53, Type (0, 1), BuildingBlock: AJUNOK_clean_linker_0, # of connection points: 2
#     Edge 54, Type (0, 1), BuildingBlock: AJUNOK_clean_linker_0, # of connection points: 2
#     Edge 55, Type (0, 1), BuildingBlock: AJUNOK_clean_linker_0, # of connection points: 2
#     Edge 56, Type (0, 1), BuildingBlock: AJUNOK_clean_linker_0, # of connection points: 2
#     Edge 57, Type (0, 1), BuildingBlock: AJUNOK_clean_linker_0, # of connection points: 2
#     Edge 58, Type (0, 1), BuildingBlock: AJUNOK_clean_linker_0, # of connection points: 2
#     Edge 59, Type (0, 1), BuildingBlock: AJUNOK_clean_linker_0, # of connection points: 2
#     Edge 60, Type (0, 1), BuildingBlock: AJUNOK_clean_linker_0, # of connection points: 2
#     Edge 61, Type (0, 1), BuildingBlock: AJUNOK_clean_linker_0, # of connection points: 2
#     Edge 62, Type (0, 1), BuildingBlock: AJUNOK_clean_linker_0, # of connection points: 2
#     Edge 63, Type (0, 1), BuildingBlock: AJUNOK_clean_linker_0, # of connection points: 2
#     Edge 64, Type (0, 1), BuildingBlock: AJUNOK_clean_linker_0, # of connection points: 2
#     Edge 65, Type (0, 1), BuildingBlock: AJUNOK_clean_linker_0, # of connection points: 2
#     Edge 66, Type (0, 1), BuildingBlock: AJUNOK_clean_linker_0, # of connection points: 2
#     Edge 67, Type (0, 1), BuildingBlock: AJUNOK_clean_linker_0, # of connection points: 2
#     Edge 68, Type (0, 1), BuildingBlock: AJUNOK_clean_linker_0, # of connection points: 2
#     Edge 69, Type (0, 1), BuildingBlock: AJUNOK_clean_linker_0, # of connection points: 2
#     Edge 70, Type (0, 1), BuildingBlock: AJUNOK_clean_linker_0, # of connection points: 2
#     Edge 71, Type (0, 1), BuildingBlock: AJUNOK_clean_linker_0, # of connection points: 2
#     Edge 72, Type (0, 1), BuildingBlock: AJUNOK_clean_linker_0, # of connection points: 2
#     Edge 73, Type (0, 1), BuildingBlock: AJUNOK_clean_linker_0, # of connection points: 2
#     Edge 74, Type (0, 1), BuildingBlock: AJUNOK_clean_linker_0, # of connection points: 2
#     Edge 75, Type (0, 1), BuildingBlock: AJUNOK_clean_linker_0, # of connection points: 2
#     Edge 76, Type (0, 1), BuildingBlock: AJUNOK_clean_linker_0, # of connection points: 2
#     Edge 77, Type (0, 1), BuildingBlock: AJUNOK_clean_linker_0, # of connection points: 2
#     Edge 78, Type (0, 1), BuildingBlock: AJUNOK_clean_linker_0, # of connection points: 2
#     Edge 79, Type (0, 1), BuildingBlock: AJUNOK_clean_linker_0, # of connection points: 2
#     Edge 80, Type (0, 1), BuildingBlock: AJUNOK_clean_linker_0, # of connection points: 2
#     Edge 81, Type (0, 1), BuildingBlock: AJUNOK_clean_linker_0, # of connection points: 2
#     Edge 82, Type (0, 1), BuildingBlock: AJUNOK_clean_linker_0, # of connection points: 2
#     Edge 83, Type (0, 1), BuildingBlock: AJUNOK_clean_linker_0, # of connection points: 2
#     Edge 84, Type (0, 1), BuildingBlock: AJUNOK_clean_linker_0, # of connection points: 2
#     Edge 85, Type (0, 1), BuildingBlock: AJUNOK_clean_linker_0, # of connection points: 2
#     Edge 86, Type (0, 1), BuildingBlock: AJUNOK_clean_linker_0, # of connection points: 2
#     Edge 87, Type (0, 1), BuildingBlock: AJUNOK_clean_linker_0, # of connection points: 2
#     Edge 88, Type (0, 1), BuildingBlock: AJUNOK_clean_linker_0, # of connection points: 2
#     Edge 89, Type (0, 1), BuildingBlock: AJUNOK_clean_linker_0, # of connection points: 2
#     Edge 90, Type (0, 1), BuildingBlock: AJUNOK_clean_linker_0, # of connection points: 2
#     Edge 91, Type (0, 1), BuildingBlock: AJUNOK_clean_linker_0, # of connection points: 2
#     Edge 92, Type (0, 1), BuildingBlock: AJUNOK_clean_linker_0, # of connection points: 2
#     Edge 93, Type (0, 1), BuildingBlock: AJUNOK_clean_linker_0, # of connection points: 2
#     Edge 94, Type (0, 1), BuildingBlock: AJUNOK_clean_linker_0, # of connection points: 2
#     Edge 95, Type (0, 1), BuildingBlock: AJUNOK_clean_linker_0, # of connection points: 2
#     Edge 96, Type (0, 1), BuildingBlock: AJUNOK_clean_linker_0, # of connection points: 2
#     Edge 97, Type (0, 1), BuildingBlock: AJUNOK_clean_linker_0, # of connection points: 2
#     Edge 98, Type (0, 1), BuildingBlock: AJUNOK_clean_linker_0, # of connection points: 2
#     Edge 99, Type (0, 1), BuildingBlock: AJUNOK_clean_linker_0, # of connection points: 2
#     Edge 100, Type (0, 1), BuildingBlock: AJUNOK_clean_linker_0, # of connection points: 2
#     Edge 101, Type (0, 1), BuildingBlock: AJUNOK_clean_linker_0, # of connection points: 2
#     Edge 102, Type (0, 1), BuildingBlock: AJUNOK_clean_linker_0, # of connection points: 2
#     Edge 103, Type (0, 1), BuildingBlock: AJUNOK_clean_linker_0, # of connection points: 2
#     Edge 104, Type (0, 1), BuildingBlock: AJUNOK_clean_linker_0, # of connection points: 2
#     Edge 105, Type (0, 1), BuildingBlock: AJUNOK_clean_linker_0, # of connection points: 2
#     Edge 106, Type (0, 1), BuildingBlock: AJUNOK_clean_linker_0, # of connection points: 2
#     Edge 107, Type (0, 1), BuildingBlock: AJUNOK_clean_linker_0, # of connection points: 2
#     Edge 108, Type (0, 1), BuildingBlock: AJUNOK_clean_linker_0, # of connection points: 2
#     Edge 109, Type (0, 1), BuildingBlock: AJUNOK_clean_linker_0, # of connection points: 2
#     Edge 110, Type (0, 1), BuildingBlock: AJUNOK_clean_linker_0, # of connection points: 2
#     Edge 111, Type (0, 1), BuildingBlock: AJUNOK_clean_linker_0, # of connection points: 2
#     Edge 112, Type (0, 1), BuildingBlock: AJUNOK_clean_linker_0, # of connection points: 2
#     Edge 113, Type (0, 1), BuildingBlock: AJUNOK_clean_linker_0, # of connection points: 2
#     Edge 114, Type (0, 1), BuildingBlock: AJUNOK_clean_linker_0, # of connection points: 2
#     Edge 115, Type (0, 1), BuildingBlock: AJUNOK_clean_linker_0, # of connection points: 2
#     Edge 116, Type (0, 1), BuildingBlock: AJUNOK_clean_linker_0, # of connection points: 2
#     Edge 117, Type (0, 1), BuildingBlock: AJUNOK_clean_linker_0, # of connection points: 2
#     Edge 118, Type (0, 1), BuildingBlock: AJUNOK_clean_linker_0, # of connection points: 2
#     Edge 119, Type (0, 1), BuildingBlock: AJUNOK_clean_linker_0, # of connection points: 2
#     Edge 120, Type (0, 1), BuildingBlock: AJUNOK_clean_linker_0, # of connection points: 2
#     Edge 121, Type (0, 1), BuildingBlock: AJUNOK_clean_linker_0, # of connection points: 2
#     Edge 122, Type (0, 1), BuildingBlock: AJUNOK_clean_linker_0, # of connection points: 2
#     Edge 123, Type (0, 1), BuildingBlock: AJUNOK_clean_linker_0, # of connection points: 2
#     Edge 124, Type (0, 1), BuildingBlock: AJUNOK_clean_linker_0, # of connection points: 2
#     Edge 125, Type (0, 1), BuildingBlock: AJUNOK_clean_linker_0, # of connection points: 2
#     Edge 126, Type (0, 1), BuildingBlock: AJUNOK_clean_linker_0, # of connection points: 2
#     Edge 127, Type (0, 1), BuildingBlock: AJUNOK_clean_linker_0, # of connection points: 2
#     Edge 128, Type (0, 1), BuildingBlock: AJUNOK_clean_linker_0, # of connection points: 2
#     Edge 129, Type (0, 1), BuildingBlock: AJUNOK_clean_linker_0, # of connection points: 2
#     Edge 130, Type (0, 1), BuildingBlock: AJUNOK_clean_linker_0, # of connection points: 2
#     Edge 131, Type (0, 1), BuildingBlock: AJUNOK_clean_linker_0, # of connection points: 2
#     Edge 132, Type (0, 1), BuildingBlock: AJUNOK_clean_linker_0, # of connection points: 2
#     Edge 133, Type (0, 1), BuildingBlock: AJUNOK_clean_linker_0, # of connection points: 2
#     Edge 134, Type (0, 1), BuildingBlock: AJUNOK_clean_linker_0, # of connection points: 2
#     Edge 135, Type (0, 1), BuildingBlock: AJUNOK_clean_linker_0, # of connection points: 2
# Relax obj value: 0.280
# Max RMSD: 0.355
# Mean RMSD: 0.190
data_MOF--net-gar--node1-TATPOV_clean_sbu_0--node2-BETGAK_clean_sbu_0--edge1-AJUNOK_clean_linker_0
_symmetry_space_group_name_H-M    P1
_symmetry_Int_Tables_number       1
_symmetry_cell_setting            triclinic
loop_
_symmetry_equiv_pos_as_xyz
'x, y, z'
_cell_length_a     48.289428
_cell_length_b     42.72624
_cell_length_c     43.050265
_cell_angle_alpha  99.953585
_cell_angle_beta   96.611928
_cell_angle_gamma 104.97572
loop_
_atom_site_label
_atom_site_type_symbol
_atom_site_fract_x
_atom_site_fract_y
_atom_site_fract_z
_atom_type_partial_charge
Zn0 Zn 0.12136 0.38094 0.42135 0.0
Zn1 Zn 0.17283 0.38455 0.40802 0.0
O2 O 0.17982 0.43073 0.43946 0.0
O3 O 0.13763 0.4256 0.41264 0.0
O4 O 0.20764 0.37362 0.38985 0.0
O5 O 0.13316 0.36948 0.46225 0.0
O6 O 0.15682 0.34635 0.4286 0.0
C7 C 0.15975 0.44375 0.43172 0.0
C8 C 0.11837 0.35828 0.3622 0.0
O9 O 0.14276 0.38028 0.36875 0.0
O10 O 0.10987 0.34324 0.38357 0.0
C11 C 0.20921 0.37554 0.36086 0.0
O12 O 0.19191 0.38964 0.34636 0.0
C13 C 0.14285 0.34561 0.45183 0.0
Zn14 Zn 1.00346 0.70777 0.68709 0.0
Zn15 Zn 1.01731 0.75978 0.65943 0.0
O16 O 0.98405 0.76882 0.67945 0.0
O17 O 0.97115 0.72542 0.70156 0.0
O18 O 0.03277 0.79609 0.63943 0.0
O19 O 0.04401 0.72708 0.71381 0.0
O20 O 0.0521 0.76948 0.69029 0.0
C21 C 0.9683 0.75274 0.69628 0.0
C22 C 1.00992 0.68885 0.6235 0.0
O23 O 1.01494 0.7199 0.6263 0.0
O24 O 1.00081 0.67536 0.64577 0.0
C25 C 0.02444 0.79646 0.61078 0.0
O26 O 1.00127 0.77396 0.59382 0.0
C27 C 0.06049 0.75406 0.71009 0.0
Zn28 Zn 0.62969 0.86013 0.92247 0.0
Zn29 Zn 0.67657 0.88797 0.90608 0.0
O30 O 0.67927 0.93303 0.93386 0.0
O31 O 0.63256 0.90859 0.93257 0.0
O32 O 0.70975 0.8774 0.88639 0.0
O33 O 0.67111 0.85231 0.93744 0.0
O34 O 0.67139 0.85354 0.93638 0.0
C35 C 0.65422 0.93432 0.93998 0.0
C36 C 0.61803 0.85832 0.86089 0.0
O37 O 0.64228 0.88071 0.86979 0.0
O38 O 0.60966 0.83794 0.87827 0.0
C39 C 0.71362 0.88055 0.85839 0.0
O40 O 0.7 0.89802 0.84354 0.0
C41 C 0.64457 0.84431 0.93962 0.0
Zn42 Zn 0.50207 0.21499 0.18465 0.0
Zn43 Zn 0.5205 0.26642 0.16158 0.0
O44 O 0.48645 0.27594 0.18081 0.0
O45 O 0.47035 0.2313 0.20012 0.0
O46 O 0.5365 0.30379 0.14341 0.0
O47 O 0.54185 0.22708 0.21233 0.0
O48 O 0.55419 0.27243 0.19373 0.0
C49 C 0.46901 0.25943 0.19594 0.0
C50 C 0.50885 0.19724 0.12128 0.0
O51 O 0.51903 0.22833 0.12559 0.0
O52 O 0.49601 0.18501 0.14222 0.0
C53 C 0.53109 0.30064 0.11351 0.0
O54 O 0.51022 0.27544 0.09606 0.0
C55 C 0.56036 0.25394 0.21165 0.0
Zn56 Zn 0.17411 0.84646 0.09506 0.0
Zn57 Zn 0.13301 0.83397 0.12723 0.0
O58 O 0.12323 0.87434 0.10668 0.0
O59 O 0.15977 0.88656 0.08104 0.0
O60 O 0.09843 0.8186 0.14839 0.0
O61 O 0.16002 0.79704 0.06902 0.0
O62 O 0.12415 0.78872 0.09616 0.0
C63 C 0.13653 0.89224 0.08879 0.0
C64 C 0.19832 0.84544 0.16068 0.0
O65 O 0.17122 0.84031 0.16305 0.0
O66 O 0.20596 0.8509 0.13436 0.0
C67 C 0.08687 0.83854 0.16348 0.0
O68 O 0.09951 0.8705 0.16794 0.0
C69 C 0.13764 0.7775 0.07526 0.0
Zn70 Zn 0.50649 0.7802 0.46687 0.0
Zn71 Zn 0.54595 0.79107 0.43189 0.0
O72 O 0.55656 0.83714 0.46161 0.0
O73 O 0.52289 0.8293 0.49177 0.0
O74 O 0.5812 0.79669 0.40897 0.0
O75 O 0.51971 0.74051 0.48231 0.0
O76 O 0.55386 0.75111 0.45349 0.0
C77 C 0.54397 0.84882 0.48335 0.0
C78 C 0.47968 0.78531 0.40381 0.0
O79 O 0.50644 0.78959 0.39972 0.0
O80 O 0.47298 0.77718 0.42964 0.0
C81 C 0.59566 0.82352 0.40257 0.0
O82 O 0.58577 0.84955 0.40623 0.0
C83 C 0.54213 0.73423 0.47289 0.0
Zn84 Zn 0.67175 0.34472 0.59179 0.0
Zn85 Zn 0.63422 0.33655 0.62943 0.0
O86 O 0.62612 0.37833 0.60994 0.0
O87 O 0.65686 0.38384 0.57633 0.0
O88 O 0.5982 0.32036 0.64841 0.0
O89 O 0.65602 0.29593 0.56467 0.0
O90 O 0.62749 0.29013 0.60041 0.0
C91 C 0.6367 0.39315 0.58849 0.0
C92 C 0.698 0.34653 0.66041 0.0
O93 O 0.67166 0.34344 0.66494 0.0
O94 O 0.70387 0.34908 0.63262 0.0
C95 C 0.58461 0.33754 0.66399 0.0
O96 O 0.59524 0.36988 0.67221 0.0
C97 C 0.63693 0.27727 0.57642 0.0
Zn98 Zn 1.00843 0.28259 0.96899 0.0
Zn99 Zn 0.04491 0.29034 0.92937 0.0
O100 O 0.0554 0.33723 0.95871 0.0
O101 O 0.02607 0.33151 0.99391 0.0
O102 O 0.07802 0.29571 0.903 0.0
O103 O 0.02331 0.24379 0.98517 0.0
O104 O 0.05265 0.24932 0.95021 0.0
C105 C 0.04553 0.35002 0.98245 0.0
C106 C 0.97942 0.28577 0.90426 0.0
O107 O 1.00544 0.28826 0.89856 0.0
O108 O 0.97398 0.27977 0.93131 0.0
C109 C 0.09687 0.32318 0.90416 0.0
O110 O 0.09392 0.35093 0.91994 0.0
C111 C 0.0433 0.23486 0.97235 0.0
Zn112 Zn 0.51664 0.99345 0.31342 0.0
Zn113 Zn 0.48416 0.04749 0.30299 0.0
O114 O 0.49077 0.06285 0.34871 0.0
O115 O 0.51646 0.02664 0.35307 0.0
O116 O 0.46613 0.07741 0.2833 0.0
O117 O 0.54283 1.00682 0.28104 0.0
O118 O 0.5229 0.04534 0.29586 0.0
C119 C 0.50646 0.04994 0.36506 0.0
C120 C 0.45346 0.97411 0.29405 0.0
O121 O 0.45535 1.00431 0.29536 0.0
O122 O 0.4758 0.96388 0.29793 0.0
C123 C 0.43889 0.07062 0.28317 0.0
O124 O 0.42583 0.04678 0.29655 0.0
C125 C 0.5275 0.02507 0.2735 0.0
Zn126 Zn 0.28235 0.25692 0.5091 0.0
Zn127 Zn 0.31723 0.22246 0.51244 0.0
O128 O 0.32503 0.24153 0.46962 0.0
O129 O 0.29788 0.27547 0.47022 0.0
O130 O 0.35295 0.207 0.52266 0.0
O131 O 0.29409 0.28089 0.55696 0.0
O132 O 0.32525 0.25195 0.55856 0.0
C133 C 0.3157 0.26273 0.4569 0.0
C134 C 0.25094 0.1872 0.50588 0.0
O135 O 0.27695 0.18415 0.50889 0.0
O136 O 0.24757 0.21512 0.50291 0.0
C137 C 0.35936 0.18103 0.51107 0.0
O138 O 0.3408 0.15815 0.4885 0.0
C139 C 0.31351 0.27236 0.57304 0.0
Zn140 Zn 0.17997 0.08297 0.7936 0.0
Zn141 Zn 0.21024 0.03853 0.78659 0.0
O142 O 0.18466 0.03846 0.83412 0.0
O143 O 0.16031 0.07533 0.83315 0.0
O144 O 0.23466 0.99279 0.7787 0.0
O145 O 0.15653 0.07053 0.74842 0.0
O146 O 0.18298 0.03682 0.73619 0.0
C147 C 0.16701 0.05411 0.84754 0.0
C148 C 0.24015 0.11989 0.79304 0.0
O149 O 0.2432 0.08994 0.7901 0.0
O150 O 0.21534 0.12343 0.79658 0.0
C151 C 0.25377 0.98217 0.79595 0.0
O152 O 0.26293 0.99905 0.8255 0.0
C153 C 0.16421 0.05213 0.72669 0.0
Zn154 Zn 0.42279 0.96854 1.00983 0.0
Zn155 Zn 0.36425 0.96498 1.0077 0.0
O156 O 0.35441 0.92968 0.96987 0.0
O157 O 0.40112 0.9404 0.96527 0.0
O158 O 0.33072 0.97799 0.02093 0.0
O159 O 0.42227 0.9417 0.04025 0.0
O160 O 0.37802 0.94707 0.04461 0.0
C161 C 0.37447 0.92512 0.9546 0.0
C162 C 0.41142 1.01824 0.02045 0.0
O163 O 0.39153 1.00432 0.99694 0.0
O164 O 0.41084 1.00341 0.04305 0.0
C165 C 0.3314 1.00808 0.02305 0.0
O166 O 0.35128 0.02817 1.01187 0.0
C167 C 0.40022 0.93833 0.05389 0.0
Zn168 Zn 0.39839 0.37636 0.05223 0.0
Zn169 Zn 0.36465 0.41172 0.05162 0.0
O170 O 0.35573 0.3834 1.00398 0.0
O171 O 0.38486 0.35187 1.00503 0.0
O172 O 0.3304 0.43159 0.04856 0.0
O173 O 0.38499 0.3568 0.09154 0.0
O174 O 0.35675 0.38927 0.09357 0.0
C175 C 0.36651 0.36204 0.98909 0.0
C176 C 0.43102 0.44593 0.0545 0.0
O177 O 0.40547 0.45008 0.05449 0.0
O178 O 0.43372 0.41735 0.05579 0.0
C179 C 0.32307 0.44328 0.02469 0.0
O180 O 0.3397 0.4465 1.00272 0.0
C181 C 0.36656 0.36782 0.10549 0.0
Zn182 Zn 0.78078 0.19618 0.04464 0.0
Zn183 Zn 0.81942 0.16117 0.05552 0.0
O184 O 0.82019 0.1854 0.02026 0.0
O185 O 0.77497 0.15727 1.00697 0.0
O186 O 0.84618 0.13526 0.04763 0.0
O187 O 0.79406 0.20677 0.09307 0.0
O188 O 0.83601 0.19496 0.09612 0.0
C189 C 0.79684 0.17647 1.00031 0.0
C190 C 0.76101 0.14345 0.06829 0.0
O191 O 0.77848 0.13057 0.05439 0.0
O192 O 0.76991 0.17375 0.08175 0.0
C193 C 0.84587 0.12185 0.01891 0.0
O194 O 0.82622 0.12326 0.99587 0.0
C195 C 0.8195 0.21082 0.10766 0.0
Zn196 Zn 0.19138 0.64352 0.23808 0.0
Zn197 Zn 0.20681 0.57647 0.2419 0.0
O198 O 0.18638 0.58987 0.27645 0.0
O199 O 0.21047 0.64227 0.28097 0.0
O200 O 0.22629 0.54596 0.25344 0.0
O201 O 0.17226 0.60397 0.20277 0.0
O202 O 0.1817 0.55587 0.20285 0.0
C203 C 0.19726 0.61905 0.29286 0.0
C204 C 0.23958 0.63464 0.22119 0.0
O205 O 0.23922 0.61309 0.23788 0.0
O206 O 0.216 0.63443 0.20498 0.0
C207 C 0.24737 0.55981 0.27605 0.0
O208 O 0.25099 0.59028 0.29148 0.0
C209 C 0.16886 0.57382 0.1904 0.0
Zn210 Zn 0.89889 0.8751 0.55159 0.0
Zn211 Zn 0.8636 0.9089 0.54911 0.0
O212 O 0.85431 0.88064 0.50176 0.0
O213 O 0.88497 0.85088 0.50408 0.0
O214 O 0.82997 0.92991 0.54712 0.0
O215 O 0.88576 0.85679 0.59144 0.0
O216 O 0.85423 0.88524 0.58959 0.0
C217 C 0.86584 0.85961 0.48772 0.0
C218 C 0.93129 0.94328 0.55333 0.0
O219 O 0.90534 0.94665 0.55223 0.0
O220 O 0.93457 0.91518 0.55556 0.0
C221 C 0.82276 0.94206 0.52355 0.0
O222 O 0.83905 0.94449 0.5012 0.0
C223 C 0.86533 0.86571 0.60312 0.0
Zn224 Zn 1.00271 0.04799 0.26236 0.0
Zn225 Zn 0.97316 0.09125 0.27046 0.0
O226 O 1.00052 0.09456 0.32058 0.0
O227 O 0.02658 0.06076 0.30723 0.0
O228 O 0.94864 0.13629 0.27199 0.0
O229 O 0.02159 0.05268 0.22217 0.0
O230 O 0.99958 0.09183 0.2239 0.0
C231 C 1.01962 0.07943 0.32937 0.0
C232 C 0.94363 1.00997 0.26522 0.0
O233 O 0.93987 0.03964 0.26834 0.0
O234 O 0.96843 1.00767 0.26016 0.0
C235 C 0.93422 0.15241 0.29054 0.0
O236 O 0.93055 0.14328 0.31773 0.0
C237 C 1.01612 0.07541 0.20934 0.0
Zn238 Zn 0.24611 0.69499 0.55328 0.0
Zn239 Zn 0.318 0.65896 0.55252 0.0
O240 O 0.31762 0.67966 0.51407 0.0
O241 O 0.28121 0.68566 0.53625 0.0
O242 O 0.35315 0.64581 0.55173 0.0
O243 O 0.27933 0.71356 0.59217 0.0
O244 O 0.3192 0.69464 0.59269 0.0
C245 C 0.29617 0.69105 0.51462 0.0
C246 C 0.26266 0.62903 0.54947 0.0
O247 O 0.2835 0.61656 0.54749 0.0
O248 O 0.26843 0.65998 0.55188 0.0
C249 C 0.34929 0.62444 0.52605 0.0
O250 O 0.32373 0.61359 0.50745 0.0
C251 C 0.30445 0.71312 0.60527 0.0
Zn252 Zn 0.50123 0.54372 0.76189 0.0
Zn253 Zn 0.47179 0.58958 0.76912 0.0
O254 O 0.49959 0.59322 0.81909 0.0
O255 O 0.52404 0.55676 0.80782 0.0
O256 O 0.44567 0.63354 0.77044 0.0
O257 O 0.51978 0.55086 0.72112 0.0
O258 O 0.4986 0.59084 0.72344 0.0
C259 C 0.51765 0.57721 0.8289 0.0
C260 C 0.44172 0.50742 0.76405 0.0
O261 O 0.4388 0.53746 0.76625 0.0
O262 O 0.46637 0.50362 0.76018 0.0
C263 C 0.43652 0.6535 0.79175 0.0
O264 O 0.4425 0.65101 0.8216 0.0
C265 C 0.51494 0.57427 0.7088 0.0
Zn266 Zn 0.68138 0.13059 0.71858 0.0
Zn267 Zn 0.70504 0.07587 0.74543 0.0
O268 O 0.68821 0.08788 0.78197 0.0
O269 O 0.6825 0.13295 0.76611 0.0
O270 O 0.72557 0.04493 0.75543 0.0
O271 O 0.69596 0.09908 0.68768 0.0
O272 O 0.67578 0.0568 0.70708 0.0
C273 C 0.68426 0.11629 0.78756 0.0
C274 C 0.74117 0.13588 0.72779 0.0
O275 O 0.73567 0.11622 0.7462 0.0
O276 O 0.72154 0.13526 0.70516 0.0
C277 C 0.75046 0.05755 0.77266 0.0
O278 O 0.76147 0.08971 0.78224 0.0
C279 C 0.67899 0.07035 0.68349 0.0
Zn280 Zn 0.7836 0.75853 1.01063 0.0
Zn281 Zn 0.81659 0.72188 1.01197 0.0
O282 O 0.82444 0.74141 0.96889 0.0
O283 O 0.79838 0.77648 0.97107 0.0
O284 O 0.85167 0.70548 0.02218 0.0
O285 O 0.79713 0.78415 0.0579 0.0
O286 O 0.82344 0.74966 0.05885 0.0
C287 C 0.81542 0.7632 0.95676 0.0
C288 C 0.751 0.68779 1.0068 0.0
O289 O 0.77656 0.68368 1.00767 0.0
O290 O 0.74838 0.71653 1.00598 0.0
C291 C 0.85517 0.67776 1.01069 0.0
O292 O 0.83516 0.6568 0.98802 0.0
C293 C 0.81441 0.77253 0.07366 0.0
Zn294 Zn 0.99547 0.48789 0.82865 0.0
Zn295 Zn 0.97999 0.55166 0.81012 0.0
O296 O 0.99678 0.56459 0.85528 0.0
O297 O 0.9765 0.51396 0.85925 0.0
O298 O 0.95927 0.58175 0.79734 0.0
O299 O 1.00713 0.49884 0.78746 0.0
O300 O 1.01012 0.55071 0.78445 0.0
C301 C 0.99175 0.54305 0.87219 0.0
C302 C 0.94861 0.47961 0.78528 0.0
O303 O 0.95004 0.5089 0.79832 0.0
O304 O 0.97199 0.47177 0.78314 0.0
C305 C 0.93202 0.5735 0.79678 0.0
O306 O 0.91968 0.549 0.80982 0.0
C307 C 1.01358 0.52283 0.77344 0.0
Zn308 Zn 0.89617 0.43077 0.50558 0.0
Zn309 Zn 0.86246 0.46064 0.50965 0.0
O310 O 0.85105 0.42555 0.47007 0.0
O311 O 0.89625 0.43717 0.46207 0.0
O312 O 0.82812 0.47398 0.51601 0.0
O313 O 0.91983 0.45849 0.54702 0.0
O314 O 0.87359 0.44648 0.55069 0.0
C315 C 0.86952 0.42487 0.45153 0.0
C316 C 0.91836 0.50235 0.51342 0.0
O317 O 0.89234 0.50105 0.50368 0.0
O318 O 0.92477 0.4768 0.51981 0.0
C319 C 0.83218 0.50254 0.5329 0.0
O320 O 0.85883 0.52167 0.54359 0.0
C321 C 0.89996 0.45315 0.56379 0.0
Zn322 Zn 0.67779 0.58207 0.29153 0.0
Zn323 Zn 0.71014 0.5393 0.28656 0.0
O324 O 0.68438 0.53951 0.33366 0.0
O325 O 0.65702 0.5731 0.32996 0.0
O326 O 0.73522 0.49394 0.27987 0.0
O327 O 0.6556 0.57043 0.24565 0.0
O328 O 0.68279 0.53676 0.23599 0.0
C329 C 0.66522 0.55363 0.34567 0.0
C330 C 0.73839 0.62065 0.29296 0.0
O331 O 0.74228 0.59105 0.28974 0.0
O332 O 0.71325 0.62301 0.29674 0.0
C333 C 0.75609 0.48395 0.29512 0.0
O334 O 0.76913 0.50233 0.32326 0.0
C335 C 0.66374 0.55116 0.22517 0.0
La336 La 0.06541 0.0457 1.01066 0.0
La337 La 0.11979 0.08479 0.04995 0.0
C338 C 1.01093 0.02878 0.99732 0.0
C339 C 0.9906 0.04898 0.99527 0.0
C340 C 0.96657 0.03837 0.97057 0.0
C341 C 0.94466 0.05413 0.97102 0.0
C342 C 0.94666 0.08049 0.99629 0.0
C343 C 0.9719 0.09323 0.0194 0.0
C344 C 0.99395 0.0777 0.01878 0.0
C345 C 0.10399 0.04855 0.96769 0.0
C346 C 0.08367 0.12533 0.0163 0.0
C347 C 0.17402 0.10436 0.06705 0.0
C348 C 0.19502 0.08503 0.06748 0.0
C349 C 0.21974 0.09545 0.09137 0.0
C350 C 0.24113 0.07891 0.09014 0.0
C351 C 0.23762 0.05182 0.06508 0.0
C352 C 0.21161 0.03936 0.0431 0.0
C353 C 0.19041 0.05594 0.0442 0.0
C354 C 0.08065 0.08174 0.09205 0.0
C355 C 0.10087 1.00467 0.04394 0.0
O356 O 0.02756 0.02858 0.97556 0.0
O357 O 0.02518 0.03158 0.0258 0.0
O358 O 0.07668 0.03186 0.96265 0.0
O359 O 0.10947 0.06182 0.99837 0.0
O360 O 0.0647 0.09593 1.00475 0.0
O361 O 0.10805 0.12789 0.03559 0.0
O362 O 0.15584 0.09916 0.08692 0.0
O363 O 0.16105 0.10496 0.03884 0.0
O364 O 0.10765 0.09927 0.09771 0.0
O365 O 0.0762 0.06887 0.06156 0.0
O366 O 0.12105 0.0337 0.05297 0.0
O367 O 0.07565 1.00268 0.02662 0.0
H368 H 0.96399 1.01677 0.95193 0.0
H369 H 0.92522 0.04418 0.95303 0.0
H370 H 0.9737 0.11384 0.03891 0.0
H371 H 1.01276 0.08701 0.03765 0.0
H372 H 0.22313 0.1173 0.10998 0.0
H373 H 0.26125 0.08881 0.10711 0.0
H374 H 0.20874 1.01833 0.02364 0.0
H375 H 0.17108 0.04688 0.02603 0.0
La376 La 0.35055 0.82186 0.2677 0.0
La377 La 0.31905 0.82413 0.31265 0.0
C378 C 0.36504 0.82311 0.21429 0.0
C379 C 0.38129 0.8497 0.20148 0.0
C380 C 0.40781 0.84816 0.19228 0.0
C381 C 0.42137 0.8708 0.17555 0.0
C382 C 0.40781 0.89411 0.16734 0.0
C383 C 0.38298 0.89791 0.17968 0.0
C384 C 0.36984 0.87588 0.19695 0.0
C385 C 0.38907 0.81747 0.31544 0.0
C386 C 0.35778 0.8888 0.31234 0.0
C387 C 0.28413 0.81452 0.35081 0.0
C388 C 0.27784 0.79157 0.37119 0.0
C389 C 0.26053 0.79692 0.39415 0.0
C390 C 0.25677 0.77672 0.41605 0.0
C391 C 0.27032 0.75148 0.41434 0.0
C392 C 0.28544 0.74426 0.38966 0.0
C393 C 0.28964 0.76473 0.36838 0.0
C394 C 0.29204 0.83634 0.25988 0.0
C395 C 0.32193 0.75649 0.28028 0.0
O396 O 0.37975 0.81428 0.2368 0.0
O397 O 0.33995 0.82566 0.22075 0.0
O398 O 0.39333 0.82088 0.28719 0.0
O399 O 0.36302 0.8184 0.31887 0.0
O400 O 0.35651 0.87423 0.28261 0.0
O401 O 0.34827 0.87162 0.33287 0.0
O402 O 0.27802 0.80054 0.32061 0.0
O403 O 0.30974 0.83616 0.35875 0.0
O404 O 0.29803 0.85517 0.28794 0.0
O405 O 0.30415 0.81342 0.26165 0.0
O406 O 0.32298 0.77459 0.3081 0.0
O407 O 0.3294 0.77069 0.25721 0.0
H408 H 0.41708 0.82839 0.19636 0.0
H409 H 0.44065 0.86793 0.16617 0.0
H410 H 0.37193 0.91555 0.17323 0.0
H411 H 0.3497 0.8781 0.20463 0.0
H412 H 0.25126 0.81757 0.39608 0.0
H413 H 0.24542 0.78235 0.43564 0.0
H414 H 0.29618 0.72479 0.38871 0.0
H415 H 0.30302 0.76014 0.35098 0.0
La416 La 0.61763 0.06265 0.52212 0.0
La417 La 0.55639 0.06187 0.5355 0.0
C418 C 0.66654 0.05476 0.51583 0.0
C419 C 0.68208 0.02933 0.51321 0.0
C420 C 0.696 0.02474 0.48666 0.0
C421 C 0.71555 1.00585 0.48593 0.0
C422 C 0.72171 0.99155 0.51193 0.0
C423 C 0.70573 0.99349 0.53713 0.0
C424 C 0.686 1.01237 0.53782 0.0
C425 C 0.57986 0.06354 0.47499 0.0
C426 C 0.57 0.99343 0.51989 0.0
C427 C 0.50679 0.06945 0.53592 0.0
C428 C 0.49337 0.09629 0.54249 0.0
C429 C 0.48044 0.10034 0.56993 0.0
C430 C 0.46272 0.12133 0.57318 0.0
C431 C 0.45787 0.13835 0.54898 0.0
C432 C 0.47228 0.13581 0.52256 0.0
C433 C 0.49005 0.11513 0.51943 0.0
C434 C 0.59138 0.05777 0.58215 0.0
C435 C 0.60613 0.13174 0.5413 0.0
O436 O 0.64612 0.05148 0.49177 0.0
O437 O 0.65968 0.06517 0.54359 0.0
O438 O 0.60698 0.08021 0.47926 0.0
O439 O 0.57506 0.04707 0.49589 0.0
O440 O 0.59792 1.01043 0.52403 0.0
O441 O 0.54897 1.00829 0.51969 0.0
O442 O 0.52177 0.06349 0.56039 0.0
O443 O 0.51944 0.06812 0.51066 0.0
O444 O 0.56362 0.04542 0.57939 0.0
O445 O 0.59825 0.0752 0.5622 0.0
O446 O 0.57801 0.11539 0.53801 0.0
O447 O 0.62649 0.11608 0.53943 0.0
H448 H 0.693 0.03732 0.46726 0.0
H449 H 0.72713 1.004 0.46588 0.0
H450 H 0.70996 0.98236 0.5573 0.0
H451 H 0.67518 1.01513 0.55835 0.0
H452 H 0.48271 0.08592 0.58796 0.0
H453 H 0.45159 0.12292 0.5936 0.0
H454 H 0.46821 0.14797 0.50311 0.0
H455 H 0.49964 0.11244 0.49792 0.0
La456 La 0.31227 0.32465 0.77985 0.0
La457 La 0.36885 0.30423 0.78176 0.0
C458 C 0.26075 0.32038 0.78707 0.0
C459 C 0.24507 0.32714 0.81374 0.0
C460 C 0.23334 0.35408 0.81622 0.0
C461 C 0.21276 0.35656 0.83599 0.0
C462 C 0.2038 0.3322 0.85364 0.0
C463 C 0.21767 0.3072 0.85386 0.0
C464 C 0.23823 0.30461 0.83396 0.0
C465 C 0.35696 0.37917 0.77891 0.0
C466 C 0.35149 0.33149 0.84766 0.0
C467 C 0.42045 0.30638 0.77654 0.0
C468 C 0.43687 0.30152 0.7503 0.0
C469 C 0.4482 0.27426 0.74633 0.0
C470 C 0.46802 0.27194 0.72559 0.0
C471 C 0.47664 0.29679 0.70843 0.0
C472 C 0.46348 0.32265 0.71032 0.0
C473 C 0.44371 0.32506 0.73117 0.0
C474 C 0.32371 0.24946 0.78117 0.0
C475 C 0.33004 0.29961 0.71405 0.0
O476 O 0.27767 0.34592 0.77907 0.0
O477 O 0.27212 0.29566 0.78624 0.0
O478 O 0.32958 0.37756 0.77721 0.0
O479 O 0.35744 0.34952 0.78071 0.0
O480 O 0.32732 0.33349 0.83122 0.0
O481 O 0.37176 0.32194 0.83335 0.0
O482 O 0.4013 0.28002 0.78015 0.0
O483 O 0.41102 0.33265 0.7805 0.0
O484 O 0.35104 0.25094 0.78354 0.0
O485 O 0.32372 0.2794 0.78016 0.0
O486 O 0.3549 0.29888 0.73028 0.0
O487 O 0.30887 0.30647 0.72852 0.0
H488 H 0.23846 0.37193 0.80116 0.0
H489 H 0.2023 0.37611 0.83574 0.0
H490 H 0.21096 0.28824 0.86743 0.0
H491 H 0.2472 0.28375 0.83291 0.0
H492 H 0.44302 0.25569 0.76064 0.0
H493 H 0.47793 0.25181 0.72438 0.0
H494 H 0.47009 0.34232 0.69751 0.0
H495 H 0.43506 0.3462 0.73346 0.0
La496 La 0.0852 0.09739 0.54128 0.0
La497 La 0.09716 0.03243 0.51365 0.0
C498 C 0.091 0.1577 0.55027 0.0
C499 C 0.08958 0.17824 0.52687 0.0
C500 C 0.07452 0.20192 0.53202 0.0
C501 C 0.07639 0.2251 0.51297 0.0
C502 C 0.09387 0.22489 0.48926 0.0
C503 C 0.10591 0.19874 0.48131 0.0
C504 C 0.1029 0.1747 0.49959 0.0
C505 C 0.03833 0.04732 0.5425 0.0
C506 C 0.06768 0.06787 0.46375 0.0
C507 C 0.09208 0.97202 0.50194 0.0
C508 C 0.09313 0.951 0.52479 0.0
C509 C 0.10062 0.92166 0.51615 0.0
C510 C 0.09761 0.89929 0.53629 0.0
C511 C 0.0874 0.90671 0.56507 0.0
C512 C 0.08435 0.93825 0.57584 0.0
C513 C 0.08647 0.96008 0.55536 0.0
C514 C 0.14408 0.08258 0.51344 0.0
C515 C 0.11498 0.06283 0.59162 0.0
O516 O 0.06639 0.13612 0.55048 0.0
O517 O 0.11329 0.14555 0.55227 0.0
O518 O 0.04167 0.0785 0.55353 0.0
O519 O 0.06207 0.04603 0.53265 0.0
O520 O 0.0698 0.09205 0.48888 0.0
O521 O 0.07676 0.04152 0.46782 0.0
O522 O 0.11662 0.9944 0.50344 0.0
O523 O 0.06963 0.98394 0.50032 0.0
O524 O 0.14123 0.05154 0.50263 0.0
O525 O 0.12005 0.08344 0.52257 0.0
O526 O 0.11186 0.03801 0.56657 0.0
O527 O 0.1067 0.08959 0.58715 0.0
H528 H 0.06268 0.2036 0.55184 0.0
H529 H 0.06653 0.245 0.51865 0.0
H530 H 0.11915 0.19818 0.4626 0.0
H531 H 0.11163 0.15419 0.493 0.0
H532 H 0.10671 0.91507 0.49298 0.0
H533 H 0.10023 0.87499 0.52789 0.0
H534 H 0.07674 0.94427 0.59825 0.0
H535 H 0.08063 0.98268 0.56252 0.0
La536 La 0.37101 0.83997 0.7795 0.0
La537 La 0.31587 0.79179 0.78368 0.0
C538 C 0.42273 0.87367 0.79706 0.0
C539 C 0.45074 0.86599 0.7995 0.0
C540 C 0.46685 0.86733 0.77431 0.0
C541 C 0.495 0.86421 0.77863 0.0
C542 C 0.5071 0.85994 0.80815 0.0
C543 C 0.49034 0.85594 0.83237 0.0
C544 C 0.46236 0.85906 0.82815 0.0
C545 C 0.34137 0.80567 0.72492 0.0
C546 C 0.37166 0.7622 0.78294 0.0
C547 C 0.26399 0.75728 0.77234 0.0
C548 C 0.23638 0.76554 0.76645 0.0
C549 C 0.22362 0.77783 0.79183 0.0
C550 C 0.19686 0.78429 0.78573 0.0
C551 C 0.18179 0.77718 0.75423 0.0
C552 C 0.19544 0.76642 0.72889 0.0
C553 C 0.2225 0.76104 0.73492 0.0
C554 C 0.34619 0.82755 0.83789 0.0
C555 C 0.31487 0.86878 0.77767 0.0
O556 O 0.40846 0.87044 0.76825 0.0
O557 O 0.40583 0.86202 0.81662 0.0
O558 O 0.35823 0.83567 0.72857 0.0
O559 O 0.34423 0.79547 0.75031 0.0
O560 O 0.3863 0.79359 0.78252 0.0
O561 O 0.34288 0.75544 0.78314 0.0
O562 O 0.27908 0.76807 0.80129 0.0
O563 O 0.28036 0.76109 0.75032 0.0
O564 O 0.33152 0.7967 0.8343 0.0
O565 O 0.34213 0.83675 0.81221 0.0
O566 O 0.30005 0.83661 0.7747 0.0
O567 O 0.34407 0.87645 0.78215 0.0
H568 H 0.45823 0.8722 0.75186 0.0
H569 H 0.50786 0.86704 0.75973 0.0
H570 H 0.4995 0.85221 0.85518 0.0
H571 H 0.45041 0.85749 0.8479 0.0
H572 H 0.23414 0.78226 0.81643 0.0
H573 H 0.18806 0.79447 0.80582 0.0
H574 H 0.18476 0.76046 0.70422 0.0
H575 H 0.23204 0.75216 0.71482 0.0
La576 La 0.58658 0.05539 0.05533 0.0
La577 La 0.57981 0.08051 0.99353 0.0
C578 C 0.5825 0.03696 0.10696 0.0
C579 C 0.55803 1.02009 0.12021 0.0
C580 C 0.56097 0.99832 0.13998 0.0
C581 C 0.53787 0.98567 0.15508 0.0
C582 C 0.51192 0.99514 0.15033 0.0
C583 C 0.50788 1.01275 0.12676 0.0
C584 C 0.53118 0.02513 0.11224 0.0
C585 C 0.61315 0.03291 1.01103 0.0
C586 C 0.52682 0.0302 1.00568 0.0
C587 C 0.58335 0.09019 0.93901 0.0
C588 C 0.60907 0.10749 0.92785 0.0
C589 C 0.61448 0.14142 0.928 0.0
C590 C 0.63961 0.15839 0.91864 0.0
C591 C 0.65836 0.14102 0.90655 0.0
C592 C 0.65421 0.10781 0.90949 0.0
C593 C 0.62983 0.09128 0.92015 0.0
C594 C 0.56258 0.11822 0.03838 0.0
C595 C 0.63831 0.10682 0.042 0.0
O596 O 0.58717 1.01885 0.08152 0.0
O597 O 0.58357 0.06734 0.10375 0.0
O598 O 0.62196 0.03792 0.04138 0.0
O599 O 0.58828 0.03737 1.00643 0.0
O600 O 0.54241 0.02833 0.03241 0.0
O601 O 0.53767 0.04662 0.98484 0.0
O602 O 0.57429 0.10912 0.96028 0.0
O603 O 0.58356 0.06178 0.94657 0.0
O604 O 0.56341 0.12249 1.00964 0.0
O605 O 0.57216 0.09388 0.04114 0.0
O606 O 0.62555 0.10156 1.01208 0.0
O607 O 0.62505 0.09644 0.06491 0.0
H608 H 0.58148 0.99287 0.14525 0.0
H609 H 0.54177 0.97191 0.17319 0.0
H610 H 0.4882 0.02026 0.12253 0.0
H611 H 0.52961 0.04057 0.09631 0.0
H612 H 0.59919 0.15481 0.93506 0.0
H613 H 0.64308 0.18441 0.91848 0.0
H614 H 0.66814 0.09329 0.90081 0.0
H615 H 0.62677 0.06543 0.92102 0.0
La616 La 0.35487 0.34865 0.29498 0.0
La617 La 0.32155 0.27396 0.26314 0.0
C618 C 0.36971 0.41001 0.30272 0.0
C619 C 0.35145 0.43207 0.30338 0.0
C620 C 0.36047 0.46253 0.32495 0.0
C621 C 0.34475 0.48531 0.32313 0.0
C622 C 0.31922 0.47708 0.30048 0.0
C623 C 0.30909 0.44518 0.28085 0.0
C624 C 0.32509 0.42288 0.28219 0.0
C625 C 0.34772 0.31265 0.34077 0.0
C626 C 0.28615 0.31956 0.29103 0.0
C627 C 0.30879 0.21198 0.25137 0.0
C628 C 0.32824 0.19091 0.25334 0.0
C629 C 0.32905 0.16835 0.2259 0.0
C630 C 0.34872 0.14966 0.22678 0.0
C631 C 0.3673 0.15276 0.25538 0.0
C632 C 0.36667 0.17557 0.28277 0.0
C633 C 0.34759 0.19484 0.28167 0.0
C634 C 0.33067 0.31164 0.21818 0.0
C635 C 0.38937 0.30273 0.26895 0.0
O636 O 0.36981 0.39493 0.32661 0.0
O637 O 0.36709 0.39023 0.27503 0.0
O638 O 0.36277 0.34336 0.34493 0.0
O639 O 0.34014 0.30284 0.31043 0.0
O640 O 0.30888 0.34534 0.29239 0.0
O641 O 0.28541 0.28836 0.28039 0.0
O642 O 0.31173 0.22919 0.22913 0.0
O643 O 0.30652 0.2297 0.27825 0.0
O644 O 0.3171 0.28039 0.21257 0.0
O645 O 0.33618 0.31967 0.24854 0.0
O646 O 0.36777 0.27839 0.27314 0.0
O647 O 0.39026 0.33408 0.27715 0.0
H648 H 0.38044 0.46934 0.34203 0.0
H649 H 0.35386 0.50978 0.33805 0.0
H650 H 0.28941 0.4378 0.26339 0.0
H651 H 0.31728 0.39892 0.26594 0.0
H652 H 0.31484 0.16569 0.20363 0.0
H653 H 0.34945 0.13298 0.20508 0.0
H654 H 0.38065 0.17823 0.30522 0.0
H655 H 0.348 0.21267 0.30305 0.0
La656 La 0.58471 0.59775 0.04124 0.0
La657 La 0.59511 0.535 1.01462 0.0
C658 C 0.58528 0.65734 0.05035 0.0
C659 C 0.58878 0.68163 0.03009 0.0
C660 C 0.57685 0.70797 0.03681 0.0
C661 C 0.58308 0.73378 0.02066 0.0
C662 C 0.60113 0.73321 0.99735 0.0
C663 C 0.61134 0.70548 0.98905 0.0
C664 C 0.60486 0.67963 1.00508 0.0
C665 C 0.54165 0.54559 0.04616 0.0
C666 C 0.56808 0.56866 0.96313 0.0
C667 C 0.58992 0.47466 1.00281 0.0
C668 C 0.59254 0.45399 0.02568 0.0
C669 C 0.6074 0.43017 0.01951 0.0
C670 C 0.60621 0.40692 0.03851 0.0
C671 C 0.59027 0.40797 0.06353 0.0
C672 C 0.57879 0.43438 0.07242 0.0
C673 C 0.58004 0.4576 0.05354 0.0
C674 C 0.644 0.58345 0.01497 0.0
C675 C 0.61419 0.56373 0.09169 0.0
O676 O 0.56138 0.63289 0.04217 0.0
O677 O 0.60824 0.64754 0.05788 0.0
O678 O 0.55102 0.57369 0.06667 0.0
O679 O 0.55588 0.54836 0.02303 0.0
O680 O 0.57213 0.59371 0.98819 0.0
O681 O 0.57513 0.54151 0.96779 0.0
O682 O 0.61398 0.4967 1.00195 0.0
O683 O 0.56764 0.48665 1.00282 0.0
O684 O 0.63966 0.55224 1.00362 0.0
O685 O 0.62049 0.58583 0.02418 0.0
O686 O 0.60623 0.53745 0.06744 0.0
O687 O 0.60995 0.59215 0.08626 0.0
H688 H 0.56377 0.70928 0.05554 0.0
H689 H 0.57519 0.75497 0.02792 0.0
H690 H 0.62465 0.70401 0.97051 0.0
H691 H 0.61244 0.65826 0.99805 0.0
H692 H 0.61813 0.42821 0.99881 0.0
H693 H 0.61514 0.38641 0.03181 0.0
H694 H 0.56643 0.43511 0.09192 0.0
H695 H 0.56968 0.47694 0.05963 0.0
La696 La 0.8723 0.34093 0.2779 0.0
La697 La 0.81711 0.29275 0.28317 0.0
C698 C 0.92458 0.37301 0.29412 0.0
C699 C 0.95211 0.36451 0.2964 0.0
C700 C 0.96917 0.36751 0.27219 0.0
C701 C 0.99714 0.364 0.27708 0.0
C702 C 1.00795 0.35765 0.30615 0.0
C703 C 0.99015 0.35182 0.32914 0.0
C704 C 0.96246 0.35537 0.32441 0.0
C705 C 0.84287 0.30314 0.22492 0.0
C706 C 0.87317 0.26389 0.28567 0.0
C707 C 0.76541 0.25875 0.26653 0.0
C708 C 0.73757 0.26686 0.26257 0.0
C709 C 0.72152 0.26771 0.28778 0.0
C710 C 0.69367 0.27138 0.28282 0.0
C711 C 0.68172 0.27445 0.25274 0.0
C712 C 0.6983 0.27607 0.22817 0.0
C713 C 0.72609 0.27216 0.233 0.0
C714 C 0.84664 0.32975 0.33648 0.0
C715 C 0.81655 0.37058 0.27739 0.0
O716 O 0.91003 0.37024 0.26553 0.0
O717 O 0.9079 0.36123 0.3137 0.0
O718 O 0.85819 0.33355 0.22671 0.0
O719 O 0.84643 0.2954 0.25131 0.0
O720 O 0.88737 0.29487 0.28333 0.0
O721 O 0.84439 0.25706 0.28593 0.0
O722 O 0.77944 0.26468 0.29591 0.0
O723 O 0.78264 0.26731 0.24609 0.0
O724 O 0.83086 0.29942 0.33412 0.0
O725 O 0.84325 0.33808 0.31027 0.0
O726 O 0.80202 0.33882 0.27715 0.0
O727 O 0.84562 0.37783 0.27902 0.0
H728 H 0.9615 0.37415 0.2503 0.0
H729 H 1.01092 0.36838 0.2592 0.0
H730 H 0.99834 0.34655 0.35162 0.0
H731 H 0.94983 0.35253 0.3435 0.0
H732 H 0.72993 0.26411 0.31091 0.0
H733 H 0.68092 0.2703 0.30195 0.0
H734 H 0.68912 0.27839 0.20477 0.0
H735 H 0.73803 0.27194 0.21319 0.0
La736 La 0.09482 0.5645 0.55715 0.0
La737 La 0.0824 0.58207 0.49154 0.0
C738 C 0.09243 0.55528 0.61166 0.0
C739 C 0.06735 0.53908 0.62429 0.0
C740 C 0.05541 0.50444 0.6158 0.0
C741 C 0.03175 0.48923 0.62857 0.0
C742 C 0.02047 0.50842 0.65062 0.0
C743 C 0.03135 0.54332 0.65727 0.0
C744 C 0.05439 0.55849 0.6439 0.0
C745 C 0.11745 0.53494 0.51344 0.0
C746 C 0.03182 0.5375 0.51386 0.0
C747 C 0.07919 0.58889 0.43561 0.0
C748 C 0.10329 0.60552 0.42193 0.0
C749 C 0.10858 0.63952 0.42237 0.0
C750 C 0.13317 0.6564 0.41219 0.0
C751 C 0.15199 0.63908 0.40061 0.0
C752 C 0.14754 0.60555 0.40197 0.0
C753 C 0.12339 0.5889 0.41262 0.0
C754 C 0.06889 0.62214 0.53744 0.0
C755 C 0.14349 0.61125 0.53506 0.0
O756 O 0.10073 0.53574 0.59 0.0
O757 O 0.09197 0.58371 0.60414 0.0
O758 O 0.12861 0.54403 0.54344 0.0
O759 O 0.09278 0.5406 0.50848 0.0
O760 O 0.04894 0.53938 0.54084 0.0
O761 O 0.04137 0.54796 0.48918 0.0
O762 O 0.07173 0.6084 0.45786 0.0
O763 O 0.08097 0.56142 0.44385 0.0
O764 O 0.0661 0.62479 0.50808 0.0
O765 O 0.07957 0.59891 0.53876 0.0
O766 O 0.12864 0.60311 0.50571 0.0
O767 O 0.13078 0.6072 0.56015 0.0
H768 H 0.0647 0.48891 0.6 0.0
H769 H 0.02367 0.46244 0.62305 0.0
H770 H 0.02345 0.55909 0.67446 0.0
H771 H 0.06275 0.58529 0.64992 0.0
H772 H 0.09363 0.65299 0.43033 0.0
H773 H 0.13634 0.68219 0.41103 0.0
H774 H 0.16143 0.59134 0.39244 0.0
H775 H 0.12033 0.56295 0.41296 0.0
La776 La 0.81367 0.82546 0.28126 0.0
La777 La 0.86926 0.80435 0.28042 0.0
C778 C 0.76213 0.82172 0.2886 0.0
C779 C 0.74621 0.8282 0.31515 0.0
C780 C 0.73528 0.85573 0.31831 0.0
C781 C 0.71478 0.8585 0.33811 0.0
C782 C 0.70465 0.83363 0.35492 0.0
C783 C 0.71766 0.8077 0.35425 0.0
C784 C 0.73836 0.80501 0.33452 0.0
C785 C 0.85786 0.8804 0.27908 0.0
C786 C 0.85365 0.83099 0.34755 0.0
C787 C 0.91989 0.80182 0.27523 0.0
C788 C 0.93621 0.7977 0.249 0.0
C789 C 0.95397 0.77658 0.24966 0.0
C790 C 0.97406 0.77663 0.22894 0.0
C791 C 0.97636 0.79772 0.20714 0.0
C792 C 0.95597 0.81574 0.20384 0.0
C793 C 0.93596 0.8158 0.22474 0.0
C794 C 0.82471 0.74989 0.28218 0.0
C795 C 0.82969 0.79978 0.21416 0.0
O796 O 0.77939 0.8473 0.28105 0.0
O797 O 0.77327 0.79687 0.28749 0.0
O798 O 0.8308 0.87886 0.28013 0.0
O799 O 0.8588 0.85054 0.27978 0.0
O800 O 0.82872 0.8323 0.33236 0.0
O801 O 0.87392 0.82283 0.33225 0.0
O802 O 0.8987 0.7761 0.27587 0.0
O803 O 0.91291 0.82947 0.28189 0.0
O804 O 0.85164 0.75122 0.28155 0.0
O805 O 0.82437 0.77982 0.28173 0.0
O806 O 0.85562 0.80123 0.22933 0.0
O807 O 0.80873 0.80562 0.22966 0.0
H808 H 0.74114 0.87409 0.30391 0.0
H809 H 0.70545 0.87904 0.33868 0.0
H810 H 0.71024 0.78813 0.36692 0.0
H811 H 0.74667 0.78364 0.33292 0.0
H812 H 0.95375 0.76178 0.26775 0.0
H813 H 0.98947 0.76254 0.23216 0.0
H814 H 0.95699 0.83167 0.18671 0.0
H815 H 0.92155 0.83133 0.22304 0.0
La816 La 0.8509 0.32165 0.76657 0.0
La817 La 0.81978 0.32622 0.81195 0.0
C818 C 0.86537 0.32251 0.71304 0.0
C819 C 0.88135 0.34915 0.7 0.0
C820 C 0.90785 0.34776 0.69059 0.0
C821 C 0.92174 0.3711 0.67468 0.0
C822 C 0.90878 0.39536 0.66801 0.0
C823 C 0.88358 0.39848 0.6798 0.0
C824 C 0.86996 0.37555 0.69602 0.0
C825 C 0.88919 0.3176 0.81497 0.0
C826 C 0.85941 0.38959 0.81029 0.0
C827 C 0.78527 0.31878 0.85098 0.0
C828 C 0.77855 0.29518 0.87079 0.0
C829 C 0.7663 0.30314 0.89779 0.0
C830 C 0.76411 0.28279 0.91965 0.0
C831 C 0.77463 0.25521 0.91412 0.0
C832 C 0.78433 0.24555 0.8858 0.0
C833 C 0.7862 0.26555 0.86405 0.0
C834 C 0.79289 0.33673 0.75813 0.0
C835 C 0.82349 0.25771 0.78152 0.0
O836 O 0.88031 0.31438 0.73587 0.0
O837 O 0.84004 0.32448 0.71925 0.0
O838 O 0.89331 0.31932 0.7863 0.0
O839 O 0.86344 0.31982 0.81817 0.0
O840 O 0.8578 0.37427 0.78075 0.0
O841 O 0.84951 0.3734 0.83128 0.0
O842 O 0.77819 0.30583 0.82063 0.0
O843 O 0.81154 0.33898 0.85851 0.0
O844 O 0.8001 0.35713 0.78543 0.0
O845 O 0.80429 0.31341 0.76093 0.0
O846 O 0.82438 0.27693 0.80879 0.0
O847 O 0.83016 0.27059 0.75748 0.0
H848 H 0.91699 0.32774 0.69411 0.0
H849 H 0.94107 0.36859 0.66519 0.0
H850 H 0.87304 0.41681 0.67406 0.0
H851 H 0.84978 0.37754 0.70372 0.0
H852 H 0.7599 0.32576 0.90266 0.0
H853 H 0.75639 0.28976 0.94174 0.0
H854 H 0.79218 0.2238 0.88158 0.0
H855 H 0.79422 0.25801 0.8427 0.0
La856 La 0.85583 0.8458 0.79162 0.0
La857 La 0.82303 0.77622 0.76123 0.0
C858 C 0.86784 0.90689 0.79642 0.0
C859 C 0.84823 0.92778 0.79893 0.0
C860 C 0.85243 0.95261 0.82641 0.0
C861 C 0.83452 0.97339 0.82819 0.0
C862 C 0.81206 0.96872 0.80284 0.0
C863 C 0.80675 0.94301 0.77613 0.0
C864 C 0.82483 0.92267 0.77404 0.0
C865 C 0.84549 0.81372 0.83986 0.0
C866 C 0.78838 0.82075 0.78764 0.0
C867 C 0.81107 0.7146 0.74462 0.0
C868 C 0.83097 0.69421 0.74626 0.0
C869 C 0.8277 0.66707 0.72131 0.0
C870 C 0.84577 0.64664 0.72343 0.0
C871 C 0.86732 0.6538 0.75028 0.0
C872 C 0.87192 0.68202 0.7743 0.0
C873 C 0.85379 0.70223 0.77235 0.0
C874 C 0.83088 0.81742 0.72007 0.0
C875 C 0.89282 0.80096 0.77203 0.0
O876 O 0.8726 0.89356 0.82092 0.0
O877 O 0.86315 0.88588 0.76918 0.0
O878 O 0.86059 0.84418 0.84285 0.0
O879 O 0.83818 0.80194 0.80981 0.0
O880 O 0.81014 0.84299 0.78118 0.0
O881 O 0.78801 0.78945 0.78243 0.0
O882 O 0.81527 0.73411 0.72443 0.0
O883 O 0.80714 0.7297 0.77209 0.0
O884 O 0.80683 0.79455 0.71937 0.0
O885 O 0.84847 0.81649 0.74391 0.0
O886 O 0.86873 0.77674 0.76963 0.0
O887 O 0.89394 0.83232 0.78082 0.0
H888 H 0.87003 0.95649 0.84597 0.0
H889 H 0.83874 0.9937 0.84867 0.0
H890 H 0.78951 0.93972 0.75628 0.0
H891 H 0.82054 0.90324 0.75281 0.0
H892 H 0.81061 0.66114 0.70078 0.0
H893 H 0.84214 0.62456 0.705 0.0
H894 H 0.8885 0.68736 0.79529 0.0
H895 H 0.85703 0.72334 0.79175 0.0
La896 La 0.56589 0.54625 0.5104 0.0
La897 La 0.61963 0.58516 0.5501 0.0
C898 C 0.51156 0.52652 0.49476 0.0
C899 C 0.49004 0.54535 0.49573 0.0
C900 C 0.4676 0.53795 0.46962 0.0
C901 C 0.44616 0.5543 0.47045 0.0
C902 C 0.44649 0.57768 0.49781 0.0
C903 C 0.47027 0.58711 0.52294 0.0
C904 C 0.49209 0.57121 0.5218 0.0
C905 C 0.60474 0.54882 0.46752 0.0
C906 C 0.58326 0.62558 0.5171 0.0
C907 C 0.67359 0.60626 0.56988 0.0
C908 C 0.69582 0.58862 0.56712 0.0
C909 C 0.71643 0.591 0.59377 0.0
C910 C 0.73665 0.57292 0.59118 0.0
C911 C 0.73658 0.55258 0.56179 0.0
C912 C 0.71541 0.5497 0.5355 0.0
C913 C 0.69483 0.56694 0.53849 0.0
C914 C 0.58005 0.5831 0.59182 0.0
C915 C 0.60176 0.50533 0.54333 0.0
O916 O 0.52913 0.53253 0.47437 0.0
O917 O 0.52517 0.52495 0.52226 0.0
O918 O 0.5773 0.53297 0.46231 0.0
O919 O 0.61022 0.5623 0.49822 0.0
O920 O 0.56311 0.59673 0.50846 0.0
O921 O 0.60892 0.62762 0.5334 0.0
O922 O 0.65473 0.59517 0.58747 0.0
O923 O 0.66107 0.6114 0.54335 0.0
O924 O 0.60685 0.60108 0.59712 0.0
O925 O 0.57554 0.56976 0.56142 0.0
O926 O 0.62152 0.53444 0.55359 0.0
O927 O 0.57695 0.50319 0.52518 0.0
H928 H 0.46635 0.519 0.44882 0.0
H929 H 0.42878 0.54779 0.45014 0.0
H930 H 0.4713 0.60551 0.54414 0.0
H931 H 0.50993 0.57835 0.54172 0.0
H932 H 0.71683 0.60675 0.6165 0.0
H933 H 0.75259 0.57524 0.61196 0.0
H934 H 0.71517 0.53488 0.5124 0.0
H935 H 0.67809 0.56373 0.51855 0.0
La936 La 0.11863 0.5638 0.022 0.0
La937 La 0.05636 0.56252 0.03358 0.0
C938 C 0.16786 0.5544 0.02502 0.0
C939 C 0.18183 0.52797 0.01727 0.0
C940 C 0.19658 0.52684 0.99102 0.0
C941 C 0.21612 0.50794 0.98827 0.0
C942 C 0.22108 0.49005 1.01172 0.0
C943 C 0.20428 0.48853 0.03613 0.0
C944 C 0.18479 0.50745 0.03896 0.0
C945 C 0.08272 0.56592 0.97468 0.0
C946 C 0.06937 0.49402 0.01577 0.0
C947 C 1.00701 0.57022 0.03568 0.0
C948 C 0.9935 0.59714 0.04222 0.0
C949 C 0.97967 0.59992 0.06911 0.0
C950 C 0.96116 0.62001 0.07215 0.0
C951 C 0.95647 0.63754 0.04836 0.0
C952 C 0.97259 0.63746 0.02327 0.0
C953 C 0.99103 0.61729 0.02014 0.0
C954 C 0.09267 0.56253 0.08157 0.0
C955 C 0.10615 0.63236 0.0383 0.0
O956 O 0.15594 0.56456 1.00118 0.0
O957 O 0.15237 0.55236 0.04799 0.0
O958 O 0.1105 0.57779 0.97644 0.0
O959 O 0.07678 0.54924 0.9952 0.0
O960 O 0.09724 0.51059 0.0186 0.0
O961 O 0.04855 0.50906 0.01733 0.0
O962 O 0.02343 0.56622 0.06019 0.0
O963 O 1.01776 0.56628 1.00907 0.0
O964 O 0.06537 0.54678 0.07772 0.0
O965 O 0.09815 0.57835 0.06033 0.0
O966 O 0.078 0.61548 0.03427 0.0
O967 O 0.12682 0.61711 0.03824 0.0
H968 H 0.19463 0.54235 0.97394 0.0
H969 H 0.22883 0.5091 0.96912 0.0
H970 H 0.20792 0.47489 0.05447 0.0
H971 H 0.1737 0.50775 0.05946 0.0
H972 H 0.98148 0.58474 0.08656 0.0
H973 H 0.94872 0.61977 0.09156 0.0
H974 H 0.96893 0.65067 1.00456 0.0
H975 H 1.00169 0.61584 0.99935 0.0
C976 C 0.06522 0.20923 0.01624 0.0
C977 C 0.05572 0.20798 0.98339 0.0
C978 C 0.07586 0.18386 0.02689 0.0
C979 C 0.07676 0.15518 1.00538 0.0
H980 H 0.06439 0.2301 0.03402 0.0
H981 H 0.08232 0.18615 0.05231 0.0
S982 S 0.05493 0.13901 0.9172 0.0
N983 N 0.04923 0.17527 0.92973 0.0
N984 N 0.06747 0.12773 0.94954 0.0
C985 C 0.06759 0.15381 0.97267 0.0
C986 C 0.05764 0.17997 0.96178 0.0
C987 C 0.22701 0.86025 0.2182 0.0
C988 C 0.22079 0.84136 0.18661 0.0
C989 C 0.24977 0.85817 0.24126 0.0
C990 C 0.26727 0.83657 0.23443 0.0
H991 H 0.21478 0.87757 0.22497 0.0
H992 H 0.25377 0.87394 0.26483 0.0
S993 S 0.25759 0.77855 0.15646 0.0
N994 N 0.23306 0.7986 0.15057 0.0
N995 N 0.27441 0.79372 0.1938 0.0
C996 C 0.26029 0.81641 0.20337 0.0
C997 C 0.23759 0.8191 0.17968 0.0
C998 C 0.57203 0.90705 0.48191 0.0
C999 C 0.55135 0.88569 0.49513 0.0
C1000 C 0.57764 0.94165 0.49011 0.0
C1001 C 0.56263 0.95664 0.51154 0.0
H1002 H 0.58384 0.89704 0.46469 0.0
H1003 H 0.59368 0.95685 0.47914 0.0
S1004 S 0.50697 0.91279 0.55374 0.0
N1005 N 0.51634 0.88277 0.53172 0.0
N1006 N 0.52647 0.94776 0.54628 0.0
C1007 C 0.54182 0.9359 0.52489 0.0
C1008 C 0.53639 0.90053 0.51698 0.0
C1009 C 0.55584 0.31258 0.7022 0.0
C1010 C 0.55661 0.32118 0.67228 0.0
C1011 C 0.52931 0.30176 0.71271 0.0
C1012 C 0.5029 0.29951 0.6936 0.0
H1013 H 0.57588 0.31575 0.71816 0.0
H1014 H 0.52965 0.29739 0.73679 0.0
S1015 S 0.49312 0.3129 0.61095 0.0
N1016 N 0.52876 0.32199 0.62175 0.0
N1017 N 0.47877 0.30208 0.6419 0.0
C1018 C 0.50329 0.30535 0.66263 0.0
C1019 C 0.53027 0.31611 0.65182 0.0
C1020 C 0.07039 0.83022 0.59933 0.0
C1021 C 0.04013 0.82362 0.59798 0.0
C1022 C 0.08609 0.85769 0.58898 0.0
C1023 C 0.07184 0.87944 0.57817 0.0
H1024 H 0.08183 0.81395 0.60818 0.0
H1025 H 0.10927 0.86202 0.58945 0.0
S1026 S 0.99318 0.87311 0.57179 0.0
N1027 N 0.99682 0.84079 0.58624 0.0
N1028 N 0.02604 0.8927 0.56665 0.0
C1029 C 0.04165 0.87312 0.57716 0.0
C1030 C 0.0258 0.84504 0.58721 0.0
C1031 C 0.5776 0.83814 0.81535 0.0
C1032 C 0.59504 0.86423 0.83985 0.0
C1033 C 0.5495 0.83807 0.80299 0.0
C1034 C 0.53814 0.86364 0.81562 0.0
H1035 H 0.58491 0.8166 0.80749 0.0
H1036 H 0.53586 0.8168 0.78534 0.0
S1037 S 0.57519 0.93762 0.87963 0.0
N1038 N 0.5995 0.91692 0.87527 0.0
N1039 N 0.54625 0.9161 0.85284 0.0
C1040 C 0.55583 0.89065 0.83895 0.0
C1041 C 0.58454 0.89115 0.85088 0.0
C1042 C 0.53597 0.18916 0.0756 0.0
C1043 C 0.51931 0.17581 0.09747 0.0
C1044 C 0.55069 0.17043 0.05741 0.0
C1045 C 0.55023 0.13828 0.06129 0.0
H1046 H 0.53806 0.21435 0.07285 0.0
H1047 H 0.56272 0.18133 0.04029 0.0
S1048 S 0.51076 0.09323 0.11629 0.0
N1049 N 0.50254 0.12838 0.12113 0.0
N1050 N 0.53286 0.09509 0.08963 0.0
C1051 C 0.53425 0.12523 0.08346 0.0
C1052 C 0.51801 0.14344 0.10069 0.0
C1053 C 0.23803 0.3339 0.35173 0.0
C1054 C 0.22781 0.35948 0.34217 0.0
C1055 C 0.2548 0.31814 0.3332 0.0
C1056 C 0.26172 0.32751 0.30462 0.0
H1057 H 0.23332 0.32625 0.37373 0.0
H1058 H 0.2637 0.29994 0.34214 0.0
S1059 S 0.23887 0.39054 0.26783 0.0
N1060 N 0.22521 0.3919 0.30125 0.0
N1061 N 0.25613 0.36186 0.26678 0.0
C1062 C 0.25082 0.35182 0.29433 0.0
C1063 C 0.23406 0.36794 0.31302 0.0
C1064 C 0.02822 0.05049 0.15348 0.0
C1065 C 0.02885 0.07925 0.17689 0.0
C1066 C 0.04277 0.05114 0.12571 0.0
C1067 C 0.06034 0.0807 0.11892 0.0
H1068 H 1.01651 0.02644 0.15699 0.0
H1069 H 0.04121 0.02773 0.11017 0.0
S1070 S 0.07337 0.16351 0.17277 0.0
N1071 N 0.05107 0.13871 0.19039 0.0
N1072 N 0.07861 0.13984 0.14065 0.0
C1073 C 0.06192 0.10955 0.14248 0.0
C1074 C 0.04642 0.10897 0.17031 0.0
C1075 C 0.31066 0.73036 0.48151 0.0
C1076 C 0.28831 0.70839 0.49131 0.0
C1077 C 0.30417 0.74562 0.45717 0.0
C1078 C 0.27531 0.73845 0.44199 0.0
H1079 H 0.33318 0.73535 0.49239 0.0
H1080 H 0.32181 0.76223 0.44938 0.0
S1081 S 0.20914 0.68538 0.46139 0.0
N1082 N 0.23628 0.68202 0.48647 0.0
N1083 N 0.22418 0.71093 0.43931 0.0
C1084 C 0.25261 0.71797 0.45253 0.0
C1085 C 0.25914 0.70267 0.47772 0.0
C1086 C 0.65662 0.04846 0.62826 0.0
C1087 C 0.65437 0.06282 0.65912 0.0
C1088 C 0.63482 0.04533 0.60318 0.0
C1089 C 0.61139 0.05768 0.60868 0.0
H1090 H 0.67541 0.04016 0.62354 0.0
H1091 H 0.63617 0.03319 0.57949 0.0
S1092 S 0.59657 0.09902 0.68489 0.0
N1093 N 0.62729 0.08986 0.69431 0.0
N1094 N 0.58664 0.08511 0.64588 0.0
C1095 C 0.6087 0.07202 0.6393 0.0
C1096 C 0.63045 0.07457 0.66505 0.0
C1097 C 0.38192 0.3418 0.93671 0.0
C1098 C 0.3612 0.35279 0.95297 0.0
C1099 C 0.37901 0.33545 0.90298 0.0
C1100 C 0.35506 0.33947 0.88368 0.0
H1101 H 0.40102 0.33867 0.95019 0.0
H1102 H 0.39572 0.32723 0.89202 0.0
S1103 S 0.29411 0.36695 0.91384 0.0
N1104 N 0.31565 0.3671 0.9466 0.0
N1105 N 0.30991 0.3549 0.88382 0.0
C1106 C 0.33408 0.35028 0.89963 0.0
C1107 C 0.3372 0.35699 0.93396 0.0
C1108 C 0.02283 0.09178 0.39273 0.0
C1109 C 0.03284 0.07941 0.36457 0.0
C1110 C 0.03402 0.08823 0.42416 0.0
C1111 C 0.05544 0.07132 0.42975 0.0
H1112 H 1.0059 0.10402 0.39056 0.0
H1113 H 0.02529 0.09843 0.44436 0.0
S1114 S 0.09081 0.03567 0.36578 0.0
N1115 N 0.06765 0.05091 0.34641 0.0
N1116 N 0.08668 0.04328 0.40358 0.0
C1117 C 0.06561 0.05903 0.40204 0.0
C1118 C 0.05494 0.06331 0.37038 0.0
C1119 C 0.29533 0.7405 0.65634 0.0
C1120 C 0.31567 0.73438 0.63698 0.0
C1121 C 0.30386 0.76439 0.6845 0.0
C1122 C 0.33302 0.78232 0.69455 0.0
H1123 H 0.27239 0.72747 0.64916 0.0
H1124 H 0.28734 0.76964 0.69773 0.0
S1125 S 0.39547 0.77307 0.65532 0.0
N1126 N 0.36677 0.74666 0.63104 0.0
N1127 N 0.38288 0.79072 0.6857 0.0
C1128 C 0.35397 0.77528 0.67673 0.0
C1129 C 0.34528 0.75126 0.64753 0.0
C1130 C 0.70142 0.12685 0.84548 0.0
C1131 C 0.68338 0.13148 0.81981 0.0
C1132 C 0.69855 0.13888 0.87674 0.0
C1133 C 0.67554 0.15251 0.88247 0.0
H1134 H 0.71691 0.11281 0.84138 0.0
H1135 H 0.71095 0.13242 0.89603 0.0
S1136 S 0.63081 0.18069 0.82278 0.0
N1137 N 0.6489 0.15952 0.80171 0.0
N1138 N 0.64168 0.18012 0.86036 0.0
C1139 C 0.66145 0.1627 0.8571 0.0
C1140 C 0.66519 0.15161 0.82547 0.0
C1141 C 0.36485 0.32734 0.14328 0.0
C1142 C 0.3573 0.35529 0.13538 0.0
C1143 C 0.35723 0.31457 0.1705 0.0
C1144 C 0.34227 0.3294 0.19243 0.0
H1145 H 0.37646 0.31455 0.12786 0.0
H1146 H 0.36294 0.29243 0.17419 0.0
S1147 S 0.31544 0.40163 0.18346 0.0
N1148 N 0.33219 0.39634 0.15235 0.0
N1149 N 0.31888 0.37271 0.20336 0.0
C1150 C 0.33446 0.35717 0.18511 0.0
C1151 C 0.34166 0.36995 0.15688 0.0
C1152 C 0.29422 0.03664 0.01721 0.0
C1153 C 0.30874 1.01997 0.03553 0.0
C1154 C 0.27144 0.04726 0.02761 0.0
C1155 C 0.26291 0.04184 0.05678 0.0
H1156 H 0.3 0.0407 0.99433 0.0
H1157 H 0.26016 0.05953 1.01257 0.0
S1158 S 0.29793 1.00447 0.11586 0.0
N1159 N 0.31582 1.00149 0.08547 0.0
N1160 N 0.27283 0.02255 0.10569 0.0
C1161 C 0.27851 0.02706 0.07636 0.0
C1162 C 0.30151 1.01565 0.06543 0.0
C1163 C 0.6973 0.66755 1.01169 0.0
C1164 C 0.72419 0.66046 1.00905 0.0
C1165 C 0.67208 0.64336 0.01513 0.0
C1166 C 0.67175 0.61033 0.01493 0.0
H1167 H 0.69565 0.69232 1.01152 0.0
H1168 H 0.65265 0.65063 0.01781 0.0
S1169 S 0.73678 0.57907 1.01341 0.0
N1170 N 0.74914 0.61804 1.01034 0.0
N1171 N 0.70183 0.57275 0.01519 0.0
C1172 C 0.69861 0.60306 1.01336 0.0
C1173 C 0.72458 0.62788 1.01071 0.0
C1174 C 0.79994 0.45906 0.28511 0.0
C1175 C 0.76909 0.45355 0.28342 0.0
C1176 C 0.81459 0.43318 0.28232 0.0
C1177 C 0.80005 0.39874 0.27832 0.0
H1178 H 0.81349 0.48443 0.28964 0.0
H1179 H 0.83803 0.44066 0.28433 0.0
S1180 S 0.72001 0.36806 0.27495 0.0
N1181 N 0.72523 0.40842 0.27863 0.0
N1182 N 0.75203 0.36133 0.2739 0.0
C1183 C 0.76934 0.39256 0.2767 0.0
C1184 C 0.7543 0.419 0.27918 0.0
C1185 C 0.9534 0.5319 0.48738 0.0
C1186 C 0.94247 0.53103 0.51599 0.0
C1187 C 0.98222 0.53218 0.48646 0.0
C1188 C 1.00088 0.53283 0.51445 0.0
H1189 H 0.93867 0.52689 0.46495 0.0
H1190 H 0.98954 0.53081 0.46353 0.0
S1191 S 0.98292 0.53986 0.59638 0.0
N1192 N 0.95305 0.53968 0.57356 0.0
N1193 N 1.00658 0.5369 0.57216 0.0
C1194 C 0.99064 0.53615 0.54375 0.0
C1195 C 0.96192 0.53796 0.54462 0.0
C1196 C 0.43286 0.12565 0.28112 0.0
C1197 C 0.42226 0.09116 0.27127 0.0
C1198 C 0.41532 0.14565 0.27433 0.0
C1199 C 0.38675 0.13164 0.25749 0.0
H1200 H 0.45423 0.13708 0.29551 0.0
H1201 H 0.42382 0.17219 0.28324 0.0
S1202 S 0.35064 0.04242 0.2232 0.0
N1203 N 0.38302 0.04368 0.24153 0.0
N1204 N 0.34962 0.08129 0.22879 0.0
C1205 C 0.3766 0.09717 0.24589 0.0
C1206 C 0.39447 0.07685 0.25296 0.0
C1207 C 0.38197 0.14523 0.53834 0.0
C1208 C 0.38541 0.17432 0.52643 0.0
C1209 C 0.40607 0.1353 0.5491 0.0
C1210 C 0.43431 0.15413 0.54792 0.0
H1211 H 0.36041 0.12932 0.53805 0.0
H1212 H 0.40242 0.11148 0.55589 0.0
S1213 S 0.45553 0.23484 0.52402 0.0
N1214 N 0.41954 0.22415 0.51817 0.0
N1215 N 0.46493 0.20493 0.53826 0.0
C1216 C 0.43825 0.1847 0.53892 0.0
C1217 C 0.41373 0.19501 0.52814 0.0
C1218 C 0.75533 0.68473 0.29765 0.0
C1219 C 0.7613 0.65331 0.29061 0.0
C1220 C 0.77461 0.71548 0.29438 0.0
C1221 C 0.80146 0.71725 0.28356 0.0
H1222 H 0.73525 0.68581 0.30606 0.0
H1223 H 0.7685 0.73803 0.30102 0.0
S1224 S 0.8276 0.64317 0.25897 0.0
N1225 N 0.79642 0.62723 0.27038 0.0
N1226 N 0.83186 0.68342 0.26415 0.0
C1227 C 0.80739 0.68602 0.27579 0.0
C1228 C 0.78782 0.65482 0.27924 0.0
C1229 C 0.89697 0.46041 0.78705 0.0
C1230 C 0.92481 0.45628 0.7934 0.0
C1231 C 0.87451 0.44361 0.80062 0.0
C1232 C 0.87943 0.42167 0.81979 0.0
H1233 H 0.89262 0.47651 0.77137 0.0
H1234 H 0.85254 0.44411 0.79252 0.0
S1235 S 0.94937 0.4082 0.84948 0.0
N1236 N 0.95695 0.43289 0.82424 0.0
N1237 N 0.9143 0.40195 0.85035 0.0
C1238 C 0.90772 0.42104 0.82998 0.0
C1239 C 0.93044 0.4372 0.81555 0.0
C1240 C 0.14591 0.94768 0.07064 0.0
C1241 C 0.12578 0.92003 0.07719 0.0
C1242 C 0.13742 0.974 0.05987 0.0
C1243 C 0.10807 0.97433 0.05381 0.0
H1244 H 0.16886 0.94942 0.0744 0.0
H1245 H 0.15436 0.99446 0.0561 0.0
S1246 S 0.04564 0.90743 0.0652 0.0
N1247 N 0.07423 0.89479 0.07592 0.0
N1248 N 0.05838 0.94318 0.05465 0.0
C1249 C 0.08738 0.94647 0.05942 0.0
C1250 C 0.09614 0.91986 0.07131 0.0
C1251 C 0.92697 0.2887 0.88616 0.0
C1252 C 0.95626 0.29336 0.88105 0.0
C1253 C 0.90564 0.29725 0.86583 0.0
C1254 C 0.91222 0.31112 0.83908 0.0
H1255 H 0.92028 0.27819 0.90618 0.0
H1256 H 0.88365 0.29234 0.87087 0.0
S1257 S 0.98612 0.33216 0.81646 0.0
N1258 N 0.99056 0.31554 0.84787 0.0
N1259 N 0.95145 0.33101 0.81024 0.0
C1260 C 0.94161 0.31669 0.83423 0.0
C1261 C 0.96319 0.30807 0.85487 0.0
C1262 C 0.61705 0.22265 0.53532 0.0
C1263 C 0.62959 0.24022 0.56679 0.0
C1264 C 0.60954 0.18755 0.52716 0.0
C1265 C 0.6151 0.1688 0.54986 0.0
H1266 H 0.61242 0.23602 0.51709 0.0
H1267 H 0.59936 0.17496 0.50288 0.0
S1268 S 0.64912 0.20302 0.6349 0.0
N1269 N 0.64758 0.23601 0.62043 0.0
N1270 N 0.63509 0.17081 0.60479 0.0
C1271 C 0.62843 0.18619 0.58105 0.0
C1272 C 0.6352 0.22164 0.58955 0.0
C1273 C 0.62688 0.83297 0.36117 0.0
C1274 C 0.62368 0.82566 0.39128 0.0
C1275 C 0.65329 0.83583 0.34992 0.0
C1276 C 0.67769 0.83215 0.36865 0.0
H1277 H 0.60867 0.83604 0.346 0.0
H1278 H 0.65444 0.84045 0.32607 0.0
S1279 S 0.68157 0.81677 0.45088 0.0
N1280 N 0.6475 0.81681 0.44064 0.0
N1281 N 0.69759 0.82327 0.41974 0.0
C1282 C 0.67504 0.82571 0.39922 0.0
C1283 C 0.64793 0.82227 0.41051 0.0
C1284 C 0.13355 0.31286 0.49251 0.0
C1285 C 0.13086 0.31421 0.46022 0.0
C1286 C 0.12096 0.28357 0.5016 0.0
C1287 C 0.10488 0.25527 0.47857 0.0
H1288 H 0.14565 0.33447 0.51074 0.0
H1289 H 0.1241 0.28288 0.52678 0.0
S1290 S 0.08818 0.24729 0.39128 0.0
N1291 N 0.10905 0.28572 0.40508 0.0
N1292 N 0.08497 0.23035 0.42285 0.0
C1293 C 0.10124 0.25638 0.44627 0.0
C1294 C 0.1143 0.28613 0.43686 0.0
C1295 C 0.6011 0.23547 0.23485 0.0
C1296 C 0.59064 0.26137 0.22704 0.0
C1297 C 0.63078 0.24034 0.2441 0.0
C1298 C 0.65074 0.27114 0.24563 0.0
H1299 H 0.5865 0.21088 0.23242 0.0
H1300 H 0.63829 0.2196 0.24899 0.0
S1301 S 0.63482 0.34728 0.22914 0.0
N1302 N 0.6027 0.31955 0.22299 0.0
N1303 N 0.65868 0.32787 0.23957 0.0
C1304 C 0.64073 0.29735 0.23857 0.0
C1305 C 0.61055 0.2927 0.22954 0.0
C1306 C 0.65586 0.99463 0.95547 0.0
C1307 C 0.64898 0.96227 0.9611 0.0
C1308 C 0.6432 1.01796 0.97086 0.0
C1309 C 0.62232 1.00852 0.9903 0.0
H1310 H 0.67019 1.00155 0.93867 0.0
H1311 H 0.64955 0.04324 0.96752 0.0
S1312 S 0.59838 0.9278 1.01358 0.0
N1313 N 0.62307 0.92388 0.99094 0.0
N1314 N 0.59567 0.96563 1.01459 0.0
C1315 C 0.61547 0.97653 0.99591 0.0
C1316 C 0.62996 0.95405 0.98283 0.0
C1317 C 0.92128 0.76335 0.702 0.0
C1318 C 0.95043 0.76862 0.71456 0.0
C1319 C 0.90312 0.77497 0.72102 0.0
C1320 C 0.91379 0.79253 0.75284 0.0
H1321 H 0.91232 0.74925 0.67787 0.0
H1322 H 0.88036 0.76976 0.7109 0.0
S1323 S 0.98916 0.81439 0.79558 0.0
N1324 N 0.98978 0.79317 0.75983 0.0
N1325 N 0.95544 0.81659 0.79524 0.0
C1326 C 0.94326 0.79963 0.76499 0.0
C1327 C 0.96169 0.78711 0.74586 0.0
C1328 C 0.16638 0.05092 0.91045 0.0
C1329 C 0.15196 0.04913 0.87871 0.0
C1330 C 0.15226 0.05193 0.93901 0.0
C1331 C 0.12226 0.05115 0.93862 0.0
H1332 H 0.18928 0.05243 0.91364 0.0
H1333 H 0.16514 0.05295 0.96165 0.0
S1334 S 0.07382 0.04813 0.86322 0.0
N1335 N 0.10496 0.04808 0.85096 0.0
N1336 N 0.07954 0.04915 0.90196 0.0
C1337 C 0.10794 0.04952 0.90715 0.0
C1338 C 0.12222 0.0489 0.87853 0.0
C1339 C 0.91469 0.45971 0.62088 0.0
C1340 C 0.90636 0.4396 0.59037 0.0
C1341 C 0.91957 0.44556 0.64684 0.0
C1342 C 0.91603 0.41135 0.64216 0.0
H1343 H 0.9162 0.48588 0.62469 0.0
H1344 H 0.9236 0.46068 0.67076 0.0
S1345 S 0.89785 0.35 0.56506 0.0
N1346 N 0.89788 0.38572 0.55537 0.0
N1347 N 0.9062 0.35833 0.60449 0.0
C1348 C 0.90994 0.39164 0.61113 0.0
C1349 C 0.90509 0.40608 0.58493 0.0
C1350 C 0.54603 0.08571 0.40342 0.0
C1351 C 0.51776 0.06438 0.39783 0.0
C1352 C 0.56584 0.08579 0.42935 0.0
C1353 C 0.55776 0.0644 0.44997 0.0
H1354 H 0.55384 0.09937 0.38564 0.0
H1355 H 0.58801 0.10127 0.4321 0.0
S1356 S 0.48521 1.0048 0.44525 0.0
N1357 N 0.48142 0.02376 0.41541 0.0
N1358 N 0.51946 0.02091 0.4629 0.0
C1359 C 0.52903 0.04375 0.44523 0.0
C1360 C 0.5086 0.04498 0.41962 0.0
C1361 C 0.84205 0.80468 0.1286 0.0
C1362 C 0.8184 0.77954 0.10944 0.0
C1363 C 0.84534 0.81096 0.16237 0.0
C1364 C 0.8249 0.79282 0.17834 0.0
H1365 H 0.85814 0.81952 0.11746 0.0
H1366 H 0.86397 0.83046 0.17617 0.0
S1367 S 0.76061 0.72223 0.13898 0.0
N1368 N 0.77547 0.73477 0.10893 0.0
N1369 N 0.781 0.7472 0.17197 0.0
C1370 C 0.80134 0.76735 0.15938 0.0
C1371 C 0.79834 0.76056 0.12509 0.0
C1372 C 0.14789 0.02831 0.66344 0.0
C1373 C 0.15308 0.05391 0.69124 0.0
C1374 C 0.13583 0.03131 0.63205 0.0
C1375 C 0.12818 0.0601 0.62583 0.0
H1376 H 0.15262 1.00535 0.66589 0.0
H1377 H 0.13232 1.01046 0.61231 0.0
S1378 S 0.13915 0.13575 0.68915 0.0
N1379 N 0.15049 0.1102 0.70866 0.0
N1380 N 0.12847 0.11539 0.65162 0.0
C1381 C 0.13382 0.08597 0.65329 0.0
C1382 C 0.14595 0.08296 0.685 0.0
C1383 C 0.84446 0.37012 0.4194 0.0
C1384 C 0.86167 0.40244 0.4214 0.0
C1385 C 0.84095 0.34615 0.39202 0.0
C1386 C 0.85366 0.35448 0.36584 0.0
H1387 H 0.83473 0.36302 0.43953 0.0
H1388 H 0.8277 0.32123 0.3912 0.0
S1389 S 0.89998 0.43726 0.3604 0.0
N1390 N 0.89256 0.44205 0.39702 0.0
N1391 N 0.8823 0.3985 0.34317 0.0
C1392 C 0.87009 0.38743 0.36748 0.0
C1393 C 0.87501 0.41116 0.39603 0.0
C1394 C 0.50366 0.03807 0.2265 0.0
C1395 C 0.50729 1.01389 0.2434 0.0
C1396 C 0.49798 0.03004 0.19322 0.0
C1397 C 0.4957 0.99763 0.17685 0.0
H1398 H 0.50981 0.06398 0.23846 0.0
H1399 H 0.50077 0.05039 0.18083 0.0
S1400 S 0.4899 0.92356 0.21101 0.0
N1401 N 0.49864 0.95484 0.24221 0.0
N1402 N 0.48634 0.9399 0.17927 0.0
C1403 C 0.49154 0.97224 0.19369 0.0
C1404 C 0.49833 0.9804 0.22745 0.0
C1405 C 0.83603 0.80813 0.92693 0.0
C1406 C 0.82473 0.77411 0.92658 0.0
C1407 C 0.8427 0.81988 0.89902 0.0
C1408 C 0.83778 0.79856 0.86856 0.0
H1409 H 0.83977 0.82608 0.94918 0.0
H1410 H 0.85146 0.84637 0.90141 0.0
S1411 S 0.80743 0.7071 0.85346 0.0
N1412 N 0.80874 0.719 0.8924 0.0
N1413 N 0.82019 0.74118 0.84019 0.0
C1414 C 0.82623 0.76443 0.86767 0.0
C1415 C 0.82006 0.75227 0.89643 0.0
C1416 C 0.88247 0.11453 0.98458 0.0
C1417 C 0.86979 0.10873 1.01159 0.0
C1418 C 0.90769 0.10545 0.97958 0.0
C1419 C 0.92062 0.09058 1.00158 0.0
H1420 H 0.87343 0.12703 0.96787 0.0
H1421 H 0.91736 0.11048 0.95882 0.0
S1422 S 0.89345 0.06682 0.07368 0.0
N1423 N 0.8704 0.08526 0.05902 0.0
N1424 N 0.91765 0.06773 0.04944 0.0
C1425 C 0.90747 0.08367 0.02796 0.0
C1426 C 0.88202 0.09294 0.03304 0.0
C1427 C 0.4821 0.46307 0.04083 0.0
C1428 C 0.45787 0.4726 0.05068 0.0
C1429 C 0.50812 0.48628 0.03782 0.0
C1430 C 0.51208 0.52075 0.04508 0.0
H1431 H 0.48116 0.43706 0.03544 0.0
H1432 H 0.52558 0.47684 0.0308 0.0
S1433 S 0.45468 0.55972 0.0678 0.0
N1434 N 0.43902 0.51972 0.06432 0.0
N1435 N 0.48787 0.56306 0.05983 0.0
C1436 C 0.48768 0.53075 0.0537 0.0
C1437 C 0.46078 0.50695 0.05612 0.0
C1438 C 0.4189 0.69797 0.76119 0.0
C1439 C 0.41851 0.67982 0.78634 0.0
C1440 C 0.40446 0.7241 0.76003 0.0
C1441 C 0.38774 0.73403 0.78346 0.0
H1442 H 0.43117 0.69268 0.74243 0.0
H1443 H 0.40637 0.7366 0.7402 0.0
S1444 S 0.37903 0.69692 0.85483 0.0
N1445 N 0.3991 0.67658 0.83596 0.0
N1446 N 0.37257 0.72291 0.83268 0.0
C1447 C 0.38688 0.71608 0.80815 0.0
C1448 C 0.40187 0.69023 0.80984 0.0
C1449 C 0.2195 0.61759 0.57279 0.0
C1450 C 0.23263 0.61065 0.54608 0.0
C1451 C 0.19074 0.6185 0.56904 0.0
C1452 C 0.17424 0.61222 0.53837 0.0
H1453 H 0.23243 0.62575 0.59657 0.0
H1454 H 0.18177 0.62519 0.59032 0.0
S1455 S 0.19758 0.58604 0.46104 0.0
N1456 N 0.2267 0.59334 0.4884 0.0
N1457 N 0.17191 0.5932 0.48095 0.0
C1458 C 0.1865 0.60203 0.51154 0.0
C1459 C 0.21587 0.60141 0.51551 0.0
C1460 C 0.79631 0.04406 0.78352 0.0
C1461 C 0.7663 0.03628 0.78339 0.0
C1462 C 0.81163 0.0227 0.79222 0.0
C1463 C 0.79712 0.9936 0.80117 0.0
H1464 H 0.80768 0.06596 0.77571 0.0
H1465 H 0.83453 0.02803 0.79045 0.0
S1466 S 0.7195 0.96492 0.80815 0.0
N1467 N 0.72303 0.99977 0.79534 0.0
N1468 N 0.75214 0.95914 0.81166 0.0
C1469 C 0.76745 0.98643 0.80248 0.0
C1470 C 0.75186 1.00802 0.79352 0.0
C1471 C 0.76962 0.9354 0.52515 0.0
C1472 C 0.79708 0.95479 0.52169 0.0
C1473 C 0.74501 0.94714 0.52156 0.0
C1474 C 0.74727 0.9786 0.51463 0.0
H1475 H 0.76707 0.91086 0.53 0.0
H1476 H 0.72412 0.93151 0.52398 0.0
S1477 S 0.81488 0.03978 0.5066 0.0
N1478 N 0.8253 1.00719 0.51278 0.0
N1479 N 0.77951 0.02966 0.50675 0.0
C1480 C 0.77474 0.99832 0.51185 0.0
C1481 C 0.79953 0.98627 0.51521 0.0
C1482 C 0.42664 0.45634 0.79013 0.0
C1483 C 0.41867 0.47605 0.76884 0.0
C1484 C 0.40801 0.42489 0.79288 0.0
C1485 C 0.38 0.41034 0.77398 0.0
H1486 H 0.44786 0.46546 0.80514 0.0
H1487 H 0.41553 0.41229 0.81046 0.0
S1488 S 0.34884 0.44793 0.7117 0.0
N1489 N 0.38054 0.47563 0.72678 0.0
N1490 N 0.34643 0.41799 0.73173 0.0
C1491 C 0.3721 0.42935 0.75226 0.0
C1492 C 0.39092 0.46137 0.74961 0.0
C1493 C 0.28822 0.66672 0.25064 0.0
C1494 C 0.26045 0.66638 0.23607 0.0
C1495 C 0.30808 0.69617 0.26751 0.0
C1496 C 0.30014 0.72545 0.27079 0.0
H1497 H 0.29471 0.64409 0.24857 0.0
H1498 H 0.3299 0.69629 0.27699 0.0
S1499 S 0.22926 0.73775 0.24165 0.0
N1500 N 0.22532 0.69791 0.22904 0.0
N1501 N 0.26289 0.75317 0.26114 0.0
C1502 C 0.2721 0.72545 0.25818 0.0
C1503 C 0.25207 0.69579 0.24061 0.0
C1504 C 0.539 0.6871 0.50341 0.0
C1505 C 0.55443 0.70771 0.48486 0.0
C1506 C 0.54897 0.66173 0.51431 0.0
C1507 C 0.57548 0.65573 0.50827 0.0
H1508 H 0.51847 0.6901 0.50918 0.0
H1509 H 0.53549 0.64633 0.52753 0.0
S1510 S 0.62527 0.70207 0.46141 0.0
N1511 N 0.59848 0.71961 0.4612 0.0
N1512 N 0.61724 0.67296 0.48238 0.0
C1513 C 0.59169 0.67648 0.49049 0.0
C1514 C 0.58124 0.70202 0.47871 0.0
C1515 C 0.73849 0.37052 0.70969 0.0
C1516 C 0.72121 0.34319 0.68597 0.0
C1517 C 0.76128 0.36774 0.73224 0.0
C1518 C 0.76856 0.33765 0.73234 0.0
H1519 H 0.73457 0.39448 0.71075 0.0
H1520 H 0.7736 0.38978 0.74981 0.0
S1521 S 0.72856 0.25774 0.67645 0.0
N1522 N 0.71216 0.28437 0.66511 0.0
N1523 N 0.75475 0.27919 0.70662 0.0
C1524 C 0.75112 0.30992 0.7089 0.0
C1525 C 0.72769 0.31274 0.6861 0.0
C1526 C 0.05506 0.40612 0.96851 0.0
C1527 C 0.05259 0.38694 0.99223 0.0
C1528 C 0.0594 0.44063 0.97613 0.0
C1529 C 0.06161 0.45739 1.0078 0.0
H1530 H 0.05312 0.39427 0.94367 0.0
H1531 H 0.06133 0.45436 0.95716 0.0
S1532 S 0.05878 0.42003 0.07911 0.0
N1533 N 0.05376 0.38817 0.04905 0.0
N1534 N 0.06233 0.45305 0.06316 0.0
C1535 C 0.05948 0.43889 0.03176 0.0
C1536 C 0.05483 0.40368 0.02404 0.0
C1537 C 0.0452 0.84971 0.1875 0.0
C1538 C 0.05843 0.82632 0.17372 0.0
C1539 C 1.01826 0.83994 0.19708 0.0
C1540 C 1.0032 0.80631 0.19324 0.0
H1541 H 0.05576 0.87602 0.19119 0.0
H1542 H 1.00957 0.85911 0.20849 0.0
S1543 S 0.02742 0.73457 0.15794 0.0
N1544 N 0.05393 0.76735 0.15627 0.0
N1545 N 1.00285 0.74924 0.17438 0.0
C1546 C 1.01581 0.78237 0.17932 0.0
C1547 C 0.04347 0.79229 0.16946 0.0
C1548 C 0.535 0.3329 0.07159 0.0
C1549 C 0.54825 0.32533 0.09883 0.0
C1550 C 0.54973 0.35907 0.05924 0.0
C1551 C 0.57806 0.37779 0.0737 0.0
H1552 H 0.51271 0.31966 0.06073 0.0
H1553 H 0.53855 0.36567 0.03913 0.0
S1554 S 0.62407 0.36462 0.14175 0.0
N1555 N 0.5926 0.33602 0.13762 0.0
N1556 N 0.62019 0.38568 0.1136 0.0
C1557 C 0.59236 0.3693 0.0994 0.0
C1558 C 0.57739 0.34279 0.11228 0.0
C1559 C 0.08186 0.3874 0.35504 0.0
C1560 C 0.09523 0.36396 0.3416 0.0
C1561 C 0.05401 0.38642 0.34193 0.0
C1562 C 0.0388 0.36191 0.31509 0.0
H1563 H 0.09163 0.40462 0.37741 0.0
H1564 H 0.04361 0.40358 0.35398 0.0
S1565 S 0.06493 0.29659 0.2703 0.0
N1566 N 0.09215 0.3169 0.2997 0.0
N1567 N 0.03918 0.31532 0.27423 0.0
C1568 C 0.05247 0.33975 0.30025 0.0
C1569 C 0.08092 0.34065 0.31384 0.0
C1570 C 0.02139 0.63743 0.59818 0.0
C1571 C 0.02293 0.67104 0.59929 0.0
C1572 C 0.03812 0.62192 0.57977 0.0
C1573 C 0.05625 0.6393 0.56155 0.0
H1574 H 1.00779 0.62326 0.61218 0.0
H1575 H 0.03658 0.59623 0.57929 0.0
S1576 S 0.07075 0.72757 0.55785 0.0
N1577 N 0.04631 0.72147 0.58164 0.0
N1578 N 0.07666 0.69132 0.54668 0.0
C1579 C 0.05842 0.67258 0.5626 0.0
C1580 C 0.04187 0.68866 0.58141 0.0
C1581 C 0.75562 0.88294 0.83084 0.0
C1582 C 0.73251 0.8638 0.84201 0.0
C1583 C 0.77268 0.86818 0.81283 0.0
C1584 C 0.76736 0.83349 0.80477 0.0
H1585 H 0.76079 0.90968 0.83634 0.0
H1586 H 0.7906 0.88462 0.80568 0.0
S1587 S 0.70886 0.77202 0.82915 0.0
N1588 N 0.70467 0.80835 0.84479 0.0
N1589 N 0.73708 0.78008 0.81037 0.0
C1590 C 0.74431 0.81373 0.81627 0.0
C1591 C 0.72685 0.82904 0.83508 0.0
C1592 C 0.52499 0.55138 0.65102 0.0
C1593 C 0.52816 0.57912 0.67678 0.0
C1594 C 0.53972 0.5527 0.62335 0.0
C1595 C 0.56007 0.5818 0.61909 0.0
H1596 H 0.51101 0.52756 0.65247 0.0
H1597 H 0.53595 0.52997 0.60577 0.0
S1598 S 0.58043 0.66145 0.67988 0.0
N1599 N 0.55583 0.63687 0.69531 0.0
N1600 N 0.58359 0.63907 0.64582 0.0
C1601 C 0.56417 0.6095 0.64506 0.0
C1602 C 0.54855 0.60835 0.67277 0.0
C1603 C 0.76285 0.19724 0.96822 0.0
C1604 C 0.79176 0.19821 0.97948 0.0
C1605 C 0.7572 0.21775 0.94833 0.0
C1606 C 0.78031 0.23943 0.93958 0.0
H1607 H 0.7444 0.18028 0.97433 0.0
H1608 H 0.73488 0.21563 0.93861 0.0
S1609 S 0.85928 0.25471 0.96525 0.0
N1610 N 0.84348 0.22499 0.98276 0.0
N1611 N 0.83247 0.26377 0.94467 0.0
C1612 C 0.80914 0.2423 0.95191 0.0
C1613 C 0.81499 0.22149 0.97213 0.0
C1614 C 0.12529 0.54191 0.15429 0.0
C1615 C 0.1536 0.56245 0.15883 0.0
C1616 C 0.10569 0.54126 0.12802 0.0
C1617 C 0.11417 0.56194 0.10684 0.0
H1618 H 0.11772 0.52852 0.17233 0.0
H1619 H 0.0835 0.52588 0.12528 0.0
S1620 S 0.18706 0.62007 0.10982 0.0
N1621 N 0.19061 0.60154 0.13999 0.0
N1622 N 0.15267 0.60431 0.09271 0.0
C1623 C 0.14288 0.58224 0.11107 0.0
C1624 C 0.16311 0.58116 0.13656 0.0
C1625 C 0.88511 0.86548 0.43657 0.0
C1626 C 0.86211 0.85124 0.45193 0.0
C1627 C 0.88288 0.85843 0.4029 0.0
C1628 C 0.85742 0.83691 0.38322 0.0
H1629 H 0.90495 0.88255 0.45079 0.0
H1630 H 0.90088 0.87047 0.39224 0.0
S1631 S 0.79192 0.79101 0.41092 0.0
N1632 N 0.81361 0.81327 0.44435 0.0
N1633 N 0.80956 0.79995 0.38149 0.0
C1634 C 0.83456 0.82213 0.39824 0.0
C1635 C 0.83679 0.8293 0.43242 0.0
C1636 C 0.52815 0.54609 0.8734 0.0
C1637 C 0.52885 0.57694 0.86447 0.0
C1638 C 0.54057 0.54336 0.90442 0.0
C1639 C 0.55497 0.57142 0.92919 0.0
H1640 H 0.51782 0.52331 0.85587 0.0
H1641 H 0.53871 0.51881 0.90896 0.0
S1642 S 0.56691 0.65827 0.919 0.0
N1643 N 0.54792 0.63641 0.88403 0.0
N1644 N 0.57074 0.63129 0.94115 0.0
C1645 C 0.55631 0.6023 0.9206 0.0
C1646 C 0.54359 0.60513 0.88895 0.0
C1647 C 0.82626 0.26599 0.13808 0.0
C1648 C 0.82784 0.23363 0.13773 0.0
C1649 C 0.83001 0.28823 0.16679 0.0
C1650 C 0.83469 0.2782 0.1956 0.0
H1651 H 0.82199 0.27406 0.11594 0.0
H1652 H 0.82954 0.31339 0.16645 0.0
S1653 S 0.83464 0.19345 0.20625 0.0
N1654 N 0.83063 0.19089 0.16723 0.0
N1655 N 0.83672 0.23222 0.22196 0.0
C1656 C 0.8342 0.24493 0.19536 0.0
C1657 C 0.8311 0.22263 0.16604 0.0
C1658 C 0.20462 0.63095 0.35039 0.0
C1659 C 0.18741 0.62906 0.32152 0.0
C1660 C 0.19654 0.64297 0.37886 0.0
C1661 C 0.17021 0.65132 0.37842 0.0
H1662 H 0.22376 0.62212 0.35091 0.0
H1663 H 0.20819 0.64039 0.40088 0.0
S1664 S 0.12334 0.66016 0.3078 0.0
N1665 N 0.14776 0.6438 0.29305 0.0
N1666 N 0.13155 0.66551 0.34703 0.0
C1667 C 0.15557 0.65447 0.34949 0.0
C1668 C 0.16394 0.64247 0.3206 0.0
C1669 C 0.82696 0.84595 0.6386 0.0
C1670 C 0.8562 0.85469 0.63342 0.0
C1671 C 0.81896 0.83393 0.66628 0.0
C1672 C 0.83978 0.83111 0.69091 0.0
H1673 H 0.80996 0.84754 0.62073 0.0
H1674 H 0.79617 0.82688 0.66844 0.0
S1675 S 0.91941 0.852 0.6899 0.0
N1676 N 0.90584 0.85951 0.65592 0.0
N1677 N 0.89138 0.83937 0.70782 0.0
C1678 C 0.86907 0.8406 0.68624 0.0
C1679 C 0.87704 0.85169 0.65774 0.0
C1680 C 0.81217 0.54439 0.56197 0.0
C1681 C 0.80729 0.51352 0.5414 0.0
C1682 C 0.789 0.55609 0.56973 0.0
C1683 C 0.76016 0.53716 0.55744 0.0
H1684 H 0.83404 0.56007 0.57164 0.0
H1685 H 0.79382 0.58077 0.58437 0.0
S1686 S 0.73566 0.45305 0.5051 0.0
N1687 N 0.77148 0.46325 0.51005 0.0
N1688 N 0.72779 0.48472 0.52621 0.0
C1689 C 0.75491 0.50543 0.53817 0.0
C1690 C 0.77852 0.49373 0.52972 0.0
C1691 C 0.19694 0.16645 0.50888 0.0
C1692 C 0.22426 0.15988 0.50834 0.0
C1693 C 0.17171 0.1424 0.51241 0.0
C1694 C 0.17179 0.10999 0.51446 0.0
H1695 H 0.1949 0.19069 0.50686 0.0
H1696 H 0.15197 0.14927 0.51315 0.0
S1697 S 0.23796 0.08051 0.51892 0.0
N1698 N 0.25001 0.11887 0.51398 0.0
N1699 N 0.20272 0.07371 0.51908 0.0
C1700 C 0.1991 0.10332 0.51506 0.0
C1701 C 0.22508 0.12805 0.51228 0.0
C1702 C 0.29524 0.95354 0.8055 0.0
C1703 C 0.26849 0.95255 0.78626 0.0
C1704 C 0.30972 0.92772 0.80203 0.0
C1705 C 0.29879 0.89721 0.77931 0.0
H1706 H 0.30562 0.97512 0.82438 0.0
H1707 H 0.3297 0.93161 0.81834 0.0
S1708 S 0.23114 0.87913 0.71976 0.0
N1709 N 0.23315 0.91623 0.74077 0.0
N1710 N 0.25937 0.86851 0.73539 0.0
C1711 C 0.27239 0.8954 0.75924 0.0
C1712 C 0.25776 0.92233 0.76226 0.0
C1713 C 0.46268 0.04075 0.04034 0.0
C1714 C 0.44047 0.03244 1.01406 0.0
C1715 C 0.48905 0.03582 0.03629 0.0
C1716 C 0.49612 0.02639 1.00634 0.0
H1717 H 0.45853 0.04672 0.0646 0.0
H1718 H 0.50426 0.04049 0.05705 0.0
S1719 S 0.44764 1.01048 0.92892 0.0
N1720 N 0.42752 1.01841 0.95609 0.0
N1721 N 0.48012 1.01425 0.94883 0.0
C1722 C 0.47543 0.02228 0.97929 0.0
C1723 C 0.44722 0.02501 0.98321 0.0
C1724 C 0.88657 0.58935 0.78874 0.0
C1725 C 0.91433 0.59097 0.78117 0.0
C1726 C 0.87049 0.60849 0.77662 0.0
C1727 C 0.88172 0.62931 0.7565 0.0
H1728 H 0.87775 0.57444 0.80519 0.0
H1729 H 0.84981 0.6083 0.7842 0.0
S1730 S 0.95078 0.63808 0.72523 0.0
N1731 N 0.95064 0.61156 0.74897 0.0
N1732 N 0.92013 0.64828 0.72667 0.0
C1733 C 0.90837 0.62953 0.74694 0.0
C1734 C 0.92481 0.61003 0.75919 0.0
C1735 C 0.90777 0.69214 0.03613 0.0
C1736 C 0.88056 0.66834 0.02439 0.0
C1737 C 0.93249 0.68241 0.04584 0.0
C1738 C 0.93033 0.64889 0.045 0.0
H1739 H 0.91026 0.7181 0.03629 0.0
H1740 H 0.95348 0.70087 0.0529 0.0
S1741 S 0.86349 0.57813 0.02123 0.0
N1742 N 0.8526 0.6107 0.0161 0.0
N1743 N 0.8988 0.59246 0.0346 0.0
C1744 C 0.90299 0.62538 0.03569 0.0
C1745 C 0.87812 0.63515 0.02535 0.0
C1746 C 0.28533 0.17196 0.81411 0.0
C1747 C 0.26328 0.15122 0.78886 0.0
C1748 C 0.3033 0.20379 0.81171 0.0
C1749 C 0.3 0.21811 0.78448 0.0
H1750 H 0.28866 0.16373 0.83629 0.0
H1751 H 0.32028 0.2175 0.83173 0.0
S1752 S 0.24572 0.17422 0.71091 0.0
N1753 N 0.23964 0.14811 0.7352 0.0
N1754 N 0.27256 0.20668 0.73075 0.0
C1755 C 0.27791 0.19759 0.75903 0.0
C1756 C 0.25986 0.165 0.76136 0.0
C1757 C 0.42906 0.93761 0.32623 0.0
C1758 C 0.42671 0.95474 0.30141 0.0
C1759 C 0.40451 0.92197 0.33744 0.0
C1760 C 0.37709 0.92146 0.32256 0.0
H1761 H 0.44995 0.93599 0.33694 0.0
H1762 H 0.40675 0.90592 0.35396 0.0
S1763 S 0.35947 0.96876 0.26307 0.0
N1764 N 0.39516 0.97582 0.26717 0.0
N1765 N 0.34865 0.94497 0.28829 0.0
C1766 C 0.37469 0.94258 0.30175 0.0
C1767 C 0.39959 0.95866 0.29017 0.0
C1768 C 0.62089 0.42206 0.54422 0.0
C1769 C 0.62559 0.42079 0.57715 0.0
C1770 C 0.61183 0.44815 0.53313 0.0
C1771 C 0.6078 0.47517 0.5544 0.0
H1772 H 0.62429 0.40258 0.52667 0.0
H1773 H 0.60894 0.44767 0.50772 0.0
S1774 S 0.61698 0.48495 0.64269 0.0
N1775 N 0.62443 0.44962 0.63055 0.0
N1776 N 0.60909 0.4986 0.6101 0.0
C1777 C 0.61226 0.4742 0.58719 0.0
C1778 C 0.62061 0.44722 0.59841 0.0
C1779 C 0.42795 0.79043 0.38706 0.0
C1780 C 0.45665 0.79296 0.38055 0.0
C1781 C 0.40652 0.79893 0.36692 0.0
C1782 C 0.41234 0.81057 0.33889 0.0
H1783 H 0.42181 0.7818 0.40817 0.0
H1784 H 0.38506 0.79591 0.37324 0.0
S1785 S 0.48434 0.82443 0.31148 0.0
N1786 N 0.4895 0.80997 0.34417 0.0
N1787 N 0.45022 0.82557 0.30686 0.0
C1788 C 0.44114 0.81388 0.33248 0.0
C1789 C 0.46285 0.80527 0.35297 0.0
C1790 C 0.1506 0.7236 0.06796 0.0
C1791 C 0.12985 0.74086 0.06255 0.0
C1792 C 0.14313 0.68863 0.05971 0.0
C1793 C 0.11458 0.66946 0.04541 0.0
H1794 H 0.17255 0.73718 0.07974 0.0
H1795 H 0.15971 0.6766 0.06528 0.0
S1796 S 0.05282 0.70234 0.02363 0.0
N1797 N 0.07975 0.73577 0.04091 0.0
N1798 N 0.06626 0.67067 0.02423 0.0
C1799 C 0.09401 0.68651 0.03903 0.0
C1800 C 0.10143 0.72196 0.04794 0.0
C1801 C 0.15066 0.33353 0.91175 0.0
C1802 C 0.12375 0.32382 0.891 0.0
C1803 C 0.17678 0.33587 0.89972 0.0
C1804 C 0.17661 0.32939 0.86662 0.0
H1805 H 0.15147 0.33931 0.93742 0.0
H1806 H 0.19715 0.34325 0.91624 0.0
S1807 S 0.11207 0.30343 0.80257 0.0
N1808 N 0.09857 0.3074 0.83613 0.0
N1809 N 0.14767 0.31274 0.81337 0.0
C1810 C 0.14989 0.31969 0.84574 0.0
C1811 C 0.12339 0.31665 0.85798 0.0
C1812 C 0.65192 0.80007 0.96795 0.0
C1813 C 0.6336 0.81801 0.95696 0.0
C1814 C 0.64111 0.77293 0.98118 0.0
C1815 C 0.61155 0.76248 0.98369 0.0
H1816 H 0.67473 0.80652 0.96583 0.0
H1817 H 0.65614 0.76002 0.98946 0.0
S1818 S 0.55499 0.8025 0.96071 0.0
N1819 N 0.585 0.82514 0.9515 0.0
N1820 N 0.56426 0.77276 0.97543 0.0
C1821 C 0.59309 0.78071 0.97372 0.0
C1822 C 0.60424 0.80881 0.96055 0.0
C1823 C 0.11183 0.77875 0.70663 0.0
C1824 C 0.09103 0.76531 0.72459 0.0
C1825 C 0.14137 0.78546 0.71794 0.0
C1826 C 0.15115 0.77797 0.74713 0.0
H1827 H 0.10527 0.78277 0.68304 0.0
H1828 H 0.15653 0.79523 0.70292 0.0
S1829 S 0.10434 0.74983 0.80576 0.0
N1830 N 0.08135 0.75093 0.77483 0.0
N1831 N 0.13697 0.76119 0.79594 0.0
C1832 C 0.13031 0.76719 0.76645 0.0
C1833 C 0.10018 0.76114 0.75503 0.0
C1834 C 0.16767 0.48623 0.48269 0.0
C1835 C 0.15534 0.47411 0.45029 0.0
C1836 C 0.15577 0.50714 0.50254 0.0
C1837 C 0.13026 0.51496 0.49107 0.0
H1838 H 0.1854 0.47815 0.49316 0.0
H1839 H 0.16584 0.51584 0.52745 0.0
S1840 S 0.08945 0.48844 0.40839 0.0
N1841 N 0.11821 0.47468 0.407 0.0
N1842 N 0.09239 0.50675 0.44607 0.0
C1843 C 0.11792 0.5029 0.45897 0.0
C1844 C 0.13152 0.48457 0.43815 0.0
C1845 C 0.45797 0.3029 0.23447 0.0
C1846 C 0.44826 0.27349 0.21084 0.0
C1847 C 0.43877 0.31303 0.25333 0.0
C1848 C 0.40972 0.29364 0.24895 0.0
H1849 H 0.48068 0.31713 0.23936 0.0
H1850 H 0.44685 0.33529 0.27199 0.0
S1851 S 0.37323 0.21863 0.18553 0.0
N1852 N 0.40776 0.22765 0.18142 0.0
N1853 N 0.37131 0.24726 0.21559 0.0
C1854 C 0.3996 0.26569 0.22367 0.0
C1855 C 0.41905 0.25534 0.20496 0.0
C1856 C 0.62282 0.55419 0.37953 0.0
C1857 C 0.65105 0.54974 0.37741 0.0
C1858 C 0.60941 0.55451 0.40804 0.0
C1859 C 0.62292 0.55161 0.43837 0.0
H1860 H 0.61038 0.55746 0.35835 0.0
H1861 H 0.58764 0.55728 0.40611 0.0
S1862 S 0.69669 0.53826 0.44788 0.0
N1863 N 0.69171 0.54187 0.41025 0.0
N1864 N 0.66705 0.54178 0.46216 0.0
C1865 C 0.65109 0.5468 0.43662 0.0
C1866 C 0.66477 0.54613 0.40721 0.0
C1867 C 0.40635 0.94974 0.11154 0.0
C1868 C 0.40205 0.92712 0.08259 0.0
C1869 C 0.41259 0.94006 0.13994 0.0
C1870 C 0.41349 0.90741 0.13944 0.0
H1871 H 0.40518 0.97484 0.11211 0.0
H1872 H 0.41461 0.95722 0.16238 0.0
S1873 S 0.40594 0.84121 0.06775 0.0
N1874 N 0.40148 0.87331 0.05357 0.0
N1875 N 0.41165 0.85347 0.10708 0.0
C1876 C 0.41057 0.88533 0.11007 0.0
C1877 C 0.40477 0.89557 0.08143 0.0
C1878 C 1.01858 0.57388 0.92472 0.0
C1879 C 1.01433 0.54739 0.89884 0.0
C1880 C 0.04214 0.58106 0.94915 0.0
C1881 C 0.06183 0.56219 0.94748 0.0
H1882 H 1.00372 0.58904 0.92596 0.0
H1883 H 0.04485 0.60112 0.96948 0.0
S1884 S 0.06077 0.49059 0.88539 0.0
N1885 N 0.03234 0.5026 0.87314 0.0
N1886 N 0.07611 0.51604 0.91994 0.0
C1887 C 0.05795 0.53569 0.92219 0.0
C1888 C 0.03416 0.52827 0.8974 0.0
C1889 C 0.29527 0.28143 0.6255 0.0
C1890 C 0.31888 0.28141 0.60898 0.0
C1891 C 0.29887 0.28713 0.65922 0.0
C1892 C 0.32637 0.29333 0.67812 0.0
H1893 H 0.27356 0.27613 0.61217 0.0
H1894 H 0.27984 0.28634 0.67047 0.0
S1895 S 0.39578 0.29837 0.64706 0.0
N1896 N 0.37098 0.28906 0.6145 0.0
N1897 N 0.37797 0.30086 0.67745 0.0
C1898 C 0.35026 0.29394 0.6619 0.0
C1899 C 0.34649 0.28766 0.62756 0.0
C1900 C 0.63413 0.52563 0.16635 0.0
C1901 C 0.65416 0.55217 0.18935 0.0
C1902 C 0.62185 0.52959 0.13551 0.0
C1903 C 0.62791 0.56047 0.12548 0.0
H1904 H 0.62715 0.5016 0.17244 0.0
H1905 H 0.6067 0.50806 0.11953 0.0
S1906 S 0.67933 0.63818 0.17603 0.0
N1907 N 0.6795 0.61065 0.1986 0.0
N1908 N 0.65665 0.61815 0.14256 0.0
C1909 C 0.64787 0.58714 0.14834 0.0
C1910 C 0.66065 0.58296 0.17938 0.0
C1911 C 0.37679 0.90845 0.89753 0.0
C1912 C 0.36719 0.9001 0.92525 0.0
C1913 C 0.37022 0.88452 0.86924 0.0
C1914 C 0.35506 0.85136 0.86842 0.0
H1915 H 0.38876 0.93371 0.89757 0.0
H1916 H 0.37658 0.8923 0.84786 0.0
S1917 S 0.32629 0.81742 0.93542 0.0
N1918 N 0.34195 0.8572 0.95072 0.0
N1919 N 0.33097 0.81157 0.89772 0.0
C1920 C 0.346 0.84276 0.89628 0.0
C1921 C 0.35175 0.86736 0.92475 0.0
C1922 C 0.99029 0.5218 0.71964 0.0
C1923 C 1.01079 0.51271 0.73943 0.0
C1924 C 0.98571 0.51044 0.68669 0.0
C1925 C 1.00416 0.49331 0.67336 0.0
H1926 H 0.9782 0.53816 0.72953 0.0
H1927 H 0.97251 0.52099 0.67179 0.0
S1928 S 0.0479 0.44906 0.71584 0.0
N1929 N 0.03906 0.47385 0.74441 0.0
N1930 N 0.03286 0.45523 0.68184 0.0
C1931 C 1.01905 0.47774 0.69298 0.0
C1932 C 0.02281 0.48806 0.72648 0.0
C1933 C 0.34279 0.30536 0.42828 0.0
C1934 C 0.32535 0.273 0.42685 0.0
C1935 C 0.34997 0.31678 0.40041 0.0
C1936 C 0.33969 0.29693 0.36911 0.0
H1937 H 0.35088 0.32227 0.45128 0.0
H1938 H 0.36348 0.34203 0.40362 0.0
S1939 S 0.29121 0.21066 0.35179 0.0
N1940 N 0.2973 0.22121 0.39126 0.0
N1941 N 0.30938 0.24323 0.33936 0.0
C1942 C 0.32173 0.26463 0.36741 0.0
C1943 C 0.31498 0.25261 0.39599 0.0
C1944 C 0.40139 0.63456 0.52298 0.0
C1945 C 0.37328 0.61263 0.51671 0.0
C1946 C 0.4249 0.62339 0.51525 0.0
C1947 C 0.42096 0.58986 0.50161 0.0
H1948 H 0.40521 0.66045 0.53396 0.0
H1949 H 0.44637 0.64095 0.52055 0.0
S1950 S 0.3509 0.52295 0.48077 0.0
N1951 N 0.34212 0.55668 0.49547 0.0
N1952 N 0.38646 0.53488 0.48219 0.0
C1953 C 0.39262 0.56787 0.49468 0.0
C1954 C 0.36869 0.57949 0.50199 0.0
C1955 C 0.98445 0.96278 0.5453 0.0
C1956 C 0.95796 0.9704 0.54979 0.0
C1957 C 1.00989 0.98681 0.54176 0.0
C1958 C 1.01059 0.02014 0.54277 0.0
H1959 H 0.98572 0.93775 0.54454 0.0
H1960 H 0.02934 0.97925 0.53907 0.0
S1961 S 0.94703 0.05344 0.5511 0.0
N1962 N 0.93424 1.01411 0.55279 0.0
N1963 N 0.98134 0.05885 0.54663 0.0
C1964 C 0.98406 0.02793 0.5463 0.0
C1965 C 0.95811 1.00339 0.54964 0.0
C1966 C 0.89 0.17773 0.29057 0.0
C1967 C 0.91869 0.18004 0.2835 0.0
C1968 C 0.87583 0.20377 0.29072 0.0
C1969 C 0.88918 0.23553 0.28481 0.0
H1970 H 0.87809 0.15514 0.29677 0.0
H1971 H 0.85403 0.19892 0.29632 0.0
S1972 S 0.96462 0.25805 0.26631 0.0
N1973 N 0.95986 0.21947 0.27096 0.0
N1974 N 0.93408 0.26727 0.27164 0.0
C1975 C 0.9179 0.23863 0.27773 0.0
C1976 C 0.93225 0.21173 0.27708 0.0
C1977 C 0.71416 0.09977 0.05592 0.0
C1978 C 0.73017 0.13176 0.05518 0.0
C1979 C 0.68398 0.09196 0.05228 0.0
C1980 C 0.6695 0.11587 0.04738 0.0
H1981 H 0.72496 0.08157 0.06133 0.0
H1982 H 0.67228 0.06734 0.05397 0.0
S1983 S 0.70133 0.20059 0.03667 0.0
N1984 N 0.72905 0.18553 0.04339 0.0
N1985 N 0.67236 0.17054 0.03779 0.0
C1986 C 0.685 0.14669 0.04368 0.0
C1987 C 0.71547 0.15464 0.04699 0.0
C1988 C 0.27289 0.51957 0.25773 0.0
C1989 C 0.26858 0.54249 0.28275 0.0
C1990 C 0.29093 0.5002 0.26367 0.0
C1991 C 0.30394 0.50174 0.29511 0.0
H1992 H 0.26217 0.51645 0.23338 0.0
H1993 H 0.2941 0.48342 0.24335 0.0
S1994 S 0.30273 0.56244 0.36776 0.0
N1995 N 0.28208 0.57042 0.33861 0.0
N1996 N 0.31369 0.531 0.35108 0.0
C1997 C 0.3011 0.52618 0.32009 0.0
C1998 C 0.28381 0.54722 0.31355 0.0
C1999 C 0.26896 0.43293 0.0176 0.0
C2000 C 0.29703 0.45514 0.02235 0.0
C2001 C 0.24414 0.44416 1.0135 0.0
C2002 C 0.24688 0.47779 1.01397 0.0
H2003 H 0.2662 0.40678 0.01659 0.0
H2004 H 0.22278 0.42658 1.00986 0.0
S2005 S 0.31554 0.54579 0.02858 0.0
N2006 N 0.32606 0.51202 0.02903 0.0
N2007 N 0.27963 0.53333 0.02163 0.0
C2008 C 0.2748 0.50014 0.01926 0.0
C2009 C 0.29987 0.48872 0.02336 0.0
C2010 C 0.8927 0.97434 0.27531 0.0
C2011 C 0.92129 0.97712 0.26882 0.0
C2012 C 0.87339 0.94359 0.27884 0.0
C2013 C 0.88091 0.91304 0.27643 0.0
H2014 H 0.88495 0.9961 0.27767 0.0
H2015 H 0.85189 0.94385 0.28351 0.0
S2016 S 0.95354 0.90582 0.26127 0.0
N2017 N 0.95598 0.94502 0.26137 0.0
N2018 N 0.9204 0.88932 0.26772 0.0
C2019 C 0.90953 0.91568 0.27052 0.0
C2020 C 0.92921 0.94679 0.26685 0.0
C2021 C 0.79142 0.16761 0.75151 0.0
C2022 C 0.76238 0.1667 0.74213 0.0
C2023 C 0.81173 0.1975 0.76669 0.0
C2024 C 0.8027 0.22603 0.77371 0.0
H2025 H 0.79844 0.14544 0.74631 0.0
H2026 H 0.83449 0.19859 0.77197 0.0
S2027 S 0.72812 0.23452 0.75911 0.0
N2028 N 0.72475 0.19506 0.74497 0.0
N2029 N 0.76316 0.25164 0.77248 0.0
C2030 C 0.77342 0.22483 0.7663 0.0
C2031 C 0.75299 0.19478 0.75085 0.0
loop_
_geom_bond_atom_site_label_1
_geom_bond_atom_site_label_2
_geom_bond_distance
_geom_bond_site_symmetry_2
_ccdc_geom_bond_type
Zn0 O3 2.031 . S
Zn0 O5 2.049 . S
Zn0 O10 2.067 . S
Zn1 O2 1.962 . S
Zn1 O4 1.986 . S
Zn1 O6 1.996 . S
Zn1 O9 1.943 . S
O2 Zn1 1.962 . S
O2 C7 1.254 . S
O3 Zn0 2.031 . S
O3 C7 1.269 . S
O4 Zn1 1.986 . S
O4 C11 1.262 . S
O5 Zn0 2.049 . S
O5 C13 1.260 . S
O6 Zn1 1.996 . S
O6 C13 1.257 . S
C7 O2 1.254 . S
C7 O3 1.269 . S
C8 O9 1.249 . S
C8 O10 1.270 . S
O9 Zn1 1.943 . S
O9 C8 1.249 . S
O10 Zn0 2.067 . S
O10 C8 1.270 . S
C11 O4 1.262 . S
C11 O12 1.232 . S
O12 C11 1.232 . S
C13 O5 1.260 . S
C13 O6 1.257 . S
Zn14 O17 2.031 1_455 S
Zn14 O19 2.049 . S
Zn14 O24 2.067 . S
Zn15 O16 1.962 1_455 S
Zn15 O18 1.986 . S
Zn15 O20 1.996 . S
Zn15 O23 1.943 1_455 S
O16 Zn15 1.962 1_655 S
O16 C21 1.254 . S
O17 Zn14 2.031 1_655 S
O17 C21 1.269 . S
O18 Zn15 1.986 . S
O18 C25 1.262 . S
O19 Zn14 2.049 . S
O19 C27 1.260 . S
O20 Zn15 1.996 . S
O20 C27 1.257 . S
C21 O16 1.254 . S
C21 O17 1.269 . S
C22 O23 1.249 . S
C22 O24 1.270 1_655 S
O23 Zn15 1.943 1_655 S
O23 C22 1.249 . S
O24 Zn14 2.067 . S
O24 C22 1.270 1_455 S
C25 O18 1.262 . S
C25 O26 1.232 1_455 S
O26 C25 1.232 1_655 S
C27 O19 1.260 . S
C27 O20 1.257 . S
Zn28 O31 2.031 . S
Zn28 O33 2.049 . S
Zn28 O38 2.067 . S
Zn29 O30 1.962 . S
Zn29 O32 1.986 . S
Zn29 O34 1.996 . S
Zn29 O37 1.943 . S
O30 Zn29 1.962 . S
O30 C35 1.254 . S
O31 Zn28 2.031 . S
O31 C35 1.269 . S
O32 Zn29 1.986 . S
O32 C39 1.262 . S
O33 Zn28 2.049 . S
O33 C41 1.260 . S
O34 Zn29 1.996 . S
O34 C41 1.257 . S
C35 O30 1.254 . S
C35 O31 1.269 . S
C36 O37 1.249 . S
C36 O38 1.270 . S
O37 Zn29 1.943 . S
O37 C36 1.249 . S
O38 Zn28 2.067 . S
O38 C36 1.270 . S
C39 O32 1.262 . S
C39 O40 1.232 . S
O40 C39 1.232 . S
C41 O33 1.260 . S
C41 O34 1.257 . S
Zn42 O45 2.031 . S
Zn42 O47 2.049 . S
Zn42 O52 2.067 . S
Zn43 O44 1.962 . S
Zn43 O46 1.986 . S
Zn43 O48 1.996 . S
Zn43 O51 1.943 . S
O44 Zn43 1.962 . S
O44 C49 1.254 . S
O45 Zn42 2.031 . S
O45 C49 1.269 . S
O46 Zn43 1.986 . S
O46 C53 1.262 . S
O47 Zn42 2.049 . S
O47 C55 1.260 . S
O48 Zn43 1.996 . S
O48 C55 1.257 . S
C49 O44 1.254 . S
C49 O45 1.269 . S
C50 O51 1.249 . S
C50 O52 1.270 . S
O51 Zn43 1.943 . S
O51 C50 1.249 . S
O52 Zn42 2.067 . S
O52 C50 1.270 . S
C53 O46 1.262 . S
C53 O54 1.232 . S
O54 C53 1.232 . S
C55 O47 1.260 . S
C55 O48 1.257 . S
Zn56 O59 2.031 . S
Zn56 O61 2.049 . S
Zn56 O66 2.067 . S
Zn57 O58 1.962 . S
Zn57 O60 1.986 . S
Zn57 O62 1.996 . S
Zn57 O65 1.943 . S
O58 Zn57 1.962 . S
O58 C63 1.254 . S
O59 Zn56 2.031 . S
O59 C63 1.269 . S
O60 Zn57 1.986 . S
O60 C67 1.262 . S
O61 Zn56 2.049 . S
O61 C69 1.260 . S
O62 Zn57 1.996 . S
O62 C69 1.257 . S
C63 O58 1.254 . S
C63 O59 1.269 . S
C64 O65 1.249 . S
C64 O66 1.270 . S
O65 Zn57 1.943 . S
O65 C64 1.249 . S
O66 Zn56 2.067 . S
O66 C64 1.270 . S
C67 O60 1.262 . S
C67 O68 1.232 . S
O68 C67 1.232 . S
C69 O61 1.260 . S
C69 O62 1.257 . S
Zn70 O73 2.031 . S
Zn70 O75 2.049 . S
Zn70 O80 2.067 . S
Zn71 O72 1.962 . S
Zn71 O74 1.986 . S
Zn71 O76 1.996 . S
Zn71 O79 1.943 . S
O72 Zn71 1.962 . S
O72 C77 1.254 . S
O73 Zn70 2.031 . S
O73 C77 1.269 . S
O74 Zn71 1.986 . S
O74 C81 1.262 . S
O75 Zn70 2.049 . S
O75 C83 1.260 . S
O76 Zn71 1.996 . S
O76 C83 1.257 . S
C77 O72 1.254 . S
C77 O73 1.269 . S
C78 O79 1.249 . S
C78 O80 1.270 . S
O79 Zn71 1.943 . S
O79 C78 1.249 . S
O80 Zn70 2.067 . S
O80 C78 1.270 . S
C81 O74 1.262 . S
C81 O82 1.232 . S
O82 C81 1.232 . S
C83 O75 1.260 . S
C83 O76 1.257 . S
Zn84 O87 2.031 . S
Zn84 O89 2.049 . S
Zn84 O94 2.067 . S
Zn85 O86 1.962 . S
Zn85 O88 1.986 . S
Zn85 O90 1.996 . S
Zn85 O93 1.943 . S
O86 Zn85 1.962 . S
O86 C91 1.254 . S
O87 Zn84 2.031 . S
O87 C91 1.269 . S
O88 Zn85 1.986 . S
O88 C95 1.262 . S
O89 Zn84 2.049 . S
O89 C97 1.260 . S
O90 Zn85 1.996 . S
O90 C97 1.257 . S
C91 O86 1.254 . S
C91 O87 1.269 . S
C92 O93 1.249 . S
C92 O94 1.270 . S
O93 Zn85 1.943 . S
O93 C92 1.249 . S
O94 Zn84 2.067 . S
O94 C92 1.270 . S
C95 O88 1.262 . S
C95 O96 1.232 . S
O96 C95 1.232 . S
C97 O89 1.260 . S
C97 O90 1.257 . S
Zn98 O101 2.031 1_655 S
Zn98 O103 2.049 . S
Zn98 O108 2.067 . S
Zn99 O100 1.962 . S
Zn99 O102 1.986 . S
Zn99 O104 1.996 . S
Zn99 O107 1.943 . S
O100 Zn99 1.962 . S
O100 C105 1.254 . S
O101 Zn98 2.031 1_455 S
O101 C105 1.269 . S
O102 Zn99 1.986 . S
O102 C109 1.262 . S
O103 Zn98 2.049 . S
O103 C111 1.260 1_655 S
O104 Zn99 1.996 . S
O104 C111 1.257 . S
C105 O100 1.254 . S
C105 O101 1.269 . S
C106 O107 1.249 1_655 S
C106 O108 1.270 . S
O107 Zn99 1.943 . S
O107 C106 1.249 1_455 S
O108 Zn98 2.067 . S
O108 C106 1.270 . S
C109 O102 1.262 . S
C109 O110 1.232 . S
O110 C109 1.232 . S
C111 O103 1.260 1_455 S
C111 O104 1.257 . S
Zn112 O115 2.031 . S
Zn112 O117 2.049 . S
Zn112 O122 2.067 . S
Zn113 O114 1.962 . S
Zn113 O116 1.986 . S
Zn113 O118 1.996 . S
Zn113 O121 1.943 1_545 S
O114 Zn113 1.962 . S
O114 C119 1.254 . S
O115 Zn112 2.031 . S
O115 C119 1.269 1_565 S
O116 Zn113 1.986 . S
O116 C123 1.262 . S
O117 Zn112 2.049 . S
O117 C125 1.260 . S
O118 Zn113 1.996 . S
O118 C125 1.257 1_545 S
C119 O114 1.254 . S
C119 O115 1.269 1_545 S
C120 O121 1.249 . S
C120 O122 1.270 . S
O121 Zn113 1.943 1_565 S
O121 C120 1.249 . S
O122 Zn112 2.067 . S
O122 C120 1.270 . S
C123 O116 1.262 . S
C123 O124 1.232 . S
O124 C123 1.232 . S
C125 O117 1.260 . S
C125 O118 1.257 1_565 S
Zn126 O129 2.031 . S
Zn126 O131 2.049 . S
Zn126 O136 2.067 . S
Zn127 O128 1.962 . S
Zn127 O130 1.986 . S
Zn127 O132 1.996 . S
Zn127 O135 1.943 . S
O128 Zn127 1.962 . S
O128 C133 1.254 . S
O129 Zn126 2.031 . S
O129 C133 1.269 . S
O130 Zn127 1.986 . S
O130 C137 1.262 . S
O131 Zn126 2.049 . S
O131 C139 1.260 . S
O132 Zn127 1.996 . S
O132 C139 1.257 . S
C133 O128 1.254 . S
C133 O129 1.269 . S
C134 O135 1.249 . S
C134 O136 1.270 . S
O135 Zn127 1.943 . S
O135 C134 1.249 . S
O136 Zn126 2.067 . S
O136 C134 1.270 . S
C137 O130 1.262 . S
C137 O138 1.232 . S
O138 C137 1.232 . S
C139 O131 1.260 . S
C139 O132 1.257 . S
Zn140 O143 2.031 . S
Zn140 O145 2.049 . S
Zn140 O150 2.067 . S
Zn141 O142 1.963 . S
Zn141 O144 1.986 1_545 S
Zn141 O146 1.996 . S
Zn141 O149 1.943 . S
O142 Zn141 1.963 . S
O142 C147 1.262 . S
O143 Zn140 2.031 . S
O143 C147 1.269 . S
O144 Zn141 1.986 1_565 S
O144 C151 1.262 . S
O145 Zn140 2.049 . S
O145 C153 1.260 . S
O146 Zn141 1.996 . S
O146 C153 1.257 . S
C147 O142 1.262 . S
C147 O143 1.269 . S
C148 O149 1.249 . S
C148 O150 1.270 . S
O149 Zn141 1.943 . S
O149 C148 1.249 . S
O150 Zn140 2.067 . S
O150 C148 1.270 . S
C151 O144 1.262 . S
C151 O152 1.232 . S
O152 C151 1.232 . S
C153 O145 1.260 . S
C153 O146 1.257 . S
Zn154 O157 2.031 1_554 S
Zn154 O159 2.049 . S
Zn154 O164 2.067 . S
Zn155 O156 1.985 . S
Zn155 O158 1.972 1_556 S
Zn155 O160 1.973 1_556 S
Zn155 O163 1.946 1_556 S
O156 Zn155 1.985 . S
O156 C161 1.254 . S
O157 Zn154 2.031 1_556 S
O157 C161 1.269 . S
O158 Zn155 1.972 1_554 S
O158 C165 1.280 . S
O159 Zn154 2.049 . S
O159 C167 1.260 . S
O160 Zn155 1.973 1_554 S
O160 C167 1.257 . S
C161 O156 1.254 . S
C161 O157 1.269 . S
C162 O163 1.249 . S
C162 O164 1.270 . S
O163 Zn155 1.946 1_554 S
O163 C162 1.249 . S
O164 Zn154 2.067 . S
O164 C162 1.270 . S
C165 O158 1.280 . S
C165 O166 1.211 1_554 S
O166 C165 1.211 1_556 S
C167 O159 1.260 . S
C167 O160 1.257 . S
Zn168 O171 2.031 1_554 S
Zn168 O173 2.049 . S
Zn168 O178 2.067 . S
Zn169 O170 1.962 1_554 S
Zn169 O172 1.986 . S
Zn169 O174 1.996 . S
Zn169 O177 1.943 . S
O170 Zn169 1.962 1_556 S
O170 C175 1.254 . S
O171 Zn168 2.031 1_556 S
O171 C175 1.269 . S
O172 Zn169 1.986 . S
O172 C179 1.262 . S
O173 Zn168 2.049 . S
O173 C181 1.260 . S
O174 Zn169 1.996 . S
O174 C181 1.257 . S
C175 O170 1.254 . S
C175 O171 1.269 . S
C176 O177 1.249 . S
C176 O178 1.270 . S
O177 Zn169 1.943 . S
O177 C176 1.249 . S
O178 Zn168 2.067 . S
O178 C176 1.270 . S
C179 O172 1.262 . S
C179 O180 1.251 . S
O180 C179 1.251 . S
C181 O173 1.260 . S
C181 O174 1.257 . S
Zn182 O185 2.031 1_554 S
Zn182 O187 2.049 . S
Zn182 O192 2.067 . S
Zn183 O184 1.981 . S
Zn183 O186 1.986 . S
Zn183 O188 1.996 . S
Zn183 O191 1.943 . S
O184 Zn183 1.981 . S
O184 C189 1.246 1_554 S
O185 Zn182 2.031 1_556 S
O185 C189 1.269 . S
O186 Zn183 1.986 . S
O186 C193 1.262 . S
O187 Zn182 2.049 . S
O187 C195 1.260 . S
O188 Zn183 1.996 . S
O188 C195 1.257 . S
C189 O184 1.246 1_556 S
C189 O185 1.269 . S
C190 O191 1.249 . S
C190 O192 1.270 . S
O191 Zn183 1.943 . S
O191 C190 1.249 . S
O192 Zn182 2.067 . S
O192 C190 1.270 . S
C193 O186 1.262 . S
C193 O194 1.232 . S
O194 C193 1.232 . S
C195 O187 1.260 . S
C195 O188 1.257 . S
Zn196 O199 2.031 . S
Zn196 O201 2.049 . S
Zn196 O206 2.067 . S
Zn197 O198 1.962 . S
Zn197 O200 1.986 . S
Zn197 O202 1.996 . S
Zn197 O205 1.943 . S
O198 Zn197 1.962 . S
O198 C203 1.254 . S
O199 Zn196 2.031 . S
O199 C203 1.269 . S
O200 Zn197 1.986 . S
O200 C207 1.262 . S
O201 Zn196 2.049 . S
O201 C209 1.260 . S
O202 Zn197 1.996 . S
O202 C209 1.257 . S
C203 O198 1.254 . S
C203 O199 1.269 . S
C204 O205 1.249 . S
C204 O206 1.270 . S
O205 Zn197 1.943 . S
O205 C204 1.249 . S
O206 Zn196 2.067 . S
O206 C204 1.270 . S
C207 O200 1.262 . S
C207 O208 1.232 . S
O208 C207 1.232 . S
C209 O201 1.260 . S
C209 O202 1.257 . S
Zn210 O213 2.031 . S
Zn210 O215 2.049 . S
Zn210 O220 2.067 . S
Zn211 O212 1.962 . S
Zn211 O214 1.986 . S
Zn211 O216 1.996 . S
Zn211 O219 1.943 . S
O212 Zn211 1.962 . S
O212 C217 1.254 . S
O213 Zn210 2.031 . S
O213 C217 1.269 . S
O214 Zn211 1.986 . S
O214 C221 1.262 . S
O215 Zn210 2.049 . S
O215 C223 1.260 . S
O216 Zn211 1.996 . S
O216 C223 1.257 . S
C217 O212 1.254 . S
C217 O213 1.269 . S
C218 O219 1.249 . S
C218 O220 1.270 . S
O219 Zn211 1.943 . S
O219 C218 1.249 . S
O220 Zn210 2.067 . S
O220 C218 1.270 . S
C221 O214 1.262 . S
C221 O222 1.232 . S
O222 C221 1.232 . S
C223 O215 1.260 . S
C223 O216 1.257 . S
Zn224 O227 2.043 . S
Zn224 O229 2.045 1_655 S
Zn224 O234 2.089 . S
Zn225 O226 1.962 . S
Zn225 O228 1.986 . S
Zn225 O230 1.996 . S
Zn225 O233 1.943 . S
O226 Zn225 1.962 . S
O226 C231 1.254 . S
O227 Zn224 2.043 . S
O227 C231 1.269 . S
O228 Zn225 1.986 . S
O228 C235 1.262 . S
O229 Zn224 2.045 1_455 S
O229 C237 1.260 1_455 S
O230 Zn225 1.996 . S
O230 C237 1.257 . S
C231 O226 1.254 . S
C231 O227 1.269 . S
C232 O233 1.249 . S
C232 O234 1.270 . S
O233 Zn225 1.943 . S
O233 C232 1.249 . S
O234 Zn224 2.089 . S
O234 C232 1.270 . S
C235 O228 1.262 . S
C235 O236 1.232 . S
O236 C235 1.232 . S
C237 O229 1.260 1_655 S
C237 O230 1.257 . S
Zn238 O241 2.031 . S
Zn238 O243 2.049 . S
Zn238 O248 2.067 . S
Zn239 O240 1.962 . S
Zn239 O242 1.986 . S
Zn239 O244 1.996 . S
Zn239 O247 1.943 . S
O240 Zn239 1.962 . S
O240 C245 1.254 . S
O241 Zn238 2.031 . S
O241 C245 1.269 . S
O242 Zn239 1.986 . S
O242 C249 1.262 . S
O243 Zn238 2.049 . S
O243 C251 1.260 . S
O244 Zn239 1.996 . S
O244 C251 1.257 . S
C245 O240 1.254 . S
C245 O241 1.269 . S
C246 O247 1.249 . S
C246 O248 1.270 . S
O247 Zn239 1.943 . S
O247 C246 1.249 . S
O248 Zn238 2.067 . S
O248 C246 1.270 . S
C249 O242 1.262 . S
C249 O250 1.232 . S
O250 C249 1.232 . S
C251 O243 1.260 . S
C251 O244 1.257 . S
Zn252 O255 2.031 . S
Zn252 O257 2.049 . S
Zn252 O262 2.067 . S
Zn253 O254 1.962 . S
Zn253 O256 1.986 . S
Zn253 O258 1.996 . S
Zn253 O261 1.943 . S
O254 Zn253 1.962 . S
O254 C259 1.254 . S
O255 Zn252 2.031 . S
O255 C259 1.269 . S
O256 Zn253 1.986 . S
O256 C263 1.262 . S
O257 Zn252 2.049 . S
O257 C265 1.260 . S
O258 Zn253 1.996 . S
O258 C265 1.257 . S
C259 O254 1.254 . S
C259 O255 1.269 . S
C260 O261 1.249 . S
C260 O262 1.270 . S
O261 Zn253 1.943 . S
O261 C260 1.249 . S
O262 Zn252 2.067 . S
O262 C260 1.270 . S
C263 O256 1.262 . S
C263 O264 1.232 . S
O264 C263 1.232 . S
C265 O257 1.260 . S
C265 O258 1.257 . S
Zn266 O269 2.031 . S
Zn266 O271 2.049 . S
Zn266 O276 2.067 . S
Zn267 O268 1.962 . S
Zn267 O270 1.986 . S
Zn267 O272 1.996 . S
Zn267 O275 1.943 . S
O268 Zn267 1.962 . S
O268 C273 1.254 . S
O269 Zn266 2.031 . S
O269 C273 1.269 . S
O270 Zn267 1.986 . S
O270 C277 1.262 . S
O271 Zn266 2.049 . S
O271 C279 1.260 . S
O272 Zn267 1.996 . S
O272 C279 1.257 . S
C273 O268 1.254 . S
C273 O269 1.269 . S
C274 O275 1.249 . S
C274 O276 1.270 . S
O275 Zn267 1.943 . S
O275 C274 1.249 . S
O276 Zn266 2.067 . S
O276 C274 1.270 . S
C277 O270 1.262 . S
C277 O278 1.232 . S
O278 C277 1.232 . S
C279 O271 1.260 . S
C279 O272 1.257 . S
Zn280 O283 2.031 1_554 S
Zn280 O285 2.049 . S
Zn280 O290 2.067 . S
Zn281 O282 1.962 1_554 S
Zn281 O284 1.986 . S
Zn281 O286 1.996 . S
Zn281 O289 1.943 1_554 S
O282 Zn281 1.962 1_556 S
O282 C287 1.254 . S
O283 Zn280 2.031 1_556 S
O283 C287 1.269 . S
O284 Zn281 1.986 . S
O284 C291 1.276 . S
O285 Zn280 2.049 . S
O285 C293 1.260 . S
O286 Zn281 1.996 . S
O286 C293 1.257 . S
C287 O282 1.254 . S
C287 O283 1.269 . S
C288 O289 1.249 . S
C288 O290 1.270 1_556 S
O289 Zn281 1.943 1_556 S
O289 C288 1.249 . S
O290 Zn280 2.067 . S
O290 C288 1.270 1_554 S
C291 O284 1.276 . S
C291 O292 1.215 1_554 S
O292 C291 1.215 1_556 S
C293 O285 1.260 . S
C293 O286 1.257 . S
Zn294 O297 2.031 . S
Zn294 O299 2.049 . S
Zn294 O304 2.067 . S
Zn295 O296 1.962 . S
Zn295 O298 1.986 . S
Zn295 O300 1.996 . S
Zn295 O303 1.943 . S
O296 Zn295 1.962 . S
O296 C301 1.254 . S
O297 Zn294 2.031 . S
O297 C301 1.269 . S
O298 Zn295 1.986 . S
O298 C305 1.262 . S
O299 Zn294 2.049 . S
O299 C307 1.260 . S
O300 Zn295 1.996 . S
O300 C307 1.257 . S
C301 O296 1.254 . S
C301 O297 1.269 . S
C302 O303 1.249 . S
C302 O304 1.270 . S
O303 Zn295 1.943 . S
O303 C302 1.249 . S
O304 Zn294 2.067 . S
O304 C302 1.270 . S
C305 O298 1.262 . S
C305 O306 1.232 . S
O306 C305 1.232 . S
C307 O299 1.260 . S
C307 O300 1.257 . S
Zn308 O311 2.031 . S
Zn308 O313 2.049 . S
Zn308 O318 2.067 . S
Zn309 O310 1.962 . S
Zn309 O312 1.986 . S
Zn309 O314 1.996 . S
Zn309 O317 1.943 . S
O310 Zn309 1.962 . S
O310 C315 1.254 . S
O311 Zn308 2.031 . S
O311 C315 1.269 . S
O312 Zn309 1.986 . S
O312 C319 1.262 . S
O313 Zn308 2.049 . S
O313 C321 1.260 . S
O314 Zn309 1.996 . S
O314 C321 1.257 . S
C315 O310 1.254 . S
C315 O311 1.269 . S
C316 O317 1.249 . S
C316 O318 1.270 . S
O317 Zn309 1.943 . S
O317 C316 1.249 . S
O318 Zn308 2.067 . S
O318 C316 1.270 . S
C319 O312 1.262 . S
C319 O320 1.232 . S
O320 C319 1.232 . S
C321 O313 1.260 . S
C321 O314 1.257 . S
Zn322 O325 2.031 . S
Zn322 O327 2.049 . S
Zn322 O332 2.067 . S
Zn323 O324 1.962 . S
Zn323 O326 1.986 . S
Zn323 O328 1.996 . S
Zn323 O331 1.943 . S
O324 Zn323 1.962 . S
O324 C329 1.254 . S
O325 Zn322 2.031 . S
O325 C329 1.269 . S
O326 Zn323 1.986 . S
O326 C333 1.262 . S
O327 Zn322 2.049 . S
O327 C335 1.260 . S
O328 Zn323 1.996 . S
O328 C335 1.257 . S
C329 O324 1.254 . S
C329 O325 1.269 . S
C330 O331 1.249 . S
C330 O332 1.270 . S
O331 Zn323 1.943 . S
O331 C330 1.249 . S
O332 Zn322 2.067 . S
O332 C330 1.270 . S
C333 O326 1.262 . S
C333 O334 1.232 . S
O334 C333 1.232 . S
C335 O327 1.260 . S
C335 O328 1.257 . S
La336 C338 2.928 1_455 S
La336 O356 2.521 1_455 S
La336 O357 2.628 1_456 S
La336 O358 2.554 . S
La336 O359 2.757 . S
La336 O360 2.470 . S
La336 O365 2.482 1_556 S
La336 O367 2.503 1_546 S
La337 C347 2.928 . S
La337 O359 2.482 1_554 S
La337 O361 2.503 . S
La337 O362 2.521 . S
La337 O363 2.628 . S
La337 O364 2.554 . S
La337 O365 2.757 . S
La337 O366 2.470 . S
C338 La336 2.928 1_655 S
C338 C339 1.503 . S
C338 O356 1.261 . S
C338 O357 1.243 1_556 S
C339 C338 1.503 . S
C339 C340 1.394 . S
C339 C344 1.373 . S
C340 C339 1.394 . S
C340 C341 1.380 . S
C340 H368 0.930 . S
C341 C340 1.380 . S
C341 C342 1.376 . S
C341 H369 0.930 . S
C342 C341 1.376 . S
C342 C343 1.370 . S
C343 C342 1.370 . S
C343 C344 1.396 . S
C343 H370 0.929 1_556 S
C344 C339 1.373 . S
C344 C343 1.396 . S
C344 H371 0.929 1_556 S
C345 O358 1.240 . S
C345 O359 1.289 . S
C346 O360 1.258 1_554 S
C346 O361 1.256 . S
C347 La337 2.928 . S
C347 C348 1.503 . S
C347 O362 1.261 . S
C347 O363 1.243 . S
C348 C347 1.503 . S
C348 C349 1.394 . S
C348 C353 1.373 . S
C349 C348 1.394 . S
C349 C350 1.380 . S
C349 H372 0.930 . S
C350 C349 1.380 . S
C350 C351 1.376 . S
C350 H373 0.930 . S
C351 C350 1.376 . S
C351 C352 1.370 . S
C352 C351 1.370 . S
C352 C353 1.396 . S
C352 H374 0.929 1_545 S
C353 C348 1.373 . S
C353 C352 1.396 . S
C353 H375 0.929 . S
C354 O364 1.240 . S
C354 O365 1.289 . S
C355 O366 1.258 1_565 S
C355 O367 1.256 . S
O356 La336 2.521 1_655 S
O356 C338 1.261 . S
O357 La336 2.628 1_654 S
O357 C338 1.243 1_554 S
O358 La336 2.554 . S
O358 C345 1.240 . S
O359 La336 2.757 . S
O359 La337 2.482 1_556 S
O359 C345 1.289 . S
O360 La336 2.470 . S
O360 C346 1.258 1_556 S
O361 La337 2.503 . S
O361 C346 1.256 . S
O362 La337 2.521 . S
O362 C347 1.261 . S
O363 La337 2.628 . S
O363 C347 1.243 . S
O364 La337 2.554 . S
O364 C354 1.240 . S
O365 La336 2.482 1_554 S
O365 La337 2.757 . S
O365 C354 1.289 . S
O366 La337 2.470 . S
O366 C355 1.258 1_545 S
O367 La336 2.503 1_564 S
O367 C355 1.256 . S
H368 C340 0.930 . S
H369 C341 0.930 . S
H370 C343 0.929 1_554 S
H371 C344 0.929 1_554 S
H372 C349 0.930 . S
H373 C350 0.930 . S
H374 C352 0.929 1_565 S
H375 C353 0.929 . S
La376 C378 2.928 . S
La376 O396 2.521 . S
La376 O397 2.628 . S
La376 O398 2.554 . S
La376 O399 2.757 . S
La376 O400 2.470 . S
La376 O405 2.482 . S
La376 O407 2.503 . S
La377 C387 2.928 . S
La377 O399 2.482 . S
La377 O401 2.503 . S
La377 O402 2.521 . S
La377 O403 2.628 . S
La377 O404 2.554 . S
La377 O405 2.757 . S
La377 O406 2.470 . S
C378 La376 2.928 . S
C378 C379 1.503 . S
C378 O396 1.261 . S
C378 O397 1.243 . S
C379 C378 1.503 . S
C379 C380 1.394 . S
C379 C384 1.373 . S
C380 C379 1.394 . S
C380 C381 1.380 . S
C380 H408 0.930 . S
C381 C380 1.380 . S
C381 C382 1.376 . S
C381 H409 0.930 . S
C382 C381 1.376 . S
C382 C383 1.370 . S
C383 C382 1.370 . S
C383 C384 1.396 . S
C383 H410 0.929 . S
C384 C379 1.373 . S
C384 C383 1.396 . S
C384 H411 0.929 . S
C385 O398 1.240 . S
C385 O399 1.289 . S
C386 O400 1.258 . S
C386 O401 1.256 . S
C387 La377 2.928 . S
C387 C388 1.503 . S
C387 O402 1.261 . S
C387 O403 1.243 . S
C388 C387 1.503 . S
C388 C389 1.394 . S
C388 C393 1.373 . S
C389 C388 1.394 . S
C389 C390 1.380 . S
C389 H412 0.930 . S
C390 C389 1.380 . S
C390 C391 1.376 . S
C390 H413 0.930 . S
C391 C390 1.376 . S
C391 C392 1.370 . S
C392 C391 1.370 . S
C392 C393 1.396 . S
C392 H414 0.929 . S
C393 C388 1.373 . S
C393 C392 1.396 . S
C393 H415 0.929 . S
C394 O404 1.240 . S
C394 O405 1.289 . S
C395 O406 1.258 . S
C395 O407 1.256 . S
O396 La376 2.521 . S
O396 C378 1.261 . S
O397 La376 2.628 . S
O397 C378 1.243 . S
O398 La376 2.554 . S
O398 C385 1.240 . S
O399 La376 2.757 . S
O399 La377 2.482 . S
O399 C385 1.289 . S
O400 La376 2.470 . S
O400 C386 1.258 . S
O401 La377 2.503 . S
O401 C386 1.256 . S
O402 La377 2.521 . S
O402 C387 1.261 . S
O403 La377 2.628 . S
O403 C387 1.243 . S
O404 La377 2.554 . S
O404 C394 1.240 . S
O405 La376 2.482 . S
O405 La377 2.757 . S
O405 C394 1.289 . S
O406 La377 2.470 . S
O406 C395 1.258 . S
O407 La376 2.503 . S
O407 C395 1.256 . S
H408 C380 0.930 . S
H409 C381 0.930 . S
H410 C383 0.929 . S
H411 C384 0.929 . S
H412 C389 0.930 . S
H413 C390 0.930 . S
H414 C392 0.929 . S
H415 C393 0.929 . S
La416 C418 2.928 . S
La416 O436 2.521 . S
La416 O437 2.628 . S
La416 O438 2.554 . S
La416 O439 2.757 . S
La416 O440 2.470 1_545 S
La416 O445 2.482 . S
La416 O447 2.503 . S
La417 C427 2.928 . S
La417 O439 2.482 . S
La417 O441 2.503 1_545 S
La417 O442 2.521 . S
La417 O443 2.628 . S
La417 O444 2.554 . S
La417 O445 2.757 . S
La417 O446 2.470 . S
C418 La416 2.928 . S
C418 C419 1.503 1_545 S
C418 O436 1.261 . S
C418 O437 1.243 . S
C419 C418 1.503 1_565 S
C419 C420 1.394 . S
C419 C424 1.373 . S
C420 C419 1.394 . S
C420 C421 1.380 . S
C420 H448 0.921 1_565 S
C421 C420 1.380 . S
C421 C422 1.376 . S
C421 H449 0.930 . S
C422 C421 1.376 . S
C422 C423 1.370 . S
C423 C422 1.370 . S
C423 C424 1.396 . S
C423 H450 0.929 . S
C424 C419 1.373 . S
C424 C423 1.396 . S
C424 H451 0.929 . S
C425 O438 1.240 . S
C425 O439 1.289 . S
C426 O440 1.258 . S
C426 O441 1.256 . S
C427 La417 2.928 . S
C427 C428 1.503 . S
C427 O442 1.261 . S
C427 O443 1.243 . S
C428 C427 1.503 . S
C428 C429 1.394 . S
C428 C433 1.373 . S
C429 C428 1.394 . S
C429 C430 1.380 . S
C429 H452 0.930 . S
C430 C429 1.380 . S
C430 C431 1.376 . S
C430 H453 0.930 . S
C431 C430 1.376 . S
C431 C432 1.370 . S
C432 C431 1.370 . S
C432 C433 1.396 . S
C432 H454 0.929 . S
C433 C428 1.373 . S
C433 C432 1.396 . S
C433 H455 0.929 . S
C434 O444 1.240 . S
C434 O445 1.289 . S
C435 O446 1.258 . S
C435 O447 1.256 . S
O436 La416 2.521 . S
O436 C418 1.261 . S
O437 La416 2.628 . S
O437 C418 1.243 . S
O438 La416 2.554 . S
O438 C425 1.240 . S
O439 La416 2.757 . S
O439 La417 2.482 . S
O439 C425 1.289 . S
O440 La416 2.470 1_565 S
O440 C426 1.258 . S
O441 La417 2.503 1_565 S
O441 C426 1.256 . S
O442 La417 2.521 . S
O442 C427 1.261 . S
O443 La417 2.628 . S
O443 C427 1.243 . S
O444 La417 2.554 . S
O444 C434 1.240 . S
O445 La416 2.482 . S
O445 La417 2.757 . S
O445 C434 1.289 . S
O446 La417 2.470 . S
O446 C435 1.258 . S
O447 La416 2.503 . S
O447 C435 1.256 . S
H448 C420 0.921 1_545 S
H449 C421 0.930 . S
H450 C423 0.929 . S
H451 C424 0.929 . S
H452 C429 0.930 . S
H453 C430 0.930 . S
H454 C432 0.929 . S
H455 C433 0.929 . S
La456 C458 2.928 . S
La456 O476 2.521 . S
La456 O477 2.628 . S
La456 O478 2.554 . S
La456 O479 2.757 . S
La456 O480 2.470 . S
La456 O485 2.482 . S
La456 O487 2.503 . S
La457 C467 2.928 . S
La457 O479 2.482 . S
La457 O481 2.503 . S
La457 O482 2.521 . S
La457 O483 2.628 . S
La457 O484 2.554 . S
La457 O485 2.757 . S
La457 O486 2.470 . S
C458 La456 2.928 . S
C458 C459 1.503 . S
C458 O476 1.261 . S
C458 O477 1.243 . S
C459 C458 1.503 . S
C459 C460 1.394 . S
C459 C464 1.373 . S
C460 C459 1.394 . S
C460 C461 1.380 . S
C460 H488 0.930 . S
C461 C460 1.380 . S
C461 C462 1.376 . S
C461 H489 0.930 . S
C462 C461 1.376 . S
C462 C463 1.370 . S
C463 C462 1.370 . S
C463 C464 1.396 . S
C463 H490 0.929 . S
C464 C459 1.373 . S
C464 C463 1.396 . S
C464 H491 0.929 . S
C465 O478 1.240 . S
C465 O479 1.289 . S
C466 O480 1.258 . S
C466 O481 1.256 . S
C467 La457 2.928 . S
C467 C468 1.503 . S
C467 O482 1.261 . S
C467 O483 1.243 . S
C468 C467 1.503 . S
C468 C469 1.394 . S
C468 C473 1.373 . S
C469 C468 1.394 . S
C469 C470 1.380 . S
C469 H492 0.930 . S
C470 C469 1.380 . S
C470 C471 1.376 . S
C470 H493 0.930 . S
C471 C470 1.376 . S
C471 C472 1.370 . S
C472 C471 1.370 . S
C472 C473 1.396 . S
C472 H494 0.929 . S
C473 C468 1.373 . S
C473 C472 1.396 . S
C473 H495 0.929 . S
C474 O484 1.240 . S
C474 O485 1.289 . S
C475 O486 1.258 . S
C475 O487 1.256 . S
O476 La456 2.521 . S
O476 C458 1.261 . S
O477 La456 2.628 . S
O477 C458 1.243 . S
O478 La456 2.554 . S
O478 C465 1.240 . S
O479 La456 2.757 . S
O479 La457 2.482 . S
O479 C465 1.289 . S
O480 La456 2.470 . S
O480 C466 1.258 . S
O481 La457 2.503 . S
O481 C466 1.256 . S
O482 La457 2.521 . S
O482 C467 1.261 . S
O483 La457 2.628 . S
O483 C467 1.243 . S
O484 La457 2.554 . S
O484 C474 1.240 . S
O485 La456 2.482 . S
O485 La457 2.757 . S
O485 C474 1.289 . S
O486 La457 2.470 . S
O486 C475 1.258 . S
O487 La456 2.503 . S
O487 C475 1.256 . S
H488 C460 0.930 . S
H489 C461 0.930 . S
H490 C463 0.929 . S
H491 C464 0.929 . S
H492 C469 0.930 . S
H493 C470 0.930 . S
H494 C472 0.929 . S
H495 C473 0.929 . S
La496 C498 2.928 . S
La496 O516 2.521 . S
La496 O517 2.628 . S
La496 O518 2.554 . S
La496 O519 2.757 . S
La496 O520 2.470 . S
La496 O525 2.482 . S
La496 O527 2.503 . S
La497 C507 2.935 . S
La497 O519 2.478 1_565 S
La497 O521 2.498 1_565 S
La497 O522 2.528 . S
La497 O523 2.633 . S
La497 O524 2.552 1_565 S
La497 O525 2.750 1_565 S
La497 O526 2.469 1_565 S
C498 La496 2.928 . S
C498 C499 1.503 . S
C498 O516 1.261 . S
C498 O517 1.243 . S
C499 C498 1.503 . S
C499 C500 1.394 . S
C499 C504 1.373 . S
C500 C499 1.394 . S
C500 C501 1.380 . S
C500 H528 0.930 . S
C501 C500 1.380 . S
C501 C502 1.376 . S
C501 H529 0.930 . S
C502 C501 1.376 . S
C502 C503 1.370 . S
C503 C502 1.370 . S
C503 C504 1.396 . S
C503 H530 0.929 . S
C504 C499 1.373 . S
C504 C503 1.396 . S
C504 H531 0.929 . S
C505 O518 1.240 . S
C505 O519 1.289 . S
C506 O520 1.258 . S
C506 O521 1.256 . S
C507 La497 2.935 . S
C507 C508 1.503 . S
C507 O522 1.261 . S
C507 O523 1.243 . S
C508 C507 1.503 . S
C508 C509 1.394 . S
C508 C513 1.373 . S
C509 C508 1.394 . S
C509 C510 1.380 . S
C509 H532 0.930 . S
C510 C509 1.380 . S
C510 C511 1.376 . S
C510 H533 0.930 . S
C511 C510 1.376 . S
C511 C512 1.370 . S
C512 C511 1.370 . S
C512 C513 1.396 . S
C512 H534 0.929 . S
C513 C508 1.373 . S
C513 C512 1.396 . S
C513 H535 0.929 . S
C514 O524 1.240 . S
C514 O525 1.289 . S
C515 O526 1.258 . S
C515 O527 1.256 . S
O516 La496 2.521 . S
O516 C498 1.261 . S
O517 La496 2.628 . S
O517 C498 1.243 . S
O518 La496 2.554 . S
O518 C505 1.240 . S
O519 La496 2.757 . S
O519 La497 2.478 1_545 S
O519 C505 1.289 . S
O520 La496 2.470 . S
O520 C506 1.258 . S
O521 La497 2.498 1_545 S
O521 C506 1.256 . S
O522 La497 2.528 . S
O522 C507 1.261 . S
O523 La497 2.633 . S
O523 C507 1.243 . S
O524 La497 2.552 1_545 S
O524 C514 1.240 . S
O525 La496 2.482 . S
O525 La497 2.750 1_545 S
O525 C514 1.289 . S
O526 La497 2.469 1_545 S
O526 C515 1.258 . S
O527 La496 2.503 . S
O527 C515 1.256 . S
H528 C500 0.930 . S
H529 C501 0.930 . S
H530 C503 0.929 . S
H531 C504 0.929 . S
H532 C509 0.930 . S
H533 C510 0.930 . S
H534 C512 0.929 . S
H535 C513 0.929 . S
La536 C538 2.928 . S
La536 O556 2.521 . S
La536 O557 2.628 . S
La536 O558 2.554 . S
La536 O559 2.757 . S
La536 O560 2.470 . S
La536 O565 2.482 . S
La536 O567 2.503 . S
La537 C547 2.928 . S
La537 O559 2.482 . S
La537 O561 2.503 . S
La537 O562 2.521 . S
La537 O563 2.628 . S
La537 O564 2.554 . S
La537 O565 2.757 . S
La537 O566 2.470 . S
C538 La536 2.928 . S
C538 C539 1.503 . S
C538 O556 1.261 . S
C538 O557 1.243 . S
C539 C538 1.503 . S
C539 C540 1.394 . S
C539 C544 1.373 . S
C540 C539 1.394 . S
C540 C541 1.380 . S
C540 H568 0.930 . S
C541 C540 1.380 . S
C541 C542 1.376 . S
C541 H569 0.930 . S
C542 C541 1.376 . S
C542 C543 1.370 . S
C543 C542 1.370 . S
C543 C544 1.396 . S
C543 H570 0.929 . S
C544 C539 1.373 . S
C544 C543 1.396 . S
C544 H571 0.929 . S
C545 O558 1.240 . S
C545 O559 1.289 . S
C546 O560 1.258 . S
C546 O561 1.256 . S
C547 La537 2.928 . S
C547 C548 1.503 . S
C547 O562 1.261 . S
C547 O563 1.243 . S
C548 C547 1.503 . S
C548 C549 1.394 . S
C548 C553 1.373 . S
C549 C548 1.394 . S
C549 C550 1.380 . S
C549 H572 0.930 . S
C550 C549 1.380 . S
C550 C551 1.376 . S
C550 H573 0.930 . S
C551 C550 1.376 . S
C551 C552 1.370 . S
C552 C551 1.370 . S
C552 C553 1.396 . S
C552 H574 0.929 . S
C553 C548 1.373 . S
C553 C552 1.396 . S
C553 H575 0.929 . S
C554 O564 1.240 . S
C554 O565 1.289 . S
C555 O566 1.258 . S
C555 O567 1.256 . S
O556 La536 2.521 . S
O556 C538 1.261 . S
O557 La536 2.628 . S
O557 C538 1.243 . S
O558 La536 2.554 . S
O558 C545 1.240 . S
O559 La536 2.757 . S
O559 La537 2.482 . S
O559 C545 1.289 . S
O560 La536 2.470 . S
O560 C546 1.258 . S
O561 La537 2.503 . S
O561 C546 1.256 . S
O562 La537 2.521 . S
O562 C547 1.261 . S
O563 La537 2.628 . S
O563 C547 1.243 . S
O564 La537 2.554 . S
O564 C554 1.240 . S
O565 La536 2.482 . S
O565 La537 2.757 . S
O565 C554 1.289 . S
O566 La537 2.470 . S
O566 C555 1.258 . S
O567 La536 2.503 . S
O567 C555 1.256 . S
H568 C540 0.930 . S
H569 C541 0.930 . S
H570 C543 0.929 . S
H571 C544 0.929 . S
H572 C549 0.930 . S
H573 C550 0.930 . S
H574 C552 0.929 . S
H575 C553 0.929 . S
La576 C578 2.928 . S
La576 O596 2.521 . S
La576 O597 2.628 . S
La576 O598 2.554 1_545 S
La576 O599 2.757 1_554 S
La576 O600 2.470 . S
La576 O605 2.482 . S
La576 O607 2.503 . S
La577 C587 2.928 . S
La577 O599 2.482 . S
La577 O601 2.503 . S
La577 O602 2.521 . S
La577 O603 2.628 . S
La577 O604 2.553 . S
La577 O605 2.757 1_556 S
La577 O606 2.470 . S
C578 La576 2.928 . S
C578 C579 1.503 . S
C578 O596 1.261 . S
C578 O597 1.243 . S
C579 C578 1.503 . S
C579 C580 1.394 1_545 S
C579 C584 1.373 . S
C580 C579 1.394 1_565 S
C580 C581 1.380 . S
C580 H608 0.930 . S
C581 C580 1.380 . S
C581 C582 1.376 . S
C581 H609 0.930 . S
C582 C581 1.376 . S
C582 C583 1.370 1_565 S
C583 C582 1.370 1_545 S
C583 C584 1.396 . S
C583 H610 0.929 . S
C584 C579 1.373 . S
C584 C583 1.396 . S
C584 H611 0.929 . S
C585 O598 1.240 1_556 S
C585 O599 1.289 1_565 S
C586 O600 1.258 . S
C586 O601 1.256 1_554 S
C587 La577 2.928 . S
C587 C588 1.503 . S
C587 O602 1.261 . S
C587 O603 1.243 . S
C588 C587 1.503 . S
C588 C589 1.394 . S
C588 C593 1.373 . S
C589 C588 1.394 . S
C589 C590 1.380 . S
C589 H612 0.930 . S
C590 C589 1.380 . S
C590 C591 1.376 . S
C590 H613 0.930 . S
C591 C590 1.376 . S
C591 C592 1.370 . S
C592 C591 1.370 . S
C592 C593 1.396 . S
C592 H614 0.929 . S
C593 C588 1.373 . S
C593 C592 1.396 . S
C593 H615 0.929 . S
C594 O604 1.241 1_554 S
C594 O605 1.289 . S
C595 O606 1.258 1_554 S
C595 O607 1.256 . S
O596 La576 2.521 . S
O596 C578 1.261 . S
O597 La576 2.628 . S
O597 C578 1.243 . S
O598 La576 2.554 1_565 S
O598 C585 1.240 1_554 S
O599 La576 2.757 1_556 S
O599 La577 2.482 . S
O599 C585 1.289 1_545 S
O600 La576 2.470 . S
O600 C586 1.258 . S
O601 La577 2.503 . S
O601 C586 1.256 1_556 S
O602 La577 2.521 . S
O602 C587 1.261 . S
O603 La577 2.628 . S
O603 C587 1.243 . S
O604 La577 2.553 . S
O604 C594 1.241 1_556 S
O605 La576 2.482 . S
O605 La577 2.757 1_554 S
O605 C594 1.289 . S
O606 La577 2.470 . S
O606 C595 1.258 1_556 S
O607 La576 2.503 . S
O607 C595 1.256 . S
H608 C580 0.930 . S
H609 C581 0.930 . S
H610 C583 0.929 . S
H611 C584 0.929 . S
H612 C589 0.930 . S
H613 C590 0.930 . S
H614 C592 0.929 . S
H615 C593 0.929 . S
La616 C618 2.928 . S
La616 O636 2.521 . S
La616 O637 2.628 . S
La616 O638 2.554 . S
La616 O639 2.757 . S
La616 O640 2.470 . S
La616 O645 2.482 . S
La616 O647 2.503 . S
La617 C627 2.928 . S
La617 O639 2.482 . S
La617 O641 2.503 . S
La617 O642 2.521 . S
La617 O643 2.628 . S
La617 O644 2.554 . S
La617 O645 2.757 . S
La617 O646 2.470 . S
C618 La616 2.928 . S
C618 C619 1.503 . S
C618 O636 1.261 . S
C618 O637 1.243 . S
C619 C618 1.503 . S
C619 C620 1.394 . S
C619 C624 1.373 . S
C620 C619 1.394 . S
C620 C621 1.380 . S
C620 H648 0.930 . S
C621 C620 1.380 . S
C621 C622 1.376 . S
C621 H649 0.930 . S
C622 C621 1.376 . S
C622 C623 1.370 . S
C623 C622 1.370 . S
C623 C624 1.396 . S
C623 H650 0.929 . S
C624 C619 1.373 . S
C624 C623 1.396 . S
C624 H651 0.929 . S
C625 O638 1.240 . S
C625 O639 1.289 . S
C626 O640 1.258 . S
C626 O641 1.256 . S
C627 La617 2.928 . S
C627 C628 1.503 . S
C627 O642 1.261 . S
C627 O643 1.243 . S
C628 C627 1.503 . S
C628 C629 1.394 . S
C628 C633 1.373 . S
C629 C628 1.394 . S
C629 C630 1.380 . S
C629 H652 0.930 . S
C630 C629 1.380 . S
C630 C631 1.376 . S
C630 H653 0.930 . S
C631 C630 1.376 . S
C631 C632 1.370 . S
C632 C631 1.370 . S
C632 C633 1.396 . S
C632 H654 0.929 . S
C633 C628 1.373 . S
C633 C632 1.396 . S
C633 H655 0.929 . S
C634 O644 1.240 . S
C634 O645 1.289 . S
C635 O646 1.258 . S
C635 O647 1.256 . S
O636 La616 2.521 . S
O636 C618 1.261 . S
O637 La616 2.628 . S
O637 C618 1.243 . S
O638 La616 2.554 . S
O638 C625 1.240 . S
O639 La616 2.757 . S
O639 La617 2.482 . S
O639 C625 1.289 . S
O640 La616 2.470 . S
O640 C626 1.258 . S
O641 La617 2.503 . S
O641 C626 1.256 . S
O642 La617 2.521 . S
O642 C627 1.261 . S
O643 La617 2.628 . S
O643 C627 1.243 . S
O644 La617 2.554 . S
O644 C634 1.240 . S
O645 La616 2.482 . S
O645 La617 2.757 . S
O645 C634 1.289 . S
O646 La617 2.470 . S
O646 C635 1.258 . S
O647 La616 2.503 . S
O647 C635 1.256 . S
H648 C620 0.930 . S
H649 C621 0.930 . S
H650 C623 0.929 . S
H651 C624 0.929 . S
H652 C629 0.930 . S
H653 C630 0.930 . S
H654 C632 0.929 . S
H655 C633 0.929 . S
La656 C658 2.945 . S
La656 O676 2.521 . S
La656 O677 2.628 1_554 S
La656 O678 2.554 . S
La656 O679 2.757 . S
La656 O680 2.470 1_554 S
La656 O685 2.482 . S
La656 O687 2.503 . S
La657 C667 2.928 1_556 S
La657 O679 2.482 1_556 S
La657 O681 2.503 . S
La657 O682 2.521 1_556 S
La657 O683 2.628 1_556 S
La657 O684 2.554 . S
La657 O685 2.757 1_556 S
La657 O686 2.470 1_556 S
C658 La656 2.945 . S
C658 C659 1.488 1_554 S
C658 O676 1.282 . S
C658 O677 1.238 1_554 S
C659 C658 1.488 1_556 S
C659 C660 1.394 . S
C659 C664 1.373 . S
C660 C659 1.394 . S
C660 C661 1.380 . S
C660 H688 0.930 1_556 S
C661 C660 1.380 . S
C661 C662 1.376 . S
C661 H689 0.930 . S
C662 C661 1.376 . S
C662 C663 1.370 . S
C663 C662 1.370 . S
C663 C664 1.396 . S
C663 H690 0.929 . S
C664 C659 1.373 . S
C664 C663 1.396 . S
C664 H691 0.929 . S
C665 O678 1.240 . S
C665 O679 1.289 . S
C666 O680 1.258 . S
C666 O681 1.256 . S
C667 La657 2.928 1_554 S
C667 C668 1.503 . S
C667 O682 1.261 . S
C667 O683 1.243 . S
C668 C667 1.503 . S
C668 C669 1.394 . S
C668 C673 1.373 . S
C669 C668 1.394 . S
C669 C670 1.380 . S
C669 H692 0.930 . S
C670 C669 1.380 . S
C670 C671 1.376 . S
C670 H693 0.930 . S
C671 C670 1.376 . S
C671 C672 1.370 . S
C672 C671 1.370 . S
C672 C673 1.396 . S
C672 H694 0.929 . S
C673 C668 1.373 . S
C673 C672 1.396 . S
C673 H695 0.929 . S
C674 O684 1.240 . S
C674 O685 1.288 1_556 S
C675 O686 1.258 . S
C675 O687 1.256 . S
O676 La656 2.521 . S
O676 C658 1.282 . S
O677 La656 2.628 1_556 S
O677 C658 1.238 1_556 S
O678 La656 2.554 . S
O678 C665 1.240 . S
O679 La656 2.757 . S
O679 La657 2.482 1_554 S
O679 C665 1.289 . S
O680 La656 2.470 1_556 S
O680 C666 1.258 . S
O681 La657 2.503 . S
O681 C666 1.256 . S
O682 La657 2.521 1_554 S
O682 C667 1.261 . S
O683 La657 2.628 1_554 S
O683 C667 1.243 . S
O684 La657 2.554 . S
O684 C674 1.240 . S
O685 La656 2.482 . S
O685 La657 2.757 1_554 S
O685 C674 1.288 1_554 S
O686 La657 2.470 1_554 S
O686 C675 1.258 . S
O687 La656 2.503 . S
O687 C675 1.256 . S
H688 C660 0.930 1_554 S
H689 C661 0.930 . S
H690 C663 0.929 . S
H691 C664 0.929 . S
H692 C669 0.930 . S
H693 C670 0.930 . S
H694 C672 0.929 . S
H695 C673 0.929 . S
La696 C698 2.928 . S
La696 O716 2.521 . S
La696 O717 2.628 . S
La696 O718 2.554 . S
La696 O719 2.757 . S
La696 O720 2.470 . S
La696 O725 2.482 . S
La696 O727 2.503 . S
La697 C707 2.928 . S
La697 O719 2.482 . S
La697 O721 2.503 . S
La697 O722 2.521 . S
La697 O723 2.628 . S
La697 O724 2.554 . S
La697 O725 2.757 . S
La697 O726 2.470 . S
C698 La696 2.928 . S
C698 C699 1.503 . S
C698 O716 1.261 . S
C698 O717 1.243 . S
C699 C698 1.503 . S
C699 C700 1.394 . S
C699 C704 1.373 . S
C700 C699 1.394 . S
C700 C701 1.360 1_655 S
C700 H728 0.930 . S
C701 C700 1.360 1_455 S
C701 C702 1.383 . S
C701 H729 0.944 . S
C702 C701 1.383 . S
C702 C703 1.370 1_455 S
C703 C702 1.370 1_655 S
C703 C704 1.396 . S
C703 H730 0.929 1_655 S
C704 C699 1.373 . S
C704 C703 1.396 . S
C704 H731 0.929 . S
C705 O718 1.240 . S
C705 O719 1.289 . S
C706 O720 1.258 . S
C706 O721 1.256 . S
C707 La697 2.928 . S
C707 C708 1.503 . S
C707 O722 1.261 . S
C707 O723 1.243 . S
C708 C707 1.503 . S
C708 C709 1.394 . S
C708 C713 1.373 . S
C709 C708 1.394 . S
C709 C710 1.380 . S
C709 H732 0.930 . S
C710 C709 1.380 . S
C710 C711 1.376 . S
C710 H733 0.930 . S
C711 C710 1.376 . S
C711 C712 1.370 . S
C712 C711 1.370 . S
C712 C713 1.396 . S
C712 H734 0.929 . S
C713 C708 1.373 . S
C713 C712 1.396 . S
C713 H735 0.929 . S
C714 O724 1.240 . S
C714 O725 1.289 . S
C715 O726 1.258 . S
C715 O727 1.256 . S
O716 La696 2.521 . S
O716 C698 1.261 . S
O717 La696 2.628 . S
O717 C698 1.243 . S
O718 La696 2.554 . S
O718 C705 1.240 . S
O719 La696 2.757 . S
O719 La697 2.482 . S
O719 C705 1.289 . S
O720 La696 2.470 . S
O720 C706 1.258 . S
O721 La697 2.503 . S
O721 C706 1.256 . S
O722 La697 2.521 . S
O722 C707 1.261 . S
O723 La697 2.628 . S
O723 C707 1.243 . S
O724 La697 2.554 . S
O724 C714 1.240 . S
O725 La696 2.482 . S
O725 La697 2.757 . S
O725 C714 1.289 . S
O726 La697 2.470 . S
O726 C715 1.258 . S
O727 La696 2.503 . S
O727 C715 1.256 . S
H728 C700 0.930 . S
H729 C701 0.944 . S
H730 C703 0.929 1_455 S
H731 C704 0.929 . S
H732 C709 0.930 . S
H733 C710 0.930 . S
H734 C712 0.929 . S
H735 C713 0.929 . S
La736 C738 2.928 . S
La736 O756 2.521 . S
La736 O757 2.628 . S
La736 O758 2.554 . S
La736 O759 2.757 . S
La736 O760 2.470 . S
La736 O765 2.482 . S
La736 O767 2.503 . S
La737 C747 2.928 . S
La737 O759 2.482 . S
La737 O761 2.503 . S
La737 O762 2.521 . S
La737 O763 2.628 . S
La737 O764 2.554 . S
La737 O765 2.757 . S
La737 O766 2.470 . S
C738 La736 2.928 . S
C738 C739 1.503 . S
C738 O756 1.261 . S
C738 O757 1.243 . S
C739 C738 1.503 . S
C739 C740 1.394 . S
C739 C744 1.373 . S
C740 C739 1.394 . S
C740 C741 1.380 . S
C740 H768 0.930 . S
C741 C740 1.380 . S
C741 C742 1.376 1_455 S
C741 H769 0.930 . S
C742 C741 1.376 1_655 S
C742 C743 1.370 . S
C743 C742 1.370 . S
C743 C744 1.396 1_655 S
C743 H770 0.929 . S
C744 C739 1.373 . S
C744 C743 1.396 1_455 S
C744 H771 0.932 . S
C745 O758 1.240 . S
C745 O759 1.289 . S
C746 O760 1.258 . S
C746 O761 1.256 . S
C747 La737 2.928 . S
C747 C748 1.503 . S
C747 O762 1.261 . S
C747 O763 1.243 . S
C748 C747 1.503 . S
C748 C749 1.394 . S
C748 C753 1.373 . S
C749 C748 1.394 . S
C749 C750 1.380 . S
C749 H772 0.930 . S
C750 C749 1.380 . S
C750 C751 1.376 . S
C750 H773 0.930 . S
C751 C750 1.376 . S
C751 C752 1.370 . S
C752 C751 1.370 . S
C752 C753 1.396 . S
C752 H774 0.929 . S
C753 C748 1.373 . S
C753 C752 1.396 . S
C753 H775 0.929 . S
C754 O764 1.240 . S
C754 O765 1.289 . S
C755 O766 1.258 . S
C755 O767 1.256 . S
O756 La736 2.521 . S
O756 C738 1.261 . S
O757 La736 2.628 . S
O757 C738 1.243 . S
O758 La736 2.554 . S
O758 C745 1.240 . S
O759 La736 2.757 . S
O759 La737 2.482 . S
O759 C745 1.289 . S
O760 La736 2.470 . S
O760 C746 1.258 . S
O761 La737 2.503 . S
O761 C746 1.256 . S
O762 La737 2.521 . S
O762 C747 1.261 . S
O763 La737 2.628 . S
O763 C747 1.243 . S
O764 La737 2.554 . S
O764 C754 1.240 . S
O765 La736 2.482 . S
O765 La737 2.757 . S
O765 C754 1.289 . S
O766 La737 2.470 . S
O766 C755 1.258 . S
O767 La736 2.503 . S
O767 C755 1.256 . S
H768 C740 0.930 . S
H769 C741 0.930 . S
H770 C743 0.929 . S
H771 C744 0.932 . S
H772 C749 0.930 . S
H773 C750 0.930 . S
H774 C752 0.929 . S
H775 C753 0.929 . S
La776 C778 2.928 . S
La776 O796 2.521 . S
La776 O797 2.628 . S
La776 O798 2.554 . S
La776 O799 2.757 . S
La776 O800 2.470 . S
La776 O805 2.482 . S
La776 O807 2.503 . S
La777 C787 2.928 . S
La777 O799 2.482 . S
La777 O801 2.503 . S
La777 O802 2.521 . S
La777 O803 2.628 . S
La777 O804 2.554 . S
La777 O805 2.757 . S
La777 O806 2.470 . S
C778 La776 2.928 . S
C778 C779 1.503 . S
C778 O796 1.261 . S
C778 O797 1.243 . S
C779 C778 1.503 . S
C779 C780 1.394 . S
C779 C784 1.373 . S
C780 C779 1.394 . S
C780 C781 1.380 . S
C780 H808 0.930 . S
C781 C780 1.380 . S
C781 C782 1.376 . S
C781 H809 0.930 . S
C782 C781 1.376 . S
C782 C783 1.370 . S
C783 C782 1.370 . S
C783 C784 1.396 . S
C783 H810 0.929 . S
C784 C779 1.373 . S
C784 C783 1.396 . S
C784 H811 0.929 . S
C785 O798 1.240 . S
C785 O799 1.289 . S
C786 O800 1.258 . S
C786 O801 1.256 . S
C787 La777 2.928 . S
C787 C788 1.503 . S
C787 O802 1.261 . S
C787 O803 1.243 . S
C788 C787 1.503 . S
C788 C789 1.394 . S
C788 C793 1.373 . S
C789 C788 1.394 . S
C789 C790 1.380 . S
C789 H812 0.930 . S
C790 C789 1.380 . S
C790 C791 1.376 . S
C790 H813 0.930 . S
C791 C790 1.376 . S
C791 C792 1.370 . S
C792 C791 1.370 . S
C792 C793 1.396 . S
C792 H814 0.929 . S
C793 C788 1.373 . S
C793 C792 1.396 . S
C793 H815 0.929 . S
C794 O804 1.240 . S
C794 O805 1.289 . S
C795 O806 1.258 . S
C795 O807 1.256 . S
O796 La776 2.521 . S
O796 C778 1.261 . S
O797 La776 2.628 . S
O797 C778 1.243 . S
O798 La776 2.554 . S
O798 C785 1.240 . S
O799 La776 2.757 . S
O799 La777 2.482 . S
O799 C785 1.289 . S
O800 La776 2.470 . S
O800 C786 1.258 . S
O801 La777 2.503 . S
O801 C786 1.256 . S
O802 La777 2.521 . S
O802 C787 1.261 . S
O803 La777 2.628 . S
O803 C787 1.243 . S
O804 La777 2.554 . S
O804 C794 1.240 . S
O805 La776 2.482 . S
O805 La777 2.757 . S
O805 C794 1.289 . S
O806 La777 2.470 . S
O806 C795 1.258 . S
O807 La776 2.503 . S
O807 C795 1.256 . S
H808 C780 0.930 . S
H809 C781 0.930 . S
H810 C783 0.929 . S
H811 C784 0.929 . S
H812 C789 0.930 . S
H813 C790 0.930 . S
H814 C792 0.929 . S
H815 C793 0.929 . S
La816 C818 2.928 . S
La816 O836 2.521 . S
La816 O837 2.628 . S
La816 O838 2.554 . S
La816 O839 2.757 . S
La816 O840 2.470 . S
La816 O845 2.482 . S
La816 O847 2.503 . S
La817 C827 2.928 . S
La817 O839 2.482 . S
La817 O841 2.503 . S
La817 O842 2.521 . S
La817 O843 2.628 . S
La817 O844 2.554 . S
La817 O845 2.757 . S
La817 O846 2.470 . S
C818 La816 2.928 . S
C818 C819 1.503 . S
C818 O836 1.261 . S
C818 O837 1.243 . S
C819 C818 1.503 . S
C819 C820 1.394 . S
C819 C824 1.373 . S
C820 C819 1.394 . S
C820 C821 1.380 . S
C820 H848 0.930 . S
C821 C820 1.380 . S
C821 C822 1.376 . S
C821 H849 0.930 . S
C822 C821 1.376 . S
C822 C823 1.370 . S
C823 C822 1.370 . S
C823 C824 1.396 . S
C823 H850 0.929 . S
C824 C819 1.373 . S
C824 C823 1.396 . S
C824 H851 0.929 . S
C825 O838 1.240 . S
C825 O839 1.289 . S
C826 O840 1.258 . S
C826 O841 1.256 . S
C827 La817 2.928 . S
C827 C828 1.503 . S
C827 O842 1.261 . S
C827 O843 1.243 . S
C828 C827 1.503 . S
C828 C829 1.394 . S
C828 C833 1.373 . S
C829 C828 1.394 . S
C829 C830 1.380 . S
C829 H852 0.930 . S
C830 C829 1.380 . S
C830 C831 1.376 . S
C830 H853 0.930 . S
C831 C830 1.376 . S
C831 C832 1.370 . S
C832 C831 1.370 . S
C832 C833 1.396 . S
C832 H854 0.929 . S
C833 C828 1.373 . S
C833 C832 1.396 . S
C833 H855 0.929 . S
C834 O844 1.240 . S
C834 O845 1.289 . S
C835 O846 1.258 . S
C835 O847 1.256 . S
O836 La816 2.521 . S
O836 C818 1.261 . S
O837 La816 2.628 . S
O837 C818 1.243 . S
O838 La816 2.554 . S
O838 C825 1.240 . S
O839 La816 2.757 . S
O839 La817 2.482 . S
O839 C825 1.289 . S
O840 La816 2.470 . S
O840 C826 1.258 . S
O841 La817 2.503 . S
O841 C826 1.256 . S
O842 La817 2.521 . S
O842 C827 1.261 . S
O843 La817 2.628 . S
O843 C827 1.243 . S
O844 La817 2.554 . S
O844 C834 1.240 . S
O845 La816 2.482 . S
O845 La817 2.757 . S
O845 C834 1.289 . S
O846 La817 2.470 . S
O846 C835 1.258 . S
O847 La816 2.503 . S
O847 C835 1.256 . S
H848 C820 0.930 . S
H849 C821 0.930 . S
H850 C823 0.929 . S
H851 C824 0.929 . S
H852 C829 0.930 . S
H853 C830 0.930 . S
H854 C832 0.929 . S
H855 C833 0.929 . S
La856 C858 2.928 . S
La856 O876 2.521 . S
La856 O877 2.628 . S
La856 O878 2.554 . S
La856 O879 2.757 . S
La856 O880 2.470 . S
La856 O885 2.482 . S
La856 O887 2.503 . S
La857 C867 2.928 . S
La857 O879 2.482 . S
La857 O881 2.503 . S
La857 O882 2.521 . S
La857 O883 2.628 . S
La857 O884 2.554 . S
La857 O885 2.757 . S
La857 O886 2.470 . S
C858 La856 2.928 . S
C858 C859 1.503 . S
C858 O876 1.261 . S
C858 O877 1.243 . S
C859 C858 1.503 . S
C859 C860 1.394 . S
C859 C864 1.373 . S
C860 C859 1.394 . S
C860 C861 1.380 . S
C860 H888 0.930 . S
C861 C860 1.380 . S
C861 C862 1.376 . S
C861 H889 0.930 . S
C862 C861 1.376 . S
C862 C863 1.370 . S
C863 C862 1.370 . S
C863 C864 1.396 . S
C863 H890 0.929 . S
C864 C859 1.373 . S
C864 C863 1.396 . S
C864 H891 0.929 . S
C865 O878 1.240 . S
C865 O879 1.289 . S
C866 O880 1.258 . S
C866 O881 1.256 . S
C867 La857 2.928 . S
C867 C868 1.503 . S
C867 O882 1.261 . S
C867 O883 1.243 . S
C868 C867 1.503 . S
C868 C869 1.394 . S
C868 C873 1.373 . S
C869 C868 1.394 . S
C869 C870 1.380 . S
C869 H892 0.930 . S
C870 C869 1.380 . S
C870 C871 1.376 . S
C870 H893 0.930 . S
C871 C870 1.376 . S
C871 C872 1.370 . S
C872 C871 1.370 . S
C872 C873 1.396 . S
C872 H894 0.929 . S
C873 C868 1.373 . S
C873 C872 1.396 . S
C873 H895 0.929 . S
C874 O884 1.240 . S
C874 O885 1.289 . S
C875 O886 1.258 . S
C875 O887 1.256 . S
O876 La856 2.521 . S
O876 C858 1.261 . S
O877 La856 2.628 . S
O877 C858 1.243 . S
O878 La856 2.554 . S
O878 C865 1.240 . S
O879 La856 2.757 . S
O879 La857 2.482 . S
O879 C865 1.289 . S
O880 La856 2.470 . S
O880 C866 1.258 . S
O881 La857 2.503 . S
O881 C866 1.256 . S
O882 La857 2.521 . S
O882 C867 1.261 . S
O883 La857 2.628 . S
O883 C867 1.243 . S
O884 La857 2.554 . S
O884 C874 1.240 . S
O885 La856 2.482 . S
O885 La857 2.757 . S
O885 C874 1.289 . S
O886 La857 2.470 . S
O886 C875 1.258 . S
O887 La856 2.503 . S
O887 C875 1.256 . S
H888 C860 0.930 . S
H889 C861 0.930 . S
H890 C863 0.929 . S
H891 C864 0.929 . S
H892 C869 0.930 . S
H893 C870 0.930 . S
H894 C872 0.929 . S
H895 C873 0.929 . S
La896 C898 2.928 . S
La896 O916 2.521 . S
La896 O917 2.628 . S
La896 O918 2.554 . S
La896 O919 2.757 . S
La896 O920 2.470 . S
La896 O925 2.482 . S
La896 O927 2.503 . S
La897 C907 2.928 . S
La897 O919 2.482 . S
La897 O921 2.503 . S
La897 O922 2.521 . S
La897 O923 2.628 . S
La897 O924 2.554 . S
La897 O925 2.757 . S
La897 O926 2.470 . S
C898 La896 2.928 . S
C898 C899 1.503 . S
C898 O916 1.261 . S
C898 O917 1.243 . S
C899 C898 1.503 . S
C899 C900 1.394 . S
C899 C904 1.373 . S
C900 C899 1.394 . S
C900 C901 1.380 . S
C900 H928 0.930 . S
C901 C900 1.380 . S
C901 C902 1.376 . S
C901 H929 0.930 . S
C902 C901 1.376 . S
C902 C903 1.370 . S
C903 C902 1.370 . S
C903 C904 1.396 . S
C903 H930 0.929 . S
C904 C899 1.373 . S
C904 C903 1.396 . S
C904 H931 0.929 . S
C905 O918 1.240 . S
C905 O919 1.289 . S
C906 O920 1.258 . S
C906 O921 1.256 . S
C907 La897 2.928 . S
C907 C908 1.503 . S
C907 O922 1.261 . S
C907 O923 1.243 . S
C908 C907 1.503 . S
C908 C909 1.394 . S
C908 C913 1.373 . S
C909 C908 1.394 . S
C909 C910 1.380 . S
C909 H932 0.930 . S
C910 C909 1.380 . S
C910 C911 1.376 . S
C910 H933 0.930 . S
C911 C910 1.376 . S
C911 C912 1.370 . S
C912 C911 1.370 . S
C912 C913 1.396 . S
C912 H934 0.929 . S
C913 C908 1.373 . S
C913 C912 1.396 . S
C913 H935 0.929 . S
C914 O924 1.240 . S
C914 O925 1.289 . S
C915 O926 1.258 . S
C915 O927 1.256 . S
O916 La896 2.521 . S
O916 C898 1.261 . S
O917 La896 2.628 . S
O917 C898 1.243 . S
O918 La896 2.554 . S
O918 C905 1.240 . S
O919 La896 2.757 . S
O919 La897 2.482 . S
O919 C905 1.289 . S
O920 La896 2.470 . S
O920 C906 1.258 . S
O921 La897 2.503 . S
O921 C906 1.256 . S
O922 La897 2.521 . S
O922 C907 1.261 . S
O923 La897 2.628 . S
O923 C907 1.243 . S
O924 La897 2.554 . S
O924 C914 1.240 . S
O925 La896 2.482 . S
O925 La897 2.757 . S
O925 C914 1.289 . S
O926 La897 2.470 . S
O926 C915 1.258 . S
O927 La896 2.503 . S
O927 C915 1.256 . S
H928 C900 0.930 . S
H929 C901 0.930 . S
H930 C903 0.929 . S
H931 C904 0.929 . S
H932 C909 0.930 . S
H933 C910 0.930 . S
H934 C912 0.929 . S
H935 C913 0.929 . S
La936 C938 2.928 1_554 S
La936 O956 2.521 1_554 S
La936 O957 2.628 . S
La936 O958 2.554 1_554 S
La936 O959 2.757 1_554 S
La936 O960 2.470 1_554 S
La936 O965 2.482 . S
La936 O967 2.503 . S
La937 C947 2.928 1_455 S
La937 O959 2.482 1_554 S
La937 O961 2.503 . S
La937 O962 2.521 1_455 S
La937 O963 2.628 1_455 S
La937 O964 2.554 . S
La937 O965 2.757 . S
La937 O966 2.470 . S
C938 La936 2.928 1_556 S
C938 C939 1.503 . S
C938 O956 1.261 . S
C938 O957 1.243 1_556 S
C939 C938 1.503 . S
C939 C940 1.394 . S
C939 C944 1.373 1_556 S
C940 C939 1.394 . S
C940 C941 1.380 . S
C940 H968 0.930 . S
C941 C940 1.380 . S
C941 C942 1.376 . S
C941 H969 0.930 . S
C942 C941 1.376 . S
C942 C943 1.370 1_556 S
C943 C942 1.370 1_554 S
C943 C944 1.396 . S
C943 H970 0.929 . S
C944 C939 1.373 1_554 S
C944 C943 1.396 . S
C944 H971 0.929 . S
C945 O958 1.240 . S
C945 O959 1.289 . S
C946 O960 1.232 1_554 S
C946 O961 1.273 . S
C947 La937 2.928 1_655 S
C947 C948 1.503 . S
C947 O962 1.261 . S
C947 O963 1.243 . S
C948 C947 1.503 . S
C948 C949 1.394 . S
C948 C953 1.373 . S
C949 C948 1.394 . S
C949 C950 1.380 . S
C949 H972 0.930 . S
C950 C949 1.380 . S
C950 C951 1.376 . S
C950 H973 0.930 . S
C951 C950 1.376 . S
C951 C952 1.370 . S
C952 C951 1.370 . S
C952 C953 1.396 . S
C952 H974 0.929 . S
C953 C948 1.373 . S
C953 C952 1.396 . S
C953 H975 0.929 . S
C954 O964 1.240 . S
C954 O965 1.289 . S
C955 O966 1.258 . S
C955 O967 1.256 . S
O956 La936 2.521 1_556 S
O956 C938 1.261 . S
O957 La936 2.628 . S
O957 C938 1.243 1_554 S
O958 La936 2.554 1_556 S
O958 C945 1.240 . S
O959 La936 2.757 1_556 S
O959 La937 2.482 1_556 S
O959 C945 1.289 . S
O960 La936 2.470 1_556 S
O960 C946 1.232 1_556 S
O961 La937 2.503 . S
O961 C946 1.273 . S
O962 La937 2.521 1_655 S
O962 C947 1.261 . S
O963 La937 2.628 1_655 S
O963 C947 1.243 . S
O964 La937 2.554 . S
O964 C954 1.240 . S
O965 La936 2.482 . S
O965 La937 2.757 . S
O965 C954 1.289 . S
O966 La937 2.470 . S
O966 C955 1.258 . S
O967 La936 2.503 . S
O967 C955 1.256 . S
H968 C940 0.930 . S
H969 C941 0.930 . S
H970 C943 0.929 . S
H971 C944 0.929 . S
H972 C949 0.930 . S
H973 C950 0.930 . S
H974 C952 0.929 . S
H975 C953 0.929 . S
C976 C977 1.369 1_554 S
C976 C978 1.419 . S
C976 H980 0.930 . S
C977 C976 1.369 1_556 S
C977 C986 1.429 . S
C978 C976 1.419 . S
C978 C979 1.363 1_554 S
C978 H981 0.929 . S
C979 C978 1.363 1_556 S
C979 C985 1.428 . S
H980 C976 0.930 . S
H981 C978 0.929 . S
S982 N983 1.613 . S
S982 N984 1.610 . S
N983 S982 1.613 . S
N983 C986 1.350 . S
N984 S982 1.610 . S
N984 C985 1.351 . S
C985 C979 1.428 . S
C985 N984 1.351 . S
C985 C986 1.434 . S
C986 C977 1.429 . S
C986 N983 1.350 . S
C986 C985 1.434 . S
C987 C988 1.369 . S
C987 C989 1.419 . S
C987 H991 0.930 . S
C988 C987 1.369 . S
C988 C997 1.429 . S
C989 C987 1.419 . S
C989 C990 1.363 . S
C989 H992 0.929 . S
C990 C989 1.363 . S
C990 C996 1.428 . S
H991 C987 0.930 . S
H992 C989 0.929 . S
S993 N994 1.613 . S
S993 N995 1.610 . S
N994 S993 1.613 . S
N994 C997 1.350 . S
N995 S993 1.610 . S
N995 C996 1.351 . S
C996 C990 1.428 . S
C996 N995 1.351 . S
C996 C997 1.434 . S
C997 C988 1.429 . S
C997 N994 1.350 . S
C997 C996 1.434 . S
C998 C999 1.369 . S
C998 C1000 1.419 . S
C998 H1002 0.930 . S
C999 C998 1.369 . S
C999 C1008 1.429 . S
C1000 C998 1.419 . S
C1000 C1001 1.363 . S
C1000 H1003 0.929 . S
C1001 C1000 1.363 . S
C1001 C1007 1.428 . S
H1002 C998 0.930 . S
H1003 C1000 0.929 . S
S1004 N1005 1.613 . S
S1004 N1006 1.610 . S
N1005 S1004 1.613 . S
N1005 C1008 1.350 . S
N1006 S1004 1.610 . S
N1006 C1007 1.351 . S
C1007 C1001 1.428 . S
C1007 N1006 1.351 . S
C1007 C1008 1.434 . S
C1008 C999 1.429 . S
C1008 N1005 1.350 . S
C1008 C1007 1.434 . S
C1009 C1010 1.369 . S
C1009 C1011 1.419 . S
C1009 H1013 0.930 . S
C1010 C1009 1.369 . S
C1010 C1019 1.429 . S
C1011 C1009 1.419 . S
C1011 C1012 1.363 . S
C1011 H1014 0.929 . S
C1012 C1011 1.363 . S
C1012 C1018 1.428 . S
H1013 C1009 0.930 . S
H1014 C1011 0.929 . S
S1015 N1016 1.613 . S
S1015 N1017 1.610 . S
N1016 S1015 1.613 . S
N1016 C1019 1.350 . S
N1017 S1015 1.610 . S
N1017 C1018 1.351 . S
C1018 C1012 1.428 . S
C1018 N1017 1.351 . S
C1018 C1019 1.434 . S
C1019 C1010 1.429 . S
C1019 N1016 1.350 . S
C1019 C1018 1.434 . S
C1020 C1021 1.369 . S
C1020 C1022 1.419 . S
C1020 H1024 0.930 . S
C1021 C1020 1.369 . S
C1021 C1030 1.429 . S
C1022 C1020 1.419 . S
C1022 C1023 1.363 . S
C1022 H1025 0.929 . S
C1023 C1022 1.363 . S
C1023 C1029 1.428 . S
H1024 C1020 0.930 . S
H1025 C1022 0.929 . S
S1026 N1027 1.616 . S
S1026 N1028 1.610 . S
N1027 S1026 1.616 . S
N1027 C1030 1.380 . S
N1028 S1026 1.610 . S
N1028 C1029 1.351 . S
C1029 C1023 1.428 . S
C1029 N1028 1.351 . S
C1029 C1030 1.434 . S
C1030 C1021 1.429 . S
C1030 N1027 1.380 . S
C1030 C1029 1.434 . S
C1031 C1032 1.369 . S
C1031 C1033 1.419 . S
C1031 H1035 0.930 . S
C1032 C1031 1.369 . S
C1032 C1041 1.429 . S
C1033 C1031 1.419 . S
C1033 C1034 1.363 . S
C1033 H1036 0.929 . S
C1034 C1033 1.363 . S
C1034 C1040 1.428 . S
H1035 C1031 0.930 . S
H1036 C1033 0.929 . S
S1037 N1038 1.613 . S
S1037 N1039 1.610 . S
N1038 S1037 1.613 . S
N1038 C1041 1.350 . S
N1039 S1037 1.610 . S
N1039 C1040 1.351 . S
C1040 C1034 1.428 . S
C1040 N1039 1.351 . S
C1040 C1041 1.434 . S
C1041 C1032 1.429 . S
C1041 N1038 1.350 . S
C1041 C1040 1.434 . S
C1042 C1043 1.369 . S
C1042 C1044 1.419 . S
C1042 H1046 0.930 . S
C1043 C1042 1.369 . S
C1043 C1052 1.429 . S
C1044 C1042 1.419 . S
C1044 C1045 1.363 . S
C1044 H1047 0.929 . S
C1045 C1044 1.363 . S
C1045 C1051 1.428 . S
H1046 C1042 0.930 . S
H1047 C1044 0.929 . S
S1048 N1049 1.613 . S
S1048 N1050 1.610 . S
N1049 S1048 1.613 . S
N1049 C1052 1.350 . S
N1050 S1048 1.610 . S
N1050 C1051 1.351 . S
C1051 C1045 1.428 . S
C1051 N1050 1.351 . S
C1051 C1052 1.434 . S
C1052 C1043 1.429 . S
C1052 N1049 1.350 . S
C1052 C1051 1.434 . S
C1053 C1054 1.369 . S
C1053 C1055 1.419 . S
C1053 H1057 0.930 . S
C1054 C1053 1.369 . S
C1054 C1063 1.429 . S
C1055 C1053 1.419 . S
C1055 C1056 1.363 . S
C1055 H1058 0.929 . S
C1056 C1055 1.363 . S
C1056 C1062 1.428 . S
H1057 C1053 0.930 . S
H1058 C1055 0.929 . S
S1059 N1060 1.613 . S
S1059 N1061 1.610 . S
N1060 S1059 1.613 . S
N1060 C1063 1.350 . S
N1061 S1059 1.610 . S
N1061 C1062 1.351 . S
C1062 C1056 1.428 . S
C1062 N1061 1.351 . S
C1062 C1063 1.434 . S
C1063 C1054 1.429 . S
C1063 N1060 1.350 . S
C1063 C1062 1.434 . S
C1064 C1065 1.369 . S
C1064 C1066 1.419 . S
C1064 H1068 0.930 . S
C1065 C1064 1.369 . S
C1065 C1074 1.429 . S
C1066 C1064 1.419 . S
C1066 C1067 1.363 . S
C1066 H1069 0.929 . S
C1067 C1066 1.363 . S
C1067 C1073 1.428 . S
H1068 C1064 0.930 . S
H1069 C1066 0.929 . S
S1070 N1071 1.613 . S
S1070 N1072 1.610 . S
N1071 S1070 1.613 . S
N1071 C1074 1.350 . S
N1072 S1070 1.610 . S
N1072 C1073 1.351 . S
C1073 C1067 1.428 . S
C1073 N1072 1.351 . S
C1073 C1074 1.434 . S
C1074 C1065 1.429 . S
C1074 N1071 1.350 . S
C1074 C1073 1.434 . S
C1075 C1076 1.369 . S
C1075 C1077 1.419 . S
C1075 H1079 0.930 . S
C1076 C1075 1.369 . S
C1076 C1085 1.429 . S
C1077 C1075 1.419 . S
C1077 C1078 1.363 . S
C1077 H1080 0.929 . S
C1078 C1077 1.363 . S
C1078 C1084 1.428 . S
H1079 C1075 0.930 . S
H1080 C1077 0.929 . S
S1081 N1082 1.613 . S
S1081 N1083 1.610 . S
N1082 S1081 1.613 . S
N1082 C1085 1.350 . S
N1083 S1081 1.610 . S
N1083 C1084 1.351 . S
C1084 C1078 1.428 . S
C1084 N1083 1.351 . S
C1084 C1085 1.434 . S
C1085 C1076 1.429 . S
C1085 N1082 1.350 . S
C1085 C1084 1.434 . S
C1086 C1087 1.369 . S
C1086 C1088 1.419 . S
C1086 H1090 0.930 . S
C1087 C1086 1.369 . S
C1087 C1096 1.429 . S
C1088 C1086 1.419 . S
C1088 C1089 1.363 . S
C1088 H1091 0.929 . S
C1089 C1088 1.363 . S
C1089 C1095 1.428 . S
H1090 C1086 0.930 . S
H1091 C1088 0.929 . S
S1092 N1093 1.613 . S
S1092 N1094 1.610 . S
N1093 S1092 1.613 . S
N1093 C1096 1.350 . S
N1094 S1092 1.610 . S
N1094 C1095 1.351 . S
C1095 C1089 1.428 . S
C1095 N1094 1.351 . S
C1095 C1096 1.434 . S
C1096 C1087 1.429 . S
C1096 N1093 1.350 . S
C1096 C1095 1.434 . S
C1097 C1098 1.369 . S
C1097 C1099 1.419 . S
C1097 H1101 0.930 . S
C1098 C1097 1.369 . S
C1098 C1107 1.429 . S
C1099 C1097 1.419 . S
C1099 C1100 1.363 . S
C1099 H1102 0.929 . S
C1100 C1099 1.363 . S
C1100 C1106 1.428 . S
H1101 C1097 0.930 . S
H1102 C1099 0.929 . S
S1103 N1104 1.613 . S
S1103 N1105 1.610 . S
N1104 S1103 1.613 . S
N1104 C1107 1.350 . S
N1105 S1103 1.610 . S
N1105 C1106 1.351 . S
C1106 C1100 1.428 . S
C1106 N1105 1.351 . S
C1106 C1107 1.434 . S
C1107 C1098 1.429 . S
C1107 N1104 1.350 . S
C1107 C1106 1.434 . S
C1108 C1109 1.369 . S
C1108 C1110 1.419 . S
C1108 H1112 0.930 1_455 S
C1109 C1108 1.369 . S
C1109 C1118 1.429 . S
C1110 C1108 1.419 . S
C1110 C1111 1.363 . S
C1110 H1113 0.929 . S
C1111 C1110 1.363 . S
C1111 C1117 1.428 . S
H1112 C1108 0.930 1_655 S
H1113 C1110 0.929 . S
S1114 N1115 1.613 . S
S1114 N1116 1.610 . S
N1115 S1114 1.613 . S
N1115 C1118 1.350 . S
N1116 S1114 1.610 . S
N1116 C1117 1.351 . S
C1117 C1111 1.428 . S
C1117 N1116 1.351 . S
C1117 C1118 1.434 . S
C1118 C1109 1.429 . S
C1118 N1115 1.350 . S
C1118 C1117 1.434 . S
C1119 C1120 1.369 . S
C1119 C1121 1.419 . S
C1119 H1123 0.930 . S
C1120 C1119 1.369 . S
C1120 C1129 1.429 . S
C1121 C1119 1.419 . S
C1121 C1122 1.363 . S
C1121 H1124 0.929 . S
C1122 C1121 1.363 . S
C1122 C1128 1.428 . S
H1123 C1119 0.930 . S
H1124 C1121 0.929 . S
S1125 N1126 1.613 . S
S1125 N1127 1.610 . S
N1126 S1125 1.613 . S
N1126 C1129 1.350 . S
N1127 S1125 1.610 . S
N1127 C1128 1.351 . S
C1128 C1122 1.428 . S
C1128 N1127 1.351 . S
C1128 C1129 1.434 . S
C1129 C1120 1.429 . S
C1129 N1126 1.350 . S
C1129 C1128 1.434 . S
C1130 C1131 1.369 . S
C1130 C1132 1.419 . S
C1130 H1134 0.930 . S
C1131 C1130 1.369 . S
C1131 C1140 1.429 . S
C1132 C1130 1.419 . S
C1132 C1133 1.363 . S
C1132 H1135 0.929 . S
C1133 C1132 1.363 . S
C1133 C1139 1.428 . S
H1134 C1130 0.930 . S
H1135 C1132 0.929 . S
S1136 N1137 1.613 . S
S1136 N1138 1.610 . S
N1137 S1136 1.613 . S
N1137 C1140 1.350 . S
N1138 S1136 1.610 . S
N1138 C1139 1.351 . S
C1139 C1133 1.428 . S
C1139 N1138 1.351 . S
C1139 C1140 1.434 . S
C1140 C1131 1.429 . S
C1140 N1137 1.350 . S
C1140 C1139 1.434 . S
C1141 C1142 1.369 . S
C1141 C1143 1.419 . S
C1141 H1145 0.930 . S
C1142 C1141 1.369 . S
C1142 C1151 1.429 . S
C1143 C1141 1.419 . S
C1143 C1144 1.363 . S
C1143 H1146 0.929 . S
C1144 C1143 1.363 . S
C1144 C1150 1.428 . S
H1145 C1141 0.930 . S
H1146 C1143 0.929 . S
S1147 N1148 1.613 . S
S1147 N1149 1.610 . S
N1148 S1147 1.613 . S
N1148 C1151 1.350 . S
N1149 S1147 1.610 . S
N1149 C1150 1.351 . S
C1150 C1144 1.428 . S
C1150 N1149 1.351 . S
C1150 C1151 1.434 . S
C1151 C1142 1.429 . S
C1151 N1148 1.350 . S
C1151 C1150 1.434 . S
C1152 C1153 1.369 1_545 S
C1152 C1154 1.419 . S
C1152 H1156 0.930 1_554 S
C1153 C1152 1.369 1_565 S
C1153 C1162 1.429 . S
C1154 C1152 1.419 . S
C1154 C1155 1.363 . S
C1154 H1157 0.929 . S
C1155 C1154 1.363 . S
C1155 C1161 1.428 . S
H1156 C1152 0.930 1_556 S
H1157 C1154 0.929 . S
S1158 N1159 1.613 . S
S1158 N1160 1.610 . S
N1159 S1158 1.613 . S
N1159 C1162 1.350 . S
N1160 S1158 1.610 . S
N1160 C1161 1.351 1_565 S
C1161 C1155 1.428 . S
C1161 N1160 1.351 1_545 S
C1161 C1162 1.434 1_545 S
C1162 C1153 1.429 . S
C1162 N1159 1.350 . S
C1162 C1161 1.434 1_565 S
C1163 C1164 1.369 . S
C1163 C1165 1.419 . S
C1163 H1167 0.930 . S
C1164 C1163 1.369 . S
C1164 C1173 1.429 . S
C1165 C1163 1.419 . S
C1165 C1166 1.363 . S
C1165 H1168 0.929 . S
C1166 C1165 1.363 . S
C1166 C1172 1.428 . S
H1167 C1163 0.930 . S
H1168 C1165 0.929 . S
S1169 N1170 1.613 . S
S1169 N1171 1.607 1_556 S
N1170 S1169 1.613 . S
N1170 C1173 1.350 . S
N1171 S1169 1.607 1_554 S
N1171 C1172 1.347 1_554 S
C1172 C1166 1.428 . S
C1172 N1171 1.347 1_556 S
C1172 C1173 1.434 . S
C1173 C1164 1.429 . S
C1173 N1170 1.350 . S
C1173 C1172 1.434 . S
C1174 C1175 1.369 . S
C1174 C1176 1.419 . S
C1174 H1178 0.930 . S
C1175 C1174 1.369 . S
C1175 C1184 1.429 . S
C1176 C1174 1.419 . S
C1176 C1177 1.363 . S
C1176 H1179 0.929 . S
C1177 C1176 1.363 . S
C1177 C1183 1.428 . S
H1178 C1174 0.930 . S
H1179 C1176 0.929 . S
S1180 N1181 1.613 . S
S1180 N1182 1.610 . S
N1181 S1180 1.613 . S
N1181 C1184 1.350 . S
N1182 S1180 1.610 . S
N1182 C1183 1.351 . S
C1183 C1177 1.428 . S
C1183 N1182 1.351 . S
C1183 C1184 1.434 . S
C1184 C1175 1.429 . S
C1184 N1181 1.350 . S
C1184 C1183 1.434 . S
C1185 C1186 1.369 . S
C1185 C1187 1.419 . S
C1185 H1189 0.930 . S
C1186 C1185 1.369 . S
C1186 C1195 1.429 . S
C1187 C1185 1.419 . S
C1187 C1188 1.363 . S
C1187 H1190 0.929 . S
C1188 C1187 1.363 . S
C1188 C1194 1.428 . S
H1189 C1185 0.930 . S
H1190 C1187 0.929 . S
S1191 N1192 1.613 . S
S1191 N1193 1.610 1_655 S
N1192 S1191 1.613 . S
N1192 C1195 1.350 . S
N1193 S1191 1.610 1_455 S
N1193 C1194 1.351 1_455 S
C1194 C1188 1.428 . S
C1194 N1193 1.351 1_655 S
C1194 C1195 1.434 . S
C1195 C1186 1.429 . S
C1195 N1192 1.350 . S
C1195 C1194 1.434 . S
C1196 C1197 1.369 . S
C1196 C1198 1.419 . S
C1196 H1200 0.930 . S
C1197 C1196 1.369 . S
C1197 C1206 1.429 . S
C1198 C1196 1.419 . S
C1198 C1199 1.363 . S
C1198 H1201 0.929 . S
C1199 C1198 1.363 . S
C1199 C1205 1.428 . S
H1200 C1196 0.930 . S
H1201 C1198 0.929 . S
S1202 N1203 1.613 1_565 S
S1202 N1204 1.610 1_565 S
N1203 S1202 1.613 1_545 S
N1203 C1206 1.350 . S
N1204 S1202 1.610 1_545 S
N1204 C1205 1.351 . S
C1205 C1199 1.428 . S
C1205 N1204 1.351 . S
C1205 C1206 1.434 . S
C1206 C1197 1.429 . S
C1206 N1203 1.350 . S
C1206 C1205 1.434 . S
C1207 C1208 1.369 . S
C1207 C1209 1.419 . S
C1207 H1211 0.930 . S
C1208 C1207 1.369 . S
C1208 C1217 1.429 . S
C1209 C1207 1.419 . S
C1209 C1210 1.363 . S
C1209 H1212 0.929 . S
C1210 C1209 1.363 . S
C1210 C1216 1.428 . S
H1211 C1207 0.930 . S
H1212 C1209 0.929 . S
S1213 N1214 1.613 . S
S1213 N1215 1.610 . S
N1214 S1213 1.613 . S
N1214 C1217 1.350 . S
N1215 S1213 1.610 . S
N1215 C1216 1.351 . S
C1216 C1210 1.428 . S
C1216 N1215 1.351 . S
C1216 C1217 1.434 . S
C1217 C1208 1.429 . S
C1217 N1214 1.350 . S
C1217 C1216 1.434 . S
C1218 C1219 1.369 . S
C1218 C1220 1.419 . S
C1218 H1222 0.930 . S
C1219 C1218 1.369 . S
C1219 C1228 1.429 . S
C1220 C1218 1.419 . S
C1220 C1221 1.363 . S
C1220 H1223 0.929 . S
C1221 C1220 1.363 . S
C1221 C1227 1.428 . S
H1222 C1218 0.930 . S
H1223 C1220 0.929 . S
S1224 N1225 1.613 . S
S1224 N1226 1.610 . S
N1225 S1224 1.613 . S
N1225 C1228 1.350 . S
N1226 S1224 1.610 . S
N1226 C1227 1.351 . S
C1227 C1221 1.428 . S
C1227 N1226 1.351 . S
C1227 C1228 1.434 . S
C1228 C1219 1.429 . S
C1228 N1225 1.350 . S
C1228 C1227 1.434 . S
C1229 C1230 1.369 . S
C1229 C1231 1.419 . S
C1229 H1233 0.930 . S
C1230 C1229 1.369 . S
C1230 C1239 1.429 . S
C1231 C1229 1.419 . S
C1231 C1232 1.363 . S
C1231 H1234 0.929 . S
C1232 C1231 1.363 . S
C1232 C1238 1.428 . S
H1233 C1229 0.930 . S
H1234 C1231 0.929 . S
S1235 N1236 1.613 . S
S1235 N1237 1.610 . S
N1236 S1235 1.613 . S
N1236 C1239 1.350 . S
N1237 S1235 1.610 . S
N1237 C1238 1.351 . S
C1238 C1232 1.428 . S
C1238 N1237 1.351 . S
C1238 C1239 1.434 . S
C1239 C1230 1.429 . S
C1239 N1236 1.350 . S
C1239 C1238 1.434 . S
C1240 C1241 1.369 . S
C1240 C1242 1.419 . S
C1240 H1244 0.930 . S
C1241 C1240 1.369 . S
C1241 C1250 1.429 . S
C1242 C1240 1.419 . S
C1242 C1243 1.363 . S
C1242 H1245 0.929 . S
C1243 C1242 1.363 . S
C1243 C1249 1.428 . S
H1244 C1240 0.930 . S
H1245 C1242 0.929 . S
S1246 N1247 1.613 . S
S1246 N1248 1.610 . S
N1247 S1246 1.613 . S
N1247 C1250 1.350 . S
N1248 S1246 1.610 . S
N1248 C1249 1.351 . S
C1249 C1243 1.428 . S
C1249 N1248 1.351 . S
C1249 C1250 1.434 . S
C1250 C1241 1.429 . S
C1250 N1247 1.350 . S
C1250 C1249 1.434 . S
C1251 C1252 1.369 . S
C1251 C1253 1.419 . S
C1251 H1255 0.930 . S
C1252 C1251 1.369 . S
C1252 C1261 1.429 . S
C1253 C1251 1.419 . S
C1253 C1254 1.363 . S
C1253 H1256 0.929 . S
C1254 C1253 1.363 . S
C1254 C1260 1.428 . S
H1255 C1251 0.930 . S
H1256 C1253 0.929 . S
S1257 N1258 1.613 . S
S1257 N1259 1.610 . S
N1258 S1257 1.613 . S
N1258 C1261 1.350 . S
N1259 S1257 1.610 . S
N1259 C1260 1.351 . S
C1260 C1254 1.428 . S
C1260 N1259 1.351 . S
C1260 C1261 1.434 . S
C1261 C1252 1.429 . S
C1261 N1258 1.350 . S
C1261 C1260 1.434 . S
C1262 C1263 1.369 . S
C1262 C1264 1.419 . S
C1262 H1266 0.930 . S
C1263 C1262 1.369 . S
C1263 C1272 1.429 . S
C1264 C1262 1.419 . S
C1264 C1265 1.363 . S
C1264 H1267 0.929 . S
C1265 C1264 1.363 . S
C1265 C1271 1.428 . S
H1266 C1262 0.930 . S
H1267 C1264 0.929 . S
S1268 N1269 1.613 . S
S1268 N1270 1.610 . S
N1269 S1268 1.613 . S
N1269 C1272 1.350 . S
N1270 S1268 1.610 . S
N1270 C1271 1.351 . S
C1271 C1265 1.428 . S
C1271 N1270 1.351 . S
C1271 C1272 1.434 . S
C1272 C1263 1.429 . S
C1272 N1269 1.350 . S
C1272 C1271 1.434 . S
C1273 C1274 1.369 . S
C1273 C1275 1.419 . S
C1273 H1277 0.930 . S
C1274 C1273 1.369 . S
C1274 C1283 1.429 . S
C1275 C1273 1.419 . S
C1275 C1276 1.363 . S
C1275 H1278 0.929 . S
C1276 C1275 1.363 . S
C1276 C1282 1.428 . S
H1277 C1273 0.930 . S
H1278 C1275 0.929 . S
S1279 N1280 1.613 . S
S1279 N1281 1.610 . S
N1280 S1279 1.613 . S
N1280 C1283 1.350 . S
N1281 S1279 1.610 . S
N1281 C1282 1.351 . S
C1282 C1276 1.428 . S
C1282 N1281 1.351 . S
C1282 C1283 1.434 . S
C1283 C1274 1.429 . S
C1283 N1280 1.350 . S
C1283 C1282 1.434 . S
C1284 C1285 1.369 . S
C1284 C1286 1.419 . S
C1284 H1288 0.930 . S
C1285 C1284 1.369 . S
C1285 C1294 1.429 . S
C1286 C1284 1.419 . S
C1286 C1287 1.363 . S
C1286 H1289 0.929 . S
C1287 C1286 1.363 . S
C1287 C1293 1.428 . S
H1288 C1284 0.930 . S
H1289 C1286 0.929 . S
S1290 N1291 1.613 . S
S1290 N1292 1.610 . S
N1291 S1290 1.613 . S
N1291 C1294 1.350 . S
N1292 S1290 1.610 . S
N1292 C1293 1.351 . S
C1293 C1287 1.428 . S
C1293 N1292 1.351 . S
C1293 C1294 1.434 . S
C1294 C1285 1.429 . S
C1294 N1291 1.350 . S
C1294 C1293 1.434 . S
C1295 C1296 1.369 . S
C1295 C1297 1.419 . S
C1295 H1299 0.930 . S
C1296 C1295 1.369 . S
C1296 C1305 1.429 . S
C1297 C1295 1.419 . S
C1297 C1298 1.363 . S
C1297 H1300 0.929 . S
C1298 C1297 1.363 . S
C1298 C1304 1.428 . S
H1299 C1295 0.930 . S
H1300 C1297 0.929 . S
S1301 N1302 1.613 . S
S1301 N1303 1.610 . S
N1302 S1301 1.613 . S
N1302 C1305 1.350 . S
N1303 S1301 1.610 . S
N1303 C1304 1.351 . S
C1304 C1298 1.428 . S
C1304 N1303 1.351 . S
C1304 C1305 1.434 . S
C1305 C1296 1.429 . S
C1305 N1302 1.350 . S
C1305 C1304 1.434 . S
C1306 C1307 1.369 . S
C1306 C1308 1.419 . S
C1306 H1310 0.930 . S
C1307 C1306 1.369 . S
C1307 C1316 1.429 . S
C1308 C1306 1.419 . S
C1308 C1309 1.363 . S
C1308 H1311 0.929 1_565 S
C1309 C1308 1.363 . S
C1309 C1315 1.428 . S
H1310 C1306 0.930 . S
H1311 C1308 0.929 1_545 S
S1312 N1313 1.613 . S
S1312 N1314 1.610 . S
N1313 S1312 1.613 . S
N1313 C1316 1.350 . S
N1314 S1312 1.610 . S
N1314 C1315 1.351 . S
C1315 C1309 1.428 . S
C1315 N1314 1.351 . S
C1315 C1316 1.434 . S
C1316 C1307 1.429 . S
C1316 N1313 1.350 . S
C1316 C1315 1.434 . S
C1317 C1318 1.369 . S
C1317 C1319 1.419 . S
C1317 H1321 0.930 . S
C1318 C1317 1.369 . S
C1318 C1327 1.429 . S
C1319 C1317 1.419 . S
C1319 C1320 1.363 . S
C1319 H1322 0.929 . S
C1320 C1319 1.363 . S
C1320 C1326 1.428 . S
H1321 C1317 0.930 . S
H1322 C1319 0.929 . S
S1323 N1324 1.613 . S
S1323 N1325 1.610 . S
N1324 S1323 1.613 . S
N1324 C1327 1.350 . S
N1325 S1323 1.610 . S
N1325 C1326 1.351 . S
C1326 C1320 1.428 . S
C1326 N1325 1.351 . S
C1326 C1327 1.434 . S
C1327 C1318 1.429 . S
C1327 N1324 1.350 . S
C1327 C1326 1.434 . S
C1328 C1329 1.369 . S
C1328 C1330 1.419 . S
C1328 H1332 0.930 . S
C1329 C1328 1.369 . S
C1329 C1338 1.429 . S
C1330 C1328 1.419 . S
C1330 C1331 1.363 . S
C1330 H1333 0.929 . S
C1331 C1330 1.363 . S
C1331 C1337 1.428 . S
H1332 C1328 0.930 . S
H1333 C1330 0.929 . S
S1334 N1335 1.613 . S
S1334 N1336 1.610 . S
N1335 S1334 1.613 . S
N1335 C1338 1.350 . S
N1336 S1334 1.610 . S
N1336 C1337 1.351 . S
C1337 C1331 1.428 . S
C1337 N1336 1.351 . S
C1337 C1338 1.434 . S
C1338 C1329 1.429 . S
C1338 N1335 1.350 . S
C1338 C1337 1.434 . S
C1339 C1340 1.369 . S
C1339 C1341 1.419 . S
C1339 H1343 0.930 . S
C1340 C1339 1.369 . S
C1340 C1349 1.429 . S
C1341 C1339 1.419 . S
C1341 C1342 1.363 . S
C1341 H1344 0.929 . S
C1342 C1341 1.363 . S
C1342 C1348 1.428 . S
H1343 C1339 0.930 . S
H1344 C1341 0.929 . S
S1345 N1346 1.613 . S
S1345 N1347 1.610 . S
N1346 S1345 1.613 . S
N1346 C1349 1.350 . S
N1347 S1345 1.610 . S
N1347 C1348 1.351 . S
C1348 C1342 1.428 . S
C1348 N1347 1.351 . S
C1348 C1349 1.434 . S
C1349 C1340 1.429 . S
C1349 N1346 1.350 . S
C1349 C1348 1.434 . S
C1350 C1351 1.369 . S
C1350 C1352 1.419 . S
C1350 H1354 0.930 . S
C1351 C1350 1.369 . S
C1351 C1360 1.429 . S
C1352 C1350 1.419 . S
C1352 C1353 1.363 . S
C1352 H1355 0.929 . S
C1353 C1352 1.363 . S
C1353 C1359 1.428 . S
H1354 C1350 0.930 . S
H1355 C1352 0.929 . S
S1356 N1357 1.613 1_545 S
S1356 N1358 1.610 . S
N1357 S1356 1.613 1_565 S
N1357 C1360 1.350 1_565 S
N1358 S1356 1.610 . S
N1358 C1359 1.351 . S
C1359 C1353 1.428 . S
C1359 N1358 1.351 . S
C1359 C1360 1.434 . S
C1360 C1351 1.429 . S
C1360 N1357 1.350 1_545 S
C1360 C1359 1.434 . S
C1361 C1362 1.369 . S
C1361 C1363 1.419 . S
C1361 H1365 0.930 . S
C1362 C1361 1.369 . S
C1362 C1371 1.429 . S
C1363 C1361 1.419 . S
C1363 C1364 1.363 . S
C1363 H1366 0.929 . S
C1364 C1363 1.363 . S
C1364 C1370 1.428 . S
H1365 C1361 0.930 . S
H1366 C1363 0.929 . S
S1367 N1368 1.613 . S
S1367 N1369 1.610 . S
N1368 S1367 1.613 . S
N1368 C1371 1.350 . S
N1369 S1367 1.610 . S
N1369 C1370 1.351 . S
C1370 C1364 1.428 . S
C1370 N1369 1.351 . S
C1370 C1371 1.434 . S
C1371 C1362 1.429 . S
C1371 N1368 1.350 . S
C1371 C1370 1.434 . S
C1372 C1373 1.369 1_565 S
C1372 C1374 1.408 1_565 S
C1372 H1376 0.930 . S
C1373 C1372 1.369 1_545 S
C1373 C1382 1.429 . S
C1374 C1372 1.408 1_545 S
C1374 C1375 1.382 . S
C1374 H1377 0.921 1_545 S
C1375 C1374 1.382 . S
C1375 C1381 1.428 . S
H1376 C1372 0.930 . S
H1377 C1374 0.921 1_565 S
S1378 N1379 1.613 . S
S1378 N1380 1.610 . S
N1379 S1378 1.613 . S
N1379 C1382 1.350 . S
N1380 S1378 1.610 . S
N1380 C1381 1.351 . S
C1381 C1375 1.428 . S
C1381 N1380 1.351 . S
C1381 C1382 1.434 . S
C1382 C1373 1.429 . S
C1382 N1379 1.350 . S
C1382 C1381 1.434 . S
C1383 C1384 1.369 . S
C1383 C1385 1.419 . S
C1383 H1387 0.930 . S
C1384 C1383 1.369 . S
C1384 C1393 1.429 . S
C1385 C1383 1.419 . S
C1385 C1386 1.363 . S
C1385 H1388 0.929 . S
C1386 C1385 1.363 . S
C1386 C1392 1.428 . S
H1387 C1383 0.930 . S
H1388 C1385 0.929 . S
S1389 N1390 1.613 . S
S1389 N1391 1.610 . S
N1390 S1389 1.613 . S
N1390 C1393 1.350 . S
N1391 S1389 1.610 . S
N1391 C1392 1.351 . S
C1392 C1386 1.428 . S
C1392 N1391 1.351 . S
C1392 C1393 1.434 . S
C1393 C1384 1.429 . S
C1393 N1390 1.350 . S
C1393 C1392 1.434 . S
C1394 C1395 1.369 1_545 S
C1394 C1396 1.419 . S
C1394 H1398 0.930 . S
C1395 C1394 1.369 1_565 S
C1395 C1404 1.429 . S
C1396 C1394 1.419 . S
C1396 C1397 1.363 1_545 S
C1396 H1399 0.929 . S
C1397 C1396 1.363 1_565 S
C1397 C1403 1.428 . S
H1398 C1394 0.930 . S
H1399 C1396 0.929 . S
S1400 N1401 1.613 . S
S1400 N1402 1.610 . S
N1401 S1400 1.613 . S
N1401 C1404 1.350 . S
N1402 S1400 1.610 . S
N1402 C1403 1.351 . S
C1403 C1397 1.428 . S
C1403 N1402 1.351 . S
C1403 C1404 1.434 . S
C1404 C1395 1.429 . S
C1404 N1401 1.350 . S
C1404 C1403 1.434 . S
C1405 C1406 1.369 . S
C1405 C1407 1.419 . S
C1405 H1409 0.930 . S
C1406 C1405 1.369 . S
C1406 C1415 1.429 . S
C1407 C1405 1.419 . S
C1407 C1408 1.363 . S
C1407 H1410 0.929 . S
C1408 C1407 1.363 . S
C1408 C1414 1.428 . S
H1409 C1405 0.930 . S
H1410 C1407 0.929 . S
S1411 N1412 1.613 . S
S1411 N1413 1.610 . S
N1412 S1411 1.613 . S
N1412 C1415 1.350 . S
N1413 S1411 1.610 . S
N1413 C1414 1.351 . S
C1414 C1408 1.428 . S
C1414 N1413 1.351 . S
C1414 C1415 1.434 . S
C1415 C1406 1.429 . S
C1415 N1412 1.350 . S
C1415 C1414 1.434 . S
C1416 C1417 1.369 1_556 S
C1416 C1418 1.419 . S
C1416 H1420 0.930 . S
C1417 C1416 1.369 1_554 S
C1417 C1426 1.429 . S
C1418 C1416 1.419 . S
C1418 C1419 1.363 . S
C1418 H1421 0.929 . S
C1419 C1418 1.363 . S
C1419 C1425 1.428 1_556 S
H1420 C1416 0.930 . S
H1421 C1418 0.929 . S
S1422 N1423 1.613 . S
S1422 N1424 1.610 . S
N1423 S1422 1.613 . S
N1423 C1426 1.350 . S
N1424 S1422 1.610 . S
N1424 C1425 1.351 . S
C1425 C1419 1.428 1_554 S
C1425 N1424 1.351 . S
C1425 C1426 1.434 . S
C1426 C1417 1.429 . S
C1426 N1423 1.350 . S
C1426 C1425 1.434 . S
C1427 C1428 1.369 . S
C1427 C1429 1.419 . S
C1427 H1431 0.930 . S
C1428 C1427 1.369 . S
C1428 C1437 1.429 . S
C1429 C1427 1.419 . S
C1429 C1430 1.363 . S
C1429 H1432 0.929 . S
C1430 C1429 1.363 . S
C1430 C1436 1.428 . S
H1431 C1427 0.930 . S
H1432 C1429 0.929 . S
S1433 N1434 1.613 . S
S1433 N1435 1.610 . S
N1434 S1433 1.613 . S
N1434 C1437 1.350 . S
N1435 S1433 1.610 . S
N1435 C1436 1.351 . S
C1436 C1430 1.428 . S
C1436 N1435 1.351 . S
C1436 C1437 1.434 . S
C1437 C1428 1.429 . S
C1437 N1434 1.350 . S
C1437 C1436 1.434 . S
C1438 C1439 1.369 . S
C1438 C1440 1.419 . S
C1438 H1442 0.930 . S
C1439 C1438 1.369 . S
C1439 C1448 1.429 . S
C1440 C1438 1.419 . S
C1440 C1441 1.363 . S
C1440 H1443 0.929 . S
C1441 C1440 1.363 . S
C1441 C1447 1.428 . S
H1442 C1438 0.930 . S
H1443 C1440 0.929 . S
S1444 N1445 1.613 . S
S1444 N1446 1.610 . S
N1445 S1444 1.613 . S
N1445 C1448 1.350 . S
N1446 S1444 1.610 . S
N1446 C1447 1.351 . S
C1447 C1441 1.428 . S
C1447 N1446 1.351 . S
C1447 C1448 1.434 . S
C1448 C1439 1.429 . S
C1448 N1445 1.350 . S
C1448 C1447 1.434 . S
C1449 C1450 1.369 . S
C1449 C1451 1.419 . S
C1449 H1453 0.930 . S
C1450 C1449 1.369 . S
C1450 C1459 1.429 . S
C1451 C1449 1.419 . S
C1451 C1452 1.363 . S
C1451 H1454 0.929 . S
C1452 C1451 1.363 . S
C1452 C1458 1.428 . S
H1453 C1449 0.930 . S
H1454 C1451 0.929 . S
S1455 N1456 1.613 . S
S1455 N1457 1.610 . S
N1456 S1455 1.613 . S
N1456 C1459 1.350 . S
N1457 S1455 1.610 . S
N1457 C1458 1.351 . S
C1458 C1452 1.428 . S
C1458 N1457 1.351 . S
C1458 C1459 1.434 . S
C1459 C1450 1.429 . S
C1459 N1456 1.350 . S
C1459 C1458 1.434 . S
C1460 C1461 1.369 . S
C1460 C1462 1.419 . S
C1460 H1464 0.930 . S
C1461 C1460 1.369 . S
C1461 C1470 1.424 1_545 S
C1462 C1460 1.419 . S
C1462 C1463 1.363 . S
C1462 H1465 0.929 . S
C1463 C1462 1.363 . S
C1463 C1469 1.428 1_545 S
H1464 C1460 0.930 . S
H1465 C1462 0.929 . S
S1466 N1467 1.613 . S
S1466 N1468 1.610 . S
N1467 S1466 1.613 . S
N1467 C1470 1.350 . S
N1468 S1466 1.610 . S
N1468 C1469 1.351 . S
C1469 C1463 1.428 1_565 S
C1469 N1468 1.351 . S
C1469 C1470 1.439 . S
C1470 C1461 1.424 1_565 S
C1470 N1467 1.350 . S
C1470 C1469 1.439 . S
C1471 C1472 1.369 . S
C1471 C1473 1.419 . S
C1471 H1475 0.930 . S
C1472 C1471 1.369 . S
C1472 C1481 1.429 . S
C1473 C1471 1.419 . S
C1473 C1474 1.363 . S
C1473 H1476 0.929 . S
C1474 C1473 1.363 . S
C1474 C1480 1.428 . S
H1475 C1471 0.930 . S
H1476 C1473 0.929 . S
S1477 N1478 1.613 1_545 S
S1477 N1479 1.610 1_545 S
N1478 S1477 1.613 1_565 S
N1478 C1481 1.350 . S
N1479 S1477 1.610 1_565 S
N1479 C1480 1.351 . S
C1480 C1474 1.428 . S
C1480 N1479 1.351 . S
C1480 C1481 1.434 . S
C1481 C1472 1.429 . S
C1481 N1478 1.350 . S
C1481 C1480 1.434 . S
C1482 C1483 1.369 . S
C1482 C1484 1.419 . S
C1482 H1486 0.930 . S
C1483 C1482 1.369 . S
C1483 C1492 1.429 . S
C1484 C1482 1.419 . S
C1484 C1485 1.363 . S
C1484 H1487 0.929 . S
C1485 C1484 1.363 . S
C1485 C1491 1.428 . S
H1486 C1482 0.930 . S
H1487 C1484 0.929 . S
S1488 N1489 1.613 . S
S1488 N1490 1.610 . S
N1489 S1488 1.613 . S
N1489 C1492 1.350 . S
N1490 S1488 1.610 . S
N1490 C1491 1.351 . S
C1491 C1485 1.428 . S
C1491 N1490 1.351 . S
C1491 C1492 1.434 . S
C1492 C1483 1.429 . S
C1492 N1489 1.350 . S
C1492 C1491 1.434 . S
C1493 C1494 1.369 . S
C1493 C1495 1.419 . S
C1493 H1497 0.930 . S
C1494 C1493 1.369 . S
C1494 C1503 1.429 . S
C1495 C1493 1.419 . S
C1495 C1496 1.363 . S
C1495 H1498 0.929 . S
C1496 C1495 1.363 . S
C1496 C1502 1.428 . S
H1497 C1493 0.930 . S
H1498 C1495 0.929 . S
S1499 N1500 1.613 . S
S1499 N1501 1.610 . S
N1500 S1499 1.613 . S
N1500 C1503 1.350 . S
N1501 S1499 1.610 . S
N1501 C1502 1.351 . S
C1502 C1496 1.428 . S
C1502 N1501 1.351 . S
C1502 C1503 1.434 . S
C1503 C1494 1.429 . S
C1503 N1500 1.350 . S
C1503 C1502 1.434 . S
C1504 C1505 1.369 . S
C1504 C1506 1.419 . S
C1504 H1508 0.930 . S
C1505 C1504 1.369 . S
C1505 C1514 1.429 . S
C1506 C1504 1.419 . S
C1506 C1507 1.363 . S
C1506 H1509 0.929 . S
C1507 C1506 1.363 . S
C1507 C1513 1.428 . S
H1508 C1504 0.930 . S
H1509 C1506 0.929 . S
S1510 N1511 1.613 . S
S1510 N1512 1.610 . S
N1511 S1510 1.613 . S
N1511 C1514 1.350 . S
N1512 S1510 1.610 . S
N1512 C1513 1.351 . S
C1513 C1507 1.428 . S
C1513 N1512 1.351 . S
C1513 C1514 1.434 . S
C1514 C1505 1.429 . S
C1514 N1511 1.350 . S
C1514 C1513 1.434 . S
C1515 C1516 1.369 . S
C1515 C1517 1.419 . S
C1515 H1519 0.930 . S
C1516 C1515 1.369 . S
C1516 C1525 1.429 . S
C1517 C1515 1.419 . S
C1517 C1518 1.363 . S
C1517 H1520 0.929 . S
C1518 C1517 1.363 . S
C1518 C1524 1.428 . S
H1519 C1515 0.930 . S
H1520 C1517 0.929 . S
S1521 N1522 1.613 . S
S1521 N1523 1.610 . S
N1522 S1521 1.613 . S
N1522 C1525 1.350 . S
N1523 S1521 1.610 . S
N1523 C1524 1.351 . S
C1524 C1518 1.428 . S
C1524 N1523 1.351 . S
C1524 C1525 1.434 . S
C1525 C1516 1.429 . S
C1525 N1522 1.350 . S
C1525 C1524 1.434 . S
C1526 C1527 1.369 . S
C1526 C1528 1.419 . S
C1526 H1530 0.930 . S
C1527 C1526 1.369 . S
C1527 C1536 1.429 1_556 S
C1528 C1526 1.419 . S
C1528 C1529 1.363 . S
C1528 H1531 0.929 . S
C1529 C1528 1.363 . S
C1529 C1535 1.428 1_556 S
H1530 C1526 0.930 . S
H1531 C1528 0.929 . S
S1532 N1533 1.613 . S
S1532 N1534 1.610 . S
N1533 S1532 1.613 . S
N1533 C1536 1.350 . S
N1534 S1532 1.610 . S
N1534 C1535 1.351 . S
C1535 C1529 1.428 1_554 S
C1535 N1534 1.351 . S
C1535 C1536 1.434 . S
C1536 C1527 1.429 1_554 S
C1536 N1533 1.350 . S
C1536 C1535 1.434 . S
C1537 C1538 1.369 . S
C1537 C1539 1.419 1_455 S
C1537 H1541 0.930 . S
C1538 C1537 1.369 . S
C1538 C1547 1.429 . S
C1539 C1537 1.419 1_655 S
C1539 C1540 1.363 . S
C1539 H1542 0.929 . S
C1540 C1539 1.363 . S
C1540 C1546 1.428 1_655 S
H1541 C1537 0.930 . S
H1542 C1539 0.929 . S
S1543 N1544 1.613 . S
S1543 N1545 1.610 1_455 S
N1544 S1543 1.613 . S
N1544 C1547 1.350 . S
N1545 S1543 1.610 1_655 S
N1545 C1546 1.351 1_655 S
C1546 C1540 1.428 1_455 S
C1546 N1545 1.351 1_455 S
C1546 C1547 1.434 . S
C1547 C1538 1.429 . S
C1547 N1544 1.350 . S
C1547 C1546 1.434 . S
C1548 C1549 1.369 . S
C1548 C1550 1.419 . S
C1548 H1552 0.930 . S
C1549 C1548 1.369 . S
C1549 C1558 1.429 . S
C1550 C1548 1.419 . S
C1550 C1551 1.363 . S
C1550 H1553 0.929 . S
C1551 C1550 1.363 . S
C1551 C1557 1.428 . S
H1552 C1548 0.930 . S
H1553 C1550 0.929 . S
S1554 N1555 1.613 . S
S1554 N1556 1.610 . S
N1555 S1554 1.613 . S
N1555 C1558 1.350 . S
N1556 S1554 1.610 . S
N1556 C1557 1.351 . S
C1557 C1551 1.428 . S
C1557 N1556 1.351 . S
C1557 C1558 1.434 . S
C1558 C1549 1.429 . S
C1558 N1555 1.350 . S
C1558 C1557 1.434 . S
C1559 C1560 1.369 . S
C1559 C1561 1.419 . S
C1559 H1563 0.930 . S
C1560 C1559 1.369 . S
C1560 C1569 1.429 . S
C1561 C1559 1.419 . S
C1561 C1562 1.363 . S
C1561 H1564 0.929 . S
C1562 C1561 1.363 . S
C1562 C1568 1.428 . S
H1563 C1559 0.930 . S
H1564 C1561 0.929 . S
S1565 N1566 1.613 . S
S1565 N1567 1.610 . S
N1566 S1565 1.613 . S
N1566 C1569 1.350 . S
N1567 S1565 1.610 . S
N1567 C1568 1.351 . S
C1568 C1562 1.428 . S
C1568 N1567 1.351 . S
C1568 C1569 1.434 . S
C1569 C1560 1.429 . S
C1569 N1566 1.350 . S
C1569 C1568 1.434 . S
C1570 C1571 1.369 . S
C1570 C1572 1.419 1_655 S
C1570 H1574 0.930 . S
C1571 C1570 1.369 . S
C1571 C1580 1.429 1_655 S
C1572 C1570 1.419 1_455 S
C1572 C1573 1.363 . S
C1572 H1575 0.929 . S
C1573 C1572 1.363 . S
C1573 C1579 1.428 . S
H1574 C1570 0.930 . S
H1575 C1572 0.929 . S
S1576 N1577 1.613 . S
S1576 N1578 1.610 . S
N1577 S1576 1.613 . S
N1577 C1580 1.350 . S
N1578 S1576 1.610 . S
N1578 C1579 1.351 . S
C1579 C1573 1.428 . S
C1579 N1578 1.351 . S
C1579 C1580 1.434 . S
C1580 C1571 1.429 1_455 S
C1580 N1577 1.350 . S
C1580 C1579 1.434 . S
C1581 C1582 1.369 . S
C1581 C1583 1.419 . S
C1581 H1585 0.930 . S
C1582 C1581 1.369 . S
C1582 C1591 1.429 . S
C1583 C1581 1.419 . S
C1583 C1584 1.363 . S
C1583 H1586 0.929 . S
C1584 C1583 1.363 . S
C1584 C1590 1.428 . S
H1585 C1581 0.930 . S
H1586 C1583 0.929 . S
S1587 N1588 1.613 . S
S1587 N1589 1.610 . S
N1588 S1587 1.613 . S
N1588 C1591 1.350 . S
N1589 S1587 1.610 . S
N1589 C1590 1.351 . S
C1590 C1584 1.428 . S
C1590 N1589 1.351 . S
C1590 C1591 1.434 . S
C1591 C1582 1.429 . S
C1591 N1588 1.350 . S
C1591 C1590 1.434 . S
C1592 C1593 1.369 . S
C1592 C1594 1.419 . S
C1592 H1596 0.930 . S
C1593 C1592 1.369 . S
C1593 C1602 1.429 . S
C1594 C1592 1.419 . S
C1594 C1595 1.363 . S
C1594 H1597 0.929 . S
C1595 C1594 1.363 . S
C1595 C1601 1.428 . S
H1596 C1592 0.930 . S
H1597 C1594 0.929 . S
S1598 N1599 1.613 . S
S1598 N1600 1.610 . S
N1599 S1598 1.613 . S
N1599 C1602 1.350 . S
N1600 S1598 1.610 . S
N1600 C1601 1.351 . S
C1601 C1595 1.428 . S
C1601 N1600 1.351 . S
C1601 C1602 1.434 . S
C1602 C1593 1.429 . S
C1602 N1599 1.350 . S
C1602 C1601 1.434 . S
C1603 C1604 1.369 . S
C1603 C1605 1.419 . S
C1603 H1607 0.930 . S
C1604 C1603 1.369 . S
C1604 C1613 1.429 . S
C1605 C1603 1.419 . S
C1605 C1606 1.363 . S
C1605 H1608 0.929 . S
C1606 C1605 1.363 . S
C1606 C1612 1.428 . S
H1607 C1603 0.930 . S
H1608 C1605 0.929 . S
S1609 N1610 1.613 . S
S1609 N1611 1.610 . S
N1610 S1609 1.613 . S
N1610 C1613 1.350 . S
N1611 S1609 1.610 . S
N1611 C1612 1.351 . S
C1612 C1606 1.428 . S
C1612 N1611 1.351 . S
C1612 C1613 1.434 . S
C1613 C1604 1.429 . S
C1613 N1610 1.350 . S
C1613 C1612 1.434 . S
C1614 C1615 1.369 . S
C1614 C1616 1.419 . S
C1614 H1618 0.930 . S
C1615 C1614 1.369 . S
C1615 C1624 1.429 . S
C1616 C1614 1.419 . S
C1616 C1617 1.363 . S
C1616 H1619 0.929 . S
C1617 C1616 1.363 . S
C1617 C1623 1.428 . S
H1618 C1614 0.930 . S
H1619 C1616 0.929 . S
S1620 N1621 1.613 . S
S1620 N1622 1.610 . S
N1621 S1620 1.613 . S
N1621 C1624 1.350 . S
N1622 S1620 1.610 . S
N1622 C1623 1.351 . S
C1623 C1617 1.428 . S
C1623 N1622 1.351 . S
C1623 C1624 1.434 . S
C1624 C1615 1.429 . S
C1624 N1621 1.350 . S
C1624 C1623 1.434 . S
C1625 C1626 1.369 . S
C1625 C1627 1.419 . S
C1625 H1629 0.930 . S
C1626 C1625 1.369 . S
C1626 C1635 1.429 . S
C1627 C1625 1.419 . S
C1627 C1628 1.363 . S
C1627 H1630 0.929 . S
C1628 C1627 1.363 . S
C1628 C1634 1.428 . S
H1629 C1625 0.930 . S
H1630 C1627 0.929 . S
S1631 N1632 1.613 . S
S1631 N1633 1.610 . S
N1632 S1631 1.613 . S
N1632 C1635 1.350 . S
N1633 S1631 1.610 . S
N1633 C1634 1.351 . S
C1634 C1628 1.428 . S
C1634 N1633 1.351 . S
C1634 C1635 1.434 . S
C1635 C1626 1.429 . S
C1635 N1632 1.350 . S
C1635 C1634 1.434 . S
C1636 C1637 1.369 . S
C1636 C1638 1.419 . S
C1636 H1640 0.930 . S
C1637 C1636 1.369 . S
C1637 C1646 1.429 . S
C1638 C1636 1.419 . S
C1638 C1639 1.363 . S
C1638 H1641 0.929 . S
C1639 C1638 1.363 . S
C1639 C1645 1.428 . S
H1640 C1636 0.930 . S
H1641 C1638 0.929 . S
S1642 N1643 1.613 . S
S1642 N1644 1.610 . S
N1643 S1642 1.613 . S
N1643 C1646 1.350 . S
N1644 S1642 1.610 . S
N1644 C1645 1.351 . S
C1645 C1639 1.428 . S
C1645 N1644 1.351 . S
C1645 C1646 1.434 . S
C1646 C1637 1.429 . S
C1646 N1643 1.350 . S
C1646 C1645 1.434 . S
C1647 C1648 1.369 . S
C1647 C1649 1.419 . S
C1647 H1651 0.930 . S
C1648 C1647 1.369 . S
C1648 C1657 1.429 . S
C1649 C1647 1.419 . S
C1649 C1650 1.363 . S
C1649 H1652 0.929 . S
C1650 C1649 1.363 . S
C1650 C1656 1.428 . S
H1651 C1647 0.930 . S
H1652 C1649 0.929 . S
S1653 N1654 1.613 . S
S1653 N1655 1.610 . S
N1654 S1653 1.613 . S
N1654 C1657 1.350 . S
N1655 S1653 1.610 . S
N1655 C1656 1.351 . S
C1656 C1650 1.428 . S
C1656 N1655 1.351 . S
C1656 C1657 1.434 . S
C1657 C1648 1.429 . S
C1657 N1654 1.350 . S
C1657 C1656 1.434 . S
C1658 C1659 1.369 . S
C1658 C1660 1.419 . S
C1658 H1662 0.930 . S
C1659 C1658 1.369 . S
C1659 C1668 1.429 . S
C1660 C1658 1.419 . S
C1660 C1661 1.363 . S
C1660 H1663 0.929 . S
C1661 C1660 1.363 . S
C1661 C1667 1.428 . S
H1662 C1658 0.930 . S
H1663 C1660 0.929 . S
S1664 N1665 1.613 . S
S1664 N1666 1.610 . S
N1665 S1664 1.613 . S
N1665 C1668 1.350 . S
N1666 S1664 1.610 . S
N1666 C1667 1.351 . S
C1667 C1661 1.428 . S
C1667 N1666 1.351 . S
C1667 C1668 1.434 . S
C1668 C1659 1.429 . S
C1668 N1665 1.350 . S
C1668 C1667 1.434 . S
C1669 C1670 1.369 . S
C1669 C1671 1.419 . S
C1669 H1673 0.930 . S
C1670 C1669 1.369 . S
C1670 C1679 1.429 . S
C1671 C1669 1.419 . S
C1671 C1672 1.363 . S
C1671 H1674 0.929 . S
C1672 C1671 1.363 . S
C1672 C1678 1.428 . S
H1673 C1669 0.930 . S
H1674 C1671 0.929 . S
S1675 N1676 1.613 . S
S1675 N1677 1.610 . S
N1676 S1675 1.613 . S
N1676 C1679 1.350 . S
N1677 S1675 1.610 . S
N1677 C1678 1.351 . S
C1678 C1672 1.428 . S
C1678 N1677 1.351 . S
C1678 C1679 1.434 . S
C1679 C1670 1.429 . S
C1679 N1676 1.350 . S
C1679 C1678 1.434 . S
C1680 C1681 1.369 . S
C1680 C1682 1.419 . S
C1680 H1684 0.930 . S
C1681 C1680 1.369 . S
C1681 C1690 1.429 . S
C1682 C1680 1.419 . S
C1682 C1683 1.363 . S
C1682 H1685 0.929 . S
C1683 C1682 1.363 . S
C1683 C1689 1.428 . S
H1684 C1680 0.930 . S
H1685 C1682 0.929 . S
S1686 N1687 1.613 . S
S1686 N1688 1.610 . S
N1687 S1686 1.613 . S
N1687 C1690 1.350 . S
N1688 S1686 1.610 . S
N1688 C1689 1.351 . S
C1689 C1683 1.428 . S
C1689 N1688 1.351 . S
C1689 C1690 1.434 . S
C1690 C1681 1.429 . S
C1690 N1687 1.350 . S
C1690 C1689 1.434 . S
C1691 C1692 1.369 . S
C1691 C1693 1.419 . S
C1691 H1695 0.930 . S
C1692 C1691 1.369 . S
C1692 C1701 1.429 . S
C1693 C1691 1.419 . S
C1693 C1694 1.363 . S
C1693 H1696 0.929 . S
C1694 C1693 1.363 . S
C1694 C1700 1.428 . S
H1695 C1691 0.930 . S
H1696 C1693 0.929 . S
S1697 N1698 1.613 . S
S1697 N1699 1.610 . S
N1698 S1697 1.613 . S
N1698 C1701 1.350 . S
N1699 S1697 1.610 . S
N1699 C1700 1.351 . S
C1700 C1694 1.428 . S
C1700 N1699 1.351 . S
C1700 C1701 1.434 . S
C1701 C1692 1.429 . S
C1701 N1698 1.350 . S
C1701 C1700 1.434 . S
C1702 C1703 1.369 . S
C1702 C1704 1.419 . S
C1702 H1706 0.930 . S
C1703 C1702 1.369 . S
C1703 C1712 1.429 . S
C1704 C1702 1.419 . S
C1704 C1705 1.363 . S
C1704 H1707 0.929 . S
C1705 C1704 1.363 . S
C1705 C1711 1.428 . S
H1706 C1702 0.930 . S
H1707 C1704 0.929 . S
S1708 N1709 1.613 . S
S1708 N1710 1.610 . S
N1709 S1708 1.613 . S
N1709 C1712 1.350 . S
N1710 S1708 1.610 . S
N1710 C1711 1.351 . S
C1711 C1705 1.428 . S
C1711 N1710 1.351 . S
C1711 C1712 1.434 . S
C1712 C1703 1.429 . S
C1712 N1709 1.350 . S
C1712 C1711 1.434 . S
C1713 C1714 1.369 1_545 S
C1713 C1715 1.419 . S
C1713 H1717 0.936 . S
C1714 C1713 1.369 1_565 S
C1714 C1723 1.429 1_554 S
C1715 C1713 1.419 . S
C1715 C1716 1.363 . S
C1715 H1718 0.929 . S
C1716 C1715 1.363 . S
C1716 C1722 1.428 1_554 S
H1717 C1713 0.936 . S
H1718 C1715 0.929 . S
S1719 N1720 1.613 . S
S1719 N1721 1.610 1_565 S
N1720 S1719 1.613 . S
N1720 C1723 1.350 . S
N1721 S1719 1.610 1_545 S
N1721 C1722 1.351 . S
C1722 C1716 1.428 1_556 S
C1722 N1721 1.351 . S
C1722 C1723 1.434 1_545 S
C1723 C1714 1.429 1_556 S
C1723 N1720 1.350 . S
C1723 C1722 1.434 1_565 S
C1724 C1725 1.369 . S
C1724 C1726 1.419 . S
C1724 H1728 0.930 . S
C1725 C1724 1.369 . S
C1725 C1734 1.429 . S
C1726 C1724 1.419 . S
C1726 C1727 1.363 . S
C1726 H1729 0.929 . S
C1727 C1726 1.363 . S
C1727 C1733 1.428 . S
H1728 C1724 0.930 . S
H1729 C1726 0.929 . S
S1730 N1731 1.613 . S
S1730 N1732 1.610 . S
N1731 S1730 1.613 . S
N1731 C1734 1.350 . S
N1732 S1730 1.610 . S
N1732 C1733 1.351 . S
C1733 C1727 1.428 . S
C1733 N1732 1.351 . S
C1733 C1734 1.434 . S
C1734 C1725 1.429 . S
C1734 N1731 1.350 . S
C1734 C1733 1.434 . S
C1735 C1736 1.369 . S
C1735 C1737 1.419 . S
C1735 H1739 0.930 . S
C1736 C1735 1.369 . S
C1736 C1745 1.429 . S
C1737 C1735 1.419 . S
C1737 C1738 1.363 . S
C1737 H1740 0.929 . S
C1738 C1737 1.363 . S
C1738 C1744 1.428 . S
H1739 C1735 0.930 . S
H1740 C1737 0.929 . S
S1741 N1742 1.615 . S
S1741 N1743 1.610 . S
N1742 S1741 1.615 . S
N1742 C1745 1.351 . S
N1743 S1741 1.610 . S
N1743 C1744 1.351 . S
C1744 C1738 1.428 . S
C1744 N1743 1.351 . S
C1744 C1745 1.434 . S
C1745 C1736 1.429 . S
C1745 N1742 1.351 . S
C1745 C1744 1.434 . S
C1746 C1747 1.369 . S
C1746 C1748 1.419 . S
C1746 H1750 0.930 . S
C1747 C1746 1.369 . S
C1747 C1756 1.429 . S
C1748 C1746 1.419 . S
C1748 C1749 1.363 . S
C1748 H1751 0.929 . S
C1749 C1748 1.363 . S
C1749 C1755 1.428 . S
H1750 C1746 0.930 . S
H1751 C1748 0.929 . S
S1752 N1753 1.613 . S
S1752 N1754 1.610 . S
N1753 S1752 1.613 . S
N1753 C1756 1.350 . S
N1754 S1752 1.610 . S
N1754 C1755 1.351 . S
C1755 C1749 1.428 . S
C1755 N1754 1.351 . S
C1755 C1756 1.434 . S
C1756 C1747 1.429 . S
C1756 N1753 1.350 . S
C1756 C1755 1.434 . S
C1757 C1758 1.369 . S
C1757 C1759 1.419 . S
C1757 H1761 0.930 . S
C1758 C1757 1.369 . S
C1758 C1767 1.429 . S
C1759 C1757 1.419 . S
C1759 C1760 1.363 . S
C1759 H1762 0.929 . S
C1760 C1759 1.363 . S
C1760 C1766 1.428 . S
H1761 C1757 0.930 . S
H1762 C1759 0.929 . S
S1763 N1764 1.613 . S
S1763 N1765 1.610 . S
N1764 S1763 1.613 . S
N1764 C1767 1.350 . S
N1765 S1763 1.610 . S
N1765 C1766 1.351 . S
C1766 C1760 1.428 . S
C1766 N1765 1.351 . S
C1766 C1767 1.434 . S
C1767 C1758 1.429 . S
C1767 N1764 1.350 . S
C1767 C1766 1.434 . S
C1768 C1769 1.369 . S
C1768 C1770 1.419 . S
C1768 H1772 0.930 . S
C1769 C1768 1.369 . S
C1769 C1778 1.429 . S
C1770 C1768 1.419 . S
C1770 C1771 1.363 . S
C1770 H1773 0.929 . S
C1771 C1770 1.363 . S
C1771 C1777 1.428 . S
H1772 C1768 0.930 . S
H1773 C1770 0.929 . S
S1774 N1775 1.613 . S
S1774 N1776 1.610 . S
N1775 S1774 1.613 . S
N1775 C1778 1.350 . S
N1776 S1774 1.610 . S
N1776 C1777 1.351 . S
C1777 C1771 1.428 . S
C1777 N1776 1.351 . S
C1777 C1778 1.434 . S
C1778 C1769 1.429 . S
C1778 N1775 1.350 . S
C1778 C1777 1.434 . S
C1779 C1780 1.369 . S
C1779 C1781 1.419 . S
C1779 H1783 0.930 . S
C1780 C1779 1.369 . S
C1780 C1789 1.429 . S
C1781 C1779 1.419 . S
C1781 C1782 1.363 . S
C1781 H1784 0.929 . S
C1782 C1781 1.363 . S
C1782 C1788 1.428 . S
H1783 C1779 0.930 . S
H1784 C1781 0.929 . S
S1785 N1786 1.613 . S
S1785 N1787 1.610 . S
N1786 S1785 1.613 . S
N1786 C1789 1.350 . S
N1787 S1785 1.610 . S
N1787 C1788 1.351 . S
C1788 C1782 1.428 . S
C1788 N1787 1.351 . S
C1788 C1789 1.434 . S
C1789 C1780 1.429 . S
C1789 N1786 1.350 . S
C1789 C1788 1.434 . S
C1790 C1791 1.369 . S
C1790 C1792 1.419 . S
C1790 H1794 0.930 . S
C1791 C1790 1.369 . S
C1791 C1800 1.429 . S
C1792 C1790 1.419 . S
C1792 C1793 1.363 . S
C1792 H1795 0.929 . S
C1793 C1792 1.363 . S
C1793 C1799 1.428 . S
H1794 C1790 0.930 . S
H1795 C1792 0.929 . S
S1796 N1797 1.613 . S
S1796 N1798 1.610 . S
N1797 S1796 1.613 . S
N1797 C1800 1.350 . S
N1798 S1796 1.610 . S
N1798 C1799 1.351 . S
C1799 C1793 1.428 . S
C1799 N1798 1.351 . S
C1799 C1800 1.434 . S
C1800 C1791 1.429 . S
C1800 N1797 1.350 . S
C1800 C1799 1.434 . S
C1801 C1802 1.369 . S
C1801 C1803 1.419 . S
C1801 H1805 0.930 . S
C1802 C1801 1.369 . S
C1802 C1811 1.429 . S
C1803 C1801 1.419 . S
C1803 C1804 1.363 . S
C1803 H1806 0.929 . S
C1804 C1803 1.363 . S
C1804 C1810 1.428 . S
H1805 C1801 0.930 . S
H1806 C1803 0.929 . S
S1807 N1808 1.613 . S
S1807 N1809 1.610 . S
N1808 S1807 1.613 . S
N1808 C1811 1.350 . S
N1809 S1807 1.610 . S
N1809 C1810 1.351 . S
C1810 C1804 1.428 . S
C1810 N1809 1.351 . S
C1810 C1811 1.434 . S
C1811 C1802 1.429 . S
C1811 N1808 1.350 . S
C1811 C1810 1.434 . S
C1812 C1813 1.369 . S
C1812 C1814 1.419 . S
C1812 H1816 0.930 . S
C1813 C1812 1.369 . S
C1813 C1822 1.429 . S
C1814 C1812 1.419 . S
C1814 C1815 1.363 . S
C1814 H1817 0.929 . S
C1815 C1814 1.363 . S
C1815 C1821 1.428 . S
H1816 C1812 0.930 . S
H1817 C1814 0.929 . S
S1818 N1819 1.613 . S
S1818 N1820 1.610 . S
N1819 S1818 1.613 . S
N1819 C1822 1.350 . S
N1820 S1818 1.610 . S
N1820 C1821 1.351 . S
C1821 C1815 1.428 . S
C1821 N1820 1.351 . S
C1821 C1822 1.434 . S
C1822 C1813 1.429 . S
C1822 N1819 1.350 . S
C1822 C1821 1.434 . S
C1823 C1824 1.369 . S
C1823 C1825 1.419 . S
C1823 H1827 0.930 . S
C1824 C1823 1.369 . S
C1824 C1833 1.429 . S
C1825 C1823 1.419 . S
C1825 C1826 1.363 . S
C1825 H1828 0.929 . S
C1826 C1825 1.363 . S
C1826 C1832 1.428 . S
H1827 C1823 0.930 . S
H1828 C1825 0.929 . S
S1829 N1830 1.613 . S
S1829 N1831 1.610 . S
N1830 S1829 1.613 . S
N1830 C1833 1.350 . S
N1831 S1829 1.610 . S
N1831 C1832 1.351 . S
C1832 C1826 1.428 . S
C1832 N1831 1.351 . S
C1832 C1833 1.434 . S
C1833 C1824 1.429 . S
C1833 N1830 1.350 . S
C1833 C1832 1.434 . S
C1834 C1835 1.369 . S
C1834 C1836 1.419 . S
C1834 H1838 0.930 . S
C1835 C1834 1.369 . S
C1835 C1844 1.429 . S
C1836 C1834 1.419 . S
C1836 C1837 1.363 . S
C1836 H1839 0.929 . S
C1837 C1836 1.363 . S
C1837 C1843 1.428 . S
H1838 C1834 0.930 . S
H1839 C1836 0.929 . S
S1840 N1841 1.613 . S
S1840 N1842 1.610 . S
N1841 S1840 1.613 . S
N1841 C1844 1.350 . S
N1842 S1840 1.610 . S
N1842 C1843 1.351 . S
C1843 C1837 1.428 . S
C1843 N1842 1.351 . S
C1843 C1844 1.434 . S
C1844 C1835 1.429 . S
C1844 N1841 1.350 . S
C1844 C1843 1.434 . S
C1845 C1846 1.369 . S
C1845 C1847 1.419 . S
C1845 H1849 0.930 . S
C1846 C1845 1.369 . S
C1846 C1855 1.429 . S
C1847 C1845 1.419 . S
C1847 C1848 1.363 . S
C1847 H1850 0.929 . S
C1848 C1847 1.363 . S
C1848 C1854 1.428 . S
H1849 C1845 0.930 . S
H1850 C1847 0.929 . S
S1851 N1852 1.613 . S
S1851 N1853 1.610 . S
N1852 S1851 1.613 . S
N1852 C1855 1.350 . S
N1853 S1851 1.610 . S
N1853 C1854 1.351 . S
C1854 C1848 1.428 . S
C1854 N1853 1.351 . S
C1854 C1855 1.434 . S
C1855 C1846 1.429 . S
C1855 N1852 1.350 . S
C1855 C1854 1.434 . S
C1856 C1857 1.369 . S
C1856 C1858 1.419 . S
C1856 H1860 0.930 . S
C1857 C1856 1.369 . S
C1857 C1866 1.429 . S
C1858 C1856 1.419 . S
C1858 C1859 1.363 . S
C1858 H1861 0.929 . S
C1859 C1858 1.363 . S
C1859 C1865 1.428 . S
H1860 C1856 0.930 . S
H1861 C1858 0.929 . S
S1862 N1863 1.613 . S
S1862 N1864 1.610 . S
N1863 S1862 1.613 . S
N1863 C1866 1.350 . S
N1864 S1862 1.610 . S
N1864 C1865 1.351 . S
C1865 C1859 1.428 . S
C1865 N1864 1.351 . S
C1865 C1866 1.434 . S
C1866 C1857 1.429 . S
C1866 N1863 1.350 . S
C1866 C1865 1.434 . S
C1867 C1868 1.369 . S
C1867 C1869 1.419 . S
C1867 H1871 0.930 . S
C1868 C1867 1.369 . S
C1868 C1877 1.429 . S
C1869 C1867 1.419 . S
C1869 C1870 1.363 . S
C1869 H1872 0.929 . S
C1870 C1869 1.363 . S
C1870 C1876 1.428 . S
H1871 C1867 0.930 . S
H1872 C1869 0.929 . S
S1873 N1874 1.613 . S
S1873 N1875 1.610 . S
N1874 S1873 1.613 . S
N1874 C1877 1.350 . S
N1875 S1873 1.610 . S
N1875 C1876 1.351 . S
C1876 C1870 1.428 . S
C1876 N1875 1.351 . S
C1876 C1877 1.434 . S
C1877 C1868 1.429 . S
C1877 N1874 1.350 . S
C1877 C1876 1.434 . S
C1878 C1879 1.369 . S
C1878 C1880 1.419 1_655 S
C1878 H1882 0.930 . S
C1879 C1878 1.369 . S
C1879 C1888 1.429 1_655 S
C1880 C1878 1.419 1_455 S
C1880 C1881 1.363 . S
C1880 H1883 0.929 . S
C1881 C1880 1.363 . S
C1881 C1887 1.428 . S
H1882 C1878 0.930 . S
H1883 C1880 0.929 . S
S1884 N1885 1.613 . S
S1884 N1886 1.610 . S
N1885 S1884 1.613 . S
N1885 C1888 1.350 . S
N1886 S1884 1.610 . S
N1886 C1887 1.351 . S
C1887 C1881 1.428 . S
C1887 N1886 1.351 . S
C1887 C1888 1.434 . S
C1888 C1879 1.429 1_455 S
C1888 N1885 1.350 . S
C1888 C1887 1.434 . S
C1889 C1890 1.369 . S
C1889 C1891 1.419 . S
C1889 H1893 0.930 . S
C1890 C1889 1.369 . S
C1890 C1899 1.429 . S
C1891 C1889 1.419 . S
C1891 C1892 1.363 . S
C1891 H1894 0.929 . S
C1892 C1891 1.363 . S
C1892 C1898 1.428 . S
H1893 C1889 0.930 . S
H1894 C1891 0.929 . S
S1895 N1896 1.613 . S
S1895 N1897 1.610 . S
N1896 S1895 1.613 . S
N1896 C1899 1.350 . S
N1897 S1895 1.610 . S
N1897 C1898 1.351 . S
C1898 C1892 1.428 . S
C1898 N1897 1.351 . S
C1898 C1899 1.434 . S
C1899 C1890 1.429 . S
C1899 N1896 1.350 . S
C1899 C1898 1.434 . S
C1900 C1901 1.369 . S
C1900 C1902 1.419 . S
C1900 H1904 0.930 . S
C1901 C1900 1.369 . S
C1901 C1910 1.429 . S
C1902 C1900 1.419 . S
C1902 C1903 1.363 . S
C1902 H1905 0.929 . S
C1903 C1902 1.363 . S
C1903 C1909 1.428 . S
H1904 C1900 0.930 . S
H1905 C1902 0.929 . S
S1906 N1907 1.613 . S
S1906 N1908 1.610 . S
N1907 S1906 1.613 . S
N1907 C1910 1.350 . S
N1908 S1906 1.610 . S
N1908 C1909 1.351 . S
C1909 C1903 1.428 . S
C1909 N1908 1.351 . S
C1909 C1910 1.434 . S
C1910 C1901 1.429 . S
C1910 N1907 1.350 . S
C1910 C1909 1.434 . S
C1911 C1912 1.369 . S
C1911 C1913 1.419 . S
C1911 H1915 0.930 . S
C1912 C1911 1.369 . S
C1912 C1921 1.429 . S
C1913 C1911 1.419 . S
C1913 C1914 1.363 . S
C1913 H1916 0.929 . S
C1914 C1913 1.363 . S
C1914 C1920 1.428 . S
H1915 C1911 0.930 . S
H1916 C1913 0.929 . S
S1917 N1918 1.613 . S
S1917 N1919 1.610 . S
N1918 S1917 1.613 . S
N1918 C1921 1.350 . S
N1919 S1917 1.610 . S
N1919 C1920 1.351 . S
C1920 C1914 1.428 . S
C1920 N1919 1.351 . S
C1920 C1921 1.434 . S
C1921 C1912 1.429 . S
C1921 N1918 1.350 . S
C1921 C1920 1.434 . S
C1922 C1923 1.369 . S
C1922 C1924 1.419 . S
C1922 H1926 0.930 . S
C1923 C1922 1.369 . S
C1923 C1932 1.429 . S
C1924 C1922 1.419 . S
C1924 C1925 1.363 . S
C1924 H1927 0.929 . S
C1925 C1924 1.363 . S
C1925 C1931 1.428 . S
H1926 C1922 0.930 . S
H1927 C1924 0.929 . S
S1928 N1929 1.613 . S
S1928 N1930 1.610 . S
N1929 S1928 1.613 . S
N1929 C1932 1.350 1_455 S
N1930 S1928 1.610 . S
N1930 C1931 1.351 1_455 S
C1931 C1925 1.428 . S
C1931 N1930 1.351 1_655 S
C1931 C1932 1.434 . S
C1932 C1923 1.429 . S
C1932 N1929 1.350 1_655 S
C1932 C1931 1.434 . S
C1933 C1934 1.369 . S
C1933 C1935 1.419 . S
C1933 H1937 0.930 . S
C1934 C1933 1.369 . S
C1934 C1943 1.429 . S
C1935 C1933 1.419 . S
C1935 C1936 1.363 . S
C1935 H1938 0.929 . S
C1936 C1935 1.363 . S
C1936 C1942 1.428 . S
H1937 C1933 0.930 . S
H1938 C1935 0.929 . S
S1939 N1940 1.613 . S
S1939 N1941 1.610 . S
N1940 S1939 1.613 . S
N1940 C1943 1.350 . S
N1941 S1939 1.610 . S
N1941 C1942 1.351 . S
C1942 C1936 1.428 . S
C1942 N1941 1.351 . S
C1942 C1943 1.434 . S
C1943 C1934 1.429 . S
C1943 N1940 1.350 . S
C1943 C1942 1.434 . S
C1944 C1945 1.369 . S
C1944 C1946 1.419 . S
C1944 H1948 0.930 . S
C1945 C1944 1.369 . S
C1945 C1954 1.429 . S
C1946 C1944 1.419 . S
C1946 C1947 1.363 . S
C1946 H1949 0.929 . S
C1947 C1946 1.363 . S
C1947 C1953 1.428 . S
H1948 C1944 0.930 . S
H1949 C1946 0.929 . S
S1950 N1951 1.613 . S
S1950 N1952 1.610 . S
N1951 S1950 1.613 . S
N1951 C1954 1.350 . S
N1952 S1950 1.610 . S
N1952 C1953 1.351 . S
C1953 C1947 1.428 . S
C1953 N1952 1.351 . S
C1953 C1954 1.434 . S
C1954 C1945 1.429 . S
C1954 N1951 1.350 . S
C1954 C1953 1.434 . S
C1955 C1956 1.369 . S
C1955 C1957 1.419 . S
C1955 H1959 0.930 . S
C1956 C1955 1.369 . S
C1956 C1965 1.429 . S
C1957 C1955 1.419 . S
C1957 C1958 1.363 . S
C1957 H1960 0.929 . S
C1958 C1957 1.363 . S
C1958 C1964 1.428 1_565 S
H1959 C1955 0.930 . S
H1960 C1957 0.929 . S
S1961 N1962 1.613 1_545 S
S1961 N1963 1.610 . S
N1962 S1961 1.613 1_565 S
N1962 C1965 1.350 . S
N1963 S1961 1.610 . S
N1963 C1964 1.351 . S
C1964 C1958 1.428 1_545 S
C1964 N1963 1.351 . S
C1964 C1965 1.434 1_545 S
C1965 C1956 1.429 . S
C1965 N1962 1.350 . S
C1965 C1964 1.434 1_565 S
C1966 C1967 1.369 . S
C1966 C1968 1.419 . S
C1966 H1970 0.930 . S
C1967 C1966 1.369 . S
C1967 C1976 1.429 . S
C1968 C1966 1.419 . S
C1968 C1969 1.363 . S
C1968 H1971 0.929 . S
C1969 C1968 1.363 . S
C1969 C1975 1.428 . S
H1970 C1966 0.930 . S
H1971 C1968 0.929 . S
S1972 N1973 1.613 . S
S1972 N1974 1.610 . S
N1973 S1972 1.613 . S
N1973 C1976 1.350 . S
N1974 S1972 1.610 . S
N1974 C1975 1.351 . S
C1975 C1969 1.428 . S
C1975 N1974 1.351 . S
C1975 C1976 1.434 . S
C1976 C1967 1.429 . S
C1976 N1973 1.350 . S
C1976 C1975 1.434 . S
C1977 C1978 1.369 . S
C1977 C1979 1.419 . S
C1977 H1981 0.930 . S
C1978 C1977 1.369 . S
C1978 C1987 1.429 . S
C1979 C1977 1.419 . S
C1979 C1980 1.363 . S
C1979 H1982 0.929 . S
C1980 C1979 1.363 . S
C1980 C1986 1.428 . S
H1981 C1977 0.930 . S
H1982 C1979 0.929 . S
S1983 N1984 1.613 . S
S1983 N1985 1.610 . S
N1984 S1983 1.613 . S
N1984 C1987 1.350 . S
N1985 S1983 1.610 . S
N1985 C1986 1.351 . S
C1986 C1980 1.428 . S
C1986 N1985 1.351 . S
C1986 C1987 1.434 . S
C1987 C1978 1.429 . S
C1987 N1984 1.350 . S
C1987 C1986 1.434 . S
C1988 C1989 1.369 . S
C1988 C1990 1.419 . S
C1988 H1992 0.930 . S
C1989 C1988 1.369 . S
C1989 C1998 1.429 . S
C1990 C1988 1.419 . S
C1990 C1991 1.363 . S
C1990 H1993 0.929 . S
C1991 C1990 1.363 . S
C1991 C1997 1.428 . S
H1992 C1988 0.930 . S
H1993 C1990 0.929 . S
S1994 N1995 1.613 . S
S1994 N1996 1.610 . S
N1995 S1994 1.613 . S
N1995 C1998 1.350 . S
N1996 S1994 1.610 . S
N1996 C1997 1.351 . S
C1997 C1991 1.428 . S
C1997 N1996 1.351 . S
C1997 C1998 1.434 . S
C1998 C1989 1.429 . S
C1998 N1995 1.350 . S
C1998 C1997 1.434 . S
C1999 C2000 1.369 . S
C1999 C2001 1.419 1_554 S
C1999 H2003 0.930 . S
C2000 C1999 1.369 . S
C2000 C2009 1.429 . S
C2001 C1999 1.419 1_556 S
C2001 C2002 1.363 . S
C2001 H2004 0.929 . S
C2002 C2001 1.363 . S
C2002 C2008 1.428 . S
H2003 C1999 0.930 . S
H2004 C2001 0.929 . S
S2005 N2006 1.613 . S
S2005 N2007 1.610 1_554 S
N2006 S2005 1.613 . S
N2006 C2009 1.350 . S
N2007 S2005 1.610 1_556 S
N2007 C2008 1.351 . S
C2008 C2002 1.428 . S
C2008 N2007 1.351 . S
C2008 C2009 1.434 1_556 S
C2009 C2000 1.429 . S
C2009 N2006 1.350 . S
C2009 C2008 1.434 1_554 S
C2010 C2011 1.369 . S
C2010 C2012 1.419 . S
C2010 H2014 0.930 . S
C2011 C2010 1.369 . S
C2011 C2020 1.429 . S
C2012 C2010 1.419 . S
C2012 C2013 1.363 . S
C2012 H2015 0.929 . S
C2013 C2012 1.363 . S
C2013 C2019 1.428 . S
H2014 C2010 0.930 . S
H2015 C2012 0.929 . S
S2016 N2017 1.613 . S
S2016 N2018 1.610 . S
N2017 S2016 1.613 . S
N2017 C2020 1.350 . S
N2018 S2016 1.610 . S
N2018 C2019 1.351 . S
C2019 C2013 1.428 . S
C2019 N2018 1.351 . S
C2019 C2020 1.434 . S
C2020 C2011 1.429 . S
C2020 N2017 1.350 . S
C2020 C2019 1.434 . S
C2021 C2022 1.369 . S
C2021 C2023 1.419 . S
C2021 H2025 0.930 . S
C2022 C2021 1.369 . S
C2022 C2031 1.429 . S
C2023 C2021 1.419 . S
C2023 C2024 1.363 . S
C2023 H2026 0.929 . S
C2024 C2023 1.363 . S
C2024 C2030 1.428 . S
H2025 C2021 0.930 . S
H2026 C2023 0.929 . S
S2027 N2028 1.613 . S
S2027 N2029 1.610 . S
N2028 S2027 1.613 . S
N2028 C2031 1.350 . S
N2029 S2027 1.610 . S
N2029 C2030 1.351 . S
C2030 C2024 1.428 . S
C2030 N2029 1.351 . S
C2030 C2031 1.434 . S
C2031 C2022 1.429 . S
C2031 N2028 1.350 . S
C2031 C2030 1.434 . S
C977 C111 2.368 . S
C979 C346 2.344 1_556 S
C988 C64 2.204 . S
C990 C394 2.302 . S
C999 C77 1.349 . S
C1001 C426 1.317 . S
C1012 C471 1.222 . S
C1010 C95 1.254 . S
C1021 C25 1.564 . S
C1023 C511 1.416 . S
C1034 C542 0.764 . S
C1032 C36 0.769 . S
C1045 C594 1.687 . S
C1043 C50 1.469 . S
C1054 C11 2.047 . S
C1056 C626 1.930 . S
C1067 C354 2.492 . S
C1065 C237 2.364 1_455 S
C1076 C245 0.852 . S
C1078 C391 0.843 . S
C1089 C434 1.098 . S
C1087 C279 1.032 . S
C1100 C466 1.506 . S
C1098 C175 1.515 . S
C1109 C231 1.904 1_455 S
C1111 C506 1.918 . S
C1122 C545 1.395 . S
C1120 C251 1.319 . S
C1133 C591 0.675 . S
C1131 C273 0.624 . S
C1144 C634 2.197 . S
C1142 C181 2.195 . S
C1155 C351 1.604 . S
C1153 C165 1.715 . S
C1164 C288 1.878 . S
C1166 C674 1.953 . S
C1177 C715 2.612 . S
C1175 C333 2.697 . S
C1188 C746 0.687 1_655 S
C1186 C316 0.704 . S
C1197 C123 1.931 . S
C1199 C631 1.769 . S
C1208 C137 1.640 . S
C1210 C431 1.561 . S
C1219 C330 2.148 . S
C1221 C794 2.219 . S
C1232 C826 0.696 . S
C1230 C302 0.684 . S
C1243 C355 2.438 . S
C1241 C63 2.448 . S
C1254 C825 2.288 . S
C1252 C106 2.296 . S
C1263 C97 1.405 . S
C1265 C435 1.406 . S
C1274 C81 1.275 . S
C1276 C782 1.286 . S
C1287 C502 1.478 . S
C1285 C13 1.298 . S
C1296 C55 0.770 . S
C1298 C711 0.757 . S
C1309 C585 1.660 . S
C1307 C35 1.529 . S
C1320 C875 2.073 . S
C1318 C21 2.122 . S
C1331 C345 2.577 . S
C1329 C147 2.577 . S
C1342 C822 0.765 . S
C1340 C321 0.756 . S
C1351 C119 1.165 . S
C1353 C425 1.159 . S
C1362 C293 1.586 . S
C1364 C795 1.620 . S
C1373 C153 1.881 . S
C1375 C515 2.096 . S
C1386 C714 1.423 . S
C1384 C315 1.424 . S
C1395 C125 0.608 . S
C1397 C582 0.625 . S
C1406 C287 2.303 . S
C1408 C865 2.274 . S
C1417 C193 1.655 . S
C1419 C342 1.641 . S
C1428 C176 1.953 . S
C1430 C665 1.952 . S
C1439 C263 2.641 . S
C1441 C546 2.557 . S
C1450 C246 0.901 . S
C1452 C755 0.969 . S
C1463 C862 1.754 1_545 S
C1461 C277 1.781 . S
C1472 C221 1.572 . S
C1474 C422 1.575 . S
C1485 C465 2.250 . S
C1483 C260 2.245 . S
C1496 C395 0.738 . S
C1494 C204 0.743 . S
C1505 C83 2.368 . S
C1507 C906 2.344 . S
C1518 C834 2.301 . S
C1516 C92 2.204 . S
C1527 C105 1.349 . S
C1529 C946 1.326 1_556 S
C1538 C67 1.253 . S
C1540 C791 1.227 . S
C1549 C53 1.555 . S
C1551 C671 1.425 . S
C1562 C702 0.775 . S
C1560 C8 0.773 . S
C1573 C754 1.687 . S
C1571 C22 1.470 . S
C1584 C866 1.928 . S
C1582 C39 2.044 . S
C1595 C914 2.492 . S
C1593 C265 2.364 . S
C1604 C189 0.865 . S
C1606 C831 0.825 . S
C1617 C954 1.100 . S
C1615 C209 1.041 . S
C1628 C786 1.506 . S
C1626 C217 1.517 . S
C1639 C666 1.918 . S
C1637 C259 1.909 . S
C1648 C195 1.320 . S
C1650 C705 1.397 . S
C1661 C751 0.674 . S
C1659 C203 0.624 . S
C1670 C223 2.191 . S
C1672 C874 2.194 . S
C1683 C911 1.596 . S
C1681 C319 1.710 . S
C1692 C134 1.878 . S
C1694 C514 1.952 . S
C1705 C555 2.614 . S
C1703 C151 2.697 . S
C1716 C586 0.684 . S
C1714 C162 0.702 . S
C1727 C871 1.768 . S
C1725 C305 1.935 . S
C1736 C291 1.647 . S
C1738 C951 1.564 . S
C1749 C474 2.221 . S
C1747 C148 2.143 . S
C1760 C386 0.719 . S
C1758 C120 0.681 . S
C1769 C91 2.449 . S
C1771 C915 2.436 . S
C1782 C385 2.288 . S
C1780 C78 2.296 . S
C1791 C69 1.411 . S
C1793 C955 1.412 . S
C1802 C109 1.284 . S
C1804 C462 1.281 . S
C1813 C41 1.292 . S
C1815 C662 1.480 . S
C1826 C551 0.766 . S
C1824 C27 0.752 . S
C1835 C7 1.536 . S
C1837 C745 1.659 . S
C1846 C49 2.127 . S
C1848 C635 2.067 . S
C1859 C905 2.578 . S
C1857 C329 2.579 . S
C1868 C167 0.754 . S
C1870 C382 0.767 . S
C1881 C945 1.155 . S
C1879 C301 1.163 . S
C1890 C139 1.594 . S
C1892 C475 1.623 . S
C1901 C335 1.881 . S
C1903 C675 2.094 . S
C1914 C554 1.422 . S
C1912 C161 1.419 . S
C1923 C307 0.612 . S
C1925 C742 0.620 . S
C1936 C625 2.273 . S
C1934 C133 2.303 . S
C1947 C902 1.646 . S
C1945 C249 1.653 . S
C1958 C505 1.953 1_665 S
C1956 C218 1.953 . S
C1967 C235 2.642 . S
C1969 C706 2.555 . S
C1980 C595 0.968 . S
C1978 C190 0.885 . S
C1989 C207 1.780 . S
C1991 C622 1.757 . S
C2000 C179 1.573 . S
C2002 C942 1.574 . S
C2013 C785 2.253 . S
C2011 C232 2.241 1_565 S
C2024 C835 0.738 . S
C2022 C274 0.743 . S
