# Generated by pormake.
# Topology cml, (3,6)-cn, num edge types: 1
# Building blocks:
#     Node 0, Type 0, BuildingBlock: OLANEW_clean_sbu_2, # of connection points: 3
#     Node 1, Type 0, BuildingBlock: OLANEW_clean_sbu_2, # of connection points: 3
#     Node 2, Type 0, BuildingBlock: OLANEW_clean_sbu_2, # of connection points: 3
#     Node 3, Type 0, BuildingBlock: OLANEW_clean_sbu_2, # of connection points: 3
#     Node 4, Type 0, BuildingBlock: OLANEW_clean_sbu_2, # of connection points: 3
#     Node 5, Type 0, BuildingBlock: OLANEW_clean_sbu_2, # of connection points: 3
#     Node 6, Type 0, BuildingBlock: OLANEW_clean_sbu_2, # of connection points: 3
#     Node 7, Type 0, BuildingBlock: OLANEW_clean_sbu_2, # of connection points: 3
#     Node 8, Type 1, BuildingBlock: OJICUG_clean_sbu_0, # of connection points: 6
#     Node 9, Type 1, BuildingBlock: OJICUG_clean_sbu_0, # of connection points: 6
#     Node 10, Type 1, BuildingBlock: OJICUG_clean_sbu_0, # of connection points: 6
#     Node 11, Type 1, BuildingBlock: OJICUG_clean_sbu_0, # of connection points: 6
#     Edge 12, Type (0, 1), BuildingBlock: OJICUG_clean_linker_0, # of connection points: 2
#     Edge 13, Type (0, 1), BuildingBlock: OJICUG_clean_linker_0, # of connection points: 2
#     Edge 14, Type (0, 1), BuildingBlock: OJICUG_clean_linker_0, # of connection points: 2
#     Edge 15, Type (0, 1), BuildingBlock: OJICUG_clean_linker_0, # of connection points: 2
#     Edge 16, Type (0, 1), BuildingBlock: OJICUG_clean_linker_0, # of connection points: 2
#     Edge 17, Type (0, 1), BuildingBlock: OJICUG_clean_linker_0, # of connection points: 2
#     Edge 18, Type (0, 1), BuildingBlock: OJICUG_clean_linker_0, # of connection points: 2
#     Edge 19, Type (0, 1), BuildingBlock: OJICUG_clean_linker_0, # of connection points: 2
#     Edge 20, Type (0, 1), BuildingBlock: OJICUG_clean_linker_0, # of connection points: 2
#     Edge 21, Type (0, 1), BuildingBlock: OJICUG_clean_linker_0, # of connection points: 2
#     Edge 22, Type (0, 1), BuildingBlock: OJICUG_clean_linker_0, # of connection points: 2
#     Edge 23, Type (0, 1), BuildingBlock: OJICUG_clean_linker_0, # of connection points: 2
#     Edge 24, Type (0, 1), BuildingBlock: OJICUG_clean_linker_0, # of connection points: 2
#     Edge 25, Type (0, 1), BuildingBlock: OJICUG_clean_linker_0, # of connection points: 2
#     Edge 26, Type (0, 1), BuildingBlock: OJICUG_clean_linker_0, # of connection points: 2
#     Edge 27, Type (0, 1), BuildingBlock: OJICUG_clean_linker_0, # of connection points: 2
#     Edge 28, Type (0, 1), BuildingBlock: OJICUG_clean_linker_0, # of connection points: 2
#     Edge 29, Type (0, 1), BuildingBlock: OJICUG_clean_linker_0, # of connection points: 2
#     Edge 30, Type (0, 1), BuildingBlock: OJICUG_clean_linker_0, # of connection points: 2
#     Edge 31, Type (0, 1), BuildingBlock: OJICUG_clean_linker_0, # of connection points: 2
#     Edge 32, Type (0, 1), BuildingBlock: OJICUG_clean_linker_0, # of connection points: 2
#     Edge 33, Type (0, 1), BuildingBlock: OJICUG_clean_linker_0, # of connection points: 2
#     Edge 34, Type (0, 1), BuildingBlock: OJICUG_clean_linker_0, # of connection points: 2
#     Edge 35, Type (0, 1), BuildingBlock: OJICUG_clean_linker_0, # of connection points: 2
# Relax obj value: 0.022
# Max RMSD: 0.070
# Mean RMSD: 0.060
data_MOF--net-cml--node1-OLANEW_clean_sbu_2--node2-OJICUG_clean_sbu_0--edge1-OJICUG_clean_linker_0
_symmetry_space_group_name_H-M    P1
_symmetry_Int_Tables_number       1
_symmetry_cell_setting            triclinic
loop_
_symmetry_equiv_pos_as_xyz
'x, y, z'
_cell_length_a     31.981378
_cell_length_b     30.705443
_cell_length_c     28.763262
_cell_angle_alpha  87.864912
_cell_angle_beta   87.146421
_cell_angle_gamma 88.683408
loop_
_atom_site_label
_atom_site_type_symbol
_atom_site_fract_x
_atom_site_fract_y
_atom_site_fract_z
_atom_type_partial_charge
O0 O 0.28022 0.49012 0.89466 0.0
Cd1 Cd 0.21151 0.46425 0.92746 0.0
O2 O 0.30851 0.4572 0.95423 0.0
Cd3 Cd 0.3577 0.43421 -0.00074 0.0
O4 O 0.39068 0.40346 0.05658 0.0
C5 C 0.37853 0.41478 0.09713 0.0
O6 O 0.34811 0.44406 0.10159 0.0
C7 C 0.31228 0.48258 0.91842 0.0
C8 C 0.17298 0.38757 0.9029 0.0
O9 O 0.16966 0.42307 0.87826 0.0
O10 O 0.19664 0.38745 0.93763 0.0
O11 O 0.72647 0.6301 0.55487 0.0
Cd12 Cd 0.76594 0.59524 0.49013 0.0
O13 O 0.75341 0.58499 0.60716 0.0
Cd14 Cd 0.77655 0.54001 0.55489 0.0
O15 O 0.74271 0.49454 0.51508 0.0
C16 C 0.70822 0.51011 0.50102 0.0
O17 O 0.69728 0.55047 0.51023 0.0
C18 C 0.73035 0.61805 0.59731 0.0
C19 C 0.83422 0.6424 0.45464 0.0
O20 O 0.83687 0.61699 0.49081 0.0
O21 O 0.79905 0.64568 0.43514 0.0
O22 O 0.69082 0.41593 0.95848 0.0
Cd23 Cd 0.71724 0.35071 -0.00126 0.0
O24 O 0.72432 0.46503 -0.00468 0.0
Cd25 Cd 0.75157 0.41526 0.04149 0.0
O26 O 0.73547 0.38965 0.11142 0.0
C27 C 0.72292 0.35122 0.12085 0.0
O28 O 0.72455 0.32265 0.08792 0.0
C29 C 0.69892 0.45557 0.96482 0.0
C30 C 0.79035 0.31506 0.95825 0.0
O31 O 0.75463 0.3075 0.94227 0.0
O32 O 0.79153 0.34006 0.99284 0.0
O33 O 0.34919 0.59342 0.44956 0.0
Cd34 Cd 0.32342 0.66184 0.4826 0.0
O35 O 0.31044 0.54702 0.49184 0.0
Cd36 Cd 0.2861 0.60065 0.53346 0.0
O37 O 0.32112 0.63411 0.58393 0.0
C38 C 0.35881 0.62006 0.58162 0.0
O39 O 0.36955 0.59084 0.55077 0.0
C40 C 0.33865 0.55442 0.45998 0.0
C41 C 0.24612 0.69239 0.45333 0.0
O42 O 0.27961 0.69847 0.42779 0.0
O43 O 0.24908 0.67118 0.49226 0.0
O44 O 0.77679 0.99331 0.93595 0.0
Cd45 Cd 0.70743 0.96199 0.95763 0.0
O46 O 0.81063 0.93658 0.9645 0.0
Cd47 Cd 0.86378 0.90238 0.99423 0.0
O48 O 0.8937 0.87757 0.05634 0.0
C49 C 0.8777 0.89192 0.09425 0.0
O50 O 0.84573 0.91952 0.09264 0.0
C51 C 0.81128 0.97482 0.94609 0.0
C52 C 0.67984 0.88328 0.92425 0.0
O53 O 0.6791 0.91881 0.89936 0.0
O54 O 0.69584 0.88415 0.9642 0.0
O55 O 0.19342 0.15769 0.55741 0.0
Cd56 Cd 0.22865 0.13249 0.48536 0.0
O57 O 0.23045 0.11272 0.60131 0.0
Cd58 Cd 0.25428 0.07639 0.54209 0.0
O59 O 0.21855 0.02989 0.50587 0.0
C60 C 0.18039 0.04114 0.50161 0.0
O61 O 0.16687 0.07889 0.51699 0.0
C62 C 0.20272 0.14287 0.59762 0.0
C63 C 0.29897 0.1793 0.45627 0.0
O64 O 0.30059 0.14977 0.48884 0.0
O65 O 0.26387 0.1871 0.43762 0.0
O66 O 0.23697 0.95681 0.96542 0.0
Cd67 Cd 0.29032 0.91173 0.00352 0.0
O68 O 0.23707 0.00401 0.02106 0.0
Cd69 Cd 0.26974 0.95918 0.06793 0.0
O70 O 0.24025 0.92239 0.12631 0.0
C71 C 0.21913 0.94681 0.15381 0.0
O72 O 0.22118 0.98927 0.1467 0.0
C73 C 0.22442 0.99294 0.98209 0.0
C74 C 0.33687 0.85422 0.94759 0.0
O75 O 0.30479 0.84128 0.97239 0.0
O76 O 0.34615 0.89458 0.94818 0.0
O77 O 0.77524 0.01896 0.49884 0.0
Cd78 Cd 0.7179 0.05652 0.54157 0.0
O79 O 0.78546 0.97634 0.56045 0.0
Cd80 Cd 0.75561 0.02317 0.6075 0.0
O81 O 0.7911 0.06678 0.64822 0.0
C82 C 0.82984 0.06435 0.6361 0.0
O83 O 0.84172 0.03919 0.60169 0.0
C84 C 0.79332 0.98588 0.51756 0.0
C85 C 0.67568 0.12139 0.49103 0.0
O86 O 0.66643 0.08119 0.48834 0.0
O87 O 0.70555 0.13079 0.51678 0.0
Sc88 Sc 0.03027 0.80265 0.31921 0.0
Sc89 Sc 0.00593 0.91281 0.34118 0.0
Sc90 Sc 0.01522 0.83713 0.43482 0.0
O91 O 0.01697 0.85072 0.365 0.0
C92 C 0.96758 0.75727 0.39539 0.0
C93 C 0.96333 0.85994 0.26371 0.0
C94 C 0.93781 0.905 0.42476 0.0
C95 C 0.08464 0.88173 0.27662 0.0
C96 C 0.0908 0.77504 0.40097 0.0
C97 C 0.06129 0.92753 0.42831 0.0
O98 O 0.98337 0.76088 0.35381 0.0
O99 O 0.96705 0.89365 0.28722 0.0
O100 O 0.95872 0.8761 0.44713 0.0
O101 O 0.07788 0.84101 0.28158 0.0
O102 O 0.07076 0.79654 0.43194 0.0
O103 O 0.04391 0.94065 0.39147 0.0
O104 O 0.07965 0.77399 0.3593 0.0
O105 O 0.06089 0.91064 0.29535 0.0
O106 O 0.05509 0.89031 0.44776 0.0
O107 O 0.98408 0.82485 0.27116 0.0
O108 O 0.97667 0.78195 0.42778 0.0
O109 O 0.95019 0.92062 0.38507 0.0
Sc110 Sc 1.00146 0.20537 0.79938 0.0
Sc111 Sc 0.0255 0.0936 0.81658 0.0
Sc112 Sc 0.01375 0.16077 0.91291 0.0
O113 O 0.01356 0.15332 0.84299 0.0
C114 C 0.06284 0.24444 0.87231 0.0
C115 C 0.07758 0.15573 0.7458 0.0
C116 C 0.08697 0.08871 0.90012 0.0
C117 C 0.9546 0.13116 0.75037 0.0
C118 C 0.93907 0.2264 0.88523 0.0
C119 C 0.96087 0.07385 0.90272 0.0
O120 O 0.04406 0.24545 0.83418 0.0
O121 O 0.07228 0.11945 0.76785 0.0
O122 O 0.06771 0.11829 0.92291 0.0
O123 O 0.95735 0.17087 0.76048 0.0
O124 O 0.96058 0.20492 0.91446 0.0
O125 O 0.97929 0.06377 0.86416 0.0
O126 O 0.94858 0.22805 0.84184 0.0
O127 O 0.97815 0.10112 0.76663 0.0
O128 O 0.96973 0.10764 0.92472 0.0
O129 O 0.05323 0.18873 0.75139 0.0
O130 O 0.05649 0.21497 0.90428 0.0
O131 O 0.07511 0.07673 0.86139 0.0
Sc132 Sc 0.5201 0.28889 0.31842 0.0
Sc133 Sc 0.53303 0.40221 0.32408 0.0
Sc134 Sc 0.51504 0.33951 0.42712 0.0
O135 O 0.52277 0.34344 0.35652 0.0
C136 C 0.44766 0.27222 0.3959 0.0
C137 C 0.47381 0.35951 0.25371 0.0
C138 C 0.46121 0.42503 0.40091 0.0
C139 C 0.59686 0.33901 0.26822 0.0
C140 C 0.57082 0.25499 0.40698 0.0
C141 C 0.58582 0.41118 0.41343 0.0
O142 O 0.46245 0.2689 0.35428 0.0
O143 O 0.48892 0.39174 0.27276 0.0
O144 O 0.46859 0.39209 0.42779 0.0
O145 O 0.57738 0.30402 0.27873 0.0
O146 O 0.56015 0.28688 0.43224 0.0
O147 O 0.57803 0.421 0.37155 0.0
O148 O 0.55712 0.25037 0.36665 0.0
O149 O 0.58404 0.37627 0.2815 0.0
O150 O 0.56539 0.38305 0.43814 0.0
O151 O 0.48291 0.32015 0.2651 0.0
O152 O 0.46454 0.29459 0.42588 0.0
O153 O 0.48288 0.43327 0.36351 0.0
Sc154 Sc 0.52639 0.71456 0.78202 0.0
Sc155 Sc 0.53337 0.60095 0.79045 0.0
Sc156 Sc 0.52197 0.65939 0.89231 0.0
O157 O 0.52714 0.65854 0.82181 0.0
C158 C 0.58201 0.74069 0.86481 0.0
C159 C 0.59939 0.65697 0.73211 0.0
C160 C 0.58677 0.58118 0.87998 0.0
C161 C 0.47593 0.65519 0.72012 0.0
C162 C 0.45795 0.73536 0.86398 0.0
C163 C 0.46209 0.58056 0.86734 0.0
O164 O 0.57257 0.74279 0.82234 0.0
O165 O 0.5896 0.62167 0.75398 0.0
O166 O 0.57469 0.615 0.90145 0.0
O167 O 0.47918 0.69188 0.73834 0.0
O168 O 0.46916 0.70399 0.891 0.0
O169 O 0.47735 0.5774 0.82588 0.0
O170 O 0.47673 0.74422 0.82481 0.0
O171 O 0.4966 0.62151 0.73302 0.0
O172 O 0.47714 0.60581 0.89653 0.0
O173 O 0.57702 0.69185 0.73448 0.0
O174 O 0.5654 0.7135 0.89466 0.0
O175 O 0.57158 0.571 0.84212 0.0
C176 C 0.14467 0.3134 0.92557 0.0
C177 C 0.14772 0.34907 0.89346 0.0
H178 H 0.11546 0.25261 0.94449 0.0
C179 C 0.12388 0.34909 0.85373 0.0
H180 H 0.16246 0.3124 0.95667 0.0
C181 C 0.09702 0.31488 0.84672 0.0
C182 C 0.09295 0.27972 0.87941 0.0
H183 H 0.12541 0.37597 0.82827 0.0
H184 H 0.07886 0.31653 0.8159 0.0
C185 C 0.11751 0.27919 0.91871 0.0
C186 C 0.87178 0.68778 0.39202 0.0
C187 C 0.87029 0.6685 0.43721 0.0
H188 H 0.90477 0.73041 0.34263 0.0
C189 C 0.90296 0.67574 0.46662 0.0
H190 H 0.84711 0.68248 0.36852 0.0
C191 C 0.93535 0.70344 0.4521 0.0
C192 C 0.93627 0.72374 0.40751 0.0
H193 H 0.90273 0.6613 0.50158 0.0
H194 H 0.95934 0.7097 0.47617 0.0
C195 C 0.90484 0.71485 0.37706 0.0
C196 C 0.8641 0.28844 0.96559 0.0
C197 C 0.82893 0.29417 0.9385 0.0
H198 H 0.92628 0.2619 0.9701 0.0
C199 C 0.83055 0.27845 0.89316 0.0
H200 H 0.86366 0.30006 0.00072 0.0
C201 C 0.86674 0.25728 0.87528 0.0
C202 C 0.90148 0.25053 0.9029 0.0
H203 H 0.80388 0.28253 0.87151 0.0
H204 H 0.86715 0.24525 0.84032 0.0
C205 C 0.89983 0.26639 0.94816 0.0
C206 C 0.19965 0.72401 0.39265 0.0
C207 C 0.20549 0.71095 0.43925 0.0
H208 H 0.1584 0.75392 0.34384 0.0
C209 C 0.1727 0.71743 0.47277 0.0
H210 H 0.22438 0.71929 0.36608 0.0
C211 C 0.13526 0.73787 0.46022 0.0
C212 C 0.12955 0.75141 0.41372 0.0
H213 H 0.17637 0.70781 0.50898 0.0
H214 H 0.11082 0.74323 0.48697 0.0
C215 C 0.16185 0.74365 0.37991 0.0
C216 C 0.64742 0.80975 0.94033 0.0
C217 C 0.65974 0.8436 0.90852 0.0
H218 H 0.61302 0.75068 0.95186 0.0
C219 C 0.64929 0.84113 0.86192 0.0
H220 H 0.6549 0.81076 0.97659 0.0
C221 C 0.62574 0.80672 0.84772 0.0
C222 C 0.61139 0.77391 0.87983 0.0
H223 H 0.65844 0.86646 0.83645 0.0
H224 H 0.61762 0.80683 0.81161 0.0
C225 C 0.62329 0.77537 0.9262 0.0
C226 C 0.34133 0.22074 0.39478 0.0
C227 C 0.33669 0.20344 0.44062 0.0
H228 H 0.38085 0.25539 0.34422 0.0
C229 C 0.3687 0.20883 0.4714 0.0
H230 H 0.31713 0.21679 0.37033 0.0
C231 C 0.40454 0.23162 0.45683 0.0
C232 C 0.40953 0.24842 0.41084 0.0
H233 H 0.36583 0.19588 0.50694 0.0
H234 H 0.42866 0.23556 0.48139 0.0
C235 C 0.37778 0.24254 0.37979 0.0
C236 C 0.39338 0.83784 0.88691 0.0
C237 C 0.36425 0.82299 0.92179 0.0
H238 H 0.44537 0.82151 0.84049 0.0
C239 C 0.36374 0.77834 0.93435 0.0
H240 H 0.39438 0.87206 0.87638 0.0
C241 C 0.39334 0.74953 0.91438 0.0
C242 C 0.42349 0.76465 0.88073 0.0
H243 H 0.34167 0.76591 0.96114 0.0
H244 H 0.39321 0.71557 0.92604 0.0
C245 C 0.42245 0.80886 0.86623 0.0
C246 C 0.62497 0.14599 0.43126 0.0
C247 C 0.65118 0.15605 0.46698 0.0
H248 H 0.57941 0.16956 0.38371 0.0
C249 C 0.65223 0.19927 0.48119 0.0
H250 H 0.62361 0.11297 0.41949 0.0
C251 C 0.62649 0.23147 0.46125 0.0
C252 C 0.59971 0.22131 0.42608 0.0
H253 H 0.67205 0.20803 0.50869 0.0
H254 H 0.6274 0.26433 0.47361 0.0
C255 C 0.59977 0.1784 0.41068 0.0
C256 C 0.36313 0.51551 0.85877 0.0
C257 C 0.35223 0.50481 0.9056 0.0
H258 H 0.40631 0.54711 0.81012 0.0
C259 C 0.37801 0.51891 0.94014 0.0
H260 H 0.34372 0.50552 0.83141 0.0
C261 C 0.4136 0.54365 0.92807 0.0
C262 C 0.42458 0.55422 0.88112 0.0
H263 H 0.36985 0.51221 0.97664 0.0
H264 H 0.43249 0.55449 0.95548 0.0
C265 C 0.39905 0.53941 0.84665 0.0
C266 C 0.65452 0.50325 0.44269 0.0
C267 C 0.67954 0.48339 0.47644 0.0
H268 H 0.60573 0.49552 0.39573 0.0
C269 C 0.67465 0.43901 0.48854 0.0
H270 H 0.65778 0.53746 0.43285 0.0
C271 C 0.64398 0.41522 0.46823 0.0
C272 C 0.61879 0.43529 0.43461 0.0
H273 H 0.69346 0.42318 0.51482 0.0
H274 H 0.63999 0.38125 0.47867 0.0
C275 C 0.62484 0.47927 0.42147 0.0
C276 C 0.65474 0.48045 0.89974 0.0
C277 C 0.67507 0.49021 0.94004 0.0
H278 H 0.61143 0.50134 0.84923 0.0
C279 C 0.66849 0.53155 0.95896 0.0
H280 H 0.6593 0.44896 0.88424 0.0
C281 C 0.64036 0.56171 0.93918 0.0
C282 C 0.61877 0.55117 0.89984 0.0
H283 H 0.6836 0.53987 0.99022 0.0
H284 H 0.63492 0.59281 0.95524 0.0
C285 C 0.62715 0.51059 0.87975 0.0
C286 C 0.39097 0.526 0.40089 0.0
C287 C 0.36444 0.51824 0.44054 0.0
H288 H 0.442 0.50292 0.35735 0.0
C289 C 0.36764 0.47793 0.46513 0.0
H290 H 0.38924 0.55669 0.38117 0.0
C291 C 0.39849 0.4471 0.45189 0.0
C292 C 0.42644 0.45585 0.41354 0.0
H293 H 0.34782 0.47112 0.49607 0.0
H294 H 0.40109 0.41694 0.47241 0.0
C295 C 0.42143 0.49515 0.38743 0.0
C296 C 0.88798 0.97817 0.9226 0.0
C297 C 0.8509 0.99899 0.93912 0.0
H298 H 0.95194 0.9857 0.89766 0.0
C299 C 0.85141 0.04386 0.94721 0.0
H300 H 0.88842 0.9437 0.91577 0.0
C301 C 0.88802 0.06761 0.93826 0.0
C302 C 0.9246 0.04726 0.91965 0.0
H303 H 0.82329 0.06072 0.96011 0.0
H304 H 0.88708 0.10235 0.94372 0.0
C305 C 0.92429 0.0022 0.91226 0.0
C306 C 0.11506 0.02925 0.46093 0.0
C307 C 0.15076 0.01181 0.4819 0.0
H308 H 0.05885 0.01605 0.42708 0.0
C309 C 0.15667 0.96641 0.48574 0.0
H310 H 0.10982 0.0642 0.4576 0.0
C311 C 0.12691 0.93886 0.46942 0.0
C312 C 0.09142 0.95637 0.44799 0.0
H313 H 0.18381 0.95223 0.50214 0.0
H314 H 0.13205 0.9039 0.47275 0.0
C315 C 0.08592 1.00178 0.44356 0.0
C316 C 0.17728 0.00812 0.9161 0.0
C317 C 0.1922 0.02011 0.95878 0.0
H318 H 0.13263 0.02028 0.86413 0.0
C319 C 0.1737 0.05643 0.98085 0.0
H320 H 0.19083 0.98038 0.89814 0.0
C321 C 0.14002 0.07923 0.96153 0.0
C322 C 0.12419 0.06635 0.91958 0.0
H323 H 0.18442 0.06658 0.01382 0.0
H324 H 0.12598 0.10646 0.97993 0.0
C325 C 0.14376 0.03101 0.89668 0.0
C326 C 0.83975 0.97494 0.44588 0.0
C327 C 0.82682 0.96151 0.49147 0.0
H328 H 0.88473 0.96771 0.38904 0.0
C329 C 0.84882 0.92702 0.51353 0.0
H330 H 0.82349 1.00135 0.42784 0.0
C331 C 0.88408 0.90778 0.49137 0.0
C332 C 0.89821 0.92256 0.4466 0.0
H333 H 0.83966 0.91574 0.54861 0.0
H334 H 0.90088 0.88211 0.50995 0.0
C335 C 0.87503 0.9557 0.4237 0.0
C336 C 0.39591 0.41997 0.18015 0.0
C337 C 0.39989 0.39755 0.13849 0.0
H338 H 0.41635 0.42523 0.24932 0.0
C339 C 0.42553 0.35973 0.13645 0.0
H340 H 0.37632 0.44911 0.18288 0.0
C341 C 0.44786 0.34548 0.17503 0.0
C342 C 0.44549 0.36942 0.21573 0.0
H343 H 0.42888 0.34162 0.10483 0.0
H344 H 0.46848 0.31711 0.17226 0.0
C345 C 0.4188 0.40631 0.2182 0.0
C346 C 0.67094 0.66779 0.6239 0.0
C347 C 0.70264 0.63694 0.63457 0.0
H348 H 0.61314 0.69894 0.64703 0.0
C349 C 0.70338 0.61885 0.68014 0.0
H350 H 0.66957 0.68249 0.58917 0.0
C351 C 0.67095 0.62782 0.71276 0.0
C352 C 0.6374 0.65563 0.70088 0.0
H353 H 0.7275 0.59538 0.68985 0.0
H354 H 0.67108 0.61124 0.74669 0.0
C355 C 0.63863 0.67727 0.65697 0.0
C356 C 0.69297 0.37542 0.19755 0.0
C357 C 0.69756 0.34285 0.16452 0.0
H358 H 0.65765 0.39955 0.25641 0.0
C359 C 0.67292 0.30551 0.17042 0.0
H360 H 0.71186 0.40432 0.19446 0.0
C361 C 0.64171 0.30273 0.20622 0.0
C362 C 0.6346 0.33734 0.23646 0.0
H363 H 0.67588 0.27969 0.14574 0.0
H364 H 0.62153 0.27481 0.20828 0.0
C365 C 0.66174 0.37277 0.233 0.0
C366 C 0.38061 0.66556 0.64699 0.0
C367 C 0.38956 0.63272 0.61494 0.0
H368 H 0.4016 0.69917 0.70552 0.0
C369 C 0.42818 0.61009 0.61588 0.0
H370 H 0.35115 0.68366 0.64686 0.0
C371 C 0.45647 0.61859 0.64932 0.0
C372 C 0.44717 0.65032 0.68233 0.0
H373 H 0.43625 0.58477 0.59157 0.0
H374 H 0.48553 0.59973 0.64974 0.0
C375 C 0.40946 0.67457 0.68032 0.0
C376 C 0.92599 0.84605 0.14267 0.0
C377 C 0.8963 0.88029 0.13913 0.0
H378 H 0.96987 0.81202 0.18543 0.0
C379 C 0.88573 0.90473 0.17851 0.0
H380 H 0.93448 0.8264 0.113 0.0
C381 C 0.90616 0.89673 0.21982 0.0
C382 C 0.93714 0.86369 0.22282 0.0
H383 H 0.8628 0.93119 0.17698 0.0
H384 H 0.89852 0.91725 0.24901 0.0
C385 C 0.946 0.83759 0.18427 0.0
C386 C 0.14212 0.18388 0.63539 0.0
C387 C 0.17592 0.15399 0.6391 0.0
H388 H 0.08432 0.20814 0.66668 0.0
C389 C 0.17971 0.12927 0.68087 0.0
H390 H 0.13837 0.20351 0.60375 0.0
C391 C 0.14848 0.13135 0.71631 0.0
C392 C 0.11314 0.15875 0.71119 0.0
H393 H 0.20543 0.10613 0.68514 0.0
H394 H 0.1513 0.11027 0.74711 0.0
C395 C 0.11109 0.18645 0.67134 0.0
C396 C 0.16504 0.9567 0.21805 0.0
C397 C 0.1882 0.92855 0.18873 0.0
H398 H 0.11463 0.96412 0.26855 0.0
C399 C 0.17887 0.88395 0.1906 0.0
H400 H 0.17156 0.99118 0.21776 0.0
C401 C 0.14583 0.86824 0.21989 0.0
C402 C 0.12152 0.8969 0.24772 0.0
H403 H 0.19619 0.86142 0.16839 0.0
H404 H 0.13868 0.83394 0.21977 0.0
C405 C 0.13216 0.94112 0.24711 0.0
C406 C 0.9035 0.06981 0.6586 0.0
C407 C 0.86179 0.08504 0.66284 0.0
H408 H 0.96528 0.0725 0.68325 0.0
C409 C 0.85126 0.11832 0.69393 0.0
H410 H 0.91272 0.04423 0.635 0.0
C411 C 0.8819 0.13526 0.72105 0.0
C412 C 0.9231 0.11834 0.71812 0.0
H413 H 0.81936 0.13078 0.69773 0.0
H414 H 0.87305 0.16014 0.74563 0.0
C415 C 0.93366 0.08592 0.68628 0.0
loop_
_geom_bond_atom_site_label_1
_geom_bond_atom_site_label_2
_geom_bond_distance
_geom_bond_site_symmetry_2
_ccdc_geom_bond_type
O0 Cd1 2.300 . S
O0 C7 1.275 . S
Cd1 O0 2.300 . S
Cd1 O9 2.381 . S
Cd1 O10 2.378 . S
O2 Cd3 2.385 1_556 S
O2 C7 1.255 . S
Cd3 O2 2.385 1_554 S
Cd3 O4 2.317 . S
O4 Cd3 2.317 . S
O4 C5 1.232 . S
C5 O4 1.232 . S
C5 O6 1.218 . S
O6 C5 1.218 . S
C7 O0 1.275 . S
C7 O2 1.255 . S
C8 O9 1.258 . S
C8 O10 1.256 . S
O9 Cd1 2.381 . S
O9 C8 1.258 . S
O10 Cd1 2.378 . S
O10 C8 1.256 . S
O11 Cd12 2.300 . S
O11 C18 1.275 . S
Cd12 O11 2.300 . S
Cd12 O20 2.381 . S
Cd12 O21 2.378 . S
O13 Cd14 2.385 . S
O13 C18 1.255 . S
Cd14 O13 2.385 . S
Cd14 O15 2.317 . S
O15 Cd14 2.317 . S
O15 C16 1.232 . S
C16 O15 1.232 . S
C16 O17 1.218 . S
O17 C16 1.218 . S
C18 O11 1.275 . S
C18 O13 1.255 . S
C19 O20 1.258 . S
C19 O21 1.256 . S
O20 Cd12 2.381 . S
O20 C19 1.258 . S
O21 Cd12 2.378 . S
O21 C19 1.256 . S
O22 Cd23 2.300 . S
O22 C29 1.275 . S
Cd23 O22 2.300 . S
Cd23 O31 2.381 . S
Cd23 O32 2.378 . S
O24 Cd25 2.385 . S
O24 C29 1.255 1_554 S
Cd25 O24 2.385 . S
Cd25 O26 2.317 . S
O26 Cd25 2.317 . S
O26 C27 1.232 . S
C27 O26 1.232 . S
C27 O28 1.218 . S
O28 C27 1.218 . S
C29 O22 1.275 . S
C29 O24 1.255 1_556 S
C30 O31 1.258 . S
C30 O32 1.256 . S
O31 Cd23 2.381 . S
O31 C30 1.258 . S
O32 Cd23 2.378 . S
O32 C30 1.256 . S
O33 Cd34 2.300 . S
O33 C40 1.275 . S
Cd34 O33 2.300 . S
Cd34 O42 2.381 . S
Cd34 O43 2.378 . S
O35 Cd36 2.385 . S
O35 C40 1.255 . S
Cd36 O35 2.385 . S
Cd36 O37 2.317 . S
O37 Cd36 2.317 . S
O37 C38 1.232 . S
C38 O37 1.232 . S
C38 O39 1.218 . S
O39 C38 1.218 . S
C40 O33 1.275 . S
C40 O35 1.255 . S
C41 O42 1.258 . S
C41 O43 1.256 . S
O42 Cd34 2.381 . S
O42 C41 1.258 . S
O43 Cd34 2.378 . S
O43 C41 1.256 . S
O44 Cd45 2.300 . S
O44 C51 1.275 . S
Cd45 O44 2.300 . S
Cd45 O53 2.381 . S
Cd45 O54 2.378 . S
O46 Cd47 2.385 1_556 S
O46 C51 1.255 . S
Cd47 O46 2.385 1_554 S
Cd47 O48 2.317 . S
O48 Cd47 2.317 . S
O48 C49 1.232 . S
C49 O48 1.232 . S
C49 O50 1.218 . S
O50 C49 1.218 . S
C51 O44 1.275 . S
C51 O46 1.255 . S
C52 O53 1.258 . S
C52 O54 1.256 . S
O53 Cd45 2.381 . S
O53 C52 1.258 . S
O54 Cd45 2.378 . S
O54 C52 1.256 . S
O55 Cd56 2.300 . S
O55 C62 1.275 . S
Cd56 O55 2.300 . S
Cd56 O64 2.381 . S
Cd56 O65 2.378 . S
O57 Cd58 2.383 . S
O57 C62 1.255 . S
Cd58 O57 2.383 . S
Cd58 O59 2.317 . S
O59 Cd58 2.317 . S
O59 C60 1.232 . S
C60 O59 1.232 . S
C60 O61 1.218 1_545 S
O61 C60 1.218 1_565 S
C62 O55 1.275 . S
C62 O57 1.255 . S
C63 O64 1.258 . S
C63 O65 1.256 . S
O64 Cd56 2.381 . S
O64 C63 1.258 . S
O65 Cd56 2.378 . S
O65 C63 1.256 . S
O66 Cd67 2.300 . S
O66 C73 1.275 . S
Cd67 O66 2.300 . S
Cd67 O75 2.381 . S
Cd67 O76 2.378 . S
O68 Cd69 2.385 . S
O68 C73 1.255 1_554 S
Cd69 O68 2.385 . S
Cd69 O70 2.317 . S
O70 Cd69 2.317 . S
O70 C71 1.232 . S
C71 O70 1.232 . S
C71 O72 1.218 . S
O72 C71 1.218 . S
C73 O66 1.275 . S
C73 O68 1.255 1_556 S
C74 O75 1.258 . S
C74 O76 1.256 . S
O75 Cd67 2.381 . S
O75 C74 1.258 . S
O76 Cd67 2.378 . S
O76 C74 1.256 . S
O77 Cd78 2.300 . S
O77 C84 1.275 . S
Cd78 O77 2.300 . S
Cd78 O86 2.381 . S
Cd78 O87 2.378 . S
O79 Cd80 2.385 . S
O79 C84 1.255 . S
Cd80 O79 2.385 . S
Cd80 O81 2.317 . S
O81 Cd80 2.317 . S
O81 C82 1.232 . S
C82 O81 1.232 . S
C82 O83 1.218 . S
O83 C82 1.218 . S
C84 O77 1.275 . S
C84 O79 1.255 . S
C85 O86 1.258 . S
C85 O87 1.256 . S
O86 Cd78 2.381 . S
O86 C85 1.258 . S
O87 Cd78 2.378 . S
O87 C85 1.256 . S
Sc88 O91 2.025 . S
Sc88 O98 2.105 1_455 S
Sc88 O101 2.105 . S
Sc88 O104 2.105 . S
Sc88 O107 2.105 1_455 S
Sc89 O91 2.025 . S
Sc89 O99 2.105 1_455 S
Sc89 O103 2.105 . S
Sc89 O105 2.105 . S
Sc89 O109 2.105 1_455 S
Sc90 O91 2.025 . S
Sc90 O100 2.105 1_455 S
Sc90 O102 2.105 . S
Sc90 O106 2.105 . S
Sc90 O108 2.105 1_455 S
O91 Sc88 2.025 . S
O91 Sc89 2.025 . S
O91 Sc90 2.025 . S
C92 O98 1.268 . S
C92 O108 1.268 . S
C93 O99 1.268 . S
C93 O107 1.268 . S
C94 O100 1.268 . S
C94 O109 1.268 . S
C95 O101 1.268 . S
C95 O105 1.268 . S
C96 O102 1.268 . S
C96 O104 1.268 . S
C97 O103 1.268 . S
C97 O106 1.268 . S
O98 Sc88 2.105 1_655 S
O98 C92 1.268 . S
O99 Sc89 2.105 1_655 S
O99 C93 1.268 . S
O100 Sc90 2.105 1_655 S
O100 C94 1.268 . S
O101 Sc88 2.105 . S
O101 C95 1.268 . S
O102 Sc90 2.105 . S
O102 C96 1.268 . S
O103 Sc89 2.105 . S
O103 C97 1.268 . S
O104 Sc88 2.105 . S
O104 C96 1.268 . S
O105 Sc89 2.105 . S
O105 C95 1.268 . S
O106 Sc90 2.105 . S
O106 C97 1.268 . S
O107 Sc88 2.105 1_655 S
O107 C93 1.268 . S
O108 Sc90 2.105 1_655 S
O108 C92 1.268 . S
O109 Sc89 2.105 1_655 S
O109 C94 1.268 . S
Sc110 O113 2.025 . S
Sc110 O120 2.105 . S
Sc110 O123 2.105 1_455 S
Sc110 O126 2.105 1_455 S
Sc110 O129 2.105 . S
Sc111 O113 2.025 . S
Sc111 O121 2.105 . S
Sc111 O125 2.105 1_455 S
Sc111 O127 2.105 1_455 S
Sc111 O131 2.105 . S
Sc112 O113 2.025 . S
Sc112 O122 2.105 . S
Sc112 O124 2.105 1_455 S
Sc112 O128 2.105 1_455 S
Sc112 O130 2.105 . S
O113 Sc110 2.025 . S
O113 Sc111 2.025 . S
O113 Sc112 2.025 . S
C114 O120 1.268 . S
C114 O130 1.268 . S
C115 O121 1.268 . S
C115 O129 1.268 . S
C116 O122 1.268 . S
C116 O131 1.268 . S
C117 O123 1.268 . S
C117 O127 1.268 . S
C118 O124 1.268 . S
C118 O126 1.268 . S
C119 O125 1.268 . S
C119 O128 1.268 . S
O120 Sc110 2.105 . S
O120 C114 1.268 . S
O121 Sc111 2.105 . S
O121 C115 1.268 . S
O122 Sc112 2.105 . S
O122 C116 1.268 . S
O123 Sc110 2.105 1_655 S
O123 C117 1.268 . S
O124 Sc112 2.105 1_655 S
O124 C118 1.268 . S
O125 Sc111 2.105 1_655 S
O125 C119 1.268 . S
O126 Sc110 2.105 1_655 S
O126 C118 1.268 . S
O127 Sc111 2.105 1_655 S
O127 C117 1.268 . S
O128 Sc112 2.105 1_655 S
O128 C119 1.268 . S
O129 Sc110 2.105 . S
O129 C115 1.268 . S
O130 Sc112 2.105 . S
O130 C114 1.268 . S
O131 Sc111 2.105 . S
O131 C116 1.268 . S
Sc132 O135 2.025 . S
Sc132 O142 2.105 . S
Sc132 O145 2.105 . S
Sc132 O148 2.105 . S
Sc132 O151 2.105 . S
Sc133 O135 2.025 . S
Sc133 O143 2.105 . S
Sc133 O147 2.105 . S
Sc133 O149 2.105 . S
Sc133 O153 2.105 . S
Sc134 O135 2.025 . S
Sc134 O144 2.105 . S
Sc134 O146 2.105 . S
Sc134 O150 2.105 . S
Sc134 O152 2.105 . S
O135 Sc132 2.025 . S
O135 Sc133 2.025 . S
O135 Sc134 2.025 . S
C136 O142 1.268 . S
C136 O152 1.268 . S
C137 O143 1.268 . S
C137 O151 1.268 . S
C138 O144 1.268 . S
C138 O153 1.268 . S
C139 O145 1.268 . S
C139 O149 1.268 . S
C140 O146 1.268 . S
C140 O148 1.268 . S
C141 O147 1.268 . S
C141 O150 1.268 . S
O142 Sc132 2.105 . S
O142 C136 1.268 . S
O143 Sc133 2.105 . S
O143 C137 1.268 . S
O144 Sc134 2.105 . S
O144 C138 1.268 . S
O145 Sc132 2.105 . S
O145 C139 1.268 . S
O146 Sc134 2.105 . S
O146 C140 1.268 . S
O147 Sc133 2.105 . S
O147 C141 1.268 . S
O148 Sc132 2.105 . S
O148 C140 1.268 . S
O149 Sc133 2.105 . S
O149 C139 1.268 . S
O150 Sc134 2.105 . S
O150 C141 1.268 . S
O151 Sc132 2.105 . S
O151 C137 1.268 . S
O152 Sc134 2.105 . S
O152 C136 1.268 . S
O153 Sc133 2.105 . S
O153 C138 1.268 . S
Sc154 O157 2.025 . S
Sc154 O164 2.105 . S
Sc154 O167 2.105 . S
Sc154 O170 2.105 . S
Sc154 O173 2.105 . S
Sc155 O157 2.025 . S
Sc155 O165 2.105 . S
Sc155 O169 2.105 . S
Sc155 O171 2.105 . S
Sc155 O175 2.105 . S
Sc156 O157 2.025 . S
Sc156 O166 2.105 . S
Sc156 O168 2.105 . S
Sc156 O172 2.105 . S
Sc156 O174 2.105 . S
O157 Sc154 2.025 . S
O157 Sc155 2.025 . S
O157 Sc156 2.025 . S
C158 O164 1.268 . S
C158 O174 1.268 . S
C159 O165 1.268 . S
C159 O173 1.268 . S
C160 O166 1.268 . S
C160 O175 1.268 . S
C161 O167 1.268 . S
C161 O171 1.268 . S
C162 O168 1.268 . S
C162 O170 1.268 . S
C163 O169 1.268 . S
C163 O172 1.268 . S
O164 Sc154 2.105 . S
O164 C158 1.268 . S
O165 Sc155 2.105 . S
O165 C159 1.268 . S
O166 Sc156 2.105 . S
O166 C160 1.268 . S
O167 Sc154 2.105 . S
O167 C161 1.268 . S
O168 Sc156 2.105 . S
O168 C162 1.268 . S
O169 Sc155 2.105 . S
O169 C163 1.268 . S
O170 Sc154 2.105 . S
O170 C162 1.268 . S
O171 Sc155 2.105 . S
O171 C161 1.268 . S
O172 Sc156 2.105 . S
O172 C163 1.268 . S
O173 Sc154 2.105 . S
O173 C159 1.268 . S
O174 Sc156 2.105 . S
O174 C158 1.268 . S
O175 Sc155 2.105 . S
O175 C160 1.268 . S
C176 C177 1.387 . S
C176 H180 0.950 . S
C176 C185 1.390 . S
C177 C176 1.387 . S
C177 C179 1.387 . S
H178 C185 0.950 . S
C179 C177 1.387 . S
C179 C181 1.390 . S
C179 H183 0.950 . S
H180 C176 0.950 . S
C181 C179 1.390 . S
C181 C182 1.387 . S
C181 H184 0.950 . S
C182 C181 1.387 . S
C182 C185 1.387 . S
H183 C179 0.950 . S
H184 C181 0.950 . S
C185 C176 1.390 . S
C185 H178 0.950 . S
C185 C182 1.387 . S
C186 C187 1.387 . S
C186 H190 0.950 . S
C186 C195 1.390 . S
C187 C186 1.387 . S
C187 C189 1.387 . S
H188 C195 0.950 . S
C189 C187 1.387 . S
C189 C191 1.390 . S
C189 H193 0.950 . S
H190 C186 0.950 . S
C191 C189 1.390 . S
C191 C192 1.387 . S
C191 H194 0.950 . S
C192 C191 1.387 . S
C192 C195 1.387 . S
H193 C189 0.950 . S
H194 C191 0.950 . S
C195 C186 1.390 . S
C195 H188 0.950 . S
C195 C192 1.387 . S
C196 C197 1.387 . S
C196 H200 0.950 . S
C196 C205 1.390 . S
C197 C196 1.387 . S
C197 C199 1.387 . S
H198 C205 0.950 . S
C199 C197 1.387 . S
C199 C201 1.390 . S
C199 H203 0.950 . S
H200 C196 0.950 . S
C201 C199 1.390 . S
C201 C202 1.387 . S
C201 H204 0.950 . S
C202 C201 1.387 . S
C202 C205 1.387 . S
H203 C199 0.950 . S
H204 C201 0.950 . S
C205 C196 1.390 . S
C205 H198 0.950 . S
C205 C202 1.387 . S
C206 C207 1.387 . S
C206 H210 0.950 . S
C206 C215 1.390 . S
C207 C206 1.387 . S
C207 C209 1.387 . S
H208 C215 0.950 . S
C209 C207 1.387 . S
C209 C211 1.390 . S
C209 H213 0.950 . S
H210 C206 0.950 . S
C211 C209 1.390 . S
C211 C212 1.387 . S
C211 H214 0.950 . S
C212 C211 1.387 . S
C212 C215 1.387 . S
H213 C209 0.950 . S
H214 C211 0.950 . S
C215 C206 1.390 . S
C215 H208 0.950 . S
C215 C212 1.387 . S
C216 C217 1.387 . S
C216 H220 0.950 . S
C216 C225 1.390 . S
C217 C216 1.387 . S
C217 C219 1.387 . S
H218 C225 0.950 . S
C219 C217 1.387 . S
C219 C221 1.390 . S
C219 H223 0.950 . S
H220 C216 0.950 . S
C221 C219 1.390 . S
C221 C222 1.387 . S
C221 H224 0.950 . S
C222 C221 1.387 . S
C222 C225 1.387 . S
H223 C219 0.950 . S
H224 C221 0.950 . S
C225 C216 1.390 . S
C225 H218 0.950 . S
C225 C222 1.387 . S
C226 C227 1.387 . S
C226 H230 0.950 . S
C226 C235 1.390 . S
C227 C226 1.387 . S
C227 C229 1.387 . S
H228 C235 0.950 . S
C229 C227 1.387 . S
C229 C231 1.390 . S
C229 H233 0.950 . S
H230 C226 0.950 . S
C231 C229 1.390 . S
C231 C232 1.387 . S
C231 H234 0.950 . S
C232 C231 1.387 . S
C232 C235 1.387 . S
H233 C229 0.950 . S
H234 C231 0.950 . S
C235 C226 1.390 . S
C235 H228 0.950 . S
C235 C232 1.387 . S
C236 C237 1.387 . S
C236 H240 0.950 . S
C236 C245 1.390 . S
C237 C236 1.387 . S
C237 C239 1.387 . S
H238 C245 0.950 . S
C239 C237 1.387 . S
C239 C241 1.390 . S
C239 H243 0.950 . S
H240 C236 0.950 . S
C241 C239 1.390 . S
C241 C242 1.387 . S
C241 H244 0.950 . S
C242 C241 1.387 . S
C242 C245 1.387 . S
H243 C239 0.950 . S
H244 C241 0.950 . S
C245 C236 1.390 . S
C245 H238 0.950 . S
C245 C242 1.387 . S
C246 C247 1.387 . S
C246 H250 0.950 . S
C246 C255 1.390 . S
C247 C246 1.387 . S
C247 C249 1.387 . S
H248 C255 0.950 . S
C249 C247 1.387 . S
C249 C251 1.390 . S
C249 H253 0.950 . S
H250 C246 0.950 . S
C251 C249 1.390 . S
C251 C252 1.387 . S
C251 H254 0.950 . S
C252 C251 1.387 . S
C252 C255 1.387 . S
H253 C249 0.950 . S
H254 C251 0.950 . S
C255 C246 1.390 . S
C255 H248 0.950 . S
C255 C252 1.387 . S
C256 C257 1.387 . S
C256 H260 0.950 . S
C256 C265 1.390 . S
C257 C256 1.387 . S
C257 C259 1.387 . S
H258 C265 0.950 . S
C259 C257 1.387 . S
C259 C261 1.390 . S
C259 H263 0.950 1_556 S
H260 C256 0.950 . S
C261 C259 1.390 . S
C261 C262 1.387 . S
C261 H264 0.950 . S
C262 C261 1.387 . S
C262 C265 1.387 . S
H263 C259 0.950 1_554 S
H264 C261 0.950 . S
C265 C256 1.390 . S
C265 H258 0.950 . S
C265 C262 1.387 . S
C266 C267 1.387 . S
C266 H270 0.950 . S
C266 C275 1.390 . S
C267 C266 1.387 . S
C267 C269 1.387 . S
H268 C275 0.950 . S
C269 C267 1.387 . S
C269 C271 1.390 . S
C269 H273 0.950 . S
H270 C266 0.950 . S
C271 C269 1.390 . S
C271 C272 1.387 . S
C271 H274 0.950 . S
C272 C271 1.387 . S
C272 C275 1.387 . S
H273 C269 0.950 . S
H274 C271 0.950 . S
C275 C266 1.390 . S
C275 H268 0.950 . S
C275 C272 1.387 . S
C276 C277 1.387 . S
C276 H280 0.950 . S
C276 C285 1.390 . S
C277 C276 1.387 . S
C277 C279 1.387 . S
H278 C285 0.950 . S
C279 C277 1.387 . S
C279 C281 1.390 . S
C279 H283 0.950 1_556 S
H280 C276 0.950 . S
C281 C279 1.390 . S
C281 C282 1.387 . S
C281 H284 0.950 . S
C282 C281 1.387 . S
C282 C285 1.387 . S
H283 C279 0.950 1_554 S
H284 C281 0.950 . S
C285 C276 1.390 . S
C285 H278 0.950 . S
C285 C282 1.387 . S
C286 C287 1.387 . S
C286 H290 0.950 . S
C286 C295 1.390 . S
C287 C286 1.387 . S
C287 C289 1.387 . S
H288 C295 0.950 . S
C289 C287 1.387 . S
C289 C291 1.390 . S
C289 H293 0.950 . S
H290 C286 0.950 . S
C291 C289 1.390 . S
C291 C292 1.387 . S
C291 H294 0.950 . S
C292 C291 1.387 . S
C292 C295 1.387 . S
H293 C289 0.950 . S
H294 C291 0.950 . S
C295 C286 1.390 . S
C295 H288 0.950 . S
C295 C292 1.387 . S
C296 C297 1.387 . S
C296 H300 0.950 . S
C296 C305 1.390 . S
C297 C296 1.387 . S
C297 C299 1.387 1_565 S
H298 C305 0.950 . S
C299 C297 1.387 1_545 S
C299 C301 1.390 . S
C299 H303 0.950 . S
H300 C296 0.950 . S
C301 C299 1.390 . S
C301 C302 1.387 . S
C301 H304 0.950 . S
C302 C301 1.387 . S
C302 C305 1.387 1_545 S
H303 C299 0.950 . S
H304 C301 0.950 . S
C305 C296 1.390 . S
C305 H298 0.950 . S
C305 C302 1.387 1_565 S
C306 C307 1.387 . S
C306 H310 0.950 . S
C306 C315 1.390 . S
C307 C306 1.387 . S
C307 C309 1.387 1_545 S
H308 C315 0.950 . S
C309 C307 1.387 1_565 S
C309 C311 1.390 . S
C309 H313 0.950 . S
H310 C306 0.950 . S
C311 C309 1.390 . S
C311 C312 1.387 . S
C311 H314 0.950 . S
C312 C311 1.387 . S
C312 C315 1.387 1_565 S
H313 C309 0.950 . S
H314 C311 0.950 . S
C315 C306 1.390 . S
C315 H308 0.950 . S
C315 C312 1.387 1_545 S
C316 C317 1.387 . S
C316 H320 0.950 . S
C316 C325 1.390 1_565 S
C317 C316 1.387 . S
C317 C319 1.387 1_565 S
H318 C325 0.950 . S
C319 C317 1.387 1_545 S
C319 C321 1.390 . S
C319 H323 0.950 1_556 S
H320 C316 0.950 . S
C321 C319 1.390 . S
C321 C322 1.387 . S
C321 H324 0.950 . S
C322 C321 1.387 . S
C322 C325 1.387 . S
H323 C319 0.950 1_554 S
H324 C321 0.950 . S
C325 C316 1.390 1_545 S
C325 H318 0.950 . S
C325 C322 1.387 . S
C326 C327 1.387 . S
C326 H330 0.950 . S
C326 C335 1.390 . S
C327 C326 1.387 . S
C327 C329 1.387 1_545 S
H328 C335 0.950 . S
C329 C327 1.387 1_565 S
C329 C331 1.390 . S
C329 H333 0.950 . S
H330 C326 0.950 . S
C331 C329 1.390 . S
C331 C332 1.387 . S
C331 H334 0.950 . S
C332 C331 1.387 . S
C332 C335 1.387 1_565 S
H333 C329 0.950 . S
H334 C331 0.950 . S
C335 C326 1.390 . S
C335 H328 0.950 . S
C335 C332 1.387 1_545 S
C336 C337 1.387 . S
C336 H340 0.950 . S
C336 C345 1.390 . S
C337 C336 1.387 . S
C337 C339 1.387 . S
H338 C345 0.950 . S
C339 C337 1.387 . S
C339 C341 1.390 . S
C339 H343 0.950 . S
H340 C336 0.950 . S
C341 C339 1.390 . S
C341 C342 1.387 . S
C341 H344 0.950 . S
C342 C341 1.387 . S
C342 C345 1.387 . S
H343 C339 0.950 . S
H344 C341 0.950 . S
C345 C336 1.390 . S
C345 H338 0.950 . S
C345 C342 1.387 . S
C346 C347 1.387 . S
C346 H350 0.950 . S
C346 C355 1.390 . S
C347 C346 1.387 . S
C347 C349 1.387 . S
H348 C355 0.950 . S
C349 C347 1.387 . S
C349 C351 1.390 . S
C349 H353 0.950 . S
H350 C346 0.950 . S
C351 C349 1.390 . S
C351 C352 1.387 . S
C351 H354 0.950 . S
C352 C351 1.387 . S
C352 C355 1.387 . S
H353 C349 0.950 . S
H354 C351 0.950 . S
C355 C346 1.390 . S
C355 H348 0.950 . S
C355 C352 1.387 . S
C356 C357 1.387 . S
C356 H360 0.950 . S
C356 C365 1.390 . S
C357 C356 1.387 . S
C357 C359 1.387 . S
H358 C365 0.950 . S
C359 C357 1.387 . S
C359 C361 1.390 . S
C359 H363 0.950 . S
H360 C356 0.950 . S
C361 C359 1.390 . S
C361 C362 1.387 . S
C361 H364 0.950 . S
C362 C361 1.387 . S
C362 C365 1.387 . S
H363 C359 0.950 . S
H364 C361 0.950 . S
C365 C356 1.390 . S
C365 H358 0.950 . S
C365 C362 1.387 . S
C366 C367 1.387 . S
C366 H370 0.950 . S
C366 C375 1.390 . S
C367 C366 1.387 . S
C367 C369 1.387 . S
H368 C375 0.950 . S
C369 C367 1.387 . S
C369 C371 1.390 . S
C369 H373 0.950 . S
H370 C366 0.950 . S
C371 C369 1.390 . S
C371 C372 1.387 . S
C371 H374 0.950 . S
C372 C371 1.387 . S
C372 C375 1.387 . S
H373 C369 0.950 . S
H374 C371 0.950 . S
C375 C366 1.390 . S
C375 H368 0.950 . S
C375 C372 1.387 . S
C376 C377 1.387 . S
C376 H380 0.950 . S
C376 C385 1.390 . S
C377 C376 1.387 . S
C377 C379 1.387 . S
H378 C385 0.950 . S
C379 C377 1.387 . S
C379 C381 1.390 . S
C379 H383 0.950 . S
H380 C376 0.950 . S
C381 C379 1.390 . S
C381 C382 1.387 . S
C381 H384 0.950 . S
C382 C381 1.387 . S
C382 C385 1.387 . S
H383 C379 0.950 . S
H384 C381 0.950 . S
C385 C376 1.390 . S
C385 H378 0.950 . S
C385 C382 1.387 . S
C386 C387 1.387 . S
C386 H390 0.950 . S
C386 C395 1.390 . S
C387 C386 1.387 . S
C387 C389 1.387 . S
H388 C395 0.950 . S
C389 C387 1.387 . S
C389 C391 1.390 . S
C389 H393 0.950 . S
H390 C386 0.950 . S
C391 C389 1.390 . S
C391 C392 1.387 . S
C391 H394 0.950 . S
C392 C391 1.387 . S
C392 C395 1.387 . S
H393 C389 0.950 . S
H394 C391 0.950 . S
C395 C386 1.390 . S
C395 H388 0.950 . S
C395 C392 1.387 . S
C396 C397 1.387 . S
C396 H400 0.950 . S
C396 C405 1.390 . S
C397 C396 1.387 . S
C397 C399 1.387 . S
H398 C405 0.950 . S
C399 C397 1.387 . S
C399 C401 1.390 . S
C399 H403 0.950 . S
H400 C396 0.950 . S
C401 C399 1.390 . S
C401 C402 1.387 . S
C401 H404 0.950 . S
C402 C401 1.387 . S
C402 C405 1.387 . S
H403 C399 0.950 . S
H404 C401 0.950 . S
C405 C396 1.390 . S
C405 H398 0.950 . S
C405 C402 1.387 . S
C406 C407 1.387 . S
C406 H410 0.950 . S
C406 C415 1.390 . S
C407 C406 1.387 . S
C407 C409 1.387 . S
H408 C415 0.950 . S
C409 C407 1.387 . S
C409 C411 1.390 . S
C409 H413 0.950 . S
H410 C406 0.950 . S
C411 C409 1.390 . S
C411 C412 1.387 . S
C411 H414 0.950 . S
C412 C411 1.387 . S
C412 C415 1.387 . S
H413 C409 0.950 . S
H414 C411 0.950 . S
C415 C406 1.390 . S
C415 H408 0.950 . S
C415 C412 1.387 . S
C177 C8 1.660 . S
C182 C114 1.663 . S
C192 C92 1.421 . S
C187 C19 1.463 . S
C202 C118 1.520 . S
C197 C30 1.561 . S
C212 C96 1.525 . S
C207 C41 1.559 . S
C222 C158 1.663 . S
C217 C52 1.661 . S
C232 C136 1.421 . S
C227 C63 1.464 . S
C237 C74 1.561 . S
C242 C162 1.518 . S
C252 C140 1.525 . S
C247 C85 1.559 . S
C257 C7 1.658 . S
C262 C163 1.729 . S
C272 C141 1.380 . S
C267 C16 1.295 . S
C277 C29 1.598 . S
C282 C160 1.590 . S
C287 C40 1.532 . S
C292 C138 1.520 . S
C302 C119 1.729 . S
C297 C51 1.658 . S
C307 C60 1.296 . S
C312 C97 1.380 . S
C322 C116 1.590 . S
C317 C73 1.598 . S
C332 C94 1.520 . S
C327 C84 1.531 . S
C342 C137 1.473 . S
C337 C5 1.206 . S
C352 C159 1.487 . S
C347 C18 1.499 . S
C357 C27 1.387 . S
C362 C139 1.478 . S
C372 C161 1.488 . S
C367 C38 1.390 . S
C382 C93 1.471 . S
C377 C49 1.211 . S
C387 C62 1.499 . S
C392 C115 1.487 . S
C397 C71 1.385 . S
C402 C95 1.478 . S
C407 C82 1.389 . S
C412 C117 1.486 . S
