# Generated by pormake.
# Topology ocu, (6,8)-cn, num edge types: 1
# Building blocks:
#     Node 0, Type 0, BuildingBlock: KUMJIN_clean_sbu_0, # of connection points: 6
#     Node 1, Type 0, BuildingBlock: KUMJIN_clean_sbu_0, # of connection points: 6
#     Node 2, Type 0, BuildingBlock: KUMJIN_clean_sbu_0, # of connection points: 6
#     Node 3, Type 0, BuildingBlock: KUMJIN_clean_sbu_0, # of connection points: 6
#     Node 4, Type 0, BuildingBlock: KUMJIN_clean_sbu_0, # of connection points: 6
#     Node 5, Type 0, BuildingBlock: KUMJIN_clean_sbu_0, # of connection points: 6
#     Node 6, Type 0, BuildingBlock: KUMJIN_clean_sbu_0, # of connection points: 6
#     Node 7, Type 0, BuildingBlock: KUMJIN_clean_sbu_0, # of connection points: 6
#     Node 8, Type 1, BuildingBlock: GIZVER_clean_sbu_0, # of connection points: 8
#     Node 9, Type 1, BuildingBlock: GIZVER_clean_sbu_0, # of connection points: 8
#     Node 10, Type 1, BuildingBlock: GIZVER_clean_sbu_0, # of connection points: 8
#     Node 11, Type 1, BuildingBlock: GIZVER_clean_sbu_0, # of connection points: 8
#     Node 12, Type 1, BuildingBlock: GIZVER_clean_sbu_0, # of connection points: 8
#     Node 13, Type 1, BuildingBlock: GIZVER_clean_sbu_0, # of connection points: 8
#     Edge 14, Type (0, 1), BuildingBlock: OJICUG_clean_linker_0, # of connection points: 2
#     Edge 15, Type (0, 1), BuildingBlock: OJICUG_clean_linker_0, # of connection points: 2
#     Edge 16, Type (0, 1), BuildingBlock: OJICUG_clean_linker_0, # of connection points: 2
#     Edge 17, Type (0, 1), BuildingBlock: OJICUG_clean_linker_0, # of connection points: 2
#     Edge 18, Type (0, 1), BuildingBlock: OJICUG_clean_linker_0, # of connection points: 2
#     Edge 19, Type (0, 1), BuildingBlock: OJICUG_clean_linker_0, # of connection points: 2
#     Edge 20, Type (0, 1), BuildingBlock: OJICUG_clean_linker_0, # of connection points: 2
#     Edge 21, Type (0, 1), BuildingBlock: OJICUG_clean_linker_0, # of connection points: 2
#     Edge 22, Type (0, 1), BuildingBlock: OJICUG_clean_linker_0, # of connection points: 2
#     Edge 23, Type (0, 1), BuildingBlock: OJICUG_clean_linker_0, # of connection points: 2
#     Edge 24, Type (0, 1), BuildingBlock: OJICUG_clean_linker_0, # of connection points: 2
#     Edge 25, Type (0, 1), BuildingBlock: OJICUG_clean_linker_0, # of connection points: 2
#     Edge 26, Type (0, 1), BuildingBlock: OJICUG_clean_linker_0, # of connection points: 2
#     Edge 27, Type (0, 1), BuildingBlock: OJICUG_clean_linker_0, # of connection points: 2
#     Edge 28, Type (0, 1), BuildingBlock: OJICUG_clean_linker_0, # of connection points: 2
#     Edge 29, Type (0, 1), BuildingBlock: OJICUG_clean_linker_0, # of connection points: 2
#     Edge 30, Type (0, 1), BuildingBlock: OJICUG_clean_linker_0, # of connection points: 2
#     Edge 31, Type (0, 1), BuildingBlock: OJICUG_clean_linker_0, # of connection points: 2
#     Edge 32, Type (0, 1), BuildingBlock: OJICUG_clean_linker_0, # of connection points: 2
#     Edge 33, Type (0, 1), BuildingBlock: OJICUG_clean_linker_0, # of connection points: 2
#     Edge 34, Type (0, 1), BuildingBlock: OJICUG_clean_linker_0, # of connection points: 2
#     Edge 35, Type (0, 1), BuildingBlock: OJICUG_clean_linker_0, # of connection points: 2
#     Edge 36, Type (0, 1), BuildingBlock: OJICUG_clean_linker_0, # of connection points: 2
#     Edge 37, Type (0, 1), BuildingBlock: OJICUG_clean_linker_0, # of connection points: 2
#     Edge 38, Type (0, 1), BuildingBlock: OJICUG_clean_linker_0, # of connection points: 2
#     Edge 39, Type (0, 1), BuildingBlock: OJICUG_clean_linker_0, # of connection points: 2
#     Edge 40, Type (0, 1), BuildingBlock: OJICUG_clean_linker_0, # of connection points: 2
#     Edge 41, Type (0, 1), BuildingBlock: OJICUG_clean_linker_0, # of connection points: 2
#     Edge 42, Type (0, 1), BuildingBlock: OJICUG_clean_linker_0, # of connection points: 2
#     Edge 43, Type (0, 1), BuildingBlock: OJICUG_clean_linker_0, # of connection points: 2
#     Edge 44, Type (0, 1), BuildingBlock: OJICUG_clean_linker_0, # of connection points: 2
#     Edge 45, Type (0, 1), BuildingBlock: OJICUG_clean_linker_0, # of connection points: 2
#     Edge 46, Type (0, 1), BuildingBlock: OJICUG_clean_linker_0, # of connection points: 2
#     Edge 47, Type (0, 1), BuildingBlock: OJICUG_clean_linker_0, # of connection points: 2
#     Edge 48, Type (0, 1), BuildingBlock: OJICUG_clean_linker_0, # of connection points: 2
#     Edge 49, Type (0, 1), BuildingBlock: OJICUG_clean_linker_0, # of connection points: 2
#     Edge 50, Type (0, 1), BuildingBlock: OJICUG_clean_linker_0, # of connection points: 2
#     Edge 51, Type (0, 1), BuildingBlock: OJICUG_clean_linker_0, # of connection points: 2
#     Edge 52, Type (0, 1), BuildingBlock: OJICUG_clean_linker_0, # of connection points: 2
#     Edge 53, Type (0, 1), BuildingBlock: OJICUG_clean_linker_0, # of connection points: 2
#     Edge 54, Type (0, 1), BuildingBlock: OJICUG_clean_linker_0, # of connection points: 2
#     Edge 55, Type (0, 1), BuildingBlock: OJICUG_clean_linker_0, # of connection points: 2
#     Edge 56, Type (0, 1), BuildingBlock: OJICUG_clean_linker_0, # of connection points: 2
#     Edge 57, Type (0, 1), BuildingBlock: OJICUG_clean_linker_0, # of connection points: 2
#     Edge 58, Type (0, 1), BuildingBlock: OJICUG_clean_linker_0, # of connection points: 2
#     Edge 59, Type (0, 1), BuildingBlock: OJICUG_clean_linker_0, # of connection points: 2
#     Edge 60, Type (0, 1), BuildingBlock: OJICUG_clean_linker_0, # of connection points: 2
#     Edge 61, Type (0, 1), BuildingBlock: OJICUG_clean_linker_0, # of connection points: 2
# Relax obj value: 0.183
# Max RMSD: 0.290
# Mean RMSD: 0.215
data_MOF--net-ocu--node1-KUMJIN_clean_sbu_0--node2-GIZVER_clean_sbu_0--edge1-OJICUG_clean_linker_0
_symmetry_space_group_name_H-M    P1
_symmetry_Int_Tables_number       1
_symmetry_cell_setting            triclinic
loop_
_symmetry_equiv_pos_as_xyz
'x, y, z'
_cell_length_a     33.19588
_cell_length_b     34.515829
_cell_length_c     27.304076
_cell_angle_alpha  75.424501
_cell_angle_beta   103.57159
_cell_angle_gamma 117.58964
loop_
_atom_site_label
_atom_site_type_symbol
_atom_site_fract_x
_atom_site_fract_y
_atom_site_fract_z
_atom_type_partial_charge
Eu0 Eu 0.26636 0.23304 0.19628 0.0
C1 C 0.41916 0.35027 0.33674 0.0
C2 C 0.43269 0.2935 0.40135 0.0
C3 C 0.49621 0.36521 0.38076 0.0
C4 C 0.40278 0.3077 0.36435 0.0
C5 C 0.46567 0.38009 0.34614 0.0
C6 C 0.47983 0.32178 0.40786 0.0
C7 C 0.4473 0.43793 0.28997 0.0
N8 N 0.3889 0.36335 0.30297 0.0
C9 C 0.40155 0.40699 0.28164 0.0
C10 C 0.47971 0.42424 0.32157 0.0
Eu11 Eu 0.31318 0.30777 0.28941 0.0
N12 N 0.35711 0.28115 0.35729 0.0
C13 C 0.33817 0.2426 0.39016 0.0
C14 C 0.41406 0.25174 0.43156 0.0
C15 C 0.36646 0.22704 0.42766 0.0
H16 H 0.37648 0.41744 0.25698 0.0
H17 H 0.35166 0.19535 0.45204 0.0
H18 H 0.50365 0.31099 0.43501 0.0
H19 H 0.45755 0.47222 0.27191 0.0
H20 H 0.30147 0.22281 0.38582 0.0
H21 H 0.27281 0.36237 0.02957 0.0
H22 H 0.43614 0.23868 0.45822 0.0
H23 H 0.17547 0.13237 0.22175 0.0
H24 H 0.30459 0.32196 0.10236 0.0
H25 H 0.09158 0.09863 0.19976 0.0
H26 H 0.53231 0.38732 0.38778 0.0
H27 H 0.18897 0.33614 0.0073 0.0
H28 H 0.10991 0.27873 0.02383 0.0
H29 H 0.51514 0.44824 0.32795 0.0
H30 H 0.0607 0.20786 0.07061 0.0
N31 N 0.23934 0.27268 0.12239 0.0
C32 C 0.26789 0.3095 0.09335 0.0
C33 C 0.20263 0.31778 0.03917 0.0
C34 C 0.17352 0.2789 0.06734 0.0
C35 C 0.25 0.33272 0.05172 0.0
C36 C 0.19312 0.25649 0.10904 0.0
H37 H 0.05346 0.14038 0.13588 0.0
N38 N 0.18524 0.19473 0.17412 0.0
C39 C 0.11176 0.13209 0.18201 0.0
C40 C 0.16529 0.21666 0.13599 0.0
C41 C 0.15942 0.15168 0.19469 0.0
C42 C 0.09042 0.15573 0.14597 0.0
C43 C 0.11723 0.19801 0.12145 0.0
O44 O 0.24988 0.16997 0.17576 0.0
O45 O 0.31428 0.24789 0.27011 0.0
O46 O 0.3675 0.33483 0.23803 0.0
O47 O 0.33561 0.28794 0.1771 0.0
O48 O 0.29875 0.18938 0.24837 0.0
O49 O 0.29971 0.23104 0.13686 0.0
O50 O 0.28897 0.35491 0.29686 0.0
O51 O 0.25695 0.28715 0.22127 0.0
O52 O 0.22548 0.19652 0.26176 0.0
O53 O 0.24877 0.24899 0.3143 0.0
O54 O 0.2989 0.35429 0.2203 0.0
O55 O 0.30202 0.31175 0.3639 0.0
C56 C 0.32452 0.21422 0.28182 0.0
C57 C 0.27214 0.16413 0.10224 0.0
C58 C 0.29959 0.12541 0.0642 0.0
C59 C 0.30605 0.15145 0.1 0.0
C60 C 0.25811 0.11205 0.03057 0.0
C61 C 0.23117 0.15088 0.06839 0.0
C62 C 0.22433 0.12496 0.03255 0.0
C63 C 0.36878 0.32233 0.19689 0.0
C64 C 0.27951 0.18774 0.14349 0.0
C65 C 0.09755 0.22133 0.08175 0.0
C66 C 0.12564 0.26168 0.05485 0.0
C67 C 0.2623 0.32627 0.19706 0.0
C68 C 0.30932 0.38126 0.37476 0.0
C69 C 0.27973 0.39549 0.38647 0.0
C70 C 0.29721 0.43351 0.40976 0.0
C71 C 0.34521 0.45699 0.42055 0.0
C72 C 0.35676 0.40413 0.38818 0.0
C73 C 0.37453 0.44194 0.41062 0.0
C74 C 0.22151 0.21001 0.30056 0.0
C75 C 0.28995 0.34408 0.34604 0.0
H76 H 0.33721 0.16113 0.12717 0.0
H77 H 0.25201 0.0923 0.00217 0.0
H78 H 0.20449 0.16004 0.07016 0.0
H79 H 0.19268 0.11468 0.00633 0.0
H80 H 0.24307 0.37638 0.37774 0.0
H81 H 0.36039 0.48708 0.43674 0.0
H82 H 0.38009 0.39311 0.38093 0.0
H83 H 0.41128 0.45992 0.42004 0.0
Eu84 Eu 0.82312 0.24336 0.27241 0.0
C85 C 0.66074 0.27492 0.24576 0.0
C86 C 0.61281 0.26775 0.16336 0.0
C87 C 0.57742 0.24138 0.24082 0.0
C88 C 0.6565 0.28037 0.19311 0.0
C89 C 0.62107 0.2567 0.26995 0.0
C90 C 0.5733 0.24692 0.18759 0.0
C91 C 0.67024 0.27554 0.34883 0.0
N92 N 0.70352 0.2907 0.27277 0.0
C93 C 0.70853 0.29336 0.3233 0.0
C94 C 0.62636 0.25614 0.32237 0.0
Eu95 Eu 0.76537 0.31308 0.2254 0.0
N96 N 0.6952 0.30104 0.17069 0.0
C97 C 0.69293 0.31374 0.11881 0.0
C98 C 0.61016 0.27779 0.11008 0.0
C99 C 0.65044 0.30157 0.08775 0.0
H100 H 0.74164 0.30789 0.34539 0.0
H101 H 0.64876 0.30986 0.04664 0.0
H102 H 0.53944 0.23638 0.16541 0.0
H103 H 0.6747 0.27662 0.38912 0.0
H104 H 0.72406 0.33135 0.10135 0.0
H105 H 1.00874 0.33645 0.32319 0.0
H106 H 0.57727 0.26843 0.08592 0.0
H107 H 0.77868 0.16841 0.18719 0.0
H108 H 0.92859 0.29272 0.33916 0.0
H109 H 0.79355 0.16539 0.10514 0.0
H110 H 0.54667 0.22672 0.25891 0.0
H111 H 1.02951 0.34497 0.23857 0.0
H112 H 1.00508 0.32505 0.15064 0.0
H113 H 0.5968 0.24242 0.34232 0.0
H114 H 0.94518 0.2798 0.08959 0.0
N115 N 0.90279 0.27942 0.26307 0.0
C116 C 0.93664 0.29722 0.30149 0.0
C117 C 0.99404 0.32609 0.24522 0.0
C118 C 0.95998 0.30463 0.20741 0.0
C119 C 0.98242 0.32149 0.2929 0.0
C120 C 0.91422 0.28054 0.21802 0.0
H121 H 0.86619 0.2196 0.07242 0.0
N122 N 0.83824 0.22914 0.19792 0.0
C123 C 0.81791 0.19178 0.12604 0.0
C124 C 0.88062 0.25524 0.18385 0.0
C125 C 0.80892 0.19466 0.17223 0.0
C126 C 0.85896 0.22228 0.10783 0.0
C127 C 0.89184 0.25325 0.13794 0.0
O128 O 0.80423 0.17223 0.29037 0.0
O129 O 0.75697 0.24655 0.27257 0.0
O130 O 0.80215 0.32584 0.30474 0.0
O131 O 0.86 0.30415 0.31317 0.0
O132 O 0.79099 0.23209 0.34269 0.0
O133 O 0.85712 0.21577 0.34036 0.0
O134 O 0.81996 0.37927 0.23435 0.0
O135 O 0.83113 0.30922 0.22687 0.0
O136 O 0.75541 0.20834 0.22107 0.0
O137 O 0.73746 0.26433 0.17022 0.0
O138 O 0.79835 0.32458 0.15576 0.0
O139 O 0.7539 0.37269 0.19443 0.0
C140 C 0.75299 0.23369 0.31985 0.0
C141 C 0.80576 0.14746 0.37995 0.0
C142 C 0.81238 0.11881 0.47137 0.0
C143 C 0.83252 0.1452 0.42735 0.0
C144 C 0.76446 0.09657 0.46781 0.0
C145 C 0.75784 0.12416 0.37667 0.0
C146 C 0.73755 0.09923 0.42057 0.0
C147 C 0.84319 0.32814 0.32529 0.0
C148 C 0.82902 0.17504 0.33517 0.0
C149 C 0.9363 0.2802 0.12516 0.0
C150 C 0.97042 0.30578 0.15998 0.0
C151 C 0.83572 0.32193 0.1798 0.0
C152 C 0.81971 0.42778 0.15688 0.0
C153 C 0.79287 0.42877 0.10928 0.0
C154 C 0.81279 0.45093 0.06434 0.0
C155 C 0.86061 0.47372 0.06721 0.0
C156 C 0.86777 0.45041 0.15941 0.0
C157 C 0.888 0.47318 0.11476 0.0
C158 C 0.73261 0.22317 0.17995 0.0
C159 C 0.79738 0.39929 0.20227 0.0
H160 H 0.86956 0.16151 0.42886 0.0
H161 H 0.74817 0.07477 0.50067 0.0
H162 H 0.73616 0.12486 0.34037 0.0
H163 H 0.70099 0.08033 0.41766 0.0
H164 H 0.75581 0.41294 0.10708 0.0
H165 H 0.8765 0.49245 0.03314 0.0
H166 H 0.88963 0.44992 0.19568 0.0
H167 H 0.92498 0.49059 0.11706 0.0
Eu168 Eu 0.75733 0.74773 0.30057 0.0
C169 C 0.83281 0.88358 0.14017 0.0
C170 C 0.76811 0.86567 0.07291 0.0
C171 C 0.81612 0.94249 0.08272 0.0
C172 C 0.79515 0.85233 0.11549 0.0
C173 C 0.84473 0.9292 0.12274 0.0
C174 C 0.77781 0.91068 0.05798 0.0
C175 C 0.91547 0.94526 0.1805 0.0
N176 N 0.8599 0.86956 0.17834 0.0
C177 C 0.90234 0.89976 0.19609 0.0
C178 C 0.88601 0.9601 0.14454 0.0
Eu179 Eu 0.83151 0.79129 0.20748 0.0
N180 N 0.78632 0.80899 0.13135 0.0
C181 C 0.75481 0.77822 0.10208 0.0
C182 C 0.7328 0.83344 0.04592 0.0
C183 C 0.72688 0.78964 0.05985 0.0
H184 H 0.92649 0.88907 0.22253 0.0
H185 H 0.70125 0.76473 0.03769 0.0
H186 H 0.75664 0.92123 0.02649 0.0
H187 H 0.94853 0.96884 0.19587 0.0
H188 H 0.75181 0.74503 0.10979 0.0
H189 H 0.88431 0.7387 0.46765 0.0
H190 H 0.71114 0.84223 0.01323 0.0
H191 H 0.65046 0.66448 0.27644 0.0
H192 H 0.84232 0.77471 0.40237 0.0
H193 H 0.61328 0.58275 0.29172 0.0
H194 H 0.82419 0.97729 0.06945 0.0
H195 H 0.86042 0.65838 0.47574 0.0
H196 H 0.80244 0.58515 0.4501 0.0
H197 H 0.89641 0.99538 0.13217 0.0
H198 H 0.72755 0.54223 0.40386 0.0
N199 N 0.7951 0.71568 0.37229 0.0
C200 C 0.83104 0.73971 0.40516 0.0
C201 C 0.84089 0.67381 0.44802 0.0
C202 C 0.80135 0.64874 0.41777 0.0
C203 C 0.85478 0.71925 0.44303 0.0
C204 C 0.77838 0.67085 0.38041 0.0
H205 H 0.65602 0.54097 0.34596 0.0
N206 N 0.71462 0.6692 0.31977 0.0
C207 C 0.64833 0.60032 0.30871 0.0
C208 C 0.73703 0.64688 0.35301 0.0
C209 C 0.66965 0.64665 0.30006 0.0
C210 C 0.67256 0.57688 0.33927 0.0
C211 C 0.71708 0.6001 0.36283 0.0
O212 O 0.69987 0.72554 0.34283 0.0
O213 O 0.77721 0.80349 0.23211 0.0
O214 O 0.87136 0.83046 0.27119 0.0
O215 O 0.81716 0.80993 0.32439 0.0
O216 O 0.70768 0.76443 0.23603 0.0
O217 O 0.75497 0.7925 0.34333 0.0
O218 O 0.89758 0.81252 0.18202 0.0
O219 O 0.81185 0.73583 0.27602 0.0
O220 O 0.71852 0.71291 0.23355 0.0
O221 O 0.77849 0.72105 0.1972 0.0
O222 O 0.88086 0.77781 0.27462 0.0
O223 O 0.83821 0.758 0.15347 0.0
C224 C 0.73652 0.79905 0.21025 0.0
C225 C 0.69289 0.77155 0.39161 0.0
C226 C 0.67747 0.82259 0.42331 0.0
C227 C 0.70261 0.81522 0.39483 0.0
C228 C 0.64243 0.78624 0.44797 0.0
C229 C 0.65889 0.73564 0.41818 0.0
C230 C 0.63387 0.74305 0.44629 0.0
C231 C 0.8582 0.83462 0.3106 0.0
C232 C 0.71624 0.76314 0.3587 0.0
C233 C 0.7416 0.57809 0.39696 0.0
C234 C 0.784 0.60248 0.42383 0.0
C235 C 0.85261 0.74155 0.29854 0.0
C236 C 0.9072 0.75056 0.17344 0.0
C237 C 0.90295 0.72342 0.14006 0.0
C238 C 0.92232 0.69293 0.15621 0.0
C239 C 0.94455 0.68853 0.20632 0.0
C240 C 0.93258 0.74782 0.22233 0.0
C241 C 0.94994 0.71616 0.23906 0.0
C242 C 0.73487 0.70122 0.20343 0.0
C243 C 0.88266 0.77913 0.15822 0.0
H244 H 0.72825 0.84324 0.37384 0.0
H245 H 0.62129 0.79143 0.46812 0.0
H246 H 0.65109 0.70181 0.4165 0.0
H247 H 0.6071 0.71526 0.4659 0.0
H248 H 0.88573 0.72679 0.10129 0.0
H249 H 0.96045 0.6658 0.21892 0.0
H250 H 0.9395 0.77014 0.24779 0.0
H251 H 0.96882 0.71395 0.27701 0.0
Eu252 Eu 0.32243 0.73691 0.28202 0.0
C253 C 0.24487 0.84204 0.09541 0.0
C254 C 0.31103 0.90847 0.06881 0.0
C255 C 0.24468 0.87707 0.00616 0.0
C256 C 0.28892 0.87352 0.10709 0.0
C257 C 0.22174 0.84403 0.04505 0.0
C258 C 0.28928 0.90926 0.01803 0.0
C259 C 0.15364 0.78339 0.07628 0.0
N260 N 0.22356 0.81102 0.13401 0.0
C261 C 0.17806 0.78272 0.12556 0.0
C262 C 0.17578 0.81373 0.03568 0.0
Eu263 Eu 0.26749 0.81072 0.21626 0.0
N264 N 0.30856 0.87221 0.15666 0.0
C265 C 0.34743 0.90773 0.17132 0.0
C266 C 0.35329 0.94268 0.08312 0.0
C267 C 0.37089 0.94298 0.13479 0.0
H268 H 0.16088 0.7588 0.15664 0.0
H269 H 0.40268 0.97015 0.1465 0.0
H270 H 0.30597 0.93555 0.98803 0.0
H271 H 0.1179 0.76029 0.0696 0.0
H272 H 0.36148 0.90852 0.21108 0.0
H273 H 0.18353 0.57169 0.3276 0.0
H274 H 0.37173 0.96974 0.05486 0.0
H275 H 0.42366 0.78341 0.35422 0.0
H276 H 0.22541 0.64049 0.2732 0.0
H277 H 0.45923 0.77532 0.44407 0.0
H278 H 0.22769 0.87887 0.96714 0.0
H279 H 0.21126 0.56044 0.41957 0.0
H280 H 0.26968 0.58828 0.49413 0.0
H281 H 0.15681 0.81418 0.99754 0.0
H282 H 0.34416 0.64454 0.52649 0.0
N283 N 0.27681 0.6701 0.33322 0.0
C284 C 0.23839 0.637 0.313 0.0
C285 C 0.22987 0.59105 0.39585 0.0
C286 C 0.2699 0.62394 0.4164 0.0
C287 C 0.21424 0.59736 0.34391 0.0
C288 C 0.2934 0.66329 0.38354 0.0
H289 H 0.41533 0.71408 0.508 0.0
N290 N 0.35911 0.72937 0.36766 0.0
C291 C 0.42424 0.75247 0.4328 0.0
C292 C 0.33549 0.69431 0.40149 0.0
C293 C 0.40389 0.75705 0.38199 0.0
C294 C 0.39934 0.71796 0.46875 0.0
C295 C 0.35486 0.68763 0.45305 0.0
O296 O 0.37846 0.71833 0.28753 0.0
O297 O 0.32626 0.79433 0.21861 0.0
O298 O 0.25429 0.76493 0.16178 0.0
O299 O 0.26093 0.70583 0.22059 0.0
O300 O 0.3875 0.79669 0.2616 0.0
O301 O 0.32143 0.69875 0.22818 0.0
O302 O 0.21045 0.82485 0.22053 0.0
O303 O 0.26606 0.75531 0.28191 0.0
O304 O 0.34455 0.79114 0.3319 0.0
O305 O 0.32613 0.84556 0.27543 0.0
O306 O 0.20328 0.75182 0.24529 0.0
O307 O 0.2799 0.86532 0.25192 0.0
C308 C 0.36961 0.81727 0.22389 0.0
C309 C 0.35895 0.65167 0.25877 0.0
C310 C 0.38156 0.60062 0.23645 0.0
C311 C 0.38257 0.64307 0.22924 0.0
C312 C 0.35627 0.56694 0.2734 0.0
C313 C 0.33474 0.61766 0.29602 0.0
C314 C 0.33323 0.57554 0.30304 0.0
C315 C 0.24532 0.72246 0.17466 0.0
C316 C 0.35942 0.69594 0.25003 0.0
C317 C 0.3301 0.65 0.48668 0.0
C318 C 0.28776 0.61801 0.46828 0.0
C319 C 0.22311 0.73241 0.28216 0.0
C320 C 0.23011 0.8996 0.22512 0.0
C321 C 0.20875 0.9092 0.2557 0.0
C322 C 0.20569 0.94974 0.24471 0.0
C323 C 0.22438 0.981 0.20248 0.0
C324 C 0.24803 0.93057 0.18232 0.0
C325 C 0.2451 0.97116 0.1711 0.0
C326 C 0.34626 0.83182 0.31952 0.0
C327 C 0.23737 0.8593 0.2426 0.0
H328 H 0.40137 0.66926 0.20043 0.0
H329 H 0.35515 0.53417 0.28017 0.0
H330 H 0.31711 0.62358 0.31979 0.0
H331 H 0.31436 0.5495 0.33185 0.0
H332 H 0.19554 0.88545 0.2892 0.0
H333 H 0.22238 1.01253 0.19347 0.0
H334 H 0.26492 0.92383 0.15832 0.0
H335 H 0.25927 0.99517 0.13833 0.0
Eu336 Eu 0.34292 0.72885 0.77855 0.0
C337 C 0.18106 0.75665 0.78805 0.0
C338 C 0.1212 0.74711 0.71504 0.0
C339 C 0.10144 0.72912 0.8007 0.0
C340 C 0.16771 0.75896 0.73574 0.0
C341 C 0.14784 0.74159 0.82108 0.0
C342 C 0.08816 0.73193 0.74782 0.0
C343 C 0.20833 0.7509 0.89241 0.0
N344 N 0.22614 0.76806 0.80675 0.0
C345 C 0.24001 0.76551 0.85839 0.0
C346 C 0.16206 0.73884 0.87374 0.0
Eu347 Eu 0.27667 0.79212 0.74463 0.0
N348 N 0.20017 0.77316 0.70493 0.0
C349 C 0.18904 0.77889 0.65297 0.0
C350 C 0.10929 0.75126 0.6619 0.0
C351 C 0.14346 0.76761 0.63071 0.0
H352 H 0.27512 0.77312 0.87448 0.0
H353 H 0.13473 0.77164 0.58956 0.0
H354 H 0.05226 0.72245 0.73264 0.0
H355 H 0.21962 0.74844 0.93317 0.0
H356 H 0.21553 0.79191 0.62876 0.0
H357 H 0.51126 0.85168 0.72428 0.0
H358 H 0.07395 0.74252 0.64458 0.0
H359 H 0.29104 0.62129 0.76575 0.0
H360 H 0.44716 0.81842 0.77363 0.0
H361 H 0.29241 0.57266 0.71455 0.0
H362 H 0.07553 0.71724 0.82554 0.0
H363 H 0.51315 0.81243 0.66118 0.0
H364 H 0.47764 0.74359 0.62132 0.0
H365 H 0.13757 0.72712 0.90031 0.0
H366 H 0.41814 0.66713 0.61905 0.0
N367 N 0.41075 0.76053 0.73838 0.0
C368 C 0.44669 0.80036 0.74649 0.0
C369 C 0.48451 0.79747 0.6828 0.0
C370 C 0.44931 0.75546 0.67703 0.0
C371 C 0.48361 0.81961 0.71847 0.0
C372 C 0.41279 0.7376 0.7061 0.0
H373 H 0.34966 0.60263 0.65484 0.0
N374 N 0.347 0.67872 0.73563 0.0
C375 C 0.31718 0.60708 0.71131 0.0
C376 C 0.37982 0.69498 0.70492 0.0
C377 C 0.31663 0.63486 0.74044 0.0
C378 C 0.34942 0.62412 0.67756 0.0
C379 C 0.38174 0.66844 0.67456 0.0
O380 O 0.3399 0.67298 0.83929 0.0
O381 O 0.28392 0.73531 0.79835 0.0
O382 O 0.32652 0.81401 0.81658 0.0
O383 O 0.38189 0.79269 0.81169 0.0
O384 O 0.27351 0.67249 0.79435 0.0
O385 O 0.39255 0.73838 0.84798 0.0
O386 O 0.32487 0.86051 0.75267 0.0
O387 O 0.34098 0.7918 0.73418 0.0
O388 O 0.29916 0.71058 0.70364 0.0
O389 O 0.24253 0.7345 0.69772 0.0
O390 O 0.30198 0.80638 0.66843 0.0
O391 O 0.25736 0.84694 0.71226 0.0
C392 C 0.25456 0.69488 0.80229 0.0
C393 C 0.35514 0.69328 0.9195 0.0
C394 C 0.34386 0.65129 0.00499 0.0
C395 C 0.35552 0.65778 0.95634 0.0
C396 C 0.32943 0.68015 0.0157 0.0
C397 C 0.33931 0.72145 0.92961 0.0
C398 C 0.32622 0.71469 0.97745 0.0
C399 C 0.36824 0.8157 0.83038 0.0
C400 C 0.37014 0.6984 0.87079 0.0
C401 C 0.41645 0.68671 0.64326 0.0
C402 C 0.45025 0.73023 0.64449 0.0
C403 C 0.34076 0.80436 0.68628 0.0
C404 C 0.32007 0.90977 0.67754 0.0
C405 C 0.29522 0.90786 0.62851 0.0
C406 C 0.31457 0.93825 0.58597 0.0
C407 C 0.36031 0.96999 0.59301 0.0
C408 C 0.36564 0.94196 0.68401 0.0
C409 C 0.38567 0.9717 0.64183 0.0
C410 C 0.25852 0.71011 0.68433 0.0
C411 C 0.29893 0.87721 0.72141 0.0
H412 H 0.3679 0.63656 0.94768 0.0
H413 H 0.32181 0.67658 0.05347 0.0
H414 H 0.33645 0.74804 0.90079 0.0
H415 H 0.3145 0.7368 0.98514 0.0
H416 H 0.25951 0.88418 0.624 0.0
H417 H 0.37559 0.99457 0.56118 0.0
H418 H 0.38576 0.94398 0.72157 0.0
H419 H 0.42066 0.99672 0.64721 0.0
Eu420 Eu 0.2659 0.23685 0.79884 0.0
C421 C 0.39837 0.38697 0.65486 0.0
C422 C 0.34732 0.3986 0.57941 0.0
C423 C 0.42346 0.4574 0.59697 0.0
C424 C 0.35618 0.37166 0.6247 0.0
C425 C 0.43263 0.42993 0.64122 0.0
C426 C 0.381 0.44168 0.566 0.0
C427 C 0.48362 0.41429 0.71404 0.0
N428 N 0.40665 0.35918 0.6964 0.0
C429 C 0.44879 0.37182 0.72558 0.0
C430 C 0.47547 0.44358 0.67174 0.0
Eu431 Eu 0.34695 0.28729 0.71223 0.0
N432 N 0.32465 0.32966 0.63817 0.0
C433 C 0.28425 0.31199 0.60688 0.0
C434 C 0.30545 0.38086 0.54814 0.0
C435 C 0.27378 0.33744 0.56187 0.0
H436 H 0.45544 0.34919 0.75813 0.0
H437 H 0.24151 0.32337 0.53751 0.0
H438 H 0.37502 0.46288 0.53138 0.0
H439 H 0.5168 0.42428 0.73755 0.0
H440 H 0.25943 0.27837 0.61642 0.0
H441 H 0.36625 0.17813 0.96253 0.0
H442 H 0.2976 0.39979 0.51273 0.0
H443 H 0.15077 0.17738 0.76221 0.0
H444 H 0.33994 0.23253 0.90785 0.0
H445 H 0.09612 0.09913 0.76006 0.0
H446 H 0.44931 0.4905 0.58578 0.0
H447 H 0.32668 0.09975 0.94907 0.0
H448 H 0.25703 0.03966 0.90997 0.0
H449 H 0.50265 0.47634 0.66251 0.0
H450 H 0.18223 1.01782 0.85509 0.0
N451 N 0.28709 0.18618 0.86274 0.0
C452 C 0.32181 0.19853 0.90218 0.0
C453 C 0.3142 0.12343 0.92629 0.0
C454 C 0.27464 0.11001 0.89068 0.0
C455 C 0.33659 0.16753 0.93382 0.0
C456 C 0.26146 0.14262 0.85945 0.0
H457 H 0.12119 0.0397 0.80039 0.0
N458 N 0.20653 0.1627 0.80305 0.0
C459 C 0.13082 0.10743 0.77936 0.0
C460 C 0.21964 0.1304 0.82864 0.0
C461 C 0.16171 0.15174 0.78134 0.0
C462 C 0.14519 0.07402 0.80185 0.0
C463 C 0.18966 0.0852 0.82816 0.0
O464 O 0.21782 0.21995 0.85206 0.0
O465 O 0.28875 0.29518 0.73372 0.0
O466 O 0.36582 0.33637 0.76473 0.0
O467 O 0.33427 0.28547 0.83433 0.0
O468 O 0.21935 0.25726 0.73263 0.0
O469 O 0.26682 0.28738 0.83456 0.0
O470 O 0.40577 0.28003 0.70056 0.0
O471 O 0.32471 0.22951 0.7778 0.0
O472 O 0.23085 0.20179 0.73157 0.0
O473 O 0.28671 0.23056 0.67873 0.0
O474 O 0.39404 0.27158 0.78068 0.0
O475 O 0.34137 0.25467 0.65034 0.0
C476 C 0.24937 0.29259 0.70943 0.0
C477 C 0.19398 0.27612 0.84412 0.0
C478 C 0.16081 0.32071 0.86004 0.0
C479 C 0.19465 0.30486 0.87304 0.0
C480 C 0.12734 0.30878 0.81734 0.0
C481 C 0.15946 0.26367 0.80237 0.0
C482 C 0.12672 0.28037 0.78871 0.0
C483 C 0.36246 0.32542 0.81405 0.0
C484 C 0.23033 0.26087 0.8558 0.0
C485 C 0.20435 0.05269 0.8558 0.0
C486 C 0.24693 0.06511 0.88697 0.0
C487 C 0.36477 0.23501 0.80273 0.0
C488 C 0.4085 0.26776 0.62007 0.0
C489 C 0.4086 0.23172 0.60503 0.0
C490 C 0.43604 0.23883 0.56861 0.0
C491 C 0.46279 0.28278 0.54698 0.0
C492 C 0.43435 0.31113 0.59713 0.0
C493 C 0.46128 0.3185 0.56048 0.0
C494 C 0.24599 0.20262 0.6911 0.0
C495 C 0.38344 0.25897 0.66209 0.0
H496 H 0.22033 0.31369 0.90623 0.0
H497 H 0.10066 0.3203 0.80729 0.0
H498 H 0.15757 0.24098 0.78022 0.0
H499 H 0.10034 0.27064 0.75641 0.0
H500 H 0.38896 0.19826 0.62348 0.0
H501 H 0.48514 0.28965 0.51975 0.0
H502 H 0.43442 0.33914 0.6083 0.0
H503 H 0.4818 0.35204 0.54323 0.0
Eu504 Eu 0.83602 0.2261 0.78358 0.0
C505 C 0.75561 0.32882 0.60899 0.0
C506 C 0.81918 0.39918 0.58562 0.0
C507 C 0.7565 0.36621 0.52042 0.0
C508 C 0.79831 0.36186 0.62245 0.0
C509 C 0.73365 0.33143 0.55799 0.0
C510 C 0.79905 0.40027 0.5343 0.0
C511 C 0.66474 0.27051 0.5864 0.0
N512 N 0.73344 0.29697 0.64659 0.0
C513 C 0.68745 0.27013 0.63644 0.0
C514 C 0.68827 0.30067 0.54676 0.0
Eu515 Eu 0.77646 0.29649 0.73035 0.0
N516 N 0.8171 0.36001 0.6724 0.0
C517 C 0.85377 0.39649 0.68861 0.0
C518 C 0.8583 0.43543 0.60186 0.0
C519 C 0.87524 0.43434 0.65368 0.0
H520 H 0.66859 0.24724 0.6671 0.0
H521 H 0.90472 0.46275 0.66682 0.0
H522 H 0.81518 0.42821 0.50544 0.0
H523 H 0.62895 0.24789 0.57857 0.0
H524 H 0.86693 0.39697 0.72842 0.0
H525 H 0.68731 0.06701 0.81496 0.0
H526 H 0.87462 0.46498 0.57496 0.0
H527 H 0.93487 0.26555 0.86205 0.0
H528 H 0.7389 0.13479 0.76449 0.0
H529 H 0.96501 0.25187 0.95355 0.0
H530 H 0.74043 0.36836 0.48102 0.0
H531 H 0.70562 0.05341 0.909 0.0
H532 H 0.76187 0.07656 0.98803 0.0
H533 H 0.67037 0.30148 0.5081 0.0
H534 H 0.83771 0.12699 0.02584 0.0
N535 N 0.78577 0.15957 0.82927 0.0
C536 C 0.74758 0.12903 0.8054 0.0
C537 C 0.72883 0.08286 0.88701 0.0
C538 C 0.76971 0.11285 0.91087 0.0
C539 C 0.71828 0.09049 0.83391 0.0
C540 C 0.79803 0.15123 0.88041 0.0
H541 H 0.91423 0.19188 0.0131 0.0
N542 N 0.86775 0.21448 0.87038 0.0
C543 C 0.92979 0.23148 0.93956 0.0
C544 C 0.84038 0.1797 0.90171 0.0
C545 C 0.91272 0.23904 0.88787 0.0
C546 C 0.90097 0.1977 0.97307 0.0
C547 C 0.85594 0.17067 0.9541 0.0
O548 O 0.89796 0.21856 0.78304 0.0
O549 O 0.83577 0.28411 0.72267 0.0
O550 O 0.73786 0.23226 0.69417 0.0
O551 O 0.79149 0.20372 0.70988 0.0
O552 O 0.89914 0.28901 0.7615 0.0
O553 O 0.83228 0.17501 0.74737 0.0
O554 O 0.7183 0.31204 0.72424 0.0
O555 O 0.76923 0.22992 0.77706 0.0
O556 O 0.85052 0.27088 0.84066 0.0
O557 O 0.8408 0.32998 0.7857 0.0
O558 O 0.73949 0.261 0.79987 0.0
O559 O 0.78134 0.34386 0.7737 0.0
C560 C 0.87887 0.30853 0.72516 0.0
C561 C 0.88661 0.14635 0.77904 0.0
C562 C 0.9159 0.09868 0.76283 0.0
C563 C 0.90876 0.13718 0.7489 0.0
C564 C 0.90112 0.06941 0.8078 0.0
C565 C 0.87204 0.11713 0.82412 0.0
C566 C 0.87948 0.07883 0.83848 0.0
C567 C 0.75278 0.20516 0.68537 0.0
C568 C 0.87563 0.18439 0.75973 0.0
C569 C 0.82673 0.13406 0.98531 0.0
C570 C 0.7836 0.10525 0.96374 0.0
C571 C 0.74762 0.22677 0.81177 0.0
C572 C 0.73588 0.38298 0.7412 0.0
C573 C 0.71519 0.3927 0.77281 0.0
C574 C 0.71302 0.43379 0.76294 0.0
C575 C 0.73232 0.46532 0.72106 0.0
C576 C 0.75416 0.41445 0.69895 0.0
C577 C 0.7525 0.4555 0.68911 0.0
C578 C 0.85776 0.31298 0.83008 0.0
C579 C 0.74026 0.34094 0.75521 0.0
H580 H 0.91921 0.1594 0.71355 0.0
H581 H 0.90654 0.03958 0.8192 0.0
H582 H 0.85441 0.1235 0.84759 0.0
H583 H 0.86803 0.05618 0.87312 0.0
H584 H 0.70131 0.36843 0.80566 0.0
H585 H 0.7309 0.49711 0.71243 0.0
H586 H 0.76995 0.40752 0.6739 0.0
H587 H 0.76686 0.47977 0.65658 0.0
Eu588 Eu 0.7865 0.73005 0.71885 0.0
C589 C 0.92959 0.81163 0.86888 0.0
C590 C 0.91576 0.75111 0.9408 0.0
C591 C 0.99387 0.80125 0.92525 0.0
C592 C 0.89893 0.77474 0.89756 0.0
C593 C 0.97743 0.82569 0.88348 0.0
C594 C 0.96315 0.76419 0.95376 0.0
C595 C 0.99011 0.89041 0.81852 0.0
N596 N 0.91304 0.83515 0.82865 0.0
C597 C 0.9427 0.87568 0.80586 0.0
C598 C 1.0076 0.86485 0.85681 0.0
Eu599 Eu 0.83137 0.80493 0.80882 0.0
N600 N 0.85298 0.76223 0.88397 0.0
C601 C 0.82258 0.72827 0.91405 0.0
C602 C 0.88453 0.71504 0.97 0.0
C603 C 0.83783 0.70394 0.9569 0.0
H604 H 0.93009 0.89752 0.77837 0.0
H605 H 0.81346 0.67663 0.9799 0.0
H606 H 0.97656 0.74636 0.98629 0.0
H607 H 1.0131 0.92192 0.79932 0.0
H608 H 0.78637 0.71914 0.90578 0.0
H609 H 0.76954 0.8517 0.55616 0.0
H610 H 0.89609 0.69592 0.00311 0.0
H611 H 0.7147 0.62191 0.7451 0.0
H612 H 0.81074 0.81855 0.62723 0.0
H613 H 0.6331 0.57207 0.72133 0.0
H614 H 1.03041 0.81135 0.93662 0.0
H615 H 0.68431 0.81305 0.53797 0.0
H616 H 0.61171 0.74332 0.5525 0.0
H617 H 1.04443 0.87659 0.86698 0.0
H618 H 0.57486 0.66649 0.59648 0.0
N619 N 0.75027 0.76201 0.64783 0.0
C620 C 0.774 0.80103 0.6183 0.0
C621 C 0.70281 0.79765 0.5673 0.0
C622 C 0.67935 0.75559 0.59477 0.0
C623 C 0.7506 0.81974 0.57782 0.0
C624 C 0.70457 0.73822 0.63519 0.0
H625 H 0.58282 0.60183 0.65862 0.0
N626 N 0.70978 0.67908 0.69741 0.0
C627 C 0.64677 0.60676 0.70427 0.0
C628 C 0.68365 0.69535 0.66067 0.0
C629 C 0.69286 0.63492 0.71751 0.0
C630 C 0.61848 0.62372 0.66896 0.0
C631 C 0.63702 0.66835 0.64596 0.0
O632 O 0.79635 0.67417 0.70879 0.0
O633 O 0.84175 0.74968 0.78759 0.0
O634 O 0.86708 0.84208 0.73865 0.0
O635 O 0.85707 0.78308 0.70418 0.0
O636 O 0.79818 0.6828 0.78885 0.0
O637 O 0.81142 0.73221 0.65031 0.0
O638 O 0.8657 0.86434 0.84389 0.0
O639 O 0.78387 0.79118 0.734 0.0
O640 O 0.7315 0.70302 0.76935 0.0
O641 O 0.76103 0.75171 0.82799 0.0
O642 O 0.79851 0.84864 0.7574 0.0
O643 O 0.79738 0.81703 0.85965 0.0
C644 C 0.83535 0.71032 0.81188 0.0
C645 C 0.79383 0.66441 0.62526 0.0
C646 C 0.8084 0.62031 0.57966 0.0
C647 C 0.82202 0.64658 0.61792 0.0
C648 C 0.76528 0.61165 0.5496 0.0
C649 C 0.7512 0.6554 0.59485 0.0
C650 C 0.73702 0.62897 0.5573 0.0
C651 C 0.87894 0.82504 0.70943 0.0
C652 C 0.81028 0.69281 0.66446 0.0
C653 C 0.61097 0.6864 0.60774 0.0
C654 C 0.63202 0.73012 0.58251 0.0
C655 C 0.7731 0.8247 0.72294 0.0
C656 C 0.81649 0.89355 0.8526 0.0
C657 C 0.78948 0.89509 0.88417 0.0
C658 C 0.77689 0.93044 0.87384 0.0
C659 C 0.79081 0.96367 0.83133 0.0
C660 C 0.8302 0.92747 0.81029 0.0
C661 C 0.81678 0.96179 0.79953 0.0
C662 C 0.72869 0.71635 0.80906 0.0
C663 C 0.8301 0.85668 0.86358 0.0
H664 H 0.85462 0.6533 0.64227 0.0
H665 H 0.75357 0.59227 0.51931 0.0
H666 H 0.72911 0.66892 0.59994 0.0
H667 H 0.70415 0.62227 0.53364 0.0
H668 H 0.77858 0.86912 0.91678 0.0
H669 H 0.78068 0.99064 0.82201 0.0
H670 H 0.85096 0.92737 0.78512 0.0
H671 H 0.82622 0.98702 0.7663 0.0
Co672 Co 0.08926 0.96292 0.45172 0.0
Co673 Co 0.10613 0.95228 0.54517 0.0
Co674 Co 0.05321 1.01459 0.50554 0.0
O675 O 0.10161 0.99911 0.49983 0.0
H676 H 0.1311 0.02455 0.49859 0.0
O677 O 1.00495 0.0299 0.51199 0.0
Co678 Co 1.02174 0.07039 0.55648 0.0
Co679 Co 0.99446 0.07198 0.46259 0.0
H680 H 0.97644 1.00401 0.51771 0.0
O681 O 0.16458 0.9622 0.56789 0.0
O682 O 0.11748 0.92698 0.5019 0.0
O683 O 0.05781 0.91704 0.58787 0.0
O684 O 1.02849 0.96659 0.56477 0.0
O685 O 0.09993 0.05429 0.55428 0.0
O686 O 1.03348 0.105 0.60062 0.0
O687 O 0.97211 0.04027 0.58916 0.0
O688 O 0.07577 0.10606 0.52822 0.0
O689 O 0.07763 0.06292 0.44631 0.0
O690 O 1.0399 0.10554 0.41673 0.0
O691 O 0.99204 0.10345 0.50549 0.0
O692 O 0.93483 0.06331 0.44944 0.0
C693 C 0.12088 0.96505 0.39509 0.0
C694 C 1.00072 0.93637 0.45504 0.0
C695 C 1.02961 0.93105 0.59201 0.0
C696 C 0.15802 0.94424 0.52833 0.0
C697 C 0.9947 0.07372 0.61385 0.0
C698 C 0.10729 0.09445 0.55055 0.0
C699 C 0.07207 0.09548 0.41595 0.0
C700 C 0.94882 0.08533 0.48719 0.0
O701 O 0.0814 0.93281 0.40458 0.0
O702 O 0.14168 0.99604 0.4235 0.0
O703 O 1.00658 0.97523 0.45649 0.0
O704 O 1.03276 0.92465 0.4744 0.0
Co705 Co 0.6033 0.95159 0.00149 0.0
Co706 Co 0.60311 0.95671 0.09089 0.0
Co707 Co 0.55088 1.01775 0.00629 0.0
O708 O 0.60244 0.99693 0.03066 0.0
H709 H 0.63194 0.02239 0.03109 0.0
O710 O 0.49941 0.03843 0.98147 0.0
Co711 Co 0.49583 0.08274 0.00988 0.0
Co712 Co 0.49972 0.07846 0.92042 0.0
H713 H 0.47007 1.01281 0.98012 0.0
O714 O 0.6582 0.95442 0.13099 0.0
O715 O 0.61318 0.91306 0.07107 0.0
O716 O 0.5456 0.93347 0.11767 0.0
O717 O 0.50974 0.97113 0.05972 0.0
O718 O 0.58294 0.06095 0.05606 0.0
O719 O 0.48678 0.11854 0.03848 0.0
O720 O 0.43431 0.0563 0.0085 0.0
O721 O 0.56158 0.11522 0.0178 0.0
O722 O 0.59246 0.06457 0.95313 0.0
O723 O 0.55769 0.10227 0.89381 0.0
O724 O 0.48876 0.1217 0.93981 0.0
O725 O 0.44518 0.08069 0.87911 0.0
C726 C 0.65192 0.94417 0.97604 0.0
C727 C 0.51066 0.93354 0.96526 0.0
C728 C 0.5107 0.94177 0.09974 0.0
C729 C 0.64832 0.92173 0.10807 0.0
C730 C 0.44422 0.08971 0.03051 0.0
C731 C 0.58929 0.10141 0.04917 0.0
C732 C 0.5924 0.09386 0.91269 0.0
C733 C 0.45435 0.11316 0.90202 0.0
O734 O 0.6093 0.91496 0.97144 0.0
O735 O 0.66398 0.97768 0.99886 0.0
O736 O 0.5183 0.97442 0.95679 0.0
O737 O 0.538 0.91972 0.99733 0.0
Co738 Co 0.0809 0.43604 0.99883 0.0
Co739 Co 0.09631 0.45383 0.08655 0.0
Co740 Co 0.04985 0.5183 0.00161 0.0
O741 O 0.09641 0.49086 0.02227 0.0
H742 H 0.12713 0.51288 0.017 0.0
O743 O 1.0031 0.54522 0.98132 0.0
Co744 Co 1.01613 0.5978 0.00754 0.0
Co745 Co 1.00245 0.5834 0.91881 0.0
H746 H 0.97241 0.5226 0.98555 0.0
O747 O 0.15124 0.44982 0.12215 0.0
O748 O 0.09745 0.40347 0.07084 0.0
O749 O 1.041 0.43532 0.11696 0.0
O750 O 1.00878 0.47459 0.05662 0.0
O751 O 0.08913 0.56225 0.04971 0.0
O752 O 1.02476 0.64192 0.03462 0.0
O753 O 0.95876 0.58114 0.02143 0.0
O754 O 0.07996 0.62067 0.0015 0.0
O755 O 0.09034 0.56198 0.94566 0.0
O756 O 0.05706 0.60181 0.88763 0.0
O757 O 0.99993 0.63225 0.93658 0.0
O758 O 0.9471 0.58685 0.88362 0.0
C759 C 0.11235 0.41033 0.96967 0.0
C760 C 0.99636 0.43204 0.96738 0.0
C761 C 1.00749 0.44545 0.09753 0.0
C762 C 0.13639 0.41414 0.10269 0.0
C763 C 0.98145 0.61883 0.03852 0.0
C764 C 0.103 0.60444 0.03782 0.0
C765 C 0.09056 0.59129 0.90499 0.0
C766 C 0.96131 0.62187 0.90416 0.0
O767 O 0.06919 0.38981 0.97465 0.0
O768 O 0.13733 0.44905 0.98415 0.0
O769 O 1.01074 0.47419 0.95396 0.0
O770 O 1.0182 0.41632 0.00575 0.0
Co771 Co 0.5864 0.46474 0.94819 0.0
Co772 Co 0.60312 0.45488 0.04331 0.0
Co773 Co 0.55043 0.51737 0.00346 0.0
O774 O 0.59882 0.50208 0.99612 0.0
H775 H 0.62832 0.52748 0.99484 0.0
O776 O 0.50114 0.53173 0.01098 0.0
Co777 Co 0.51518 0.568 0.06038 0.0
Co778 Co 0.49177 0.57638 0.96302 0.0
H779 H 0.47233 0.50564 0.01409 0.0
O780 O 0.66158 0.46355 0.06608 0.0
O781 O 0.61332 0.42903 1.0003 0.0
O782 O 0.55325 0.41727 0.08317 0.0
O783 O 0.52245 0.46562 0.05851 0.0
O784 O 0.59587 0.55287 0.05753 0.0
O785 O 0.52369 0.59905 0.10821 0.0
O786 O 0.4621 0.53722 0.0883 0.0
O787 O 0.57105 0.60405 0.03693 0.0
O788 O 0.57779 0.56965 0.94842 0.0
O789 O 0.54117 0.61348 0.92074 0.0
O790 O 0.49114 0.60541 0.01009 0.0
O791 O 0.43189 0.57215 0.95234 0.0
C792 C 0.61977 0.46293 0.89501 0.0
C793 C 0.49809 0.44216 0.94919 0.0
C794 C 0.52325 0.42972 0.08515 0.0
C795 C 0.6544 0.44661 0.02551 0.0
C796 C 0.48265 0.56891 0.11581 0.0
C797 C 0.60202 0.59183 0.05913 0.0
C798 C 0.57388 0.6039 0.92027 0.0
C799 C 0.44801 0.59156 0.99237 0.0
O800 O 0.57877 0.43283 0.90255 0.0
O801 O 0.63993 0.49555 0.92122 0.0
O802 O 0.50597 0.48191 0.94965 0.0
O803 O 0.52853 0.42834 0.96937 0.0
Co804 Co 0.14016 0.47309 0.56993 0.0
Co805 Co 0.13476 0.51021 0.48322 0.0
Co806 Co 0.05191 0.51946 0.50457 0.0
O807 O 0.08558 0.4785 0.51822 0.0
H808 H 0.06585 0.45097 0.50556 0.0
O809 O 1.01845 0.56057 0.49129 0.0
Co810 Co 0.96528 0.56625 0.43801 0.0
Co811 Co 0.96909 0.53084 0.52652 0.0
H812 H 1.03868 0.58849 0.50287 0.0
O813 O 0.13667 0.48165 0.4378 0.0
O814 O 0.1801 0.49429 0.51524 0.0
O815 O 0.15705 0.57316 0.46629 0.0
O816 O 0.08508 0.56318 0.44238 0.0
O817 O 1.00157 0.47983 0.45726 0.0
O818 O 0.91922 0.57589 0.38992 0.0
O819 O 0.97405 0.62525 0.43626 0.0
O820 O 0.94759 0.50623 0.42932 0.0
O821 O 1.01878 0.476 0.56648 0.0
O822 O 0.94719 0.46842 0.54567 0.0
O823 O 0.92343 0.54533 0.49097 0.0
O824 O 0.96495 0.56164 0.56835 0.0
C825 C 0.1698 0.42375 0.60451 0.0
C826 C 0.14213 0.56275 0.57487 0.0
C827 C 0.12847 0.58717 0.43971 0.0
C828 C 0.17115 0.48038 0.47157 0.0
C829 C 0.93705 0.61534 0.40186 0.0
C830 C 0.96171 0.47631 0.43424 0.0
C831 C 0.97548 0.45331 0.57025 0.0
C832 C 0.93097 0.56127 0.53285 0.0
O833 O 0.18786 0.46325 0.61657 0.0
O834 O 0.13203 0.41399 0.5712 0.0
O835 O 0.10205 0.55864 0.55208 0.0
O836 O 0.15752 0.53369 0.57923 0.0
Co837 Co 0.6357 0.97441 0.55469 0.0
Co838 Co 0.60677 0.99032 0.45884 0.0
Co839 Co 0.5476 0.01927 0.50229 0.0
O840 O 0.57632 0.97545 0.5133 0.0
H841 H 0.55266 0.94547 0.51357 0.0
O842 O 0.51901 0.06349 0.49065 0.0
Co843 Co 0.46298 0.06778 0.4429 0.0
Co844 Co 0.48016 0.04538 0.53861 0.0
H845 H 0.54271 0.09287 0.49451 0.0
O846 O 0.59666 0.9456 0.43221 0.0
O847 O 0.65889 0.98238 0.48804 0.0
O848 O 0.61713 0.04379 0.40932 0.0
O849 O 0.59059 0.07032 0.45352 0.0
O850 O 0.50077 0.99001 0.44486 0.0
O851 O 0.41304 0.07509 0.4009 0.0
O852 O 0.47634 0.13024 0.42952 0.0
O853 O 0.43922 1.0027 0.44409 0.0
O854 O 0.50528 0.96841 0.55229 0.0
O855 O 0.45668 0.98677 0.57382 0.0
O856 O 0.43643 0.06325 0.50447 0.0
O857 O 0.49119 0.08703 0.57258 0.0
C858 C 0.66712 0.926 0.59272 0.0
C859 C 0.63833 0.06023 0.5671 0.0
C860 C 0.61244 0.07578 0.41742 0.0
C861 C 0.63866 0.95506 0.45423 0.0
C862 C 0.43479 0.11724 0.40332 0.0
C863 C 0.45718 0.97902 0.4356 0.0
C864 C 0.47173 0.95887 0.57597 0.0
C865 C 0.45781 0.0904 0.53832 0.0
O866 O 0.68857 0.9686 0.59301 0.0
O867 O 0.6251 0.91228 0.56768 0.0
O868 O 0.59454 0.04809 0.55963 0.0
O869 O 0.65696 0.03889 0.55459 0.0
C870 C 0.16808 0.13442 0.33805 0.0
C871 C 0.18255 0.18044 0.32884 0.0
H872 H 0.1215 0.07128 0.37323 0.0
C873 C 0.15849 0.19812 0.34536 0.0
H874 H 0.18601 0.12006 0.3254 0.0
C875 C 0.12081 0.17021 0.37133 0.0
C876 C 0.10735 0.12429 0.38227 0.0
H877 H 0.16865 0.23353 0.33789 0.0
H878 H 0.10333 0.18471 0.3845 0.0
C879 C 0.13117 0.10661 0.36518 0.0
C880 C 0.83467 0.06051 0.51612 0.0
C881 C 0.84165 0.10422 0.51378 0.0
H882 H 0.8646 0.02107 0.50431 0.0
C883 C 0.8865 0.13591 0.52709 0.0
H884 H 0.80034 0.03451 0.50935 0.0
C885 C 0.9236 0.12841 0.52371 0.0
C886 C 0.91499 0.08855 0.50986 0.0
H887 H 0.89262 0.16936 0.52827 0.0
H888 H 0.95768 0.15551 0.52502 0.0
C889 C 0.8713 0.05308 0.51172 0.0
C890 C 0.93416 0.85579 0.36273 0.0
C891 C 0.89391 0.86184 0.34674 0.0
H892 H 0.99791 0.87242 0.41141 0.0
C893 C 0.88748 0.89119 0.36814 0.0
H894 H 0.93938 0.83261 0.34748 0.0
C895 C 0.92207 0.91556 0.40383 0.0
C896 C 0.96248 0.90935 0.41991 0.0
H897 H 0.85622 0.89573 0.35667 0.0
H898 H 0.91718 0.939 0.41898 0.0
C899 C 0.9676 0.87853 0.39963 0.0
C900 C 0.20556 0.99425 0.30451 0.0
C901 C 0.18252 0.95808 0.27808 0.0
H902 H 0.20423 0.02482 0.36326 0.0
C903 C 0.13846 0.92647 0.2879 0.0
H904 H 0.23981 0.0188 0.29766 0.0
C905 C 0.11833 0.92973 0.32498 0.0
C906 C 0.14192 0.96461 0.35338 0.0
H907 H 0.12006 0.8984 0.2678 0.0
H908 H 0.08461 0.90406 0.33217 0.0
C909 C 0.1854 0.99744 0.34217 0.0
C910 C 0.28077 0.98422 0.52488 0.0
C911 C 0.28285 0.94312 0.53924 0.0
H912 H 0.23651 1.01629 0.51047 0.0
C913 C 0.24359 0.90503 0.52586 0.0
H914 H 0.31061 1.01452 0.5326 0.0
C915 C 0.20066 0.90588 0.51431 0.0
C916 C 0.19809 0.94535 0.51356 0.0
H917 H 0.2448 0.87315 0.53447 0.0
H918 H 0.16993 0.87494 0.51362 0.0
C919 C 0.23814 0.9852 0.51288 0.0
C920 C 0.17582 0.18574 0.62916 0.0
C921 C 0.21278 0.17593 0.65346 0.0
H922 H 0.11478 0.16909 0.57582 0.0
C923 C 0.21695 0.1407 0.64198 0.0
H924 H 0.1724 0.21306 0.6375 0.0
C925 C 0.18305 0.11428 0.60762 0.0
C926 C 0.14547 0.12374 0.58361 0.0
H927 H 0.2456 0.13297 0.66057 0.0
H928 H 0.18597 0.08634 0.60024 0.0
C929 C 0.14293 0.16046 0.59387 0.0
C930 C 0.98076 0.12137 0.7154 0.0
C931 C 0.938 0.08943 0.72912 0.0
H932 H 1.03241 0.1412 0.66858 0.0
C933 C 0.91479 0.05105 0.70659 0.0
H934 H 0.99915 0.15129 0.73225 0.0
C935 C 0.93349 0.04529 0.66966 0.0
C936 C 0.9758 0.07784 0.65497 0.0
H937 H 0.8814 0.02648 0.71579 0.0
H938 H 0.91435 1.01592 0.65185 0.0
C939 C 0.99962 0.11555 0.67886 0.0
C940 C 0.94398 0.83346 0.6702 0.0
C941 C 0.91952 0.85302 0.68262 0.0
H942 H 0.9986 0.84281 0.63283 0.0
C943 C 0.93382 0.89891 0.66846 0.0
H944 H 0.9341 0.79817 0.68127 0.0
C945 C 0.97068 0.92442 0.64053 0.0
C946 C 0.99435 0.90465 0.62673 0.0
H947 H 0.91571 0.91487 0.6776 0.0
H948 H 0.98011 0.95959 0.62894 0.0
C949 C 0.98122 0.85905 0.64287 0.0
C950 C 0.38281 0.14594 0.06523 0.0
C951 C 0.33688 0.11398 0.06084 0.0
H952 H 0.45228 0.16345 0.05885 0.0
C953 C 0.32704 0.07226 0.05066 0.0
H954 H 0.39173 0.17854 0.07265 0.0
C955 C 0.36195 0.06382 0.04181 0.0
C956 C 0.40748 0.09667 0.04379 0.0
H957 H 0.29217 0.04662 0.0479 0.0
H958 H 0.35298 0.03206 0.03202 0.0
C959 C 0.4176 0.13739 0.05685 0.0
C960 C 0.88199 0.36422 0.10661 0.0
C961 C 0.88025 0.35373 0.15963 0.0
H962 H 0.92276 0.40184 0.04562 0.0
C963 C 0.92003 0.37705 0.19176 0.0
H964 H 0.85182 0.34786 0.08051 0.0
C965 C 0.96111 0.40749 0.17177 0.0
C966 C 0.96297 0.41722 0.11882 0.0
H967 H 0.9196 0.37142 0.2325 0.0
H968 H 0.99153 0.42339 0.19781 0.0
C969 C 0.92257 0.39561 0.08651 0.0
C970 C 0.67761 0.81964 0.14429 0.0
C971 C 0.71967 0.83369 0.17779 0.0
H972 H 0.62351 0.83498 0.09542 0.0
C973 C 0.7391 0.87816 0.18545 0.0
H974 H 0.66068 0.78567 0.1376 0.0
C975 C 0.71679 0.90648 0.16192 0.0
C976 C 0.67418 0.89207 0.12908 0.0
H977 H 0.77061 0.89062 0.21147 0.0
H978 H 0.73273 0.93981 0.17048 0.0
C979 C 0.65589 0.84815 0.11992 0.0
C980 C 0.1982 0.70875 0.08758 0.0
C981 C 0.21279 0.6918 0.13761 0.0
H982 H 0.15226 0.69529 0.01751 0.0
C983 C 0.1937 0.64538 0.15236 0.0
H984 H 0.21326 0.74402 0.07365 0.0
C985 C 0.15932 0.61717 0.11951 0.0
C986 C 0.14265 0.63439 0.07081 0.0
H987 H 0.20444 0.63059 0.18976 0.0
H988 H 0.14481 0.58176 0.13305 0.0
C989 C 0.1633 0.68065 0.05501 0.0
C990 C 0.43814 0.83459 0.89659 0.0
C991 C 0.40219 0.84478 0.86749 0.0
H992 H 0.49942 0.8536 0.9504 0.0
C993 C 0.40083 0.88366 0.87278 0.0
H994 H 0.44041 0.80494 0.89401 0.0
C995 C 0.4356 0.91234 0.90494 0.0
C996 C 0.47195 0.90229 0.93337 0.0
H997 H 0.37377 0.89264 0.85088 0.0
H998 H 0.43421 0.94258 0.90721 0.0
C999 C 0.47214 0.86258 0.92933 0.0
C1000 C 0.18405 0.38775 0.89999 0.0
C1001 C 0.15473 0.34338 0.89468 0.0
H1002 H 0.19386 0.44469 0.92883 0.0
C1003 C 0.11524 0.32087 0.91845 0.0
H1004 H 0.21471 0.40558 0.88155 0.0
C1005 C 0.10341 0.34272 0.94465 0.0
C1006 C 0.13083 0.38777 0.94801 0.0
H1007 H 0.09247 0.28653 0.91516 0.0
H1008 H 0.07171 0.32419 0.96117 0.0
C1009 C 0.17214 0.40998 0.92681 0.0
C1010 C 0.67008 0.16201 0.80934 0.0
C1011 C 0.71239 0.18546 0.83774 0.0
H1012 H 0.59943 0.11486 0.8106 0.0
C1013 C 0.71569 0.17588 0.89145 0.0
H1014 H 0.66577 0.16972 0.76799 0.0
C1015 C 0.67786 0.14347 0.91608 0.0
C1016 C 0.63501 0.1214 0.88753 0.0
H1017 H 0.74717 0.19456 0.91445 0.0
H1018 H 0.68132 0.13784 0.9574 0.0
C1019 C 0.63195 0.13073 0.83383 0.0
C1020 C 0.91926 0.71507 0.83947 0.0
C1021 C 0.87126 0.69278 0.8418 0.0
H1022 H 0.98537 0.71208 0.8582 0.0
C1023 C 0.85547 0.64861 0.86848 0.0
H1024 H 0.93349 0.74838 0.81825 0.0
C1025 C 0.88501 0.62743 0.89027 0.0
C1026 C 0.93271 0.64913 0.88787 0.0
H1027 H 0.81917 0.62938 0.87114 0.0
H1028 H 0.86995 0.59301 0.90824 0.0
C1029 C 0.94935 0.69394 0.86258 0.0
C1030 C 0.17796 0.32029 0.16628 0.0
C1031 C 0.22625 0.34322 0.16608 0.0
H1032 H 0.11161 0.32287 0.14555 0.0
C1033 C 0.2423 0.38782 0.1408 0.0
H1034 H 0.16344 0.28645 0.18605 0.0
C1035 C 0.21283 0.40894 0.11871 0.0
C1036 C 0.16491 0.38681 0.1193 0.0
H1037 H 0.27877 0.40749 0.13962 0.0
H1038 H 0.22812 0.44368 0.10196 0.0
C1039 C 0.14791 0.34146 0.14281 0.0
C1040 C 0.21639 0.65546 0.88165 0.0
C1041 C 0.21275 0.67211 0.82888 0.0
H1042 H 0.18141 0.61688 0.94692 0.0
C1043 C 0.16854 0.65904 0.80085 0.0
H1044 H 0.24978 0.66266 0.90396 0.0
C1045 C 0.12913 0.63293 0.82544 0.0
C1046 C 0.13271 0.6169 0.87849 0.0
H1047 H 0.16443 0.66914 0.75978 0.0
H1048 H 0.09568 0.62478 0.80268 0.0
C1049 C 0.17706 0.62834 0.90613 0.0
C1050 C 0.423 0.21364 0.86867 0.0
C1051 C 0.38252 0.20048 0.83268 0.0
H1052 H 0.47587 0.1976 0.91942 0.0
C1053 C 0.36513 0.15732 0.82154 0.0
H1054 H 0.4383 0.24667 0.87807 0.0
C1055 C 0.38762 0.12917 0.84479 0.0
C1056 C 0.42842 0.14258 0.88055 0.0
H1057 H 0.33493 0.14572 0.79354 0.0
H1058 H 0.3732 0.09678 0.83392 0.0
C1059 C 0.4449 0.18528 0.89261 0.0
C1060 C 0.90491 0.32667 0.91703 0.0
C1061 C 0.89023 0.3434 0.86703 0.0
H1062 H 0.9497 0.34094 0.98759 0.0
C1063 C 0.90853 0.38977 0.85201 0.0
H1064 H 0.89045 0.29139 0.93089 0.0
C1065 C 0.94184 0.41835 0.88496 0.0
C1066 C 0.95817 0.40153 0.93401 0.0
H1067 H 0.89797 0.40425 0.81425 0.0
H1068 H 0.95567 0.45374 0.87133 0.0
C1069 C 0.93868 0.35523 0.94985 0.0
C1070 C 0.70505 0.89605 0.91368 0.0
C1071 C 0.74735 0.9322 0.90532 0.0
H1072 H 0.64153 0.87158 0.94248 0.0
C1073 C 0.75937 0.97148 0.92317 0.0
H1074 H 0.69491 0.86557 0.8999 0.0
C1075 C 0.72911 0.97483 0.94802 0.0
C1076 C 0.68589 0.93935 0.95446 0.0
H1077 H 0.79199 0.99975 0.91736 0.0
H1078 H 0.73928 1.00542 0.96139 0.0
C1079 C 0.67444 0.89968 0.93771 0.0
C1080 C 0.96684 0.70081 0.09175 0.0
C1081 C 0.92969 0.6738 0.11871 0.0
H1082 H 1.01238 0.70422 0.04602 0.0
C1083 C 0.90605 0.62837 0.11565 0.0
H1084 H 0.98587 0.73577 0.09435 0.0
C1085 C 0.92058 0.6101 0.08655 0.0
C1086 C 0.95969 0.63706 0.06198 0.0
H1087 H 0.87774 0.60696 0.13719 0.0
H1088 H 0.9031 0.57481 0.0858 0.0
C1089 C 0.982 0.68258 0.06427 0.0
C1090 C 0.3922 0.85688 0.13521 0.0
C1091 C 0.3998 0.85477 0.18864 0.0
H1092 H 0.42106 0.88745 0.06439 0.0
C1093 C 0.44218 0.88472 0.21071 0.0
H1094 H 0.36043 0.83355 0.11717 0.0
C1095 C 0.47677 0.91463 0.18103 0.0
C1096 C 0.47014 0.91602 0.12804 0.0
H1097 H 0.44944 0.88359 0.25175 0.0
H1098 H 0.50964 0.93563 0.19995 0.0
C1099 C 0.42694 0.88769 0.10507 0.0
C1100 C 0.67864 0.20779 0.09764 0.0
C1101 C 0.6977 0.19178 0.14547 0.0
H1102 H 0.62971 0.19232 0.03019 0.0
C1103 C 0.68205 0.14558 0.16023 0.0
H1104 H 0.6905 0.24301 0.08417 0.0
C1105 C 0.64794 0.11635 0.12841 0.0
C1106 C 0.62789 0.13246 0.08134 0.0
H1107 H 0.69557 0.13185 0.19684 0.0
H1108 H 0.63635 0.08101 0.14142 0.0
C1109 C 0.64393 0.17862 0.06633 0.0
C1110 C 0.66797 0.64209 0.83933 0.0
C1111 C 0.68745 0.68841 0.83525 0.0
H1112 H 0.61714 0.57934 0.8695 0.0
C1113 C 0.66752 0.70715 0.85697 0.0
H1114 H 0.68283 0.62659 0.82361 0.0
C1115 C 0.62889 0.67994 0.88235 0.0
C1116 C 0.61042 0.6335 0.8877 0.0
H1117 H 0.68177 0.74277 0.8543 0.0
H1118 H 0.61464 0.69509 0.8995 0.0
C1119 C 0.63036 0.615 0.86573 0.0
C1120 C 0.4049 0.64185 0.06325 0.0
C1121 C 0.35804 0.62092 0.04507 0.0
H1122 H 0.47147 0.65368 0.05152 0.0
C1123 C 0.34112 0.57814 0.0335 0.0
H1124 H 0.4186 0.6728 0.07748 0.0
C1125 C 0.37099 0.56689 0.01773 0.0
C1126 C 0.41771 0.59653 0.01935 0.0
H1127 H 0.30453 0.55909 0.02396 0.0
H1128 H 0.35711 0.53757 1.00022 0.0
C1129 C 0.43513 0.63186 0.04659 0.0
C1130 C 0.41954 0.40213 0.83009 0.0
C1131 C 0.39408 0.35709 0.8489 0.0
H1132 H 0.47193 0.46512 0.84796 0.0
C1133 C 0.40025 0.34187 0.90176 0.0
H1134 H 0.41547 0.41493 0.78963 0.0
C1135 C 0.43276 0.37031 0.93468 0.0
C1136 C 0.45885 0.41486 0.91575 0.0
H1137 H 0.38121 0.30756 0.91774 0.0
H1138 H 0.43835 0.35725 0.97488 0.0
C1139 C 0.45143 0.43093 0.86342 0.0
C1140 C 0.64597 0.41072 0.80763 0.0
C1141 C 0.6893 0.44278 0.79557 0.0
H1142 H 0.59013 0.39223 0.84757 0.0
C1143 C 0.70951 0.48267 0.81526 0.0
H1144 H 0.62933 0.37992 0.79257 0.0
C1145 C 0.68705 0.48979 0.84739 0.0
C1146 C 0.64373 0.45741 0.85961 0.0
H1147 H 0.74304 0.50787 0.8067 0.0
H1148 H 0.70366 0.52041 0.86282 0.0
C1149 C 0.62341 0.41801 0.83899 0.0
C1150 C 0.74292 0.41742 0.00521 0.0
C1151 C 0.78152 0.45621 0.01783 0.0
H1152 H 0.66937 0.38334 0.99935 0.0
C1153 C 0.77658 0.49565 0.00878 0.0
H1154 H 0.74623 0.38681 0.01026 0.0
C1155 C 0.73293 0.49326 0.00482 0.0
C1156 C 0.69457 0.45194 0.00625 0.0
H1157 H 0.80599 0.52637 0.01627 0.0
H1158 H 0.72977 0.5226 0.00719 0.0
C1159 C 0.69896 0.41506 1.00034 0.0
C1160 C 0.70866 0.6379 0.15585 0.0
C1161 C 0.70162 0.67118 0.1684 0.0
H1162 H 0.68157 0.58512 0.11181 0.0
C1163 C 0.66305 0.67843 0.14445 0.0
H1164 H 0.73869 0.63227 0.17372 0.0
C1165 C 0.63222 0.65351 0.10803 0.0
C1166 C 0.63773 0.61901 0.09612 0.0
H1167 H 0.6575 0.70464 0.15255 0.0
H1168 H 0.60372 0.66143 0.0895 0.0
C1169 C 0.67627 0.61123 0.12048 0.0
C1170 C 0.38763 0.55251 0.18519 0.0
C1171 C 0.40765 0.59154 0.20663 0.0
H1172 H 0.39552 0.51448 0.13991 0.0
C1173 C 0.45327 0.62142 0.2005 0.0
H1174 H 0.35243 0.5289 0.18908 0.0
C1175 C 0.47815 0.61283 0.17314 0.0
C1176 C 0.45786 0.57441 0.15052 0.0
H1177 H 0.46988 0.65143 0.21713 0.0
H1178 H 0.513 0.63709 0.16853 0.0
C1179 C 0.41238 0.54413 0.15723 0.0
C1180 C 0.42877 0.3292 0.14968 0.0
C1181 C 0.40972 0.3493 0.17048 0.0
H1182 H 0.48085 0.33896 0.10758 0.0
C1183 C 0.42969 0.39568 0.16517 0.0
H1184 H 0.41398 0.29344 0.15341 0.0
C1185 C 0.46724 0.42158 0.13844 0.0
C1186 C 0.48632 0.40165 0.11739 0.0
H1187 H 0.41532 0.41205 0.18014 0.0
H1188 H 0.48111 0.45735 0.1338 0.0
C1189 C 0.46718 0.35516 0.12393 0.0
C1190 C 0.88769 0.62963 0.57537 0.0
C1191 C 0.8398 0.60382 0.56955 0.0
H1192 H 0.95359 0.63646 0.56769 0.0
C1193 C 0.82235 0.56336 0.55149 0.0
H1194 H 0.90274 0.66129 0.5882 0.0
C1195 C 0.85166 0.55022 0.53746 0.0
C1196 C 0.89919 0.57644 0.54291 0.0
H1197 H 0.78592 0.54193 0.54761 0.0
H1198 H 0.83726 0.51908 0.52351 0.0
C1199 C 0.91694 0.61586 0.5627 0.0
C1200 C 0.41469 0.87393 0.68603 0.0
C1201 C 0.38196 0.83816 0.66167 0.0
H1202 H 0.46963 0.93952 0.67822 0.0
C1203 C 0.38404 0.84016 0.61006 0.0
H1204 H 0.41325 0.87431 0.72513 0.0
C1205 C 0.41688 0.87766 0.5831 0.0
C1206 C 0.44803 0.91434 0.60696 0.0
H1207 H 0.35859 0.81374 0.58977 0.0
H1208 H 0.41552 0.8794 0.5426 0.0
C1209 C 0.44715 0.91139 0.6591 0.0
C1210 C 0.25782 0.3747 0.68053 0.0
C1211 C 0.23397 0.32888 0.67761 0.0
H1212 H 0.25719 0.43941 0.66137 0.0
C1213 C 0.18955 0.3157 0.64851 0.0
H1214 H 0.29152 0.38701 0.70278 0.0
C1215 C 0.16974 0.34587 0.62423 0.0
C1216 C 0.19259 0.39132 0.62838 0.0
H1217 H 0.16912 0.28107 0.64524 0.0
H1218 H 0.13554 0.33302 0.60317 0.0
C1219 C 0.23754 0.40498 0.6568 0.0
C1220 C 0.74302 0.14826 0.63491 0.0
C1221 C 0.72368 0.1711 0.65094 0.0
H1222 H 0.73231 0.09649 0.59625 0.0
C1223 C 0.67625 0.15832 0.63686 0.0
H1224 H 0.7794 0.15695 0.64465 0.0
C1225 C 0.649 0.12322 0.60894 0.0
C1226 C 0.6682 0.0996 0.5941 0.0
H1227 H 0.65974 0.17438 0.64883 0.0
H1228 H 0.61251 0.11407 0.59986 0.0
C1229 C 0.71588 0.1133 0.60695 0.0
C1230 C 0.91831 0.37064 0.37817 0.0
C1231 C 0.87257 0.36281 0.35822 0.0
H1232 H 0.98219 0.41208 0.41782 0.0
C1233 C 0.85594 0.39126 0.36633 0.0
H1234 H 0.93253 0.34969 0.37291 0.0
C1235 C 0.88453 0.42734 0.39169 0.0
C1236 C 0.9307 0.4361 0.41013 0.0
H1237 H 0.82097 0.38654 0.35181 0.0
H1238 H 0.87044 0.44876 0.39616 0.0
C1239 C 0.94693 0.40666 0.40396 0.0
C1240 C 0.65303 0.88219 0.38555 0.0
C1241 C 0.68212 0.86736 0.42231 0.0
H1242 H 0.61802 0.92338 0.36619 0.0
C1243 C 0.70606 0.88985 0.46398 0.0
H1244 H 0.63458 0.86565 0.35284 0.0
C1245 C 0.69572 0.92235 0.47285 0.0
C1246 C 0.6616 0.93266 0.43952 0.0
H1247 H 0.73017 0.88012 0.49149 0.0
H1248 H 0.71159 0.93655 0.50746 0.0
C1249 C 0.64324 0.9149 0.39378 0.0
C1250 C 0.15231 0.66482 0.31099 0.0
C1251 C 0.19754 0.69688 0.32332 0.0
H1252 H 0.09449 0.60532 0.3374 0.0
C1253 C 0.21609 0.69595 0.37519 0.0
H1254 H 0.13636 0.66512 0.27153 0.0
C1255 C 0.19188 0.66196 0.41293 0.0
C1256 C 0.14781 0.62813 0.40041 0.0
H1257 H 0.24993 0.72087 0.38651 0.0
H1258 H 0.20858 0.66116 0.45212 0.0
C1259 C 0.12788 0.63079 0.34888 0.0
C1260 C 0.40446 0.21643 0.32679 0.0
C1261 C 0.35583 0.1974 0.32362 0.0
H1262 H 0.46769 0.20829 0.35491 0.0
C1263 C 0.33555 0.1532 0.34938 0.0
H1264 H 0.42205 0.24926 0.30576 0.0
C1265 C 0.36143 0.12914 0.37592 0.0
C1266 C 0.40971 0.14744 0.37881 0.0
H1267 H 0.2985 0.13596 0.34679 0.0
H1268 H 0.34294 0.09506 0.39331 0.0
C1269 C 0.43088 0.19238 0.35472 0.0
C1270 C 0.76544 0.88907 0.65727 0.0
C1271 C 0.74391 0.8437 0.67943 0.0
H1272 H 0.76018 0.94865 0.61445 0.0
C1273 C 0.69503 0.82474 0.67065 0.0
H1274 H 0.80251 0.90647 0.66406 0.0
C1275 C 0.66985 0.84966 0.64079 0.0
C1276 C 0.69206 0.89556 0.61999 0.0
H1277 H 0.67599 0.791 0.6886 0.0
H1278 H 0.63273 0.83334 0.63626 0.0
C1279 C 0.74065 0.91394 0.6288 0.0
C1280 C 0.70686 0.19323 0.39342 0.0
C1281 C 0.70959 0.19948 0.34098 0.0
H1282 H 0.67293 0.15057 0.45808 0.0
C1283 C 0.67503 0.16741 0.31249 0.0
H1284 H 0.73314 0.21685 0.41674 0.0
C1285 C 0.64139 0.12848 0.33669 0.0
C1286 C 0.64003 0.12126 0.38966 0.0
H1287 H 0.67621 0.17051 0.27233 0.0
H1288 H 0.61771 0.1029 0.31434 0.0
C1289 C 0.67214 0.15518 0.41718 0.0
C1290 C 0.91391 0.72105 0.35953 0.0
C1291 C 0.87063 0.70704 0.32823 0.0
H1292 H 0.96776 0.70481 0.40736 0.0
C1293 C 0.84978 0.66226 0.32137 0.0
H1294 H 0.93208 0.75525 0.36529 0.0
C1295 C 0.871 0.63309 0.34522 0.0
C1296 C 0.9142 0.64714 0.377 0.0
H1297 H 0.81732 0.64984 0.2968 0.0
H1298 H 0.85335 0.59918 0.33838 0.0
C1299 C 0.9348 0.69188 0.38382 0.0
C1300 C 0.4164 0.87151 0.38178 0.0
C1301 C 0.3728 0.86564 0.35484 0.0
H1302 H 0.47702 0.91138 0.42767 0.0
C1303 C 0.35626 0.89603 0.35755 0.0
H1304 H 0.43086 0.84957 0.38024 0.0
C1305 C 0.38259 0.93153 0.38497 0.0
C1306 C 0.42701 0.93862 0.41016 0.0
H1307 H 0.32281 0.89276 0.33779 0.0
H1308 H 0.36856 0.95428 0.38499 0.0
C1309 C 0.44315 0.90751 0.40868 0.0
C1310 C 0.22174 0.43879 0.39662 0.0
C1311 C 0.26564 0.44756 0.42442 0.0
H1312 H 0.15771 0.44165 0.38987 0.0
C1313 C 0.27832 0.46846 0.46756 0.0
H1314 H 0.21083 0.42431 0.36225 0.0
C1315 C 0.2475 0.47816 0.48373 0.0
C1316 C 0.20348 0.46836 0.45647 0.0
H1317 H 0.31166 0.47636 0.49013 0.0
H1318 H 0.25839 0.49372 0.51734 0.0
C1319 C 0.19117 0.44902 0.4124 0.0
C1320 C 0.40067 0.16101 0.5476 0.0
C1321 C 0.43963 0.20096 0.55612 0.0
H1322 H 0.37528 0.09434 0.53317 0.0
C1323 C 0.48291 0.20479 0.55292 0.0
H1324 H 0.36673 0.15729 0.54914 0.0
C1325 C 0.48752 0.16937 0.54347 0.0
C1326 C 0.4491 0.12898 0.53682 0.0
H1327 H 0.51365 0.23474 0.55957 0.0
H1328 H 0.52174 0.17305 0.54327 0.0
C1329 C 0.40534 0.12528 0.53761 0.0
C1330 C 0.88828 0.34391 0.63252 0.0
C1331 C 0.90494 0.34416 0.68475 0.0
H1332 H 0.89803 0.37786 0.55562 0.0
C1333 C 0.94908 0.37723 0.6984 0.0
H1334 H 0.85536 0.31812 0.62042 0.0
C1335 C 0.97433 0.41103 0.6611 0.0
C1336 C 0.95625 0.41237 0.60902 0.0
H1337 H 0.96349 0.37779 0.7383 0.0
H1338 H 1.00672 0.4374 0.67326 0.0
C1339 C 0.91329 0.37773 0.59533 0.0
C1340 C 0.24778 0.65659 0.62949 0.0
C1341 C 0.22863 0.67713 0.64967 0.0
H1342 H 0.23594 0.60427 0.59131 0.0
C1343 C 0.18067 0.66188 0.64124 0.0
H1344 H 0.28458 0.66817 0.63377 0.0
C1345 C 0.15266 0.62558 0.61565 0.0
C1346 C 0.17188 0.60326 0.59863 0.0
H1347 H 0.16464 0.67675 0.65618 0.0
H1348 H 0.11577 0.61391 0.61099 0.0
C1349 C 0.21986 0.61984 0.60502 0.0
loop_
_geom_bond_atom_site_label_1
_geom_bond_atom_site_label_2
_geom_bond_distance
_geom_bond_site_symmetry_2
_ccdc_geom_bond_type
Eu0 N31 2.657 . S
Eu0 N38 2.609 . S
Eu0 O44 2.558 . S
Eu0 O45 2.612 . S
Eu0 O47 2.339 . S
Eu0 O48 2.563 . S
Eu0 O49 2.419 . S
Eu0 O51 2.380 . S
Eu0 O52 2.432 . S
Eu0 C64 2.848 . S
C1 C4 1.429 . S
C1 C5 1.411 . S
C1 N8 1.377 . S
C2 C4 1.420 . S
C2 C6 1.423 . S
C2 C14 1.392 . S
C3 C5 1.420 . S
C3 C6 1.351 . S
C3 H26 0.931 . S
C4 C1 1.429 . S
C4 C2 1.420 . S
C4 N12 1.362 . S
C5 C1 1.411 . S
C5 C3 1.420 . S
C5 C10 1.395 . S
C6 C2 1.423 . S
C6 C3 1.351 . S
C6 H18 0.930 . S
C7 C9 1.400 . S
C7 C10 1.386 . S
C7 H19 0.930 . S
N8 C1 1.377 . S
N8 C9 1.321 . S
N8 Eu11 2.609 . S
C9 C7 1.400 . S
C9 N8 1.321 . S
C9 H16 0.930 . S
C10 C5 1.395 . S
C10 C7 1.386 . S
C10 H29 0.930 . S
Eu11 N8 2.609 . S
Eu11 N12 2.657 . S
Eu11 O45 2.380 . S
Eu11 O46 2.432 . S
Eu11 O50 2.558 . S
Eu11 O51 2.612 . S
Eu11 O53 2.339 . S
Eu11 O54 2.563 . S
Eu11 O55 2.419 . S
Eu11 C75 2.848 . S
N12 C4 1.362 . S
N12 Eu11 2.657 . S
N12 C13 1.334 . S
C13 N12 1.334 . S
C13 C15 1.413 . S
C13 H20 0.929 . S
C14 C2 1.392 . S
C14 C15 1.367 . S
C14 H22 0.930 . S
C15 C13 1.413 . S
C15 C14 1.367 . S
C15 H17 0.930 . S
H16 C9 0.930 . S
H17 C15 0.930 . S
H18 C6 0.930 . S
H19 C7 0.930 . S
H20 C13 0.929 . S
H21 C35 0.930 . S
H22 C14 0.930 . S
H23 C41 0.930 . S
H24 C32 0.929 . S
H25 C39 0.930 . S
H26 C3 0.931 . S
H27 C33 0.930 1_556 S
H28 C66 0.930 1_556 S
H29 C10 0.930 . S
H30 C65 0.931 . S
N31 Eu0 2.657 . S
N31 C32 1.334 . S
N31 C36 1.362 . S
C32 H24 0.929 . S
C32 N31 1.334 . S
C32 C35 1.413 . S
C33 H27 0.930 1_554 S
C33 C34 1.392 . S
C33 C35 1.367 . S
C34 C33 1.392 . S
C34 C36 1.420 . S
C34 C66 1.423 . S
C35 H21 0.930 . S
C35 C32 1.413 . S
C35 C33 1.367 . S
C36 N31 1.362 . S
C36 C34 1.420 . S
C36 C40 1.429 . S
H37 C42 0.930 . S
N38 Eu0 2.609 . S
N38 C40 1.377 . S
N38 C41 1.321 . S
C39 H25 0.930 . S
C39 C41 1.400 . S
C39 C42 1.386 . S
C40 C36 1.429 . S
C40 N38 1.377 . S
C40 C43 1.411 . S
C41 H23 0.930 . S
C41 N38 1.321 . S
C41 C39 1.400 . S
C42 H37 0.930 . S
C42 C39 1.386 . S
C42 C43 1.395 . S
C43 C40 1.411 . S
C43 C42 1.395 . S
C43 C65 1.420 . S
O44 Eu0 2.558 . S
O44 C64 1.257 . S
O45 Eu0 2.612 . S
O45 Eu11 2.380 . S
O45 C56 1.276 . S
O46 Eu11 2.432 . S
O46 C63 1.264 . S
O47 Eu0 2.339 . S
O47 C63 1.254 . S
O48 Eu0 2.563 . S
O48 C56 1.235 . S
O49 Eu0 2.419 . S
O49 C64 1.249 . S
O50 Eu11 2.558 . S
O50 C75 1.257 . S
O51 Eu0 2.380 . S
O51 Eu11 2.612 . S
O51 C67 1.276 . S
O52 Eu0 2.432 . S
O52 C74 1.264 . S
O53 Eu11 2.339 . S
O53 C74 1.254 . S
O54 Eu11 2.563 . S
O54 C67 1.235 . S
O55 Eu11 2.419 . S
O55 C75 1.249 . S
C56 O45 1.276 . S
C56 O48 1.235 . S
C57 C59 1.393 . S
C57 C61 1.395 . S
C57 C64 1.492 . S
C58 C59 1.392 . S
C58 C60 1.386 . S
C59 C57 1.393 . S
C59 C58 1.392 . S
C59 H76 0.930 . S
C60 C58 1.386 . S
C60 C62 1.395 . S
C60 H77 0.930 . S
C61 C57 1.395 . S
C61 C62 1.379 . S
C61 H78 0.930 . S
C62 C60 1.395 . S
C62 C61 1.379 . S
C62 H79 0.930 . S
C63 O46 1.264 . S
C63 O47 1.254 . S
C64 Eu0 2.848 . S
C64 O44 1.257 . S
C64 O49 1.249 . S
C64 C57 1.492 . S
C65 H30 0.931 . S
C65 C43 1.420 . S
C65 C66 1.351 . S
C66 H28 0.930 1_554 S
C66 C34 1.423 . S
C66 C65 1.351 . S
C67 O51 1.276 . S
C67 O54 1.235 . S
C68 C69 1.393 . S
C68 C72 1.395 . S
C68 C75 1.492 . S
C69 C68 1.393 . S
C69 C70 1.392 . S
C69 H80 0.930 . S
C70 C69 1.392 . S
C70 C71 1.386 . S
C71 C70 1.386 . S
C71 C73 1.395 . S
C71 H81 0.930 . S
C72 C68 1.395 . S
C72 C73 1.379 . S
C72 H82 0.930 . S
C73 C71 1.395 . S
C73 C72 1.379 . S
C73 H83 0.930 . S
C74 O52 1.264 . S
C74 O53 1.254 . S
C75 Eu11 2.848 . S
C75 O50 1.257 . S
C75 O55 1.249 . S
C75 C68 1.492 . S
H76 C59 0.930 . S
H77 C60 0.930 . S
H78 C61 0.930 . S
H79 C62 0.930 . S
H80 C69 0.930 . S
H81 C71 0.930 . S
H82 C72 0.930 . S
H83 C73 0.930 . S
Eu84 N115 2.657 . S
Eu84 N122 2.609 . S
Eu84 O128 2.558 . S
Eu84 O129 2.612 . S
Eu84 O131 2.339 . S
Eu84 O132 2.563 . S
Eu84 O133 2.419 . S
Eu84 O135 2.380 . S
Eu84 O136 2.432 . S
Eu84 C148 2.848 . S
C85 C88 1.429 . S
C85 C89 1.411 . S
C85 N92 1.377 . S
C86 C88 1.420 . S
C86 C90 1.423 . S
C86 C98 1.392 . S
C87 C89 1.420 . S
C87 C90 1.351 . S
C87 H110 0.931 . S
C88 C85 1.429 . S
C88 C86 1.420 . S
C88 N96 1.362 . S
C89 C85 1.411 . S
C89 C87 1.420 . S
C89 C94 1.395 . S
C90 C86 1.423 . S
C90 C87 1.351 . S
C90 H102 0.930 . S
C91 C93 1.400 . S
C91 C94 1.386 . S
C91 H103 0.930 . S
N92 C85 1.377 . S
N92 C93 1.321 . S
N92 Eu95 2.609 . S
C93 C91 1.400 . S
C93 N92 1.321 . S
C93 H100 0.930 . S
C94 C89 1.395 . S
C94 C91 1.386 . S
C94 H113 0.930 . S
Eu95 N92 2.609 . S
Eu95 N96 2.657 . S
Eu95 O129 2.380 . S
Eu95 O130 2.432 . S
Eu95 O134 2.558 . S
Eu95 O135 2.612 . S
Eu95 O137 2.339 . S
Eu95 O138 2.563 . S
Eu95 O139 2.419 . S
Eu95 C159 2.848 . S
N96 C88 1.362 . S
N96 Eu95 2.657 . S
N96 C97 1.334 . S
C97 N96 1.334 . S
C97 C99 1.413 . S
C97 H104 0.929 . S
C98 C86 1.392 . S
C98 C99 1.367 . S
C98 H106 0.930 . S
C99 C97 1.413 . S
C99 C98 1.367 . S
C99 H101 0.930 . S
H100 C93 0.930 . S
H101 C99 0.930 . S
H102 C90 0.930 . S
H103 C91 0.930 . S
H104 C97 0.929 . S
H105 C119 0.930 . S
H106 C98 0.930 . S
H107 C125 0.930 . S
H108 C116 0.929 . S
H109 C123 0.930 . S
H110 C87 0.931 . S
H111 C117 0.930 . S
H112 C150 0.930 . S
H113 C94 0.930 . S
H114 C149 0.931 . S
N115 Eu84 2.657 . S
N115 C116 1.334 . S
N115 C120 1.362 . S
C116 H108 0.929 . S
C116 N115 1.334 . S
C116 C119 1.413 . S
C117 H111 0.930 . S
C117 C118 1.392 . S
C117 C119 1.367 . S
C118 C117 1.392 . S
C118 C120 1.420 . S
C118 C150 1.423 . S
C119 H105 0.930 . S
C119 C116 1.413 . S
C119 C117 1.367 . S
C120 N115 1.362 . S
C120 C118 1.420 . S
C120 C124 1.429 . S
H121 C126 0.930 . S
N122 Eu84 2.609 . S
N122 C124 1.377 . S
N122 C125 1.321 . S
C123 H109 0.930 . S
C123 C125 1.400 . S
C123 C126 1.386 . S
C124 C120 1.429 . S
C124 N122 1.377 . S
C124 C127 1.411 . S
C125 H107 0.930 . S
C125 N122 1.321 . S
C125 C123 1.400 . S
C126 H121 0.930 . S
C126 C123 1.386 . S
C126 C127 1.395 . S
C127 C124 1.411 . S
C127 C126 1.395 . S
C127 C149 1.420 . S
O128 Eu84 2.558 . S
O128 C148 1.257 . S
O129 Eu84 2.612 . S
O129 Eu95 2.380 . S
O129 C140 1.276 . S
O130 Eu95 2.432 . S
O130 C147 1.264 . S
O131 Eu84 2.339 . S
O131 C147 1.254 . S
O132 Eu84 2.563 . S
O132 C140 1.235 . S
O133 Eu84 2.419 . S
O133 C148 1.249 . S
O134 Eu95 2.558 . S
O134 C159 1.257 . S
O135 Eu84 2.380 . S
O135 Eu95 2.612 . S
O135 C151 1.276 . S
O136 Eu84 2.432 . S
O136 C158 1.264 . S
O137 Eu95 2.339 . S
O137 C158 1.254 . S
O138 Eu95 2.563 . S
O138 C151 1.235 . S
O139 Eu95 2.419 . S
O139 C159 1.249 . S
C140 O129 1.276 . S
C140 O132 1.235 . S
C141 C143 1.393 . S
C141 C145 1.395 . S
C141 C148 1.492 . S
C142 C143 1.392 . S
C142 C144 1.386 . S
C143 C141 1.393 . S
C143 C142 1.392 . S
C143 H160 0.930 . S
C144 C142 1.386 . S
C144 C146 1.395 . S
C144 H161 0.930 . S
C145 C141 1.395 . S
C145 C146 1.379 . S
C145 H162 0.930 . S
C146 C144 1.395 . S
C146 C145 1.379 . S
C146 H163 0.930 . S
C147 O130 1.264 . S
C147 O131 1.254 . S
C148 Eu84 2.848 . S
C148 O128 1.257 . S
C148 O133 1.249 . S
C148 C141 1.492 . S
C149 H114 0.931 . S
C149 C127 1.420 . S
C149 C150 1.351 . S
C150 H112 0.930 . S
C150 C118 1.423 . S
C150 C149 1.351 . S
C151 O135 1.276 . S
C151 O138 1.235 . S
C152 C153 1.393 . S
C152 C156 1.395 . S
C152 C159 1.492 . S
C153 C152 1.393 . S
C153 C154 1.392 . S
C153 H164 0.930 . S
C154 C153 1.392 . S
C154 C155 1.386 . S
C155 C154 1.386 . S
C155 C157 1.395 . S
C155 H165 0.930 . S
C156 C152 1.395 . S
C156 C157 1.379 . S
C156 H166 0.930 . S
C157 C155 1.395 . S
C157 C156 1.379 . S
C157 H167 0.930 . S
C158 O136 1.264 . S
C158 O137 1.254 . S
C159 Eu95 2.848 . S
C159 O134 1.257 . S
C159 O139 1.249 . S
C159 C152 1.492 . S
H160 C143 0.930 . S
H161 C144 0.930 . S
H162 C145 0.930 . S
H163 C146 0.930 . S
H164 C153 0.930 . S
H165 C155 0.930 . S
H166 C156 0.930 . S
H167 C157 0.930 . S
Eu168 N199 2.657 . S
Eu168 N206 2.609 . S
Eu168 O212 2.558 . S
Eu168 O213 2.612 . S
Eu168 O215 2.339 . S
Eu168 O216 2.563 . S
Eu168 O217 2.419 . S
Eu168 O219 2.380 . S
Eu168 O220 2.432 . S
Eu168 C232 2.848 . S
C169 C172 1.429 . S
C169 C173 1.411 . S
C169 N176 1.377 . S
C170 C172 1.420 . S
C170 C174 1.423 . S
C170 C182 1.392 . S
C171 C173 1.420 . S
C171 C174 1.351 . S
C171 H194 0.931 . S
C172 C169 1.429 . S
C172 C170 1.420 . S
C172 N180 1.362 . S
C173 C169 1.411 . S
C173 C171 1.420 . S
C173 C178 1.395 . S
C174 C170 1.423 . S
C174 C171 1.351 . S
C174 H186 0.930 1_554 S
C175 C177 1.400 . S
C175 C178 1.386 . S
C175 H187 0.930 . S
N176 C169 1.377 . S
N176 C177 1.321 . S
N176 Eu179 2.609 . S
C177 C175 1.400 . S
C177 N176 1.321 . S
C177 H184 0.930 . S
C178 C173 1.395 . S
C178 C175 1.386 . S
C178 H197 0.930 . S
Eu179 N176 2.609 . S
Eu179 N180 2.657 . S
Eu179 O213 2.380 . S
Eu179 O214 2.432 . S
Eu179 O218 2.558 . S
Eu179 O219 2.612 . S
Eu179 O221 2.339 . S
Eu179 O222 2.563 . S
Eu179 O223 2.419 . S
Eu179 C243 2.848 . S
N180 C172 1.362 . S
N180 Eu179 2.657 . S
N180 C181 1.334 . S
C181 N180 1.334 . S
C181 C183 1.413 . S
C181 H188 0.929 . S
C182 C170 1.392 . S
C182 C183 1.367 . S
C182 H190 0.930 1_554 S
C183 C181 1.413 . S
C183 C182 1.367 . S
C183 H185 0.930 . S
H184 C177 0.930 . S
H185 C183 0.930 . S
H186 C174 0.930 1_556 S
H187 C175 0.930 . S
H188 C181 0.929 . S
H189 C203 0.930 . S
H190 C182 0.930 1_556 S
H191 C209 0.930 . S
H192 C200 0.929 . S
H193 C207 0.930 . S
H194 C171 0.931 . S
H195 C201 0.930 . S
H196 C234 0.930 . S
H197 C178 0.930 . S
H198 C233 0.931 . S
N199 Eu168 2.657 . S
N199 C200 1.334 . S
N199 C204 1.362 . S
C200 H192 0.929 . S
C200 N199 1.334 . S
C200 C203 1.413 . S
C201 H195 0.930 . S
C201 C202 1.392 . S
C201 C203 1.367 . S
C202 C201 1.392 . S
C202 C204 1.420 . S
C202 C234 1.423 . S
C203 H189 0.930 . S
C203 C200 1.413 . S
C203 C201 1.367 . S
C204 N199 1.362 . S
C204 C202 1.420 . S
C204 C208 1.429 . S
H205 C210 0.930 . S
N206 Eu168 2.609 . S
N206 C208 1.377 . S
N206 C209 1.321 . S
C207 H193 0.930 . S
C207 C209 1.400 . S
C207 C210 1.386 . S
C208 C204 1.429 . S
C208 N206 1.377 . S
C208 C211 1.411 . S
C209 H191 0.930 . S
C209 N206 1.321 . S
C209 C207 1.400 . S
C210 H205 0.930 . S
C210 C207 1.386 . S
C210 C211 1.395 . S
C211 C208 1.411 . S
C211 C210 1.395 . S
C211 C233 1.420 . S
O212 Eu168 2.558 . S
O212 C232 1.257 . S
O213 Eu168 2.612 . S
O213 Eu179 2.380 . S
O213 C224 1.276 . S
O214 Eu179 2.432 . S
O214 C231 1.264 . S
O215 Eu168 2.339 . S
O215 C231 1.254 . S
O216 Eu168 2.563 . S
O216 C224 1.235 . S
O217 Eu168 2.419 . S
O217 C232 1.249 . S
O218 Eu179 2.558 . S
O218 C243 1.257 . S
O219 Eu168 2.380 . S
O219 Eu179 2.612 . S
O219 C235 1.276 . S
O220 Eu168 2.432 . S
O220 C242 1.264 . S
O221 Eu179 2.339 . S
O221 C242 1.254 . S
O222 Eu179 2.563 . S
O222 C235 1.235 . S
O223 Eu179 2.419 . S
O223 C243 1.249 . S
C224 O213 1.276 . S
C224 O216 1.235 . S
C225 C227 1.393 . S
C225 C229 1.395 . S
C225 C232 1.492 . S
C226 C227 1.392 . S
C226 C228 1.386 . S
C227 C225 1.393 . S
C227 C226 1.392 . S
C227 H244 0.930 . S
C228 C226 1.386 . S
C228 C230 1.395 . S
C228 H245 0.930 . S
C229 C225 1.395 . S
C229 C230 1.379 . S
C229 H246 0.930 . S
C230 C228 1.395 . S
C230 C229 1.379 . S
C230 H247 0.930 . S
C231 O214 1.264 . S
C231 O215 1.254 . S
C232 Eu168 2.848 . S
C232 O212 1.257 . S
C232 O217 1.249 . S
C232 C225 1.492 . S
C233 H198 0.931 . S
C233 C211 1.420 . S
C233 C234 1.351 . S
C234 H196 0.930 . S
C234 C202 1.423 . S
C234 C233 1.351 . S
C235 O219 1.276 . S
C235 O222 1.235 . S
C236 C237 1.393 . S
C236 C240 1.395 . S
C236 C243 1.492 . S
C237 C236 1.393 . S
C237 C238 1.392 . S
C237 H248 0.930 . S
C238 C237 1.392 . S
C238 C239 1.386 . S
C239 C238 1.386 . S
C239 C241 1.395 . S
C239 H249 0.930 . S
C240 C236 1.395 . S
C240 C241 1.379 . S
C240 H250 0.930 . S
C241 C239 1.395 . S
C241 C240 1.379 . S
C241 H251 0.930 . S
C242 O220 1.264 . S
C242 O221 1.254 . S
C243 Eu179 2.848 . S
C243 O218 1.257 . S
C243 O223 1.249 . S
C243 C236 1.492 . S
H244 C227 0.930 . S
H245 C228 0.930 . S
H246 C229 0.930 . S
H247 C230 0.930 . S
H248 C237 0.930 . S
H249 C239 0.930 . S
H250 C240 0.930 . S
H251 C241 0.930 . S
Eu252 N283 2.657 . S
Eu252 N290 2.609 . S
Eu252 O296 2.558 . S
Eu252 O297 2.612 . S
Eu252 O299 2.339 . S
Eu252 O300 2.563 . S
Eu252 O301 2.419 . S
Eu252 O303 2.380 . S
Eu252 O304 2.432 . S
Eu252 C316 2.848 . S
C253 C256 1.429 . S
C253 C257 1.411 . S
C253 N260 1.377 . S
C254 C256 1.420 . S
C254 C258 1.423 . S
C254 C266 1.392 . S
C255 C257 1.420 . S
C255 C258 1.351 . S
C255 H278 0.931 1_554 S
C256 C253 1.429 . S
C256 C254 1.420 . S
C256 N264 1.362 . S
C257 C253 1.411 . S
C257 C255 1.420 . S
C257 C262 1.395 . S
C258 C254 1.423 . S
C258 C255 1.351 . S
C258 H270 0.930 . S
C259 C261 1.400 . S
C259 C262 1.386 . S
C259 H271 0.930 . S
N260 C253 1.377 . S
N260 C261 1.321 . S
N260 Eu263 2.609 . S
C261 C259 1.400 . S
C261 N260 1.321 . S
C261 H268 0.930 . S
C262 C257 1.395 . S
C262 C259 1.386 . S
C262 H281 0.930 1_554 S
Eu263 N260 2.609 . S
Eu263 N264 2.657 . S
Eu263 O297 2.380 . S
Eu263 O298 2.432 . S
Eu263 O302 2.558 . S
Eu263 O303 2.612 . S
Eu263 O305 2.339 . S
Eu263 O306 2.563 . S
Eu263 O307 2.419 . S
Eu263 C327 2.848 . S
N264 C256 1.362 . S
N264 Eu263 2.657 . S
N264 C265 1.334 . S
C265 N264 1.334 . S
C265 C267 1.413 . S
C265 H272 0.929 . S
C266 C254 1.392 . S
C266 C267 1.367 . S
C266 H274 0.930 . S
C267 C265 1.413 . S
C267 C266 1.367 . S
C267 H269 0.930 . S
H268 C261 0.930 . S
H269 C267 0.930 . S
H270 C258 0.930 . S
H271 C259 0.930 . S
H272 C265 0.929 . S
H273 C287 0.930 . S
H274 C266 0.930 . S
H275 C293 0.930 . S
H276 C284 0.929 . S
H277 C291 0.930 . S
H278 C255 0.931 1_556 S
H279 C285 0.930 . S
H280 C318 0.930 . S
H281 C262 0.930 1_556 S
H282 C317 0.931 . S
N283 Eu252 2.657 . S
N283 C284 1.334 . S
N283 C288 1.362 . S
C284 H276 0.929 . S
C284 N283 1.334 . S
C284 C287 1.413 . S
C285 H279 0.930 . S
C285 C286 1.392 . S
C285 C287 1.367 . S
C286 C285 1.392 . S
C286 C288 1.420 . S
C286 C318 1.423 . S
C287 H273 0.930 . S
C287 C284 1.413 . S
C287 C285 1.367 . S
C288 N283 1.362 . S
C288 C286 1.420 . S
C288 C292 1.429 . S
H289 C294 0.930 . S
N290 Eu252 2.609 . S
N290 C292 1.377 . S
N290 C293 1.321 . S
C291 H277 0.930 . S
C291 C293 1.400 . S
C291 C294 1.386 . S
C292 C288 1.429 . S
C292 N290 1.377 . S
C292 C295 1.411 . S
C293 H275 0.930 . S
C293 N290 1.321 . S
C293 C291 1.400 . S
C294 H289 0.930 . S
C294 C291 1.386 . S
C294 C295 1.395 . S
C295 C292 1.411 . S
C295 C294 1.395 . S
C295 C317 1.420 . S
O296 Eu252 2.558 . S
O296 C316 1.257 . S
O297 Eu252 2.612 . S
O297 Eu263 2.380 . S
O297 C308 1.276 . S
O298 Eu263 2.432 . S
O298 C315 1.264 . S
O299 Eu252 2.339 . S
O299 C315 1.254 . S
O300 Eu252 2.563 . S
O300 C308 1.235 . S
O301 Eu252 2.419 . S
O301 C316 1.249 . S
O302 Eu263 2.558 . S
O302 C327 1.257 . S
O303 Eu252 2.380 . S
O303 Eu263 2.612 . S
O303 C319 1.276 . S
O304 Eu252 2.432 . S
O304 C326 1.264 . S
O305 Eu263 2.339 . S
O305 C326 1.254 . S
O306 Eu263 2.563 . S
O306 C319 1.235 . S
O307 Eu263 2.419 . S
O307 C327 1.249 . S
C308 O297 1.276 . S
C308 O300 1.235 . S
C309 C311 1.393 . S
C309 C313 1.395 . S
C309 C316 1.492 . S
C310 C311 1.392 . S
C310 C312 1.386 . S
C311 C309 1.393 . S
C311 C310 1.392 . S
C311 H328 0.930 . S
C312 C310 1.386 . S
C312 C314 1.395 . S
C312 H329 0.930 . S
C313 C309 1.395 . S
C313 C314 1.379 . S
C313 H330 0.930 . S
C314 C312 1.395 . S
C314 C313 1.379 . S
C314 H331 0.930 . S
C315 O298 1.264 . S
C315 O299 1.254 . S
C316 Eu252 2.848 . S
C316 O296 1.257 . S
C316 O301 1.249 . S
C316 C309 1.492 . S
C317 H282 0.931 . S
C317 C295 1.420 . S
C317 C318 1.351 . S
C318 H280 0.930 . S
C318 C286 1.423 . S
C318 C317 1.351 . S
C319 O303 1.276 . S
C319 O306 1.235 . S
C320 C321 1.393 . S
C320 C324 1.395 . S
C320 C327 1.492 . S
C321 C320 1.393 . S
C321 C322 1.392 . S
C321 H332 0.930 . S
C322 C321 1.392 . S
C322 C323 1.386 . S
C323 C322 1.386 . S
C323 C325 1.395 . S
C323 H333 0.930 . S
C324 C320 1.395 . S
C324 C325 1.379 . S
C324 H334 0.930 . S
C325 C323 1.395 . S
C325 C324 1.379 . S
C325 H335 0.930 . S
C326 O304 1.264 . S
C326 O305 1.254 . S
C327 Eu263 2.848 . S
C327 O302 1.257 . S
C327 O307 1.249 . S
C327 C320 1.492 . S
H328 C311 0.930 . S
H329 C312 0.930 . S
H330 C313 0.930 . S
H331 C314 0.930 . S
H332 C321 0.930 . S
H333 C323 0.930 . S
H334 C324 0.930 . S
H335 C325 0.930 . S
Eu336 N367 2.657 . S
Eu336 N374 2.609 . S
Eu336 O380 2.558 . S
Eu336 O381 2.612 . S
Eu336 O383 2.339 . S
Eu336 O384 2.563 . S
Eu336 O385 2.419 . S
Eu336 O387 2.380 . S
Eu336 O388 2.432 . S
Eu336 C400 2.848 . S
C337 C340 1.429 . S
C337 C341 1.411 . S
C337 N344 1.377 . S
C338 C340 1.420 . S
C338 C342 1.423 . S
C338 C350 1.392 . S
C339 C341 1.420 . S
C339 C342 1.351 . S
C339 H362 0.931 . S
C340 C337 1.429 . S
C340 C338 1.420 . S
C340 N348 1.362 . S
C341 C337 1.411 . S
C341 C339 1.420 . S
C341 C346 1.395 . S
C342 C338 1.423 . S
C342 C339 1.351 . S
C342 H354 0.930 . S
C343 C345 1.400 . S
C343 C346 1.386 . S
C343 H355 0.930 . S
N344 C337 1.377 . S
N344 C345 1.321 . S
N344 Eu347 2.609 . S
C345 C343 1.400 . S
C345 N344 1.321 . S
C345 H352 0.930 . S
C346 C341 1.395 . S
C346 C343 1.386 . S
C346 H365 0.930 . S
Eu347 N344 2.609 . S
Eu347 N348 2.657 . S
Eu347 O381 2.380 . S
Eu347 O382 2.432 . S
Eu347 O386 2.558 . S
Eu347 O387 2.612 . S
Eu347 O389 2.339 . S
Eu347 O390 2.563 . S
Eu347 O391 2.419 . S
Eu347 C411 2.848 . S
N348 C340 1.362 . S
N348 Eu347 2.657 . S
N348 C349 1.334 . S
C349 N348 1.334 . S
C349 C351 1.413 . S
C349 H356 0.929 . S
C350 C338 1.392 . S
C350 C351 1.367 . S
C350 H358 0.930 . S
C351 C349 1.413 . S
C351 C350 1.367 . S
C351 H353 0.930 . S
H352 C345 0.930 . S
H353 C351 0.930 . S
H354 C342 0.930 . S
H355 C343 0.930 . S
H356 C349 0.929 . S
H357 C371 0.930 . S
H358 C350 0.930 . S
H359 C377 0.930 . S
H360 C368 0.929 . S
H361 C375 0.930 . S
H362 C339 0.931 . S
H363 C369 0.930 . S
H364 C402 0.930 . S
H365 C346 0.930 . S
H366 C401 0.931 . S
N367 Eu336 2.657 . S
N367 C368 1.334 . S
N367 C372 1.362 . S
C368 H360 0.929 . S
C368 N367 1.334 . S
C368 C371 1.413 . S
C369 H363 0.930 . S
C369 C370 1.392 . S
C369 C371 1.367 . S
C370 C369 1.392 . S
C370 C372 1.420 . S
C370 C402 1.423 . S
C371 H357 0.930 . S
C371 C368 1.413 . S
C371 C369 1.367 . S
C372 N367 1.362 . S
C372 C370 1.420 . S
C372 C376 1.429 . S
H373 C378 0.930 . S
N374 Eu336 2.609 . S
N374 C376 1.377 . S
N374 C377 1.321 . S
C375 H361 0.930 . S
C375 C377 1.400 . S
C375 C378 1.386 . S
C376 C372 1.429 . S
C376 N374 1.377 . S
C376 C379 1.411 . S
C377 H359 0.930 . S
C377 N374 1.321 . S
C377 C375 1.400 . S
C378 H373 0.930 . S
C378 C375 1.386 . S
C378 C379 1.395 . S
C379 C376 1.411 . S
C379 C378 1.395 . S
C379 C401 1.420 . S
O380 Eu336 2.558 . S
O380 C400 1.257 . S
O381 Eu336 2.612 . S
O381 Eu347 2.380 . S
O381 C392 1.276 . S
O382 Eu347 2.432 . S
O382 C399 1.264 . S
O383 Eu336 2.339 . S
O383 C399 1.254 . S
O384 Eu336 2.563 . S
O384 C392 1.235 . S
O385 Eu336 2.419 . S
O385 C400 1.249 . S
O386 Eu347 2.558 . S
O386 C411 1.257 . S
O387 Eu336 2.380 . S
O387 Eu347 2.612 . S
O387 C403 1.276 . S
O388 Eu336 2.432 . S
O388 C410 1.264 . S
O389 Eu347 2.339 . S
O389 C410 1.254 . S
O390 Eu347 2.563 . S
O390 C403 1.235 . S
O391 Eu347 2.419 . S
O391 C411 1.249 . S
C392 O381 1.276 . S
C392 O384 1.235 . S
C393 C395 1.393 . S
C393 C397 1.395 . S
C393 C400 1.492 . S
C394 C395 1.392 . S
C394 C396 1.386 . S
C395 C393 1.393 . S
C395 C394 1.392 . S
C395 H412 0.930 . S
C396 C394 1.386 . S
C396 C398 1.395 . S
C396 H413 0.930 . S
C397 C393 1.395 . S
C397 C398 1.379 . S
C397 H414 0.930 . S
C398 C396 1.395 . S
C398 C397 1.379 . S
C398 H415 0.930 . S
C399 O382 1.264 . S
C399 O383 1.254 . S
C400 Eu336 2.848 . S
C400 O380 1.257 . S
C400 O385 1.249 . S
C400 C393 1.492 . S
C401 H366 0.931 . S
C401 C379 1.420 . S
C401 C402 1.351 . S
C402 H364 0.930 . S
C402 C370 1.423 . S
C402 C401 1.351 . S
C403 O387 1.276 . S
C403 O390 1.235 . S
C404 C405 1.393 . S
C404 C408 1.395 . S
C404 C411 1.492 . S
C405 C404 1.393 . S
C405 C406 1.392 . S
C405 H416 0.930 . S
C406 C405 1.392 . S
C406 C407 1.386 . S
C407 C406 1.386 . S
C407 C409 1.395 . S
C407 H417 0.930 . S
C408 C404 1.395 . S
C408 C409 1.379 . S
C408 H418 0.930 . S
C409 C407 1.395 . S
C409 C408 1.379 . S
C409 H419 0.930 . S
C410 O388 1.264 . S
C410 O389 1.254 . S
C411 Eu347 2.848 . S
C411 O386 1.257 . S
C411 O391 1.249 . S
C411 C404 1.492 . S
H412 C395 0.930 . S
H413 C396 0.930 . S
H414 C397 0.930 . S
H415 C398 0.930 . S
H416 C405 0.930 . S
H417 C407 0.930 . S
H418 C408 0.930 . S
H419 C409 0.930 . S
Eu420 N451 2.657 . S
Eu420 N458 2.609 . S
Eu420 O464 2.558 . S
Eu420 O465 2.612 . S
Eu420 O467 2.339 . S
Eu420 O468 2.563 . S
Eu420 O469 2.419 . S
Eu420 O471 2.380 . S
Eu420 O472 2.432 . S
Eu420 C484 2.848 . S
C421 C424 1.429 . S
C421 C425 1.411 . S
C421 N428 1.377 . S
C422 C424 1.420 . S
C422 C426 1.423 . S
C422 C434 1.392 . S
C423 C425 1.420 . S
C423 C426 1.351 . S
C423 H446 0.931 . S
C424 C421 1.429 . S
C424 C422 1.420 . S
C424 N432 1.362 . S
C425 C421 1.411 . S
C425 C423 1.420 . S
C425 C430 1.395 . S
C426 C422 1.423 . S
C426 C423 1.351 . S
C426 H438 0.930 . S
C427 C429 1.400 . S
C427 C430 1.386 . S
C427 H439 0.930 . S
N428 C421 1.377 . S
N428 C429 1.321 . S
N428 Eu431 2.609 . S
C429 C427 1.400 . S
C429 N428 1.321 . S
C429 H436 0.930 . S
C430 C425 1.395 . S
C430 C427 1.386 . S
C430 H449 0.930 . S
Eu431 N428 2.609 . S
Eu431 N432 2.657 . S
Eu431 O465 2.380 . S
Eu431 O466 2.432 . S
Eu431 O470 2.558 . S
Eu431 O471 2.612 . S
Eu431 O473 2.339 . S
Eu431 O474 2.563 . S
Eu431 O475 2.419 . S
Eu431 C495 2.848 . S
N432 C424 1.362 . S
N432 Eu431 2.657 . S
N432 C433 1.334 . S
C433 N432 1.334 . S
C433 C435 1.413 . S
C433 H440 0.929 . S
C434 C422 1.392 . S
C434 C435 1.367 . S
C434 H442 0.930 . S
C435 C433 1.413 . S
C435 C434 1.367 . S
C435 H437 0.930 . S
H436 C429 0.930 . S
H437 C435 0.930 . S
H438 C426 0.930 . S
H439 C427 0.930 . S
H440 C433 0.929 . S
H441 C455 0.930 . S
H442 C434 0.930 . S
H443 C461 0.930 . S
H444 C452 0.929 . S
H445 C459 0.930 . S
H446 C423 0.931 . S
H447 C453 0.930 1_554 S
H448 C486 0.930 1_554 S
H449 C430 0.930 . S
H450 C485 0.931 . S
N451 Eu420 2.657 . S
N451 C452 1.334 . S
N451 C456 1.362 . S
C452 H444 0.929 . S
C452 N451 1.334 . S
C452 C455 1.413 . S
C453 H447 0.930 1_556 S
C453 C454 1.392 . S
C453 C455 1.367 . S
C454 C453 1.392 . S
C454 C456 1.420 . S
C454 C486 1.423 . S
C455 H441 0.930 . S
C455 C452 1.413 . S
C455 C453 1.367 . S
C456 N451 1.362 . S
C456 C454 1.420 . S
C456 C460 1.429 . S
H457 C462 0.930 . S
N458 Eu420 2.609 . S
N458 C460 1.377 . S
N458 C461 1.321 . S
C459 H445 0.930 . S
C459 C461 1.400 . S
C459 C462 1.386 . S
C460 C456 1.429 . S
C460 N458 1.377 . S
C460 C463 1.411 . S
C461 H443 0.930 . S
C461 N458 1.321 . S
C461 C459 1.400 . S
C462 H457 0.930 . S
C462 C459 1.386 . S
C462 C463 1.395 . S
C463 C460 1.411 . S
C463 C462 1.395 . S
C463 C485 1.420 . S
O464 Eu420 2.558 . S
O464 C484 1.257 . S
O465 Eu420 2.612 . S
O465 Eu431 2.380 . S
O465 C476 1.276 . S
O466 Eu431 2.432 . S
O466 C483 1.264 . S
O467 Eu420 2.339 . S
O467 C483 1.254 . S
O468 Eu420 2.563 . S
O468 C476 1.235 . S
O469 Eu420 2.419 . S
O469 C484 1.249 . S
O470 Eu431 2.558 . S
O470 C495 1.257 . S
O471 Eu420 2.380 . S
O471 Eu431 2.612 . S
O471 C487 1.276 . S
O472 Eu420 2.432 . S
O472 C494 1.264 . S
O473 Eu431 2.339 . S
O473 C494 1.254 . S
O474 Eu431 2.563 . S
O474 C487 1.235 . S
O475 Eu431 2.419 . S
O475 C495 1.249 . S
C476 O465 1.276 . S
C476 O468 1.235 . S
C477 C479 1.393 . S
C477 C481 1.395 . S
C477 C484 1.492 . S
C478 C479 1.392 . S
C478 C480 1.386 . S
C479 C477 1.393 . S
C479 C478 1.392 . S
C479 H496 0.930 . S
C480 C478 1.386 . S
C480 C482 1.395 . S
C480 H497 0.930 . S
C481 C477 1.395 . S
C481 C482 1.379 . S
C481 H498 0.930 . S
C482 C480 1.395 . S
C482 C481 1.379 . S
C482 H499 0.930 . S
C483 O466 1.264 . S
C483 O467 1.254 . S
C484 Eu420 2.848 . S
C484 O464 1.257 . S
C484 O469 1.249 . S
C484 C477 1.492 . S
C485 H450 0.931 . S
C485 C463 1.420 . S
C485 C486 1.351 . S
C486 H448 0.930 1_556 S
C486 C454 1.423 . S
C486 C485 1.351 . S
C487 O471 1.276 . S
C487 O474 1.235 . S
C488 C489 1.393 . S
C488 C492 1.395 . S
C488 C495 1.492 . S
C489 C488 1.393 . S
C489 C490 1.392 . S
C489 H500 0.930 . S
C490 C489 1.392 . S
C490 C491 1.386 . S
C491 C490 1.386 . S
C491 C493 1.395 . S
C491 H501 0.930 . S
C492 C488 1.395 . S
C492 C493 1.379 . S
C492 H502 0.930 . S
C493 C491 1.395 . S
C493 C492 1.379 . S
C493 H503 0.930 . S
C494 O472 1.264 . S
C494 O473 1.254 . S
C495 Eu431 2.848 . S
C495 O470 1.257 . S
C495 O475 1.249 . S
C495 C488 1.492 . S
H496 C479 0.930 . S
H497 C480 0.930 . S
H498 C481 0.930 . S
H499 C482 0.930 . S
H500 C489 0.930 . S
H501 C491 0.930 . S
H502 C492 0.930 . S
H503 C493 0.930 . S
Eu504 N535 2.657 . S
Eu504 N542 2.609 . S
Eu504 O548 2.558 . S
Eu504 O549 2.612 . S
Eu504 O551 2.339 . S
Eu504 O552 2.563 . S
Eu504 O553 2.419 . S
Eu504 O555 2.380 . S
Eu504 O556 2.432 . S
Eu504 C568 2.848 . S
C505 C508 1.429 . S
C505 C509 1.411 . S
C505 N512 1.377 . S
C506 C508 1.420 . S
C506 C510 1.423 . S
C506 C518 1.392 . S
C507 C509 1.420 . S
C507 C510 1.351 . S
C507 H530 0.931 . S
C508 C505 1.429 . S
C508 C506 1.420 . S
C508 N516 1.362 . S
C509 C505 1.411 . S
C509 C507 1.420 . S
C509 C514 1.395 . S
C510 C506 1.423 . S
C510 C507 1.351 . S
C510 H522 0.930 . S
C511 C513 1.400 . S
C511 C514 1.386 . S
C511 H523 0.930 . S
N512 C505 1.377 . S
N512 C513 1.321 . S
N512 Eu515 2.609 . S
C513 C511 1.400 . S
C513 N512 1.321 . S
C513 H520 0.930 . S
C514 C509 1.395 . S
C514 C511 1.386 . S
C514 H533 0.930 . S
Eu515 N512 2.609 . S
Eu515 N516 2.657 . S
Eu515 O549 2.380 . S
Eu515 O550 2.432 . S
Eu515 O554 2.558 . S
Eu515 O555 2.612 . S
Eu515 O557 2.339 . S
Eu515 O558 2.563 . S
Eu515 O559 2.419 . S
Eu515 C579 2.848 . S
N516 C508 1.362 . S
N516 Eu515 2.657 . S
N516 C517 1.334 . S
C517 N516 1.334 . S
C517 C519 1.413 . S
C517 H524 0.929 . S
C518 C506 1.392 . S
C518 C519 1.367 . S
C518 H526 0.930 . S
C519 C517 1.413 . S
C519 C518 1.367 . S
C519 H521 0.930 . S
H520 C513 0.930 . S
H521 C519 0.930 . S
H522 C510 0.930 . S
H523 C511 0.930 . S
H524 C517 0.929 . S
H525 C539 0.930 . S
H526 C518 0.930 . S
H527 C545 0.930 . S
H528 C536 0.929 . S
H529 C543 0.930 . S
H530 C507 0.931 . S
H531 C537 0.930 . S
H532 C570 0.930 . S
H533 C514 0.930 . S
H534 C569 0.931 1_554 S
N535 Eu504 2.657 . S
N535 C536 1.334 . S
N535 C540 1.362 . S
C536 H528 0.929 . S
C536 N535 1.334 . S
C536 C539 1.413 . S
C537 H531 0.930 . S
C537 C538 1.392 . S
C537 C539 1.367 . S
C538 C537 1.392 . S
C538 C540 1.420 . S
C538 C570 1.423 . S
C539 H525 0.930 . S
C539 C536 1.413 . S
C539 C537 1.367 . S
C540 N535 1.362 . S
C540 C538 1.420 . S
C540 C544 1.429 . S
H541 C546 0.930 1_554 S
N542 Eu504 2.609 . S
N542 C544 1.377 . S
N542 C545 1.321 . S
C543 H529 0.930 . S
C543 C545 1.400 . S
C543 C546 1.386 . S
C544 C540 1.429 . S
C544 N542 1.377 . S
C544 C547 1.411 . S
C545 H527 0.930 . S
C545 N542 1.321 . S
C545 C543 1.400 . S
C546 H541 0.930 1_556 S
C546 C543 1.386 . S
C546 C547 1.395 . S
C547 C544 1.411 . S
C547 C546 1.395 . S
C547 C569 1.420 . S
O548 Eu504 2.558 . S
O548 C568 1.257 . S
O549 Eu504 2.612 . S
O549 Eu515 2.380 . S
O549 C560 1.276 . S
O550 Eu515 2.432 . S
O550 C567 1.264 . S
O551 Eu504 2.339 . S
O551 C567 1.254 . S
O552 Eu504 2.563 . S
O552 C560 1.235 . S
O553 Eu504 2.419 . S
O553 C568 1.249 . S
O554 Eu515 2.558 . S
O554 C579 1.257 . S
O555 Eu504 2.380 . S
O555 Eu515 2.612 . S
O555 C571 1.276 . S
O556 Eu504 2.432 . S
O556 C578 1.264 . S
O557 Eu515 2.339 . S
O557 C578 1.254 . S
O558 Eu515 2.563 . S
O558 C571 1.235 . S
O559 Eu515 2.419 . S
O559 C579 1.249 . S
C560 O549 1.276 . S
C560 O552 1.235 . S
C561 C563 1.393 . S
C561 C565 1.395 . S
C561 C568 1.492 . S
C562 C563 1.392 . S
C562 C564 1.386 . S
C563 C561 1.393 . S
C563 C562 1.392 . S
C563 H580 0.930 . S
C564 C562 1.386 . S
C564 C566 1.395 . S
C564 H581 0.930 . S
C565 C561 1.395 . S
C565 C566 1.379 . S
C565 H582 0.930 . S
C566 C564 1.395 . S
C566 C565 1.379 . S
C566 H583 0.930 . S
C567 O550 1.264 . S
C567 O551 1.254 . S
C568 Eu504 2.848 . S
C568 O548 1.257 . S
C568 O553 1.249 . S
C568 C561 1.492 . S
C569 H534 0.931 1_556 S
C569 C547 1.420 . S
C569 C570 1.351 . S
C570 H532 0.930 . S
C570 C538 1.423 . S
C570 C569 1.351 . S
C571 O555 1.276 . S
C571 O558 1.235 . S
C572 C573 1.393 . S
C572 C576 1.395 . S
C572 C579 1.492 . S
C573 C572 1.393 . S
C573 C574 1.392 . S
C573 H584 0.930 . S
C574 C573 1.392 . S
C574 C575 1.386 . S
C575 C574 1.386 . S
C575 C577 1.395 . S
C575 H585 0.930 . S
C576 C572 1.395 . S
C576 C577 1.379 . S
C576 H586 0.930 . S
C577 C575 1.395 . S
C577 C576 1.379 . S
C577 H587 0.930 . S
C578 O556 1.264 . S
C578 O557 1.254 . S
C579 Eu515 2.848 . S
C579 O554 1.257 . S
C579 O559 1.249 . S
C579 C572 1.492 . S
H580 C563 0.930 . S
H581 C564 0.930 . S
H582 C565 0.930 . S
H583 C566 0.930 . S
H584 C573 0.930 . S
H585 C575 0.930 . S
H586 C576 0.930 . S
H587 C577 0.930 . S
Eu588 N619 2.657 . S
Eu588 N626 2.609 . S
Eu588 O632 2.558 . S
Eu588 O633 2.612 . S
Eu588 O635 2.339 . S
Eu588 O636 2.563 . S
Eu588 O637 2.419 . S
Eu588 O639 2.380 . S
Eu588 O640 2.432 . S
Eu588 C652 2.848 . S
C589 C592 1.429 . S
C589 C593 1.411 . S
C589 N596 1.377 . S
C590 C592 1.420 . S
C590 C594 1.423 . S
C590 C602 1.392 . S
C591 C593 1.420 . S
C591 C594 1.351 . S
C591 H614 0.931 . S
C592 C589 1.429 . S
C592 C590 1.420 . S
C592 N600 1.362 . S
C593 C589 1.411 . S
C593 C591 1.420 . S
C593 C598 1.395 . S
C594 C590 1.423 . S
C594 C591 1.351 . S
C594 H606 0.930 1_556 S
C595 C597 1.400 . S
C595 C598 1.386 . S
C595 H607 0.930 . S
N596 C589 1.377 . S
N596 C597 1.321 . S
N596 Eu599 2.609 . S
C597 C595 1.400 . S
C597 N596 1.321 . S
C597 H604 0.930 . S
C598 C593 1.395 . S
C598 C595 1.386 . S
C598 H617 0.930 . S
Eu599 N596 2.609 . S
Eu599 N600 2.657 . S
Eu599 O633 2.380 . S
Eu599 O634 2.432 . S
Eu599 O638 2.558 . S
Eu599 O639 2.612 . S
Eu599 O641 2.339 . S
Eu599 O642 2.563 . S
Eu599 O643 2.419 . S
Eu599 C663 2.848 . S
N600 C592 1.362 . S
N600 Eu599 2.657 . S
N600 C601 1.334 . S
C601 N600 1.334 . S
C601 C603 1.413 . S
C601 H608 0.929 . S
C602 C590 1.392 . S
C602 C603 1.367 . S
C602 H610 0.930 1_556 S
C603 C601 1.413 . S
C603 C602 1.367 . S
C603 H605 0.930 . S
H604 C597 0.930 . S
H605 C603 0.930 . S
H606 C594 0.930 1_554 S
H607 C595 0.930 . S
H608 C601 0.929 . S
H609 C623 0.930 . S
H610 C602 0.930 1_554 S
H611 C629 0.930 . S
H612 C620 0.929 . S
H613 C627 0.930 . S
H614 C591 0.931 . S
H615 C621 0.930 . S
H616 C654 0.930 . S
H617 C598 0.930 . S
H618 C653 0.931 . S
N619 Eu588 2.657 . S
N619 C620 1.334 . S
N619 C624 1.362 . S
C620 H612 0.929 . S
C620 N619 1.334 . S
C620 C623 1.413 . S
C621 H615 0.930 . S
C621 C622 1.392 . S
C621 C623 1.367 . S
C622 C621 1.392 . S
C622 C624 1.420 . S
C622 C654 1.423 . S
C623 H609 0.930 . S
C623 C620 1.413 . S
C623 C621 1.367 . S
C624 N619 1.362 . S
C624 C622 1.420 . S
C624 C628 1.429 . S
H625 C630 0.930 . S
N626 Eu588 2.609 . S
N626 C628 1.377 . S
N626 C629 1.321 . S
C627 H613 0.930 . S
C627 C629 1.400 . S
C627 C630 1.386 . S
C628 C624 1.429 . S
C628 N626 1.377 . S
C628 C631 1.411 . S
C629 H611 0.930 . S
C629 N626 1.321 . S
C629 C627 1.400 . S
C630 H625 0.930 . S
C630 C627 1.386 . S
C630 C631 1.395 . S
C631 C628 1.411 . S
C631 C630 1.395 . S
C631 C653 1.420 . S
O632 Eu588 2.558 . S
O632 C652 1.257 . S
O633 Eu588 2.612 . S
O633 Eu599 2.380 . S
O633 C644 1.276 . S
O634 Eu599 2.432 . S
O634 C651 1.264 . S
O635 Eu588 2.339 . S
O635 C651 1.254 . S
O636 Eu588 2.563 . S
O636 C644 1.235 . S
O637 Eu588 2.419 . S
O637 C652 1.249 . S
O638 Eu599 2.558 . S
O638 C663 1.257 . S
O639 Eu588 2.380 . S
O639 Eu599 2.612 . S
O639 C655 1.276 . S
O640 Eu588 2.432 . S
O640 C662 1.264 . S
O641 Eu599 2.339 . S
O641 C662 1.254 . S
O642 Eu599 2.563 . S
O642 C655 1.235 . S
O643 Eu599 2.419 . S
O643 C663 1.249 . S
C644 O633 1.276 . S
C644 O636 1.235 . S
C645 C647 1.393 . S
C645 C649 1.395 . S
C645 C652 1.492 . S
C646 C647 1.392 . S
C646 C648 1.386 . S
C647 C645 1.393 . S
C647 C646 1.392 . S
C647 H664 0.930 . S
C648 C646 1.386 . S
C648 C650 1.395 . S
C648 H665 0.930 . S
C649 C645 1.395 . S
C649 C650 1.379 . S
C649 H666 0.930 . S
C650 C648 1.395 . S
C650 C649 1.379 . S
C650 H667 0.930 . S
C651 O634 1.264 . S
C651 O635 1.254 . S
C652 Eu588 2.848 . S
C652 O632 1.257 . S
C652 O637 1.249 . S
C652 C645 1.492 . S
C653 H618 0.931 . S
C653 C631 1.420 . S
C653 C654 1.351 . S
C654 H616 0.930 . S
C654 C622 1.423 . S
C654 C653 1.351 . S
C655 O639 1.276 . S
C655 O642 1.235 . S
C656 C657 1.393 . S
C656 C660 1.395 . S
C656 C663 1.492 . S
C657 C656 1.393 . S
C657 C658 1.392 . S
C657 H668 0.930 . S
C658 C657 1.392 . S
C658 C659 1.386 . S
C659 C658 1.386 . S
C659 C661 1.395 . S
C659 H669 0.930 . S
C660 C656 1.395 . S
C660 C661 1.379 . S
C660 H670 0.930 . S
C661 C659 1.395 . S
C661 C660 1.379 . S
C661 H671 0.930 . S
C662 O640 1.264 . S
C662 O641 1.254 . S
C663 Eu599 2.848 . S
C663 O638 1.257 . S
C663 O643 1.249 . S
C663 C656 1.492 . S
H664 C647 0.930 . S
H665 C648 0.930 . S
H666 C649 0.930 . S
H667 C650 0.930 . S
H668 C657 0.930 . S
H669 C659 0.930 . S
H670 C660 0.930 . S
H671 C661 0.930 . S
Co672 O675 2.042 . S
Co672 O682 2.264 . S
Co672 O701 2.286 . S
Co672 O702 2.069 . S
Co672 O704 2.015 1_455 S
Co673 O675 2.122 . S
Co673 O681 2.073 . S
Co673 O682 2.327 . S
Co673 O683 1.976 1_455 S
Co674 O675 2.088 1_545 S
Co674 O677 2.086 1_455 S
Co674 O684 2.109 1_445 S
Co674 O685 2.146 . S
Co674 O689 2.114 . S
Co674 O703 2.141 1_445 S
O675 Co672 2.042 . S
O675 Co673 2.122 . S
O675 Co674 2.088 1_565 S
O675 H676 0.980 . S
H676 O675 0.980 . S
O677 Co674 2.086 1_655 S
O677 Co678 2.042 . S
O677 Co679 2.122 . S
O677 H680 0.980 . S
Co678 O677 2.042 . S
Co678 O686 2.286 . S
Co678 O687 2.069 . S
Co678 O688 2.015 1_655 S
Co678 O691 2.264 . S
Co679 O677 2.122 . S
Co679 O690 1.976 1_655 S
Co679 O691 2.327 . S
Co679 O692 2.073 . S
H680 O677 0.980 . S
O681 Co673 2.073 . S
O681 C696 1.245 . S
O682 Co672 2.264 . S
O682 Co673 2.327 . S
O682 C696 1.257 . S
O683 Co673 1.976 1_655 S
O683 C695 1.251 . S
O684 Co674 2.109 1_665 S
O684 C695 1.274 . S
O685 Co674 2.146 . S
O685 C698 1.246 . S
O686 Co678 2.286 . S
O686 C697 1.259 . S
O687 Co678 2.069 . S
O687 C697 1.289 . S
O688 Co678 2.015 1_455 S
O688 C698 1.257 . S
O689 Co674 2.114 . S
O689 C699 1.274 . S
O690 Co679 1.976 1_455 S
O690 C699 1.251 . S
O691 Co678 2.264 . S
O691 Co679 2.327 . S
O691 C700 1.257 . S
O692 Co679 2.073 . S
O692 C700 1.245 . S
C693 O701 1.259 . S
C693 O702 1.289 . S
C694 O703 1.246 . S
C694 O704 1.257 . S
C695 O683 1.251 . S
C695 O684 1.274 . S
C696 O681 1.245 . S
C696 O682 1.257 . S
C697 O686 1.259 . S
C697 O687 1.289 . S
C698 O685 1.246 . S
C698 O688 1.257 . S
C699 O689 1.274 . S
C699 O690 1.251 . S
C700 O691 1.257 . S
C700 O692 1.245 . S
O701 Co672 2.286 . S
O701 C693 1.259 . S
O702 Co672 2.069 . S
O702 C693 1.289 . S
O703 Co674 2.141 1_665 S
O703 C694 1.246 . S
O704 Co672 2.015 1_655 S
O704 C694 1.257 . S
Co705 O708 2.042 1_556 S
Co705 O715 2.264 1_556 S
Co705 O734 2.286 . S
Co705 O735 2.069 . S
Co705 O737 2.015 . S
Co706 O708 2.122 . S
Co706 O714 2.073 . S
Co706 O715 2.327 . S
Co706 O716 1.976 . S
Co707 O708 2.084 1_545 S
Co707 O710 2.090 1_554 S
Co707 O717 2.111 1_545 S
Co707 O718 2.145 . S
Co707 O722 2.112 1_554 S
Co707 O736 2.142 1_544 S
O708 Co705 2.042 1_554 S
O708 Co706 2.122 . S
O708 Co707 2.084 1_565 S
O708 H709 0.980 . S
H709 O708 0.980 . S
O710 Co707 2.090 1_556 S
O710 Co711 2.042 1_556 S
O710 Co712 2.122 . S
O710 H713 0.980 . S
Co711 O710 2.042 1_554 S
Co711 O719 2.286 . S
Co711 O720 2.069 . S
Co711 O721 2.015 . S
Co711 O724 2.264 1_554 S
Co712 O710 2.122 . S
Co712 O723 1.976 . S
Co712 O724 2.327 . S
Co712 O725 2.073 . S
H713 O710 0.980 . S
O714 Co706 2.073 . S
O714 C729 1.245 . S
O715 Co705 2.264 1_554 S
O715 Co706 2.327 . S
O715 C729 1.257 . S
O716 Co706 1.976 . S
O716 C728 1.251 . S
O717 Co707 2.111 1_565 S
O717 C728 1.274 . S
O718 Co707 2.145 . S
O718 C731 1.246 . S
O719 Co711 2.286 . S
O719 C730 1.259 . S
O720 Co711 2.069 . S
O720 C730 1.289 . S
O721 Co711 2.015 . S
O721 C731 1.257 . S
O722 Co707 2.112 1_556 S
O722 C732 1.274 . S
O723 Co712 1.976 . S
O723 C732 1.251 . S
O724 Co711 2.264 1_556 S
O724 Co712 2.327 . S
O724 C733 1.257 . S
O725 Co712 2.073 . S
O725 C733 1.245 . S
C726 O734 1.259 . S
C726 O735 1.289 . S
C727 O736 1.246 . S
C727 O737 1.257 . S
C728 O716 1.251 . S
C728 O717 1.274 . S
C729 O714 1.245 . S
C729 O715 1.257 . S
C730 O719 1.259 . S
C730 O720 1.289 . S
C731 O718 1.246 . S
C731 O721 1.257 . S
C732 O722 1.274 . S
C732 O723 1.251 . S
C733 O724 1.257 . S
C733 O725 1.245 . S
O734 Co705 2.286 . S
O734 C726 1.259 . S
O735 Co705 2.069 . S
O735 C726 1.289 . S
O736 Co707 2.142 1_566 S
O736 C727 1.246 . S
O737 Co705 2.015 . S
O737 C727 1.257 . S
Co738 O741 2.042 1_556 S
Co738 O748 2.264 1_556 S
Co738 O767 2.286 . S
Co738 O768 2.069 . S
Co738 O770 2.015 1_455 S
Co739 O741 2.122 . S
Co739 O747 2.073 . S
Co739 O748 2.327 . S
Co739 O749 1.976 1_455 S
Co740 O741 2.090 . S
Co740 O743 2.084 1_454 S
Co740 O750 2.109 1_455 S
Co740 O751 2.144 . S
Co740 O755 2.113 1_554 S
Co740 O769 2.143 1_454 S
O741 Co738 2.042 1_554 S
O741 Co739 2.122 . S
O741 Co740 2.090 . S
O741 H742 0.980 . S
H742 O741 0.980 . S
O743 Co740 2.084 1_656 S
O743 Co744 2.042 1_556 S
O743 Co745 2.122 . S
O743 H746 0.980 . S
Co744 O743 2.042 1_554 S
Co744 O752 2.286 . S
Co744 O753 2.069 . S
Co744 O754 2.015 1_655 S
Co744 O757 2.264 1_554 S
Co745 O743 2.122 . S
Co745 O756 1.976 1_655 S
Co745 O757 2.327 . S
Co745 O758 2.073 . S
H746 O743 0.980 . S
O747 Co739 2.073 . S
O747 C762 1.245 . S
O748 Co738 2.264 1_554 S
O748 Co739 2.327 . S
O748 C762 1.257 . S
O749 Co739 1.976 1_655 S
O749 C761 1.251 . S
O750 Co740 2.109 1_655 S
O750 C761 1.274 . S
O751 Co740 2.144 . S
O751 C764 1.246 . S
O752 Co744 2.286 . S
O752 C763 1.259 . S
O753 Co744 2.069 . S
O753 C763 1.289 . S
O754 Co744 2.015 1_455 S
O754 C764 1.257 . S
O755 Co740 2.113 1_556 S
O755 C765 1.274 . S
O756 Co745 1.976 1_455 S
O756 C765 1.251 . S
O757 Co744 2.264 1_556 S
O757 Co745 2.327 . S
O757 C766 1.257 . S
O758 Co745 2.073 . S
O758 C766 1.245 . S
C759 O767 1.259 . S
C759 O768 1.289 . S
C760 O769 1.246 . S
C760 O770 1.257 . S
C761 O749 1.251 . S
C761 O750 1.274 . S
C762 O747 1.245 . S
C762 O748 1.257 . S
C763 O752 1.259 . S
C763 O753 1.289 . S
C764 O751 1.246 . S
C764 O754 1.257 . S
C765 O755 1.274 . S
C765 O756 1.251 . S
C766 O757 1.257 . S
C766 O758 1.245 . S
O767 Co738 2.286 . S
O767 C759 1.259 . S
O768 Co738 2.069 . S
O768 C759 1.289 . S
O769 Co740 2.143 1_656 S
O769 C760 1.246 . S
O770 Co738 2.015 1_655 S
O770 C760 1.257 . S
Co771 O774 2.042 1_556 S
Co771 O781 2.264 1_556 S
Co771 O800 2.286 . S
Co771 O801 2.069 . S
Co771 O803 2.015 . S
Co772 O774 2.122 . S
Co772 O780 2.073 . S
Co772 O781 2.327 . S
Co772 O782 1.976 . S
Co773 O774 2.087 . S
Co773 O776 2.087 1_554 S
Co773 O783 2.111 . S
Co773 O784 2.143 . S
Co773 O788 2.111 1_554 S
Co773 O802 2.143 1_554 S
O774 Co771 2.042 1_554 S
O774 Co772 2.122 . S
O774 Co773 2.087 . S
O774 H775 0.980 . S
H775 O774 0.980 . S
O776 Co773 2.087 1_556 S
O776 Co777 2.042 1_556 S
O776 Co778 2.122 . S
O776 H779 0.980 . S
Co777 O776 2.042 1_554 S
Co777 O785 2.286 . S
Co777 O786 2.069 . S
Co777 O787 2.015 . S
Co777 O790 2.264 1_554 S
Co778 O776 2.122 . S
Co778 O789 1.976 . S
Co778 O790 2.327 . S
Co778 O791 2.073 . S
H779 O776 0.980 . S
O780 Co772 2.073 . S
O780 C795 1.245 . S
O781 Co771 2.264 1_554 S
O781 Co772 2.327 . S
O781 C795 1.257 . S
O782 Co772 1.976 . S
O782 C794 1.251 . S
O783 Co773 2.111 . S
O783 C794 1.274 . S
O784 Co773 2.143 . S
O784 C797 1.246 . S
O785 Co777 2.286 . S
O785 C796 1.259 . S
O786 Co777 2.069 . S
O786 C796 1.289 . S
O787 Co777 2.015 . S
O787 C797 1.257 . S
O788 Co773 2.111 1_556 S
O788 C798 1.274 . S
O789 Co778 1.976 . S
O789 C798 1.251 . S
O790 Co777 2.264 1_556 S
O790 Co778 2.327 . S
O790 C799 1.257 . S
O791 Co778 2.073 . S
O791 C799 1.245 . S
C792 O800 1.259 . S
C792 O801 1.289 . S
C793 O802 1.246 . S
C793 O803 1.257 . S
C794 O782 1.251 . S
C794 O783 1.274 . S
C795 O780 1.245 . S
C795 O781 1.257 . S
C796 O785 1.259 . S
C796 O786 1.289 . S
C797 O784 1.246 . S
C797 O787 1.257 . S
C798 O788 1.274 . S
C798 O789 1.251 . S
C799 O790 1.257 . S
C799 O791 1.245 . S
O800 Co771 2.286 . S
O800 C792 1.259 . S
O801 Co771 2.069 . S
O801 C792 1.289 . S
O802 Co773 2.143 1_556 S
O802 C793 1.246 . S
O803 Co771 2.015 . S
O803 C793 1.257 . S
Co804 O807 2.042 . S
Co804 O814 2.264 . S
Co804 O833 2.286 . S
Co804 O834 2.069 . S
Co804 O836 2.015 . S
Co805 O807 2.122 . S
Co805 O813 2.073 . S
Co805 O814 2.327 . S
Co805 O815 1.976 . S
Co806 O807 2.090 . S
Co806 O809 2.083 1_455 S
Co806 O816 2.112 . S
Co806 O817 2.142 1_455 S
Co806 O821 2.110 1_455 S
Co806 O835 2.145 . S
O807 Co804 2.042 . S
O807 Co805 2.122 . S
O807 Co806 2.090 . S
O807 H808 0.980 . S
H808 O807 0.980 . S
O809 Co806 2.083 1_655 S
O809 Co810 2.042 . S
O809 Co811 2.122 . S
O809 H812 0.980 . S
Co810 O809 2.042 . S
Co810 O818 2.286 . S
Co810 O819 2.069 . S
Co810 O820 2.015 . S
Co810 O823 2.264 . S
Co811 O809 2.122 . S
Co811 O822 1.976 . S
Co811 O823 2.327 . S
Co811 O824 2.073 . S
H812 O809 0.980 . S
O813 Co805 2.073 . S
O813 C828 1.245 . S
O814 Co804 2.264 . S
O814 Co805 2.327 . S
O814 C828 1.257 . S
O815 Co805 1.976 . S
O815 C827 1.251 . S
O816 Co806 2.112 . S
O816 C827 1.274 . S
O817 Co806 2.142 1_655 S
O817 C830 1.246 . S
O818 Co810 2.286 . S
O818 C829 1.259 . S
O819 Co810 2.069 . S
O819 C829 1.289 . S
O820 Co810 2.015 . S
O820 C830 1.257 . S
O821 Co806 2.110 1_655 S
O821 C831 1.274 . S
O822 Co811 1.976 . S
O822 C831 1.251 . S
O823 Co810 2.264 . S
O823 Co811 2.327 . S
O823 C832 1.257 . S
O824 Co811 2.073 . S
O824 C832 1.245 . S
C825 O833 1.259 . S
C825 O834 1.289 . S
C826 O835 1.246 . S
C826 O836 1.257 . S
C827 O815 1.251 . S
C827 O816 1.274 . S
C828 O813 1.245 . S
C828 O814 1.257 . S
C829 O818 1.259 . S
C829 O819 1.289 . S
C830 O817 1.246 . S
C830 O820 1.257 . S
C831 O821 1.274 . S
C831 O822 1.251 . S
C832 O823 1.257 . S
C832 O824 1.245 . S
O833 Co804 2.286 . S
O833 C825 1.259 . S
O834 Co804 2.069 . S
O834 C825 1.289 . S
O835 Co806 2.145 . S
O835 C826 1.246 . S
O836 Co804 2.015 . S
O836 C826 1.257 . S
Co837 O840 2.042 . S
Co837 O847 2.264 . S
Co837 O866 2.286 . S
Co837 O867 2.069 . S
Co837 O869 2.015 1_565 S
Co838 O840 2.122 . S
Co838 O846 2.073 . S
Co838 O847 2.327 . S
Co838 O848 1.976 1_565 S
Co839 O840 2.084 1_545 S
Co839 O842 2.090 . S
Co839 O849 2.113 . S
Co839 O850 2.142 1_545 S
Co839 O854 2.110 1_545 S
Co839 O868 2.145 . S
O840 Co837 2.042 . S
O840 Co838 2.122 . S
O840 Co839 2.084 1_565 S
O840 H841 0.980 . S
H841 O840 0.980 . S
O842 Co839 2.090 . S
O842 Co843 2.042 . S
O842 Co844 2.122 . S
O842 H845 0.980 . S
Co843 O842 2.042 . S
Co843 O851 2.286 . S
Co843 O852 2.069 . S
Co843 O853 2.015 1_545 S
Co843 O856 2.264 . S
Co844 O842 2.122 . S
Co844 O855 1.976 1_545 S
Co844 O856 2.327 . S
Co844 O857 2.073 . S
H845 O842 0.980 . S
O846 Co838 2.073 . S
O846 C861 1.245 . S
O847 Co837 2.264 . S
O847 Co838 2.327 . S
O847 C861 1.257 . S
O848 Co838 1.976 1_545 S
O848 C860 1.251 . S
O849 Co839 2.113 . S
O849 C860 1.274 . S
O850 Co839 2.142 1_565 S
O850 C863 1.246 . S
O851 Co843 2.286 . S
O851 C862 1.259 . S
O852 Co843 2.069 . S
O852 C862 1.289 . S
O853 Co843 2.015 1_565 S
O853 C863 1.257 . S
O854 Co839 2.110 1_565 S
O854 C864 1.274 . S
O855 Co844 1.976 1_565 S
O855 C864 1.251 . S
O856 Co843 2.264 . S
O856 Co844 2.327 . S
O856 C865 1.257 . S
O857 Co844 2.073 . S
O857 C865 1.245 . S
C858 O866 1.259 . S
C858 O867 1.289 . S
C859 O868 1.246 . S
C859 O869 1.257 . S
C860 O848 1.251 . S
C860 O849 1.274 . S
C861 O846 1.245 . S
C861 O847 1.257 . S
C862 O851 1.259 . S
C862 O852 1.289 . S
C863 O850 1.246 . S
C863 O853 1.257 . S
C864 O854 1.274 . S
C864 O855 1.251 . S
C865 O856 1.257 . S
C865 O857 1.245 . S
O866 Co837 2.286 . S
O866 C858 1.259 . S
O867 Co837 2.069 . S
O867 C858 1.289 . S
O868 Co839 2.145 . S
O868 C859 1.246 . S
O869 Co837 2.015 1_545 S
O869 C859 1.257 . S
C870 C871 1.387 . S
C870 H874 0.950 . S
C870 C879 1.390 . S
C871 C870 1.387 . S
C871 C873 1.387 . S
H872 C879 0.950 . S
C873 C871 1.387 . S
C873 C875 1.390 . S
C873 H877 0.950 . S
H874 C870 0.950 . S
C875 C873 1.390 . S
C875 C876 1.387 . S
C875 H878 0.950 . S
C876 C875 1.387 . S
C876 C879 1.387 . S
H877 C873 0.950 . S
H878 C875 0.950 . S
C879 C870 1.390 . S
C879 H872 0.950 . S
C879 C876 1.387 . S
C880 C881 1.387 . S
C880 H884 0.950 . S
C880 C889 1.390 . S
C881 C880 1.387 . S
C881 C883 1.387 . S
H882 C889 0.950 . S
C883 C881 1.387 . S
C883 C885 1.390 . S
C883 H887 0.950 . S
H884 C880 0.950 . S
C885 C883 1.390 . S
C885 C886 1.387 . S
C885 H888 0.950 . S
C886 C885 1.387 . S
C886 C889 1.387 . S
H887 C883 0.950 . S
H888 C885 0.950 . S
C889 C880 1.390 . S
C889 H882 0.950 . S
C889 C886 1.387 . S
C890 C891 1.387 . S
C890 H894 0.950 . S
C890 C899 1.390 . S
C891 C890 1.387 . S
C891 C893 1.387 . S
H892 C899 0.950 . S
C893 C891 1.387 . S
C893 C895 1.390 . S
C893 H897 0.950 . S
H894 C890 0.950 . S
C895 C893 1.390 . S
C895 C896 1.387 . S
C895 H898 0.950 . S
C896 C895 1.387 . S
C896 C899 1.387 . S
H897 C893 0.950 . S
H898 C895 0.950 . S
C899 C890 1.390 . S
C899 H892 0.950 . S
C899 C896 1.387 . S
C900 C901 1.387 . S
C900 H904 0.950 . S
C900 C909 1.390 . S
C901 C900 1.387 . S
C901 C903 1.387 . S
H902 C909 0.950 . S
C903 C901 1.387 . S
C903 C905 1.390 . S
C903 H907 0.950 . S
H904 C900 0.950 . S
C905 C903 1.390 . S
C905 C906 1.387 . S
C905 H908 0.950 . S
C906 C905 1.387 . S
C906 C909 1.387 . S
H907 C903 0.950 . S
H908 C905 0.950 . S
C909 C900 1.390 . S
C909 H902 0.950 . S
C909 C906 1.387 . S
C910 C911 1.387 . S
C910 H914 0.950 . S
C910 C919 1.390 . S
C911 C910 1.387 . S
C911 C913 1.387 . S
H912 C919 0.950 . S
C913 C911 1.387 . S
C913 C915 1.390 . S
C913 H917 0.950 . S
H914 C910 0.950 . S
C915 C913 1.390 . S
C915 C916 1.387 . S
C915 H918 0.950 . S
C916 C915 1.387 . S
C916 C919 1.387 . S
H917 C913 0.950 . S
H918 C915 0.950 . S
C919 C910 1.390 . S
C919 H912 0.950 . S
C919 C916 1.387 . S
C920 C921 1.387 . S
C920 H924 0.950 . S
C920 C929 1.390 . S
C921 C920 1.387 . S
C921 C923 1.387 . S
H922 C929 0.950 . S
C923 C921 1.387 . S
C923 C925 1.390 . S
C923 H927 0.950 . S
H924 C920 0.950 . S
C925 C923 1.390 . S
C925 C926 1.387 . S
C925 H928 0.950 . S
C926 C925 1.387 . S
C926 C929 1.387 . S
H927 C923 0.950 . S
H928 C925 0.950 . S
C929 C920 1.390 . S
C929 H922 0.950 . S
C929 C926 1.387 . S
C930 C931 1.387 . S
C930 H934 0.950 . S
C930 C939 1.390 . S
C931 C930 1.387 . S
C931 C933 1.387 . S
H932 C939 0.950 . S
C933 C931 1.387 . S
C933 C935 1.390 . S
C933 H937 0.950 . S
H934 C930 0.950 . S
C935 C933 1.390 . S
C935 C936 1.387 . S
C935 H938 0.950 . S
C936 C935 1.387 . S
C936 C939 1.387 . S
H937 C933 0.950 . S
H938 C935 0.950 . S
C939 C930 1.390 . S
C939 H932 0.950 . S
C939 C936 1.387 . S
C940 C941 1.387 . S
C940 H944 0.950 . S
C940 C949 1.390 . S
C941 C940 1.387 . S
C941 C943 1.387 . S
H942 C949 0.950 . S
C943 C941 1.387 . S
C943 C945 1.390 . S
C943 H947 0.950 . S
H944 C940 0.950 . S
C945 C943 1.390 . S
C945 C946 1.387 . S
C945 H948 0.950 . S
C946 C945 1.387 . S
C946 C949 1.387 . S
H947 C943 0.950 . S
H948 C945 0.950 . S
C949 C940 1.390 . S
C949 H942 0.950 . S
C949 C946 1.387 . S
C950 C951 1.387 . S
C950 H954 0.950 . S
C950 C959 1.390 . S
C951 C950 1.387 . S
C951 C953 1.387 . S
H952 C959 0.950 1_556 S
C953 C951 1.387 . S
C953 C955 1.390 . S
C953 H957 0.950 . S
H954 C950 0.950 . S
C955 C953 1.390 . S
C955 C956 1.387 . S
C955 H958 0.950 . S
C956 C955 1.387 . S
C956 C959 1.387 . S
H957 C953 0.950 . S
H958 C955 0.950 . S
C959 C950 1.390 . S
C959 H952 0.950 1_554 S
C959 C956 1.387 . S
C960 C961 1.387 . S
C960 H964 0.950 . S
C960 C969 1.390 . S
C961 C960 1.387 . S
C961 C963 1.387 . S
H962 C969 0.950 . S
C963 C961 1.387 . S
C963 C965 1.390 . S
C963 H967 0.950 . S
H964 C960 0.950 . S
C965 C963 1.390 . S
C965 C966 1.387 . S
C965 H968 0.950 . S
C966 C965 1.387 . S
C966 C969 1.387 . S
H967 C963 0.950 . S
H968 C965 0.950 . S
C969 C960 1.390 . S
C969 H962 0.950 . S
C969 C966 1.387 . S
C970 C971 1.387 . S
C970 H974 0.950 . S
C970 C979 1.390 . S
C971 C970 1.387 . S
C971 C973 1.387 . S
H972 C979 0.950 . S
C973 C971 1.387 . S
C973 C975 1.390 . S
C973 H977 0.950 . S
H974 C970 0.950 . S
C975 C973 1.390 . S
C975 C976 1.387 . S
C975 H978 0.950 . S
C976 C975 1.387 . S
C976 C979 1.387 . S
H977 C973 0.950 . S
H978 C975 0.950 . S
C979 C970 1.390 . S
C979 H972 0.950 . S
C979 C976 1.387 . S
C980 C981 1.387 . S
C980 H984 0.950 . S
C980 C989 1.390 . S
C981 C980 1.387 . S
C981 C983 1.387 . S
H982 C989 0.950 . S
C983 C981 1.387 . S
C983 C985 1.390 . S
C983 H987 0.950 . S
H984 C980 0.950 . S
C985 C983 1.390 . S
C985 C986 1.387 . S
C985 H988 0.950 . S
C986 C985 1.387 . S
C986 C989 1.387 . S
H987 C983 0.950 . S
H988 C985 0.950 . S
C989 C980 1.390 . S
C989 H982 0.950 . S
C989 C986 1.387 . S
C990 C991 1.387 . S
C990 H994 0.950 . S
C990 C999 1.390 . S
C991 C990 1.387 . S
C991 C993 1.387 . S
H992 C999 0.950 . S
C993 C991 1.387 . S
C993 C995 1.390 . S
C993 H997 0.950 . S
H994 C990 0.950 . S
C995 C993 1.390 . S
C995 C996 1.387 . S
C995 H998 0.950 . S
C996 C995 1.387 . S
C996 C999 1.387 . S
H997 C993 0.950 . S
H998 C995 0.950 . S
C999 C990 1.390 . S
C999 H992 0.950 . S
C999 C996 1.387 . S
C1000 C1001 1.387 . S
C1000 H1004 0.950 . S
C1000 C1009 1.390 . S
C1001 C1000 1.387 . S
C1001 C1003 1.387 . S
H1002 C1009 0.950 . S
C1003 C1001 1.387 . S
C1003 C1005 1.390 . S
C1003 H1007 0.950 . S
H1004 C1000 0.950 . S
C1005 C1003 1.390 . S
C1005 C1006 1.387 . S
C1005 H1008 0.950 1_556 S
C1006 C1005 1.387 . S
C1006 C1009 1.387 . S
H1007 C1003 0.950 . S
H1008 C1005 0.950 1_554 S
C1009 C1000 1.390 . S
C1009 H1002 0.950 . S
C1009 C1006 1.387 . S
C1010 C1011 1.387 . S
C1010 H1014 0.950 . S
C1010 C1019 1.390 . S
C1011 C1010 1.387 . S
C1011 C1013 1.387 . S
H1012 C1019 0.950 . S
C1013 C1011 1.387 . S
C1013 C1015 1.390 . S
C1013 H1017 0.950 . S
H1014 C1010 0.950 . S
C1015 C1013 1.390 . S
C1015 C1016 1.387 . S
C1015 H1018 0.950 . S
C1016 C1015 1.387 . S
C1016 C1019 1.387 . S
H1017 C1013 0.950 . S
H1018 C1015 0.950 . S
C1019 C1010 1.390 . S
C1019 H1012 0.950 . S
C1019 C1016 1.387 . S
C1020 C1021 1.387 . S
C1020 H1024 0.950 . S
C1020 C1029 1.390 . S
C1021 C1020 1.387 . S
C1021 C1023 1.387 . S
H1022 C1029 0.950 . S
C1023 C1021 1.387 . S
C1023 C1025 1.390 . S
C1023 H1027 0.950 . S
H1024 C1020 0.950 . S
C1025 C1023 1.390 . S
C1025 C1026 1.387 . S
C1025 H1028 0.950 . S
C1026 C1025 1.387 . S
C1026 C1029 1.387 . S
H1027 C1023 0.950 . S
H1028 C1025 0.950 . S
C1029 C1020 1.390 . S
C1029 H1022 0.950 . S
C1029 C1026 1.387 . S
C1030 C1031 1.387 . S
C1030 H1034 0.950 . S
C1030 C1039 1.390 . S
C1031 C1030 1.387 . S
C1031 C1033 1.387 . S
H1032 C1039 0.950 . S
C1033 C1031 1.387 . S
C1033 C1035 1.390 . S
C1033 H1037 0.950 . S
H1034 C1030 0.950 . S
C1035 C1033 1.390 . S
C1035 C1036 1.387 . S
C1035 H1038 0.950 . S
C1036 C1035 1.387 . S
C1036 C1039 1.387 . S
H1037 C1033 0.950 . S
H1038 C1035 0.950 . S
C1039 C1030 1.390 . S
C1039 H1032 0.950 . S
C1039 C1036 1.387 . S
C1040 C1041 1.387 . S
C1040 H1044 0.950 . S
C1040 C1049 1.390 . S
C1041 C1040 1.387 . S
C1041 C1043 1.387 . S
H1042 C1049 0.950 . S
C1043 C1041 1.387 . S
C1043 C1045 1.390 . S
C1043 H1047 0.950 . S
H1044 C1040 0.950 . S
C1045 C1043 1.390 . S
C1045 C1046 1.387 . S
C1045 H1048 0.950 . S
C1046 C1045 1.387 . S
C1046 C1049 1.387 . S
H1047 C1043 0.950 . S
H1048 C1045 0.950 . S
C1049 C1040 1.390 . S
C1049 H1042 0.950 . S
C1049 C1046 1.387 . S
C1050 C1051 1.387 . S
C1050 H1054 0.950 . S
C1050 C1059 1.390 . S
C1051 C1050 1.387 . S
C1051 C1053 1.387 . S
H1052 C1059 0.950 . S
C1053 C1051 1.387 . S
C1053 C1055 1.390 . S
C1053 H1057 0.950 . S
H1054 C1050 0.950 . S
C1055 C1053 1.390 . S
C1055 C1056 1.387 . S
C1055 H1058 0.950 . S
C1056 C1055 1.387 . S
C1056 C1059 1.387 . S
H1057 C1053 0.950 . S
H1058 C1055 0.950 . S
C1059 C1050 1.390 . S
C1059 H1052 0.950 . S
C1059 C1056 1.387 . S
C1060 C1061 1.387 . S
C1060 H1064 0.950 . S
C1060 C1069 1.390 . S
C1061 C1060 1.387 . S
C1061 C1063 1.387 . S
H1062 C1069 0.950 . S
C1063 C1061 1.387 . S
C1063 C1065 1.390 . S
C1063 H1067 0.950 . S
H1064 C1060 0.950 . S
C1065 C1063 1.390 . S
C1065 C1066 1.387 . S
C1065 H1068 0.950 . S
C1066 C1065 1.387 . S
C1066 C1069 1.387 . S
H1067 C1063 0.950 . S
H1068 C1065 0.950 . S
C1069 C1060 1.390 . S
C1069 H1062 0.950 . S
C1069 C1066 1.387 . S
C1070 C1071 1.387 . S
C1070 H1074 0.950 . S
C1070 C1079 1.390 . S
C1071 C1070 1.387 . S
C1071 C1073 1.387 . S
H1072 C1079 0.950 . S
C1073 C1071 1.387 . S
C1073 C1075 1.390 . S
C1073 H1077 0.950 . S
H1074 C1070 0.950 . S
C1075 C1073 1.390 . S
C1075 C1076 1.387 . S
C1075 H1078 0.950 1_556 S
C1076 C1075 1.387 . S
C1076 C1079 1.387 . S
H1077 C1073 0.950 . S
H1078 C1075 0.950 1_554 S
C1079 C1070 1.390 . S
C1079 H1072 0.950 . S
C1079 C1076 1.387 . S
C1080 C1081 1.387 . S
C1080 H1084 0.950 . S
C1080 C1089 1.390 . S
C1081 C1080 1.387 . S
C1081 C1083 1.387 . S
H1082 C1089 0.950 . S
C1083 C1081 1.387 . S
C1083 C1085 1.390 . S
C1083 H1087 0.950 . S
H1084 C1080 0.950 . S
C1085 C1083 1.390 . S
C1085 C1086 1.387 . S
C1085 H1088 0.950 . S
C1086 C1085 1.387 . S
C1086 C1089 1.387 . S
H1087 C1083 0.950 . S
H1088 C1085 0.950 . S
C1089 C1080 1.390 . S
C1089 H1082 0.950 . S
C1089 C1086 1.387 . S
C1090 C1091 1.387 . S
C1090 H1094 0.950 . S
C1090 C1099 1.390 . S
C1091 C1090 1.387 . S
C1091 C1093 1.387 . S
H1092 C1099 0.950 . S
C1093 C1091 1.387 . S
C1093 C1095 1.390 . S
C1093 H1097 0.950 . S
H1094 C1090 0.950 . S
C1095 C1093 1.390 . S
C1095 C1096 1.387 . S
C1095 H1098 0.950 . S
C1096 C1095 1.387 . S
C1096 C1099 1.387 . S
H1097 C1093 0.950 . S
H1098 C1095 0.950 . S
C1099 C1090 1.390 . S
C1099 H1092 0.950 . S
C1099 C1096 1.387 . S
C1100 C1101 1.387 . S
C1100 H1104 0.950 . S
C1100 C1109 1.390 . S
C1101 C1100 1.387 . S
C1101 C1103 1.387 . S
H1102 C1109 0.950 . S
C1103 C1101 1.387 . S
C1103 C1105 1.390 . S
C1103 H1107 0.950 . S
H1104 C1100 0.950 . S
C1105 C1103 1.390 . S
C1105 C1106 1.387 . S
C1105 H1108 0.950 . S
C1106 C1105 1.387 . S
C1106 C1109 1.387 . S
H1107 C1103 0.950 . S
H1108 C1105 0.950 . S
C1109 C1100 1.390 . S
C1109 H1102 0.950 . S
C1109 C1106 1.387 . S
C1110 C1111 1.387 . S
C1110 H1114 0.950 . S
C1110 C1119 1.390 . S
C1111 C1110 1.387 . S
C1111 C1113 1.387 . S
H1112 C1119 0.950 . S
C1113 C1111 1.387 . S
C1113 C1115 1.390 . S
C1113 H1117 0.950 . S
H1114 C1110 0.950 . S
C1115 C1113 1.390 . S
C1115 C1116 1.387 . S
C1115 H1118 0.950 . S
C1116 C1115 1.387 . S
C1116 C1119 1.387 . S
H1117 C1113 0.950 . S
H1118 C1115 0.950 . S
C1119 C1110 1.390 . S
C1119 H1112 0.950 . S
C1119 C1116 1.387 . S
C1120 C1121 1.387 . S
C1120 H1124 0.950 . S
C1120 C1129 1.390 . S
C1121 C1120 1.387 . S
C1121 C1123 1.387 . S
H1122 C1129 0.950 . S
C1123 C1121 1.387 . S
C1123 C1125 1.390 . S
C1123 H1127 0.950 1_556 S
H1124 C1120 0.950 . S
C1125 C1123 1.390 . S
C1125 C1126 1.387 . S
C1125 H1128 0.950 . S
C1126 C1125 1.387 . S
C1126 C1129 1.387 . S
H1127 C1123 0.950 1_554 S
H1128 C1125 0.950 . S
C1129 C1120 1.390 . S
C1129 H1122 0.950 . S
C1129 C1126 1.387 . S
C1130 C1131 1.387 . S
C1130 H1134 0.950 . S
C1130 C1139 1.390 . S
C1131 C1130 1.387 . S
C1131 C1133 1.387 . S
H1132 C1139 0.950 . S
C1133 C1131 1.387 . S
C1133 C1135 1.390 . S
C1133 H1137 0.950 . S
H1134 C1130 0.950 . S
C1135 C1133 1.390 . S
C1135 C1136 1.387 . S
C1135 H1138 0.950 . S
C1136 C1135 1.387 . S
C1136 C1139 1.387 . S
H1137 C1133 0.950 . S
H1138 C1135 0.950 . S
C1139 C1130 1.390 . S
C1139 H1132 0.950 . S
C1139 C1136 1.387 . S
C1140 C1141 1.387 . S
C1140 H1144 0.950 . S
C1140 C1149 1.390 . S
C1141 C1140 1.387 . S
C1141 C1143 1.387 . S
H1142 C1149 0.950 . S
C1143 C1141 1.387 . S
C1143 C1145 1.390 . S
C1143 H1147 0.950 . S
H1144 C1140 0.950 . S
C1145 C1143 1.390 . S
C1145 C1146 1.387 . S
C1145 H1148 0.950 . S
C1146 C1145 1.387 . S
C1146 C1149 1.387 . S
H1147 C1143 0.950 . S
H1148 C1145 0.950 . S
C1149 C1140 1.390 . S
C1149 H1142 0.950 . S
C1149 C1146 1.387 . S
C1150 C1151 1.387 . S
C1150 H1154 0.950 . S
C1150 C1159 1.390 . S
C1151 C1150 1.387 . S
C1151 C1153 1.387 . S
H1152 C1159 0.950 . S
C1153 C1151 1.387 . S
C1153 C1155 1.390 . S
C1153 H1157 0.950 1_554 S
H1154 C1150 0.950 . S
C1155 C1153 1.390 . S
C1155 C1156 1.387 . S
C1155 H1158 0.950 . S
C1156 C1155 1.387 . S
C1156 C1159 1.387 . S
H1157 C1153 0.950 1_556 S
H1158 C1155 0.950 . S
C1159 C1150 1.390 . S
C1159 H1152 0.950 . S
C1159 C1156 1.387 . S
C1160 C1161 1.387 . S
C1160 H1164 0.950 . S
C1160 C1169 1.390 . S
C1161 C1160 1.387 . S
C1161 C1163 1.387 . S
H1162 C1169 0.950 . S
C1163 C1161 1.387 . S
C1163 C1165 1.390 . S
C1163 H1167 0.950 . S
H1164 C1160 0.950 . S
C1165 C1163 1.390 . S
C1165 C1166 1.387 . S
C1165 H1168 0.950 . S
C1166 C1165 1.387 . S
C1166 C1169 1.387 . S
H1167 C1163 0.950 . S
H1168 C1165 0.950 . S
C1169 C1160 1.390 . S
C1169 H1162 0.950 . S
C1169 C1166 1.387 . S
C1170 C1171 1.387 . S
C1170 H1174 0.950 . S
C1170 C1179 1.390 . S
C1171 C1170 1.387 . S
C1171 C1173 1.387 . S
H1172 C1179 0.950 . S
C1173 C1171 1.387 . S
C1173 C1175 1.390 . S
C1173 H1177 0.950 . S
H1174 C1170 0.950 . S
C1175 C1173 1.390 . S
C1175 C1176 1.387 . S
C1175 H1178 0.950 . S
C1176 C1175 1.387 . S
C1176 C1179 1.387 . S
H1177 C1173 0.950 . S
H1178 C1175 0.950 . S
C1179 C1170 1.390 . S
C1179 H1172 0.950 . S
C1179 C1176 1.387 . S
C1180 C1181 1.387 . S
C1180 H1184 0.950 . S
C1180 C1189 1.390 . S
C1181 C1180 1.387 . S
C1181 C1183 1.387 . S
H1182 C1189 0.950 . S
C1183 C1181 1.387 . S
C1183 C1185 1.390 . S
C1183 H1187 0.950 . S
H1184 C1180 0.950 . S
C1185 C1183 1.390 . S
C1185 C1186 1.387 . S
C1185 H1188 0.950 . S
C1186 C1185 1.387 . S
C1186 C1189 1.387 . S
H1187 C1183 0.950 . S
H1188 C1185 0.950 . S
C1189 C1180 1.390 . S
C1189 H1182 0.950 . S
C1189 C1186 1.387 . S
C1190 C1191 1.387 . S
C1190 H1194 0.950 . S
C1190 C1199 1.390 . S
C1191 C1190 1.387 . S
C1191 C1193 1.387 . S
H1192 C1199 0.950 . S
C1193 C1191 1.387 . S
C1193 C1195 1.390 . S
C1193 H1197 0.950 . S
H1194 C1190 0.950 . S
C1195 C1193 1.390 . S
C1195 C1196 1.387 . S
C1195 H1198 0.950 . S
C1196 C1195 1.387 . S
C1196 C1199 1.387 . S
H1197 C1193 0.950 . S
H1198 C1195 0.950 . S
C1199 C1190 1.390 . S
C1199 H1192 0.950 . S
C1199 C1196 1.387 . S
C1200 C1201 1.387 . S
C1200 H1204 0.950 . S
C1200 C1209 1.390 . S
C1201 C1200 1.387 . S
C1201 C1203 1.387 . S
H1202 C1209 0.950 . S
C1203 C1201 1.387 . S
C1203 C1205 1.390 . S
C1203 H1207 0.950 . S
H1204 C1200 0.950 . S
C1205 C1203 1.390 . S
C1205 C1206 1.387 . S
C1205 H1208 0.950 . S
C1206 C1205 1.387 . S
C1206 C1209 1.387 . S
H1207 C1203 0.950 . S
H1208 C1205 0.950 . S
C1209 C1200 1.390 . S
C1209 H1202 0.950 . S
C1209 C1206 1.387 . S
C1210 C1211 1.387 . S
C1210 H1214 0.950 . S
C1210 C1219 1.390 . S
C1211 C1210 1.387 . S
C1211 C1213 1.387 . S
H1212 C1219 0.950 . S
C1213 C1211 1.387 . S
C1213 C1215 1.390 . S
C1213 H1217 0.950 . S
H1214 C1210 0.950 . S
C1215 C1213 1.390 . S
C1215 C1216 1.387 . S
C1215 H1218 0.950 . S
C1216 C1215 1.387 . S
C1216 C1219 1.387 . S
H1217 C1213 0.950 . S
H1218 C1215 0.950 . S
C1219 C1210 1.390 . S
C1219 H1212 0.950 . S
C1219 C1216 1.387 . S
C1220 C1221 1.387 . S
C1220 H1224 0.950 . S
C1220 C1229 1.390 . S
C1221 C1220 1.387 . S
C1221 C1223 1.387 . S
H1222 C1229 0.950 . S
C1223 C1221 1.387 . S
C1223 C1225 1.390 . S
C1223 H1227 0.950 . S
H1224 C1220 0.950 . S
C1225 C1223 1.390 . S
C1225 C1226 1.387 . S
C1225 H1228 0.950 . S
C1226 C1225 1.387 . S
C1226 C1229 1.387 . S
H1227 C1223 0.950 . S
H1228 C1225 0.950 . S
C1229 C1220 1.390 . S
C1229 H1222 0.950 . S
C1229 C1226 1.387 . S
C1230 C1231 1.387 . S
C1230 H1234 0.950 . S
C1230 C1239 1.390 . S
C1231 C1230 1.387 . S
C1231 C1233 1.387 . S
H1232 C1239 0.950 . S
C1233 C1231 1.387 . S
C1233 C1235 1.390 . S
C1233 H1237 0.950 . S
H1234 C1230 0.950 . S
C1235 C1233 1.390 . S
C1235 C1236 1.387 . S
C1235 H1238 0.950 . S
C1236 C1235 1.387 . S
C1236 C1239 1.387 . S
H1237 C1233 0.950 . S
H1238 C1235 0.950 . S
C1239 C1230 1.390 . S
C1239 H1232 0.950 . S
C1239 C1236 1.387 . S
C1240 C1241 1.387 . S
C1240 H1244 0.950 . S
C1240 C1249 1.390 . S
C1241 C1240 1.387 . S
C1241 C1243 1.387 . S
H1242 C1249 0.950 . S
C1243 C1241 1.387 . S
C1243 C1245 1.390 . S
C1243 H1247 0.950 . S
H1244 C1240 0.950 . S
C1245 C1243 1.390 . S
C1245 C1246 1.387 . S
C1245 H1248 0.950 . S
C1246 C1245 1.387 . S
C1246 C1249 1.387 . S
H1247 C1243 0.950 . S
H1248 C1245 0.950 . S
C1249 C1240 1.390 . S
C1249 H1242 0.950 . S
C1249 C1246 1.387 . S
C1250 C1251 1.387 . S
C1250 H1254 0.950 . S
C1250 C1259 1.390 . S
C1251 C1250 1.387 . S
C1251 C1253 1.387 . S
H1252 C1259 0.950 . S
C1253 C1251 1.387 . S
C1253 C1255 1.390 . S
C1253 H1257 0.950 . S
H1254 C1250 0.950 . S
C1255 C1253 1.390 . S
C1255 C1256 1.387 . S
C1255 H1258 0.950 . S
C1256 C1255 1.387 . S
C1256 C1259 1.387 . S
H1257 C1253 0.950 . S
H1258 C1255 0.950 . S
C1259 C1250 1.390 . S
C1259 H1252 0.950 . S
C1259 C1256 1.387 . S
C1260 C1261 1.387 . S
C1260 H1264 0.950 . S
C1260 C1269 1.390 . S
C1261 C1260 1.387 . S
C1261 C1263 1.387 . S
H1262 C1269 0.950 . S
C1263 C1261 1.387 . S
C1263 C1265 1.390 . S
C1263 H1267 0.950 . S
H1264 C1260 0.950 . S
C1265 C1263 1.390 . S
C1265 C1266 1.387 . S
C1265 H1268 0.950 . S
C1266 C1265 1.387 . S
C1266 C1269 1.387 . S
H1267 C1263 0.950 . S
H1268 C1265 0.950 . S
C1269 C1260 1.390 . S
C1269 H1262 0.950 . S
C1269 C1266 1.387 . S
C1270 C1271 1.387 . S
C1270 H1274 0.950 . S
C1270 C1279 1.390 . S
C1271 C1270 1.387 . S
C1271 C1273 1.387 . S
H1272 C1279 0.950 . S
C1273 C1271 1.387 . S
C1273 C1275 1.390 . S
C1273 H1277 0.950 . S
H1274 C1270 0.950 . S
C1275 C1273 1.390 . S
C1275 C1276 1.387 . S
C1275 H1278 0.950 . S
C1276 C1275 1.387 . S
C1276 C1279 1.387 . S
H1277 C1273 0.950 . S
H1278 C1275 0.950 . S
C1279 C1270 1.390 . S
C1279 H1272 0.950 . S
C1279 C1276 1.387 . S
C1280 C1281 1.387 . S
C1280 H1284 0.950 . S
C1280 C1289 1.390 . S
C1281 C1280 1.387 . S
C1281 C1283 1.387 . S
H1282 C1289 0.950 . S
C1283 C1281 1.387 . S
C1283 C1285 1.390 . S
C1283 H1287 0.950 . S
H1284 C1280 0.950 . S
C1285 C1283 1.390 . S
C1285 C1286 1.387 . S
C1285 H1288 0.950 . S
C1286 C1285 1.387 . S
C1286 C1289 1.387 . S
H1287 C1283 0.950 . S
H1288 C1285 0.950 . S
C1289 C1280 1.390 . S
C1289 H1282 0.950 . S
C1289 C1286 1.387 . S
C1290 C1291 1.387 . S
C1290 H1294 0.950 . S
C1290 C1299 1.390 . S
C1291 C1290 1.387 . S
C1291 C1293 1.387 . S
H1292 C1299 0.950 . S
C1293 C1291 1.387 . S
C1293 C1295 1.390 . S
C1293 H1297 0.950 . S
H1294 C1290 0.950 . S
C1295 C1293 1.390 . S
C1295 C1296 1.387 . S
C1295 H1298 0.950 . S
C1296 C1295 1.387 . S
C1296 C1299 1.387 . S
H1297 C1293 0.950 . S
H1298 C1295 0.950 . S
C1299 C1290 1.390 . S
C1299 H1292 0.950 . S
C1299 C1296 1.387 . S
C1300 C1301 1.387 . S
C1300 H1304 0.950 . S
C1300 C1309 1.390 . S
C1301 C1300 1.387 . S
C1301 C1303 1.387 . S
H1302 C1309 0.950 . S
C1303 C1301 1.387 . S
C1303 C1305 1.390 . S
C1303 H1307 0.950 . S
H1304 C1300 0.950 . S
C1305 C1303 1.390 . S
C1305 C1306 1.387 . S
C1305 H1308 0.950 . S
C1306 C1305 1.387 . S
C1306 C1309 1.387 . S
H1307 C1303 0.950 . S
H1308 C1305 0.950 . S
C1309 C1300 1.390 . S
C1309 H1302 0.950 . S
C1309 C1306 1.387 . S
C1310 C1311 1.387 . S
C1310 H1314 0.950 . S
C1310 C1319 1.390 . S
C1311 C1310 1.387 . S
C1311 C1313 1.387 . S
H1312 C1319 0.950 . S
C1313 C1311 1.387 . S
C1313 C1315 1.390 . S
C1313 H1317 0.950 . S
H1314 C1310 0.950 . S
C1315 C1313 1.390 . S
C1315 C1316 1.387 . S
C1315 H1318 0.950 . S
C1316 C1315 1.387 . S
C1316 C1319 1.387 . S
H1317 C1313 0.950 . S
H1318 C1315 0.950 . S
C1319 C1310 1.390 . S
C1319 H1312 0.950 . S
C1319 C1316 1.387 . S
C1320 C1321 1.387 . S
C1320 H1324 0.950 . S
C1320 C1329 1.390 . S
C1321 C1320 1.387 . S
C1321 C1323 1.387 . S
H1322 C1329 0.950 . S
C1323 C1321 1.387 . S
C1323 C1325 1.390 . S
C1323 H1327 0.950 . S
H1324 C1320 0.950 . S
C1325 C1323 1.390 . S
C1325 C1326 1.387 . S
C1325 H1328 0.950 . S
C1326 C1325 1.387 . S
C1326 C1329 1.387 . S
H1327 C1323 0.950 . S
H1328 C1325 0.950 . S
C1329 C1320 1.390 . S
C1329 H1322 0.950 . S
C1329 C1326 1.387 . S
C1330 C1331 1.387 . S
C1330 H1334 0.950 . S
C1330 C1339 1.390 . S
C1331 C1330 1.387 . S
C1331 C1333 1.387 . S
H1332 C1339 0.950 . S
C1333 C1331 1.387 . S
C1333 C1335 1.390 . S
C1333 H1337 0.950 . S
H1334 C1330 0.950 . S
C1335 C1333 1.390 . S
C1335 C1336 1.387 . S
C1335 H1338 0.950 . S
C1336 C1335 1.387 . S
C1336 C1339 1.387 . S
H1337 C1333 0.950 . S
H1338 C1335 0.950 . S
C1339 C1330 1.390 . S
C1339 H1332 0.950 . S
C1339 C1336 1.387 . S
C1340 C1341 1.387 . S
C1340 H1344 0.950 . S
C1340 C1349 1.390 . S
C1341 C1340 1.387 . S
C1341 C1343 1.387 . S
H1342 C1349 0.950 . S
C1343 C1341 1.387 . S
C1343 C1345 1.390 . S
C1343 H1347 0.950 . S
H1344 C1340 0.950 . S
C1345 C1343 1.390 . S
C1345 C1346 1.387 . S
C1345 H1348 0.950 . S
C1346 C1345 1.387 . S
C1346 C1349 1.387 . S
H1347 C1343 0.950 . S
H1348 C1345 0.950 . S
C1349 C1340 1.390 . S
C1349 H1342 0.950 . S
C1349 C1346 1.387 . S
C876 C699 1.391 . S
C871 C74 1.449 . S
C886 C700 0.609 . S
C881 C142 0.801 . S
C896 C694 1.417 . S
C891 C231 1.349 . S
C901 C322 1.130 . S
C906 C693 1.152 . S
C911 C406 0.793 . S
C916 C696 0.607 . S
C926 C698 1.421 . S
C921 C494 1.348 . S
C931 C562 1.130 . S
C936 C697 1.152 . S
C941 C651 1.446 . S
C946 C695 1.389 . S
C956 C730 1.536 . S
C951 C58 1.446 . S
C961 C151 1.812 . S
C966 C761 1.764 . S
C976 C729 2.605 . S
C971 C224 2.457 . S
C986 C764 1.339 . S
C981 C315 1.307 . S
C991 C399 1.580 . S
C996 C727 1.587 . S
C1006 C759 1.469 . S
C1001 C478 1.402 . S
C1011 C571 1.392 . S
C1016 C732 1.468 . S
C1021 C644 2.490 . S
C1026 C766 2.564 . S
C1031 C67 2.491 . S
C1036 C762 2.564 . S
C1041 C392 1.813 . S
C1046 C765 1.762 . S
C1056 C733 2.606 . S
C1051 C487 2.454 . S
C1066 C760 1.335 . S
C1061 C578 1.310 . S
C1071 C658 1.446 . S
C1076 C726 1.536 . S
C1081 C238 1.401 . S
C1086 C763 1.469 . S
C1096 C728 1.468 . S
C1091 C308 1.392 . S
C1101 C158 1.578 . S
C1106 C731 1.587 . S
C1111 C662 1.424 . S
C1116 C798 1.344 . S
C1121 C394 1.041 . S
C1126 C799 0.177 . S
C1136 C793 1.565 . S
C1131 C483 1.523 . S
C1146 C792 1.375 . S
C1141 C574 1.250 . S
C1151 C154 1.045 . S
C1156 C795 0.174 . S
C1166 C797 1.562 . S
C1161 C242 1.523 . S
C1171 C310 1.249 . S
C1176 C796 1.375 . S
C1181 C63 1.425 . S
C1186 C794 1.344 . S
C1191 C646 1.468 . S
C1196 C832 1.545 . S
C1206 C864 1.349 . S
C1201 C403 1.404 . S
C1211 C476 2.343 . S
C1216 C825 2.487 . S
C1221 C567 1.646 . S
C1226 C859 1.706 . S
C1236 C830 1.561 . S
C1231 C147 1.401 . S
C1241 C226 1.640 . S
C1246 C861 1.648 . S
C1256 C827 1.606 . S
C1251 C319 1.660 . S
C1266 C862 2.562 . S
C1261 C56 2.286 . S
C1276 C858 2.562 . S
C1271 C655 2.288 . S
C1281 C140 1.402 . S
C1286 C860 1.351 . S
C1291 C235 2.343 . S
C1296 C829 2.487 . S
C1306 C863 1.706 . S
C1301 C326 1.645 . S
C1311 C70 1.463 . S
C1316 C828 1.546 . S
C1321 C490 1.640 . S
C1326 C865 1.647 . S
C1336 C831 1.606 . S
C1331 C560 1.660 . S
C1346 C826 1.561 . S
C1341 C410 1.399 . S
