# Generated by pormake.
# Topology gar, (4,6)-cn, num edge types: 1
# Building blocks:
#     Node 0, Type 0, BuildingBlock: QUQFOY_clean_sbu_1, # of connection points: 4
#     Node 1, Type 0, BuildingBlock: QUQFOY_clean_sbu_1, # of connection points: 4
#     Node 2, Type 0, BuildingBlock: QUQFOY_clean_sbu_1, # of connection points: 4
#     Node 3, Type 0, BuildingBlock: QUQFOY_clean_sbu_1, # of connection points: 4
#     Node 4, Type 0, BuildingBlock: QUQFOY_clean_sbu_1, # of connection points: 4
#     Node 5, Type 0, BuildingBlock: QUQFOY_clean_sbu_1, # of connection points: 4
#     Node 6, Type 0, BuildingBlock: QUQFOY_clean_sbu_1, # of connection points: 4
#     Node 7, Type 0, BuildingBlock: QUQFOY_clean_sbu_1, # of connection points: 4
#     Node 8, Type 0, BuildingBlock: QUQFOY_clean_sbu_1, # of connection points: 4
#     Node 9, Type 0, BuildingBlock: QUQFOY_clean_sbu_1, # of connection points: 4
#     Node 10, Type 0, BuildingBlock: QUQFOY_clean_sbu_1, # of connection points: 4
#     Node 11, Type 0, BuildingBlock: QUQFOY_clean_sbu_1, # of connection points: 4
#     Node 12, Type 0, BuildingBlock: QUQFOY_clean_sbu_1, # of connection points: 4
#     Node 13, Type 0, BuildingBlock: QUQFOY_clean_sbu_1, # of connection points: 4
#     Node 14, Type 0, BuildingBlock: QUQFOY_clean_sbu_1, # of connection points: 4
#     Node 15, Type 0, BuildingBlock: QUQFOY_clean_sbu_1, # of connection points: 4
#     Node 16, Type 0, BuildingBlock: QUQFOY_clean_sbu_1, # of connection points: 4
#     Node 17, Type 0, BuildingBlock: QUQFOY_clean_sbu_1, # of connection points: 4
#     Node 18, Type 0, BuildingBlock: QUQFOY_clean_sbu_1, # of connection points: 4
#     Node 19, Type 0, BuildingBlock: QUQFOY_clean_sbu_1, # of connection points: 4
#     Node 20, Type 0, BuildingBlock: QUQFOY_clean_sbu_1, # of connection points: 4
#     Node 21, Type 0, BuildingBlock: QUQFOY_clean_sbu_1, # of connection points: 4
#     Node 22, Type 0, BuildingBlock: QUQFOY_clean_sbu_1, # of connection points: 4
#     Node 23, Type 0, BuildingBlock: QUQFOY_clean_sbu_1, # of connection points: 4
#     Node 24, Type 1, BuildingBlock: CUKXOW_clean_sbu_0, # of connection points: 6
#     Node 25, Type 1, BuildingBlock: CUKXOW_clean_sbu_0, # of connection points: 6
#     Node 26, Type 1, BuildingBlock: CUKXOW_clean_sbu_0, # of connection points: 6
#     Node 27, Type 1, BuildingBlock: CUKXOW_clean_sbu_0, # of connection points: 6
#     Node 28, Type 1, BuildingBlock: CUKXOW_clean_sbu_0, # of connection points: 6
#     Node 29, Type 1, BuildingBlock: CUKXOW_clean_sbu_0, # of connection points: 6
#     Node 30, Type 1, BuildingBlock: CUKXOW_clean_sbu_0, # of connection points: 6
#     Node 31, Type 1, BuildingBlock: CUKXOW_clean_sbu_0, # of connection points: 6
#     Node 32, Type 1, BuildingBlock: CUKXOW_clean_sbu_0, # of connection points: 6
#     Node 33, Type 1, BuildingBlock: CUKXOW_clean_sbu_0, # of connection points: 6
#     Node 34, Type 1, BuildingBlock: CUKXOW_clean_sbu_0, # of connection points: 6
#     Node 35, Type 1, BuildingBlock: CUKXOW_clean_sbu_0, # of connection points: 6
#     Node 36, Type 1, BuildingBlock: CUKXOW_clean_sbu_0, # of connection points: 6
#     Node 37, Type 1, BuildingBlock: CUKXOW_clean_sbu_0, # of connection points: 6
#     Node 38, Type 1, BuildingBlock: CUKXOW_clean_sbu_0, # of connection points: 6
#     Node 39, Type 1, BuildingBlock: CUKXOW_clean_sbu_0, # of connection points: 6
#     Edge 40, Type (0, 1), None
#     Edge 41, Type (0, 1), None
#     Edge 42, Type (0, 1), None
#     Edge 43, Type (0, 1), None
#     Edge 44, Type (0, 1), None
#     Edge 45, Type (0, 1), None
#     Edge 46, Type (0, 1), None
#     Edge 47, Type (0, 1), None
#     Edge 48, Type (0, 1), None
#     Edge 49, Type (0, 1), None
#     Edge 50, Type (0, 1), None
#     Edge 51, Type (0, 1), None
#     Edge 52, Type (0, 1), None
#     Edge 53, Type (0, 1), None
#     Edge 54, Type (0, 1), None
#     Edge 55, Type (0, 1), None
#     Edge 56, Type (0, 1), None
#     Edge 57, Type (0, 1), None
#     Edge 58, Type (0, 1), None
#     Edge 59, Type (0, 1), None
#     Edge 60, Type (0, 1), None
#     Edge 61, Type (0, 1), None
#     Edge 62, Type (0, 1), None
#     Edge 63, Type (0, 1), None
#     Edge 64, Type (0, 1), None
#     Edge 65, Type (0, 1), None
#     Edge 66, Type (0, 1), None
#     Edge 67, Type (0, 1), None
#     Edge 68, Type (0, 1), None
#     Edge 69, Type (0, 1), None
#     Edge 70, Type (0, 1), None
#     Edge 71, Type (0, 1), None
#     Edge 72, Type (0, 1), None
#     Edge 73, Type (0, 1), None
#     Edge 74, Type (0, 1), None
#     Edge 75, Type (0, 1), None
#     Edge 76, Type (0, 1), None
#     Edge 77, Type (0, 1), None
#     Edge 78, Type (0, 1), None
#     Edge 79, Type (0, 1), None
#     Edge 80, Type (0, 1), None
#     Edge 81, Type (0, 1), None
#     Edge 82, Type (0, 1), None
#     Edge 83, Type (0, 1), None
#     Edge 84, Type (0, 1), None
#     Edge 85, Type (0, 1), None
#     Edge 86, Type (0, 1), None
#     Edge 87, Type (0, 1), None
#     Edge 88, Type (0, 1), None
#     Edge 89, Type (0, 1), None
#     Edge 90, Type (0, 1), None
#     Edge 91, Type (0, 1), None
#     Edge 92, Type (0, 1), None
#     Edge 93, Type (0, 1), None
#     Edge 94, Type (0, 1), None
#     Edge 95, Type (0, 1), None
#     Edge 96, Type (0, 1), None
#     Edge 97, Type (0, 1), None
#     Edge 98, Type (0, 1), None
#     Edge 99, Type (0, 1), None
#     Edge 100, Type (0, 1), None
#     Edge 101, Type (0, 1), None
#     Edge 102, Type (0, 1), None
#     Edge 103, Type (0, 1), None
#     Edge 104, Type (0, 1), None
#     Edge 105, Type (0, 1), None
#     Edge 106, Type (0, 1), None
#     Edge 107, Type (0, 1), None
#     Edge 108, Type (0, 1), None
#     Edge 109, Type (0, 1), None
#     Edge 110, Type (0, 1), None
#     Edge 111, Type (0, 1), None
#     Edge 112, Type (0, 1), None
#     Edge 113, Type (0, 1), None
#     Edge 114, Type (0, 1), None
#     Edge 115, Type (0, 1), None
#     Edge 116, Type (0, 1), None
#     Edge 117, Type (0, 1), None
#     Edge 118, Type (0, 1), None
#     Edge 119, Type (0, 1), None
#     Edge 120, Type (0, 1), None
#     Edge 121, Type (0, 1), None
#     Edge 122, Type (0, 1), None
#     Edge 123, Type (0, 1), None
#     Edge 124, Type (0, 1), None
#     Edge 125, Type (0, 1), None
#     Edge 126, Type (0, 1), None
#     Edge 127, Type (0, 1), None
#     Edge 128, Type (0, 1), None
#     Edge 129, Type (0, 1), None
#     Edge 130, Type (0, 1), None
#     Edge 131, Type (0, 1), None
#     Edge 132, Type (0, 1), None
#     Edge 133, Type (0, 1), None
#     Edge 134, Type (0, 1), None
#     Edge 135, Type (0, 1), None
# Relax obj value: 0.160
# Max RMSD: 0.292
# Mean RMSD: 0.164
data_MOF--net-gar--node1-QUQFOY_clean_sbu_1--node2-CUKXOW_clean_sbu_0--edge1-none
_symmetry_space_group_name_H-M    P1
_symmetry_Int_Tables_number       1
_symmetry_cell_setting            triclinic
loop_
_symmetry_equiv_pos_as_xyz
'x, y, z'
_cell_length_a     26.134775
_cell_length_b     25.142091
_cell_length_c     25.301912
_cell_angle_alpha  94.551458
_cell_angle_beta   91.669559
_cell_angle_gamma 95.569386
loop_
_atom_site_label
_atom_site_type_symbol
_atom_site_fract_x
_atom_site_fract_y
_atom_site_fract_z
_atom_type_partial_charge
O0 O 0.04891 0.17636 0.47275 0.0
Cd1 Cd 0.05702 0.23447 0.41698 0.0
Cd2 Cd 1.00795 0.27974 0.5138 0.0
O3 O 0.03052 0.21624 0.55068 0.0
O4 O 0.05154 0.19802 0.34308 0.0
O5 O 0.12158 0.24561 0.38028 0.0
C6 C 0.09748 0.2206 0.33882 0.0
C7 C 1.02483 0.37056 0.53957 0.0
C8 C 0.04136 0.17506 0.52241 0.0
C9 C 0.9683 0.27986 0.41057 0.0
O10 O 0.95454 0.25936 0.45249 0.0
O11 O 1.01467 0.29695 0.40703 0.0
O12 O 0.98665 0.34211 0.55826 0.0
O13 O 0.05592 0.34652 0.50919 0.0
O14 O 0.98917 0.7156 0.59359 0.0
Cd15 Cd 1.01718 0.77692 0.64842 0.0
Cd16 Cd 0.07675 0.80802 0.57169 0.0
O17 O 0.05446 0.7304 0.54182 0.0
O18 O 0.98114 0.75689 0.71212 0.0
O19 O 0.97702 0.8352 0.6786 0.0
C20 C 0.96594 0.80399 0.7156 0.0
C21 C 0.05286 0.88188 0.53494 0.0
C22 C 1.0157 0.70053 0.55503 0.0
C23 C 0.12933 0.79689 0.67102 0.0
O24 O 0.13503 0.81867 0.62786 0.0
O25 O 0.08687 0.77316 0.68206 0.0
O26 O 0.08889 0.85624 0.51427 0.0
O27 O 0.02932 0.86422 0.57528 0.0
O28 O 0.57856 0.72375 0.8907 0.0
Cd29 Cd 0.56343 0.7538 0.97175 0.0
Cd30 Cd 0.58123 0.82963 0.9054 0.0
O31 O 0.63771 0.78903 0.88028 0.0
O32 O 0.60447 0.71539 0.0226 0.0
O33 O 0.52208 0.69187 1.00195 0.0
C34 C 0.56386 0.68252 0.02643 0.0
C35 C 0.50417 0.81062 0.85887 0.0
C36 C 0.61535 0.74383 0.8642 0.0
C37 C 0.56567 0.87959 1.001 0.0
O38 O 0.59628 0.88561 0.96394 0.0
O39 O 0.5424 0.83279 1.00609 0.0
O40 O 0.53862 0.84586 0.84329 0.0
O41 O 0.51143 0.79018 0.90306 0.0
O42 O 0.47872 0.20719 0.09475 0.0
Cd43 Cd 0.50822 0.26239 0.15432 0.0
Cd44 Cd 0.55599 0.31298 0.08203 0.0
O45 O 0.54342 0.23394 0.04623 0.0
O46 O 0.47258 0.24616 0.21932 0.0
O47 O 0.47574 0.32543 0.18579 0.0
C48 C 0.46294 0.29553 0.22349 0.0
C49 C 0.53667 0.38831 0.03927 0.0
C50 C 0.50743 0.19836 0.05609 0.0
C51 C 0.61441 0.2921 0.17812 0.0
O52 O 0.61072 0.32639 0.14435 0.0
O53 O 0.57949 0.25437 0.18072 0.0
O54 O 0.5787 0.36661 0.03063 0.0
O55 O 0.50443 0.36625 0.07071 0.0
O56 O 1.02161 0.67469 0.15185 0.0
Cd57 Cd 1.01785 0.73859 0.21116 0.0
Cd58 Cd 0.07184 0.7882 0.14286 0.0
O59 O 0.08464 0.71586 0.10998 0.0
O60 O 0.96242 0.71777 0.26266 0.0
O61 O 0.95446 0.78267 0.2107 0.0
C62 C 0.93508 0.75382 0.24654 0.0
C63 C 0.03279 0.83598 0.08389 0.0
C64 C 0.05492 0.67442 0.11585 0.0
C65 C 0.12499 0.79916 0.24486 0.0
O66 O 0.12161 0.82256 0.20254 0.0
O67 O 0.08958 0.76265 0.25463 0.0
O68 O 0.08093 0.82949 0.08094 0.0
O69 O 1.00723 0.81752 0.12251 0.0
O70 O 0.65455 0.80412 0.38133 0.0
Cd71 Cd 0.60112 0.81072 0.43833 0.0
Cd72 Cd 0.5284 0.82152 0.34218 0.0
O73 O 0.60491 0.81246 0.30994 0.0
O74 O 0.62216 0.77277 0.50038 0.0
O75 O 0.55126 0.74903 0.44953 0.0
C76 C 0.58043 0.74142 0.48985 0.0
C77 C 0.44495 0.79567 0.29755 0.0
C78 C 0.64919 0.80613 0.33156 0.0
C79 C 0.53946 0.90154 0.44656 0.0
O80 O 0.51702 0.88176 0.40296 0.0
O81 O 0.5788 0.88264 0.46501 0.0
O82 O 0.47442 0.83722 0.2865 0.0
O83 O 0.46453 0.76506 0.32977 0.0
O84 O 0.52372 0.16862 0.64151 0.0
Cd85 Cd 0.52207 0.22998 0.70469 0.0
Cd86 Cd 0.57608 0.28232 0.63439 0.0
O87 O 0.58314 0.21097 0.59584 0.0
O88 O 0.46774 0.20639 0.75684 0.0
O89 O 0.4582 0.27306 0.70757 0.0
C90 C 0.43974 0.24274 0.7427 0.0
C91 C 0.53592 0.33634 0.58274 0.0
C92 C 0.55333 0.16966 0.60211 0.0
C93 C 0.63027 0.29088 0.73771 0.0
O94 O 0.62851 0.31205 0.69394 0.0
O95 O 0.59395 0.25557 0.7483 0.0
O96 O 0.58317 0.32814 0.57548 0.0
O97 O 0.51221 0.31573 0.62147 0.0
O98 O 0.05704 0.20784 0.8909 0.0
Cd99 Cd 0.05802 0.25831 0.83031 0.0
Cd100 Cd 1.01373 0.32059 0.91762 0.0
O101 O 0.04448 0.26425 0.95946 0.0
O102 O 0.11449 0.23335 0.78274 0.0
O103 O 0.1242 0.31038 0.83154 0.0
C104 C 0.14439 0.2752 0.80077 0.0
C105 C 1.0106 0.39635 0.97511 0.0
C106 C 0.05635 0.21937 0.94071 0.0
C107 C 0.9452 0.28158 0.81543 0.0
O108 O 0.95141 0.30306 0.86285 0.0
O109 O 0.98354 0.2635 0.7916 0.0
O110 O 0.97918 0.35436 0.97839 0.0
O111 O 0.04272 0.39674 0.93732 0.0
O112 O 0.44773 0.08328 0.15891 0.0
Cd113 Cd 0.3843 0.09442 0.20496 0.0
Cd114 Cd 0.46886 0.06693 0.29319 0.0
O115 O 0.50756 0.06949 0.22007 0.0
O116 O 0.32719 0.12867 0.16952 0.0
O117 O 0.36948 0.16292 0.2438 0.0
C118 C 0.33168 0.16392 0.20979 0.0
C119 C 0.51136 0.07027 0.37838 0.0
C120 C 0.49329 0.07346 0.17167 0.0
C121 C 0.35954 0.00463 0.2724 0.0
O122 O 0.40268 0.01564 0.29714 0.0
O123 O 0.34726 0.02831 0.23237 0.0
O124 O 0.51699 0.03284 0.34194 0.0
O125 O 0.48581 0.10899 0.36541 0.0
O126 O 0.22242 0.11501 0.58776 0.0
Cd127 Cd 0.25168 0.0588 0.5372 0.0
Cd128 Cd 0.2543 0.14346 0.47374 0.0
O129 O 0.27111 0.17542 0.54866 0.0
O130 O 0.29949 0.01474 0.57165 0.0
O131 O 0.32181 0.08332 0.52283 0.0
C132 C 0.33452 0.04621 0.55161 0.0
C133 C 0.27486 0.20734 0.41599 0.0
C134 C 0.24584 0.16167 0.58791 0.0
C135 C 0.17653 0.04707 0.45721 0.0
O136 O 0.18486 0.09755 0.45686 0.0
O137 O 0.21268 0.02151 0.47229 0.0
O138 O 0.23562 0.20937 0.44505 0.0
O139 O 0.30258 0.16785 0.41867 0.0
O140 O 0.20529 0.99107 0.6981 0.0
Cd141 Cd 0.26011 0.99459 0.75625 0.0
Cd142 Cd 0.18444 0.02515 0.825 0.0
O143 O 0.14826 0.02148 0.75276 0.0
O144 O 0.31467 0.95064 0.72969 0.0
O145 O 0.26408 0.93024 0.7961 0.0
C146 C 0.29963 0.91785 0.76414 0.0
C147 C 0.12341 0.01323 0.89092 0.0
C148 C 0.16189 0.00761 0.70661 0.0
C149 C 0.27347 0.10629 0.8097 0.0
O150 O 0.23561 0.09342 0.83805 0.0
O151 O 0.29018 0.07216 0.77646 0.0
O152 O 0.12756 0.05434 0.86408 0.0
O153 O 0.15488 0.97756 0.8817 0.0
O154 O 0.23937 0.8697 0.14843 0.0
Cd155 Cd 0.22772 0.9348 0.10053 0.0
Cd156 Cd 0.2654 0.83897 0.01797 0.0
O157 O 0.26192 0.804 0.09094 0.0
O158 O 0.18935 0.99772 0.1319 0.0
O159 O 0.16197 0.94761 0.05948 0.0
C160 C 0.15689 0.98908 0.09192 0.0
C161 C 0.26995 0.79204 0.93278 0.0
C162 C 0.25413 0.82258 0.13838 0.0
C163 C 0.32567 0.95192 0.04107 0.0
O164 O 0.31657 0.90542 0.0177 0.0
O165 O 0.2963 0.97046 0.07558 0.0
O166 O 0.30517 0.79134 0.96918 0.0
O167 O 0.22907 0.81401 0.94615 0.0
O168 O 0.27402 0.40154 0.14294 0.0
Cd169 Cd 0.29863 0.45673 0.09001 0.0
Cd170 Cd 0.35544 0.38143 0.06113 0.0
O171 O 0.31432 0.33555 0.10746 0.0
O172 O 0.2532 0.51395 0.09838 0.0
O173 O 0.25284 0.4577 0.02584 0.0
C174 C 0.2347 0.49758 0.05154 0.0
C175 C 0.3461 0.35161 0.97507 0.0
C176 C 0.28241 0.35251 0.13941 0.0
C177 C 0.41303 0.48158 0.09804 0.0
O178 O 0.41604 0.43157 0.09273 0.0
O179 O 0.36985 0.49986 0.0933 0.0
O180 O 0.37839 0.33163 1.00556 0.0
O181 O 0.32222 0.39152 0.99283 0.0
O182 O 0.86052 0.19517 0.11212 0.0
Cd183 Cd 0.84834 0.13743 0.04685 0.0
Cd184 Cd 0.79131 0.22518 1.00469 0.0
O185 O 0.81599 0.25838 0.08175 0.0
O186 O 0.88583 0.07344 0.0613 0.0
O187 O 0.9032 0.11959 0.99271 0.0
C188 C 0.91137 0.07924 0.01916 0.0
C189 C 0.78309 0.27011 0.92619 0.0
C190 C 0.84167 0.24022 0.11916 0.0
C191 C 0.73321 0.11825 0.02297 0.0
O192 O 0.73423 0.16424 1.00565 0.0
O193 O 0.77348 0.10068 0.04125 0.0
O194 O 0.75566 0.28067 0.96646 0.0
O195 O 0.81804 0.2378 0.93184 0.0
O196 O 0.11598 0.46576 0.20243 0.0
Cd197 Cd 0.16951 0.47249 0.266 0.0
Cd198 Cd 0.09302 0.53516 0.31432 0.0
O199 O 0.05836 0.51583 0.238 0.0
O200 O 0.22609 0.42774 0.24532 0.0
O201 O 0.1827 0.41623 0.31765 0.0
C202 C 0.22005 0.40409 0.28824 0.0
C203 C 0.0449 0.53453 0.39254 0.0
C204 C 0.0747 0.48871 0.19822 0.0
C205 C 0.2 0.5893 0.29671 0.0
O206 O 0.15612 0.59236 0.31674 0.0
O207 O 0.21207 0.54584 0.27402 0.0
O208 O 0.03918 0.56894 0.3583 0.0
O209 O 0.07664 0.49917 0.38206 0.0
O210 O 0.76793 0.88928 0.64011 0.0
Cd211 Cd 0.79293 0.94868 0.59011 0.0
Cd212 Cd 0.85806 0.87929 0.56883 0.0
O213 O 0.81445 0.82734 0.60717 0.0
O214 O 0.74887 0.00613 0.60046 0.0
O215 O 0.74967 0.95309 0.52552 0.0
C216 C 0.73365 0.99389 0.55171 0.0
C217 C 0.85316 0.86248 0.48075 0.0
C218 C 0.77898 0.84096 0.63649 0.0
C219 C 0.90584 0.98124 0.60148 0.0
O220 O 0.9114 0.9328 0.60803 0.0
O221 O 0.8622 0.99423 0.58839 0.0
O222 O 0.88579 0.83966 0.50842 0.0
O223 O 0.82671 0.89798 0.50312 0.0
O224 O 0.91638 0.06025 0.16482 0.0
Cd225 Cd 0.85759 0.05546 0.2225 0.0
Cd226 Cd 0.9249 0.99932 0.25047 0.0
O227 O 0.98026 0.02875 0.20678 0.0
O228 O 0.80283 0.09972 0.19904 0.0
O229 O 0.85259 0.12332 0.27092 0.0
C230 C 0.81568 0.13343 0.23941 0.0
C231 C 0.93644 0.00794 0.33923 0.0
C232 C 0.9637 0.05109 0.16792 0.0
C233 C 0.83428 0.93673 0.23326 0.0
O234 O 0.87928 0.93531 0.21738 0.0
O235 O 0.81886 0.98229 0.2465 0.0
O236 O 0.9566 0.97135 0.31056 0.0
O237 O 0.90919 0.04084 0.31723 0.0
O238 O 0.35599 0.6832 0.60144 0.0
Cd239 Cd 0.34236 0.63011 0.53351 0.0
Cd240 Cd 0.28454 0.71717 0.498 0.0
O241 O 0.31062 0.74722 0.57493 0.0
O242 O 0.38022 0.56647 0.5459 0.0
O243 O 0.4 0.61661 0.48096 0.0
C244 C 0.40851 0.57579 0.50649 0.0
C245 C 0.28091 0.76951 0.42422 0.0
C246 C 0.33736 0.72794 0.61061 0.0
C247 C 0.22604 0.60968 0.51276 0.0
O248 O 0.22598 0.65651 0.49728 0.0
O249 O 0.26742 0.59204 0.52829 0.0
O250 O 0.25213 0.77718 0.46401 0.0
O251 O 0.31355 0.73433 0.42723 0.0
O252 O 0.38469 0.53318 0.64474 0.0
Cd253 Cd 0.32926 0.53388 0.70134 0.0
Cd254 Cd 0.40483 0.5238 0.76162 0.0
O255 O 0.44812 0.55375 0.70367 0.0
O256 O 0.27802 0.58641 0.69216 0.0
O257 O 0.33895 0.59737 0.75617 0.0
C258 C 0.30054 0.61514 0.73243 0.0
C259 C 0.44591 0.54067 0.84227 0.0
C260 C 0.43196 0.54738 0.65607 0.0
C261 C 0.32604 0.42796 0.73821 0.0
O262 O 0.37112 0.44608 0.75444 0.0
O263 O 0.29647 0.45862 0.71791 0.0
O264 O 0.46295 0.50994 0.80546 0.0
O265 O 0.40504 0.56387 0.83343 0.0
O266 O 0.61355 0.96308 0.69593 0.0
Cd267 Cd 0.66678 0.97066 0.75916 0.0
Cd268 Cd 0.59046 0.03661 0.80407 0.0
O269 O 0.55497 0.01397 0.72797 0.0
O270 O 0.7231 0.9279 0.73524 0.0
O271 O 0.68251 0.91359 0.80878 0.0
C272 C 0.71936 0.90356 0.77785 0.0
C273 C 0.5474 0.03881 0.88537 0.0
C274 C 0.57209 0.9852 0.68971 0.0
C275 C 0.69977 0.08665 0.78716 0.0
O276 O 0.65528 0.0915 0.80509 0.0
O277 O 0.71133 0.04246 0.766 0.0
O278 O 0.53914 0.07208 0.8506 0.0
O279 O 0.57768 1.00241 0.87308 0.0
O280 O 0.71982 0.63497 0.09343 0.0
Cd281 Cd 0.75493 0.58869 0.03873 0.0
Cd282 Cd 0.75251 0.6737 0.98447 0.0
O283 O 0.76097 0.70412 0.05972 0.0
O284 O 0.79848 0.54079 0.07217 0.0
O285 O 0.82706 0.61411 0.03256 0.0
C286 C 0.83609 0.57336 0.05824 0.0
C287 C 0.78038 0.73517 0.92716 0.0
C288 C 0.73642 0.68416 0.09675 0.0
C289 C 0.67912 0.57755 0.96029 0.0
O290 O 0.68386 0.6283 0.96348 0.0
O291 O 0.718 0.55408 0.97156 0.0
O292 O 0.7398 0.73998 0.95376 0.0
O293 O 0.80629 0.69487 0.93351 0.0
O294 O 0.94927 0.58242 0.66803 0.0
Cd295 Cd 0.88715 0.59194 0.71581 0.0
Cd296 Cd 0.97005 0.56507 0.8002 0.0
O297 O 1.0099 0.56651 0.72729 0.0
O298 O 0.82824 0.62339 0.68112 0.0
O299 O 0.86988 0.65893 0.75542 0.0
C300 C 0.83146 0.65806 0.72181 0.0
C301 C 1.00961 0.57447 0.88728 0.0
C302 C 0.99478 0.57135 0.67928 0.0
C303 C 0.86414 0.49844 0.778 0.0
O304 O 0.90702 0.50925 0.80328 0.0
O305 O 0.8513 0.52426 0.73982 0.0
O306 O 1.01933 0.53716 0.8523 0.0
O307 O 0.98148 0.61016 0.87186 0.0
O308 O 0.73645 0.37229 0.6558 0.0
Cd309 Cd 0.7201 0.43791 0.61059 0.0
Cd310 Cd 0.75062 0.34917 0.52229 0.0
O311 O 0.75327 0.30921 0.59299 0.0
O312 O 0.6768 0.49575 0.64311 0.0
O313 O 0.65412 0.44674 0.56852 0.0
C314 C 0.6457 0.4863 0.60204 0.0
C315 C 0.75447 0.30419 0.43552 0.0
C316 C 0.75024 0.32553 0.64203 0.0
C317 C 0.81267 0.46209 0.54674 0.0
O318 O 0.80189 0.41656 0.52155 0.0
O319 O 0.78608 0.47826 0.58489 0.0
O320 O 0.78966 0.30362 0.47189 0.0
O321 O 0.71333 0.32529 0.44928 0.0
O322 O 0.70895 0.49955 0.20788 0.0
Cd323 Cd 0.76519 0.50681 0.26558 0.0
Cd324 Cd 0.6849 0.53947 0.33211 0.0
O325 O 0.64856 0.52812 0.25945 0.0
O326 O 0.82056 0.46197 0.23943 0.0
O327 O 0.76929 0.4418 0.30504 0.0
C328 C 0.80448 0.42857 0.27296 0.0
C329 C 0.62507 0.52751 0.39823 0.0
C330 C 0.66365 0.512 0.21449 0.0
C331 C 0.77349 0.62159 0.31677 0.0
O332 O 0.73423 0.609 0.34318 0.0
O333 O 0.79233 0.58673 0.28563 0.0
O334 O 0.6274 0.56821 0.37073 0.0
O335 O 0.65774 0.4929 0.38959 0.0
Tb336 Tb 0.05964 0.094 0.03384 0.0
C337 C 0.09251 0.01578 0.93791 0.0
Tb338 Tb 1.01591 0.97285 0.0236 0.0
O339 O 0.12248 0.07933 0.0919 0.0
O340 O 0.08628 0.01878 0.04149 0.0
O341 O 0.09982 0.0627 0.96637 0.0
C342 C 1.01177 0.87369 0.05149 0.0
O343 O 0.0604 0.97433 0.95063 0.0
C344 C 0.94616 0.03864 1.00138 0.0
C345 C 0.99509 0.05096 0.12128 0.0
O346 O 0.03536 0.89087 0.01071 0.0
O347 O 0.98744 0.91132 0.07348 0.0
O348 O 0.93512 0.98749 1.00557 0.0
O349 O 0.99451 0.04528 1.00185 0.0
O350 O 1.01387 0.00524 0.1062 0.0
O351 O 1.00294 0.09388 0.09459 0.0
C352 C 0.06102 0.17687 0.9758 0.0
O353 O 0.0734 0.18113 0.02672 0.0
O354 O 0.04836 0.12754 0.95931 0.0
C355 C 0.11778 0.02711 0.0803 0.0
Tb356 Tb 0.28891 0.85858 0.29574 0.0
C357 C 0.38816 0.79109 0.28365 0.0
Tb358 Tb 0.27406 0.73414 0.26896 0.0
O359 O 0.26182 0.84785 0.37627 0.0
O360 O 0.29963 0.78904 0.33457 0.0
O361 O 0.36768 0.83725 0.27904 0.0
C362 C 0.23371 0.63871 0.2931 0.0
O363 O 0.35869 0.74449 0.28494 0.0
C364 C 0.26455 0.78868 0.18283 0.0
C365 C 0.17666 0.80298 0.27171 0.0
O366 O 0.26834 0.64631 0.25737 0.0
O367 O 0.22393 0.68435 0.31594 0.0
O368 O 0.26309 0.7365 0.18054 0.0
O369 O 0.275 0.80378 0.23059 0.0
O370 O 0.19514 0.75672 0.27971 0.0
O371 O 0.20688 0.84889 0.27246 0.0
C372 C 0.32649 0.95852 0.28617 0.0
O373 O 0.33556 0.93149 0.32637 0.0
O374 O 0.29363 0.93067 0.25308 0.0
C375 C 0.27703 0.79987 0.37675 0.0
Tb376 Tb 0.59425 0.0346 0.52673 0.0
C377 C 0.5548 0.99109 0.63414 0.0
Tb378 Tb 0.48348 0.02147 0.5406 0.0
O379 O 0.59279 0.12139 0.53052 0.0
O380 O 0.54352 0.07578 0.57583 0.0
O381 O 0.59197 0.99343 0.59964 0.0
C382 C 0.38817 0.03881 0.55736 0.0
O383 O 0.50789 0.00394 0.62157 0.0
C384 C 0.51807 0.94501 0.47829 0.0
C385 C 0.52626 0.06347 0.43431 0.0
O386 O 0.40649 0.99333 0.5638 0.0
O387 O 0.42353 0.07413 0.54354 0.0
O388 O 0.47239 0.95985 0.47272 0.0
O389 O 0.53876 0.96837 0.52012 0.0
O390 O 0.49186 0.06969 0.4713 0.0
O391 O 0.56915 0.04208 0.44503 0.0
C392 C 0.69201 0.01982 0.53079 0.0
O393 O 0.67092 0.05528 0.56019 0.0
O394 O 0.65882 0.99546 0.4958 0.0
C395 C 0.55664 0.12263 0.5646 0.0
Tb396 Tb 0.31246 0.28062 0.82584 0.0
C397 C 0.30844 0.373 0.74919 0.0
Tb398 Tb 0.27692 0.25249 0.7275 0.0
O399 O 0.38198 0.23937 0.81665 0.0
O400 O 0.35508 0.2783 0.75337 0.0
O401 O 0.31431 0.36073 0.79845 0.0
C402 C 0.25189 0.19686 0.63583 0.0
O403 O 0.29698 0.33526 0.71037 0.0
C404 C 0.19894 0.28329 0.78413 0.0
C405 C 0.28746 0.1632 0.8033 0.0
O406 O 0.28452 0.23915 0.64224 0.0
O407 O 0.23272 0.18619 0.68046 0.0
O408 O 0.2075 0.29342 0.73578 0.0
O409 O 0.234 0.25529 0.79919 0.0
O410 O 0.29852 0.17716 0.75559 0.0
O411 O 0.27929 0.2009 0.84004 0.0
C412 C 0.33451 0.32718 0.92217 0.0
O413 O 0.35535 0.28642 0.90147 0.0
O414 O 0.2997 0.34063 0.88995 0.0
C415 C 0.38971 0.25003 0.76833 0.0
Tb416 Tb 1.00888 0.0188 0.48139 0.0
C417 C 0.95094 0.01433 0.58777 0.0
Tb418 Tb 0.06808 0.03388 0.58295 0.0
O419 O 0.03921 0.94108 0.46511 0.0
O420 O 1.02285 0.96861 0.54223 0.0
O421 O 0.94989 0.03238 0.53988 0.0
C422 C 0.12857 0.01616 0.66274 0.0
O423 O 0.99455 0.00373 0.60991 0.0
C424 C 0.04505 0.12426 0.54631 0.0
C425 C 0.12667 0.02936 0.47603 0.0
O426 O 0.08977 0.0444 0.66667 0.0
O427 O 0.13498 0.99987 0.61394 0.0
O428 O 0.05204 0.1186 0.5964 0.0
O429 O 0.05655 0.08298 0.5206 0.0
O430 O 0.12698 0.01814 0.52627 0.0
O431 O 0.08438 0.04103 0.45137 0.0
C432 C 0.94904 0.01327 0.39507 0.0
O433 O 0.96292 0.973 0.41844 0.0
O434 O 0.96811 0.05776 0.4209 0.0
C435 C 0.04007 0.93142 0.51451 0.0
Tb436 Tb 0.36328 0.779 0.78432 0.0
C437 C 0.28055 0.77768 0.87633 0.0
Tb438 Tb 0.25402 0.76432 0.75437 0.0
O439 O 0.36611 0.85678 0.74982 0.0
O440 O 0.30274 0.82893 0.79068 0.0
O441 O 0.3294 0.77485 0.86341 0.0
C442 C 0.17274 0.79234 0.70573 0.0
O443 O 0.24334 0.7781 0.83958 0.0
C444 C 0.28277 0.66722 0.74926 0.0
C445 C 0.33506 0.75084 0.66626 0.0
O446 O 0.17137 0.76109 0.74436 0.0
O447 O 0.21941 0.80954 0.696 0.0
O448 O 0.23603 0.67799 0.74041 0.0
O449 O 0.31123 0.71023 0.76246 0.0
O450 O 0.29275 0.77279 0.67918 0.0
O451 O 0.3679 0.74026 0.70401 0.0
C452 C 0.4569 0.79454 0.82828 0.0
O453 O 0.44177 0.81767 0.78777 0.0
O454 O 0.42083 0.75971 0.84185 0.0
C455 C 0.32166 0.86693 0.76633 0.0
Tb456 Tb 0.47237 0.01975 0.02317 0.0
C457 C 0.55184 0.93045 0.02766 0.0
Tb458 Tb 0.5859 0.05534 0.04356 0.0
O459 O 0.47516 0.05017 0.94387 0.0
O460 O 0.53903 0.02047 0.97721 0.0
O461 O 0.50253 0.94047 0.02729 0.0
C462 C 0.68286 0.08847 0.02603 0.0
O463 O 0.59046 0.96933 0.03281 0.0
C464 C 0.52983 0.0647 0.12871 0.0
C465 C 0.50973 0.14223 0.03546 0.0
O466 O 0.66862 0.05769 0.06317 0.0
O467 O 0.64286 0.09985 0.99941 0.0
O468 O 0.57383 0.09231 0.12418 0.0
O469 O 0.52344 0.02959 0.08997 0.0
O470 O 0.55521 0.12843 0.02165 0.0
O471 O 0.47171 0.10572 0.04467 0.0
C472 C 0.37492 0.98106 0.0316 0.0
O473 O 0.3997 0.01731 0.06448 0.0
O474 O 0.4049 0.96654 0.99432 0.0
C475 C 0.52307 0.0421 0.93752 0.0
Tb476 Tb 0.21739 0.25349 0.26074 0.0
C477 C 0.27826 0.23982 0.37174 0.0
Tb478 Tb 0.33081 0.30462 0.28798 0.0
O479 O 0.24511 0.19563 0.19959 0.0
O480 O 0.29155 0.22919 0.26365 0.0
O481 O 0.2348 0.23787 0.34273 0.0
C482 C 0.42868 0.31291 0.26397 0.0
O483 O 0.32323 0.26368 0.35917 0.0
C484 C 0.25969 0.37095 0.30598 0.0
C485 C 0.27231 0.32068 0.1832 0.0
O486 O 0.40742 0.27884 0.29474 0.0
O487 O 0.39639 0.34677 0.25348 0.0
O488 O 0.30867 0.38643 0.30507 0.0
O489 O 0.25576 0.32063 0.30496 0.0
O490 O 0.31334 0.30273 0.20403 0.0
O491 O 0.22592 0.31077 0.20161 0.0
C492 C 0.12213 0.22187 0.28807 0.0
O493 O 0.15858 0.1912 0.27946 0.0
O494 O 0.1381 0.26874 0.27303 0.0
C495 C 0.2915 0.19996 0.22122 0.0
Tb496 Tb 0.51339 0.53498 0.98716 0.0
C497 C 0.45909 0.51576 0.08871 0.0
Tb498 Tb 0.57862 0.53693 0.08347 0.0
O499 O 0.4852 0.45027 0.99497 0.0
O500 O 0.56004 0.47945 0.01864 0.0
O501 O 0.45633 0.54261 0.04621 0.0
C502 C 0.63049 0.51543 0.16873 0.0
O503 O 0.50361 0.50236 0.10694 0.0
C504 C 0.56641 0.63378 0.05481 0.0
C505 C 0.63079 0.55372 0.97829 0.0
O506 O 0.59012 0.5415 0.16923 0.0
O507 O 0.64196 0.50183 0.1206 0.0
O508 O 0.60699 0.62183 0.08001 0.0
O509 O 0.53345 0.59352 0.05127 0.0
O510 O 0.6336 0.52856 0.02194 0.0
O511 O 0.58713 0.57009 0.96194 0.0
C512 C 0.47119 0.54396 0.89356 0.0
O513 O 0.50918 0.51651 0.90278 0.0
O514 O 0.4559 0.56694 0.93717 0.0
C515 C 0.52778 0.43892 0.01671 0.0
Tb516 Tb 0.85724 0.28406 0.29566 0.0
C517 C 0.76697 0.29087 0.37936 0.0
Tb518 Tb 0.74876 0.27443 0.25496 0.0
O519 O 0.87014 0.36463 0.26636 0.0
O520 O 0.79911 0.33695 0.29324 0.0
O521 O 0.81681 0.29208 0.37019 0.0
C522 C 0.66041 0.29184 0.21116 0.0
O523 O 0.73137 0.28575 0.33996 0.0
C524 C 0.78882 0.18211 0.24773 0.0
C525 C 0.8376 0.26448 0.17451 0.0
O526 O 0.66655 0.25519 0.24364 0.0
O527 O 0.70342 0.32075 0.20546 0.0
O528 O 0.75112 0.19294 0.21758 0.0
O529 O 0.79814 0.21995 0.2835 0.0
O530 O 0.79545 0.28829 0.18519 0.0
O531 O 0.86766 0.25159 0.21386 0.0
C532 C 0.93363 0.27619 0.36446 0.0
O533 O 0.93546 0.30919 0.32754 0.0
O534 O 0.89154 0.24476 0.35929 0.0
C535 C 0.82308 0.37525 0.27295 0.0
Tb536 Tb 0.95992 0.52688 0.52642 0.0
C537 C 0.02709 0.42941 0.54494 0.0
Tb538 Tb 0.08086 0.54608 0.54539 0.0
O539 O 0.96893 0.55002 0.44502 0.0
O540 O 0.02705 0.51392 0.48303 0.0
O541 O 0.9824 0.45017 0.55085 0.0
C542 C 0.17595 0.57936 0.51868 0.0
O543 O 0.07077 0.45857 0.53573 0.0
C544 C 0.02885 0.56058 0.63437 0.0
C545 C 1.01201 0.64345 0.53793 0.0
O546 O 0.165 0.54587 0.55459 0.0
O547 O 0.13365 0.59282 0.49797 0.0
O548 O 0.07897 0.56489 0.63418 0.0
O549 O 1.01451 0.54714 0.5873 0.0
O550 O 0.05633 0.62377 0.52755 0.0
O551 O 0.96882 0.61299 0.54515 0.0
C552 C 0.8613 0.49199 0.53533 0.0
O553 O 0.89056 0.47661 0.49768 0.0
O554 O 0.88715 0.5283 0.56757 0.0
C555 C 1.01518 0.53516 0.44142 0.0
Tb556 Tb 0.81193 0.79832 0.33118 0.0
C557 C 0.80888 0.8864 0.24979 0.0
Tb558 Tb 0.76982 0.76776 0.23773 0.0
O559 O 0.87942 0.75506 0.32121 0.0
O560 O 0.85078 0.79133 0.25651 0.0
O561 O 0.81122 0.87794 0.30056 0.0
C562 C 0.73835 0.71569 0.14638 0.0
O563 O 0.79975 0.84536 0.21433 0.0
C564 C 0.69621 0.8001 0.29981 0.0
C565 C 0.78663 0.6787 0.30942 0.0
O566 O 0.76004 0.76418 0.15237 0.0
O567 O 0.73403 0.69613 0.19169 0.0
O568 O 0.69934 0.80778 0.25023 0.0
O569 O 0.73251 0.77315 0.31293 0.0
O570 O 0.79373 0.69199 0.2609 0.0
O571 O 0.78043 0.71723 0.34643 0.0
C572 C 0.84145 0.84351 0.42638 0.0
O573 O 0.86157 0.80414 0.40228 0.0
O574 O 0.8034 0.85661 0.39813 0.0
C575 C 0.88546 0.76308 0.27206 0.0
Tb576 Tb 0.79295 0.35064 0.79345 0.0
C577 C 0.89222 0.28135 0.78991 0.0
Tb578 Tb 0.77665 0.23077 0.76589 0.0
O579 O 0.7597 0.34152 0.87157 0.0
O580 O 0.7999 0.28207 0.83473 0.0
O581 O 0.87341 0.32904 0.79132 0.0
C582 C 0.7357 0.13471 0.78585 0.0
O583 O 0.86133 0.23541 0.78134 0.0
C584 C 0.76343 0.28886 0.68354 0.0
C585 C 0.68064 0.29744 0.76791 0.0
O586 O 0.76961 0.14332 0.74946 0.0
O587 O 0.72803 0.17935 0.81207 0.0
O588 O 0.74707 0.23844 0.68353 0.0
O589 O 0.79344 0.29974 0.72387 0.0
O590 O 0.69894 0.25323 0.78171 0.0
O591 O 0.71168 0.34226 0.76608 0.0
C592 C 0.8317 0.45095 0.7887 0.0
O593 O 0.84004 0.42198 0.82743 0.0
O594 O 0.79915 0.42481 0.75423 0.0
C595 C 0.77527 0.29415 0.87526 0.0
Tb596 Tb 0.71779 0.75119 0.76779 0.0
C597 C 0.78408 0.76157 0.87901 0.0
Tb598 Tb 0.83185 0.8048 0.78185 0.0
O599 O 0.74284 0.68523 0.71387 0.0
O600 O 0.79226 0.72726 0.77146 0.0
O601 O 0.73935 0.75975 0.85234 0.0
C602 C 0.92854 0.81641 0.75444 0.0
O603 O 0.82918 0.77743 0.86002 0.0
C604 C 0.76103 0.87236 0.79346 0.0
C605 C 0.76768 0.80677 0.67881 0.0
O606 O 0.90913 0.78033 0.78411 0.0
O607 O 0.89485 0.84922 0.74535 0.0
O608 O 0.80924 0.88716 0.78664 0.0
O609 O 0.7577 0.82336 0.80049 0.0
O610 O 0.80859 0.78829 0.69922 0.0
O611 O 0.72273 0.80148 0.70162 0.0
C612 C 0.6279 0.72234 0.81111 0.0
O613 O 0.63612 0.7583 0.77691 0.0
O614 O 0.66762 0.69529 0.80936 0.0
C615 C 0.79005 0.69233 0.73323 0.0
Tb616 Tb 0.55289 0.59437 0.54462 0.0
C617 C 0.59082 0.52619 0.44257 0.0
Tb618 Tb 0.51318 0.47285 0.51971 0.0
O619 O 0.6041 0.57213 0.60994 0.0
O620 O 0.58148 0.51907 0.54579 0.0
O621 O 0.5867 0.57351 0.46876 0.0
C622 C 0.51633 0.38042 0.55891 0.0
O623 O 0.56795 0.4798 0.45625 0.0
C624 C 0.4465 0.53814 0.49052 0.0
C625 C 0.46943 0.54558 0.61504 0.0
O626 O 0.51256 0.38591 0.50786 0.0
O627 O 0.51869 0.42624 0.58624 0.0
O628 O 0.43554 0.4862 0.49062 0.0
O629 O 0.49471 0.54665 0.49864 0.0
O630 O 0.4773 0.4974 0.59354 0.0
O631 O 0.4931 0.59097 0.60136 0.0
C632 C 0.56845 0.69465 0.51923 0.0
O633 O 0.60226 0.66988 0.54385 0.0
O634 O 0.52562 0.6642 0.51203 0.0
C635 C 0.60545 0.52272 0.58979 0.0
Tb636 Tb 0.09063 0.53724 0.03637 0.0
C637 C 0.05368 0.495 0.14402 0.0
Tb638 Tb 0.98204 0.53307 0.05683 0.0
O639 O 0.0954 0.62469 0.04499 0.0
O640 O 0.04628 0.57992 0.09167 0.0
O641 O 0.08478 0.48777 0.10429 0.0
C642 C 0.8884 0.5616 0.06631 0.0
O643 O 1.01212 0.52062 0.13693 0.0
C644 C 1.00768 0.44305 0.01221 0.0
C645 C 1.02345 0.57013 0.94404 0.0
O646 O 0.90169 0.51469 0.07505 0.0
O647 O 0.92776 0.59277 0.05397 0.0
O648 O 0.97092 0.446 0.04526 0.0
O649 O 0.02515 0.48935 1.00264 0.0
O650 O 0.98615 0.56988 0.97908 0.0
O651 O 0.06854 0.5534 0.95606 0.0
C652 C 0.18834 0.51805 0.03315 0.0
O653 O 0.17135 0.55985 0.05679 0.0
O654 O 0.15039 0.48769 1.00929 0.0
C655 C 0.06105 0.62646 0.08093 0.0
loop_
_geom_bond_atom_site_label_1
_geom_bond_atom_site_label_2
_geom_bond_distance
_geom_bond_site_symmetry_2
_ccdc_geom_bond_type
O0 Cd1 2.223 1_655 S
O0 C8 1.315 1_655 S
Cd1 O0 2.223 1_455 S
Cd1 O4 2.297 . S
Cd1 O5 2.439 . S
Cd1 O11 2.240 1_455 S
Cd2 O3 2.240 1_655 S
Cd2 O10 2.223 . S
Cd2 O12 2.297 . S
Cd2 O13 2.439 1_655 S
O3 Cd2 2.240 1_455 S
O3 C8 1.279 . S
O4 Cd1 2.297 . S
O4 C6 1.247 . S
O5 Cd1 2.439 . S
O5 C6 1.208 . S
C6 O4 1.247 . S
C6 O5 1.208 . S
C7 O12 1.247 1_455 S
C7 O13 1.208 . S
C8 O0 1.315 1_455 S
C8 O3 1.279 . S
C9 O10 1.315 . S
C9 O11 1.279 . S
O10 Cd2 2.223 . S
O10 C9 1.315 . S
O11 Cd1 2.240 1_655 S
O11 C9 1.279 . S
O12 Cd2 2.297 . S
O12 C7 1.247 1_655 S
O13 Cd2 2.439 1_455 S
O13 C7 1.208 . S
O14 Cd15 2.223 . S
O14 C22 1.315 . S
Cd15 O14 2.223 . S
Cd15 O18 2.297 . S
Cd15 O19 2.439 . S
Cd15 O25 2.240 1_655 S
Cd16 O17 2.240 1_455 S
Cd16 O24 2.223 . S
Cd16 O26 2.297 . S
Cd16 O27 2.439 . S
O17 Cd16 2.240 1_655 S
O17 C22 1.279 . S
O18 Cd15 2.297 . S
O18 C20 1.247 . S
O19 Cd15 2.439 . S
O19 C20 1.208 . S
C20 O18 1.247 . S
C20 O19 1.208 . S
C21 O26 1.247 . S
C21 O27 1.208 . S
C22 O14 1.315 . S
C22 O17 1.279 . S
C23 O24 1.315 . S
C23 O25 1.279 . S
O24 Cd16 2.223 . S
O24 C23 1.315 . S
O25 Cd15 2.240 1_455 S
O25 C23 1.279 . S
O26 Cd16 2.297 . S
O26 C21 1.247 . S
O27 Cd16 2.439 . S
O27 C21 1.208 . S
O28 Cd29 2.223 . S
O28 C36 1.315 . S
Cd29 O28 2.223 . S
Cd29 O32 2.297 . S
Cd29 O33 2.439 . S
Cd29 O39 2.240 . S
Cd30 O31 2.240 . S
Cd30 O38 2.223 . S
Cd30 O40 2.297 . S
Cd30 O41 2.439 . S
O31 Cd30 2.240 . S
O31 C36 1.279 . S
O32 Cd29 2.297 . S
O32 C34 1.247 . S
O33 Cd29 2.439 . S
O33 C34 1.208 . S
C34 O32 1.247 . S
C34 O33 1.208 . S
C35 O40 1.247 . S
C35 O41 1.208 . S
C36 O28 1.315 . S
C36 O31 1.279 . S
C37 O38 1.315 . S
C37 O39 1.279 . S
O38 Cd30 2.223 . S
O38 C37 1.315 . S
O39 Cd29 2.240 . S
O39 C37 1.279 . S
O40 Cd30 2.297 . S
O40 C35 1.247 . S
O41 Cd30 2.439 . S
O41 C35 1.208 . S
O42 Cd43 2.223 . S
O42 C50 1.315 . S
Cd43 O42 2.223 . S
Cd43 O46 2.297 . S
Cd43 O47 2.439 . S
Cd43 O53 2.240 . S
Cd44 O45 2.240 . S
Cd44 O52 2.223 . S
Cd44 O54 2.297 . S
Cd44 O55 2.439 . S
O45 Cd44 2.240 . S
O45 C50 1.279 . S
O46 Cd43 2.297 . S
O46 C48 1.247 . S
O47 Cd43 2.439 . S
O47 C48 1.208 . S
C48 O46 1.247 . S
C48 O47 1.208 . S
C49 O54 1.247 . S
C49 O55 1.208 . S
C50 O42 1.315 . S
C50 O45 1.279 . S
C51 O52 1.315 . S
C51 O53 1.279 . S
O52 Cd44 2.223 . S
O52 C51 1.315 . S
O53 Cd43 2.240 . S
O53 C51 1.279 . S
O54 Cd44 2.297 . S
O54 C49 1.247 . S
O55 Cd44 2.439 . S
O55 C49 1.208 . S
O56 Cd57 2.223 . S
O56 C64 1.315 . S
Cd57 O56 2.223 . S
Cd57 O60 2.297 1_455 S
Cd57 O61 2.439 1_455 S
Cd57 O67 2.240 . S
Cd58 O59 2.240 1_455 S
Cd58 O66 2.223 . S
Cd58 O68 2.297 . S
Cd58 O69 2.439 . S
O59 Cd58 2.240 1_655 S
O59 C64 1.279 1_655 S
O60 Cd57 2.297 1_655 S
O60 C62 1.247 . S
O61 Cd57 2.439 1_655 S
O61 C62 1.208 . S
C62 O60 1.247 . S
C62 O61 1.208 . S
C63 O68 1.247 . S
C63 O69 1.208 . S
C64 O56 1.315 . S
C64 O59 1.279 1_455 S
C65 O66 1.315 . S
C65 O67 1.279 . S
O66 Cd58 2.223 . S
O66 C65 1.315 . S
O67 Cd57 2.240 . S
O67 C65 1.279 . S
O68 Cd58 2.297 . S
O68 C63 1.247 . S
O69 Cd58 2.439 . S
O69 C63 1.208 . S
O70 Cd71 2.223 . S
O70 C78 1.315 . S
Cd71 O70 2.223 . S
Cd71 O74 2.297 . S
Cd71 O75 2.439 . S
Cd71 O81 2.240 . S
Cd72 O73 2.240 . S
Cd72 O80 2.223 . S
Cd72 O82 2.297 . S
Cd72 O83 2.439 . S
O73 Cd72 2.240 . S
O73 C78 1.279 . S
O74 Cd71 2.297 . S
O74 C76 1.247 . S
O75 Cd71 2.439 . S
O75 C76 1.208 . S
C76 O74 1.247 . S
C76 O75 1.208 . S
C77 O82 1.247 . S
C77 O83 1.208 . S
C78 O70 1.315 . S
C78 O73 1.279 . S
C79 O80 1.315 . S
C79 O81 1.279 . S
O80 Cd72 2.223 . S
O80 C79 1.315 . S
O81 Cd71 2.240 . S
O81 C79 1.279 . S
O82 Cd72 2.297 . S
O82 C77 1.247 . S
O83 Cd72 2.439 . S
O83 C77 1.208 . S
O84 Cd85 2.223 . S
O84 C92 1.315 . S
Cd85 O84 2.223 . S
Cd85 O88 2.297 . S
Cd85 O89 2.439 . S
Cd85 O95 2.240 . S
Cd86 O87 2.240 . S
Cd86 O94 2.223 . S
Cd86 O96 2.297 . S
Cd86 O97 2.439 . S
O87 Cd86 2.240 . S
O87 C92 1.279 . S
O88 Cd85 2.297 . S
O88 C90 1.247 . S
O89 Cd85 2.439 . S
O89 C90 1.208 . S
C90 O88 1.247 . S
C90 O89 1.208 . S
C91 O96 1.247 . S
C91 O97 1.208 . S
C92 O84 1.315 . S
C92 O87 1.279 . S
C93 O94 1.315 . S
C93 O95 1.279 . S
O94 Cd86 2.223 . S
O94 C93 1.315 . S
O95 Cd85 2.240 . S
O95 C93 1.279 . S
O96 Cd86 2.297 . S
O96 C91 1.247 . S
O97 Cd86 2.439 . S
O97 C91 1.208 . S
O98 Cd99 2.223 1_655 S
O98 C106 1.315 . S
Cd99 O98 2.223 1_455 S
Cd99 O102 2.297 . S
Cd99 O103 2.439 . S
Cd99 O109 2.240 1_455 S
Cd100 O101 2.240 1_655 S
Cd100 O108 2.223 . S
Cd100 O110 2.297 . S
Cd100 O111 2.439 1_655 S
O101 Cd100 2.240 1_455 S
O101 C106 1.279 1_455 S
O102 Cd99 2.297 . S
O102 C104 1.247 . S
O103 Cd99 2.439 . S
O103 C104 1.208 . S
C104 O102 1.247 . S
C104 O103 1.208 . S
C105 O110 1.247 1_455 S
C105 O111 1.208 . S
C106 O98 1.315 . S
C106 O101 1.279 1_655 S
C107 O108 1.315 . S
C107 O109 1.279 . S
O108 Cd100 2.223 . S
O108 C107 1.315 . S
O109 Cd99 2.240 1_655 S
O109 C107 1.279 . S
O110 Cd100 2.297 . S
O110 C105 1.247 1_655 S
O111 Cd100 2.439 1_455 S
O111 C105 1.208 . S
O112 Cd113 2.223 . S
O112 C120 1.315 . S
Cd113 O112 2.223 . S
Cd113 O116 2.297 . S
Cd113 O117 2.439 . S
Cd113 O123 2.240 . S
Cd114 O115 2.240 . S
Cd114 O122 2.223 1_545 S
Cd114 O124 2.297 . S
Cd114 O125 2.439 . S
O115 Cd114 2.240 . S
O115 C120 1.279 . S
O116 Cd113 2.297 . S
O116 C118 1.247 . S
O117 Cd113 2.439 . S
O117 C118 1.208 . S
C118 O116 1.247 . S
C118 O117 1.208 . S
C119 O124 1.247 . S
C119 O125 1.208 . S
C120 O112 1.315 . S
C120 O115 1.279 . S
C121 O122 1.315 . S
C121 O123 1.279 1_565 S
O122 Cd114 2.223 1_565 S
O122 C121 1.315 . S
O123 Cd113 2.240 . S
O123 C121 1.279 1_545 S
O124 Cd114 2.297 . S
O124 C119 1.247 . S
O125 Cd114 2.439 . S
O125 C119 1.208 . S
O126 Cd127 2.223 . S
O126 C134 1.315 . S
Cd127 O126 2.223 . S
Cd127 O130 2.297 . S
Cd127 O131 2.439 . S
Cd127 O137 2.240 . S
Cd128 O129 2.240 . S
Cd128 O136 2.223 . S
Cd128 O138 2.297 . S
Cd128 O139 2.439 . S
O129 Cd128 2.240 . S
O129 C134 1.279 . S
O130 Cd127 2.297 . S
O130 C132 1.247 . S
O131 Cd127 2.439 . S
O131 C132 1.208 . S
C132 O130 1.247 . S
C132 O131 1.208 . S
C133 O138 1.247 . S
C133 O139 1.208 . S
C134 O126 1.315 . S
C134 O129 1.279 . S
C135 O136 1.315 . S
C135 O137 1.279 . S
O136 Cd128 2.223 . S
O136 C135 1.315 . S
O137 Cd127 2.240 . S
O137 C135 1.279 . S
O138 Cd128 2.297 . S
O138 C133 1.247 . S
O139 Cd128 2.439 . S
O139 C133 1.208 . S
O140 Cd141 2.223 1_545 S
O140 C148 1.315 1_545 S
Cd141 O140 2.223 1_565 S
Cd141 O144 2.297 . S
Cd141 O145 2.439 . S
Cd141 O151 2.240 1_565 S
Cd142 O143 2.240 1_545 S
Cd142 O150 2.223 . S
Cd142 O152 2.297 . S
Cd142 O153 2.439 1_545 S
O143 Cd142 2.240 1_565 S
O143 C148 1.279 . S
O144 Cd141 2.297 . S
O144 C146 1.247 . S
O145 Cd141 2.439 . S
O145 C146 1.208 . S
C146 O144 1.247 . S
C146 O145 1.208 . S
C147 O152 1.247 . S
C147 O153 1.208 1_545 S
C148 O140 1.315 1_565 S
C148 O143 1.279 . S
C149 O150 1.315 . S
C149 O151 1.279 . S
O150 Cd142 2.223 . S
O150 C149 1.315 . S
O151 Cd141 2.240 1_545 S
O151 C149 1.279 . S
O152 Cd142 2.297 . S
O152 C147 1.247 . S
O153 Cd142 2.439 1_565 S
O153 C147 1.208 1_565 S
O154 Cd155 2.223 . S
O154 C162 1.315 . S
Cd155 O154 2.223 . S
Cd155 O158 2.297 . S
Cd155 O159 2.439 . S
Cd155 O165 2.240 . S
Cd156 O157 2.240 . S
Cd156 O164 2.223 . S
Cd156 O166 2.297 1_554 S
Cd156 O167 2.439 1_554 S
O157 Cd156 2.240 . S
O157 C162 1.279 . S
O158 Cd155 2.297 . S
O158 C160 1.247 . S
O159 Cd155 2.439 . S
O159 C160 1.208 . S
C160 O158 1.247 . S
C160 O159 1.208 . S
C161 O166 1.247 . S
C161 O167 1.208 . S
C162 O154 1.315 . S
C162 O157 1.279 . S
C163 O164 1.315 . S
C163 O165 1.279 . S
O164 Cd156 2.223 . S
O164 C163 1.315 . S
O165 Cd155 2.240 . S
O165 C163 1.279 . S
O166 Cd156 2.297 1_556 S
O166 C161 1.247 . S
O167 Cd156 2.439 1_556 S
O167 C161 1.208 . S
O168 Cd169 2.223 . S
O168 C176 1.315 . S
Cd169 O168 2.223 . S
Cd169 O172 2.297 . S
Cd169 O173 2.439 . S
Cd169 O179 2.240 . S
Cd170 O171 2.240 . S
Cd170 O178 2.223 . S
Cd170 O180 2.297 1_554 S
Cd170 O181 2.439 1_554 S
O171 Cd170 2.240 . S
O171 C176 1.279 . S
O172 Cd169 2.297 . S
O172 C174 1.247 . S
O173 Cd169 2.439 . S
O173 C174 1.208 . S
C174 O172 1.247 . S
C174 O173 1.208 . S
C175 O180 1.247 . S
C175 O181 1.208 . S
C176 O168 1.315 . S
C176 O171 1.279 . S
C177 O178 1.315 . S
C177 O179 1.279 . S
O178 Cd170 2.223 . S
O178 C177 1.315 . S
O179 Cd169 2.240 . S
O179 C177 1.279 . S
O180 Cd170 2.297 1_556 S
O180 C175 1.247 . S
O181 Cd170 2.439 1_556 S
O181 C175 1.208 . S
O182 Cd183 2.223 . S
O182 C190 1.315 . S
Cd183 O182 2.223 . S
Cd183 O186 2.297 . S
Cd183 O187 2.439 . S
Cd183 O193 2.240 1_554 S
Cd184 O185 2.240 1_556 S
Cd184 O192 2.223 1_556 S
Cd184 O194 2.297 . S
Cd184 O195 2.439 . S
O185 Cd184 2.240 1_554 S
O185 C190 1.279 . S
O186 Cd183 2.297 . S
O186 C188 1.247 . S
O187 Cd183 2.439 . S
O187 C188 1.208 . S
C188 O186 1.247 . S
C188 O187 1.208 . S
C189 O194 1.247 . S
C189 O195 1.208 . S
C190 O182 1.315 . S
C190 O185 1.279 . S
C191 O192 1.315 . S
C191 O193 1.279 1_554 S
O192 Cd184 2.223 1_554 S
O192 C191 1.315 . S
O193 Cd183 2.240 1_556 S
O193 C191 1.279 1_556 S
O194 Cd184 2.297 . S
O194 C189 1.247 . S
O195 Cd184 2.439 . S
O195 C189 1.208 . S
O196 Cd197 2.223 . S
O196 C204 1.315 . S
Cd197 O196 2.223 . S
Cd197 O200 2.297 . S
Cd197 O201 2.439 . S
Cd197 O207 2.240 . S
Cd198 O199 2.240 . S
Cd198 O206 2.223 . S
Cd198 O208 2.297 . S
Cd198 O209 2.439 . S
O199 Cd198 2.240 . S
O199 C204 1.279 . S
O200 Cd197 2.297 . S
O200 C202 1.247 . S
O201 Cd197 2.439 . S
O201 C202 1.208 . S
C202 O200 1.247 . S
C202 O201 1.208 . S
C203 O208 1.247 . S
C203 O209 1.208 . S
C204 O196 1.315 . S
C204 O199 1.279 . S
C205 O206 1.315 . S
C205 O207 1.279 . S
O206 Cd198 2.223 . S
O206 C205 1.315 . S
O207 Cd197 2.240 . S
O207 C205 1.279 . S
O208 Cd198 2.297 . S
O208 C203 1.247 . S
O209 Cd198 2.439 . S
O209 C203 1.208 . S
O210 Cd211 2.223 . S
O210 C218 1.315 . S
Cd211 O210 2.223 . S
Cd211 O214 2.297 . S
Cd211 O215 2.439 . S
Cd211 O221 2.240 . S
Cd212 O213 2.240 . S
Cd212 O220 2.223 . S
Cd212 O222 2.297 . S
Cd212 O223 2.439 . S
O213 Cd212 2.240 . S
O213 C218 1.279 . S
O214 Cd211 2.297 . S
O214 C216 1.247 . S
O215 Cd211 2.439 . S
O215 C216 1.208 . S
C216 O214 1.247 . S
C216 O215 1.208 . S
C217 O222 1.247 . S
C217 O223 1.208 . S
C218 O210 1.315 . S
C218 O213 1.279 . S
C219 O220 1.315 . S
C219 O221 1.279 . S
O220 Cd212 2.223 . S
O220 C219 1.315 . S
O221 Cd211 2.240 . S
O221 C219 1.279 . S
O222 Cd212 2.297 . S
O222 C217 1.247 . S
O223 Cd212 2.439 . S
O223 C217 1.208 . S
O224 Cd225 2.223 . S
O224 C232 1.315 . S
Cd225 O224 2.223 . S
Cd225 O228 2.297 . S
Cd225 O229 2.439 . S
Cd225 O235 2.240 1_545 S
Cd226 O227 2.240 . S
Cd226 O234 2.223 1_545 S
Cd226 O236 2.297 . S
Cd226 O237 2.439 . S
O227 Cd226 2.240 . S
O227 C232 1.279 . S
O228 Cd225 2.297 . S
O228 C230 1.247 . S
O229 Cd225 2.439 . S
O229 C230 1.208 . S
C230 O228 1.247 . S
C230 O229 1.208 . S
C231 O236 1.247 . S
C231 O237 1.208 . S
C232 O224 1.315 . S
C232 O227 1.279 . S
C233 O234 1.315 . S
C233 O235 1.279 . S
O234 Cd226 2.223 1_565 S
O234 C233 1.315 . S
O235 Cd225 2.240 1_565 S
O235 C233 1.279 . S
O236 Cd226 2.297 . S
O236 C231 1.247 . S
O237 Cd226 2.439 . S
O237 C231 1.208 . S
O238 Cd239 2.223 . S
O238 C246 1.315 . S
Cd239 O238 2.223 . S
Cd239 O242 2.297 . S
Cd239 O243 2.439 . S
Cd239 O249 2.240 . S
Cd240 O241 2.240 . S
Cd240 O248 2.223 . S
Cd240 O250 2.297 . S
Cd240 O251 2.439 . S
O241 Cd240 2.240 . S
O241 C246 1.279 . S
O242 Cd239 2.297 . S
O242 C244 1.247 . S
O243 Cd239 2.439 . S
O243 C244 1.208 . S
C244 O242 1.247 . S
C244 O243 1.208 . S
C245 O250 1.247 . S
C245 O251 1.208 . S
C246 O238 1.315 . S
C246 O241 1.279 . S
C247 O248 1.315 . S
C247 O249 1.279 . S
O248 Cd240 2.223 . S
O248 C247 1.315 . S
O249 Cd239 2.240 . S
O249 C247 1.279 . S
O250 Cd240 2.297 . S
O250 C245 1.247 . S
O251 Cd240 2.439 . S
O251 C245 1.208 . S
O252 Cd253 2.223 . S
O252 C260 1.315 . S
Cd253 O252 2.223 . S
Cd253 O256 2.297 . S
Cd253 O257 2.439 . S
Cd253 O263 2.240 . S
Cd254 O255 2.240 . S
Cd254 O262 2.223 . S
Cd254 O264 2.297 . S
Cd254 O265 2.439 . S
O255 Cd254 2.240 . S
O255 C260 1.279 . S
O256 Cd253 2.297 . S
O256 C258 1.247 . S
O257 Cd253 2.439 . S
O257 C258 1.208 . S
C258 O256 1.247 . S
C258 O257 1.208 . S
C259 O264 1.247 . S
C259 O265 1.208 . S
C260 O252 1.315 . S
C260 O255 1.279 . S
C261 O262 1.315 . S
C261 O263 1.279 . S
O262 Cd254 2.223 . S
O262 C261 1.315 . S
O263 Cd253 2.240 . S
O263 C261 1.279 . S
O264 Cd254 2.297 . S
O264 C259 1.247 . S
O265 Cd254 2.439 . S
O265 C259 1.208 . S
O266 Cd267 2.223 1_545 S
O266 C274 1.315 1_545 S
Cd267 O266 2.223 1_565 S
Cd267 O270 2.297 . S
Cd267 O271 2.439 . S
Cd267 O277 2.240 1_565 S
Cd268 O269 2.240 1_545 S
Cd268 O276 2.223 . S
Cd268 O278 2.297 . S
Cd268 O279 2.439 1_545 S
O269 Cd268 2.240 1_565 S
O269 C274 1.279 . S
O270 Cd267 2.297 . S
O270 C272 1.247 . S
O271 Cd267 2.439 . S
O271 C272 1.208 . S
C272 O270 1.247 . S
C272 O271 1.208 . S
C273 O278 1.247 . S
C273 O279 1.208 1_545 S
C274 O266 1.315 1_565 S
C274 O269 1.279 . S
C275 O276 1.315 . S
C275 O277 1.279 . S
O276 Cd268 2.223 . S
O276 C275 1.315 . S
O277 Cd267 2.240 1_545 S
O277 C275 1.279 . S
O278 Cd268 2.297 . S
O278 C273 1.247 . S
O279 Cd268 2.439 1_565 S
O279 C273 1.208 1_565 S
O280 Cd281 2.223 . S
O280 C288 1.315 . S
Cd281 O280 2.223 . S
Cd281 O284 2.297 . S
Cd281 O285 2.439 1_554 S
Cd281 O291 2.240 1_554 S
Cd282 O283 2.240 1_556 S
Cd282 O290 2.223 1_556 S
Cd282 O292 2.297 . S
Cd282 O293 2.439 . S
O283 Cd282 2.240 1_554 S
O283 C288 1.279 . S
O284 Cd281 2.297 . S
O284 C286 1.247 . S
O285 Cd281 2.439 1_556 S
O285 C286 1.208 1_556 S
C286 O284 1.247 . S
C286 O285 1.208 1_554 S
C287 O292 1.247 . S
C287 O293 1.208 . S
C288 O280 1.315 . S
C288 O283 1.279 . S
C289 O290 1.315 1_556 S
C289 O291 1.279 . S
O290 Cd282 2.223 1_554 S
O290 C289 1.315 1_554 S
O291 Cd281 2.240 1_556 S
O291 C289 1.279 . S
O292 Cd282 2.297 . S
O292 C287 1.247 . S
O293 Cd282 2.439 . S
O293 C287 1.208 . S
O294 Cd295 2.223 . S
O294 C302 1.315 . S
Cd295 O294 2.223 . S
Cd295 O298 2.297 . S
Cd295 O299 2.439 . S
Cd295 O305 2.240 . S
Cd296 O297 2.240 . S
Cd296 O304 2.223 . S
Cd296 O306 2.297 . S
Cd296 O307 2.439 . S
O297 Cd296 2.240 . S
O297 C302 1.279 . S
O298 Cd295 2.297 . S
O298 C300 1.247 . S
O299 Cd295 2.439 . S
O299 C300 1.208 . S
C300 O298 1.247 . S
C300 O299 1.208 . S
C301 O306 1.247 . S
C301 O307 1.208 . S
C302 O294 1.315 . S
C302 O297 1.279 . S
C303 O304 1.315 . S
C303 O305 1.279 . S
O304 Cd296 2.223 . S
O304 C303 1.315 . S
O305 Cd295 2.240 . S
O305 C303 1.279 . S
O306 Cd296 2.297 . S
O306 C301 1.247 . S
O307 Cd296 2.439 . S
O307 C301 1.208 . S
O308 Cd309 2.223 . S
O308 C316 1.315 . S
Cd309 O308 2.223 . S
Cd309 O312 2.297 . S
Cd309 O313 2.439 . S
Cd309 O319 2.240 . S
Cd310 O311 2.240 . S
Cd310 O318 2.223 . S
Cd310 O320 2.297 . S
Cd310 O321 2.439 . S
O311 Cd310 2.240 . S
O311 C316 1.279 . S
O312 Cd309 2.297 . S
O312 C314 1.247 . S
O313 Cd309 2.439 . S
O313 C314 1.208 . S
C314 O312 1.247 . S
C314 O313 1.208 . S
C315 O320 1.247 . S
C315 O321 1.208 . S
C316 O308 1.315 . S
C316 O311 1.279 . S
C317 O318 1.315 . S
C317 O319 1.279 . S
O318 Cd310 2.223 . S
O318 C317 1.315 . S
O319 Cd309 2.240 . S
O319 C317 1.279 . S
O320 Cd310 2.297 . S
O320 C315 1.247 . S
O321 Cd310 2.439 . S
O321 C315 1.208 . S
O322 Cd323 2.223 . S
O322 C330 1.315 . S
Cd323 O322 2.223 . S
Cd323 O326 2.297 . S
Cd323 O327 2.439 . S
Cd323 O333 2.240 . S
Cd324 O325 2.240 . S
Cd324 O332 2.223 . S
Cd324 O334 2.297 . S
Cd324 O335 2.439 . S
O325 Cd324 2.240 . S
O325 C330 1.279 . S
O326 Cd323 2.297 . S
O326 C328 1.247 . S
O327 Cd323 2.439 . S
O327 C328 1.208 . S
C328 O326 1.247 . S
C328 O327 1.208 . S
C329 O334 1.247 . S
C329 O335 1.208 . S
C330 O322 1.315 . S
C330 O325 1.279 . S
C331 O332 1.315 . S
C331 O333 1.279 . S
O332 Cd324 2.223 . S
O332 C331 1.315 . S
O333 Cd323 2.240 . S
O333 C331 1.279 . S
O334 Cd324 2.297 . S
O334 C329 1.247 . S
O335 Cd324 2.439 . S
O335 C329 1.208 . S
Tb336 O339 2.453 . S
Tb336 O340 2.596 . S
Tb336 O341 2.374 1_554 S
Tb336 O349 2.343 1_455 S
Tb336 O351 2.353 . S
Tb336 O353 2.427 . S
Tb336 O354 2.513 1_554 S
C337 O341 1.251 . S
C337 O343 1.263 1_545 S
Tb338 O340 2.343 1_665 S
Tb338 O343 2.353 1_654 S
Tb338 O346 2.427 . S
Tb338 O347 2.513 . S
Tb338 O348 2.453 1_564 S
Tb338 O349 2.596 1_565 S
Tb338 O350 2.374 1_565 S
O339 Tb336 2.453 . S
O339 C355 1.245 . S
O340 Tb336 2.596 . S
O340 Tb338 2.343 1_445 S
O340 C355 1.259 . S
O341 Tb336 2.374 1_556 S
O341 C337 1.251 . S
C342 O346 1.275 1_455 S
C342 O347 1.242 1_455 S
O343 C337 1.263 1_565 S
O343 Tb338 2.353 1_456 S
C344 O348 1.245 . S
C344 O349 1.259 1_556 S
C345 O350 1.250 . S
C345 O351 1.263 1_655 S
O346 Tb338 2.427 . S
O346 C342 1.275 1_655 S
O347 Tb338 2.513 . S
O347 C342 1.242 1_655 S
O348 Tb338 2.453 1_546 S
O348 C344 1.245 . S
O349 Tb336 2.343 1_655 S
O349 Tb338 2.596 1_545 S
O349 C344 1.259 1_554 S
O350 Tb338 2.374 1_545 S
O350 C345 1.250 . S
O351 Tb336 2.353 . S
O351 C345 1.263 1_455 S
C352 O353 1.275 1_556 S
C352 O354 1.246 . S
O353 Tb336 2.427 . S
O353 C352 1.275 1_554 S
O354 Tb336 2.513 1_556 S
O354 C352 1.246 . S
C355 O339 1.245 . S
C355 O340 1.259 . S
Tb356 O359 2.453 . S
Tb356 O360 2.596 . S
Tb356 O361 2.374 . S
Tb356 O369 2.343 . S
Tb356 O371 2.353 . S
Tb356 O373 2.427 . S
Tb356 O374 2.513 . S
C357 O361 1.251 . S
C357 O363 1.263 . S
Tb358 O360 2.343 . S
Tb358 O363 2.353 . S
Tb358 O366 2.427 . S
Tb358 O367 2.513 . S
Tb358 O368 2.453 . S
Tb358 O369 2.596 . S
Tb358 O370 2.374 . S
O359 Tb356 2.453 . S
O359 C375 1.245 . S
O360 Tb356 2.596 . S
O360 Tb358 2.343 . S
O360 C375 1.259 . S
O361 Tb356 2.374 . S
O361 C357 1.251 . S
C362 O366 1.275 . S
C362 O367 1.246 . S
O363 C357 1.263 . S
O363 Tb358 2.353 . S
C364 O368 1.245 . S
C364 O369 1.259 . S
C365 O370 1.250 . S
C365 O371 1.263 . S
O366 Tb358 2.427 . S
O366 C362 1.275 . S
O367 Tb358 2.513 . S
O367 C362 1.246 . S
O368 Tb358 2.453 . S
O368 C364 1.245 . S
O369 Tb356 2.343 . S
O369 Tb358 2.596 . S
O369 C364 1.259 . S
O370 Tb358 2.374 . S
O370 C365 1.250 . S
O371 Tb356 2.353 . S
O371 C365 1.263 . S
C372 O373 1.275 . S
C372 O374 1.246 . S
O373 Tb356 2.427 . S
O373 C372 1.275 . S
O374 Tb356 2.513 . S
O374 C372 1.246 . S
C375 O359 1.245 . S
C375 O360 1.259 . S
Tb376 O379 2.453 . S
Tb376 O380 2.596 . S
Tb376 O381 2.374 . S
Tb376 O389 2.343 1_545 S
Tb376 O391 2.353 . S
Tb376 O393 2.427 . S
Tb376 O394 2.513 1_545 S
C377 O381 1.251 . S
C377 O383 1.263 1_545 S
Tb378 O380 2.343 . S
Tb378 O383 2.353 1_545 S
Tb378 O386 2.427 . S
Tb378 O387 2.513 . S
Tb378 O388 2.453 1_545 S
Tb378 O389 2.596 1_545 S
Tb378 O390 2.374 . S
O379 Tb376 2.453 . S
O379 C395 1.245 . S
O380 Tb376 2.596 . S
O380 Tb378 2.343 . S
O380 C395 1.259 . S
O381 Tb376 2.374 . S
O381 C377 1.251 . S
C382 O386 1.275 . S
C382 O387 1.246 . S
O383 C377 1.263 1_565 S
O383 Tb378 2.353 1_565 S
C384 O388 1.245 . S
C384 O389 1.259 . S
C385 O390 1.250 . S
C385 O391 1.263 . S
O386 Tb378 2.427 . S
O386 C382 1.275 . S
O387 Tb378 2.513 . S
O387 C382 1.246 . S
O388 Tb378 2.453 1_565 S
O388 C384 1.245 . S
O389 Tb376 2.343 1_565 S
O389 Tb378 2.596 1_565 S
O389 C384 1.259 . S
O390 Tb378 2.374 . S
O390 C385 1.250 . S
O391 Tb376 2.353 . S
O391 C385 1.263 . S
C392 O393 1.275 1_565 S
C392 O394 1.246 . S
O393 Tb376 2.427 . S
O393 C392 1.275 1_545 S
O394 Tb376 2.513 1_565 S
O394 C392 1.246 . S
C395 O379 1.245 . S
C395 O380 1.259 . S
Tb396 O399 2.453 . S
Tb396 O400 2.596 . S
Tb396 O401 2.374 . S
Tb396 O409 2.343 . S
Tb396 O411 2.353 . S
Tb396 O413 2.427 . S
Tb396 O414 2.513 . S
C397 O401 1.251 . S
C397 O403 1.263 . S
Tb398 O400 2.343 . S
Tb398 O403 2.353 . S
Tb398 O406 2.427 . S
Tb398 O407 2.513 . S
Tb398 O408 2.453 . S
Tb398 O409 2.596 . S
Tb398 O410 2.374 . S
O399 Tb396 2.453 . S
O399 C415 1.245 . S
O400 Tb396 2.596 . S
O400 Tb398 2.343 . S
O400 C415 1.259 . S
O401 Tb396 2.374 . S
O401 C397 1.251 . S
C402 O406 1.275 . S
C402 O407 1.246 . S
O403 C397 1.263 . S
O403 Tb398 2.353 . S
C404 O408 1.245 . S
C404 O409 1.259 . S
C405 O410 1.250 . S
C405 O411 1.263 . S
O406 Tb398 2.427 . S
O406 C402 1.275 . S
O407 Tb398 2.513 . S
O407 C402 1.246 . S
O408 Tb398 2.453 . S
O408 C404 1.245 . S
O409 Tb396 2.343 . S
O409 Tb398 2.596 . S
O409 C404 1.259 . S
O410 Tb398 2.374 . S
O410 C405 1.250 . S
O411 Tb396 2.353 . S
O411 C405 1.263 . S
C412 O413 1.275 . S
C412 O414 1.246 . S
O413 Tb396 2.427 . S
O413 C412 1.275 . S
O414 Tb396 2.513 . S
O414 C412 1.246 . S
C415 O399 1.245 . S
C415 O400 1.259 . S
Tb416 O419 2.453 . S
Tb416 O420 2.596 . S
Tb416 O421 2.374 1_455 S
Tb416 O429 2.343 1_565 S
Tb416 O431 2.353 1_565 S
Tb416 O433 2.427 1_565 S
Tb416 O434 2.513 1_465 S
C417 O421 1.251 . S
C417 O423 1.263 1_565 S
Tb418 O420 2.343 1_545 S
Tb418 O423 2.353 1_455 S
Tb418 O426 2.427 . S
Tb418 O427 2.513 . S
Tb418 O428 2.453 . S
Tb418 O429 2.596 . S
Tb418 O430 2.374 . S
O419 Tb416 2.453 . S
O419 C435 1.245 . S
O420 Tb416 2.596 . S
O420 Tb418 2.343 1_565 S
O420 C435 1.259 . S
O421 Tb416 2.374 1_655 S
O421 C417 1.251 . S
C422 O426 1.275 . S
C422 O427 1.246 . S
O423 C417 1.263 1_545 S
O423 Tb418 2.353 1_655 S
C424 O428 1.245 . S
C424 O429 1.259 . S
C425 O430 1.250 . S
C425 O431 1.263 . S
O426 Tb418 2.427 . S
O426 C422 1.275 . S
O427 Tb418 2.513 . S
O427 C422 1.246 . S
O428 Tb418 2.453 . S
O428 C424 1.245 . S
O429 Tb416 2.343 1_545 S
O429 Tb418 2.596 . S
O429 C424 1.259 . S
O430 Tb418 2.374 . S
O430 C425 1.250 . S
O431 Tb416 2.353 1_545 S
O431 C425 1.263 . S
C432 O433 1.275 1_655 S
C432 O434 1.246 . S
O433 Tb416 2.427 1_545 S
O433 C432 1.275 1_455 S
O434 Tb416 2.513 1_645 S
O434 C432 1.246 . S
C435 O419 1.245 . S
C435 O420 1.259 . S
Tb436 O439 2.453 . S
Tb436 O440 2.596 . S
Tb436 O441 2.374 . S
Tb436 O449 2.343 . S
Tb436 O451 2.353 . S
Tb436 O453 2.427 . S
Tb436 O454 2.513 . S
C437 O441 1.251 . S
C437 O443 1.263 . S
Tb438 O440 2.343 . S
Tb438 O443 2.353 . S
Tb438 O446 2.427 . S
Tb438 O447 2.513 . S
Tb438 O448 2.453 . S
Tb438 O449 2.596 . S
Tb438 O450 2.374 . S
O439 Tb436 2.453 . S
O439 C455 1.245 . S
O440 Tb436 2.596 . S
O440 Tb438 2.343 . S
O440 C455 1.259 . S
O441 Tb436 2.374 . S
O441 C437 1.251 . S
C442 O446 1.275 . S
C442 O447 1.246 . S
O443 C437 1.263 . S
O443 Tb438 2.353 . S
C444 O448 1.245 . S
C444 O449 1.259 . S
C445 O450 1.250 . S
C445 O451 1.263 . S
O446 Tb438 2.427 . S
O446 C442 1.275 . S
O447 Tb438 2.513 . S
O447 C442 1.246 . S
O448 Tb438 2.453 . S
O448 C444 1.245 . S
O449 Tb436 2.343 . S
O449 Tb438 2.596 . S
O449 C444 1.259 . S
O450 Tb438 2.374 . S
O450 C445 1.250 . S
O451 Tb436 2.353 . S
O451 C445 1.263 . S
C452 O453 1.275 . S
C452 O454 1.246 . S
O453 Tb436 2.427 . S
O453 C452 1.275 . S
O454 Tb436 2.513 . S
O454 C452 1.246 . S
C455 O439 1.245 . S
C455 O440 1.259 . S
Tb456 O459 2.453 . S
Tb456 O460 2.596 . S
Tb456 O461 2.374 1_545 S
Tb456 O469 2.343 1_556 S
Tb456 O471 2.353 1_556 S
Tb456 O473 2.427 1_556 S
Tb456 O474 2.513 1_546 S
C457 O461 1.251 1_554 S
C457 O463 1.263 . S
Tb458 O460 2.343 1_554 S
Tb458 O463 2.353 1_545 S
Tb458 O466 2.427 . S
Tb458 O467 2.513 . S
Tb458 O468 2.453 . S
Tb458 O469 2.596 . S
Tb458 O470 2.374 . S
O459 Tb456 2.453 . S
O459 C475 1.245 . S
O460 Tb456 2.596 . S
O460 Tb458 2.343 1_556 S
O460 C475 1.259 . S
O461 Tb456 2.374 1_565 S
O461 C457 1.251 1_556 S
C462 O466 1.275 . S
C462 O467 1.246 . S
O463 C457 1.263 . S
O463 Tb458 2.353 1_565 S
C464 O468 1.245 . S
C464 O469 1.259 . S
C465 O470 1.250 . S
C465 O471 1.263 . S
O466 Tb458 2.427 . S
O466 C462 1.275 . S
O467 Tb458 2.513 . S
O467 C462 1.246 . S
O468 Tb458 2.453 . S
O468 C464 1.245 . S
O469 Tb456 2.343 1_554 S
O469 Tb458 2.596 . S
O469 C464 1.259 . S
O470 Tb458 2.374 . S
O470 C465 1.250 . S
O471 Tb456 2.353 1_554 S
O471 C465 1.263 . S
C472 O473 1.275 1_565 S
C472 O474 1.246 . S
O473 Tb456 2.427 1_554 S
O473 C472 1.275 1_545 S
O474 Tb456 2.513 1_564 S
O474 C472 1.246 . S
C475 O459 1.245 . S
C475 O460 1.259 . S
Tb476 O479 2.453 . S
Tb476 O480 2.596 . S
Tb476 O481 2.374 . S
Tb476 O489 2.343 . S
Tb476 O491 2.353 . S
Tb476 O493 2.427 . S
Tb476 O494 2.513 . S
C477 O481 1.251 . S
C477 O483 1.263 . S
Tb478 O480 2.343 . S
Tb478 O483 2.353 . S
Tb478 O486 2.427 . S
Tb478 O487 2.513 . S
Tb478 O488 2.453 . S
Tb478 O489 2.596 . S
Tb478 O490 2.374 . S
O479 Tb476 2.453 . S
O479 C495 1.245 . S
O480 Tb476 2.596 . S
O480 Tb478 2.343 . S
O480 C495 1.259 . S
O481 Tb476 2.374 . S
O481 C477 1.251 . S
C482 O486 1.275 . S
C482 O487 1.246 . S
O483 C477 1.263 . S
O483 Tb478 2.353 . S
C484 O488 1.245 . S
C484 O489 1.259 . S
C485 O490 1.250 . S
C485 O491 1.263 . S
O486 Tb478 2.427 . S
O486 C482 1.275 . S
O487 Tb478 2.513 . S
O487 C482 1.246 . S
O488 Tb478 2.453 . S
O488 C484 1.245 . S
O489 Tb476 2.343 . S
O489 Tb478 2.596 . S
O489 C484 1.259 . S
O490 Tb478 2.374 . S
O490 C485 1.250 . S
O491 Tb476 2.353 . S
O491 C485 1.263 . S
C492 O493 1.275 . S
C492 O494 1.246 . S
O493 Tb476 2.427 . S
O493 C492 1.275 . S
O494 Tb476 2.513 . S
O494 C492 1.246 . S
C495 O479 1.245 . S
C495 O480 1.259 . S
Tb496 O499 2.453 1_556 S
Tb496 O500 2.596 1_556 S
Tb496 O501 2.374 1_556 S
Tb496 O509 2.343 1_556 S
Tb496 O511 2.353 . S
Tb496 O513 2.427 . S
Tb496 O514 2.513 . S
C497 O501 1.251 . S
C497 O503 1.263 . S
Tb498 O500 2.343 . S
Tb498 O503 2.353 . S
Tb498 O506 2.427 . S
Tb498 O507 2.513 . S
Tb498 O508 2.453 . S
Tb498 O509 2.596 . S
Tb498 O510 2.374 . S
O499 Tb496 2.453 1_554 S
O499 C515 1.245 . S
O500 Tb496 2.596 1_554 S
O500 Tb498 2.343 . S
O500 C515 1.259 . S
O501 Tb496 2.374 1_554 S
O501 C497 1.251 . S
C502 O506 1.275 . S
C502 O507 1.246 . S
O503 C497 1.263 . S
O503 Tb498 2.353 . S
C504 O508 1.245 . S
C504 O509 1.259 . S
C505 O510 1.250 . S
C505 O511 1.263 1_554 S
O506 Tb498 2.427 . S
O506 C502 1.275 . S
O507 Tb498 2.513 . S
O507 C502 1.246 . S
O508 Tb498 2.453 . S
O508 C504 1.245 . S
O509 Tb496 2.343 1_554 S
O509 Tb498 2.596 . S
O509 C504 1.259 . S
O510 Tb498 2.374 . S
O510 C505 1.250 . S
O511 Tb496 2.353 . S
O511 C505 1.263 1_556 S
C512 O513 1.275 . S
C512 O514 1.246 . S
O513 Tb496 2.427 . S
O513 C512 1.275 . S
O514 Tb496 2.513 . S
O514 C512 1.246 . S
C515 O499 1.245 . S
C515 O500 1.259 . S
Tb516 O519 2.453 . S
Tb516 O520 2.596 . S
Tb516 O521 2.374 . S
Tb516 O529 2.343 . S
Tb516 O531 2.353 . S
Tb516 O533 2.427 . S
Tb516 O534 2.513 . S
C517 O521 1.251 . S
C517 O523 1.263 . S
Tb518 O520 2.343 . S
Tb518 O523 2.353 . S
Tb518 O526 2.427 . S
Tb518 O527 2.513 . S
Tb518 O528 2.453 . S
Tb518 O529 2.596 . S
Tb518 O530 2.374 . S
O519 Tb516 2.453 . S
O519 C535 1.245 . S
O520 Tb516 2.596 . S
O520 Tb518 2.343 . S
O520 C535 1.259 . S
O521 Tb516 2.374 . S
O521 C517 1.251 . S
C522 O526 1.275 . S
C522 O527 1.246 . S
O523 C517 1.263 . S
O523 Tb518 2.353 . S
C524 O528 1.245 . S
C524 O529 1.259 . S
C525 O530 1.250 . S
C525 O531 1.263 . S
O526 Tb518 2.427 . S
O526 C522 1.275 . S
O527 Tb518 2.513 . S
O527 C522 1.246 . S
O528 Tb518 2.453 . S
O528 C524 1.245 . S
O529 Tb516 2.343 . S
O529 Tb518 2.596 . S
O529 C524 1.259 . S
O530 Tb518 2.374 . S
O530 C525 1.250 . S
O531 Tb516 2.353 . S
O531 C525 1.263 . S
C532 O533 1.275 . S
C532 O534 1.246 . S
O533 Tb516 2.427 . S
O533 C532 1.275 . S
O534 Tb516 2.513 . S
O534 C532 1.246 . S
C535 O519 1.245 . S
C535 O520 1.259 . S
Tb536 O539 2.453 . S
Tb536 O540 2.596 1_655 S
Tb536 O541 2.374 . S
Tb536 O549 2.343 . S
Tb536 O551 2.353 . S
Tb536 O553 2.427 . S
Tb536 O554 2.513 . S
C537 O541 1.251 1_455 S
C537 O543 1.263 . S
Tb538 O540 2.343 . S
Tb538 O543 2.353 . S
Tb538 O546 2.427 . S
Tb538 O547 2.513 . S
Tb538 O548 2.453 . S
Tb538 O549 2.596 1_455 S
Tb538 O550 2.374 . S
O539 Tb536 2.453 . S
O539 C555 1.245 1_655 S
O540 Tb536 2.596 1_455 S
O540 Tb538 2.343 . S
O540 C555 1.259 . S
O541 Tb536 2.374 . S
O541 C537 1.251 1_655 S
C542 O546 1.275 . S
C542 O547 1.246 . S
O543 C537 1.263 . S
O543 Tb538 2.353 . S
C544 O548 1.245 1_655 S
C544 O549 1.259 . S
C545 O550 1.239 1_655 S
C545 O551 1.269 . S
O546 Tb538 2.427 . S
O546 C542 1.275 . S
O547 Tb538 2.513 . S
O547 C542 1.246 . S
O548 Tb538 2.453 . S
O548 C544 1.245 1_455 S
O549 Tb536 2.343 . S
O549 Tb538 2.596 1_655 S
O549 C544 1.259 . S
O550 Tb538 2.374 . S
O550 C545 1.239 1_455 S
O551 Tb536 2.353 . S
O551 C545 1.269 . S
C552 O553 1.275 . S
C552 O554 1.246 . S
O553 Tb536 2.427 . S
O553 C552 1.275 . S
O554 Tb536 2.513 . S
O554 C552 1.246 . S
C555 O539 1.245 1_455 S
C555 O540 1.259 . S
Tb556 O559 2.453 . S
Tb556 O560 2.596 . S
Tb556 O561 2.374 . S
Tb556 O569 2.343 . S
Tb556 O571 2.353 . S
Tb556 O573 2.427 . S
Tb556 O574 2.513 . S
C557 O561 1.251 . S
C557 O563 1.263 . S
Tb558 O560 2.343 . S
Tb558 O563 2.353 . S
Tb558 O566 2.427 . S
Tb558 O567 2.513 . S
Tb558 O568 2.453 . S
Tb558 O569 2.596 . S
Tb558 O570 2.374 . S
O559 Tb556 2.453 . S
O559 C575 1.245 . S
O560 Tb556 2.596 . S
O560 Tb558 2.343 . S
O560 C575 1.259 . S
O561 Tb556 2.374 . S
O561 C557 1.251 . S
C562 O566 1.275 . S
C562 O567 1.246 . S
O563 C557 1.263 . S
O563 Tb558 2.353 . S
C564 O568 1.245 . S
C564 O569 1.259 . S
C565 O570 1.250 . S
C565 O571 1.263 . S
O566 Tb558 2.427 . S
O566 C562 1.275 . S
O567 Tb558 2.513 . S
O567 C562 1.246 . S
O568 Tb558 2.453 . S
O568 C564 1.245 . S
O569 Tb556 2.343 . S
O569 Tb558 2.596 . S
O569 C564 1.259 . S
O570 Tb558 2.374 . S
O570 C565 1.250 . S
O571 Tb556 2.353 . S
O571 C565 1.263 . S
C572 O573 1.275 . S
C572 O574 1.246 . S
O573 Tb556 2.427 . S
O573 C572 1.275 . S
O574 Tb556 2.513 . S
O574 C572 1.246 . S
C575 O559 1.245 . S
C575 O560 1.259 . S
Tb576 O579 2.453 . S
Tb576 O580 2.596 . S
Tb576 O581 2.374 . S
Tb576 O589 2.343 . S
Tb576 O591 2.353 . S
Tb576 O593 2.427 . S
Tb576 O594 2.513 . S
C577 O581 1.251 . S
C577 O583 1.263 . S
Tb578 O580 2.343 . S
Tb578 O583 2.353 . S
Tb578 O586 2.427 . S
Tb578 O587 2.513 . S
Tb578 O588 2.453 . S
Tb578 O589 2.596 . S
Tb578 O590 2.374 . S
O579 Tb576 2.453 . S
O579 C595 1.245 . S
O580 Tb576 2.596 . S
O580 Tb578 2.343 . S
O580 C595 1.259 . S
O581 Tb576 2.374 . S
O581 C577 1.251 . S
C582 O586 1.275 . S
C582 O587 1.246 . S
O583 C577 1.263 . S
O583 Tb578 2.353 . S
C584 O588 1.245 . S
C584 O589 1.259 . S
C585 O590 1.250 . S
C585 O591 1.263 . S
O586 Tb578 2.427 . S
O586 C582 1.275 . S
O587 Tb578 2.513 . S
O587 C582 1.246 . S
O588 Tb578 2.453 . S
O588 C584 1.245 . S
O589 Tb576 2.343 . S
O589 Tb578 2.596 . S
O589 C584 1.259 . S
O590 Tb578 2.374 . S
O590 C585 1.250 . S
O591 Tb576 2.353 . S
O591 C585 1.263 . S
C592 O593 1.275 . S
C592 O594 1.246 . S
O593 Tb576 2.427 . S
O593 C592 1.275 . S
O594 Tb576 2.513 . S
O594 C592 1.246 . S
C595 O579 1.245 . S
C595 O580 1.259 . S
Tb596 O599 2.453 . S
Tb596 O600 2.596 . S
Tb596 O601 2.374 . S
Tb596 O609 2.343 . S
Tb596 O611 2.353 . S
Tb596 O613 2.427 . S
Tb596 O614 2.513 . S
C597 O601 1.251 . S
C597 O603 1.263 . S
Tb598 O600 2.343 . S
Tb598 O603 2.353 . S
Tb598 O606 2.427 . S
Tb598 O607 2.513 . S
Tb598 O608 2.453 . S
Tb598 O609 2.596 . S
Tb598 O610 2.374 . S
O599 Tb596 2.453 . S
O599 C615 1.245 . S
O600 Tb596 2.596 . S
O600 Tb598 2.343 . S
O600 C615 1.259 . S
O601 Tb596 2.374 . S
O601 C597 1.251 . S
C602 O606 1.275 . S
C602 O607 1.246 . S
O603 C597 1.263 . S
O603 Tb598 2.353 . S
C604 O608 1.245 . S
C604 O609 1.259 . S
C605 O610 1.250 . S
C605 O611 1.263 . S
O606 Tb598 2.427 . S
O606 C602 1.275 . S
O607 Tb598 2.513 . S
O607 C602 1.246 . S
O608 Tb598 2.453 . S
O608 C604 1.245 . S
O609 Tb596 2.343 . S
O609 Tb598 2.596 . S
O609 C604 1.259 . S
O610 Tb598 2.374 . S
O610 C605 1.250 . S
O611 Tb596 2.353 . S
O611 C605 1.263 . S
C612 O613 1.275 . S
C612 O614 1.246 . S
O613 Tb596 2.427 . S
O613 C612 1.275 . S
O614 Tb596 2.513 . S
O614 C612 1.246 . S
C615 O599 1.245 . S
C615 O600 1.259 . S
Tb616 O619 2.453 . S
Tb616 O620 2.596 . S
Tb616 O621 2.374 . S
Tb616 O629 2.343 . S
Tb616 O631 2.353 . S
Tb616 O633 2.427 . S
Tb616 O634 2.513 . S
C617 O621 1.251 . S
C617 O623 1.263 . S
Tb618 O620 2.343 . S
Tb618 O623 2.353 . S
Tb618 O626 2.427 . S
Tb618 O627 2.513 . S
Tb618 O628 2.453 . S
Tb618 O629 2.596 . S
Tb618 O630 2.374 . S
O619 Tb616 2.453 . S
O619 C635 1.245 . S
O620 Tb616 2.596 . S
O620 Tb618 2.343 . S
O620 C635 1.259 . S
O621 Tb616 2.374 . S
O621 C617 1.251 . S
C622 O626 1.275 . S
C622 O627 1.246 . S
O623 C617 1.263 . S
O623 Tb618 2.353 . S
C624 O628 1.245 . S
C624 O629 1.259 . S
C625 O630 1.250 . S
C625 O631 1.263 . S
O626 Tb618 2.427 . S
O626 C622 1.275 . S
O627 Tb618 2.513 . S
O627 C622 1.246 . S
O628 Tb618 2.453 . S
O628 C624 1.245 . S
O629 Tb616 2.343 . S
O629 Tb618 2.596 . S
O629 C624 1.259 . S
O630 Tb618 2.374 . S
O630 C625 1.250 . S
O631 Tb616 2.353 . S
O631 C625 1.263 . S
C632 O633 1.275 . S
C632 O634 1.246 . S
O633 Tb616 2.427 . S
O633 C632 1.275 . S
O634 Tb616 2.513 . S
O634 C632 1.246 . S
C635 O619 1.245 . S
C635 O620 1.259 . S
Tb636 O639 2.453 . S
Tb636 O640 2.596 . S
Tb636 O641 2.374 . S
Tb636 O649 2.343 . S
Tb636 O651 2.353 1_554 S
Tb636 O653 2.427 1_554 S
Tb636 O654 2.513 . S
C637 O641 1.251 . S
C637 O643 1.263 1_455 S
Tb638 O640 2.343 1_655 S
Tb638 O643 2.353 . S
Tb638 O646 2.427 . S
Tb638 O647 2.513 . S
Tb638 O648 2.453 . S
Tb638 O649 2.596 1_655 S
Tb638 O650 2.374 1_554 S
O639 Tb636 2.453 . S
O639 C655 1.245 . S
O640 Tb636 2.596 . S
O640 Tb638 2.343 1_455 S
O640 C655 1.259 . S
O641 Tb636 2.374 . S
O641 C637 1.251 . S
C642 O646 1.275 . S
C642 O647 1.246 . S
O643 C637 1.263 1_655 S
O643 Tb638 2.353 . S
C644 O648 1.252 . S
C644 O649 1.257 1_655 S
C645 O650 1.250 1_455 S
C645 O651 1.263 . S
O646 Tb638 2.427 . S
O646 C642 1.275 . S
O647 Tb638 2.513 . S
O647 C642 1.246 . S
O648 Tb638 2.453 . S
O648 C644 1.252 . S
O649 Tb636 2.343 . S
O649 Tb638 2.596 1_455 S
O649 C644 1.257 1_455 S
O650 Tb638 2.374 1_556 S
O650 C645 1.250 1_655 S
O651 Tb636 2.353 1_556 S
O651 C645 1.263 . S
C652 O653 1.275 1_554 S
C652 O654 1.246 . S
O653 Tb636 2.427 1_556 S
O653 C652 1.275 1_556 S
O654 Tb636 2.513 . S
O654 C652 1.246 . S
C655 O639 1.245 . S
C655 O640 1.259 . S
C106 C352 2.707 1_655 S
C65 C365 1.666 . S
C79 C384 2.715 . S
C415 C90 2.025 . S
C21 C435 1.419 . S
C452 C35 1.265 . S
C465 C50 1.690 . S
C6 C492 2.184 . S
C345 C232 2.445 . S
C245 C375 1.773 . S
C377 C274 2.058 1_545 S
C412 C175 0.680 . S
C231 C432 0.844 . S
C445 C246 2.172 . S
C475 C273 1.257 . S
C485 C176 2.212 . S
C355 C160 2.181 1_545 S
C289 C505 1.934 1_556 S
C535 C328 1.871 . S
C552 C317 1.801 . S
C118 C495 2.692 . S
C132 C382 1.497 . S
C331 C565 2.114 . S
C592 C303 2.059 . S
C342 C63 1.650 . S
C577 C107 2.208 . S
C92 C395 1.962 . S
C78 C564 2.837 . S
C424 C8 2.381 . S
C51 C522 1.462 . S
C457 C37 2.277 1_554 S
C602 C20 1.715 . S
C337 C147 1.410 . S
C584 C316 2.421 . S
C119 C385 1.745 . S
C288 C562 0.996 . S
C148 C422 1.629 1_565 S
C517 C315 1.806 . S
C120 C464 2.154 . S
C287 C597 1.289 . S
C188 C344 2.003 1_554 S
C177 C497 2.252 . S
C258 C444 2.357 . S
C247 C542 1.744 . S
C604 C272 2.262 . S
C216 C392 2.146 . S
C397 C261 2.415 . S
C362 C205 2.017 . S
C76 C632 1.944 . S
C585 C93 1.806 . S
C105 C644 1.722 1_456 S
C62 C575 2.003 . S
C49 C515 1.401 . S
C532 C9 2.200 . S
C545 C22 1.578 . S
C612 C36 2.976 . S
C625 C260 2.411 . S
C189 C595 1.464 . S
C637 C204 2.079 . S
C572 C217 0.531 . S
C512 C259 1.145 . S
C190 C525 2.169 . S
C555 C203 1.554 . S
C218 C605 2.336 . S
C635 C314 2.201 . S
C135 C425 1.929 . S
C455 C146 1.869 . S
C472 C163 1.669 . S
C615 C300 2.667 . S
C286 C642 1.534 . S
C405 C149 2.064 . S
C372 C121 2.290 . S
C91 C622 1.540 . S
C357 C77 1.613 . S
C64 C655 1.900 . S
C104 C404 2.031 . S
C34 C504 1.780 1_556 S
C442 C23 1.372 . S
C7 C537 1.327 . S
C48 C482 1.586 . S
C617 C329 1.296 . S
C162 C364 2.330 . S
C645 C301 1.694 1_455 S
C134 C402 1.005 . S
C330 C502 1.579 . S
C437 C161 1.743 . S
C302 C544 2.054 . S
C477 C133 1.202 . S
C624 C244 2.134 . S
C417 C219 2.270 . S
C230 C524 2.313 . S
C462 C191 1.751 . S
C202 C484 2.391 . S
C174 C652 2.034 . S
C557 C233 2.445 . S
C582 C275 2.169 . S
