# Generated by pormake.
# Topology ssb, (4,4)-cn, num edge types: 1
# Building blocks:
#     Node 0, Type 0, BuildingBlock: ESEHIV_clean_sbu_0, # of connection points: 4
#     Node 1, Type 0, BuildingBlock: ESEHIV_clean_sbu_0, # of connection points: 4
#     Node 2, Type 0, BuildingBlock: ESEHIV_clean_sbu_0, # of connection points: 4
#     Node 3, Type 0, BuildingBlock: ESEHIV_clean_sbu_0, # of connection points: 4
#     Node 4, Type 0, BuildingBlock: ESEHIV_clean_sbu_0, # of connection points: 4
#     Node 5, Type 0, BuildingBlock: ESEHIV_clean_sbu_0, # of connection points: 4
#     Node 6, Type 0, BuildingBlock: ESEHIV_clean_sbu_0, # of connection points: 4
#     Node 7, Type 0, BuildingBlock: ESEHIV_clean_sbu_0, # of connection points: 4
#     Node 8, Type 1, BuildingBlock: NAWXER_clean_sbu_0, # of connection points: 4
#     Node 9, Type 1, BuildingBlock: NAWXER_clean_sbu_0, # of connection points: 4
#     Node 10, Type 1, BuildingBlock: NAWXER_clean_sbu_0, # of connection points: 4
#     Node 11, Type 1, BuildingBlock: NAWXER_clean_sbu_0, # of connection points: 4
#     Node 12, Type 1, BuildingBlock: NAWXER_clean_sbu_0, # of connection points: 4
#     Node 13, Type 1, BuildingBlock: NAWXER_clean_sbu_0, # of connection points: 4
#     Node 14, Type 1, BuildingBlock: NAWXER_clean_sbu_0, # of connection points: 4
#     Node 15, Type 1, BuildingBlock: NAWXER_clean_sbu_0, # of connection points: 4
#     Edge 16, Type (0, 1), None
#     Edge 17, Type (0, 1), None
#     Edge 18, Type (0, 1), None
#     Edge 19, Type (0, 1), None
#     Edge 20, Type (0, 1), None
#     Edge 21, Type (0, 1), None
#     Edge 22, Type (0, 1), None
#     Edge 23, Type (0, 1), None
#     Edge 24, Type (0, 1), None
#     Edge 25, Type (0, 1), None
#     Edge 26, Type (0, 1), None
#     Edge 27, Type (0, 1), None
#     Edge 28, Type (0, 1), None
#     Edge 29, Type (0, 1), None
#     Edge 30, Type (0, 1), None
#     Edge 31, Type (0, 1), None
#     Edge 32, Type (0, 1), None
#     Edge 33, Type (0, 1), None
#     Edge 34, Type (0, 1), None
#     Edge 35, Type (0, 1), None
#     Edge 36, Type (0, 1), None
#     Edge 37, Type (0, 1), None
#     Edge 38, Type (0, 1), None
#     Edge 39, Type (0, 1), None
#     Edge 40, Type (0, 1), None
#     Edge 41, Type (0, 1), None
#     Edge 42, Type (0, 1), None
#     Edge 43, Type (0, 1), None
#     Edge 44, Type (0, 1), None
#     Edge 45, Type (0, 1), None
#     Edge 46, Type (0, 1), None
#     Edge 47, Type (0, 1), None
# Relax obj value: 0.009
# Max RMSD: 0.105
# Mean RMSD: 0.053
data_MOF--net-ssb--node1-ESEHIV_clean_sbu_0--node2-NAWXER_clean_sbu_0--edge1-none
_symmetry_space_group_name_H-M    P1
_symmetry_Int_Tables_number       1
_symmetry_cell_setting            triclinic
loop_
_symmetry_equiv_pos_as_xyz
'x, y, z'
_cell_length_a     20.74969
_cell_length_b     21.256316
_cell_length_c     16.950945
_cell_angle_alpha  88.7723
_cell_angle_beta   88.849049
_cell_angle_gamma 89.534749
loop_
_atom_site_label
_atom_site_type_symbol
_atom_site_fract_x
_atom_site_fract_y
_atom_site_fract_z
_atom_type_partial_charge
Cu0 Cu 0.41758 0.22922 0.32826 0.0
N1 N 0.45767 0.16537 0.39085 0.0
N2 N 0.46249 0.07873 0.4694 0.0
C3 C 0.42608 0.11441 0.4204 0.0
C4 C 0.5208 0.10636 0.4678 0.0
C5 C 0.51758 0.16011 0.41973 0.0
O6 O 0.32468 0.23231 0.36388 0.0
C7 C 0.4911 0.18898 0.18636 0.0
O8 O 0.51717 0.1439 0.22945 0.0
H9 H 0.37585 0.10529 0.40913 0.0
H10 H 0.55538 0.19423 0.40944 0.0
N11 N 0.43983 0.31435 0.34343 0.0
N12 N 0.41683 0.41071 0.29162 0.0
C13 C 0.44694 0.35467 0.28037 0.0
C14 C 0.4078 0.34849 0.39789 0.0
C15 C 0.39161 0.40639 0.36537 0.0
C16 C 0.30701 0.22417 0.4369 0.0
O17 O 0.34987 0.2055 0.48824 0.0
H18 H 0.46189 0.33912 0.22244 0.0
H19 H 0.38789 0.32922 0.4525 0.0
O20 O 0.44289 0.22019 0.21462 0.0
H21 H 0.56079 0.09214 0.50431 0.0
H22 H 0.35911 0.44056 0.39161 0.0
Cu23 Cu 0.91714 0.35302 0.2978 0.0
N24 N 0.85861 0.32012 0.22423 0.0
N25 N 0.76716 0.30621 0.15684 0.0
C26 C 0.79924 0.34364 0.20638 0.0
C27 C 0.80795 0.25736 0.14367 0.0
C28 C 0.86377 0.26596 0.1851 0.0
O29 O 0.90228 0.44415 0.2969 0.0
C30 C 0.93485 0.25142 0.41394 0.0
O31 O 0.97408 0.2279 0.36023 0.0
H32 H 0.77981 0.38691 0.23001 0.0
H33 H 0.9048 0.23432 0.18768 0.0
N34 N 1.00725 0.35269 0.27607 0.0
N35 N 0.09748 0.38272 0.33561 0.0
C36 C 0.04281 0.34939 0.34118 0.0
C37 C 0.04349 0.38883 0.22535 0.0
C38 C 0.09895 0.40813 0.26249 0.0
C39 C 0.91171 0.46594 0.22679 0.0
O40 O 0.91575 0.42661 0.16831 0.0
H41 H 1.02408 0.33219 0.39721 0.0
H42 H 1.02911 0.405 0.16753 0.0
O43 O 0.90486 0.30367 0.39906 0.0
H44 H 0.79814 0.21777 0.10667 0.0
H45 H 0.1359 0.4392 0.23861 0.0
Cu46 Cu 0.7577 0.90954 0.33633 0.0
N47 N 0.81192 0.86886 0.26233 0.0
N48 N 0.84438 0.77974 0.20326 0.0
C49 C 0.79379 0.81351 0.23106 0.0
C50 C 0.89642 0.81582 0.21594 0.0
C51 C 0.87638 0.8705 0.25221 0.0
O52 O 0.67595 0.89068 0.28936 0.0
C53 C 0.84307 0.89246 0.46266 0.0
O54 O 0.87747 0.92987 0.41677 0.0
H55 H 0.74506 0.79575 0.2351 0.0
H56 H 0.9073 0.90648 0.27431 0.0
N57 N 0.74747 0.99797 0.34683 0.0
N58 N 0.75259 0.0841 0.41984 0.0
C59 C 0.78606 0.03744 0.38424 0.0
C60 C 0.68806 0.02463 0.35466 0.0
C61 C 0.69138 0.07824 0.39818 0.0
C62 C 0.66871 0.92313 0.22527 0.0
O63 O 0.71388 0.9624 0.20122 0.0
H64 H 0.83656 0.02897 0.39312 0.0
H65 H 0.64337 1.00233 0.34028 0.0
O66 O 0.7874 0.87483 0.43965 0.0
H67 H 0.9459 0.80282 0.20215 0.0
H68 H 0.65129 0.10564 0.42051 0.0
Cu69 Cu 0.25728 0.76619 0.36854 0.0
N70 N 0.30443 0.80965 0.29067 0.0
N71 N 0.39402 0.83245 0.22145 0.0
C72 C 0.36289 0.78883 0.26551 0.0
C73 C 0.35401 0.88305 0.21922 0.0
C74 C 0.29857 0.86873 0.26182 0.0
O75 O 0.28124 0.67877 0.34811 0.0
C76 C 0.26549 0.86617 0.46934 0.0
O77 O 0.22314 0.88897 0.41966 0.0
H78 H 0.38316 0.74339 0.28167 0.0
H79 H 0.25804 0.8998 0.27277 0.0
N80 N 0.16604 0.76635 0.36641 0.0
N81 N 0.07207 0.74945 0.43067 0.0
C82 C 0.12835 0.78086 0.42954 0.0
C83 C 0.13011 0.72585 0.32552 0.0
C84 C 0.07286 0.71474 0.36545 0.0
C85 C 0.27355 0.6659 0.27545 0.0
O86 O 0.25395 0.70996 0.22594 0.0
H87 H 0.14524 0.80649 0.47944 0.0
H88 H 0.1459 0.70038 0.27442 0.0
O89 O 0.28507 0.80912 0.46296 0.0
H90 H 0.36372 0.92707 0.18802 0.0
H91 H 0.03582 0.68205 0.34932 0.0
Cu92 Cu 0.26818 0.76428 0.86827 0.0
N93 N 0.29192 0.8354 0.92378 0.0
N94 N 0.38473 0.88137 0.95522 0.0
C95 C 0.34728 0.82979 0.96297 0.0
C96 C 0.3494 0.9241 0.91495 0.0
C97 C 0.29245 0.89511 0.89437 0.0
O98 O 0.28972 0.6867 0.93551 0.0
C99 C 0.37111 0.80783 0.76537 0.0
O100 O 0.41345 0.79224 0.81892 0.0
H101 H 0.36405 0.78521 0.987 0.0
H102 H 0.25921 0.91306 0.85082 0.0
N103 N 0.17901 0.75885 0.8429 0.0
N104 N 0.08571 0.76448 0.77617 0.0
C105 C 0.13883 0.79622 0.79922 0.0
C106 C 0.149 0.70297 0.8485 0.0
C107 C 0.09265 0.70598 0.80724 0.0
C108 C 0.34294 0.65798 0.95105 0.0
O109 O 0.39641 0.67661 0.91539 0.0
H110 H 0.15141 0.84303 0.77804 0.0
H111 H 0.16939 0.66104 0.87567 0.0
O112 O 0.31479 0.78354 0.76873 0.0
H113 H 0.36609 0.96996 0.89484 0.0
H114 H 0.06023 0.66717 0.79843 0.0
Cu115 Cu 0.34879 0.29987 0.83855 0.0
N116 N 0.28647 0.32012 0.91544 0.0
N117 N 0.25575 0.38149 1.01489 0.0
C118 C 0.30276 0.34486 0.98431 0.0
C119 C 0.20498 0.37498 0.96736 0.0
C120 C 0.22463 0.33783 0.90489 0.0
O121 O 0.43235 0.32873 0.87776 0.0
C122 C 0.32191 0.38681 0.69776 0.0
O123 O 0.35272 0.43587 0.72316 0.0
H124 H 0.35064 0.34149 1.00782 0.0
H125 H 0.19861 0.33139 0.85102 0.0
N126 N 0.35749 0.21101 0.82742 0.0
N127 N 0.35804 0.11346 0.77691 0.0
C128 C 0.32674 0.16998 0.78066 0.0
C129 C 0.40863 0.17853 0.85483 0.0
C130 C 0.40946 0.11922 0.8236 0.0
C131 C 0.45018 0.37476 0.91994 0.0
O132 O 0.41308 0.42446 0.92938 0.0
H133 H 0.28598 0.18308 0.74476 0.0
H134 H 0.44538 0.19811 0.89122 0.0
O135 O 0.32055 0.33494 0.73742 0.0
H136 H 0.1609 0.40253 0.9705 0.0
H137 H 0.44663 0.08379 0.83222 0.0
Cu138 Cu 0.87047 0.39844 0.80777 0.0
N139 N 0.93969 0.42275 0.7361 0.0
N140 N 1.03087 0.40998 0.66218 0.0
C141 C 0.99083 0.38467 0.71798 0.0
C142 C 1.00614 0.46804 0.64747 0.0
C143 C 0.94985 0.47553 0.69238 0.0
O144 O 0.87663 0.30616 0.80773 0.0
C145 C 0.83793 0.49583 0.91867 0.0
O146 O 0.79661 0.51224 0.8642 0.0
H147 H 0.99764 0.33816 0.74389 0.0
H148 H 0.91804 0.51611 0.69184 0.0
N149 N 0.78121 0.39931 0.78359 0.0
N150 N 0.70316 0.33808 0.83854 0.0
C151 C 0.74621 0.38407 0.84931 0.0
C152 C 0.7526 0.3657 0.72699 0.0
C153 C 0.70626 0.32624 0.76116 0.0
C154 C 0.8752 0.28755 0.73623 0.0
O155 O 0.87926 0.32893 0.67799 0.0
H156 H 0.76082 0.3967 0.90771 0.0
H157 H 0.76862 0.36442 0.66601 0.0
O158 O 0.8759 0.44838 0.90696 0.0
H159 H 1.02562 0.50176 0.60472 0.0
H160 H 0.67813 0.29138 0.73179 0.0
Cu161 Cu 0.79516 0.81722 0.82376 0.0
N162 N 0.87754 0.79549 0.85924 0.0
N163 N 0.94384 0.72893 0.9231 0.0
C164 C 0.8925 0.73547 0.87558 0.0
C165 C 0.96607 0.78809 0.93024 0.0
C166 C 0.92457 0.82928 0.89125 0.0
O167 O 0.72927 0.82728 0.91001 0.0
C168 C 0.78777 0.71059 0.71643 0.0
O169 O 0.75485 0.66232 0.69242 0.0
H170 H 0.85892 0.69783 0.86521 0.0
H171 H 0.92436 0.88004 0.8945 0.0
N172 N 0.79554 0.89196 0.76333 0.0
N173 N 0.81675 0.98444 0.70257 0.0
C174 C 0.8424 0.93048 0.73318 0.0
C175 C 0.73969 0.92222 0.75061 0.0
C176 C 0.75233 0.9787 0.71395 0.0
C177 C 0.69231 0.78322 0.93697 0.0
O178 O 0.7029 0.72503 0.91543 0.0
H179 H 0.89352 0.92036 0.73632 0.0
H180 H 0.69283 0.90485 0.76926 0.0
O181 O 0.76125 0.74713 0.76607 0.0
H182 H 1.00195 0.80181 0.97198 0.0
H183 H 0.7163 1.01339 0.69711 0.0
C184 C 0.08254 0.38165 0.6247 0.0
C185 C 0.2518 0.25985 0.47032 0.0
O186 O 0.12145 0.41472 0.58117 0.0
Zn187 Zn 0.20861 0.40212 0.50968 0.0
O188 O 0.09192 0.32219 0.63025 0.0
Zn189 Zn 0.16743 0.31191 0.55713 0.0
O190 O 0.23982 0.34575 0.62363 0.0
O191 O 0.2783 0.43598 0.57832 0.0
O192 O 0.21021 0.23421 0.51729 0.0
O193 O 0.25538 0.31978 0.46663 0.0
O194 O 0.17911 0.4315 0.40293 0.0
O195 O 0.13164 0.34618 0.45239 0.0
C196 C 0.27901 0.39093 0.62941 0.0
C197 C 0.13764 0.38763 0.39734 0.0
C198 C 0.85276 0.22667 0.71219 0.0
C199 C 0.77438 0.11619 0.48183 0.0
O200 O 0.89516 0.19261 0.67752 0.0
Zn201 Zn 0.89885 0.12469 0.58898 0.0
O202 O 0.7948 0.22492 0.68928 0.0
Zn203 Zn 0.80368 0.17152 0.59944 0.0
O204 O 0.80791 0.08328 0.65256 0.0
O205 O 0.90382 0.03909 0.64597 0.0
O206 O 0.73804 0.15323 0.52181 0.0
O207 O 0.83142 0.10383 0.50433 0.0
O208 O 0.95549 0.16628 0.5076 0.0
O209 O 0.86518 0.22119 0.51977 0.0
C210 C 0.84452 0.03641 0.66766 0.0
C211 C 0.91997 0.21301 0.48608 0.0
C212 C 0.85122 0.72307 0.68019 0.0
C213 C 1.02689 0.7488 0.48959 0.0
O214 O 0.87757 0.77728 0.68579 0.0
Zn215 Zn 0.95874 0.82572 0.62848 0.0
O216 O 0.87568 0.6824 0.63443 0.0
Zn217 Zn 0.9415 0.73363 0.58976 0.0
O218 O 1.01027 0.73969 0.68458 0.0
O219 O 1.02468 0.83971 0.71025 0.0
O220 O 0.98941 0.70224 0.49964 0.0
O221 O 1.02154 0.79583 0.53515 0.0
O222 O 0.91306 0.89421 0.57274 0.0
O223 O 0.88339 0.80224 0.53 0.0
C224 C 0.03926 0.78214 0.72333 0.0
C225 C 0.87729 0.86198 0.52884 0.0
C226 C 0.34775 0.0644 0.72744 0.0
C227 C 0.29137 0.90859 0.52798 0.0
O228 O 0.39402 0.02598 0.71122 0.0
Zn229 Zn 0.41442 0.95306 0.62716 0.0
O230 O 0.29447 0.05801 0.69298 0.0
Zn231 Zn 0.31838 0.98592 0.62514 0.0
O232 O 0.33467 0.9014 0.69836 0.0
O233 O 0.43905 0.8802 0.69251 0.0
O234 O 0.25552 0.95162 0.55682 0.0
O235 O 0.35104 0.90496 0.54643 0.0
O236 O 0.47872 0.99677 0.5582 0.0
O237 O 0.38006 0.03145 0.53906 0.0
C238 C 0.38241 0.86504 0.71565 0.0
C239 C 0.44035 0.03351 0.52149 0.0
C240 C 0.45124 0.82685 0.18171 0.0
C241 C 0.63557 0.7975 0.98915 0.0
O242 O 0.47382 0.87591 0.14698 0.0
Zn243 Zn 0.54279 0.90372 1.06008 0.0
O244 O 0.47847 0.77329 0.17066 0.0
Zn245 Zn 0.54163 0.8034 0.08965 0.0
O246 O 0.60033 0.8542 0.1629 0.0
O247 O 0.59621 0.9544 0.12506 0.0
O248 O 0.60568 0.75404 1.02749 0.0
O249 O 0.61553 0.85431 0.99503 0.0
O250 O 0.47703 0.93585 0.98489 0.0
O251 O 0.47076 0.83378 1.01068 0.0
C252 C 0.61705 0.91105 0.17136 0.0
C253 C 0.44655 0.88407 0.98061 0.0
C254 C 0.28342 0.60394 0.24288 0.0
C255 C 0.26658 0.43008 1.06361 0.0
O256 O 0.33759 0.59231 0.20793 0.0
Zn257 Zn 0.37386 0.52522 0.12232 0.0
O258 O 0.23363 0.57321 0.22535 0.0
Zn259 Zn 0.27427 0.52102 0.1492 0.0
O260 O 0.33695 0.46674 0.22892 0.0
O261 O 0.43648 0.47306 0.18118 0.0
O262 O 0.22058 0.45878 0.09816 0.0
O263 O 0.32413 0.45059 1.06937 0.0
O264 O 0.39991 0.58115 1.03151 0.0
O265 O 0.29568 0.5893 1.05326 0.0
C266 C 0.39695 0.45155 0.23336 0.0
C267 C 0.3462 0.60669 1.01379 0.0
C268 C 0.66751 0.31071 0.89812 0.0
C269 C 0.53078 0.2177 0.12075 0.0
O270 O 0.65321 0.34434 0.95743 0.0
Zn271 Zn 0.59905 0.3459 1.06285 0.0
O272 O 0.64924 0.25327 0.89754 0.0
Zn273 Zn 0.60695 0.25244 1.00571 0.0
O274 O 0.53158 0.30839 0.96654 0.0
O275 O 0.52808 0.40187 1.02018 0.0
O276 O 0.5579 0.18521 1.06669 0.0
O277 O 0.54361 0.27629 0.124 0.0
O278 O 0.67249 0.36318 0.13578 0.0
O279 O 0.68658 0.2719 0.0785 0.0
C280 C 0.50624 0.36287 0.97093 0.0
C281 C 0.70737 0.31415 0.12424 0.0
C282 C 0.84482 0.72111 0.17104 0.0
C283 C 0.84213 0.53665 0.98858 0.0
O284 O 0.89889 0.69409 0.15663 0.0
Zn285 Zn 0.93748 0.61475 0.09782 0.0
O286 O 0.79313 0.69407 0.15065 0.0
Zn287 Zn 0.83178 0.62107 0.09246 0.0
O288 O 0.86053 0.55371 0.17553 0.0
O289 O 0.96611 0.55647 0.18118 0.0
O290 O 0.79237 0.56633 1.01456 0.0
O291 O 0.89754 0.54944 1.01576 0.0
O292 O 0.99049 0.66645 1.02091 0.0
O293 O 0.88469 0.67056 1.00801 0.0
C294 C 0.9127 0.53258 0.20461 0.0
C295 C 0.94092 0.68637 0.98382 0.0
loop_
_geom_bond_atom_site_label_1
_geom_bond_atom_site_label_2
_geom_bond_distance
_geom_bond_site_symmetry_2
_ccdc_geom_bond_type
Cu0 N1 1.999 . S
Cu0 O6 1.974 . S
Cu0 N11 1.985 . S
Cu0 O20 1.959 . S
N1 Cu0 1.999 . S
N1 C3 1.263 . S
N1 C5 1.389 . S
N2 C3 1.358 . S
N2 C4 1.400 . S
C3 N1 1.263 . S
C3 N2 1.358 . S
C3 H9 0.930 . S
C4 N2 1.400 . S
C4 C5 1.351 . S
C4 H21 0.930 . S
C5 N1 1.389 . S
C5 C4 1.351 . S
C5 H10 0.930 . S
O6 Cu0 1.974 . S
O6 C16 1.282 . S
C7 O8 1.261 . S
C7 O20 1.251 . S
O8 C7 1.261 . S
H9 C3 0.930 . S
H10 C5 0.930 . S
N11 Cu0 1.985 . S
N11 C13 1.335 . S
N11 C14 1.390 . S
N12 C13 1.345 . S
N12 C15 1.336 . S
C13 N11 1.335 . S
C13 N12 1.345 . S
C13 H18 0.930 . S
C14 N11 1.390 . S
C14 C15 1.346 . S
C14 H19 0.930 . S
C15 N12 1.336 . S
C15 C14 1.346 . S
C15 H22 0.929 . S
C16 O6 1.282 . S
C16 O17 1.216 . S
O17 C16 1.216 . S
H18 C13 0.930 . S
H19 C14 0.930 . S
O20 Cu0 1.959 . S
O20 C7 1.251 . S
H21 C4 0.930 . S
H22 C15 0.929 . S
Cu23 N24 1.999 . S
Cu23 O29 1.974 . S
Cu23 N34 1.985 . S
Cu23 O43 1.959 . S
N24 Cu23 1.999 . S
N24 C26 1.263 . S
N24 C28 1.389 . S
N25 C26 1.358 . S
N25 C27 1.400 . S
C26 N24 1.263 . S
C26 N25 1.358 . S
C26 H32 0.930 . S
C27 N25 1.400 . S
C27 C28 1.351 . S
C27 H44 0.930 . S
C28 N24 1.389 . S
C28 C27 1.351 . S
C28 H33 0.930 . S
O29 Cu23 1.974 . S
O29 C39 1.282 . S
C30 O31 1.261 . S
C30 O43 1.251 . S
O31 C30 1.261 . S
H32 C26 0.930 . S
H33 C28 0.930 . S
N34 Cu23 1.985 . S
N34 C36 1.335 . S
N34 C37 1.390 . S
N35 C36 1.345 . S
N35 C38 1.336 . S
C36 N34 1.335 . S
C36 N35 1.345 . S
C36 H41 0.930 . S
C37 N34 1.390 . S
C37 C38 1.346 . S
C37 H42 0.930 . S
C38 N35 1.336 . S
C38 C37 1.346 . S
C38 H45 0.929 1_655 S
C39 O29 1.282 . S
C39 O40 1.216 . S
O40 C39 1.216 . S
H41 C36 0.930 . S
H42 C37 0.930 . S
O43 Cu23 1.959 . S
O43 C30 1.251 . S
H44 C27 0.930 . S
H45 C38 0.929 1_455 S
Cu46 N47 1.999 . S
Cu46 O52 1.974 . S
Cu46 N57 1.985 . S
Cu46 O66 1.959 . S
N47 Cu46 1.999 . S
N47 C49 1.263 . S
N47 C51 1.389 . S
N48 C49 1.358 . S
N48 C50 1.400 . S
C49 N47 1.263 . S
C49 N48 1.358 . S
C49 H55 0.930 . S
C50 N48 1.400 . S
C50 C51 1.351 . S
C50 H67 0.930 . S
C51 N47 1.389 . S
C51 C50 1.351 . S
C51 H56 0.930 . S
O52 Cu46 1.974 . S
O52 C62 1.282 . S
C53 O54 1.261 . S
C53 O66 1.251 . S
O54 C53 1.261 . S
H55 C49 0.930 . S
H56 C51 0.930 . S
N57 Cu46 1.985 . S
N57 C59 1.335 . S
N57 C60 1.390 . S
N58 C59 1.345 . S
N58 C61 1.336 . S
C59 N57 1.335 . S
C59 N58 1.345 . S
C59 H64 0.930 . S
C60 N57 1.390 . S
C60 C61 1.346 . S
C60 H65 0.930 . S
C61 N58 1.336 . S
C61 C60 1.346 . S
C61 H68 0.929 1_565 S
C62 O52 1.282 . S
C62 O63 1.216 . S
O63 C62 1.216 . S
H64 C59 0.930 . S
H65 C60 0.930 . S
O66 Cu46 1.959 . S
O66 C53 1.251 . S
H67 C50 0.930 . S
H68 C61 0.929 1_545 S
Cu69 N70 1.999 . S
Cu69 O75 1.974 . S
Cu69 N80 1.985 . S
Cu69 O89 1.959 . S
N70 Cu69 1.999 . S
N70 C72 1.263 . S
N70 C74 1.389 . S
N71 C72 1.358 . S
N71 C73 1.400 . S
C72 N70 1.263 . S
C72 N71 1.358 . S
C72 H78 0.930 . S
C73 N71 1.400 . S
C73 C74 1.351 . S
C73 H90 0.930 . S
C74 N70 1.389 . S
C74 C73 1.351 . S
C74 H79 0.930 . S
O75 Cu69 1.974 . S
O75 C85 1.282 . S
C76 O77 1.261 . S
C76 O89 1.251 . S
O77 C76 1.261 . S
H78 C72 0.930 . S
H79 C74 0.930 . S
N80 Cu69 1.985 . S
N80 C82 1.335 . S
N80 C83 1.390 . S
N81 C82 1.345 . S
N81 C84 1.336 . S
C82 N80 1.335 . S
C82 N81 1.345 . S
C82 H87 0.930 . S
C83 N80 1.390 . S
C83 C84 1.346 . S
C83 H88 0.930 . S
C84 N81 1.336 . S
C84 C83 1.346 . S
C84 H91 0.929 . S
C85 O75 1.282 . S
C85 O86 1.216 . S
O86 C85 1.216 . S
H87 C82 0.930 . S
H88 C83 0.930 . S
O89 Cu69 1.959 . S
O89 C76 1.251 . S
H90 C73 0.930 . S
H91 C84 0.929 . S
Cu92 N93 1.999 . S
Cu92 O98 1.974 . S
Cu92 N103 1.985 . S
Cu92 O112 1.959 . S
N93 Cu92 1.999 . S
N93 C95 1.263 . S
N93 C97 1.389 . S
N94 C95 1.358 . S
N94 C96 1.400 . S
C95 N93 1.263 . S
C95 N94 1.358 . S
C95 H101 0.930 . S
C96 N94 1.400 . S
C96 C97 1.351 . S
C96 H113 0.930 . S
C97 N93 1.389 . S
C97 C96 1.351 . S
C97 H102 0.930 . S
O98 Cu92 1.974 . S
O98 C108 1.282 . S
C99 O100 1.261 . S
C99 O112 1.251 . S
O100 C99 1.261 . S
H101 C95 0.930 . S
H102 C97 0.930 . S
N103 Cu92 1.985 . S
N103 C105 1.335 . S
N103 C106 1.390 . S
N104 C105 1.345 . S
N104 C107 1.336 . S
C105 N103 1.335 . S
C105 N104 1.345 . S
C105 H110 0.930 . S
C106 N103 1.390 . S
C106 C107 1.346 . S
C106 H111 0.930 . S
C107 N104 1.336 . S
C107 C106 1.346 . S
C107 H114 0.929 . S
C108 O98 1.282 . S
C108 O109 1.216 . S
O109 C108 1.216 . S
H110 C105 0.930 . S
H111 C106 0.930 . S
O112 Cu92 1.959 . S
O112 C99 1.251 . S
H113 C96 0.930 . S
H114 C107 0.929 . S
Cu115 N116 1.999 . S
Cu115 O121 1.974 . S
Cu115 N126 1.985 . S
Cu115 O135 1.959 . S
N116 Cu115 1.999 . S
N116 C118 1.263 . S
N116 C120 1.389 . S
N117 C118 1.358 . S
N117 C119 1.400 . S
C118 N116 1.263 . S
C118 N117 1.358 . S
C118 H124 0.930 . S
C119 N117 1.400 . S
C119 C120 1.351 . S
C119 H136 0.930 . S
C120 N116 1.389 . S
C120 C119 1.351 . S
C120 H125 0.930 . S
O121 Cu115 1.974 . S
O121 C131 1.282 . S
C122 O123 1.261 . S
C122 O135 1.251 . S
O123 C122 1.261 . S
H124 C118 0.930 . S
H125 C120 0.930 . S
N126 Cu115 1.985 . S
N126 C128 1.335 . S
N126 C129 1.390 . S
N127 C128 1.345 . S
N127 C130 1.336 . S
C128 N126 1.335 . S
C128 N127 1.345 . S
C128 H133 0.930 . S
C129 N126 1.390 . S
C129 C130 1.346 . S
C129 H134 0.930 . S
C130 N127 1.336 . S
C130 C129 1.346 . S
C130 H137 0.929 . S
C131 O121 1.282 . S
C131 O132 1.216 . S
O132 C131 1.216 . S
H133 C128 0.930 . S
H134 C129 0.930 . S
O135 Cu115 1.959 . S
O135 C122 1.251 . S
H136 C119 0.930 . S
H137 C130 0.929 . S
Cu138 N139 1.999 . S
Cu138 O144 1.974 . S
Cu138 N149 1.985 . S
Cu138 O158 1.959 . S
N139 Cu138 1.999 . S
N139 C141 1.263 . S
N139 C143 1.389 . S
N140 C141 1.358 . S
N140 C142 1.400 . S
C141 N139 1.263 . S
C141 N140 1.358 . S
C141 H147 0.930 . S
C142 N140 1.400 . S
C142 C143 1.351 . S
C142 H159 0.930 1_655 S
C143 N139 1.389 . S
C143 C142 1.351 . S
C143 H148 0.930 . S
O144 Cu138 1.974 . S
O144 C154 1.282 . S
C145 O146 1.261 . S
C145 O158 1.251 . S
O146 C145 1.261 . S
H147 C141 0.930 . S
H148 C143 0.930 . S
N149 Cu138 1.985 . S
N149 C151 1.335 . S
N149 C152 1.390 . S
N150 C151 1.345 . S
N150 C153 1.336 . S
C151 N149 1.335 . S
C151 N150 1.345 . S
C151 H156 0.930 . S
C152 N149 1.390 . S
C152 C153 1.346 . S
C152 H157 0.930 . S
C153 N150 1.336 . S
C153 C152 1.346 . S
C153 H160 0.929 . S
C154 O144 1.282 . S
C154 O155 1.216 . S
O155 C154 1.216 . S
H156 C151 0.930 . S
H157 C152 0.930 . S
O158 Cu138 1.959 . S
O158 C145 1.251 . S
H159 C142 0.930 1_455 S
H160 C153 0.929 . S
Cu161 N162 1.999 . S
Cu161 O167 1.974 . S
Cu161 N172 1.985 . S
Cu161 O181 1.959 . S
N162 Cu161 1.999 . S
N162 C164 1.263 . S
N162 C166 1.389 . S
N163 C164 1.358 . S
N163 C165 1.400 . S
C164 N162 1.263 . S
C164 N163 1.358 . S
C164 H170 0.930 . S
C165 N163 1.400 . S
C165 C166 1.351 . S
C165 H182 0.930 . S
C166 N162 1.389 . S
C166 C165 1.351 . S
C166 H171 0.930 . S
O167 Cu161 1.974 . S
O167 C177 1.282 . S
C168 O169 1.261 . S
C168 O181 1.251 . S
O169 C168 1.261 . S
H170 C164 0.930 . S
H171 C166 0.930 . S
N172 Cu161 1.985 . S
N172 C174 1.335 . S
N172 C175 1.390 . S
N173 C174 1.345 . S
N173 C176 1.336 . S
C174 N172 1.335 . S
C174 N173 1.345 . S
C174 H179 0.930 . S
C175 N172 1.390 . S
C175 C176 1.346 . S
C175 H180 0.930 . S
C176 N173 1.336 . S
C176 C175 1.346 . S
C176 H183 0.929 . S
C177 O167 1.282 . S
C177 O178 1.216 . S
O178 C177 1.216 . S
H179 C174 0.930 . S
H180 C175 0.930 . S
O181 Cu161 1.959 . S
O181 C168 1.251 . S
H182 C165 0.930 . S
H183 C176 0.929 . S
C184 O186 1.247 . S
C184 O188 1.258 . S
C185 O192 1.247 . S
C185 O193 1.258 . S
O186 C184 1.247 . S
O186 Zn187 2.028 . S
Zn187 O186 2.028 . S
Zn187 O191 2.035 . S
Zn187 O193 2.035 . S
Zn187 O194 2.028 . S
O188 C184 1.258 . S
O188 Zn189 2.035 . S
Zn189 O188 2.035 . S
Zn189 O190 2.028 . S
Zn189 O192 2.028 . S
Zn189 O195 2.035 . S
O190 Zn189 2.028 . S
O190 C196 1.247 . S
O191 Zn187 2.035 . S
O191 C196 1.258 . S
O192 C185 1.247 . S
O192 Zn189 2.028 . S
O193 C185 1.258 . S
O193 Zn187 2.035 . S
O194 Zn187 2.028 . S
O194 C197 1.247 . S
O195 Zn189 2.035 . S
O195 C197 1.258 . S
C196 O190 1.247 . S
C196 O191 1.258 . S
C197 O194 1.247 . S
C197 O195 1.258 . S
C198 O200 1.247 . S
C198 O202 1.258 . S
C199 O206 1.247 . S
C199 O207 1.258 . S
O200 C198 1.247 . S
O200 Zn201 2.028 . S
Zn201 O200 2.028 . S
Zn201 O205 2.035 . S
Zn201 O207 2.035 . S
Zn201 O208 2.028 . S
O202 C198 1.258 . S
O202 Zn203 2.035 . S
Zn203 O202 2.035 . S
Zn203 O204 2.028 . S
Zn203 O206 2.028 . S
Zn203 O209 2.035 . S
O204 Zn203 2.028 . S
O204 C210 1.247 . S
O205 Zn201 2.035 . S
O205 C210 1.258 . S
O206 C199 1.247 . S
O206 Zn203 2.028 . S
O207 C199 1.258 . S
O207 Zn201 2.035 . S
O208 Zn201 2.028 . S
O208 C211 1.247 . S
O209 Zn203 2.035 . S
O209 C211 1.258 . S
C210 O204 1.247 . S
C210 O205 1.258 . S
C211 O208 1.247 . S
C211 O209 1.258 . S
C212 O214 1.247 . S
C212 O216 1.258 . S
C213 O220 1.247 . S
C213 O221 1.258 . S
O214 C212 1.247 . S
O214 Zn215 2.028 1_655 S
Zn215 O214 2.028 1_455 S
Zn215 O219 2.035 . S
Zn215 O221 2.035 . S
Zn215 O222 2.028 1_455 S
O216 C212 1.258 . S
O216 Zn217 2.035 1_655 S
Zn217 O216 2.035 1_455 S
Zn217 O218 2.028 . S
Zn217 O220 2.028 . S
Zn217 O223 2.035 1_455 S
O218 Zn217 2.028 . S
O218 C224 1.247 . S
O219 Zn215 2.035 . S
O219 C224 1.258 . S
O220 C213 1.247 . S
O220 Zn217 2.028 . S
O221 C213 1.258 . S
O221 Zn215 2.035 . S
O222 Zn215 2.028 1_655 S
O222 C225 1.247 . S
O223 Zn217 2.035 1_655 S
O223 C225 1.258 . S
C224 O218 1.247 . S
C224 O219 1.258 . S
C225 O222 1.247 . S
C225 O223 1.258 . S
C226 O228 1.247 . S
C226 O230 1.258 . S
C227 O234 1.247 . S
C227 O235 1.258 . S
O228 C226 1.247 . S
O228 Zn229 2.028 . S
Zn229 O228 2.028 . S
Zn229 O233 2.035 1_545 S
Zn229 O235 2.035 1_545 S
Zn229 O236 2.028 . S
O230 C226 1.258 . S
O230 Zn231 2.035 . S
Zn231 O230 2.035 . S
Zn231 O232 2.028 1_545 S
Zn231 O234 2.028 1_545 S
Zn231 O237 2.035 . S
O232 Zn231 2.028 1_565 S
O232 C238 1.247 . S
O233 Zn229 2.035 1_565 S
O233 C238 1.258 . S
O234 C227 1.247 . S
O234 Zn231 2.028 1_565 S
O235 C227 1.258 . S
O235 Zn229 2.035 1_565 S
O236 Zn229 2.028 . S
O236 C239 1.247 . S
O237 Zn231 2.035 . S
O237 C239 1.258 . S
C238 O232 1.247 . S
C238 O233 1.258 . S
C239 O236 1.247 . S
C239 O237 1.258 . S
C240 O242 1.247 . S
C240 O244 1.258 . S
C241 O248 1.247 . S
C241 O249 1.258 . S
O242 C240 1.247 . S
O242 Zn243 2.027 . S
Zn243 O242 2.027 . S
Zn243 O247 2.034 . S
Zn243 O249 2.036 1_554 S
Zn243 O250 2.029 1_554 S
O244 C240 1.258 . S
O244 Zn245 2.035 . S
Zn245 O244 2.035 . S
Zn245 O246 2.028 . S
Zn245 O248 2.028 1_554 S
Zn245 O251 2.035 1_554 S
O246 Zn245 2.028 . S
O246 C252 1.247 . S
O247 Zn243 2.034 . S
O247 C252 1.258 . S
O248 C241 1.247 . S
O248 Zn245 2.028 1_556 S
O249 C241 1.258 . S
O249 Zn243 2.036 1_556 S
O250 Zn243 2.029 1_556 S
O250 C253 1.247 . S
O251 Zn245 2.035 1_556 S
O251 C253 1.258 . S
C252 O246 1.247 . S
C252 O247 1.258 . S
C253 O250 1.247 . S
C253 O251 1.258 . S
C254 O256 1.247 . S
C254 O258 1.258 . S
C255 O262 1.247 . S
C255 O263 1.258 . S
O256 C254 1.247 . S
O256 Zn257 2.028 . S
Zn257 O256 2.028 . S
Zn257 O261 2.035 . S
Zn257 O263 2.035 1_554 S
Zn257 O264 2.028 1_554 S
O258 C254 1.258 . S
O258 Zn259 2.035 . S
Zn259 O258 2.035 . S
Zn259 O260 2.028 . S
Zn259 O262 2.028 1_554 S
Zn259 O265 2.035 1_554 S
O260 Zn259 2.028 . S
O260 C266 1.247 . S
O261 Zn257 2.035 . S
O261 C266 1.258 . S
O262 C255 1.247 . S
O262 Zn259 2.028 1_556 S
O263 C255 1.258 . S
O263 Zn257 2.035 1_556 S
O264 Zn257 2.028 1_556 S
O264 C267 1.247 . S
O265 Zn259 2.035 1_556 S
O265 C267 1.258 . S
C266 O260 1.247 . S
C266 O261 1.258 . S
C267 O264 1.247 . S
C267 O265 1.258 . S
C268 O270 1.247 . S
C268 O272 1.258 . S
C269 O276 1.247 . S
C269 O277 1.258 . S
O270 C268 1.247 . S
O270 Zn271 2.028 1_556 S
Zn271 O270 2.028 1_554 S
Zn271 O275 2.035 1_554 S
Zn271 O277 2.035 . S
Zn271 O278 2.028 . S
O272 C268 1.258 . S
O272 Zn273 2.035 1_556 S
Zn273 O272 2.035 1_554 S
Zn273 O274 2.028 1_554 S
Zn273 O276 2.028 . S
Zn273 O279 2.035 . S
O274 Zn273 2.028 1_556 S
O274 C280 1.247 . S
O275 Zn271 2.035 1_556 S
O275 C280 1.258 . S
O276 C269 1.247 . S
O276 Zn273 2.028 . S
O277 C269 1.258 . S
O277 Zn271 2.035 . S
O278 Zn271 2.028 . S
O278 C281 1.247 . S
O279 Zn273 2.035 . S
O279 C281 1.258 . S
C280 O274 1.247 . S
C280 O275 1.258 . S
C281 O278 1.247 . S
C281 O279 1.258 . S
C282 O284 1.247 . S
C282 O286 1.258 . S
C283 O290 1.247 . S
C283 O291 1.258 . S
O284 C282 1.247 . S
O284 Zn285 2.028 . S
Zn285 O284 2.028 . S
Zn285 O289 2.035 . S
Zn285 O291 2.035 1_554 S
Zn285 O292 2.028 1_554 S
O286 C282 1.258 . S
O286 Zn287 2.035 . S
Zn287 O286 2.035 . S
Zn287 O288 2.028 . S
Zn287 O290 2.028 1_554 S
Zn287 O293 2.035 1_554 S
O288 Zn287 2.028 . S
O288 C294 1.247 . S
O289 Zn285 2.035 . S
O289 C294 1.258 . S
O290 C283 1.247 . S
O290 Zn287 2.028 1_556 S
O291 C283 1.258 . S
O291 Zn285 2.035 1_556 S
O292 Zn285 2.028 1_556 S
O292 C295 1.247 . S
O293 Zn287 2.035 1_556 S
O293 C295 1.258 . S
C294 O288 1.247 . S
C294 O289 1.258 . S
C295 O292 1.247 . S
C295 O293 1.258 . S
C185 C16 1.775 . S
C211 C30 1.790 . S
C225 C53 1.771 . S
C227 C76 1.883 . S
N104 C224 1.363 . S
C226 N127 1.459 . S
C184 N140 1.425 1_455 S
C210 N173 1.389 1_545 S
C212 C168 1.683 . S
C238 C99 1.691 . S
C196 C122 1.668 . S
C198 C154 1.654 . S
C197 N35 1.395 1_455 S
C199 N58 1.423 1_545 S
C213 N81 1.385 . S
C239 N2 1.597 . S
C241 C177 1.749 . S
C108 C267 1.840 . S
C131 C280 1.770 . S
C145 C283 1.812 . S
N25 C281 1.452 . S
N48 C282 1.581 . S
N71 C240 1.457 . S
C266 N12 1.451 . S
C269 C7 1.679 . S
C39 C294 1.686 . S
C62 C252 1.659 . S
C85 C254 1.685 . S
C253 N94 1.441 . S
C255 N117 1.563 . S
N150 C268 1.382 . S
C295 N163 1.513 . S
