# Generated by pormake.
# Topology myd, (4,6)-cn, num edge types: 1
# Building blocks:
#     Node 0, Type 0, BuildingBlock: NAWXER_clean_sbu_0, # of connection points: 4
#     Node 1, Type 0, BuildingBlock: NAWXER_clean_sbu_0, # of connection points: 4
#     Node 2, Type 0, BuildingBlock: NAWXER_clean_sbu_0, # of connection points: 4
#     Node 3, Type 0, BuildingBlock: NAWXER_clean_sbu_0, # of connection points: 4
#     Node 4, Type 0, BuildingBlock: NAWXER_clean_sbu_0, # of connection points: 4
#     Node 5, Type 0, BuildingBlock: NAWXER_clean_sbu_0, # of connection points: 4
#     Node 6, Type 0, BuildingBlock: NAWXER_clean_sbu_0, # of connection points: 4
#     Node 7, Type 0, BuildingBlock: NAWXER_clean_sbu_0, # of connection points: 4
#     Node 8, Type 0, BuildingBlock: NAWXER_clean_sbu_0, # of connection points: 4
#     Node 9, Type 0, BuildingBlock: NAWXER_clean_sbu_0, # of connection points: 4
#     Node 10, Type 0, BuildingBlock: NAWXER_clean_sbu_0, # of connection points: 4
#     Node 11, Type 0, BuildingBlock: NAWXER_clean_sbu_0, # of connection points: 4
#     Node 12, Type 1, BuildingBlock: JUFBIX_clean_sbu_0, # of connection points: 6
#     Node 13, Type 1, BuildingBlock: JUFBIX_clean_sbu_0, # of connection points: 6
#     Node 14, Type 1, BuildingBlock: JUFBIX_clean_sbu_0, # of connection points: 6
#     Node 15, Type 1, BuildingBlock: JUFBIX_clean_sbu_0, # of connection points: 6
#     Node 16, Type 1, BuildingBlock: JUFBIX_clean_sbu_0, # of connection points: 6
#     Node 17, Type 1, BuildingBlock: JUFBIX_clean_sbu_0, # of connection points: 6
#     Node 18, Type 1, BuildingBlock: JUFBIX_clean_sbu_0, # of connection points: 6
#     Node 19, Type 1, BuildingBlock: JUFBIX_clean_sbu_0, # of connection points: 6
#     Edge 20, Type (0, 1), BuildingBlock: XUDNAN_clean_linker_2, # of connection points: 2
#     Edge 21, Type (0, 1), BuildingBlock: XUDNAN_clean_linker_2, # of connection points: 2
#     Edge 22, Type (0, 1), BuildingBlock: XUDNAN_clean_linker_2, # of connection points: 2
#     Edge 23, Type (0, 1), BuildingBlock: XUDNAN_clean_linker_2, # of connection points: 2
#     Edge 24, Type (0, 1), BuildingBlock: XUDNAN_clean_linker_2, # of connection points: 2
#     Edge 25, Type (0, 1), BuildingBlock: XUDNAN_clean_linker_2, # of connection points: 2
#     Edge 26, Type (0, 1), BuildingBlock: XUDNAN_clean_linker_2, # of connection points: 2
#     Edge 27, Type (0, 1), BuildingBlock: XUDNAN_clean_linker_2, # of connection points: 2
#     Edge 28, Type (0, 1), BuildingBlock: XUDNAN_clean_linker_2, # of connection points: 2
#     Edge 29, Type (0, 1), BuildingBlock: XUDNAN_clean_linker_2, # of connection points: 2
#     Edge 30, Type (0, 1), BuildingBlock: XUDNAN_clean_linker_2, # of connection points: 2
#     Edge 31, Type (0, 1), BuildingBlock: XUDNAN_clean_linker_2, # of connection points: 2
#     Edge 32, Type (0, 1), BuildingBlock: XUDNAN_clean_linker_2, # of connection points: 2
#     Edge 33, Type (0, 1), BuildingBlock: XUDNAN_clean_linker_2, # of connection points: 2
#     Edge 34, Type (0, 1), BuildingBlock: XUDNAN_clean_linker_2, # of connection points: 2
#     Edge 35, Type (0, 1), BuildingBlock: XUDNAN_clean_linker_2, # of connection points: 2
#     Edge 36, Type (0, 1), BuildingBlock: XUDNAN_clean_linker_2, # of connection points: 2
#     Edge 37, Type (0, 1), BuildingBlock: XUDNAN_clean_linker_2, # of connection points: 2
#     Edge 38, Type (0, 1), BuildingBlock: XUDNAN_clean_linker_2, # of connection points: 2
#     Edge 39, Type (0, 1), BuildingBlock: XUDNAN_clean_linker_2, # of connection points: 2
#     Edge 40, Type (0, 1), BuildingBlock: XUDNAN_clean_linker_2, # of connection points: 2
#     Edge 41, Type (0, 1), BuildingBlock: XUDNAN_clean_linker_2, # of connection points: 2
#     Edge 42, Type (0, 1), BuildingBlock: XUDNAN_clean_linker_2, # of connection points: 2
#     Edge 43, Type (0, 1), BuildingBlock: XUDNAN_clean_linker_2, # of connection points: 2
#     Edge 44, Type (0, 1), BuildingBlock: XUDNAN_clean_linker_2, # of connection points: 2
#     Edge 45, Type (0, 1), BuildingBlock: XUDNAN_clean_linker_2, # of connection points: 2
#     Edge 46, Type (0, 1), BuildingBlock: XUDNAN_clean_linker_2, # of connection points: 2
#     Edge 47, Type (0, 1), BuildingBlock: XUDNAN_clean_linker_2, # of connection points: 2
#     Edge 48, Type (0, 1), BuildingBlock: XUDNAN_clean_linker_2, # of connection points: 2
#     Edge 49, Type (0, 1), BuildingBlock: XUDNAN_clean_linker_2, # of connection points: 2
#     Edge 50, Type (0, 1), BuildingBlock: XUDNAN_clean_linker_2, # of connection points: 2
#     Edge 51, Type (0, 1), BuildingBlock: XUDNAN_clean_linker_2, # of connection points: 2
#     Edge 52, Type (0, 1), BuildingBlock: XUDNAN_clean_linker_2, # of connection points: 2
#     Edge 53, Type (0, 1), BuildingBlock: XUDNAN_clean_linker_2, # of connection points: 2
#     Edge 54, Type (0, 1), BuildingBlock: XUDNAN_clean_linker_2, # of connection points: 2
#     Edge 55, Type (0, 1), BuildingBlock: XUDNAN_clean_linker_2, # of connection points: 2
#     Edge 56, Type (0, 1), BuildingBlock: XUDNAN_clean_linker_2, # of connection points: 2
#     Edge 57, Type (0, 1), BuildingBlock: XUDNAN_clean_linker_2, # of connection points: 2
#     Edge 58, Type (0, 1), BuildingBlock: XUDNAN_clean_linker_2, # of connection points: 2
#     Edge 59, Type (0, 1), BuildingBlock: XUDNAN_clean_linker_2, # of connection points: 2
#     Edge 60, Type (0, 1), BuildingBlock: XUDNAN_clean_linker_2, # of connection points: 2
#     Edge 61, Type (0, 1), BuildingBlock: XUDNAN_clean_linker_2, # of connection points: 2
#     Edge 62, Type (0, 1), BuildingBlock: XUDNAN_clean_linker_2, # of connection points: 2
#     Edge 63, Type (0, 1), BuildingBlock: XUDNAN_clean_linker_2, # of connection points: 2
#     Edge 64, Type (0, 1), BuildingBlock: XUDNAN_clean_linker_2, # of connection points: 2
#     Edge 65, Type (0, 1), BuildingBlock: XUDNAN_clean_linker_2, # of connection points: 2
#     Edge 66, Type (0, 1), BuildingBlock: XUDNAN_clean_linker_2, # of connection points: 2
#     Edge 67, Type (0, 1), BuildingBlock: XUDNAN_clean_linker_2, # of connection points: 2
# Relax obj value: 0.265
# Max RMSD: 0.230
# Mean RMSD: 0.144
data_MOF--net-myd--node1-NAWXER_clean_sbu_0--node2-JUFBIX_clean_sbu_0--edge1-XUDNAN_clean_linker_2
_symmetry_space_group_name_H-M    P1
_symmetry_Int_Tables_number       1
_symmetry_cell_setting            triclinic
loop_
_symmetry_equiv_pos_as_xyz
'x, y, z'
_cell_length_a     44.199678
_cell_length_b     47.098637
_cell_length_c     46.272141
_cell_angle_alpha  90.015395
_cell_angle_beta   87.213458
_cell_angle_gamma 91.456372
loop_
_atom_site_label
_atom_site_type_symbol
_atom_site_fract_x
_atom_site_fract_y
_atom_site_fract_z
_atom_type_partial_charge
C0 C 0.0397 0.1909 0.29181 0.0
C1 C 0.04838 0.26856 0.36187 0.0
O2 O 0.06282 0.20708 0.29501 0.0
Zn3 Zn 0.04657 0.22741 0.32867 0.0
O4 O 0.016 0.19353 0.3086 0.0
Zn5 Zn 1.0006 0.21969 0.34404 0.0
O6 O 0.96728 0.2393 0.32693 0.0
O7 O 1.01294 0.25184 0.30897 0.0
O8 O 0.0227 0.25527 0.36327 0.0
O9 O 0.07005 0.25849 0.34625 0.0
O10 O 0.04078 0.19381 0.36017 0.0
O11 O 0.99258 0.19266 0.37521 0.0
C12 C 0.9842 0.25498 0.31016 0.0
C13 C 0.01901 0.18281 0.37614 0.0
C14 C 0.0717 0.75458 0.21631 0.0
C15 C 0.03945 0.68043 0.14978 0.0
O16 O 0.08932 0.7389 0.20111 0.0
Zn17 Zn 0.05698 0.71816 0.18221 0.0
O18 O 0.04293 0.75096 0.2156 0.0
Zn19 Zn 1.01047 0.72483 0.19485 0.0
O20 O 0.99146 0.70439 0.2279 0.0
O21 O 0.03857 0.6919 0.21749 0.0
O22 O 0.01747 0.69139 0.16454 0.0
O23 O 0.06625 0.6904 0.15192 0.0
O24 O 0.03693 0.75251 0.15987 0.0
O25 O 0.98857 0.75314 0.17401 0.0
C26 C 0.01376 0.68882 0.23289 0.0
C27 C 1.01086 0.76367 0.15881 0.0
C28 C 0.34824 0.99429 0.19963 0.0
C29 C 0.27224 0.97679 0.27849 0.0
O30 O 0.33736 0.97074 0.20924 0.0
Zn31 Zn 0.30944 0.98517 0.23893 0.0
O32 O 0.33962 0.0174 0.21179 0.0
Zn33 Zn 0.30859 0.02933 0.24673 0.0
O34 O 0.33403 0.04637 0.27601 0.0
O35 O 0.33784 0.99997 0.27261 0.0
O36 O 0.27855 1.00329 0.27453 0.0
O37 O 0.28447 0.95848 0.26173 0.0
O38 O 0.27659 1.00736 0.21466 0.0
O39 O 0.2809 0.05257 0.22659 0.0
C40 C 0.34461 0.02337 0.28523 0.0
C41 C 0.26839 0.03313 0.21188 0.0
C42 C 0.74906 0.48316 0.24338 0.0
C43 C 0.67314 0.49189 0.32455 0.0
O44 O 0.73642 0.46252 0.25756 0.0
Zn45 Zn 0.71178 0.48581 0.28462 0.0
O46 O 0.74426 0.50866 0.2516 0.0
Zn47 Zn 0.7177 0.53131 0.28324 0.0
O48 O 0.74803 0.54952 0.30692 0.0
O49 O 0.74424 0.50306 0.31267 0.0
O50 O 0.68453 0.51575 0.31534 0.0
O51 O 0.6816 0.46905 0.31225 0.0
O52 O 0.68545 0.50705 0.25427 0.0
O53 O 0.69509 0.55326 0.25637 0.0
C54 C 0.75599 0.52712 0.31957 0.0
C55 C 0.68181 0.53219 0.24468 0.0
C56 C 0.2194 0.38103 0.01572 0.0
C57 C 0.28476 0.29898 1.0114 0.0
O58 O 0.22691 0.36653 0.99346 0.0
Zn59 Zn 0.2556 0.34212 1.01148 0.0
O60 O 0.23247 0.37686 0.03942 0.0
Zn61 Zn 0.26463 0.34848 0.05581 0.0
O62 O 0.29955 0.37138 0.06504 0.0
O63 O 0.29631 0.3667 0.01794 0.0
O64 O 0.28367 0.31118 0.03616 0.0
O65 O 0.27191 0.30994 0.99022 0.0
O66 O 0.2255 0.32078 0.04295 0.0
O67 O 0.24022 0.3308 0.08707 0.0
C68 C 0.31067 0.37595 0.03961 0.0
C69 C 0.22203 0.31827 0.07049 0.0
C70 C 0.22874 0.7337 0.49666 0.0
C71 C 0.31362 0.66702 0.49519 0.0
O72 O 0.24571 0.72783 0.47451 0.0
Zn73 Zn 0.27091 0.70032 0.49401 0.0
O74 O 0.23337 0.72173 0.52085 0.0
Zn75 Zn 0.26233 0.69173 0.53924 0.0
O76 O 0.28262 0.71486 0.56769 0.0
O77 O 0.29461 0.72771 0.52266 0.0
O78 O 0.29943 0.66894 0.51991 0.0
O79 O 0.30464 0.68123 0.47396 0.0
O80 O 0.2384 0.66656 0.50382 0.0
O81 O 0.23264 0.66253 0.5514 0.0
C82 C 0.29738 0.7312 0.54988 0.0
C83 C 0.22553 0.65467 0.52628 0.0
C84 C 0.71678 0.88467 0.52041 0.0
C85 C 0.79834 0.82013 0.49004 0.0
O86 O 0.72326 0.87595 0.49491 0.0
Zn87 Zn 0.7593 0.85442 0.50318 0.0
O88 O 0.73414 0.87848 0.54081 0.0
Zn89 Zn 0.7734 0.8539 0.54699 0.0
O90 O 0.80565 0.87976 0.558 0.0
O91 O 0.79545 0.88402 0.51199 0.0
O92 O 0.79796 0.82736 0.51676 0.0
O93 O 0.77937 0.83079 0.47348 0.0
O94 O 0.74044 0.82127 0.53024 0.0
O95 O 0.75722 0.82513 0.57436 0.0
C96 C 0.81162 0.89095 0.53332 0.0
C97 C 0.74131 0.812 0.55619 0.0
C98 C 0.48246 0.75875 0.8067 0.0
C99 C 0.51657 0.6848 0.87043 0.0
O100 O 0.46671 0.7458 0.82658 0.0
Zn101 Zn 0.49943 0.72308 0.83975 0.0
O102 O 0.51053 0.75314 0.8024 0.0
Zn103 Zn 0.54375 0.72665 0.82016 0.0
O104 O 0.55548 0.70496 0.78627 0.0
O105 O 0.50848 0.69568 0.80275 0.0
O106 O 0.53787 0.69374 0.85261 0.0
O107 O 0.49118 0.69685 0.87134 0.0
O108 O 0.52715 0.756 0.85741 0.0
O109 O 0.57192 0.75549 0.83442 0.0
C110 C 0.53055 0.69113 0.78435 0.0
C111 C 0.55394 0.76668 0.85315 0.0
C112 C 0.51638 0.18392 0.73487 0.0
C113 C 0.51452 0.26096 0.66301 0.0
O114 O 0.49435 0.19988 0.7302 0.0
Zn115 Zn 0.51376 0.22239 0.6985 0.0
O116 O 0.54141 0.18751 0.72005 0.0
Zn117 Zn 0.56039 0.21469 0.68663 0.0
O118 O 0.59241 0.23554 0.70598 0.0
O119 O 0.54597 0.24784 0.71971 0.0
O120 O 0.53992 0.24834 0.6632 0.0
O121 O 0.49252 0.25256 0.67996 0.0
O122 O 0.52112 0.19242 0.6642 0.0
O123 O 0.57061 0.18752 0.65679 0.0
C124 C 0.57467 0.25135 0.72082 0.0
C125 C 0.54362 0.181 0.65053 0.0
C126 C 0.76559 0.52152 0.71305 0.0
C127 C 0.84338 0.5288 0.78668 0.0
O128 O 0.77376 0.5446 0.72519 0.0
Zn129 Zn 0.80677 0.52873 0.74713 0.0
O130 O 0.77987 0.49878 0.71781 0.0
Zn131 Zn 0.81626 0.48414 0.74193 0.0
O132 O 0.79553 0.45572 0.76698 0.0
O133 O 0.78095 0.4998 0.77493 0.0
O134 O 0.84075 0.50482 0.77403 0.0
O135 O 0.82872 0.54973 0.7776 0.0
O136 O 0.84017 0.51997 0.71313 0.0
O137 O 0.84666 0.47373 0.71259 0.0
C138 C 0.77892 0.47326 0.78097 0.0
C139 C 0.85317 0.49818 0.70205 0.0
C140 C 0.24196 1.00699 0.74019 0.0
C141 C 0.1648 0.00997 0.82129 0.0
O142 O 0.23999 0.98465 0.75606 0.0
Zn143 Zn 0.21457 0.96791 0.79332 0.0
O144 O 0.22555 0.02807 0.74701 0.0
Zn145 Zn 0.20333 0.01011 0.78043 0.0
O146 O 0.23668 1.00793 0.81209 0.0
O147 O 0.24636 0.96299 0.82064 0.0
O148 O 0.17037 0.02869 0.80177 0.0
O149 O 0.17948 0.98682 0.82032 0.0
O150 O 0.19435 0.9353 0.77524 0.0
O151 O 0.18107 0.97683 0.75848 0.0
C152 C 0.25111 0.98926 0.82568 0.0
C153 C 0.17951 0.94971 0.75776 0.0
C154 C 0.71577 0.16071 0.02662 0.0
C155 C 0.79196 0.23433 0.04922 0.0
O156 O 0.71908 0.1725 0.05104 0.0
Zn157 Zn 0.75328 0.19775 0.03934 0.0
O158 O 0.73294 0.16841 1.00476 0.0
Zn159 Zn 0.76858 0.19907 0.9948 0.0
O160 O 0.80241 0.17579 0.98132 0.0
O161 O 0.78887 0.16893 0.02743 0.0
O162 O 0.79162 0.22783 0.02237 0.0
O163 O 0.77363 0.2217 0.06733 0.0
O164 O 0.73156 0.22877 0.01406 0.0
O165 O 0.74922 0.22493 0.96888 0.0
C166 C 0.80594 0.16305 1.00513 0.0
C167 C 0.73175 0.23686 0.98762 0.0
Co168 Co 0.04323 0.03991 0.06814 0.0
C169 C 0.03829 0.08157 0.11148 0.0
Co170 Co 0.05691 0.08351 0.05409 0.0
C171 C 0.03579 0.97689 0.07758 0.0
C172 C 1.00123 1.00268 0.09708 0.0
N173 N 0.02768 1.00437 0.08119 0.0
N174 N 0.01504 0.95859 0.09041 0.0
C175 C 0.99346 0.97488 0.10262 0.0
H176 H 0.05577 0.97043 0.06506 0.0
H177 H 0.98786 0.02067 0.10375 0.0
C178 C 0.06315 0.04326 1.01022 0.0
N179 N 0.07008 0.11934 0.04239 0.0
C180 C 0.08653 0.1381 0.05758 0.0
C181 C 0.06128 0.13403 0.01936 0.0
N182 N 0.0877 0.16402 0.04529 0.0
C183 C 0.07193 0.16165 0.02122 0.0
C184 C 0.10312 0.05223 0.07798 0.0
O185 O 0.05381 0.02523 0.02955 0.0
O186 O 0.06597 0.06929 0.01694 0.0
O187 O 0.09629 0.07515 0.06555 0.0
O188 O 0.08317 0.03218 0.0808 0.0
O189 O 0.04796 0.09787 0.09119 0.0
H190 H 0.04678 0.12558 1.00308 0.0
H191 H 0.09584 0.13333 0.0782 0.0
O192 O 0.03358 0.0554 0.10608 0.0
O193 O 1.00315 0.04871 0.05581 0.0
O194 O 0.01741 0.09187 0.04315 0.0
C195 C 0.99668 0.07285 0.04576 0.0
H196 H 0.97317 0.96709 0.11444 0.0
H197 H 0.0678 0.17882 1.00648 0.0
Co198 Co 0.9627 0.4388 0.09508 0.0
C199 C 0.97145 0.49519 0.07791 0.0
Co200 Co 0.95008 0.44737 0.05024 0.0
C201 C 0.95684 0.4129 0.15115 0.0
C202 C 0.9923 0.4447 0.14934 0.0
N203 N 0.97095 0.43234 0.13339 0.0
N204 N 0.96875 0.41218 0.17744 0.0
C205 C 0.99104 0.43235 0.17639 0.0
H206 H 0.93883 0.39879 0.14444 0.0
H207 H 1.00816 0.46119 0.14162 0.0
C208 C 0.93998 0.39102 0.06838 0.0
N209 N 0.94157 0.45256 1.01123 0.0
C210 C 0.92692 0.47255 0.99643 0.0
C211 C 0.9517 0.43437 0.99073 0.0
N212 N 0.92764 0.4673 0.96745 0.0
C213 C 0.9435 0.4433 0.96419 0.0
C214 C 1.01133 0.43347 0.05691 0.0
O215 O 0.95314 0.3997 0.09059 0.0
O216 O 0.93684 0.40831 0.04769 0.0
O217 O 0.99158 0.43794 0.03837 0.0
O218 O 1.00331 0.43295 0.08359 0.0
O219 O 0.96304 0.48621 0.05353 0.0
H220 H 0.96469 0.41575 0.99477 0.0
H221 H 0.91599 0.49046 1.00673 0.0
O222 O 0.97176 0.47811 0.09919 0.0
O223 O 0.92261 0.44473 0.10667 0.0
O224 O 0.90901 0.45686 0.06342 0.0
C225 C 0.90228 0.45256 0.09028 0.0
H226 H 1.00583 0.43756 0.19369 0.0
H227 H 0.94952 0.43288 0.94398 0.0
Co228 Co 0.08386 0.94909 0.48394 0.0
C229 C 0.13161 0.95208 0.44203 0.0
Co230 Co 0.07193 0.93643 0.4398 0.0
C231 C 0.09417 0.9457 0.54545 0.0
C232 C 0.11071 0.98478 0.52614 0.0
N233 N 0.0952 0.96058 0.52038 0.0
N234 N 0.10895 0.9595 0.56635 0.0
C235 C 0.11924 0.98415 0.55429 0.0
H236 H 0.08441 0.92447 0.54783 0.0
H237 H 0.11674 1.00123 0.51045 0.0
C238 C 0.0232 0.934 0.48033 0.0
N239 N 0.06207 0.92439 0.40338 0.0
C240 C 0.07889 0.907 0.38636 0.0
C241 C 0.03733 0.92937 0.38852 0.0
N242 N 0.06569 0.90049 0.36141 0.0
C243 C 0.03944 0.91468 0.36275 0.0
C244 C 0.09264 0.8922 0.47344 0.0
O245 O 0.04266 0.942 0.4983 0.0
O246 O 0.03171 0.92952 0.45412 0.0
O247 O 0.08287 0.89827 0.44889 0.0
O248 O 0.09398 0.91136 0.49262 0.0
O249 O 0.11119 0.94372 0.42568 0.0
H250 H 0.01873 0.94231 0.39618 0.0
H251 H 0.10037 0.8991 0.39257 0.0
O252 O 0.1252 0.95612 0.46881 0.0
O253 O 0.07343 0.98704 0.4748 0.0
O254 O 0.06191 0.9746 0.43082 0.0
C255 C 0.06424 0.99368 0.45012 0.0
H256 H 0.13273 1.00022 0.56486 0.0
H257 H 0.02237 0.91401 0.34678 0.0
Co258 Co 0.96923 0.58399 0.47053 0.0
C259 C 0.03031 0.56996 0.47851 0.0
Co260 Co 0.98206 0.54011 0.45823 0.0
C261 C 0.94167 0.63896 0.46675 0.0
C262 C 0.97372 0.63774 0.49989 0.0
N263 N 0.96141 0.62177 0.47914 0.0
N264 N 0.94093 0.66499 0.47911 0.0
C265 C 0.96131 0.66423 0.49989 0.0
H266 H 0.9275 0.63217 0.44951 0.0
H267 H 0.99035 0.6305 0.51442 0.0
C268 C 0.92158 0.55389 0.44954 0.0
N269 N 0.98806 0.50137 0.45052 0.0
C270 C 1.00808 0.48599 0.43412 0.0
C271 C 0.96848 0.48171 0.46243 0.0
N272 N 1.00123 0.45769 0.43545 0.0
C273 C 0.9765 0.45526 0.45351 0.0
C274 C 0.96007 0.54743 0.51641 0.0
O275 O 0.92877 0.57831 0.45893 0.0
O276 O 0.94117 0.53467 0.44834 0.0
O277 O 0.9713 0.53043 0.4977 0.0
O278 O 0.95676 0.57317 0.50925 0.0
O279 O 0.02281 0.54597 0.46797 0.0
H280 H 0.94905 0.4863 0.47661 0.0
H281 H 0.0267 0.49533 0.42101 0.0
O282 O 1.01045 0.58905 0.48169 0.0
O283 O 0.98106 0.59445 0.43203 0.0
O284 O 0.99263 0.55094 0.41891 0.0
C285 C 0.98988 0.57711 0.41248 0.0
H286 H 0.96687 0.68145 0.51431 0.0
H287 H 0.96487 0.43559 0.45993 0.0
Co288 Co 0.45486 0.94751 0.60031 0.0
C289 C 0.47077 1.00118 0.57843 0.0
Co290 Co 0.44576 0.95337 0.554 0.0
C291 C 0.46409 0.91995 0.65453 0.0
C292 C 0.45321 0.96365 0.66027 0.0
N293 N 0.45978 0.94409 0.63974 0.0
N294 N 0.45963 0.92343 0.68335 0.0
C295 C 0.45295 0.95097 0.6871 0.0
H296 H 0.46799 0.89963 0.64427 0.0
H297 H 0.44686 0.98521 0.65592 0.0
C298 C 0.42918 0.89953 0.57635 0.0
N299 N 0.44015 0.95593 0.5142 0.0
C300 C 0.4266 0.97523 0.49767 0.0
C301 C 0.4499 0.93596 0.49532 0.0
N302 N 0.42743 0.96778 0.46928 0.0
C303 C 0.44225 0.94312 0.46797 0.0
C304 C 0.50484 0.9349 0.56623 0.0
O305 O 0.43953 0.90977 0.5993 0.0
O306 O 0.43033 0.91476 0.55361 0.0
O307 O 0.48756 0.94087 0.54583 0.0
O308 O 0.49418 0.93543 0.59217 0.0
O309 O 0.46066 0.99162 0.55495 0.0
H310 H 0.46181 0.91716 0.50112 0.0
H311 H 0.41592 0.99403 0.50636 0.0
O312 O 0.47005 0.98539 0.60076 0.0
O313 O 0.41571 0.95976 0.60874 0.0
O314 O 0.40474 0.96635 0.56351 0.0
C315 C 0.39697 0.967 0.59046 0.0
H316 H 0.44701 0.96091 0.70762 0.0
H317 H 0.44757 0.93111 0.44852 0.0
Co318 Co 0.53561 0.53383 0.56563 0.0
C319 C 0.53137 0.57742 0.6063 0.0
Co320 Co 0.56079 0.57316 0.55264 0.0
C321 C 0.52513 0.47384 0.57777 0.0
C322 C 0.48643 0.49852 0.58939 0.0
N323 N 0.51482 0.50061 0.57739 0.0
N324 N 0.50439 0.45514 0.58974 0.0
C325 C 0.47999 0.47067 0.59702 0.0
H326 H 0.54781 0.46837 0.57024 0.0
H327 H 0.47157 0.51622 0.59285 0.0
C328 C 0.56659 0.53014 0.51172 0.0
N329 N 0.58142 0.606 0.54142 0.0
C330 C 0.59891 0.6229 0.55765 0.0
C331 C 0.58258 0.61813 0.51501 0.0
N332 N 0.61112 0.64504 0.54235 0.0
C333 C 0.60087 0.64214 0.5155 0.0
C334 C 0.59477 0.53721 0.58455 0.0
O335 O 0.54895 0.51612 0.52945 0.0
O336 O 0.57467 0.5553 0.51821 0.0
O337 O 0.59532 0.56101 0.57168 0.0
O338 O 0.57117 0.52121 0.58361 0.0
O339 O 0.54721 0.59091 0.58703 0.0
H340 H 0.57096 0.60997 0.49659 0.0
H341 H 0.60306 0.61868 0.58009 0.0
O342 O 0.52301 0.55187 0.60144 0.0
O343 O 0.49997 0.54731 0.54791 0.0
O344 O 0.52608 0.58551 0.53388 0.0
C345 C 0.50136 0.5711 0.53477 0.0
H346 H 0.45895 0.46254 0.60717 0.0
H347 H 0.60601 0.65645 0.49753 0.0
Co348 Co 0.58135 0.45251 0.97958 0.0
C349 C 0.62502 0.46127 0.93736 0.0
Co350 Co 0.56498 0.43963 0.93701 0.0
C351 C 0.61318 0.46987 0.03261 0.0
C352 C 0.56576 0.47812 0.03297 0.0
N353 N 0.58846 0.46661 0.01655 0.0
N354 N 0.60611 0.4823 0.05838 0.0
C355 C 0.5764 0.48739 0.05858 0.0
H356 H 0.6357 0.46344 0.02561 0.0
H357 H 0.54277 0.4804 0.0265 0.0
C358 C 0.52067 0.43029 0.97868 0.0
N359 N 0.55665 0.42627 0.90073 0.0
C360 C 0.57536 0.4104 0.88391 0.0
C361 C 0.53115 0.42797 0.88613 0.0
N362 N 0.56256 0.4016 0.85949 0.0
C363 C 0.53468 0.41279 0.86078 0.0
C364 C 0.59481 0.39739 0.96823 0.0
O365 O 0.54194 0.43958 0.99386 0.0
O366 O 0.52559 0.42798 0.95156 0.0
O367 O 0.58029 0.40355 0.94611 0.0
O368 O 0.59767 0.41603 0.98799 0.0
O369 O 0.60375 0.45132 0.92264 0.0
H370 H 0.511 0.43875 0.89386 0.0
H371 H 0.59784 0.40501 0.88993 0.0
O372 O 0.62077 0.46459 0.96456 0.0
O373 O 0.56548 0.48902 0.97035 0.0
O374 O 0.55054 0.47574 0.9278 0.0
C375 C 0.55349 0.49497 0.94673 0.0
H376 H 0.56352 0.49781 0.07585 0.0
H377 H 0.51745 0.4093 0.84524 0.0
Co378 Co 0.46753 0.07232 0.96844 0.0
C379 C 0.52805 0.0608 0.97894 0.0
Co380 Co 0.48188 0.02921 0.95538 0.0
C381 C 0.43095 0.11984 0.98599 0.0
C382 C 0.47516 0.13295 0.9694 0.0
N383 N 0.45783 0.10969 0.97618 0.0
N384 N 0.43067 0.14849 0.98514 0.0
C385 C 0.45849 0.15683 0.97479 0.0
H386 H 0.41145 0.10644 0.9922 0.0
H387 H 0.49804 0.13254 0.96002 0.0
C388 C 0.42162 0.04134 0.94429 0.0
N389 N 0.48998 0.99093 0.94773 0.0
C390 C 0.51344 0.97656 0.93521 0.0
C391 C 0.46939 0.97048 0.95586 0.0
N392 N 0.50804 0.948 0.93562 0.0
C393 C 0.4802 0.94446 0.94846 0.0
C394 C 0.4568 0.03536 0.01304 0.0
O395 O 0.42797 0.06512 0.95567 0.0
O396 O 0.44186 0.02272 0.94227 0.0
O397 O 0.4683 0.01854 0.99423 0.0
O398 O 0.45435 0.06135 1.00647 0.0
O399 O 0.52191 0.0365 0.96817 0.0
H400 H 0.44755 0.97422 0.96656 0.0
H401 H 0.53403 0.98677 0.92629 0.0
O402 O 0.50745 0.0792 0.98108 0.0
O403 O 0.48026 0.08312 0.93025 0.0
O404 O 0.495 0.04071 0.91682 0.0
C405 C 0.49112 0.06676 0.91075 0.0
H406 H 0.46607 0.17859 0.97093 0.0
H407 H 0.46798 0.92444 0.95178 0.0
H408 H 0.05093 0.13668 0.35868 0.0
H409 H 0.99741 0.17026 0.43121 0.0
H410 H 1.0047 0.12596 0.45876 0.0
H411 H 0.01932 0.06614 0.36492 0.0
H412 H 0.05405 0.04907 0.35392 0.0
H413 H 0.04691 0.08424 0.34105 0.0
H414 H 0.09743 0.10267 0.36119 0.0
H415 H 0.10475 0.06753 0.37408 0.0
H416 H 0.10444 0.09711 0.39881 0.0
H417 H 0.01932 0.07842 0.47868 0.0
H418 H 0.03504 0.02927 0.4877 0.0
H419 H 0.07402 0.02461 0.40008 0.0
C420 C 0.04118 0.13481 0.38055 0.0
C421 C 0.02413 0.157 0.39318 0.0
C422 C 1.0108 0.15355 0.4214 0.0
C423 C 0.01488 0.12853 0.43715 0.0
C424 C 0.03172 0.10695 0.42404 0.0
C425 C 0.04427 0.10967 0.3962 0.0
C426 C 0.0594 0.08255 0.38628 0.0
C427 C 0.04399 0.06975 0.35999 0.0
C428 C 0.09353 0.08779 0.37971 0.0
C429 C 0.0536 0.06416 0.41295 0.0
C430 C 0.03807 0.07881 0.43466 0.0
C431 C 0.0312 0.06667 0.46174 0.0
C432 C 0.04028 0.03881 0.46669 0.0
C433 C 0.05542 0.02316 0.44449 0.0
C434 C 0.06206 0.03601 0.41726 0.0
H435 H 1.00101 0.29941 0.38209 0.0
H436 H 0.09866 0.3048 0.36743 0.0
H437 H 0.09815 0.35543 0.38291 0.0
H438 H 0.98695 0.36733 0.35337 0.0
H439 H 0.95546 0.37341 0.37864 0.0
H440 H 0.96455 0.33773 0.368 0.0
H441 H 0.96897 0.32367 0.42188 0.0
H442 H 0.95959 0.3592 0.43266 0.0
H443 H 0.99406 0.34395 0.44404 0.0
H444 H 0.08507 0.4071 0.40113 0.0
H445 H 0.06145 0.45126 0.42026 0.0
H446 H 0.97296 0.40997 0.41754 0.0
C447 C 0.02253 0.31088 0.38252 0.0
C448 C 0.04997 0.29783 0.374 0.0
C449 C 0.07737 0.31416 0.37426 0.0
C450 C 0.07723 0.34299 0.38286 0.0
C451 C 0.04948 0.35524 0.39062 0.0
C452 C 0.0227 0.33945 0.39033 0.0
C453 C 0.99556 0.35704 0.39845 0.0
C454 C 0.97439 0.35899 0.3731 0.0
C455 C 0.97856 0.34527 0.42588 0.0
C456 C 1.01103 0.38527 0.40407 0.0
C457 C 0.04211 0.38419 0.39953 0.0
C458 C 0.06072 0.40803 0.40456 0.0
C459 C 0.04716 0.4331 0.41521 0.0
C460 C 0.01538 0.43403 0.42069 0.0
C461 C 0.99734 0.40993 0.41411 0.0
H462 H 0.05305 0.80666 0.15033 0.0
H463 H 0.96137 0.78109 0.1308 0.0
H464 H 0.95577 0.82651 0.10486 0.0
H465 H 0.03567 0.87756 0.16674 0.0
H466 H 0.07116 0.89257 0.15228 0.0
H467 H 0.06934 0.85669 0.16571 0.0
H468 H 0.09163 0.8389 0.11636 0.0
H469 H 0.09328 0.87477 0.10268 0.0
H470 H 0.07312 0.84736 0.08369 0.0
H471 H 0.95894 0.8754 0.08385 0.0
H472 H 0.96815 0.92648 0.07392 0.0
H473 H 0.05697 0.92205 0.10885 0.0
C474 C 0.03206 0.81038 0.13996 0.0
C475 C 1.00779 0.79014 0.14201 0.0
C476 C 0.98028 0.79618 0.12919 0.0
C477 C 0.97701 0.82185 0.11431 0.0
C478 C 1.00132 0.84142 0.11278 0.0
C479 C 0.02821 0.83616 0.12557 0.0
C480 C 0.04956 0.862 0.12352 0.0
C481 C 0.05685 0.87284 0.15386 0.0
C482 C 0.07862 0.85535 0.10548 0.0
C483 C 0.03034 0.88278 0.10788 0.0
C484 C 1.00282 0.87019 0.10147 0.0
C485 C 0.9805 0.88535 0.08849 0.0
C486 C 0.98595 0.91429 0.08282 0.0
C487 C 1.01339 0.928 0.0902 0.0
C488 C 0.0362 0.91186 0.10223 0.0
H489 H 1.00424 0.63562 0.1675 0.0
H490 H 0.06123 0.66668 0.09488 0.0
H491 H 0.04795 0.62332 0.06695 0.0
H492 H 0.02566 0.56275 0.15993 0.0
H493 H 0.98864 0.54896 0.17155 0.0
H494 H 1.00177 0.58288 0.1846 0.0
H495 H 0.95396 0.60624 0.16591 0.0
H496 H 0.94082 0.57243 0.15255 0.0
H497 H 0.94539 0.60242 0.12839 0.0
H498 H 0.02566 0.57693 0.0466 0.0
H499 H 1.00295 0.52907 0.03817 0.0
H500 H 0.96484 0.52766 0.12626 0.0
C501 C 0.01381 0.63332 0.14564 0.0
C502 C 0.03337 0.65448 0.13304 0.0
C503 C 0.0461 0.6506 0.10473 0.0
C504 C 0.03855 0.62618 0.08876 0.0
C505 C 0.01882 0.60576 0.10177 0.0
C506 C 1.00718 0.60891 0.12983 0.0
C507 C 0.98803 0.58335 0.13971 0.0
C508 C 1.00186 0.56862 0.16546 0.0
C509 C 0.9551 0.59162 0.14706 0.0
C510 C 0.99034 0.5653 0.11274 0.0
C511 C 1.00774 0.57868 0.09087 0.0
C512 C 1.01223 0.56621 0.06368 0.0
C513 C 0.99911 0.53917 0.05901 0.0
C514 C 0.98229 0.52479 0.08161 0.0
C515 C 0.97776 0.53817 0.10867 0.0
H516 H 0.36546 0.04086 0.16642 0.0
H517 H 0.37734 0.94992 0.17293 0.0
H518 H 0.40889 0.95109 0.12734 0.0
H519 H 0.35738 0.04232 0.09089 0.0
H520 H 0.37734 0.07585 0.08515 0.0
H521 H 0.35788 0.06833 0.11947 0.0
H522 H 0.40759 0.07819 0.14563 0.0
H523 H 0.4272 0.08582 0.11135 0.0
H524 H 0.44111 0.05909 0.13482 0.0
H525 H 0.43691 0.96174 0.07967 0.0
H526 H 0.45874 0.98084 0.03335 0.0
H527 H 0.42798 0.06481 0.05744 0.0
C528 C 0.37511 0.02124 0.15855 0.0
C529 C 0.36908 0.9953 0.17344 0.0
C530 C 0.38171 0.97006 0.16203 0.0
C531 C 0.3997 0.97053 0.13615 0.0
C532 C 0.40483 0.99638 0.12183 0.0
C533 C 0.39293 0.02129 0.13264 0.0
C534 C 0.40053 0.046 0.11229 0.0
C535 C 0.37156 0.05887 0.1013 0.0
C536 C 0.42029 0.06861 0.1269 0.0
C537 C 0.41828 0.03104 0.08819 0.0
C538 C 0.42069 1.00246 0.09422 0.0
C539 C 0.43534 0.98412 0.07483 0.0
C540 C 0.44768 0.9952 0.04853 0.0
C541 C 0.44523 0.02437 0.04171 0.0
C542 C 0.43048 0.04247 0.06203 0.0
H543 H 0.6373 0.4986 0.22354 0.0
H544 H 0.69875 0.56911 0.20078 0.0
H545 H 0.68818 0.56247 0.14909 0.0
H546 H 0.6582 0.45494 0.16662 0.0
H547 H 0.6208 0.4406 0.16075 0.0
H548 H 0.63005 0.45296 0.19614 0.0
H549 H 0.58534 0.48759 0.19738 0.0
H550 H 0.57514 0.47449 0.16252 0.0
H551 H 0.58186 0.512 0.16779 0.0
H552 H 0.67481 0.54396 0.09895 0.0
H553 H 0.65222 0.52117 0.0562 0.0
H554 H 0.60006 0.46344 0.11282 0.0
C555 C 0.64765 0.51334 0.20779 0.0
C556 C 0.66852 0.5346 0.21616 0.0
C557 C 0.68212 0.55312 0.1949 0.0
C558 C 0.67662 0.54919 0.16544 0.0
C559 C 0.65722 0.52687 0.15778 0.0
C560 C 0.6423 0.50981 0.1785 0.0
C561 C 0.62307 0.48692 0.1649 0.0
C562 C 0.63368 0.4571 0.17257 0.0
C563 C 0.58936 0.49048 0.17366 0.0
C564 C 0.62969 0.49349 0.13324 0.0
C565 C 0.64966 0.5164 0.1294 0.0
C566 C 0.65907 0.52609 0.10178 0.0
C567 C 0.6466 0.51282 0.07764 0.0
C568 C 0.625 0.49033 0.08146 0.0
C569 C 0.61705 0.48025 0.10953 0.0
H570 H 0.36547 0.97636 0.31167 0.0
H571 H 0.35924 0.06763 0.32185 0.0
H572 H 0.38007 0.06392 0.37051 0.0
H573 H 0.34136 0.95859 0.38313 0.0
H574 H 0.36621 0.92901 0.38557 0.0
H575 H 0.35312 0.93938 0.35098 0.0
H576 H 0.40862 0.94498 0.33054 0.0
H577 H 0.4219 0.9343 0.36498 0.0
H578 H 0.43493 0.96759 0.34902 0.0
H579 H 0.39953 0.04887 0.42015 0.0
H580 H 0.41785 0.02462 0.46337 0.0
H581 H 0.40893 0.94365 0.41959 0.0
C582 C 0.36894 0.99575 0.32378 0.0
C583 C 0.36089 0.02236 0.31268 0.0
C584 C 0.36549 0.04703 0.32967 0.0
C585 C 0.37717 0.04509 0.35743 0.0
C586 C 0.38411 0.01833 0.36795 0.0
C587 C 0.3803 0.99417 0.35141 0.0
C588 C 0.38833 0.96775 0.36766 0.0
C589 C 0.36061 0.9475 0.3721 0.0
C590 C 0.41503 0.95278 0.35213 0.0
C591 C 0.39737 0.98067 0.396 0.0
C592 C 0.39481 0.00984 0.39597 0.0
C593 C 0.40171 0.02604 0.42023 0.0
C594 C 0.4119 0.01208 0.4448 0.0
C595 C 0.41518 0.98221 0.44494 0.0
C596 C 0.40737 0.96652 0.42018 0.0
H597 H 0.65716 0.53684 0.35894 0.0
H598 H 0.64283 0.44579 0.35058 0.0
H599 H 0.61178 0.44533 0.3967 0.0
H600 H 0.66659 0.53713 0.43397 0.0
H601 H 0.64779 0.57024 0.44025 0.0
H602 H 0.6666 0.56345 0.40568 0.0
H603 H 0.61686 0.57267 0.38014 0.0
H604 H 0.59792 0.57964 0.41466 0.0
H605 H 0.5828 0.55287 0.39113 0.0
H606 H 0.58356 0.45533 0.44587 0.0
H607 H 0.56229 0.47458 0.49232 0.0
H608 H 0.597 0.55849 0.46741 0.0
C609 C 0.64717 0.51678 0.36645 0.0
C610 C 0.65233 0.49136 0.35089 0.0
C611 C 0.63909 0.46559 0.36194 0.0
C612 C 0.62142 0.46513 0.38816 0.0
C613 C 0.61721 0.4906 0.40314 0.0
C614 C 0.62975 0.51593 0.39253 0.0
C615 C 0.62325 0.54025 0.41309 0.0
C616 C 0.65281 0.55353 0.42388 0.0
C617 C 0.60406 0.56267 0.3989 0.0
C618 C 0.60532 0.52474 0.43715 0.0
C619 C 0.60176 0.49615 0.43111 0.0
C620 C 0.58619 0.47772 0.45067 0.0
C621 C 0.57415 0.48882 0.47701 0.0
C622 C 0.57798 0.51803 0.48364 0.0
C623 C 0.59366 0.53604 0.46319 0.0
H624 H 0.16564 0.37089 0.9899 0.0
H625 H 0.21154 0.42984 0.04597 0.0
H626 H 0.1632 0.45331 0.05761 0.0
H627 H 0.10639 0.42124 0.96502 0.0
H628 H 0.07751 0.39349 0.96625 0.0
H629 H 0.11646 0.38502 0.95758 0.0
H630 H 0.11415 0.34828 0.99926 0.0
H631 H 0.07547 0.35691 1.00846 0.0
H632 H 0.10344 0.35955 0.03548 0.0
H633 H 0.11003 0.46466 0.07006 0.0
H634 H 0.05478 0.4657 0.08017 0.0
H635 H 0.04144 0.40021 0.01586 0.0
C636 C 0.16568 0.38962 1.00347 0.0
C637 C 0.19245 0.39904 0.01653 0.0
C638 C 0.19141 0.42268 0.03536 0.0
C639 C 0.16403 0.43608 0.04214 0.0
C640 C 0.13778 0.42555 0.02996 0.0
C641 C 0.13831 0.40308 1.01074 0.0
C642 C 0.10631 0.39396 1.0034 0.0
C643 C 0.10138 0.39872 0.97114 0.0
C644 C 0.09945 0.36284 1.01218 0.0
C645 C 0.08776 0.41422 0.02219 0.0
C646 C 0.10653 0.43232 0.03717 0.0
C647 C 0.0951 0.45111 0.05795 0.0
C648 C 0.06373 0.45142 0.06367 0.0
C649 C 0.04399 0.4333 0.04855 0.0
C650 C 0.05609 0.41472 0.0272 0.0
H651 H 0.16635 0.66118 0.54296 0.0
H652 H 0.2278 0.60405 0.49814 0.0
H653 H 0.18421 0.57347 0.48468 0.0
H654 H 0.10732 0.60788 0.56806 0.0
H655 H 0.07689 0.63124 0.56086 0.0
H656 H 0.11297 0.6458 0.57095 0.0
H657 H 0.11614 0.67664 0.5245 0.0
H658 H 0.08026 0.66201 0.51414 0.0
H659 H 0.11318 0.65973 0.48976 0.0
H660 H 0.13378 0.55106 0.47341 0.0
H661 H 0.0806 0.53981 0.46272 0.0
H662 H 0.05181 0.6138 0.51171 0.0
C663 C 0.17054 0.64164 0.53124 0.0
C664 C 0.2003 0.63427 0.52234 0.0
C665 C 0.2051 0.60947 0.50571 0.0
C666 C 0.1805 0.59209 0.49797 0.0
C667 C 0.15127 0.60018 0.50658 0.0
C668 C 0.14617 0.62446 0.52274 0.0
C669 C 0.11257 0.63013 0.52641 0.0
C670 C 0.10181 0.62867 0.55848 0.0
C671 C 0.10511 0.65882 0.51289 0.0
C672 C 0.09959 0.60548 0.50951 0.0
C673 C 0.12225 0.58819 0.49866 0.0
C674 C 0.11585 0.56437 0.48192 0.0
C675 C 0.08555 0.55815 0.47597 0.0
C676 C 0.06201 0.57592 0.48632 0.0
C677 C 0.06926 0.5998 0.50345 0.0
H678 H 0.86533 0.88745 0.5605 0.0
H679 H 0.82248 0.93052 0.49107 0.0
H680 H 0.8722 0.95021 0.47349 0.0
H681 H 0.92739 0.94285 0.5713 0.0
H682 H 0.95475 0.91606 0.57756 0.0
H683 H 0.91534 0.90962 0.58802 0.0
H684 H 0.91557 0.86357 0.55746 0.0
H685 H 0.95474 0.87005 0.54648 0.0
H686 H 0.92692 0.86541 0.51954 0.0
H687 H 0.92593 0.9582 0.4584 0.0
H688 H 0.9812 0.95779 0.44879 0.0
H689 H 0.99118 0.91085 0.52824 0.0
C690 C 0.8663 0.90206 0.5424 0.0
C691 C 0.83995 0.90785 0.5274 0.0
C692 C 0.84229 0.92609 0.50306 0.0
C693 C 0.87046 0.93734 0.49289 0.0
C694 C 0.89616 0.93021 0.50732 0.0
C695 C 0.89442 0.91335 0.53181 0.0
C696 C 0.92593 0.90675 0.54143 0.0
C697 C 0.93116 0.91959 0.57136 0.0
C698 C 0.93107 0.87454 0.5412 0.0
C699 C 0.94556 0.92179 0.51799 0.0
C700 C 0.92775 0.93523 0.49866 0.0
C701 C 0.94014 0.94834 0.47372 0.0
C702 C 0.97153 0.9478 0.46834 0.0
C703 C 0.99036 0.93449 0.48788 0.0
C704 C 0.97727 0.92162 0.51327 0.0
H705 H 0.33262 0.62689 0.53292 0.0
H706 H 0.35885 0.66995 0.45232 0.0
H707 H 0.4085 0.64683 0.45169 0.0
H708 H 0.40229 0.63315 0.56474 0.0
H709 H 0.40053 0.59863 0.58163 0.0
H710 H 0.3661 0.61633 0.57437 0.0
H711 H 0.34792 0.57285 0.54498 0.0
H712 H 0.38228 0.55491 0.55229 0.0
H713 H 0.37177 0.55972 0.51548 0.0
H714 H 0.45765 0.62422 0.46343 0.0
H715 H 0.50091 0.60058 0.48431 0.0
H716 H 0.44195 0.56939 0.55552 0.0
C717 C 0.34857 0.63105 0.51481 0.0
C718 C 0.34175 0.65027 0.49261 0.0
C719 C 0.36337 0.65519 0.46943 0.0
C720 C 0.3917 0.64219 0.46895 0.0
C721 C 0.39793 0.62391 0.49153 0.0
C722 C 0.37676 0.61795 0.51378 0.0
C723 C 0.38946 0.59829 0.53596 0.0
C724 C 0.3896 0.61246 0.56594 0.0
C725 C 0.37181 0.56975 0.53724 0.0
C726 C 0.42141 0.59478 0.52319 0.0
C727 C 0.42584 0.6098 0.49757 0.0
C728 C 0.45422 0.61187 0.48308 0.0
C729 C 0.47867 0.59844 0.49513 0.0
C730 C 0.47462 0.58273 0.52118 0.0
C731 C 0.44548 0.58057 0.53513 0.0
H732 H 0.54446 0.63642 0.85295 0.0
H733 H 0.49657 0.67467 0.92643 0.0
H734 H 0.50151 0.63037 0.95461 0.0
H735 H 0.50792 0.56817 0.86173 0.0
H736 H 0.54086 0.54868 0.84998 0.0
H737 H 0.53585 0.58407 0.8366 0.0
H738 H 0.58833 0.59964 0.85462 0.0
H739 H 0.59357 0.56425 0.86792 0.0
H740 H 0.59638 0.59418 0.89201 0.0
H741 H 0.51347 0.58208 0.97507 0.0
H742 H 0.5269 0.53226 0.98465 0.0
H743 H 0.56151 0.52409 0.89587 0.0
C744 C 0.53547 0.63556 0.87515 0.0
C745 C 0.52066 0.65904 0.88784 0.0
C746 C 0.50826 0.65694 0.91654 0.0
C747 C 0.51099 0.63191 0.93265 0.0
C748 C 0.52554 0.609 0.91943 0.0
C749 C 0.5372 0.61049 0.89118 0.0
C750 C 0.54991 0.58232 0.88134 0.0
C751 C 0.53259 0.57009 0.85591 0.0
C752 C 0.58408 0.58528 0.87352 0.0
C753 C 0.54381 0.56476 0.90851 0.0
C754 C 0.53019 0.58065 0.93041 0.0
C755 C 0.52376 0.56935 0.95797 0.0
C756 C 0.53145 0.54112 0.96323 0.0
C757 C 0.54468 0.52435 0.94086 0.0
C758 C 0.55076 0.53633 0.91315 0.0
H759 H 0.53205 0.78644 0.90508 0.0
H760 H 0.58993 0.81027 0.83037 0.0
H761 H 0.59064 0.86025 0.84708 0.0
H762 H 0.48622 0.84224 0.90458 0.0
H763 H 0.48154 0.8468 0.9432 0.0
H764 H 0.49051 0.81257 0.92853 0.0
H765 H 0.53796 0.81077 0.95917 0.0
H766 H 0.5289 0.84494 0.97438 0.0
H767 H 0.56565 0.83956 0.95692 0.0
H768 H 0.57613 0.90918 0.86744 0.0
H769 H 0.55109 0.95034 0.89102 0.0
H770 H 0.5062 0.89329 0.95389 0.0
C771 C 0.54588 0.80199 0.89286 0.0
C772 C 0.56117 0.79445 0.86661 0.0
C773 C 0.57853 0.81547 0.85086 0.0
C774 C 0.5789 0.84398 0.86012 0.0
C775 C 0.56239 0.85096 0.88553 0.0
C776 C 0.54684 0.8303 0.90203 0.0
C777 C 0.52884 0.84324 0.92712 0.0
C778 C 0.49479 0.83577 0.92574 0.0
C779 C 0.54108 0.83409 0.95612 0.0
C780 C 0.53531 0.87447 0.92138 0.0
C781 C 0.55487 0.87872 0.8975 0.0
C782 C 0.56141 0.90603 0.88661 0.0
C783 C 0.54715 0.92935 0.90016 0.0
C784 C 0.52647 0.92518 0.92424 0.0
C785 C 0.52154 0.89738 0.93536 0.0
H786 H 0.48002 0.30793 0.67393 0.0
H787 H 0.54603 0.27283 0.6123 0.0
H788 H 0.54867 0.31817 0.58541 0.0
H789 H 0.44102 0.35282 0.62283 0.0
H790 H 0.43665 0.38142 0.64847 0.0
H791 H 0.43751 0.34526 0.66106 0.0
H792 H 0.48182 0.35889 0.69351 0.0
H793 H 0.48122 0.39501 0.68088 0.0
H794 H 0.51574 0.37548 0.67736 0.0
H795 H 0.54712 0.3683 0.56726 0.0
H796 H 0.54043 0.41942 0.55844 0.0
H797 H 0.47654 0.42262 0.63252 0.0
C798 C 0.49433 0.30956 0.65429 0.0
C799 C 0.51249 0.28672 0.64492 0.0
C800 C 0.53174 0.28999 0.6197 0.0
C801 C 0.53341 0.31566 0.6043 0.0
C802 C 0.51584 0.33802 0.61448 0.0
C803 C 0.49658 0.33525 0.63884 0.0
C804 C 0.48178 0.3632 0.6463 0.0
C805 C 0.44718 0.3605 0.64455 0.0
C806 C 0.49068 0.37376 0.67628 0.0
C807 C 0.49573 0.38206 0.62236 0.0
C808 C 0.51529 0.36711 0.60424 0.0
C809 C 0.53168 0.38019 0.58119 0.0
C810 C 0.52791 0.4093 0.57646 0.0
C811 C 0.50789 0.42512 0.59467 0.0
C812 C 0.4916 0.41112 0.61787 0.0
H813 H 0.55977 0.12627 0.65427 0.0
H814 H 0.51084 0.18447 0.60257 0.0
H815 H 0.49225 0.14422 0.57319 0.0
H816 H 0.57717 0.07149 0.59702 0.0
H817 H 0.56982 0.04284 0.62243 0.0
H818 H 0.58485 0.07647 0.63462 0.0
H819 H 0.54012 0.07948 0.67278 0.0
H820 H 0.5248 0.04613 0.66054 0.0
H821 H 0.5018 0.0772 0.66112 0.0
H822 H 0.47466 0.09724 0.55314 0.0
H823 H 0.45651 0.04755 0.5465 0.0
H824 H 0.5133 0.02042 0.61464 0.0
C825 C 0.54628 0.1305 0.63589 0.0
C826 C 0.53746 0.15829 0.62983 0.0
C827 C 0.51836 0.16322 0.60684 0.0
C828 C 0.50776 0.14054 0.59012 0.0
C829 C 0.5161 0.11312 0.59712 0.0
C830 C 0.53486 0.10802 0.61958 0.0
C831 C 0.53666 0.07657 0.62568 0.0
C832 C 0.56905 0.06624 0.61956 0.0
C833 C 0.52515 0.06945 0.65687 0.0
C834 C 0.51535 0.06483 0.60379 0.0
C835 C 0.50432 0.08611 0.58697 0.0
C836 C 0.48338 0.08037 0.56598 0.0
C837 C 0.47318 0.05216 0.56237 0.0
C838 C 0.48342 0.03033 0.58017 0.0
C839 C 0.50503 0.03678 0.60082 0.0
H840 H 0.86362 0.54552 0.66768 0.0
H841 H 0.89001 0.45799 0.67731 0.0
H842 H 0.92265 0.46233 0.63261 0.0
H843 H 0.85839 0.54357 0.59165 0.0
H844 H 0.87302 0.57924 0.58551 0.0
H845 H 0.85362 0.57012 0.61947 0.0
H846 H 0.90022 0.58777 0.64688 0.0
H847 H 0.91978 0.59699 0.61296 0.0
H848 H 0.93688 0.5734 0.63775 0.0
H849 H 0.95009 0.47514 0.58555 0.0
H850 H 0.97009 0.4952 0.5391 0.0
H851 H 0.92594 0.57459 0.55934 0.0
C852 C 0.87663 0.52738 0.66066 0.0
C853 C 0.87435 0.50142 0.6762 0.0
C854 C 0.8914 0.4781 0.66592 0.0
C855 C 0.91007 0.48038 0.64054 0.0
C856 C 0.91149 0.50613 0.62559 0.0
C857 C 0.89527 0.52924 0.63525 0.0
C858 C 0.89968 0.55402 0.61432 0.0
C859 C 0.86938 0.56221 0.60201 0.0
C860 C 0.91506 0.57956 0.62885 0.0
C861 C 0.92061 0.5411 0.59119 0.0
C862 C 0.92726 0.5135 0.59827 0.0
C863 C 0.94523 0.49679 0.5799 0.0
C864 C 0.95648 0.50842 0.5535 0.0
C865 C 0.94976 0.53656 0.54552 0.0
C866 C 0.9318 0.55315 0.56488 0.0
H867 H 0.20468 0.95544 0.70486 0.0
H868 H 0.12593 0.9193 0.7518 0.0
H869 H 0.10087 0.9116 0.70531 0.0
H870 H 0.16605 0.99614 0.66108 0.0
H871 H 0.19101 0.99322 0.6293 0.0
H872 H 0.20557 0.98884 0.66453 0.0
H873 H 0.22527 0.93926 0.65066 0.0
H874 H 0.21174 0.94371 0.61486 0.0
H875 H 0.19991 0.91294 0.63609 0.0
H876 H 0.08211 0.91481 0.65373 0.0
H877 H 0.07137 0.9292 0.60365 0.0
H878 H 0.16179 0.96634 0.59266 0.0
C879 C 0.18274 0.94458 0.70513 0.0
C880 C 0.16749 0.93705 0.73156 0.0
C881 C 0.13826 0.92422 0.73155 0.0
C882 C 0.12388 0.92001 0.70527 0.0
C883 C 0.13913 0.92892 0.67949 0.0
C884 C 0.16811 0.94076 0.67937 0.0
C885 C 0.17823 0.95241 0.64994 0.0
C886 C 0.18562 0.98454 0.65133 0.0
C887 C 0.20539 0.93609 0.63711 0.0
C888 C 0.15007 0.94629 0.63356 0.0
C889 C 0.12793 0.93218 0.65061 0.0
C890 C 0.09947 0.92553 0.64018 0.0
C891 C 0.09353 0.93377 0.61179 0.0
C892 C 0.11568 0.94903 0.5945 0.0
C893 C 0.14436 0.95492 0.60552 0.0
H894 H 0.87702 0.48684 0.80751 0.0
H895 H 0.84505 0.57085 0.82926 0.0
H896 H 0.86479 0.56578 0.87845 0.0
H897 H 0.85299 0.45573 0.87302 0.0
H898 H 0.88408 0.43174 0.87363 0.0
H899 H 0.87135 0.44406 0.83962 0.0
H900 H 0.92556 0.46313 0.82515 0.0
H901 H 0.93861 0.45052 0.85898 0.0
H902 H 0.94449 0.4873 0.84896 0.0
H903 H 0.88626 0.54835 0.92772 0.0
H904 H 0.90668 0.52197 0.96863 0.0
H905 H 0.91859 0.44875 0.91261 0.0
C906 C 0.87462 0.50462 0.82222 0.0
C907 C 0.85965 0.52941 0.81423 0.0
C908 C 0.85682 0.55181 0.8346 0.0
C909 C 0.86779 0.54898 0.8627 0.0
C910 C 0.88135 0.52358 0.87009 0.0
C911 C 0.88474 0.50192 0.85013 0.0
C912 C 0.89771 0.47581 0.86324 0.0
C913 C 0.87519 0.45035 0.86233 0.0
C914 C 0.92841 0.46879 0.84819 0.0
C915 C 0.9014 0.48592 0.89383 0.0
C916 C 0.89214 0.51352 0.89768 0.0
C917 C 0.89359 0.52676 0.92468 0.0
C918 C 0.90509 0.5115 0.94794 0.0
C919 C 0.9148 0.48315 0.94419 0.0
C920 C 0.91234 0.47045 0.91664 0.0
H921 H 0.16119 0.9842 0.87479 0.0
H922 H 0.11924 0.04838 0.82391 0.0
H923 H 0.08439 0.05904 0.86565 0.0
H924 H 0.09239 0.95995 0.91743 0.0
H925 H 0.11239 0.95592 0.95016 0.0
H926 H 0.13183 0.95091 0.91544 0.0
H927 H 0.17247 0.98876 0.9284 0.0
H928 H 0.15328 0.99377 0.96315 0.0
H929 H 0.16079 0.02371 0.93938 0.0
H930 H 0.05701 0.06548 0.91334 0.0
H931 H 0.0408 0.06964 0.96484 0.0
H932 H 0.10033 1.00185 0.98627 0.0
C933 C 0.14424 1.0001 0.87224 0.0
C934 C 0.14271 0.01525 0.84588 0.0
C935 C 0.12076 0.03641 0.84374 0.0
C936 C 0.10077 0.04251 0.86733 0.0
C937 C 0.10304 0.02737 0.89303 0.0
C938 C 0.12431 1.00669 0.89574 0.0
C939 C 0.12366 0.99534 0.92657 0.0
C940 C 0.11452 0.96364 0.92744 0.0
C941 C 0.15437 1.00073 0.94017 0.0
C942 C 0.09909 0.01327 0.94093 0.0
C943 C 0.08729 0.0313 0.92095 0.0
C944 C 0.06575 0.0512 0.92905 0.0
C945 C 0.05663 0.05335 0.95835 0.0
C946 C 0.06886 0.03571 0.97941 0.0
C947 C 0.08992 0.01495 0.9705 0.0
H948 H 0.66315 0.88362 0.4913 0.0
H949 H 0.70492 0.91788 0.5673 0.0
H950 H 0.65587 0.93639 0.58484 0.0
H951 H 0.60808 0.94208 0.48358 0.0
H952 H 0.57829 0.91808 0.47278 0.0
H953 H 0.61736 0.91004 0.46413 0.0
H954 H 0.6094 0.86139 0.48974 0.0
H955 H 0.57044 0.86939 0.49874 0.0
H956 H 0.59519 0.86017 0.52692 0.0
H957 H 0.60269 0.94635 0.59732 0.0
H958 H 0.54758 0.95078 0.60284 0.0
H959 H 0.5375 0.91185 0.51863 0.0
C960 C 0.66209 0.89576 0.51119 0.0
C961 C 0.68807 0.89946 0.52784 0.0
C962 C 0.6855 0.91482 0.55412 0.0
C963 C 0.65768 0.92543 0.56429 0.0
C964 C 0.63241 0.92068 0.54796 0.0
C965 C 0.63422 0.90655 0.5218 0.0
C966 C 0.60288 0.90321 0.50957 0.0
C967 C 0.60158 0.91932 0.4808 0.0
C968 C 0.59396 0.87166 0.50604 0.0
C969 C 0.58325 0.91708 0.53331 0.0
C970 C 0.60104 0.92695 0.55513 0.0
C971 C 0.58855 0.93906 0.58022 0.0
C972 C 0.5571 0.94126 0.58322 0.0
C973 C 0.53808 0.93164 0.56122 0.0
C974 C 0.55143 0.91962 0.5357 0.0
H975 H 0.65543 0.16305 0.04298 0.0
H976 H 0.72194 0.11027 0.99893 0.0
H977 H 0.68129 0.07607 0.98618 0.0
H978 H 0.60174 0.10557 0.06921 0.0
H979 H 0.569 0.12592 0.06178 0.0
H980 H 0.60363 0.14379 0.07138 0.0
H981 H 0.60359 0.17364 0.02436 0.0
H982 H 0.56912 0.15579 0.01455 0.0
H983 H 0.60202 0.15579 0.98997 0.0
H984 H 0.63303 0.04921 0.97546 0.0
H985 H 0.58092 0.03365 0.96463 0.0
H986 H 0.5455 0.10577 0.01255 0.0
C987 C 0.66141 0.1438 0.03147 0.0
C988 C 0.69181 0.13882 0.02251 0.0
C989 C 0.69878 0.11412 1.00636 0.0
C990 C 0.67586 0.09461 0.99906 0.0
C991 C 0.64597 0.10033 1.00768 0.0
C992 C 0.63865 0.12443 0.02338 0.0
C993 C 0.60456 0.12719 0.02715 0.0
C994 C 0.59413 0.12551 0.05929 0.0
C995 C 0.59423 0.15473 0.01317 0.0
C996 C 0.5939 0.10117 1.01078 0.0
C997 C 0.61811 0.08566 1.00018 0.0
C998 C 0.61389 0.06111 0.9838 0.0
C999 C 0.5842 0.05239 0.97779 0.0
C1000 C 0.5591 0.06845 0.9877 0.0
C1001 C 0.56418 0.09299 1.00467 0.0
H1002 H 0.34595 0.37952 0.98899 0.0
H1003 H 0.34552 0.401 0.08029 0.0
H1004 H 0.3988 0.41768 0.07418 0.0
H1005 H 0.41995 0.35268 0.98394 0.0
H1006 H 0.42942 0.36656 0.94825 0.0
H1007 H 0.39053 0.35816 0.95903 0.0
H1008 H 0.37553 0.40946 0.94684 0.0
H1009 H 0.41434 0.41794 0.93571 0.0
H1010 H 0.39506 0.43907 0.96301 0.0
H1011 H 0.45273 0.42914 0.05912 0.0
H1012 H 0.50327 0.43743 0.03555 0.0
H1013 H 0.46928 0.40884 0.95366 0.0
C1014 C 0.35685 0.38824 1.00761 0.0
C1015 C 0.34142 0.38907 0.03514 0.0
C1016 C 0.35675 0.40022 0.05899 0.0
C1017 C 0.38706 0.40971 0.05575 0.0
C1018 C 0.40178 0.40795 0.02851 0.0
C1019 C 0.38717 0.39773 1.00477 0.0
C1020 C 0.40856 0.39732 0.9781 0.0
C1021 C 0.41233 0.36687 0.96667 0.0
C1022 C 0.39772 0.41713 0.95453 0.0
C1023 C 0.43753 0.40873 0.99062 0.0
C1024 C 0.43304 0.41466 0.01975 0.0
C1025 C 0.45646 0.4248 0.03627 0.0
C1026 C 0.48517 0.42935 0.02264 0.0
C1027 C 0.49035 0.42386 0.99269 0.0
C1028 C 0.46611 0.4133 0.97655 0.0
H1029 H 0.86597 0.16949 0.98781 0.0
H1030 H 0.80127 0.11155 0.03154 0.0
H1031 H 0.84282 0.07971 0.04276 0.0
H1032 H 0.9201 0.11608 0.95918 0.0
H1033 H 0.95268 0.13824 0.96652 0.0
H1034 H 0.91753 0.1542 0.95809 0.0
H1035 H 0.91814 0.18288 1.00585 0.0
H1036 H 0.95314 0.1669 0.01449 0.0
H1037 H 0.92076 0.1643 0.03966 0.0
H1038 H 0.89178 0.0556 0.05187 0.0
H1039 H 0.94439 0.0427 0.06088 0.0
H1040 H 0.97772 0.11805 0.01432 0.0
C1041 C 0.86056 0.14963 0.99892 0.0
C1042 C 0.83039 0.14253 1.00821 0.0
C1043 C 0.82421 0.11705 0.02384 0.0
C1044 C 0.84766 0.09886 0.03029 0.0
C1045 C 0.8773 0.10667 0.02137 0.0
C1046 C 0.88386 0.13155 1.00616 0.0
C1047 C 0.91786 0.13647 1.00181 0.0
C1048 C 0.92761 0.13622 0.96947 0.0
C1049 C 0.92806 0.16428 0.01632 0.0
C1050 C 0.92934 0.11073 0.01725 0.0
C1051 C 0.90559 0.09355 0.02794 0.0
C1052 C 0.91055 0.06884 0.04346 0.0
C1053 C 0.94054 0.06164 0.04845 0.0
C1054 C 0.96522 0.07933 0.03836 0.0
C1055 C 0.95938 0.10406 0.02233 0.0
H1056 H 0.06726 0.19354 0.23731 0.0
H1057 H 1.01004 0.13974 0.29432 0.0
H1058 H 1.00473 0.10481 0.25495 0.0
H1059 H 0.02459 0.18269 0.17549 0.0
H1060 H 0.05676 0.18282 0.15 0.0
H1061 H 0.05881 0.20223 0.18338 0.0
H1062 H 0.10654 0.17478 0.19597 0.0
H1063 H 0.10473 0.15551 0.16244 0.0
H1064 H 0.10509 0.13649 0.19621 0.0
H1065 H 1.00423 0.07638 0.20881 0.0
H1066 H 1.00774 0.05733 0.15884 0.0
H1067 H 0.06267 0.13111 0.13151 0.0
C1068 C 0.05418 0.17411 0.24159 0.0
C1069 C 0.03927 0.16914 0.26885 0.0
C1070 C 0.02167 0.14386 0.27354 0.0
C1071 C 0.01857 0.12389 0.25135 0.0
C1072 C 0.03296 0.12965 0.22449 0.0
C1073 C 0.05039 0.15415 0.21948 0.0
C1074 C 0.06179 0.15608 0.18813 0.0
C1075 C 0.04975 0.18252 0.17339 0.0
C1076 C 0.09661 0.15568 0.18555 0.0
C1077 C 0.04783 0.12903 0.17633 0.0
C1078 C 0.03159 0.11387 0.19767 0.0
C1079 C 0.01686 0.08807 0.19188 0.0
C1080 C 0.01891 0.07744 0.16349 0.0
C1081 C 0.03517 0.09285 0.14127 0.0
C1082 C 0.04972 0.11898 0.14793 0.0
H1083 H 0.01392 0.30408 0.29634 0.0
H1084 H 0.92791 0.25955 0.28696 0.0
H1085 H 0.91163 0.29863 0.25551 0.0
H1086 H 0.98415 0.37686 0.29613 0.0
H1087 H 0.01769 0.39049 0.2766 0.0
H1088 H 0.02018 0.36085 0.30095 0.0
H1089 H 0.0449 0.33119 0.25927 0.0
H1090 H 0.04231 0.36058 0.23486 0.0
H1091 H 0.02545 0.32658 0.22616 0.0
H1092 H 0.90788 0.34057 0.22063 0.0
H1093 H 0.91647 0.38047 0.18641 0.0
H1094 H 1.00562 0.39595 0.21949 0.0
C1095 C 0.99148 0.30262 0.28794 0.0
C1096 C 0.97222 0.27873 0.29374 0.0
C1097 C 0.94293 0.27776 0.28273 0.0
C1098 C 0.93356 0.29985 0.26492 0.0
C1099 C 0.95358 0.32283 0.25902 0.0
C1100 C 0.9818 0.3244 0.27057 0.0
C1101 C 1.00003 0.35019 0.25985 0.0
C1102 C 1.00585 0.37082 0.28487 0.0
C1103 C 0.02991 0.3416 0.2441 0.0
C1104 C 0.97832 0.36235 0.23921 0.0
C1105 C 0.95142 0.34667 0.23932 0.0
C1106 C 0.92875 0.3531 0.22065 0.0
C1107 C 0.93398 0.37571 0.20107 0.0
C1108 C 0.96186 0.39144 0.19999 0.0
C1109 C 0.98388 0.38487 0.21989 0.0
H1110 H 0.04728 0.80596 0.22294 0.0
H1111 H 0.12048 0.75487 0.2511 0.0
H1112 H 0.13166 0.79099 0.28851 0.0
H1113 H 0.08364 0.87736 0.23787 0.0
H1114 H 0.04759 0.8916 0.24953 0.0
H1115 H 0.04945 0.86457 0.22197 0.0
H1116 H 1.01075 0.83339 0.25225 0.0
H1117 H 1.00887 0.85995 0.2801 0.0
H1118 H 0.01872 0.82417 0.28889 0.0
H1119 H 0.12799 0.82805 0.32798 0.0
H1120 H 0.11281 0.86374 0.36393 0.0
H1121 H 0.04272 0.89147 0.30828 0.0
C1122 C 0.06628 0.80284 0.23644 0.0
C1123 C 0.08311 0.77782 0.23433 0.0
C1124 C 0.10765 0.77416 0.25229 0.0
C1125 C 0.11404 0.79451 0.27358 0.0
C1126 C 0.09603 0.81847 0.27595 0.0
C1127 C 0.07304 0.82294 0.2574 0.0
C1128 C 0.05515 0.84887 0.26583 0.0
C1129 C 0.05922 0.87198 0.24241 0.0
C1130 C 0.0214 0.8411 0.27215 0.0
C1131 C 0.07052 0.85751 0.29304 0.0
C1132 C 0.09428 0.84001 0.29835 0.0
C1133 C 0.10995 0.84233 0.32363 0.0
C1134 C 0.10099 0.86286 0.34407 0.0
C1135 C 0.07638 0.88089 0.33927 0.0
C1136 C 0.06152 0.8783 0.31299 0.0
H1137 H 0.97836 0.68874 0.28366 0.0
H1138 H 0.04505 0.63984 0.23474 0.0
H1139 H 0.04415 0.60426 0.274 0.0
H1140 H 1.00963 0.67861 0.35184 0.0
H1141 H 0.97368 0.67625 0.37195 0.0
H1142 H 0.97729 0.69643 0.33888 0.0
H1143 H 0.93323 0.66661 0.31819 0.0
H1144 H 0.92951 0.64638 0.35128 0.0
H1145 H 0.93539 0.62845 0.31714 0.0
H1146 H 0.03677 0.57421 0.31942 0.0
H1147 H 0.02588 0.55424 0.36856 0.0
H1148 H 0.96654 0.62426 0.38871 0.0
C1149 C 0.99238 0.67031 0.28106 0.0
C1150 C 1.01163 0.66696 0.25606 0.0
C1151 C 0.03014 0.64285 0.25372 0.0
C1152 C 0.0297 0.62244 0.27585 0.0
C1153 C 1.01082 0.62652 0.30041 0.0
C1154 C 0.99261 0.64994 0.30322 0.0
C1155 C 0.97594 0.65027 0.33264 0.0
C1156 C 0.98467 0.67697 0.34984 0.0
C1157 C 0.94148 0.64778 0.32962 0.0
C1158 C 0.98794 0.62367 0.346 0.0
C1159 C 1.00763 0.60995 0.32694 0.0
C1160 C 0.0214 0.58481 0.33454 0.0
C1161 C 0.01509 0.57359 0.36244 0.0
C1162 C 0.99564 0.5878 0.38252 0.0
C1163 C 0.98181 0.61304 0.37396 0.0
H1164 H 0.22139 0.99964 0.19234 0.0
H1165 H 0.26498 0.0829 0.18242 0.0
H1166 H 0.22999 0.09465 0.14445 0.0
H1167 H 0.20499 0.98789 0.11724 0.0
H1168 H 0.16815 0.97167 0.1252 0.0
H1169 H 0.19746 0.96887 0.15074 0.0
H1170 H 0.16228 0.99068 0.19079 0.0
H1171 H 0.13278 0.99322 0.16547 0.0
H1172 H 0.14536 0.02442 0.1845 0.0
H1173 H 0.19157 0.0972 0.10706 0.0
H1174 H 0.14731 0.09359 0.07718 0.0
H1175 H 0.12502 0.00989 0.11288 0.0
C1176 C 0.22356 0.02031 0.18209 0.0
C1177 C 0.24607 0.04034 0.19023 0.0
C1178 C 0.2479 0.06729 0.17663 0.0
C1179 C 0.22826 0.07407 0.15488 0.0
C1180 C 0.20652 0.05384 0.14719 0.0
C1181 C 0.2036 0.02771 0.1607 0.0
C1182 C 0.1769 0.01066 0.1495 0.0
C1183 C 0.18752 0.98314 0.1348 0.0
C1184 C 0.15291 1.00439 0.17402 0.0
C1185 C 0.16535 0.03131 0.12757 0.0
C1186 C 0.1832 0.05585 0.12636 0.0
C1187 C 0.17736 0.07814 0.10791 0.0
C1188 C 0.1521 0.07577 0.09087 0.0
C1189 C 0.13246 0.05142 0.09253 0.0
C1190 C 0.13961 0.02867 0.11085 0.0
H1191 H 0.78863 0.44063 0.22711 0.0
H1192 H 0.74761 0.51691 0.19633 0.0
H1193 H 0.77701 0.51325 0.14992 0.0
H1194 H 0.86156 0.45764 0.19878 0.0
H1195 H 0.87135 0.42183 0.18915 0.0
H1196 H 0.84379 0.42798 0.21818 0.0
H1197 H 0.80483 0.39579 0.19262 0.0
H1198 H 0.83236 0.38979 0.16335 0.0
H1199 H 0.79586 0.40355 0.1559 0.0
H1200 H 0.81443 0.50411 0.10832 0.0
H1201 H 0.8598 0.49206 0.07736 0.0
H1202 H 0.87696 0.42261 0.13532 0.0
C1203 C 0.78544 0.45613 0.21032 0.0
C1204 C 0.76584 0.47899 0.21528 0.0
C1205 C 0.76269 0.49929 0.19304 0.0
C1206 C 0.77909 0.49728 0.16647 0.0
C1207 C 0.79872 0.47486 0.16233 0.0
C1208 C 0.80209 0.45469 0.18369 0.0
C1209 C 0.82703 0.43451 0.17487 0.0
C1210 C 0.85243 0.43558 0.19652 0.0
C1211 C 0.81424 0.40411 0.17148 0.0
C1212 C 0.83764 0.44705 0.14581 0.0
C1213 C 0.82067 0.46993 0.13858 0.0
C1214 C 0.82765 0.48594 0.11353 0.0
C1215 C 0.85329 0.47891 0.09595 0.0
C1216 C 0.87172 0.45642 0.10389 0.0
C1217 C 0.86311 0.43985 0.12862 0.0
H1218 H 0.23189 1.00858 0.31021 0.0
H1219 H 0.27215 0.92552 0.30656 0.0
H1220 H 0.24649 0.9133 0.35382 0.0
H1221 H 0.23503 0.01978 0.38736 0.0
H1222 H 0.19872 0.03637 0.39057 0.0
H1223 H 0.22147 0.03924 0.35725 0.0
H1224 H 0.17725 0.01797 0.32856 0.0
H1225 H 0.15421 0.01601 0.36164 0.0
H1226 H 0.15976 0.98457 0.33999 0.0
H1227 H 0.2153 0.90982 0.40088 0.0
H1228 H 0.17441 0.91225 0.43921 0.0
H1229 H 0.15432 0.99717 0.41164 0.0
C1230 C 0.23527 0.98778 0.31932 0.0
C1231 C 0.25402 0.96799 0.30475 0.0
C1232 C 0.25766 0.94091 0.31724 0.0
C1233 C 0.24352 0.93395 0.34425 0.0
C1234 C 0.22576 0.95425 0.35838 0.0
C1235 C 0.22112 0.9804 0.34604 0.0
C1236 C 0.19911 0.99763 0.36445 0.0
C1237 C 0.21452 0.02487 0.37556 0.0
C1238 C 0.17092 1.00442 0.34767 0.0
C1239 C 0.19161 0.97691 0.38891 0.0
C1240 C 0.20773 0.95224 0.38537 0.0
C1241 C 0.20299 0.92922 0.40416 0.0
C1242 C 0.18009 0.93091 0.42615 0.0
C1243 C 0.16226 0.95535 0.42896 0.0
C1244 C 0.16873 0.97888 0.41072 0.0
H1245 H 0.79328 0.57192 0.33645 0.0
H1246 H 0.76722 0.48422 0.35635 0.0
H1247 H 0.80267 0.48404 0.39544 0.0
H1248 H 0.87156 0.56454 0.34717 0.0
H1249 H 0.87705 0.59896 0.3634 0.0
H1250 H 0.84761 0.59339 0.33831 0.0
H1251 H 0.80796 0.61118 0.37681 0.0
H1252 H 0.83734 0.61657 0.4021 0.0
H1253 H 0.80462 0.59436 0.41186 0.0
H1254 H 0.84328 0.49099 0.4291 0.0
H1255 H 0.8887 0.50491 0.45519 0.0
H1256 H 0.88886 0.58849 0.41586 0.0
C1257 C 0.79484 0.55283 0.34927 0.0
C1258 C 0.77741 0.52809 0.34323 0.0
C1259 C 0.78035 0.50343 0.36034 0.0
C1260 C 0.80031 0.50312 0.38281 0.0
C1261 C 0.81724 0.52766 0.38811 0.0
C1262 C 0.81489 0.55209 0.37191 0.0
C1263 C 0.83735 0.57486 0.38125 0.0
C1264 C 0.85971 0.58343 0.35604 0.0
C1265 C 0.82082 0.60078 0.39375 0.0
C1266 C 0.85302 0.55904 0.40466 0.0
C1267 C 0.84077 0.53192 0.40834 0.0
C1268 C 0.85277 0.51233 0.42688 0.0
C1269 C 0.8785 0.52039 0.4416 0.0
C1270 C 0.89174 0.54785 0.43789 0.0
C1271 C 0.87848 0.56766 0.41971 0.0
H1272 H 0.22338 0.26323 0.08637 0.0
H1273 H 0.16374 0.33333 0.07527 0.0
H1274 H 0.11962 0.3001 0.07663 0.0
H1275 H 0.19309 0.22082 0.03949 0.0
H1276 H 0.19591 0.18731 0.05786 0.0
H1277 H 0.2215 0.21618 0.06566 0.0
H1278 H 0.2052 0.2135 0.12012 0.0
H1279 H 0.18002 0.18394 0.11269 0.0
H1280 H 0.16559 0.21481 0.13123 0.0
H1281 H 0.0854 0.25999 0.06571 0.0
H1282 H 0.06196 0.21525 0.04852 0.0
H1283 H 0.14275 0.17016 0.06751 0.0
C1284 C 0.20075 0.27153 0.08628 0.0
C1285 C 0.19651 0.3007 0.08186 0.0
C1286 C 0.16702 0.31107 0.07979 0.0
C1287 C 0.14192 0.29232 0.08039 0.0
C1288 C 0.14686 0.26335 0.08316 0.0
C1289 C 0.17548 0.25296 0.08677 0.0
C1290 C 0.17533 0.22083 0.08466 0.0
C1291 C 0.19777 0.21073 0.06048 0.0
C1292 C 0.18192 0.20749 0.11392 0.0
C1293 C 0.1428 0.215 0.07717 0.0
C1294 C 0.12665 0.23976 0.07688 0.0
C1295 C 0.09745 0.24034 0.06682 0.0
C1296 C 0.08445 0.215 0.05679 0.0
C1297 C 0.1006 0.18949 0.05701 0.0
C1298 C 0.12984 0.18939 0.06786 0.0
H1299 H 0.21419 0.7703 0.45214 0.0
H1300 H 0.18575 0.74301 0.53922 0.0
H1301 H 0.14512 0.77742 0.54044 0.0
H1302 H 0.20195 0.84371 0.46349 0.0
H1303 H 0.18759 0.8504 0.42841 0.0
H1304 H 0.2135 0.82204 0.43298 0.0
H1305 H 0.17483 0.78633 0.41193 0.0
H1306 H 0.14876 0.81464 0.4074 0.0
H1307 H 0.13692 0.78352 0.42807 0.0
H1308 H 0.11118 0.81757 0.53522 0.0
H1309 H 0.08446 0.86095 0.52249 0.0
H1310 H 0.1313 0.86186 0.43798 0.0
C1311 C 0.19914 0.77134 0.47126 0.0
C1312 C 0.20341 0.75386 0.4956 0.0
C1313 C 0.18327 0.75613 0.5203 0.0
C1314 C 0.1599 0.77559 0.52123 0.0
C1315 C 0.15654 0.7927 0.49721 0.0
C1316 C 0.17537 0.79078 0.47257 0.0
C1317 C 0.16727 0.81281 0.45037 0.0
C1318 C 0.19418 0.83346 0.44341 0.0
C1319 C 0.15629 0.79846 0.42281 0.0
C1320 C 0.1415 0.82762 0.46676 0.0
C1321 C 0.13575 0.81555 0.49373 0.0
C1322 C 0.11493 0.82686 0.51392 0.0
C1323 C 0.09984 0.85144 0.50654 0.0
C1324 C 0.10526 0.86417 0.47908 0.0
C1325 C 0.126 0.85186 0.45875 0.0
H1326 H 0.84457 0.79957 0.51974 0.0
H1327 H 0.80133 0.79111 0.43786 0.0
H1328 H 0.83564 0.75181 0.42427 0.0
H1329 H 0.92128 0.78356 0.49337 0.0
H1330 H 0.92891 0.76451 0.52589 0.0
H1331 H 0.90285 0.79333 0.52741 0.0
H1332 H 0.86128 0.75981 0.55109 0.0
H1333 H 0.8871 0.7309 0.54955 0.0
H1334 H 0.8511 0.72725 0.53306 0.0
H1335 H 0.87328 0.71081 0.42175 0.0
H1336 H 0.90978 0.67317 0.43015 0.0
H1337 H 0.9258 0.70909 0.51465 0.0
C1338 C 0.84241 0.7898 0.49873 0.0
C1339 C 0.82021 0.79848 0.47984 0.0
C1340 C 0.81828 0.78495 0.45262 0.0
C1341 C 0.83765 0.7626 0.44477 0.0
C1342 C 0.85888 0.75423 0.46432 0.0
C1343 C 0.86135 0.76764 0.49067 0.0
C1344 C 0.88471 0.75408 0.50866 0.0
C1345 C 0.91099 0.77512 0.51414 0.0
C1346 C 0.87017 0.74231 0.53726 0.0
C1347 C 0.89477 0.73046 0.48861 0.0
C1348 C 0.87991 0.73091 0.46302 0.0
C1349 C 0.88507 0.71042 0.44169 0.0
C1350 C 0.90575 0.68895 0.44679 0.0
C1351 C 0.92089 0.68791 0.47314 0.0
C1352 C 0.91526 0.70925 0.49407 0.0
H1353 H 0.32348 0.7747 0.51761 0.0
H1354 H 0.31789 0.73971 0.60455 0.0
H1355 H 0.35338 0.77762 0.62016 0.0
H1356 H 0.40251 0.79559 0.51555 0.0
H1357 H 0.39707 0.82781 0.49564 0.0
H1358 H 0.37197 0.79754 0.49123 0.0
H1359 H 0.32571 0.82835 0.50504 0.0
H1360 H 0.35063 0.85873 0.50928 0.0
H1361 H 0.32477 0.84768 0.5387 0.0
H1362 H 0.38948 0.81958 0.62605 0.0
H1363 H 0.42037 0.8639 0.62288 0.0
H1364 H 0.40137 0.87174 0.53207 0.0
C1365 C 0.32976 0.77487 0.53995 0.0
C1366 C 0.318 0.75412 0.55986 0.0
C1367 C 0.32659 0.75537 0.58893 0.0
C1368 C 0.34683 0.77674 0.59794 0.0
C1369 C 0.35812 0.79674 0.57765 0.0
C1370 C 0.34969 0.79609 0.54931 0.0
C1371 C 0.36414 0.82058 0.53195 0.0
C1372 C 0.38518 0.80972 0.50713 0.0
C1373 C 0.33987 0.83998 0.52059 0.0
C1374 C 0.38201 0.83527 0.55497 0.0
C1375 C 0.37844 0.82106 0.58111 0.0
C1376 C 0.39243 0.83083 0.60567 0.0
C1377 C 0.41003 0.85602 0.6036 0.0
C1378 C 0.41339 0.87134 0.57719 0.0
C1379 C 0.39944 0.8605 0.55251 0.0
H1380 H 0.56418 0.68672 0.73312 0.0
H1381 H 0.48727 0.64877 0.78212 0.0
H1382 H 0.47906 0.61502 0.7422 0.0
H1383 H 0.53117 0.68323 0.66437 0.0
H1384 H 0.5661 0.67524 0.64464 0.0
H1385 H 0.56691 0.69539 0.67768 0.0
H1386 H 0.6028 0.65888 0.69893 0.0
H1387 H 0.60214 0.63877 0.66584 0.0
H1388 H 0.59167 0.62179 0.6999 0.0
H1389 H 0.47952 0.58496 0.69665 0.0
H1390 H 0.48769 0.56259 0.64844 0.0
H1391 H 0.56237 0.62218 0.62886 0.0
C1392 C 0.5458 0.67113 0.73558 0.0
C1393 C 0.52646 0.67029 0.7608 0.0
C1394 C 0.50237 0.64982 0.76298 0.0
C1395 C 0.49755 0.63052 0.74045 0.0
C1396 C 0.51684 0.63209 0.71575 0.0
C1397 C 0.54043 0.65195 0.71315 0.0
C1398 C 0.55725 0.64987 0.68397 0.0
C1399 C 0.55522 0.67758 0.66665 0.0
C1400 C 0.59042 0.64184 0.68738 0.0
C1401 C 0.53935 0.62587 0.67055 0.0
C1402 C 0.51634 0.61563 0.68926 0.0
C1403 C 0.49736 0.59293 0.68174 0.0
C1404 C 0.50212 0.58037 0.65437 0.0
C1405 C 0.52535 0.59087 0.63481 0.0
C1406 C 0.54406 0.61396 0.64313 0.0
H1407 H 0.50393 0.7785 0.75434 0.0
H1408 H 0.43381 0.79197 0.82146 0.0
H1409 H 0.41904 0.83561 0.7963 0.0
H1410 H 0.52779 0.84879 0.74575 0.0
H1411 H 0.5345 0.84711 0.70706 0.0
H1412 H 0.53739 0.81561 0.72862 0.0
H1413 H 0.49781 0.78933 0.69806 0.0
H1414 H 0.49516 0.82062 0.67604 0.0
H1415 H 0.4615 0.80492 0.69361 0.0
H1416 H 0.41599 0.88054 0.76613 0.0
H1417 H 0.42119 0.92014 0.73096 0.0
H1418 H 0.49303 0.87617 0.68383 0.0
C1419 C 0.48505 0.79031 0.76349 0.0
C1420 C 0.46996 0.78191 0.78982 0.0
C1421 C 0.44544 0.79792 0.80114 0.0
C1422 C 0.43705 0.82279 0.78709 0.0
C1423 C 0.45317 0.83098 0.76162 0.0
C1424 C 0.47629 0.81488 0.74969 0.0
C1425 C 0.49076 0.82854 0.72268 0.0
C1426 C 0.52461 0.83542 0.72627 0.0
C1427 C 0.48601 0.80974 0.69602 0.0
C1428 C 0.47269 0.85527 0.72156 0.0
C1429 C 0.45112 0.85638 0.74418 0.0
C1430 C 0.43259 0.87971 0.74819 0.0
C1431 C 0.43592 0.90223 0.7283 0.0
C1432 C 0.45754 0.90117 0.7047 0.0
C1433 C 0.47612 0.87737 0.70147 0.0
H1434 H 0.55127 0.30325 0.72362 0.0
H1435 H 0.62171 0.25249 0.75774 0.0
H1436 H 0.6318 0.29021 0.79385 0.0
H1437 H 0.58811 0.37521 0.73728 0.0
H1438 H 0.55168 0.39007 0.74632 0.0
H1439 H 0.55492 0.36203 0.71991 0.0
H1440 H 0.51406 0.33249 0.74938 0.0
H1441 H 0.51104 0.35998 0.77617 0.0
H1442 H 0.51978 0.3244 0.78679 0.0
H1443 H 0.6266 0.32875 0.83151 0.0
H1444 H 0.60933 0.36542 0.86569 0.0
H1445 H 0.54322 0.39185 0.80531 0.0
C1446 C 0.56953 0.30054 0.73811 0.0
C1447 C 0.58583 0.2752 0.73809 0.0
C1448 C 0.60934 0.27203 0.75735 0.0
C1449 C 0.6151 0.2933 0.77787 0.0
C1450 C 0.59757 0.31762 0.77817 0.0
C1451 C 0.57567 0.32154 0.75832 0.0
C1452 C 0.55776 0.34793 0.76476 0.0
C1453 C 0.56348 0.37013 0.74064 0.0
C1454 C 0.52367 0.34074 0.76958 0.0
C1455 C 0.57168 0.35742 0.79243 0.0
C1456 C 0.59492 0.34 0.7996 0.0
C1457 C 0.60905 0.34299 0.82569 0.0
C1458 C 0.59898 0.36405 0.84504 0.0
C1459 C 0.57483 0.38188 0.83833 0.0
C1460 C 0.56163 0.37873 0.81129 0.0
H1461 H 0.48139 0.18276 0.78582 0.0
H1462 H 0.54667 0.1343 0.73468 0.0
H1463 H 0.5457 0.09756 0.77285 0.0
H1464 H 0.5136 0.17 0.8532 0.0
H1465 H 0.47789 0.16777 0.87371 0.0
H1466 H 0.4815 0.1889 0.84126 0.0
H1467 H 0.43654 0.16069 0.82018 0.0
H1468 H 0.43274 0.13955 0.85267 0.0
H1469 H 0.43779 0.12252 0.81794 0.0
H1470 H 0.53838 0.06628 0.81761 0.0
H1471 H 0.5272 0.04487 0.86611 0.0
H1472 H 0.46921 0.11531 0.88863 0.0
C1473 C 0.49505 0.16417 0.78248 0.0
C1474 C 0.5139 0.16125 0.75718 0.0
C1475 C 0.53202 0.13694 0.75389 0.0
C1476 C 0.53157 0.1159 0.77542 0.0
C1477 C 0.51311 0.11958 0.80034 0.0
C1478 C 0.4953 0.14319 0.80403 0.0
C1479 C 0.47901 0.14297 0.83361 0.0
C1480 C 0.48859 0.16895 0.85149 0.0
C1481 C 0.44447 0.14133 0.83093 0.0
C1482 C 0.49059 0.11573 0.84598 0.0
C1483 C 0.50992 0.10228 0.82639 0.0
C1484 C 0.52328 0.07667 0.83314 0.0
C1485 C 0.51682 0.06463 0.86069 0.0
C1486 C 0.49757 0.07847 0.88125 0.0
C1487 C 0.48428 0.10427 0.87354 0.0
H1488 H 0.73635 0.56462 0.68469 0.0
H1489 H 0.73473 0.47342 0.69905 0.0
H1490 H 0.69196 0.46778 0.66753 0.0
H1491 H 0.65454 0.57178 0.68252 0.0
H1492 H 0.65687 0.59795 0.65404 0.0
H1493 H 0.68722 0.5954 0.67847 0.0
H1494 H 0.72546 0.58905 0.63485 0.0
H1495 H 0.69518 0.59144 0.61034 0.0
H1496 H 0.71905 0.56096 0.60921 0.0
H1497 H 0.64894 0.47125 0.63528 0.0
H1498 H 0.60841 0.48417 0.60315 0.0
H1499 H 0.63809 0.57261 0.60713 0.0
C1500 C 0.72686 0.54354 0.68128 0.0
C1501 C 0.7391 0.51949 0.6944 0.0
C1502 C 0.72606 0.49222 0.68919 0.0
C1503 C 0.70162 0.48872 0.67132 0.0
C1504 C 0.69031 0.51264 0.65849 0.0
C1505 C 0.7024 0.53955 0.6631 0.0
C1506 C 0.68595 0.5615 0.64607 0.0
C1507 C 0.67021 0.58292 0.6665 0.0
C1508 C 0.70771 0.57662 0.6238 0.0
C1509 C 0.66293 0.54262 0.6313 0.0
C1510 C 0.66578 0.51454 0.63898 0.0
C1511 C 0.64657 0.49316 0.62892 0.0
C1512 C 0.62364 0.50068 0.61066 0.0
C1513 C 0.62029 0.52928 0.60233 0.0
C1514 C 0.64041 0.55046 0.61269 0.0
H1515 H 0.27769 0.96393 0.72101 0.0
H1516 H 0.25083 0.04853 0.69773 0.0
H1517 H 0.28302 0.04563 0.65232 0.0
H1518 H 0.35396 0.97132 0.69674 0.0
H1519 H 0.3565 0.93512 0.68445 0.0
H1520 H 0.32991 0.9439 0.7135 0.0
H1521 H 0.28578 0.92176 0.68473 0.0
H1522 H 0.31287 0.91282 0.65601 0.0
H1523 H 0.28071 0.93376 0.64832 0.0
H1524 H 0.32182 0.0334 0.60993 0.0
H1525 H 0.36453 0.01491 0.57885 0.0
H1526 H 0.36319 0.93857 0.63095 0.0
C1527 C 0.27835 0.98195 0.70643 0.0
C1528 C 0.26174 1.00655 0.71314 0.0
C1529 C 0.26345 0.0295 0.69324 0.0
C1530 C 0.28152 0.02793 0.66727 0.0
C1531 C 0.29755 1.00318 0.66138 0.0
C1532 C 0.29602 0.98068 0.68062 0.0
C1533 C 0.31636 0.95695 0.67057 0.0
C1534 C 0.34061 0.95153 0.69261 0.0
C1535 C 0.2978 0.92972 0.66457 0.0
C1536 C 0.33017 0.96966 0.64285 0.0
C1537 C 0.31899 0.9962 0.63748 0.0
C1538 C 0.33029 0.01245 0.6138 0.0
C1539 C 0.35429 1.00171 0.596 0.0
C1540 C 0.36668 0.97511 0.6022 0.0
C1541 C 0.35368 0.95872 0.62535 0.0
H1542 H 0.72236 0.49138 0.79336 0.0
H1543 H 0.79129 0.43749 0.82542 0.0
H1544 H 0.76138 0.43212 0.87209 0.0
H1545 H 0.7049 0.52829 0.85764 0.0
H1546 H 0.66472 0.52917 0.85275 0.0
H1547 H 0.69084 0.52771 0.82171 0.0
H1548 H 0.66367 0.48211 0.80341 0.0
H1549 H 0.63684 0.48411 0.83382 0.0
H1550 H 0.65772 0.45215 0.82746 0.0
H1551 H 0.72428 0.4355 0.91657 0.0
H1552 H 0.6795 0.43978 0.95078 0.0
H1553 H 0.63562 0.49066 0.88797 0.0
C1554 C 0.73081 0.47794 0.81001 0.0
C1555 C 0.75886 0.4646 0.80588 0.0
C1556 C 0.76948 0.44738 0.8281 0.0
C1557 C 0.75286 0.44459 0.85475 0.0
C1558 C 0.72567 0.45896 0.85851 0.0
C1559 C 0.71443 0.47468 0.83638 0.0
C1560 C 0.68438 0.48744 0.84524 0.0
C1561 C 0.68635 0.52009 0.84428 0.0
C1562 C 0.65917 0.47574 0.82638 0.0
C1563 C 0.68043 0.47672 0.87597 0.0
C1564 C 0.70457 0.46063 0.88353 0.0
C1565 C 0.70533 0.44812 0.91086 0.0
C1566 C 0.6801 0.45101 0.93032 0.0
C1567 C 0.6546 0.46604 0.92209 0.0
C1568 C 0.65522 0.47962 0.89494 0.0
H1569 H 0.30248 0.96356 0.84399 0.0
H1570 H 0.24693 0.03759 0.85705 0.0
H1571 H 0.2824 0.05672 0.89195 0.0
H1572 H 0.32734 0.9584 0.91906 0.0
H1573 H 0.36524 0.94864 0.90768 0.0
H1574 H 0.33389 0.93897 0.88586 0.0
H1575 H 0.36087 0.96424 0.84166 0.0
H1576 H 0.39223 0.97397 0.86332 0.0
H1577 H 0.37265 1.00101 0.84462 0.0
H1578 H 0.32492 0.06969 0.9227 0.0
H1579 H 0.37321 0.07636 0.9466 0.0
H1580 H 0.40259 0.99471 0.91349 0.0
C1581 C 0.29759 0.98351 0.85465 0.0
C1582 C 0.27192 0.99906 0.84789 0.0
C1583 C 0.26653 0.02538 0.86181 0.0
C1584 C 0.28645 0.03637 0.88181 0.0
C1585 C 0.31181 0.02088 0.88765 0.0
C1586 C 0.31757 0.99506 0.87452 0.0
C1587 C 0.34774 0.9839 0.8832 0.0
C1588 C 0.34328 0.95581 0.89995 0.0
C1589 C 0.36966 0.9806 0.85662 0.0
C1590 C 0.35814 1.00775 0.90276 0.0
C1591 C 0.33685 0.02867 0.90525 0.0
C1592 C 0.3417 0.05335 0.92115 0.0
C1593 C 0.36923 0.05696 0.93463 0.0
C1594 C 0.39168 0.03606 0.932 0.0
C1595 C 0.38579 0.01098 0.91613 0.0
H1596 H 0.73082 0.76964 0.51896 0.0
H1597 H 0.71493 0.79377 0.60873 0.0
H1598 H 0.68243 0.75025 0.61678 0.0
H1599 H 0.6584 0.74695 0.50649 0.0
H1600 H 0.66921 0.71803 0.48297 0.0
H1601 H 0.69406 0.74858 0.48582 0.0
H1602 H 0.7376 0.71639 0.50033 0.0
H1603 H 0.71296 0.68558 0.4972 0.0
H1604 H 0.73152 0.69231 0.53045 0.0
H1605 H 0.64696 0.70627 0.61247 0.0
H1606 H 0.61361 0.6666 0.59688 0.0
H1607 H 0.65464 0.67302 0.51004 0.0
C1608 C 0.72088 0.76564 0.54049 0.0
C1609 C 0.72509 0.78502 0.56322 0.0
C1610 C 0.71197 0.77898 0.5911 0.0
C1611 C 0.69352 0.7544 0.59579 0.0
C1612 C 0.68907 0.73613 0.57245 0.0
C1613 C 0.7028 0.74143 0.54546 0.0
C1614 C 0.69333 0.71993 0.52329 0.0
C1615 C 0.67783 0.73424 0.49819 0.0
C1616 C 0.72047 0.70252 0.51217 0.0
C1617 C 0.67115 0.70208 0.54163 0.0
C1618 C 0.66911 0.71135 0.57002 0.0
C1619 C 0.64876 0.69866 0.5904 0.0
C1620 C 0.62995 0.67614 0.58138 0.0
C1621 C 0.63149 0.66687 0.55219 0.0
C1622 C 0.6527 0.67984 0.53237 0.0
H1623 H 0.71008 0.28068 0.02118 0.0
H1624 H 0.70631 0.24382 0.93546 0.0
H1625 H 0.66891 0.27937 0.92267 0.0
H1626 H 0.63182 0.29873 0.0311 0.0
H1627 H 0.63931 0.33217 0.04866 0.0
H1628 H 0.66527 0.30354 0.05154 0.0
H1629 H 0.70942 0.33607 0.03122 0.0
H1630 H 0.68366 0.36488 0.02859 0.0
H1631 H 0.70596 0.35387 0.9971 0.0
H1632 H 0.63042 0.31713 0.92 0.0
H1633 H 0.59845 0.35881 0.92449 0.0
H1634 H 0.62944 0.37445 1.01091 0.0
C1635 C 0.70136 0.28014 0.9997 0.0
C1636 C 0.71092 0.25935 0.97931 0.0
C1637 C 0.69937 0.25956 0.95134 0.0
C1638 C 0.67798 0.27956 0.94398 0.0
C1639 C 0.66877 0.29952 0.96468 0.0
C1640 C 0.68049 0.30037 0.99178 0.0
C1641 C 0.66781 0.32498 1.00945 0.0
C1642 C 0.64999 0.3142 0.03681 0.0
C1643 C 0.69323 0.34621 0.01703 0.0
C1644 C 0.64688 0.33771 0.98811 0.0
C1645 C 0.64756 0.32235 0.96261 0.0
C1646 C 0.6299 0.32944 0.93977 0.0
C1647 C 0.61164 0.35322 0.94266 0.0
C1648 C 0.61132 0.37017 0.96808 0.0
C1649 C 0.62903 0.362 0.99126 0.0
H1650 H 0.32942 0.28473 0.97133 0.0
H1651 H 0.27614 0.25317 0.04616 0.0
H1652 H 0.30582 0.20935 0.04557 0.0
H1653 H 0.34246 0.21559 0.93533 0.0
H1654 H 0.38098 0.2252 0.92409 0.0
H1655 H 0.35293 0.25222 0.928 0.0
H1656 H 0.38679 0.27968 0.96329 0.0
H1657 H 0.41477 0.25264 0.95972 0.0
H1658 H 0.39904 0.26192 0.99503 0.0
H1659 H 0.34289 0.17032 0.03854 0.0
H1660 H 0.38628 0.13951 0.02671 0.0
H1661 H 0.41748 0.19764 0.95832 0.0
C1662 C 0.32359 0.26816 0.987 0.0
C1663 C 0.30028 0.27184 1.00846 0.0
C1664 C 0.2938 0.25038 0.02939 0.0
C1665 C 0.31048 0.22548 0.0292 0.0
C1666 C 0.33383 0.22264 1.00816 0.0
C1667 C 0.34051 0.2434 0.9875 0.0
C1668 C 0.3685 0.2362 0.969 0.0
C1669 C 0.36074 0.23205 0.93722 0.0
C1670 C 0.39376 0.25896 0.97195 0.0
C1671 C 0.37666 0.20838 0.98271 0.0
C1672 C 0.35613 0.20073 1.00498 0.0
C1673 C 0.35906 0.17601 0.02105 0.0
C1674 C 0.38368 0.15862 0.01418 0.0
C1675 C 0.40525 0.16627 0.99174 0.0
C1676 C 0.40155 0.19146 0.97582 0.0
H1677 H 0.81838 0.27688 0.01629 0.0
H1678 H 0.81661 0.24039 0.10244 0.0
H1679 H 0.85759 0.2743 0.1155 0.0
H1680 H 0.89835 0.29016 1.0073 0.0
H1681 H 0.89482 0.32353 0.98885 0.0
H1682 H 0.86588 0.29615 0.98619 0.0
H1683 H 0.82499 0.33099 1.00512 0.0
H1684 H 0.85372 0.35858 1.00735 0.0
H1685 H 0.82991 0.34933 0.03884 0.0
H1686 H 0.89983 0.3116 0.11835 0.0
H1687 H 0.93469 0.35318 0.1134 0.0
H1688 H 0.90708 0.36622 0.0257 0.0
C1689 C 0.82658 0.276 0.03795 0.0
C1690 C 0.81448 0.2559 0.05835 0.0
C1691 C 0.82551 0.25569 0.08655 0.0
C1692 C 0.84893 0.2747 0.09404 0.0
C1693 C 0.86074 0.29391 0.07316 0.0
C1694 C 0.84954 0.29499 0.04585 0.0
C1695 C 0.86499 0.31847 0.02777 0.0
C1696 C 0.88202 0.30634 1.00094 0.0
C1697 C 0.84204 0.34065 0.01928 0.0
C1698 C 0.88679 0.33049 0.04913 0.0
C1699 C 0.88428 0.31581 0.07506 0.0
C1700 C 0.9019 0.32325 0.09816 0.0
C1701 C 0.92181 0.34686 0.09505 0.0
C1702 C 0.92372 0.36305 0.06912 0.0
C1703 C 0.90639 0.35424 0.0457 0.0
loop_
_geom_bond_atom_site_label_1
_geom_bond_atom_site_label_2
_geom_bond_distance
_geom_bond_site_symmetry_2
_ccdc_geom_bond_type
C0 O2 1.247 . S
C0 O4 1.258 . S
C1 O8 1.247 1_455 S
C1 O9 1.258 . S
O2 C0 1.247 . S
O2 Zn3 2.028 . S
Zn3 O2 2.028 . S
Zn3 O7 2.035 . S
Zn3 O9 2.035 . S
Zn3 O10 2.028 . S
O4 C0 1.258 . S
O4 Zn5 2.035 1_455 S
Zn5 O4 2.035 1_655 S
Zn5 O6 2.028 . S
Zn5 O8 2.028 . S
Zn5 O11 2.035 1_655 S
O6 Zn5 2.028 . S
O6 C12 1.247 1_655 S
O7 Zn3 2.035 . S
O7 C12 1.258 . S
O8 C1 1.247 1_655 S
O8 Zn5 2.028 . S
O9 C1 1.258 . S
O9 Zn3 2.035 . S
O10 Zn3 2.028 . S
O10 C13 1.247 . S
O11 Zn5 2.035 1_455 S
O11 C13 1.258 . S
C12 O6 1.247 1_455 S
C12 O7 1.258 . S
C13 O10 1.247 . S
C13 O11 1.258 . S
C14 O16 1.247 . S
C14 O18 1.258 1_455 S
C15 O22 1.218 1_455 S
C15 O23 1.292 . S
O16 C14 1.247 . S
O16 Zn17 2.028 . S
Zn17 O16 2.028 . S
Zn17 O21 2.035 . S
Zn17 O23 2.035 . S
Zn17 O24 2.028 . S
O18 C14 1.258 1_655 S
O18 Zn19 2.035 . S
Zn19 O18 2.035 . S
Zn19 O20 2.028 . S
Zn19 O22 2.028 . S
Zn19 O25 2.035 . S
O20 Zn19 2.028 . S
O20 C26 1.247 1_655 S
O21 Zn17 2.035 . S
O21 C26 1.258 . S
O22 C15 1.218 1_655 S
O22 Zn19 2.028 . S
O23 C15 1.292 . S
O23 Zn17 2.035 . S
O24 Zn17 2.028 . S
O24 C27 1.247 . S
O25 Zn19 2.035 . S
O25 C27 1.258 1_655 S
C26 O20 1.247 1_455 S
C26 O21 1.258 . S
C27 O24 1.247 . S
C27 O25 1.258 1_455 S
C28 O30 1.247 1_545 S
C28 O32 1.258 . S
C29 O36 1.247 1_565 S
C29 O37 1.258 . S
O30 C28 1.247 1_565 S
O30 Zn31 2.028 . S
Zn31 O30 2.028 . S
Zn31 O35 2.035 . S
Zn31 O37 2.035 . S
Zn31 O38 2.028 . S
O32 C28 1.258 . S
O32 Zn33 2.035 . S
Zn33 O32 2.035 . S
Zn33 O34 2.028 . S
Zn33 O36 2.028 . S
Zn33 O39 2.035 . S
O34 Zn33 2.028 . S
O34 C40 1.247 1_545 S
O35 Zn31 2.035 . S
O35 C40 1.258 . S
O36 C29 1.247 1_545 S
O36 Zn33 2.028 . S
O37 C29 1.258 . S
O37 Zn31 2.035 . S
O38 Zn31 2.028 . S
O38 C41 1.247 1_565 S
O39 Zn33 2.035 . S
O39 C41 1.258 . S
C40 O34 1.247 1_565 S
C40 O35 1.258 . S
C41 O38 1.247 1_545 S
C41 O39 1.258 . S
C42 O44 1.247 . S
C42 O46 1.258 . S
C43 O50 1.247 . S
C43 O51 1.258 . S
O44 C42 1.247 . S
O44 Zn45 2.028 . S
Zn45 O44 2.028 . S
Zn45 O49 2.035 . S
Zn45 O51 2.035 . S
Zn45 O52 2.028 . S
O46 C42 1.258 . S
O46 Zn47 2.035 . S
Zn47 O46 2.035 . S
Zn47 O48 2.028 . S
Zn47 O50 2.028 . S
Zn47 O53 2.035 . S
O48 Zn47 2.028 . S
O48 C54 1.247 . S
O49 Zn45 2.035 . S
O49 C54 1.258 . S
O50 C43 1.247 . S
O50 Zn47 2.028 . S
O51 C43 1.258 . S
O51 Zn45 2.035 . S
O52 Zn45 2.028 . S
O52 C55 1.247 . S
O53 Zn47 2.035 . S
O53 C55 1.258 . S
C54 O48 1.247 . S
C54 O49 1.258 . S
C55 O52 1.247 . S
C55 O53 1.258 . S
C56 O58 1.216 1_554 S
C56 O60 1.258 . S
C57 O64 1.247 . S
C57 O65 1.258 1_554 S
O58 C56 1.216 1_556 S
O58 Zn59 2.037 . S
Zn59 O58 2.037 . S
Zn59 O63 2.035 . S
Zn59 O65 2.035 . S
Zn59 O66 2.035 . S
O60 C56 1.258 . S
O60 Zn61 2.035 . S
Zn61 O60 2.035 . S
Zn61 O62 2.028 . S
Zn61 O64 2.028 . S
Zn61 O67 2.035 . S
O62 Zn61 2.028 . S
O62 C68 1.247 . S
O63 Zn59 2.035 . S
O63 C68 1.258 1_556 S
O64 C57 1.247 . S
O64 Zn61 2.028 . S
O65 C57 1.258 1_556 S
O65 Zn59 2.035 . S
O66 Zn59 2.035 . S
O66 C69 1.225 1_556 S
O67 Zn61 2.035 . S
O67 C69 1.258 . S
C68 O62 1.247 . S
C68 O63 1.258 1_554 S
C69 O66 1.225 1_554 S
C69 O67 1.258 . S
C70 O72 1.247 . S
C70 O74 1.258 . S
C71 O78 1.247 . S
C71 O79 1.258 . S
O72 C70 1.247 . S
O72 Zn73 2.028 . S
Zn73 O72 2.028 . S
Zn73 O77 2.035 . S
Zn73 O79 2.035 . S
Zn73 O80 2.028 . S
O74 C70 1.258 . S
O74 Zn75 2.035 . S
Zn75 O74 2.035 . S
Zn75 O76 2.028 . S
Zn75 O78 2.028 . S
Zn75 O81 2.035 . S
O76 Zn75 2.028 . S
O76 C82 1.247 . S
O77 Zn73 2.035 . S
O77 C82 1.258 . S
O78 C71 1.247 . S
O78 Zn75 2.028 . S
O79 C71 1.258 . S
O79 Zn73 2.035 . S
O80 Zn73 2.028 . S
O80 C83 1.247 . S
O81 Zn75 2.035 . S
O81 C83 1.258 . S
C82 O76 1.247 . S
C82 O77 1.258 . S
C83 O80 1.247 . S
C83 O81 1.258 . S
C84 O86 1.247 . S
C84 O88 1.258 . S
C85 O92 1.247 . S
C85 O93 1.258 . S
O86 C84 1.247 . S
O86 Zn87 2.028 . S
Zn87 O86 2.028 . S
Zn87 O91 2.035 . S
Zn87 O93 2.035 . S
Zn87 O94 2.028 . S
O88 C84 1.258 . S
O88 Zn89 2.035 . S
Zn89 O88 2.035 . S
Zn89 O90 2.028 . S
Zn89 O92 2.028 . S
Zn89 O95 2.035 . S
O90 Zn89 2.028 . S
O90 C96 1.247 . S
O91 Zn87 2.035 . S
O91 C96 1.258 . S
O92 C85 1.247 . S
O92 Zn89 2.028 . S
O93 C85 1.258 . S
O93 Zn87 2.035 . S
O94 Zn87 2.028 . S
O94 C97 1.247 . S
O95 Zn89 2.035 . S
O95 C97 1.258 . S
C96 O90 1.247 . S
C96 O91 1.258 . S
C97 O94 1.247 . S
C97 O95 1.258 . S
C98 O100 1.247 . S
C98 O102 1.258 . S
C99 O106 1.247 . S
C99 O107 1.258 . S
O100 C98 1.247 . S
O100 Zn101 2.028 . S
Zn101 O100 2.028 . S
Zn101 O105 2.035 . S
Zn101 O107 2.035 . S
Zn101 O108 2.028 . S
O102 C98 1.258 . S
O102 Zn103 2.035 . S
Zn103 O102 2.035 . S
Zn103 O104 2.028 . S
Zn103 O106 2.028 . S
Zn103 O109 2.035 . S
O104 Zn103 2.028 . S
O104 C110 1.247 . S
O105 Zn101 2.035 . S
O105 C110 1.258 . S
O106 C99 1.247 . S
O106 Zn103 2.028 . S
O107 C99 1.258 . S
O107 Zn101 2.035 . S
O108 Zn101 2.028 . S
O108 C111 1.247 . S
O109 Zn103 2.035 . S
O109 C111 1.258 . S
C110 O104 1.247 . S
C110 O105 1.258 . S
C111 O108 1.247 . S
C111 O109 1.258 . S
C112 O114 1.247 . S
C112 O116 1.258 . S
C113 O120 1.247 . S
C113 O121 1.258 . S
O114 C112 1.247 . S
O114 Zn115 2.028 . S
Zn115 O114 2.028 . S
Zn115 O119 2.035 . S
Zn115 O121 2.035 . S
Zn115 O122 2.028 . S
O116 C112 1.258 . S
O116 Zn117 2.035 . S
Zn117 O116 2.035 . S
Zn117 O118 2.028 . S
Zn117 O120 2.028 . S
Zn117 O123 2.035 . S
O118 Zn117 2.028 . S
O118 C124 1.247 . S
O119 Zn115 2.035 . S
O119 C124 1.258 . S
O120 C113 1.247 . S
O120 Zn117 2.028 . S
O121 C113 1.258 . S
O121 Zn115 2.035 . S
O122 Zn115 2.028 . S
O122 C125 1.247 . S
O123 Zn117 2.035 . S
O123 C125 1.258 . S
C124 O118 1.247 . S
C124 O119 1.258 . S
C125 O122 1.247 . S
C125 O123 1.258 . S
C126 O128 1.247 . S
C126 O130 1.258 . S
C127 O134 1.247 . S
C127 O135 1.258 . S
O128 C126 1.247 . S
O128 Zn129 2.028 . S
Zn129 O128 2.028 . S
Zn129 O133 2.035 . S
Zn129 O135 2.035 . S
Zn129 O136 2.028 . S
O130 C126 1.258 . S
O130 Zn131 2.035 . S
Zn131 O130 2.035 . S
Zn131 O132 2.028 . S
Zn131 O134 2.028 . S
Zn131 O137 2.035 . S
O132 Zn131 2.028 . S
O132 C138 1.247 . S
O133 Zn129 2.035 . S
O133 C138 1.258 . S
O134 C127 1.247 . S
O134 Zn131 2.028 . S
O135 C127 1.258 . S
O135 Zn129 2.035 . S
O136 Zn129 2.028 . S
O136 C139 1.247 . S
O137 Zn131 2.035 . S
O137 C139 1.258 . S
C138 O132 1.247 . S
C138 O133 1.258 . S
C139 O136 1.247 . S
C139 O137 1.258 . S
C140 O142 1.247 . S
C140 O144 1.258 1_565 S
C141 O148 1.247 . S
C141 O149 1.258 1_545 S
O142 C140 1.247 . S
O142 Zn143 2.028 . S
Zn143 O142 2.028 . S
Zn143 O147 2.035 . S
Zn143 O149 2.035 . S
Zn143 O150 2.028 . S
O144 C140 1.258 1_545 S
O144 Zn145 2.035 . S
Zn145 O144 2.035 . S
Zn145 O146 2.028 . S
Zn145 O148 2.028 . S
Zn145 O151 2.035 . S
O146 Zn145 2.028 . S
O146 C152 1.247 . S
O147 Zn143 2.035 . S
O147 C152 1.258 1_565 S
O148 C141 1.247 . S
O148 Zn145 2.028 . S
O149 C141 1.258 1_565 S
O149 Zn143 2.035 . S
O150 Zn143 2.028 . S
O150 C153 1.247 . S
O151 Zn145 2.035 . S
O151 C153 1.258 1_545 S
C152 O146 1.247 . S
C152 O147 1.258 1_545 S
C153 O150 1.247 . S
C153 O151 1.258 1_565 S
C154 O156 1.247 . S
C154 O158 1.258 1_554 S
C155 O162 1.214 1_554 S
C155 O163 1.258 . S
O156 C154 1.247 . S
O156 Zn157 2.028 . S
Zn157 O156 2.028 . S
Zn157 O161 2.035 . S
Zn157 O163 2.035 . S
Zn157 O164 2.028 . S
O158 C154 1.258 1_556 S
O158 Zn159 2.035 . S
Zn159 O158 2.035 . S
Zn159 O160 2.043 . S
Zn159 O162 2.040 . S
Zn159 O165 2.035 . S
O160 Zn159 2.043 . S
O160 C166 1.207 1_556 S
O161 Zn157 2.035 . S
O161 C166 1.258 . S
O162 C155 1.214 1_556 S
O162 Zn159 2.040 . S
O163 C155 1.258 . S
O163 Zn157 2.035 . S
O164 Zn157 2.028 . S
O164 C167 1.247 . S
O165 Zn159 2.035 . S
O165 C167 1.258 1_556 S
C166 O160 1.207 1_554 S
C166 O161 1.258 . S
C167 O164 1.247 . S
C167 O165 1.258 1_554 S
Co168 N173 2.057 1_545 S
Co168 O185 2.021 . S
Co168 O188 2.062 . S
Co168 O192 2.117 . S
Co168 O193 2.020 1_455 S
C169 O189 1.259 . S
C169 O192 1.258 . S
Co170 N179 2.057 . S
Co170 O186 2.117 . S
Co170 O187 2.020 . S
Co170 O189 2.021 . S
Co170 O194 2.062 . S
C171 N173 1.316 . S
C171 N174 1.347 1_455 S
C171 H176 0.931 . S
C172 N173 1.375 1_655 S
C172 C175 1.350 . S
C172 H177 0.930 . S
N173 Co168 2.057 1_565 S
N173 C171 1.316 . S
N173 C172 1.375 1_455 S
N174 C171 1.347 1_655 S
N174 C175 1.373 . S
C175 C172 1.350 . S
C175 N174 1.373 . S
C175 H196 0.931 . S
H176 C171 0.931 . S
H177 C172 0.930 . S
C178 O185 1.259 1_556 S
C178 O186 1.258 1_556 S
N179 Co170 2.057 . S
N179 C180 1.316 . S
N179 C181 1.375 1_554 S
C180 N179 1.316 . S
C180 N182 1.347 . S
C180 H191 0.931 . S
C181 N179 1.375 1_556 S
C181 C183 1.350 . S
C181 H190 0.930 . S
N182 C180 1.347 . S
N182 C183 1.373 1_554 S
C183 C181 1.350 . S
C183 N182 1.373 1_556 S
C183 H197 0.931 . S
C184 O187 1.256 . S
C184 O188 1.255 . S
O185 Co168 2.021 . S
O185 C178 1.259 1_554 S
O186 Co170 2.117 . S
O186 C178 1.258 1_554 S
O187 Co170 2.020 . S
O187 C184 1.256 . S
O188 Co168 2.062 . S
O188 C184 1.255 . S
O189 C169 1.259 . S
O189 Co170 2.021 . S
H190 C181 0.930 . S
H191 C180 0.931 . S
O192 Co168 2.117 . S
O192 C169 1.258 . S
O193 Co168 2.020 1_655 S
O193 C195 1.256 . S
O194 Co170 2.062 . S
O194 C195 1.255 1_455 S
C195 O193 1.256 . S
C195 O194 1.255 1_655 S
H196 C175 0.931 . S
H197 C183 0.931 . S
Co198 N203 2.057 . S
Co198 O215 2.021 . S
Co198 O218 2.062 . S
Co198 O222 2.117 . S
Co198 O223 2.020 . S
C199 O219 1.259 . S
C199 O222 1.258 . S
Co200 N209 2.057 1_554 S
Co200 O216 2.117 . S
Co200 O217 2.020 . S
Co200 O219 2.021 . S
Co200 O224 2.062 . S
C201 N203 1.316 . S
C201 N204 1.347 . S
C201 H206 0.931 . S
C202 N203 1.375 . S
C202 C205 1.350 1_655 S
C202 H207 0.930 . S
N203 Co198 2.057 . S
N203 C201 1.316 . S
N203 C202 1.375 . S
N204 C201 1.347 . S
N204 C205 1.373 1_655 S
C205 C202 1.350 1_455 S
C205 N204 1.373 1_455 S
C205 H226 0.931 . S
H206 C201 0.931 . S
H207 C202 0.930 . S
C208 O215 1.259 . S
C208 O216 1.258 . S
N209 Co200 2.057 1_556 S
N209 C210 1.316 . S
N209 C211 1.375 . S
C210 N209 1.316 . S
C210 N212 1.347 . S
C210 H221 0.931 . S
C211 N209 1.375 . S
C211 C213 1.350 . S
C211 H220 0.930 . S
N212 C210 1.347 . S
N212 C213 1.373 . S
C213 C211 1.350 . S
C213 N212 1.373 . S
C213 H227 0.931 . S
C214 O217 1.237 1_455 S
C214 O218 1.249 1_455 S
O215 Co198 2.021 . S
O215 C208 1.259 . S
O216 Co200 2.117 . S
O216 C208 1.258 . S
O217 Co200 2.020 . S
O217 C214 1.237 1_655 S
O218 Co198 2.062 . S
O218 C214 1.249 1_655 S
O219 C199 1.259 . S
O219 Co200 2.021 . S
H220 C211 0.930 . S
H221 C210 0.931 . S
O222 Co198 2.117 . S
O222 C199 1.258 . S
O223 Co198 2.020 . S
O223 C225 1.256 . S
O224 Co200 2.062 . S
O224 C225 1.255 . S
C225 O223 1.256 . S
C225 O224 1.255 . S
H226 C205 0.931 . S
H227 C213 0.931 . S
Co228 N233 2.057 . S
Co228 O245 2.021 . S
Co228 O248 2.062 . S
Co228 O252 2.117 . S
Co228 O253 2.020 . S
C229 O249 1.259 . S
C229 O252 1.258 . S
Co230 N239 2.057 . S
Co230 O246 2.117 . S
Co230 O247 2.020 . S
Co230 O249 2.021 . S
Co230 O254 2.062 . S
C231 N233 1.316 . S
C231 N234 1.347 . S
C231 H236 0.931 . S
C232 N233 1.375 . S
C232 C235 1.355 . S
C232 H237 0.930 . S
N233 Co228 2.057 . S
N233 C231 1.316 . S
N233 C232 1.375 . S
N234 C231 1.347 . S
N234 C235 1.378 . S
C235 C232 1.355 . S
C235 N234 1.378 . S
C235 H256 0.923 1_565 S
H236 C231 0.931 . S
H237 C232 0.930 . S
C238 O245 1.259 . S
C238 O246 1.258 . S
N239 Co230 2.057 . S
N239 C240 1.316 . S
N239 C241 1.375 1_455 S
C240 N239 1.316 . S
C240 N242 1.347 . S
C240 H251 0.931 . S
C241 N239 1.375 1_655 S
C241 C243 1.350 . S
C241 H250 0.930 . S
N242 C240 1.347 . S
N242 C243 1.373 1_455 S
C243 C241 1.350 . S
C243 N242 1.373 1_655 S
C243 H257 0.931 . S
C244 O247 1.256 . S
C244 O248 1.255 . S
O245 Co228 2.021 . S
O245 C238 1.259 . S
O246 Co230 2.117 . S
O246 C238 1.258 . S
O247 Co230 2.020 . S
O247 C244 1.256 . S
O248 Co228 2.062 . S
O248 C244 1.255 . S
O249 C229 1.259 . S
O249 Co230 2.021 . S
H250 C241 0.930 . S
H251 C240 0.931 . S
O252 Co228 2.117 . S
O252 C229 1.258 . S
O253 Co228 2.020 . S
O253 C255 1.256 . S
O254 Co230 2.062 . S
O254 C255 1.255 . S
C255 O253 1.256 . S
C255 O254 1.255 . S
H256 C235 0.923 1_545 S
H257 C243 0.931 . S
Co258 N263 2.057 . S
Co258 O275 2.021 . S
Co258 O278 2.062 . S
Co258 O282 2.117 . S
Co258 O283 2.020 . S
C259 O279 1.259 . S
C259 O282 1.258 1_455 S
Co260 N269 2.057 . S
Co260 O276 2.117 . S
Co260 O277 2.020 . S
Co260 O279 2.021 1_655 S
Co260 O284 2.062 . S
C261 N263 1.316 . S
C261 N264 1.347 . S
C261 H266 0.931 . S
C262 N263 1.375 . S
C262 C265 1.350 . S
C262 H267 0.930 . S
N263 Co258 2.057 . S
N263 C261 1.316 . S
N263 C262 1.375 . S
N264 C261 1.347 . S
N264 C265 1.373 . S
C265 C262 1.350 . S
C265 N264 1.373 . S
C265 H286 0.931 . S
H266 C261 0.931 . S
H267 C262 0.930 . S
C268 O275 1.259 . S
C268 O276 1.258 . S
N269 Co260 2.057 . S
N269 C270 1.316 1_655 S
N269 C271 1.375 . S
C270 N269 1.316 1_455 S
C270 N272 1.347 . S
C270 H281 0.931 . S
C271 N269 1.375 . S
C271 C273 1.350 . S
C271 H280 0.930 . S
N272 C270 1.347 . S
N272 C273 1.373 1_455 S
C273 C271 1.350 . S
C273 N272 1.373 1_655 S
C273 H287 0.931 . S
C274 O277 1.256 . S
C274 O278 1.255 . S
O275 Co258 2.021 . S
O275 C268 1.259 . S
O276 Co260 2.117 . S
O276 C268 1.258 . S
O277 Co260 2.020 . S
O277 C274 1.256 . S
O278 Co258 2.062 . S
O278 C274 1.255 . S
O279 C259 1.259 . S
O279 Co260 2.021 1_455 S
H280 C271 0.930 . S
H281 C270 0.931 . S
O282 Co258 2.117 . S
O282 C259 1.258 1_655 S
O283 Co258 2.020 . S
O283 C285 1.256 . S
O284 Co260 2.062 . S
O284 C285 1.255 . S
C285 O283 1.256 . S
C285 O284 1.255 . S
H286 C265 0.931 . S
H287 C273 0.931 . S
Co288 N293 2.057 . S
Co288 O305 2.021 . S
Co288 O308 2.062 . S
Co288 O312 2.117 . S
Co288 O313 2.020 . S
C289 O309 1.259 . S
C289 O312 1.258 . S
Co290 N299 2.057 . S
Co290 O306 2.117 . S
Co290 O307 2.020 . S
Co290 O309 2.021 . S
Co290 O314 2.062 . S
C291 N293 1.316 . S
C291 N294 1.347 . S
C291 H296 0.931 . S
C292 N293 1.375 . S
C292 C295 1.350 . S
C292 H297 0.930 . S
N293 Co288 2.057 . S
N293 C291 1.316 . S
N293 C292 1.375 . S
N294 C291 1.347 . S
N294 C295 1.373 . S
C295 C292 1.350 . S
C295 N294 1.373 . S
C295 H316 0.931 . S
H296 C291 0.931 . S
H297 C292 0.930 . S
C298 O305 1.259 . S
C298 O306 1.258 . S
N299 Co290 2.057 . S
N299 C300 1.316 . S
N299 C301 1.375 . S
C300 N299 1.316 . S
C300 N302 1.347 . S
C300 H311 0.931 1_565 S
C301 N299 1.375 . S
C301 C303 1.350 . S
C301 H310 0.930 . S
N302 C300 1.347 . S
N302 C303 1.373 . S
C303 C301 1.350 . S
C303 N302 1.373 . S
C303 H317 0.931 . S
C304 O307 1.256 . S
C304 O308 1.255 . S
O305 Co288 2.021 . S
O305 C298 1.259 . S
O306 Co290 2.117 . S
O306 C298 1.258 . S
O307 Co290 2.020 . S
O307 C304 1.256 . S
O308 Co288 2.062 . S
O308 C304 1.255 . S
O309 C289 1.259 . S
O309 Co290 2.021 . S
H310 C301 0.930 . S
H311 C300 0.931 1_545 S
O312 Co288 2.117 . S
O312 C289 1.258 . S
O313 Co288 2.020 . S
O313 C315 1.256 . S
O314 Co290 2.062 . S
O314 C315 1.255 . S
C315 O313 1.256 . S
C315 O314 1.255 . S
H316 C295 0.931 . S
H317 C303 0.931 . S
Co318 N323 2.057 . S
Co318 O335 2.021 . S
Co318 O338 2.062 . S
Co318 O342 2.117 . S
Co318 O343 2.020 . S
C319 O339 1.259 . S
C319 O342 1.258 . S
Co320 N329 2.057 . S
Co320 O336 2.117 . S
Co320 O337 2.020 . S
Co320 O339 2.021 . S
Co320 O344 2.062 . S
C321 N323 1.316 . S
C321 N324 1.347 . S
C321 H326 0.931 . S
C322 N323 1.375 . S
C322 C325 1.350 . S
C322 H327 0.930 . S
N323 Co318 2.057 . S
N323 C321 1.316 . S
N323 C322 1.375 . S
N324 C321 1.347 . S
N324 C325 1.373 . S
C325 C322 1.350 . S
C325 N324 1.373 . S
C325 H346 0.931 . S
H326 C321 0.931 . S
H327 C322 0.930 . S
C328 O335 1.259 . S
C328 O336 1.258 . S
N329 Co320 2.057 . S
N329 C330 1.316 . S
N329 C331 1.375 . S
C330 N329 1.316 . S
C330 N332 1.347 . S
C330 H341 0.931 . S
C331 N329 1.375 . S
C331 C333 1.350 . S
C331 H340 0.930 . S
N332 C330 1.347 . S
N332 C333 1.373 . S
C333 C331 1.350 . S
C333 N332 1.373 . S
C333 H347 0.931 . S
C334 O337 1.256 . S
C334 O338 1.255 . S
O335 Co318 2.021 . S
O335 C328 1.259 . S
O336 Co320 2.117 . S
O336 C328 1.258 . S
O337 Co320 2.020 . S
O337 C334 1.256 . S
O338 Co318 2.062 . S
O338 C334 1.255 . S
O339 C319 1.259 . S
O339 Co320 2.021 . S
H340 C331 0.930 . S
H341 C330 0.931 . S
O342 Co318 2.117 . S
O342 C319 1.258 . S
O343 Co318 2.020 . S
O343 C345 1.256 . S
O344 Co320 2.062 . S
O344 C345 1.255 . S
C345 O343 1.256 . S
C345 O344 1.255 . S
H346 C325 0.931 . S
H347 C333 0.931 . S
Co348 N353 2.057 1_556 S
Co348 O365 2.021 . S
Co348 O368 2.062 . S
Co348 O372 2.117 . S
Co348 O373 2.020 . S
C349 O369 1.259 . S
C349 O372 1.258 . S
Co350 N359 2.057 . S
Co350 O366 2.117 . S
Co350 O367 2.020 . S
Co350 O369 2.021 . S
Co350 O374 2.062 . S
C351 N353 1.316 . S
C351 N354 1.347 . S
C351 H356 0.931 . S
C352 N353 1.375 1_556 S
C352 C355 1.350 1_556 S
C352 H357 0.930 . S
N353 Co348 2.057 1_554 S
N353 C351 1.316 . S
N353 C352 1.375 1_554 S
N354 C351 1.347 . S
N354 C355 1.373 . S
C355 C352 1.350 1_554 S
C355 N354 1.373 . S
C355 H376 0.931 . S
H356 C351 0.931 . S
H357 C352 0.930 . S
C358 O365 1.259 . S
C358 O366 1.258 . S
N359 Co350 2.057 . S
N359 C360 1.316 . S
N359 C361 1.375 . S
C360 N359 1.316 . S
C360 N362 1.347 . S
C360 H371 0.931 . S
C361 N359 1.375 . S
C361 C363 1.350 . S
C361 H370 0.930 . S
N362 C360 1.347 . S
N362 C363 1.373 . S
C363 C361 1.350 . S
C363 N362 1.373 . S
C363 H377 0.931 . S
C364 O367 1.256 . S
C364 O368 1.255 . S
O365 Co348 2.021 . S
O365 C358 1.259 . S
O366 Co350 2.117 . S
O366 C358 1.258 . S
O367 Co350 2.020 . S
O367 C364 1.256 . S
O368 Co348 2.062 . S
O368 C364 1.255 . S
O369 C349 1.259 . S
O369 Co350 2.021 . S
H370 C361 0.930 . S
H371 C360 0.931 . S
O372 Co348 2.117 . S
O372 C349 1.258 . S
O373 Co348 2.020 . S
O373 C375 1.256 . S
O374 Co350 2.062 . S
O374 C375 1.255 . S
C375 O373 1.256 . S
C375 O374 1.255 . S
H376 C355 0.931 . S
H377 C363 0.931 . S
Co378 N383 2.057 . S
Co378 O395 2.021 . S
Co378 O398 2.062 . S
Co378 O402 2.117 . S
Co378 O403 2.020 . S
C379 O399 1.259 . S
C379 O402 1.258 . S
Co380 N389 2.057 1_545 S
Co380 O396 2.117 . S
Co380 O397 2.020 . S
Co380 O399 2.021 . S
Co380 O404 2.062 . S
C381 N383 1.316 . S
C381 N384 1.347 . S
C381 H386 0.931 . S
C382 N383 1.375 . S
C382 C385 1.350 . S
C382 H387 0.930 . S
N383 Co378 2.057 . S
N383 C381 1.316 . S
N383 C382 1.375 . S
N384 C381 1.347 . S
N384 C385 1.373 . S
C385 C382 1.350 . S
C385 N384 1.373 . S
C385 H406 0.931 1_556 S
H386 C381 0.931 . S
H387 C382 0.930 . S
C388 O395 1.259 . S
C388 O396 1.258 . S
N389 Co380 2.057 1_565 S
N389 C390 1.316 . S
N389 C391 1.375 . S
C390 N389 1.316 . S
C390 N392 1.347 . S
C390 H401 0.931 . S
C391 N389 1.375 . S
C391 C393 1.350 . S
C391 H400 0.930 . S
N392 C390 1.347 . S
N392 C393 1.373 . S
C393 C391 1.350 . S
C393 N392 1.373 . S
C393 H407 0.931 . S
C394 O397 1.256 1_554 S
C394 O398 1.255 1_554 S
O395 Co378 2.021 . S
O395 C388 1.259 . S
O396 Co380 2.117 . S
O396 C388 1.258 . S
O397 Co380 2.020 . S
O397 C394 1.256 1_556 S
O398 Co378 2.062 . S
O398 C394 1.255 1_556 S
O399 C379 1.259 . S
O399 Co380 2.021 . S
H400 C391 0.930 . S
H401 C390 0.931 . S
O402 Co378 2.117 . S
O402 C379 1.258 . S
O403 Co378 2.020 . S
O403 C405 1.256 . S
O404 Co380 2.062 . S
O404 C405 1.255 . S
C405 O403 1.256 . S
C405 O404 1.255 . S
H406 C385 0.931 1_554 S
H407 C393 0.931 . S
H408 C420 0.930 . S
H409 C422 0.930 1_655 S
H410 C423 0.930 . S
H411 C427 0.959 . S
H412 C427 0.959 . S
H413 C427 0.961 . S
H414 C428 0.960 . S
H415 C428 0.961 . S
H416 C428 0.959 . S
H417 C431 0.929 . S
H418 C432 0.931 . S
H419 C434 0.930 . S
C420 H408 0.930 . S
C420 C421 1.399 . S
C420 C425 1.399 . S
C421 C420 1.399 . S
C421 C422 1.376 . S
C422 H409 0.930 1_455 S
C422 C421 1.376 . S
C422 C423 1.388 1_455 S
C423 H410 0.930 . S
C423 C422 1.388 1_655 S
C423 C424 1.390 1_655 S
C424 C423 1.390 1_455 S
C424 C425 1.394 . S
C424 C430 1.465 . S
C425 C420 1.399 . S
C425 C424 1.394 . S
C425 C426 1.516 . S
C426 C425 1.516 . S
C426 C427 1.502 . S
C426 C428 1.561 . S
C426 C429 1.526 . S
C427 H411 0.959 . S
C427 H412 0.959 . S
C427 H413 0.961 . S
C427 C426 1.502 . S
C428 H414 0.960 . S
C428 H415 0.961 . S
C428 H416 0.959 . S
C428 C426 1.561 . S
C429 C426 1.526 . S
C429 C430 1.396 . S
C429 C434 1.390 . S
C430 C424 1.465 . S
C430 C429 1.396 . S
C430 C431 1.399 1_455 S
C431 H417 0.929 . S
C431 C430 1.399 1_655 S
C431 C432 1.385 . S
C432 H418 0.931 . S
C432 C431 1.385 . S
C432 C433 1.389 1_655 S
C433 C432 1.389 1_455 S
C433 C434 1.387 . S
C434 H419 0.930 . S
C434 C429 1.390 . S
C434 C433 1.387 . S
H435 C447 0.930 1_655 S
H436 C449 0.930 . S
H437 C450 0.930 . S
H438 C454 0.959 . S
H439 C454 0.959 . S
H440 C454 0.961 . S
H441 C455 0.960 . S
H442 C455 0.961 . S
H443 C455 0.959 . S
H444 C458 0.929 . S
H445 C459 0.931 . S
H446 C461 0.930 1_655 S
C447 H435 0.930 1_455 S
C447 C448 1.399 . S
C447 C452 1.399 . S
C448 C447 1.399 . S
C448 C449 1.376 . S
C449 H436 0.930 . S
C449 C448 1.376 . S
C449 C450 1.388 . S
C450 H437 0.930 . S
C450 C449 1.388 . S
C450 C451 1.390 . S
C451 C450 1.390 . S
C451 C452 1.394 . S
C451 C457 1.465 . S
C452 C447 1.399 . S
C452 C451 1.394 . S
C452 C453 1.516 . S
C453 C452 1.516 . S
C453 C454 1.502 1_455 S
C453 C455 1.561 . S
C453 C456 1.526 . S
C454 H438 0.959 . S
C454 H439 0.959 . S
C454 H440 0.961 . S
C454 C453 1.502 1_655 S
C455 H441 0.960 . S
C455 H442 0.961 . S
C455 H443 0.959 . S
C455 C453 1.561 . S
C456 C453 1.526 . S
C456 C457 1.396 . S
C456 C461 1.390 . S
C457 C451 1.465 . S
C457 C456 1.396 . S
C457 C458 1.399 . S
C458 H444 0.929 . S
C458 C457 1.399 . S
C458 C459 1.385 . S
C459 H445 0.931 . S
C459 C458 1.385 . S
C459 C460 1.389 . S
C460 C459 1.389 . S
C460 C461 1.387 . S
C461 H446 0.930 1_455 S
C461 C456 1.390 . S
C461 C460 1.387 . S
H462 C474 0.930 . S
H463 C476 0.931 . S
H464 C477 0.930 . S
H465 C481 0.959 1_655 S
H466 C481 0.959 . S
H467 C481 0.961 . S
H468 C482 0.960 . S
H469 C482 0.961 . S
H470 C482 0.959 . S
H471 C485 0.929 . S
H472 C486 0.931 . S
H473 C488 0.930 . S
C474 H462 0.930 . S
C474 C475 1.399 . S
C474 C479 1.399 . S
C475 C474 1.399 . S
C475 C476 1.375 1_455 S
C476 H463 0.931 . S
C476 C475 1.375 1_655 S
C476 C477 1.389 . S
C477 H464 0.930 . S
C477 C476 1.389 . S
C477 C478 1.390 1_655 S
C478 C477 1.390 1_455 S
C478 C479 1.394 . S
C478 C484 1.465 1_455 S
C479 C474 1.399 . S
C479 C478 1.394 . S
C479 C480 1.516 . S
C480 C479 1.516 . S
C480 C481 1.502 . S
C480 C482 1.561 . S
C480 C483 1.526 . S
C481 H465 0.959 1_455 S
C481 H466 0.959 . S
C481 H467 0.961 . S
C481 C480 1.502 . S
C482 H468 0.960 . S
C482 H469 0.961 . S
C482 H470 0.959 . S
C482 C480 1.561 . S
C483 C480 1.526 . S
C483 C484 1.396 1_455 S
C483 C488 1.390 . S
C484 C478 1.465 1_655 S
C484 C483 1.396 1_655 S
C484 C485 1.399 . S
C485 H471 0.929 . S
C485 C484 1.399 . S
C485 C486 1.385 . S
C486 H472 0.931 . S
C486 C485 1.385 . S
C486 C487 1.389 . S
C487 C486 1.389 . S
C487 C488 1.387 1_655 S
C488 H473 0.930 . S
C488 C483 1.390 . S
C488 C487 1.387 1_455 S
H489 C501 0.930 . S
H490 C503 0.930 . S
H491 C504 0.930 . S
H492 C508 0.959 . S
H493 C508 0.959 . S
H494 C508 0.961 . S
H495 C509 0.960 . S
H496 C509 0.961 . S
H497 C509 0.959 . S
H498 C512 0.929 . S
H499 C513 0.931 . S
H500 C515 0.930 . S
C501 H489 0.930 . S
C501 C502 1.390 1_655 S
C501 C506 1.399 . S
C502 C501 1.390 1_455 S
C502 C503 1.387 . S
C503 H490 0.930 . S
C503 C502 1.387 . S
C503 C504 1.388 . S
C504 H491 0.930 . S
C504 C503 1.388 . S
C504 C505 1.390 . S
C505 C504 1.390 . S
C505 C506 1.394 1_455 S
C505 C511 1.465 . S
C506 C501 1.399 . S
C506 C505 1.394 1_655 S
C506 C507 1.516 . S
C507 C506 1.516 . S
C507 C508 1.502 . S
C507 C509 1.561 . S
C507 C510 1.526 . S
C508 H492 0.959 . S
C508 H493 0.959 . S
C508 H494 0.961 . S
C508 C507 1.502 . S
C509 H495 0.960 . S
C509 H496 0.961 . S
C509 H497 0.959 . S
C509 C507 1.561 . S
C510 C507 1.526 . S
C510 C511 1.396 1_655 S
C510 C515 1.390 . S
C511 C505 1.465 . S
C511 C510 1.396 1_455 S
C511 C512 1.399 . S
C512 H498 0.929 . S
C512 C511 1.399 . S
C512 C513 1.385 . S
C513 H499 0.931 . S
C513 C512 1.385 . S
C513 C514 1.389 1_455 S
C514 C513 1.389 1_655 S
C514 C515 1.387 . S
C515 H500 0.930 . S
C515 C510 1.390 . S
C515 C514 1.387 . S
H516 C528 0.930 . S
H517 C530 0.930 . S
H518 C531 0.930 . S
H519 C535 0.959 . S
H520 C535 0.959 . S
H521 C535 0.961 . S
H522 C536 0.960 . S
H523 C536 0.961 . S
H524 C536 0.959 . S
H525 C539 0.929 . S
H526 C540 0.931 . S
H527 C542 0.930 . S
C528 H516 0.930 . S
C528 C529 1.399 . S
C528 C533 1.399 . S
C529 C528 1.399 . S
C529 C530 1.376 1_545 S
C530 H517 0.930 . S
C530 C529 1.376 1_565 S
C530 C531 1.388 . S
C531 H518 0.930 . S
C531 C530 1.388 . S
C531 C532 1.390 1_565 S
C532 C531 1.390 1_545 S
C532 C533 1.394 . S
C532 C538 1.465 . S
C533 C528 1.399 . S
C533 C532 1.394 . S
C533 C534 1.516 . S
C534 C533 1.516 . S
C534 C535 1.502 . S
C534 C536 1.561 . S
C534 C537 1.526 . S
C535 H519 0.959 . S
C535 H520 0.959 . S
C535 H521 0.961 . S
C535 C534 1.502 . S
C536 H522 0.960 . S
C536 H523 0.961 . S
C536 H524 0.959 . S
C536 C534 1.561 . S
C537 C534 1.526 . S
C537 C538 1.396 . S
C537 C542 1.390 . S
C538 C532 1.465 . S
C538 C537 1.396 . S
C538 C539 1.399 1_545 S
C539 H525 0.929 . S
C539 C538 1.399 1_565 S
C539 C540 1.385 . S
C540 H526 0.931 . S
C540 C539 1.385 . S
C540 C541 1.389 1_565 S
C541 C540 1.389 1_545 S
C541 C542 1.387 . S
C542 H527 0.930 . S
C542 C537 1.390 . S
C542 C541 1.387 . S
H543 C555 0.930 . S
H544 C557 0.930 . S
H545 C558 0.930 . S
H546 C562 0.959 . S
H547 C562 0.959 . S
H548 C562 0.961 . S
H549 C563 0.960 . S
H550 C563 0.961 . S
H551 C563 0.959 . S
H552 C566 0.929 . S
H553 C567 0.931 . S
H554 C569 0.930 . S
C555 H543 0.930 . S
C555 C556 1.399 . S
C555 C560 1.399 . S
C556 C555 1.399 . S
C556 C557 1.376 . S
C557 H544 0.930 . S
C557 C556 1.376 . S
C557 C558 1.388 . S
C558 H545 0.930 . S
C558 C557 1.388 . S
C558 C559 1.390 . S
C559 C558 1.390 . S
C559 C560 1.394 . S
C559 C565 1.465 . S
C560 C555 1.399 . S
C560 C559 1.394 . S
C560 C561 1.516 . S
C561 C560 1.516 . S
C561 C562 1.502 . S
C561 C563 1.561 . S
C561 C564 1.526 . S
C562 H546 0.959 . S
C562 H547 0.959 . S
C562 H548 0.961 . S
C562 C561 1.502 . S
C563 H549 0.960 . S
C563 H550 0.961 . S
C563 H551 0.959 . S
C563 C561 1.561 . S
C564 C561 1.526 . S
C564 C565 1.396 . S
C564 C569 1.390 . S
C565 C559 1.465 . S
C565 C564 1.396 . S
C565 C566 1.399 . S
C566 H552 0.929 . S
C566 C565 1.399 . S
C566 C567 1.385 . S
C567 H553 0.931 . S
C567 C566 1.385 . S
C567 C568 1.389 . S
C568 C567 1.389 . S
C568 C569 1.387 . S
C569 H554 0.930 . S
C569 C564 1.390 . S
C569 C568 1.387 . S
H570 C582 0.930 . S
H571 C584 0.930 . S
H572 C585 0.930 . S
H573 C589 0.959 . S
H574 C589 0.959 . S
H575 C589 0.961 . S
H576 C590 0.960 . S
H577 C590 0.961 . S
H578 C590 0.959 . S
H579 C593 0.929 . S
H580 C594 0.931 . S
H581 C596 0.930 . S
C582 H570 0.930 . S
C582 C583 1.399 . S
C582 C587 1.399 . S
C583 C582 1.399 . S
C583 C584 1.376 1_565 S
C584 H571 0.930 . S
C584 C583 1.376 1_545 S
C584 C585 1.388 . S
C585 H572 0.930 . S
C585 C584 1.388 . S
C585 C586 1.390 . S
C586 C585 1.390 . S
C586 C587 1.394 1_545 S
C586 C592 1.465 . S
C587 C582 1.399 . S
C587 C586 1.394 1_565 S
C587 C588 1.516 . S
C588 C587 1.516 . S
C588 C589 1.502 . S
C588 C590 1.561 . S
C588 C591 1.526 . S
C589 H573 0.959 . S
C589 H574 0.959 . S
C589 H575 0.961 . S
C589 C588 1.502 . S
C590 H576 0.960 . S
C590 H577 0.961 . S
C590 H578 0.959 . S
C590 C588 1.561 . S
C591 C588 1.526 . S
C591 C592 1.396 1_565 S
C591 C596 1.390 . S
C592 C586 1.465 . S
C592 C591 1.396 1_545 S
C592 C593 1.399 . S
C593 H579 0.929 . S
C593 C592 1.399 . S
C593 C594 1.385 . S
C594 H580 0.931 . S
C594 C593 1.385 . S
C594 C595 1.389 . S
C595 C594 1.389 . S
C595 C596 1.387 1_545 S
C596 H581 0.930 . S
C596 C591 1.390 . S
C596 C595 1.387 1_565 S
H597 C609 0.930 . S
H598 C611 0.930 . S
H599 C612 0.930 . S
H600 C616 0.959 . S
H601 C616 0.959 . S
H602 C616 0.961 . S
H603 C617 0.960 . S
H604 C617 0.961 . S
H605 C617 0.959 . S
H606 C620 0.929 . S
H607 C621 0.931 . S
H608 C623 0.930 . S
C609 H597 0.930 . S
C609 C610 1.399 . S
C609 C614 1.399 . S
C610 C609 1.399 . S
C610 C611 1.376 . S
C611 H598 0.930 . S
C611 C610 1.376 . S
C611 C612 1.388 . S
C612 H599 0.930 . S
C612 C611 1.388 . S
C612 C613 1.390 . S
C613 C612 1.390 . S
C613 C614 1.394 . S
C613 C619 1.465 . S
C614 C609 1.399 . S
C614 C613 1.394 . S
C614 C615 1.516 . S
C615 C614 1.516 . S
C615 C616 1.502 . S
C615 C617 1.561 . S
C615 C618 1.526 . S
C616 H600 0.959 . S
C616 H601 0.959 . S
C616 H602 0.961 . S
C616 C615 1.502 . S
C617 H603 0.960 . S
C617 H604 0.961 . S
C617 H605 0.959 . S
C617 C615 1.561 . S
C618 C615 1.526 . S
C618 C619 1.396 . S
C618 C623 1.390 . S
C619 C613 1.465 . S
C619 C618 1.396 . S
C619 C620 1.399 . S
C620 H606 0.929 . S
C620 C619 1.399 . S
C620 C621 1.385 . S
C621 H607 0.931 . S
C621 C620 1.385 . S
C621 C622 1.389 . S
C622 C621 1.389 . S
C622 C623 1.387 . S
C623 H608 0.930 . S
C623 C618 1.390 . S
C623 C622 1.387 . S
H624 C636 0.930 1_556 S
H625 C638 0.930 . S
H626 C639 0.930 . S
H627 C643 0.959 . S
H628 C643 0.959 . S
H629 C643 0.961 . S
H630 C644 0.960 . S
H631 C644 0.961 . S
H632 C644 0.959 . S
H633 C647 0.929 . S
H634 C648 0.931 . S
H635 C650 0.930 1_556 S
C636 H624 0.930 1_554 S
C636 C637 1.399 . S
C636 C641 1.399 . S
C637 C636 1.399 . S
C637 C638 1.376 . S
C638 H625 0.930 . S
C638 C637 1.376 . S
C638 C639 1.388 . S
C639 H626 0.930 . S
C639 C638 1.388 . S
C639 C640 1.390 . S
C640 C639 1.390 . S
C640 C641 1.394 . S
C640 C646 1.465 . S
C641 C636 1.399 . S
C641 C640 1.394 . S
C641 C642 1.516 1_554 S
C642 C641 1.516 1_556 S
C642 C643 1.502 . S
C642 C644 1.561 . S
C642 C645 1.526 1_556 S
C643 H627 0.959 . S
C643 H628 0.959 . S
C643 H629 0.961 . S
C643 C642 1.502 . S
C644 H630 0.960 . S
C644 H631 0.961 . S
C644 H632 0.959 . S
C644 C642 1.561 . S
C645 C642 1.526 1_554 S
C645 C646 1.396 . S
C645 C650 1.390 . S
C646 C640 1.465 . S
C646 C645 1.396 . S
C646 C647 1.399 . S
C647 H633 0.929 . S
C647 C646 1.399 . S
C647 C648 1.385 . S
C648 H634 0.931 . S
C648 C647 1.385 . S
C648 C649 1.389 . S
C649 C648 1.389 . S
C649 C650 1.387 . S
C650 H635 0.930 1_554 S
C650 C645 1.390 . S
C650 C649 1.387 . S
H651 C663 0.930 . S
H652 C665 0.930 . S
H653 C666 0.930 . S
H654 C670 0.959 . S
H655 C670 0.959 . S
H656 C670 0.961 . S
H657 C671 0.960 . S
H658 C671 0.961 . S
H659 C671 0.959 . S
H660 C674 0.929 . S
H661 C675 0.931 . S
H662 C677 0.930 . S
C663 H651 0.930 . S
C663 C664 1.399 . S
C663 C668 1.399 . S
C664 C663 1.399 . S
C664 C665 1.376 . S
C665 H652 0.930 . S
C665 C664 1.376 . S
C665 C666 1.388 . S
C666 H653 0.930 . S
C666 C665 1.388 . S
C666 C667 1.390 . S
C667 C666 1.390 . S
C667 C668 1.394 . S
C667 C673 1.465 . S
C668 C663 1.399 . S
C668 C667 1.394 . S
C668 C669 1.516 . S
C669 C668 1.516 . S
C669 C670 1.502 . S
C669 C671 1.561 . S
C669 C672 1.526 . S
C670 H654 0.959 . S
C670 H655 0.959 . S
C670 H656 0.961 . S
C670 C669 1.502 . S
C671 H657 0.960 . S
C671 H658 0.961 . S
C671 H659 0.959 . S
C671 C669 1.561 . S
C672 C669 1.526 . S
C672 C673 1.396 . S
C672 C677 1.390 . S
C673 C667 1.465 . S
C673 C672 1.396 . S
C673 C674 1.399 . S
C674 H660 0.929 . S
C674 C673 1.399 . S
C674 C675 1.385 . S
C675 H661 0.931 . S
C675 C674 1.385 . S
C675 C676 1.389 . S
C676 C675 1.389 . S
C676 C677 1.387 . S
C677 H662 0.930 . S
C677 C672 1.390 . S
C677 C676 1.387 . S
H678 C690 0.930 . S
H679 C692 0.930 . S
H680 C693 0.930 . S
H681 C697 0.959 . S
H682 C697 0.959 . S
H683 C697 0.961 . S
H684 C698 0.960 . S
H685 C698 0.961 . S
H686 C698 0.959 . S
H687 C701 0.929 . S
H688 C702 0.931 . S
H689 C704 0.930 . S
C690 H678 0.930 . S
C690 C691 1.399 . S
C690 C695 1.399 . S
C691 C690 1.399 . S
C691 C692 1.376 . S
C692 H679 0.930 . S
C692 C691 1.376 . S
C692 C693 1.388 . S
C693 H680 0.930 . S
C693 C692 1.388 . S
C693 C694 1.390 . S
C694 C693 1.390 . S
C694 C695 1.394 . S
C694 C700 1.465 . S
C695 C690 1.399 . S
C695 C694 1.394 . S
C695 C696 1.516 . S
C696 C695 1.516 . S
C696 C697 1.502 . S
C696 C698 1.561 . S
C696 C699 1.526 . S
C697 H681 0.959 . S
C697 H682 0.959 . S
C697 H683 0.961 . S
C697 C696 1.502 . S
C698 H684 0.960 . S
C698 H685 0.961 . S
C698 H686 0.959 . S
C698 C696 1.561 . S
C699 C696 1.526 . S
C699 C700 1.396 . S
C699 C704 1.390 . S
C700 C694 1.465 . S
C700 C699 1.396 . S
C700 C701 1.399 . S
C701 H687 0.929 . S
C701 C700 1.399 . S
C701 C702 1.385 . S
C702 H688 0.931 . S
C702 C701 1.385 . S
C702 C703 1.389 . S
C703 C702 1.389 . S
C703 C704 1.387 . S
C704 H689 0.930 . S
C704 C699 1.390 . S
C704 C703 1.387 . S
H705 C717 0.930 . S
H706 C719 0.930 . S
H707 C720 0.930 . S
H708 C724 0.959 . S
H709 C724 0.959 . S
H710 C724 0.961 . S
H711 C725 0.960 . S
H712 C725 0.961 . S
H713 C725 0.959 . S
H714 C728 0.929 . S
H715 C729 0.931 . S
H716 C731 0.930 . S
C717 H705 0.930 . S
C717 C718 1.399 . S
C717 C722 1.399 . S
C718 C717 1.399 . S
C718 C719 1.376 . S
C719 H706 0.930 . S
C719 C718 1.376 . S
C719 C720 1.388 . S
C720 H707 0.930 . S
C720 C719 1.388 . S
C720 C721 1.390 . S
C721 C720 1.390 . S
C721 C722 1.394 . S
C721 C727 1.465 . S
C722 C717 1.399 . S
C722 C721 1.394 . S
C722 C723 1.516 . S
C723 C722 1.516 . S
C723 C724 1.502 . S
C723 C725 1.561 . S
C723 C726 1.526 . S
C724 H708 0.959 . S
C724 H709 0.959 . S
C724 H710 0.961 . S
C724 C723 1.502 . S
C725 H711 0.960 . S
C725 H712 0.961 . S
C725 H713 0.959 . S
C725 C723 1.561 . S
C726 C723 1.526 . S
C726 C727 1.396 . S
C726 C731 1.390 . S
C727 C721 1.465 . S
C727 C726 1.396 . S
C727 C728 1.399 . S
C728 H714 0.929 . S
C728 C727 1.399 . S
C728 C729 1.385 . S
C729 H715 0.931 . S
C729 C728 1.385 . S
C729 C730 1.389 . S
C730 C729 1.389 . S
C730 C731 1.387 . S
C731 H716 0.930 . S
C731 C726 1.390 . S
C731 C730 1.387 . S
H732 C744 0.930 . S
H733 C746 0.930 . S
H734 C747 0.930 . S
H735 C751 0.959 . S
H736 C751 0.959 . S
H737 C751 0.961 . S
H738 C752 0.960 . S
H739 C752 0.961 . S
H740 C752 0.959 . S
H741 C755 0.929 . S
H742 C756 0.931 . S
H743 C758 0.930 . S
C744 H732 0.930 . S
C744 C745 1.399 . S
C744 C749 1.399 . S
C745 C744 1.399 . S
C745 C746 1.376 . S
C746 H733 0.930 . S
C746 C745 1.376 . S
C746 C747 1.388 . S
C747 H734 0.930 . S
C747 C746 1.388 . S
C747 C748 1.390 . S
C748 C747 1.390 . S
C748 C749 1.394 . S
C748 C754 1.465 . S
C749 C744 1.399 . S
C749 C748 1.394 . S
C749 C750 1.516 . S
C750 C749 1.516 . S
C750 C751 1.502 . S
C750 C752 1.561 . S
C750 C753 1.526 . S
C751 H735 0.959 . S
C751 H736 0.959 . S
C751 H737 0.961 . S
C751 C750 1.502 . S
C752 H738 0.960 . S
C752 H739 0.961 . S
C752 H740 0.959 . S
C752 C750 1.561 . S
C753 C750 1.526 . S
C753 C754 1.396 . S
C753 C758 1.390 . S
C754 C748 1.465 . S
C754 C753 1.396 . S
C754 C755 1.399 . S
C755 H741 0.929 . S
C755 C754 1.399 . S
C755 C756 1.385 . S
C756 H742 0.931 . S
C756 C755 1.385 . S
C756 C757 1.389 . S
C757 C756 1.389 . S
C757 C758 1.387 . S
C758 H743 0.930 . S
C758 C753 1.390 . S
C758 C757 1.387 . S
H759 C771 0.930 . S
H760 C773 0.930 . S
H761 C774 0.930 . S
H762 C778 0.959 . S
H763 C778 0.959 . S
H764 C778 0.961 . S
H765 C779 0.960 . S
H766 C779 0.961 . S
H767 C779 0.959 . S
H768 C782 0.929 . S
H769 C783 0.931 . S
H770 C785 0.930 . S
C771 H759 0.930 . S
C771 C772 1.399 . S
C771 C776 1.399 . S
C772 C771 1.399 . S
C772 C773 1.376 . S
C773 H760 0.930 . S
C773 C772 1.376 . S
C773 C774 1.388 . S
C774 H761 0.930 . S
C774 C773 1.388 . S
C774 C775 1.390 . S
C775 C774 1.390 . S
C775 C776 1.394 . S
C775 C781 1.465 . S
C776 C771 1.399 . S
C776 C775 1.394 . S
C776 C777 1.516 . S
C777 C776 1.516 . S
C777 C778 1.502 . S
C777 C779 1.561 . S
C777 C780 1.526 . S
C778 H762 0.959 . S
C778 H763 0.959 . S
C778 H764 0.961 . S
C778 C777 1.502 . S
C779 H765 0.960 . S
C779 H766 0.961 . S
C779 H767 0.959 . S
C779 C777 1.561 . S
C780 C777 1.526 . S
C780 C781 1.396 . S
C780 C785 1.390 . S
C781 C775 1.465 . S
C781 C780 1.396 . S
C781 C782 1.399 . S
C782 H768 0.929 . S
C782 C781 1.399 . S
C782 C783 1.385 . S
C783 H769 0.931 . S
C783 C782 1.385 . S
C783 C784 1.389 . S
C784 C783 1.389 . S
C784 C785 1.387 . S
C785 H770 0.930 . S
C785 C780 1.390 . S
C785 C784 1.387 . S
H786 C798 0.930 . S
H787 C800 0.930 . S
H788 C801 0.930 . S
H789 C805 0.959 . S
H790 C805 0.959 . S
H791 C805 0.961 . S
H792 C806 0.960 . S
H793 C806 0.961 . S
H794 C806 0.959 . S
H795 C809 0.929 . S
H796 C810 0.931 . S
H797 C812 0.930 . S
C798 H786 0.930 . S
C798 C799 1.399 . S
C798 C803 1.399 . S
C799 C798 1.399 . S
C799 C800 1.376 . S
C800 H787 0.930 . S
C800 C799 1.376 . S
C800 C801 1.388 . S
C801 H788 0.930 . S
C801 C800 1.388 . S
C801 C802 1.390 . S
C802 C801 1.390 . S
C802 C803 1.394 . S
C802 C808 1.465 . S
C803 C798 1.399 . S
C803 C802 1.394 . S
C803 C804 1.516 . S
C804 C803 1.516 . S
C804 C805 1.502 . S
C804 C806 1.561 . S
C804 C807 1.526 . S
C805 H789 0.959 . S
C805 H790 0.959 . S
C805 H791 0.961 . S
C805 C804 1.502 . S
C806 H792 0.960 . S
C806 H793 0.961 . S
C806 H794 0.959 . S
C806 C804 1.561 . S
C807 C804 1.526 . S
C807 C808 1.396 . S
C807 C812 1.390 . S
C808 C802 1.465 . S
C808 C807 1.396 . S
C808 C809 1.399 . S
C809 H795 0.929 . S
C809 C808 1.399 . S
C809 C810 1.385 . S
C810 H796 0.931 . S
C810 C809 1.385 . S
C810 C811 1.389 . S
C811 C810 1.389 . S
C811 C812 1.387 . S
C812 H797 0.930 . S
C812 C807 1.390 . S
C812 C811 1.387 . S
H813 C825 0.930 . S
H814 C827 0.930 . S
H815 C828 0.930 . S
H816 C832 0.959 . S
H817 C832 0.959 . S
H818 C832 0.961 . S
H819 C833 0.960 . S
H820 C833 0.961 . S
H821 C833 0.959 . S
H822 C836 0.929 . S
H823 C837 0.931 . S
H824 C839 0.930 . S
C825 H813 0.930 . S
C825 C826 1.399 . S
C825 C830 1.399 . S
C826 C825 1.399 . S
C826 C827 1.376 . S
C827 H814 0.930 . S
C827 C826 1.376 . S
C827 C828 1.388 . S
C828 H815 0.930 . S
C828 C827 1.388 . S
C828 C829 1.390 . S
C829 C828 1.390 . S
C829 C830 1.394 . S
C829 C835 1.465 . S
C830 C825 1.399 . S
C830 C829 1.394 . S
C830 C831 1.516 . S
C831 C830 1.516 . S
C831 C832 1.502 . S
C831 C833 1.561 . S
C831 C834 1.526 . S
C832 H816 0.959 . S
C832 H817 0.959 . S
C832 H818 0.961 . S
C832 C831 1.502 . S
C833 H819 0.960 . S
C833 H820 0.961 . S
C833 H821 0.959 . S
C833 C831 1.561 . S
C834 C831 1.526 . S
C834 C835 1.396 . S
C834 C839 1.390 . S
C835 C829 1.465 . S
C835 C834 1.396 . S
C835 C836 1.399 . S
C836 H822 0.929 . S
C836 C835 1.399 . S
C836 C837 1.385 . S
C837 H823 0.931 . S
C837 C836 1.385 . S
C837 C838 1.389 . S
C838 C837 1.389 . S
C838 C839 1.387 . S
C839 H824 0.930 . S
C839 C834 1.390 . S
C839 C838 1.387 . S
H840 C852 0.930 . S
H841 C854 0.930 . S
H842 C855 0.930 . S
H843 C859 0.959 . S
H844 C859 0.959 . S
H845 C859 0.961 . S
H846 C860 0.960 . S
H847 C860 0.961 . S
H848 C860 0.959 . S
H849 C863 0.929 . S
H850 C864 0.931 . S
H851 C866 0.930 . S
C852 H840 0.930 . S
C852 C853 1.399 . S
C852 C857 1.399 . S
C853 C852 1.399 . S
C853 C854 1.376 . S
C854 H841 0.930 . S
C854 C853 1.376 . S
C854 C855 1.388 . S
C855 H842 0.930 . S
C855 C854 1.388 . S
C855 C856 1.390 . S
C856 C855 1.390 . S
C856 C857 1.394 . S
C856 C862 1.465 . S
C857 C852 1.399 . S
C857 C856 1.394 . S
C857 C858 1.516 . S
C858 C857 1.516 . S
C858 C859 1.502 . S
C858 C860 1.561 . S
C858 C861 1.526 . S
C859 H843 0.959 . S
C859 H844 0.959 . S
C859 H845 0.961 . S
C859 C858 1.502 . S
C860 H846 0.960 . S
C860 H847 0.961 . S
C860 H848 0.959 . S
C860 C858 1.561 . S
C861 C858 1.526 . S
C861 C862 1.396 . S
C861 C866 1.390 . S
C862 C856 1.465 . S
C862 C861 1.396 . S
C862 C863 1.399 . S
C863 H849 0.929 . S
C863 C862 1.399 . S
C863 C864 1.385 . S
C864 H850 0.931 . S
C864 C863 1.385 . S
C864 C865 1.389 . S
C865 C864 1.389 . S
C865 C866 1.387 . S
C866 H851 0.930 . S
C866 C861 1.390 . S
C866 C865 1.387 . S
H867 C879 0.930 . S
H868 C881 0.930 . S
H869 C882 0.930 . S
H870 C886 0.959 . S
H871 C886 0.959 . S
H872 C886 0.961 . S
H873 C887 0.960 . S
H874 C887 0.961 . S
H875 C887 0.959 . S
H876 C890 0.929 . S
H877 C891 0.931 . S
H878 C893 0.930 . S
C879 H867 0.930 . S
C879 C880 1.399 . S
C879 C884 1.399 . S
C880 C879 1.399 . S
C880 C881 1.376 1_565 S
C881 H868 0.930 . S
C881 C880 1.376 1_545 S
C881 C882 1.388 . S
C882 H869 0.930 . S
C882 C881 1.388 . S
C882 C883 1.390 . S
C883 C882 1.390 . S
C883 C884 1.394 1_545 S
C883 C889 1.465 . S
C884 C879 1.399 . S
C884 C883 1.394 1_565 S
C884 C885 1.516 . S
C885 C884 1.516 . S
C885 C886 1.502 . S
C885 C887 1.561 . S
C885 C888 1.526 . S
C886 H870 0.959 . S
C886 H871 0.959 . S
C886 H872 0.961 . S
C886 C885 1.502 . S
C887 H873 0.960 . S
C887 H874 0.961 . S
C887 H875 0.959 . S
C887 C885 1.561 . S
C888 C885 1.526 . S
C888 C889 1.396 1_565 S
C888 C893 1.390 . S
C889 C883 1.465 . S
C889 C888 1.396 1_545 S
C889 C890 1.399 . S
C890 H876 0.929 . S
C890 C889 1.399 . S
C890 C891 1.385 . S
C891 H877 0.931 . S
C891 C890 1.385 . S
C891 C892 1.389 1_545 S
C892 C891 1.389 1_565 S
C892 C893 1.387 . S
C893 H878 0.930 . S
C893 C888 1.390 . S
C893 C892 1.387 . S
H894 C906 0.930 . S
H895 C908 0.930 . S
H896 C909 0.930 . S
H897 C913 0.959 . S
H898 C913 0.959 . S
H899 C913 0.961 . S
H900 C914 0.960 . S
H901 C914 0.961 . S
H902 C914 0.959 . S
H903 C917 0.929 . S
H904 C918 0.931 . S
H905 C920 0.930 . S
C906 H894 0.930 . S
C906 C907 1.399 . S
C906 C911 1.399 . S
C907 C906 1.399 . S
C907 C908 1.376 . S
C908 H895 0.930 . S
C908 C907 1.376 . S
C908 C909 1.388 . S
C909 H896 0.930 . S
C909 C908 1.388 . S
C909 C910 1.390 . S
C910 C909 1.390 . S
C910 C911 1.394 . S
C910 C916 1.465 . S
C911 C906 1.399 . S
C911 C910 1.394 . S
C911 C912 1.516 . S
C912 C911 1.516 . S
C912 C913 1.502 . S
C912 C914 1.561 . S
C912 C915 1.526 . S
C913 H897 0.959 . S
C913 H898 0.959 . S
C913 H899 0.961 . S
C913 C912 1.502 . S
C914 H900 0.960 . S
C914 H901 0.961 . S
C914 H902 0.959 . S
C914 C912 1.561 . S
C915 C912 1.526 . S
C915 C916 1.396 . S
C915 C920 1.390 . S
C916 C910 1.465 . S
C916 C915 1.396 . S
C916 C917 1.399 . S
C917 H903 0.929 . S
C917 C916 1.399 . S
C917 C918 1.385 . S
C918 H904 0.931 . S
C918 C917 1.385 . S
C918 C919 1.389 . S
C919 C918 1.389 . S
C919 C920 1.387 . S
C920 H905 0.930 . S
C920 C915 1.390 . S
C920 C919 1.387 . S
H921 C933 0.930 . S
H922 C935 0.930 . S
H923 C936 0.930 . S
H924 C940 0.959 . S
H925 C940 0.959 . S
H926 C940 0.961 . S
H927 C941 0.960 . S
H928 C941 0.961 . S
H929 C941 0.959 . S
H930 C944 0.929 . S
H931 C945 0.931 . S
H932 C947 0.930 . S
C933 H921 0.930 . S
C933 C934 1.399 1_565 S
C933 C938 1.399 1_565 S
C934 C933 1.399 1_545 S
C934 C935 1.376 . S
C935 H922 0.930 . S
C935 C934 1.376 . S
C935 C936 1.388 . S
C936 H923 0.930 . S
C936 C935 1.388 . S
C936 C937 1.390 . S
C937 C936 1.390 . S
C937 C938 1.394 . S
C937 C943 1.465 . S
C938 C933 1.399 1_545 S
C938 C937 1.394 . S
C938 C939 1.516 1_545 S
C939 C938 1.516 1_565 S
C939 C940 1.502 . S
C939 C941 1.561 . S
C939 C942 1.526 1_565 S
C940 H924 0.959 . S
C940 H925 0.959 . S
C940 H926 0.961 . S
C940 C939 1.502 . S
C941 H927 0.960 . S
C941 H928 0.961 . S
C941 H929 0.959 . S
C941 C939 1.561 . S
C942 C939 1.526 1_545 S
C942 C943 1.396 . S
C942 C947 1.390 1_545 S
C943 C937 1.465 . S
C943 C942 1.396 . S
C943 C944 1.399 . S
C944 H930 0.929 . S
C944 C943 1.399 . S
C944 C945 1.385 . S
C945 H931 0.931 . S
C945 C944 1.385 . S
C945 C946 1.389 . S
C946 C945 1.389 . S
C946 C947 1.387 1_545 S
C947 H932 0.930 . S
C947 C942 1.390 1_565 S
C947 C946 1.387 1_565 S
H948 C960 0.930 . S
H949 C962 0.930 . S
H950 C963 0.930 . S
H951 C967 0.959 . S
H952 C967 0.959 . S
H953 C967 0.961 . S
H954 C968 0.960 . S
H955 C968 0.961 . S
H956 C968 0.959 . S
H957 C971 0.929 . S
H958 C972 0.931 . S
H959 C974 0.930 . S
C960 H948 0.930 . S
C960 C961 1.399 . S
C960 C965 1.399 . S
C961 C960 1.399 . S
C961 C962 1.376 . S
C962 H949 0.930 . S
C962 C961 1.376 . S
C962 C963 1.388 . S
C963 H950 0.930 . S
C963 C962 1.388 . S
C963 C964 1.390 . S
C964 C963 1.390 . S
C964 C965 1.394 . S
C964 C970 1.465 . S
C965 C960 1.399 . S
C965 C964 1.394 . S
C965 C966 1.516 . S
C966 C965 1.516 . S
C966 C967 1.502 . S
C966 C968 1.561 . S
C966 C969 1.526 . S
C967 H951 0.959 . S
C967 H952 0.959 . S
C967 H953 0.961 . S
C967 C966 1.502 . S
C968 H954 0.960 . S
C968 H955 0.961 . S
C968 H956 0.959 . S
C968 C966 1.561 . S
C969 C966 1.526 . S
C969 C970 1.396 . S
C969 C974 1.390 . S
C970 C964 1.465 . S
C970 C969 1.396 . S
C970 C971 1.399 . S
C971 H957 0.929 . S
C971 C970 1.399 . S
C971 C972 1.385 . S
C972 H958 0.931 . S
C972 C971 1.385 . S
C972 C973 1.389 . S
C973 C972 1.389 . S
C973 C974 1.387 . S
C974 H959 0.930 . S
C974 C969 1.390 . S
C974 C973 1.387 . S
H975 C987 0.930 . S
H976 C989 0.930 . S
H977 C990 0.930 . S
H978 C994 0.966 . S
H979 C994 0.959 . S
H980 C994 0.961 . S
H981 C995 0.960 . S
H982 C995 0.961 . S
H983 C995 0.959 . S
H984 C998 0.929 . S
H985 C999 0.931 . S
H986 C1001 0.930 . S
C987 H975 0.930 . S
C987 C988 1.414 . S
C987 C992 1.399 . S
C988 C987 1.414 . S
C988 C989 1.354 1_554 S
C989 H976 0.930 . S
C989 C988 1.354 1_556 S
C989 C990 1.388 . S
C990 H977 0.930 . S
C990 C989 1.388 . S
C990 C991 1.390 . S
C991 C990 1.390 . S
C991 C992 1.394 1_556 S
C991 C997 1.465 . S
C992 C987 1.399 . S
C992 C991 1.394 1_554 S
C992 C993 1.516 . S
C993 C992 1.516 . S
C993 C994 1.502 . S
C993 C995 1.561 . S
C993 C996 1.526 . S
C994 H978 0.966 . S
C994 H979 0.959 . S
C994 H980 0.961 . S
C994 C993 1.502 . S
C995 H981 0.960 . S
C995 H982 0.961 . S
C995 H983 0.959 . S
C995 C993 1.561 . S
C996 C993 1.526 . S
C996 C997 1.396 1_554 S
C996 C1001 1.390 . S
C997 C991 1.465 . S
C997 C996 1.396 1_556 S
C997 C998 1.399 . S
C998 H984 0.929 . S
C998 C997 1.399 . S
C998 C999 1.385 . S
C999 H985 0.931 . S
C999 C998 1.385 . S
C999 C1000 1.389 . S
C1000 C999 1.389 . S
C1000 C1001 1.387 1_556 S
C1001 H986 0.930 . S
C1001 C996 1.390 . S
C1001 C1000 1.387 1_554 S
H1002 C1014 0.930 . S
H1003 C1016 0.930 . S
H1004 C1017 0.930 . S
H1005 C1021 0.959 . S
H1006 C1021 0.959 . S
H1007 C1021 0.961 . S
H1008 C1022 0.960 . S
H1009 C1022 0.961 . S
H1010 C1022 0.959 . S
H1011 C1025 0.929 . S
H1012 C1026 0.931 . S
H1013 C1028 0.930 1_554 S
C1014 H1002 0.930 . S
C1014 C1015 1.400 1_554 S
C1014 C1019 1.403 . S
C1015 C1014 1.400 1_556 S
C1015 C1016 1.374 . S
C1016 H1003 0.930 . S
C1016 C1015 1.374 . S
C1016 C1017 1.388 . S
C1017 H1004 0.930 . S
C1017 C1016 1.388 . S
C1017 C1018 1.390 . S
C1018 C1017 1.390 . S
C1018 C1019 1.386 1_556 S
C1018 C1024 1.465 . S
C1019 C1014 1.403 . S
C1019 C1018 1.386 1_554 S
C1019 C1020 1.519 . S
C1020 C1019 1.519 . S
C1020 C1021 1.502 . S
C1020 C1022 1.561 1_554 S
C1020 C1023 1.526 1_554 S
C1021 H1005 0.959 . S
C1021 H1006 0.959 . S
C1021 H1007 0.961 . S
C1021 C1020 1.502 . S
C1022 H1008 0.960 . S
C1022 H1009 0.961 . S
C1022 H1010 0.959 . S
C1022 C1020 1.561 1_556 S
C1023 C1020 1.526 1_556 S
C1023 C1024 1.396 . S
C1023 C1028 1.390 . S
C1024 C1018 1.465 . S
C1024 C1023 1.396 . S
C1024 C1025 1.399 . S
C1025 H1011 0.929 . S
C1025 C1024 1.399 . S
C1025 C1026 1.385 . S
C1026 H1012 0.931 . S
C1026 C1025 1.385 . S
C1026 C1027 1.389 . S
C1027 C1026 1.389 . S
C1027 C1028 1.387 . S
C1028 H1013 0.930 1_556 S
C1028 C1023 1.390 . S
C1028 C1027 1.387 . S
H1029 C1041 0.930 . S
H1030 C1043 0.930 . S
H1031 C1044 0.930 . S
H1032 C1048 0.959 1_556 S
H1033 C1048 0.959 . S
H1034 C1048 0.961 . S
H1035 C1049 0.960 . S
H1036 C1049 0.961 . S
H1037 C1049 0.959 . S
H1038 C1052 0.929 . S
H1039 C1053 0.931 . S
H1040 C1055 0.930 . S
C1041 H1029 0.930 . S
C1041 C1042 1.399 . S
C1041 C1046 1.399 . S
C1042 C1041 1.399 . S
C1042 C1043 1.376 . S
C1043 H1030 0.930 . S
C1043 C1042 1.376 . S
C1043 C1044 1.388 . S
C1044 H1031 0.930 . S
C1044 C1043 1.388 . S
C1044 C1045 1.390 . S
C1045 C1044 1.390 . S
C1045 C1046 1.394 . S
C1045 C1051 1.465 . S
C1046 C1041 1.399 . S
C1046 C1045 1.394 . S
C1046 C1047 1.516 . S
C1047 C1046 1.516 . S
C1047 C1048 1.502 . S
C1047 C1049 1.561 . S
C1047 C1050 1.526 . S
C1048 H1032 0.959 1_554 S
C1048 H1033 0.959 . S
C1048 H1034 0.961 . S
C1048 C1047 1.502 . S
C1049 H1035 0.960 . S
C1049 H1036 0.961 . S
C1049 H1037 0.959 . S
C1049 C1047 1.561 . S
C1050 C1047 1.526 . S
C1050 C1051 1.396 . S
C1050 C1055 1.390 . S
C1051 C1045 1.465 . S
C1051 C1050 1.396 . S
C1051 C1052 1.399 . S
C1052 H1038 0.929 . S
C1052 C1051 1.399 . S
C1052 C1053 1.385 . S
C1053 H1039 0.931 . S
C1053 C1052 1.385 . S
C1053 C1054 1.389 . S
C1054 C1053 1.389 . S
C1054 C1055 1.387 . S
C1055 H1040 0.930 . S
C1055 C1050 1.390 . S
C1055 C1054 1.387 . S
H1056 C1068 0.930 . S
H1057 C1070 0.930 . S
H1058 C1071 0.930 . S
H1059 C1075 0.959 . S
H1060 C1075 0.959 . S
H1061 C1075 0.961 . S
H1062 C1076 0.960 . S
H1063 C1076 0.961 . S
H1064 C1076 0.959 . S
H1065 C1079 0.929 . S
H1066 C1080 0.931 . S
H1067 C1082 0.930 1_655 S
C1068 H1056 0.930 . S
C1068 C1069 1.399 . S
C1068 C1073 1.399 . S
C1069 C1068 1.399 . S
C1069 C1070 1.376 . S
C1070 H1057 0.930 . S
C1070 C1069 1.376 . S
C1070 C1071 1.388 . S
C1071 H1058 0.930 . S
C1071 C1070 1.388 . S
C1071 C1072 1.390 . S
C1072 C1071 1.390 . S
C1072 C1073 1.394 . S
C1072 C1078 1.465 . S
C1073 C1068 1.399 . S
C1073 C1072 1.394 . S
C1073 C1074 1.516 . S
C1074 C1073 1.516 . S
C1074 C1075 1.502 1_455 S
C1074 C1076 1.561 . S
C1074 C1077 1.526 . S
C1075 H1059 0.959 . S
C1075 H1060 0.959 . S
C1075 H1061 0.961 . S
C1075 C1074 1.502 1_655 S
C1076 H1062 0.960 . S
C1076 H1063 0.961 . S
C1076 H1064 0.959 . S
C1076 C1074 1.561 . S
C1077 C1074 1.526 . S
C1077 C1078 1.396 . S
C1077 C1082 1.390 . S
C1078 C1072 1.465 . S
C1078 C1077 1.396 . S
C1078 C1079 1.399 . S
C1079 H1065 0.929 . S
C1079 C1078 1.399 . S
C1079 C1080 1.385 . S
C1080 H1066 0.931 . S
C1080 C1079 1.385 . S
C1080 C1081 1.389 . S
C1081 C1080 1.389 . S
C1081 C1082 1.387 . S
C1082 H1067 0.930 1_455 S
C1082 C1077 1.390 . S
C1082 C1081 1.387 . S
H1083 C1095 0.930 . S
H1084 C1097 0.930 . S
H1085 C1098 0.930 . S
H1086 C1102 0.959 . S
H1087 C1102 0.959 . S
H1088 C1102 0.961 . S
H1089 C1103 0.960 . S
H1090 C1103 0.961 . S
H1091 C1103 0.959 . S
H1092 C1106 0.929 . S
H1093 C1107 0.931 . S
H1094 C1109 0.930 . S
C1095 H1083 0.930 . S
C1095 C1096 1.399 1_655 S
C1095 C1100 1.399 . S
C1096 C1095 1.399 1_455 S
C1096 C1097 1.376 . S
C1097 H1084 0.930 . S
C1097 C1096 1.376 . S
C1097 C1098 1.388 . S
C1098 H1085 0.930 . S
C1098 C1097 1.388 . S
C1098 C1099 1.390 . S
C1099 C1098 1.390 . S
C1099 C1100 1.394 1_455 S
C1099 C1105 1.465 . S
C1100 C1095 1.399 . S
C1100 C1099 1.394 1_655 S
C1100 C1101 1.516 . S
C1101 C1100 1.516 . S
C1101 C1102 1.502 . S
C1101 C1103 1.561 . S
C1101 C1104 1.526 . S
C1102 H1086 0.959 . S
C1102 H1087 0.959 . S
C1102 H1088 0.961 . S
C1102 C1101 1.502 . S
C1103 H1089 0.960 . S
C1103 H1090 0.961 . S
C1103 H1091 0.959 . S
C1103 C1101 1.561 . S
C1104 C1101 1.526 . S
C1104 C1105 1.396 1_655 S
C1104 C1109 1.390 . S
C1105 C1099 1.465 . S
C1105 C1104 1.396 1_455 S
C1105 C1106 1.399 . S
C1106 H1092 0.929 . S
C1106 C1105 1.399 . S
C1106 C1107 1.385 . S
C1107 H1093 0.931 . S
C1107 C1106 1.385 . S
C1107 C1108 1.389 . S
C1108 C1107 1.389 . S
C1108 C1109 1.387 1_455 S
C1109 H1094 0.930 . S
C1109 C1104 1.390 . S
C1109 C1108 1.387 1_655 S
H1110 C1122 0.930 . S
H1111 C1124 0.930 . S
H1112 C1125 0.930 . S
H1113 C1129 0.959 . S
H1114 C1129 0.959 . S
H1115 C1129 0.961 . S
H1116 C1130 0.960 . S
H1117 C1130 0.961 . S
H1118 C1130 0.959 . S
H1119 C1133 0.930 . S
H1120 C1134 0.931 . S
H1121 C1136 0.930 . S
C1122 H1110 0.930 . S
C1122 C1123 1.399 . S
C1122 C1127 1.399 . S
C1123 C1122 1.399 . S
C1123 C1124 1.376 . S
C1124 H1111 0.930 . S
C1124 C1123 1.376 . S
C1124 C1125 1.388 . S
C1125 H1112 0.930 . S
C1125 C1124 1.388 . S
C1125 C1126 1.390 . S
C1126 C1125 1.390 . S
C1126 C1127 1.394 . S
C1126 C1132 1.465 . S
C1127 C1122 1.399 . S
C1127 C1126 1.394 . S
C1127 C1128 1.516 . S
C1128 C1127 1.516 . S
C1128 C1129 1.502 . S
C1128 C1130 1.561 1_455 S
C1128 C1131 1.526 . S
C1129 H1113 0.959 . S
C1129 H1114 0.959 . S
C1129 H1115 0.961 . S
C1129 C1128 1.502 . S
C1130 H1116 0.960 . S
C1130 H1117 0.961 . S
C1130 H1118 0.959 . S
C1130 C1128 1.561 1_655 S
C1131 C1128 1.526 . S
C1131 C1132 1.396 . S
C1131 C1136 1.390 . S
C1132 C1126 1.465 . S
C1132 C1131 1.396 . S
C1132 C1133 1.399 . S
C1133 H1119 0.930 . S
C1133 C1132 1.399 . S
C1133 C1134 1.385 . S
C1134 H1120 0.931 . S
C1134 C1133 1.385 . S
C1134 C1135 1.389 . S
C1135 C1134 1.389 . S
C1135 C1136 1.387 . S
C1136 H1121 0.930 . S
C1136 C1131 1.390 . S
C1136 C1135 1.387 . S
H1137 C1149 0.930 . S
H1138 C1151 0.930 . S
H1139 C1152 0.930 . S
H1140 C1156 0.959 . S
H1141 C1156 0.959 . S
H1142 C1156 0.961 . S
H1143 C1157 0.960 . S
H1144 C1157 0.961 . S
H1145 C1157 0.959 1_455 S
H1146 C1160 0.929 . S
H1147 C1161 0.931 . S
H1148 C1163 0.930 . S
C1149 H1137 0.930 . S
C1149 C1150 1.399 1_655 S
C1149 C1154 1.399 . S
C1150 C1149 1.399 1_455 S
C1150 C1151 1.376 . S
C1151 H1138 0.930 . S
C1151 C1150 1.376 . S
C1151 C1152 1.388 . S
C1152 H1139 0.930 . S
C1152 C1151 1.388 . S
C1152 C1153 1.390 . S
C1153 C1152 1.390 . S
C1153 C1154 1.394 1_455 S
C1153 C1159 1.465 . S
C1154 C1149 1.399 . S
C1154 C1153 1.394 1_655 S
C1154 C1155 1.516 . S
C1155 C1154 1.516 . S
C1155 C1156 1.502 . S
C1155 C1157 1.561 . S
C1155 C1158 1.526 . S
C1156 H1140 0.959 . S
C1156 H1141 0.959 . S
C1156 H1142 0.961 . S
C1156 C1155 1.502 . S
C1157 H1143 0.960 . S
C1157 H1144 0.961 . S
C1157 H1145 0.959 1_655 S
C1157 C1155 1.561 . S
C1158 C1155 1.526 . S
C1158 C1159 1.396 1_655 S
C1158 C1163 1.390 . S
C1159 C1153 1.465 . S
C1159 C1158 1.396 1_455 S
C1159 C1160 1.399 . S
C1160 H1146 0.929 . S
C1160 C1159 1.399 . S
C1160 C1161 1.385 . S
C1161 H1147 0.931 . S
C1161 C1160 1.385 . S
C1161 C1162 1.389 1_455 S
C1162 C1161 1.389 1_655 S
C1162 C1163 1.387 . S
C1163 H1148 0.930 . S
C1163 C1158 1.390 . S
C1163 C1162 1.387 . S
H1164 C1176 0.930 . S
H1165 C1178 0.930 . S
H1166 C1179 0.930 . S
H1167 C1183 0.959 . S
H1168 C1183 0.959 . S
H1169 C1183 0.961 . S
H1170 C1184 0.960 . S
H1171 C1184 0.961 . S
H1172 C1184 0.959 . S
H1173 C1187 0.929 . S
H1174 C1188 0.931 . S
H1175 C1190 0.966 . S
C1176 H1164 0.930 . S
C1176 C1177 1.399 1_565 S
C1176 C1181 1.399 1_565 S
C1177 C1176 1.399 1_545 S
C1177 C1178 1.376 . S
C1178 H1165 0.930 . S
C1178 C1177 1.376 . S
C1178 C1179 1.388 . S
C1179 H1166 0.930 . S
C1179 C1178 1.388 . S
C1179 C1180 1.390 . S
C1180 C1179 1.390 . S
C1180 C1181 1.394 . S
C1180 C1186 1.465 . S
C1181 C1176 1.399 1_545 S
C1181 C1180 1.394 . S
C1181 C1182 1.516 1_545 S
C1182 C1181 1.516 1_565 S
C1182 C1183 1.502 . S
C1182 C1184 1.561 . S
C1182 C1185 1.526 1_565 S
C1183 H1167 0.959 . S
C1183 H1168 0.959 . S
C1183 H1169 0.961 . S
C1183 C1182 1.502 . S
C1184 H1170 0.960 . S
C1184 H1171 0.961 . S
C1184 H1172 0.959 . S
C1184 C1182 1.561 . S
C1185 C1182 1.526 1_545 S
C1185 C1186 1.396 . S
C1185 C1190 1.385 1_545 S
C1186 C1180 1.465 . S
C1186 C1185 1.396 . S
C1186 C1187 1.399 . S
C1187 H1173 0.929 . S
C1187 C1186 1.399 . S
C1187 C1188 1.385 . S
C1188 H1174 0.931 . S
C1188 C1187 1.385 . S
C1188 C1189 1.389 . S
C1189 C1188 1.389 . S
C1189 C1190 1.356 1_545 S
C1190 H1175 0.966 . S
C1190 C1185 1.385 1_565 S
C1190 C1189 1.356 1_565 S
H1191 C1203 0.930 . S
H1192 C1205 0.930 . S
H1193 C1206 0.930 . S
H1194 C1210 0.959 . S
H1195 C1210 0.959 . S
H1196 C1210 0.961 . S
H1197 C1211 0.960 . S
H1198 C1211 0.961 . S
H1199 C1211 0.959 . S
H1200 C1214 0.929 . S
H1201 C1215 0.931 . S
H1202 C1217 0.930 . S
C1203 H1191 0.930 . S
C1203 C1204 1.399 . S
C1203 C1208 1.399 . S
C1204 C1203 1.399 . S
C1204 C1205 1.376 . S
C1205 H1192 0.930 . S
C1205 C1204 1.376 . S
C1205 C1206 1.388 . S
C1206 H1193 0.930 . S
C1206 C1205 1.388 . S
C1206 C1207 1.390 . S
C1207 C1206 1.390 . S
C1207 C1208 1.394 . S
C1207 C1213 1.465 . S
C1208 C1203 1.399 . S
C1208 C1207 1.394 . S
C1208 C1209 1.516 . S
C1209 C1208 1.516 . S
C1209 C1210 1.502 . S
C1209 C1211 1.561 . S
C1209 C1212 1.526 . S
C1210 H1194 0.959 . S
C1210 H1195 0.959 . S
C1210 H1196 0.961 . S
C1210 C1209 1.502 . S
C1211 H1197 0.960 . S
C1211 H1198 0.961 . S
C1211 H1199 0.959 . S
C1211 C1209 1.561 . S
C1212 C1209 1.526 . S
C1212 C1213 1.396 . S
C1212 C1217 1.390 . S
C1213 C1207 1.465 . S
C1213 C1212 1.396 . S
C1213 C1214 1.399 . S
C1214 H1200 0.929 . S
C1214 C1213 1.399 . S
C1214 C1215 1.385 . S
C1215 H1201 0.931 . S
C1215 C1214 1.385 . S
C1215 C1216 1.389 . S
C1216 C1215 1.389 . S
C1216 C1217 1.387 . S
C1217 H1202 0.930 . S
C1217 C1212 1.390 . S
C1217 C1216 1.387 . S
H1218 C1230 0.930 . S
H1219 C1232 0.930 . S
H1220 C1233 0.930 . S
H1221 C1237 0.959 . S
H1222 C1237 0.959 . S
H1223 C1237 0.961 . S
H1224 C1238 0.960 . S
H1225 C1238 0.961 . S
H1226 C1238 0.959 . S
H1227 C1241 0.929 . S
H1228 C1242 0.931 . S
H1229 C1244 0.946 . S
C1230 H1218 0.930 . S
C1230 C1231 1.399 1_545 S
C1230 C1235 1.399 1_545 S
C1231 C1230 1.399 1_565 S
C1231 C1232 1.376 . S
C1232 H1219 0.930 . S
C1232 C1231 1.376 . S
C1232 C1233 1.388 . S
C1233 H1220 0.930 . S
C1233 C1232 1.388 . S
C1233 C1234 1.390 . S
C1234 C1233 1.390 . S
C1234 C1235 1.394 . S
C1234 C1240 1.465 . S
C1235 C1230 1.399 1_565 S
C1235 C1234 1.394 . S
C1235 C1236 1.516 1_565 S
C1236 C1235 1.516 1_545 S
C1236 C1237 1.502 . S
C1236 C1238 1.561 . S
C1236 C1239 1.526 1_545 S
C1237 H1221 0.959 . S
C1237 H1222 0.959 . S
C1237 H1223 0.961 . S
C1237 C1236 1.502 . S
C1238 H1224 0.960 . S
C1238 H1225 0.961 . S
C1238 H1226 0.959 . S
C1238 C1236 1.561 . S
C1239 C1236 1.526 1_565 S
C1239 C1240 1.396 . S
C1239 C1244 1.390 . S
C1240 C1234 1.465 . S
C1240 C1239 1.396 . S
C1240 C1241 1.399 . S
C1241 H1227 0.929 . S
C1241 C1240 1.399 . S
C1241 C1242 1.385 . S
C1242 H1228 0.931 . S
C1242 C1241 1.385 . S
C1242 C1243 1.389 . S
C1243 C1242 1.389 . S
C1243 C1244 1.387 . S
C1244 H1229 0.946 . S
C1244 C1239 1.390 . S
C1244 C1243 1.387 . S
H1245 C1257 0.930 . S
H1246 C1259 0.930 . S
H1247 C1260 0.930 . S
H1248 C1264 0.959 . S
H1249 C1264 0.959 . S
H1250 C1264 0.961 . S
H1251 C1265 0.960 . S
H1252 C1265 0.961 . S
H1253 C1265 0.959 . S
H1254 C1268 0.929 . S
H1255 C1269 0.931 . S
H1256 C1271 0.930 . S
C1257 H1245 0.930 . S
C1257 C1258 1.399 . S
C1257 C1262 1.399 . S
C1258 C1257 1.399 . S
C1258 C1259 1.376 . S
C1259 H1246 0.930 . S
C1259 C1258 1.376 . S
C1259 C1260 1.388 . S
C1260 H1247 0.930 . S
C1260 C1259 1.388 . S
C1260 C1261 1.390 . S
C1261 C1260 1.390 . S
C1261 C1262 1.394 . S
C1261 C1267 1.465 . S
C1262 C1257 1.399 . S
C1262 C1261 1.394 . S
C1262 C1263 1.516 . S
C1263 C1262 1.516 . S
C1263 C1264 1.502 . S
C1263 C1265 1.561 . S
C1263 C1266 1.526 . S
C1264 H1248 0.959 . S
C1264 H1249 0.959 . S
C1264 H1250 0.961 . S
C1264 C1263 1.502 . S
C1265 H1251 0.960 . S
C1265 H1252 0.961 . S
C1265 H1253 0.959 . S
C1265 C1263 1.561 . S
C1266 C1263 1.526 . S
C1266 C1267 1.396 . S
C1266 C1271 1.390 . S
C1267 C1261 1.465 . S
C1267 C1266 1.396 . S
C1267 C1268 1.399 . S
C1268 H1254 0.929 . S
C1268 C1267 1.399 . S
C1268 C1269 1.385 . S
C1269 H1255 0.931 . S
C1269 C1268 1.385 . S
C1269 C1270 1.389 . S
C1270 C1269 1.389 . S
C1270 C1271 1.387 . S
C1271 H1256 0.930 . S
C1271 C1266 1.390 . S
C1271 C1270 1.387 . S
H1272 C1284 0.930 . S
H1273 C1286 0.930 . S
H1274 C1287 0.930 . S
H1275 C1291 0.959 . S
H1276 C1291 0.959 . S
H1277 C1291 0.961 . S
H1278 C1292 0.960 . S
H1279 C1292 0.961 . S
H1280 C1292 0.959 . S
H1281 C1295 0.929 . S
H1282 C1296 0.931 . S
H1283 C1298 0.930 . S
C1284 H1272 0.930 . S
C1284 C1285 1.399 . S
C1284 C1289 1.399 . S
C1285 C1284 1.399 . S
C1285 C1286 1.376 1_554 S
C1286 H1273 0.930 . S
C1286 C1285 1.376 1_556 S
C1286 C1287 1.388 . S
C1287 H1274 0.930 . S
C1287 C1286 1.388 . S
C1287 C1288 1.390 1_556 S
C1288 C1287 1.390 1_554 S
C1288 C1289 1.394 . S
C1288 C1294 1.465 . S
C1289 C1284 1.399 . S
C1289 C1288 1.394 . S
C1289 C1290 1.516 . S
C1290 C1289 1.516 . S
C1290 C1291 1.502 . S
C1290 C1292 1.561 . S
C1290 C1293 1.526 . S
C1291 H1275 0.959 . S
C1291 H1276 0.959 . S
C1291 H1277 0.961 . S
C1291 C1290 1.502 . S
C1292 H1278 0.960 . S
C1292 H1279 0.961 . S
C1292 H1280 0.959 . S
C1292 C1290 1.561 . S
C1293 C1290 1.526 . S
C1293 C1294 1.396 . S
C1293 C1298 1.390 . S
C1294 C1288 1.465 . S
C1294 C1293 1.396 . S
C1294 C1295 1.399 1_554 S
C1295 H1281 0.929 . S
C1295 C1294 1.399 1_556 S
C1295 C1296 1.385 . S
C1296 H1282 0.931 . S
C1296 C1295 1.385 . S
C1296 C1297 1.389 1_556 S
C1297 C1296 1.389 1_554 S
C1297 C1298 1.387 . S
C1298 H1283 0.930 . S
C1298 C1293 1.390 . S
C1298 C1297 1.387 . S
H1299 C1311 0.930 . S
H1300 C1313 0.930 . S
H1301 C1314 0.930 . S
H1302 C1318 0.959 . S
H1303 C1318 0.959 . S
H1304 C1318 0.961 . S
H1305 C1319 0.960 . S
H1306 C1319 0.961 . S
H1307 C1319 0.959 . S
H1308 C1322 0.929 . S
H1309 C1323 0.931 . S
H1310 C1325 0.930 . S
C1311 H1299 0.930 . S
C1311 C1312 1.399 . S
C1311 C1316 1.399 . S
C1312 C1311 1.399 . S
C1312 C1313 1.376 . S
C1313 H1300 0.930 . S
C1313 C1312 1.376 . S
C1313 C1314 1.388 . S
C1314 H1301 0.930 . S
C1314 C1313 1.388 . S
C1314 C1315 1.390 . S
C1315 C1314 1.390 . S
C1315 C1316 1.394 . S
C1315 C1321 1.465 . S
C1316 C1311 1.399 . S
C1316 C1315 1.394 . S
C1316 C1317 1.516 . S
C1317 C1316 1.516 . S
C1317 C1318 1.502 . S
C1317 C1319 1.561 . S
C1317 C1320 1.526 . S
C1318 H1302 0.959 . S
C1318 H1303 0.959 . S
C1318 H1304 0.961 . S
C1318 C1317 1.502 . S
C1319 H1305 0.960 . S
C1319 H1306 0.961 . S
C1319 H1307 0.959 . S
C1319 C1317 1.561 . S
C1320 C1317 1.526 . S
C1320 C1321 1.396 . S
C1320 C1325 1.390 . S
C1321 C1315 1.465 . S
C1321 C1320 1.396 . S
C1321 C1322 1.399 . S
C1322 H1308 0.929 . S
C1322 C1321 1.399 . S
C1322 C1323 1.385 . S
C1323 H1309 0.931 . S
C1323 C1322 1.385 . S
C1323 C1324 1.389 . S
C1324 C1323 1.389 . S
C1324 C1325 1.387 . S
C1325 H1310 0.930 . S
C1325 C1320 1.390 . S
C1325 C1324 1.387 . S
H1326 C1338 0.930 . S
H1327 C1340 0.930 . S
H1328 C1341 0.930 . S
H1329 C1345 0.959 . S
H1330 C1345 0.959 . S
H1331 C1345 0.961 . S
H1332 C1346 0.960 . S
H1333 C1346 0.961 . S
H1334 C1346 0.959 . S
H1335 C1349 0.929 . S
H1336 C1350 0.931 . S
H1337 C1352 0.930 . S
C1338 H1326 0.930 . S
C1338 C1339 1.399 . S
C1338 C1343 1.399 . S
C1339 C1338 1.399 . S
C1339 C1340 1.376 . S
C1340 H1327 0.930 . S
C1340 C1339 1.376 . S
C1340 C1341 1.388 . S
C1341 H1328 0.930 . S
C1341 C1340 1.388 . S
C1341 C1342 1.390 . S
C1342 C1341 1.390 . S
C1342 C1343 1.394 . S
C1342 C1348 1.465 . S
C1343 C1338 1.399 . S
C1343 C1342 1.394 . S
C1343 C1344 1.516 . S
C1344 C1343 1.516 . S
C1344 C1345 1.502 . S
C1344 C1346 1.561 . S
C1344 C1347 1.526 . S
C1345 H1329 0.959 . S
C1345 H1330 0.959 . S
C1345 H1331 0.961 . S
C1345 C1344 1.502 . S
C1346 H1332 0.960 . S
C1346 H1333 0.961 . S
C1346 H1334 0.959 . S
C1346 C1344 1.561 . S
C1347 C1344 1.526 . S
C1347 C1348 1.396 . S
C1347 C1352 1.390 . S
C1348 C1342 1.465 . S
C1348 C1347 1.396 . S
C1348 C1349 1.399 . S
C1349 H1335 0.929 . S
C1349 C1348 1.399 . S
C1349 C1350 1.385 . S
C1350 H1336 0.931 . S
C1350 C1349 1.385 . S
C1350 C1351 1.389 . S
C1351 C1350 1.389 . S
C1351 C1352 1.387 . S
C1352 H1337 0.930 . S
C1352 C1347 1.390 . S
C1352 C1351 1.387 . S
H1353 C1365 0.930 . S
H1354 C1367 0.930 . S
H1355 C1368 0.930 . S
H1356 C1372 0.959 . S
H1357 C1372 0.959 . S
H1358 C1372 0.961 . S
H1359 C1373 0.960 . S
H1360 C1373 0.961 . S
H1361 C1373 0.959 . S
H1362 C1376 0.929 . S
H1363 C1377 0.931 . S
H1364 C1379 0.930 . S
C1365 H1353 0.930 . S
C1365 C1366 1.399 . S
C1365 C1370 1.399 . S
C1366 C1365 1.399 . S
C1366 C1367 1.376 . S
C1367 H1354 0.930 . S
C1367 C1366 1.376 . S
C1367 C1368 1.388 . S
C1368 H1355 0.930 . S
C1368 C1367 1.388 . S
C1368 C1369 1.390 . S
C1369 C1368 1.390 . S
C1369 C1370 1.394 . S
C1369 C1375 1.465 . S
C1370 C1365 1.399 . S
C1370 C1369 1.394 . S
C1370 C1371 1.516 . S
C1371 C1370 1.516 . S
C1371 C1372 1.502 . S
C1371 C1373 1.561 . S
C1371 C1374 1.526 . S
C1372 H1356 0.959 . S
C1372 H1357 0.959 . S
C1372 H1358 0.961 . S
C1372 C1371 1.502 . S
C1373 H1359 0.960 . S
C1373 H1360 0.961 . S
C1373 H1361 0.959 . S
C1373 C1371 1.561 . S
C1374 C1371 1.526 . S
C1374 C1375 1.396 . S
C1374 C1379 1.390 . S
C1375 C1369 1.465 . S
C1375 C1374 1.396 . S
C1375 C1376 1.399 . S
C1376 H1362 0.929 . S
C1376 C1375 1.399 . S
C1376 C1377 1.385 . S
C1377 H1363 0.931 . S
C1377 C1376 1.385 . S
C1377 C1378 1.389 . S
C1378 C1377 1.389 . S
C1378 C1379 1.387 . S
C1379 H1364 0.930 . S
C1379 C1374 1.390 . S
C1379 C1378 1.387 . S
H1380 C1392 0.930 . S
H1381 C1394 0.930 . S
H1382 C1395 0.930 . S
H1383 C1399 0.959 . S
H1384 C1399 0.959 . S
H1385 C1399 0.961 . S
H1386 C1400 0.960 . S
H1387 C1400 0.961 . S
H1388 C1400 0.959 . S
H1389 C1403 0.929 . S
H1390 C1404 0.931 . S
H1391 C1406 0.930 . S
C1392 H1380 0.930 . S
C1392 C1393 1.399 . S
C1392 C1397 1.399 . S
C1393 C1392 1.399 . S
C1393 C1394 1.376 . S
C1394 H1381 0.930 . S
C1394 C1393 1.376 . S
C1394 C1395 1.388 . S
C1395 H1382 0.930 . S
C1395 C1394 1.388 . S
C1395 C1396 1.390 . S
C1396 C1395 1.390 . S
C1396 C1397 1.394 . S
C1396 C1402 1.465 . S
C1397 C1392 1.399 . S
C1397 C1396 1.394 . S
C1397 C1398 1.516 . S
C1398 C1397 1.516 . S
C1398 C1399 1.502 . S
C1398 C1400 1.561 . S
C1398 C1401 1.526 . S
C1399 H1383 0.959 . S
C1399 H1384 0.959 . S
C1399 H1385 0.961 . S
C1399 C1398 1.502 . S
C1400 H1386 0.960 . S
C1400 H1387 0.961 . S
C1400 H1388 0.959 . S
C1400 C1398 1.561 . S
C1401 C1398 1.526 . S
C1401 C1402 1.396 . S
C1401 C1406 1.390 . S
C1402 C1396 1.465 . S
C1402 C1401 1.396 . S
C1402 C1403 1.399 . S
C1403 H1389 0.929 . S
C1403 C1402 1.399 . S
C1403 C1404 1.385 . S
C1404 H1390 0.931 . S
C1404 C1403 1.385 . S
C1404 C1405 1.389 . S
C1405 C1404 1.389 . S
C1405 C1406 1.387 . S
C1406 H1391 0.930 . S
C1406 C1401 1.390 . S
C1406 C1405 1.387 . S
H1407 C1419 0.930 . S
H1408 C1421 0.930 . S
H1409 C1422 0.930 . S
H1410 C1426 0.959 . S
H1411 C1426 0.959 . S
H1412 C1426 0.961 . S
H1413 C1427 0.960 . S
H1414 C1427 0.961 . S
H1415 C1427 0.959 . S
H1416 C1430 0.929 . S
H1417 C1431 0.931 . S
H1418 C1433 0.930 . S
C1419 H1407 0.930 . S
C1419 C1420 1.399 . S
C1419 C1424 1.399 . S
C1420 C1419 1.399 . S
C1420 C1421 1.376 . S
C1421 H1408 0.930 . S
C1421 C1420 1.376 . S
C1421 C1422 1.388 . S
C1422 H1409 0.930 . S
C1422 C1421 1.388 . S
C1422 C1423 1.390 . S
C1423 C1422 1.390 . S
C1423 C1424 1.394 . S
C1423 C1429 1.465 . S
C1424 C1419 1.399 . S
C1424 C1423 1.394 . S
C1424 C1425 1.516 . S
C1425 C1424 1.516 . S
C1425 C1426 1.502 . S
C1425 C1427 1.561 . S
C1425 C1428 1.526 . S
C1426 H1410 0.959 . S
C1426 H1411 0.959 . S
C1426 H1412 0.961 . S
C1426 C1425 1.502 . S
C1427 H1413 0.960 . S
C1427 H1414 0.961 . S
C1427 H1415 0.959 . S
C1427 C1425 1.561 . S
C1428 C1425 1.526 . S
C1428 C1429 1.396 . S
C1428 C1433 1.390 . S
C1429 C1423 1.465 . S
C1429 C1428 1.396 . S
C1429 C1430 1.399 . S
C1430 H1416 0.929 . S
C1430 C1429 1.399 . S
C1430 C1431 1.385 . S
C1431 H1417 0.931 . S
C1431 C1430 1.385 . S
C1431 C1432 1.389 . S
C1432 C1431 1.389 . S
C1432 C1433 1.387 . S
C1433 H1418 0.930 . S
C1433 C1428 1.390 . S
C1433 C1432 1.387 . S
H1434 C1446 0.930 . S
H1435 C1448 0.930 . S
H1436 C1449 0.930 . S
H1437 C1453 0.959 . S
H1438 C1453 0.959 . S
H1439 C1453 0.961 . S
H1440 C1454 0.960 . S
H1441 C1454 0.961 . S
H1442 C1454 0.959 . S
H1443 C1457 0.929 . S
H1444 C1458 0.931 . S
H1445 C1460 0.930 . S
C1446 H1434 0.930 . S
C1446 C1447 1.399 . S
C1446 C1451 1.399 . S
C1447 C1446 1.399 . S
C1447 C1448 1.376 . S
C1448 H1435 0.930 . S
C1448 C1447 1.376 . S
C1448 C1449 1.388 . S
C1449 H1436 0.930 . S
C1449 C1448 1.388 . S
C1449 C1450 1.390 . S
C1450 C1449 1.390 . S
C1450 C1451 1.394 . S
C1450 C1456 1.465 . S
C1451 C1446 1.399 . S
C1451 C1450 1.394 . S
C1451 C1452 1.516 . S
C1452 C1451 1.516 . S
C1452 C1453 1.502 . S
C1452 C1454 1.561 . S
C1452 C1455 1.526 . S
C1453 H1437 0.959 . S
C1453 H1438 0.959 . S
C1453 H1439 0.961 . S
C1453 C1452 1.502 . S
C1454 H1440 0.960 . S
C1454 H1441 0.961 . S
C1454 H1442 0.959 . S
C1454 C1452 1.561 . S
C1455 C1452 1.526 . S
C1455 C1456 1.396 . S
C1455 C1460 1.390 . S
C1456 C1450 1.465 . S
C1456 C1455 1.396 . S
C1456 C1457 1.399 . S
C1457 H1443 0.929 . S
C1457 C1456 1.399 . S
C1457 C1458 1.385 . S
C1458 H1444 0.931 . S
C1458 C1457 1.385 . S
C1458 C1459 1.389 . S
C1459 C1458 1.389 . S
C1459 C1460 1.387 . S
C1460 H1445 0.930 . S
C1460 C1455 1.390 . S
C1460 C1459 1.387 . S
H1461 C1473 0.930 . S
H1462 C1475 0.930 . S
H1463 C1476 0.930 . S
H1464 C1480 0.959 . S
H1465 C1480 0.959 . S
H1466 C1480 0.961 . S
H1467 C1481 0.960 . S
H1468 C1481 0.961 . S
H1469 C1481 0.959 . S
H1470 C1484 0.929 . S
H1471 C1485 0.931 . S
H1472 C1487 0.930 . S
C1473 H1461 0.930 . S
C1473 C1474 1.399 . S
C1473 C1478 1.399 . S
C1474 C1473 1.399 . S
C1474 C1475 1.376 . S
C1475 H1462 0.930 . S
C1475 C1474 1.376 . S
C1475 C1476 1.388 . S
C1476 H1463 0.930 . S
C1476 C1475 1.388 . S
C1476 C1477 1.390 . S
C1477 C1476 1.390 . S
C1477 C1478 1.394 . S
C1477 C1483 1.465 . S
C1478 C1473 1.399 . S
C1478 C1477 1.394 . S
C1478 C1479 1.516 . S
C1479 C1478 1.516 . S
C1479 C1480 1.502 . S
C1479 C1481 1.561 . S
C1479 C1482 1.526 . S
C1480 H1464 0.959 . S
C1480 H1465 0.959 . S
C1480 H1466 0.961 . S
C1480 C1479 1.502 . S
C1481 H1467 0.960 . S
C1481 H1468 0.961 . S
C1481 H1469 0.959 . S
C1481 C1479 1.561 . S
C1482 C1479 1.526 . S
C1482 C1483 1.396 . S
C1482 C1487 1.390 . S
C1483 C1477 1.465 . S
C1483 C1482 1.396 . S
C1483 C1484 1.399 . S
C1484 H1470 0.929 . S
C1484 C1483 1.399 . S
C1484 C1485 1.385 . S
C1485 H1471 0.931 . S
C1485 C1484 1.385 . S
C1485 C1486 1.389 . S
C1486 C1485 1.389 . S
C1486 C1487 1.387 . S
C1487 H1472 0.930 . S
C1487 C1482 1.390 . S
C1487 C1486 1.387 . S
H1488 C1500 0.930 . S
H1489 C1502 0.930 . S
H1490 C1503 0.930 . S
H1491 C1507 0.959 . S
H1492 C1507 0.959 . S
H1493 C1507 0.961 . S
H1494 C1508 0.960 . S
H1495 C1508 0.961 . S
H1496 C1508 0.959 . S
H1497 C1511 0.929 . S
H1498 C1512 0.931 . S
H1499 C1514 0.930 . S
C1500 H1488 0.930 . S
C1500 C1501 1.399 . S
C1500 C1505 1.399 . S
C1501 C1500 1.399 . S
C1501 C1502 1.376 . S
C1502 H1489 0.930 . S
C1502 C1501 1.376 . S
C1502 C1503 1.388 . S
C1503 H1490 0.930 . S
C1503 C1502 1.388 . S
C1503 C1504 1.390 . S
C1504 C1503 1.390 . S
C1504 C1505 1.394 . S
C1504 C1510 1.465 . S
C1505 C1500 1.399 . S
C1505 C1504 1.394 . S
C1505 C1506 1.516 . S
C1506 C1505 1.516 . S
C1506 C1507 1.502 . S
C1506 C1508 1.561 . S
C1506 C1509 1.526 . S
C1507 H1491 0.959 . S
C1507 H1492 0.959 . S
C1507 H1493 0.961 . S
C1507 C1506 1.502 . S
C1508 H1494 0.960 . S
C1508 H1495 0.961 . S
C1508 H1496 0.959 . S
C1508 C1506 1.561 . S
C1509 C1506 1.526 . S
C1509 C1510 1.396 . S
C1509 C1514 1.390 . S
C1510 C1504 1.465 . S
C1510 C1509 1.396 . S
C1510 C1511 1.399 . S
C1511 H1497 0.929 . S
C1511 C1510 1.399 . S
C1511 C1512 1.385 . S
C1512 H1498 0.931 . S
C1512 C1511 1.385 . S
C1512 C1513 1.389 . S
C1513 C1512 1.389 . S
C1513 C1514 1.387 . S
C1514 H1499 0.930 . S
C1514 C1509 1.390 . S
C1514 C1513 1.387 . S
H1515 C1527 0.930 . S
H1516 C1529 0.930 . S
H1517 C1530 0.930 . S
H1518 C1534 0.959 1_565 S
H1519 C1534 0.959 . S
H1520 C1534 0.961 . S
H1521 C1535 0.960 . S
H1522 C1535 0.961 . S
H1523 C1535 0.959 . S
H1524 C1538 0.929 . S
H1525 C1539 0.931 . S
H1526 C1541 0.930 . S
C1527 H1515 0.930 . S
C1527 C1528 1.399 1_545 S
C1527 C1532 1.399 1_545 S
C1528 C1527 1.399 1_565 S
C1528 C1529 1.376 . S
C1529 H1516 0.930 . S
C1529 C1528 1.376 . S
C1529 C1530 1.388 . S
C1530 H1517 0.930 . S
C1530 C1529 1.388 . S
C1530 C1531 1.390 . S
C1531 C1530 1.390 . S
C1531 C1532 1.394 . S
C1531 C1537 1.465 . S
C1532 C1527 1.399 1_565 S
C1532 C1531 1.394 . S
C1532 C1533 1.516 1_565 S
C1533 C1532 1.516 1_545 S
C1533 C1534 1.502 . S
C1533 C1535 1.561 . S
C1533 C1536 1.526 1_545 S
C1534 H1518 0.959 1_545 S
C1534 H1519 0.959 . S
C1534 H1520 0.961 . S
C1534 C1533 1.502 . S
C1535 H1521 0.960 . S
C1535 H1522 0.961 . S
C1535 H1523 0.959 . S
C1535 C1533 1.561 . S
C1536 C1533 1.526 1_565 S
C1536 C1537 1.396 . S
C1536 C1541 1.390 . S
C1537 C1531 1.465 . S
C1537 C1536 1.396 . S
C1537 C1538 1.399 . S
C1538 H1524 0.929 . S
C1538 C1537 1.399 . S
C1538 C1539 1.385 . S
C1539 H1525 0.931 . S
C1539 C1538 1.385 . S
C1539 C1540 1.389 . S
C1540 C1539 1.389 . S
C1540 C1541 1.387 . S
C1541 H1526 0.930 . S
C1541 C1536 1.390 . S
C1541 C1540 1.387 . S
H1542 C1554 0.930 . S
H1543 C1556 0.930 . S
H1544 C1557 0.930 . S
H1545 C1561 0.959 . S
H1546 C1561 0.959 . S
H1547 C1561 0.961 . S
H1548 C1562 0.960 . S
H1549 C1562 0.961 . S
H1550 C1562 0.959 . S
H1551 C1565 0.929 . S
H1552 C1566 0.931 . S
H1553 C1568 0.930 . S
C1554 H1542 0.930 . S
C1554 C1555 1.399 . S
C1554 C1559 1.399 . S
C1555 C1554 1.399 . S
C1555 C1556 1.376 . S
C1556 H1543 0.930 . S
C1556 C1555 1.376 . S
C1556 C1557 1.388 . S
C1557 H1544 0.930 . S
C1557 C1556 1.388 . S
C1557 C1558 1.390 . S
C1558 C1557 1.390 . S
C1558 C1559 1.394 . S
C1558 C1564 1.465 . S
C1559 C1554 1.399 . S
C1559 C1558 1.394 . S
C1559 C1560 1.516 . S
C1560 C1559 1.516 . S
C1560 C1561 1.502 . S
C1560 C1562 1.561 . S
C1560 C1563 1.526 . S
C1561 H1545 0.959 . S
C1561 H1546 0.959 . S
C1561 H1547 0.961 . S
C1561 C1560 1.502 . S
C1562 H1548 0.960 . S
C1562 H1549 0.961 . S
C1562 H1550 0.959 . S
C1562 C1560 1.561 . S
C1563 C1560 1.526 . S
C1563 C1564 1.396 . S
C1563 C1568 1.390 . S
C1564 C1558 1.465 . S
C1564 C1563 1.396 . S
C1564 C1565 1.399 . S
C1565 H1551 0.929 . S
C1565 C1564 1.399 . S
C1565 C1566 1.385 . S
C1566 H1552 0.931 . S
C1566 C1565 1.385 . S
C1566 C1567 1.389 . S
C1567 C1566 1.389 . S
C1567 C1568 1.387 . S
C1568 H1553 0.930 . S
C1568 C1563 1.390 . S
C1568 C1567 1.387 . S
H1569 C1581 0.930 1_565 S
H1570 C1583 0.930 . S
H1571 C1584 0.930 . S
H1572 C1588 0.960 . S
H1573 C1588 0.959 1_565 S
H1574 C1588 0.961 1_565 S
H1575 C1589 0.960 . S
H1576 C1589 0.961 . S
H1577 C1589 0.959 . S
H1578 C1592 0.929 . S
H1579 C1593 0.931 . S
H1580 C1595 0.906 1_565 S
C1581 H1569 0.930 1_545 S
C1581 C1582 1.399 . S
C1581 C1586 1.399 . S
C1582 C1581 1.399 . S
C1582 C1583 1.376 . S
C1583 H1570 0.930 . S
C1583 C1582 1.376 . S
C1583 C1584 1.388 . S
C1584 H1571 0.930 . S
C1584 C1583 1.388 . S
C1584 C1585 1.390 . S
C1585 C1584 1.390 . S
C1585 C1586 1.394 . S
C1585 C1591 1.465 . S
C1586 C1581 1.399 . S
C1586 C1585 1.394 . S
C1586 C1587 1.516 1_545 S
C1587 C1586 1.516 1_565 S
C1587 C1588 1.502 1_565 S
C1587 C1589 1.561 . S
C1587 C1590 1.526 1_565 S
C1588 H1572 0.960 . S
C1588 H1573 0.959 1_545 S
C1588 H1574 0.961 1_545 S
C1588 C1587 1.502 1_545 S
C1589 H1575 0.960 . S
C1589 H1576 0.961 . S
C1589 H1577 0.959 . S
C1589 C1587 1.561 . S
C1590 C1587 1.526 1_545 S
C1590 C1591 1.396 . S
C1590 C1595 1.390 . S
C1591 C1585 1.465 . S
C1591 C1590 1.396 . S
C1591 C1592 1.399 . S
C1592 H1578 0.929 . S
C1592 C1591 1.399 . S
C1592 C1593 1.385 . S
C1593 H1579 0.931 . S
C1593 C1592 1.385 . S
C1593 C1594 1.389 . S
C1594 C1593 1.389 . S
C1594 C1595 1.387 . S
C1595 H1580 0.906 1_545 S
C1595 C1590 1.390 . S
C1595 C1594 1.387 . S
H1596 C1608 0.930 . S
H1597 C1610 0.930 . S
H1598 C1611 0.930 . S
H1599 C1615 0.959 . S
H1600 C1615 0.959 . S
H1601 C1615 0.961 . S
H1602 C1616 0.960 . S
H1603 C1616 0.961 . S
H1604 C1616 0.959 . S
H1605 C1619 0.929 . S
H1606 C1620 0.931 . S
H1607 C1622 0.930 . S
C1608 H1596 0.930 . S
C1608 C1609 1.399 . S
C1608 C1613 1.399 . S
C1609 C1608 1.399 . S
C1609 C1610 1.376 . S
C1610 H1597 0.930 . S
C1610 C1609 1.376 . S
C1610 C1611 1.388 . S
C1611 H1598 0.930 . S
C1611 C1610 1.388 . S
C1611 C1612 1.390 . S
C1612 C1611 1.390 . S
C1612 C1613 1.394 . S
C1612 C1618 1.465 . S
C1613 C1608 1.399 . S
C1613 C1612 1.394 . S
C1613 C1614 1.516 . S
C1614 C1613 1.516 . S
C1614 C1615 1.502 . S
C1614 C1616 1.561 . S
C1614 C1617 1.526 . S
C1615 H1599 0.959 . S
C1615 H1600 0.959 . S
C1615 H1601 0.961 . S
C1615 C1614 1.502 . S
C1616 H1602 0.960 . S
C1616 H1603 0.961 . S
C1616 H1604 0.959 . S
C1616 C1614 1.561 . S
C1617 C1614 1.526 . S
C1617 C1618 1.396 . S
C1617 C1622 1.390 . S
C1618 C1612 1.465 . S
C1618 C1617 1.396 . S
C1618 C1619 1.399 . S
C1619 H1605 0.929 . S
C1619 C1618 1.399 . S
C1619 C1620 1.385 . S
C1620 H1606 0.931 . S
C1620 C1619 1.385 . S
C1620 C1621 1.389 . S
C1621 C1620 1.389 . S
C1621 C1622 1.387 . S
C1622 H1607 0.930 . S
C1622 C1617 1.390 . S
C1622 C1621 1.387 . S
H1623 C1635 0.930 . S
H1624 C1637 0.930 . S
H1625 C1638 0.930 . S
H1626 C1642 0.959 . S
H1627 C1642 0.959 . S
H1628 C1642 0.961 . S
H1629 C1643 0.960 . S
H1630 C1643 0.961 . S
H1631 C1643 0.959 . S
H1632 C1646 0.929 . S
H1633 C1647 0.931 . S
H1634 C1649 0.930 1_554 S
C1635 H1623 0.930 . S
C1635 C1636 1.399 1_554 S
C1635 C1640 1.399 . S
C1636 C1635 1.399 1_556 S
C1636 C1637 1.376 . S
C1637 H1624 0.930 . S
C1637 C1636 1.376 . S
C1637 C1638 1.388 . S
C1638 H1625 0.930 . S
C1638 C1637 1.388 . S
C1638 C1639 1.390 . S
C1639 C1638 1.390 . S
C1639 C1640 1.394 1_556 S
C1639 C1645 1.465 . S
C1640 C1635 1.399 . S
C1640 C1639 1.394 1_554 S
C1640 C1641 1.516 . S
C1641 C1640 1.516 . S
C1641 C1642 1.502 . S
C1641 C1643 1.561 . S
C1641 C1644 1.526 1_554 S
C1642 H1626 0.959 . S
C1642 H1627 0.959 . S
C1642 H1628 0.961 . S
C1642 C1641 1.502 . S
C1643 H1629 0.960 . S
C1643 H1630 0.961 . S
C1643 H1631 0.959 . S
C1643 C1641 1.561 . S
C1644 C1641 1.526 1_556 S
C1644 C1645 1.396 . S
C1644 C1649 1.390 . S
C1645 C1639 1.465 . S
C1645 C1644 1.396 . S
C1645 C1646 1.399 . S
C1646 H1632 0.929 . S
C1646 C1645 1.399 . S
C1646 C1647 1.385 . S
C1647 H1633 0.931 . S
C1647 C1646 1.385 . S
C1647 C1648 1.389 . S
C1648 C1647 1.389 . S
C1648 C1649 1.387 . S
C1649 H1634 0.930 1_556 S
C1649 C1644 1.390 . S
C1649 C1648 1.387 . S
H1650 C1662 0.930 . S
H1651 C1664 0.930 . S
H1652 C1665 0.930 . S
H1653 C1669 0.959 . S
H1654 C1669 0.959 . S
H1655 C1669 0.961 . S
H1656 C1670 0.960 . S
H1657 C1670 0.961 . S
H1658 C1670 0.959 . S
H1659 C1673 0.929 . S
H1660 C1674 0.931 . S
H1661 C1676 0.930 . S
C1662 H1650 0.930 . S
C1662 C1663 1.399 1_556 S
C1662 C1667 1.399 . S
C1663 C1662 1.399 1_554 S
C1663 C1664 1.376 . S
C1664 H1651 0.930 . S
C1664 C1663 1.376 . S
C1664 C1665 1.388 . S
C1665 H1652 0.930 . S
C1665 C1664 1.388 . S
C1665 C1666 1.390 . S
C1666 C1665 1.390 . S
C1666 C1667 1.394 1_554 S
C1666 C1672 1.465 . S
C1667 C1662 1.399 . S
C1667 C1666 1.394 1_556 S
C1667 C1668 1.516 . S
C1668 C1667 1.516 . S
C1668 C1669 1.502 . S
C1668 C1670 1.561 . S
C1668 C1671 1.526 . S
C1669 H1653 0.959 . S
C1669 H1654 0.959 . S
C1669 H1655 0.961 . S
C1669 C1668 1.502 . S
C1670 H1656 0.960 . S
C1670 H1657 0.961 . S
C1670 H1658 0.959 . S
C1670 C1668 1.561 . S
C1671 C1668 1.526 . S
C1671 C1672 1.396 1_556 S
C1671 C1676 1.390 . S
C1672 C1666 1.465 . S
C1672 C1671 1.396 1_554 S
C1672 C1673 1.399 . S
C1673 H1659 0.929 . S
C1673 C1672 1.399 . S
C1673 C1674 1.385 . S
C1674 H1660 0.931 . S
C1674 C1673 1.385 . S
C1674 C1675 1.391 1_554 S
C1675 C1674 1.391 1_556 S
C1675 C1676 1.386 . S
C1676 H1661 0.930 . S
C1676 C1671 1.390 . S
C1676 C1675 1.386 . S
H1677 C1689 0.930 . S
H1678 C1691 0.926 1_556 S
H1679 C1692 0.930 . S
H1680 C1696 0.959 . S
H1681 C1696 0.959 . S
H1682 C1696 0.961 . S
H1683 C1697 0.960 . S
H1684 C1697 0.961 . S
H1685 C1697 0.959 . S
H1686 C1700 0.927 . S
H1687 C1701 0.931 1_556 S
H1688 C1703 0.930 . S
C1689 H1677 0.930 . S
C1689 C1690 1.399 . S
C1689 C1694 1.399 . S
C1690 C1689 1.399 . S
C1690 C1691 1.382 . S
C1691 H1678 0.926 1_554 S
C1691 C1690 1.382 . S
C1691 C1692 1.388 1_554 S
C1692 H1679 0.930 . S
C1692 C1691 1.388 1_556 S
C1692 C1693 1.390 1_556 S
C1693 C1692 1.390 1_554 S
C1693 C1694 1.394 . S
C1693 C1699 1.465 . S
C1694 C1689 1.399 . S
C1694 C1693 1.394 . S
C1694 C1695 1.516 . S
C1695 C1694 1.516 . S
C1695 C1696 1.502 . S
C1695 C1697 1.561 . S
C1695 C1698 1.526 . S
C1696 H1680 0.959 . S
C1696 H1681 0.959 . S
C1696 H1682 0.961 . S
C1696 C1695 1.502 . S
C1697 H1683 0.960 . S
C1697 H1684 0.961 . S
C1697 H1685 0.959 . S
C1697 C1695 1.561 . S
C1698 C1695 1.526 . S
C1698 C1699 1.396 . S
C1698 C1703 1.390 . S
C1699 C1693 1.465 . S
C1699 C1698 1.396 . S
C1699 C1700 1.400 1_554 S
C1700 H1686 0.927 . S
C1700 C1699 1.400 1_556 S
C1700 C1701 1.386 1_556 S
C1701 H1687 0.931 1_554 S
C1701 C1700 1.386 1_554 S
C1701 C1702 1.389 . S
C1702 C1701 1.389 . S
C1702 C1703 1.387 . S
C1703 H1688 0.930 . S
C1703 C1698 1.390 . S
C1703 C1702 1.387 . S
C421 C13 1.565 . S
C433 C255 1.574 1_545 S
C460 N272 1.630 . S
C448 C1 1.719 . S
C487 N174 1.624 . S
C475 C27 1.614 . S
C502 C15 1.227 . S
C514 C199 1.242 . S
C529 C28 1.672 . S
C541 C394 1.685 . S
C556 C55 1.384 . S
C568 N354 1.366 . S
C595 N302 1.554 1_545 S
C583 C40 1.673 . S
C610 C43 1.643 . S
C622 C328 1.623 . S
C649 C214 1.511 . S
C637 C56 1.504 . S
C676 C259 1.712 . S
C664 C83 1.723 . S
C691 C96 1.590 . S
C703 C238 1.615 1_655 S
C718 C71 1.817 . S
C730 C345 1.816 . S
C757 C375 1.548 . S
C745 C99 1.554 . S
C784 N392 1.617 . S
C772 C111 1.716 . S
C799 C113 1.622 . S
C811 N324 1.618 . S
C838 C289 1.187 1_545 S
C826 C125 1.228 . S
C853 C139 1.678 . S
C865 C274 1.685 . S
C880 C153 1.407 . S
C892 N234 1.410 . S
C919 N212 1.554 . S
C907 C127 1.675 . S
C934 C141 1.649 . S
C946 C178 1.621 . S
C973 C304 1.479 . S
C961 C84 1.507 . S
C1000 C379 1.714 . S
C988 C154 1.729 . S
C1015 C68 1.628 1_556 S
C1027 C358 1.601 . S
C1042 C166 1.831 . S
C1054 C195 1.795 . S
C1081 C169 1.288 . S
C1069 C0 1.356 . S
C1096 C12 0.997 . S
C1108 N204 1.021 1_455 S
C1135 N242 1.063 . S
C1123 C14 1.211 . S
C1162 C285 1.717 . S
C1150 C26 1.681 . S
C1177 C41 1.486 . S
C1189 C184 1.439 . S
C1204 C42 1.635 . S
C1216 C225 1.624 . S
C1243 C229 1.233 . S
C1231 C29 1.274 . S
C1258 C54 1.491 . S
C1270 C268 1.494 . S
C1285 C69 1.044 . S
C1297 N182 1.042 . S
C1324 C244 1.812 . S
C1312 C70 1.810 . S
C1339 C85 1.172 . S
C1351 N264 1.201 . S
C1366 C82 1.414 . S
C1378 C298 1.383 . S
C1405 C319 1.302 . S
C1393 C110 1.289 . S
C1420 C98 1.007 . S
C1432 N294 0.969 . S
C1447 C124 1.225 . S
C1459 N362 1.064 . S
C1474 C112 1.724 . S
C1486 C405 1.719 . S
C1501 C126 1.470 . S
C1513 C334 1.476 . S
C1540 C315 1.581 . S
C1528 C140 1.620 . S
C1555 C138 1.286 . S
C1567 C349 1.276 . S
C1594 C388 1.433 . S
C1582 C152 1.470 . S
C1621 N332 1.040 . S
C1609 C97 1.043 . S
C1648 C364 1.782 . S
C1636 C167 1.787 1_556 S
C1675 N384 1.180 . S
C1663 C57 1.192 . S
C1690 C155 1.419 . S
C1702 C208 1.433 . S
