# Generated by pormake.
# Topology nia, (6,6)-cn, num edge types: 1
# Building blocks:
#     Node 0, Type 0, BuildingBlock: BETFAJ_clean_sbu_0, # of connection points: 6
#     Node 1, Type 0, BuildingBlock: BETFAJ_clean_sbu_0, # of connection points: 6
#     Node 2, Type 1, BuildingBlock: MIDCAF_clean_sbu_0, # of connection points: 6
#     Node 3, Type 1, BuildingBlock: MIDCAF_clean_sbu_0, # of connection points: 6
#     Edge 4, Type (0, 1), BuildingBlock: MIFKUJ_clean_linker_0, # of connection points: 2
#     Edge 5, Type (0, 1), BuildingBlock: MIFKUJ_clean_linker_0, # of connection points: 2
#     Edge 6, Type (0, 1), BuildingBlock: MIFKUJ_clean_linker_0, # of connection points: 2
#     Edge 7, Type (0, 1), BuildingBlock: MIFKUJ_clean_linker_0, # of connection points: 2
#     Edge 8, Type (0, 1), BuildingBlock: MIFKUJ_clean_linker_0, # of connection points: 2
#     Edge 9, Type (0, 1), BuildingBlock: MIFKUJ_clean_linker_0, # of connection points: 2
#     Edge 10, Type (0, 1), BuildingBlock: MIFKUJ_clean_linker_0, # of connection points: 2
#     Edge 11, Type (0, 1), BuildingBlock: MIFKUJ_clean_linker_0, # of connection points: 2
#     Edge 12, Type (0, 1), BuildingBlock: MIFKUJ_clean_linker_0, # of connection points: 2
#     Edge 13, Type (0, 1), BuildingBlock: MIFKUJ_clean_linker_0, # of connection points: 2
#     Edge 14, Type (0, 1), BuildingBlock: MIFKUJ_clean_linker_0, # of connection points: 2
#     Edge 15, Type (0, 1), BuildingBlock: MIFKUJ_clean_linker_0, # of connection points: 2
# Relax obj value: 0.293
# Max RMSD: 0.261
# Mean RMSD: 0.239
data_MOF--net-nia--node1-BETFAJ_clean_sbu_0--node2-MIDCAF_clean_sbu_0--edge1-MIFKUJ_clean_linker_0
_symmetry_space_group_name_H-M    P1
_symmetry_Int_Tables_number       1
_symmetry_cell_setting            triclinic
loop_
_symmetry_equiv_pos_as_xyz
'x, y, z'
_cell_length_a     32.278038
_cell_length_b     35.019036
_cell_length_c     43.786361
_cell_angle_alpha  76.233876
_cell_angle_beta   99.314741
_cell_angle_gamma 126.91323
loop_
_atom_site_label
_atom_site_type_symbol
_atom_site_fract_x
_atom_site_fract_y
_atom_site_fract_z
_atom_type_partial_charge
Sm0 Sm 0.07081 0.05591 0.01867 0.0
Sm1 Sm 0.98684 0.9546 0.9929 0.0
C2 C 0.14614 0.14685 0.02138 0.0
C3 C 0.14081 0.18301 0.02706 0.0
C4 C 0.18388 0.23092 0.02752 0.0
C5 C 0.17766 0.26383 0.03492 0.0
C6 C 0.1284 0.24871 0.04213 0.0
C7 C 0.08518 0.20119 0.04048 0.0
C8 C 0.09131 0.16865 0.03273 0.0
C9 C 0.98012 0.99844 0.05338 0.0
C10 C 0.97645 0.04588 0.96883 0.0
C11 C 0.90853 0.86608 0.98588 0.0
C12 C 0.90639 0.83158 0.97109 0.0
C13 C 0.88055 0.78279 0.98561 0.0
C14 C 0.8834 0.7512 0.97318 0.0
C15 C 0.91232 0.76827 0.94616 0.0
C16 C 0.93742 0.81701 0.9315 0.0
C17 C 0.9347 0.8484 0.94392 0.0
C18 C 0.07835 0.01181 0.95878 0.0
C19 C 0.07882 0.96405 0.04499 0.0
O20 O 0.12505 0.13157 0.99469 0.0
O21 O 0.13469 0.11162 0.0454 0.0
O22 O 0.99034 0.98952 0.03053 0.0
O23 O 0.02067 0.04015 0.05932 0.0
O24 O 0.0219 0.07482 0.98256 0.0
O25 O 0.95382 0.99874 0.97153 0.0
O26 O 0.93666 0.87569 0.01193 0.0
O27 O 0.91609 0.90476 0.96681 0.0
O28 O 0.0671 0.02071 0.98113 0.0
O29 O 0.03828 0.96976 0.95303 0.0
O30 O 0.03243 0.93513 0.03201 0.0
O31 O 0.10353 0.01179 0.04075 0.0
H32 H 0.22219 0.24242 0.02298 0.0
H33 H 0.21159 0.30032 0.03654 0.0
H34 H 0.04701 0.18897 0.04604 0.0
H35 H 0.05755 0.13182 0.03198 0.0
H36 H 0.85919 0.76944 0.00687 0.0
H37 H 0.86385 0.71378 0.98499 0.0
H38 H 0.95904 0.83095 0.91028 0.0
H39 H 0.95544 0.88606 0.93243 0.0
Sm40 Sm 0.99677 0.0233 0.51716 0.0
Sm41 Sm 0.05665 0.98566 0.49436 0.0
C42 C 0.96639 0.07576 0.52461 0.0
C43 C 0.94806 0.0849 0.54872 0.0
C44 C 0.94284 0.12298 0.5412 0.0
C45 C 0.9258 0.13286 0.5636 0.0
C46 C 0.91369 0.10483 0.59407 0.0
C47 C 0.91873 0.06637 0.60149 0.0
C48 C 0.93594 0.05655 0.57898 0.0
C49 C 0.9634 0.93023 0.55076 0.0
C50 C 0.95495 0.97159 0.45439 0.0
C51 C 0.08698 0.93349 0.48629 0.0
C52 C 0.10751 0.92664 0.46202 0.0
C53 C 0.14114 0.91297 0.4712 0.0
C54 C 0.1603 0.90494 0.4489 0.0
C55 C 0.14613 0.91038 0.41689 0.0
C56 C 0.11255 0.92439 0.4077 0.0
C57 C 0.09352 0.93264 0.43008 0.0
C58 C 0.09227 0.07979 0.46183 0.0
C59 C 0.0981 0.03712 0.55718 0.0
O60 O 0.93479 0.03317 0.51605 0.0
O61 O 0.01498 0.09116 0.52717 0.0
O62 O 0.99603 0.9566 0.52916 0.0
O63 O 0.94686 0.95421 0.55551 0.0
O64 O 0.95865 0.00274 0.46889 0.0
O65 O 0.98342 0.95494 0.4626 0.0
O66 O 0.11807 0.97446 0.49693 0.0
O67 O 0.03868 0.91898 0.48263 0.0
O68 O 0.05795 0.05276 0.48249 0.0
O69 O 0.10932 0.05595 0.45763 0.0
O70 O 0.09393 0.00543 0.54299 0.0
O71 O 0.07012 0.05425 0.54861 0.0
H72 H 0.95188 0.1451 0.5179 0.0
H73 H 0.92149 0.16216 0.55688 0.0
H74 H 0.91007 0.04433 0.62479 0.0
H75 H 0.93992 0.02703 0.58517 0.0
H76 H 0.15222 0.90802 0.49575 0.0
H77 H 0.1854 0.89346 0.45687 0.0
H78 H 0.10127 0.92929 0.38321 0.0
H79 H 0.06776 0.94344 0.42249 0.0
Zn80 Zn 0.3812 0.71718 0.16768 0.0
Zn81 Zn 0.39409 0.67806 0.30816 0.0
Zn82 Zn 0.38464 0.68619 0.24734 0.0
C83 C 0.49334 0.72807 0.28312 0.0
C84 C 0.32885 0.58175 0.30208 0.0
O85 O 0.34322 0.72323 0.22583 0.0
O86 O 0.349 0.7477 0.17337 0.0
C87 C 0.48454 0.75322 0.19527 0.0
O88 O 0.46829 0.7262 0.25681 0.0
O89 O 0.46966 0.70733 0.30878 0.0
O90 O 0.34502 0.60672 0.32343 0.0
O91 O 0.3406 0.60399 0.27302 0.0
O92 O 0.45675 0.75361 0.17137 0.0
O93 O 0.46433 0.73018 0.22295 0.0
O94 O 0.33574 0.61206 0.24095 0.0
O95 O 0.34782 0.65441 0.19446 0.0
C96 C 0.32594 0.6135 0.21157 0.0
O97 O 0.35266 0.72072 0.25951 0.0
O98 O 0.37303 0.72064 0.31026 0.0
C99 C 0.33377 0.74402 0.1995 0.0
C100 C 0.35376 0.73225 0.28558 0.0
Zn101 Zn 0.67892 0.31661 0.82482 0.0
Zn102 Zn 0.66068 0.33007 0.7049 0.0
Zn103 Zn 0.67158 0.32327 0.76618 0.0
C104 C 0.71928 0.42649 0.71092 0.0
C105 C 0.56105 0.27335 0.72984 0.0
O106 O 0.70792 0.28218 0.78764 0.0
O107 O 0.69267 0.26704 0.83795 0.0
C108 C 0.75327 0.4129 0.79747 0.0
O109 O 0.71672 0.40509 0.74002 0.0
O110 O 0.69553 0.40073 0.68981 0.0
O111 O 0.58351 0.28765 0.70423 0.0
O112 O 0.58747 0.28414 0.75575 0.0
O113 O 0.74193 0.38388 0.82335 0.0
O114 O 0.72697 0.39812 0.77224 0.0
O115 O 0.59216 0.28545 0.78793 0.0
O116 O 0.61202 0.2997 0.83651 0.0
C117 C 0.57812 0.2826 0.815 0.0
O118 O 0.69983 0.28509 0.75425 0.0
O119 O 0.698 0.30183 0.70215 0.0
C120 C 0.70998 0.26222 0.81636 0.0
C121 C 0.70861 0.28252 0.72739 0.0
H122 H 0.05158 0.87176 0.05037 0.0
H123 H 0.09317 0.83567 0.0825 0.0
H124 H 0.2046 0.96889 0.11797 0.0
H125 H 0.16418 0.00584 0.08491 0.0
H126 H 0.25328 0.93622 0.1075 0.0
H127 H 0.09749 0.86036 0.16269 0.0
H128 H 1.00334 0.81495 0.16857 0.0
H129 H 0.97726 0.69299 0.13978 0.0
H130 H 0.07121 0.73789 0.13337 0.0
H131 H 0.35951 0.82732 0.21553 0.0
H132 H 0.31413 0.86564 0.19725 0.0
H133 H 0.19291 0.74115 0.15559 0.0
H134 H 0.23694 0.70245 0.17509 0.0
H135 H 0.15032 0.77339 0.17444 0.0
H136 H 0.30393 0.85201 0.11371 0.0
H137 H 0.39784 0.89702 0.10692 0.0
H138 H 0.4274 0.01312 0.14579 0.0
H139 H 0.33366 0.96853 0.15306 0.0
C140 C 0.08483 0.89347 0.06506 0.0
C141 C 0.10415 0.94181 0.06503 0.0
C142 C 0.10854 0.87257 0.08371 0.0
C143 C 0.15168 0.89893 0.10345 0.0
C144 C 0.17136 0.9474 0.1032 0.0
C145 C 0.14803 0.96856 0.08424 0.0
C146 C 0.17677 0.87634 0.12375 0.0
C147 C 0.23069 0.90096 0.12253 0.0
C148 C 0.14781 0.82988 0.1432 0.0
C149 C 0.09135 0.80264 0.14734 0.0
C150 C 0.07164 0.82396 0.15746 0.0
C151 C 0.01832 0.7983 0.1609 0.0
C152 C 0.98433 0.75116 0.15449 0.0
C153 C 0.00362 0.72952 0.14472 0.0
C154 C 0.05691 0.75502 0.14122 0.0
C155 C 0.32211 0.80749 0.20361 0.0
C156 C 0.30112 0.76138 0.19743 0.0
C157 C 0.29654 0.82974 0.19259 0.0
C158 C 0.2504 0.80704 0.17417 0.0
C159 C 0.22824 0.7598 0.16961 0.0
C160 C 0.25332 0.73742 0.18098 0.0
C161 C 0.22662 0.8329 0.15775 0.0
C162 C 0.17293 0.80888 0.15967 0.0
C163 C 0.25574 0.87982 0.13886 0.0
C164 C 0.31193 0.90677 0.1342 0.0
C165 C 0.33052 0.88704 0.12092 0.0
C166 C 0.38368 0.91248 0.11698 0.0
C167 C 0.41857 0.95784 0.12599 0.0
C168 C 0.40034 0.97795 0.13886 0.0
C169 C 0.34721 0.95264 0.14287 0.0
H170 H 0.45972 0.97746 0.12295 0.0
H171 H 0.94306 0.73137 0.15714 0.0
H172 H 0.13958 0.11962 0.58009 0.0
H173 H 0.20901 0.1536 0.61971 0.0
H174 H 0.21341 0.03007 0.63327 0.0
H175 H 0.14437 0.99599 0.59308 0.0
H176 H 0.22403 0.06946 0.6921 0.0
H177 H 0.29732 0.11148 0.59206 0.0
H178 H 0.3042 0.13952 0.53467 0.0
H179 H 0.34489 0.27662 0.54653 0.0
H180 H 0.33725 0.24894 0.60411 0.0
H181 H 0.4914 0.17541 0.74161 0.0
H182 H 0.40026 0.12971 0.72375 0.0
H183 H 0.4134 0.26322 0.69507 0.0
H184 H 0.50442 0.30871 0.71291 0.0
H185 H 0.38981 0.21664 0.6464 0.0
H186 H 0.31849 0.17336 0.74829 0.0
H187 H 0.30424 0.14042 0.8051 0.0
H188 H 0.26326 0.00481 0.79006 0.0
H189 H 0.27573 0.03633 0.73302 0.0
C190 C 0.1547 0.09924 0.59177 0.0
C191 C 0.13679 0.0553 0.58321 0.0
C192 C 0.19425 0.11867 0.61448 0.0
C193 C 0.2161 0.09423 0.62941 0.0
C194 C 0.19667 0.04922 0.62213 0.0
C195 C 0.15762 0.03009 0.59897 0.0
C196 C 0.26313 0.11867 0.6497 0.0
C197 C 0.2605 0.10138 0.68221 0.0
C198 C 0.31031 0.16057 0.63674 0.0
C199 C 0.31606 0.17793 0.6023 0.0
C200 C 0.30727 0.14744 0.58241 0.0
C201 C 0.31136 0.16326 0.54988 0.0
C202 C 0.32473 0.2097 0.53698 0.0
C203 C 0.33435 0.24057 0.55659 0.0
C204 C 0.33016 0.22485 0.58918 0.0
C205 C 0.47394 0.19452 0.73282 0.0
C206 C 0.50432 0.2453 0.72884 0.0
C207 C 0.42194 0.16848 0.72263 0.0
C208 C 0.40002 0.19307 0.70802 0.0
C209 C 0.42947 0.24351 0.70636 0.0
C210 C 0.4813 0.26945 0.71664 0.0
C211 C 0.35103 0.1681 0.68921 0.0
C212 C 0.35339 0.18509 0.65662 0.0
C213 C 0.30399 0.12573 0.70218 0.0
C214 C 0.2985 0.10733 0.73649 0.0
C215 C 0.30688 0.13666 0.75715 0.0
C216 C 0.29888 0.1182 0.78934 0.0
C217 C 0.28341 0.07083 0.80119 0.0
C218 C 0.27541 0.04158 0.78085 0.0
C219 C 0.28254 0.05956 0.74857 0.0
H220 H 0.27729 0.05674 0.8261 0.0
H221 H 0.32771 0.22168 0.51179 0.0
H222 H 0.15902 0.3406 0.01654 0.0
H223 H 0.17017 0.39891 0.04478 0.0
H224 H 0.10144 0.28667 0.12674 0.0
H225 H 0.0882 0.22805 0.09815 0.0
H226 H 0.08682 0.3558 0.12564 0.0
H227 H 0.22791 0.34718 0.11554 0.0
H228 H 0.28719 0.34762 0.08604 0.0
H229 H 0.34417 0.49172 0.0369 0.0
H230 H 0.28461 0.49181 0.06582 0.0
H231 H 0.26807 0.51641 0.23916 0.0
H232 H 0.21391 0.44712 0.21099 0.0
H233 H 0.2499 0.54651 0.12265 0.0
H234 H 0.30298 0.61452 0.14978 0.0
H235 H 0.27721 0.48042 0.12986 0.0
H236 H 0.13833 0.48962 0.14502 0.0
H237 H 0.08074 0.48714 0.17739 0.0
H238 H 0.02188 0.34029 0.22065 0.0
H239 H 0.08013 0.34231 0.18909 0.0
C240 C 0.14461 0.32824 0.04016 0.0
C241 C 0.12362 0.28045 0.05551 0.0
C242 C 0.15078 0.36131 0.0562 0.0
C243 C 0.13782 0.34712 0.08803 0.0
C244 C 0.11177 0.2982 0.10222 0.0
C245 C 0.10452 0.2649 0.08595 0.0
C246 C 0.16063 0.38401 0.10801 0.0
C247 C 0.12841 0.38301 0.12671 0.0
C248 C 0.21499 0.41889 0.10964 0.0
C249 C 0.25148 0.41929 0.0926 0.0
C250 C 0.25291 0.37884 0.09833 0.0
C251 C 0.28655 0.37901 0.08173 0.0
C252 C 0.31934 0.41963 0.05956 0.0
C253 C 0.31868 0.46025 0.05404 0.0
C254 C 0.28501 0.46022 0.07053 0.0
C255 C 0.26395 0.52312 0.21381 0.0
C256 C 0.29047 0.57068 0.19667 0.0
C257 C 0.23286 0.48381 0.19786 0.0
C258 C 0.22842 0.49228 0.1649 0.0
C259 C 0.25309 0.53958 0.1481 0.0
C260 C 0.28366 0.57835 0.16378 0.0
C261 C 0.20342 0.45302 0.14691 0.0
C262 C 0.23554 0.45334 0.12875 0.0
C263 C 0.14932 0.41755 0.14617 0.0
C264 C 0.1141 0.41632 0.16497 0.0
C265 C 0.1136 0.45699 0.16171 0.0
C266 C 0.08075 0.45565 0.17988 0.0
C267 C 0.0478 0.41364 0.20115 0.0
C268 C 0.04746 0.37283 0.20419 0.0
C269 C 0.08045 0.37408 0.18621 0.0
H270 H 0.02242 0.41267 0.21522 0.0
H271 H 0.34533 0.41966 0.04671 0.0
H272 H 0.9511 0.19401 0.60535 0.0
H273 H 0.91685 0.21294 0.6404 0.0
H274 H 0.80202 0.06008 0.67211 0.0
H275 H 0.83514 0.04083 0.63603 0.0
H276 H 0.7579 0.10539 0.65815 0.0
H277 H 0.90257 0.13076 0.72142 0.0
H278 H 0.99332 0.16081 0.73504 0.0
H279 H 0.04087 0.30784 0.71003 0.0
H280 H 0.95055 0.27877 0.69573 0.0
H281 H 0.67696 0.19009 0.75371 0.0
H282 H 0.71274 0.14867 0.744 0.0
H283 H 0.82977 0.28053 0.68598 0.0
H284 H 0.79379 0.32138 0.69524 0.0
H285 H 0.86745 0.22988 0.72613 0.0
H286 H 0.72447 0.20071 0.65168 0.0
H287 H 0.63335 0.17006 0.63866 0.0
H288 H 0.583 0.02748 0.68751 0.0
H289 H 0.67391 0.05753 0.70117 0.0
C290 C 0.9186 0.16434 0.61979 0.0
C291 C 0.89563 0.1159 0.61769 0.0
C292 C 0.89945 0.17522 0.64019 0.0
C293 C 0.85722 0.13795 0.65928 0.0
C294 C 0.83483 0.08945 0.65777 0.0
C295 C 0.854 0.07851 0.63728 0.0
C296 C 0.83426 0.15022 0.67866 0.0
C297 C 0.78166 0.13163 0.67368 0.0
C298 C 0.86511 0.18468 0.69886 0.0
C299 C 0.91968 0.20251 0.70731 0.0
C300 C 0.9324 0.16952 0.71856 0.0
C301 C 0.98379 0.18639 0.72645 0.0
C302 C 0.02284 0.2362 0.72336 0.0
C303 C 0.01057 0.26926 0.71241 0.0
C304 C 0.95926 0.25259 0.70444 0.0
C305 C 0.71079 0.21016 0.73932 0.0
C306 C 0.73287 0.25876 0.7252 0.0
C307 C 0.73113 0.18661 0.7338 0.0
C308 C 0.77385 0.21161 0.71424 0.0
C309 C 0.79705 0.26072 0.70129 0.0
C310 C 0.77637 0.28392 0.70643 0.0
C311 C 0.79207 0.18631 0.70456 0.0
C312 C 0.84365 0.20256 0.71132 0.0
C313 C 0.76032 0.14951 0.68617 0.0
C314 C 0.70583 0.13146 0.67778 0.0
C315 C 0.69392 0.16292 0.65986 0.0
C316 C 0.64234 0.14565 0.65233 0.0
C317 C 0.60239 0.09689 0.66235 0.0
C318 C 0.61397 0.06526 0.67983 0.0
C319 C 0.6655 0.08238 0.68747 0.0
H320 H 0.56248 0.08358 0.65649 0.0
H321 H 0.0626 0.24919 0.72949 0.0
H322 H 0.88533 0.91455 0.04092 0.0
H323 H 0.80396 0.87037 0.06927 0.0
H324 H 0.88347 0.97007 0.13466 0.0
H325 H 0.96359 0.01437 0.1063 0.0
H326 H 0.76847 0.82176 0.1283 0.0
H327 H 0.80852 0.99677 0.15387 0.0
H328 H 0.85422 0.08342 0.12997 0.0
H329 H 0.83834 0.04922 0.039 0.0
H330 H 0.79181 0.96232 0.06224 0.0
H331 H 0.55874 0.73847 0.22549 0.0
H332 H 0.64695 0.77896 0.20743 0.0
H333 H 0.62248 0.86651 0.12988 0.0
H334 H 0.53819 0.83003 0.14914 0.0
H335 H 0.71254 0.92005 0.14406 0.0
H336 H 0.61097 0.75374 0.12745 0.0
H337 H 0.55806 0.66474 0.14419 0.0
H338 H 0.68321 0.67722 0.20442 0.0
H339 H 0.73666 0.76634 0.18823 0.0
C340 C 0.88536 0.92672 0.06147 0.0
C341 C 0.93095 0.96827 0.07116 0.0
C342 C 0.83884 0.90135 0.07777 0.0
C343 C 0.83698 0.91708 0.10402 0.0
C344 C 0.88318 0.95744 0.11427 0.0
C345 C 0.92923 0.98278 0.09799 0.0
C346 C 0.78684 0.89346 0.1199 0.0
C347 C 0.75619 0.84325 0.1317 0.0
C348 C 0.76989 0.92094 0.12417 0.0
C349 C 0.79724 0.9731 0.10991 0.0
C350 C 0.81462 0.00773 0.12876 0.0
C351 C 0.84066 0.05688 0.11532 0.0
C352 C 0.84933 0.07181 0.08301 0.0
C353 C 0.83175 0.0376 0.06403 0.0
C354 C 0.80559 0.98841 0.07734 0.0
C355 C 0.57307 0.76753 0.20528 0.0
C356 C 0.54102 0.7809 0.18898 0.0
C357 C 0.62327 0.79009 0.19445 0.0
C358 C 0.64185 0.82552 0.16662 0.0
C359 C 0.61018 0.8397 0.15132 0.0
C360 C 0.56125 0.8183 0.16241 0.0
C361 C 0.69313 0.84783 0.15236 0.0
C362 C 0.72449 0.8982 0.14088 0.0
C363 C 0.70943 0.82009 0.14736 0.0
C364 C 0.67756 0.76662 0.15688 0.0
C365 C 0.62707 0.73746 0.14437 0.0
C366 C 0.59701 0.68703 0.15375 0.0
C367 C 0.61721 0.66535 0.17542 0.0
C368 C 0.66759 0.69406 0.18768 0.0
C369 C 0.69779 0.74452 0.17839 0.0
H370 H 0.59388 0.6263 0.18266 0.0
H371 H 0.86957 0.10988 0.07267 0.0
H372 H 0.96985 0.86047 0.53632 0.0
H373 H 0.93344 0.77753 0.56583 0.0
H374 H 0.88469 0.80711 0.63778 0.0
H375 H 0.91813 0.88804 0.60774 0.0
H376 H 0.94361 0.73145 0.61843 0.0
H377 H 0.77814 0.71148 0.6735 0.0
H378 H 0.72325 0.74075 0.66064 0.0
H379 H 0.74617 0.76433 0.56213 0.0
H380 H 0.80063 0.73465 0.57438 0.0
H381 H 0.81637 0.50384 0.72991 0.0
H382 H 0.86299 0.59082 0.70661 0.0
H383 H 0.73375 0.5575 0.64238 0.0
H384 H 0.68713 0.47213 0.66619 0.0
H385 H 0.76569 0.63547 0.65813 0.0
H386 H 0.85053 0.57921 0.62473 0.0
H387 H 0.89925 0.54428 0.63035 0.0
H388 H 0.02801 0.66364 0.6723 0.0
H389 H 0.97992 0.69909 0.66719 0.0
C390 C 0.95143 0.8492 0.55846 0.0
C391 C 0.94649 0.88105 0.56933 0.0
C392 C 0.93058 0.80158 0.57549 0.0
C393 C 0.90461 0.78459 0.60402 0.0
C394 C 0.9025 0.81771 0.61552 0.0
C395 C 0.92221 0.86457 0.59829 0.0
C396 C 0.8783 0.73238 0.62134 0.0
C397 C 0.90475 0.71064 0.62716 0.0
C398 C 0.82696 0.70382 0.6325 0.0
C399 C 0.79389 0.72133 0.6249 0.0
C400 C 0.7713 0.72276 0.6491 0.0
C401 C 0.7403 0.73945 0.64191 0.0
C402 C 0.73138 0.75455 0.6106 0.0
C403 C 0.75327 0.75281 0.58638 0.0
C404 C 0.78424 0.73609 0.59343 0.0
C405 C 0.79733 0.51537 0.71156 0.0
C406 C 0.74728 0.48062 0.70053 0.0
C407 C 0.82448 0.56526 0.69771 0.0
C408 C 0.80255 0.5817 0.67221 0.0
C409 C 0.75215 0.54683 0.66191 0.0
C410 C 0.72529 0.49752 0.67565 0.0
C411 C 0.83101 0.63439 0.6556 0.0
C412 C 0.80481 0.6563 0.64979 0.0
C413 C 0.88176 0.66221 0.64355 0.0
C414 C 0.911 0.64119 0.64634 0.0
C415 C 0.88897 0.59773 0.63553 0.0
C416 C 0.91657 0.57791 0.63851 0.0
C417 C 0.96655 0.60153 0.65189 0.0
C418 C 0.98917 0.64522 0.66211 0.0
C419 C 0.96172 0.66518 0.65918 0.0
H420 H 0.98785 0.58613 0.65419 0.0
H421 H 0.70741 0.7675 0.60509 0.0
H422 H 0.24414 0.93689 0.41299 0.0
H423 H 0.27422 0.91361 0.37823 0.0
H424 H 0.12313 0.83858 0.33272 0.0
H425 H 0.09221 0.86061 0.36823 0.0
H426 H 0.15565 0.78246 0.34836 0.0
H427 H 0.22797 0.94293 0.29324 0.0
H428 H 0.27606 0.03174 0.28616 0.0
H429 H 0.4154 0.04498 0.32167 0.0
H430 H 0.36802 0.95617 0.3294 0.0
H431 H 0.26286 0.71645 0.25955 0.0
H432 H 0.22346 0.75508 0.26796 0.0
H433 H 0.35468 0.84235 0.32701 0.0
H434 H 0.3947 0.80526 0.31762 0.0
H435 H 0.32172 0.89428 0.29206 0.0
H436 H 0.24372 0.73372 0.35773 0.0
H437 H 0.19607 0.64477 0.36608 0.0
H438 H 0.0674 0.63283 0.31069 0.0
H439 H 0.11464 0.72184 0.30171 0.0
C440 C 0.21731 0.91559 0.39551 0.0
C441 C 0.16567 0.90034 0.39353 0.0
C442 C 0.23475 0.90279 0.37536 0.0
C443 C 0.20113 0.87478 0.35257 0.0
C444 C 0.14985 0.86044 0.34999 0.0
C445 C 0.13234 0.87331 0.37018 0.0
C446 C 0.21871 0.8573 0.33346 0.0
C447 C 0.19128 0.80705 0.33535 0.0
C448 C 0.26549 0.88924 0.31675 0.0
C449 C 0.29431 0.94277 0.31204 0.0
C450 C 0.26879 0.96472 0.29974 0.0
C451 C 0.29594 0.01509 0.29558 0.0
C452 C 0.34873 0.04398 0.3035 0.0
C453 C 0.3745 0.02256 0.31554 0.0
C454 C 0.34753 0.9722 0.31976 0.0
C455 C 0.28384 0.74499 0.27347 0.0
C456 C 0.33203 0.75845 0.2876 0.0
C457 C 0.26114 0.76665 0.27855 0.0
C458 C 0.28593 0.80134 0.29836 0.0
C459 C 0.33492 0.81589 0.31153 0.0
C460 C 0.3576 0.79447 0.30634 0.0
C461 C 0.25959 0.8196 0.30799 0.0
C462 C 0.28539 0.86992 0.30435 0.0
C463 C 0.21136 0.78779 0.32315 0.0
C464 C 0.18289 0.73436 0.32876 0.0
C465 C 0.2054 0.71211 0.34718 0.0
C466 C 0.17846 0.66171 0.35204 0.0
C467 C 0.1288 0.63318 0.33884 0.0
C468 C 0.10591 0.65498 0.32083 0.0
C469 C 0.13273 0.70539 0.31586 0.0
H470 H 0.10801 0.59416 0.34262 0.0
H471 H 0.36968 0.08297 0.30027 0.0
H472 H 0.10484 0.98754 0.91452 0.0
H473 H 0.18675 0.03417 0.88732 0.0
H474 H 0.24842 0.1508 0.93756 0.0
H475 H 0.16622 0.10361 0.96531 0.0
H476 H 0.2726 0.18471 0.87362 0.0
H477 H 0.285 0.07837 0.9589 0.0
H478 H 0.2572 0.00017 0.99302 0.0
H479 H 0.26005 0.94765 0.91477 0.0
H480 H 0.28717 0.0253 0.88007 0.0
H481 H 0.54231 0.31065 0.85037 0.0
H482 H 0.45524 0.26581 0.87035 0.0
H483 H 0.40209 0.15231 0.8191 0.0
H484 H 0.48984 0.19763 0.79889 0.0
H485 H 0.37128 0.11578 0.88098 0.0
H486 H 0.36633 0.22739 0.79649 0.0
H487 H 0.39482 0.30655 0.76394 0.0
H488 H 0.38128 0.35181 0.84246 0.0
H489 H 0.35326 0.27296 0.87574 0.0
C490 C 0.13575 0.02315 0.91984 0.0
C491 C 0.12873 0.04176 0.94217 0.0
C492 C 0.18278 0.04982 0.90424 0.0
C493 C 0.2243 0.09614 0.91033 0.0
C494 C 0.21716 0.11527 0.93228 0.0
C495 C 0.17011 0.08822 0.94822 0.0
C496 C 0.27508 0.12386 0.89414 0.0
C497 C 0.2945 0.16989 0.8756 0.0
C498 C 0.30335 0.10424 0.89589 0.0
C499 C 0.28729 0.05747 0.91671 0.0
C500 C 0.27915 0.04998 0.94886 0.0
C501 C 0.26364 0.00577 0.96835 0.0
C502 C 0.25663 0.96887 0.95604 0.0
C503 C 0.26532 0.9762 0.92425 0.0
C504 C 0.28075 0.02033 0.90465 0.0
C505 C 0.51183 0.27663 0.84275 0.0
C506 C 0.52296 0.25823 0.82249 0.0
C507 C 0.46188 0.2509 0.85426 0.0
C508 C 0.42147 0.20558 0.8462 0.0
C509 C 0.43222 0.18729 0.82557 0.0
C510 C 0.4823 0.21353 0.81363 0.0
C511 C 0.36913 0.17689 0.86062 0.0
C512 C 0.34934 0.13059 0.87885 0.0
C513 C 0.34079 0.19649 0.85876 0.0
C514 C 0.35785 0.24412 0.83875 0.0
C515 C 0.36963 0.25417 0.80697 0.0
C516 C 0.3857 0.29907 0.78834 0.0
C517 C 0.38991 0.33423 0.80113 0.0
C518 C 0.378 0.32453 0.83258 0.0
C519 C 0.36195 0.27969 0.85134 0.0
H520 H 0.40235 0.36897 0.78666 0.0
H521 H 0.24464 0.93467 0.97116 0.0
H522 H 0.17228 0.13842 0.42152 0.0
H523 H 0.20797 0.22068 0.39316 0.0
H524 H 0.09562 0.22069 0.43456 0.0
H525 H 0.05923 0.13719 0.46322 0.0
H526 H 0.10636 0.2633 0.37285 0.0
H527 H 0.22562 0.28533 0.45908 0.0
H528 H 0.28748 0.27637 0.49515 0.0
H529 H 0.38396 0.32497 0.41758 0.0
H530 H 0.3223 0.33357 0.38095 0.0
H531 H 0.25014 0.52548 0.34352 0.0
H532 H 0.20636 0.43952 0.36703 0.0
H533 H 0.29443 0.42888 0.30972 0.0
H534 H 0.33731 0.51512 0.28519 0.0
H535 H 0.2953 0.3921 0.3786 0.0
H536 H 0.1776 0.37312 0.29273 0.0
H537 H 0.12059 0.39004 0.25775 0.0
H538 H 0.0226 0.33859 0.33512 0.0
H539 H 0.08007 0.32267 0.37087 0.0
C540 C 0.155 0.15573 0.4248 0.0
C541 C 0.11283 0.13077 0.44498 0.0
C542 C 0.1758 0.20328 0.40851 0.0
C543 C 0.15541 0.22808 0.41171 0.0
C544 C 0.11258 0.20299 0.43152 0.0
C545 C 0.09179 0.15512 0.44809 0.0
C546 C 0.17907 0.27976 0.39427 0.0
C547 C 0.14759 0.29145 0.37458 0.0
C548 C 0.23324 0.31712 0.39546 0.0
C549 C 0.26907 0.30968 0.41723 0.0
C550 C 0.25966 0.29348 0.44965 0.0
C551 C 0.2948 0.28862 0.47021 0.0
C552 C 0.33966 0.30015 0.45866 0.0
C553 C 0.34922 0.31609 0.42649 0.0
C554 C 0.31419 0.32096 0.40582 0.0
C555 C 0.25937 0.50463 0.33528 0.0
C556 C 0.29683 0.52737 0.31199 0.0
C557 C 0.23435 0.4553 0.34893 0.0
C558 C 0.24683 0.42713 0.34041 0.0
C559 C 0.28383 0.44949 0.31684 0.0
C560 C 0.30805 0.49879 0.30253 0.0
C561 C 0.22274 0.3753 0.3572 0.0
C562 C 0.25412 0.36375 0.37684 0.0
C563 C 0.16863 0.33828 0.356 0.0
C564 C 0.13355 0.34724 0.33459 0.0
C565 C 0.14423 0.36589 0.3024 0.0
C566 C 0.11174 0.37522 0.28239 0.0
C567 C 0.06795 0.36542 0.29418 0.0
C568 C 0.05658 0.34622 0.32603 0.0
C569 C 0.08915 0.33708 0.34619 0.0
H570 H 0.04279 0.37263 0.27865 0.0
H571 H 0.36722 0.29703 0.47461 0.0
H572 H 0.99976 0.1364 0.96571 0.0
H573 H 0.95449 0.17023 0.93563 0.0
H574 H 0.8481 0.03871 0.89751 0.0
H575 H 0.89212 0.00412 0.92831 0.0
H576 H 0.93717 0.19484 0.87699 0.0
H577 H 0.73035 0.01595 0.88222 0.0
H578 H 0.67852 0.93622 0.91688 0.0
H579 H 0.77372 0.99858 0.99642 0.0
H580 H 0.82569 0.07878 0.96233 0.0
H581 H 0.78045 0.26473 0.78489 0.0
H582 H 0.82199 0.22311 0.80401 0.0
H583 H 0.74201 0.16399 0.89153 0.0
H584 H 0.69644 0.2002 0.87109 0.0
H585 H 0.74661 0.10092 0.88371 0.0
H586 H 0.88258 0.27465 0.87486 0.0
H587 H 0.93594 0.35884 0.84589 0.0
H588 H 0.98497 0.31488 0.78424 0.0
H589 H 0.93163 0.23041 0.81275 0.0
C590 C 0.9667 0.11455 0.95096 0.0
C591 C 0.94954 0.06719 0.94978 0.0
C592 C 0.94084 0.13413 0.93356 0.0
C593 C 0.89714 0.10708 0.91437 0.0
C594 C 0.88085 0.06025 0.91254 0.0
C595 C 0.9063 0.04044 0.93019 0.0
C596 C 0.86809 0.12739 0.89699 0.0
C597 C 0.89546 0.1742 0.87851 0.0
C598 C 0.81361 0.10114 0.89884 0.0
C599 C 0.78223 0.05321 0.91963 0.0
C600 C 0.7401 0.01266 0.90712 0.0
C601 C 0.71073 0.9674 0.92667 0.0
C602 C 0.72295 0.96232 0.95881 0.0
C603 C 0.76444 0.00254 0.97151 0.0
C604 C 0.79389 0.04789 0.95208 0.0
C605 C 0.77007 0.24111 0.80758 0.0
C606 C 0.73388 0.2351 0.82592 0.0
C607 C 0.79511 0.21828 0.81905 0.0
C608 C 0.78647 0.19072 0.8498 0.0
C609 C 0.74979 0.18447 0.86776 0.0
C610 C 0.72376 0.20577 0.85599 0.0
C611 C 0.81568 0.16913 0.86418 0.0
C612 C 0.7883 0.12174 0.88201 0.0
C613 C 0.87033 0.19552 0.86257 0.0
C614 C 0.90288 0.24629 0.84575 0.0
C615 C 0.90468 0.283 0.85508 0.0
C616 C 0.9349 0.33073 0.83875 0.0
C617 C 0.96375 0.34218 0.81321 0.0
C618 C 0.96259 0.30596 0.80401 0.0
C619 C 0.93245 0.25818 0.82027 0.0
H620 H 0.98706 0.37914 0.80057 0.0
H621 H 0.70021 0.92725 0.97389 0.0
H622 H 0.90893 0.8871 0.43274 0.0
H623 H 0.84131 0.85565 0.39198 0.0
H624 H 0.84826 0.98601 0.37482 0.0
H625 H 0.91406 0.01642 0.4168 0.0
H626 H 0.75482 0.91601 0.37696 0.0
H627 H 0.89284 0.95525 0.32066 0.0
H628 H 0.96788 0.95839 0.31058 0.0
H629 H 0.87233 0.80316 0.32008 0.0
H630 H 0.79683 0.79898 0.33069 0.0
H631 H 0.56245 0.82299 0.25745 0.0
H632 H 0.65431 0.87544 0.27341 0.0
H633 H 0.64326 0.75022 0.32895 0.0
H634 H 0.55145 0.69824 0.31388 0.0
H635 H 0.74547 0.83012 0.29795 0.0
H636 H 0.61435 0.79627 0.36522 0.0
H637 H 0.53999 0.79599 0.37258 0.0
H638 H 0.62828 0.94943 0.33758 0.0
H639 H 0.70289 0.95037 0.32952 0.0
C640 C 0.8964 0.90927 0.42007 0.0
C641 C 0.91669 0.95416 0.42808 0.0
C642 C 0.85797 0.89143 0.3965 0.0
C643 C 0.84001 0.9187 0.37976 0.0
C644 C 0.86128 0.96415 0.38729 0.0
C645 C 0.89892 0.98153 0.41132 0.0
C646 C 0.79621 0.89805 0.35635 0.0
C647 C 0.75373 0.89845 0.3592 0.0
C648 C 0.79394 0.87456 0.33313 0.0
C649 C 0.8392 0.8768 0.32669 0.0
C650 C 0.88788 0.92174 0.32082 0.0
C651 C 0.9305 0.92371 0.31498 0.0
C652 C 0.9249 0.881 0.31474 0.0
C653 C 0.87661 0.83622 0.32028 0.0
C654 C 0.83387 0.83404 0.32617 0.0
C655 C 0.58032 0.80665 0.2721 0.0
C656 C 0.55023 0.75682 0.28463 0.0
C657 C 0.63263 0.83653 0.28119 0.0
C658 C 0.65534 0.81663 0.30249 0.0
C659 C 0.62651 0.76619 0.31238 0.0
C660 C 0.57412 0.73658 0.30387 0.0
C661 C 0.70496 0.84803 0.31913 0.0
C662 C 0.74793 0.84914 0.31519 0.0
C663 C 0.70828 0.87372 0.34098 0.0
C664 C 0.66387 0.87329 0.34642 0.0
C665 C 0.61772 0.82986 0.35888 0.0
C666 C 0.57557 0.82958 0.3632 0.0
C667 C 0.57935 0.87264 0.35546 0.0
C668 C 0.62537 0.91609 0.34349 0.0
C669 C 0.66759 0.91651 0.33904 0.0
H670 H 0.54667 0.87237 0.35882 0.0
H671 H 0.95795 0.8826 0.31023 0.0
H672 H 0.83395 0.67578 0.93819 0.0
H673 H 0.83682 0.62532 0.90982 0.0
H674 H 0.9997 0.73665 0.89364 0.0
H675 H 0.99751 0.78711 0.92269 0.0
H676 H 0.93913 0.70476 0.83877 0.0
H677 H 0.96942 0.63659 0.94108 0.0
H678 H 0.95315 0.60185 0.99751 0.0
H679 H 0.79948 0.48308 0.97527 0.0
H680 H 0.81451 0.51741 0.91875 0.0
H681 H 0.85087 0.44663 0.81716 0.0
H682 H 0.91423 0.52459 0.83431 0.0
H683 H 0.81427 0.5692 0.79716 0.0
H684 H 0.7514 0.49147 0.77948 0.0
H685 H 0.87629 0.53395 0.87926 0.0
H686 H 0.87723 0.68763 0.79112 0.0
H687 H 0.88557 0.71916 0.73407 0.0
H688 H 0.97175 0.66448 0.72721 0.0
H689 H 0.96422 0.63291 0.78414 0.0
C690 C 0.87066 0.68901 0.92933 0.0
C691 C 0.91539 0.73544 0.93243 0.0
C692 C 0.87223 0.66027 0.91306 0.0
C693 C 0.91853 0.67747 0.89978 0.0
C694 C 0.96368 0.72305 0.90372 0.0
C695 C 0.96224 0.75174 0.92016 0.0
C696 C 0.91813 0.64891 0.87983 0.0
C697 C 0.92632 0.66763 0.84753 0.0
C698 C 0.90205 0.60088 0.8916 0.0
C699 C 0.89316 0.57966 0.92563 0.0
C700 C 0.93209 0.60317 0.94822 0.0
C701 C 0.92308 0.58353 0.98023 0.0
C702 C 0.87532 0.54029 0.98997 0.0
C703 C 0.83649 0.51653 0.9677 0.0
C704 C 0.84529 0.53601 0.93566 0.0
C705 C 0.84385 0.47419 0.81135 0.0
C706 C 0.79659 0.46357 0.79737 0.0
C707 C 0.87999 0.51859 0.82105 0.0
C708 C 0.86871 0.55237 0.81724 0.0
C709 C 0.82401 0.54383 0.8 0.0
C710 C 0.78797 0.49944 0.79005 0.0
C711 C 0.89503 0.58896 0.83783 0.0
C712 C 0.89125 0.57164 0.8704 0.0
C713 C 0.91444 0.63795 0.82621 0.0
C714 C 0.92014 0.65788 0.79197 0.0
C715 C 0.89834 0.68268 0.77749 0.0
C716 C 0.90274 0.70041 0.74512 0.0
C717 C 0.92914 0.69385 0.727 0.0
C718 C 0.9512 0.66951 0.7412 0.0
C719 C 0.94675 0.65156 0.77352 0.0
H720 H 0.9325 0.70769 0.70197 0.0
H721 H 0.8684 0.52519 0.01476 0.0
loop_
_geom_bond_atom_site_label_1
_geom_bond_atom_site_label_2
_geom_bond_distance
_geom_bond_site_symmetry_2
_ccdc_geom_bond_type
Sm0 C2 2.846 . S
Sm0 O20 2.543 . S
Sm0 O21 2.450 . S
Sm0 O22 2.681 1_445 S
Sm0 O23 2.464 1_445 S
Sm0 O24 2.396 . S
Sm0 O28 2.386 1_554 S
Sm0 O31 2.408 1_545 S
Sm1 C11 2.846 . S
Sm1 O22 2.386 1_556 S
Sm1 O25 2.408 1_565 S
Sm1 O26 2.543 . S
Sm1 O27 2.450 . S
Sm1 O28 2.681 1_665 S
Sm1 O29 2.464 1_665 S
Sm1 O30 2.396 1_656 S
C2 Sm0 2.846 . S
C2 C3 1.506 . S
C2 O20 1.261 . S
C2 O21 1.242 . S
C3 C2 1.506 . S
C3 C4 1.358 . S
C3 C8 1.382 . S
C4 C3 1.358 . S
C4 C5 1.385 . S
C4 H32 0.930 . S
C5 C4 1.385 . S
C5 C6 1.395 . S
C5 H33 0.929 . S
C6 C5 1.395 . S
C6 C7 1.335 . S
C7 C6 1.335 . S
C7 C8 1.398 . S
C7 H34 0.930 . S
C8 C3 1.382 . S
C8 C7 1.398 . S
C8 H35 0.929 . S
C9 O22 1.271 . S
C9 O23 1.251 . S
C10 O24 1.252 1_656 S
C10 O25 1.272 . S
C11 Sm1 2.846 . S
C11 C12 1.506 . S
C11 O26 1.261 . S
C11 O27 1.242 . S
C12 C11 1.506 . S
C12 C13 1.358 . S
C12 C17 1.382 . S
C13 C12 1.358 . S
C13 C14 1.385 . S
C13 H36 0.930 . S
C14 C13 1.385 . S
C14 C15 1.395 . S
C14 H37 0.929 . S
C15 C14 1.395 . S
C15 C16 1.335 . S
C16 C15 1.335 . S
C16 C17 1.398 . S
C16 H38 0.930 . S
C17 C12 1.382 . S
C17 C16 1.398 . S
C17 H39 0.929 . S
C18 O28 1.271 . S
C18 O29 1.251 . S
C19 O30 1.252 . S
C19 O31 1.272 . S
O20 Sm0 2.543 . S
O20 C2 1.261 . S
O21 Sm0 2.450 . S
O21 C2 1.242 . S
O22 Sm0 2.681 1_665 S
O22 Sm1 2.386 1_554 S
O22 C9 1.271 . S
O23 Sm0 2.464 1_665 S
O23 C9 1.251 . S
O24 Sm0 2.396 . S
O24 C10 1.252 1_454 S
O25 Sm1 2.408 1_545 S
O25 C10 1.272 . S
O26 Sm1 2.543 . S
O26 C11 1.261 . S
O27 Sm1 2.450 . S
O27 C11 1.242 . S
O28 Sm0 2.386 1_556 S
O28 Sm1 2.681 1_445 S
O28 C18 1.271 . S
O29 Sm1 2.464 1_445 S
O29 C18 1.251 . S
O30 Sm1 2.396 1_454 S
O30 C19 1.252 . S
O31 Sm0 2.408 1_565 S
O31 C19 1.272 . S
H32 C4 0.930 . S
H33 C5 0.929 . S
H34 C7 0.930 . S
H35 C8 0.929 . S
H36 C13 0.930 . S
H37 C14 0.929 . S
H38 C16 0.930 . S
H39 C17 0.929 . S
Sm40 C42 2.846 1_455 S
Sm40 O60 2.543 1_455 S
Sm40 O61 2.450 1_455 S
Sm40 O62 2.681 1_545 S
Sm40 O63 2.464 1_445 S
Sm40 O64 2.396 1_445 S
Sm40 O68 2.386 . S
Sm40 O71 2.408 . S
Sm41 C51 2.846 . S
Sm41 O62 2.386 . S
Sm41 O65 2.408 1_455 S
Sm41 O66 2.543 . S
Sm41 O67 2.450 1_565 S
Sm41 O68 2.681 1_565 S
Sm41 O69 2.464 1_565 S
Sm41 O70 2.396 1_565 S
C42 Sm40 2.846 1_655 S
C42 C43 1.506 . S
C42 O60 1.261 . S
C42 O61 1.242 . S
C43 C42 1.506 . S
C43 C44 1.358 . S
C43 C48 1.382 . S
C44 C43 1.358 . S
C44 C45 1.385 . S
C44 H72 0.930 . S
C45 C44 1.385 . S
C45 C46 1.395 . S
C45 H73 0.929 . S
C46 C45 1.395 . S
C46 C47 1.335 . S
C47 C46 1.335 . S
C47 C48 1.398 . S
C47 H74 0.930 . S
C48 C43 1.382 . S
C48 C47 1.398 . S
C48 H75 0.929 . S
C49 O62 1.271 1_655 S
C49 O63 1.251 . S
C50 O64 1.252 . S
C50 O65 1.272 . S
C51 Sm41 2.846 . S
C51 C52 1.506 . S
C51 O66 1.261 . S
C51 O67 1.242 1_565 S
C52 C51 1.506 . S
C52 C53 1.358 . S
C52 C57 1.382 . S
C53 C52 1.358 . S
C53 C54 1.385 . S
C53 H76 0.930 . S
C54 C53 1.385 . S
C54 C55 1.395 . S
C54 H77 0.929 . S
C55 C54 1.395 . S
C55 C56 1.335 . S
C56 C55 1.335 . S
C56 C57 1.398 . S
C56 H78 0.930 1_565 S
C57 C52 1.382 . S
C57 C56 1.398 . S
C57 H79 0.929 1_565 S
C58 O68 1.271 . S
C58 O69 1.251 . S
C59 O70 1.252 . S
C59 O71 1.272 . S
O60 Sm40 2.543 1_655 S
O60 C42 1.261 . S
O61 Sm40 2.450 1_655 S
O61 C42 1.242 . S
O62 Sm40 2.681 1_565 S
O62 Sm41 2.386 . S
O62 C49 1.271 1_455 S
O63 Sm40 2.464 1_665 S
O63 C49 1.251 . S
O64 Sm40 2.396 1_665 S
O64 C50 1.252 . S
O65 Sm41 2.408 1_655 S
O65 C50 1.272 . S
O66 Sm41 2.543 . S
O66 C51 1.261 . S
O67 Sm41 2.450 1_545 S
O67 C51 1.242 1_545 S
O68 Sm40 2.386 . S
O68 Sm41 2.681 1_545 S
O68 C58 1.271 . S
O69 Sm41 2.464 1_545 S
O69 C58 1.251 . S
O70 Sm41 2.396 1_545 S
O70 C59 1.252 . S
O71 Sm40 2.408 . S
O71 C59 1.272 . S
H72 C44 0.930 . S
H73 C45 0.929 . S
H74 C47 0.930 . S
H75 C48 0.929 . S
H76 C53 0.930 . S
H77 C54 0.929 . S
H78 C56 0.930 1_545 S
H79 C57 0.929 1_545 S
Zn80 O86 1.920 . S
Zn80 O92 1.898 . S
Zn80 O95 1.905 . S
Zn81 O89 1.905 . S
Zn81 O90 1.898 . S
Zn81 O98 1.920 . S
Zn82 O85 2.080 . S
Zn82 O88 2.114 . S
Zn82 O91 2.120 . S
Zn82 O93 2.120 . S
Zn82 O94 2.114 . S
Zn82 O97 2.080 . S
C83 O88 1.166 . S
C83 O89 1.182 . S
C84 O90 1.167 . S
C84 O91 1.299 . S
O85 Zn82 2.080 . S
O85 C99 1.305 . S
O86 Zn80 1.920 . S
O86 C99 1.234 . S
C87 O92 1.167 . S
C87 O93 1.299 . S
O88 Zn82 2.114 . S
O88 C83 1.166 . S
O89 Zn81 1.905 . S
O89 C83 1.182 . S
O90 Zn81 1.898 . S
O90 C84 1.167 . S
O91 Zn82 2.120 . S
O91 C84 1.299 . S
O92 Zn80 1.898 . S
O92 C87 1.167 . S
O93 Zn82 2.120 . S
O93 C87 1.299 . S
O94 Zn82 2.114 . S
O94 C96 1.166 . S
O95 Zn80 1.905 . S
O95 C96 1.182 . S
C96 O94 1.166 . S
C96 O95 1.182 . S
O97 Zn82 2.080 . S
O97 C100 1.305 . S
O98 Zn81 1.920 . S
O98 C100 1.234 . S
C99 O85 1.305 . S
C99 O86 1.234 . S
C100 O97 1.305 . S
C100 O98 1.234 . S
Zn101 O107 1.920 . S
Zn101 O113 1.898 . S
Zn101 O116 1.905 . S
Zn102 O110 1.905 . S
Zn102 O111 1.898 . S
Zn102 O119 1.920 . S
Zn103 O106 2.080 . S
Zn103 O109 2.114 . S
Zn103 O112 2.120 . S
Zn103 O114 2.120 . S
Zn103 O115 2.114 . S
Zn103 O118 2.080 . S
C104 O109 1.166 . S
C104 O110 1.182 . S
C105 O111 1.167 . S
C105 O112 1.299 . S
O106 Zn103 2.080 . S
O106 C120 1.305 . S
O107 Zn101 1.920 . S
O107 C120 1.234 . S
C108 O113 1.167 . S
C108 O114 1.299 . S
O109 Zn103 2.114 . S
O109 C104 1.166 . S
O110 Zn102 1.905 . S
O110 C104 1.182 . S
O111 Zn102 1.898 . S
O111 C105 1.167 . S
O112 Zn103 2.120 . S
O112 C105 1.299 . S
O113 Zn101 1.898 . S
O113 C108 1.167 . S
O114 Zn103 2.120 . S
O114 C108 1.299 . S
O115 Zn103 2.114 . S
O115 C117 1.166 . S
O116 Zn101 1.905 . S
O116 C117 1.182 . S
C117 O115 1.166 . S
C117 O116 1.182 . S
O118 Zn103 2.080 . S
O118 C121 1.305 . S
O119 Zn102 1.920 . S
O119 C121 1.234 . S
C120 O106 1.305 . S
C120 O107 1.234 . S
C121 O118 1.305 . S
C121 O119 1.234 . S
H122 C140 0.951 . S
H123 C142 0.951 . S
H124 C144 0.950 . S
H125 C145 0.950 . S
H126 C147 0.950 . S
H127 C150 0.950 . S
H128 C151 0.950 . S
H129 C153 0.950 . S
H130 C154 0.950 . S
H131 C155 0.951 . S
H132 C157 0.951 . S
H133 C159 0.950 . S
H134 C160 0.950 . S
H135 C162 0.950 . S
H136 C165 0.950 . S
H137 C166 0.950 . S
H138 C168 0.950 . S
H139 C169 0.950 . S
C140 H122 0.951 . S
C140 C141 1.366 . S
C140 C142 1.388 . S
C141 C140 1.366 . S
C141 C145 1.385 . S
C142 H123 0.951 . S
C142 C140 1.388 . S
C142 C143 1.366 . S
C143 C142 1.366 . S
C143 C144 1.414 . S
C143 C146 1.499 . S
C144 H124 0.950 . S
C144 C143 1.414 . S
C144 C145 1.374 . S
C145 H125 0.950 . S
C145 C141 1.385 . S
C145 C144 1.374 . S
C146 C143 1.499 . S
C146 C147 1.373 . S
C146 C148 1.389 . S
C147 H126 0.950 . S
C147 C146 1.373 . S
C147 C163 1.377 . S
C148 C146 1.389 . S
C148 C149 1.524 . S
C148 C162 1.377 . S
C149 C148 1.524 . S
C149 C150 1.397 . S
C149 C154 1.363 . S
C150 H127 0.950 . S
C150 C149 1.397 . S
C150 C151 1.334 1_455 S
C151 H128 0.950 . S
C151 C150 1.334 1_655 S
C151 C152 1.287 . S
C152 C151 1.287 . S
C152 C153 1.524 1_655 S
C152 H171 0.913 . S
C153 H129 0.950 . S
C153 C152 1.524 1_455 S
C153 C154 1.415 . S
C154 H130 0.950 . S
C154 C149 1.363 . S
C154 C153 1.415 . S
C155 H131 0.951 . S
C155 C156 1.366 . S
C155 C157 1.388 . S
C156 C155 1.366 . S
C156 C160 1.385 . S
C157 H132 0.951 . S
C157 C155 1.388 . S
C157 C158 1.366 . S
C158 C157 1.366 . S
C158 C159 1.414 . S
C158 C161 1.499 . S
C159 H133 0.950 . S
C159 C158 1.414 . S
C159 C160 1.374 . S
C160 H134 0.950 . S
C160 C156 1.385 . S
C160 C159 1.374 . S
C161 C158 1.499 . S
C161 C162 1.373 . S
C161 C163 1.389 . S
C162 H135 0.950 . S
C162 C148 1.377 . S
C162 C161 1.373 . S
C163 C147 1.377 . S
C163 C161 1.389 . S
C163 C164 1.524 . S
C164 C163 1.524 . S
C164 C165 1.397 . S
C164 C169 1.363 . S
C165 H136 0.950 . S
C165 C164 1.397 . S
C165 C166 1.334 . S
C166 H137 0.950 . S
C166 C165 1.334 . S
C166 C167 1.287 . S
C167 C166 1.287 . S
C167 C168 1.524 . S
C167 H170 0.999 . S
C168 H138 0.950 . S
C168 C167 1.524 . S
C168 C169 1.415 . S
C169 H139 0.950 . S
C169 C164 1.363 . S
C169 C168 1.415 . S
H170 C167 0.999 . S
H171 C152 0.913 . S
H172 C190 0.951 . S
H173 C192 0.951 . S
H174 C194 0.950 . S
H175 C195 0.950 1_565 S
H176 C197 0.950 . S
H177 C200 0.950 . S
H178 C201 0.950 . S
H179 C203 0.950 . S
H180 C204 0.950 . S
H181 C205 0.951 . S
H182 C207 0.951 . S
H183 C209 0.950 . S
H184 C210 0.950 . S
H185 C212 0.950 . S
H186 C215 0.950 . S
H187 C216 0.950 . S
H188 C218 0.950 . S
H189 C219 0.950 . S
C190 H172 0.951 . S
C190 C191 1.366 . S
C190 C192 1.388 . S
C191 C190 1.366 . S
C191 C195 1.385 . S
C192 H173 0.951 . S
C192 C190 1.388 . S
C192 C193 1.366 . S
C193 C192 1.366 . S
C193 C194 1.414 . S
C193 C196 1.499 . S
C194 H174 0.950 . S
C194 C193 1.414 . S
C194 C195 1.374 . S
C195 H175 0.950 1_545 S
C195 C191 1.385 . S
C195 C194 1.374 . S
C196 C193 1.499 . S
C196 C197 1.373 . S
C196 C198 1.389 . S
C197 H176 0.950 . S
C197 C196 1.373 . S
C197 C213 1.377 . S
C198 C196 1.389 . S
C198 C199 1.524 . S
C198 C212 1.377 . S
C199 C198 1.524 . S
C199 C200 1.397 . S
C199 C204 1.363 . S
C200 H177 0.950 . S
C200 C199 1.397 . S
C200 C201 1.334 . S
C201 H178 0.950 . S
C201 C200 1.334 . S
C201 C202 1.287 . S
C202 C201 1.287 . S
C202 C203 1.524 . S
C202 H221 0.913 . S
C203 H179 0.950 . S
C203 C202 1.524 . S
C203 C204 1.415 . S
C204 H180 0.950 . S
C204 C199 1.363 . S
C204 C203 1.415 . S
C205 H181 0.951 . S
C205 C206 1.366 . S
C205 C207 1.388 . S
C206 C205 1.366 . S
C206 C210 1.385 . S
C207 H182 0.951 . S
C207 C205 1.388 . S
C207 C208 1.366 . S
C208 C207 1.366 . S
C208 C209 1.414 . S
C208 C211 1.499 . S
C209 H183 0.950 . S
C209 C208 1.414 . S
C209 C210 1.374 . S
C210 H184 0.950 . S
C210 C206 1.385 . S
C210 C209 1.374 . S
C211 C208 1.499 . S
C211 C212 1.373 . S
C211 C213 1.389 . S
C212 H185 0.950 . S
C212 C198 1.377 . S
C212 C211 1.373 . S
C213 C197 1.377 . S
C213 C211 1.389 . S
C213 C214 1.524 . S
C214 C213 1.524 . S
C214 C215 1.397 . S
C214 C219 1.363 . S
C215 H186 0.950 . S
C215 C214 1.397 . S
C215 C216 1.334 . S
C216 H187 0.950 . S
C216 C215 1.334 . S
C216 C217 1.287 . S
C217 C216 1.287 . S
C217 C218 1.524 . S
C217 H220 0.999 . S
C218 H188 0.950 . S
C218 C217 1.524 . S
C218 C219 1.415 . S
C219 H189 0.950 . S
C219 C214 1.363 . S
C219 C218 1.415 . S
H220 C217 0.999 . S
H221 C202 0.913 . S
H222 C240 0.951 . S
H223 C242 0.951 . S
H224 C244 0.950 . S
H225 C245 0.950 . S
H226 C247 0.950 . S
H227 C250 0.950 . S
H228 C251 0.950 . S
H229 C253 0.950 . S
H230 C254 0.950 . S
H231 C255 0.951 . S
H232 C257 0.951 . S
H233 C259 0.950 . S
H234 C260 0.950 . S
H235 C262 0.950 . S
H236 C265 0.950 . S
H237 C266 0.950 . S
H238 C268 0.950 . S
H239 C269 0.950 . S
C240 H222 0.951 . S
C240 C241 1.366 . S
C240 C242 1.388 . S
C241 C240 1.366 . S
C241 C245 1.385 . S
C242 H223 0.951 . S
C242 C240 1.388 . S
C242 C243 1.366 . S
C243 C242 1.366 . S
C243 C244 1.414 . S
C243 C246 1.499 . S
C244 H224 0.950 . S
C244 C243 1.414 . S
C244 C245 1.374 . S
C245 H225 0.950 . S
C245 C241 1.385 . S
C245 C244 1.374 . S
C246 C243 1.499 . S
C246 C247 1.373 . S
C246 C248 1.389 . S
C247 H226 0.950 . S
C247 C246 1.373 . S
C247 C263 1.377 . S
C248 C246 1.389 . S
C248 C249 1.524 . S
C248 C262 1.377 . S
C249 C248 1.524 . S
C249 C250 1.397 . S
C249 C254 1.363 . S
C250 H227 0.950 . S
C250 C249 1.397 . S
C250 C251 1.334 . S
C251 H228 0.950 . S
C251 C250 1.334 . S
C251 C252 1.287 . S
C252 C251 1.287 . S
C252 C253 1.524 . S
C252 H271 0.913 . S
C253 H229 0.950 . S
C253 C252 1.524 . S
C253 C254 1.415 . S
C254 H230 0.950 . S
C254 C249 1.363 . S
C254 C253 1.415 . S
C255 H231 0.951 . S
C255 C256 1.366 . S
C255 C257 1.388 . S
C256 C255 1.366 . S
C256 C260 1.385 . S
C257 H232 0.951 . S
C257 C255 1.388 . S
C257 C258 1.366 . S
C258 C257 1.366 . S
C258 C259 1.414 . S
C258 C261 1.499 . S
C259 H233 0.950 . S
C259 C258 1.414 . S
C259 C260 1.374 . S
C260 H234 0.950 . S
C260 C256 1.385 . S
C260 C259 1.374 . S
C261 C258 1.499 . S
C261 C262 1.373 . S
C261 C263 1.389 . S
C262 H235 0.950 . S
C262 C248 1.377 . S
C262 C261 1.373 . S
C263 C247 1.377 . S
C263 C261 1.389 . S
C263 C264 1.524 . S
C264 C263 1.524 . S
C264 C265 1.397 . S
C264 C269 1.363 . S
C265 H236 0.950 . S
C265 C264 1.397 . S
C265 C266 1.334 . S
C266 H237 0.950 . S
C266 C265 1.334 . S
C266 C267 1.287 . S
C267 C266 1.287 . S
C267 C268 1.524 . S
C267 H270 0.999 . S
C268 H238 0.950 . S
C268 C267 1.524 . S
C268 C269 1.415 . S
C269 H239 0.950 . S
C269 C264 1.363 . S
C269 C268 1.415 . S
H270 C267 0.999 . S
H271 C252 0.913 . S
H272 C290 0.951 . S
H273 C292 0.951 . S
H274 C294 0.950 . S
H275 C295 0.950 . S
H276 C297 0.950 . S
H277 C300 0.950 . S
H278 C301 0.950 . S
H279 C303 0.950 1_455 S
H280 C304 0.950 . S
H281 C305 0.951 . S
H282 C307 0.951 . S
H283 C309 0.950 . S
H284 C310 0.950 . S
H285 C312 0.950 . S
H286 C315 0.950 . S
H287 C316 0.950 . S
H288 C318 0.950 . S
H289 C319 0.950 . S
C290 H272 0.951 . S
C290 C291 1.366 . S
C290 C292 1.388 . S
C291 C290 1.366 . S
C291 C295 1.385 . S
C292 H273 0.951 . S
C292 C290 1.388 . S
C292 C293 1.366 . S
C293 C292 1.366 . S
C293 C294 1.414 . S
C293 C296 1.499 . S
C294 H274 0.950 . S
C294 C293 1.414 . S
C294 C295 1.374 . S
C295 H275 0.950 . S
C295 C291 1.385 . S
C295 C294 1.374 . S
C296 C293 1.499 . S
C296 C297 1.373 . S
C296 C298 1.389 . S
C297 H276 0.950 . S
C297 C296 1.373 . S
C297 C313 1.377 . S
C298 C296 1.389 . S
C298 C299 1.524 . S
C298 C312 1.377 . S
C299 C298 1.524 . S
C299 C300 1.397 . S
C299 C304 1.363 . S
C300 H277 0.950 . S
C300 C299 1.397 . S
C300 C301 1.334 . S
C301 H278 0.950 . S
C301 C300 1.334 . S
C301 C302 1.287 . S
C302 C301 1.287 . S
C302 C303 1.524 . S
C302 H321 0.913 1_655 S
C303 H279 0.950 1_655 S
C303 C302 1.524 . S
C303 C304 1.415 . S
C304 H280 0.950 . S
C304 C299 1.363 . S
C304 C303 1.415 . S
C305 H281 0.951 . S
C305 C306 1.366 . S
C305 C307 1.388 . S
C306 C305 1.366 . S
C306 C310 1.385 . S
C307 H282 0.951 . S
C307 C305 1.388 . S
C307 C308 1.366 . S
C308 C307 1.366 . S
C308 C309 1.414 . S
C308 C311 1.499 . S
C309 H283 0.950 . S
C309 C308 1.414 . S
C309 C310 1.374 . S
C310 H284 0.950 . S
C310 C306 1.385 . S
C310 C309 1.374 . S
C311 C308 1.499 . S
C311 C312 1.373 . S
C311 C313 1.389 . S
C312 H285 0.950 . S
C312 C298 1.377 . S
C312 C311 1.373 . S
C313 C297 1.377 . S
C313 C311 1.389 . S
C313 C314 1.524 . S
C314 C313 1.524 . S
C314 C315 1.397 . S
C314 C319 1.363 . S
C315 H286 0.950 . S
C315 C314 1.397 . S
C315 C316 1.334 . S
C316 H287 0.950 . S
C316 C315 1.334 . S
C316 C317 1.287 . S
C317 C316 1.287 . S
C317 C318 1.524 . S
C317 H320 0.999 . S
C318 H288 0.950 . S
C318 C317 1.524 . S
C318 C319 1.415 . S
C319 H289 0.950 . S
C319 C314 1.363 . S
C319 C318 1.415 . S
H320 C317 0.999 . S
H321 C302 0.913 1_455 S
H322 C340 0.951 . S
H323 C342 0.951 . S
H324 C344 0.950 . S
H325 C345 0.950 . S
H326 C347 0.950 . S
H327 C350 0.950 . S
H328 C351 0.950 . S
H329 C353 0.950 . S
H330 C354 0.950 . S
H331 C355 0.951 . S
H332 C357 0.951 . S
H333 C359 0.950 . S
H334 C360 0.950 . S
H335 C362 0.950 . S
H336 C365 0.950 . S
H337 C366 0.950 . S
H338 C368 0.950 . S
H339 C369 0.950 . S
C340 H322 0.951 . S
C340 C341 1.366 . S
C340 C342 1.388 . S
C341 C340 1.366 . S
C341 C345 1.385 . S
C342 H323 0.951 . S
C342 C340 1.388 . S
C342 C343 1.366 . S
C343 C342 1.366 . S
C343 C344 1.414 . S
C343 C346 1.499 . S
C344 H324 0.950 . S
C344 C343 1.414 . S
C344 C345 1.374 . S
C345 H325 0.950 . S
C345 C341 1.385 . S
C345 C344 1.374 . S
C346 C343 1.499 . S
C346 C347 1.373 . S
C346 C348 1.389 . S
C347 H326 0.950 . S
C347 C346 1.373 . S
C347 C363 1.377 . S
C348 C346 1.389 . S
C348 C349 1.524 . S
C348 C362 1.377 . S
C349 C348 1.524 . S
C349 C350 1.397 . S
C349 C354 1.363 . S
C350 H327 0.950 . S
C350 C349 1.397 . S
C350 C351 1.334 1_565 S
C351 H328 0.950 . S
C351 C350 1.334 1_545 S
C351 C352 1.287 . S
C352 C351 1.287 . S
C352 C353 1.524 1_545 S
C352 H371 0.913 . S
C353 H329 0.950 . S
C353 C352 1.524 1_565 S
C353 C354 1.415 . S
C354 H330 0.950 . S
C354 C349 1.363 . S
C354 C353 1.415 . S
C355 H331 0.951 . S
C355 C356 1.366 . S
C355 C357 1.388 . S
C356 C355 1.366 . S
C356 C360 1.385 . S
C357 H332 0.951 . S
C357 C355 1.388 . S
C357 C358 1.366 . S
C358 C357 1.366 . S
C358 C359 1.414 . S
C358 C361 1.499 . S
C359 H333 0.950 . S
C359 C358 1.414 . S
C359 C360 1.374 . S
C360 H334 0.950 . S
C360 C356 1.385 . S
C360 C359 1.374 . S
C361 C358 1.499 . S
C361 C362 1.373 . S
C361 C363 1.389 . S
C362 H335 0.950 . S
C362 C348 1.377 . S
C362 C361 1.373 . S
C363 C347 1.377 . S
C363 C361 1.389 . S
C363 C364 1.524 . S
C364 C363 1.524 . S
C364 C365 1.397 . S
C364 C369 1.363 . S
C365 H336 0.950 . S
C365 C364 1.397 . S
C365 C366 1.334 . S
C366 H337 0.950 . S
C366 C365 1.334 . S
C366 C367 1.287 . S
C367 C366 1.287 . S
C367 C368 1.524 . S
C367 H370 0.999 . S
C368 H338 0.950 . S
C368 C367 1.524 . S
C368 C369 1.415 . S
C369 H339 0.950 . S
C369 C364 1.363 . S
C369 C368 1.415 . S
H370 C367 0.999 . S
H371 C352 0.913 . S
H372 C390 0.951 . S
H373 C392 0.951 . S
H374 C394 0.950 . S
H375 C395 0.950 . S
H376 C397 0.950 . S
H377 C400 0.950 . S
H378 C401 0.950 . S
H379 C403 0.950 . S
H380 C404 0.950 . S
H381 C405 0.951 . S
H382 C407 0.951 . S
H383 C409 0.950 . S
H384 C410 0.950 . S
H385 C412 0.950 . S
H386 C415 0.950 . S
H387 C416 0.950 . S
H388 C418 0.950 . S
H389 C419 0.950 . S
C390 H372 0.951 . S
C390 C391 1.366 . S
C390 C392 1.388 . S
C391 C390 1.366 . S
C391 C395 1.385 . S
C392 H373 0.951 . S
C392 C390 1.388 . S
C392 C393 1.366 . S
C393 C392 1.366 . S
C393 C394 1.414 . S
C393 C396 1.499 . S
C394 H374 0.950 . S
C394 C393 1.414 . S
C394 C395 1.374 . S
C395 H375 0.950 . S
C395 C391 1.385 . S
C395 C394 1.374 . S
C396 C393 1.499 . S
C396 C397 1.373 . S
C396 C398 1.389 . S
C397 H376 0.950 . S
C397 C396 1.373 . S
C397 C413 1.377 . S
C398 C396 1.389 . S
C398 C399 1.524 . S
C398 C412 1.377 . S
C399 C398 1.524 . S
C399 C400 1.397 . S
C399 C404 1.363 . S
C400 H377 0.950 . S
C400 C399 1.397 . S
C400 C401 1.334 . S
C401 H378 0.950 . S
C401 C400 1.334 . S
C401 C402 1.287 . S
C402 C401 1.287 . S
C402 C403 1.524 . S
C402 H421 0.913 . S
C403 H379 0.950 . S
C403 C402 1.524 . S
C403 C404 1.415 . S
C404 H380 0.950 . S
C404 C399 1.363 . S
C404 C403 1.415 . S
C405 H381 0.951 . S
C405 C406 1.366 . S
C405 C407 1.388 . S
C406 C405 1.366 . S
C406 C410 1.385 . S
C407 H382 0.951 . S
C407 C405 1.388 . S
C407 C408 1.366 . S
C408 C407 1.366 . S
C408 C409 1.414 . S
C408 C411 1.499 . S
C409 H383 0.950 . S
C409 C408 1.414 . S
C409 C410 1.374 . S
C410 H384 0.950 . S
C410 C406 1.385 . S
C410 C409 1.374 . S
C411 C408 1.499 . S
C411 C412 1.373 . S
C411 C413 1.389 . S
C412 H385 0.950 . S
C412 C398 1.377 . S
C412 C411 1.373 . S
C413 C397 1.377 . S
C413 C411 1.389 . S
C413 C414 1.524 . S
C414 C413 1.524 . S
C414 C415 1.397 . S
C414 C419 1.363 . S
C415 H386 0.950 . S
C415 C414 1.397 . S
C415 C416 1.334 . S
C416 H387 0.950 . S
C416 C415 1.334 . S
C416 C417 1.287 . S
C417 C416 1.287 . S
C417 C418 1.524 . S
C417 H420 0.999 . S
C418 H388 0.950 . S
C418 C417 1.524 . S
C418 C419 1.415 . S
C419 H389 0.950 . S
C419 C414 1.363 . S
C419 C418 1.415 . S
H420 C417 0.999 . S
H421 C402 0.913 . S
H422 C440 0.951 . S
H423 C442 0.951 . S
H424 C444 0.950 . S
H425 C445 0.950 . S
H426 C447 0.950 . S
H427 C450 0.950 . S
H428 C451 0.950 . S
H429 C453 0.950 . S
H430 C454 0.950 . S
H431 C455 0.951 . S
H432 C457 0.951 . S
H433 C459 0.950 . S
H434 C460 0.950 . S
H435 C462 0.950 . S
H436 C465 0.950 . S
H437 C466 0.950 . S
H438 C468 0.950 . S
H439 C469 0.950 . S
C440 H422 0.951 . S
C440 C441 1.366 . S
C440 C442 1.388 . S
C441 C440 1.366 . S
C441 C445 1.385 . S
C442 H423 0.951 . S
C442 C440 1.388 . S
C442 C443 1.366 . S
C443 C442 1.366 . S
C443 C444 1.414 . S
C443 C446 1.499 . S
C444 H424 0.950 . S
C444 C443 1.414 . S
C444 C445 1.374 . S
C445 H425 0.950 . S
C445 C441 1.385 . S
C445 C444 1.374 . S
C446 C443 1.499 . S
C446 C447 1.373 . S
C446 C448 1.389 . S
C447 H426 0.950 . S
C447 C446 1.373 . S
C447 C463 1.377 . S
C448 C446 1.389 . S
C448 C449 1.524 . S
C448 C462 1.377 . S
C449 C448 1.524 . S
C449 C450 1.397 . S
C449 C454 1.363 . S
C450 H427 0.950 . S
C450 C449 1.397 . S
C450 C451 1.334 1_565 S
C451 H428 0.950 . S
C451 C450 1.334 1_545 S
C451 C452 1.287 . S
C452 C451 1.287 . S
C452 C453 1.524 . S
C452 H471 0.913 . S
C453 H429 0.950 . S
C453 C452 1.524 . S
C453 C454 1.415 1_545 S
C454 H430 0.950 . S
C454 C449 1.363 . S
C454 C453 1.415 1_565 S
C455 H431 0.951 . S
C455 C456 1.366 . S
C455 C457 1.388 . S
C456 C455 1.366 . S
C456 C460 1.385 . S
C457 H432 0.951 . S
C457 C455 1.388 . S
C457 C458 1.366 . S
C458 C457 1.366 . S
C458 C459 1.414 . S
C458 C461 1.499 . S
C459 H433 0.950 . S
C459 C458 1.414 . S
C459 C460 1.374 . S
C460 H434 0.950 . S
C460 C456 1.385 . S
C460 C459 1.374 . S
C461 C458 1.499 . S
C461 C462 1.373 . S
C461 C463 1.389 . S
C462 H435 0.950 . S
C462 C448 1.377 . S
C462 C461 1.373 . S
C463 C447 1.377 . S
C463 C461 1.389 . S
C463 C464 1.524 . S
C464 C463 1.524 . S
C464 C465 1.397 . S
C464 C469 1.363 . S
C465 H436 0.950 . S
C465 C464 1.397 . S
C465 C466 1.334 . S
C466 H437 0.950 . S
C466 C465 1.334 . S
C466 C467 1.287 . S
C467 C466 1.287 . S
C467 C468 1.524 . S
C467 H470 0.999 . S
C468 H438 0.950 . S
C468 C467 1.524 . S
C468 C469 1.415 . S
C469 H439 0.950 . S
C469 C464 1.363 . S
C469 C468 1.415 . S
H470 C467 0.999 . S
H471 C452 0.913 . S
H472 C490 0.951 . S
H473 C492 0.951 . S
H474 C494 0.950 . S
H475 C495 0.950 . S
H476 C497 0.950 . S
H477 C500 0.950 . S
H478 C501 0.950 1_554 S
H479 C503 0.950 . S
H480 C504 0.950 . S
H481 C505 0.951 . S
H482 C507 0.951 . S
H483 C509 0.950 . S
H484 C510 0.950 . S
H485 C512 0.950 . S
H486 C515 0.950 . S
H487 C516 0.950 . S
H488 C518 0.950 . S
H489 C519 0.950 . S
C490 H472 0.951 . S
C490 C491 1.366 . S
C490 C492 1.388 . S
C491 C490 1.366 . S
C491 C495 1.385 . S
C492 H473 0.951 . S
C492 C490 1.388 . S
C492 C493 1.366 . S
C493 C492 1.366 . S
C493 C494 1.414 . S
C493 C496 1.499 . S
C494 H474 0.950 . S
C494 C493 1.414 . S
C494 C495 1.374 . S
C495 H475 0.950 . S
C495 C491 1.385 . S
C495 C494 1.374 . S
C496 C493 1.499 . S
C496 C497 1.373 . S
C496 C498 1.389 . S
C497 H476 0.950 . S
C497 C496 1.373 . S
C497 C513 1.377 . S
C498 C496 1.389 . S
C498 C499 1.524 . S
C498 C512 1.377 . S
C499 C498 1.524 . S
C499 C500 1.397 . S
C499 C504 1.363 . S
C500 H477 0.950 . S
C500 C499 1.397 . S
C500 C501 1.334 . S
C501 H478 0.950 1_556 S
C501 C500 1.334 . S
C501 C502 1.287 . S
C502 C501 1.287 . S
C502 C503 1.524 . S
C502 H521 0.913 1_556 S
C503 H479 0.950 . S
C503 C502 1.524 . S
C503 C504 1.415 . S
C504 H480 0.950 . S
C504 C499 1.363 . S
C504 C503 1.415 . S
C505 H481 0.951 . S
C505 C506 1.366 . S
C505 C507 1.388 . S
C506 C505 1.366 . S
C506 C510 1.385 . S
C507 H482 0.951 . S
C507 C505 1.388 . S
C507 C508 1.366 . S
C508 C507 1.366 . S
C508 C509 1.414 . S
C508 C511 1.499 . S
C509 H483 0.950 . S
C509 C508 1.414 . S
C509 C510 1.374 . S
C510 H484 0.950 . S
C510 C506 1.385 . S
C510 C509 1.374 . S
C511 C508 1.499 . S
C511 C512 1.373 . S
C511 C513 1.389 . S
C512 H485 0.950 . S
C512 C498 1.377 . S
C512 C511 1.373 . S
C513 C497 1.377 . S
C513 C511 1.389 . S
C513 C514 1.524 . S
C514 C513 1.524 . S
C514 C515 1.397 . S
C514 C519 1.363 . S
C515 H486 0.950 . S
C515 C514 1.397 . S
C515 C516 1.334 . S
C516 H487 0.950 . S
C516 C515 1.334 . S
C516 C517 1.287 . S
C517 C516 1.287 . S
C517 C518 1.524 . S
C517 H520 0.999 . S
C518 H488 0.950 . S
C518 C517 1.524 . S
C518 C519 1.415 . S
C519 H489 0.950 . S
C519 C514 1.363 . S
C519 C518 1.415 . S
H520 C517 0.999 . S
H521 C502 0.913 1_554 S
H522 C540 0.951 . S
H523 C542 0.951 . S
H524 C544 0.950 . S
H525 C545 0.950 . S
H526 C547 0.950 . S
H527 C550 0.950 . S
H528 C551 0.950 . S
H529 C553 0.950 . S
H530 C554 0.950 . S
H531 C555 0.951 . S
H532 C557 0.951 . S
H533 C559 0.950 . S
H534 C560 0.950 . S
H535 C562 0.950 . S
H536 C565 0.950 . S
H537 C566 0.950 . S
H538 C568 0.950 . S
H539 C569 0.950 . S
C540 H522 0.951 . S
C540 C541 1.366 . S
C540 C542 1.388 . S
C541 C540 1.366 . S
C541 C545 1.385 . S
C542 H523 0.951 . S
C542 C540 1.388 . S
C542 C543 1.366 . S
C543 C542 1.366 . S
C543 C544 1.414 . S
C543 C546 1.499 . S
C544 H524 0.950 . S
C544 C543 1.414 . S
C544 C545 1.374 . S
C545 H525 0.950 . S
C545 C541 1.385 . S
C545 C544 1.374 . S
C546 C543 1.499 . S
C546 C547 1.373 . S
C546 C548 1.389 . S
C547 H526 0.950 . S
C547 C546 1.373 . S
C547 C563 1.377 . S
C548 C546 1.389 . S
C548 C549 1.524 . S
C548 C562 1.377 . S
C549 C548 1.524 . S
C549 C550 1.397 . S
C549 C554 1.363 . S
C550 H527 0.950 . S
C550 C549 1.397 . S
C550 C551 1.334 . S
C551 H528 0.950 . S
C551 C550 1.334 . S
C551 C552 1.287 . S
C552 C551 1.287 . S
C552 C553 1.524 . S
C552 H571 0.913 . S
C553 H529 0.950 . S
C553 C552 1.524 . S
C553 C554 1.415 . S
C554 H530 0.950 . S
C554 C549 1.363 . S
C554 C553 1.415 . S
C555 H531 0.951 . S
C555 C556 1.366 . S
C555 C557 1.388 . S
C556 C555 1.366 . S
C556 C560 1.385 . S
C557 H532 0.951 . S
C557 C555 1.388 . S
C557 C558 1.366 . S
C558 C557 1.366 . S
C558 C559 1.414 . S
C558 C561 1.499 . S
C559 H533 0.950 . S
C559 C558 1.414 . S
C559 C560 1.374 . S
C560 H534 0.950 . S
C560 C556 1.385 . S
C560 C559 1.374 . S
C561 C558 1.499 . S
C561 C562 1.373 . S
C561 C563 1.389 . S
C562 H535 0.950 . S
C562 C548 1.377 . S
C562 C561 1.373 . S
C563 C547 1.377 . S
C563 C561 1.389 . S
C563 C564 1.524 . S
C564 C563 1.524 . S
C564 C565 1.397 . S
C564 C569 1.363 . S
C565 H536 0.950 . S
C565 C564 1.397 . S
C565 C566 1.334 . S
C566 H537 0.950 . S
C566 C565 1.334 . S
C566 C567 1.287 . S
C567 C566 1.287 . S
C567 C568 1.524 . S
C567 H570 0.999 . S
C568 H538 0.950 . S
C568 C567 1.524 . S
C568 C569 1.415 . S
C569 H539 0.950 . S
C569 C564 1.363 . S
C569 C568 1.415 . S
H570 C567 0.999 . S
H571 C552 0.913 . S
H572 C590 0.951 . S
H573 C592 0.951 . S
H574 C594 0.950 . S
H575 C595 0.950 . S
H576 C597 0.950 . S
H577 C600 0.950 . S
H578 C601 0.950 . S
H579 C603 0.950 . S
H580 C604 0.950 . S
H581 C605 0.951 . S
H582 C607 0.951 . S
H583 C609 0.950 . S
H584 C610 0.950 . S
H585 C612 0.950 . S
H586 C615 0.950 . S
H587 C616 0.950 . S
H588 C618 0.950 . S
H589 C619 0.950 . S
C590 H572 0.951 . S
C590 C591 1.366 . S
C590 C592 1.388 . S
C591 C590 1.366 . S
C591 C595 1.385 . S
C592 H573 0.951 . S
C592 C590 1.388 . S
C592 C593 1.366 . S
C593 C592 1.366 . S
C593 C594 1.414 . S
C593 C596 1.499 . S
C594 H574 0.950 . S
C594 C593 1.414 . S
C594 C595 1.374 . S
C595 H575 0.950 . S
C595 C591 1.385 . S
C595 C594 1.374 . S
C596 C593 1.499 . S
C596 C597 1.373 . S
C596 C598 1.389 . S
C597 H576 0.950 . S
C597 C596 1.373 . S
C597 C613 1.377 . S
C598 C596 1.389 . S
C598 C599 1.524 . S
C598 C612 1.377 . S
C599 C598 1.524 . S
C599 C600 1.397 . S
C599 C604 1.363 . S
C600 H577 0.950 . S
C600 C599 1.397 . S
C600 C601 1.334 1_545 S
C601 H578 0.950 . S
C601 C600 1.334 1_565 S
C601 C602 1.287 . S
C602 C601 1.287 . S
C602 C603 1.524 1_565 S
C602 H621 0.913 . S
C603 H579 0.950 . S
C603 C602 1.524 1_545 S
C603 C604 1.415 . S
C604 H580 0.950 . S
C604 C599 1.363 . S
C604 C603 1.415 . S
C605 H581 0.951 . S
C605 C606 1.366 . S
C605 C607 1.388 . S
C606 C605 1.366 . S
C606 C610 1.385 . S
C607 H582 0.951 . S
C607 C605 1.388 . S
C607 C608 1.366 . S
C608 C607 1.366 . S
C608 C609 1.414 . S
C608 C611 1.499 . S
C609 H583 0.950 . S
C609 C608 1.414 . S
C609 C610 1.374 . S
C610 H584 0.950 . S
C610 C606 1.385 . S
C610 C609 1.374 . S
C611 C608 1.499 . S
C611 C612 1.373 . S
C611 C613 1.389 . S
C612 H585 0.950 . S
C612 C598 1.377 . S
C612 C611 1.373 . S
C613 C597 1.377 . S
C613 C611 1.389 . S
C613 C614 1.524 . S
C614 C613 1.524 . S
C614 C615 1.397 . S
C614 C619 1.363 . S
C615 H586 0.950 . S
C615 C614 1.397 . S
C615 C616 1.334 . S
C616 H587 0.950 . S
C616 C615 1.334 . S
C616 C617 1.287 . S
C617 C616 1.287 . S
C617 C618 1.524 . S
C617 H620 0.999 . S
C618 H588 0.950 . S
C618 C617 1.524 . S
C618 C619 1.415 . S
C619 H589 0.950 . S
C619 C614 1.363 . S
C619 C618 1.415 . S
H620 C617 0.999 . S
H621 C602 0.913 . S
H622 C640 0.951 . S
H623 C642 0.951 . S
H624 C644 0.950 . S
H625 C645 0.950 1_545 S
H626 C647 0.950 . S
H627 C650 0.950 . S
H628 C651 0.950 . S
H629 C653 0.950 . S
H630 C654 0.950 . S
H631 C655 0.951 . S
H632 C657 0.951 . S
H633 C659 0.950 . S
H634 C660 0.950 . S
H635 C662 0.950 . S
H636 C665 0.950 . S
H637 C666 0.950 . S
H638 C668 0.950 . S
H639 C669 0.950 . S
C640 H622 0.951 . S
C640 C641 1.366 . S
C640 C642 1.388 . S
C641 C640 1.366 . S
C641 C645 1.385 . S
C642 H623 0.951 . S
C642 C640 1.388 . S
C642 C643 1.366 . S
C643 C642 1.366 . S
C643 C644 1.414 . S
C643 C646 1.499 . S
C644 H624 0.950 . S
C644 C643 1.414 . S
C644 C645 1.374 . S
C645 H625 0.950 1_565 S
C645 C641 1.385 . S
C645 C644 1.374 . S
C646 C643 1.499 . S
C646 C647 1.373 . S
C646 C648 1.389 . S
C647 H626 0.950 . S
C647 C646 1.373 . S
C647 C663 1.377 . S
C648 C646 1.389 . S
C648 C649 1.524 . S
C648 C662 1.377 . S
C649 C648 1.524 . S
C649 C650 1.397 . S
C649 C654 1.363 . S
C650 H627 0.950 . S
C650 C649 1.397 . S
C650 C651 1.334 . S
C651 H628 0.950 . S
C651 C650 1.334 . S
C651 C652 1.287 . S
C652 C651 1.287 . S
C652 C653 1.524 . S
C652 H671 0.913 . S
C653 H629 0.950 . S
C653 C652 1.524 . S
C653 C654 1.415 . S
C654 H630 0.950 . S
C654 C649 1.363 . S
C654 C653 1.415 . S
C655 H631 0.951 . S
C655 C656 1.366 . S
C655 C657 1.388 . S
C656 C655 1.366 . S
C656 C660 1.385 . S
C657 H632 0.951 . S
C657 C655 1.388 . S
C657 C658 1.366 . S
C658 C657 1.366 . S
C658 C659 1.414 . S
C658 C661 1.499 . S
C659 H633 0.950 . S
C659 C658 1.414 . S
C659 C660 1.374 . S
C660 H634 0.950 . S
C660 C656 1.385 . S
C660 C659 1.374 . S
C661 C658 1.499 . S
C661 C662 1.373 . S
C661 C663 1.389 . S
C662 H635 0.950 . S
C662 C648 1.377 . S
C662 C661 1.373 . S
C663 C647 1.377 . S
C663 C661 1.389 . S
C663 C664 1.524 . S
C664 C663 1.524 . S
C664 C665 1.397 . S
C664 C669 1.363 . S
C665 H636 0.950 . S
C665 C664 1.397 . S
C665 C666 1.334 . S
C666 H637 0.950 . S
C666 C665 1.334 . S
C666 C667 1.287 . S
C667 C666 1.287 . S
C667 C668 1.524 . S
C667 H670 0.999 . S
C668 H638 0.950 . S
C668 C667 1.524 . S
C668 C669 1.415 . S
C669 H639 0.950 . S
C669 C664 1.363 . S
C669 C668 1.415 . S
H670 C667 0.999 . S
H671 C652 0.913 . S
H672 C690 0.951 . S
H673 C692 0.951 . S
H674 C694 0.950 . S
H675 C695 0.950 . S
H676 C697 0.950 . S
H677 C700 0.950 . S
H678 C701 0.950 1_554 S
H679 C703 0.950 . S
H680 C704 0.950 . S
H681 C705 0.951 . S
H682 C707 0.951 . S
H683 C709 0.950 . S
H684 C710 0.950 . S
H685 C712 0.950 . S
H686 C715 0.950 . S
H687 C716 0.950 . S
H688 C718 0.950 . S
H689 C719 0.950 . S
C690 H672 0.951 . S
C690 C691 1.366 . S
C690 C692 1.388 . S
C691 C690 1.366 . S
C691 C695 1.385 . S
C692 H673 0.951 . S
C692 C690 1.388 . S
C692 C693 1.366 . S
C693 C692 1.366 . S
C693 C694 1.414 . S
C693 C696 1.499 . S
C694 H674 0.950 . S
C694 C693 1.414 . S
C694 C695 1.374 . S
C695 H675 0.950 . S
C695 C691 1.385 . S
C695 C694 1.374 . S
C696 C693 1.499 . S
C696 C697 1.373 . S
C696 C698 1.389 . S
C697 H676 0.950 . S
C697 C696 1.373 . S
C697 C713 1.377 . S
C698 C696 1.389 . S
C698 C699 1.524 . S
C698 C712 1.377 . S
C699 C698 1.524 . S
C699 C700 1.397 . S
C699 C704 1.363 . S
C700 H677 0.950 . S
C700 C699 1.397 . S
C700 C701 1.334 . S
C701 H678 0.950 1_556 S
C701 C700 1.334 . S
C701 C702 1.287 . S
C702 C701 1.287 . S
C702 C703 1.524 . S
C702 H721 0.913 1_556 S
C703 H679 0.950 . S
C703 C702 1.524 . S
C703 C704 1.415 . S
C704 H680 0.950 . S
C704 C699 1.363 . S
C704 C703 1.415 . S
C705 H681 0.951 . S
C705 C706 1.366 . S
C705 C707 1.388 . S
C706 C705 1.366 . S
C706 C710 1.385 . S
C707 H682 0.951 . S
C707 C705 1.388 . S
C707 C708 1.366 . S
C708 C707 1.366 . S
C708 C709 1.414 . S
C708 C711 1.499 . S
C709 H683 0.950 . S
C709 C708 1.414 . S
C709 C710 1.374 . S
C710 H684 0.950 . S
C710 C706 1.385 . S
C710 C709 1.374 . S
C711 C708 1.499 . S
C711 C712 1.373 . S
C711 C713 1.389 . S
C712 H685 0.950 . S
C712 C698 1.377 . S
C712 C711 1.373 . S
C713 C697 1.377 . S
C713 C711 1.389 . S
C713 C714 1.524 . S
C714 C713 1.524 . S
C714 C715 1.397 . S
C714 C719 1.363 . S
C715 H686 0.950 . S
C715 C714 1.397 . S
C715 C716 1.334 . S
C716 H687 0.950 . S
C716 C715 1.334 . S
C716 C717 1.287 . S
C717 C716 1.287 . S
C717 C718 1.524 . S
C717 H720 0.999 . S
C718 H688 0.950 . S
C718 C717 1.524 . S
C718 C719 1.415 . S
C719 H689 0.950 . S
C719 C714 1.363 . S
C719 C718 1.415 . S
H720 C717 0.999 . S
H721 C702 0.913 1_554 S
C141 C19 1.881 . S
C156 C99 1.811 . S
C191 C59 1.118 . S
C206 C105 1.048 . S
C241 C6 0.758 . S
C256 C96 0.755 . S
C291 C46 1.265 . S
C306 C121 1.161 . S
C341 C9 2.105 . S
C356 C87 1.993 . S
C406 C104 2.291 . S
C391 C49 2.371 . S
C441 C55 1.172 . S
C456 C100 1.095 . S
C506 C117 1.791 . S
C491 C18 1.866 . S
C556 C84 2.129 . S
C541 C58 2.230 . S
C606 C120 1.987 . S
C591 C10 2.052 . S
C656 C83 1.252 . S
C641 C50 1.324 . S
C706 C108 0.753 . S
C691 C15 0.757 . S
