# Generated by pormake.
# Topology nia, (6,6)-cn, num edge types: 1
# Building blocks:
#     Node 0, Type 0, BuildingBlock: INOVEN_clean_sbu_0, # of connection points: 6
#     Node 1, Type 0, BuildingBlock: INOVEN_clean_sbu_0, # of connection points: 6
#     Node 2, Type 1, BuildingBlock: MIDCAF_clean_sbu_0, # of connection points: 6
#     Node 3, Type 1, BuildingBlock: MIDCAF_clean_sbu_0, # of connection points: 6
#     Edge 4, Type (0, 1), BuildingBlock: ZUJKAS_clean_linker_0, # of connection points: 2
#     Edge 5, Type (0, 1), BuildingBlock: ZUJKAS_clean_linker_0, # of connection points: 2
#     Edge 6, Type (0, 1), BuildingBlock: ZUJKAS_clean_linker_0, # of connection points: 2
#     Edge 7, Type (0, 1), BuildingBlock: ZUJKAS_clean_linker_0, # of connection points: 2
#     Edge 8, Type (0, 1), BuildingBlock: ZUJKAS_clean_linker_0, # of connection points: 2
#     Edge 9, Type (0, 1), BuildingBlock: ZUJKAS_clean_linker_0, # of connection points: 2
#     Edge 10, Type (0, 1), BuildingBlock: ZUJKAS_clean_linker_0, # of connection points: 2
#     Edge 11, Type (0, 1), BuildingBlock: ZUJKAS_clean_linker_0, # of connection points: 2
#     Edge 12, Type (0, 1), BuildingBlock: ZUJKAS_clean_linker_0, # of connection points: 2
#     Edge 13, Type (0, 1), BuildingBlock: ZUJKAS_clean_linker_0, # of connection points: 2
#     Edge 14, Type (0, 1), BuildingBlock: ZUJKAS_clean_linker_0, # of connection points: 2
#     Edge 15, Type (0, 1), BuildingBlock: ZUJKAS_clean_linker_0, # of connection points: 2
# Relax obj value: 0.292
# Max RMSD: 0.261
# Mean RMSD: 0.241
data_MOF--net-nia--node1-INOVEN_clean_sbu_0--node2-MIDCAF_clean_sbu_0--edge1-ZUJKAS_clean_linker_0
_symmetry_space_group_name_H-M    P1
_symmetry_Int_Tables_number       1
_symmetry_cell_setting            triclinic
loop_
_symmetry_equiv_pos_as_xyz
'x, y, z'
_cell_length_a     31.998563
_cell_length_b     35.094803
_cell_length_c     42.903181
_cell_angle_alpha  75.34473
_cell_angle_beta   98.892873
_cell_angle_gamma 126.98305
loop_
_atom_site_label
_atom_site_type_symbol
_atom_site_fract_x
_atom_site_fract_y
_atom_site_fract_z
_atom_type_partial_charge
Gd0 Gd 0.07028 0.05262 0.02522 0.0
Gd1 Gd 0.98128 0.95222 0.99959 0.0
C2 C 0.98102 0.04737 0.97456 0.0
C3 C 0.15299 0.1367 0.03205 0.0
C4 C 0.16314 0.17367 0.04814 0.0
C5 C 0.13331 0.15995 0.07492 0.0
C6 C 0.2017 0.22302 0.03628 0.0
C7 C 0.18143 0.24476 0.07842 0.0
C8 C 0.21082 0.25839 0.0513 0.0
C9 C 0.14248 0.19516 0.08998 0.0
C10 C 0.9795 0.99709 0.06015 0.0
C11 C 0.06983 0.95642 0.05042 0.0
C12 C 0.90055 0.86732 0.99262 0.0
C13 C 0.89707 0.83071 0.97979 0.0
C14 C 0.94184 0.84278 0.96644 0.0
C15 C 0.85003 0.78433 0.98041 0.0
C16 C 0.89255 0.76316 0.95306 0.0
C17 C 0.84776 0.75057 0.96714 0.0
C18 C 0.93956 0.80958 0.95295 0.0
C19 C 0.07268 0.00905 0.96472 0.0
O20 O 0.02938 0.0754 0.98564 0.0
O21 O 0.95294 -0.00089 0.98095 0.0
O22 O 0.14152 0.09591 0.05114 0.0
O23 O 0.12307 0.1301 1.00637 0.0
O24 O 0.0207 0.03864 0.06573 0.0
O25 O 0.99042 0.98878 0.03696 0.0
O26 O 0.02244 0.92875 0.03812 0.0
O27 O 0.0974 0.00463 0.04513 0.0
O28 O 0.91406 0.90721 0.97139 0.0
O29 O 0.92602 0.87578 0.02 0.0
O30 O 0.03176 0.9678 0.9587 0.0
O31 O 0.061 0.01624 0.98809 0.0
H32 H 0.10309 0.12198 0.08433 0.0
H33 H 0.22461 0.23416 0.01539 0.0
H34 H 0.24058 0.29639 0.04155 0.0
H35 H 0.11965 0.18345 0.11103 0.0
H36 H 0.97863 0.87812 0.96618 0.0
H37 H 0.81525 0.7744 0.99096 0.0
H38 H 0.81115 0.71475 0.96788 0.0
H39 H 0.97449 0.82069 0.94186 0.0
Gd40 Gd 0.0092 0.0275 0.52585 0.0
Gd41 Gd 0.05351 0.9855 0.49765 0.0
C42 C 0.94 0.96052 0.47456 0.0
C43 C 0.99114 0.08599 0.53566 0.0
C44 C 0.95781 0.08648 0.55512 0.0
C45 C 0.93577 0.05291 0.58417 0.0
C46 C 0.94747 0.1211 0.54397 0.0
C47 C 0.89458 0.09005 0.59131 0.0
C48 C 0.91609 0.1229 0.56187 0.0
C49 C 0.90448 0.05484 0.60226 0.0
C50 C 0.97152 0.93572 0.56134 0.0
C51 C 0.11544 0.04113 0.55414 0.0
C52 C 0.07447 0.9373 0.47502 0.0
C53 C 0.11842 0.94404 0.46101 0.0
C54 C 0.1229 0.95367 0.4274 0.0
C55 C 0.15325 0.93658 0.48078 0.0
C56 C 0.1935 0.94462 0.43354 0.0
C57 C 0.19052 0.93697 0.46716 0.0
C58 C 0.16011 0.95413 0.41383 0.0
C59 C 0.09573 0.08174 0.47291 0.0
O60 O 0.95025 0.99583 0.48725 0.0
O61 O 0.97041 0.9458 0.47953 0.0
O62 O 0.02785 0.08246 0.55078 0.0
O63 O 0.96708 0.05955 0.51362 0.0
O64 O 0.96016 0.96319 0.56693 0.0
O65 O 1.00168 0.95889 0.53746 0.0
O66 O 0.10178 0.00393 0.54222 0.0
O67 O 0.0915 0.06248 0.5453 0.0
O68 O 0.055 0.9597 0.4575 0.0
O69 O 0.07674 0.93722 0.50581 0.0
O70 O 0.12153 0.06314 0.47732 0.0
O71 O 0.04858 0.04792 0.48028 0.0
H72 H 0.94302 0.02557 0.59292 0.0
H73 H 0.96414 0.14713 0.52151 0.0
H74 H 0.90988 0.15092 0.55307 0.0
H75 H 0.88813 0.02894 0.62478 0.0
H76 H 0.09626 0.95898 0.41151 0.0
H77 H 0.15066 0.92882 0.50678 0.0
H78 H 0.21592 0.92981 0.48297 0.0
H79 H 0.16063 0.95922 0.38788 0.0
Zn80 Zn 0.39489 0.74577 0.16317 0.0
Zn81 Zn 0.36547 0.65074 0.31395 0.0
Zn82 Zn 0.37386 0.68011 0.25216 0.0
C83 C 0.47211 0.70891 0.29749 0.0
C84 C 0.30725 0.56569 0.2933 0.0
O85 O 0.33566 0.7195 0.23559 0.0
O86 O 0.35579 0.76173 0.18427 0.0
C87 C 0.48406 0.75019 0.20811 0.0
O88 O 0.45426 0.71515 0.26918 0.0
O89 O 0.4412 0.68011 0.32085 0.0
O90 O 0.31671 0.57985 0.31937 0.0
O91 O 0.32588 0.59734 0.2667 0.0
O92 O 0.46526 0.76153 0.18213 0.0
O93 O 0.45623 0.72214 0.23393 0.0
O94 O 0.3607 0.67967 0.20525 0.0
O95 O 0.34643 0.67607 0.15487 0.0
C96 C 0.33983 0.654 0.18398 0.0
O97 O 0.34764 0.71537 0.27085 0.0
O98 O 0.34016 0.68588 0.32325 0.0
C99 C 0.33304 0.7483 0.21077 0.0
C100 C 0.3371 0.71347 0.29917 0.0
Zn101 Zn 0.67128 0.28788 0.86023 0.0
Zn102 Zn 0.67981 0.34022 0.71313 0.0
Zn103 Zn 0.68016 0.32654 0.77554 0.0
C104 C 0.73699 0.43379 0.72493 0.0
C105 C 0.57558 0.27817 0.73485 0.0
O106 O 0.71478 0.28518 0.79551 0.0
O107 O 0.69591 0.25267 0.84804 0.0
C108 C 0.74164 0.38077 0.83681 0.0
O109 O 0.72776 0.40897 0.7542 0.0
O110 O 0.71844 0.41144 0.70191 0.0
O111 O 0.60247 0.29707 0.70959 0.0
O112 O 0.59765 0.28662 0.76242 0.0
O113 O 0.72883 0.35635 0.86527 0.0
O114 O 0.71801 0.35989 0.81334 0.0
O115 O 0.59887 0.28882 0.79443 0.0
O116 O 0.59944 0.27101 0.84848 0.0
C117 C 0.576 0.2724 0.82203 0.0
O118 O 0.70892 0.29042 0.76134 0.0
O119 O 0.71593 0.31218 0.70825 0.0
C120 C 0.71579 0.2585 0.82233 0.0
C121 C 0.72158 0.28976 0.73459 0.0
H122 H 0.16662 -0.00065 0.07962 0.0
H123 H 0.2047 0.95964 0.11313 0.0
H124 H 0.06377 0.81915 0.10274 0.0
H125 H 0.02582 0.8585 0.06863 0.0
H126 H 0.17586 0.89549 0.17025 0.0
H127 H 0.17172 0.8092 0.0768 0.0
H128 H 0.15988 0.85503 0.06746 0.0
H129 H 0.10874 0.79285 0.08445 0.0
C130 C 0.1437 0.95999 0.08426 0.0
C131 C 0.09317 0.93229 0.07104 0.0
C132 C 0.16556 0.93727 0.10358 0.0
C133 C 0.13763 0.88631 0.11012 0.0
C134 C 0.0868 0.85853 0.09748 0.0
H135 H 0.22668 0.69405 0.21252 0.0
H136 H 0.17413 0.72522 0.19254 0.0
C137 C 0.06497 0.88119 0.07805 0.0
C138 C 0.16171 0.86244 0.13019 0.0
H139 H 0.19616 0.78733 0.12939 0.0
C140 C 0.18024 0.87184 0.16127 0.0
C141 C 0.16759 0.83145 0.11864 0.0
C142 C 0.15143 0.82184 0.08492 0.0
C143 C 0.20423 0.85116 0.18098 0.0
C144 C 0.21024 0.82043 0.16933 0.0
C145 C 0.19106 0.81045 0.1385 0.0
C146 C 0.23983 0.8012 0.18747 0.0
C147 C 0.22277 0.86211 0.21421 0.0
C148 C 0.29398 0.83336 0.19222 0.0
C149 C 0.32392 0.81557 0.20342 0.0
C150 C 0.30034 0.76523 0.21074 0.0
C151 C 0.24568 0.73292 0.20813 0.0
C152 C 0.21574 0.75076 0.19632 0.0
H153 H 0.20398 0.87593 0.22264 0.0
H154 H 0.21454 0.82912 0.23184 0.0
H155 H 0.26571 0.89044 0.21371 0.0
H156 H 0.31373 0.87235 0.18508 0.0
H157 H 0.36611 0.84131 0.20428 0.0
H158 H 0.15574 0.11772 0.58341 0.0
H159 H 0.2275 0.14808 0.62243 0.0
H160 H 0.24389 0.03617 0.61829 0.0
H161 H 0.17269 0.00584 0.57898 0.0
H162 H 0.23935 0.09929 0.68411 0.0
H163 H 0.39034 0.16409 0.59578 0.0
H164 H 0.32609 0.14845 0.58363 0.0
H165 H 0.33515 0.10132 0.59941 0.0
C166 C 0.1746 0.09954 0.59073 0.0
C167 C 0.15874 0.05958 0.57784 0.0
C168 C 0.21539 0.1168 0.61316 0.0
C169 C 0.24112 0.09456 0.62302 0.0
C170 C 0.22487 0.05418 0.61067 0.0
H171 H 0.52823 0.18654 0.72881 0.0
H172 H 0.43958 0.13323 0.70847 0.0
C173 C 0.18416 0.03692 0.5882 0.0
C174 C 0.28621 0.11477 0.64534 0.0
H175 H 0.41792 0.17147 0.64937 0.0
C176 C 0.27843 0.11497 0.67664 0.0
C177 C 0.33702 0.13518 0.63541 0.0
C178 C 0.348 0.13775 0.60167 0.0
C179 C 0.32039 0.13501 0.69837 0.0
C180 C 0.37119 0.15585 0.68826 0.0
C181 C 0.37874 0.15509 0.65711 0.0
C182 C 0.41806 0.18102 0.70865 0.0
C183 C 0.31016 0.13346 0.73198 0.0
C184 C 0.43433 0.22439 0.71693 0.0
C185 C 0.48491 0.25469 0.72878 0.0
C186 C 0.51933 0.24172 0.73232 0.0
C187 C 0.50173 0.19668 0.72651 0.0
C188 C 0.45133 0.16641 0.71483 0.0
H189 H 0.26839 0.1052 0.73876 0.0
H190 H 0.33477 0.12613 0.7499 0.0
H191 H 0.32016 0.1693 0.7332 0.0
H192 H 0.40957 0.23669 0.71183 0.0
H193 H 0.49836 0.28973 0.73276 0.0
H194 H 0.27651 0.32444 0.09192 0.0
H195 H 0.29407 0.38515 0.12015 0.0
H196 H 0.12849 0.30933 0.13174 0.0
H197 H 0.1103 0.24887 0.1028 0.0
H198 H 0.24799 0.441 0.09906 0.0
H199 H 0.20082 0.33318 0.22496 0.0
H200 H 0.21938 0.31855 0.19451 0.0
H201 H 0.15573 0.30541 0.19327 0.0
C202 C 0.24378 0.32084 0.10023 0.0
C203 C 0.19203 0.28187 0.09515 0.0
C204 C 0.25391 0.35521 0.11662 0.0
C205 C 0.21254 0.35099 0.12841 0.0
C206 C 0.16083 0.31241 0.12334 0.0
H207 H 0.23638 0.58402 0.18026 0.0
H208 H 0.19729 0.50032 0.17581 0.0
C209 C 0.15061 0.27805 0.10681 0.0
C210 C 0.22386 0.38911 0.14403 0.0
H211 H 0.22832 0.41442 0.21684 0.0
C212 C 0.24339 0.43518 0.12474 0.0
C213 C 0.21777 0.38101 0.17754 0.0
C214 C 0.19751 0.33198 0.19901 0.0
C215 C 0.25765 0.47384 0.13817 0.0
C216 C 0.25215 0.466 0.17172 0.0
C217 C 0.23211 0.41985 0.19111 0.0
C218 C 0.26941 0.50686 0.18639 0.0
C219 C 0.27965 0.52327 0.11656 0.0
C220 C 0.32186 0.53652 0.19585 0.0
C221 C 0.34395 0.58395 0.19864 0.0
C222 C 0.31362 0.60168 0.19184 0.0
C223 C 0.26 0.57046 0.18572 0.0
C224 C 0.23774 0.52285 0.18333 0.0
H225 H 0.28202 0.52325 0.091 0.0
H226 H 0.25471 0.53504 0.11782 0.0
H227 H 0.31945 0.55059 0.1249 0.0
H228 H 0.34682 0.52474 0.19789 0.0
H229 H 0.38563 0.60808 0.20301 0.0
H230 H 0.90477 0.08866 0.65577 0.0
H231 H 0.8664 0.11005 0.68681 0.0
H232 H 0.78003 0.12524 0.60288 0.0
H233 H 0.81859 0.1041 0.5716 0.0
H234 H 0.83847 0.20575 0.62836 0.0
H235 H 0.72386 0.04372 0.72484 0.0
H236 H 0.78946 0.06243 0.72241 0.0
H237 H 0.74509 0.04136 0.68919 0.0
C238 C 0.87643 0.09515 0.64419 0.0
C239 C 0.86489 0.09503 0.61124 0.0
C240 C 0.85443 0.10726 0.66198 0.0
C241 C 0.8201 0.1189 0.64722 0.0
C242 C 0.80644 0.11635 0.61472 0.0
H243 H 0.65834 0.19572 0.73016 0.0
H244 H 0.68393 0.15078 0.71325 0.0
C245 C 0.8286 0.10447 0.59688 0.0
C246 C 0.80379 0.13953 0.66446 0.0
H247 H 0.74573 0.11894 0.73316 0.0
C248 C 0.81788 0.18662 0.65118 0.0
C249 C 0.7765 0.11433 0.69403 0.0
C250 C 0.75735 0.06246 0.70831 0.0
C251 C 0.80613 0.20958 0.66685 0.0
C252 C 0.78124 0.18541 0.69725 0.0
C253 C 0.76611 0.13787 0.71028 0.0
C254 C 0.76706 0.20782 0.71435 0.0
C255 C 0.81933 0.25901 0.65021 0.0
C256 C 0.80547 0.25353 0.72232 0.0
C257 C 0.79079 0.27938 0.73154 0.0
C258 C 0.73771 0.25905 0.73371 0.0
C259 C 0.69953 0.2116 0.7288 0.0
C260 C 0.71411 0.18605 0.71916 0.0
H261 H 0.82566 0.26655 0.62395 0.0
H262 H 0.7877 0.26196 0.65351 0.0
H263 H 0.85592 0.28759 0.66067 0.0
H264 H 0.84659 0.27046 0.7194 0.0
H265 H 0.82063 0.31615 0.73516 0.0
H266 H 0.88791 0.90924 0.05104 0.0
H267 H 0.80498 0.86239 0.08054 0.0
H268 H 0.87494 0.97153 0.13823 0.0
H269 H 0.95731 0.01796 0.1092 0.0
H270 H 0.78684 0.82724 0.15265 0.0
H271 H 0.74005 0.95881 0.09737 0.0
H272 H 0.78561 0.95628 0.07941 0.0
H273 H 0.80504 0.98455 0.11353 0.0
C274 C 0.88554 0.92299 0.07011 0.0
C275 C 0.92913 0.96731 0.07775 0.0
C276 C 0.83821 0.89625 0.08696 0.0
C277 C 0.83356 0.91369 0.11142 0.0
C278 C 0.87732 0.95759 0.11925 0.0
H279 H 0.57366 0.8371 0.21764 0.0
H280 H 0.66124 0.87385 0.19867 0.0
C281 C 0.92446 0.98405 0.10263 0.0
C282 C 0.78309 0.88681 0.12865 0.0
H283 H 0.68639 0.89601 0.14011 0.0
C284 C 0.76463 0.84205 0.14986 0.0
C285 C 0.75446 0.90641 0.1253 0.0
C286 C 0.77189 0.95398 0.10252 0.0
C287 C 0.71897 0.81691 0.16831 0.0
C288 C 0.68987 0.83628 0.16477 0.0
C289 C 0.70846 0.88101 0.14327 0.0
C290 C 0.63932 0.81062 0.18204 0.0
C291 C 0.70365 0.77071 0.19214 0.0
C292 C 0.59772 0.76213 0.18033 0.0
C293 C 0.54819 0.74052 0.19248 0.0
C294 C 0.53869 0.76706 0.20612 0.0
C295 C 0.58038 0.81502 0.20865 0.0
C296 C 0.63028 0.83632 0.19719 0.0
H297 H 0.73825 0.77055 0.20027 0.0
H298 H 0.68425 0.76578 0.21363 0.0
H299 H 0.67622 0.73912 0.18034 0.0
H300 H 0.60245 0.74178 0.16781 0.0
H301 H 0.51619 0.70423 0.18894 0.0
H302 H 0.97834 0.86643 0.54803 0.0
H303 H 0.9417 0.78353 0.57962 0.0
H304 H 0.88512 0.81067 0.65024 0.0
H305 H 0.9196 0.89212 0.61827 0.0
H306 H 0.95926 0.748 0.63813 0.0
H307 H 0.75379 0.68538 0.63659 0.0
H308 H 0.80346 0.74183 0.61184 0.0
H309 H 0.79728 0.7386 0.65363 0.0
C310 C 0.95782 0.8545 0.57021 0.0
C311 C 0.95146 0.8858 0.58043 0.0
C312 C 0.93684 0.80703 0.58834 0.0
C313 C 0.90912 0.78975 0.61715 0.0
C314 C 0.90439 0.82182 0.62769 0.0
H315 H 0.7466 0.5024 0.75349 0.0
H316 H 0.79204 0.59035 0.7309 0.0
C317 C 0.92468 0.86883 0.60946 0.0
C318 C 0.88619 0.73884 0.63644 0.0
H319 H 0.77317 0.63353 0.67157 0.0
C320 C 0.9185 0.72308 0.64529 0.0
C321 C 0.83294 0.70576 0.64626 0.0
C322 C 0.79474 0.71853 0.63633 0.0
C323 C 0.8995 0.67599 0.66352 0.0
C324 C 0.84622 0.64279 0.67308 0.0
C325 C 0.81406 0.65874 0.6647 0.0
C326 C 0.82217 0.59029 0.68905 0.0
C327 C 0.93712 0.66248 0.67263 0.0
C328 C 0.82396 0.56061 0.67352 0.0
C329 C 0.79882 0.51091 0.68659 0.0
C330 C 0.7704 0.48853 0.71566 0.0
C331 C 0.76924 0.51828 0.73172 0.0
C332 C 0.79467 0.56857 0.71847 0.0
H333 H 0.97811 0.69527 0.67334 0.0
H334 H 0.92738 0.63736 0.69648 0.0
H335 H 0.93504 0.64405 0.65429 0.0
H336 H 0.84344 0.57552 0.65051 0.0
H337 H 0.80035 0.48943 0.67319 0.0
H338 H 0.25236 -0.00246 0.3784 0.0
H339 H 0.28905 0.97276 0.34863 0.0
H340 H 0.24479 0.84907 0.42569 0.0
H341 H 0.20709 0.87267 0.45523 0.0
H342 H 0.36258 0.92943 0.37701 0.0
H343 H 0.15945 0.81281 0.33071 0.0
H344 H 0.18481 0.86961 0.3417 0.0
H345 H 0.16814 0.81728 0.37248 0.0
C346 C 0.25134 0.96557 0.38925 0.0
C347 C 0.2262 0.9367 0.41897 0.0
C348 C 0.27259 0.95172 0.37232 0.0
C349 C 0.26914 0.90901 0.38498 0.0
C350 C 0.24782 0.88226 0.41568 0.0
H351 H 0.27306 0.69169 0.34526 0.0
H352 H 0.25918 0.746 0.36005 0.0
C353 C 0.22653 0.89597 0.43258 0.0
C354 C 0.28083 0.88828 0.36471 0.0
H355 H 0.21946 0.79903 0.32095 0.0
C356 C 0.33173 0.90161 0.36416 0.0
C357 C 0.24023 0.85211 0.3481 0.0
C358 C 0.18499 0.83701 0.34798 0.0
C359 C 0.34251 0.8776 0.34864 0.0
C360 C 0.30128 0.83982 0.33324 0.0
C361 C 0.25096 0.82824 0.33259 0.0
C362 C 0.30762 0.8071 0.32198 0.0
C363 C 0.39704 0.89067 0.35039 0.0
C364 C 0.33839 0.8232 0.29509 0.0
C365 C 0.34627 0.79198 0.2865 0.0
C366 C 0.3233 0.74444 0.30465 0.0
C367 C 0.29115 0.72814 0.33082 0.0
C368 C 0.28321 0.7591 0.3393 0.0
H369 H 0.42345 0.91783 0.36577 0.0
H370 H 0.39584 0.85754 0.3601 0.0
H371 H 0.41383 0.90609 0.3258 0.0
H372 H 0.35715 0.86007 0.28128 0.0
H373 H 0.37219 0.8057 0.2667 0.0
H374 H 0.09914 0.98833 0.91748 0.0
H375 H 0.18258 0.03681 0.88928 0.0
H376 H 0.24372 0.14879 0.94335 0.0
H377 H 0.1606 0.09922 0.97255 0.0
H378 H 0.23559 0.12282 0.85039 0.0
H379 H 0.35723 0.13065 0.95897 0.0
H380 H 0.28677 0.09166 0.96039 0.0
H381 H 0.32254 0.15543 0.96065 0.0
C382 C 0.13047 0.02322 0.92348 0.0
C383 C 0.1234 0.03984 0.94741 0.0
C384 C 0.1782 0.05103 0.90723 0.0
C385 C 0.22017 0.09626 0.91444 0.0
C386 C 0.21269 0.11349 0.93786 0.0
H387 H 0.54224 0.30817 0.85167 0.0
H388 H 0.45348 0.26742 0.87004 0.0
C389 C 0.16498 0.08535 0.9544 0.0
C390 C 0.27138 0.12498 0.8974 0.0
H391 H 0.40245 0.17995 0.90997 0.0
C392 C 0.27206 0.13523 0.86346 0.0
C393 C 0.31919 0.14096 0.91426 0.0
C394 C 0.32149 0.12871 0.95055 0.0
C395 C 0.31898 0.16168 0.84609 0.0
C396 C 0.36675 0.1782 0.86301 0.0
C397 C 0.36601 0.16777 0.89688 0.0
C398 C 0.41832 0.20665 0.84654 0.0
C399 C 0.31704 0.17235 0.80978 0.0
C400 C 0.42825 0.18723 0.82606 0.0
C401 C 0.47928 0.21112 0.81507 0.0
C402 C 0.52111 0.25461 0.82454 0.0
C403 C 0.51055 0.27513 0.84355 0.0
C404 C 0.45984 0.2516 0.8543 0.0
H405 H 0.28069 0.1689 0.80066 0.0
H406 H 0.35131 0.20952 0.79963 0.0
H407 H 0.31778 0.14578 0.8008 0.0
H408 H 0.39731 0.15216 0.82019 0.0
H409 H 0.48658 0.19373 0.8013 0.0
H410 H 0.19226 0.15152 0.44569 0.0
H411 H 0.2233 0.23066 0.4105 0.0
H412 H 0.07376 0.20219 0.41832 0.0
H413 H 0.04263 0.12297 0.45382 0.0
H414 H 0.18599 0.25304 0.35115 0.0
H415 H 0.17428 0.33692 0.43997 0.0
H416 H 0.17028 0.28167 0.45166 0.0
H417 H 0.11426 0.27986 0.43459 0.0
C418 C 0.16606 0.16223 0.44016 0.0
C419 C 0.11501 0.1309 0.45278 0.0
C420 C 0.18384 0.20753 0.41988 0.0
C421 C 0.15128 0.22305 0.4119 0.0
C422 C 0.10017 0.19176 0.4245 0.0
H423 H 0.20463 0.49704 0.30778 0.0
H424 H 0.16384 0.41118 0.33254 0.0
C425 C 0.08228 0.14629 0.44474 0.0
C426 C 0.17071 0.27151 0.39009 0.0
H427 H 0.19442 0.3815 0.38646 0.0
C428 C 0.18784 0.28115 0.35889 0.0
C429 C 0.17321 0.30843 0.39996 0.0
C430 C 0.1575 0.30156 0.43345 0.0
C431 C 0.2064 0.326 0.33725 0.0
C432 C 0.20929 0.36315 0.34721 0.0
C433 C 0.19209 0.35333 0.37846 0.0
C434 C 0.23073 0.41276 0.32626 0.0
C435 C 0.22142 0.33246 0.30368 0.0
C436 C 0.28134 0.4425 0.31295 0.0
C437 C 0.30419 0.49157 0.29787 0.0
C438 C 0.27724 0.51225 0.29599 0.0
C439 C 0.22576 0.48187 0.30779 0.0
C440 C 0.20273 0.43282 0.3225 0.0
H441 H 0.20102 0.29683 0.29651 0.0
H442 H 0.21218 0.35541 0.2857 0.0
H443 H 0.2641 0.35041 0.30299 0.0
H444 H 0.30473 0.4289 0.31615 0.0
H445 H 0.34464 0.51442 0.29029 0.0
H446 H 0.02534 0.14518 0.95318 0.0
H447 H 0.98409 0.18283 0.9208 0.0
H448 H 0.84078 0.04075 0.91768 0.0
H449 H 0.88133 0.00262 0.94986 0.0
H450 H 0.90968 0.14623 0.85268 0.0
H451 H 0.82652 0.13869 0.96093 0.0
H452 H 0.88802 0.14655 0.96277 0.0
H453 H 0.82803 0.08875 0.95907 0.0
C454 C 0.98512 0.12183 0.94552 0.0
C455 C 0.95675 0.07074 0.95432 0.0
C456 C 0.96171 0.14348 0.92688 0.0
C457 C 0.90949 0.11456 0.91674 0.0
C458 C 0.88122 0.0637 0.92513 0.0
H459 H 0.67673 0.16513 0.84986 0.0
H460 H 0.72559 0.13056 0.86827 0.0
C461 C 0.90454 0.04201 0.94365 0.0
C462 C 0.8833 0.13717 0.89894 0.0
H463 H 0.8042 0.16731 0.91043 0.0
C464 C 0.88678 0.15116 0.86519 0.0
C465 C 0.85334 0.14325 0.91535 0.0
C466 C 0.84853 0.12874 0.95155 0.0
C467 C 0.86009 0.17031 0.84738 0.0
C468 C 0.82983 0.17623 0.86385 0.0
C469 C 0.82717 0.16273 0.89768 0.0
C470 C 0.79897 0.19477 0.84697 0.0
C471 C 0.86324 0.1826 0.81111 0.0
C472 C 0.82318 0.24182 0.82754 0.0
C473 C 0.79474 0.26144 0.81643 0.0
C474 C 0.74192 0.23446 0.82494 0.0
C475 C 0.71725 0.18655 0.8427 0.0
C476 C 0.74531 0.16689 0.85344 0.0
H477 H 0.87634 0.16441 0.802 0.0
H478 H 0.82478 0.17186 0.80005 0.0
H479 H 0.89194 0.22253 0.80306 0.0
H480 H 0.86469 0.26452 0.82264 0.0
H481 H 0.81502 0.29886 0.80341 0.0
H482 H 0.89885 0.8801 0.44944 0.0
H483 H 0.82531 0.84527 0.4121 0.0
H484 H 0.80488 0.95588 0.41268 0.0
H485 H 0.87759 0.99034 0.45064 0.0
H486 H 0.71358 0.86697 0.41936 0.0
H487 H 0.82166 0.89581 0.31668 0.0
H488 H 0.83062 0.86262 0.35305 0.0
H489 H 0.85435 0.92457 0.3508 0.0
C490 C 0.8788 0.89711 0.44161 0.0
C491 C 0.89425 0.93814 0.45293 0.0
C492 C 0.8371 0.87743 0.42 0.0
C493 C 0.81057 0.89879 0.40892 0.0
C494 C 0.82526 0.9392 0.42062 0.0
H495 H 0.54564 0.80502 0.27356 0.0
H496 H 0.63396 0.85688 0.29563 0.0
C497 C 0.86671 0.95871 0.44242 0.0
C498 C 0.7657 0.87733 0.38648 0.0
H499 H 0.72777 0.83892 0.31491 0.0
C500 C 0.71691 0.86157 0.39631 0.0
C501 C 0.77019 0.87077 0.35622 0.0
C502 C 0.82217 0.88982 0.3434 0.0
C503 C 0.67206 0.83731 0.37742 0.0
C504 C 0.67609 0.82823 0.34816 0.0
C505 C 0.72503 0.84572 0.33755 0.0
C506 C 0.62876 0.7972 0.32996 0.0
C507 C 0.62018 0.82014 0.38922 0.0
C508 C 0.59812 0.74665 0.34111 0.0
C509 C 0.54827 0.71724 0.32846 0.0
C510 C 0.52851 0.73797 0.30435 0.0
C511 C 0.5607 0.7882 0.29152 0.0
C512 C 0.61076 0.81779 0.3043 0.0
H513 H 0.62483 0.83608 0.40993 0.0
H514 H 0.59928 0.82985 0.36949 0.0
H515 H 0.59535 0.77986 0.39694 0.0
H516 H 0.61158 0.73031 0.36093 0.0
H517 H 0.52399 0.67859 0.3388 0.0
H518 H 0.96543 0.74528 0.95656 0.0
H519 H 0.96527 0.69364 0.92734 0.0
H520 H 0.81548 0.6523 0.88561 0.0
H521 H 0.81557 0.70458 0.91415 0.0
H522 H 0.86311 0.58227 0.93128 0.0
H523 H 0.93172 0.70472 0.81055 0.0
H524 H 0.95305 0.72772 0.84746 0.0
H525 H 0.88791 0.7043 0.83276 0.0
C526 C 0.93265 0.72552 0.94094 0.0
C527 C 0.8906 0.72913 0.93746 0.0
C528 C 0.93276 0.69625 0.92431 0.0
C529 C 0.89098 0.67043 0.90397 0.0
C530 C 0.84848 0.67301 0.90085 0.0
H531 H 0.73142 0.45143 0.80724 0.0
H532 H 0.78975 0.53522 0.81529 0.0
C533 C 0.84825 0.70222 0.91749 0.0
C534 C 0.88925 0.63733 0.88793 0.0
H535 H 0.89591 0.62176 0.81406 0.0
C536 C 0.87144 0.59099 0.90585 0.0
C537 C 0.89988 0.64942 0.85479 0.0
C538 C 0.91946 0.69932 0.83508 0.0
C539 C 0.86059 0.55488 0.89096 0.0
C540 C 0.86981 0.56642 0.85744 0.0
C541 C 0.89006 0.61362 0.83981 0.0
C542 C 0.84935 0.52741 0.84005 0.0
C543 C 0.83536 0.50378 0.91077 0.0
C544 C 0.86616 0.49731 0.84866 0.0
C545 C 0.83226 0.44925 0.8448 0.0
C546 C 0.78283 0.43236 0.83117 0.0
C547 C 0.76981 0.46458 0.81767 0.0
C548 C 0.80315 0.5123 0.82215 0.0
H549 H 0.82361 0.49992 0.93507 0.0
H550 H 0.80001 0.477 0.89837 0.0
H551 H 0.86338 0.49431 0.91398 0.0
H552 H 0.90211 0.50889 0.86213 0.0
H553 H 0.84258 0.42433 0.85503 0.0
loop_
_geom_bond_atom_site_label_1
_geom_bond_atom_site_label_2
_geom_bond_distance
_geom_bond_site_symmetry_2
_ccdc_geom_bond_type
Gd0 C3 2.818 . S
Gd0 O20 2.377 . S
Gd0 O22 2.448 . S
Gd0 O23 2.506 . S
Gd0 O24 2.435 1_445 S
Gd0 O25 2.717 1_445 S
Gd0 O27 2.395 1_545 S
Gd0 O31 2.327 1_554 S
Gd1 C12 2.818 . S
Gd1 O21 2.395 1_565 S
Gd1 O25 2.327 1_556 S
Gd1 O26 2.377 1_656 S
Gd1 O28 2.448 . S
Gd1 O29 2.506 . S
Gd1 O30 2.435 1_665 S
Gd1 O31 2.717 1_665 S
C2 O20 1.240 1_556 S
C2 O21 1.239 1_455 S
C3 Gd0 2.818 . S
C3 C4 1.510 . S
C3 O22 1.249 . S
C3 O23 1.252 . S
C4 C3 1.510 . S
C4 C5 1.404 . S
C4 C6 1.352 . S
C5 C4 1.404 . S
C5 C9 1.389 . S
C5 H32 0.930 . S
C6 C4 1.352 . S
C6 C8 1.374 . S
C6 H33 0.931 . S
C7 C8 1.359 . S
C7 C9 1.364 . S
C8 C6 1.374 . S
C8 C7 1.359 . S
C8 H34 0.931 . S
C9 C5 1.389 . S
C9 C7 1.364 . S
C9 H35 0.931 . S
C10 O24 1.256 . S
C10 O25 1.257 . S
C11 O26 1.240 . S
C11 O27 1.240 . S
C12 Gd1 2.818 . S
C12 C13 1.510 . S
C12 O28 1.249 . S
C12 O29 1.252 . S
C13 C12 1.510 . S
C13 C14 1.404 . S
C13 C15 1.352 . S
C14 C13 1.404 . S
C14 C18 1.389 . S
C14 H36 0.930 . S
C15 C13 1.352 . S
C15 C17 1.374 . S
C15 H37 0.931 . S
C16 C17 1.359 . S
C16 C18 1.364 . S
C17 C15 1.374 . S
C17 C16 1.359 . S
C17 H38 0.931 . S
C18 C14 1.389 . S
C18 C16 1.364 . S
C18 H39 0.931 . S
C19 O30 1.256 . S
C19 O31 1.257 . S
O20 Gd0 2.377 . S
O20 C2 1.240 1_554 S
O21 Gd1 2.395 1_545 S
O21 C2 1.239 1_655 S
O22 Gd0 2.448 . S
O22 C3 1.249 . S
O23 Gd0 2.506 . S
O23 C3 1.252 . S
O24 Gd0 2.435 1_665 S
O24 C10 1.256 . S
O25 Gd0 2.717 1_665 S
O25 Gd1 2.327 1_554 S
O25 C10 1.257 . S
O26 Gd1 2.377 1_454 S
O26 C11 1.240 . S
O27 Gd0 2.395 1_565 S
O27 C11 1.240 . S
O28 Gd1 2.448 . S
O28 C12 1.249 . S
O29 Gd1 2.506 . S
O29 C12 1.252 . S
O30 Gd1 2.435 1_445 S
O30 C19 1.256 . S
O31 Gd0 2.327 1_556 S
O31 Gd1 2.717 1_445 S
O31 C19 1.257 . S
H32 C5 0.930 . S
H33 C6 0.931 . S
H34 C8 0.931 . S
H35 C9 0.931 . S
H36 C14 0.930 . S
H37 C15 0.931 . S
H38 C17 0.931 . S
H39 C18 0.931 . S
Gd40 C43 2.818 1_455 S
Gd40 O60 2.377 1_445 S
Gd40 O62 2.448 1_455 S
Gd40 O63 2.506 1_455 S
Gd40 O64 2.435 1_445 S
Gd40 O65 2.717 1_545 S
Gd40 O67 2.395 . S
Gd40 O71 2.327 . S
Gd41 C52 2.818 . S
Gd41 O61 2.395 1_455 S
Gd41 O65 2.327 . S
Gd41 O66 2.377 1_565 S
Gd41 O68 2.448 1_565 S
Gd41 O69 2.506 . S
Gd41 O70 2.435 1_565 S
Gd41 O71 2.717 1_565 S
C42 O60 1.240 . S
C42 O61 1.240 . S
C43 Gd40 2.818 1_655 S
C43 C44 1.510 . S
C43 O62 1.249 . S
C43 O63 1.252 . S
C44 C43 1.510 . S
C44 C45 1.404 . S
C44 C46 1.352 . S
C45 C44 1.404 . S
C45 C49 1.389 . S
C45 H72 0.930 . S
C46 C44 1.352 . S
C46 C48 1.374 . S
C46 H73 0.931 . S
C47 C48 1.359 . S
C47 C49 1.364 . S
C48 C46 1.374 . S
C48 C47 1.359 . S
C48 H74 0.931 . S
C49 C45 1.389 . S
C49 C47 1.364 . S
C49 H75 0.931 . S
C50 O64 1.256 . S
C50 O65 1.257 1_655 S
C51 O66 1.240 . S
C51 O67 1.240 . S
C52 Gd41 2.818 . S
C52 C53 1.510 . S
C52 O68 1.249 1_565 S
C52 O69 1.252 . S
C53 C52 1.510 . S
C53 C54 1.404 . S
C53 C55 1.352 . S
C54 C53 1.404 . S
C54 C58 1.389 . S
C54 H76 0.930 1_565 S
C55 C53 1.352 . S
C55 C57 1.374 . S
C55 H77 0.931 . S
C56 C57 1.359 . S
C56 C58 1.364 . S
C57 C55 1.374 . S
C57 C56 1.359 . S
C57 H78 0.931 . S
C58 C54 1.389 . S
C58 C56 1.364 . S
C58 H79 0.931 . S
C59 O70 1.256 . S
C59 O71 1.257 . S
O60 Gd40 2.377 1_665 S
O60 C42 1.240 . S
O61 Gd41 2.395 1_655 S
O61 C42 1.240 . S
O62 Gd40 2.448 1_655 S
O62 C43 1.249 . S
O63 Gd40 2.506 1_655 S
O63 C43 1.252 . S
O64 Gd40 2.435 1_665 S
O64 C50 1.256 . S
O65 Gd40 2.717 1_565 S
O65 Gd41 2.327 . S
O65 C50 1.257 1_455 S
O66 Gd41 2.377 1_545 S
O66 C51 1.240 . S
O67 Gd40 2.395 . S
O67 C51 1.240 . S
O68 Gd41 2.448 1_545 S
O68 C52 1.249 1_545 S
O69 Gd41 2.506 . S
O69 C52 1.252 . S
O70 Gd41 2.435 1_545 S
O70 C59 1.256 . S
O71 Gd40 2.327 . S
O71 Gd41 2.717 1_545 S
O71 C59 1.257 . S
H72 C45 0.930 . S
H73 C46 0.931 . S
H74 C48 0.931 . S
H75 C49 0.931 . S
H76 C54 0.930 1_545 S
H77 C55 0.931 . S
H78 C57 0.931 . S
H79 C58 0.931 . S
Zn80 O86 1.920 . S
Zn80 O92 1.898 . S
Zn80 O95 1.905 . S
Zn81 O89 1.905 . S
Zn81 O90 1.898 . S
Zn81 O98 1.920 . S
Zn82 O85 2.080 . S
Zn82 O88 2.114 . S
Zn82 O91 2.120 . S
Zn82 O93 2.120 . S
Zn82 O94 2.114 . S
Zn82 O97 2.080 . S
C83 O88 1.166 . S
C83 O89 1.182 . S
C84 O90 1.167 . S
C84 O91 1.299 . S
O85 Zn82 2.080 . S
O85 C99 1.305 . S
O86 Zn80 1.920 . S
O86 C99 1.234 . S
C87 O92 1.167 . S
C87 O93 1.299 . S
O88 Zn82 2.114 . S
O88 C83 1.166 . S
O89 Zn81 1.905 . S
O89 C83 1.182 . S
O90 Zn81 1.898 . S
O90 C84 1.167 . S
O91 Zn82 2.120 . S
O91 C84 1.299 . S
O92 Zn80 1.898 . S
O92 C87 1.167 . S
O93 Zn82 2.120 . S
O93 C87 1.299 . S
O94 Zn82 2.114 . S
O94 C96 1.166 . S
O95 Zn80 1.905 . S
O95 C96 1.182 . S
C96 O94 1.166 . S
C96 O95 1.182 . S
O97 Zn82 2.080 . S
O97 C100 1.305 . S
O98 Zn81 1.920 . S
O98 C100 1.234 . S
C99 O85 1.305 . S
C99 O86 1.234 . S
C100 O97 1.305 . S
C100 O98 1.234 . S
Zn101 O107 1.920 . S
Zn101 O113 1.898 . S
Zn101 O116 1.905 . S
Zn102 O110 1.905 . S
Zn102 O111 1.898 . S
Zn102 O119 1.920 . S
Zn103 O106 2.080 . S
Zn103 O109 2.114 . S
Zn103 O112 2.120 . S
Zn103 O114 2.120 . S
Zn103 O115 2.114 . S
Zn103 O118 2.080 . S
C104 O109 1.166 . S
C104 O110 1.182 . S
C105 O111 1.167 . S
C105 O112 1.299 . S
O106 Zn103 2.080 . S
O106 C120 1.305 . S
O107 Zn101 1.920 . S
O107 C120 1.234 . S
C108 O113 1.167 . S
C108 O114 1.299 . S
O109 Zn103 2.114 . S
O109 C104 1.166 . S
O110 Zn102 1.905 . S
O110 C104 1.182 . S
O111 Zn102 1.898 . S
O111 C105 1.167 . S
O112 Zn103 2.120 . S
O112 C105 1.299 . S
O113 Zn101 1.898 . S
O113 C108 1.167 . S
O114 Zn103 2.120 . S
O114 C108 1.299 . S
O115 Zn103 2.114 . S
O115 C117 1.166 . S
O116 Zn101 1.905 . S
O116 C117 1.182 . S
C117 O115 1.166 . S
C117 O116 1.182 . S
O118 Zn103 2.080 . S
O118 C121 1.305 . S
O119 Zn102 1.920 . S
O119 C121 1.234 . S
C120 O106 1.305 . S
C120 O107 1.234 . S
C121 O118 1.305 . S
C121 O119 1.234 . S
H122 C130 0.929 . S
H123 C132 0.930 . S
H124 C134 0.930 . S
H125 C137 0.929 . S
H126 C140 0.930 . S
H127 C142 0.960 . S
H128 C142 0.960 . S
H129 C142 0.960 . S
C130 H122 0.929 . S
C130 C131 1.377 . S
C130 C132 1.384 . S
C131 C130 1.377 . S
C131 C137 1.390 . S
C132 H123 0.930 . S
C132 C130 1.384 . S
C132 C133 1.372 . S
C133 C132 1.372 . S
C133 C134 1.400 . S
C133 C138 1.490 . S
C134 H124 0.930 . S
C134 C133 1.400 . S
C134 C137 1.386 . S
H135 C151 0.930 . S
H136 C152 0.931 . S
C137 H125 0.929 . S
C137 C131 1.390 . S
C137 C134 1.386 . S
C138 C133 1.490 . S
C138 C140 1.395 . S
C138 C141 1.403 . S
H139 C145 0.930 . S
C140 H126 0.930 . S
C140 C138 1.395 . S
C140 C143 1.403 . S
C141 C138 1.403 . S
C141 C142 1.524 . S
C141 C145 1.400 . S
C142 H127 0.960 . S
C142 H128 0.960 . S
C142 H129 0.960 . S
C142 C141 1.524 . S
C143 C140 1.403 . S
C143 C144 1.392 . S
C143 C147 1.495 . S
C144 C143 1.392 . S
C144 C145 1.385 . S
C144 C146 1.478 . S
C145 H139 0.930 . S
C145 C141 1.400 . S
C145 C144 1.385 . S
C146 C144 1.478 . S
C146 C148 1.381 . S
C146 C152 1.383 . S
C147 C143 1.495 . S
C147 H153 0.959 . S
C147 H154 0.961 . S
C147 H155 0.960 . S
C148 C146 1.381 . S
C148 C149 1.394 . S
C148 H156 0.930 . S
C149 C148 1.394 . S
C149 C150 1.383 . S
C149 H157 0.929 . S
C150 C149 1.383 . S
C150 C151 1.377 . S
C151 H135 0.930 . S
C151 C150 1.377 . S
C151 C152 1.379 . S
C152 H136 0.931 . S
C152 C146 1.383 . S
C152 C151 1.379 . S
H153 C147 0.959 . S
H154 C147 0.961 . S
H155 C147 0.960 . S
H156 C148 0.930 . S
H157 C149 0.929 . S
H158 C166 0.929 . S
H159 C168 0.930 . S
H160 C170 0.930 . S
H161 C173 0.929 1_565 S
H162 C176 0.930 . S
H163 C178 0.960 . S
H164 C178 0.960 . S
H165 C178 0.960 . S
C166 H158 0.929 . S
C166 C167 1.377 . S
C166 C168 1.384 . S
C167 C166 1.377 . S
C167 C173 1.390 . S
C168 H159 0.930 . S
C168 C166 1.384 . S
C168 C169 1.372 . S
C169 C168 1.372 . S
C169 C170 1.400 . S
C169 C174 1.490 . S
C170 H160 0.930 . S
C170 C169 1.400 . S
C170 C173 1.386 . S
H171 C187 0.930 . S
H172 C188 0.931 . S
C173 H161 0.929 1_545 S
C173 C167 1.390 . S
C173 C170 1.386 . S
C174 C169 1.490 . S
C174 C176 1.395 . S
C174 C177 1.403 . S
H175 C181 0.930 . S
C176 H162 0.930 . S
C176 C174 1.395 . S
C176 C179 1.403 . S
C177 C174 1.403 . S
C177 C178 1.524 . S
C177 C181 1.400 . S
C178 H163 0.960 . S
C178 H164 0.960 . S
C178 H165 0.960 . S
C178 C177 1.524 . S
C179 C176 1.403 . S
C179 C180 1.392 . S
C179 C183 1.495 . S
C180 C179 1.392 . S
C180 C181 1.385 . S
C180 C182 1.478 . S
C181 H175 0.930 . S
C181 C177 1.400 . S
C181 C180 1.385 . S
C182 C180 1.478 . S
C182 C184 1.381 . S
C182 C188 1.383 . S
C183 C179 1.495 . S
C183 H189 0.959 . S
C183 H190 0.961 . S
C183 H191 0.960 . S
C184 C182 1.381 . S
C184 C185 1.394 . S
C184 H192 0.930 . S
C185 C184 1.394 . S
C185 C186 1.383 . S
C185 H193 0.929 . S
C186 C185 1.383 . S
C186 C187 1.377 . S
C187 H171 0.930 . S
C187 C186 1.377 . S
C187 C188 1.379 . S
C188 H172 0.931 . S
C188 C182 1.383 . S
C188 C187 1.379 . S
H189 C183 0.959 . S
H190 C183 0.961 . S
H191 C183 0.960 . S
H192 C184 0.930 . S
H193 C185 0.929 . S
H194 C202 0.929 . S
H195 C204 0.930 . S
H196 C206 0.930 . S
H197 C209 0.929 . S
H198 C212 0.930 . S
H199 C214 0.960 . S
H200 C214 0.960 . S
H201 C214 0.960 . S
C202 H194 0.929 . S
C202 C203 1.377 . S
C202 C204 1.384 . S
C203 C202 1.377 . S
C203 C209 1.390 . S
C204 H195 0.930 . S
C204 C202 1.384 . S
C204 C205 1.372 . S
C205 C204 1.372 . S
C205 C206 1.400 . S
C205 C210 1.490 . S
C206 H196 0.930 . S
C206 C205 1.400 . S
C206 C209 1.386 . S
H207 C223 0.930 . S
H208 C224 0.931 . S
C209 H197 0.929 . S
C209 C203 1.390 . S
C209 C206 1.386 . S
C210 C205 1.490 . S
C210 C212 1.395 . S
C210 C213 1.403 . S
H211 C217 0.930 . S
C212 H198 0.930 . S
C212 C210 1.395 . S
C212 C215 1.403 . S
C213 C210 1.403 . S
C213 C214 1.524 . S
C213 C217 1.400 . S
C214 H199 0.960 . S
C214 H200 0.960 . S
C214 H201 0.960 . S
C214 C213 1.524 . S
C215 C212 1.403 . S
C215 C216 1.392 . S
C215 C219 1.495 . S
C216 C215 1.392 . S
C216 C217 1.385 . S
C216 C218 1.478 . S
C217 H211 0.930 . S
C217 C213 1.400 . S
C217 C216 1.385 . S
C218 C216 1.478 . S
C218 C220 1.381 . S
C218 C224 1.383 . S
C219 C215 1.495 . S
C219 H225 0.959 . S
C219 H226 0.961 . S
C219 H227 0.960 . S
C220 C218 1.381 . S
C220 C221 1.394 . S
C220 H228 0.930 . S
C221 C220 1.394 . S
C221 C222 1.383 . S
C221 H229 0.929 . S
C222 C221 1.383 . S
C222 C223 1.377 . S
C223 H207 0.930 . S
C223 C222 1.377 . S
C223 C224 1.379 . S
C224 H208 0.931 . S
C224 C218 1.383 . S
C224 C223 1.379 . S
H225 C219 0.959 . S
H226 C219 0.961 . S
H227 C219 0.960 . S
H228 C220 0.930 . S
H229 C221 0.929 . S
H230 C238 0.929 . S
H231 C240 0.930 . S
H232 C242 0.930 . S
H233 C245 0.929 . S
H234 C248 0.930 . S
H235 C250 0.960 . S
H236 C250 0.960 . S
H237 C250 0.960 . S
C238 H230 0.929 . S
C238 C239 1.377 . S
C238 C240 1.384 . S
C239 C238 1.377 . S
C239 C245 1.390 . S
C240 H231 0.930 . S
C240 C238 1.384 . S
C240 C241 1.372 . S
C241 C240 1.372 . S
C241 C242 1.400 . S
C241 C246 1.490 . S
C242 H232 0.930 . S
C242 C241 1.400 . S
C242 C245 1.386 . S
H243 C259 0.930 . S
H244 C260 0.931 . S
C245 H233 0.929 . S
C245 C239 1.390 . S
C245 C242 1.386 . S
C246 C241 1.490 . S
C246 C248 1.395 . S
C246 C249 1.403 . S
H247 C253 0.930 . S
C248 H234 0.930 . S
C248 C246 1.395 . S
C248 C251 1.403 . S
C249 C246 1.403 . S
C249 C250 1.524 . S
C249 C253 1.400 . S
C250 H235 0.960 . S
C250 H236 0.960 . S
C250 H237 0.960 . S
C250 C249 1.524 . S
C251 C248 1.403 . S
C251 C252 1.392 . S
C251 C255 1.495 . S
C252 C251 1.392 . S
C252 C253 1.385 . S
C252 C254 1.478 . S
C253 H247 0.930 . S
C253 C249 1.400 . S
C253 C252 1.385 . S
C254 C252 1.478 . S
C254 C256 1.381 . S
C254 C260 1.383 . S
C255 C251 1.495 . S
C255 H261 0.959 . S
C255 H262 0.961 . S
C255 H263 0.960 . S
C256 C254 1.381 . S
C256 C257 1.394 . S
C256 H264 0.930 . S
C257 C256 1.394 . S
C257 C258 1.383 . S
C257 H265 0.929 . S
C258 C257 1.383 . S
C258 C259 1.377 . S
C259 H243 0.930 . S
C259 C258 1.377 . S
C259 C260 1.379 . S
C260 H244 0.931 . S
C260 C254 1.383 . S
C260 C259 1.379 . S
H261 C255 0.959 . S
H262 C255 0.961 . S
H263 C255 0.960 . S
H264 C256 0.930 . S
H265 C257 0.929 . S
H266 C274 0.929 . S
H267 C276 0.930 . S
H268 C278 0.930 . S
H269 C281 0.929 . S
H270 C284 0.930 . S
H271 C286 0.960 . S
H272 C286 0.960 . S
H273 C286 0.960 . S
C274 H266 0.929 . S
C274 C275 1.377 . S
C274 C276 1.384 . S
C275 C274 1.377 . S
C275 C281 1.390 . S
C276 H267 0.930 . S
C276 C274 1.384 . S
C276 C277 1.372 . S
C277 C276 1.372 . S
C277 C278 1.400 . S
C277 C282 1.490 . S
C278 H268 0.930 . S
C278 C277 1.400 . S
C278 C281 1.386 . S
H279 C295 0.930 . S
H280 C296 0.931 . S
C281 H269 0.929 . S
C281 C275 1.390 . S
C281 C278 1.386 . S
C282 C277 1.490 . S
C282 C284 1.395 . S
C282 C285 1.403 . S
H283 C289 0.930 . S
C284 H270 0.930 . S
C284 C282 1.395 . S
C284 C287 1.403 . S
C285 C282 1.403 . S
C285 C286 1.524 . S
C285 C289 1.400 . S
C286 H271 0.960 . S
C286 H272 0.960 . S
C286 H273 0.960 . S
C286 C285 1.524 . S
C287 C284 1.403 . S
C287 C288 1.392 . S
C287 C291 1.495 . S
C288 C287 1.392 . S
C288 C289 1.385 . S
C288 C290 1.478 . S
C289 H283 0.930 . S
C289 C285 1.400 . S
C289 C288 1.385 . S
C290 C288 1.478 . S
C290 C292 1.381 . S
C290 C296 1.383 . S
C291 C287 1.495 . S
C291 H297 0.959 . S
C291 H298 0.961 . S
C291 H299 0.960 . S
C292 C290 1.381 . S
C292 C293 1.394 . S
C292 H300 0.930 . S
C293 C292 1.394 . S
C293 C294 1.383 . S
C293 H301 0.929 . S
C294 C293 1.383 . S
C294 C295 1.377 . S
C295 H279 0.930 . S
C295 C294 1.377 . S
C295 C296 1.379 . S
C296 H280 0.931 . S
C296 C290 1.383 . S
C296 C295 1.379 . S
H297 C291 0.959 . S
H298 C291 0.961 . S
H299 C291 0.960 . S
H300 C292 0.930 . S
H301 C293 0.929 . S
H302 C310 0.929 . S
H303 C312 0.930 . S
H304 C314 0.930 . S
H305 C317 0.929 . S
H306 C320 0.930 . S
H307 C322 0.960 . S
H308 C322 0.960 . S
H309 C322 0.960 . S
C310 H302 0.929 . S
C310 C311 1.377 . S
C310 C312 1.384 . S
C311 C310 1.377 . S
C311 C317 1.390 . S
C312 H303 0.930 . S
C312 C310 1.384 . S
C312 C313 1.372 . S
C313 C312 1.372 . S
C313 C314 1.400 . S
C313 C318 1.490 . S
C314 H304 0.930 . S
C314 C313 1.400 . S
C314 C317 1.386 . S
H315 C331 0.930 . S
H316 C332 0.931 . S
C317 H305 0.929 . S
C317 C311 1.390 . S
C317 C314 1.386 . S
C318 C313 1.490 . S
C318 C320 1.395 . S
C318 C321 1.403 . S
H319 C325 0.930 . S
C320 H306 0.930 . S
C320 C318 1.395 . S
C320 C323 1.403 . S
C321 C318 1.403 . S
C321 C322 1.524 . S
C321 C325 1.400 . S
C322 H307 0.960 . S
C322 H308 0.960 . S
C322 H309 0.960 . S
C322 C321 1.524 . S
C323 C320 1.403 . S
C323 C324 1.392 . S
C323 C327 1.495 . S
C324 C323 1.392 . S
C324 C325 1.385 . S
C324 C326 1.478 . S
C325 H319 0.930 . S
C325 C321 1.400 . S
C325 C324 1.385 . S
C326 C324 1.478 . S
C326 C328 1.381 . S
C326 C332 1.383 . S
C327 C323 1.495 . S
C327 H333 0.959 . S
C327 H334 0.961 . S
C327 H335 0.960 . S
C328 C326 1.381 . S
C328 C329 1.394 . S
C328 H336 0.930 . S
C329 C328 1.394 . S
C329 C330 1.383 . S
C329 H337 0.929 . S
C330 C329 1.383 . S
C330 C331 1.377 . S
C331 H315 0.930 . S
C331 C330 1.377 . S
C331 C332 1.379 . S
C332 H316 0.931 . S
C332 C326 1.383 . S
C332 C331 1.379 . S
H333 C327 0.959 . S
H334 C327 0.961 . S
H335 C327 0.960 . S
H336 C328 0.930 . S
H337 C329 0.929 . S
H338 C346 0.929 . S
H339 C348 0.930 . S
H340 C350 0.930 . S
H341 C353 0.929 . S
H342 C356 0.930 . S
H343 C358 0.960 . S
H344 C358 0.960 . S
H345 C358 0.960 . S
C346 H338 0.929 . S
C346 C347 1.377 . S
C346 C348 1.384 . S
C347 C346 1.377 . S
C347 C353 1.390 . S
C348 H339 0.930 . S
C348 C346 1.384 . S
C348 C349 1.372 . S
C349 C348 1.372 . S
C349 C350 1.400 . S
C349 C354 1.490 . S
C350 H340 0.930 . S
C350 C349 1.400 . S
C350 C353 1.386 . S
H351 C367 0.930 . S
H352 C368 0.931 . S
C353 H341 0.929 . S
C353 C347 1.390 . S
C353 C350 1.386 . S
C354 C349 1.490 . S
C354 C356 1.395 . S
C354 C357 1.403 . S
H355 C361 0.930 . S
C356 H342 0.930 . S
C356 C354 1.395 . S
C356 C359 1.403 . S
C357 C354 1.403 . S
C357 C358 1.524 . S
C357 C361 1.400 . S
C358 H343 0.960 . S
C358 H344 0.960 . S
C358 H345 0.960 . S
C358 C357 1.524 . S
C359 C356 1.403 . S
C359 C360 1.392 . S
C359 C363 1.495 . S
C360 C359 1.392 . S
C360 C361 1.385 . S
C360 C362 1.478 . S
C361 H355 0.930 . S
C361 C357 1.400 . S
C361 C360 1.385 . S
C362 C360 1.478 . S
C362 C364 1.381 . S
C362 C368 1.383 . S
C363 C359 1.495 . S
C363 H369 0.959 . S
C363 H370 0.961 . S
C363 H371 0.960 . S
C364 C362 1.381 . S
C364 C365 1.394 . S
C364 H372 0.930 . S
C365 C364 1.394 . S
C365 C366 1.383 . S
C365 H373 0.929 . S
C366 C365 1.383 . S
C366 C367 1.377 . S
C367 H351 0.930 . S
C367 C366 1.377 . S
C367 C368 1.379 . S
C368 H352 0.931 . S
C368 C362 1.383 . S
C368 C367 1.379 . S
H369 C363 0.959 . S
H370 C363 0.961 . S
H371 C363 0.960 . S
H372 C364 0.930 . S
H373 C365 0.929 . S
H374 C382 0.929 . S
H375 C384 0.930 . S
H376 C386 0.930 . S
H377 C389 0.929 . S
H378 C392 0.930 . S
H379 C394 0.960 . S
H380 C394 0.960 . S
H381 C394 0.960 . S
C382 H374 0.929 . S
C382 C383 1.377 . S
C382 C384 1.384 . S
C383 C382 1.377 . S
C383 C389 1.390 . S
C384 H375 0.930 . S
C384 C382 1.384 . S
C384 C385 1.372 . S
C385 C384 1.372 . S
C385 C386 1.400 . S
C385 C390 1.490 . S
C386 H376 0.930 . S
C386 C385 1.400 . S
C386 C389 1.386 . S
H387 C403 0.930 . S
H388 C404 0.931 . S
C389 H377 0.929 . S
C389 C383 1.390 . S
C389 C386 1.386 . S
C390 C385 1.490 . S
C390 C392 1.395 . S
C390 C393 1.403 . S
H391 C397 0.930 . S
C392 H378 0.930 . S
C392 C390 1.395 . S
C392 C395 1.403 . S
C393 C390 1.403 . S
C393 C394 1.524 . S
C393 C397 1.400 . S
C394 H379 0.960 . S
C394 H380 0.960 . S
C394 H381 0.960 . S
C394 C393 1.524 . S
C395 C392 1.403 . S
C395 C396 1.392 . S
C395 C399 1.495 . S
C396 C395 1.392 . S
C396 C397 1.385 . S
C396 C398 1.478 . S
C397 H391 0.930 . S
C397 C393 1.400 . S
C397 C396 1.385 . S
C398 C396 1.478 . S
C398 C400 1.381 . S
C398 C404 1.383 . S
C399 C395 1.495 . S
C399 H405 0.959 . S
C399 H406 0.961 . S
C399 H407 0.960 . S
C400 C398 1.381 . S
C400 C401 1.394 . S
C400 H408 0.930 . S
C401 C400 1.394 . S
C401 C402 1.383 . S
C401 H409 0.929 . S
C402 C401 1.383 . S
C402 C403 1.377 . S
C403 H387 0.930 . S
C403 C402 1.377 . S
C403 C404 1.379 . S
C404 H388 0.931 . S
C404 C398 1.383 . S
C404 C403 1.379 . S
H405 C399 0.959 . S
H406 C399 0.961 . S
H407 C399 0.960 . S
H408 C400 0.930 . S
H409 C401 0.929 . S
H410 C418 0.929 . S
H411 C420 0.930 . S
H412 C422 0.930 . S
H413 C425 0.929 . S
H414 C428 0.930 . S
H415 C430 0.960 . S
H416 C430 0.960 . S
H417 C430 0.960 . S
C418 H410 0.929 . S
C418 C419 1.377 . S
C418 C420 1.384 . S
C419 C418 1.377 . S
C419 C425 1.390 . S
C420 H411 0.930 . S
C420 C418 1.384 . S
C420 C421 1.372 . S
C421 C420 1.372 . S
C421 C422 1.400 . S
C421 C426 1.490 . S
C422 H412 0.930 . S
C422 C421 1.400 . S
C422 C425 1.386 . S
H423 C439 0.930 . S
H424 C440 0.931 . S
C425 H413 0.929 . S
C425 C419 1.390 . S
C425 C422 1.386 . S
C426 C421 1.490 . S
C426 C428 1.395 . S
C426 C429 1.403 . S
H427 C433 0.930 . S
C428 H414 0.930 . S
C428 C426 1.395 . S
C428 C431 1.403 . S
C429 C426 1.403 . S
C429 C430 1.524 . S
C429 C433 1.400 . S
C430 H415 0.960 . S
C430 H416 0.960 . S
C430 H417 0.960 . S
C430 C429 1.524 . S
C431 C428 1.403 . S
C431 C432 1.392 . S
C431 C435 1.495 . S
C432 C431 1.392 . S
C432 C433 1.385 . S
C432 C434 1.478 . S
C433 H427 0.930 . S
C433 C429 1.400 . S
C433 C432 1.385 . S
C434 C432 1.478 . S
C434 C436 1.381 . S
C434 C440 1.383 . S
C435 C431 1.495 . S
C435 H441 0.959 . S
C435 H442 0.961 . S
C435 H443 0.960 . S
C436 C434 1.381 . S
C436 C437 1.394 . S
C436 H444 0.930 . S
C437 C436 1.394 . S
C437 C438 1.383 . S
C437 H445 0.929 . S
C438 C437 1.383 . S
C438 C439 1.377 . S
C439 H423 0.930 . S
C439 C438 1.377 . S
C439 C440 1.379 . S
C440 H424 0.931 . S
C440 C434 1.383 . S
C440 C439 1.379 . S
H441 C435 0.959 . S
H442 C435 0.961 . S
H443 C435 0.960 . S
H444 C436 0.930 . S
H445 C437 0.929 . S
H446 C454 0.929 1_455 S
H447 C456 0.930 . S
H448 C458 0.930 . S
H449 C461 0.929 . S
H450 C464 0.930 . S
H451 C466 0.960 . S
H452 C466 0.960 . S
H453 C466 0.960 . S
C454 H446 0.929 1_655 S
C454 C455 1.377 . S
C454 C456 1.384 . S
C455 C454 1.377 . S
C455 C461 1.390 . S
C456 H447 0.930 . S
C456 C454 1.384 . S
C456 C457 1.372 . S
C457 C456 1.372 . S
C457 C458 1.400 . S
C457 C462 1.490 . S
C458 H448 0.930 . S
C458 C457 1.400 . S
C458 C461 1.386 . S
H459 C475 0.930 . S
H460 C476 0.931 . S
C461 H449 0.929 . S
C461 C455 1.390 . S
C461 C458 1.386 . S
C462 C457 1.490 . S
C462 C464 1.395 . S
C462 C465 1.403 . S
H463 C469 0.930 . S
C464 H450 0.930 . S
C464 C462 1.395 . S
C464 C467 1.403 . S
C465 C462 1.403 . S
C465 C466 1.524 . S
C465 C469 1.400 . S
C466 H451 0.960 . S
C466 H452 0.960 . S
C466 H453 0.960 . S
C466 C465 1.524 . S
C467 C464 1.403 . S
C467 C468 1.392 . S
C467 C471 1.495 . S
C468 C467 1.392 . S
C468 C469 1.385 . S
C468 C470 1.478 . S
C469 H463 0.930 . S
C469 C465 1.400 . S
C469 C468 1.385 . S
C470 C468 1.478 . S
C470 C472 1.381 . S
C470 C476 1.383 . S
C471 C467 1.495 . S
C471 H477 0.959 . S
C471 H478 0.961 . S
C471 H479 0.960 . S
C472 C470 1.381 . S
C472 C473 1.394 . S
C472 H480 0.930 . S
C473 C472 1.394 . S
C473 C474 1.383 . S
C473 H481 0.929 . S
C474 C473 1.383 . S
C474 C475 1.377 . S
C475 H459 0.930 . S
C475 C474 1.377 . S
C475 C476 1.379 . S
C476 H460 0.931 . S
C476 C470 1.383 . S
C476 C475 1.379 . S
H477 C471 0.959 . S
H478 C471 0.961 . S
H479 C471 0.960 . S
H480 C472 0.930 . S
H481 C473 0.929 . S
H482 C490 0.929 . S
H483 C492 0.930 . S
H484 C494 0.930 . S
H485 C497 0.929 1_545 S
H486 C500 0.930 . S
H487 C502 0.960 . S
H488 C502 0.960 . S
H489 C502 0.960 . S
C490 H482 0.929 . S
C490 C491 1.377 . S
C490 C492 1.384 . S
C491 C490 1.377 . S
C491 C497 1.390 . S
C492 H483 0.930 . S
C492 C490 1.384 . S
C492 C493 1.372 . S
C493 C492 1.372 . S
C493 C494 1.400 . S
C493 C498 1.490 . S
C494 H484 0.930 . S
C494 C493 1.400 . S
C494 C497 1.386 . S
H495 C511 0.930 . S
H496 C512 0.931 . S
C497 H485 0.929 1_565 S
C497 C491 1.390 . S
C497 C494 1.386 . S
C498 C493 1.490 . S
C498 C500 1.395 . S
C498 C501 1.403 . S
H499 C505 0.930 . S
C500 H486 0.930 . S
C500 C498 1.395 . S
C500 C503 1.403 . S
C501 C498 1.403 . S
C501 C502 1.524 . S
C501 C505 1.400 . S
C502 H487 0.960 . S
C502 H488 0.960 . S
C502 H489 0.960 . S
C502 C501 1.524 . S
C503 C500 1.403 . S
C503 C504 1.392 . S
C503 C507 1.495 . S
C504 C503 1.392 . S
C504 C505 1.385 . S
C504 C506 1.478 . S
C505 H499 0.930 . S
C505 C501 1.400 . S
C505 C504 1.385 . S
C506 C504 1.478 . S
C506 C508 1.381 . S
C506 C512 1.383 . S
C507 C503 1.495 . S
C507 H513 0.959 . S
C507 H514 0.961 . S
C507 H515 0.960 . S
C508 C506 1.381 . S
C508 C509 1.394 . S
C508 H516 0.930 . S
C509 C508 1.394 . S
C509 C510 1.383 . S
C509 H517 0.929 . S
C510 C509 1.383 . S
C510 C511 1.377 . S
C511 H495 0.930 . S
C511 C510 1.377 . S
C511 C512 1.379 . S
C512 H496 0.931 . S
C512 C506 1.383 . S
C512 C511 1.379 . S
H513 C507 0.959 . S
H514 C507 0.961 . S
H515 C507 0.960 . S
H516 C508 0.930 . S
H517 C509 0.929 . S
H518 C526 0.929 . S
H519 C528 0.930 . S
H520 C530 0.930 . S
H521 C533 0.929 . S
H522 C536 0.930 . S
H523 C538 0.960 . S
H524 C538 0.960 . S
H525 C538 0.960 . S
C526 H518 0.929 . S
C526 C527 1.377 . S
C526 C528 1.384 . S
C527 C526 1.377 . S
C527 C533 1.390 . S
C528 H519 0.930 . S
C528 C526 1.384 . S
C528 C529 1.372 . S
C529 C528 1.372 . S
C529 C530 1.400 . S
C529 C534 1.490 . S
C530 H520 0.930 . S
C530 C529 1.400 . S
C530 C533 1.386 . S
H531 C547 0.930 . S
H532 C548 0.931 . S
C533 H521 0.929 . S
C533 C527 1.390 . S
C533 C530 1.386 . S
C534 C529 1.490 . S
C534 C536 1.395 . S
C534 C537 1.403 . S
H535 C541 0.930 . S
C536 H522 0.930 . S
C536 C534 1.395 . S
C536 C539 1.403 . S
C537 C534 1.403 . S
C537 C538 1.524 . S
C537 C541 1.400 . S
C538 H523 0.960 . S
C538 H524 0.960 . S
C538 H525 0.960 . S
C538 C537 1.524 . S
C539 C536 1.403 . S
C539 C540 1.392 . S
C539 C543 1.495 . S
C540 C539 1.392 . S
C540 C541 1.385 . S
C540 C542 1.478 . S
C541 H535 0.930 . S
C541 C537 1.400 . S
C541 C540 1.385 . S
C542 C540 1.478 . S
C542 C544 1.381 . S
C542 C548 1.383 . S
C543 C539 1.495 . S
C543 H549 0.959 . S
C543 H550 0.961 . S
C543 H551 0.960 . S
C544 C542 1.381 . S
C544 C545 1.394 . S
C544 H552 0.930 . S
C545 C544 1.394 . S
C545 C546 1.383 . S
C545 H553 0.929 . S
C546 C545 1.383 . S
C546 C547 1.377 . S
C547 H531 0.930 . S
C547 C546 1.377 . S
C547 C548 1.379 . S
C548 H532 0.931 . S
C548 C542 1.383 . S
C548 C547 1.379 . S
H549 C543 0.959 . S
H550 C543 0.961 . S
H551 C543 0.960 . S
H552 C544 0.930 . S
H553 C545 0.929 . S
C131 C11 1.934 . S
C150 C99 1.870 . S
C167 C51 1.148 . S
C186 C105 1.114 . S
C203 C7 0.739 . S
C222 C96 0.673 . S
C239 C47 1.225 . S
C258 C121 1.128 . S
C275 C10 2.077 . S
C294 C87 1.955 . S
C330 C104 2.292 . S
C311 C50 2.385 . S
C347 C56 1.130 . S
C366 C100 1.054 . S
C402 C117 1.798 . S
C383 C19 1.840 . S
C438 C84 2.154 . S
C419 C59 2.252 . S
C474 C120 2.040 . S
C455 C2 2.108 1_655 S
C510 C83 1.230 . S
C491 C42 1.356 . S
C546 C108 0.670 . S
C527 C16 0.752 . S
