# Generated by pormake.
# Topology anh, (6,3)-cn, num edge types: 1
# Building blocks:
#     Node 0, Type 0, BuildingBlock: PAMTUU_clean_sbu_0, # of connection points: 6
#     Node 1, Type 0, BuildingBlock: PAMTUU_clean_sbu_0, # of connection points: 6
#     Node 2, Type 0, BuildingBlock: PAMTUU_clean_sbu_0, # of connection points: 6
#     Node 3, Type 1, BuildingBlock: WUSLED_clean_sbu_0, # of connection points: 3
#     Node 4, Type 1, BuildingBlock: WUSLED_clean_sbu_0, # of connection points: 3
#     Node 5, Type 1, BuildingBlock: WUSLED_clean_sbu_0, # of connection points: 3
#     Node 6, Type 1, BuildingBlock: WUSLED_clean_sbu_0, # of connection points: 3
#     Node 7, Type 1, BuildingBlock: WUSLED_clean_sbu_0, # of connection points: 3
#     Node 8, Type 1, BuildingBlock: WUSLED_clean_sbu_0, # of connection points: 3
#     Edge 9, Type (0, 1), BuildingBlock: AJUNOK_clean_linker_0, # of connection points: 2
#     Edge 10, Type (0, 1), BuildingBlock: AJUNOK_clean_linker_0, # of connection points: 2
#     Edge 11, Type (0, 1), BuildingBlock: AJUNOK_clean_linker_0, # of connection points: 2
#     Edge 12, Type (0, 1), BuildingBlock: AJUNOK_clean_linker_0, # of connection points: 2
#     Edge 13, Type (0, 1), BuildingBlock: AJUNOK_clean_linker_0, # of connection points: 2
#     Edge 14, Type (0, 1), BuildingBlock: AJUNOK_clean_linker_0, # of connection points: 2
#     Edge 15, Type (0, 1), BuildingBlock: AJUNOK_clean_linker_0, # of connection points: 2
#     Edge 16, Type (0, 1), BuildingBlock: AJUNOK_clean_linker_0, # of connection points: 2
#     Edge 17, Type (0, 1), BuildingBlock: AJUNOK_clean_linker_0, # of connection points: 2
#     Edge 18, Type (0, 1), BuildingBlock: AJUNOK_clean_linker_0, # of connection points: 2
#     Edge 19, Type (0, 1), BuildingBlock: AJUNOK_clean_linker_0, # of connection points: 2
#     Edge 20, Type (0, 1), BuildingBlock: AJUNOK_clean_linker_0, # of connection points: 2
#     Edge 21, Type (0, 1), BuildingBlock: AJUNOK_clean_linker_0, # of connection points: 2
#     Edge 22, Type (0, 1), BuildingBlock: AJUNOK_clean_linker_0, # of connection points: 2
#     Edge 23, Type (0, 1), BuildingBlock: AJUNOK_clean_linker_0, # of connection points: 2
#     Edge 24, Type (0, 1), BuildingBlock: AJUNOK_clean_linker_0, # of connection points: 2
#     Edge 25, Type (0, 1), BuildingBlock: AJUNOK_clean_linker_0, # of connection points: 2
#     Edge 26, Type (0, 1), BuildingBlock: AJUNOK_clean_linker_0, # of connection points: 2
# Relax obj value: 0.270
# Max RMSD: 0.190
# Mean RMSD: 0.155
data_MOF--net-anh--node1-PAMTUU_clean_sbu_0--node2-WUSLED_clean_sbu_0--edge1-AJUNOK_clean_linker_0
_symmetry_space_group_name_H-M    P1
_symmetry_Int_Tables_number       1
_symmetry_cell_setting            triclinic
loop_
_symmetry_equiv_pos_as_xyz
'x, y, z'
_cell_length_a     30.859695
_cell_length_b     30.813781
_cell_length_c     56.050426
_cell_angle_alpha  92.512383
_cell_angle_beta   90.900626
_cell_angle_gamma 120.1233
loop_
_atom_site_label
_atom_site_type_symbol
_atom_site_fract_x
_atom_site_fract_y
_atom_site_fract_z
_atom_type_partial_charge
Tb0 Tb 0.14274 0.68478 0.16539 0.0
Tb1 Tb 0.19545 0.61705 0.1661 0.0
C2 C 0.16786 0.64811 0.11817 0.0
C3 C 1.05063 0.72203 0.17731 0.0
C4 C 0.95158 0.67762 0.19217 0.0
C5 C 0.96616 0.7071 0.17214 0.0
C6 C 1.01539 0.72926 0.16482 0.0
C7 C 1.03721 0.69592 0.19838 0.0
C8 C 0.98811 0.67413 0.20583 0.0
C9 C 1.09771 0.73373 0.1662 0.0
O10 O 1.07762 0.60613 0.16423 0.0
O11 O 1.11733 0.56254 0.17346 0.0
O12 O 0.1977 0.64 0.20349 0.0
O13 O 0.13312 0.65648 0.20045 0.0
O14 O 0.24288 0.59678 0.14863 0.0
O15 O 0.20122 0.55707 0.17909 0.0
O16 O 0.26087 0.69489 0.16948 0.0
O17 O 0.2213 0.74056 0.17601 0.0
O18 O 0.17207 0.68761 0.13005 0.0
O19 O 0.16363 0.61044 0.12995 0.0
C20 C 1.07573 0.56411 0.17046 0.0
O21 O 0.13523 0.74375 0.18086 0.0
O22 O 1.09293 0.70253 0.14844 0.0
C23 C 0.16339 0.64753 0.21315 0.0
C24 C 0.26681 0.54203 0.1667 0.0
C25 C 0.31743 0.48831 0.16044 0.0
C26 C 0.27365 0.46829 0.17335 0.0
C27 C 0.24852 0.49504 0.17647 0.0
C28 C 0.31347 0.56434 0.15607 0.0
C29 C 0.33876 0.53766 0.15307 0.0
C30 C 0.23141 0.55986 0.16249 0.0
C31 C 0.26281 0.73815 0.17512 0.0
H32 H 0.93869 0.70945 0.16085 0.0
H33 H 1.02494 0.74876 0.1484 0.0
H34 H 1.06368 0.6894 0.20822 0.0
H35 H 0.97786 0.65152 0.22126 0.0
H36 H 0.2569 0.43047 0.17936 0.0
H37 H 0.21243 0.47694 0.18462 0.0
H38 H 0.32834 0.60044 0.14831 0.0
H39 H 0.37257 0.5538 0.14304 0.0
Tb40 Tb 0.61939 0.10162 0.50589 0.0
Tb41 Tb 0.73864 0.15803 0.50648 0.0
C42 C 0.67469 0.12893 0.45766 0.0
C43 C 0.48992 0.99923 0.50613 0.0
C44 C 0.42773 0.89435 0.50259 0.0
C45 C 0.46087 0.91908 0.48449 0.0
C46 C 0.49195 0.97102 0.48631 0.0
C47 C 0.45723 0.97469 0.52436 0.0
C48 C 0.42649 0.92251 0.52268 0.0
C49 C 0.52588 1.05314 0.50946 0.0
O50 O 0.63589 1.03957 0.5089 0.0
O51 O 0.71937 1.07887 0.50018 0.0
O52 O 0.71588 0.11731 0.53873 0.0
O53 O 0.65063 0.12984 0.54188 0.0
O54 O 0.80747 0.18571 0.48974 0.0
O55 O 0.80473 0.1999 0.52761 0.0
O56 O 0.72008 0.21609 0.51861 0.0
O57 O 0.63973 0.18086 0.50343 0.0
O58 O 0.63614 0.09464 0.46862 0.0
O59 O 0.71487 0.16315 0.47011 0.0
C60 C 0.67715 1.03764 0.50487 0.0
O61 O 0.5578 1.06502 0.52738 0.0
O62 O 0.54755 1.07665 0.49051 0.0
C63 C 0.6805 0.11633 0.55144 0.0
C64 C 0.85812 0.26882 0.50669 0.0
C65 C 0.88437 0.37058 0.50872 0.0
C66 C 0.89798 0.3511 0.52778 0.0
C67 C 0.88528 0.30071 0.52668 0.0
C68 C 0.84644 0.28892 0.48721 0.0
C69 C 0.8596 0.33933 0.48821 0.0
C70 C 0.8318 0.2141 0.50886 0.0
C71 C 0.68074 0.22035 0.5129 0.0
H72 H 0.46208 0.89833 0.46865 0.0
H73 H 0.51774 0.98895 0.47227 0.0
H74 H 0.45616 0.99585 0.54008 0.0
H75 H 0.4017 0.90423 0.537 0.0
H76 H 0.91662 0.37425 0.54392 0.0
H77 H 0.8937 0.28583 0.54213 0.0
H78 H 0.82479 0.26523 0.47168 0.0
H79 H 0.84949 0.35368 0.47309 0.0
Tb80 Tb 0.6589 0.56619 0.83277 0.0
Tb81 Tb 0.72459 0.68616 0.84041 0.0
C82 C 0.69463 0.63369 0.78905 0.0
C83 C 0.61498 0.4313 0.83295 0.0
C84 C 0.64307 0.35868 0.83752 0.0
C85 C 0.6015 0.34842 0.82267 0.0
C86 C 0.5876 0.38464 0.82037 0.0
C87 C 0.65404 0.44029 0.84924 0.0
C88 C 0.66787 0.40391 0.85159 0.0
C89 C 0.60674 0.47214 0.82675 0.0
O90 O 0.73691 0.57977 0.83349 0.0
O91 O 0.78284 0.66503 0.84308 0.0
O92 O 0.69663 0.65574 0.87496 0.0
O93 O 0.69402 0.58137 0.86794 0.0
O94 O 0.74456 0.75805 0.82969 0.0
O95 O 0.77829 0.74863 0.86163 0.0
O96 O 0.64626 0.67058 0.83628 0.0
O97 O 0.60488 0.58819 0.84546 0.0
O98 O 0.65627 0.59666 0.79874 0.0
O99 O 0.73158 0.66878 0.80281 0.0
C100 C 0.7803 0.62117 0.83944 0.0
O101 O 0.60237 0.4979 0.84468 0.0
O102 O 0.63651 0.50102 0.81086 0.0
C103 C 0.69773 0.61685 0.88285 0.0
C104 C 0.75688 0.81208 0.86296 0.0
C105 C 0.70583 0.85937 0.88133 0.0
C106 C 0.70586 0.82042 0.89342 0.0
C107 C 0.7307 0.79646 0.88412 0.0
C108 C 0.7619 0.85472 0.85261 0.0
C109 C 0.73654 0.87816 0.86167 0.0
C110 C 0.77133 0.77979 0.8494 0.0
C111 C 0.60477 0.63027 0.8423 0.0
H112 H 0.58206 0.31385 0.8115 0.0
H113 H 0.55744 0.37735 0.80772 0.0
H114 H 0.67541 0.47628 0.85915 0.0
H115 H 0.69947 0.41199 0.86337 0.0
H116 H 0.6836 0.80598 0.90894 0.0
H117 H 0.72648 0.76367 0.89256 0.0
H118 H 0.78195 0.86733 0.83632 0.0
H119 H 0.73725 0.90796 0.85181 0.0
C120 C 0.79561 0.28175 0.20298 0.0
C121 C 0.7973 0.32852 0.2052 0.0
C122 C 0.8854 0.37575 0.19278 0.0
C123 C 0.84116 0.37438 0.2004 0.0
C124 C 0.88377 0.32895 0.19098 0.0
C125 C 0.84004 0.28323 0.19582 0.0
U126 U 0.67931 0.15806 0.23002 0.0
O127 O 0.59963 0.11998 0.21628 0.0
O128 O 0.64132 1.08008 0.21335 0.0
C129 C 0.5983 1.07809 0.20903 0.0
C130 C 0.74654 0.23157 0.20416 0.0
C131 C 0.549 1.02792 0.20828 0.0
C132 C 0.45975 0.97787 0.19445 0.0
C133 C 0.50456 1.02465 0.19902 0.0
C134 C 0.50122 0.93502 0.2087 0.0
C135 C 0.45693 0.93163 0.1988 0.0
C136 C 0.54629 0.98198 0.21312 0.0
C137 C 0.68345 0.14969 0.30189 0.0
C138 C 0.64046 0.14453 0.33908 0.0
C139 C 0.71204 0.13267 0.33959 0.0
C140 C 0.71635 0.13938 0.3149 0.0
C141 C 0.67452 0.13585 0.3522 0.0
C142 C 0.64502 0.15163 0.31433 0.0
C143 C 0.69596 0.16725 0.27702 0.0
O144 O 0.74809 0.1909 0.20884 0.0
O145 O 0.70676 0.23072 0.21283 0.0
O146 O 0.66973 0.18391 0.26598 0.0
O147 O 0.71283 0.14523 0.2623 0.0
H148 H 0.76418 0.32975 0.21023 0.0
H149 H 0.84017 0.4089 0.20277 0.0
H150 H 0.91613 0.32722 0.18508 0.0
H151 H 0.84068 0.24853 0.19322 0.0
H152 H 0.4275 0.97808 0.18672 0.0
H153 H 0.50478 1.05856 0.19447 0.0
H154 H 0.50135 0.90128 0.21316 0.0
H155 H 0.57936 0.98211 0.21996 0.0
H156 H 0.61156 0.14808 0.34813 0.0
H157 H 0.73886 0.1259 0.34896 0.0
H158 H 0.74704 0.13864 0.30615 0.0
H159 H 0.61959 0.16057 0.30516 0.0
C160 C 0.67707 0.75521 0.53354 0.0
C161 C 0.63471 0.755 0.52346 0.0
C162 C 0.67761 0.84784 0.5249 0.0
C163 C 0.63486 0.80014 0.51934 0.0
C164 C 0.71958 0.84803 0.53567 0.0
C165 C 0.71947 0.80279 0.53972 0.0
U166 U 0.68092 0.63752 0.56066 0.0
O167 O 0.63874 0.5583 0.54539 0.0
O168 O 0.72078 0.59896 0.54666 0.0
C169 C 0.67937 0.55683 0.5401 0.0
C170 C 0.67831 0.70639 0.53415 0.0
C171 C 0.6788 0.50718 0.53869 0.0
C172 C 0.65991 0.43039 0.51442 0.0
C173 C 0.65886 0.47561 0.51768 0.0
C174 C 0.70022 0.44559 0.55344 0.0
C175 C 0.68087 0.41416 0.53209 0.0
C176 C 0.69958 0.49139 0.55659 0.0
C177 C 0.68499 0.63861 0.63286 0.0
C178 C 0.73345 0.64919 0.66993 0.0
C179 C 0.64457 0.61822 0.67129 0.0
C180 C 0.64185 0.62092 0.64638 0.0
C181 C 0.69064 0.63358 0.68358 0.0
C182 C 0.73075 0.65198 0.64498 0.0
C183 C 0.68343 0.65227 0.60764 0.0
O184 O 0.71984 0.70779 0.54128 0.0
O185 O 0.63818 0.66563 0.54048 0.0
O186 O 0.64156 0.62709 0.59446 0.0
O187 O 0.72384 0.66886 0.59509 0.0
H188 H 0.60154 0.71957 0.51798 0.0
H189 H 0.60167 0.79749 0.511 0.0
H190 H 0.75295 0.88332 0.54102 0.0
H191 H 0.75317 0.80527 0.54731 0.0
H192 H 0.64495 0.40853 0.49762 0.0
H193 H 0.64294 0.48643 0.50334 0.0
H194 H 0.71543 0.43469 0.56799 0.0
H195 H 0.71537 0.5144 0.57304 0.0
H196 H 0.76939 0.66009 0.67857 0.0
H197 H 0.61078 0.6061 0.68106 0.0
H198 H 0.60616 0.61135 0.63786 0.0
H199 H 0.76498 0.66646 0.63535 0.0
C200 C 1.06379 0.61889 0.86896 0.0
C201 C 1.0581 0.66014 0.87634 0.0
C202 C 0.97003 0.61766 0.86031 0.0
C203 C 1.01218 0.65943 0.87219 0.0
C204 C 0.97607 0.57655 0.853 0.0
C205 C 1.02168 0.57714 0.8573 0.0
U206 U 0.19476 0.626 0.89086 0.0
O207 O 0.22711 0.58454 0.87187 0.0
O208 O 0.26575 0.66621 0.87176 0.0
C209 C 0.26706 0.6253 0.86537 0.0
C210 C 1.11424 0.62109 0.86948 0.0
C211 C 0.31751 0.62729 0.86541 0.0
C212 C 0.40859 0.67441 0.85916 0.0
C213 C 0.36255 0.67293 0.86284 0.0
C214 C 0.36697 0.5846 0.86065 0.0
C215 C 0.41212 0.63026 0.85768 0.0
C216 C 0.32081 0.58312 0.86427 0.0
C217 C 0.189 0.63451 0.96267 0.0
C218 C 0.15003 0.59284 0.99908 0.0
C219 C 0.205 0.68282 1.00094 0.0
C220 C 0.21218 0.68065 0.97631 0.0
C221 C 0.17433 0.63889 0.01284 0.0
C222 C 0.15733 0.59065 0.97441 0.0
C223 C 0.206 0.63171 0.93802 0.0
O224 O 0.15565 0.66343 0.8758 0.0
O225 O 1.11696 0.58138 0.8749 0.0
O226 O 0.18288 0.58897 0.92501 0.0
O227 O 0.22294 0.67128 0.92514 0.0
H228 H 1.08953 0.69359 0.88491 0.0
H229 H 1.00987 0.69203 0.87824 0.0
H230 H 0.94603 0.54419 0.84308 0.0
H231 H 1.02455 0.5452 0.85061 0.0
H232 H 0.44136 0.71075 0.85744 0.0
H233 H 0.36217 0.7079 0.86307 0.0
H234 H 0.36674 0.54934 0.85945 0.0
H235 H 0.28726 0.54689 0.86551 0.0
H236 H 1.12606 0.55819 1.00751 0.0
H237 H 0.22551 0.71886 0.01086 0.0
H238 H 0.23801 0.71506 0.96817 0.0
H239 H 0.13965 0.55423 0.96475 0.0
C240 C 1.01658 0.6369 0.46229 0.0
C241 C 0.97065 0.60024 0.45136 0.0
C242 C 0.94057 0.57221 0.49054 0.0
C243 C 0.93243 0.56766 0.46556 0.0
C244 C 0.98016 0.61747 0.50098 0.0
C245 C 1.01906 0.64937 0.48681 0.0
U246 U 1.08546 0.62041 0.41013 0.0
O247 O 0.16406 0.66562 0.40032 0.0
O248 O 0.13435 0.58775 0.41019 0.0
C249 C 0.17441 0.63091 0.4064 0.0
C250 C 1.06273 0.64529 0.4514 0.0
C251 C 0.21519 0.64822 0.42457 0.0
C252 C 0.24116 0.66542 0.46663 0.0
C253 C 0.20417 0.63875 0.44869 0.0
C254 C 0.30144 0.70793 0.43648 0.0
C255 C 0.2892 0.70244 0.46064 0.0
C256 C 0.26451 0.68097 0.41851 0.0
C257 C 1.03383 0.57329 0.34899 0.0
C258 C 1.09812 0.57684 0.32335 0.0
C259 C 1.02977 0.5852 0.30682 0.0
C260 C 1.00901 0.5787 0.32924 0.0
C261 C 1.07593 0.5871 0.30406 0.0
C262 C 1.07725 0.57012 0.34572 0.0
C263 C 1.02287 0.58406 0.37311 0.0
O264 O 1.06332 0.60339 0.44682 0.0
O265 O 1.07958 0.6762 0.43402 0.0
O266 O 1.04833 0.63227 0.37954 0.0
O267 O 1.02364 0.55541 0.38968 0.0
H268 H 0.96773 0.59087 0.43231 0.0
H269 H 0.90132 0.53407 0.45688 0.0
H270 H 0.98592 0.62303 0.52024 0.0
H271 H 1.05392 0.67843 0.49549 0.0
H272 H 0.23112 0.66039 0.48516 0.0
H273 H 0.16621 0.61359 0.45379 0.0
H274 H 0.33825 0.73655 0.43143 0.0
H275 H 0.27356 0.6887 0.4 0.0
H276 H 0.13358 0.57797 0.32161 0.0
H277 H 1.01149 0.59199 0.29197 0.0
H278 H 0.97583 0.58179 0.3315 0.0
H279 H 1.09738 0.5667 0.36086 0.0
C280 C 0.55712 0.94996 0.80958 0.0
C281 C 0.55519 0.90357 0.80711 0.0
C282 C 0.56404 0.90405 0.85034 0.0
C283 C 0.55811 0.88039 0.82747 0.0
C284 C 0.55824 0.94631 0.85272 0.0
C285 C 0.5544 0.96894 0.83237 0.0
U286 U 0.60251 1.0117 0.74723 0.0
O287 O 0.61188 1.08516 0.73952 0.0
O288 O 0.67804 1.07707 0.74487 0.0
C289 C 0.66083 0.10812 0.7431 0.0
C290 C 0.57815 0.98615 0.79101 0.0
C291 C 0.68059 0.14937 0.76142 0.0
C292 C 0.6868 0.17614 0.80327 0.0
C293 C 0.67795 0.13894 0.78566 0.0
C294 C 0.70429 0.23528 0.77259 0.0
C295 C 0.6982 0.22409 0.79681 0.0
C296 C 0.69549 0.19804 0.75498 0.0
C297 C 0.59357 0.97239 0.68456 0.0
C298 C 0.63641 1.04529 0.6609 0.0
C299 C 0.59358 0.96165 0.64136 0.0
C300 C 0.57927 0.94078 0.66368 0.0
C301 C 0.62183 1.0142 0.63989 0.0
C302 C 0.62259 1.0246 0.68294 0.0
C303 C 0.57787 0.95334 0.70834 0.0
O304 O 0.61894 0.99111 0.78147 0.0
O305 O 0.54864 0.99266 0.77622 0.0
O306 O 0.54746 0.9668 0.71799 0.0
O307 O 0.61497 0.96096 0.7231 0.0
H308 H 0.55756 0.88851 0.78966 0.0
H309 H 0.56287 0.84795 0.82513 0.0
H310 H 0.56287 0.96523 0.87012 0.0
H311 H 0.55606 1.00488 0.83459 0.0
H312 H 0.68153 0.16661 0.82179 0.0
H313 H 0.66607 0.10126 0.79088 0.0
H314 H 0.71178 0.27157 0.76705 0.0
H315 H 0.69715 0.20639 0.73632 0.0
H316 H 0.65848 1.0858 0.66025 0.0
H317 H 0.58172 0.93701 0.62529 0.0
H318 H 0.55675 0.90039 0.66459 0.0
H319 H 0.63408 1.04962 0.69882 0.0
C320 C 0.66328 0.47743 0.14077 0.0
C321 C 0.70905 0.48135 0.13484 0.0
C322 C 0.7485 0.53251 0.17149 0.0
C323 C 0.75122 0.5084 0.15017 0.0
C324 C 0.70218 0.5265 0.178 0.0
C325 C 0.65974 0.49892 0.16274 0.0
U326 U 0.61022 0.46513 0.07762 0.0
O327 O 0.54549 0.40039 0.05844 0.0
O328 O 0.54609 0.47141 0.06514 0.0
C329 C 0.51907 0.42319 0.05905 0.0
C330 C 0.62064 0.45598 0.12331 0.0
C331 C 0.47261 0.39881 0.07194 0.0
C332 C 0.43956 0.38165 0.11157 0.0
C333 C 0.47454 0.38474 0.09528 0.0
C334 C 0.39676 0.40029 0.08054 0.0
C335 C 0.40219 0.3923 0.10465 0.0
C336 C 0.43197 0.40368 0.06426 0.0
C337 C 0.69214 0.53993 0.02857 0.0
C338 C 0.65501 0.55578 0.99394 0.0
C339 C 0.74219 0.57744 0.9944 0.0
C340 C 0.73794 0.55987 0.01734 0.0
C341 C 0.7008 0.57577 0.98259 0.0
C342 C 0.65066 0.53784 0.01672 0.0
C343 C 0.68781 0.52257 0.05286 0.0
O344 O 0.60994 0.48892 0.11509 0.0
O345 O 0.61946 0.42405 0.10655 0.0
O346 O 0.67092 0.47419 0.05436 0.0
O347 O 0.66681 0.54011 0.06761 0.0
H348 H 0.7129 0.46551 0.11792 0.0
H349 H 0.78673 0.51303 0.14464 0.0
H350 H 0.6993 0.54467 0.1944 0.0
H351 H 0.62467 0.49629 0.16757 0.0
H352 H 0.44446 0.37554 0.13007 0.0
H353 H 0.5061 0.38156 0.10166 0.0
H354 H 0.36866 0.40935 0.07485 0.0
H355 H 0.43043 0.4154 0.04647 0.0
H356 H 0.62228 0.55299 0.98496 0.0
H357 H 0.77776 0.59236 0.98588 0.0
H358 H 0.77031 0.56181 0.02627 0.0
H359 H 0.61488 0.52229 0.0251 0.0
C360 C 0.38693 0.47081 0.15341 0.0
C361 C 0.33588 0.45554 0.15073 0.0
C362 C 0.40725 0.44664 0.13987 0.0
C363 C 0.37727 0.40697 0.12296 0.0
H364 H 0.41175 0.50335 0.16505 0.0
H365 H 0.44741 0.46168 0.14133 0.0
S366 S 0.24063 0.34993 0.1109 0.0
N367 N 0.25497 0.39578 0.13141 0.0
N368 N 0.29355 0.35064 0.10583 0.0
C369 C 0.32565 0.38926 0.12127 0.0
C370 C 0.30482 0.41348 0.13523 0.0
C371 C 0.8602 0.43572 0.5024 0.0
C372 C 0.89651 0.42359 0.50975 0.0
C373 C 0.87324 0.48556 0.49906 0.0
C374 C 0.9231 0.52489 0.50282 0.0
H375 H 0.82194 0.4062 0.49806 0.0
H376 H 0.84504 0.49291 0.4917 0.0
S377 S 1.03116 0.51285 0.52427 0.0
N378 N 0.98317 0.45489 0.52255 0.0
N379 N 1.00811 0.54837 0.51629 0.0
C380 C 0.95879 0.51346 0.51215 0.0
C381 C 0.94542 0.46279 0.51552 0.0
C382 C 0.67867 0.92313 0.88263 0.0
C383 C 0.66662 0.87312 0.88507 0.0
C384 C 0.64222 0.93411 0.87471 0.0
C385 C 0.5927 0.89537 0.86903 0.0
H386 H 0.71745 0.95318 0.88408 0.0
H387 H 0.65444 0.97225 0.87011 0.0
S388 S 0.53865 0.76152 0.88133 0.0
N389 N 0.59915 0.78667 0.88773 0.0
N390 N 0.53072 0.80773 0.87271 0.0
C391 C 0.57855 0.84676 0.87544 0.0
C392 C 0.61559 0.83553 0.88364 0.0
C393 C 0.88106 0.59068 0.19588 0.0
C394 C 0.89765 0.64232 0.19526 0.0
C395 C 0.83087 0.55455 0.19054 0.0
C396 C 0.79561 0.56891 0.18472 0.0
H397 H 0.90769 0.57791 0.1982 0.0
H398 H 0.82041 0.51526 0.18906 0.0
S399 S 0.81789 0.699 0.18619 0.0
N400 N 0.87344 0.70586 0.19277 0.0
N401 N 0.77883 0.63781 0.18245 0.0
C402 C 0.81045 0.62018 0.18695 0.0
C403 C 0.86165 0.65699 0.1923 0.0
C404 C 0.40802 0.80756 0.48994 0.0
C405 C 0.39162 0.83999 0.49894 0.0
C406 C 0.37384 0.75984 0.47966 0.0
C407 C 0.32229 0.74304 0.47836 0.0
H408 H 0.44774 0.82062 0.48919 0.0
H409 H 0.38804 0.73759 0.47106 0.0
S410 S 0.2599 0.81089 0.50242 0.0
N411 N 0.32027 0.84992 0.50827 0.0
N412 N 0.25594 0.75995 0.48931 0.0
C413 C 0.3051 0.77297 0.48959 0.0
C414 C 0.33988 0.82165 0.49985 0.0
C415 C 0.63381 0.27374 0.83603 0.0
C416 C 0.6648 0.32585 0.83472 0.0
C417 C 0.64783 0.24055 0.82596 0.0
C418 C 0.69307 0.25857 0.81411 0.0
H419 H 0.5968 0.25854 0.84309 0.0
H420 H 0.62085 0.20066 0.82542 0.0
S421 S 0.7911 0.39176 0.80972 0.0
N422 N 0.74546 0.39412 0.82361 0.0
N423 N 0.7721 0.33144 0.80497 0.0
C424 C 0.7267 0.31054 0.81503 0.0
C425 C 0.71248 0.34435 0.82531 0.0
C426 C 0.63536 0.94657 0.51745 0.0
C427 C 0.67739 0.98874 0.50851 0.0
C428 C 0.63572 0.90194 0.52258 0.0
C429 C 0.67821 0.89651 0.51923 0.0
H430 H 0.60175 0.94815 0.52095 0.0
H431 H 0.60236 0.8716 0.52969 0.0
S432 S 0.79746 0.99389 0.49478 0.0
N433 N 0.76252 1.02051 0.49578 0.0
N434 N 0.76291 0.93756 0.50496 0.0
C435 C 0.72023 0.93809 0.50994 0.0
C436 C 0.71987 0.98357 0.50471 0.0
C437 C 0.87607 0.66183 0.84281 0.0
C438 C 0.82799 0.61855 0.84379 0.0
C439 C 0.92103 0.66127 0.84809 0.0
C440 C 0.9209 0.61749 0.85494 0.0
H441 H 0.8792 0.69682 0.83782 0.0
H442 H 0.95639 0.69566 0.84654 0.0
S443 S 0.80525 0.49521 0.86308 0.0
N444 N 0.7837 0.53112 0.85364 0.0
N445 N 0.86692 0.53036 0.8641 0.0
C446 C 0.87296 0.57419 0.85645 0.0
C447 C 0.82718 0.57464 0.8508 0.0
C448 C 0.31481 0.83073 0.19046 0.0
C449 C 0.31324 0.78646 0.18111 0.0
C450 C 0.36053 0.87629 0.1962 0.0
C451 C 0.40817 0.88106 0.19297 0.0
H452 H 0.28011 0.8304 0.19357 0.0
H453 H 0.35825 0.90814 0.20352 0.0
S454 S 0.42645 0.77754 0.16799 0.0
N455 N 0.36489 0.75141 0.16854 0.0
N456 N 0.44976 0.83616 0.17868 0.0
C457 C 0.40724 0.83707 0.18352 0.0
C458 C 0.36047 0.79044 0.17776 0.0
C459 C 0.64174 0.27675 0.51056 0.0
C460 C 0.682 0.27027 0.51809 0.0
C461 C 0.64169 0.32245 0.51525 0.0
C462 C 0.68181 0.36488 0.52792 0.0
H463 H 0.60955 0.24607 0.50083 0.0
H464 H 0.60922 0.32412 0.50903 0.0
S465 S 0.79677 0.36857 0.55213 0.0
N466 N 0.76338 0.31135 0.53937 0.0
N467 N 0.76361 0.39629 0.54779 0.0
C468 C 0.72232 0.35886 0.53567 0.0
C469 C 0.7224 0.31224 0.53084 0.0
C470 C 0.51865 0.5971 0.8603 0.0
C471 C 0.55648 0.6318 0.84597 0.0
C472 C 0.47318 0.59715 0.86397 0.0
C473 C 0.46191 0.63137 0.85325 0.0
H474 H 0.5244 0.56972 0.86913 0.0
H475 H 0.44678 0.57013 0.87568 0.0
S476 S 0.54655 0.72813 0.81244 0.0
N477 N 0.57852 0.70096 0.82049 0.0
N478 N 0.49304 0.69932 0.82606 0.0
C479 C 0.49916 0.66565 0.83839 0.0
C480 C 0.54606 0.66633 0.83513 0.0
C481 C 1.02608 0.4773 0.18749 0.0
C482 C 1.02596 0.51697 0.17564 0.0
C483 C 0.98134 0.43302 0.19293 0.0
C484 C 0.933 0.42494 0.18692 0.0
H485 H 1.06142 0.48044 0.19292 0.0
H486 H 0.98496 0.40493 0.20229 0.0
S487 S 0.91025 0.51508 0.15434 0.0
N488 N 0.97199 0.5438 0.1575 0.0
N489 N 0.88876 0.46114 0.16713 0.0
C490 C 0.93217 0.4642 0.17489 0.0
C491 C 0.97801 0.50964 0.16943 0.0
C492 C 0.17302 0.60813 0.07865 0.0
C493 C 0.1677 0.64573 0.09127 0.0
C494 C 0.17428 0.60576 0.05348 0.0
C495 C 0.17018 0.64078 0.03962 0.0
H496 H 0.17706 0.58059 0.08829 0.0
H497 H 0.17965 0.57674 0.04486 0.0
S498 S 0.15099 0.74403 0.06346 0.0
N499 N 0.15554 0.71733 0.08754 0.0
N500 N 0.15716 0.71233 0.04055 0.0
C501 C 0.16362 0.67783 0.05195 0.0
C502 C 0.16253 0.6804 0.07759 0.0
C503 C 0.71734 0.15988 0.41867 0.0
C504 C 0.67318 0.12953 0.43073 0.0
C505 C 0.71735 0.16129 0.39353 0.0
C506 C 0.67309 0.13294 0.37905 0.0
H507 H 0.75259 0.18277 0.42872 0.0
H508 H 0.75244 0.18547 0.38535 0.0
S509 S 0.54712 1.04672 0.40124 0.0
N510 N 0.58364 1.0698 0.42577 0.0
N511 N 0.58381 1.07285 0.37882 0.0
C512 C 0.6286 0.1025 0.3908 0.0
C513 C 0.62862 0.10063 0.41644 0.0
C514 C 0.65793 0.59402 0.74784 0.0
C515 C 0.69542 0.63499 0.76221 0.0
C516 C 0.65708 0.59374 0.72268 0.0
C517 C 0.69368 0.63428 0.7105 0.0
H518 H 0.62878 0.5616 0.75603 0.0
H519 H 0.6274 0.56108 0.71266 0.0
S520 S 0.79907 0.75187 0.73938 0.0
N521 N 0.76984 0.71789 0.76203 0.0
N522 N 0.7678 0.71754 0.71499 0.0
C523 C 0.7314 0.67559 0.72459 0.0
C524 C 0.73232 0.67589 0.75028 0.0
C525 C 0.6386 0.10032 0.59034 0.0
C526 C 0.66771 0.09094 0.57418 0.0
C527 C 0.62322 1.07457 0.61132 0.0
C528 C 0.63558 1.03782 0.61671 0.0
H529 H 0.62774 0.12793 0.58681 0.0
H530 H 0.60138 1.08344 0.62345 0.0
S531 S 0.70933 0.99753 0.57995 0.0
N532 N 0.70749 1.04141 0.56481 0.0
N533 N 0.67777 0.99261 0.60419 0.0
C534 C 0.66393 1.02739 0.6006 0.0
C535 C 0.68034 1.05417 0.57937 0.0
C536 C 0.71896 0.5789 0.91606 0.0
C537 C 0.70207 0.61123 0.90869 0.0
C538 C 0.72018 0.56926 0.94012 0.0
C539 C 0.70409 0.59115 0.95773 0.0
H540 H 0.73078 0.56023 0.90309 0.0
H541 H 0.73219 0.54308 0.94486 0.0
S542 S 0.65978 0.68116 0.94825 0.0
N543 N 0.67151 0.66732 0.92118 0.0
N544 N 0.67347 0.64875 0.96657 0.0
C545 C 0.68856 0.62474 0.95081 0.0
C546 C 0.68779 0.63502 0.92625 0.0
C547 C 0.14643 0.59463 0.24799 0.0
C548 C 0.15193 0.63838 0.23835 0.0
C549 C 1.12268 0.57851 0.26964 0.0
C550 C 1.10367 0.60562 0.28206 0.0
H551 H 0.15759 0.57113 0.23806 0.0
H552 H 1.11727 0.54363 0.27618 0.0
S553 S 1.11639 0.72688 0.266 0.0
N554 N 0.14192 0.71138 0.24401 0.0
N555 N 1.09785 0.68154 0.28472 0.0
C556 C 1.11213 0.65116 0.27332 0.0
C557 C 0.1362 0.66745 0.25144 0.0
loop_
_geom_bond_atom_site_label_1
_geom_bond_atom_site_label_2
_geom_bond_distance
_geom_bond_site_symmetry_2
_ccdc_geom_bond_type
Tb0 C9 2.764 1_455 S
Tb0 O10 2.325 1_455 S
Tb0 O13 2.303 . S
Tb0 O17 2.322 . S
Tb0 O18 2.349 . S
Tb0 O21 2.415 1_455 S
Tb0 O22 2.399 1_455 S
Tb1 O11 2.322 1_455 S
Tb1 O12 2.349 . S
Tb1 O14 2.415 . S
Tb1 O15 2.399 . S
Tb1 O16 2.325 . S
Tb1 O19 2.303 . S
Tb1 C30 2.764 . S
C2 O18 1.261 . S
C2 O19 1.257 . S
C3 C6 1.358 . S
C3 C7 1.332 . S
C3 C9 1.504 . S
C4 C5 1.373 . S
C4 C8 1.308 . S
C5 C4 1.373 . S
C5 C6 1.429 . S
C5 H32 0.932 . S
C6 C3 1.358 . S
C6 C5 1.429 . S
C6 H33 0.930 . S
C7 C3 1.332 . S
C7 C8 1.394 . S
C7 H34 0.932 . S
C8 C4 1.308 . S
C8 C7 1.394 . S
C8 H35 0.929 . S
C9 Tb0 2.764 1_655 S
C9 C3 1.504 . S
C9 O21 1.239 . S
C9 O22 1.263 . S
O10 Tb0 2.325 1_655 S
O10 C20 1.236 . S
O11 Tb1 2.322 1_655 S
O11 C20 1.257 . S
O12 Tb1 2.349 . S
O12 C23 1.261 . S
O13 Tb0 2.303 . S
O13 C23 1.257 . S
O14 Tb1 2.415 . S
O14 C30 1.239 . S
O15 Tb1 2.399 . S
O15 C30 1.263 . S
O16 Tb1 2.325 . S
O16 C31 1.236 . S
O17 Tb0 2.322 . S
O17 C31 1.257 . S
O18 Tb0 2.349 . S
O18 C2 1.261 . S
O19 Tb1 2.303 . S
O19 C2 1.257 . S
C20 O10 1.236 . S
C20 O11 1.257 . S
O21 Tb0 2.415 1_655 S
O21 C9 1.239 . S
O22 Tb0 2.399 1_655 S
O22 C9 1.263 . S
C23 O12 1.261 . S
C23 O13 1.257 . S
C24 C27 1.358 . S
C24 C28 1.332 . S
C24 C30 1.504 . S
C25 C26 1.373 . S
C25 C29 1.308 . S
C26 C25 1.373 . S
C26 C27 1.429 . S
C26 H36 0.932 . S
C27 C24 1.358 . S
C27 C26 1.429 . S
C27 H37 0.930 . S
C28 C24 1.332 . S
C28 C29 1.394 . S
C28 H38 0.932 . S
C29 C25 1.308 . S
C29 C28 1.394 . S
C29 H39 0.929 . S
C30 Tb1 2.764 . S
C30 O14 1.239 . S
C30 O15 1.263 . S
C30 C24 1.504 . S
C31 O16 1.236 . S
C31 O17 1.257 . S
H32 C5 0.932 . S
H33 C6 0.930 . S
H34 C7 0.932 . S
H35 C8 0.929 . S
H36 C26 0.932 . S
H37 C27 0.930 . S
H38 C28 0.932 . S
H39 C29 0.929 . S
Tb40 C49 2.764 . S
Tb40 O50 2.325 . S
Tb40 O53 2.303 1_565 S
Tb40 O57 2.322 1_565 S
Tb40 O58 2.349 1_565 S
Tb40 O61 2.415 . S
Tb40 O62 2.399 . S
Tb41 O51 2.322 1_545 S
Tb41 O52 2.349 . S
Tb41 O54 2.415 . S
Tb41 O55 2.399 . S
Tb41 O56 2.325 . S
Tb41 O59 2.303 . S
Tb41 C70 2.764 . S
C42 O58 1.261 . S
C42 O59 1.257 . S
C43 C46 1.358 . S
C43 C47 1.332 . S
C43 C49 1.504 . S
C44 C45 1.373 . S
C44 C48 1.308 . S
C45 C44 1.373 . S
C45 C46 1.429 . S
C45 H72 0.932 . S
C46 C43 1.358 . S
C46 C45 1.429 . S
C46 H73 0.930 . S
C47 C43 1.332 . S
C47 C48 1.394 . S
C47 H74 0.932 . S
C48 C44 1.308 . S
C48 C47 1.394 . S
C48 H75 0.929 . S
C49 Tb40 2.764 . S
C49 C43 1.504 . S
C49 O61 1.239 . S
C49 O62 1.263 . S
O50 Tb40 2.325 . S
O50 C60 1.236 . S
O51 Tb41 2.322 1_565 S
O51 C60 1.257 . S
O52 Tb41 2.349 . S
O52 C63 1.261 . S
O53 Tb40 2.303 1_545 S
O53 C63 1.257 . S
O54 Tb41 2.415 . S
O54 C70 1.239 . S
O55 Tb41 2.399 . S
O55 C70 1.263 . S
O56 Tb41 2.325 . S
O56 C71 1.236 . S
O57 Tb40 2.322 1_545 S
O57 C71 1.257 . S
O58 Tb40 2.349 1_545 S
O58 C42 1.261 . S
O59 Tb41 2.303 . S
O59 C42 1.257 . S
C60 O50 1.236 . S
C60 O51 1.257 . S
O61 Tb40 2.415 . S
O61 C49 1.239 . S
O62 Tb40 2.399 . S
O62 C49 1.263 . S
C63 O52 1.261 . S
C63 O53 1.257 . S
C64 C67 1.358 . S
C64 C68 1.332 . S
C64 C70 1.504 . S
C65 C66 1.373 . S
C65 C69 1.308 . S
C66 C65 1.373 . S
C66 C67 1.429 . S
C66 H76 0.932 . S
C67 C64 1.358 . S
C67 C66 1.429 . S
C67 H77 0.930 . S
C68 C64 1.332 . S
C68 C69 1.394 . S
C68 H78 0.932 . S
C69 C65 1.308 . S
C69 C68 1.394 . S
C69 H79 0.929 . S
C70 Tb41 2.764 . S
C70 O54 1.239 . S
C70 O55 1.263 . S
C70 C64 1.504 . S
C71 O56 1.236 . S
C71 O57 1.257 . S
H72 C45 0.932 . S
H73 C46 0.930 . S
H74 C47 0.932 . S
H75 C48 0.929 . S
H76 C66 0.932 . S
H77 C67 0.930 . S
H78 C68 0.932 . S
H79 C69 0.929 . S
Tb80 C89 2.764 . S
Tb80 O90 2.325 . S
Tb80 O93 2.303 . S
Tb80 O97 2.322 . S
Tb80 O98 2.349 . S
Tb80 O101 2.415 . S
Tb80 O102 2.399 . S
Tb81 O91 2.322 . S
Tb81 O92 2.349 . S
Tb81 O94 2.415 . S
Tb81 O95 2.399 . S
Tb81 O96 2.325 . S
Tb81 O99 2.303 . S
Tb81 C110 2.764 . S
C82 O98 1.261 . S
C82 O99 1.257 . S
C83 C86 1.358 . S
C83 C87 1.332 . S
C83 C89 1.504 . S
C84 C85 1.373 . S
C84 C88 1.308 . S
C85 C84 1.373 . S
C85 C86 1.429 . S
C85 H112 0.932 . S
C86 C83 1.358 . S
C86 C85 1.429 . S
C86 H113 0.930 . S
C87 C83 1.332 . S
C87 C88 1.394 . S
C87 H114 0.932 . S
C88 C84 1.308 . S
C88 C87 1.394 . S
C88 H115 0.929 . S
C89 Tb80 2.764 . S
C89 C83 1.504 . S
C89 O101 1.239 . S
C89 O102 1.263 . S
O90 Tb80 2.325 . S
O90 C100 1.236 . S
O91 Tb81 2.322 . S
O91 C100 1.257 . S
O92 Tb81 2.349 . S
O92 C103 1.261 . S
O93 Tb80 2.303 . S
O93 C103 1.257 . S
O94 Tb81 2.415 . S
O94 C110 1.239 . S
O95 Tb81 2.399 . S
O95 C110 1.263 . S
O96 Tb81 2.325 . S
O96 C111 1.236 . S
O97 Tb80 2.322 . S
O97 C111 1.257 . S
O98 Tb80 2.349 . S
O98 C82 1.261 . S
O99 Tb81 2.303 . S
O99 C82 1.257 . S
C100 O90 1.236 . S
C100 O91 1.257 . S
O101 Tb80 2.415 . S
O101 C89 1.239 . S
O102 Tb80 2.399 . S
O102 C89 1.263 . S
C103 O92 1.261 . S
C103 O93 1.257 . S
C104 C107 1.358 . S
C104 C108 1.332 . S
C104 C110 1.504 . S
C105 C106 1.373 . S
C105 C109 1.308 . S
C106 C105 1.373 . S
C106 C107 1.429 . S
C106 H116 0.932 . S
C107 C104 1.358 . S
C107 C106 1.429 . S
C107 H117 0.930 . S
C108 C104 1.332 . S
C108 C109 1.394 . S
C108 H118 0.932 . S
C109 C105 1.308 . S
C109 C108 1.394 . S
C109 H119 0.929 . S
C110 Tb81 2.764 . S
C110 O94 1.239 . S
C110 O95 1.263 . S
C110 C104 1.504 . S
C111 O96 1.236 . S
C111 O97 1.257 . S
H112 C85 0.932 . S
H113 C86 0.930 . S
H114 C87 0.932 . S
H115 C88 0.929 . S
H116 C106 0.932 . S
H117 C107 0.930 . S
H118 C108 0.932 . S
H119 C109 0.929 . S
C120 C121 1.264 . S
C120 C125 1.479 . S
C120 C130 1.465 . S
C121 C120 1.264 . S
C121 C123 1.339 . S
C121 H148 0.931 . S
C122 C123 1.395 . S
C122 C124 1.320 . S
C123 C121 1.339 . S
C123 C122 1.395 . S
C123 H149 0.929 . S
C124 C122 1.320 . S
C124 C125 1.405 . S
C124 H150 0.930 . S
C125 C120 1.479 . S
C125 C124 1.405 . S
C125 H151 0.931 . S
U126 O127 2.454 1_545 S
U126 O128 2.458 1_545 S
U126 C129 2.984 1_545 S
U126 C130 2.847 . S
U126 C143 2.882 . S
U126 O144 2.441 . S
U126 O145 2.420 . S
U126 O146 2.455 . S
U126 O147 2.449 . S
O127 U126 2.454 1_565 S
O127 C129 1.353 . S
O128 U126 2.458 1_565 S
O128 C129 1.286 . S
C129 U126 2.984 1_565 S
C129 O127 1.353 . S
C129 O128 1.286 . S
C129 C131 1.363 . S
C130 C120 1.465 . S
C130 U126 2.847 . S
C130 O144 1.249 . S
C130 O145 1.202 . S
C131 C129 1.363 . S
C131 C133 1.408 . S
C131 C136 1.342 . S
C132 C133 1.310 . S
C132 C135 1.461 . S
C132 H152 0.932 . S
C133 C131 1.408 . S
C133 C132 1.310 . S
C133 H153 0.930 . S
C134 C135 1.474 . S
C134 C136 1.285 . S
C134 H154 0.929 . S
C135 C132 1.461 . S
C135 C134 1.474 . S
C136 C131 1.342 . S
C136 C134 1.285 . S
C136 H155 0.930 . S
C137 C140 1.424 . S
C137 C142 1.245 . S
C137 C143 1.428 . S
C138 C141 1.260 . S
C138 C142 1.477 . S
C138 H156 0.932 . S
C139 C140 1.384 . S
C139 C141 1.479 . S
C139 H157 0.929 . S
C140 C137 1.424 . S
C140 C139 1.384 . S
C140 H158 0.928 . S
C141 C138 1.260 . S
C141 C139 1.479 . S
C142 C137 1.245 . S
C142 C138 1.477 . S
C142 H159 0.932 1_545 S
C143 U126 2.882 . S
C143 C137 1.428 . S
C143 O146 1.301 . S
C143 O147 1.282 . S
O144 U126 2.441 . S
O144 C130 1.249 . S
O145 U126 2.420 . S
O145 C130 1.202 . S
O146 U126 2.455 . S
O146 C143 1.301 . S
O147 U126 2.449 . S
O147 C143 1.282 . S
H148 C121 0.931 . S
H149 C123 0.929 . S
H150 C124 0.930 . S
H151 C125 0.931 . S
H152 C132 0.932 . S
H153 C133 0.930 . S
H154 C134 0.929 . S
H155 C136 0.930 . S
H156 C138 0.932 . S
H157 C139 0.929 . S
H158 C140 0.928 . S
H159 C142 0.932 1_565 S
C160 C161 1.264 . S
C160 C165 1.479 . S
C160 C170 1.465 . S
C161 C160 1.264 . S
C161 C163 1.339 . S
C161 H188 0.931 . S
C162 C163 1.395 . S
C162 C164 1.320 . S
C163 C161 1.339 . S
C163 C162 1.395 . S
C163 H189 0.929 . S
C164 C162 1.320 . S
C164 C165 1.405 . S
C164 H190 0.930 . S
C165 C160 1.479 . S
C165 C164 1.405 . S
C165 H191 0.931 . S
U166 O167 2.454 . S
U166 O168 2.458 . S
U166 C169 2.984 . S
U166 C170 2.847 . S
U166 C183 2.882 . S
U166 O184 2.441 . S
U166 O185 2.420 . S
U166 O186 2.455 . S
U166 O187 2.449 . S
O167 U166 2.454 . S
O167 C169 1.353 . S
O168 U166 2.458 . S
O168 C169 1.286 . S
C169 U166 2.984 . S
C169 O167 1.353 . S
C169 O168 1.286 . S
C169 C171 1.363 . S
C170 C160 1.465 . S
C170 U166 2.847 . S
C170 O184 1.249 . S
C170 O185 1.202 . S
C171 C169 1.363 . S
C171 C173 1.408 . S
C171 C176 1.342 . S
C172 C173 1.310 . S
C172 C175 1.461 . S
C172 H192 0.932 . S
C173 C171 1.408 . S
C173 C172 1.310 . S
C173 H193 0.930 . S
C174 C175 1.474 . S
C174 C176 1.285 . S
C174 H194 0.929 . S
C175 C172 1.461 . S
C175 C174 1.474 . S
C176 C171 1.342 . S
C176 C174 1.285 . S
C176 H195 0.930 . S
C177 C180 1.424 . S
C177 C182 1.245 . S
C177 C183 1.428 . S
C178 C181 1.260 . S
C178 C182 1.477 . S
C178 H196 0.932 . S
C179 C180 1.384 . S
C179 C181 1.479 . S
C179 H197 0.929 . S
C180 C177 1.424 . S
C180 C179 1.384 . S
C180 H198 0.928 . S
C181 C178 1.260 . S
C181 C179 1.479 . S
C182 C177 1.245 . S
C182 C178 1.477 . S
C182 H199 0.932 . S
C183 U166 2.882 . S
C183 C177 1.428 . S
C183 O186 1.301 . S
C183 O187 1.282 . S
O184 U166 2.441 . S
O184 C170 1.249 . S
O185 U166 2.420 . S
O185 C170 1.202 . S
O186 U166 2.455 . S
O186 C183 1.301 . S
O187 U166 2.449 . S
O187 C183 1.282 . S
H188 C161 0.931 . S
H189 C163 0.929 . S
H190 C164 0.930 . S
H191 C165 0.931 . S
H192 C172 0.932 . S
H193 C173 0.930 . S
H194 C174 0.929 . S
H195 C176 0.930 . S
H196 C178 0.932 . S
H197 C179 0.929 . S
H198 C180 0.928 . S
H199 C182 0.932 . S
C200 C201 1.264 . S
C200 C205 1.479 . S
C200 C210 1.465 . S
C201 C200 1.264 . S
C201 C203 1.339 . S
C201 H228 0.931 . S
C202 C203 1.395 . S
C202 C204 1.320 . S
C203 C201 1.339 . S
C203 C202 1.395 . S
C203 H229 0.929 . S
C204 C202 1.320 . S
C204 C205 1.405 . S
C204 H230 0.930 . S
C205 C200 1.479 . S
C205 C204 1.405 . S
C205 H231 0.931 . S
U206 O207 2.454 . S
U206 O208 2.458 . S
U206 C209 2.984 . S
U206 C210 2.847 1_455 S
U206 C223 2.882 . S
U206 O224 2.441 . S
U206 O225 2.420 1_455 S
U206 O226 2.455 . S
U206 O227 2.449 . S
O207 U206 2.454 . S
O207 C209 1.353 . S
O208 U206 2.458 . S
O208 C209 1.286 . S
C209 U206 2.984 . S
C209 O207 1.353 . S
C209 O208 1.286 . S
C209 C211 1.363 . S
C210 C200 1.465 . S
C210 U206 2.847 1_655 S
C210 O224 1.249 1_655 S
C210 O225 1.202 . S
C211 C209 1.363 . S
C211 C213 1.408 . S
C211 C216 1.342 . S
C212 C213 1.310 . S
C212 C215 1.461 . S
C212 H232 0.932 . S
C213 C211 1.408 . S
C213 C212 1.310 . S
C213 H233 0.930 . S
C214 C215 1.474 . S
C214 C216 1.285 . S
C214 H234 0.929 . S
C215 C212 1.461 . S
C215 C214 1.474 . S
C216 C211 1.342 . S
C216 C214 1.285 . S
C216 H235 0.930 . S
C217 C220 1.424 . S
C217 C222 1.245 . S
C217 C223 1.428 . S
C218 C221 1.273 . S
C218 C222 1.453 1_554 S
C218 H236 0.945 . S
C219 C220 1.384 . S
C219 C221 1.479 1_556 S
C219 H237 0.929 1_456 S
C220 C217 1.424 . S
C220 C219 1.384 . S
C220 H238 0.928 1_455 S
C221 C218 1.273 . S
C221 C219 1.479 1_554 S
C222 C217 1.245 . S
C222 C218 1.453 1_556 S
C222 H239 0.932 . S
C223 U206 2.882 . S
C223 C217 1.428 . S
C223 O226 1.301 . S
C223 O227 1.282 . S
O224 U206 2.441 . S
O224 C210 1.249 1_455 S
O225 U206 2.420 1_655 S
O225 C210 1.202 . S
O226 U206 2.455 . S
O226 C223 1.301 . S
O227 U206 2.449 . S
O227 C223 1.282 . S
H228 C201 0.931 . S
H229 C203 0.929 . S
H230 C204 0.930 . S
H231 C205 0.931 . S
H232 C212 0.932 . S
H233 C213 0.930 . S
H234 C214 0.929 . S
H235 C216 0.930 . S
H236 C218 0.945 . S
H237 C219 0.929 1_654 S
H238 C220 0.928 1_655 S
H239 C222 0.932 . S
C240 C241 1.264 . S
C240 C245 1.479 . S
C240 C250 1.465 . S
C241 C240 1.264 . S
C241 C243 1.339 . S
C241 H268 0.931 . S
C242 C243 1.395 . S
C242 C244 1.320 . S
C243 C241 1.339 . S
C243 C242 1.395 . S
C243 H269 0.929 . S
C244 C242 1.320 . S
C244 C245 1.405 . S
C244 H270 0.930 . S
C245 C240 1.479 . S
C245 C244 1.405 . S
C245 H271 0.931 . S
U246 O247 2.454 1_655 S
U246 O248 2.458 1_655 S
U246 C249 2.984 1_655 S
U246 C250 2.847 . S
U246 C263 2.882 . S
U246 O264 2.441 . S
U246 O265 2.420 . S
U246 O266 2.455 1_655 S
U246 O267 2.449 . S
O247 U246 2.454 1_455 S
O247 C249 1.353 . S
O248 U246 2.458 1_455 S
O248 C249 1.286 . S
C249 U246 2.984 1_455 S
C249 O247 1.353 . S
C249 O248 1.286 . S
C249 C251 1.363 . S
C250 C240 1.465 . S
C250 U246 2.847 . S
C250 O264 1.249 . S
C250 O265 1.202 . S
C251 C249 1.363 . S
C251 C253 1.408 . S
C251 C256 1.342 . S
C252 C253 1.310 . S
C252 C255 1.461 . S
C252 H272 0.932 . S
C253 C251 1.408 . S
C253 C252 1.310 . S
C253 H273 0.930 . S
C254 C255 1.474 . S
C254 C256 1.285 . S
C254 H274 0.929 . S
C255 C252 1.461 . S
C255 C254 1.474 . S
C256 C251 1.342 . S
C256 C254 1.285 . S
C256 H275 0.930 . S
C257 C260 1.424 . S
C257 C262 1.245 1_655 S
C257 C263 1.428 . S
C258 C261 1.260 1_455 S
C258 C262 1.477 . S
C258 H276 0.932 . S
C259 C260 1.384 . S
C259 C261 1.479 . S
C259 H277 0.929 . S
C260 C257 1.424 . S
C260 C259 1.384 . S
C260 H278 0.928 . S
C261 C258 1.260 1_655 S
C261 C259 1.479 . S
C262 C257 1.245 1_455 S
C262 C258 1.477 . S
C262 H279 0.932 . S
C263 U246 2.882 . S
C263 C257 1.428 . S
C263 O266 1.301 1_655 S
C263 O267 1.282 . S
O264 U246 2.441 . S
O264 C250 1.249 . S
O265 U246 2.420 . S
O265 C250 1.202 . S
O266 U246 2.455 1_455 S
O266 C263 1.301 1_455 S
O267 U246 2.449 . S
O267 C263 1.282 . S
H268 C241 0.931 . S
H269 C243 0.929 . S
H270 C244 0.930 . S
H271 C245 0.931 . S
H272 C252 0.932 . S
H273 C253 0.930 . S
H274 C254 0.929 . S
H275 C256 0.930 . S
H276 C258 0.932 . S
H277 C259 0.929 . S
H278 C260 0.928 . S
H279 C262 0.932 . S
C280 C281 1.264 . S
C280 C285 1.479 . S
C280 C290 1.465 . S
C281 C280 1.264 . S
C281 C283 1.339 . S
C281 H308 0.931 . S
C282 C283 1.395 . S
C282 C284 1.320 . S
C283 C281 1.339 . S
C283 C282 1.395 . S
C283 H309 0.929 . S
C284 C282 1.320 . S
C284 C285 1.405 . S
C284 H310 0.930 . S
C285 C280 1.479 . S
C285 C284 1.405 . S
C285 H311 0.931 . S
U286 O287 2.454 1_565 S
U286 O288 2.458 1_565 S
U286 C289 2.984 1_565 S
U286 C290 2.847 . S
U286 C303 2.882 . S
U286 O304 2.441 . S
U286 O305 2.420 . S
U286 O306 2.455 1_565 S
U286 O307 2.449 . S
O287 U286 2.454 1_545 S
O287 C289 1.353 . S
O288 U286 2.458 1_545 S
O288 C289 1.286 . S
C289 U286 2.984 1_545 S
C289 O287 1.353 . S
C289 O288 1.286 . S
C289 C291 1.363 . S
C290 C280 1.465 . S
C290 U286 2.847 . S
C290 O304 1.249 . S
C290 O305 1.202 . S
C291 C289 1.363 . S
C291 C293 1.408 . S
C291 C296 1.342 . S
C292 C293 1.310 . S
C292 C295 1.461 . S
C292 H312 0.932 . S
C293 C291 1.408 . S
C293 C292 1.310 . S
C293 H313 0.930 . S
C294 C295 1.474 . S
C294 C296 1.285 . S
C294 H314 0.929 . S
C295 C292 1.461 . S
C295 C294 1.474 . S
C296 C291 1.342 . S
C296 C294 1.285 . S
C296 H315 0.930 . S
C297 C300 1.424 . S
C297 C302 1.245 1_565 S
C297 C303 1.428 . S
C298 C301 1.260 1_545 S
C298 C302 1.477 . S
C298 H316 0.932 . S
C299 C300 1.384 . S
C299 C301 1.479 . S
C299 H317 0.929 . S
C300 C297 1.424 . S
C300 C299 1.384 . S
C300 H318 0.928 . S
C301 C298 1.260 1_565 S
C301 C299 1.479 . S
C302 C297 1.245 1_545 S
C302 C298 1.477 . S
C302 H319 0.932 . S
C303 U286 2.882 . S
C303 C297 1.428 . S
C303 O306 1.301 1_565 S
C303 O307 1.282 . S
O304 U286 2.441 . S
O304 C290 1.249 . S
O305 U286 2.420 . S
O305 C290 1.202 . S
O306 U286 2.455 1_545 S
O306 C303 1.301 1_545 S
O307 U286 2.449 . S
O307 C303 1.282 . S
H308 C281 0.931 . S
H309 C283 0.929 . S
H310 C284 0.930 . S
H311 C285 0.931 . S
H312 C292 0.932 . S
H313 C293 0.930 . S
H314 C294 0.929 . S
H315 C296 0.930 . S
H316 C298 0.932 . S
H317 C299 0.929 . S
H318 C300 0.928 . S
H319 C302 0.932 . S
C320 C321 1.264 . S
C320 C325 1.479 . S
C320 C330 1.465 . S
C321 C320 1.264 . S
C321 C323 1.339 . S
C321 H348 0.931 . S
C322 C323 1.395 . S
C322 C324 1.320 . S
C323 C321 1.339 . S
C323 C322 1.395 . S
C323 H349 0.929 . S
C324 C322 1.320 . S
C324 C325 1.405 . S
C324 H350 0.930 . S
C325 C320 1.479 . S
C325 C324 1.405 . S
C325 H351 0.931 . S
U326 O327 2.454 . S
U326 O328 2.458 . S
U326 C329 2.984 . S
U326 C330 2.847 . S
U326 C343 2.882 . S
U326 O344 2.441 . S
U326 O345 2.420 . S
U326 O346 2.455 . S
U326 O347 2.449 . S
O327 U326 2.454 . S
O327 C329 1.353 . S
O328 U326 2.458 . S
O328 C329 1.286 . S
C329 U326 2.984 . S
C329 O327 1.353 . S
C329 O328 1.286 . S
C329 C331 1.363 . S
C330 C320 1.465 . S
C330 U326 2.847 . S
C330 O344 1.249 . S
C330 O345 1.202 . S
C331 C329 1.363 . S
C331 C333 1.408 . S
C331 C336 1.342 . S
C332 C333 1.310 . S
C332 C335 1.461 . S
C332 H352 0.932 . S
C333 C331 1.408 . S
C333 C332 1.310 . S
C333 H353 0.930 . S
C334 C335 1.474 . S
C334 C336 1.285 . S
C334 H354 0.929 . S
C335 C332 1.461 . S
C335 C334 1.474 . S
C336 C331 1.342 . S
C336 C334 1.285 . S
C336 H355 0.930 . S
C337 C340 1.416 1_554 S
C337 C342 1.245 1_554 S
C337 C343 1.428 . S
C338 C341 1.260 . S
C338 C342 1.477 . S
C338 H356 0.932 . S
C339 C340 1.403 . S
C339 C341 1.479 . S
C339 H357 0.929 . S
C340 C337 1.416 1_556 S
C340 C339 1.403 . S
C340 H358 0.917 1_556 S
C341 C338 1.260 . S
C341 C339 1.479 . S
C342 C337 1.245 1_556 S
C342 C338 1.477 . S
C342 H359 0.932 1_556 S
C343 U326 2.882 . S
C343 C337 1.428 . S
C343 O346 1.301 . S
C343 O347 1.282 . S
O344 U326 2.441 . S
O344 C330 1.249 . S
O345 U326 2.420 . S
O345 C330 1.202 . S
O346 U326 2.455 . S
O346 C343 1.301 . S
O347 U326 2.449 . S
O347 C343 1.282 . S
H348 C321 0.931 . S
H349 C323 0.929 . S
H350 C324 0.930 . S
H351 C325 0.931 . S
H352 C332 0.932 . S
H353 C333 0.930 . S
H354 C334 0.929 . S
H355 C336 0.930 . S
H356 C338 0.932 . S
H357 C339 0.929 . S
H358 C340 0.917 1_554 S
H359 C342 0.932 1_554 S
C360 C361 1.369 . S
C360 C362 1.419 . S
C360 H364 0.930 . S
C361 C360 1.369 . S
C361 C370 1.429 . S
C362 C360 1.419 . S
C362 C363 1.363 . S
C362 H365 0.929 . S
C363 C362 1.363 . S
C363 C369 1.428 . S
H364 C360 0.930 . S
H365 C362 0.929 . S
S366 N367 1.613 . S
S366 N368 1.610 . S
N367 S366 1.613 . S
N367 C370 1.350 . S
N368 S366 1.610 . S
N368 C369 1.351 . S
C369 C363 1.428 . S
C369 N368 1.351 . S
C369 C370 1.434 . S
C370 C361 1.429 . S
C370 N367 1.350 . S
C370 C369 1.434 . S
C371 C372 1.369 . S
C371 C373 1.419 . S
C371 H375 0.930 . S
C372 C371 1.369 . S
C372 C381 1.429 . S
C373 C371 1.419 . S
C373 C374 1.363 . S
C373 H376 0.929 . S
C374 C373 1.363 . S
C374 C380 1.428 . S
H375 C371 0.930 . S
H376 C373 0.929 . S
S377 N378 1.613 . S
S377 N379 1.610 . S
N378 S377 1.613 . S
N378 C381 1.350 . S
N379 S377 1.610 . S
N379 C380 1.351 . S
C380 C374 1.428 . S
C380 N379 1.351 . S
C380 C381 1.434 . S
C381 C372 1.429 . S
C381 N378 1.350 . S
C381 C380 1.434 . S
C382 C383 1.369 . S
C382 C384 1.419 . S
C382 H386 0.930 . S
C383 C382 1.369 . S
C383 C392 1.429 . S
C384 C382 1.419 . S
C384 C385 1.363 . S
C384 H387 0.929 . S
C385 C384 1.363 . S
C385 C391 1.428 . S
H386 C382 0.930 . S
H387 C384 0.929 . S
S388 N389 1.613 . S
S388 N390 1.610 . S
N389 S388 1.613 . S
N389 C392 1.350 . S
N390 S388 1.610 . S
N390 C391 1.351 . S
C391 C385 1.428 . S
C391 N390 1.351 . S
C391 C392 1.434 . S
C392 C383 1.429 . S
C392 N389 1.350 . S
C392 C391 1.434 . S
C393 C394 1.369 . S
C393 C395 1.419 . S
C393 H397 0.930 . S
C394 C393 1.369 . S
C394 C403 1.429 . S
C395 C393 1.419 . S
C395 C396 1.363 . S
C395 H398 0.929 . S
C396 C395 1.363 . S
C396 C402 1.428 . S
H397 C393 0.930 . S
H398 C395 0.929 . S
S399 N400 1.613 . S
S399 N401 1.610 . S
N400 S399 1.613 . S
N400 C403 1.350 . S
N401 S399 1.610 . S
N401 C402 1.351 . S
C402 C396 1.428 . S
C402 N401 1.351 . S
C402 C403 1.434 . S
C403 C394 1.429 . S
C403 N400 1.350 . S
C403 C402 1.434 . S
C404 C405 1.369 . S
C404 C406 1.419 . S
C404 H408 0.930 . S
C405 C404 1.369 . S
C405 C414 1.429 . S
C406 C404 1.419 . S
C406 C407 1.363 . S
C406 H409 0.929 . S
C407 C406 1.363 . S
C407 C413 1.428 . S
H408 C404 0.930 . S
H409 C406 0.929 . S
S410 N411 1.613 . S
S410 N412 1.610 . S
N411 S410 1.613 . S
N411 C414 1.350 . S
N412 S410 1.610 . S
N412 C413 1.351 . S
C413 C407 1.428 . S
C413 N412 1.351 . S
C413 C414 1.434 . S
C414 C405 1.429 . S
C414 N411 1.350 . S
C414 C413 1.434 . S
C415 C416 1.369 . S
C415 C417 1.419 . S
C415 H419 0.930 . S
C416 C415 1.369 . S
C416 C425 1.429 . S
C417 C415 1.419 . S
C417 C418 1.363 . S
C417 H420 0.929 . S
C418 C417 1.363 . S
C418 C424 1.428 . S
H419 C415 0.930 . S
H420 C417 0.929 . S
S421 N422 1.613 . S
S421 N423 1.610 . S
N422 S421 1.613 . S
N422 C425 1.350 . S
N423 S421 1.610 . S
N423 C424 1.351 . S
C424 C418 1.428 . S
C424 N423 1.351 . S
C424 C425 1.434 . S
C425 C416 1.429 . S
C425 N422 1.350 . S
C425 C424 1.434 . S
C426 C427 1.369 . S
C426 C428 1.419 . S
C426 H430 0.930 . S
C427 C426 1.369 . S
C427 C436 1.429 . S
C428 C426 1.419 . S
C428 C429 1.363 . S
C428 H431 0.929 . S
C429 C428 1.363 . S
C429 C435 1.428 . S
H430 C426 0.930 . S
H431 C428 0.929 . S
S432 N433 1.613 . S
S432 N434 1.610 . S
N433 S432 1.613 . S
N433 C436 1.350 . S
N434 S432 1.610 . S
N434 C435 1.351 . S
C435 C429 1.428 . S
C435 N434 1.351 . S
C435 C436 1.434 . S
C436 C427 1.429 . S
C436 N433 1.350 . S
C436 C435 1.434 . S
C437 C438 1.369 . S
C437 C439 1.419 . S
C437 H441 0.930 . S
C438 C437 1.369 . S
C438 C447 1.429 . S
C439 C437 1.419 . S
C439 C440 1.363 . S
C439 H442 0.929 . S
C440 C439 1.363 . S
C440 C446 1.428 . S
H441 C437 0.930 . S
H442 C439 0.929 . S
S443 N444 1.613 . S
S443 N445 1.610 . S
N444 S443 1.613 . S
N444 C447 1.350 . S
N445 S443 1.610 . S
N445 C446 1.351 . S
C446 C440 1.428 . S
C446 N445 1.351 . S
C446 C447 1.434 . S
C447 C438 1.429 . S
C447 N444 1.350 . S
C447 C446 1.434 . S
C448 C449 1.369 . S
C448 C450 1.419 . S
C448 H452 0.930 . S
C449 C448 1.369 . S
C449 C458 1.429 . S
C450 C448 1.419 . S
C450 C451 1.363 . S
C450 H453 0.929 . S
C451 C450 1.363 . S
C451 C457 1.428 . S
H452 C448 0.930 . S
H453 C450 0.929 . S
S454 N455 1.613 . S
S454 N456 1.610 . S
N455 S454 1.613 . S
N455 C458 1.350 . S
N456 S454 1.610 . S
N456 C457 1.351 . S
C457 C451 1.428 . S
C457 N456 1.351 . S
C457 C458 1.434 . S
C458 C449 1.429 . S
C458 N455 1.350 . S
C458 C457 1.434 . S
C459 C460 1.369 . S
C459 C461 1.419 . S
C459 H463 0.930 . S
C460 C459 1.369 . S
C460 C469 1.429 . S
C461 C459 1.419 . S
C461 C462 1.363 . S
C461 H464 0.929 . S
C462 C461 1.363 . S
C462 C468 1.428 . S
H463 C459 0.930 . S
H464 C461 0.929 . S
S465 N466 1.613 . S
S465 N467 1.610 . S
N466 S465 1.613 . S
N466 C469 1.350 . S
N467 S465 1.610 . S
N467 C468 1.351 . S
C468 C462 1.428 . S
C468 N467 1.351 . S
C468 C469 1.434 . S
C469 C460 1.429 . S
C469 N466 1.350 . S
C469 C468 1.434 . S
C470 C471 1.369 . S
C470 C472 1.419 . S
C470 H474 0.930 . S
C471 C470 1.369 . S
C471 C480 1.429 . S
C472 C470 1.419 . S
C472 C473 1.363 . S
C472 H475 0.929 . S
C473 C472 1.363 . S
C473 C479 1.428 . S
H474 C470 0.930 . S
H475 C472 0.929 . S
S476 N477 1.613 . S
S476 N478 1.610 . S
N477 S476 1.613 . S
N477 C480 1.350 . S
N478 S476 1.610 . S
N478 C479 1.351 . S
C479 C473 1.428 . S
C479 N478 1.351 . S
C479 C480 1.434 . S
C480 C471 1.429 . S
C480 N477 1.350 . S
C480 C479 1.434 . S
C481 C482 1.369 . S
C481 C483 1.419 . S
C481 H485 0.930 . S
C482 C481 1.369 . S
C482 C491 1.429 . S
C483 C481 1.419 . S
C483 C484 1.363 . S
C483 H486 0.929 . S
C484 C483 1.363 . S
C484 C490 1.428 . S
H485 C481 0.930 . S
H486 C483 0.929 . S
S487 N488 1.613 . S
S487 N489 1.610 . S
N488 S487 1.613 . S
N488 C491 1.350 . S
N489 S487 1.610 . S
N489 C490 1.351 . S
C490 C484 1.428 . S
C490 N489 1.351 . S
C490 C491 1.434 . S
C491 C482 1.429 . S
C491 N488 1.350 . S
C491 C490 1.434 . S
C492 C493 1.369 . S
C492 C494 1.419 . S
C492 H496 0.930 . S
C493 C492 1.369 . S
C493 C502 1.429 . S
C494 C492 1.419 . S
C494 C495 1.363 . S
C494 H497 0.929 . S
C495 C494 1.363 . S
C495 C501 1.428 . S
H496 C492 0.930 . S
H497 C494 0.929 . S
S498 N499 1.613 . S
S498 N500 1.610 . S
N499 S498 1.613 . S
N499 C502 1.350 1_655 S
N500 S498 1.610 . S
N500 C501 1.351 1_655 S
C501 C495 1.428 . S
C501 N500 1.351 1_455 S
C501 C502 1.434 . S
C502 C493 1.429 . S
C502 N499 1.350 1_455 S
C502 C501 1.434 . S
C503 C504 1.369 . S
C503 C505 1.419 . S
C503 H507 0.930 . S
C504 C503 1.369 . S
C504 C513 1.429 . S
C505 C503 1.419 . S
C505 C506 1.363 . S
C505 H508 0.929 . S
C506 C505 1.363 . S
C506 C512 1.428 . S
H507 C503 0.930 . S
H508 C505 0.929 . S
S509 N510 1.613 . S
S509 N511 1.610 . S
N510 S509 1.613 . S
N510 C513 1.350 1_565 S
N511 S509 1.610 . S
N511 C512 1.351 1_565 S
C512 C506 1.428 . S
C512 N511 1.351 1_545 S
C512 C513 1.434 . S
C513 C504 1.429 . S
C513 N510 1.350 1_545 S
C513 C512 1.434 . S
C514 C515 1.369 . S
C514 C516 1.419 . S
C514 H518 0.930 . S
C515 C514 1.369 . S
C515 C524 1.429 . S
C516 C514 1.419 . S
C516 C517 1.363 . S
C516 H519 0.929 . S
C517 C516 1.363 . S
C517 C523 1.428 . S
H518 C514 0.930 . S
H519 C516 0.929 . S
S520 N521 1.613 . S
S520 N522 1.610 . S
N521 S520 1.613 . S
N521 C524 1.350 . S
N522 S520 1.610 . S
N522 C523 1.351 . S
C523 C517 1.428 . S
C523 N522 1.351 . S
C523 C524 1.434 . S
C524 C515 1.429 . S
C524 N521 1.350 . S
C524 C523 1.434 . S
C525 C526 1.369 . S
C525 C527 1.419 1_545 S
C525 H529 0.930 1_545 S
C526 C525 1.369 . S
C526 C535 1.429 . S
C527 C525 1.419 1_565 S
C527 C528 1.363 . S
C527 H530 0.929 . S
C528 C527 1.363 . S
C528 C534 1.428 1_565 S
H529 C525 0.930 1_565 S
H530 C527 0.929 . S
S531 N532 1.613 . S
S531 N533 1.610 . S
N532 S531 1.613 . S
N532 C535 1.350 . S
N533 S531 1.610 . S
N533 C534 1.351 . S
C534 C528 1.428 1_545 S
C534 N533 1.351 . S
C534 C535 1.434 . S
C535 C526 1.429 . S
C535 N532 1.350 . S
C535 C534 1.434 . S
C536 C537 1.369 . S
C536 C538 1.419 . S
C536 H540 0.930 . S
C537 C536 1.369 . S
C537 C546 1.429 . S
C538 C536 1.419 . S
C538 C539 1.363 . S
C538 H541 0.929 . S
C539 C538 1.363 . S
C539 C545 1.428 . S
H540 C536 0.930 . S
H541 C538 0.929 . S
S542 N543 1.613 . S
S542 N544 1.610 . S
N543 S542 1.613 . S
N543 C546 1.350 . S
N544 S542 1.610 . S
N544 C545 1.351 . S
C545 C539 1.428 . S
C545 N544 1.351 . S
C545 C546 1.434 . S
C546 C537 1.429 . S
C546 N543 1.350 . S
C546 C545 1.434 . S
C547 C548 1.369 . S
C547 C549 1.419 1_455 S
C547 H551 0.930 1_455 S
C548 C547 1.369 . S
C548 C557 1.429 . S
C549 C547 1.419 1_655 S
C549 C550 1.363 . S
C549 H552 0.929 . S
C550 C549 1.363 . S
C550 C556 1.428 1_655 S
H551 C547 0.930 1_655 S
H552 C549 0.929 . S
S553 N554 1.613 . S
S553 N555 1.610 . S
N554 S553 1.613 . S
N554 C557 1.350 . S
N555 S553 1.610 . S
N555 C556 1.351 . S
C556 C550 1.428 1_455 S
C556 N555 1.351 . S
C556 C557 1.434 . S
C557 C548 1.429 . S
C557 N554 1.350 . S
C557 C556 1.434 . S
C361 C25 0.620 . S
C363 C335 0.631 . S
C372 C65 0.602 . S
C374 C242 0.435 . S
C383 C105 0.672 . S
C385 C282 0.640 . S
C394 C4 0.677 . S
C396 C322 0.607 . S
C407 C255 0.539 . S
C405 C44 0.540 . S
C418 C295 0.646 . S
C416 C84 0.640 . S
C427 C60 3.058 . S
C429 C162 3.013 . S
C438 C100 3.247 . S
C440 C202 3.185 . S
C449 C31 3.307 . S
C451 C135 3.187 . S
C462 C175 3.188 . S
C460 C71 3.299 . S
C473 C215 3.026 . S
C471 C111 3.109 . S
C482 C20 3.061 . S
C484 C122 3.015 . S
C495 C221 1.794 . S
C493 C2 1.747 . S
C504 C42 1.776 . S
C506 C141 1.803 . S
C515 C82 1.771 . S
C517 C181 1.810 . S
C528 C301 1.123 . S
C526 C63 1.126 . S
C539 C341 1.163 . S
C537 C103 1.158 . S
C548 C23 1.086 . S
C550 C261 1.084 . S
