# Generated by pormake.
# Topology gar, (4,6)-cn, num edge types: 1
# Building blocks:
#     Node 0, Type 0, BuildingBlock: CEKHIL_clean_sbu_0, # of connection points: 4
#     Node 1, Type 0, BuildingBlock: CEKHIL_clean_sbu_0, # of connection points: 4
#     Node 2, Type 0, BuildingBlock: CEKHIL_clean_sbu_0, # of connection points: 4
#     Node 3, Type 0, BuildingBlock: CEKHIL_clean_sbu_0, # of connection points: 4
#     Node 4, Type 0, BuildingBlock: CEKHIL_clean_sbu_0, # of connection points: 4
#     Node 5, Type 0, BuildingBlock: CEKHIL_clean_sbu_0, # of connection points: 4
#     Node 6, Type 0, BuildingBlock: CEKHIL_clean_sbu_0, # of connection points: 4
#     Node 7, Type 0, BuildingBlock: CEKHIL_clean_sbu_0, # of connection points: 4
#     Node 8, Type 0, BuildingBlock: CEKHIL_clean_sbu_0, # of connection points: 4
#     Node 9, Type 0, BuildingBlock: CEKHIL_clean_sbu_0, # of connection points: 4
#     Node 10, Type 0, BuildingBlock: CEKHIL_clean_sbu_0, # of connection points: 4
#     Node 11, Type 0, BuildingBlock: CEKHIL_clean_sbu_0, # of connection points: 4
#     Node 12, Type 0, BuildingBlock: CEKHIL_clean_sbu_0, # of connection points: 4
#     Node 13, Type 0, BuildingBlock: CEKHIL_clean_sbu_0, # of connection points: 4
#     Node 14, Type 0, BuildingBlock: CEKHIL_clean_sbu_0, # of connection points: 4
#     Node 15, Type 0, BuildingBlock: CEKHIL_clean_sbu_0, # of connection points: 4
#     Node 16, Type 0, BuildingBlock: CEKHIL_clean_sbu_0, # of connection points: 4
#     Node 17, Type 0, BuildingBlock: CEKHIL_clean_sbu_0, # of connection points: 4
#     Node 18, Type 0, BuildingBlock: CEKHIL_clean_sbu_0, # of connection points: 4
#     Node 19, Type 0, BuildingBlock: CEKHIL_clean_sbu_0, # of connection points: 4
#     Node 20, Type 0, BuildingBlock: CEKHIL_clean_sbu_0, # of connection points: 4
#     Node 21, Type 0, BuildingBlock: CEKHIL_clean_sbu_0, # of connection points: 4
#     Node 22, Type 0, BuildingBlock: CEKHIL_clean_sbu_0, # of connection points: 4
#     Node 23, Type 0, BuildingBlock: CEKHIL_clean_sbu_0, # of connection points: 4
#     Node 24, Type 1, BuildingBlock: BETDAH_clean_sbu_0, # of connection points: 6
#     Node 25, Type 1, BuildingBlock: BETDAH_clean_sbu_0, # of connection points: 6
#     Node 26, Type 1, BuildingBlock: BETDAH_clean_sbu_0, # of connection points: 6
#     Node 27, Type 1, BuildingBlock: BETDAH_clean_sbu_0, # of connection points: 6
#     Node 28, Type 1, BuildingBlock: BETDAH_clean_sbu_0, # of connection points: 6
#     Node 29, Type 1, BuildingBlock: BETDAH_clean_sbu_0, # of connection points: 6
#     Node 30, Type 1, BuildingBlock: BETDAH_clean_sbu_0, # of connection points: 6
#     Node 31, Type 1, BuildingBlock: BETDAH_clean_sbu_0, # of connection points: 6
#     Node 32, Type 1, BuildingBlock: BETDAH_clean_sbu_0, # of connection points: 6
#     Node 33, Type 1, BuildingBlock: BETDAH_clean_sbu_0, # of connection points: 6
#     Node 34, Type 1, BuildingBlock: BETDAH_clean_sbu_0, # of connection points: 6
#     Node 35, Type 1, BuildingBlock: BETDAH_clean_sbu_0, # of connection points: 6
#     Node 36, Type 1, BuildingBlock: BETDAH_clean_sbu_0, # of connection points: 6
#     Node 37, Type 1, BuildingBlock: BETDAH_clean_sbu_0, # of connection points: 6
#     Node 38, Type 1, BuildingBlock: BETDAH_clean_sbu_0, # of connection points: 6
#     Node 39, Type 1, BuildingBlock: BETDAH_clean_sbu_0, # of connection points: 6
#     Edge 40, Type (0, 1), BuildingBlock: KIFKEQ_clean_linker_1, # of connection points: 2
#     Edge 41, Type (0, 1), BuildingBlock: KIFKEQ_clean_linker_1, # of connection points: 2
#     Edge 42, Type (0, 1), BuildingBlock: KIFKEQ_clean_linker_1, # of connection points: 2
#     Edge 43, Type (0, 1), BuildingBlock: KIFKEQ_clean_linker_1, # of connection points: 2
#     Edge 44, Type (0, 1), BuildingBlock: KIFKEQ_clean_linker_1, # of connection points: 2
#     Edge 45, Type (0, 1), BuildingBlock: KIFKEQ_clean_linker_1, # of connection points: 2
#     Edge 46, Type (0, 1), BuildingBlock: KIFKEQ_clean_linker_1, # of connection points: 2
#     Edge 47, Type (0, 1), BuildingBlock: KIFKEQ_clean_linker_1, # of connection points: 2
#     Edge 48, Type (0, 1), BuildingBlock: KIFKEQ_clean_linker_1, # of connection points: 2
#     Edge 49, Type (0, 1), BuildingBlock: KIFKEQ_clean_linker_1, # of connection points: 2
#     Edge 50, Type (0, 1), BuildingBlock: KIFKEQ_clean_linker_1, # of connection points: 2
#     Edge 51, Type (0, 1), BuildingBlock: KIFKEQ_clean_linker_1, # of connection points: 2
#     Edge 52, Type (0, 1), BuildingBlock: KIFKEQ_clean_linker_1, # of connection points: 2
#     Edge 53, Type (0, 1), BuildingBlock: KIFKEQ_clean_linker_1, # of connection points: 2
#     Edge 54, Type (0, 1), BuildingBlock: KIFKEQ_clean_linker_1, # of connection points: 2
#     Edge 55, Type (0, 1), BuildingBlock: KIFKEQ_clean_linker_1, # of connection points: 2
#     Edge 56, Type (0, 1), BuildingBlock: KIFKEQ_clean_linker_1, # of connection points: 2
#     Edge 57, Type (0, 1), BuildingBlock: KIFKEQ_clean_linker_1, # of connection points: 2
#     Edge 58, Type (0, 1), BuildingBlock: KIFKEQ_clean_linker_1, # of connection points: 2
#     Edge 59, Type (0, 1), BuildingBlock: KIFKEQ_clean_linker_1, # of connection points: 2
#     Edge 60, Type (0, 1), BuildingBlock: KIFKEQ_clean_linker_1, # of connection points: 2
#     Edge 61, Type (0, 1), BuildingBlock: KIFKEQ_clean_linker_1, # of connection points: 2
#     Edge 62, Type (0, 1), BuildingBlock: KIFKEQ_clean_linker_1, # of connection points: 2
#     Edge 63, Type (0, 1), BuildingBlock: KIFKEQ_clean_linker_1, # of connection points: 2
#     Edge 64, Type (0, 1), BuildingBlock: KIFKEQ_clean_linker_1, # of connection points: 2
#     Edge 65, Type (0, 1), BuildingBlock: KIFKEQ_clean_linker_1, # of connection points: 2
#     Edge 66, Type (0, 1), BuildingBlock: KIFKEQ_clean_linker_1, # of connection points: 2
#     Edge 67, Type (0, 1), BuildingBlock: KIFKEQ_clean_linker_1, # of connection points: 2
#     Edge 68, Type (0, 1), BuildingBlock: KIFKEQ_clean_linker_1, # of connection points: 2
#     Edge 69, Type (0, 1), BuildingBlock: KIFKEQ_clean_linker_1, # of connection points: 2
#     Edge 70, Type (0, 1), BuildingBlock: KIFKEQ_clean_linker_1, # of connection points: 2
#     Edge 71, Type (0, 1), BuildingBlock: KIFKEQ_clean_linker_1, # of connection points: 2
#     Edge 72, Type (0, 1), BuildingBlock: KIFKEQ_clean_linker_1, # of connection points: 2
#     Edge 73, Type (0, 1), BuildingBlock: KIFKEQ_clean_linker_1, # of connection points: 2
#     Edge 74, Type (0, 1), BuildingBlock: KIFKEQ_clean_linker_1, # of connection points: 2
#     Edge 75, Type (0, 1), BuildingBlock: KIFKEQ_clean_linker_1, # of connection points: 2
#     Edge 76, Type (0, 1), BuildingBlock: KIFKEQ_clean_linker_1, # of connection points: 2
#     Edge 77, Type (0, 1), BuildingBlock: KIFKEQ_clean_linker_1, # of connection points: 2
#     Edge 78, Type (0, 1), BuildingBlock: KIFKEQ_clean_linker_1, # of connection points: 2
#     Edge 79, Type (0, 1), BuildingBlock: KIFKEQ_clean_linker_1, # of connection points: 2
#     Edge 80, Type (0, 1), BuildingBlock: KIFKEQ_clean_linker_1, # of connection points: 2
#     Edge 81, Type (0, 1), BuildingBlock: KIFKEQ_clean_linker_1, # of connection points: 2
#     Edge 82, Type (0, 1), BuildingBlock: KIFKEQ_clean_linker_1, # of connection points: 2
#     Edge 83, Type (0, 1), BuildingBlock: KIFKEQ_clean_linker_1, # of connection points: 2
#     Edge 84, Type (0, 1), BuildingBlock: KIFKEQ_clean_linker_1, # of connection points: 2
#     Edge 85, Type (0, 1), BuildingBlock: KIFKEQ_clean_linker_1, # of connection points: 2
#     Edge 86, Type (0, 1), BuildingBlock: KIFKEQ_clean_linker_1, # of connection points: 2
#     Edge 87, Type (0, 1), BuildingBlock: KIFKEQ_clean_linker_1, # of connection points: 2
#     Edge 88, Type (0, 1), BuildingBlock: KIFKEQ_clean_linker_1, # of connection points: 2
#     Edge 89, Type (0, 1), BuildingBlock: KIFKEQ_clean_linker_1, # of connection points: 2
#     Edge 90, Type (0, 1), BuildingBlock: KIFKEQ_clean_linker_1, # of connection points: 2
#     Edge 91, Type (0, 1), BuildingBlock: KIFKEQ_clean_linker_1, # of connection points: 2
#     Edge 92, Type (0, 1), BuildingBlock: KIFKEQ_clean_linker_1, # of connection points: 2
#     Edge 93, Type (0, 1), BuildingBlock: KIFKEQ_clean_linker_1, # of connection points: 2
#     Edge 94, Type (0, 1), BuildingBlock: KIFKEQ_clean_linker_1, # of connection points: 2
#     Edge 95, Type (0, 1), BuildingBlock: KIFKEQ_clean_linker_1, # of connection points: 2
#     Edge 96, Type (0, 1), BuildingBlock: KIFKEQ_clean_linker_1, # of connection points: 2
#     Edge 97, Type (0, 1), BuildingBlock: KIFKEQ_clean_linker_1, # of connection points: 2
#     Edge 98, Type (0, 1), BuildingBlock: KIFKEQ_clean_linker_1, # of connection points: 2
#     Edge 99, Type (0, 1), BuildingBlock: KIFKEQ_clean_linker_1, # of connection points: 2
#     Edge 100, Type (0, 1), BuildingBlock: KIFKEQ_clean_linker_1, # of connection points: 2
#     Edge 101, Type (0, 1), BuildingBlock: KIFKEQ_clean_linker_1, # of connection points: 2
#     Edge 102, Type (0, 1), BuildingBlock: KIFKEQ_clean_linker_1, # of connection points: 2
#     Edge 103, Type (0, 1), BuildingBlock: KIFKEQ_clean_linker_1, # of connection points: 2
#     Edge 104, Type (0, 1), BuildingBlock: KIFKEQ_clean_linker_1, # of connection points: 2
#     Edge 105, Type (0, 1), BuildingBlock: KIFKEQ_clean_linker_1, # of connection points: 2
#     Edge 106, Type (0, 1), BuildingBlock: KIFKEQ_clean_linker_1, # of connection points: 2
#     Edge 107, Type (0, 1), BuildingBlock: KIFKEQ_clean_linker_1, # of connection points: 2
#     Edge 108, Type (0, 1), BuildingBlock: KIFKEQ_clean_linker_1, # of connection points: 2
#     Edge 109, Type (0, 1), BuildingBlock: KIFKEQ_clean_linker_1, # of connection points: 2
#     Edge 110, Type (0, 1), BuildingBlock: KIFKEQ_clean_linker_1, # of connection points: 2
#     Edge 111, Type (0, 1), BuildingBlock: KIFKEQ_clean_linker_1, # of connection points: 2
#     Edge 112, Type (0, 1), BuildingBlock: KIFKEQ_clean_linker_1, # of connection points: 2
#     Edge 113, Type (0, 1), BuildingBlock: KIFKEQ_clean_linker_1, # of connection points: 2
#     Edge 114, Type (0, 1), BuildingBlock: KIFKEQ_clean_linker_1, # of connection points: 2
#     Edge 115, Type (0, 1), BuildingBlock: KIFKEQ_clean_linker_1, # of connection points: 2
#     Edge 116, Type (0, 1), BuildingBlock: KIFKEQ_clean_linker_1, # of connection points: 2
#     Edge 117, Type (0, 1), BuildingBlock: KIFKEQ_clean_linker_1, # of connection points: 2
#     Edge 118, Type (0, 1), BuildingBlock: KIFKEQ_clean_linker_1, # of connection points: 2
#     Edge 119, Type (0, 1), BuildingBlock: KIFKEQ_clean_linker_1, # of connection points: 2
#     Edge 120, Type (0, 1), BuildingBlock: KIFKEQ_clean_linker_1, # of connection points: 2
#     Edge 121, Type (0, 1), BuildingBlock: KIFKEQ_clean_linker_1, # of connection points: 2
#     Edge 122, Type (0, 1), BuildingBlock: KIFKEQ_clean_linker_1, # of connection points: 2
#     Edge 123, Type (0, 1), BuildingBlock: KIFKEQ_clean_linker_1, # of connection points: 2
#     Edge 124, Type (0, 1), BuildingBlock: KIFKEQ_clean_linker_1, # of connection points: 2
#     Edge 125, Type (0, 1), BuildingBlock: KIFKEQ_clean_linker_1, # of connection points: 2
#     Edge 126, Type (0, 1), BuildingBlock: KIFKEQ_clean_linker_1, # of connection points: 2
#     Edge 127, Type (0, 1), BuildingBlock: KIFKEQ_clean_linker_1, # of connection points: 2
#     Edge 128, Type (0, 1), BuildingBlock: KIFKEQ_clean_linker_1, # of connection points: 2
#     Edge 129, Type (0, 1), BuildingBlock: KIFKEQ_clean_linker_1, # of connection points: 2
#     Edge 130, Type (0, 1), BuildingBlock: KIFKEQ_clean_linker_1, # of connection points: 2
#     Edge 131, Type (0, 1), BuildingBlock: KIFKEQ_clean_linker_1, # of connection points: 2
#     Edge 132, Type (0, 1), BuildingBlock: KIFKEQ_clean_linker_1, # of connection points: 2
#     Edge 133, Type (0, 1), BuildingBlock: KIFKEQ_clean_linker_1, # of connection points: 2
#     Edge 134, Type (0, 1), BuildingBlock: KIFKEQ_clean_linker_1, # of connection points: 2
#     Edge 135, Type (0, 1), BuildingBlock: KIFKEQ_clean_linker_1, # of connection points: 2
# Relax obj value: 0.188
# Max RMSD: 0.304
# Mean RMSD: 0.157
data_MOF--net-gar--node1-CEKHIL_clean_sbu_0--node2-BETDAH_clean_sbu_0--edge1-KIFKEQ_clean_linker_1
_symmetry_space_group_name_H-M    P1
_symmetry_Int_Tables_number       1
_symmetry_cell_setting            triclinic
loop_
_symmetry_equiv_pos_as_xyz
'x, y, z'
_cell_length_a     63.105816
_cell_length_b     56.610874
_cell_length_c     56.123405
_cell_angle_alpha  98.172748
_cell_angle_beta   95.136462
_cell_angle_gamma 102.06976
loop_
_atom_site_label
_atom_site_type_symbol
_atom_site_fract_x
_atom_site_fract_y
_atom_site_fract_z
_atom_type_partial_charge
Co0 Co 0.13802 0.36718 0.39726 0.0
O1 O 0.16835 0.36862 0.39515 0.0
O2 O 0.14108 0.34791 0.36727 0.0
C3 C 0.14148 0.40744 0.40896 0.0
O4 O 0.1052 0.36255 0.39225 0.0
Co5 Co 0.12102 0.38298 0.44582 0.0
O6 O 0.09389 0.38233 0.42455 0.0
C7 C 0.1339 0.33558 0.43676 0.0
C8 C 0.16198 0.3551 0.37397 0.0
C9 C 0.09044 0.37099 0.40276 0.0
O10 O 0.13572 0.33795 0.41451 0.0
O11 O 0.1301 0.3524 0.45251 0.0
O12 O 0.14066 0.39865 0.38615 0.0
O13 O 0.14216 0.39216 0.42389 0.0
Co14 Co 0.99834 0.75839 0.6638 0.0
O15 O 0.96768 0.74723 0.66509 0.0
O16 O 0.99358 0.75365 0.69632 0.0
C17 C 0.99563 0.78868 0.64245 0.0
O18 O 0.03126 0.77023 0.6698 0.0
Co19 Co 1.0183 0.75737 0.6149 0.0
O20 O 0.04555 0.77614 0.63532 0.0
C21 C 1.00556 0.71185 0.63567 0.0
C22 C 0.97296 0.74718 0.688 0.0
C23 C 0.04751 0.77738 0.65829 0.0
O24 O 1.00136 0.72363 0.65531 0.0
O25 O 1.01094 0.72165 0.61725 0.0
O26 O 0.99521 0.79229 0.66579 0.0
O27 O 0.9958 0.76667 0.63281 0.0
Co28 Co 0.63569 0.86822 0.89669 0.0
O29 O 0.66582 0.86866 0.89398 0.0
O30 O 0.63774 0.84493 0.86904 0.0
C31 C 0.63923 0.90902 0.90224 0.0
O32 O 0.60289 0.86359 0.89259 0.0
Co33 Co 0.62063 0.89138 0.94382 0.0
O34 O 0.59226 0.88649 0.92331 0.0
C35 C 0.63082 0.8425 0.94086 0.0
C36 C 0.65876 0.85263 0.87441 0.0
C37 C 0.58825 0.87263 0.9027 0.0
O38 O 0.63381 0.84239 0.91842 0.0
O39 O 0.62719 0.86105 0.95442 0.0
O40 O 0.63764 0.8968 0.88055 0.0
O41 O 0.64064 0.89675 0.91986 0.0
Co42 Co 0.50547 0.26567 0.16546 0.0
O43 O 0.47496 0.25161 0.16497 0.0
O44 O 0.4997 0.25995 0.19747 0.0
C45 C 0.5006 0.29524 0.144 0.0
O46 O 0.53788 0.28079 0.17375 0.0
Co47 Co 0.52875 0.26934 0.11915 0.0
O48 O 0.55322 0.2917 0.14129 0.0
C49 C 0.51978 0.22262 0.13893 0.0
C50 C 0.4794 0.25213 0.18814 0.0
C51 C 0.55417 0.29138 0.16399 0.0
O52 O 0.5116 0.23217 0.15709 0.0
O53 O 0.52645 0.23401 0.12189 0.0
O54 O 0.49934 0.29829 0.16718 0.0
O55 O 0.50343 0.2742 0.13447 0.0
Co56 Co 0.10503 0.83667 0.14102 0.0
O57 O 0.07344 0.8317 0.13544 0.0
O58 O 0.09189 0.82789 0.16941 0.0
C59 C 0.11102 0.87257 0.12527 0.0
O60 O 0.13712 0.84097 0.15559 0.0
Co61 Co 0.13498 0.83804 0.102 0.0
O62 O 0.16019 0.84428 0.12766 0.0
C63 C 0.10751 0.79059 0.10711 0.0
C64 C 0.07311 0.82734 0.15753 0.0
C65 C 0.15663 0.84359 0.14954 0.0
O66 O 0.10293 0.80078 0.12748 0.0
O67 O 0.11839 0.8029 0.09299 0.0
O68 O 0.10749 0.87211 0.14767 0.0
O69 O 0.11067 0.85136 0.11276 0.0
Co70 Co 0.52737 0.78567 0.41933 0.0
O71 O 0.55868 0.78913 0.4232 0.0
O72 O 0.53704 0.77153 0.38955 0.0
C73 C 0.52859 0.82517 0.4357 0.0
O74 O 0.49432 0.78038 0.40774 0.0
Co75 Co 0.50252 0.7918 0.46343 0.0
O76 O 0.47801 0.79346 0.43943 0.0
C77 C 0.52152 0.74858 0.45406 0.0
C78 C 0.55683 0.77867 0.40079 0.0
C79 C 0.47758 0.7863 0.41678 0.0
O80 O 0.52387 0.75327 0.43244 0.0
O81 O 0.515 0.76307 0.46999 0.0
O82 O 0.53124 0.8193 0.41313 0.0
O83 O 0.5269 0.80741 0.44814 0.0
Co84 Co 0.60787 0.33644 0.63874 0.0
O85 O 0.57632 0.33185 0.633 0.0
O86 O 0.59449 0.32848 0.66729 0.0
C87 C 0.61398 0.37179 0.62199 0.0
O88 O 0.63994 0.34051 0.65358 0.0
Co89 Co 0.63835 0.33741 0.6003 0.0
O90 O 0.66342 0.34473 0.62616 0.0
C91 C 0.61177 0.2896 0.60668 0.0
C92 C 0.57581 0.32793 0.6552 0.0
C93 C 0.65962 0.34364 0.64788 0.0
O94 O 0.60535 0.30027 0.62575 0.0
O95 O 0.62377 0.30159 0.59322 0.0
O96 O 0.61077 0.3721 0.64458 0.0
O97 O 0.61358 0.35032 0.61009 0.0
Co98 Co 0.03121 0.28729 0.92083 0.0
O99 O 0.06254 0.29071 0.92494 0.0
O100 O 0.04101 0.27333 0.89114 0.0
C101 C 0.03243 0.32669 0.93746 0.0
O102 O 0.99828 0.28202 0.90863 0.0
Co103 Co 1.0053 0.29287 0.9639 0.0
O104 O 0.98136 0.29529 0.93965 0.0
C105 C 0.0227 0.24852 0.95405 0.0
C106 C 0.06074 0.28034 0.90248 0.0
C107 C 0.98136 0.28805 0.91711 0.0
O108 O 0.02756 0.25473 0.93357 0.0
O109 O 1.01481 0.26213 0.96949 0.0
O110 O 0.03524 0.32097 0.91492 0.0
O111 O 0.03041 0.30881 0.94978 0.0
Co112 Co 0.45427 0.06136 0.31172 0.0
O113 O 0.45776 0.09016 0.29628 0.0
O114 O 0.42669 0.06288 0.29594 0.0
C115 C 0.47456 0.07966 0.34699 0.0
O116 O 0.44279 0.03082 0.32535 0.0
Co117 Co 0.49057 0.03704 0.33 0.0
O118 O 0.46786 1.01434 0.34324 0.0
C119 C 0.47403 0.02814 0.27762 0.0
C120 C 0.43686 0.08278 0.28932 0.0
C121 C 0.44804 1.01468 0.3371 0.0
O122 O 0.45992 0.04116 0.28162 0.0
O123 O 0.48817 0.02529 0.29417 0.0
O124 O 0.45433 0.08132 0.34308 0.0
O125 O 0.48213 0.06818 0.3293 0.0
Co126 Co 0.29102 0.19465 0.49949 0.0
O127 O 0.3227 0.20117 0.50286 0.0
O128 O 0.30136 0.16706 0.5092 0.0
C129 C 0.28787 0.2082 0.46307 0.0
O130 O 0.25803 0.17972 0.49713 0.0
Co131 Co 0.2643 0.23364 0.49699 0.0
O132 O 0.2379 0.20663 0.48952 0.0
C133 C 0.28515 0.22856 0.54479 0.0
C134 C 0.32104 0.17941 0.50843 0.0
C135 C 0.23936 0.18518 0.49263 0.0
O136 O 0.29192 0.21001 0.53474 0.0
O137 O 0.2747 0.24101 0.53273 0.0
O138 O 0.29007 0.18606 0.46424 0.0
O139 O 0.28833 0.22176 0.48382 0.0
Co140 Co 0.18989 0.02693 0.78999 0.0
O141 O 0.18636 0.98967 0.78707 0.0
O142 O 0.21635 1.01313 0.78238 0.0
C143 C 0.1728 0.03247 0.82762 0.0
O144 O 0.20471 0.06523 0.7923 0.0
Co145 Co 0.1566 0.05809 0.79088 0.0
O146 O 0.18025 0.08842 0.79657 0.0
C147 C 0.16195 0.03402 0.74206 0.0
C148 C 0.20659 0.99074 0.78319 0.0
C149 C 0.19989 0.08684 0.79483 0.0
O150 O 0.17764 0.02515 0.75244 0.0
O151 O 0.15114 0.04663 0.75482 0.0
O152 O 0.19283 0.02999 0.82709 0.0
O153 O 0.16347 0.03098 0.80577 0.0
Co154 Co 0.32408 0.94695 1.00382 0.0
O155 O 0.29536 0.94733 1.01233 0.0
O156 O 0.32106 0.98043 1.01157 0.0
C157 C 0.3134 0.91799 0.97056 0.0
O158 O 0.35534 0.95355 0.99533 0.0
Co159 Co 0.34231 0.8996 1.00242 0.0
O160 O 0.36552 0.91787 0.9863 0.0
C161 C 0.34405 0.93235 0.04909 0.0
C162 C 0.30121 0.97104 1.01526 0.0
C163 C 0.36904 0.94105 0.98779 0.0
O164 O 0.33515 0.94723 0.03863 0.0
O165 O 0.34743 0.91232 0.0381 0.0
O166 O 0.31292 0.94065 0.96944 0.0
O167 O 0.31824 0.91328 0.99193 0.0
Co168 Co 0.33783 0.41143 0.04362 0.0
O169 O 0.30626 0.40567 0.04085 0.0
O170 O 0.32863 0.44067 0.05745 0.0
C171 C 0.33869 0.3943 1.00456 0.0
O172 O 0.37118 0.42555 0.04841 0.0
Co173 Co 0.36246 0.37 0.03646 0.0
O174 O 0.38803 0.39627 0.03416 0.0
C175 C 0.34318 0.37918 0.08218 0.0
C176 C 0.30862 0.42834 0.05082 0.0
C177 C 0.38844 0.41859 0.04214 0.0
O178 O 0.33841 0.39881 0.07604 0.0
O179 O 0.35151 0.36469 0.06815 0.0
O180 O 0.33706 0.41689 1.00986 0.0
O181 O 0.33864 0.38245 0.02261 0.0
Co182 Co 0.81751 0.1533 0.03459 0.0
O183 O 0.84762 0.15176 0.03631 0.0
O184 O 0.82317 0.1299 0.05521 0.0
C185 C 0.81194 0.15027 0.99405 0.0
O186 O 0.78485 0.14998 0.03602 0.0
Co187 Co 0.80352 0.197 1.01408 0.0
O188 O 0.77377 0.17787 0.01593 0.0
C189 C 0.82414 0.20424 0.06475 0.0
C190 C 0.8431 0.13508 0.04982 0.0
C191 C 0.76981 0.15982 0.02737 0.0
O192 O 0.82419 0.18127 0.06297 0.0
O193 O 0.81845 0.2141 0.04676 0.0
O194 O 0.8107 0.13062 1.00372 0.0
O195 O 0.81846 0.17073 1.00873 0.0
Co196 Co 0.19178 0.54439 0.2532 0.0
O197 O 0.19608 0.51176 0.253 0.0
O198 O 0.21578 0.54019 0.23552 0.0
C199 C 0.18845 0.55293 0.29285 0.0
O200 O 0.19327 0.57994 0.25041 0.0
Co201 Co 0.14929 0.55961 0.26706 0.0
O202 O 0.16856 0.5931 0.2722 0.0
C203 C 0.14947 0.53016 0.21919 0.0
C204 C 0.21236 0.51823 0.24088 0.0
C205 C 0.18549 0.59714 0.26127 0.0
O206 O 0.17037 0.53317 0.22283 0.0
O207 O 0.13807 0.53742 0.23534 0.0
O208 O 0.20776 0.55498 0.28587 0.0
O209 O 0.17228 0.54356 0.27614 0.0
Co210 Co 0.83695 0.91064 0.54761 0.0
O211 O 0.8053 0.90444 0.54523 0.0
O212 O 0.82749 0.93919 0.56277 0.0
C213 C 0.83773 0.89534 0.50794 0.0
O214 O 0.87025 0.92534 0.55207 0.0
Co215 Co 0.86217 0.86988 0.53806 0.0
O216 O 0.88775 0.89674 0.53749 0.0
C217 C 0.84153 0.87546 0.58334 0.0
C218 C 0.80753 0.92689 0.55584 0.0
C219 C 0.88774 0.91887 0.54582 0.0
O220 O 0.83805 0.89637 0.57926 0.0
O221 O 0.84935 0.8616 0.56806 0.0
O222 O 0.83553 0.91758 0.51435 0.0
O223 O 0.83813 0.88265 0.5253 0.0
Co224 Co 0.94204 0.07874 0.27117 0.0
O225 O 0.94586 0.11606 0.27537 0.0
O226 O 0.91526 0.0916 0.26138 0.0
C227 C 0.96004 0.07663 0.31047 0.0
O228 O 0.92706 0.04021 0.26663 0.0
Co229 Co 0.97607 0.04761 0.27183 0.0
O230 O 0.95246 1.01921 0.27492 0.0
C231 C 0.96966 0.06783 0.22643 0.0
C232 C 0.92529 0.11439 0.26812 0.0
C233 C 0.93243 1.01968 0.27036 0.0
O234 O 0.95342 0.07646 0.23542 0.0
O235 O 0.98105 0.05678 0.23913 0.0
O236 O 0.94041 0.08047 0.30738 0.0
O237 O 0.96867 0.07592 0.2904 0.0
Co238 Co 0.3134 0.65122 0.53364 0.0
O239 O 0.34326 0.64862 0.53606 0.0
O240 O 0.31762 0.627 0.55383 0.0
C241 C 0.30884 0.64902 0.49315 0.0
O242 O 0.28079 0.6489 0.53431 0.0
Co243 Co 0.30103 0.69586 0.51346 0.0
O244 O 0.27082 0.67742 0.51432 0.0
C245 C 0.32089 0.70192 0.56435 0.0
C246 C 0.33775 0.63171 0.54907 0.0
C247 C 0.2662 0.65922 0.52547 0.0
O248 O 0.32022 0.67877 0.56241 0.0
O249 O 0.31588 0.7122 0.5464 0.0
O250 O 0.30673 0.62909 0.50244 0.0
O251 O 0.31554 0.66921 0.50822 0.0
Co252 Co 0.44198 0.57885 0.77065 0.0
O253 O 0.44553 0.61613 0.77475 0.0
O254 O 0.41502 0.59144 0.76092 0.0
C255 C 0.46027 0.57719 0.80994 0.0
O256 O 0.42729 0.54022 0.76616 0.0
Co257 Co 0.47624 0.54801 0.77154 0.0
O258 O 0.45284 0.52005 0.7762 0.0
C259 C 0.4695 0.56788 0.72593 0.0
C260 C 0.42492 0.61428 0.76759 0.0
C261 C 0.43279 0.52008 0.771 0.0
O262 O 0.45328 0.57656 0.7349 0.0
O263 O 0.48092 0.55689 0.73866 0.0
O264 O 0.44053 0.58071 0.80692 0.0
O265 O 0.46878 0.57641 0.78981 0.0
Co266 Co 0.68588 0.05581 0.75466 0.0
O267 O 0.68732 0.02445 0.76306 0.0
O268 O 0.70956 0.045 0.74075 0.0
C269 C 0.68212 0.07418 0.79163 0.0
O270 O 0.69045 0.08867 0.74339 0.0
Co271 Co 0.64463 0.07717 0.75928 0.0
O272 O 0.66525 0.10829 0.75676 0.0
C273 C 0.64438 0.03686 0.71977 0.0
C274 C 0.70418 0.0259 0.75117 0.0
C275 C 0.6831 0.10814 0.74779 0.0
O276 O 0.66515 0.03968 0.72468 0.0
O277 O 0.63295 0.04832 0.73291 0.0
O278 O 0.70137 0.07219 0.78636 0.0
O279 O 0.66594 0.06284 0.77554 0.0
Co280 Co 0.7934 0.69535 1.00291 0.0
O281 O 0.82506 0.70204 1.00638 0.0
O282 O 0.8038 0.66853 1.01422 0.0
C283 C 0.79008 0.70673 0.96561 0.0
O284 O 0.76048 0.68036 1.00065 0.0
Co285 Co 0.76664 0.73399 0.99839 0.0
O286 O 0.74041 0.70677 0.99127 0.0
C287 C 0.78725 0.73083 0.04689 0.0
C288 C 0.82344 0.68071 1.01297 0.0
C289 C 0.74186 0.68559 0.99534 0.0
O290 O 0.79412 0.71208 0.03757 0.0
O291 O 0.77678 0.74274 0.03418 0.0
O292 O 0.79261 0.68499 0.96808 0.0
O293 O 0.79054 0.72142 0.98568 0.0
Co294 Co 0.95275 0.56228 0.81181 0.0
O295 O 0.95658 0.59062 0.79557 0.0
O296 O 0.92502 0.56541 0.79785 0.0
C297 C 0.97526 0.58009 0.84583 0.0
O298 O 0.94097 0.53256 0.82673 0.0
Co299 Co 0.98848 0.53595 0.82776 0.0
O300 O 0.96614 0.51529 0.84334 0.0
C301 C 0.96901 0.5268 0.77628 0.0
C302 C 0.93545 0.58448 0.79004 0.0
C303 C 0.94634 0.5165 0.83855 0.0
O304 O 0.95584 0.54079 0.78124 0.0
O305 O 0.9837 0.52349 0.79194 0.0
O306 O 0.95536 0.58315 0.84323 0.0
O307 O 0.98126 0.56773 0.82752 0.0
Co308 Co 0.8199 0.45 0.50122 0.0
O309 O 0.79056 0.45227 0.50531 0.0
O310 O 0.81839 0.48409 0.50766 0.0
C311 C 0.81172 0.42109 0.46791 0.0
O312 O 0.85214 0.45427 0.49724 0.0
Co313 Co 0.83372 0.40078 0.5055 0.0
O314 O 0.86121 0.41764 0.49475 0.0
C315 C 0.8273 0.43272 0.54907 0.0
C316 C 0.79768 0.47586 0.50874 0.0
C317 C 0.86591 0.44055 0.49403 0.0
O318 O 0.82652 0.4501 0.53689 0.0
O319 O 0.82769 0.41091 0.53953 0.0
O320 O 0.81274 0.44393 0.46607 0.0
O321 O 0.81324 0.41635 0.48972 0.0
Co322 Co 0.68987 0.52697 0.28989 0.0
O323 O 0.68677 0.48974 0.28701 0.0
O324 O 0.71657 0.51355 0.28237 0.0
C325 C 0.67277 0.5324 0.32752 0.0
O326 O 0.70422 0.56535 0.29226 0.0
Co327 Co 0.65589 0.55733 0.29047 0.0
O328 O 0.67925 0.58792 0.29625 0.0
C329 C 0.66165 0.53347 0.24178 0.0
C330 C 0.70704 0.49108 0.2832 0.0
C331 C 0.69901 0.58675 0.29471 0.0
O332 O 0.67761 0.5251 0.25228 0.0
O333 O 0.65044 0.54565 0.25443 0.0
O334 O 0.69286 0.5301 0.32699 0.0
O335 O 0.66338 0.53066 0.30565 0.0
Ho336 Ho 0.05247 0.04146 1.01337 0.0
Ho337 Ho 0.08637 0.06767 0.04 0.0
C338 C 0.06035 0.09851 1.01376 0.0
C339 C 1.01247 0.02389 0.99362 0.0
C340 C 0.99223 0.02654 1.00384 0.0
C341 C 0.9923 0.03143 0.0291 0.0
C342 C 0.97451 0.0383 0.039 0.0
C343 C 0.95634 0.04064 0.02383 0.0
C344 C 0.95595 0.03468 0.99851 0.0
C345 C 0.97378 0.02776 0.98863 0.0
C346 C 0.08672 0.04093 0.98402 0.0
C347 C 0.07884 1.01133 0.04046 0.0
C348 C 0.12534 0.08573 0.06286 0.0
C349 C 0.14652 0.08111 0.05715 0.0
C350 C 0.14924 0.07254 0.03316 0.0
C351 C 0.16808 0.06465 0.02801 0.0
C352 C 0.18446 0.06481 0.0468 0.0
C353 C 0.18208 0.07436 0.07073 0.0
C354 C 0.16321 0.08242 0.07585 0.0
C355 C 0.05123 0.06783 0.06806 0.0
O356 O 0.04521 0.07922 1.01536 0.0
O357 O 0.08062 0.09759 0.01971 0.0
O358 O 0.02441 0.04428 0.98963 0.0
O359 O 0.02419 1.01102 1.00414 0.0
O360 O 0.07096 0.02276 0.9858 0.0
O361 O 0.08392 0.05927 0.99879 0.0
O362 O 0.094 0.02999 0.03738 0.0
O363 O 0.05858 1.01286 0.03547 0.0
O364 O 0.11195 0.067 0.06818 0.0
O365 O 0.11562 0.09685 0.04794 0.0
O366 O 0.06616 0.08654 0.06563 0.0
O367 O 0.05519 0.04956 0.05434 0.0
H368 H 1.0065 0.03091 0.04119 0.0
H369 H 0.97529 0.04246 0.05855 0.0
H370 H 0.94239 0.03663 0.98627 0.0
H371 H 0.97356 0.02446 0.9691 0.0
H372 H 0.13641 0.0711 0.0185 0.0
H373 H 0.16953 0.05774 1.00935 0.0
H374 H 0.19426 0.07448 0.08564 0.0
H375 H 0.16124 0.08869 0.09451 0.0
Ho376 Ho 0.32013 0.80827 0.27123 0.0
Ho377 Ho 0.29851 0.81542 0.31401 0.0
C378 C 0.33275 0.86057 0.30711 0.0
C379 C 0.33745 0.81374 0.23192 0.0
C380 C 0.34449 0.83549 0.22058 0.0
C381 C 0.33007 0.85049 0.21557 0.0
C382 C 0.33685 0.87084 0.20449 0.0
C383 C 0.35826 0.8768 0.19846 0.0
C384 C 0.37296 0.86243 0.20462 0.0
C385 C 0.36608 0.84187 0.21544 0.0
C386 C 0.34016 0.7927 0.30906 0.0
C387 C 0.28818 0.76235 0.2817 0.0
C388 C 0.27937 0.80807 0.35174 0.0
C389 C 0.27613 0.78549 0.36236 0.0
C390 C 0.29266 0.77233 0.36277 0.0
C391 C 0.28893 0.74938 0.36977 0.0
C392 C 0.2685 0.73884 0.37627 0.0
C393 C 0.25193 0.75205 0.37595 0.0
C394 C 0.25571 0.77521 0.36894 0.0
C395 C 0.27938 0.83094 0.27531 0.0
O396 O 0.32975 0.84936 0.28432 0.0
O397 O 0.3237 0.84973 0.324 0.0
O398 O 0.34881 0.81347 0.25242 0.0
O399 O 0.31646 0.80629 0.23233 0.0
O400 O 0.3366 0.78136 0.28683 0.0
O401 O 0.33253 0.81181 0.31022 0.0
O402 O 0.29208 0.77468 0.30389 0.0
O403 O 0.29599 0.77231 0.26361 0.0
O404 O 0.2687 0.80565 0.33023 0.0
O405 O 0.29957 0.82033 0.35309 0.0
O406 O 0.28242 0.84243 0.29746 0.0
O407 O 0.28643 0.81161 0.27493 0.0
H408 H 0.3134 0.84629 0.21975 0.0
H409 H 0.32496 0.88121 0.1997 0.0
H410 H 0.38966 0.86673 0.20056 0.0
H411 H 0.37757 0.8308 0.2196 0.0
H412 H 0.30843 0.77955 0.35727 0.0
H413 H 0.30226 0.74005 0.3704 0.0
H414 H 0.23602 0.74439 0.38084 0.0
H415 H 0.2426 0.78484 0.36816 0.0
Ho416 Ho 0.58982 0.05601 0.53039 0.0
Ho417 Ho 0.53942 0.05201 0.53444 0.0
C418 C 0.55441 1.00334 0.51335 0.0
C419 C 0.63026 0.05198 0.53373 0.0
C420 C 0.6454 0.03514 0.53556 0.0
C421 C 0.64667 0.02206 0.55501 0.0
C422 C 0.66324 1.00912 0.558 0.0
C423 C 0.67905 1.0091 0.54175 0.0
C424 C 0.67724 0.02157 0.52192 0.0
C425 C 0.6607 0.0344 0.51892 0.0
C426 C 0.56639 0.06985 0.49452 0.0
C427 C 0.57487 0.10482 0.55123 0.0
C428 C 0.49909 0.05628 0.53143 0.0
C429 C 0.48464 0.07391 0.53014 0.0
C430 C 0.47617 0.0785 0.5076 0.0
C431 C 0.46002 0.0921 0.50613 0.0
C432 C 0.45176 0.10137 0.52714 0.0
C433 C 0.46078 0.09745 0.54973 0.0
C434 C 0.47691 0.08384 0.55119 0.0
C435 C 0.56234 0.0369 0.56959 0.0
O436 O 0.57497 1.01518 0.52094 0.0
O437 O 0.53779 1.01431 0.51434 0.0
O438 O 0.61822 0.0502 0.51301 0.0
O439 O 0.62009 0.05724 0.55241 0.0
O440 O 0.58686 0.07993 0.50168 0.0
O441 O 0.5602 0.05224 0.50541 0.0
O442 O 0.55429 0.09298 0.54367 0.0
O443 O 0.59138 0.09369 0.55036 0.0
O444 O 0.51114 0.05736 0.55201 0.0
O445 O 0.5091 0.05107 0.51259 0.0
O446 O 0.54181 0.02736 0.56232 0.0
O447 O 0.56888 0.05503 0.55942 0.0
H448 H 0.63528 0.02239 0.56832 0.0
H449 H 0.66411 0.99989 0.57356 0.0
H450 H 0.68879 0.02165 0.50876 0.0
H451 H 0.66028 0.04442 0.50387 0.0
H452 H 0.48145 0.07086 0.49094 0.0
H453 H 0.45337 0.09445 0.48838 0.0
H454 H 0.45515 0.1046 0.56635 0.0
H455 H 0.48284 0.08048 0.56883 0.0
Ho456 Ho 0.29377 0.30876 0.77707 0.0
Ho457 Ho 0.34016 0.2945 0.77902 0.0
C458 C 0.32358 0.31523 0.82877 0.0
C459 C 0.25249 0.30726 0.77831 0.0
C460 C 0.234 0.29896 0.79196 0.0
C461 C 0.23645 0.30235 0.81745 0.0
C462 C 0.21814 0.29736 0.82994 0.0
C463 C 0.19697 0.2888 0.81725 0.0
C464 C 0.19475 0.28454 0.79171 0.0
C465 C 0.21303 0.28961 0.77926 0.0
C466 C 0.32599 0.3494 0.77153 0.0
C467 C 0.31079 0.28883 0.72694 0.0
C468 C 0.38125 0.29495 0.77696 0.0
C469 C 0.39912 0.30057 0.76152 0.0
C470 C 0.41443 0.32315 0.76648 0.0
C471 C 0.43276 0.32721 0.75386 0.0
C472 C 0.43635 0.30875 0.73604 0.0
C473 C 0.42075 0.28637 0.73076 0.0
C474 C 0.40247 0.28232 0.74334 0.0
C475 C 0.30783 0.25441 0.78592 0.0
O476 O 0.3036 0.3112 0.81713 0.0
O477 O 0.34067 0.31204 0.81765 0.0
O478 O 0.26814 0.32548 0.78949 0.0
O479 O 0.25978 0.29055 0.76486 0.0
O480 O 0.30523 0.34838 0.77122 0.0
O481 O 0.32802 0.32781 0.77408 0.0
O482 O 0.33022 0.29025 0.73886 0.0
O483 O 0.29404 0.29388 0.73773 0.0
O484 O 0.36532 0.27594 0.76859 0.0
O485 O 0.37437 0.31313 0.78855 0.0
O486 O 0.32862 0.25545 0.7868 0.0
O487 O 0.30594 0.27578 0.78252 0.0
H488 H 0.25244 0.30947 0.82775 0.0
H489 H 0.22056 0.30049 0.84958 0.0
H490 H 0.17876 0.27821 0.78128 0.0
H491 H 0.21069 0.287 0.75962 0.0
H492 H 0.41254 0.33753 0.78052 0.0
H493 H 0.44422 0.3448 0.75826 0.0
H494 H 0.42303 0.27154 0.71749 0.0
H495 H 0.39129 0.26453 0.73926 0.0
Ho496 Ho 0.06344 0.07887 0.53503 0.0
Ho497 Ho 0.06662 0.02399 0.51129 0.0
C498 C 0.04278 0.05661 0.47671 0.0
C499 C 0.07365 0.12591 0.54575 0.0
C500 C 0.08283 0.14515 0.53211 0.0
C501 C 0.09543 0.1676 0.54451 0.0
C502 C 0.10453 0.18581 0.53162 0.0
C503 C 0.10121 0.18181 0.50608 0.0
C504 C 0.0888 0.15908 0.49375 0.0
C505 C 0.07969 0.14093 0.50664 0.0
C506 C 0.02934 0.04391 0.54397 0.0
C507 C 0.08663 0.0458 0.56981 0.0
C508 C 0.05853 0.97704 0.50002 0.0
C509 C 0.05103 0.95684 0.51351 0.0
C510 C 0.02867 0.94768 0.51441 0.0
C511 C 0.02185 0.92998 0.52879 0.0
C512 C 0.03726 0.92074 0.54211 0.0
C513 C 0.05957 0.9293 0.54059 0.0
C514 C 0.06638 0.94713 0.52643 0.0
C515 C 0.1006 0.05927 0.50251 0.0
O516 O 0.04884 0.07583 0.49485 0.0
O517 O 0.04705 0.03481 0.47936 0.0
O518 O 0.05377 0.11341 0.5375 0.0
O519 O 0.0868 0.11205 0.55182 0.0
O520 O 0.03202 0.06721 0.55189 0.0
O521 O 0.0454 0.04144 0.53281 0.0
O522 O 0.08006 0.02645 0.55183 0.0
O523 O 0.08306 0.06781 0.56681 0.0
O524 O 0.07814 0.99058 0.50769 0.0
O525 O 0.04442 0.99001 0.49438 0.0
O526 O 0.09833 0.036 0.49509 0.0
O527 O 0.08436 0.06144 0.51335 0.0
H528 H 0.09814 0.17109 0.56415 0.0
H529 H 0.11375 0.20323 0.54169 0.0
H530 H 0.08619 0.15528 0.47411 0.0
H531 H 0.07031 0.12354 0.4967 0.0
H532 H 1.01641 0.9543 0.50418 0.0
H533 H 1.00453 0.92336 0.5293 0.0
H534 H 0.0718 0.92253 0.55072 0.0
H535 H 0.08372 0.95357 0.52592 0.0
Ho536 Ho 0.3357 0.82073 0.77487 0.0
Ho537 Ho 0.29407 0.78269 0.76944 0.0
C538 C 0.33916 0.76136 0.77411 0.0
C539 C 0.37285 0.84974 0.79155 0.0
C540 C 0.39596 0.84903 0.79501 0.0
C541 C 0.40258 0.8289 0.80274 0.0
C542 C 0.42462 0.83022 0.80968 0.0
C543 C 0.44035 0.85163 0.80881 0.0
C544 C 0.43373 0.871 0.79935 0.0
C545 C 0.41167 0.86974 0.79262 0.0
C546 C 0.3208 0.79987 0.72869 0.0
C547 C 0.29078 0.84231 0.77091 0.0
C548 C 0.25649 0.75454 0.75245 0.0
C549 C 0.23409 0.75777 0.74873 0.0
C550 C 0.229 0.78006 0.75769 0.0
C551 C 0.20851 0.78436 0.75074 0.0
C552 C 0.19284 0.76635 0.73482 0.0
C553 C 0.19766 0.7435 0.72711 0.0
C554 C 0.21819 0.73932 0.73392 0.0
C555 C 0.30946 0.80401 0.81537 0.0
O556 O 0.34939 0.78528 0.77851 0.0
O557 O 0.31736 0.75573 0.76899 0.0
O558 O 0.36388 0.84763 0.76919 0.0
O559 O 0.36023 0.83738 0.80499 0.0
O560 O 0.33034 0.82287 0.73522 0.0
O561 O 0.32052 0.78926 0.74694 0.0
O562 O 0.28057 0.81839 0.76601 0.0
O563 O 0.31253 0.84779 0.77616 0.0
O564 O 0.26517 0.75682 0.77496 0.0
O565 O 0.26979 0.76586 0.73897 0.0
O566 O 0.29945 0.78108 0.80957 0.0
O567 O 0.30929 0.81406 0.79686 0.0
H568 H 0.39067 0.81263 0.80454 0.0
H569 H 0.42915 0.81504 0.81702 0.0
H570 H 0.44553 0.88752 0.79799 0.0
H571 H 0.4068 0.88534 0.78646 0.0
H572 H 0.24109 0.79444 0.7693 0.0
H573 H 0.20535 0.80216 0.75692 0.0
H574 H 0.18576 0.72907 0.71527 0.0
H575 H 0.22189 0.72198 0.72692 0.0
Ho576 Ho 0.57171 0.04701 0.03819 0.0
Ho577 Ho 0.56259 0.07525 0.99895 0.0
C578 C 0.52493 0.03173 1.00349 0.0
C579 C 0.56998 0.02345 0.07425 0.0
C580 C 0.5527 1.01315 0.08804 0.0
C581 C 0.53525 0.02447 0.09189 0.0
C582 C 0.52026 1.01606 0.10731 0.0
C583 C 0.5224 0.99607 0.1189 0.0
C584 C 0.53895 0.98367 0.11343 0.0
C585 C 0.55406 0.99225 0.09821 0.0
C586 C 0.59082 0.03571 0.99859 0.0
C587 C 0.61028 0.08897 0.03076 0.0
C588 C 0.56628 0.10126 0.96494 0.0
C589 C 0.58575 0.11064 0.95367 0.0
C590 C 0.60122 0.0964 0.94992 0.0
C591 C 0.61977 0.10517 0.93934 0.0
C592 C 0.62349 0.12858 0.93259 0.0
C593 C 0.60849 0.14333 0.93762 0.0
C594 C 0.58971 0.13437 0.94801 0.0
C595 C 0.54473 0.08637 0.0399 0.0
O596 O 0.53569 0.03233 0.02503 0.0
O597 O 0.53341 0.04495 0.98776 0.0
O598 O 0.56859 1.01272 0.05178 0.0
O599 O 0.57519 0.04738 0.07677 0.0
O600 O 0.59906 0.03601 0.0206 0.0
O601 O 0.57178 0.03964 0.99824 0.0
O602 O 0.59875 0.08793 1.0097 0.0
O603 O 0.60209 0.07677 0.04743 0.0
O604 O 0.56692 0.11075 0.98768 0.0
O605 O 0.55899 0.07743 0.96076 0.0
O606 O 0.53538 0.08585 0.01827 0.0
O607 O 0.56358 0.08262 0.03873 0.0
H608 H 0.53375 0.04043 0.08383 0.0
H609 H 0.50786 0.02618 0.11127 0.0
H610 H 0.54077 0.96797 0.12176 0.0
H611 H 0.56724 0.98308 0.09503 0.0
H612 H 0.59882 0.07825 0.95475 0.0
H613 H 0.63059 0.09297 0.93542 0.0
H614 H 0.61097 0.16156 0.93302 0.0
H615 H 0.57821 0.14586 0.95143 0.0
Ho616 Ho 0.33126 0.3219 0.28456 0.0
Ho617 Ho 0.30108 0.27046 0.26054 0.0
C618 C 0.27854 0.31191 0.28095 0.0
C619 C 0.3511 0.36718 0.28829 0.0
C620 C 0.34499 0.38724 0.27713 0.0
C621 C 0.33869 0.3841 0.25203 0.0
C622 C 0.32823 0.40053 0.24222 0.0
C623 C 0.32398 0.42052 0.25736 0.0
C624 C 0.33185 0.42477 0.2822 0.0
C625 C 0.34225 0.40821 0.292 0.0
C626 C 0.3222 0.29327 0.31929 0.0
C627 C 0.35448 0.27815 0.26988 0.0
C628 C 0.28465 0.22436 0.24805 0.0
C629 C 0.29564 0.2044 0.25113 0.0
C630 C 0.31244 0.20803 0.27035 0.0
C631 C 0.32674 0.19241 0.27041 0.0
C632 C 0.32439 0.1728 0.25136 0.0
C633 C 0.30671 0.16805 0.23298 0.0
C634 C 0.29245 0.18396 0.23277 0.0
C635 C 0.30738 0.30546 0.23178 0.0
O636 O 0.29691 0.32783 0.27959 0.0
O637 O 0.27696 0.28806 0.27764 0.0
O638 O 0.33831 0.35904 0.30386 0.0
O639 O 0.35609 0.34947 0.27372 0.0
O640 O 0.33485 0.31506 0.32347 0.0
O641 O 0.31606 0.28817 0.2968 0.0
O642 O 0.33492 0.26327 0.2638 0.0
O643 O 0.35746 0.30185 0.27794 0.0
O644 O 0.29293 0.23822 0.23287 0.0
O645 O 0.28105 0.23707 0.2681 0.0
O646 O 0.28923 0.28922 0.23052 0.0
O647 O 0.32121 0.30141 0.24743 0.0
H648 H 0.34082 0.3683 0.24012 0.0
H649 H 0.32262 0.39701 0.22296 0.0
H650 H 0.32866 0.43995 0.29434 0.0
H651 H 0.34694 0.41099 0.31142 0.0
H652 H 0.3154 0.22383 0.2846 0.0
H653 H 0.34021 0.19623 0.28482 0.0
H654 H 0.30472 0.15298 0.21812 0.0
H655 H 0.27977 0.18111 0.21763 0.0
Ho656 Ho 0.56328 0.57893 0.03522 0.0
Ho657 Ho 0.56703 0.52663 1.01136 0.0
C658 C 0.54469 0.55884 0.97587 0.0
C659 C 0.56741 0.62571 0.04591 0.0
C660 C 0.5733 0.64667 0.03325 0.0
C661 C 0.57832 0.64339 1.00931 0.0
C662 C 0.58507 0.6637 0.99796 0.0
C663 C 0.58688 0.68759 1.0104 0.0
C664 C 0.58172 0.69063 0.03439 0.0
C665 C 0.57498 0.67035 0.04567 0.0
C666 C 0.53207 0.54111 0.04382 0.0
C667 C 0.58679 0.54721 0.06988 0.0
C668 C 0.55739 0.47959 1.00016 0.0
C669 C 0.5465 0.46141 1.01379 0.0
C670 C 0.54038 0.46928 0.03647 0.0
C671 C 0.53115 0.45229 0.05042 0.0
C672 C 0.52801 0.4271 0.04195 0.0
C673 C 0.53362 0.41925 0.01888 0.0
C674 C 0.54285 0.43635 1.00488 0.0
C675 C 0.60267 0.56076 1.00492 0.0
O676 O 0.54898 0.57708 0.99499 0.0
O677 O 0.5503 0.5376 0.9778 0.0
O678 O 0.54867 0.61042 0.0379 0.0
O679 O 0.58314 0.61461 0.05059 0.0
O680 O 0.53912 0.56154 0.0589 0.0
O681 O 0.54083 0.543 0.02468 0.0
O682 O 0.57848 0.52791 0.05235 0.0
O683 O 0.58479 0.5695 0.06627 0.0
O684 O 0.57664 0.49211 1.01049 0.0
O685 O 0.54521 0.49347 0.99201 0.0
O686 O 0.59942 0.53759 0.9963 0.0
O687 O 0.58649 0.56371 1.01554 0.0
H688 H 0.57721 0.62517 0.9995 0.0
H689 H 0.58872 0.66068 0.97943 0.0
H690 H 0.5833 0.70874 0.04467 0.0
H691 H 0.57138 0.67319 0.06424 0.0
H692 H 0.54311 0.48862 0.04359 0.0
H693 H 0.52675 0.45885 0.06797 0.0
H694 H 0.53158 0.39994 1.01202 0.0
H695 H 0.54754 0.43004 0.98741 0.0
Ho696 Ho 0.83765 0.32197 0.27545 0.0
Ho697 Ho 0.79586 0.28408 0.26965 0.0
C698 C 0.84062 0.26232 0.27431 0.0
C699 C 0.87487 0.35074 0.29252 0.0
C700 C 0.89812 0.35054 0.29571 0.0
C701 C 0.90521 0.33011 0.30208 0.0
C702 C 0.92734 0.33177 0.30894 0.0
C703 C 0.9427 0.35383 0.30942 0.0
C704 C 0.93563 0.37363 0.30135 0.0
C705 C 0.91349 0.372 0.29465 0.0
C706 C 0.8229 0.30148 0.22913 0.0
C707 C 0.79274 0.34376 0.27154 0.0
C708 C 0.75787 0.25722 0.25244 0.0
C709 C 0.73613 0.26246 0.24932 0.0
C710 C 0.72037 0.24773 0.23115 0.0
C711 C 0.70092 0.25475 0.22515 0.0
C712 C 0.69706 0.27676 0.2371 0.0
C713 C 0.71246 0.29086 0.25618 0.0
C714 C 0.73189 0.28376 0.26223 0.0
C715 C 0.81118 0.30504 0.31567 0.0
O716 O 0.85098 0.28621 0.27879 0.0
O717 O 0.81883 0.25682 0.26914 0.0
O718 O 0.86576 0.34932 0.27033 0.0
O719 O 0.86248 0.33758 0.30556 0.0
O720 O 0.83258 0.3244 0.23584 0.0
O721 O 0.82243 0.29071 0.24728 0.0
O722 O 0.78253 0.31987 0.26639 0.0
O723 O 0.8145 0.34918 0.277 0.0
O724 O 0.76661 0.25855 0.27479 0.0
O725 O 0.77157 0.26795 0.23898 0.0
O726 O 0.80096 0.28218 0.30974 0.0
O727 O 0.81114 0.31524 0.29726 0.0
H728 H 0.89357 0.31329 0.30287 0.0
H729 H 0.93222 0.31623 0.31519 0.0
H730 H 0.94713 0.39069 0.30105 0.0
H731 H 0.90827 0.38787 0.28961 0.0
H732 H 0.72344 0.23128 0.22099 0.0
H733 H 0.68913 0.24324 0.21072 0.0
H734 H 0.70996 0.30792 0.26566 0.0
H735 H 0.74395 0.29538 0.27632 0.0
Ho736 Ho 0.06923 0.54753 0.53895 0.0
Ho737 Ho 0.05926 0.57217 0.49628 0.0
C738 C 0.02258 0.52875 0.50408 0.0
C739 C 0.06759 0.5263 0.57659 0.0
C740 C 0.05001 0.51598 0.59004 0.0
C741 C 0.03257 0.52738 0.59369 0.0
C742 C 1.01701 0.51857 0.60835 0.0
C743 C 1.0185 0.49803 0.61934 0.0
C744 C 0.03512 0.48565 0.61411 0.0
C745 C 0.05083 0.49467 0.5997 0.0
C746 C 0.08855 0.53476 0.49998 0.0
C747 C 0.10654 0.58971 0.52971 0.0
C748 C 0.06391 0.59412 0.45949 0.0
C749 C 0.08413 0.60156 0.4487 0.0
C750 C 0.09975 0.58721 0.44897 0.0
C751 C 0.11904 0.59398 0.43894 0.0
C752 C 0.12332 0.61546 0.42859 0.0
C753 C 0.10814 0.63054 0.42958 0.0
C754 C 0.08866 0.62359 0.43953 0.0
C755 C 0.04023 0.58506 0.53557 0.0
O756 O 0.03347 0.5313 0.52594 0.0
O757 O 0.03061 0.54075 0.48722 0.0
O758 O 0.06733 0.51457 0.55472 0.0
O759 O 0.07198 0.55014 0.57783 0.0
O760 O 0.09726 0.53671 0.52214 0.0
O761 O 0.06928 0.53775 0.49941 0.0
O762 O 0.09515 0.58689 0.50819 0.0
O763 O 0.09858 0.57854 0.54713 0.0
O764 O 0.06381 0.60579 0.4813 0.0
O765 O 0.05628 0.57043 0.45742 0.0
O766 O 0.03149 0.58372 0.51348 0.0
O767 O 0.05937 0.5818 0.53572 0.0
H768 H 0.03138 0.54359 0.58595 0.0
H769 H 1.00459 0.52871 0.61213 0.0
H770 H 0.03647 0.46952 0.62192 0.0
H771 H 0.06396 0.48538 0.59663 0.0
H772 H 0.09689 0.57043 0.45655 0.0
H773 H 0.13 0.5816 0.43822 0.0
H774 H 0.11103 0.64737 0.42209 0.0
H775 H 0.07704 0.63525 0.43981 0.0
Ho776 Ho 0.79215 0.81006 0.2783 0.0
Ho777 Ho 0.83845 0.7955 0.28212 0.0
C778 C 0.82099 0.81738 0.33108 0.0
C779 C 0.75077 0.80883 0.27871 0.0
C780 C 0.73227 0.80308 0.29324 0.0
C781 C 0.72154 0.77887 0.29433 0.0
C782 C 0.70298 0.77418 0.30657 0.0
C783 C 0.69465 0.79356 0.31793 0.0
C784 C 0.70552 0.8177 0.31684 0.0
C785 C 0.72398 0.82236 0.30467 0.0
C786 C 0.82482 0.85013 0.27265 0.0
C787 C 0.8102 0.7897 0.22914 0.0
C788 C 0.87962 0.79575 0.28125 0.0
C789 C 0.89759 0.79967 0.26575 0.0
C790 C 0.90846 0.8232 0.26261 0.0
C791 C 0.92672 0.82629 0.24978 0.0
C792 C 0.93465 0.80596 0.23996 0.0
C793 C 0.92342 0.78247 0.24271 0.0
C794 C 0.90524 0.77939 0.25547 0.0
C795 C 0.80578 0.75556 0.28815 0.0
O796 O 0.80156 0.81495 0.31865 0.0
O797 O 0.838 0.81225 0.32086 0.0
O798 O 0.76632 0.82807 0.28768 0.0
O799 O 0.75826 0.79082 0.2677 0.0
O800 O 0.80401 0.8492 0.27124 0.0
O801 O 0.82664 0.8287 0.27609 0.0
O802 O 0.82923 0.79052 0.2417 0.0
O803 O 0.79329 0.79526 0.23924 0.0
O804 O 0.86383 0.77635 0.274 0.0
O805 O 0.87256 0.81464 0.29099 0.0
O806 O 0.82659 0.75659 0.2897 0.0
O807 O 0.80394 0.77692 0.28452 0.0
H808 H 0.72726 0.76353 0.28549 0.0
H809 H 0.6952 0.75535 0.30715 0.0
H810 H 0.69945 0.83313 0.32487 0.0
H811 H 0.73155 0.84119 0.30378 0.0
H812 H 0.90317 0.83927 0.27048 0.0
H813 H 0.93503 0.84468 0.24823 0.0
H814 H 0.92874 0.76633 0.23509 0.0
H815 H 0.89739 0.76104 0.25771 0.0
Ho816 Ho 0.82645 0.31276 0.76941 0.0
Ho817 Ho 0.80241 0.31346 0.81029 0.0
C818 C 0.8336 0.36235 0.80795 0.0
C819 C 0.84578 0.32396 0.73266 0.0
C820 C 0.84784 0.34604 0.72126 0.0
C821 C 0.8292 0.354 0.71334 0.0
C822 C 0.83123 0.37526 0.70319 0.0
C823 C 0.85196 0.38934 0.70103 0.0
C824 C 0.87064 0.38174 0.70969 0.0
C825 C 0.86858 0.36021 0.71962 0.0
C826 C 0.84636 0.29525 0.806 0.0
C827 C 0.79618 0.26347 0.77387 0.0
C828 C 0.78133 0.30163 0.84574 0.0
C829 C 0.7777 0.27848 0.8553 0.0
C830 C 0.79391 0.26489 0.8552 0.0
C831 C 0.79012 0.24217 0.86274 0.0
C832 C 0.76994 0.23233 0.87029 0.0
C833 C 0.75355 0.24581 0.86995 0.0
C834 C 0.75742 0.26872 0.86247 0.0
C835 C 0.78321 0.33099 0.77289 0.0
O836 O 0.8312 0.35304 0.78466 0.0
O837 O 0.82553 0.34897 0.82364 0.0
O838 O 0.856 0.32732 0.75452 0.0
O839 O 0.82623 0.30989 0.73059 0.0
O840 O 0.84432 0.28604 0.78322 0.0
O841 O 0.83745 0.31341 0.80836 0.0
O842 O 0.79931 0.27354 0.79687 0.0
O843 O 0.80346 0.27642 0.75745 0.0
O844 O 0.77186 0.30002 0.82379 0.0
O845 O 0.80146 0.31446 0.84886 0.0
O846 O 0.785 0.34046 0.79559 0.0
O847 O 0.79168 0.31258 0.77119 0.0
H848 H 0.81295 0.34371 0.71473 0.0
H849 H 0.81643 0.38008 0.69622 0.0
H850 H 0.88685 0.39224 0.7085 0.0
H851 H 0.88318 0.35461 0.72605 0.0
H852 H 0.80956 0.27181 0.84925 0.0
H853 H 0.80332 0.23266 0.86327 0.0
H854 H 0.73779 0.23868 0.8755 0.0
H855 H 0.74456 0.27875 0.86213 0.0
Ho856 Ho 0.82519 0.8165 0.78582 0.0
Ho857 Ho 0.79573 0.76389 0.76328 0.0
C858 C 0.77163 0.80655 0.77723 0.0
C859 C 0.84117 0.86285 0.79496 0.0
C860 C 0.83133 0.88198 0.78678 0.0
C861 C 0.81624 0.87597 0.76573 0.0
C862 C 0.804 0.89242 0.75959 0.0
C863 C 0.80635 0.91506 0.7746 0.0
C864 C 0.82212 0.92154 0.79519 0.0
C865 C 0.83453 0.905 0.80129 0.0
C866 C 0.81776 0.78376 0.81648 0.0
C867 C 0.84882 0.77421 0.76774 0.0
C868 C 0.77959 0.71784 0.75933 0.0
C869 C 0.7908 0.69798 0.75247 0.0
C870 C 0.79595 0.68417 0.77013 0.0
C871 C 0.81254 0.67149 0.76769 0.0
C872 C 0.82389 0.67199 0.74731 0.0
C873 C 0.81721 0.68354 0.72841 0.0
C874 C 0.80087 0.69667 0.73105 0.0
C875 C 0.80594 0.7915 0.72773 0.0
O876 O 0.79081 0.82237 0.77967 0.0
O877 O 0.76946 0.78257 0.77273 0.0
O878 O 0.83039 0.85096 0.81013 0.0
O879 O 0.84707 0.8483 0.77774 0.0
O880 O 0.83587 0.80011 0.81795 0.0
O881 O 0.80429 0.7866 0.79968 0.0
O882 O 0.82998 0.75818 0.76603 0.0
O883 O 0.85073 0.79816 0.77244 0.0
O884 O 0.77503 0.73053 0.7425 0.0
O885 O 0.78808 0.73174 0.78009 0.0
O886 O 0.79353 0.76957 0.72374 0.0
O887 O 0.8117 0.79669 0.75023 0.0
H888 H 0.81317 0.8581 0.75454 0.0
H889 H 0.79218 0.88709 0.74346 0.0
H890 H 0.82411 0.93885 0.80716 0.0
H891 H 0.84588 0.90973 0.8178 0.0
H892 H 0.7885 0.68495 0.78681 0.0
H893 H 0.8173 0.66234 0.78232 0.0
H894 H 0.82576 0.68404 0.71253 0.0
H895 H 0.79738 0.70726 0.71716 0.0
Ho896 Ho 0.5529 0.54126 0.51332 0.0
Ho897 Ho 0.58662 0.56921 0.54033 0.0
C898 C 0.56013 0.59852 0.51237 0.0
C899 C 0.51264 0.52286 0.49477 0.0
C900 C 0.49318 0.5296 0.50388 0.0
C901 C 0.49601 0.54763 0.52455 0.0
C902 C 0.4782 0.55583 0.53274 0.0
C903 C 0.4571 0.54596 0.52058 0.0
C904 C 0.45407 0.52716 0.50044 0.0
C905 C 0.47208 0.51912 0.49203 0.0
C906 C 0.58734 0.54131 0.48441 0.0
C907 C 0.58162 0.51219 0.53985 0.0
C908 C 0.62514 0.58956 0.5633 0.0
C909 C 0.647 0.58736 0.55752 0.0
C910 C 0.65179 0.5858 0.53347 0.0
C911 C 0.67107 0.5795 0.52737 0.0
C912 C 0.68582 0.57436 0.54516 0.0
C913 C 0.68154 0.57725 0.56945 0.0
C914 C 0.66226 0.5837 0.57556 0.0
C915 C 0.55108 0.56835 0.56771 0.0
O916 O 0.5452 0.57867 0.5129 0.0
O917 O 0.58036 0.59862 0.5198 0.0
O918 O 0.5255 0.5402 0.4866 0.0
O919 O 0.52356 0.51232 0.50914 0.0
O920 O 0.57164 0.52295 0.48597 0.0
O921 O 0.58429 0.55967 0.49908 0.0
O922 O 0.596 0.53266 0.53993 0.0
O923 O 0.56124 0.5112 0.53198 0.0
O924 O 0.61298 0.56967 0.56807 0.0
O925 O 0.6143 0.60028 0.54901 0.0
O926 O 0.56561 0.58738 0.56531 0.0
O927 O 0.5557 0.55027 0.55431 0.0
H928 H 0.51211 0.55578 0.5341 0.0
H929 H 0.48095 0.57017 0.54842 0.0
H930 H 0.43793 0.51937 0.49073 0.0
H931 H 0.46959 0.50513 0.47608 0.0
H932 H 0.64022 0.58842 0.51918 0.0
H933 H 0.67403 0.57779 0.50856 0.0
H934 H 0.69243 0.57316 0.58354 0.0
H935 H 0.65876 0.58461 0.59418 0.0
Ho936 Ho 0.09172 0.55869 0.03154 0.0
Ho937 Ho 0.04095 0.55328 0.03235 0.0
C938 C 0.05764 0.50514 1.0139 0.0
C939 C 0.1323 0.55539 0.03791 0.0
C940 C 0.147 0.538 0.03944 0.0
C941 C 0.15335 0.53134 0.0618 0.0
C942 C 0.16956 0.51787 0.06392 0.0
C943 C 0.17995 0.51072 0.04378 0.0
C944 C 0.17317 0.51686 0.0213 0.0
C945 C 0.15702 0.53038 0.0192 0.0
C946 C 0.06935 0.56968 0.99311 0.0
C947 C 0.0748 0.60694 0.04982 0.0
C948 C 1.00011 0.55523 0.02667 0.0
C949 C 0.98439 0.5713 0.02826 0.0
C950 C 0.98814 0.5941 0.02028 0.0
C951 C 0.97175 0.60753 0.01994 0.0
C952 C 0.9513 0.5983 0.02739 0.0
C953 C 0.948 0.57581 0.03598 0.0
C954 C 0.96432 0.56252 0.03639 0.0
C955 C 0.06317 0.54134 0.0702 0.0
O956 O 0.07783 0.51752 0.02263 0.0
O957 O 0.04083 0.51579 1.01297 0.0
O958 O 0.1219 0.55576 0.01674 0.0
O959 O 0.1205 0.55865 0.0556 0.0
O960 O 0.08934 0.581 1.0014 0.0
O961 O 0.06303 0.55254 1.00458 0.0
O962 O 0.0546 0.59445 0.0413 0.0
O963 O 0.09173 0.59644 0.05054 0.0
O964 O 1.0101 0.55195 0.04698 0.0
O965 O 1.01268 0.55655 1.00936 0.0
O966 O 0.04319 0.53028 0.06179 0.0
O967 O 0.06956 0.55888 0.05925 0.0
H968 H 0.14624 0.53709 0.07789 0.0
H969 H 0.17409 0.51324 0.08145 0.0
H970 H 0.18092 0.51202 1.00544 0.0
H971 H 0.15288 0.53554 1.00181 0.0
H972 H 1.00349 0.60126 1.01383 0.0
H973 H 0.97482 0.62473 1.01312 0.0
H974 H 0.93265 0.56833 0.04226 0.0
H975 H 0.96105 0.54498 0.0426 0.0
H976 H 1.00549 0.22376 0.98894 0.0
H977 H 0.04995 0.22029 0.93505 0.0
H978 H 1.01436 0.18765 1.00263 0.0
H979 H 0.05888 0.18393 0.94889 0.0
H980 H 0.08779 0.13805 1.00116 0.0
H981 H 0.07815 0.17304 0.98532 0.0
H982 H 1.01013 0.14324 0.98987 0.0
H983 H 1.01975 0.10827 1.00563 0.0
C984 C 1.01706 0.21521 0.97983 0.0
C985 C 0.02696 0.22509 0.96081 0.0
C986 C 0.02209 0.19435 0.98767 0.0
C987 C 0.0374 0.18279 0.97698 0.0
C988 C 0.04716 0.19245 0.95774 0.0
C989 C 0.04189 0.2132 0.94964 0.0
C990 C 0.07077 0.13898 0.99887 0.0
C991 C 0.05458 0.12032 1.00484 0.0
C992 C 0.06522 0.15898 0.98956 0.0
C993 C 0.04333 0.16106 0.98622 0.0
C994 C 0.02717 0.14244 0.99235 0.0
C995 C 0.03269 0.12231 1.00137 0.0
H996 H 0.19865 0.84085 0.14227 0.0
H997 H 0.15746 0.84692 0.19923 0.0
H998 H 0.22866 0.83893 0.17196 0.0
H999 H 0.1876 0.845 0.22897 0.0
H1000 H 0.25291 0.86365 0.27905 0.0
H1001 H 0.22399 0.86794 0.24902 0.0
H1002 H 0.23915 0.81085 0.1983 0.0
H1003 H 0.26807 0.80655 0.22846 0.0
C1004 C 0.19596 0.84197 0.16115 0.0
C1005 C 0.17544 0.84409 0.16819 0.0
C1006 C 0.21322 0.84066 0.17821 0.0
C1007 C 0.21068 0.8417 0.20298 0.0
C1008 C 0.19032 0.84434 0.21014 0.0
C1009 C 0.17294 0.84537 0.19301 0.0
C1010 C 0.25017 0.8521 0.26144 0.0
C1011 C 0.26283 0.8347 0.25624 0.0
C1012 C 0.23344 0.85444 0.24424 0.0
C1013 C 0.22901 0.83967 0.22116 0.0
C1014 C 0.24209 0.82269 0.21576 0.0
C1015 C 0.25867 0.82015 0.23309 0.0
H1016 H 0.51701 0.84265 0.47975 0.0
H1017 H 0.545 0.8663 0.41733 0.0
H1018 H 0.52243 0.88563 0.49898 0.0
H1019 H 0.55082 0.90898 0.43672 0.0
H1020 H 0.58299 0.97786 0.49425 0.0
H1021 H 0.57565 0.93477 0.47562 0.0
H1022 H 0.50871 0.92545 0.4902 0.0
H1023 H 0.51587 0.96881 0.50847 0.0
C1024 C 0.52422 0.85699 0.47012 0.0
C1025 C 0.53057 0.85105 0.44702 0.0
C1026 C 0.52728 0.88156 0.48109 0.0
C1027 C 0.53718 0.90066 0.46941 0.0
C1028 C 0.54333 0.89467 0.44625 0.0
C1029 C 0.53987 0.87021 0.4351 0.0
C1030 C 0.56671 0.96666 0.49358 0.0
C1031 C 0.55001 0.97686 0.50281 0.0
C1032 C 0.56249 0.942 0.48279 0.0
C1033 C 0.54159 0.92675 0.4814 0.0
C1034 C 0.52499 0.93674 0.4911 0.0
C1035 C 0.52908 0.96159 0.50145 0.0
H1036 H 0.56993 0.31886 0.70112 0.0
H1037 H 0.53486 0.32883 0.63502 0.0
H1038 H 0.53636 0.31428 0.72017 0.0
H1039 H 0.50137 0.32487 0.6542 0.0
H1040 H 0.44067 0.29289 0.68836 0.0
H1041 H 0.47395 0.29658 0.66893 0.0
H1042 H 0.51136 0.33716 0.73587 0.0
H1043 H 0.47823 0.33249 0.7556 0.0
C1044 C 0.55505 0.32008 0.69063 0.0
C1045 C 0.55513 0.32418 0.66651 0.0
C1046 C 0.53578 0.31766 0.70164 0.0
C1047 C 0.51603 0.31932 0.68884 0.0
C1048 C 0.51612 0.32317 0.6646 0.0
C1049 C 0.53539 0.32556 0.65359 0.0
C1050 C 0.456 0.30246 0.69903 0.0
C1051 C 0.45662 0.31231 0.72366 0.0
C1052 C 0.47513 0.30482 0.68777 0.0
C1053 C 0.4955 0.31713 0.70076 0.0
C1054 C 0.49609 0.32725 0.7253 0.0
C1055 C 0.47696 0.32487 0.73657 0.0
H1056 H 1.00227 0.83814 0.65847 0.0
H1057 H 0.99711 0.78444 0.59401 0.0
H1058 H 1.01147 0.87103 0.63443 0.0
H1059 H 1.00616 0.81701 0.57028 0.0
H1060 H 0.05182 0.8791 0.54455 0.0
H1061 H 0.04058 0.84812 0.56969 0.0
H1062 H 0.99532 0.88869 0.59904 0.0
H1063 H 1.00688 0.92009 0.57403 0.0
C1064 C 1.00286 0.83338 0.63919 0.0
C1065 C 0.99919 0.80876 0.62815 0.0
C1066 C 1.00807 0.85215 0.62547 0.0
C1067 C 1.00978 0.8465 0.60059 0.0
C1068 C 1.00534 0.82188 0.58951 0.0
C1069 C 1.00008 0.80323 0.60311 0.0
C1070 C 0.03958 0.8815 0.55648 0.0
C1071 C 0.03019 0.90195 0.55733 0.0
C1072 C 0.03303 0.86369 0.57072 0.0
C1073 C 1.017 0.86598 0.58618 0.0
C1074 C 1.00777 0.88658 0.58732 0.0
C1075 C 1.01422 0.90436 0.57288 0.0
H1076 H 0.55216 0.88729 0.91743 0.0
H1077 H 0.57468 0.84742 0.85677 0.0
H1078 H 0.51673 0.88161 0.89367 0.0
H1079 H 0.53949 0.8424 0.83291 0.0
H1080 H 0.46576 0.81772 0.80686 0.0
H1081 H 0.50133 0.82171 0.82996 0.0
H1082 H 0.50189 0.89676 0.8591 0.0
H1083 H 0.46601 0.89243 0.83714 0.0
C1084 C 0.54956 0.87728 0.89909 0.0
C1085 C 0.56627 0.86786 0.88902 0.0
C1086 C 0.52932 0.8742 0.8854 0.0
C1087 C 0.52542 0.86176 0.86135 0.0
C1088 C 0.54195 0.85189 0.85146 0.0
C1089 C 0.56215 0.85487 0.86515 0.0
C1090 C 0.47351 0.83505 0.81821 0.0
C1091 C 0.46305 0.85473 0.82021 0.0
C1092 C 0.49393 0.83739 0.83129 0.0
C1093 C 0.50427 0.85947 0.84654 0.0
C1094 C 0.49414 0.87937 0.84785 0.0
C1095 C 0.47373 0.87701 0.83491 0.0
H1096 H 0.55712 0.20739 0.13674 0.0
H1097 H 0.48773 0.18125 0.13561 0.0
H1098 H 0.56055 0.16639 0.1209 0.0
H1099 H 0.49098 0.13966 0.11954 0.0
H1100 H 0.50676 0.10107 0.04377 0.0
H1101 H 0.49839 0.12776 0.0778 0.0
H1102 H 0.5573 0.12268 0.12046 0.0
H1103 H 0.56589 0.09628 0.08599 0.0
C1104 C 0.54274 0.19251 0.13401 0.0
C1105 C 0.52218 0.19728 0.1371 0.0
C1106 C 0.54467 0.16895 0.12507 0.0
C1107 C 0.52597 0.14978 0.11865 0.0
C1108 C 0.50563 0.15414 0.12413 0.0
C1109 C 0.50376 0.17782 0.13342 0.0
C1110 C 0.51762 0.10515 0.06063 0.0
C1111 C 0.5373 0.09735 0.06208 0.0
C1112 C 0.51269 0.12021 0.08028 0.0
C1113 C 0.52739 0.12769 0.10172 0.0
C1114 C 0.54586 0.11753 0.10402 0.0
C1115 C 0.5508 0.10249 0.0843 0.0
H1116 H 0.15375 0.33055 0.3274 0.0
H1117 H 0.20619 0.36822 0.38352 0.0
H1118 H 0.18049 0.32333 0.29992 0.0
H1119 H 0.23278 0.36064 0.35632 0.0
H1120 H 0.23699 0.28529 0.2787 0.0
H1121 H 0.20744 0.29784 0.29819 0.0
H1122 H 0.24691 0.37144 0.3188 0.0
H1123 H 0.27689 0.35874 0.29966 0.0
C1124 C 0.17096 0.33718 0.33388 0.0
C1125 C 0.17793 0.34977 0.35763 0.0
C1126 C 0.18623 0.33313 0.31815 0.0
C1127 C 0.20868 0.34163 0.32593 0.0
C1128 C 0.21557 0.35435 0.34964 0.0
C1129 C 0.20035 0.35838 0.36533 0.0
C1130 C 0.23929 0.30427 0.28701 0.0
C1131 C 0.25942 0.32092 0.28813 0.0
C1132 C 0.22225 0.31149 0.29801 0.0
C1133 C 0.22503 0.3355 0.31032 0.0
C1134 C 0.24453 0.35268 0.30977 0.0
C1135 C 0.26162 0.34545 0.2987 0.0
H1136 H 0.97906 0.03044 0.19528 0.0
H1137 H 0.97864 0.10652 0.1978 0.0
H1138 H 0.99693 0.03033 0.15879 0.0
H1139 H 0.99646 0.10652 0.1604 0.0
H1140 H 0.04597 0.1067 0.10215 0.0
H1141 H 0.02528 0.10727 0.13701 0.0
H1142 H 1.0027 0.02886 0.11929 0.0
H1143 H 0.02386 0.02849 0.08473 0.0
C1144 C 0.98218 0.04725 0.18777 0.0
C1145 C 0.97639 0.06829 0.20018 0.0
C1146 C 0.99277 0.0472 0.16626 0.0
C1147 C 0.99882 0.06836 0.15533 0.0
C1148 C 0.99269 0.08952 0.16746 0.0
C1149 C 0.98185 0.0895 0.18913 0.0
C1150 C 0.03662 0.08941 0.10552 0.0
C1151 C 0.03717 0.06752 0.08981 0.0
C1152 C 0.02436 0.08975 0.12591 0.0
C1153 C 1.01168 0.06815 0.13228 0.0
C1154 C 1.01209 0.04623 0.11628 0.0
C1155 C 0.02437 0.04593 0.09583 0.0
H1156 H 0.33028 0.66842 0.45874 0.0
H1157 H 0.26667 0.63214 0.47315 0.0
H1158 H 0.31377 0.67983 0.42236 0.0
H1159 H 0.24984 0.64449 0.43709 0.0
H1160 H 0.24785 0.7258 0.4148 0.0
H1161 H 0.25249 0.69236 0.43615 0.0
H1162 H 0.28811 0.66526 0.38016 0.0
H1163 H 0.28275 0.6982 0.35814 0.0
C1164 C 0.31283 0.6621 0.45348 0.0
C1165 C 0.29968 0.64936 0.4684 0.0
C1166 C 0.30337 0.66852 0.43268 0.0
C1167 C 0.28055 0.66297 0.42697 0.0
C1168 C 0.26748 0.64874 0.44105 0.0
C1169 C 0.27707 0.64167 0.46154 0.0
C1170 C 0.25573 0.71208 0.40639 0.0
C1171 C 0.26554 0.71507 0.38519 0.0
C1172 C 0.25834 0.69286 0.41862 0.0
C1173 C 0.27094 0.67654 0.40991 0.0
C1174 C 0.27848 0.67779 0.38727 0.0
C1175 C 0.27561 0.69678 0.37487 0.0
H1176 H 0.66305 0.02644 0.67861 0.0
H1177 H 0.60103 1.01637 0.70726 0.0
H1178 H 0.64395 1.01662 0.63745 0.0
H1179 H 0.58207 1.00668 0.66624 0.0
H1180 H 0.55197 0.9953 0.5894 0.0
H1181 H 0.57339 0.98375 0.62276 0.0
H1182 H 0.62428 0.0483 0.62382 0.0
H1183 H 0.60267 0.06018 0.59153 0.0
C1184 C 0.64538 0.02114 0.67615 0.0
C1185 C 0.63349 0.02294 0.69608 0.0
C1186 C 0.63447 1.01556 0.6526 0.0
C1187 C 0.61159 1.01148 0.64876 0.0
C1188 C 0.59972 1.00982 0.66867 0.0
C1189 C 0.6106 1.0156 0.69218 0.0
C1190 C 0.5679 1.00674 0.59661 0.0
C1191 C 0.57582 0.02854 0.58788 0.0
C1192 C 0.58017 1.00003 0.61548 0.0
C1193 C 0.6006 1.01493 0.62559 0.0
C1194 C 0.60887 0.03609 0.61595 0.0
C1195 C 0.59649 0.04295 0.59747 0.0
H1196 H 0.3277 0.34533 0.98685 0.0
H1197 H 0.34889 0.41576 0.96503 0.0
H1198 H 0.32474 0.32524 0.94467 0.0
H1199 H 0.34654 0.3955 0.92288 0.0
H1200 H 0.36091 0.34332 0.85578 0.0
H1201 H 0.36572 0.36224 0.89856 0.0
H1202 H 0.299 0.32809 0.90441 0.0
H1203 H 0.2939 0.30968 0.86147 0.0
C1204 C 0.332 0.3565 0.9731 0.0
C1205 C 0.3385 0.38215 0.97926 0.0
C1206 C 0.3302 0.34499 0.94895 0.0
C1207 C 0.33539 0.35881 0.93052 0.0
C1208 C 0.34253 0.3844 0.93676 0.0
C1209 C 0.34382 0.39598 0.96084 0.0
C1210 C 0.34731 0.33965 0.86623 0.0
C1211 C 0.32703 0.32493 0.85521 0.0
C1212 C 0.35005 0.35063 0.89067 0.0
C1213 C 0.33274 0.34665 0.90477 0.0
C1214 C 0.31265 0.33138 0.89397 0.0
C1215 C 0.30974 0.32088 0.86939 0.0
H1216 H 0.99721 0.05808 0.3195 0.0
H1217 H 0.95031 0.08781 0.35814 0.0
H1218 H 1.01627 0.05326 0.35799 0.0
H1219 H 0.96963 0.08351 0.39679 0.0
H1220 H 0.02184 0.09364 0.46565 0.0
H1221 H 1.00224 0.09803 0.42727 0.0
H1222 H 1.01635 0.03118 0.39258 0.0
H1223 H 0.03551 0.02655 0.43107 0.0
C1224 C 0.99081 0.06367 0.33614 0.0
C1225 C 0.97182 0.07337 0.33495 0.0
C1226 C 1.00187 0.06078 0.35859 0.0
C1227 C 0.99495 0.06792 0.3814 0.0
C1228 C 0.97602 0.07783 0.38019 0.0
C1229 C 0.96468 0.08022 0.35767 0.0
C1230 C 0.02084 0.07973 0.44995 0.0
C1231 C 0.03065 0.05963 0.45227 0.0
C1232 C 1.00931 0.08222 0.42759 0.0
C1233 C 1.00727 0.06507 0.40593 0.0
C1234 C 1.01734 0.04513 0.40823 0.0
C1235 C 0.02844 0.04237 0.43071 0.0
H1236 H 0.32931 0.68827 0.60884 0.0
H1237 H 0.32116 0.75051 0.57523 0.0
H1238 H 0.3304 0.7126 0.64869 0.0
H1239 H 0.32115 0.77412 0.61455 0.0
H1240 H 0.33781 0.81779 0.69018 0.0
H1241 H 0.34118 0.79452 0.6513 0.0
H1242 H 0.30581 0.72837 0.67272 0.0
H1243 H 0.30349 0.75159 0.71208 0.0
C1244 C 0.32797 0.70715 0.60991 0.0
C1245 C 0.32501 0.7173 0.58874 0.0
C1246 C 0.32831 0.72102 0.63275 0.0
C1247 C 0.32555 0.74527 0.63488 0.0
C1248 C 0.32356 0.75566 0.61375 0.0
C1249 C 0.32345 0.74195 0.59106 0.0
C1250 C 0.33059 0.79832 0.68645 0.0
C1251 C 0.32031 0.78649 0.70406 0.0
C1252 C 0.33251 0.78493 0.66416 0.0
C1253 C 0.32389 0.75947 0.65883 0.0
C1254 C 0.3131 0.74781 0.67634 0.0
C1255 C 0.31145 0.76116 0.69875 0.0
H1256 H 0.64429 0.08633 0.80154 0.0
H1257 H 0.71243 0.09943 0.82991 0.0
H1258 H 0.63748 0.1113 0.83721 0.0
H1259 H 0.70551 0.12494 0.86634 0.0
H1260 H 0.66453 0.11871 0.93489 0.0
H1261 H 0.68494 0.11445 0.9004 0.0
H1262 H 0.64373 0.15179 0.8613 0.0
H1263 H 0.62219 0.15421 0.89475 0.0
C1264 C 0.65794 0.09489 0.81529 0.0
C1265 C 0.67885 0.09072 0.81303 0.0
C1266 C 0.6541 0.10958 0.83569 0.0
C1267 C 0.67103 0.12042 0.85453 0.0
C1268 C 0.69218 0.1169 0.85204 0.0
C1269 C 0.6961 0.10225 0.83131 0.0
C1270 C 0.66007 0.12645 0.91911 0.0
C1271 C 0.64094 0.1355 0.91707 0.0
C1272 C 0.67204 0.12438 0.89947 0.0
C1273 C 0.66527 0.13183 0.87778 0.0
C1274 C 0.6488 0.14512 0.87756 0.0
C1275 C 0.63653 0.14668 0.89694 0.0
H1276 H 0.36093 0.34737 0.10513 0.0
H1277 H 0.31577 0.3948 0.11404 0.0
H1278 H 0.35255 0.33266 0.14237 0.0
H1279 H 0.30749 0.38008 0.1521 0.0
H1280 H 0.2797 0.32086 0.20006 0.0
H1281 H 0.28892 0.342 0.16586 0.0
H1282 H 0.35715 0.34435 0.18569 0.0
H1283 H 0.34784 0.3229 0.21939 0.0
C1284 C 0.3493 0.3549 0.11515 0.0
C1285 C 0.33897 0.37228 0.10636 0.0
C1286 C 0.34461 0.34654 0.13676 0.0
C1287 C 0.32937 0.35517 0.15043 0.0
C1288 C 0.31921 0.37289 0.14196 0.0
C1289 C 0.32408 0.38148 0.12025 0.0
C1290 C 0.29667 0.32611 0.19716 0.0
C1291 C 0.31303 0.32018 0.21239 0.0
C1292 C 0.30199 0.3384 0.17768 0.0
C1293 C 0.32379 0.34479 0.17281 0.0
C1294 C 0.34015 0.33941 0.18857 0.0
C1295 C 0.33484 0.3272 0.208 0.0
H1296 H 0.25987 0.95534 0.02546 0.0
H1297 H 0.30696 1.02101 0.0195 0.0
H1298 H 0.23285 0.97937 0.03351 0.0
H1299 H 0.27956 0.0452 0.02728 0.0
H1300 H 0.22774 0.08028 0.06585 0.0
H1301 H 0.25709 0.05867 0.05924 0.0
H1302 H 0.2119 1.00125 1.00931 0.0
H1303 H 0.18264 0.02219 0.01648 0.0
C1304 C 0.26448 0.97495 0.02591 0.0
C1305 C 0.28551 0.98625 0.02165 0.0
C1306 C 0.24893 0.98871 0.03039 0.0
C1307 C 0.25398 1.01413 0.03069 0.0
C1308 C 0.27523 0.02564 0.02721 0.0
C1309 C 0.29087 1.01179 0.02268 0.0
C1310 C 0.22413 0.06303 0.05349 0.0
C1311 C 0.20285 0.05297 0.04169 0.0
C1312 C 0.24096 0.05078 0.04956 0.0
C1313 C 0.23675 0.02817 0.03392 0.0
C1314 C 0.2156 1.01847 0.02175 0.0
C1315 C 0.19887 0.03066 0.02562 0.0
H1316 H 0.69959 0.69065 0.98704 0.0
H1317 H 0.73715 0.6383 1.00423 0.0
H1318 H 0.66595 0.66105 0.98893 0.0
H1319 H 0.70344 0.60883 1.00649 0.0
H1320 H 0.63857 0.55318 0.98465 0.0
H1321 H 0.67171 0.58302 0.98153 0.0
H1322 H 0.64485 0.64078 0.01737 0.0
H1323 H 0.61141 0.61069 0.02003 0.0
C1324 C 0.70074 0.67281 0.99118 0.0
C1325 C 0.72124 0.66694 0.99541 0.0
C1326 C 0.68136 0.65587 0.99246 0.0
C1327 C 0.68186 0.63249 0.99794 0.0
C1328 C 0.70234 0.62652 1.00194 0.0
C1329 C 0.72174 0.6435 1.00072 0.0
C1330 C 0.6397 0.57227 0.99182 0.0
C1331 C 0.62238 0.57956 1.00272 0.0
C1332 C 0.65882 0.58939 0.99019 0.0
C1333 C 0.66116 0.61437 0.99936 0.0
C1334 C 0.64363 0.62174 1.00996 0.0
C1335 C 0.62448 0.60451 1.01165 0.0
H1336 H 0.75088 0.49032 0.27717 0.0
H1337 H 0.69142 0.44004 0.28397 0.0
H1338 H 0.77004 0.4569 0.27411 0.0
H1339 H 0.71056 0.40633 0.28116 0.0
H1340 H 0.74701 0.34209 0.26427 0.0
H1341 H 0.72718 0.37517 0.26663 0.0
H1342 H 0.78832 0.42833 0.28428 0.0
H1343 H 0.80789 0.39528 0.28166 0.0
C1344 C 0.74161 0.47214 0.27805 0.0
C1345 C 0.71901 0.46893 0.28084 0.0
C1346 C 0.75292 0.45239 0.27642 0.0
C1347 C 0.74264 0.42756 0.27736 0.0
C1348 C 0.71991 0.42437 0.28003 0.0
C1349 C 0.7086 0.44422 0.28177 0.0
C1350 C 0.75645 0.36078 0.2686 0.0
C1351 C 0.77967 0.36498 0.27258 0.0
C1352 C 0.74479 0.38033 0.27014 0.0
C1353 C 0.75537 0.40578 0.27569 0.0
C1354 C 0.77864 0.4098 0.27963 0.0
C1355 C 0.79024 0.39029 0.27819 0.0
H1356 H 0.88228 0.48743 0.48659 0.0
H1357 H 0.90125 0.41969 0.49518 0.0
H1358 H 0.92052 0.50723 0.48612 0.0
H1359 H 0.9393 0.43956 0.49471 0.0
H1360 H 1.00323 0.49543 0.53059 0.0
H1361 H 0.96529 0.4729 0.52492 0.0
H1362 H 0.95278 0.50562 0.46165 0.0
H1363 H 0.99089 0.52824 0.46721 0.0
C1364 C 0.89452 0.47669 0.4881 0.0
C1365 C 0.88867 0.45202 0.49112 0.0
C1366 C 0.91639 0.488 0.48769 0.0
C1367 C 0.93283 0.47494 0.49055 0.0
C1368 C 0.92694 0.45011 0.49273 0.0
C1369 C 0.90511 0.43873 0.49289 0.0
C1370 C 0.99248 0.49767 0.51532 0.0
C1371 C 1.00006 0.51364 0.49936 0.0
C1372 C 0.97078 0.48467 0.51202 0.0
C1373 C 0.95614 0.48755 0.49285 0.0
C1374 C 0.96374 0.5032 0.47665 0.0
C1375 C 0.98556 0.51601 0.47976 0.0
H1376 H 0.44181 0.13216 0.29549 0.0
H1377 H 0.40347 0.06452 0.25356 0.0
H1378 H 0.41525 0.15396 0.28078 0.0
H1379 H 0.37753 0.08635 0.23735 0.0
H1380 H 0.32021 0.12368 0.24994 0.0
H1381 H 0.34974 0.10214 0.25328 0.0
H1382 H 0.39673 0.16944 0.25144 0.0
H1383 H 0.36712 0.1909 0.25004 0.0
C1384 C 0.42811 0.1222 0.28232 0.0
C1385 C 0.42441 0.09676 0.27582 0.0
C1386 C 0.41285 0.13464 0.27378 0.0
C1387 C 0.39391 0.12184 0.25818 0.0
C1388 C 0.39149 0.09668 0.24994 0.0
C1389 C 0.40645 0.0842 0.25897 0.0
C1390 C 0.33687 0.13362 0.24996 0.0
C1391 C 0.3416 0.15888 0.24993 0.0
C1392 C 0.35384 0.12133 0.25166 0.0
C1393 C 0.37577 0.13407 0.25281 0.0
C1394 C 0.38018 0.15912 0.25118 0.0
C1395 C 0.36327 0.17141 0.25012 0.0
H1396 H 0.36403 0.20088 0.50717 0.0
H1397 H 0.32221 0.13385 0.51893 0.0
H1398 H 0.39579 0.18299 0.51255 0.0
H1399 H 0.35385 0.11576 0.5238 0.0
H1400 H 0.41689 0.09758 0.5535 0.0
H1401 H 0.38622 0.11729 0.55029 0.0
H1402 H 0.41288 0.15261 0.49277 0.0
H1403 H 0.44411 0.13367 0.49669 0.0
C1404 C 0.3616 0.18232 0.51094 0.0
C1405 C 0.34052 0.16884 0.51265 0.0
C1406 C 0.37983 0.17197 0.51384 0.0
C1407 C 0.37751 0.14784 0.51857 0.0
C1408 C 0.35641 0.13448 0.52051 0.0
C1409 C 0.33819 0.14483 0.5176 0.0
C1410 C 0.41646 0.10985 0.5404 0.0
C1411 C 0.43316 0.11402 0.52542 0.0
C1412 C 0.39863 0.12093 0.53833 0.0
C1413 C 0.3969 0.13654 0.52119 0.0
C1414 C 0.41369 0.14092 0.50635 0.0
C1415 C 0.43153 0.1298 0.50841 0.0
H1416 H 0.74345 0.59686 0.28599 0.0
H1417 H 0.69224 0.63386 0.3028 0.0
H1418 H 0.7676 0.63642 0.28394 0.0
H1419 H 0.71617 0.67306 0.30129 0.0
H1420 H 0.75905 0.7433 0.28096 0.0
H1421 H 0.73435 0.70365 0.28226 0.0
H1422 H 0.79 0.67363 0.30045 0.0
H1423 H 0.81413 0.71256 0.29864 0.0
C1424 C 0.73725 0.6133 0.28954 0.0
C1425 C 0.71546 0.61133 0.29468 0.0
C1426 C 0.7513 0.63644 0.28842 0.0
C1427 C 0.7444 0.659 0.29238 0.0
C1428 C 0.72263 0.65683 0.29764 0.0
C1429 C 0.70869 0.63385 0.29874 0.0
C1430 C 0.76602 0.72831 0.28534 0.0
C1431 C 0.78897 0.73184 0.28973 0.0
C1432 C 0.75172 0.70518 0.28618 0.0
C1433 C 0.75962 0.68434 0.29138 0.0
C1434 C 0.7826 0.68826 0.29588 0.0
C1435 C 0.79672 0.71115 0.29506 0.0
H1436 H 0.94928 0.47319 0.8541 0.0
H1437 H 0.90268 0.51467 0.83225 0.0
H1438 H 0.91943 0.43704 0.85091 0.0
H1439 H 0.87325 0.47851 0.82867 0.0
H1440 H 0.84395 0.39942 0.78194 0.0
H1441 H 0.86978 0.43877 0.79541 0.0
H1442 H 0.88071 0.42001 0.86669 0.0
H1443 H 0.85449 0.38079 0.85346 0.0
C1444 C 0.9327 0.47483 0.84931 0.0
C1445 C 0.92845 0.49669 0.84296 0.0
C1446 C 0.91565 0.45414 0.84747 0.0
C1447 C 0.89421 0.45504 0.83913 0.0
C1448 C 0.88973 0.47736 0.83481 0.0
C1449 C 0.90664 0.49804 0.83691 0.0
C1450 C 0.85155 0.40388 0.80059 0.0
C1451 C 0.84715 0.38714 0.81667 0.0
C1452 C 0.86625 0.42637 0.80831 0.0
C1453 C 0.87711 0.43229 0.83208 0.0
C1454 C 0.87248 0.41578 0.8483 0.0
C1455 C 0.85741 0.39348 0.84074 0.0
H1456 H 0.12206 0.88174 0.08048 0.0
H1457 H 0.09494 0.91219 0.14251 0.0
H1458 H 0.11539 0.91528 0.05951 0.0
H1459 H 0.08778 0.94513 0.12135 0.0
H1460 H 0.05224 0.97833 0.06215 0.0
H1461 H 0.06159 0.94591 0.08271 0.0
H1462 H 0.1273 0.96409 0.0644 0.0
H1463 H 0.11812 0.99715 0.0443 0.0
C1464 C 0.11487 0.89568 0.08975 0.0
C1465 C 0.10912 0.89421 0.11327 0.0
C1466 C 0.11105 0.91491 0.07771 0.0
C1467 C 0.10088 0.93284 0.08864 0.0
C1468 C 0.09546 0.93155 0.11229 0.0
C1469 C 0.09973 0.91271 0.12451 0.0
C1470 C 0.06867 0.97539 0.06233 0.0
C1471 C 0.08438 0.99041 0.05145 0.0
C1472 C 0.07407 0.95686 0.07429 0.0
C1473 C 0.09523 0.95239 0.07533 0.0
C1474 C 0.11084 0.96696 0.0639 0.0
C1475 C 0.10557 0.98593 0.05239 0.0
H1476 H 0.97387 0.27772 0.86681 0.0
H1477 H 0.9423 0.29631 0.92979 0.0
H1478 H 0.94094 0.2786 0.84059 0.0
H1479 H 0.90958 0.29671 0.90384 0.0
H1480 H 0.86301 0.32264 0.85083 0.0
H1481 H 0.89526 0.32011 0.87707 0.0
H1482 H 0.90345 0.25849 0.82663 0.0
H1483 H 0.87147 0.26141 0.80028 0.0
C1484 C 0.95992 0.28177 0.87512 0.0
C1485 C 0.96099 0.28701 0.90054 0.0
C1486 C 0.94092 0.2822 0.86005 0.0
C1487 C 0.92243 0.28791 0.86996 0.0
C1488 C 0.92347 0.29272 0.89537 0.0
C1489 C 0.94235 0.2923 0.91035 0.0
C1490 C 0.87157 0.3084 0.84548 0.0
C1491 C 0.8646 0.29226 0.8234 0.0
C1492 C 0.89012 0.30688 0.86056 0.0
C1493 C 0.90225 0.28914 0.85405 0.0
C1494 C 0.89491 0.27268 0.83217 0.0
C1495 C 0.87638 0.2742 0.81712 0.0
H1496 H 0.5809 0.25584 0.62401 0.0
H1497 H 0.62877 0.26114 0.57345 0.0
H1498 H 0.57141 0.21111 0.61169 0.0
H1499 H 0.61931 0.21703 0.56131 0.0
H1500 H 0.61492 0.13644 0.56355 0.0
H1501 H 0.62312 0.18033 0.57824 0.0
H1502 H 0.55423 0.17854 0.57544 0.0
H1503 H 0.5459 0.13435 0.56075 0.0
C1504 C 0.58943 0.24756 0.61035 0.0
C1505 C 0.60565 0.26228 0.59981 0.0
C1506 C 0.58389 0.22192 0.60319 0.0
C1507 C 0.59467 0.21037 0.58558 0.0
C1508 C 0.61086 0.22515 0.57515 0.0
C1509 C 0.6162 0.25061 0.58206 0.0
C1510 C 0.60144 0.14527 0.56609 0.0
C1511 C 0.57971 0.13169 0.56077 0.0
C1512 C 0.60617 0.17056 0.57445 0.0
C1513 C 0.58936 0.18311 0.57794 0.0
C1514 C 0.56761 0.16949 0.57314 0.0
C1515 C 0.56284 0.14414 0.56455 0.0
H1516 H 0.55964 0.76632 0.35205 0.0
H1517 H 0.59892 0.78733 0.42189 0.0
H1518 H 0.59283 0.76812 0.33222 0.0
H1519 H 0.63188 0.78843 0.40231 0.0
H1520 H 0.68652 0.81934 0.36007 0.0
H1521 H 0.65327 0.81376 0.37929 0.0
H1522 H 0.6239 0.75093 0.32449 0.0
H1523 H 0.65701 0.75727 0.3045 0.0
C1524 C 0.57532 0.77092 0.3632 0.0
C1525 C 0.57658 0.77685 0.38856 0.0
C1526 C 0.5944 0.77189 0.35183 0.0
C1527 C 0.61521 0.77874 0.36557 0.0
C1528 C 0.61628 0.78367 0.39101 0.0
C1529 C 0.5973 0.78284 0.4023 0.0
C1530 C 0.67297 0.80441 0.35194 0.0
C1531 C 0.67456 0.78889 0.33056 0.0
C1532 C 0.65389 0.80098 0.36321 0.0
C1533 C 0.63574 0.78181 0.35359 0.0
C1534 C 0.63739 0.76604 0.33236 0.0
C1535 C 0.65654 0.7695 0.32104 0.0
H1536 H 0.12493 0.29015 0.40856 0.0
H1537 H 0.14403 0.3273 0.48253 0.0
H1538 H 0.12061 0.25059 0.42265 0.0
H1539 H 0.13972 0.28802 0.49648 0.0
H1540 H 0.14114 0.21399 0.51484 0.0
H1541 H 0.15329 0.24964 0.49546 0.0
H1542 H 0.09288 0.23008 0.44713 0.0
H1543 H 0.0806 0.19473 0.46662 0.0
C1544 C 0.12865 0.28988 0.42773 0.0
C1545 C 0.13461 0.31181 0.44447 0.0
C1546 C 0.12605 0.26726 0.43579 0.0
C1547 C 0.12972 0.26623 0.46067 0.0
C1548 C 0.13695 0.28819 0.47718 0.0
C1549 C 0.13927 0.31071 0.46919 0.0
C1550 C 0.1305 0.21725 0.5 0.0
C1551 C 0.10978 0.20171 0.49249 0.0
C1552 C 0.13751 0.23758 0.48884 0.0
C1553 C 0.12399 0.2427 0.46987 0.0
C1554 C 0.10378 0.22644 0.4615 0.0
C1555 C 0.09673 0.20619 0.47272 0.0
H1556 H 0.59258 0.31598 0.1512 0.0
H1557 H 0.56467 0.28513 0.21065 0.0
H1558 H 0.62907 0.3199 0.17187 0.0
H1559 H 0.60102 0.28829 0.23078 0.0
H1560 H 0.66986 0.2978 0.26456 0.0
H1561 H 0.63685 0.31032 0.24997 0.0
H1562 H 0.64747 0.2874 0.17601 0.0
H1563 H 0.68064 0.27599 0.1905 0.0
C1564 C 0.59419 0.3105 0.16888 0.0
C1565 C 0.57571 0.29963 0.17895 0.0
C1566 C 0.61511 0.31263 0.18067 0.0
C1567 C 0.61794 0.30378 0.20264 0.0
C1568 C 0.59945 0.29528 0.21388 0.0
C1569 C 0.57854 0.29334 0.2022 0.0
C1570 C 0.66527 0.29586 0.2452 0.0
C1571 C 0.67761 0.28552 0.22866 0.0
C1572 C 0.64635 0.30293 0.23685 0.0
C1573 C 0.63951 0.29987 0.21183 0.0
C1574 C 0.65239 0.2904 0.19539 0.0
C1575 C 0.67121 0.28339 0.2037 0.0
H1576 H 0.66779 0.95178 0.92086 0.0
H1577 H 0.60037 0.92093 0.89279 0.0
H1578 H 0.65871 0.99063 0.93557 0.0
H1579 H 0.59049 0.95829 0.91012 0.0
H1580 H 0.57286 0.02191 0.95063 0.0
H1581 H 0.5875 0.998 0.91881 0.0
H1582 H 0.64467 1.00181 0.9694 0.0
H1583 H 0.63084 0.02665 0.9997 0.0
C1584 C 0.65102 0.9535 0.91777 0.0
C1585 C 0.63464 0.93344 0.90641 0.0
C1586 C 0.64568 0.9756 0.92643 0.0
C1587 C 0.62365 0.97747 0.92519 0.0
C1588 C 0.60761 0.95785 0.91168 0.0
C1589 C 0.61316 0.93616 0.90203 0.0
C1590 C 0.58881 1.01807 0.95447 0.0
C1591 C 0.60046 0.02544 0.97773 0.0
C1592 C 0.59718 1.00421 0.93636 0.0
C1593 C 0.61714 0.99728 0.94146 0.0
C1594 C 0.62942 1.0067 0.96428 0.0
C1595 C 0.62129 1.02076 0.98201 0.0
H1596 H 0.92991 0.72614 0.67491 0.0
H1597 H 0.97777 0.75749 0.73743 0.0
H1598 H 0.90075 0.72641 0.70042 0.0
H1599 H 0.94844 0.75776 0.76305 0.0
H1600 H 0.85082 0.7272 0.75021 0.0
H1601 H 0.88234 0.71333 0.73615 0.0
H1602 H 0.9225 0.78606 0.7606 0.0
H1603 H 0.89117 0.79994 0.77462 0.0
C1604 C 0.9342 0.73248 0.69422 0.0
C1605 C 0.95602 0.74229 0.70414 0.0
C1606 C 0.91752 0.73241 0.70888 0.0
C1607 C 0.92238 0.74236 0.73364 0.0
C1608 C 0.94431 0.75018 0.74395 0.0
C1609 C 0.96105 0.75001 0.7293 0.0
C1610 C 0.86646 0.74011 0.753 0.0
C1611 C 0.86841 0.76483 0.76295 0.0
C1612 C 0.88448 0.73212 0.74503 0.0
C1613 C 0.90477 0.74866 0.74716 0.0
C1614 C 0.90709 0.77284 0.75893 0.0
C1615 C 0.88906 0.78088 0.76669 0.0
H1616 H 0.1279 0.02327 0.83219 0.0
H1617 H 0.18944 0.04695 0.87762 0.0
H1618 H 0.10858 0.0257 0.86824 0.0
H1619 H 0.17006 0.05025 0.91383 0.0
H1620 H 0.12549 0.07355 0.97521 0.0
H1621 H 0.14601 0.07186 0.93973 0.0
H1622 H 0.09861 1.00746 0.90444 0.0
H1623 H 0.07879 1.00862 0.94001 0.0
C1624 C 0.13756 0.02918 0.84979 0.0
C1625 C 0.16074 0.0348 0.85102 0.0
C1626 C 0.12625 0.03052 0.87094 0.0
C1627 C 0.13718 0.03825 0.89501 0.0
C1628 C 0.16041 0.04433 0.89623 0.0
C1629 C 0.17177 0.04233 0.87505 0.0
C1630 C 0.11931 0.0589 0.96002 0.0
C1631 C 0.09992 0.04126 0.96142 0.0
C1632 C 0.13134 0.05783 0.93928 0.0
C1633 C 0.12449 0.03949 0.91814 0.0
C1634 C 0.10494 0.02216 0.91955 0.0
C1635 C 0.09334 0.02282 0.94045 0.0
H1636 H 0.85993 0.4659 0.57799 0.0
H1637 H 0.80112 0.41141 0.57915 0.0
H1638 H 0.86918 0.46793 0.62183 0.0
H1639 H 0.80976 0.41418 0.6229 0.0
H1640 H 0.8813 0.40208 0.66941 0.0
H1641 H 0.87645 0.42565 0.63731 0.0
H1642 H 0.82062 0.44528 0.66704 0.0
H1643 H 0.82616 0.42288 0.70033 0.0
C1644 C 0.84857 0.45521 0.58789 0.0
C1645 C 0.82991 0.43842 0.57552 0.0
C1646 C 0.85382 0.45643 0.61283 0.0
C1647 C 0.84007 0.44139 0.6256 0.0
C1648 C 0.82041 0.42628 0.61347 0.0
C1649 C 0.81553 0.42452 0.5885 0.0
C1650 C 0.86873 0.41249 0.67005 0.0
C1651 C 0.85361 0.40984 0.68697 0.0
C1652 C 0.86599 0.42606 0.65159 0.0
C1653 C 0.84795 0.43683 0.64961 0.0
C1654 C 0.83455 0.43692 0.66822 0.0
C1655 C 0.83758 0.42381 0.68701 0.0
H1656 H 0.51852 0.09196 0.3564 0.0
H1657 H 0.45984 0.08313 0.39147 0.0
H1658 H 0.54045 0.09603 0.39537 0.0
H1659 H 0.4819 0.08695 0.43069 0.0
H1660 H 0.52638 0.04454 0.4735 0.0
H1661 H 0.50306 0.05468 0.44148 0.0
H1662 H 0.55206 0.11985 0.439 0.0
H1663 H 0.57523 0.11015 0.47217 0.0
C1664 C 0.51039 0.09149 0.37259 0.0
C1665 C 0.48753 0.08694 0.371 0.0
C1666 C 0.52295 0.09402 0.3949 0.0
C1667 C 0.51283 0.09165 0.41595 0.0
C1668 C 0.49004 0.08876 0.41463 0.0
C1669 C 0.47746 0.08664 0.39228 0.0
C1670 C 0.53187 0.06149 0.46676 0.0
C1671 C 0.55241 0.07678 0.47555 0.0
C1672 C 0.51851 0.06729 0.44841 0.0
C1673 C 0.52564 0.08822 0.43803 0.0
C1674 C 0.54616 0.10371 0.4469 0.0
C1675 C 0.55941 0.0981 0.46568 0.0
H1676 H 0.75983 0.74889 0.07544 0.0
H1677 H 0.82299 0.73089 0.07862 0.0
H1678 H 0.76528 0.76229 0.11897 0.0
H1679 H 0.82952 0.74621 0.12212 0.0
H1680 H 0.82899 0.75644 0.20383 0.0
H1681 H 0.82336 0.74147 0.16042 0.0
H1682 H 0.78116 0.79149 0.1506 0.0
H1683 H 0.78554 0.80475 0.19424 0.0
C1684 C 0.77508 0.74815 0.08551 0.0
C1685 C 0.79098 0.73885 0.07359 0.0
C1686 C 0.77838 0.75612 0.11061 0.0
C1687 C 0.79803 0.75579 0.12456 0.0
C1688 C 0.81399 0.74648 0.11243 0.0
C1689 C 0.81036 0.7378 0.08736 0.0
C1690 C 0.8185 0.76417 0.1923 0.0
C1691 C 0.80762 0.78168 0.20247 0.0
C1692 C 0.81535 0.75571 0.16724 0.0
C1693 C 0.80168 0.76503 0.15148 0.0
C1694 C 0.7913 0.78313 0.16183 0.0
C1695 C 0.79396 0.79103 0.18696 0.0
H1696 H 0.13756 0.9949 0.70656 0.0
H1697 H 0.16944 0.07092 0.71485 0.0
H1698 H 0.12011 0.99698 0.66611 0.0
H1699 H 0.15255 0.07318 0.67468 0.0
H1700 H 0.10424 0.08084 0.61115 0.0
H1701 H 0.12307 0.07673 0.6497 0.0
H1702 H 0.11607 0.99966 0.62438 0.0
H1703 H 0.09684 1.00387 0.58576 0.0
C1704 C 0.14169 1.0119 0.69951 0.0
C1705 C 0.15603 0.03244 0.71435 0.0
C1706 C 0.1313 1.01327 0.67601 0.0
C1707 C 0.13423 0.03542 0.66608 0.0
C1708 C 0.14901 0.0557 0.68087 0.0
C1709 C 0.15933 0.05427 0.70417 0.0
C1710 C 0.10661 0.06288 0.61354 0.0
C1711 C 0.09859 0.04281 0.59444 0.0
C1712 C 0.11782 0.06047 0.63608 0.0
C1713 C 0.12182 0.03776 0.64123 0.0
C1714 C 0.11362 1.01759 0.62211 0.0
C1715 C 0.10245 1.02005 0.59947 0.0
H1716 H 0.80563 0.42585 0.42051 0.0
H1717 H 0.81679 0.3742 0.46734 0.0
H1718 H 0.80664 0.39596 0.38524 0.0
H1719 H 0.81855 0.34439 0.43191 0.0
H1720 H 0.7965 0.29087 0.35728 0.0
H1721 H 0.79675 0.31802 0.39557 0.0
H1722 H 0.83401 0.37859 0.36716 0.0
H1723 H 0.83275 0.35207 0.32902 0.0
C1724 C 0.80838 0.40812 0.42325 0.0
C1725 C 0.81131 0.40243 0.44664 0.0
C1726 C 0.80912 0.39102 0.40307 0.0
C1727 C 0.81308 0.36794 0.40582 0.0
C1728 C 0.81545 0.36199 0.42922 0.0
C1729 C 0.81453 0.37909 0.44947 0.0
C1730 C 0.80503 0.3099 0.35951 0.0
C1731 C 0.81455 0.31942 0.34022 0.0
C1732 C 0.80519 0.32543 0.38137 0.0
C1733 C 0.815 0.35056 0.38416 0.0
C1734 C 0.82578 0.35949 0.36536 0.0
C1735 C 0.82536 0.34418 0.34359 0.0
H1736 H 0.48789 0.9866 0.26327 0.0
H1737 H 0.46079 0.04279 0.2356 0.0
H1738 H 0.49318 0.97003 0.22232 0.0
H1739 H 0.46699 0.02699 0.19478 0.0
H1740 H 0.53753 0.98578 0.16216 0.0
H1741 H 0.52007 0.98643 0.19862 0.0
H1742 H 0.46124 0.99603 0.15914 0.0
H1743 H 0.47902 0.99546 0.12215 0.0
C1744 C 0.48294 0.9953 0.24837 0.0
C1745 C 0.47444 1.01632 0.25261 0.0
C1746 C 0.48593 0.9858 0.22493 0.0
C1747 C 0.48091 0.99746 0.20534 0.0
C1748 C 0.47089 1.01742 0.20939 0.0
C1749 C 0.46754 0.02666 0.23283 0.0
C1750 C 0.5206 0.98709 0.1609 0.0
C1751 C 0.50975 0.99082 0.13928 0.0
C1752 C 0.51051 0.98746 0.18194 0.0
C1753 C 0.4893 0.99154 0.18189 0.0
C1754 C 0.47776 0.99329 0.15983 0.0
C1755 C 0.48791 0.99295 0.13868 0.0
H1756 H 0.80559 0.68678 0.92541 0.0
H1757 H 0.77731 0.74696 0.95233 0.0
H1758 H 0.81103 0.70358 0.88799 0.0
H1759 H 0.78216 0.76332 0.91443 0.0
H1760 H 0.77728 0.76783 0.8302 0.0
H1761 H 0.76862 0.7478 0.86535 0.0
H1762 H 0.83653 0.74704 0.88184 0.0
H1763 H 0.84531 0.76782 0.84732 0.0
C1764 C 0.80016 0.70335 0.92318 0.0
C1765 C 0.79103 0.71555 0.94189 0.0
C1766 C 0.80337 0.713 0.90178 0.0
C1767 C 0.79703 0.73475 0.89831 0.0
C1768 C 0.7871 0.74645 0.91657 0.0
C1769 C 0.78437 0.73712 0.93827 0.0
C1770 C 0.79031 0.76318 0.84123 0.0
C1771 C 0.81199 0.76939 0.83606 0.0
C1772 C 0.78537 0.75186 0.86139 0.0
C1773 C 0.80191 0.7459 0.87633 0.0
C1774 C 0.82345 0.75133 0.8706 0.0
C1775 C 0.82847 0.76323 0.85087 0.0
H1776 H 0.887 0.1508 0.05484 0.0
H1777 H 0.83608 0.08716 0.05652 0.0
H1778 H 0.9139 0.12574 0.05413 0.0
H1779 H 0.86322 0.06176 0.05585 0.0
H1780 H 0.91206 0.02721 1.00968 0.0
H1781 H 0.88439 0.04884 0.02279 0.0
H1782 H 0.93328 0.09984 0.07482 0.0
H1783 H 0.96105 0.07881 0.0612 0.0
C1784 C 0.88168 0.13151 0.05578 0.0
C1785 C 0.85946 0.1209 0.05565 0.0
C1786 C 0.89712 0.11712 0.05545 0.0
C1787 C 0.89069 0.09169 0.05472 0.0
C1788 C 0.86863 0.08128 0.05616 0.0
C1789 C 0.85314 0.09582 0.05682 0.0
C1790 C 0.91687 0.04291 0.02406 0.0
C1791 C 0.93884 0.05139 0.03416 0.0
C1792 C 0.90094 0.05512 0.0318 0.0
C1793 C 0.90665 0.07616 0.04977 0.0
C1794 C 0.92839 0.08382 0.06079 0.0
C1795 C 0.94428 0.07161 0.05309 0.0
H1796 H 0.42703 0.41035 0.02801 0.0
H1797 H 0.3986 0.46819 0.06086 0.0
H1798 H 0.46167 0.43939 0.03004 0.0
H1799 H 0.4336 0.4975 0.0627 0.0
H1800 H 0.50709 0.53795 0.08145 0.0
H1801 H 0.47256 0.5087 0.08239 0.0
H1802 H 0.47646 0.47374 1.00987 0.0
H1803 H 0.51051 0.50301 1.00888 0.0
C1804 C 0.42809 0.42927 0.03572 0.0
C1805 C 0.40977 0.4368 0.04417 0.0
C1806 C 0.44805 0.44601 0.03676 0.0
C1807 C 0.45049 0.47088 0.04638 0.0
C1808 C 0.43237 0.47845 0.05532 0.0
C1809 C 0.41224 0.46165 0.05413 0.0
C1810 C 0.50058 0.52392 0.06578 0.0
C1811 C 0.51172 0.52267 0.04517 0.0
C1812 C 0.48072 0.50725 0.06626 0.0
C1813 C 0.47166 0.48876 0.04623 0.0
C1814 C 0.48301 0.48746 0.02577 0.0
C1815 C 0.50263 0.50426 0.0252 0.0
H1816 H 0.44072 0.66568 0.78359 0.0
H1817 H 0.38094 0.61448 0.75315 0.0
H1818 H 0.4216 0.6993 0.78547 0.0
H1819 H 0.36176 0.64776 0.75452 0.0
H1820 H 0.32402 0.7099 0.76549 0.0
H1821 H 0.34349 0.67691 0.76408 0.0
H1822 H 0.40474 0.73017 0.77957 0.0
H1823 H 0.38491 0.76317 0.78134 0.0
C1824 C 0.42346 0.66129 0.77706 0.0
C1825 C 0.41296 0.63636 0.7681 0.0
C1826 C 0.41213 0.6811 0.7781 0.0
C1827 C 0.38929 0.67766 0.77028 0.0
C1828 C 0.37895 0.65259 0.76122 0.0
C1829 C 0.39027 0.63286 0.76022 0.0
C1830 C 0.34167 0.71491 0.76871 0.0
C1831 C 0.35225 0.74022 0.77364 0.0
C1832 C 0.35326 0.69542 0.76774 0.0
C1833 C 0.37655 0.69944 0.77155 0.0
C1834 C 0.38711 0.72492 0.77656 0.0
C1835 C 0.37546 0.74446 0.77756 0.0
H1836 H 0.24752 0.61745 0.5425 0.0
H1837 H 0.2323 0.6808 0.51597 0.0
H1838 H 0.20889 0.60243 0.54622 0.0
H1839 H 0.19416 0.6662 0.52031 0.0
H1840 H 0.12664 0.61651 0.49832 0.0
H1841 H 0.1652 0.63358 0.49926 0.0
H1842 H 0.17806 0.61007 0.56803 0.0
H1843 H 0.13904 0.59204 0.56674 0.0
C1844 C 0.23602 0.62826 0.53765 0.0
C1845 C 0.24301 0.65017 0.52864 0.0
C1846 C 0.21392 0.61976 0.53997 0.0
C1847 C 0.19843 0.63305 0.53341 0.0
C1848 C 0.20558 0.65528 0.52509 0.0
C1849 C 0.22753 0.66367 0.52264 0.0
C1850 C 0.13756 0.61511 0.51383 0.0
C1851 C 0.12971 0.60285 0.53247 0.0
C1852 C 0.15975 0.62507 0.51442 0.0
C1853 C 0.17474 0.62324 0.53375 0.0
C1854 C 0.16691 0.61155 0.55277 0.0
C1855 C 0.14456 0.60147 0.55217 0.0
H1856 H 0.6976 0.98519 0.77262 0.0
H1857 H 0.74163 0.02594 0.73045 0.0
H1858 H 0.72234 0.95794 0.77706 0.0
H1859 H 0.76623 0.99837 0.73458 0.0
H1860 H 0.81603 0.96471 0.77617 0.0
H1861 H 0.79046 0.9906 0.76847 0.0
H1862 H 0.73711 0.92665 0.75358 0.0
H1863 H 0.76244 0.90101 0.76209 0.0
C1864 C 0.7124 0.98809 0.76399 0.0
C1865 C 0.71776 1.00774 0.7513 0.0
C1866 C 0.72653 0.97246 0.76647 0.0
C1867 C 0.74627 0.97619 0.75631 0.0
C1868 C 0.75128 0.99534 0.74292 0.0
C1869 C 0.73712 1.01097 0.7404 0.0
C1870 C 0.79883 0.95629 0.77134 0.0
C1871 C 0.79121 0.9309 0.76959 0.0
C1872 C 0.78425 0.97101 0.76668 0.0
C1873 C 0.76184 0.96057 0.76033 0.0
C1874 C 0.75428 0.93518 0.75857 0.0
C1875 C 0.76881 0.9205 0.7632 0.0
H1876 H 0.80745 0.97496 0.57226 0.0
H1877 H 0.76418 0.90525 0.54246 0.0
H1878 H 0.77649 0.99464 0.5708 0.0
H1879 H 0.73329 0.92492 0.54066 0.0
H1880 H 0.67888 0.96499 0.55748 0.0
H1881 H 0.70952 0.94534 0.56358 0.0
H1882 H 0.75229 1.00574 0.54068 0.0
H1883 H 0.72194 0.02564 0.53532 0.0
C1884 C 0.79131 0.96376 0.56562 0.0
C1885 C 0.78839 0.93849 0.55747 0.0
C1886 C 0.77353 0.9751 0.56457 0.0
C1887 C 0.75227 0.96149 0.55541 0.0
C1888 C 0.74929 0.93605 0.54802 0.0
C1889 C 0.76708 0.92474 0.54899 0.0
C1890 C 0.69486 0.9742 0.55397 0.0
C1891 C 0.69777 0.99691 0.54575 0.0
C1892 C 0.71244 0.9628 0.55726 0.0
C1893 C 0.73352 0.97386 0.55264 0.0
C1894 C 0.73644 0.99671 0.54472 0.0
C1895 C 0.71888 1.00802 0.54131 0.0
H1896 H 0.38701 0.5046 0.7553 0.0
H1897 H 0.44075 0.47784 0.78562 0.0
H1898 H 0.36275 0.46435 0.75432 0.0
H1899 H 0.41682 0.43838 0.78541 0.0
H1900 H 0.37241 0.3602 0.77144 0.0
H1901 H 0.39692 0.39991 0.77026 0.0
H1902 H 0.34178 0.43396 0.76973 0.0
H1903 H 0.31777 0.39464 0.77008 0.0
C1904 C 0.3938 0.49037 0.76194 0.0
C1905 C 0.41633 0.49534 0.77048 0.0
C1906 C 0.37968 0.46685 0.76153 0.0
C1907 C 0.38721 0.44693 0.76977 0.0
C1908 C 0.40974 0.45219 0.77837 0.0
C1909 C 0.42374 0.47547 0.77866 0.0
C1910 C 0.36549 0.37611 0.77099 0.0
C1911 C 0.34269 0.3735 0.77084 0.0
C1912 C 0.37971 0.39938 0.77046 0.0
C1913 C 0.37195 0.42131 0.76985 0.0
C1914 C 0.3491 0.41832 0.76972 0.0
C1915 C 0.33504 0.39527 0.77012 0.0
H1916 H 0.20385 0.61819 0.22518 0.0
H1917 H 0.19606 0.63214 0.30108 0.0
H1918 H 0.22775 0.65875 0.22884 0.0
H1919 H 0.22131 0.67165 0.30556 0.0
H1920 H 0.25377 0.74913 0.30563 0.0
H1921 H 0.22718 0.71067 0.29896 0.0
H1922 H 0.26211 0.68207 0.24259 0.0
H1923 H 0.28777 0.72187 0.2481 0.0
C1924 C 0.20727 0.6301 0.24263 0.0
C1925 C 0.19795 0.62239 0.26277 0.0
C1926 C 0.22122 0.6532 0.24488 0.0
C1927 C 0.22669 0.66871 0.26754 0.0
C1928 C 0.21715 0.66075 0.28763 0.0
C1929 C 0.20268 0.63802 0.28517 0.0
C1930 C 0.25575 0.73459 0.29179 0.0
C1931 C 0.27289 0.73831 0.27747 0.0
C1932 C 0.24054 0.71236 0.28805 0.0
C1933 C 0.24246 0.69287 0.27043 0.0
C1934 C 0.25976 0.69667 0.25608 0.0
C1935 C 0.27465 0.71935 0.25933 0.0
H1936 H 0.53397 0.7415 0.49981 0.0
H1937 H 0.52187 0.70448 0.42551 0.0
H1938 H 0.54331 0.70532 0.51298 0.0
H1939 H 0.53075 0.66776 0.439 0.0
H1940 H 0.52319 0.60034 0.48341 0.0
H1941 H 0.51413 0.63594 0.46793 0.0
H1942 H 0.57451 0.68156 0.50588 0.0
H1943 H 0.58387 0.64596 0.52078 0.0
C1944 C 0.53316 0.72558 0.48623 0.0
C1945 C 0.52708 0.726 0.46153 0.0
C1946 C 0.53864 0.70485 0.49384 0.0
C1947 C 0.53779 0.68362 0.47709 0.0
C1948 C 0.53148 0.6838 0.45238 0.0
C1949 C 0.52648 0.70486 0.44464 0.0
C1950 C 0.53455 0.61796 0.48843 0.0
C1951 C 0.55425 0.62026 0.50342 0.0
C1952 C 0.52941 0.63831 0.47941 0.0
C1953 C 0.5436 0.6616 0.48562 0.0
C1954 C 0.56319 0.66391 0.50078 0.0
C1955 C 0.56856 0.64348 0.50932 0.0
H1956 H 0.70228 0.34383 0.6412 0.0
H1957 H 0.65971 0.34408 0.69729 0.0
H1958 H 0.73234 0.34196 0.67077 0.0
H1959 H 0.68993 0.34213 0.72695 0.0
H1960 H 0.75447 0.36103 0.77838 0.0
H1961 H 0.72527 0.3653 0.74871 0.0
H1962 H 0.74431 0.31364 0.6952 0.0
H1963 H 0.77357 0.30944 0.72497 0.0
C1964 C 0.69929 0.34365 0.65986 0.0
C1965 C 0.67837 0.34416 0.66667 0.0
C1966 C 0.71659 0.34237 0.67688 0.0
C1967 C 0.71372 0.34176 0.70138 0.0
C1968 C 0.69293 0.34277 0.70834 0.0
C1969 C 0.67552 0.34383 0.69124 0.0
C1970 C 0.75253 0.35068 0.76024 0.0
C1971 C 0.76641 0.33484 0.75413 0.0
C1972 C 0.73562 0.35299 0.74322 0.0
C1973 C 0.73218 0.33973 0.71945 0.0
C1974 C 0.74645 0.32432 0.71321 0.0
C1975 C 0.76324 0.32183 0.73032 0.0
H1976 H 1.02006 0.34426 0.98105 0.0
H1977 H 0.0506 0.36776 0.91998 0.0
H1978 H 0.02581 0.38726 1.00041 0.0
H1979 H 0.05679 0.41042 0.93955 0.0
H1980 H 0.08731 0.47957 0.99755 0.0
H1981 H 0.08056 0.43628 0.97951 0.0
H1982 H 1.01268 0.42704 0.99025 0.0
H1983 H 1.01924 0.47048 1.00783 0.0
C1984 C 0.02794 0.35857 0.97176 0.0
C1985 C 0.03484 0.35259 0.94896 0.0
C1986 C 0.03121 0.38315 0.98281 0.0
C1987 C 0.04189 0.40218 0.97155 0.0
C1988 C 0.0487 0.39616 0.94876 0.0
C1989 C 0.04501 0.3717 0.93749 0.0
C1990 C 0.07096 0.46831 0.99618 0.0
C1991 C 0.05381 0.47855 1.00406 0.0
C1992 C 0.06709 0.44355 0.98575 0.0
C1993 C 0.04608 0.42828 0.98343 0.0
C1994 C 0.02904 0.43833 0.99189 0.0
C1995 C 0.03281 0.46323 1.00185 0.0
H1996 H 0.06791 0.81799 0.20343 0.0
H1997 H 0.03179 0.82765 0.13784 0.0
H1998 H 0.03468 0.81318 0.22305 0.0
H1999 H 0.99839 0.8224 0.15734 0.0
H2000 H 0.94789 0.83788 0.20856 0.0
H2001 H 0.98107 0.8428 0.18864 0.0
H2002 H 1.00013 0.78545 0.22278 0.0
H2003 H 0.96752 0.78118 0.24331 0.0
C2004 C 0.05283 0.81889 0.1931 0.0
C2005 C 0.05256 0.82317 0.16902 0.0
C2006 C 0.0337 0.81602 0.20435 0.0
C2007 C 1.01374 0.8174 0.19184 0.0
C2008 C 1.01347 0.82154 0.16767 0.0
C2009 C 0.03261 0.82436 0.1564 0.0
C2010 C 0.95925 0.82647 0.21198 0.0
C2011 C 0.95489 0.80909 0.22755 0.0
C2012 C 0.97819 0.82909 0.20032 0.0
C2013 C 0.99337 0.81451 0.20401 0.0
C2014 C 0.98901 0.7972 0.21964 0.0
C2015 C 0.97009 0.79454 0.23122 0.0
H2016 H 0.503 0.29212 0.09574 0.0
H2017 H 0.49963 0.34314 0.15958 0.0
H2018 H 0.50652 0.32487 0.07183 0.0
H2019 H 0.50268 0.37613 0.13532 0.0
H2020 H 0.5413 0.42974 0.08997 0.0
H2021 H 0.53138 0.39862 0.11528 0.0
H2022 H 0.48737 0.35274 0.05509 0.0
H2023 H 0.49752 0.38389 0.02965 0.0
C2024 C 0.50277 0.31033 0.10463 0.0
C2025 C 0.50121 0.31513 0.12958 0.0
C2026 C 0.50457 0.32908 0.09084 0.0
C2027 C 0.50481 0.35308 0.10165 0.0
C2028 C 0.50273 0.35782 0.12653 0.0
C2029 C 0.5009 0.33897 0.14039 0.0
C2030 C 0.52918 0.41321 0.08228 0.0
C2031 C 0.52028 0.40913 0.05779 0.0
C2032 C 0.52346 0.39541 0.09681 0.0
C2033 C 0.50868 0.37317 0.08716 0.0
C2034 C 0.49908 0.36954 0.06293 0.0
C2035 C 0.50488 0.38732 0.04836 0.0
H2036 H 0.05408 0.38448 0.41823 0.0
H2037 H 0.07787 0.35042 0.35516 0.0
H2038 H 1.01892 0.38032 0.39439 0.0
H2039 H 0.0429 0.34684 0.3313 0.0
H2040 H 0.96909 0.32101 0.30477 0.0
H2041 H 1.0049 0.32475 0.32727 0.0
H2042 H 1.00366 0.39772 0.36154 0.0
H2043 H 0.96758 0.39358 0.34003 0.0
C2044 C 0.05184 0.37613 0.39932 0.0
C2045 C 0.0688 0.36777 0.38865 0.0
C2046 C 0.03175 0.37391 0.3856 0.0
C2047 C 0.02821 0.36339 0.36093 0.0
C2048 C 0.04507 0.35481 0.35032 0.0
C2049 C 0.06514 0.35696 0.36403 0.0
C2050 C 0.9765 0.33784 0.3171 0.0
C2051 C 0.96548 0.35696 0.32065 0.0
C2052 C 0.99707 0.34006 0.32983 0.0
C2053 C 1.00699 0.36145 0.34634 0.0
C2054 C 0.99627 0.38085 0.34926 0.0
C2055 C 0.97573 0.37862 0.33661 0.0
H2056 H 0.04188 0.69551 0.64348 0.0
H2057 H 0.97232 0.67138 0.62373 0.0
H2058 H 0.04679 0.65562 0.62635 0.0
H2059 H 0.97683 0.63051 0.60736 0.0
H2060 H 1.00165 0.59862 0.53627 0.0
H2061 H 0.98933 0.62144 0.56998 0.0
H2062 H 0.04436 0.61361 0.61768 0.0
H2063 H 0.05738 0.59195 0.58318 0.0
C2064 C 0.02753 0.68106 0.63661 0.0
C2065 C 1.00681 0.68629 0.6346 0.0
C2066 C 0.03026 0.65805 0.62683 0.0
C2067 C 1.01223 0.63992 0.61476 0.0
C2068 C 0.99112 0.64428 0.61589 0.0
C2069 C 0.98845 0.66752 0.62547 0.0
C2070 C 1.01092 0.60144 0.55405 0.0
C2071 C 0.03081 0.59428 0.55704 0.0
C2072 C 1.00366 0.61423 0.57359 0.0
C2073 C 1.01607 0.61988 0.59662 0.0
C2074 C 0.03471 0.61017 0.60008 0.0
C2075 C 0.04217 0.59772 0.58036 0.0
H2076 H 0.64863 0.82546 0.82899 0.0
H2077 H 0.70312 0.86481 0.88186 0.0
H2078 H 0.67393 0.81724 0.80004 0.0
H2079 H 0.72832 0.85615 0.85325 0.0
H2080 H 0.72979 0.7802 0.77464 0.0
H2081 H 0.70093 0.79267 0.7955 0.0
H2082 H 0.74046 0.86633 0.81506 0.0
H2083 H 0.76977 0.85373 0.79467 0.0
C2084 C 0.66601 0.83212 0.8345 0.0
C2085 C 0.67394 0.84566 0.85771 0.0
C2086 C 0.68046 0.82752 0.8179 0.0
C2087 C 0.70308 0.83635 0.82425 0.0
C2088 C 0.71096 0.84965 0.84758 0.0
C2089 C 0.69654 0.85429 0.86411 0.0
C2090 C 0.73221 0.79921 0.78289 0.0
C2091 C 0.75233 0.8158 0.78359 0.0
C2092 C 0.71556 0.80638 0.79478 0.0
C2093 C 0.71867 0.83031 0.80744 0.0
C2094 C 0.73789 0.84756 0.80599 0.0
C2095 C 0.7546 0.84038 0.79412 0.0
H2096 H 0.47922 0.53056 0.69498 0.0
H2097 H 0.47807 0.60642 0.69709 0.0
H2098 H 0.49706 0.53048 0.65846 0.0
H2099 H 0.49586 0.60645 0.65968 0.0
H2100 H 0.54552 0.60701 0.60171 0.0
H2101 H 0.52481 0.60742 0.63652 0.0
H2102 H 0.50266 0.52896 0.61884 0.0
H2103 H 0.5238 0.52876 0.58421 0.0
C2104 C 0.48218 0.54732 0.68738 0.0
C2105 C 0.47621 0.5683 0.69968 0.0
C2106 C 0.49275 0.54729 0.66586 0.0
C2107 C 0.49858 0.56841 0.65483 0.0
C2108 C 0.49226 0.58949 0.66684 0.0
C2109 C 0.48145 0.58946 0.68852 0.0
C2110 C 0.53626 0.58967 0.60506 0.0
C2111 C 0.53696 0.56782 0.58938 0.0
C2112 C 0.52399 0.58992 0.62543 0.0
C2113 C 0.51144 0.56826 0.63179 0.0
C2114 C 0.51197 0.54637 0.61581 0.0
C2115 C 0.52425 0.54616 0.59536 0.0
H2116 H 0.83294 0.16847 0.95877 0.0
H2117 H 0.76968 0.13273 0.97461 0.0
H2118 H 0.8161 0.17769 0.92136 0.0
H2119 H 0.75251 0.14289 0.93747 0.0
H2120 H 0.78436 0.19094 0.85474 0.0
H2121 H 0.79027 0.16003 0.87927 0.0
H2122 H 0.75465 0.19026 0.93354 0.0
H2123 H 0.74958 0.2218 0.9098 0.0
C2124 C 0.81549 0.16183 0.95367 0.0
C2125 C 0.80254 0.14982 0.9692 0.0
C2126 C 0.80585 0.16698 0.93229 0.0
C2127 C 0.78302 0.16088 0.92656 0.0
C2128 C 0.77014 0.14751 0.94142 0.0
C2129 C 0.77992 0.14171 0.96254 0.0
C2130 C 0.77737 0.19067 0.87166 0.0
C2131 C 0.7672 0.20937 0.88075 0.0
C2132 C 0.78054 0.1728 0.8855 0.0
C2133 C 0.77315 0.17304 0.90834 0.0
C2134 C 0.7604 0.18962 0.91588 0.0
C2135 C 0.75754 0.20776 0.90225 0.0
H2136 H 0.167 0.53002 0.17638 0.0
H2137 H 0.10609 0.51019 0.20608 0.0
H2138 H 0.1468 0.52608 0.13628 0.0
H2139 H 0.08603 0.50647 0.16617 0.0
H2140 H 0.05491 0.49896 0.08902 0.0
H2141 H 0.07735 0.48783 0.12179 0.0
H2142 H 0.12433 0.55634 0.12644 0.0
H2143 H 0.10177 0.56761 0.09442 0.0
C2144 C 0.14938 0.52401 0.17422 0.0
C2145 C 0.13809 0.521 0.19444 0.0
C2146 C 0.13783 0.52188 0.15131 0.0
C2147 C 0.11489 0.51645 0.1483 0.0
C2148 C 0.10372 0.51069 0.16797 0.0
C2149 C 0.11522 0.513 0.19087 0.0
C2150 C 0.07013 0.51147 0.097 0.0
C2151 C 0.07679 0.53403 0.08916 0.0
C2152 C 0.08298 0.50505 0.11557 0.0
C2153 C 0.10272 0.52105 0.12634 0.0
C2154 C 0.10951 0.54335 0.11802 0.0
C2155 C 0.09657 0.54985 0.09976 0.0
H2156 H 0.82786 0.91449 0.46739 0.0
H2157 H 0.84679 0.85136 0.49014 0.0
H2158 H 0.8245 0.89517 0.42501 0.0
H2159 H 0.84358 0.83209 0.44764 0.0
H2160 H 0.85528 0.8186 0.36567 0.0
H2161 H 0.86061 0.83754 0.40848 0.0
H2162 H 0.79888 0.85852 0.39893 0.0
H2163 H 0.79342 0.83958 0.35644 0.0
C2164 C 0.83152 0.89659 0.46335 0.0
C2165 C 0.83752 0.88444 0.48217 0.0
C2166 C 0.82945 0.88544 0.43906 0.0
C2167 C 0.83361 0.862 0.43293 0.0
C2168 C 0.84033 0.85019 0.45173 0.0
C2169 C 0.84211 0.8612 0.47608 0.0
C2170 C 0.84278 0.82711 0.37273 0.0
C2171 C 0.82391 0.8275 0.3575 0.0
C2172 C 0.84582 0.83792 0.39728 0.0
C2173 C 0.83025 0.84972 0.40707 0.0
C2174 C 0.81132 0.84987 0.39191 0.0
C2175 C 0.80813 0.8388 0.36753 0.0
H2176 H 0.45024 0.58737 0.85766 0.0
H2177 H 0.49844 0.56049 0.81886 0.0
H2178 H 0.47003 0.5836 0.89624 0.0
H2179 H 0.51805 0.55631 0.85725 0.0
H2180 H 0.53942 0.53029 0.92968 0.0
H2181 H 0.51983 0.53455 0.89135 0.0
H2182 H 0.50183 0.59861 0.92713 0.0
H2183 H 0.52177 0.59452 0.96543 0.0
C2184 C 0.46501 0.58053 0.85714 0.0
C2185 C 0.47235 0.57429 0.83441 0.0
C2186 C 0.47664 0.57846 0.87962 0.0
C2187 C 0.49611 0.56954 0.88076 0.0
C2188 C 0.50324 0.56304 0.85792 0.0
C2189 C 0.49186 0.56556 0.83552 0.0
C2190 C 0.53144 0.54545 0.92959 0.0
C2191 C 0.53266 0.56202 0.95144 0.0
C2192 C 0.52006 0.548 0.9072 0.0
C2193 C 0.50876 0.56701 0.90523 0.0
C2194 C 0.50987 0.5835 0.92717 0.0
C2195 C 0.52161 0.58121 0.94949 0.0
H2196 H 0.8333 0.19108 0.10928 0.0
H2197 H 0.82335 0.25259 0.07544 0.0
H2198 H 0.83396 0.2153 0.14907 0.0
H2199 H 0.823 0.27612 0.11475 0.0
H2200 H 0.83944 0.31987 0.19061 0.0
H2201 H 0.84299 0.29693 0.15161 0.0
H2202 H 0.80868 0.2302 0.17289 0.0
H2203 H 0.80609 0.25311 0.21233 0.0
C2204 C 0.8315 0.20979 0.11029 0.0
C2205 C 0.82814 0.21975 0.08907 0.0
C2206 C 0.83159 0.22359 0.13309 0.0
C2207 C 0.8282 0.24759 0.13516 0.0
C2208 C 0.82585 0.25784 0.11399 0.0
C2209 C 0.82597 0.24419 0.09131 0.0
C2210 C 0.83249 0.30034 0.18683 0.0
C2211 C 0.82245 0.28826 0.20443 0.0
C2212 C 0.83452 0.28715 0.16447 0.0
C2213 C 0.82628 0.26162 0.1591 0.0
C2214 C 0.81568 0.24971 0.17657 0.0
C2215 C 0.81389 0.26288 0.19903 0.0
H2216 H 0.21793 0.58625 0.32751 0.0
H2217 H 0.14987 0.5491 0.31051 0.0
H2218 H 0.209 0.61118 0.36343 0.0
H2219 H 0.14118 0.57399 0.34542 0.0
H2220 H 0.12326 0.63287 0.38562 0.0
H2221 H 0.14616 0.62455 0.3545 0.0
H2222 H 0.18686 0.59717 0.40479 0.0
H2223 H 0.16454 0.60662 0.43674 0.0
C2224 C 0.20121 0.58324 0.33156 0.0
C2225 C 0.18455 0.56585 0.31618 0.0
C2226 C 0.19614 0.59759 0.35188 0.0
C2227 C 0.17436 0.59484 0.3566 0.0
C2228 C 0.15801 0.57686 0.34172 0.0
C2229 C 0.16305 0.56248 0.32184 0.0
C2230 C 0.13774 0.62642 0.39066 0.0
C2231 C 0.14152 0.61947 0.41346 0.0
C2232 C 0.15086 0.62161 0.37271 0.0
C2233 C 0.1678 0.60966 0.37722 0.0
C2234 C 0.17374 0.60624 0.40092 0.0
C2235 C 0.16074 0.61133 0.41905 0.0
H2236 H 0.837 0.82855 0.59133 0.0
H2237 H 0.83366 0.90019 0.62729 0.0
H2238 H 0.82845 0.81149 0.62732 0.0
H2239 H 0.82501 0.88261 0.66407 0.0
H2240 H 0.83562 0.836 0.73035 0.0
H2241 H 0.84344 0.8593 0.69697 0.0
H2242 H 0.79445 0.80471 0.64855 0.0
H2243 H 0.78655 0.78196 0.68153 0.0
C2244 C 0.83451 0.84082 0.60695 0.0
C2245 C 0.83604 0.86589 0.60616 0.0
C2246 C 0.82948 0.83089 0.62768 0.0
C2247 C 0.82591 0.84558 0.6486 0.0
C2248 C 0.82774 0.87079 0.64824 0.0
C2249 C 0.83254 0.88082 0.62713 0.0
C2250 C 0.82626 0.82934 0.7127 0.0
C2251 C 0.81043 0.80713 0.70867 0.0
C2252 C 0.83073 0.84266 0.69358 0.0
C2253 C 0.81965 0.8338 0.67001 0.0
C2254 C 0.80345 0.81197 0.66635 0.0
C2255 C 0.79893 0.79889 0.68533 0.0
H2256 H 0.75394 0.46233 0.50918 0.0
H2257 H 0.80726 0.52616 0.51954 0.0
H2258 H 0.72852 0.48841 0.51705 0.0
H2259 H 0.78145 0.55253 0.5273 0.0
H2260 H 0.72777 0.58374 0.56828 0.0
H2261 H 0.75618 0.56153 0.55875 0.0
H2262 H 0.71362 0.51815 0.49628 0.0
H2263 H 0.68517 0.53955 0.50611 0.0
C2264 C 0.76025 0.48198 0.51306 0.0
C2265 C 0.78261 0.4922 0.51363 0.0
C2266 C 0.74563 0.49694 0.51743 0.0
C2267 C 0.75297 0.52251 0.52252 0.0
C2268 C 0.77538 0.53284 0.52344 0.0
C2269 C 0.7901 0.51779 0.51891 0.0
C2270 C 0.72458 0.56955 0.55244 0.0
C2271 C 0.70418 0.56336 0.53801 0.0
C2272 C 0.7409 0.55702 0.54688 0.0
C2273 C 0.737 0.53798 0.52692 0.0
C2274 C 0.71697 0.53254 0.51197 0.0
C2275 C 0.70075 0.54503 0.51745 0.0
H2276 H 0.23472 0.13808 0.50204 0.0
H2277 H 0.19698 0.18992 0.48387 0.0
H2278 H 0.20112 0.10863 0.50452 0.0
H2279 H 0.16337 0.16027 0.48585 0.0
H2280 H 0.10825 0.10944 0.51578 0.0
H2281 H 0.14145 0.13997 0.51318 0.0
H2282 H 0.17002 0.08222 0.48036 0.0
H2283 H 0.13719 0.05212 0.48365 0.0
C2284 C 0.21929 0.14316 0.4983 0.0
C2285 C 0.21873 0.16647 0.49267 0.0
C2286 C 0.19992 0.12618 0.49966 0.0
C2287 C 0.17936 0.13193 0.49537 0.0
C2288 C 0.17881 0.1552 0.48959 0.0
C2289 C 0.19818 0.17219 0.48824 0.0
C2290 C 0.12168 0.10341 0.5082 0.0
C2291 C 0.12013 0.0784 0.50025 0.0
C2292 C 0.14071 0.12087 0.50647 0.0
C2293 C 0.15869 0.11364 0.49676 0.0
C2294 C 0.15684 0.08856 0.48843 0.0
C2295 C 0.13787 0.07126 0.49015 0.0
H2296 H 0.25019 0.98942 0.7767 0.0
H2297 H 0.19053 0.93983 0.78415 0.0
H2298 H 0.26896 0.95568 0.77344 0.0
H2299 H 0.20928 0.90579 0.78117 0.0
H2300 H 0.24502 0.84095 0.76405 0.0
H2301 H 0.2255 0.87432 0.76653 0.0
H2302 H 0.28698 0.92697 0.78347 0.0
H2303 H 0.30622 0.89368 0.7807 0.0
C2304 C 0.2408 0.97132 0.77769 0.0
C2305 C 0.21828 0.96839 0.78072 0.0
C2306 C 0.25188 0.95139 0.77594 0.0
C2307 C 0.24142 0.92666 0.77702 0.0
C2308 C 0.21876 0.92375 0.77993 0.0
C2309 C 0.20768 0.94378 0.78177 0.0
C2310 C 0.2546 0.85959 0.76824 0.0
C2311 C 0.27781 0.86359 0.77197 0.0
C2312 C 0.24313 0.8793 0.76985 0.0
C2313 C 0.2539 0.90469 0.77524 0.0
C2314 C 0.27716 0.9085 0.77894 0.0
C2315 C 0.28856 0.88885 0.77741 0.0
H2316 H 0.40404 0.92125 0.97895 0.0
H2317 H 0.38425 0.99038 0.98835 0.0
H2318 H 0.44175 0.94289 0.97998 0.0
H2319 H 0.42227 1.01195 0.98899 0.0
H2320 H 0.49337 0.03733 0.96945 0.0
H2321 H 0.45504 1.01524 0.96181 0.0
H2322 H 0.46678 0.97207 0.01704 0.0
H2323 H 0.50495 0.99428 0.02501 0.0
C2324 C 0.40759 0.94103 0.98076 0.0
C2325 C 0.39107 0.95409 0.98388 0.0
C2326 C 0.42925 0.95337 0.98144 0.0
C2327 C 0.43485 0.97901 0.98486 0.0
C2328 C 0.41828 0.99212 0.98633 0.0
C2329 C 0.39655 0.97976 0.98599 0.0
C2330 C 0.48781 0.02298 0.97982 0.0
C2331 C 0.50216 1.01747 0.9978 0.0
C2332 C 0.46589 1.01049 0.97552 0.0
C2333 C 0.45808 0.99197 0.98878 0.0
C2334 C 0.4725 0.98615 1.00642 0.0
C2335 C 0.49429 0.99891 1.01103 0.0
H2336 H 0.89561 0.56784 0.76416 0.0
H2337 H 0.9476 0.63269 0.7847 0.0
H2338 H 0.8722 0.59181 0.74719 0.0
H2339 H 0.92394 0.65698 0.76751 0.0
H2340 H 0.85957 0.68618 0.78067 0.0
H2341 H 0.89082 0.66731 0.78412 0.0
H2342 H 0.86484 0.61813 0.71687 0.0
H2343 H 0.83337 0.63719 0.71357 0.0
C2344 C 0.90218 0.5872 0.76457 0.0
C2345 C 0.92325 0.59855 0.77609 0.0
C2346 C 0.88884 0.60089 0.75458 0.0
C2347 C 0.89621 0.62629 0.75613 0.0
C2348 C 0.91784 0.63742 0.76622 0.0
C2349 C 0.93136 0.62357 0.77599 0.0
C2350 C 0.86076 0.67156 0.76649 0.0
C2351 C 0.84396 0.66262 0.74718 0.0
C2352 C 0.87878 0.661 0.76825 0.0
C2353 C 0.88018 0.64114 0.75084 0.0
C2354 C 0.86405 0.63331 0.73062 0.0
C2355 C 0.84609 0.64412 0.72873 0.0
H2356 H 0.86577 0.69959 1.0063 0.0
H2357 H 0.82502 0.63768 0.02913 0.0
H2358 H 0.89693 0.6805 1.0101 0.0
H2359 H 0.85623 0.6189 0.03363 0.0
H2360 H 0.90822 0.57856 1.01117 0.0
H2361 H 0.87816 0.59919 1.00891 0.0
H2362 H 0.92286 0.6685 0.0372 0.0
H2363 H 0.95313 0.6477 0.03913 0.0
C2364 C 0.86352 0.68205 1.01245 0.0
C2365 C 0.84284 0.67012 0.01729 0.0
C2366 C 0.88144 0.67111 1.01473 0.0
C2367 C 0.87917 0.64799 0.02198 0.0
C2368 C 0.85858 0.63645 0.0275 0.0
C2369 C 0.84066 0.64732 0.02511 0.0
C2370 C 0.91166 0.59819 0.01711 0.0
C2371 C 0.93312 0.61141 0.02555 0.0
C2372 C 0.89435 0.61006 0.01587 0.0
C2373 C 0.89791 0.63556 0.02312 0.0
C2374 C 0.91945 0.64889 0.03126 0.0
C2375 C 0.93684 0.63697 0.03239 0.0
H2376 H 0.19418 0.13433 0.80401 0.0
H2377 H 0.24395 0.09607 0.78457 0.0
H2378 H 0.21844 0.17319 0.80208 0.0
H2379 H 0.26841 0.13528 0.78204 0.0
H2380 H 0.31604 0.2108 0.79491 0.0
H2381 H 0.29172 0.17215 0.79738 0.0
H2382 H 0.23627 0.20374 0.7831 0.0
H2383 H 0.26114 0.24308 0.78123 0.0
C2384 C 0.21038 0.13396 0.79928 0.0
C2385 C 0.21663 0.11118 0.79462 0.0
C2386 C 0.22452 0.15676 0.79792 0.0
C2387 C 0.24598 0.15849 0.79174 0.0
C2388 C 0.25238 0.13567 0.78721 0.0
C2389 C 0.23814 0.11271 0.78862 0.0
C2390 C 0.29864 0.20978 0.79234 0.0
C2391 C 0.29101 0.23081 0.7879 0.0
C2392 C 0.28439 0.18705 0.79355 0.0
C2393 C 0.26139 0.18365 0.79034 0.0
C2394 C 0.25364 0.20484 0.78602 0.0
C2395 C 0.26806 0.22779 0.78482 0.0
H2396 H 0.45109 0.9713 0.35258 0.0
H2397 H 0.40439 1.01115 0.32724 0.0
H2398 H 0.42163 0.93445 0.34798 0.0
H2399 H 0.3755 0.97435 0.32216 0.0
H2400 H 0.34639 0.89432 0.27821 0.0
H2401 H 0.37363 0.933 0.29 0.0
H2402 H 0.38158 0.91903 0.36351 0.0
H2403 H 0.35403 0.88066 0.35201 0.0
C2404 C 0.43457 0.9724 0.34661 0.0
C2405 C 0.4302 0.99408 0.33991 0.0
C2406 C 0.41778 0.95132 0.34391 0.0
C2407 C 0.39652 0.95165 0.33428 0.0
C2408 C 0.39187 0.97366 0.32924 0.0
C2409 C 0.40847 0.99471 0.33226 0.0
C2410 C 0.35376 0.89966 0.29692 0.0
C2411 C 0.34798 0.88464 0.31422 0.0
C2412 C 0.36928 0.92172 0.30365 0.0
C2413 C 0.37957 0.9288 0.32764 0.0
C2414 C 0.37383 0.91384 0.34493 0.0
C2415 C 0.35798 0.89204 0.33834 0.0
H2416 H 0.60457 0.37137 0.57322 0.0
H2417 H 0.61867 0.42028 0.64183 0.0
H2418 H 0.59772 0.40489 0.55271 0.0
H2419 H 0.6123 0.45402 0.62115 0.0
H2420 H 0.61866 0.51298 0.56996 0.0
H2421 H 0.62793 0.47973 0.58942 0.0
H2422 H 0.56861 0.43076 0.55274 0.0
H2423 H 0.55907 0.46412 0.53369 0.0
C2424 C 0.60655 0.38935 0.58393 0.0
C2425 C 0.61223 0.39302 0.60927 0.0
C2426 C 0.60245 0.40857 0.57214 0.0
C2427 C 0.60435 0.43222 0.58522 0.0
C2428 C 0.61077 0.43612 0.61044 0.0
C2429 C 0.61442 0.41674 0.62233 0.0
C2430 C 0.60765 0.49508 0.56586 0.0
C2431 C 0.5881 0.49131 0.55013 0.0
C2432 C 0.61291 0.47604 0.57719 0.0
C2433 C 0.59904 0.45249 0.57272 0.0
C2434 C 0.57978 0.44857 0.55651 0.0
C2435 C 0.57427 0.46774 0.5456 0.0
H2436 H 0.46837 0.77402 0.36662 0.0
H2437 H 0.43955 0.79686 0.43048 0.0
H2438 H 0.43492 0.77486 0.34123 0.0
H2439 H 0.40639 0.79735 0.40535 0.0
H2440 H 0.35916 0.82234 0.35211 0.0
H2441 H 0.39205 0.82014 0.37752 0.0
H2442 H 0.39667 0.75503 0.3297 0.0
H2443 H 0.36399 0.75748 0.30423 0.0
C2444 C 0.45494 0.77903 0.37531 0.0
C2445 C 0.45692 0.78539 0.40073 0.0
C2446 C 0.43565 0.77944 0.36073 0.0
C2447 C 0.4178 0.78633 0.37112 0.0
C2448 C 0.41977 0.79238 0.39652 0.0
C2449 C 0.43891 0.79189 0.41102 0.0
C2450 C 0.36706 0.80741 0.34718 0.0
C2451 C 0.35885 0.7901 0.3261 0.0
C2452 C 0.38598 0.8061 0.36177 0.0
C2453 C 0.39729 0.78745 0.35572 0.0
C2454 C 0.38876 0.7699 0.33484 0.0
C2455 C 0.36983 0.77117 0.32031 0.0
H2456 H 0.10164 0.75484 0.13598 0.0
H2457 H 0.09806 0.76492 0.06105 0.0
H2458 H 0.09304 0.7102 0.12292 0.0
H2459 H 0.08891 0.72053 0.04812 0.0
H2460 H 0.05017 0.63889 0.03737 0.0
H2461 H 0.05676 0.68302 0.05191 0.0
H2462 H 0.11398 0.67964 0.09828 0.0
H2463 H 0.10779 0.63562 0.08331 0.0
C2464 C 0.09873 0.74756 0.11677 0.0
C2465 C 0.10059 0.76349 0.09958 0.0
C2466 C 0.09394 0.72202 0.10929 0.0
C2467 C 0.09031 0.71185 0.08448 0.0
C2468 C 0.09151 0.72778 0.06735 0.0
C2469 C 0.09683 0.75323 0.07479 0.0
C2470 C 0.06414 0.64752 0.0507 0.0
C2471 C 0.0785 0.63369 0.05909 0.0
C2472 C 0.06792 0.67281 0.05899 0.0
C2473 C 0.08585 0.6848 0.07631 0.0
C2474 C 0.09995 0.6709 0.08508 0.0
C2475 C 0.09647 0.64572 0.07636 0.0
H2476 H 0.06307 0.26558 0.85411 0.0
H2477 H 0.10318 0.29099 0.92316 0.0
H2478 H 0.09591 0.26628 0.83391 0.0
H2479 H 0.13588 0.2911 0.9032 0.0
H2480 H 0.18952 0.3182 0.85741 0.0
H2481 H 0.15687 0.3143 0.87784 0.0
H2482 H 0.12663 0.24823 0.8275 0.0
H2483 H 0.15937 0.25228 0.80688 0.0
C2484 C 0.07887 0.27097 0.86503 0.0
C2485 C 0.08045 0.27835 0.89025 0.0
C2486 C 0.09775 0.2713 0.85345 0.0
C2487 C 0.1187 0.27897 0.86682 0.0
C2488 C 0.12014 0.28559 0.89216 0.0
C2489 C 0.10132 0.28534 0.90368 0.0
C2490 C 0.17606 0.30261 0.85087 0.0
C2491 C 0.17722 0.28554 0.83047 0.0
C2492 C 0.15724 0.30036 0.86263 0.0
C2493 C 0.13896 0.2809 0.85444 0.0
C2494 C 0.14018 0.26367 0.83417 0.0
C2495 C 0.15902 0.26596 0.82234 0.0
H2496 H 0.62913 0.79597 0.91698 0.0
H2497 H 0.62807 0.83666 0.98802 0.0
H2498 H 0.61972 0.75762 0.93309 0.0
H2499 H 0.61879 0.79858 1.00384 0.0
H2500 H 0.57108 0.72914 1.0133 0.0
H2501 H 0.58443 0.76593 0.99643 0.0
H2502 H 0.63243 0.73229 0.96349 0.0
H2503 H 0.6193 0.69536 0.98082 0.0
C2504 C 0.62733 0.79681 0.93608 0.0
C2505 C 0.62908 0.81945 0.95109 0.0
C2506 C 0.62193 0.77483 0.94527 0.0
C2507 C 0.6181 0.77512 0.9696 0.0
C2508 C 0.62115 0.79776 0.98488 0.0
C2509 C 0.62661 0.81962 0.97579 0.0
C2510 C 0.58461 0.72959 1.00266 0.0
C2511 C 0.59427 0.70938 0.99868 0.0
C2512 C 0.59225 0.75069 0.99297 0.0
C2513 C 0.60968 0.75211 0.97892 0.0
C2514 C 0.61895 0.73167 0.97422 0.0
C2515 C 0.61137 0.71053 0.98408 0.0
H2516 H 0.05897 0.77618 0.70622 0.0
H2517 H 0.08643 0.79292 0.64105 0.0
H2518 H 0.09522 0.77771 0.72589 0.0
H2519 H 0.1228 0.79508 0.66107 0.0
H2520 H 0.17324 0.75415 0.68822 0.0
H2521 H 0.13924 0.76235 0.67149 0.0
H2522 H 0.13221 0.80063 0.74163 0.0
H2523 H 0.16603 0.79143 0.75874 0.0
C2524 C 0.07277 0.78083 0.69627 0.0
C2525 C 0.06971 0.7839 0.67184 0.0
C2526 C 0.09361 0.78181 0.70764 0.0
C2527 C 0.11181 0.78602 0.69487 0.0
C2528 C 0.10898 0.79119 0.67117 0.0
C2529 C 0.08814 0.79011 0.65975 0.0
C2530 C 0.16437 0.7641 0.70017 0.0
C2531 C 0.17219 0.77186 0.72488 0.0
C2532 C 0.14506 0.76921 0.69047 0.0
C2533 C 0.13312 0.78235 0.70518 0.0
C2534 C 0.14103 0.7904 0.72986 0.0
C2535 C 0.16042 0.78525 0.73962 0.0
H2536 H 0.12198 0.43612 0.38283 0.0
H2537 H 0.15316 0.43372 0.45387 0.0
H2538 H 0.11178 0.47427 0.39901 0.0
H2539 H 0.14322 0.47146 0.46988 0.0
H2540 H 0.06793 0.50665 0.45725 0.0
H2541 H 0.08475 0.48114 0.42913 0.0
H2542 H 0.14835 0.51593 0.4681 0.0
H2543 H 0.13146 0.54076 0.49649 0.0
C2544 C 0.12711 0.4441 0.40171 0.0
C2545 C 0.13823 0.43205 0.41722 0.0
C2546 C 0.12123 0.4658 0.41093 0.0
C2547 C 0.12682 0.47587 0.43562 0.0
C2548 C 0.13902 0.46441 0.45067 0.0
C2549 C 0.14455 0.44267 0.44159 0.0
C2550 C 0.08555 0.50934 0.45921 0.0
C2551 C 0.09844 0.52494 0.47928 0.0
C2552 C 0.09519 0.49489 0.44308 0.0
C2553 C 0.11779 0.49621 0.44686 0.0
C2554 C 0.13085 0.51422 0.46513 0.0
C2555 C 0.12121 0.52835 0.48136 0.0
H2556 H 0.43603 0.23467 0.17335 0.0
H2557 H 0.48298 0.2592 0.23767 0.0
H2558 H 0.40647 0.23551 0.19802 0.0
H2559 H 0.4532 0.2596 0.26258 0.0
H2560 H 0.39763 0.30075 0.28249 0.0
H2561 H 0.42865 0.28783 0.26636 0.0
H2562 H 0.38602 0.22039 0.22892 0.0
H2563 H 0.35493 0.23315 0.24503 0.0
C2564 C 0.44001 0.23958 0.19286 0.0
C2565 C 0.46179 0.24726 0.20354 0.0
C2566 C 0.42303 0.23991 0.20706 0.0
C2567 C 0.42751 0.2479 0.23226 0.0
C2568 C 0.44929 0.25372 0.24317 0.0
C2569 C 0.46631 0.25335 0.22892 0.0
C2570 C 0.39492 0.28287 0.27134 0.0
C2571 C 0.37374 0.2682 0.26472 0.0
C2572 C 0.41276 0.27537 0.26223 0.0
C2573 C 0.40971 0.25312 0.24623 0.0
C2574 C 0.38879 0.23766 0.24112 0.0
C2575 C 0.371 0.24503 0.2504 0.0
H2576 H 0.62791 0.52347 0.3323 0.0
H2577 H 0.6896 0.54694 0.37744 0.0
H2578 H 0.60875 0.52611 0.36845 0.0
H2579 H 0.67039 0.5504 0.41377 0.0
H2580 H 0.6264 0.57361 0.47569 0.0
H2581 H 0.64676 0.57188 0.44007 0.0
H2582 H 0.59864 0.5082 0.40452 0.0
H2583 H 0.57897 0.50943 0.44017 0.0
C2584 C 0.63763 0.52937 0.34986 0.0
C2585 C 0.6608 0.53487 0.35097 0.0
C2586 C 0.62642 0.53083 0.37107 0.0
C2587 C 0.63745 0.53855 0.39511 0.0
C2588 C 0.66067 0.54451 0.39621 0.0
C2589 C 0.67192 0.54241 0.37497 0.0
C2590 C 0.62001 0.55915 0.4604 0.0
C2591 C 0.60046 0.54174 0.46174 0.0
C2592 C 0.63195 0.55804 0.43957 0.0
C2593 C 0.62486 0.53988 0.41832 0.0
C2594 C 0.60516 0.52278 0.4197 0.0
C2595 C 0.59364 0.52348 0.44066 0.0
H2596 H 0.38492 0.93876 0.07126 0.0
H2597 H 0.31878 0.93838 0.08517 0.0
H2598 H 0.3952 0.93715 0.11387 0.0
H2599 H 0.32857 0.9354 0.12756 0.0
H2600 H 0.34661 0.92126 0.20036 0.0
H2601 H 0.34843 0.94649 0.16835 0.0
H2602 H 0.38479 0.90001 0.12969 0.0
H2603 H 0.38272 0.87497 0.16098 0.0
C2604 C 0.37277 0.93903 0.08372 0.0
C2605 C 0.35105 0.93828 0.07519 0.0
C2606 C 0.3786 0.93805 0.10803 0.0
C2607 C 0.36259 0.93545 0.12393 0.0
C2608 C 0.34134 0.93745 0.11584 0.0
C2609 C 0.33564 0.93899 0.09156 0.0
C2610 C 0.35537 0.9168 0.18521 0.0
C2611 C 0.36412 0.89577 0.18298 0.0
C2612 C 0.35647 0.93131 0.16697 0.0
C2613 C 0.3665 0.92512 0.14633 0.0
C2614 C 0.37716 0.90559 0.14543 0.0
C2615 C 0.37595 0.89108 0.1635 0.0
H2616 H 0.96258 0.58394 0.89127 0.0
H2617 H 1.01934 0.58949 0.85298 0.0
H2618 H 0.98579 0.58619 0.92938 0.0
H2619 H 0.04247 0.59218 0.89099 0.0
H2620 H 0.07821 0.60903 0.9694 0.0
H2621 H 0.05516 0.61763 0.93543 0.0
H2622 H 1.00693 0.55193 0.93816 0.0
H2623 H 0.03016 0.54281 0.97103 0.0
C2624 C 0.98005 0.58639 0.89115 0.0
C2625 C 0.98921 0.58634 0.86927 0.0
C2626 C 0.99328 0.5876 0.91286 0.0
C2627 C 1.01584 0.58928 0.91298 0.0
C2628 C 0.02516 0.59109 0.89137 0.0
C2629 C 1.01191 0.5894 0.86966 0.0
C2630 C 0.06264 0.59655 0.96272 0.0
C2631 C 0.05576 0.57547 0.97303 0.0
C2632 C 0.04947 0.60152 0.94347 0.0
C2633 C 0.02913 0.58568 0.93462 0.0
C2634 C 0.02227 0.56477 0.94511 0.0
C2635 C 0.03557 0.55956 0.9639 0.0
H2636 H 0.25723 0.24412 0.5742 0.0
H2637 H 0.32176 0.22987 0.57581 0.0
H2638 H 0.2632 0.25764 0.61772 0.0
H2639 H 0.32874 0.24537 0.61929 0.0
H2640 H 0.33046 0.25676 0.70123 0.0
H2641 H 0.32406 0.24102 0.658 0.0
H2642 H 0.27858 0.28762 0.64885 0.0
H2643 H 0.28383 0.30164 0.69242 0.0
C2644 C 0.27286 0.24415 0.58395 0.0
C2645 C 0.28902 0.23593 0.57158 0.0
C2646 C 0.27646 0.25224 0.60903 0.0
C2647 C 0.29665 0.25313 0.62253 0.0
C2648 C 0.31282 0.24471 0.60998 0.0
C2649 C 0.30892 0.2359 0.58491 0.0
C2650 C 0.31908 0.26359 0.6899 0.0
C2651 C 0.30759 0.28039 0.70028 0.0
C2652 C 0.31548 0.25467 0.66492 0.0
C2653 C 0.30068 0.26279 0.64939 0.0
C2654 C 0.28962 0.28016 0.65992 0.0
C2655 C 0.29277 0.28851 0.68501 0.0
H2656 H 0.67256 0.56872 0.21295 0.0
H2657 H 0.63366 0.49589 0.20793 0.0
H2658 H 0.65572 0.57144 0.17281 0.0
H2659 H 0.61637 0.49845 0.16763 0.0
H2660 H 0.59304 0.50431 0.08714 0.0
H2661 H 0.61212 0.4995 0.12562 0.0
H2662 H 0.62697 0.57777 0.14815 0.0
H2663 H 0.6082 0.58241 0.10973 0.0
C2664 C 0.66094 0.55276 0.20298 0.0
C2665 C 0.65567 0.53158 0.21403 0.0
C2666 C 0.65066 0.55452 0.17972 0.0
C2667 C 0.63402 0.53533 0.16587 0.0
C2668 C 0.62906 0.51384 0.17672 0.0
C2669 C 0.63935 0.51216 0.20014 0.0
C2670 C 0.60036 0.52063 0.10019 0.0
C2671 C 0.59868 0.54387 0.09443 0.0
C2672 C 0.61144 0.51784 0.12277 0.0
C2673 C 0.62177 0.53812 0.14108 0.0
C2674 C 0.61998 0.56133 0.13517 0.0
C2675 C 0.60882 0.56408 0.11272 0.0
H2676 H 0.3194 0.87133 0.96794 0.0
H2677 H 0.30374 0.92332 0.92366 0.0
H2678 H 0.31972 0.84232 0.93144 0.0
H2679 H 0.30338 0.89411 0.88726 0.0
H2680 H 0.32922 0.85175 0.8283 0.0
H2681 H 0.33041 0.87797 0.86669 0.0
H2682 H 0.2967 0.81598 0.89596 0.0
H2683 H 0.29629 0.78929 0.85735 0.0
C2684 C 0.31582 0.87646 0.95041 0.0
C2685 C 0.31179 0.89969 0.94861 0.0
C2686 C 0.3159 0.85979 0.92953 0.0
C2687 C 0.31188 0.86604 0.90649 0.0
C2688 C 0.30707 0.88897 0.90477 0.0
C2689 C 0.30711 0.90565 0.92561 0.0
C2690 C 0.32249 0.84356 0.84306 0.0
C2691 C 0.31266 0.8185 0.83987 0.0
C2692 C 0.32289 0.85867 0.86498 0.0
C2693 C 0.31321 0.84917 0.88418 0.0
C2694 C 0.30429 0.82383 0.88146 0.0
C2695 C 0.30405 0.80856 0.85942 0.0
H2696 H 0.95594 0.54273 0.73496 0.0
H2697 H 0.97968 0.48357 0.76078 0.0
H2698 H 0.96157 0.52722 0.69383 0.0
H2699 H 0.98437 0.46732 0.71948 0.0
H2700 H 0.03153 0.48495 0.66207 0.0
H2701 H 1.01266 0.4841 0.69746 0.0
H2702 H 0.95589 0.49742 0.65713 0.0
H2703 H 0.97504 0.4982 0.62114 0.0
C2704 C 0.96171 0.52596 0.73168 0.0
C2705 C 0.96802 0.51474 0.75106 0.0
C2706 C 0.96475 0.51691 0.70807 0.0
C2707 C 0.97385 0.49629 0.70345 0.0
C2708 C 0.97788 0.48361 0.72256 0.0
C2709 C 0.97523 0.49291 0.74619 0.0
C2710 C 1.01473 0.48674 0.66031 0.0
C2711 C 1.00491 0.49195 0.63881 0.0
C2712 C 1.00382 0.48623 0.68075 0.0
C2713 C 0.9828 0.49094 0.68024 0.0
C2714 C 0.97222 0.49414 0.65818 0.0
C2715 C 0.98319 0.49462 0.63762 0.0
H2716 H 0.28629 0.25479 0.45666 0.0
H2717 H 0.29242 0.18564 0.41758 0.0
H2718 H 0.29264 0.27367 0.42078 0.0
H2719 H 0.29907 0.2047 0.38156 0.0
H2720 H 0.29499 0.24705 0.31541 0.0
H2721 H 0.28421 0.22508 0.34885 0.0
H2722 H 0.32459 0.28511 0.40027 0.0
H2723 H 0.33509 0.30671 0.3673 0.0
C2724 C 0.28878 0.24351 0.44034 0.0
C2725 C 0.28901 0.21871 0.44016 0.0
C2726 C 0.29258 0.2544 0.41974 0.0
C2727 C 0.29673 0.24084 0.39827 0.0
C2728 C 0.29589 0.21571 0.39769 0.0
C2729 C 0.29214 0.2048 0.4184 0.0
C2730 C 0.30156 0.2554 0.33386 0.0
C2731 C 0.31585 0.27866 0.33864 0.0
C2732 C 0.29543 0.24284 0.35304 0.0
C2733 C 0.30327 0.25344 0.37739 0.0
C2734 C 0.31779 0.27653 0.38191 0.0
C2735 C 0.32397 0.28888 0.36289 0.0
H2736 H 0.33148 0.58247 0.53694 0.0
H2737 H 0.37911 0.64722 0.57147 0.0
H2738 H 0.36029 0.55988 0.53295 0.0
H2739 H 0.40782 0.62444 0.56938 0.0
H2740 H 0.45547 0.59367 0.52564 0.0
H2741 H 0.4261 0.61239 0.53781 0.0
H2742 H 0.38823 0.54146 0.54587 0.0
H2743 H 0.41763 0.52262 0.53226 0.0
C2744 C 0.34802 0.59146 0.5448 0.0
C2745 C 0.35319 0.61649 0.55452 0.0
C2746 C 0.36461 0.57857 0.54245 0.0
C2747 C 0.38661 0.59045 0.55019 0.0
C2748 C 0.39125 0.61487 0.56232 0.0
C2749 C 0.37478 0.62787 0.56399 0.0
C2750 C 0.44088 0.58212 0.53011 0.0
C2751 C 0.4388 0.55675 0.52808 0.0
C2752 C 0.42406 0.59286 0.5374 0.0
C2753 C 0.40476 0.5786 0.54335 0.0
C2754 C 0.40272 0.55308 0.54134 0.0
C2755 C 0.41952 0.54224 0.53358 0.0
H2756 H 0.92866 0.91061 0.54227 0.0
H2757 H 0.89491 0.96942 0.55397 0.0
H2758 H 0.96285 0.94012 0.54346 0.0
H2759 H 0.92922 0.99916 0.55439 0.0
H2760 H 0.99769 0.04844 0.57315 0.0
H2761 H 0.96411 1.01868 0.57537 0.0
H2762 H 0.98212 0.96714 0.52073 0.0
H2763 H 1.01586 0.99693 0.51927 0.0
C2764 C 0.92846 0.92989 0.54505 0.0
C2765 C 0.90882 0.93751 0.54795 0.0
C2766 C 0.94819 0.94691 0.54555 0.0
C2767 C 0.94902 0.97222 0.54878 0.0
C2768 C 0.92944 0.97991 0.55213 0.0
C2769 C 0.90964 0.96281 0.55179 0.0
C2770 C 0.99455 0.03063 0.56178 0.0
C2771 C 1.00963 0.02491 0.54613 0.0
C2772 C 0.97513 1.01358 0.56289 0.0
C2773 C 0.97011 0.99031 0.5482 0.0
C2774 C 0.9854 0.9846 0.5327 0.0
C2775 C 1.00486 1.00166 0.53177 0.0
H2776 H 0.94136 0.16573 0.28423 0.0
H2777 H 0.88145 0.11493 0.25348 0.0
H2778 H 0.92249 0.19955 0.28604 0.0
H2779 H 0.86252 0.14842 0.25477 0.0
H2780 H 0.82518 0.2109 0.26573 0.0
H2781 H 0.84442 0.17772 0.26441 0.0
H2782 H 0.90589 0.23059 0.2799 0.0
H2783 H 0.88631 0.26379 0.28158 0.0
C2784 C 0.92413 0.16148 0.27761 0.0
C2785 C 0.91351 0.1366 0.26859 0.0
C2786 C 0.91294 0.1814 0.27861 0.0
C2787 C 0.89014 0.17814 0.27068 0.0
C2788 C 0.87969 0.15311 0.26155 0.0
C2789 C 0.89086 0.13327 0.2606 0.0
C2790 C 0.84284 0.21579 0.26897 0.0
C2791 C 0.85356 0.24106 0.27387 0.0
C2792 C 0.85429 0.19618 0.26805 0.0
C2793 C 0.87756 0.20004 0.27189 0.0
C2794 C 0.88827 0.22547 0.27687 0.0
C2795 C 0.87676 0.24513 0.27782 0.0
H2796 H 0.73585 0.18192 0.02093 0.0
H2797 H 0.75166 0.11666 0.04246 0.0
H2798 H 0.69785 0.16653 0.02528 0.0
H2799 H 0.7131 0.10085 0.04619 0.0
H2800 H 0.6428 0.08851 0.06682 0.0
H2801 H 0.68192 0.10658 0.06868 0.0
H2802 H 0.66927 0.13464 1.00239 0.0
H2803 H 0.63068 0.11751 1.00092 0.0
C2804 C 0.73123 0.1642 0.02651 0.0
C2805 C 0.74681 0.15038 0.03103 0.0
C2806 C 0.70937 0.15536 0.02898 0.0
C2807 C 0.70238 0.13233 0.03579 0.0
C2808 C 0.718 0.11875 0.04107 0.0
C2809 C 0.74005 0.12772 0.03876 0.0
C2810 C 0.64841 0.0989 0.05292 0.0
C2811 C 0.63361 0.10161 0.03378 0.0
C2812 C 0.6708 0.10902 0.05384 0.0
C2813 C 0.6787 0.12209 0.03572 0.0
C2814 C 0.66376 0.12507 0.0169 0.0
C2815 C 0.64155 0.11507 0.01599 0.0
H2816 H 0.20776 0.47064 0.247 0.0
H2817 H 0.25167 0.53002 0.22374 0.0
H2818 H 0.23556 0.4466 0.24515 0.0
H2819 H 0.2795 0.50584 0.22184 0.0
H2820 H 0.32867 0.47025 0.26597 0.0
H2821 H 0.30118 0.49308 0.25586 0.0
H2822 H 0.25808 0.42615 0.21786 0.0
H2823 H 0.28536 0.40329 0.22828 0.0
C2824 C 0.22318 0.47835 0.24101 0.0
C2825 C 0.22764 0.50227 0.23576 0.0
C2826 C 0.23906 0.46454 0.23982 0.0
C2827 C 0.25972 0.47446 0.2335 0.0
C2828 C 0.26377 0.49789 0.22699 0.0
C2829 C 0.2478 0.51164 0.22797 0.0
C2830 C 0.31346 0.46053 0.25513 0.0
C2831 C 0.30911 0.43503 0.248 0.0
C2832 C 0.29782 0.47359 0.24917 0.0
C2833 C 0.27749 0.46131 0.23616 0.0
C2834 C 0.27358 0.436 0.22802 0.0
C2835 C 0.28927 0.42299 0.23381 0.0
H2836 H 0.26548 0.40665 0.0369 0.0
H2837 H 0.3083 0.47618 0.06832 0.0
H2838 H 0.2343 0.42579 0.03659 0.0
H2839 H 0.27708 0.49551 0.06766 0.0
H2840 H 0.2132 0.51879 0.08131 0.0
H2841 H 0.24358 0.49846 0.08484 0.0
H2842 H 0.21926 0.45354 1.015 0.0
H2843 H 0.18852 0.47325 1.01186 0.0
C2844 C 0.26826 0.42603 0.04389 0.0
C2845 C 0.28948 0.43985 0.05261 0.0
C2846 C 0.25034 0.43708 0.04352 0.0
C2847 C 0.25307 0.46231 0.05189 0.0
C2848 C 0.27424 0.47602 0.06124 0.0
C2849 C 0.29221 0.46494 0.06156 0.0
C2850 C 0.21413 0.50434 0.06684 0.0
C2851 C 0.19827 0.49772 0.04629 0.0
C2852 C 0.23176 0.49286 0.06874 0.0
C2853 C 0.23402 0.47431 0.05021 0.0
C2854 C 0.21802 0.46752 0.02979 0.0
C2855 C 0.20046 0.47905 0.02785 0.0
H2856 H 0.94043 0.97333 0.26797 0.0
H2857 H 0.88627 1.00851 0.27072 0.0
H2858 H 0.91633 0.93402 0.26798 0.0
H2859 H 0.8618 0.96885 0.27158 0.0
H2860 H 0.8169 0.89199 0.25857 0.0
H2861 H 0.84108 0.931 0.25728 0.0
H2862 H 0.89595 0.9032 0.28334 0.0
H2863 H 0.8713 0.86346 0.28376 0.0
C2864 C 0.92327 0.97291 0.26866 0.0
C2865 C 0.9158 0.99498 0.26926 0.0
C2866 C 0.90916 0.94982 0.2689 0.0
C2867 C 0.88646 0.94705 0.26994 0.0
C2868 C 0.87886 0.96917 0.27041 0.0
C2869 C 0.89309 0.99243 0.26999 0.0
C2870 C 0.83417 0.89392 0.26393 0.0
C2871 C 0.84171 0.8738 0.27115 0.0
C2872 C 0.84833 0.9169 0.26343 0.0
C2873 C 0.87114 0.92154 0.27035 0.0
C2874 C 0.8788 0.90122 0.27746 0.0
C2875 C 0.86449 0.87797 0.2778 0.0
H2876 H 0.71799 0.11506 0.72189 0.0
H2877 H 0.68096 0.15413 0.76817 0.0
H2878 H 0.74616 0.15268 0.72504 0.0
H2879 H 0.70918 0.19149 0.77128 0.0
H2880 H 0.77808 0.23371 0.80407 0.0
H2881 H 0.74938 0.19679 0.79328 0.0
H2882 H 0.75258 0.19998 0.71728 0.0
H2883 H 0.78141 0.23764 0.728 0.0
C2884 C 0.71561 0.13176 0.73225 0.0
C2885 C 0.69739 0.13157 0.74506 0.0
C2886 C 0.7317 0.15324 0.73396 0.0
C2887 C 0.72989 0.1747 0.74869 0.0
C2888 C 0.71097 0.17498 0.76004 0.0
C2889 C 0.69478 0.15364 0.75811 0.0
C2890 C 0.77296 0.22652 0.78501 0.0
C2891 C 0.78189 0.23877 0.76687 0.0
C2892 C 0.75637 0.20547 0.77889 0.0
C2893 C 0.74852 0.19601 0.75451 0.0
C2894 C 0.75831 0.2072 0.73622 0.0
C2895 C 0.77483 0.22859 0.74237 0.0
loop_
_geom_bond_atom_site_label_1
_geom_bond_atom_site_label_2
_geom_bond_distance
_geom_bond_site_symmetry_2
_ccdc_geom_bond_type
Co0 O1 2.216 . S
Co0 O2 2.091 . S
Co0 O4 2.004 . S
Co0 O10 2.021 . S
Co0 O12 2.137 . S
Co0 O13 2.244 . S
O1 Co0 2.216 . S
O1 C8 1.247 . S
O2 Co0 2.091 . S
O2 C8 1.261 . S
C3 O12 1.247 . S
C3 O13 1.272 . S
O4 Co0 2.004 . S
O4 C9 1.259 . S
Co5 O6 2.061 . S
Co5 O11 2.052 . S
Co5 O13 2.135 . S
O6 Co5 2.061 . S
O6 C9 1.235 . S
C7 O10 1.238 . S
C7 O11 1.241 . S
C8 O1 1.247 . S
C8 O2 1.261 . S
C9 O4 1.259 . S
C9 O6 1.235 . S
O10 Co0 2.021 . S
O10 C7 1.238 . S
O11 Co5 2.052 . S
O11 C7 1.241 . S
O12 Co0 2.137 . S
O12 C3 1.247 . S
O13 Co0 2.244 . S
O13 C3 1.272 . S
O13 Co5 2.135 . S
Co14 O15 2.216 . S
Co14 O16 2.091 . S
Co14 O18 2.004 1_655 S
Co14 O24 2.021 . S
Co14 O26 2.137 . S
Co14 O27 2.244 1_655 S
O15 Co14 2.216 . S
O15 C22 1.247 . S
O16 Co14 2.091 . S
O16 C22 1.261 . S
C17 O26 1.247 1_455 S
C17 O27 1.272 . S
O18 Co14 2.004 1_455 S
O18 C23 1.259 . S
Co19 O20 2.061 . S
Co19 O25 2.052 . S
Co19 O27 2.135 . S
O20 Co19 2.061 . S
O20 C23 1.235 . S
C21 O24 1.238 . S
C21 O25 1.241 1_655 S
C22 O15 1.247 . S
C22 O16 1.261 . S
C23 O18 1.259 . S
C23 O20 1.235 . S
O24 Co14 2.021 . S
O24 C21 1.238 . S
O25 Co19 2.052 . S
O25 C21 1.241 1_455 S
O26 Co14 2.137 . S
O26 C17 1.247 1_655 S
O27 Co14 2.244 1_455 S
O27 C17 1.272 . S
O27 Co19 2.135 . S
Co28 O29 2.216 . S
Co28 O30 2.091 . S
Co28 O32 2.004 . S
Co28 O38 2.021 . S
Co28 O40 2.137 . S
Co28 O41 2.244 . S
O29 Co28 2.216 . S
O29 C36 1.247 . S
O30 Co28 2.091 . S
O30 C36 1.261 . S
C31 O40 1.247 . S
C31 O41 1.272 . S
O32 Co28 2.004 . S
O32 C37 1.259 . S
Co33 O34 2.061 . S
Co33 O39 2.052 . S
Co33 O41 2.135 . S
O34 Co33 2.061 . S
O34 C37 1.235 . S
C35 O38 1.238 . S
C35 O39 1.241 . S
C36 O29 1.247 . S
C36 O30 1.261 . S
C37 O32 1.259 . S
C37 O34 1.235 . S
O38 Co28 2.021 . S
O38 C35 1.238 . S
O39 Co33 2.052 . S
O39 C35 1.241 . S
O40 Co28 2.137 . S
O40 C31 1.247 . S
O41 Co28 2.244 . S
O41 C31 1.272 . S
O41 Co33 2.135 . S
Co42 O43 2.216 . S
Co42 O44 2.091 . S
Co42 O46 2.004 . S
Co42 O52 2.021 . S
Co42 O54 2.137 . S
Co42 O55 2.244 . S
O43 Co42 2.216 . S
O43 C50 1.247 . S
O44 Co42 2.091 . S
O44 C50 1.261 . S
C45 O54 1.247 . S
C45 O55 1.272 . S
O46 Co42 2.004 . S
O46 C51 1.259 . S
Co47 O48 2.061 . S
Co47 O53 2.052 . S
Co47 O55 2.135 . S
O48 Co47 2.061 . S
O48 C51 1.235 . S
C49 O52 1.238 . S
C49 O53 1.241 . S
C50 O43 1.247 . S
C50 O44 1.261 . S
C51 O46 1.259 . S
C51 O48 1.235 . S
O52 Co42 2.021 . S
O52 C49 1.238 . S
O53 Co47 2.052 . S
O53 C49 1.241 . S
O54 Co42 2.137 . S
O54 C45 1.247 . S
O55 Co42 2.244 . S
O55 C45 1.272 . S
O55 Co47 2.135 . S
Co56 O57 2.216 . S
Co56 O58 2.091 . S
Co56 O60 2.004 . S
Co56 O66 2.021 . S
Co56 O68 2.137 . S
Co56 O69 2.244 . S
O57 Co56 2.216 . S
O57 C64 1.247 . S
O58 Co56 2.091 . S
O58 C64 1.261 . S
C59 O68 1.247 . S
C59 O69 1.272 . S
O60 Co56 2.004 . S
O60 C65 1.259 . S
Co61 O62 2.061 . S
Co61 O67 2.052 . S
Co61 O69 2.135 . S
O62 Co61 2.061 . S
O62 C65 1.235 . S
C63 O66 1.238 . S
C63 O67 1.241 . S
C64 O57 1.247 . S
C64 O58 1.261 . S
C65 O60 1.259 . S
C65 O62 1.235 . S
O66 Co56 2.021 . S
O66 C63 1.238 . S
O67 Co61 2.052 . S
O67 C63 1.241 . S
O68 Co56 2.137 . S
O68 C59 1.247 . S
O69 Co56 2.244 . S
O69 C59 1.272 . S
O69 Co61 2.135 . S
Co70 O71 2.216 . S
Co70 O72 2.091 . S
Co70 O74 2.004 . S
Co70 O80 2.021 . S
Co70 O82 2.137 . S
Co70 O83 2.244 . S
O71 Co70 2.216 . S
O71 C78 1.247 . S
O72 Co70 2.091 . S
O72 C78 1.261 . S
C73 O82 1.247 . S
C73 O83 1.272 . S
O74 Co70 2.004 . S
O74 C79 1.259 . S
Co75 O76 2.061 . S
Co75 O81 2.052 . S
Co75 O83 2.135 . S
O76 Co75 2.061 . S
O76 C79 1.235 . S
C77 O80 1.238 . S
C77 O81 1.241 . S
C78 O71 1.247 . S
C78 O72 1.261 . S
C79 O74 1.259 . S
C79 O76 1.235 . S
O80 Co70 2.021 . S
O80 C77 1.238 . S
O81 Co75 2.052 . S
O81 C77 1.241 . S
O82 Co70 2.137 . S
O82 C73 1.247 . S
O83 Co70 2.244 . S
O83 C73 1.272 . S
O83 Co75 2.135 . S
Co84 O85 2.216 . S
Co84 O86 2.091 . S
Co84 O88 2.004 . S
Co84 O94 2.021 . S
Co84 O96 2.137 . S
Co84 O97 2.244 . S
O85 Co84 2.216 . S
O85 C92 1.247 . S
O86 Co84 2.091 . S
O86 C92 1.261 . S
C87 O96 1.247 . S
C87 O97 1.272 . S
O88 Co84 2.004 . S
O88 C93 1.259 . S
Co89 O90 2.061 . S
Co89 O95 2.052 . S
Co89 O97 2.135 . S
O90 Co89 2.061 . S
O90 C93 1.235 . S
C91 O94 1.238 . S
C91 O95 1.241 . S
C92 O85 1.247 . S
C92 O86 1.261 . S
C93 O88 1.259 . S
C93 O90 1.235 . S
O94 Co84 2.021 . S
O94 C91 1.238 . S
O95 Co89 2.052 . S
O95 C91 1.241 . S
O96 Co84 2.137 . S
O96 C87 1.247 . S
O97 Co84 2.244 . S
O97 C87 1.272 . S
O97 Co89 2.135 . S
Co98 O99 2.216 . S
Co98 O100 2.091 . S
Co98 O102 2.004 1_455 S
Co98 O108 2.021 . S
Co98 O110 2.137 . S
Co98 O111 2.244 . S
O99 Co98 2.216 . S
O99 C106 1.247 . S
O100 Co98 2.091 . S
O100 C106 1.261 . S
C101 O110 1.247 . S
C101 O111 1.272 . S
O102 Co98 2.004 1_655 S
O102 C107 1.259 . S
Co103 O104 2.061 . S
Co103 O109 2.052 1_655 S
Co103 O111 2.135 1_655 S
O104 Co103 2.061 . S
O104 C107 1.235 . S
C105 O108 1.238 . S
C105 O109 1.241 . S
C106 O99 1.247 . S
C106 O100 1.261 . S
C107 O102 1.259 . S
C107 O104 1.235 . S
O108 Co98 2.021 . S
O108 C105 1.238 . S
O109 Co103 2.052 1_455 S
O109 C105 1.241 . S
O110 Co98 2.137 . S
O110 C101 1.247 . S
O111 Co98 2.244 . S
O111 C101 1.272 . S
O111 Co103 2.135 1_455 S
Co112 O113 2.216 . S
Co112 O114 2.091 . S
Co112 O116 2.004 1_545 S
Co112 O122 2.021 . S
Co112 O124 2.137 . S
Co112 O125 2.250 . S
O113 Co112 2.216 . S
O113 C120 1.247 . S
O114 Co112 2.091 . S
O114 C120 1.261 . S
C115 O124 1.247 . S
C115 O125 1.275 . S
O116 Co112 2.004 1_565 S
O116 C121 1.259 . S
Co117 O118 2.061 . S
Co117 O123 2.052 . S
Co117 O125 2.124 1_565 S
O118 Co117 2.061 . S
O118 C121 1.235 . S
C119 O122 1.232 1_565 S
C119 O123 1.241 . S
C120 O113 1.247 . S
C120 O114 1.261 . S
C121 O116 1.259 . S
C121 O118 1.235 . S
O122 Co112 2.021 . S
O122 C119 1.232 1_545 S
O123 Co117 2.052 . S
O123 C119 1.241 . S
O124 Co112 2.137 . S
O124 C115 1.247 . S
O125 Co112 2.250 . S
O125 C115 1.275 . S
O125 Co117 2.124 1_545 S
Co126 O127 2.216 . S
Co126 O128 2.091 . S
Co126 O130 2.004 . S
Co126 O136 2.021 . S
Co126 O138 2.137 . S
Co126 O139 2.244 . S
O127 Co126 2.216 . S
O127 C134 1.247 . S
O128 Co126 2.091 . S
O128 C134 1.261 . S
C129 O138 1.247 . S
C129 O139 1.272 . S
O130 Co126 2.004 . S
O130 C135 1.259 . S
Co131 O132 2.061 . S
Co131 O137 2.052 . S
Co131 O139 2.135 . S
O132 Co131 2.061 . S
O132 C135 1.235 . S
C133 O136 1.238 . S
C133 O137 1.241 . S
C134 O127 1.247 . S
C134 O128 1.261 . S
C135 O130 1.259 . S
C135 O132 1.235 . S
O136 Co126 2.021 . S
O136 C133 1.238 . S
O137 Co131 2.052 . S
O137 C133 1.241 . S
O138 Co126 2.137 . S
O138 C129 1.247 . S
O139 Co126 2.244 . S
O139 C129 1.272 . S
O139 Co131 2.135 . S
Co140 O141 2.216 1_545 S
Co140 O142 2.091 1_545 S
Co140 O144 2.004 . S
Co140 O150 2.023 1_545 S
Co140 O152 2.137 . S
Co140 O153 2.244 . S
O141 Co140 2.216 1_565 S
O141 C148 1.247 . S
O142 Co140 2.091 1_565 S
O142 C148 1.261 . S
C143 O152 1.247 . S
C143 O153 1.272 . S
O144 Co140 2.004 . S
O144 C149 1.259 . S
Co145 O146 2.061 . S
Co145 O151 2.052 . S
Co145 O153 2.135 . S
O146 Co145 2.061 . S
O146 C149 1.235 . S
C147 O150 1.232 1_545 S
C147 O151 1.241 . S
C148 O141 1.247 . S
C148 O142 1.261 . S
C149 O144 1.259 . S
C149 O146 1.235 . S
O150 Co140 2.023 1_565 S
O150 C147 1.232 1_565 S
O151 Co145 2.052 . S
O151 C147 1.241 . S
O152 Co140 2.137 . S
O152 C143 1.247 . S
O153 Co140 2.244 . S
O153 C143 1.272 . S
O153 Co145 2.135 . S
Co154 O155 2.216 . S
Co154 O156 2.091 . S
Co154 O158 2.004 . S
Co154 O164 2.021 . S
Co154 O166 2.137 1_554 S
Co154 O167 2.244 1_554 S
O155 Co154 2.216 . S
O155 C162 1.246 . S
O156 Co154 2.091 . S
O156 C162 1.261 . S
C157 O166 1.247 . S
C157 O167 1.272 . S
O158 Co154 2.004 . S
O158 C163 1.259 . S
Co159 O160 2.061 . S
Co159 O165 2.052 . S
Co159 O167 2.135 1_554 S
O160 Co159 2.061 . S
O160 C163 1.235 . S
C161 O164 1.238 . S
C161 O165 1.241 . S
C162 O155 1.246 . S
C162 O156 1.261 . S
C163 O158 1.259 . S
C163 O160 1.235 . S
O164 Co154 2.021 . S
O164 C161 1.238 . S
O165 Co159 2.052 . S
O165 C161 1.241 . S
O166 Co154 2.137 1_556 S
O166 C157 1.247 . S
O167 Co154 2.244 1_556 S
O167 C157 1.272 . S
O167 Co159 2.135 1_556 S
Co168 O169 2.216 . S
Co168 O170 2.091 . S
Co168 O172 2.004 . S
Co168 O178 2.021 . S
Co168 O180 2.137 1_554 S
Co168 O181 2.244 1_554 S
O169 Co168 2.216 . S
O169 C176 1.247 . S
O170 Co168 2.091 . S
O170 C176 1.261 . S
C171 O180 1.247 . S
C171 O181 1.272 . S
O172 Co168 2.004 . S
O172 C177 1.259 . S
Co173 O174 2.061 . S
Co173 O179 2.052 . S
Co173 O181 2.135 1_554 S
O174 Co173 2.061 . S
O174 C177 1.235 . S
C175 O178 1.238 . S
C175 O179 1.241 . S
C176 O169 1.247 . S
C176 O170 1.261 . S
C177 O172 1.259 . S
C177 O174 1.235 . S
O178 Co168 2.021 . S
O178 C175 1.238 . S
O179 Co173 2.052 . S
O179 C175 1.241 . S
O180 Co168 2.137 1_556 S
O180 C171 1.247 . S
O181 Co168 2.244 1_556 S
O181 C171 1.272 . S
O181 Co173 2.135 1_556 S
Co182 O183 2.216 . S
Co182 O184 2.091 . S
Co182 O186 2.004 . S
Co182 O192 2.021 . S
Co182 O194 2.137 1_554 S
Co182 O195 2.258 . S
O183 Co182 2.216 . S
O183 C190 1.247 . S
O184 Co182 2.091 . S
O184 C190 1.261 . S
C185 O194 1.247 . S
C185 O195 1.246 1_556 S
O186 Co182 2.004 . S
O186 C191 1.259 . S
Co187 O188 2.061 . S
Co187 O193 2.052 . S
Co187 O195 2.152 . S
O188 Co187 2.061 . S
O188 C191 1.235 . S
C189 O192 1.238 . S
C189 O193 1.241 . S
C190 O183 1.247 . S
C190 O184 1.261 . S
C191 O186 1.259 . S
C191 O188 1.235 . S
O192 Co182 2.021 . S
O192 C189 1.238 . S
O193 Co187 2.052 . S
O193 C189 1.241 . S
O194 Co182 2.137 1_556 S
O194 C185 1.247 . S
O195 Co182 2.258 . S
O195 C185 1.246 1_554 S
O195 Co187 2.152 . S
Co196 O197 2.216 . S
Co196 O198 2.091 . S
Co196 O200 2.004 . S
Co196 O206 2.021 . S
Co196 O208 2.137 . S
Co196 O209 2.244 . S
O197 Co196 2.216 . S
O197 C204 1.247 . S
O198 Co196 2.091 . S
O198 C204 1.261 . S
C199 O208 1.247 . S
C199 O209 1.272 . S
O200 Co196 2.004 . S
O200 C205 1.259 . S
Co201 O202 2.061 . S
Co201 O207 2.052 . S
Co201 O209 2.135 . S
O202 Co201 2.061 . S
O202 C205 1.235 . S
C203 O206 1.238 . S
C203 O207 1.241 . S
C204 O197 1.247 . S
C204 O198 1.261 . S
C205 O200 1.259 . S
C205 O202 1.235 . S
O206 Co196 2.021 . S
O206 C203 1.238 . S
O207 Co201 2.052 . S
O207 C203 1.241 . S
O208 Co196 2.137 . S
O208 C199 1.247 . S
O209 Co196 2.244 . S
O209 C199 1.272 . S
O209 Co201 2.135 . S
Co210 O211 2.216 . S
Co210 O212 2.091 . S
Co210 O214 2.004 . S
Co210 O220 2.021 . S
Co210 O222 2.137 . S
Co210 O223 2.244 . S
O211 Co210 2.216 . S
O211 C218 1.247 . S
O212 Co210 2.091 . S
O212 C218 1.261 . S
C213 O222 1.247 . S
C213 O223 1.272 . S
O214 Co210 2.004 . S
O214 C219 1.259 . S
Co215 O216 2.061 . S
Co215 O221 2.052 . S
Co215 O223 2.135 . S
O216 Co215 2.061 . S
O216 C219 1.235 . S
C217 O220 1.238 . S
C217 O221 1.241 . S
C218 O211 1.247 . S
C218 O212 1.261 . S
C219 O214 1.259 . S
C219 O216 1.235 . S
O220 Co210 2.021 . S
O220 C217 1.238 . S
O221 Co215 2.052 . S
O221 C217 1.241 . S
O222 Co210 2.137 . S
O222 C213 1.247 . S
O223 Co210 2.244 . S
O223 C213 1.272 . S
O223 Co215 2.135 . S
Co224 O225 2.216 . S
Co224 O226 2.091 . S
Co224 O228 2.004 . S
Co224 O234 2.021 . S
Co224 O236 2.137 . S
Co224 O237 2.244 . S
O225 Co224 2.216 . S
O225 C232 1.247 . S
O226 Co224 2.091 . S
O226 C232 1.261 . S
C227 O236 1.247 . S
C227 O237 1.272 . S
O228 Co224 2.004 . S
O228 C233 1.259 . S
Co229 O230 2.061 . S
Co229 O235 2.052 . S
Co229 O237 2.135 . S
O230 Co229 2.061 . S
O230 C233 1.235 . S
C231 O234 1.238 . S
C231 O235 1.241 . S
C232 O225 1.247 . S
C232 O226 1.261 . S
C233 O228 1.259 . S
C233 O230 1.235 . S
O234 Co224 2.021 . S
O234 C231 1.238 . S
O235 Co229 2.052 . S
O235 C231 1.241 . S
O236 Co224 2.137 . S
O236 C227 1.247 . S
O237 Co224 2.244 . S
O237 C227 1.272 . S
O237 Co229 2.135 . S
Co238 O239 2.216 . S
Co238 O240 2.091 . S
Co238 O242 2.004 . S
Co238 O248 2.021 . S
Co238 O250 2.137 . S
Co238 O251 2.244 . S
O239 Co238 2.216 . S
O239 C246 1.247 . S
O240 Co238 2.091 . S
O240 C246 1.261 . S
C241 O250 1.247 . S
C241 O251 1.272 . S
O242 Co238 2.004 . S
O242 C247 1.259 . S
Co243 O244 2.061 . S
Co243 O249 2.052 . S
Co243 O251 2.135 . S
O244 Co243 2.061 . S
O244 C247 1.235 . S
C245 O248 1.238 . S
C245 O249 1.241 . S
C246 O239 1.247 . S
C246 O240 1.261 . S
C247 O242 1.259 . S
C247 O244 1.235 . S
O248 Co238 2.021 . S
O248 C245 1.238 . S
O249 Co243 2.052 . S
O249 C245 1.241 . S
O250 Co238 2.137 . S
O250 C241 1.247 . S
O251 Co238 2.244 . S
O251 C241 1.272 . S
O251 Co243 2.135 . S
Co252 O253 2.216 . S
Co252 O254 2.091 . S
Co252 O256 2.004 . S
Co252 O262 2.021 . S
Co252 O264 2.137 . S
Co252 O265 2.244 . S
O253 Co252 2.216 . S
O253 C260 1.247 . S
O254 Co252 2.091 . S
O254 C260 1.261 . S
C255 O264 1.247 . S
C255 O265 1.272 . S
O256 Co252 2.004 . S
O256 C261 1.259 . S
Co257 O258 2.061 . S
Co257 O263 2.052 . S
Co257 O265 2.135 . S
O258 Co257 2.061 . S
O258 C261 1.235 . S
C259 O262 1.238 . S
C259 O263 1.241 . S
C260 O253 1.247 . S
C260 O254 1.261 . S
C261 O256 1.259 . S
C261 O258 1.235 . S
O262 Co252 2.021 . S
O262 C259 1.238 . S
O263 Co257 2.052 . S
O263 C259 1.241 . S
O264 Co252 2.137 . S
O264 C255 1.247 . S
O265 Co252 2.244 . S
O265 C255 1.272 . S
O265 Co257 2.135 . S
Co266 O267 2.216 . S
Co266 O268 2.091 . S
Co266 O270 2.004 . S
Co266 O276 2.021 . S
Co266 O278 2.137 . S
Co266 O279 2.244 . S
O267 Co266 2.216 . S
O267 C274 1.247 . S
O268 Co266 2.091 . S
O268 C274 1.261 . S
C269 O278 1.247 . S
C269 O279 1.272 . S
O270 Co266 2.004 . S
O270 C275 1.259 . S
Co271 O272 2.061 . S
Co271 O277 2.052 . S
Co271 O279 2.135 . S
O272 Co271 2.061 . S
O272 C275 1.235 . S
C273 O276 1.238 . S
C273 O277 1.241 . S
C274 O267 1.247 . S
C274 O268 1.261 . S
C275 O270 1.259 . S
C275 O272 1.235 . S
O276 Co266 2.021 . S
O276 C273 1.238 . S
O277 Co271 2.052 . S
O277 C273 1.241 . S
O278 Co266 2.137 . S
O278 C269 1.247 . S
O279 Co266 2.244 . S
O279 C269 1.272 . S
O279 Co271 2.135 . S
Co280 O281 2.216 . S
Co280 O282 2.093 . S
Co280 O284 2.005 1_554 S
Co280 O290 2.037 . S
Co280 O292 2.120 1_554 S
Co280 O293 2.236 1_554 S
O281 Co280 2.216 . S
O281 C288 1.247 . S
O282 Co280 2.093 . S
O282 C288 1.261 . S
C283 O292 1.247 . S
C283 O293 1.272 . S
O284 Co280 2.005 1_556 S
O284 C289 1.259 . S
Co285 O286 2.061 . S
Co285 O291 2.052 . S
Co285 O293 2.135 1_554 S
O286 Co285 2.061 . S
O286 C289 1.235 1_554 S
C287 O290 1.238 . S
C287 O291 1.241 . S
C288 O281 1.247 . S
C288 O282 1.261 . S
C289 O284 1.259 . S
C289 O286 1.235 1_556 S
O290 Co280 2.037 . S
O290 C287 1.238 . S
O291 Co285 2.052 . S
O291 C287 1.241 . S
O292 Co280 2.120 1_556 S
O292 C283 1.247 . S
O293 Co280 2.236 1_556 S
O293 C283 1.272 . S
O293 Co285 2.135 1_556 S
Co294 O295 2.216 . S
Co294 O296 2.091 . S
Co294 O298 2.004 . S
Co294 O304 2.021 . S
Co294 O306 2.137 . S
Co294 O307 2.244 . S
O295 Co294 2.216 . S
O295 C302 1.247 . S
O296 Co294 2.091 . S
O296 C302 1.261 . S
C297 O306 1.247 . S
C297 O307 1.272 . S
O298 Co294 2.004 . S
O298 C303 1.259 . S
Co299 O300 2.061 . S
Co299 O305 2.052 . S
Co299 O307 2.135 . S
O300 Co299 2.061 . S
O300 C303 1.235 . S
C301 O304 1.238 . S
C301 O305 1.241 . S
C302 O295 1.247 . S
C302 O296 1.261 . S
C303 O298 1.259 . S
C303 O300 1.235 . S
O304 Co294 2.021 . S
O304 C301 1.238 . S
O305 Co299 2.052 . S
O305 C301 1.241 . S
O306 Co294 2.137 . S
O306 C297 1.247 . S
O307 Co294 2.244 . S
O307 C297 1.272 . S
O307 Co299 2.135 . S
Co308 O309 2.216 . S
Co308 O310 2.091 . S
Co308 O312 2.004 . S
Co308 O318 2.021 . S
Co308 O320 2.137 . S
Co308 O321 2.244 . S
O309 Co308 2.216 . S
O309 C316 1.247 . S
O310 Co308 2.091 . S
O310 C316 1.261 . S
C311 O320 1.247 . S
C311 O321 1.272 . S
O312 Co308 2.004 . S
O312 C317 1.259 . S
Co313 O314 2.061 . S
Co313 O319 2.052 . S
Co313 O321 2.135 . S
O314 Co313 2.061 . S
O314 C317 1.235 . S
C315 O318 1.238 . S
C315 O319 1.241 . S
C316 O309 1.247 . S
C316 O310 1.261 . S
C317 O312 1.259 . S
C317 O314 1.235 . S
O318 Co308 2.021 . S
O318 C315 1.238 . S
O319 Co313 2.052 . S
O319 C315 1.241 . S
O320 Co308 2.137 . S
O320 C311 1.247 . S
O321 Co308 2.244 . S
O321 C311 1.272 . S
O321 Co313 2.135 . S
Co322 O323 2.216 . S
Co322 O324 2.091 . S
Co322 O326 2.004 . S
Co322 O332 2.021 . S
Co322 O334 2.137 . S
Co322 O335 2.244 . S
O323 Co322 2.216 . S
O323 C330 1.247 . S
O324 Co322 2.091 . S
O324 C330 1.261 . S
C325 O334 1.247 . S
C325 O335 1.272 . S
O326 Co322 2.004 . S
O326 C331 1.259 . S
Co327 O328 2.061 . S
Co327 O333 2.052 . S
Co327 O335 2.135 . S
O328 Co327 2.061 . S
O328 C331 1.235 . S
C329 O332 1.238 . S
C329 O333 1.241 . S
C330 O323 1.247 . S
C330 O324 1.261 . S
C331 O326 1.259 . S
C331 O328 1.235 . S
O332 Co322 2.021 . S
O332 C329 1.238 . S
O333 Co327 2.052 . S
O333 C329 1.241 . S
O334 Co322 2.137 . S
O334 C325 1.247 . S
O335 Co322 2.244 . S
O335 C325 1.272 . S
O335 Co327 2.135 . S
Ho336 C339 2.814 1_455 S
Ho336 O356 2.329 . S
Ho336 O358 2.389 1_455 S
Ho336 O359 2.518 1_456 S
Ho336 O360 2.400 . S
Ho336 O361 2.676 . S
Ho336 O363 2.339 1_546 S
Ho336 O367 2.289 1_556 S
Ho337 C348 2.811 . S
Ho337 O357 2.346 . S
Ho337 O361 2.305 1_554 S
Ho337 O362 2.322 . S
Ho337 O364 2.378 . S
Ho337 O365 2.524 . S
Ho337 O366 2.381 . S
Ho337 O367 2.669 . S
C338 O356 1.259 1_554 S
C338 O357 1.268 . S
C339 Ho336 2.814 1_655 S
C339 C340 1.488 . S
C339 O358 1.215 . S
C339 O359 1.289 1_556 S
C340 C339 1.488 . S
C340 C341 1.348 1_556 S
C340 C345 1.413 . S
C341 C340 1.348 1_554 S
C341 C342 1.442 1_554 S
C341 H368 0.930 . S
C342 C341 1.442 1_556 S
C342 C343 1.381 . S
C342 H369 0.931 1_556 S
C343 C342 1.381 . S
C343 C344 1.321 . S
C344 C343 1.321 . S
C344 C345 1.403 . S
C344 H370 0.934 . S
C345 C340 1.413 . S
C345 C344 1.403 . S
C345 H371 0.930 . S
C346 O360 1.275 . S
C346 O361 1.256 . S
C347 O362 1.259 1_565 S
C347 O363 1.268 . S
C348 Ho337 2.811 . S
C348 C349 1.488 . S
C348 O364 1.215 . S
C348 O365 1.289 . S
C349 C348 1.488 . S
C349 C350 1.348 . S
C349 C354 1.413 . S
C350 C349 1.348 . S
C350 C351 1.442 1_545 S
C350 H372 0.931 . S
C351 C350 1.442 1_565 S
C351 C352 1.381 1_565 S
C351 H373 0.931 . S
C352 C351 1.381 1_545 S
C352 C353 1.321 . S
C353 C352 1.321 . S
C353 C354 1.403 . S
C353 H374 0.934 . S
C354 C349 1.413 . S
C354 C353 1.403 . S
C354 H375 0.930 . S
C355 O366 1.275 . S
C355 O367 1.256 . S
O356 Ho336 2.329 . S
O356 C338 1.259 1_556 S
O357 Ho337 2.346 . S
O357 C338 1.268 . S
O358 Ho336 2.389 1_655 S
O358 C339 1.215 . S
O359 Ho336 2.518 1_654 S
O359 C339 1.289 1_554 S
O360 Ho336 2.400 . S
O360 C346 1.275 . S
O361 Ho336 2.676 . S
O361 Ho337 2.305 1_556 S
O361 C346 1.256 . S
O362 Ho337 2.322 . S
O362 C347 1.259 1_545 S
O363 Ho336 2.339 1_564 S
O363 C347 1.268 . S
O364 Ho337 2.378 . S
O364 C348 1.215 . S
O365 Ho337 2.524 . S
O365 C348 1.289 . S
O366 Ho337 2.381 . S
O366 C355 1.275 . S
O367 Ho336 2.289 1_554 S
O367 Ho337 2.669 . S
O367 C355 1.256 . S
H368 C341 0.930 . S
H369 C342 0.931 1_554 S
H370 C344 0.934 . S
H371 C345 0.930 . S
H372 C350 0.931 . S
H373 C351 0.931 . S
H374 C353 0.934 . S
H375 C354 0.930 . S
Ho376 C379 2.811 . S
Ho376 O396 2.322 . S
Ho376 O398 2.378 . S
Ho376 O399 2.524 . S
Ho376 O400 2.381 . S
Ho376 O401 2.669 . S
Ho376 O403 2.346 . S
Ho376 O407 2.305 . S
Ho377 C388 2.811 . S
Ho377 O397 2.346 . S
Ho377 O401 2.305 . S
Ho377 O402 2.322 . S
Ho377 O404 2.378 . S
Ho377 O405 2.524 . S
Ho377 O406 2.381 . S
Ho377 O407 2.669 . S
C378 O396 1.259 . S
C378 O397 1.268 . S
C379 Ho376 2.811 . S
C379 C380 1.488 . S
C379 O398 1.215 . S
C379 O399 1.289 . S
C380 C379 1.488 . S
C380 C381 1.348 . S
C380 C385 1.413 . S
C381 C380 1.348 . S
C381 C382 1.442 . S
C381 H408 0.930 . S
C382 C381 1.442 . S
C382 C383 1.381 . S
C382 H409 0.931 . S
C383 C382 1.381 . S
C383 C384 1.321 . S
C384 C383 1.321 . S
C384 C385 1.403 . S
C384 H410 0.934 . S
C385 C380 1.413 . S
C385 C384 1.403 . S
C385 H411 0.930 . S
C386 O400 1.275 . S
C386 O401 1.256 . S
C387 O402 1.259 . S
C387 O403 1.268 . S
C388 Ho377 2.811 . S
C388 C389 1.488 . S
C388 O404 1.215 . S
C388 O405 1.289 . S
C389 C388 1.488 . S
C389 C390 1.348 . S
C389 C394 1.413 . S
C390 C389 1.348 . S
C390 C391 1.442 . S
C390 H412 0.930 . S
C391 C390 1.442 . S
C391 C392 1.381 . S
C391 H413 0.931 . S
C392 C391 1.381 . S
C392 C393 1.321 . S
C393 C392 1.321 . S
C393 C394 1.403 . S
C393 H414 0.934 . S
C394 C389 1.413 . S
C394 C393 1.403 . S
C394 H415 0.930 . S
C395 O406 1.275 . S
C395 O407 1.256 . S
O396 Ho376 2.322 . S
O396 C378 1.259 . S
O397 Ho377 2.346 . S
O397 C378 1.268 . S
O398 Ho376 2.378 . S
O398 C379 1.215 . S
O399 Ho376 2.524 . S
O399 C379 1.289 . S
O400 Ho376 2.381 . S
O400 C386 1.275 . S
O401 Ho376 2.669 . S
O401 Ho377 2.305 . S
O401 C386 1.256 . S
O402 Ho377 2.322 . S
O402 C387 1.259 . S
O403 Ho376 2.346 . S
O403 C387 1.268 . S
O404 Ho377 2.378 . S
O404 C388 1.215 . S
O405 Ho377 2.524 . S
O405 C388 1.289 . S
O406 Ho377 2.381 . S
O406 C395 1.275 . S
O407 Ho376 2.305 . S
O407 Ho377 2.669 . S
O407 C395 1.256 . S
H408 C381 0.930 . S
H409 C382 0.931 . S
H410 C384 0.934 . S
H411 C385 0.930 . S
H412 C390 0.930 . S
H413 C391 0.931 . S
H414 C393 0.934 . S
H415 C394 0.930 . S
Ho416 C419 2.811 . S
Ho416 O436 2.322 1_545 S
Ho416 O438 2.378 . S
Ho416 O439 2.524 . S
Ho416 O440 2.381 . S
Ho416 O441 2.669 . S
Ho416 O443 2.346 . S
Ho416 O447 2.305 . S
Ho417 C428 2.811 . S
Ho417 O437 2.346 1_545 S
Ho417 O441 2.305 . S
Ho417 O442 2.322 . S
Ho417 O444 2.378 . S
Ho417 O445 2.524 . S
Ho417 O446 2.381 . S
Ho417 O447 2.669 . S
C418 O436 1.259 . S
C418 O437 1.268 . S
C419 Ho416 2.811 . S
C419 C420 1.488 1_545 S
C419 O438 1.215 . S
C419 O439 1.289 . S
C420 C419 1.488 1_565 S
C420 C421 1.348 . S
C420 C425 1.413 . S
C421 C420 1.348 . S
C421 C422 1.442 . S
C421 H448 0.930 . S
C422 C421 1.442 . S
C422 C423 1.381 . S
C422 H449 0.931 . S
C423 C422 1.381 . S
C423 C424 1.321 . S
C424 C423 1.321 . S
C424 C425 1.403 . S
C424 H450 0.934 . S
C425 C420 1.413 . S
C425 C424 1.403 . S
C425 H451 0.930 . S
C426 O440 1.275 . S
C426 O441 1.256 . S
C427 O442 1.259 . S
C427 O443 1.268 . S
C428 Ho417 2.811 . S
C428 C429 1.488 . S
C428 O444 1.215 . S
C428 O445 1.289 . S
C429 C428 1.488 . S
C429 C430 1.348 . S
C429 C434 1.413 . S
C430 C429 1.348 . S
C430 C431 1.442 . S
C430 H452 0.930 . S
C431 C430 1.442 . S
C431 C432 1.381 . S
C431 H453 0.931 . S
C432 C431 1.381 . S
C432 C433 1.321 . S
C433 C432 1.321 . S
C433 C434 1.403 . S
C433 H454 0.934 . S
C434 C429 1.413 . S
C434 C433 1.403 . S
C434 H455 0.930 . S
C435 O446 1.275 . S
C435 O447 1.256 . S
O436 Ho416 2.322 1_565 S
O436 C418 1.259 . S
O437 Ho417 2.346 1_565 S
O437 C418 1.268 . S
O438 Ho416 2.378 . S
O438 C419 1.215 . S
O439 Ho416 2.524 . S
O439 C419 1.289 . S
O440 Ho416 2.381 . S
O440 C426 1.275 . S
O441 Ho416 2.669 . S
O441 Ho417 2.305 . S
O441 C426 1.256 . S
O442 Ho417 2.322 . S
O442 C427 1.259 . S
O443 Ho416 2.346 . S
O443 C427 1.268 . S
O444 Ho417 2.378 . S
O444 C428 1.215 . S
O445 Ho417 2.524 . S
O445 C428 1.289 . S
O446 Ho417 2.381 . S
O446 C435 1.275 . S
O447 Ho416 2.305 . S
O447 Ho417 2.669 . S
O447 C435 1.256 . S
H448 C421 0.930 . S
H449 C422 0.931 . S
H450 C424 0.934 . S
H451 C425 0.930 . S
H452 C430 0.930 . S
H453 C431 0.931 . S
H454 C433 0.934 . S
H455 C434 0.930 . S
Ho456 C459 2.811 . S
Ho456 O476 2.322 . S
Ho456 O478 2.378 . S
Ho456 O479 2.524 . S
Ho456 O480 2.381 . S
Ho456 O481 2.669 . S
Ho456 O483 2.346 . S
Ho456 O487 2.305 . S
Ho457 C468 2.811 . S
Ho457 O477 2.346 . S
Ho457 O481 2.305 . S
Ho457 O482 2.322 . S
Ho457 O484 2.378 . S
Ho457 O485 2.524 . S
Ho457 O486 2.381 . S
Ho457 O487 2.669 . S
C458 O476 1.259 . S
C458 O477 1.268 . S
C459 Ho456 2.811 . S
C459 C460 1.488 . S
C459 O478 1.215 . S
C459 O479 1.289 . S
C460 C459 1.488 . S
C460 C461 1.348 . S
C460 C465 1.413 . S
C461 C460 1.348 . S
C461 C462 1.442 . S
C461 H488 0.930 . S
C462 C461 1.442 . S
C462 C463 1.381 . S
C462 H489 0.931 . S
C463 C462 1.381 . S
C463 C464 1.321 . S
C464 C463 1.321 . S
C464 C465 1.403 . S
C464 H490 0.934 . S
C465 C460 1.413 . S
C465 C464 1.403 . S
C465 H491 0.930 . S
C466 O480 1.275 . S
C466 O481 1.256 . S
C467 O482 1.259 . S
C467 O483 1.268 . S
C468 Ho457 2.811 . S
C468 C469 1.488 . S
C468 O484 1.215 . S
C468 O485 1.289 . S
C469 C468 1.488 . S
C469 C470 1.348 . S
C469 C474 1.413 . S
C470 C469 1.348 . S
C470 C471 1.442 . S
C470 H492 0.930 . S
C471 C470 1.442 . S
C471 C472 1.381 . S
C471 H493 0.931 . S
C472 C471 1.381 . S
C472 C473 1.321 . S
C473 C472 1.321 . S
C473 C474 1.403 . S
C473 H494 0.934 . S
C474 C469 1.413 . S
C474 C473 1.403 . S
C474 H495 0.930 . S
C475 O486 1.275 . S
C475 O487 1.256 . S
O476 Ho456 2.322 . S
O476 C458 1.259 . S
O477 Ho457 2.346 . S
O477 C458 1.268 . S
O478 Ho456 2.378 . S
O478 C459 1.215 . S
O479 Ho456 2.524 . S
O479 C459 1.289 . S
O480 Ho456 2.381 . S
O480 C466 1.275 . S
O481 Ho456 2.669 . S
O481 Ho457 2.305 . S
O481 C466 1.256 . S
O482 Ho457 2.322 . S
O482 C467 1.259 . S
O483 Ho456 2.346 . S
O483 C467 1.268 . S
O484 Ho457 2.378 . S
O484 C468 1.215 . S
O485 Ho457 2.524 . S
O485 C468 1.289 . S
O486 Ho457 2.381 . S
O486 C475 1.275 . S
O487 Ho456 2.305 . S
O487 Ho457 2.669 . S
O487 C475 1.256 . S
H488 C461 0.930 . S
H489 C462 0.931 . S
H490 C464 0.934 . S
H491 C465 0.930 . S
H492 C470 0.930 . S
H493 C471 0.931 . S
H494 C473 0.934 . S
H495 C474 0.930 . S
Ho496 C499 2.811 . S
Ho496 O516 2.322 . S
Ho496 O518 2.378 . S
Ho496 O519 2.524 . S
Ho496 O520 2.381 . S
Ho496 O521 2.669 . S
Ho496 O523 2.346 . S
Ho496 O527 2.305 . S
Ho497 C508 2.778 1_545 S
Ho497 O517 2.368 . S
Ho497 O521 2.325 . S
Ho497 O522 2.327 . S
Ho497 O524 2.346 1_545 S
Ho497 O525 2.498 1_545 S
Ho497 O526 2.391 . S
Ho497 O527 2.702 . S
C498 O516 1.259 . S
C498 O517 1.268 . S
C499 Ho496 2.811 . S
C499 C500 1.488 . S
C499 O518 1.215 . S
C499 O519 1.289 . S
C500 C499 1.488 . S
C500 C501 1.348 . S
C500 C505 1.413 . S
C501 C500 1.348 . S
C501 C502 1.442 . S
C501 H528 0.930 . S
C502 C501 1.442 . S
C502 C503 1.381 . S
C502 H529 0.931 . S
C503 C502 1.381 . S
C503 C504 1.321 . S
C504 C503 1.321 . S
C504 C505 1.403 . S
C504 H530 0.934 . S
C505 C500 1.413 . S
C505 C504 1.403 . S
C505 H531 0.930 . S
C506 O520 1.275 . S
C506 O521 1.256 . S
C507 O522 1.259 . S
C507 O523 1.268 . S
C508 Ho497 2.778 1_565 S
C508 C509 1.488 . S
C508 O524 1.215 . S
C508 O525 1.289 . S
C509 C508 1.488 . S
C509 C510 1.348 . S
C509 C514 1.413 . S
C510 C509 1.348 . S
C510 C511 1.442 . S
C510 H532 0.930 . S
C511 C510 1.442 . S
C511 C512 1.381 . S
C511 H533 0.931 . S
C512 C511 1.381 . S
C512 C513 1.321 . S
C513 C512 1.321 . S
C513 C514 1.403 . S
C513 H534 0.934 . S
C514 C509 1.413 . S
C514 C513 1.403 . S
C514 H535 0.930 . S
C515 O526 1.275 . S
C515 O527 1.256 . S
O516 Ho496 2.322 . S
O516 C498 1.259 . S
O517 Ho497 2.368 . S
O517 C498 1.268 . S
O518 Ho496 2.378 . S
O518 C499 1.215 . S
O519 Ho496 2.524 . S
O519 C499 1.289 . S
O520 Ho496 2.381 . S
O520 C506 1.275 . S
O521 Ho496 2.669 . S
O521 Ho497 2.325 . S
O521 C506 1.256 . S
O522 Ho497 2.327 . S
O522 C507 1.259 . S
O523 Ho496 2.346 . S
O523 C507 1.268 . S
O524 Ho497 2.346 1_565 S
O524 C508 1.215 . S
O525 Ho497 2.498 1_565 S
O525 C508 1.289 . S
O526 Ho497 2.391 . S
O526 C515 1.275 . S
O527 Ho496 2.305 . S
O527 Ho497 2.702 . S
O527 C515 1.256 . S
H528 C501 0.930 . S
H529 C502 0.931 . S
H530 C504 0.934 . S
H531 C505 0.930 . S
H532 C510 0.930 . S
H533 C511 0.931 . S
H534 C513 0.934 . S
H535 C514 0.930 . S
Ho536 C539 2.811 . S
Ho536 O556 2.322 . S
Ho536 O558 2.378 . S
Ho536 O559 2.524 . S
Ho536 O560 2.381 . S
Ho536 O561 2.669 . S
Ho536 O563 2.346 . S
Ho536 O567 2.305 . S
Ho537 C548 2.811 . S
Ho537 O557 2.346 . S
Ho537 O561 2.305 . S
Ho537 O562 2.322 . S
Ho537 O564 2.378 . S
Ho537 O565 2.524 . S
Ho537 O566 2.381 . S
Ho537 O567 2.669 . S
C538 O556 1.259 . S
C538 O557 1.268 . S
C539 Ho536 2.811 . S
C539 C540 1.488 . S
C539 O558 1.215 . S
C539 O559 1.289 . S
C540 C539 1.488 . S
C540 C541 1.348 . S
C540 C545 1.413 . S
C541 C540 1.348 . S
C541 C542 1.442 . S
C541 H568 0.930 . S
C542 C541 1.442 . S
C542 C543 1.381 . S
C542 H569 0.931 . S
C543 C542 1.381 . S
C543 C544 1.321 . S
C544 C543 1.321 . S
C544 C545 1.403 . S
C544 H570 0.934 . S
C545 C540 1.413 . S
C545 C544 1.403 . S
C545 H571 0.930 . S
C546 O560 1.275 . S
C546 O561 1.256 . S
C547 O562 1.259 . S
C547 O563 1.268 . S
C548 Ho537 2.811 . S
C548 C549 1.488 . S
C548 O564 1.215 . S
C548 O565 1.289 . S
C549 C548 1.488 . S
C549 C550 1.348 . S
C549 C554 1.413 . S
C550 C549 1.348 . S
C550 C551 1.442 . S
C550 H572 0.930 . S
C551 C550 1.442 . S
C551 C552 1.381 . S
C551 H573 0.931 . S
C552 C551 1.381 . S
C552 C553 1.321 . S
C553 C552 1.321 . S
C553 C554 1.403 . S
C553 H574 0.934 . S
C554 C549 1.413 . S
C554 C553 1.403 . S
C554 H575 0.930 . S
C555 O566 1.275 . S
C555 O567 1.256 . S
O556 Ho536 2.322 . S
O556 C538 1.259 . S
O557 Ho537 2.346 . S
O557 C538 1.268 . S
O558 Ho536 2.378 . S
O558 C539 1.215 . S
O559 Ho536 2.524 . S
O559 C539 1.289 . S
O560 Ho536 2.381 . S
O560 C546 1.275 . S
O561 Ho536 2.669 . S
O561 Ho537 2.305 . S
O561 C546 1.256 . S
O562 Ho537 2.322 . S
O562 C547 1.259 . S
O563 Ho536 2.346 . S
O563 C547 1.268 . S
O564 Ho537 2.378 . S
O564 C548 1.215 . S
O565 Ho537 2.524 . S
O565 C548 1.289 . S
O566 Ho537 2.381 . S
O566 C555 1.275 . S
O567 Ho536 2.305 . S
O567 Ho537 2.669 . S
O567 C555 1.256 . S
H568 C541 0.930 . S
H569 C542 0.931 . S
H570 C544 0.934 . S
H571 C545 0.930 . S
H572 C550 0.930 . S
H573 C551 0.931 . S
H574 C553 0.934 . S
H575 C554 0.930 . S
Ho576 C579 2.811 . S
Ho576 O596 2.322 . S
Ho576 O598 2.378 . S
Ho576 O599 2.524 . S
Ho576 O600 2.381 1_545 S
Ho576 O601 2.669 1_554 S
Ho576 O603 2.346 . S
Ho576 O607 2.305 . S
Ho577 C588 2.811 . S
Ho577 O597 2.346 . S
Ho577 O601 2.305 . S
Ho577 O602 2.322 . S
Ho577 O604 2.378 . S
Ho577 O605 2.524 . S
Ho577 O606 2.381 1_556 S
Ho577 O607 2.669 1_556 S
C578 O596 1.259 . S
C578 O597 1.268 1_554 S
C579 Ho576 2.811 . S
C579 C580 1.488 . S
C579 O598 1.215 . S
C579 O599 1.289 . S
C580 C579 1.488 . S
C580 C581 1.348 . S
C580 C585 1.413 1_545 S
C581 C580 1.348 . S
C581 C582 1.442 . S
C581 H608 0.930 . S
C582 C581 1.442 . S
C582 C583 1.381 1_545 S
C582 H609 0.931 . S
C583 C582 1.381 1_565 S
C583 C584 1.321 . S
C584 C583 1.321 . S
C584 C585 1.403 . S
C584 H610 0.934 . S
C585 C580 1.413 1_565 S
C585 C584 1.403 . S
C585 H611 0.930 . S
C586 O600 1.275 1_556 S
C586 O601 1.256 1_565 S
C587 O602 1.259 1_554 S
C587 O603 1.268 . S
C588 Ho577 2.811 . S
C588 C589 1.488 . S
C588 O604 1.215 . S
C588 O605 1.289 . S
C589 C588 1.488 . S
C589 C590 1.348 . S
C589 C594 1.413 . S
C590 C589 1.348 . S
C590 C591 1.442 . S
C590 H612 0.930 . S
C591 C590 1.442 . S
C591 C592 1.381 . S
C591 H613 0.931 . S
C592 C591 1.381 . S
C592 C593 1.321 . S
C593 C592 1.321 . S
C593 C594 1.403 . S
C593 H614 0.934 . S
C594 C589 1.413 . S
C594 C593 1.403 . S
C594 H615 0.930 . S
C595 O606 1.275 . S
C595 O607 1.256 . S
O596 Ho576 2.322 . S
O596 C578 1.259 . S
O597 Ho577 2.346 . S
O597 C578 1.268 1_556 S
O598 Ho576 2.378 . S
O598 C579 1.215 . S
O599 Ho576 2.524 . S
O599 C579 1.289 . S
O600 Ho576 2.381 1_565 S
O600 C586 1.275 1_554 S
O601 Ho576 2.669 1_556 S
O601 Ho577 2.305 . S
O601 C586 1.256 1_545 S
O602 Ho577 2.322 . S
O602 C587 1.259 1_556 S
O603 Ho576 2.346 . S
O603 C587 1.268 . S
O604 Ho577 2.378 . S
O604 C588 1.215 . S
O605 Ho577 2.524 . S
O605 C588 1.289 . S
O606 Ho577 2.381 1_554 S
O606 C595 1.275 . S
O607 Ho576 2.305 . S
O607 Ho577 2.669 1_554 S
O607 C595 1.256 . S
H608 C581 0.930 . S
H609 C582 0.931 . S
H610 C584 0.934 . S
H611 C585 0.930 . S
H612 C590 0.930 . S
H613 C591 0.931 . S
H614 C593 0.934 . S
H615 C594 0.930 . S
Ho616 C619 2.811 . S
Ho616 O636 2.322 . S
Ho616 O638 2.378 . S
Ho616 O639 2.524 . S
Ho616 O640 2.381 . S
Ho616 O641 2.669 . S
Ho616 O643 2.346 . S
Ho616 O647 2.305 . S
Ho617 C628 2.811 . S
Ho617 O637 2.346 . S
Ho617 O641 2.305 . S
Ho617 O642 2.322 . S
Ho617 O644 2.378 . S
Ho617 O645 2.524 . S
Ho617 O646 2.381 . S
Ho617 O647 2.669 . S
C618 O636 1.259 . S
C618 O637 1.268 . S
C619 Ho616 2.811 . S
C619 C620 1.488 . S
C619 O638 1.215 . S
C619 O639 1.289 . S
C620 C619 1.488 . S
C620 C621 1.348 . S
C620 C625 1.413 . S
C621 C620 1.348 . S
C621 C622 1.442 . S
C621 H648 0.930 . S
C622 C621 1.442 . S
C622 C623 1.381 . S
C622 H649 0.931 . S
C623 C622 1.381 . S
C623 C624 1.321 . S
C624 C623 1.321 . S
C624 C625 1.403 . S
C624 H650 0.934 . S
C625 C620 1.413 . S
C625 C624 1.403 . S
C625 H651 0.930 . S
C626 O640 1.275 . S
C626 O641 1.256 . S
C627 O642 1.259 . S
C627 O643 1.268 . S
C628 Ho617 2.811 . S
C628 C629 1.488 . S
C628 O644 1.215 . S
C628 O645 1.289 . S
C629 C628 1.488 . S
C629 C630 1.348 . S
C629 C634 1.413 . S
C630 C629 1.348 . S
C630 C631 1.442 . S
C630 H652 0.930 . S
C631 C630 1.442 . S
C631 C632 1.381 . S
C631 H653 0.931 . S
C632 C631 1.381 . S
C632 C633 1.321 . S
C633 C632 1.321 . S
C633 C634 1.403 . S
C633 H654 0.934 . S
C634 C629 1.413 . S
C634 C633 1.403 . S
C634 H655 0.930 . S
C635 O646 1.275 . S
C635 O647 1.256 . S
O636 Ho616 2.322 . S
O636 C618 1.259 . S
O637 Ho617 2.346 . S
O637 C618 1.268 . S
O638 Ho616 2.378 . S
O638 C619 1.215 . S
O639 Ho616 2.524 . S
O639 C619 1.289 . S
O640 Ho616 2.381 . S
O640 C626 1.275 . S
O641 Ho616 2.669 . S
O641 Ho617 2.305 . S
O641 C626 1.256 . S
O642 Ho617 2.322 . S
O642 C627 1.259 . S
O643 Ho616 2.346 . S
O643 C627 1.268 . S
O644 Ho617 2.378 . S
O644 C628 1.215 . S
O645 Ho617 2.524 . S
O645 C628 1.289 . S
O646 Ho617 2.381 . S
O646 C635 1.275 . S
O647 Ho616 2.305 . S
O647 Ho617 2.669 . S
O647 C635 1.256 . S
H648 C621 0.930 . S
H649 C622 0.931 . S
H650 C624 0.934 . S
H651 C625 0.930 . S
H652 C630 0.930 . S
H653 C631 0.931 . S
H654 C633 0.934 . S
H655 C634 0.930 . S
Ho656 C659 2.793 1_554 S
Ho656 O676 2.322 1_554 S
Ho656 O678 2.378 . S
Ho656 O679 2.524 1_554 S
Ho656 O680 2.381 . S
Ho656 O681 2.669 . S
Ho656 O683 2.346 . S
Ho656 O687 2.305 . S
Ho657 C668 2.800 1_556 S
Ho657 O677 2.361 . S
Ho657 O681 2.298 1_556 S
Ho657 O682 2.306 1_556 S
Ho657 O684 2.372 1_556 S
Ho657 O685 2.511 1_556 S
Ho657 O686 2.385 . S
Ho657 O687 2.671 1_556 S
C658 O676 1.259 . S
C658 O677 1.268 . S
C659 Ho656 2.793 1_556 S
C659 C660 1.507 . S
C659 O678 1.194 1_556 S
C659 O679 1.294 . S
C660 C659 1.507 . S
C660 C661 1.348 . S
C660 C665 1.413 . S
C661 C660 1.348 . S
C661 C662 1.442 . S
C661 H688 0.930 . S
C662 C661 1.442 . S
C662 C663 1.381 . S
C662 H689 0.931 . S
C663 C662 1.381 . S
C663 C664 1.321 . S
C664 C663 1.321 . S
C664 C665 1.403 . S
C664 H690 0.934 . S
C665 C660 1.413 . S
C665 C664 1.403 . S
C665 H691 0.930 . S
C666 O680 1.275 . S
C666 O681 1.256 . S
C667 O682 1.259 . S
C667 O683 1.268 . S
C668 Ho657 2.800 1_554 S
C668 C669 1.488 . S
C668 O684 1.215 . S
C668 O685 1.289 . S
C669 C668 1.488 . S
C669 C670 1.348 . S
C669 C674 1.413 . S
C670 C669 1.348 . S
C670 C671 1.442 . S
C670 H692 0.930 . S
C671 C670 1.442 . S
C671 C672 1.381 . S
C671 H693 0.931 . S
C672 C671 1.381 . S
C672 C673 1.321 . S
C673 C672 1.321 . S
C673 C674 1.403 . S
C673 H694 0.934 . S
C674 C669 1.413 . S
C674 C673 1.403 . S
C674 H695 0.930 . S
C675 O686 1.275 1_554 S
C675 O687 1.256 . S
O676 Ho656 2.322 1_556 S
O676 C658 1.259 . S
O677 Ho657 2.361 . S
O677 C658 1.268 . S
O678 Ho656 2.378 . S
O678 C659 1.194 1_554 S
O679 Ho656 2.524 1_556 S
O679 C659 1.294 . S
O680 Ho656 2.381 . S
O680 C666 1.275 . S
O681 Ho656 2.669 . S
O681 Ho657 2.298 1_554 S
O681 C666 1.256 . S
O682 Ho657 2.306 1_554 S
O682 C667 1.259 . S
O683 Ho656 2.346 . S
O683 C667 1.268 . S
O684 Ho657 2.372 1_554 S
O684 C668 1.215 . S
O685 Ho657 2.511 1_554 S
O685 C668 1.289 . S
O686 Ho657 2.385 . S
O686 C675 1.275 1_556 S
O687 Ho656 2.305 . S
O687 Ho657 2.671 1_554 S
O687 C675 1.256 . S
H688 C661 0.930 . S
H689 C662 0.931 . S
H690 C664 0.934 . S
H691 C665 0.930 . S
H692 C670 0.930 . S
H693 C671 0.931 . S
H694 C673 0.934 . S
H695 C674 0.930 . S
Ho696 C699 2.811 . S
Ho696 O716 2.322 . S
Ho696 O718 2.378 . S
Ho696 O719 2.524 . S
Ho696 O720 2.381 . S
Ho696 O721 2.669 . S
Ho696 O723 2.346 . S
Ho696 O727 2.305 . S
Ho697 C708 2.811 . S
Ho697 O717 2.346 . S
Ho697 O721 2.305 . S
Ho697 O722 2.322 . S
Ho697 O724 2.378 . S
Ho697 O725 2.524 . S
Ho697 O726 2.381 . S
Ho697 O727 2.669 . S
C698 O716 1.259 . S
C698 O717 1.268 . S
C699 Ho696 2.811 . S
C699 C700 1.488 . S
C699 O718 1.215 . S
C699 O719 1.289 . S
C700 C699 1.488 . S
C700 C701 1.348 . S
C700 C705 1.413 . S
C701 C700 1.348 . S
C701 C702 1.442 . S
C701 H728 0.930 . S
C702 C701 1.442 . S
C702 C703 1.381 . S
C702 H729 0.931 . S
C703 C702 1.381 . S
C703 C704 1.321 . S
C704 C703 1.321 . S
C704 C705 1.403 . S
C704 H730 0.934 . S
C705 C700 1.413 . S
C705 C704 1.403 . S
C705 H731 0.930 . S
C706 O720 1.275 . S
C706 O721 1.256 . S
C707 O722 1.259 . S
C707 O723 1.268 . S
C708 Ho697 2.811 . S
C708 C709 1.488 . S
C708 O724 1.215 . S
C708 O725 1.289 . S
C709 C708 1.488 . S
C709 C710 1.348 . S
C709 C714 1.413 . S
C710 C709 1.348 . S
C710 C711 1.442 . S
C710 H732 0.930 . S
C711 C710 1.442 . S
C711 C712 1.381 . S
C711 H733 0.931 . S
C712 C711 1.381 . S
C712 C713 1.321 . S
C713 C712 1.321 . S
C713 C714 1.403 . S
C713 H734 0.934 . S
C714 C709 1.413 . S
C714 C713 1.403 . S
C714 H735 0.930 . S
C715 O726 1.275 . S
C715 O727 1.256 . S
O716 Ho696 2.322 . S
O716 C698 1.259 . S
O717 Ho697 2.346 . S
O717 C698 1.268 . S
O718 Ho696 2.378 . S
O718 C699 1.215 . S
O719 Ho696 2.524 . S
O719 C699 1.289 . S
O720 Ho696 2.381 . S
O720 C706 1.275 . S
O721 Ho696 2.669 . S
O721 Ho697 2.305 . S
O721 C706 1.256 . S
O722 Ho697 2.322 . S
O722 C707 1.259 . S
O723 Ho696 2.346 . S
O723 C707 1.268 . S
O724 Ho697 2.378 . S
O724 C708 1.215 . S
O725 Ho697 2.524 . S
O725 C708 1.289 . S
O726 Ho697 2.381 . S
O726 C715 1.275 . S
O727 Ho696 2.305 . S
O727 Ho697 2.669 . S
O727 C715 1.256 . S
H728 C701 0.930 . S
H729 C702 0.931 . S
H730 C704 0.934 . S
H731 C705 0.930 . S
H732 C710 0.930 . S
H733 C711 0.931 . S
H734 C713 0.934 . S
H735 C714 0.930 . S
Ho736 C739 2.811 . S
Ho736 O756 2.322 . S
Ho736 O758 2.378 . S
Ho736 O759 2.524 . S
Ho736 O760 2.381 . S
Ho736 O761 2.669 . S
Ho736 O763 2.346 . S
Ho736 O767 2.305 . S
Ho737 C748 2.811 . S
Ho737 O757 2.346 . S
Ho737 O761 2.305 . S
Ho737 O762 2.322 . S
Ho737 O764 2.378 . S
Ho737 O765 2.524 . S
Ho737 O766 2.381 . S
Ho737 O767 2.669 . S
C738 O756 1.259 . S
C738 O757 1.268 . S
C739 Ho736 2.811 . S
C739 C740 1.488 . S
C739 O758 1.215 . S
C739 O759 1.289 . S
C740 C739 1.488 . S
C740 C741 1.348 1_455 S
C740 C745 1.413 . S
C741 C740 1.348 1_655 S
C741 C742 1.442 . S
C741 H768 0.930 . S
C742 C741 1.442 . S
C742 C743 1.381 . S
C742 H769 0.931 . S
C743 C742 1.381 . S
C743 C744 1.321 1_655 S
C744 C743 1.321 1_455 S
C744 C745 1.403 . S
C744 H770 0.934 . S
C745 C740 1.413 . S
C745 C744 1.403 . S
C745 H771 0.930 . S
C746 O760 1.275 . S
C746 O761 1.256 . S
C747 O762 1.259 . S
C747 O763 1.268 . S
C748 Ho737 2.811 . S
C748 C749 1.488 . S
C748 O764 1.215 . S
C748 O765 1.289 . S
C749 C748 1.488 . S
C749 C750 1.348 . S
C749 C754 1.413 . S
C750 C749 1.348 . S
C750 C751 1.442 . S
C750 H772 0.930 . S
C751 C750 1.442 . S
C751 C752 1.381 . S
C751 H773 0.931 . S
C752 C751 1.381 . S
C752 C753 1.321 . S
C753 C752 1.321 . S
C753 C754 1.403 . S
C753 H774 0.934 . S
C754 C749 1.413 . S
C754 C753 1.403 . S
C754 H775 0.930 . S
C755 O766 1.275 . S
C755 O767 1.256 . S
O756 Ho736 2.322 . S
O756 C738 1.259 . S
O757 Ho737 2.346 . S
O757 C738 1.268 . S
O758 Ho736 2.378 . S
O758 C739 1.215 . S
O759 Ho736 2.524 . S
O759 C739 1.289 . S
O760 Ho736 2.381 . S
O760 C746 1.275 . S
O761 Ho736 2.669 . S
O761 Ho737 2.305 . S
O761 C746 1.256 . S
O762 Ho737 2.322 . S
O762 C747 1.259 . S
O763 Ho736 2.346 . S
O763 C747 1.268 . S
O764 Ho737 2.378 . S
O764 C748 1.215 . S
O765 Ho737 2.524 . S
O765 C748 1.289 . S
O766 Ho737 2.381 . S
O766 C755 1.275 . S
O767 Ho736 2.305 . S
O767 Ho737 2.669 . S
O767 C755 1.256 . S
H768 C741 0.930 . S
H769 C742 0.931 . S
H770 C744 0.934 . S
H771 C745 0.930 . S
H772 C750 0.930 . S
H773 C751 0.931 . S
H774 C753 0.934 . S
H775 C754 0.930 . S
Ho776 C779 2.811 . S
Ho776 O796 2.322 . S
Ho776 O798 2.378 . S
Ho776 O799 2.524 . S
Ho776 O800 2.381 . S
Ho776 O801 2.669 . S
Ho776 O803 2.346 . S
Ho776 O807 2.305 . S
Ho777 C788 2.811 . S
Ho777 O797 2.346 . S
Ho777 O801 2.305 . S
Ho777 O802 2.322 . S
Ho777 O804 2.378 . S
Ho777 O805 2.524 . S
Ho777 O806 2.381 . S
Ho777 O807 2.669 . S
C778 O796 1.259 . S
C778 O797 1.268 . S
C779 Ho776 2.811 . S
C779 C780 1.488 . S
C779 O798 1.215 . S
C779 O799 1.289 . S
C780 C779 1.488 . S
C780 C781 1.348 . S
C780 C785 1.413 . S
C781 C780 1.348 . S
C781 C782 1.442 . S
C781 H808 0.930 . S
C782 C781 1.442 . S
C782 C783 1.381 . S
C782 H809 0.931 . S
C783 C782 1.381 . S
C783 C784 1.321 . S
C784 C783 1.321 . S
C784 C785 1.403 . S
C784 H810 0.934 . S
C785 C780 1.413 . S
C785 C784 1.403 . S
C785 H811 0.930 . S
C786 O800 1.275 . S
C786 O801 1.256 . S
C787 O802 1.259 . S
C787 O803 1.268 . S
C788 Ho777 2.811 . S
C788 C789 1.488 . S
C788 O804 1.215 . S
C788 O805 1.289 . S
C789 C788 1.488 . S
C789 C790 1.348 . S
C789 C794 1.413 . S
C790 C789 1.348 . S
C790 C791 1.442 . S
C790 H812 0.930 . S
C791 C790 1.442 . S
C791 C792 1.381 . S
C791 H813 0.931 . S
C792 C791 1.381 . S
C792 C793 1.321 . S
C793 C792 1.321 . S
C793 C794 1.403 . S
C793 H814 0.934 . S
C794 C789 1.413 . S
C794 C793 1.403 . S
C794 H815 0.930 . S
C795 O806 1.275 . S
C795 O807 1.256 . S
O796 Ho776 2.322 . S
O796 C778 1.259 . S
O797 Ho777 2.346 . S
O797 C778 1.268 . S
O798 Ho776 2.378 . S
O798 C779 1.215 . S
O799 Ho776 2.524 . S
O799 C779 1.289 . S
O800 Ho776 2.381 . S
O800 C786 1.275 . S
O801 Ho776 2.669 . S
O801 Ho777 2.305 . S
O801 C786 1.256 . S
O802 Ho777 2.322 . S
O802 C787 1.259 . S
O803 Ho776 2.346 . S
O803 C787 1.268 . S
O804 Ho777 2.378 . S
O804 C788 1.215 . S
O805 Ho777 2.524 . S
O805 C788 1.289 . S
O806 Ho777 2.381 . S
O806 C795 1.275 . S
O807 Ho776 2.305 . S
O807 Ho777 2.669 . S
O807 C795 1.256 . S
H808 C781 0.930 . S
H809 C782 0.931 . S
H810 C784 0.934 . S
H811 C785 0.930 . S
H812 C790 0.930 . S
H813 C791 0.931 . S
H814 C793 0.934 . S
H815 C794 0.930 . S
Ho816 C819 2.811 . S
Ho816 O836 2.322 . S
Ho816 O838 2.378 . S
Ho816 O839 2.524 . S
Ho816 O840 2.381 . S
Ho816 O841 2.669 . S
Ho816 O843 2.346 . S
Ho816 O847 2.305 . S
Ho817 C828 2.811 . S
Ho817 O837 2.346 . S
Ho817 O841 2.305 . S
Ho817 O842 2.322 . S
Ho817 O844 2.378 . S
Ho817 O845 2.524 . S
Ho817 O846 2.381 . S
Ho817 O847 2.669 . S
C818 O836 1.259 . S
C818 O837 1.268 . S
C819 Ho816 2.811 . S
C819 C820 1.488 . S
C819 O838 1.215 . S
C819 O839 1.289 . S
C820 C819 1.488 . S
C820 C821 1.348 . S
C820 C825 1.413 . S
C821 C820 1.348 . S
C821 C822 1.442 . S
C821 H848 0.930 . S
C822 C821 1.442 . S
C822 C823 1.381 . S
C822 H849 0.931 . S
C823 C822 1.381 . S
C823 C824 1.321 . S
C824 C823 1.321 . S
C824 C825 1.403 . S
C824 H850 0.934 . S
C825 C820 1.413 . S
C825 C824 1.403 . S
C825 H851 0.930 . S
C826 O840 1.275 . S
C826 O841 1.256 . S
C827 O842 1.259 . S
C827 O843 1.268 . S
C828 Ho817 2.811 . S
C828 C829 1.488 . S
C828 O844 1.215 . S
C828 O845 1.289 . S
C829 C828 1.488 . S
C829 C830 1.348 . S
C829 C834 1.413 . S
C830 C829 1.348 . S
C830 C831 1.442 . S
C830 H852 0.930 . S
C831 C830 1.442 . S
C831 C832 1.381 . S
C831 H853 0.931 . S
C832 C831 1.381 . S
C832 C833 1.321 . S
C833 C832 1.321 . S
C833 C834 1.403 . S
C833 H854 0.934 . S
C834 C829 1.413 . S
C834 C833 1.403 . S
C834 H855 0.930 . S
C835 O846 1.275 . S
C835 O847 1.256 . S
O836 Ho816 2.322 . S
O836 C818 1.259 . S
O837 Ho817 2.346 . S
O837 C818 1.268 . S
O838 Ho816 2.378 . S
O838 C819 1.215 . S
O839 Ho816 2.524 . S
O839 C819 1.289 . S
O840 Ho816 2.381 . S
O840 C826 1.275 . S
O841 Ho816 2.669 . S
O841 Ho817 2.305 . S
O841 C826 1.256 . S
O842 Ho817 2.322 . S
O842 C827 1.259 . S
O843 Ho816 2.346 . S
O843 C827 1.268 . S
O844 Ho817 2.378 . S
O844 C828 1.215 . S
O845 Ho817 2.524 . S
O845 C828 1.289 . S
O846 Ho817 2.381 . S
O846 C835 1.275 . S
O847 Ho816 2.305 . S
O847 Ho817 2.669 . S
O847 C835 1.256 . S
H848 C821 0.930 . S
H849 C822 0.931 . S
H850 C824 0.934 . S
H851 C825 0.930 . S
H852 C830 0.930 . S
H853 C831 0.931 . S
H854 C833 0.934 . S
H855 C834 0.930 . S
Ho856 C859 2.811 . S
Ho856 O876 2.322 . S
Ho856 O878 2.378 . S
Ho856 O879 2.524 . S
Ho856 O880 2.381 . S
Ho856 O881 2.669 . S
Ho856 O883 2.346 . S
Ho856 O887 2.305 . S
Ho857 C868 2.811 . S
Ho857 O877 2.346 . S
Ho857 O881 2.305 . S
Ho857 O882 2.322 . S
Ho857 O884 2.378 . S
Ho857 O885 2.524 . S
Ho857 O886 2.381 . S
Ho857 O887 2.669 . S
C858 O876 1.259 . S
C858 O877 1.268 . S
C859 Ho856 2.811 . S
C859 C860 1.488 . S
C859 O878 1.215 . S
C859 O879 1.289 . S
C860 C859 1.488 . S
C860 C861 1.348 . S
C860 C865 1.413 . S
C861 C860 1.348 . S
C861 C862 1.442 . S
C861 H888 0.930 . S
C862 C861 1.442 . S
C862 C863 1.381 . S
C862 H889 0.931 . S
C863 C862 1.381 . S
C863 C864 1.321 . S
C864 C863 1.321 . S
C864 C865 1.403 . S
C864 H890 0.934 . S
C865 C860 1.413 . S
C865 C864 1.403 . S
C865 H891 0.930 . S
C866 O880 1.275 . S
C866 O881 1.256 . S
C867 O882 1.259 . S
C867 O883 1.268 . S
C868 Ho857 2.811 . S
C868 C869 1.488 . S
C868 O884 1.215 . S
C868 O885 1.289 . S
C869 C868 1.488 . S
C869 C870 1.348 . S
C869 C874 1.413 . S
C870 C869 1.348 . S
C870 C871 1.442 . S
C870 H892 0.930 . S
C871 C870 1.442 . S
C871 C872 1.381 . S
C871 H893 0.931 . S
C872 C871 1.381 . S
C872 C873 1.321 . S
C873 C872 1.321 . S
C873 C874 1.403 . S
C873 H894 0.934 . S
C874 C869 1.413 . S
C874 C873 1.403 . S
C874 H895 0.930 . S
C875 O886 1.275 . S
C875 O887 1.256 . S
O876 Ho856 2.322 . S
O876 C858 1.259 . S
O877 Ho857 2.346 . S
O877 C858 1.268 . S
O878 Ho856 2.378 . S
O878 C859 1.215 . S
O879 Ho856 2.524 . S
O879 C859 1.289 . S
O880 Ho856 2.381 . S
O880 C866 1.275 . S
O881 Ho856 2.669 . S
O881 Ho857 2.305 . S
O881 C866 1.256 . S
O882 Ho857 2.322 . S
O882 C867 1.259 . S
O883 Ho856 2.346 . S
O883 C867 1.268 . S
O884 Ho857 2.378 . S
O884 C868 1.215 . S
O885 Ho857 2.524 . S
O885 C868 1.289 . S
O886 Ho857 2.381 . S
O886 C875 1.275 . S
O887 Ho856 2.305 . S
O887 Ho857 2.669 . S
O887 C875 1.256 . S
H888 C861 0.930 . S
H889 C862 0.931 . S
H890 C864 0.934 . S
H891 C865 0.930 . S
H892 C870 0.930 . S
H893 C871 0.931 . S
H894 C873 0.934 . S
H895 C874 0.930 . S
Ho896 C899 2.811 . S
Ho896 O916 2.322 . S
Ho896 O918 2.378 . S
Ho896 O919 2.524 . S
Ho896 O920 2.381 . S
Ho896 O921 2.669 . S
Ho896 O923 2.346 . S
Ho896 O927 2.305 . S
Ho897 C908 2.811 . S
Ho897 O917 2.346 . S
Ho897 O921 2.305 . S
Ho897 O922 2.322 . S
Ho897 O924 2.378 . S
Ho897 O925 2.524 . S
Ho897 O926 2.381 . S
Ho897 O927 2.669 . S
C898 O916 1.259 . S
C898 O917 1.268 . S
C899 Ho896 2.811 . S
C899 C900 1.488 . S
C899 O918 1.215 . S
C899 O919 1.289 . S
C900 C899 1.488 . S
C900 C901 1.348 . S
C900 C905 1.413 . S
C901 C900 1.348 . S
C901 C902 1.442 . S
C901 H928 0.930 . S
C902 C901 1.442 . S
C902 C903 1.381 . S
C902 H929 0.931 . S
C903 C902 1.381 . S
C903 C904 1.321 . S
C904 C903 1.321 . S
C904 C905 1.403 . S
C904 H930 0.934 . S
C905 C900 1.413 . S
C905 C904 1.403 . S
C905 H931 0.930 . S
C906 O920 1.275 . S
C906 O921 1.256 . S
C907 O922 1.259 . S
C907 O923 1.268 . S
C908 Ho897 2.811 . S
C908 C909 1.488 . S
C908 O924 1.215 . S
C908 O925 1.289 . S
C909 C908 1.488 . S
C909 C910 1.348 . S
C909 C914 1.413 . S
C910 C909 1.348 . S
C910 C911 1.442 . S
C910 H932 0.930 . S
C911 C910 1.442 . S
C911 C912 1.381 . S
C911 H933 0.931 . S
C912 C911 1.381 . S
C912 C913 1.321 . S
C913 C912 1.321 . S
C913 C914 1.403 . S
C913 H934 0.934 . S
C914 C909 1.413 . S
C914 C913 1.403 . S
C914 H935 0.930 . S
C915 O926 1.275 . S
C915 O927 1.256 . S
O916 Ho896 2.322 . S
O916 C898 1.259 . S
O917 Ho897 2.346 . S
O917 C898 1.268 . S
O918 Ho896 2.378 . S
O918 C899 1.215 . S
O919 Ho896 2.524 . S
O919 C899 1.289 . S
O920 Ho896 2.381 . S
O920 C906 1.275 . S
O921 Ho896 2.669 . S
O921 Ho897 2.305 . S
O921 C906 1.256 . S
O922 Ho897 2.322 . S
O922 C907 1.259 . S
O923 Ho896 2.346 . S
O923 C907 1.268 . S
O924 Ho897 2.378 . S
O924 C908 1.215 . S
O925 Ho897 2.524 . S
O925 C908 1.289 . S
O926 Ho897 2.381 . S
O926 C915 1.275 . S
O927 Ho896 2.305 . S
O927 Ho897 2.669 . S
O927 C915 1.256 . S
H928 C901 0.930 . S
H929 C902 0.931 . S
H930 C904 0.934 . S
H931 C905 0.930 . S
H932 C910 0.930 . S
H933 C911 0.931 . S
H934 C913 0.934 . S
H935 C914 0.930 . S
Ho936 C939 2.811 1_554 S
Ho936 O956 2.322 1_554 S
Ho936 O958 2.378 1_554 S
Ho936 O959 2.524 . S
Ho936 O960 2.381 1_554 S
Ho936 O961 2.669 1_554 S
Ho936 O963 2.346 . S
Ho936 O967 2.305 . S
Ho937 C948 2.811 1_455 S
Ho937 O957 2.346 . S
Ho937 O961 2.305 1_554 S
Ho937 O962 2.322 . S
Ho937 O964 2.378 1_455 S
Ho937 O965 2.524 1_455 S
Ho937 O966 2.381 . S
Ho937 O967 2.669 . S
C938 O956 1.259 1_554 S
C938 O957 1.268 . S
C939 Ho936 2.811 1_556 S
C939 C940 1.488 . S
C939 O958 1.215 . S
C939 O959 1.289 1_556 S
C940 C939 1.488 . S
C940 C941 1.348 1_556 S
C940 C945 1.413 . S
C941 C940 1.348 1_554 S
C941 C942 1.442 . S
C941 H968 0.930 . S
C942 C941 1.442 . S
C942 C943 1.381 1_554 S
C942 H969 0.931 . S
C943 C942 1.381 1_556 S
C943 C944 1.321 . S
C944 C943 1.321 . S
C944 C945 1.403 . S
C944 H970 0.934 . S
C945 C940 1.413 . S
C945 C944 1.403 . S
C945 H971 0.930 . S
C946 O960 1.275 . S
C946 O961 1.256 . S
C947 O962 1.259 . S
C947 O963 1.268 . S
C948 Ho937 2.811 1_655 S
C948 C949 1.488 . S
C948 O964 1.215 . S
C948 O965 1.289 . S
C949 C948 1.488 . S
C949 C950 1.348 . S
C949 C954 1.413 . S
C950 C949 1.348 . S
C950 C951 1.442 . S
C950 H972 0.930 . S
C951 C950 1.442 . S
C951 C952 1.381 . S
C951 H973 0.931 . S
C952 C951 1.381 . S
C952 C953 1.321 . S
C953 C952 1.321 . S
C953 C954 1.403 . S
C953 H974 0.934 . S
C954 C949 1.413 . S
C954 C953 1.403 . S
C954 H975 0.930 . S
C955 O966 1.275 . S
C955 O967 1.256 . S
O956 Ho936 2.322 1_556 S
O956 C938 1.259 1_556 S
O957 Ho937 2.346 . S
O957 C938 1.268 . S
O958 Ho936 2.378 1_556 S
O958 C939 1.215 . S
O959 Ho936 2.524 . S
O959 C939 1.289 1_554 S
O960 Ho936 2.381 1_556 S
O960 C946 1.275 . S
O961 Ho936 2.669 1_556 S
O961 Ho937 2.305 1_556 S
O961 C946 1.256 . S
O962 Ho937 2.322 . S
O962 C947 1.259 . S
O963 Ho936 2.346 . S
O963 C947 1.268 . S
O964 Ho937 2.378 1_655 S
O964 C948 1.215 . S
O965 Ho937 2.524 1_655 S
O965 C948 1.289 . S
O966 Ho937 2.381 . S
O966 C955 1.275 . S
O967 Ho936 2.305 . S
O967 Ho937 2.669 . S
O967 C955 1.256 . S
H968 C941 0.930 . S
H969 C942 0.931 . S
H970 C944 0.934 . S
H971 C945 0.930 . S
H972 C950 0.930 . S
H973 C951 0.931 . S
H974 C953 0.934 . S
H975 C954 0.930 . S
H976 C984 0.950 1_655 S
H977 C989 0.950 . S
H978 C986 0.950 1_655 S
H979 C988 0.950 . S
H980 C990 0.950 . S
H981 C992 0.950 . S
H982 C994 0.912 1_655 S
H983 C995 0.950 . S
C984 H976 0.950 1_455 S
C984 C985 1.386 . S
C984 C986 1.391 . S
C985 C984 1.386 . S
C985 C989 1.393 . S
C986 H978 0.950 1_455 S
C986 C984 1.391 . S
C986 C987 1.400 . S
C987 C986 1.400 . S
C987 C988 1.398 . S
C987 C993 1.491 . S
C988 H979 0.950 . S
C988 C987 1.398 . S
C988 C989 1.391 . S
C989 H977 0.950 . S
C989 C985 1.393 . S
C989 C988 1.391 . S
C990 H980 0.950 . S
C990 C991 1.386 1_554 S
C990 C992 1.391 1_554 S
C991 C990 1.386 1_556 S
C991 C995 1.393 . S
C992 H981 0.950 . S
C992 C990 1.391 1_556 S
C992 C993 1.400 . S
C993 C987 1.491 . S
C993 C992 1.400 . S
C993 C994 1.398 . S
C994 H982 0.912 1_455 S
C994 C993 1.398 . S
C994 C995 1.391 . S
C995 H983 0.950 . S
C995 C991 1.393 . S
C995 C994 1.391 . S
H996 C1004 0.950 . S
H997 C1009 0.950 . S
H998 C1006 0.950 . S
H999 C1008 0.950 . S
H1000 C1010 0.950 . S
H1001 C1012 0.950 . S
H1002 C1014 0.950 . S
H1003 C1015 0.950 . S
C1004 H996 0.950 . S
C1004 C1005 1.386 . S
C1004 C1006 1.391 . S
C1005 C1004 1.386 . S
C1005 C1009 1.393 . S
C1006 H998 0.950 . S
C1006 C1004 1.391 . S
C1006 C1007 1.400 . S
C1007 C1006 1.400 . S
C1007 C1008 1.398 . S
C1007 C1013 1.491 . S
C1008 H999 0.950 . S
C1008 C1007 1.398 . S
C1008 C1009 1.391 . S
C1009 H997 0.950 . S
C1009 C1005 1.393 . S
C1009 C1008 1.391 . S
C1010 H1000 0.950 . S
C1010 C1011 1.386 . S
C1010 C1012 1.391 . S
C1011 C1010 1.386 . S
C1011 C1015 1.393 . S
C1012 H1001 0.950 . S
C1012 C1010 1.391 . S
C1012 C1013 1.400 . S
C1013 C1007 1.491 . S
C1013 C1012 1.400 . S
C1013 C1014 1.398 . S
C1014 H1002 0.950 . S
C1014 C1013 1.398 . S
C1014 C1015 1.391 . S
C1015 H1003 0.950 . S
C1015 C1011 1.393 . S
C1015 C1014 1.391 . S
H1016 C1024 0.950 . S
H1017 C1029 0.950 . S
H1018 C1026 0.950 . S
H1019 C1028 0.950 . S
H1020 C1030 0.950 . S
H1021 C1032 0.950 . S
H1022 C1034 0.950 . S
H1023 C1035 0.950 . S
C1024 H1016 0.950 . S
C1024 C1025 1.386 . S
C1024 C1026 1.391 . S
C1025 C1024 1.386 . S
C1025 C1029 1.393 . S
C1026 H1018 0.950 . S
C1026 C1024 1.391 . S
C1026 C1027 1.400 . S
C1027 C1026 1.400 . S
C1027 C1028 1.398 . S
C1027 C1033 1.491 . S
C1028 H1019 0.950 . S
C1028 C1027 1.398 . S
C1028 C1029 1.391 . S
C1029 H1017 0.950 . S
C1029 C1025 1.393 . S
C1029 C1028 1.391 . S
C1030 H1020 0.950 . S
C1030 C1031 1.386 . S
C1030 C1032 1.391 . S
C1031 C1030 1.386 . S
C1031 C1035 1.393 . S
C1032 H1021 0.950 . S
C1032 C1030 1.391 . S
C1032 C1033 1.400 . S
C1033 C1027 1.491 . S
C1033 C1032 1.400 . S
C1033 C1034 1.398 . S
C1034 H1022 0.950 . S
C1034 C1033 1.398 . S
C1034 C1035 1.391 . S
C1035 H1023 0.950 . S
C1035 C1031 1.393 . S
C1035 C1034 1.391 . S
H1036 C1044 0.950 . S
H1037 C1049 0.950 . S
H1038 C1046 0.950 . S
H1039 C1048 0.950 . S
H1040 C1050 0.950 . S
H1041 C1052 0.950 . S
H1042 C1054 0.950 . S
H1043 C1055 0.950 . S
C1044 H1036 0.950 . S
C1044 C1045 1.386 . S
C1044 C1046 1.391 . S
C1045 C1044 1.386 . S
C1045 C1049 1.393 . S
C1046 H1038 0.950 . S
C1046 C1044 1.391 . S
C1046 C1047 1.400 . S
C1047 C1046 1.400 . S
C1047 C1048 1.398 . S
C1047 C1053 1.491 . S
C1048 H1039 0.950 . S
C1048 C1047 1.398 . S
C1048 C1049 1.391 . S
C1049 H1037 0.950 . S
C1049 C1045 1.393 . S
C1049 C1048 1.391 . S
C1050 H1040 0.950 . S
C1050 C1051 1.386 . S
C1050 C1052 1.391 . S
C1051 C1050 1.386 . S
C1051 C1055 1.393 . S
C1052 H1041 0.950 . S
C1052 C1050 1.391 . S
C1052 C1053 1.400 . S
C1053 C1047 1.491 . S
C1053 C1052 1.400 . S
C1053 C1054 1.398 . S
C1054 H1042 0.950 . S
C1054 C1053 1.398 . S
C1054 C1055 1.391 . S
C1055 H1043 0.950 . S
C1055 C1051 1.393 . S
C1055 C1054 1.391 . S
H1056 C1064 0.950 . S
H1057 C1069 0.950 1_655 S
H1058 C1066 0.950 . S
H1059 C1068 0.950 . S
H1060 C1070 0.950 . S
H1061 C1072 0.950 . S
H1062 C1074 0.950 . S
H1063 C1075 0.950 . S
C1064 H1056 0.950 . S
C1064 C1065 1.386 . S
C1064 C1066 1.391 . S
C1065 C1064 1.386 . S
C1065 C1069 1.393 . S
C1066 H1058 0.950 . S
C1066 C1064 1.391 . S
C1066 C1067 1.400 . S
C1067 C1066 1.400 . S
C1067 C1068 1.398 . S
C1067 C1073 1.491 . S
C1068 H1059 0.950 . S
C1068 C1067 1.398 . S
C1068 C1069 1.391 . S
C1069 H1057 0.950 1_455 S
C1069 C1065 1.393 . S
C1069 C1068 1.391 . S
C1070 H1060 0.950 . S
C1070 C1071 1.386 . S
C1070 C1072 1.391 . S
C1071 C1070 1.386 . S
C1071 C1075 1.393 . S
C1072 H1061 0.950 . S
C1072 C1070 1.391 . S
C1072 C1073 1.400 . S
C1073 C1067 1.491 . S
C1073 C1072 1.400 . S
C1073 C1074 1.398 . S
C1074 H1062 0.950 . S
C1074 C1073 1.398 . S
C1074 C1075 1.391 . S
C1075 H1063 0.950 . S
C1075 C1071 1.393 . S
C1075 C1074 1.391 . S
H1076 C1084 0.950 . S
H1077 C1089 0.950 . S
H1078 C1086 0.950 . S
H1079 C1088 0.950 . S
H1080 C1090 0.950 . S
H1081 C1092 0.950 . S
H1082 C1094 0.950 . S
H1083 C1095 0.950 . S
C1084 H1076 0.950 . S
C1084 C1085 1.386 . S
C1084 C1086 1.391 . S
C1085 C1084 1.386 . S
C1085 C1089 1.393 . S
C1086 H1078 0.950 . S
C1086 C1084 1.391 . S
C1086 C1087 1.400 . S
C1087 C1086 1.400 . S
C1087 C1088 1.398 . S
C1087 C1093 1.491 . S
C1088 H1079 0.950 . S
C1088 C1087 1.398 . S
C1088 C1089 1.391 . S
C1089 H1077 0.950 . S
C1089 C1085 1.393 . S
C1089 C1088 1.391 . S
C1090 H1080 0.950 . S
C1090 C1091 1.386 . S
C1090 C1092 1.391 . S
C1091 C1090 1.386 . S
C1091 C1095 1.393 . S
C1092 H1081 0.950 . S
C1092 C1090 1.391 . S
C1092 C1093 1.400 . S
C1093 C1087 1.491 . S
C1093 C1092 1.400 . S
C1093 C1094 1.398 . S
C1094 H1082 0.950 . S
C1094 C1093 1.398 . S
C1094 C1095 1.391 . S
C1095 H1083 0.950 . S
C1095 C1091 1.393 . S
C1095 C1094 1.391 . S
H1096 C1104 0.950 . S
H1097 C1109 0.950 . S
H1098 C1106 0.950 . S
H1099 C1108 0.950 . S
H1100 C1110 0.950 . S
H1101 C1112 0.950 . S
H1102 C1114 0.950 . S
H1103 C1115 0.950 . S
C1104 H1096 0.950 . S
C1104 C1105 1.386 . S
C1104 C1106 1.391 . S
C1105 C1104 1.386 . S
C1105 C1109 1.393 . S
C1106 H1098 0.950 . S
C1106 C1104 1.391 . S
C1106 C1107 1.400 . S
C1107 C1106 1.400 . S
C1107 C1108 1.398 . S
C1107 C1113 1.491 . S
C1108 H1099 0.950 . S
C1108 C1107 1.398 . S
C1108 C1109 1.391 . S
C1109 H1097 0.950 . S
C1109 C1105 1.393 . S
C1109 C1108 1.391 . S
C1110 H1100 0.950 . S
C1110 C1111 1.386 . S
C1110 C1112 1.391 . S
C1111 C1110 1.386 . S
C1111 C1115 1.393 . S
C1112 H1101 0.950 . S
C1112 C1110 1.391 . S
C1112 C1113 1.400 . S
C1113 C1107 1.491 . S
C1113 C1112 1.400 . S
C1113 C1114 1.398 . S
C1114 H1102 0.950 . S
C1114 C1113 1.398 . S
C1114 C1115 1.391 . S
C1115 H1103 0.950 . S
C1115 C1111 1.393 . S
C1115 C1114 1.391 . S
H1116 C1124 0.950 . S
H1117 C1129 0.950 . S
H1118 C1126 0.950 . S
H1119 C1128 0.950 . S
H1120 C1130 0.950 . S
H1121 C1132 0.950 . S
H1122 C1134 0.950 . S
H1123 C1135 0.950 . S
C1124 H1116 0.950 . S
C1124 C1125 1.386 . S
C1124 C1126 1.391 . S
C1125 C1124 1.386 . S
C1125 C1129 1.393 . S
C1126 H1118 0.950 . S
C1126 C1124 1.391 . S
C1126 C1127 1.400 . S
C1127 C1126 1.400 . S
C1127 C1128 1.398 . S
C1127 C1133 1.491 . S
C1128 H1119 0.950 . S
C1128 C1127 1.398 . S
C1128 C1129 1.391 . S
C1129 H1117 0.950 . S
C1129 C1125 1.393 . S
C1129 C1128 1.391 . S
C1130 H1120 0.950 . S
C1130 C1131 1.386 . S
C1130 C1132 1.391 . S
C1131 C1130 1.386 . S
C1131 C1135 1.393 . S
C1132 H1121 0.950 . S
C1132 C1130 1.391 . S
C1132 C1133 1.400 . S
C1133 C1127 1.491 . S
C1133 C1132 1.400 . S
C1133 C1134 1.398 . S
C1134 H1122 0.950 . S
C1134 C1133 1.398 . S
C1134 C1135 1.391 . S
C1135 H1123 0.950 . S
C1135 C1131 1.393 . S
C1135 C1134 1.391 . S
H1136 C1144 0.950 . S
H1137 C1149 0.950 . S
H1138 C1146 0.950 . S
H1139 C1148 0.950 . S
H1140 C1150 0.950 . S
H1141 C1152 0.950 . S
H1142 C1154 0.950 . S
H1143 C1155 0.950 . S
C1144 H1136 0.950 . S
C1144 C1145 1.386 . S
C1144 C1146 1.391 . S
C1145 C1144 1.386 . S
C1145 C1149 1.393 . S
C1146 H1138 0.950 . S
C1146 C1144 1.391 . S
C1146 C1147 1.400 . S
C1147 C1146 1.400 . S
C1147 C1148 1.398 . S
C1147 C1153 1.491 1_655 S
C1148 H1139 0.950 . S
C1148 C1147 1.398 . S
C1148 C1149 1.391 . S
C1149 H1137 0.950 . S
C1149 C1145 1.393 . S
C1149 C1148 1.391 . S
C1150 H1140 0.950 . S
C1150 C1151 1.386 . S
C1150 C1152 1.391 . S
C1151 C1150 1.386 . S
C1151 C1155 1.393 . S
C1152 H1141 0.950 . S
C1152 C1150 1.391 . S
C1152 C1153 1.400 . S
C1153 C1147 1.491 1_455 S
C1153 C1152 1.400 . S
C1153 C1154 1.398 . S
C1154 H1142 0.950 . S
C1154 C1153 1.398 . S
C1154 C1155 1.391 . S
C1155 H1143 0.950 . S
C1155 C1151 1.393 . S
C1155 C1154 1.391 . S
H1156 C1164 0.950 . S
H1157 C1169 0.950 . S
H1158 C1166 0.950 . S
H1159 C1168 0.950 . S
H1160 C1170 0.950 . S
H1161 C1172 0.950 . S
H1162 C1174 0.950 . S
H1163 C1175 0.950 . S
C1164 H1156 0.950 . S
C1164 C1165 1.386 . S
C1164 C1166 1.391 . S
C1165 C1164 1.386 . S
C1165 C1169 1.393 . S
C1166 H1158 0.950 . S
C1166 C1164 1.391 . S
C1166 C1167 1.400 . S
C1167 C1166 1.400 . S
C1167 C1168 1.398 . S
C1167 C1173 1.491 . S
C1168 H1159 0.950 . S
C1168 C1167 1.398 . S
C1168 C1169 1.391 . S
C1169 H1157 0.950 . S
C1169 C1165 1.393 . S
C1169 C1168 1.391 . S
C1170 H1160 0.950 . S
C1170 C1171 1.386 . S
C1170 C1172 1.391 . S
C1171 C1170 1.386 . S
C1171 C1175 1.393 . S
C1172 H1161 0.950 . S
C1172 C1170 1.391 . S
C1172 C1173 1.400 . S
C1173 C1167 1.491 . S
C1173 C1172 1.400 . S
C1173 C1174 1.398 . S
C1174 H1162 0.950 . S
C1174 C1173 1.398 . S
C1174 C1175 1.391 . S
C1175 H1163 0.950 . S
C1175 C1171 1.393 . S
C1175 C1174 1.391 . S
H1176 C1184 0.950 . S
H1177 C1189 0.950 . S
H1178 C1186 0.950 . S
H1179 C1188 0.950 . S
H1180 C1190 0.950 . S
H1181 C1192 0.950 . S
H1182 C1194 0.950 . S
H1183 C1195 0.950 . S
C1184 H1176 0.950 . S
C1184 C1185 1.386 . S
C1184 C1186 1.391 . S
C1185 C1184 1.386 . S
C1185 C1189 1.393 . S
C1186 H1178 0.950 . S
C1186 C1184 1.391 . S
C1186 C1187 1.400 . S
C1187 C1186 1.400 . S
C1187 C1188 1.398 . S
C1187 C1193 1.491 . S
C1188 H1179 0.950 . S
C1188 C1187 1.398 . S
C1188 C1189 1.391 . S
C1189 H1177 0.950 . S
C1189 C1185 1.393 . S
C1189 C1188 1.391 . S
C1190 H1180 0.950 . S
C1190 C1191 1.386 . S
C1190 C1192 1.391 . S
C1191 C1190 1.386 . S
C1191 C1195 1.393 . S
C1192 H1181 0.950 . S
C1192 C1190 1.391 . S
C1192 C1193 1.400 . S
C1193 C1187 1.491 . S
C1193 C1192 1.400 . S
C1193 C1194 1.398 . S
C1194 H1182 0.950 . S
C1194 C1193 1.398 . S
C1194 C1195 1.391 . S
C1195 H1183 0.950 . S
C1195 C1191 1.393 . S
C1195 C1194 1.391 . S
H1196 C1204 0.950 . S
H1197 C1209 0.950 . S
H1198 C1206 0.950 . S
H1199 C1208 0.950 . S
H1200 C1210 0.950 . S
H1201 C1212 0.950 . S
H1202 C1214 0.950 . S
H1203 C1215 0.950 . S
C1204 H1196 0.950 . S
C1204 C1205 1.386 . S
C1204 C1206 1.391 . S
C1205 C1204 1.386 . S
C1205 C1209 1.393 . S
C1206 H1198 0.950 . S
C1206 C1204 1.391 . S
C1206 C1207 1.400 . S
C1207 C1206 1.400 . S
C1207 C1208 1.398 . S
C1207 C1213 1.491 . S
C1208 H1199 0.950 . S
C1208 C1207 1.398 . S
C1208 C1209 1.391 . S
C1209 H1197 0.950 . S
C1209 C1205 1.393 . S
C1209 C1208 1.391 . S
C1210 H1200 0.950 . S
C1210 C1211 1.386 . S
C1210 C1212 1.391 . S
C1211 C1210 1.386 . S
C1211 C1215 1.393 . S
C1212 H1201 0.950 . S
C1212 C1210 1.391 . S
C1212 C1213 1.400 . S
C1213 C1207 1.491 . S
C1213 C1212 1.400 . S
C1213 C1214 1.398 . S
C1214 H1202 0.950 . S
C1214 C1213 1.398 . S
C1214 C1215 1.391 . S
C1215 H1203 0.950 . S
C1215 C1211 1.393 . S
C1215 C1214 1.391 . S
H1216 C1224 0.950 . S
H1217 C1229 0.950 . S
H1218 C1226 0.950 . S
H1219 C1228 0.950 . S
H1220 C1230 0.950 . S
H1221 C1232 0.947 1_655 S
H1222 C1234 0.950 . S
H1223 C1235 0.950 . S
C1224 H1216 0.950 . S
C1224 C1225 1.386 . S
C1224 C1226 1.391 . S
C1225 C1224 1.386 . S
C1225 C1229 1.393 . S
C1226 H1218 0.950 . S
C1226 C1224 1.391 . S
C1226 C1227 1.400 . S
C1227 C1226 1.400 . S
C1227 C1228 1.398 . S
C1227 C1233 1.491 1_655 S
C1228 H1219 0.950 . S
C1228 C1227 1.398 . S
C1228 C1229 1.391 . S
C1229 H1217 0.950 . S
C1229 C1225 1.393 . S
C1229 C1228 1.391 . S
C1230 H1220 0.950 . S
C1230 C1231 1.386 . S
C1230 C1232 1.391 . S
C1231 C1230 1.386 . S
C1231 C1235 1.393 . S
C1232 H1221 0.947 1_455 S
C1232 C1230 1.391 . S
C1232 C1233 1.400 . S
C1233 C1227 1.491 1_455 S
C1233 C1232 1.400 . S
C1233 C1234 1.398 . S
C1234 H1222 0.950 . S
C1234 C1233 1.398 . S
C1234 C1235 1.391 . S
C1235 H1223 0.950 . S
C1235 C1231 1.393 . S
C1235 C1234 1.391 . S
H1236 C1244 0.950 . S
H1237 C1249 0.950 . S
H1238 C1246 0.950 . S
H1239 C1248 0.950 . S
H1240 C1250 0.950 . S
H1241 C1252 0.950 . S
H1242 C1254 0.950 . S
H1243 C1255 0.950 . S
C1244 H1236 0.950 . S
C1244 C1245 1.386 . S
C1244 C1246 1.391 . S
C1245 C1244 1.386 . S
C1245 C1249 1.393 . S
C1246 H1238 0.950 . S
C1246 C1244 1.391 . S
C1246 C1247 1.400 . S
C1247 C1246 1.400 . S
C1247 C1248 1.398 . S
C1247 C1253 1.491 . S
C1248 H1239 0.950 . S
C1248 C1247 1.398 . S
C1248 C1249 1.391 . S
C1249 H1237 0.950 . S
C1249 C1245 1.393 . S
C1249 C1248 1.391 . S
C1250 H1240 0.950 . S
C1250 C1251 1.386 . S
C1250 C1252 1.391 . S
C1251 C1250 1.386 . S
C1251 C1255 1.393 . S
C1252 H1241 0.950 . S
C1252 C1250 1.391 . S
C1252 C1253 1.400 . S
C1253 C1247 1.491 . S
C1253 C1252 1.400 . S
C1253 C1254 1.398 . S
C1254 H1242 0.950 . S
C1254 C1253 1.398 . S
C1254 C1255 1.391 . S
C1255 H1243 0.950 . S
C1255 C1251 1.393 . S
C1255 C1254 1.391 . S
H1256 C1264 0.950 . S
H1257 C1269 0.950 . S
H1258 C1266 0.950 . S
H1259 C1268 0.950 . S
H1260 C1270 0.950 . S
H1261 C1272 0.950 . S
H1262 C1274 0.950 . S
H1263 C1275 0.950 . S
C1264 H1256 0.950 . S
C1264 C1265 1.386 . S
C1264 C1266 1.391 . S
C1265 C1264 1.386 . S
C1265 C1269 1.393 . S
C1266 H1258 0.950 . S
C1266 C1264 1.391 . S
C1266 C1267 1.400 . S
C1267 C1266 1.400 . S
C1267 C1268 1.398 . S
C1267 C1273 1.491 . S
C1268 H1259 0.950 . S
C1268 C1267 1.398 . S
C1268 C1269 1.391 . S
C1269 H1257 0.950 . S
C1269 C1265 1.393 . S
C1269 C1268 1.391 . S
C1270 H1260 0.950 . S
C1270 C1271 1.386 . S
C1270 C1272 1.391 . S
C1271 C1270 1.386 . S
C1271 C1275 1.393 . S
C1272 H1261 0.950 . S
C1272 C1270 1.391 . S
C1272 C1273 1.400 . S
C1273 C1267 1.491 . S
C1273 C1272 1.400 . S
C1273 C1274 1.398 . S
C1274 H1262 0.950 . S
C1274 C1273 1.398 . S
C1274 C1275 1.391 . S
C1275 H1263 0.950 . S
C1275 C1271 1.393 . S
C1275 C1274 1.391 . S
H1276 C1284 0.950 . S
H1277 C1289 0.950 . S
H1278 C1286 0.950 . S
H1279 C1288 0.950 . S
H1280 C1290 0.950 . S
H1281 C1292 0.950 . S
H1282 C1294 0.950 . S
H1283 C1295 0.950 . S
C1284 H1276 0.950 . S
C1284 C1285 1.386 . S
C1284 C1286 1.391 . S
C1285 C1284 1.386 . S
C1285 C1289 1.393 . S
C1286 H1278 0.950 . S
C1286 C1284 1.391 . S
C1286 C1287 1.400 . S
C1287 C1286 1.400 . S
C1287 C1288 1.398 . S
C1287 C1293 1.491 . S
C1288 H1279 0.950 . S
C1288 C1287 1.398 . S
C1288 C1289 1.391 . S
C1289 H1277 0.950 . S
C1289 C1285 1.393 . S
C1289 C1288 1.391 . S
C1290 H1280 0.950 . S
C1290 C1291 1.386 . S
C1290 C1292 1.391 . S
C1291 C1290 1.386 . S
C1291 C1295 1.393 . S
C1292 H1281 0.950 . S
C1292 C1290 1.391 . S
C1292 C1293 1.400 . S
C1293 C1287 1.491 . S
C1293 C1292 1.400 . S
C1293 C1294 1.398 . S
C1294 H1282 0.950 . S
C1294 C1293 1.398 . S
C1294 C1295 1.391 . S
C1295 H1283 0.950 . S
C1295 C1291 1.393 . S
C1295 C1294 1.391 . S
H1296 C1304 0.950 . S
H1297 C1309 0.950 . S
H1298 C1306 0.950 . S
H1299 C1308 0.950 1_545 S
H1300 C1310 0.950 . S
H1301 C1312 0.950 . S
H1302 C1314 0.950 . S
H1303 C1315 0.950 . S
C1304 H1296 0.950 . S
C1304 C1305 1.386 . S
C1304 C1306 1.391 . S
C1305 C1304 1.386 . S
C1305 C1309 1.393 . S
C1306 H1298 0.950 . S
C1306 C1304 1.391 . S
C1306 C1307 1.400 . S
C1307 C1306 1.400 . S
C1307 C1308 1.398 . S
C1307 C1313 1.491 . S
C1308 H1299 0.950 1_565 S
C1308 C1307 1.398 . S
C1308 C1309 1.391 . S
C1309 H1297 0.950 . S
C1309 C1305 1.393 . S
C1309 C1308 1.391 . S
C1310 H1300 0.950 . S
C1310 C1311 1.386 1_545 S
C1310 C1312 1.391 . S
C1311 C1310 1.386 1_565 S
C1311 C1315 1.393 . S
C1312 H1301 0.950 . S
C1312 C1310 1.391 . S
C1312 C1313 1.400 1_545 S
C1313 C1307 1.491 . S
C1313 C1312 1.400 1_565 S
C1313 C1314 1.398 . S
C1314 H1302 0.950 . S
C1314 C1313 1.398 . S
C1314 C1315 1.391 . S
C1315 H1303 0.950 . S
C1315 C1311 1.393 . S
C1315 C1314 1.391 . S
H1316 C1324 0.950 . S
H1317 C1329 0.950 . S
H1318 C1326 0.950 . S
H1319 C1328 0.950 . S
H1320 C1330 0.950 . S
H1321 C1332 0.950 . S
H1322 C1334 0.950 . S
H1323 C1335 0.950 . S
C1324 H1316 0.950 . S
C1324 C1325 1.386 . S
C1324 C1326 1.391 . S
C1325 C1324 1.386 . S
C1325 C1329 1.393 1_556 S
C1326 H1318 0.950 . S
C1326 C1324 1.391 . S
C1326 C1327 1.419 . S
C1327 C1326 1.419 . S
C1327 C1328 1.391 1_556 S
C1327 C1333 1.471 1_556 S
C1328 H1319 0.950 . S
C1328 C1327 1.391 1_554 S
C1328 C1329 1.391 . S
C1329 H1317 0.950 . S
C1329 C1325 1.393 1_554 S
C1329 C1328 1.391 . S
C1330 H1320 0.950 . S
C1330 C1331 1.386 . S
C1330 C1332 1.391 . S
C1331 C1330 1.386 . S
C1331 C1335 1.393 1_554 S
C1332 H1321 0.950 . S
C1332 C1330 1.391 . S
C1332 C1333 1.422 . S
C1333 C1327 1.471 1_554 S
C1333 C1332 1.422 . S
C1333 C1334 1.390 1_554 S
C1334 H1322 0.950 . S
C1334 C1333 1.390 1_556 S
C1334 C1335 1.391 . S
C1335 H1323 0.950 . S
C1335 C1331 1.393 1_556 S
C1335 C1334 1.391 . S
H1336 C1344 0.950 . S
H1337 C1349 0.950 . S
H1338 C1346 0.950 . S
H1339 C1348 0.950 . S
H1340 C1350 0.950 . S
H1341 C1352 0.950 . S
H1342 C1354 0.950 . S
H1343 C1355 0.950 . S
C1344 H1336 0.950 . S
C1344 C1345 1.386 . S
C1344 C1346 1.391 . S
C1345 C1344 1.386 . S
C1345 C1349 1.393 . S
C1346 H1338 0.950 . S
C1346 C1344 1.391 . S
C1346 C1347 1.400 . S
C1347 C1346 1.400 . S
C1347 C1348 1.398 . S
C1347 C1353 1.491 . S
C1348 H1339 0.950 . S
C1348 C1347 1.398 . S
C1348 C1349 1.391 . S
C1349 H1337 0.950 . S
C1349 C1345 1.393 . S
C1349 C1348 1.391 . S
C1350 H1340 0.950 . S
C1350 C1351 1.386 . S
C1350 C1352 1.391 . S
C1351 C1350 1.386 . S
C1351 C1355 1.393 . S
C1352 H1341 0.950 . S
C1352 C1350 1.391 . S
C1352 C1353 1.400 . S
C1353 C1347 1.491 . S
C1353 C1352 1.400 . S
C1353 C1354 1.398 . S
C1354 H1342 0.950 . S
C1354 C1353 1.398 . S
C1354 C1355 1.391 . S
C1355 H1343 0.950 . S
C1355 C1351 1.393 . S
C1355 C1354 1.391 . S
H1356 C1364 0.950 . S
H1357 C1369 0.950 . S
H1358 C1366 0.950 . S
H1359 C1368 0.950 . S
H1360 C1370 0.950 . S
H1361 C1372 0.950 . S
H1362 C1374 0.950 . S
H1363 C1375 0.950 . S
C1364 H1356 0.950 . S
C1364 C1365 1.386 . S
C1364 C1366 1.391 . S
C1365 C1364 1.386 . S
C1365 C1369 1.393 . S
C1366 H1358 0.950 . S
C1366 C1364 1.391 . S
C1366 C1367 1.400 . S
C1367 C1366 1.400 . S
C1367 C1368 1.398 . S
C1367 C1373 1.491 . S
C1368 H1359 0.950 . S
C1368 C1367 1.398 . S
C1368 C1369 1.391 . S
C1369 H1357 0.950 . S
C1369 C1365 1.393 . S
C1369 C1368 1.391 . S
C1370 H1360 0.950 . S
C1370 C1371 1.386 . S
C1370 C1372 1.391 . S
C1371 C1370 1.386 . S
C1371 C1375 1.393 . S
C1372 H1361 0.950 . S
C1372 C1370 1.391 . S
C1372 C1373 1.400 . S
C1373 C1367 1.491 . S
C1373 C1372 1.400 . S
C1373 C1374 1.398 . S
C1374 H1362 0.950 . S
C1374 C1373 1.398 . S
C1374 C1375 1.391 . S
C1375 H1363 0.950 . S
C1375 C1371 1.393 . S
C1375 C1374 1.391 . S
H1376 C1384 0.950 . S
H1377 C1389 0.950 . S
H1378 C1386 0.950 . S
H1379 C1388 0.950 . S
H1380 C1390 0.950 . S
H1381 C1392 0.950 . S
H1382 C1394 0.950 . S
H1383 C1395 0.950 . S
C1384 H1376 0.950 . S
C1384 C1385 1.386 . S
C1384 C1386 1.391 . S
C1385 C1384 1.386 . S
C1385 C1389 1.393 . S
C1386 H1378 0.950 . S
C1386 C1384 1.391 . S
C1386 C1387 1.400 . S
C1387 C1386 1.400 . S
C1387 C1388 1.398 . S
C1387 C1393 1.491 . S
C1388 H1379 0.950 . S
C1388 C1387 1.398 . S
C1388 C1389 1.391 . S
C1389 H1377 0.950 . S
C1389 C1385 1.393 . S
C1389 C1388 1.391 . S
C1390 H1380 0.950 . S
C1390 C1391 1.386 . S
C1390 C1392 1.391 . S
C1391 C1390 1.386 . S
C1391 C1395 1.393 . S
C1392 H1381 0.950 . S
C1392 C1390 1.391 . S
C1392 C1393 1.400 . S
C1393 C1387 1.491 . S
C1393 C1392 1.400 . S
C1393 C1394 1.398 . S
C1394 H1382 0.950 . S
C1394 C1393 1.398 . S
C1394 C1395 1.391 . S
C1395 H1383 0.950 . S
C1395 C1391 1.393 . S
C1395 C1394 1.391 . S
H1396 C1404 0.950 . S
H1397 C1409 0.950 . S
H1398 C1406 0.950 . S
H1399 C1408 0.950 . S
H1400 C1410 0.950 . S
H1401 C1412 0.950 . S
H1402 C1414 0.950 . S
H1403 C1415 0.950 . S
C1404 H1396 0.950 . S
C1404 C1405 1.386 . S
C1404 C1406 1.391 . S
C1405 C1404 1.386 . S
C1405 C1409 1.393 . S
C1406 H1398 0.950 . S
C1406 C1404 1.391 . S
C1406 C1407 1.400 . S
C1407 C1406 1.400 . S
C1407 C1408 1.398 . S
C1407 C1413 1.491 . S
C1408 H1399 0.950 . S
C1408 C1407 1.398 . S
C1408 C1409 1.391 . S
C1409 H1397 0.950 . S
C1409 C1405 1.393 . S
C1409 C1408 1.391 . S
C1410 H1400 0.950 . S
C1410 C1411 1.386 . S
C1410 C1412 1.391 . S
C1411 C1410 1.386 . S
C1411 C1415 1.393 . S
C1412 H1401 0.950 . S
C1412 C1410 1.391 . S
C1412 C1413 1.400 . S
C1413 C1407 1.491 . S
C1413 C1412 1.400 . S
C1413 C1414 1.398 . S
C1414 H1402 0.950 . S
C1414 C1413 1.398 . S
C1414 C1415 1.391 . S
C1415 H1403 0.950 . S
C1415 C1411 1.393 . S
C1415 C1414 1.391 . S
H1416 C1424 0.950 . S
H1417 C1429 0.950 . S
H1418 C1426 0.950 . S
H1419 C1428 0.950 . S
H1420 C1430 0.950 . S
H1421 C1432 0.950 . S
H1422 C1434 0.950 . S
H1423 C1435 0.950 . S
C1424 H1416 0.950 . S
C1424 C1425 1.386 . S
C1424 C1426 1.391 . S
C1425 C1424 1.386 . S
C1425 C1429 1.393 . S
C1426 H1418 0.950 . S
C1426 C1424 1.391 . S
C1426 C1427 1.400 . S
C1427 C1426 1.400 . S
C1427 C1428 1.398 . S
C1427 C1433 1.491 . S
C1428 H1419 0.950 . S
C1428 C1427 1.398 . S
C1428 C1429 1.391 . S
C1429 H1417 0.950 . S
C1429 C1425 1.393 . S
C1429 C1428 1.391 . S
C1430 H1420 0.950 . S
C1430 C1431 1.386 . S
C1430 C1432 1.391 . S
C1431 C1430 1.386 . S
C1431 C1435 1.393 . S
C1432 H1421 0.950 . S
C1432 C1430 1.391 . S
C1432 C1433 1.400 . S
C1433 C1427 1.491 . S
C1433 C1432 1.400 . S
C1433 C1434 1.398 . S
C1434 H1422 0.950 . S
C1434 C1433 1.398 . S
C1434 C1435 1.391 . S
C1435 H1423 0.950 . S
C1435 C1431 1.393 . S
C1435 C1434 1.391 . S
H1436 C1444 0.950 . S
H1437 C1449 0.950 . S
H1438 C1446 0.950 . S
H1439 C1448 0.950 . S
H1440 C1450 0.950 . S
H1441 C1452 0.950 . S
H1442 C1454 0.950 . S
H1443 C1455 0.950 . S
C1444 H1436 0.950 . S
C1444 C1445 1.386 . S
C1444 C1446 1.391 . S
C1445 C1444 1.386 . S
C1445 C1449 1.393 . S
C1446 H1438 0.950 . S
C1446 C1444 1.391 . S
C1446 C1447 1.400 . S
C1447 C1446 1.400 . S
C1447 C1448 1.398 . S
C1447 C1453 1.491 . S
C1448 H1439 0.950 . S
C1448 C1447 1.398 . S
C1448 C1449 1.391 . S
C1449 H1437 0.950 . S
C1449 C1445 1.393 . S
C1449 C1448 1.391 . S
C1450 H1440 0.950 . S
C1450 C1451 1.386 . S
C1450 C1452 1.391 . S
C1451 C1450 1.386 . S
C1451 C1455 1.393 . S
C1452 H1441 0.950 . S
C1452 C1450 1.391 . S
C1452 C1453 1.400 . S
C1453 C1447 1.491 . S
C1453 C1452 1.400 . S
C1453 C1454 1.398 . S
C1454 H1442 0.950 . S
C1454 C1453 1.398 . S
C1454 C1455 1.391 . S
C1455 H1443 0.950 . S
C1455 C1451 1.393 . S
C1455 C1454 1.391 . S
H1456 C1464 0.950 . S
H1457 C1469 0.950 . S
H1458 C1466 0.950 . S
H1459 C1468 0.950 . S
H1460 C1470 0.950 . S
H1461 C1472 0.950 . S
H1462 C1474 0.950 . S
H1463 C1475 0.950 . S
C1464 H1456 0.950 . S
C1464 C1465 1.386 . S
C1464 C1466 1.391 . S
C1465 C1464 1.386 . S
C1465 C1469 1.393 . S
C1466 H1458 0.950 . S
C1466 C1464 1.391 . S
C1466 C1467 1.400 . S
C1467 C1466 1.400 . S
C1467 C1468 1.398 . S
C1467 C1473 1.491 . S
C1468 H1459 0.950 . S
C1468 C1467 1.398 . S
C1468 C1469 1.391 . S
C1469 H1457 0.950 . S
C1469 C1465 1.393 . S
C1469 C1468 1.391 . S
C1470 H1460 0.950 . S
C1470 C1471 1.386 . S
C1470 C1472 1.391 . S
C1471 C1470 1.386 . S
C1471 C1475 1.393 . S
C1472 H1461 0.950 . S
C1472 C1470 1.391 . S
C1472 C1473 1.400 . S
C1473 C1467 1.491 . S
C1473 C1472 1.400 . S
C1473 C1474 1.398 . S
C1474 H1462 0.950 . S
C1474 C1473 1.398 . S
C1474 C1475 1.391 . S
C1475 H1463 0.950 . S
C1475 C1471 1.393 . S
C1475 C1474 1.391 . S
H1476 C1484 0.950 . S
H1477 C1489 0.950 . S
H1478 C1486 0.950 . S
H1479 C1488 0.950 . S
H1480 C1490 0.950 . S
H1481 C1492 0.950 . S
H1482 C1494 0.950 . S
H1483 C1495 0.950 . S
C1484 H1476 0.950 . S
C1484 C1485 1.386 . S
C1484 C1486 1.391 . S
C1485 C1484 1.386 . S
C1485 C1489 1.393 . S
C1486 H1478 0.950 . S
C1486 C1484 1.391 . S
C1486 C1487 1.400 . S
C1487 C1486 1.400 . S
C1487 C1488 1.398 . S
C1487 C1493 1.491 . S
C1488 H1479 0.950 . S
C1488 C1487 1.398 . S
C1488 C1489 1.391 . S
C1489 H1477 0.950 . S
C1489 C1485 1.393 . S
C1489 C1488 1.391 . S
C1490 H1480 0.950 . S
C1490 C1491 1.386 . S
C1490 C1492 1.391 . S
C1491 C1490 1.386 . S
C1491 C1495 1.393 . S
C1492 H1481 0.950 . S
C1492 C1490 1.391 . S
C1492 C1493 1.400 . S
C1493 C1487 1.491 . S
C1493 C1492 1.400 . S
C1493 C1494 1.398 . S
C1494 H1482 0.950 . S
C1494 C1493 1.398 . S
C1494 C1495 1.391 . S
C1495 H1483 0.950 . S
C1495 C1491 1.393 . S
C1495 C1494 1.391 . S
H1496 C1504 0.950 . S
H1497 C1509 0.950 . S
H1498 C1506 0.950 . S
H1499 C1508 0.950 . S
H1500 C1510 0.950 . S
H1501 C1512 0.950 . S
H1502 C1514 0.950 . S
H1503 C1515 0.950 . S
C1504 H1496 0.950 . S
C1504 C1505 1.386 . S
C1504 C1506 1.391 . S
C1505 C1504 1.386 . S
C1505 C1509 1.393 . S
C1506 H1498 0.950 . S
C1506 C1504 1.391 . S
C1506 C1507 1.400 . S
C1507 C1506 1.400 . S
C1507 C1508 1.398 . S
C1507 C1513 1.491 . S
C1508 H1499 0.950 . S
C1508 C1507 1.398 . S
C1508 C1509 1.391 . S
C1509 H1497 0.950 . S
C1509 C1505 1.393 . S
C1509 C1508 1.391 . S
C1510 H1500 0.950 . S
C1510 C1511 1.386 . S
C1510 C1512 1.391 . S
C1511 C1510 1.386 . S
C1511 C1515 1.393 . S
C1512 H1501 0.950 . S
C1512 C1510 1.391 . S
C1512 C1513 1.400 . S
C1513 C1507 1.491 . S
C1513 C1512 1.400 . S
C1513 C1514 1.398 . S
C1514 H1502 0.950 . S
C1514 C1513 1.398 . S
C1514 C1515 1.391 . S
C1515 H1503 0.950 . S
C1515 C1511 1.393 . S
C1515 C1514 1.391 . S
H1516 C1524 0.950 . S
H1517 C1529 0.950 . S
H1518 C1526 0.950 . S
H1519 C1528 0.950 . S
H1520 C1530 0.950 . S
H1521 C1532 0.950 . S
H1522 C1534 0.950 . S
H1523 C1535 0.950 . S
C1524 H1516 0.950 . S
C1524 C1525 1.386 . S
C1524 C1526 1.391 . S
C1525 C1524 1.386 . S
C1525 C1529 1.393 . S
C1526 H1518 0.950 . S
C1526 C1524 1.391 . S
C1526 C1527 1.400 . S
C1527 C1526 1.400 . S
C1527 C1528 1.398 . S
C1527 C1533 1.491 . S
C1528 H1519 0.950 . S
C1528 C1527 1.398 . S
C1528 C1529 1.391 . S
C1529 H1517 0.950 . S
C1529 C1525 1.393 . S
C1529 C1528 1.391 . S
C1530 H1520 0.950 . S
C1530 C1531 1.386 . S
C1530 C1532 1.391 . S
C1531 C1530 1.386 . S
C1531 C1535 1.393 . S
C1532 H1521 0.950 . S
C1532 C1530 1.391 . S
C1532 C1533 1.400 . S
C1533 C1527 1.491 . S
C1533 C1532 1.400 . S
C1533 C1534 1.398 . S
C1534 H1522 0.950 . S
C1534 C1533 1.398 . S
C1534 C1535 1.391 . S
C1535 H1523 0.950 . S
C1535 C1531 1.393 . S
C1535 C1534 1.391 . S
H1536 C1544 0.950 . S
H1537 C1549 0.950 . S
H1538 C1546 0.950 . S
H1539 C1548 0.950 . S
H1540 C1550 0.950 . S
H1541 C1552 0.950 . S
H1542 C1554 0.950 . S
H1543 C1555 0.950 . S
C1544 H1536 0.950 . S
C1544 C1545 1.386 . S
C1544 C1546 1.391 . S
C1545 C1544 1.386 . S
C1545 C1549 1.393 . S
C1546 H1538 0.950 . S
C1546 C1544 1.391 . S
C1546 C1547 1.400 . S
C1547 C1546 1.400 . S
C1547 C1548 1.398 . S
C1547 C1553 1.491 . S
C1548 H1539 0.950 . S
C1548 C1547 1.398 . S
C1548 C1549 1.391 . S
C1549 H1537 0.950 . S
C1549 C1545 1.393 . S
C1549 C1548 1.391 . S
C1550 H1540 0.950 . S
C1550 C1551 1.386 . S
C1550 C1552 1.391 . S
C1551 C1550 1.386 . S
C1551 C1555 1.393 . S
C1552 H1541 0.950 . S
C1552 C1550 1.391 . S
C1552 C1553 1.400 . S
C1553 C1547 1.491 . S
C1553 C1552 1.400 . S
C1553 C1554 1.398 . S
C1554 H1542 0.950 . S
C1554 C1553 1.398 . S
C1554 C1555 1.391 . S
C1555 H1543 0.950 . S
C1555 C1551 1.393 . S
C1555 C1554 1.391 . S
H1556 C1564 0.950 . S
H1557 C1569 0.950 . S
H1558 C1566 0.950 . S
H1559 C1568 0.950 . S
H1560 C1570 0.950 . S
H1561 C1572 0.950 . S
H1562 C1574 0.950 . S
H1563 C1575 0.950 . S
C1564 H1556 0.950 . S
C1564 C1565 1.386 . S
C1564 C1566 1.391 . S
C1565 C1564 1.386 . S
C1565 C1569 1.393 . S
C1566 H1558 0.950 . S
C1566 C1564 1.391 . S
C1566 C1567 1.400 . S
C1567 C1566 1.400 . S
C1567 C1568 1.398 . S
C1567 C1573 1.491 . S
C1568 H1559 0.950 . S
C1568 C1567 1.398 . S
C1568 C1569 1.391 . S
C1569 H1557 0.950 . S
C1569 C1565 1.393 . S
C1569 C1568 1.391 . S
C1570 H1560 0.950 . S
C1570 C1571 1.386 . S
C1570 C1572 1.391 . S
C1571 C1570 1.386 . S
C1571 C1575 1.393 . S
C1572 H1561 0.950 . S
C1572 C1570 1.391 . S
C1572 C1573 1.400 . S
C1573 C1567 1.491 . S
C1573 C1572 1.400 . S
C1573 C1574 1.398 . S
C1574 H1562 0.950 . S
C1574 C1573 1.398 . S
C1574 C1575 1.391 . S
C1575 H1563 0.950 . S
C1575 C1571 1.393 . S
C1575 C1574 1.391 . S
H1576 C1584 0.950 . S
H1577 C1589 0.950 . S
H1578 C1586 0.950 . S
H1579 C1588 0.950 . S
H1580 C1590 0.950 . S
H1581 C1592 0.950 . S
H1582 C1594 0.950 . S
H1583 C1595 0.950 1_554 S
C1584 H1576 0.950 . S
C1584 C1585 1.386 . S
C1584 C1586 1.391 . S
C1585 C1584 1.386 . S
C1585 C1589 1.393 . S
C1586 H1578 0.950 . S
C1586 C1584 1.391 . S
C1586 C1587 1.400 . S
C1587 C1586 1.400 . S
C1587 C1588 1.398 . S
C1587 C1593 1.491 . S
C1588 H1579 0.950 . S
C1588 C1587 1.398 . S
C1588 C1589 1.391 . S
C1589 H1577 0.950 . S
C1589 C1585 1.393 . S
C1589 C1588 1.391 . S
C1590 H1580 0.950 . S
C1590 C1591 1.386 . S
C1590 C1592 1.391 . S
C1591 C1590 1.386 . S
C1591 C1595 1.393 . S
C1592 H1581 0.950 . S
C1592 C1590 1.391 . S
C1592 C1593 1.400 . S
C1593 C1587 1.491 . S
C1593 C1592 1.400 . S
C1593 C1594 1.398 . S
C1594 H1582 0.950 . S
C1594 C1593 1.398 . S
C1594 C1595 1.391 . S
C1595 H1583 0.950 1_556 S
C1595 C1591 1.393 . S
C1595 C1594 1.391 . S
H1596 C1604 0.950 . S
H1597 C1609 0.950 . S
H1598 C1606 0.950 . S
H1599 C1608 0.950 . S
H1600 C1610 0.950 . S
H1601 C1612 0.950 . S
H1602 C1614 0.950 . S
H1603 C1615 0.950 . S
C1604 H1596 0.950 . S
C1604 C1605 1.386 . S
C1604 C1606 1.391 . S
C1605 C1604 1.386 . S
C1605 C1609 1.393 . S
C1606 H1598 0.950 . S
C1606 C1604 1.391 . S
C1606 C1607 1.400 . S
C1607 C1606 1.400 . S
C1607 C1608 1.398 . S
C1607 C1613 1.491 . S
C1608 H1599 0.950 . S
C1608 C1607 1.398 . S
C1608 C1609 1.391 . S
C1609 H1597 0.950 . S
C1609 C1605 1.393 . S
C1609 C1608 1.391 . S
C1610 H1600 0.950 . S
C1610 C1611 1.386 . S
C1610 C1612 1.391 . S
C1611 C1610 1.386 . S
C1611 C1615 1.393 . S
C1612 H1601 0.950 . S
C1612 C1610 1.391 . S
C1612 C1613 1.400 . S
C1613 C1607 1.491 . S
C1613 C1612 1.400 . S
C1613 C1614 1.398 . S
C1614 H1602 0.950 . S
C1614 C1613 1.398 . S
C1614 C1615 1.391 . S
C1615 H1603 0.950 . S
C1615 C1611 1.393 . S
C1615 C1614 1.391 . S
H1616 C1624 0.950 . S
H1617 C1629 0.950 . S
H1618 C1626 0.950 . S
H1619 C1628 0.950 . S
H1620 C1630 0.950 . S
H1621 C1632 0.950 . S
H1622 C1634 0.963 . S
H1623 C1635 0.950 1_565 S
C1624 H1616 0.950 . S
C1624 C1625 1.386 1_565 S
C1624 C1626 1.391 . S
C1625 C1624 1.386 1_545 S
C1625 C1629 1.393 . S
C1626 H1618 0.950 . S
C1626 C1624 1.391 . S
C1626 C1627 1.400 1_565 S
C1627 C1626 1.400 1_545 S
C1627 C1628 1.398 . S
C1627 C1633 1.491 . S
C1628 H1619 0.950 . S
C1628 C1627 1.398 . S
C1628 C1629 1.391 . S
C1629 H1617 0.950 . S
C1629 C1625 1.393 . S
C1629 C1628 1.391 . S
C1630 H1620 0.950 . S
C1630 C1631 1.386 . S
C1630 C1632 1.391 . S
C1631 C1630 1.386 . S
C1631 C1635 1.393 . S
C1632 H1621 0.950 . S
C1632 C1630 1.391 . S
C1632 C1633 1.400 . S
C1633 C1627 1.491 . S
C1633 C1632 1.400 . S
C1633 C1634 1.387 1_545 S
C1634 H1622 0.963 . S
C1634 C1633 1.387 1_565 S
C1634 C1635 1.390 1_565 S
C1635 H1623 0.950 1_545 S
C1635 C1631 1.393 . S
C1635 C1634 1.390 1_545 S
H1636 C1644 0.950 . S
H1637 C1649 0.950 . S
H1638 C1646 0.950 . S
H1639 C1648 0.950 . S
H1640 C1650 0.950 . S
H1641 C1652 0.950 . S
H1642 C1654 0.950 . S
H1643 C1655 0.950 . S
C1644 H1636 0.950 . S
C1644 C1645 1.386 . S
C1644 C1646 1.391 . S
C1645 C1644 1.386 . S
C1645 C1649 1.393 . S
C1646 H1638 0.950 . S
C1646 C1644 1.391 . S
C1646 C1647 1.400 . S
C1647 C1646 1.400 . S
C1647 C1648 1.398 . S
C1647 C1653 1.491 . S
C1648 H1639 0.950 . S
C1648 C1647 1.398 . S
C1648 C1649 1.391 . S
C1649 H1637 0.950 . S
C1649 C1645 1.393 . S
C1649 C1648 1.391 . S
C1650 H1640 0.950 . S
C1650 C1651 1.386 . S
C1650 C1652 1.391 . S
C1651 C1650 1.386 . S
C1651 C1655 1.393 . S
C1652 H1641 0.950 . S
C1652 C1650 1.391 . S
C1652 C1653 1.400 . S
C1653 C1647 1.491 . S
C1653 C1652 1.400 . S
C1653 C1654 1.398 . S
C1654 H1642 0.950 . S
C1654 C1653 1.398 . S
C1654 C1655 1.391 . S
C1655 H1643 0.950 . S
C1655 C1651 1.393 . S
C1655 C1654 1.391 . S
H1656 C1664 0.950 . S
H1657 C1669 0.950 . S
H1658 C1666 0.950 . S
H1659 C1668 0.950 . S
H1660 C1670 0.950 1_565 S
H1661 C1672 0.950 1_565 S
H1662 C1674 0.950 . S
H1663 C1675 0.950 . S
C1664 H1656 0.950 . S
C1664 C1665 1.386 . S
C1664 C1666 1.391 . S
C1665 C1664 1.386 . S
C1665 C1669 1.393 1_545 S
C1666 H1658 0.950 . S
C1666 C1664 1.391 . S
C1666 C1667 1.400 . S
C1667 C1666 1.400 . S
C1667 C1668 1.398 1_545 S
C1667 C1673 1.491 . S
C1668 H1659 0.950 . S
C1668 C1667 1.398 1_565 S
C1668 C1669 1.391 . S
C1669 H1657 0.950 . S
C1669 C1665 1.393 1_565 S
C1669 C1668 1.391 . S
C1670 H1660 0.950 1_545 S
C1670 C1671 1.386 . S
C1670 C1672 1.391 . S
C1671 C1670 1.386 . S
C1671 C1675 1.393 . S
C1672 H1661 0.950 1_545 S
C1672 C1670 1.391 . S
C1672 C1673 1.400 . S
C1673 C1667 1.491 . S
C1673 C1672 1.400 . S
C1673 C1674 1.398 . S
C1674 H1662 0.950 . S
C1674 C1673 1.398 . S
C1674 C1675 1.391 . S
C1675 H1663 0.950 . S
C1675 C1671 1.393 . S
C1675 C1674 1.391 . S
H1676 C1684 0.950 . S
H1677 C1689 0.950 . S
H1678 C1686 0.950 . S
H1679 C1688 0.950 . S
H1680 C1690 0.950 . S
H1681 C1692 0.950 . S
H1682 C1694 0.950 . S
H1683 C1695 0.950 . S
C1684 H1676 0.950 . S
C1684 C1685 1.386 . S
C1684 C1686 1.391 . S
C1685 C1684 1.386 . S
C1685 C1689 1.393 . S
C1686 H1678 0.950 . S
C1686 C1684 1.391 . S
C1686 C1687 1.400 . S
C1687 C1686 1.400 . S
C1687 C1688 1.398 . S
C1687 C1693 1.491 . S
C1688 H1679 0.950 . S
C1688 C1687 1.398 . S
C1688 C1689 1.391 . S
C1689 H1677 0.950 . S
C1689 C1685 1.393 . S
C1689 C1688 1.391 . S
C1690 H1680 0.950 . S
C1690 C1691 1.386 . S
C1690 C1692 1.391 . S
C1691 C1690 1.386 . S
C1691 C1695 1.393 . S
C1692 H1681 0.950 . S
C1692 C1690 1.391 . S
C1692 C1693 1.400 . S
C1693 C1687 1.491 . S
C1693 C1692 1.400 . S
C1693 C1694 1.398 . S
C1694 H1682 0.950 . S
C1694 C1693 1.398 . S
C1694 C1695 1.391 . S
C1695 H1683 0.950 . S
C1695 C1691 1.393 . S
C1695 C1694 1.391 . S
H1696 C1704 0.950 . S
H1697 C1709 0.950 . S
H1698 C1706 0.950 . S
H1699 C1708 0.950 . S
H1700 C1710 0.950 . S
H1701 C1712 0.950 . S
H1702 C1714 0.950 . S
H1703 C1715 0.931 1_565 S
C1704 H1696 0.950 . S
C1704 C1705 1.374 1_565 S
C1704 C1706 1.391 . S
C1705 C1704 1.374 1_545 S
C1705 C1709 1.418 . S
C1706 H1698 0.950 . S
C1706 C1704 1.391 . S
C1706 C1707 1.400 1_565 S
C1707 C1706 1.400 1_545 S
C1707 C1708 1.398 . S
C1707 C1713 1.491 . S
C1708 H1699 0.950 . S
C1708 C1707 1.398 . S
C1708 C1709 1.391 . S
C1709 H1697 0.950 . S
C1709 C1705 1.418 . S
C1709 C1708 1.391 . S
C1710 H1700 0.950 . S
C1710 C1711 1.386 . S
C1710 C1712 1.391 . S
C1711 C1710 1.386 . S
C1711 C1715 1.431 . S
C1712 H1701 0.950 . S
C1712 C1710 1.391 . S
C1712 C1713 1.400 . S
C1713 C1707 1.491 . S
C1713 C1712 1.400 . S
C1713 C1714 1.398 1_545 S
C1714 H1702 0.950 . S
C1714 C1713 1.398 1_565 S
C1714 C1715 1.372 1_565 S
C1715 H1703 0.931 1_545 S
C1715 C1711 1.431 . S
C1715 C1714 1.372 1_545 S
H1716 C1724 0.950 . S
H1717 C1729 0.950 . S
H1718 C1726 0.950 . S
H1719 C1728 0.950 . S
H1720 C1730 0.950 . S
H1721 C1732 0.950 . S
H1722 C1734 0.950 . S
H1723 C1735 0.950 . S
C1724 H1716 0.950 . S
C1724 C1725 1.386 . S
C1724 C1726 1.391 . S
C1725 C1724 1.386 . S
C1725 C1729 1.393 . S
C1726 H1718 0.950 . S
C1726 C1724 1.391 . S
C1726 C1727 1.400 . S
C1727 C1726 1.400 . S
C1727 C1728 1.398 . S
C1727 C1733 1.491 . S
C1728 H1719 0.950 . S
C1728 C1727 1.398 . S
C1728 C1729 1.391 . S
C1729 H1717 0.950 . S
C1729 C1725 1.393 . S
C1729 C1728 1.391 . S
C1730 H1720 0.950 . S
C1730 C1731 1.386 . S
C1730 C1732 1.391 . S
C1731 C1730 1.386 . S
C1731 C1735 1.393 . S
C1732 H1721 0.950 . S
C1732 C1730 1.391 . S
C1732 C1733 1.400 . S
C1733 C1727 1.491 . S
C1733 C1732 1.400 . S
C1733 C1734 1.398 . S
C1734 H1722 0.950 . S
C1734 C1733 1.398 . S
C1734 C1735 1.391 . S
C1735 H1723 0.950 . S
C1735 C1731 1.393 . S
C1735 C1734 1.391 . S
H1736 C1744 0.950 . S
H1737 C1749 0.950 . S
H1738 C1746 0.950 . S
H1739 C1748 0.950 . S
H1740 C1750 0.950 . S
H1741 C1752 0.950 . S
H1742 C1754 0.950 . S
H1743 C1755 0.950 . S
C1744 H1736 0.950 . S
C1744 C1745 1.354 1_565 S
C1744 C1746 1.391 . S
C1745 C1744 1.354 1_545 S
C1745 C1749 1.421 . S
C1746 H1738 0.950 . S
C1746 C1744 1.391 . S
C1746 C1747 1.400 . S
C1747 C1746 1.400 . S
C1747 C1748 1.398 1_565 S
C1747 C1753 1.491 . S
C1748 H1739 0.950 . S
C1748 C1747 1.398 1_545 S
C1748 C1749 1.391 . S
C1749 H1737 0.950 . S
C1749 C1745 1.421 . S
C1749 C1748 1.391 . S
C1750 H1740 0.950 . S
C1750 C1751 1.386 1_545 S
C1750 C1752 1.391 . S
C1751 C1750 1.386 1_565 S
C1751 C1755 1.393 . S
C1752 H1741 0.950 . S
C1752 C1750 1.391 . S
C1752 C1753 1.400 1_545 S
C1753 C1747 1.491 . S
C1753 C1752 1.400 1_565 S
C1753 C1754 1.398 . S
C1754 H1742 0.950 . S
C1754 C1753 1.398 . S
C1754 C1755 1.391 . S
C1755 H1743 0.950 . S
C1755 C1751 1.393 . S
C1755 C1754 1.391 . S
H1756 C1764 0.950 . S
H1757 C1769 0.950 . S
H1758 C1766 0.950 . S
H1759 C1768 0.950 . S
H1760 C1770 0.950 . S
H1761 C1772 0.950 . S
H1762 C1774 0.950 . S
H1763 C1775 0.950 . S
C1764 H1756 0.950 . S
C1764 C1765 1.386 . S
C1764 C1766 1.391 . S
C1765 C1764 1.386 . S
C1765 C1769 1.393 . S
C1766 H1758 0.950 . S
C1766 C1764 1.391 . S
C1766 C1767 1.400 . S
C1767 C1766 1.400 . S
C1767 C1768 1.398 . S
C1767 C1773 1.491 . S
C1768 H1759 0.950 . S
C1768 C1767 1.398 . S
C1768 C1769 1.391 . S
C1769 H1757 0.950 . S
C1769 C1765 1.393 . S
C1769 C1768 1.391 . S
C1770 H1760 0.950 . S
C1770 C1771 1.386 . S
C1770 C1772 1.391 . S
C1771 C1770 1.386 . S
C1771 C1775 1.393 . S
C1772 H1761 0.950 . S
C1772 C1770 1.391 . S
C1772 C1773 1.400 . S
C1773 C1767 1.491 . S
C1773 C1772 1.400 . S
C1773 C1774 1.398 . S
C1774 H1762 0.950 . S
C1774 C1773 1.398 . S
C1774 C1775 1.391 . S
C1775 H1763 0.950 . S
C1775 C1771 1.393 . S
C1775 C1774 1.391 . S
H1776 C1784 0.950 1_556 S
H1777 C1789 0.950 . S
H1778 C1786 0.950 . S
H1779 C1788 0.950 . S
H1780 C1790 0.950 . S
H1781 C1792 0.950 1_554 S
H1782 C1794 0.950 . S
H1783 C1795 0.950 . S
C1784 H1776 0.950 1_554 S
C1784 C1785 1.386 . S
C1784 C1786 1.391 1_554 S
C1785 C1784 1.386 . S
C1785 C1789 1.393 . S
C1786 H1778 0.950 . S
C1786 C1784 1.391 1_556 S
C1786 C1787 1.418 . S
C1787 C1786 1.418 . S
C1787 C1788 1.363 1_556 S
C1787 C1793 1.509 . S
C1788 H1779 0.950 . S
C1788 C1787 1.363 1_554 S
C1788 C1789 1.391 . S
C1789 H1777 0.950 . S
C1789 C1785 1.393 . S
C1789 C1788 1.391 . S
C1790 H1780 0.950 . S
C1790 C1791 1.386 . S
C1790 C1792 1.391 . S
C1791 C1790 1.386 . S
C1791 C1795 1.393 . S
C1792 H1781 0.950 1_556 S
C1792 C1790 1.391 . S
C1792 C1793 1.400 . S
C1793 C1787 1.509 . S
C1793 C1792 1.400 . S
C1793 C1794 1.398 . S
C1794 H1782 0.950 . S
C1794 C1793 1.398 . S
C1794 C1795 1.391 . S
C1795 H1783 0.950 . S
C1795 C1791 1.393 . S
C1795 C1794 1.391 . S
H1796 C1804 0.933 1_556 S
H1797 C1809 0.950 . S
H1798 C1806 0.950 1_556 S
H1799 C1808 0.950 . S
H1800 C1810 0.950 . S
H1801 C1812 0.950 . S
H1802 C1814 0.950 1_556 S
H1803 C1815 0.950 1_556 S
C1804 H1796 0.933 1_554 S
C1804 C1805 1.386 . S
C1804 C1806 1.391 . S
C1805 C1804 1.386 . S
C1805 C1809 1.393 . S
C1806 H1798 0.950 1_554 S
C1806 C1804 1.391 . S
C1806 C1807 1.400 . S
C1807 C1806 1.400 . S
C1807 C1808 1.398 . S
C1807 C1813 1.491 . S
C1808 H1799 0.950 . S
C1808 C1807 1.398 . S
C1808 C1809 1.391 . S
C1809 H1797 0.950 . S
C1809 C1805 1.393 . S
C1809 C1808 1.391 . S
C1810 H1800 0.950 . S
C1810 C1811 1.386 . S
C1810 C1812 1.391 . S
C1811 C1810 1.386 . S
C1811 C1815 1.393 . S
C1812 H1801 0.950 . S
C1812 C1810 1.391 . S
C1812 C1813 1.400 . S
C1813 C1807 1.491 . S
C1813 C1812 1.400 . S
C1813 C1814 1.398 . S
C1814 H1802 0.950 1_554 S
C1814 C1813 1.398 . S
C1814 C1815 1.391 . S
C1815 H1803 0.950 1_554 S
C1815 C1811 1.393 . S
C1815 C1814 1.391 . S
H1816 C1824 0.950 . S
H1817 C1829 0.950 . S
H1818 C1826 0.950 . S
H1819 C1828 0.950 . S
H1820 C1830 0.950 . S
H1821 C1832 0.950 . S
H1822 C1834 0.950 . S
H1823 C1835 0.950 . S
C1824 H1816 0.950 . S
C1824 C1825 1.386 . S
C1824 C1826 1.391 . S
C1825 C1824 1.386 . S
C1825 C1829 1.393 . S
C1826 H1818 0.950 . S
C1826 C1824 1.391 . S
C1826 C1827 1.400 . S
C1827 C1826 1.400 . S
C1827 C1828 1.398 . S
C1827 C1833 1.491 . S
C1828 H1819 0.950 . S
C1828 C1827 1.398 . S
C1828 C1829 1.391 . S
C1829 H1817 0.950 . S
C1829 C1825 1.393 . S
C1829 C1828 1.391 . S
C1830 H1820 0.950 . S
C1830 C1831 1.386 . S
C1830 C1832 1.391 . S
C1831 C1830 1.386 . S
C1831 C1835 1.393 . S
C1832 H1821 0.950 . S
C1832 C1830 1.391 . S
C1832 C1833 1.400 . S
C1833 C1827 1.491 . S
C1833 C1832 1.400 . S
C1833 C1834 1.398 . S
C1834 H1822 0.950 . S
C1834 C1833 1.398 . S
C1834 C1835 1.391 . S
C1835 H1823 0.950 . S
C1835 C1831 1.393 . S
C1835 C1834 1.391 . S
H1836 C1844 0.950 . S
H1837 C1849 0.950 . S
H1838 C1846 0.950 . S
H1839 C1848 0.950 . S
H1840 C1850 0.950 . S
H1841 C1852 0.950 . S
H1842 C1854 0.950 . S
H1843 C1855 0.950 . S
C1844 H1836 0.950 . S
C1844 C1845 1.386 . S
C1844 C1846 1.391 . S
C1845 C1844 1.386 . S
C1845 C1849 1.393 . S
C1846 H1838 0.950 . S
C1846 C1844 1.391 . S
C1846 C1847 1.400 . S
C1847 C1846 1.400 . S
C1847 C1848 1.398 . S
C1847 C1853 1.491 . S
C1848 H1839 0.950 . S
C1848 C1847 1.398 . S
C1848 C1849 1.391 . S
C1849 H1837 0.950 . S
C1849 C1845 1.393 . S
C1849 C1848 1.391 . S
C1850 H1840 0.950 . S
C1850 C1851 1.386 . S
C1850 C1852 1.391 . S
C1851 C1850 1.386 . S
C1851 C1855 1.393 . S
C1852 H1841 0.950 . S
C1852 C1850 1.391 . S
C1852 C1853 1.400 . S
C1853 C1847 1.491 . S
C1853 C1852 1.400 . S
C1853 C1854 1.398 . S
C1854 H1842 0.950 . S
C1854 C1853 1.398 . S
C1854 C1855 1.391 . S
C1855 H1843 0.950 . S
C1855 C1851 1.393 . S
C1855 C1854 1.391 . S
H1856 C1864 0.975 . S
H1857 C1869 0.950 . S
H1858 C1866 0.950 . S
H1859 C1868 0.950 . S
H1860 C1870 0.950 . S
H1861 C1872 0.950 . S
H1862 C1874 0.950 . S
H1863 C1875 0.950 . S
C1864 H1856 0.975 . S
C1864 C1865 1.404 . S
C1864 C1866 1.351 1_545 S
C1865 C1864 1.404 . S
C1865 C1869 1.393 1_545 S
C1866 H1858 0.950 . S
C1866 C1864 1.351 1_565 S
C1866 C1867 1.400 . S
C1867 C1866 1.400 . S
C1867 C1868 1.398 . S
C1867 C1873 1.491 . S
C1868 H1859 0.950 . S
C1868 C1867 1.398 . S
C1868 C1869 1.391 . S
C1869 H1857 0.950 . S
C1869 C1865 1.393 1_565 S
C1869 C1868 1.391 . S
C1870 H1860 0.950 . S
C1870 C1871 1.386 . S
C1870 C1872 1.391 . S
C1871 C1870 1.386 . S
C1871 C1875 1.393 . S
C1872 H1861 0.950 . S
C1872 C1870 1.391 . S
C1872 C1873 1.400 . S
C1873 C1867 1.491 . S
C1873 C1872 1.400 . S
C1873 C1874 1.398 . S
C1874 H1862 0.950 . S
C1874 C1873 1.398 . S
C1874 C1875 1.391 . S
C1875 H1863 0.950 . S
C1875 C1871 1.393 . S
C1875 C1874 1.391 . S
H1876 C1884 0.950 . S
H1877 C1889 0.950 . S
H1878 C1886 0.950 . S
H1879 C1888 0.950 . S
H1880 C1890 0.950 . S
H1881 C1892 0.950 . S
H1882 C1894 0.950 . S
H1883 C1895 0.950 . S
C1884 H1876 0.950 . S
C1884 C1885 1.386 . S
C1884 C1886 1.391 . S
C1885 C1884 1.386 . S
C1885 C1889 1.393 . S
C1886 H1878 0.950 . S
C1886 C1884 1.391 . S
C1886 C1887 1.400 . S
C1887 C1886 1.400 . S
C1887 C1888 1.398 . S
C1887 C1893 1.491 . S
C1888 H1879 0.950 . S
C1888 C1887 1.398 . S
C1888 C1889 1.391 . S
C1889 H1877 0.950 . S
C1889 C1885 1.393 . S
C1889 C1888 1.391 . S
C1890 H1880 0.950 . S
C1890 C1891 1.386 . S
C1890 C1892 1.391 . S
C1891 C1890 1.386 . S
C1891 C1895 1.393 . S
C1892 H1881 0.950 . S
C1892 C1890 1.391 . S
C1892 C1893 1.400 . S
C1893 C1887 1.491 . S
C1893 C1892 1.400 . S
C1893 C1894 1.398 . S
C1894 H1882 0.950 . S
C1894 C1893 1.398 . S
C1894 C1895 1.391 . S
C1895 H1883 0.950 . S
C1895 C1891 1.393 . S
C1895 C1894 1.391 . S
H1896 C1904 0.950 . S
H1897 C1909 0.950 . S
H1898 C1906 0.950 . S
H1899 C1908 0.950 . S
H1900 C1910 0.950 . S
H1901 C1912 0.950 . S
H1902 C1914 0.950 . S
H1903 C1915 0.950 . S
C1904 H1896 0.950 . S
C1904 C1905 1.386 . S
C1904 C1906 1.391 . S
C1905 C1904 1.386 . S
C1905 C1909 1.393 . S
C1906 H1898 0.950 . S
C1906 C1904 1.391 . S
C1906 C1907 1.400 . S
C1907 C1906 1.400 . S
C1907 C1908 1.398 . S
C1907 C1913 1.491 . S
C1908 H1899 0.950 . S
C1908 C1907 1.398 . S
C1908 C1909 1.391 . S
C1909 H1897 0.950 . S
C1909 C1905 1.393 . S
C1909 C1908 1.391 . S
C1910 H1900 0.950 . S
C1910 C1911 1.386 . S
C1910 C1912 1.391 . S
C1911 C1910 1.386 . S
C1911 C1915 1.393 . S
C1912 H1901 0.950 . S
C1912 C1910 1.391 . S
C1912 C1913 1.400 . S
C1913 C1907 1.491 . S
C1913 C1912 1.400 . S
C1913 C1914 1.398 . S
C1914 H1902 0.950 . S
C1914 C1913 1.398 . S
C1914 C1915 1.391 . S
C1915 H1903 0.950 . S
C1915 C1911 1.393 . S
C1915 C1914 1.391 . S
H1916 C1924 0.950 . S
H1917 C1929 0.950 . S
H1918 C1926 0.950 . S
H1919 C1928 0.950 . S
H1920 C1930 0.950 . S
H1921 C1932 0.950 . S
H1922 C1934 0.950 . S
H1923 C1935 0.950 . S
C1924 H1916 0.950 . S
C1924 C1925 1.386 . S
C1924 C1926 1.391 . S
C1925 C1924 1.386 . S
C1925 C1929 1.393 . S
C1926 H1918 0.950 . S
C1926 C1924 1.391 . S
C1926 C1927 1.400 . S
C1927 C1926 1.400 . S
C1927 C1928 1.398 . S
C1927 C1933 1.491 . S
C1928 H1919 0.950 . S
C1928 C1927 1.398 . S
C1928 C1929 1.391 . S
C1929 H1917 0.950 . S
C1929 C1925 1.393 . S
C1929 C1928 1.391 . S
C1930 H1920 0.950 . S
C1930 C1931 1.386 . S
C1930 C1932 1.391 . S
C1931 C1930 1.386 . S
C1931 C1935 1.393 . S
C1932 H1921 0.950 . S
C1932 C1930 1.391 . S
C1932 C1933 1.400 . S
C1933 C1927 1.491 . S
C1933 C1932 1.400 . S
C1933 C1934 1.398 . S
C1934 H1922 0.950 . S
C1934 C1933 1.398 . S
C1934 C1935 1.391 . S
C1935 H1923 0.950 . S
C1935 C1931 1.393 . S
C1935 C1934 1.391 . S
H1936 C1944 0.950 . S
H1937 C1949 0.950 . S
H1938 C1946 0.950 . S
H1939 C1948 0.950 . S
H1940 C1950 0.950 . S
H1941 C1952 0.950 . S
H1942 C1954 0.950 . S
H1943 C1955 0.950 . S
C1944 H1936 0.950 . S
C1944 C1945 1.386 . S
C1944 C1946 1.391 . S
C1945 C1944 1.386 . S
C1945 C1949 1.393 . S
C1946 H1938 0.950 . S
C1946 C1944 1.391 . S
C1946 C1947 1.400 . S
C1947 C1946 1.400 . S
C1947 C1948 1.398 . S
C1947 C1953 1.491 . S
C1948 H1939 0.950 . S
C1948 C1947 1.398 . S
C1948 C1949 1.391 . S
C1949 H1937 0.950 . S
C1949 C1945 1.393 . S
C1949 C1948 1.391 . S
C1950 H1940 0.950 . S
C1950 C1951 1.386 . S
C1950 C1952 1.391 . S
C1951 C1950 1.386 . S
C1951 C1955 1.393 . S
C1952 H1941 0.950 . S
C1952 C1950 1.391 . S
C1952 C1953 1.400 . S
C1953 C1947 1.491 . S
C1953 C1952 1.400 . S
C1953 C1954 1.398 . S
C1954 H1942 0.950 . S
C1954 C1953 1.398 . S
C1954 C1955 1.391 . S
C1955 H1943 0.950 . S
C1955 C1951 1.393 . S
C1955 C1954 1.391 . S
H1956 C1964 0.950 . S
H1957 C1969 0.950 . S
H1958 C1966 0.950 . S
H1959 C1968 0.950 . S
H1960 C1970 0.950 . S
H1961 C1972 0.950 . S
H1962 C1974 0.950 . S
H1963 C1975 0.950 . S
C1964 H1956 0.950 . S
C1964 C1965 1.386 . S
C1964 C1966 1.391 . S
C1965 C1964 1.386 . S
C1965 C1969 1.393 . S
C1966 H1958 0.950 . S
C1966 C1964 1.391 . S
C1966 C1967 1.400 . S
C1967 C1966 1.400 . S
C1967 C1968 1.398 . S
C1967 C1973 1.491 . S
C1968 H1959 0.950 . S
C1968 C1967 1.398 . S
C1968 C1969 1.391 . S
C1969 H1957 0.950 . S
C1969 C1965 1.393 . S
C1969 C1968 1.391 . S
C1970 H1960 0.950 . S
C1970 C1971 1.386 . S
C1970 C1972 1.391 . S
C1971 C1970 1.386 . S
C1971 C1975 1.393 . S
C1972 H1961 0.950 . S
C1972 C1970 1.391 . S
C1972 C1973 1.400 . S
C1973 C1967 1.491 . S
C1973 C1972 1.400 . S
C1973 C1974 1.398 . S
C1974 H1962 0.950 . S
C1974 C1973 1.398 . S
C1974 C1975 1.391 . S
C1975 H1963 0.950 . S
C1975 C1971 1.393 . S
C1975 C1974 1.391 . S
H1976 C1984 0.950 1_655 S
H1977 C1989 0.950 . S
H1978 C1986 0.933 1_655 S
H1979 C1988 0.950 . S
H1980 C1990 0.950 . S
H1981 C1992 0.950 . S
H1982 C1994 0.950 . S
H1983 C1995 0.950 . S
C1984 H1976 0.950 1_455 S
C1984 C1985 1.386 . S
C1984 C1986 1.391 . S
C1985 C1984 1.386 . S
C1985 C1989 1.393 . S
C1986 H1978 0.933 1_455 S
C1986 C1984 1.391 . S
C1986 C1987 1.400 . S
C1987 C1986 1.400 . S
C1987 C1988 1.398 . S
C1987 C1993 1.491 . S
C1988 H1979 0.950 . S
C1988 C1987 1.398 . S
C1988 C1989 1.391 . S
C1989 H1977 0.950 . S
C1989 C1985 1.393 . S
C1989 C1988 1.391 . S
C1990 H1980 0.950 . S
C1990 C1991 1.383 1_556 S
C1990 C1992 1.391 . S
C1991 C1990 1.383 1_554 S
C1991 C1995 1.392 1_554 S
C1992 H1981 0.950 . S
C1992 C1990 1.391 . S
C1992 C1993 1.400 . S
C1993 C1987 1.491 . S
C1993 C1992 1.400 . S
C1993 C1994 1.398 . S
C1994 H1982 0.950 . S
C1994 C1993 1.398 . S
C1994 C1995 1.391 . S
C1995 H1983 0.950 . S
C1995 C1991 1.392 1_556 S
C1995 C1994 1.391 . S
H1996 C2004 0.950 . S
H1997 C2009 0.950 . S
H1998 C2006 0.955 1_455 S
H1999 C2008 0.950 . S
H2000 C2010 0.950 . S
H2001 C2012 0.950 . S
H2002 C2014 0.950 . S
H2003 C2015 0.950 . S
C2004 H1996 0.950 . S
C2004 C2005 1.386 . S
C2004 C2006 1.370 1_455 S
C2005 C2004 1.386 . S
C2005 C2009 1.393 1_455 S
C2006 H1998 0.955 1_655 S
C2006 C2004 1.370 1_655 S
C2006 C2007 1.421 . S
C2007 C2006 1.421 . S
C2007 C2008 1.398 . S
C2007 C2013 1.491 . S
C2008 H1999 0.950 . S
C2008 C2007 1.398 . S
C2008 C2009 1.391 . S
C2009 H1997 0.950 . S
C2009 C2005 1.393 1_655 S
C2009 C2008 1.391 . S
C2010 H2000 0.950 . S
C2010 C2011 1.386 . S
C2010 C2012 1.391 . S
C2011 C2010 1.386 . S
C2011 C2015 1.393 . S
C2012 H2001 0.950 . S
C2012 C2010 1.391 . S
C2012 C2013 1.400 . S
C2013 C2007 1.491 . S
C2013 C2012 1.400 . S
C2013 C2014 1.398 . S
C2014 H2002 0.950 . S
C2014 C2013 1.398 . S
C2014 C2015 1.391 . S
C2015 H2003 0.950 . S
C2015 C2011 1.393 . S
C2015 C2014 1.391 . S
H2016 C2024 0.950 . S
H2017 C2029 0.950 . S
H2018 C2026 0.950 . S
H2019 C2028 0.950 . S
H2020 C2030 0.950 . S
H2021 C2032 0.950 . S
H2022 C2034 0.950 . S
H2023 C2035 0.950 . S
C2024 H2016 0.950 . S
C2024 C2025 1.386 . S
C2024 C2026 1.391 . S
C2025 C2024 1.386 . S
C2025 C2029 1.393 . S
C2026 H2018 0.950 . S
C2026 C2024 1.391 . S
C2026 C2027 1.400 . S
C2027 C2026 1.400 . S
C2027 C2028 1.398 . S
C2027 C2033 1.491 . S
C2028 H2019 0.950 . S
C2028 C2027 1.398 . S
C2028 C2029 1.391 . S
C2029 H2017 0.950 . S
C2029 C2025 1.393 . S
C2029 C2028 1.391 . S
C2030 H2020 0.950 . S
C2030 C2031 1.386 . S
C2030 C2032 1.391 . S
C2031 C2030 1.386 . S
C2031 C2035 1.393 . S
C2032 H2021 0.950 . S
C2032 C2030 1.391 . S
C2032 C2033 1.400 . S
C2033 C2027 1.491 . S
C2033 C2032 1.400 . S
C2033 C2034 1.398 . S
C2034 H2022 0.950 . S
C2034 C2033 1.398 . S
C2034 C2035 1.391 . S
C2035 H2023 0.950 . S
C2035 C2031 1.393 . S
C2035 C2034 1.391 . S
H2036 C2044 0.950 . S
H2037 C2049 0.950 . S
H2038 C2046 0.950 . S
H2039 C2048 0.950 . S
H2040 C2050 0.950 . S
H2041 C2052 0.950 . S
H2042 C2054 0.950 . S
H2043 C2055 0.950 . S
C2044 H2036 0.950 . S
C2044 C2045 1.386 . S
C2044 C2046 1.391 . S
C2045 C2044 1.386 . S
C2045 C2049 1.393 . S
C2046 H2038 0.950 . S
C2046 C2044 1.391 . S
C2046 C2047 1.400 . S
C2047 C2046 1.400 . S
C2047 C2048 1.398 . S
C2047 C2053 1.491 1_455 S
C2048 H2039 0.950 . S
C2048 C2047 1.398 . S
C2048 C2049 1.391 . S
C2049 H2037 0.950 . S
C2049 C2045 1.393 . S
C2049 C2048 1.391 . S
C2050 H2040 0.950 . S
C2050 C2051 1.386 . S
C2050 C2052 1.391 . S
C2051 C2050 1.386 . S
C2051 C2055 1.393 . S
C2052 H2041 0.950 . S
C2052 C2050 1.391 . S
C2052 C2053 1.400 . S
C2053 C2047 1.491 1_655 S
C2053 C2052 1.400 . S
C2053 C2054 1.398 . S
C2054 H2042 0.950 . S
C2054 C2053 1.398 . S
C2054 C2055 1.391 . S
C2055 H2043 0.950 . S
C2055 C2051 1.393 . S
C2055 C2054 1.391 . S
H2056 C2064 0.950 . S
H2057 C2069 0.950 . S
H2058 C2066 0.950 . S
H2059 C2068 0.950 . S
H2060 C2070 0.950 . S
H2061 C2072 0.950 . S
H2062 C2074 0.950 . S
H2063 C2075 0.950 . S
C2064 H2056 0.950 . S
C2064 C2065 1.386 . S
C2064 C2066 1.391 1_655 S
C2065 C2064 1.386 . S
C2065 C2069 1.393 1_655 S
C2066 H2058 0.950 . S
C2066 C2064 1.391 1_455 S
C2066 C2067 1.400 . S
C2067 C2066 1.400 . S
C2067 C2068 1.398 . S
C2067 C2073 1.491 . S
C2068 H2059 0.950 . S
C2068 C2067 1.398 . S
C2068 C2069 1.391 . S
C2069 H2057 0.950 . S
C2069 C2065 1.393 1_455 S
C2069 C2068 1.391 . S
C2070 H2060 0.950 . S
C2070 C2071 1.386 . S
C2070 C2072 1.391 . S
C2071 C2070 1.386 . S
C2071 C2075 1.393 . S
C2072 H2061 0.950 . S
C2072 C2070 1.391 . S
C2072 C2073 1.400 . S
C2073 C2067 1.491 . S
C2073 C2072 1.400 . S
C2073 C2074 1.398 . S
C2074 H2062 0.950 . S
C2074 C2073 1.398 . S
C2074 C2075 1.391 . S
C2075 H2063 0.950 . S
C2075 C2071 1.393 . S
C2075 C2074 1.391 . S
H2076 C2084 0.950 . S
H2077 C2089 0.950 . S
H2078 C2086 0.950 . S
H2079 C2088 0.950 . S
H2080 C2090 0.950 . S
H2081 C2092 0.950 . S
H2082 C2094 0.950 . S
H2083 C2095 0.950 . S
C2084 H2076 0.950 . S
C2084 C2085 1.386 . S
C2084 C2086 1.391 . S
C2085 C2084 1.386 . S
C2085 C2089 1.393 . S
C2086 H2078 0.950 . S
C2086 C2084 1.391 . S
C2086 C2087 1.400 . S
C2087 C2086 1.400 . S
C2087 C2088 1.398 . S
C2087 C2093 1.491 . S
C2088 H2079 0.950 . S
C2088 C2087 1.398 . S
C2088 C2089 1.391 . S
C2089 H2077 0.950 . S
C2089 C2085 1.393 . S
C2089 C2088 1.391 . S
C2090 H2080 0.950 . S
C2090 C2091 1.386 . S
C2090 C2092 1.391 . S
C2091 C2090 1.386 . S
C2091 C2095 1.393 . S
C2092 H2081 0.950 . S
C2092 C2090 1.391 . S
C2092 C2093 1.400 . S
C2093 C2087 1.491 . S
C2093 C2092 1.400 . S
C2093 C2094 1.398 . S
C2094 H2082 0.950 . S
C2094 C2093 1.398 . S
C2094 C2095 1.391 . S
C2095 H2083 0.950 . S
C2095 C2091 1.393 . S
C2095 C2094 1.391 . S
H2096 C2104 0.950 . S
H2097 C2109 0.950 . S
H2098 C2106 0.950 . S
H2099 C2108 0.950 . S
H2100 C2110 0.950 . S
H2101 C2112 0.950 . S
H2102 C2114 0.950 . S
H2103 C2115 0.950 . S
C2104 H2096 0.950 . S
C2104 C2105 1.386 . S
C2104 C2106 1.391 . S
C2105 C2104 1.386 . S
C2105 C2109 1.393 . S
C2106 H2098 0.950 . S
C2106 C2104 1.391 . S
C2106 C2107 1.400 . S
C2107 C2106 1.400 . S
C2107 C2108 1.398 . S
C2107 C2113 1.491 . S
C2108 H2099 0.950 . S
C2108 C2107 1.398 . S
C2108 C2109 1.391 . S
C2109 H2097 0.950 . S
C2109 C2105 1.393 . S
C2109 C2108 1.391 . S
C2110 H2100 0.950 . S
C2110 C2111 1.386 . S
C2110 C2112 1.391 . S
C2111 C2110 1.386 . S
C2111 C2115 1.393 . S
C2112 H2101 0.950 . S
C2112 C2110 1.391 . S
C2112 C2113 1.400 . S
C2113 C2107 1.491 . S
C2113 C2112 1.400 . S
C2113 C2114 1.398 . S
C2114 H2102 0.950 . S
C2114 C2113 1.398 . S
C2114 C2115 1.391 . S
C2115 H2103 0.950 . S
C2115 C2111 1.393 . S
C2115 C2114 1.391 . S
H2116 C2124 0.950 . S
H2117 C2129 0.950 . S
H2118 C2126 0.950 . S
H2119 C2128 0.950 . S
H2120 C2130 0.950 . S
H2121 C2132 0.950 . S
H2122 C2134 0.950 . S
H2123 C2135 0.950 . S
C2124 H2116 0.950 . S
C2124 C2125 1.386 . S
C2124 C2126 1.391 . S
C2125 C2124 1.386 . S
C2125 C2129 1.393 . S
C2126 H2118 0.950 . S
C2126 C2124 1.391 . S
C2126 C2127 1.400 . S
C2127 C2126 1.400 . S
C2127 C2128 1.398 . S
C2127 C2133 1.491 . S
C2128 H2119 0.950 . S
C2128 C2127 1.398 . S
C2128 C2129 1.391 . S
C2129 H2117 0.950 . S
C2129 C2125 1.393 . S
C2129 C2128 1.391 . S
C2130 H2120 0.950 . S
C2130 C2131 1.386 . S
C2130 C2132 1.391 . S
C2131 C2130 1.386 . S
C2131 C2135 1.393 . S
C2132 H2121 0.950 . S
C2132 C2130 1.391 . S
C2132 C2133 1.400 . S
C2133 C2127 1.491 . S
C2133 C2132 1.400 . S
C2133 C2134 1.398 . S
C2134 H2122 0.950 . S
C2134 C2133 1.398 . S
C2134 C2135 1.391 . S
C2135 H2123 0.950 . S
C2135 C2131 1.393 . S
C2135 C2134 1.391 . S
H2136 C2144 0.950 . S
H2137 C2149 0.950 . S
H2138 C2146 0.950 . S
H2139 C2148 0.950 . S
H2140 C2150 0.950 . S
H2141 C2152 0.950 . S
H2142 C2154 0.950 . S
H2143 C2155 0.950 . S
C2144 H2136 0.950 . S
C2144 C2145 1.386 . S
C2144 C2146 1.391 . S
C2145 C2144 1.386 . S
C2145 C2149 1.393 . S
C2146 H2138 0.950 . S
C2146 C2144 1.391 . S
C2146 C2147 1.400 . S
C2147 C2146 1.400 . S
C2147 C2148 1.398 . S
C2147 C2153 1.491 . S
C2148 H2139 0.950 . S
C2148 C2147 1.398 . S
C2148 C2149 1.391 . S
C2149 H2137 0.950 . S
C2149 C2145 1.393 . S
C2149 C2148 1.391 . S
C2150 H2140 0.950 . S
C2150 C2151 1.386 . S
C2150 C2152 1.391 . S
C2151 C2150 1.386 . S
C2151 C2155 1.393 . S
C2152 H2141 0.950 . S
C2152 C2150 1.391 . S
C2152 C2153 1.400 . S
C2153 C2147 1.491 . S
C2153 C2152 1.400 . S
C2153 C2154 1.398 . S
C2154 H2142 0.950 . S
C2154 C2153 1.398 . S
C2154 C2155 1.391 . S
C2155 H2143 0.950 . S
C2155 C2151 1.393 . S
C2155 C2154 1.391 . S
H2156 C2164 0.950 . S
H2157 C2169 0.950 . S
H2158 C2166 0.950 . S
H2159 C2168 0.950 . S
H2160 C2170 0.950 . S
H2161 C2172 0.950 . S
H2162 C2174 0.950 . S
H2163 C2175 0.950 . S
C2164 H2156 0.950 . S
C2164 C2165 1.386 . S
C2164 C2166 1.391 . S
C2165 C2164 1.386 . S
C2165 C2169 1.393 . S
C2166 H2158 0.950 . S
C2166 C2164 1.391 . S
C2166 C2167 1.400 . S
C2167 C2166 1.400 . S
C2167 C2168 1.398 . S
C2167 C2173 1.491 . S
C2168 H2159 0.950 . S
C2168 C2167 1.398 . S
C2168 C2169 1.391 . S
C2169 H2157 0.950 . S
C2169 C2165 1.393 . S
C2169 C2168 1.391 . S
C2170 H2160 0.950 . S
C2170 C2171 1.386 . S
C2170 C2172 1.391 . S
C2171 C2170 1.386 . S
C2171 C2175 1.393 . S
C2172 H2161 0.950 . S
C2172 C2170 1.391 . S
C2172 C2173 1.400 . S
C2173 C2167 1.491 . S
C2173 C2172 1.400 . S
C2173 C2174 1.398 . S
C2174 H2162 0.950 . S
C2174 C2173 1.398 . S
C2174 C2175 1.391 . S
C2175 H2163 0.950 . S
C2175 C2171 1.393 . S
C2175 C2174 1.391 . S
H2176 C2184 0.950 . S
H2177 C2189 0.950 . S
H2178 C2186 0.950 . S
H2179 C2188 0.950 . S
H2180 C2190 0.950 . S
H2181 C2192 0.950 . S
H2182 C2194 0.950 . S
H2183 C2195 0.950 . S
C2184 H2176 0.950 . S
C2184 C2185 1.386 . S
C2184 C2186 1.391 . S
C2185 C2184 1.386 . S
C2185 C2189 1.393 . S
C2186 H2178 0.950 . S
C2186 C2184 1.391 . S
C2186 C2187 1.400 . S
C2187 C2186 1.400 . S
C2187 C2188 1.398 . S
C2187 C2193 1.491 . S
C2188 H2179 0.950 . S
C2188 C2187 1.398 . S
C2188 C2189 1.391 . S
C2189 H2177 0.950 . S
C2189 C2185 1.393 . S
C2189 C2188 1.391 . S
C2190 H2180 0.950 . S
C2190 C2191 1.386 . S
C2190 C2192 1.391 . S
C2191 C2190 1.386 . S
C2191 C2195 1.393 . S
C2192 H2181 0.950 . S
C2192 C2190 1.391 . S
C2192 C2193 1.400 . S
C2193 C2187 1.491 . S
C2193 C2192 1.400 . S
C2193 C2194 1.398 . S
C2194 H2182 0.950 . S
C2194 C2193 1.398 . S
C2194 C2195 1.391 . S
C2195 H2183 0.950 . S
C2195 C2191 1.393 . S
C2195 C2194 1.391 . S
H2196 C2204 0.950 . S
H2197 C2209 0.950 . S
H2198 C2206 0.950 . S
H2199 C2208 0.950 . S
H2200 C2210 0.950 . S
H2201 C2212 0.950 . S
H2202 C2214 0.950 . S
H2203 C2215 0.950 . S
C2204 H2196 0.950 . S
C2204 C2205 1.386 . S
C2204 C2206 1.391 . S
C2205 C2204 1.386 . S
C2205 C2209 1.393 . S
C2206 H2198 0.950 . S
C2206 C2204 1.391 . S
C2206 C2207 1.400 . S
C2207 C2206 1.400 . S
C2207 C2208 1.398 . S
C2207 C2213 1.491 . S
C2208 H2199 0.950 . S
C2208 C2207 1.398 . S
C2208 C2209 1.391 . S
C2209 H2197 0.950 . S
C2209 C2205 1.393 . S
C2209 C2208 1.391 . S
C2210 H2200 0.950 . S
C2210 C2211 1.386 . S
C2210 C2212 1.391 . S
C2211 C2210 1.386 . S
C2211 C2215 1.393 . S
C2212 H2201 0.950 . S
C2212 C2210 1.391 . S
C2212 C2213 1.400 . S
C2213 C2207 1.491 . S
C2213 C2212 1.400 . S
C2213 C2214 1.398 . S
C2214 H2202 0.950 . S
C2214 C2213 1.398 . S
C2214 C2215 1.391 . S
C2215 H2203 0.950 . S
C2215 C2211 1.393 . S
C2215 C2214 1.391 . S
H2216 C2224 0.950 . S
H2217 C2229 0.950 . S
H2218 C2226 0.950 . S
H2219 C2228 0.950 . S
H2220 C2230 0.950 . S
H2221 C2232 0.950 . S
H2222 C2234 0.950 . S
H2223 C2235 0.950 . S
C2224 H2216 0.950 . S
C2224 C2225 1.386 . S
C2224 C2226 1.391 . S
C2225 C2224 1.386 . S
C2225 C2229 1.393 . S
C2226 H2218 0.950 . S
C2226 C2224 1.391 . S
C2226 C2227 1.400 . S
C2227 C2226 1.400 . S
C2227 C2228 1.398 . S
C2227 C2233 1.491 . S
C2228 H2219 0.950 . S
C2228 C2227 1.398 . S
C2228 C2229 1.391 . S
C2229 H2217 0.950 . S
C2229 C2225 1.393 . S
C2229 C2228 1.391 . S
C2230 H2220 0.950 . S
C2230 C2231 1.386 . S
C2230 C2232 1.391 . S
C2231 C2230 1.386 . S
C2231 C2235 1.393 . S
C2232 H2221 0.950 . S
C2232 C2230 1.391 . S
C2232 C2233 1.400 . S
C2233 C2227 1.491 . S
C2233 C2232 1.400 . S
C2233 C2234 1.398 . S
C2234 H2222 0.950 . S
C2234 C2233 1.398 . S
C2234 C2235 1.391 . S
C2235 H2223 0.950 . S
C2235 C2231 1.393 . S
C2235 C2234 1.391 . S
H2236 C2244 0.950 . S
H2237 C2249 0.950 . S
H2238 C2246 0.950 . S
H2239 C2248 0.950 . S
H2240 C2250 0.950 . S
H2241 C2252 0.950 . S
H2242 C2254 0.950 . S
H2243 C2255 0.950 . S
C2244 H2236 0.950 . S
C2244 C2245 1.386 . S
C2244 C2246 1.391 . S
C2245 C2244 1.386 . S
C2245 C2249 1.393 . S
C2246 H2238 0.950 . S
C2246 C2244 1.391 . S
C2246 C2247 1.400 . S
C2247 C2246 1.400 . S
C2247 C2248 1.398 . S
C2247 C2253 1.491 . S
C2248 H2239 0.950 . S
C2248 C2247 1.398 . S
C2248 C2249 1.391 . S
C2249 H2237 0.950 . S
C2249 C2245 1.393 . S
C2249 C2248 1.391 . S
C2250 H2240 0.950 . S
C2250 C2251 1.386 . S
C2250 C2252 1.391 . S
C2251 C2250 1.386 . S
C2251 C2255 1.393 . S
C2252 H2241 0.950 . S
C2252 C2250 1.391 . S
C2252 C2253 1.400 . S
C2253 C2247 1.491 . S
C2253 C2252 1.400 . S
C2253 C2254 1.398 . S
C2254 H2242 0.950 . S
C2254 C2253 1.398 . S
C2254 C2255 1.391 . S
C2255 H2243 0.950 . S
C2255 C2251 1.393 . S
C2255 C2254 1.391 . S
H2256 C2264 0.950 . S
H2257 C2269 0.950 . S
H2258 C2266 0.950 . S
H2259 C2268 0.950 . S
H2260 C2270 0.950 . S
H2261 C2272 0.950 . S
H2262 C2274 0.950 . S
H2263 C2275 0.950 . S
C2264 H2256 0.950 . S
C2264 C2265 1.386 . S
C2264 C2266 1.391 . S
C2265 C2264 1.386 . S
C2265 C2269 1.393 . S
C2266 H2258 0.950 . S
C2266 C2264 1.391 . S
C2266 C2267 1.400 . S
C2267 C2266 1.400 . S
C2267 C2268 1.398 . S
C2267 C2273 1.491 . S
C2268 H2259 0.950 . S
C2268 C2267 1.398 . S
C2268 C2269 1.391 . S
C2269 H2257 0.950 . S
C2269 C2265 1.393 . S
C2269 C2268 1.391 . S
C2270 H2260 0.950 . S
C2270 C2271 1.386 . S
C2270 C2272 1.391 . S
C2271 C2270 1.386 . S
C2271 C2275 1.393 . S
C2272 H2261 0.950 . S
C2272 C2270 1.391 . S
C2272 C2273 1.400 . S
C2273 C2267 1.491 . S
C2273 C2272 1.400 . S
C2273 C2274 1.398 . S
C2274 H2262 0.950 . S
C2274 C2273 1.398 . S
C2274 C2275 1.391 . S
C2275 H2263 0.950 . S
C2275 C2271 1.393 . S
C2275 C2274 1.391 . S
H2276 C2284 0.950 . S
H2277 C2289 0.950 . S
H2278 C2286 0.950 . S
H2279 C2288 0.950 . S
H2280 C2290 0.950 . S
H2281 C2292 0.950 . S
H2282 C2294 0.950 . S
H2283 C2295 0.950 . S
C2284 H2276 0.950 . S
C2284 C2285 1.386 . S
C2284 C2286 1.391 . S
C2285 C2284 1.386 . S
C2285 C2289 1.393 . S
C2286 H2278 0.950 . S
C2286 C2284 1.391 . S
C2286 C2287 1.400 . S
C2287 C2286 1.400 . S
C2287 C2288 1.398 . S
C2287 C2293 1.491 . S
C2288 H2279 0.950 . S
C2288 C2287 1.398 . S
C2288 C2289 1.391 . S
C2289 H2277 0.950 . S
C2289 C2285 1.393 . S
C2289 C2288 1.391 . S
C2290 H2280 0.950 . S
C2290 C2291 1.386 . S
C2290 C2292 1.391 . S
C2291 C2290 1.386 . S
C2291 C2295 1.393 . S
C2292 H2281 0.950 . S
C2292 C2290 1.391 . S
C2292 C2293 1.400 . S
C2293 C2287 1.491 . S
C2293 C2292 1.400 . S
C2293 C2294 1.398 . S
C2294 H2282 0.950 . S
C2294 C2293 1.398 . S
C2294 C2295 1.391 . S
C2295 H2283 0.950 . S
C2295 C2291 1.393 . S
C2295 C2294 1.391 . S
H2296 C2304 0.950 . S
H2297 C2309 0.950 . S
H2298 C2306 0.950 . S
H2299 C2308 0.950 . S
H2300 C2310 0.950 . S
H2301 C2312 0.950 . S
H2302 C2314 0.950 . S
H2303 C2315 0.950 . S
C2304 H2296 0.950 . S
C2304 C2305 1.386 . S
C2304 C2306 1.391 . S
C2305 C2304 1.386 . S
C2305 C2309 1.393 . S
C2306 H2298 0.950 . S
C2306 C2304 1.391 . S
C2306 C2307 1.400 . S
C2307 C2306 1.400 . S
C2307 C2308 1.398 . S
C2307 C2313 1.491 . S
C2308 H2299 0.950 . S
C2308 C2307 1.398 . S
C2308 C2309 1.391 . S
C2309 H2297 0.950 . S
C2309 C2305 1.393 . S
C2309 C2308 1.391 . S
C2310 H2300 0.950 . S
C2310 C2311 1.386 . S
C2310 C2312 1.391 . S
C2311 C2310 1.386 . S
C2311 C2315 1.393 . S
C2312 H2301 0.950 . S
C2312 C2310 1.391 . S
C2312 C2313 1.400 . S
C2313 C2307 1.491 . S
C2313 C2312 1.400 . S
C2313 C2314 1.398 . S
C2314 H2302 0.950 . S
C2314 C2313 1.398 . S
C2314 C2315 1.391 . S
C2315 H2303 0.950 . S
C2315 C2311 1.393 . S
C2315 C2314 1.391 . S
H2316 C2324 0.950 . S
H2317 C2329 0.950 . S
H2318 C2326 0.950 . S
H2319 C2328 0.950 1_545 S
H2320 C2330 0.950 . S
H2321 C2332 0.950 . S
H2322 C2334 0.950 . S
H2323 C2335 0.950 . S
C2324 H2316 0.950 . S
C2324 C2325 1.386 . S
C2324 C2326 1.391 . S
C2325 C2324 1.386 . S
C2325 C2329 1.393 . S
C2326 H2318 0.950 . S
C2326 C2324 1.391 . S
C2326 C2327 1.400 . S
C2327 C2326 1.400 . S
C2327 C2328 1.398 . S
C2327 C2333 1.491 . S
C2328 H2319 0.950 1_565 S
C2328 C2327 1.398 . S
C2328 C2329 1.391 . S
C2329 H2317 0.950 . S
C2329 C2325 1.393 . S
C2329 C2328 1.391 . S
C2330 H2320 0.950 . S
C2330 C2331 1.386 . S
C2330 C2332 1.391 . S
C2331 C2330 1.386 . S
C2331 C2335 1.393 1_545 S
C2332 H2321 0.950 . S
C2332 C2330 1.391 . S
C2332 C2333 1.400 1_545 S
C2333 C2327 1.491 . S
C2333 C2332 1.400 1_565 S
C2333 C2334 1.398 . S
C2334 H2322 0.950 . S
C2334 C2333 1.398 . S
C2334 C2335 1.391 . S
C2335 H2323 0.950 . S
C2335 C2331 1.393 1_565 S
C2335 C2334 1.391 . S
H2336 C2344 0.950 . S
H2337 C2349 0.950 . S
H2338 C2346 0.950 . S
H2339 C2348 0.950 . S
H2340 C2350 0.950 . S
H2341 C2352 0.950 . S
H2342 C2354 0.950 . S
H2343 C2355 0.950 . S
C2344 H2336 0.950 . S
C2344 C2345 1.386 . S
C2344 C2346 1.391 . S
C2345 C2344 1.386 . S
C2345 C2349 1.393 . S
C2346 H2338 0.950 . S
C2346 C2344 1.391 . S
C2346 C2347 1.400 . S
C2347 C2346 1.400 . S
C2347 C2348 1.398 . S
C2347 C2353 1.491 . S
C2348 H2339 0.950 . S
C2348 C2347 1.398 . S
C2348 C2349 1.391 . S
C2349 H2337 0.950 . S
C2349 C2345 1.393 . S
C2349 C2348 1.391 . S
C2350 H2340 0.950 . S
C2350 C2351 1.386 . S
C2350 C2352 1.391 . S
C2351 C2350 1.386 . S
C2351 C2355 1.393 . S
C2352 H2341 0.950 . S
C2352 C2350 1.391 . S
C2352 C2353 1.400 . S
C2353 C2347 1.491 . S
C2353 C2352 1.400 . S
C2353 C2354 1.398 . S
C2354 H2342 0.950 . S
C2354 C2353 1.398 . S
C2354 C2355 1.391 . S
C2355 H2343 0.950 . S
C2355 C2351 1.393 . S
C2355 C2354 1.391 . S
H2356 C2364 0.950 1_556 S
H2357 C2369 0.950 . S
H2358 C2366 0.950 . S
H2359 C2368 0.950 . S
H2360 C2370 0.950 . S
H2361 C2372 0.950 . S
H2362 C2374 0.950 . S
H2363 C2375 0.950 . S
C2364 H2356 0.950 1_554 S
C2364 C2365 1.386 . S
C2364 C2366 1.391 . S
C2365 C2364 1.386 . S
C2365 C2369 1.393 . S
C2366 H2358 0.950 . S
C2366 C2364 1.391 . S
C2366 C2367 1.400 . S
C2367 C2366 1.400 . S
C2367 C2368 1.398 . S
C2367 C2373 1.491 . S
C2368 H2359 0.950 . S
C2368 C2367 1.398 . S
C2368 C2369 1.391 . S
C2369 H2357 0.950 . S
C2369 C2365 1.393 . S
C2369 C2368 1.391 . S
C2370 H2360 0.950 . S
C2370 C2371 1.386 . S
C2370 C2372 1.391 . S
C2371 C2370 1.386 . S
C2371 C2375 1.393 . S
C2372 H2361 0.950 . S
C2372 C2370 1.391 . S
C2372 C2373 1.400 . S
C2373 C2367 1.491 . S
C2373 C2372 1.400 . S
C2373 C2374 1.398 . S
C2374 H2362 0.950 . S
C2374 C2373 1.398 . S
C2374 C2375 1.391 . S
C2375 H2363 0.950 . S
C2375 C2371 1.393 . S
C2375 C2374 1.391 . S
H2376 C2384 0.950 . S
H2377 C2389 0.950 . S
H2378 C2386 0.950 . S
H2379 C2388 0.950 . S
H2380 C2390 0.950 . S
H2381 C2392 0.950 . S
H2382 C2394 0.950 . S
H2383 C2395 0.950 . S
C2384 H2376 0.950 . S
C2384 C2385 1.386 . S
C2384 C2386 1.391 . S
C2385 C2384 1.386 . S
C2385 C2389 1.393 . S
C2386 H2378 0.950 . S
C2386 C2384 1.391 . S
C2386 C2387 1.400 . S
C2387 C2386 1.400 . S
C2387 C2388 1.398 . S
C2387 C2393 1.491 . S
C2388 H2379 0.950 . S
C2388 C2387 1.398 . S
C2388 C2389 1.391 . S
C2389 H2377 0.950 . S
C2389 C2385 1.393 . S
C2389 C2388 1.391 . S
C2390 H2380 0.950 . S
C2390 C2391 1.386 . S
C2390 C2392 1.391 . S
C2391 C2390 1.386 . S
C2391 C2395 1.393 . S
C2392 H2381 0.950 . S
C2392 C2390 1.391 . S
C2392 C2393 1.400 . S
C2393 C2387 1.491 . S
C2393 C2392 1.400 . S
C2393 C2394 1.398 . S
C2394 H2382 0.950 . S
C2394 C2393 1.398 . S
C2394 C2395 1.391 . S
C2395 H2383 0.950 . S
C2395 C2391 1.393 . S
C2395 C2394 1.391 . S
H2396 C2404 0.950 . S
H2397 C2409 0.950 . S
H2398 C2406 0.950 . S
H2399 C2408 0.950 . S
H2400 C2410 0.950 . S
H2401 C2412 0.950 . S
H2402 C2414 0.950 . S
H2403 C2415 0.950 . S
C2404 H2396 0.950 . S
C2404 C2405 1.386 . S
C2404 C2406 1.391 . S
C2405 C2404 1.386 . S
C2405 C2409 1.393 . S
C2406 H2398 0.950 . S
C2406 C2404 1.391 . S
C2406 C2407 1.400 . S
C2407 C2406 1.400 . S
C2407 C2408 1.398 . S
C2407 C2413 1.491 . S
C2408 H2399 0.950 . S
C2408 C2407 1.398 . S
C2408 C2409 1.391 . S
C2409 H2397 0.950 . S
C2409 C2405 1.393 . S
C2409 C2408 1.391 . S
C2410 H2400 0.950 . S
C2410 C2411 1.386 . S
C2410 C2412 1.391 . S
C2411 C2410 1.386 . S
C2411 C2415 1.393 . S
C2412 H2401 0.950 . S
C2412 C2410 1.391 . S
C2412 C2413 1.400 . S
C2413 C2407 1.491 . S
C2413 C2412 1.400 . S
C2413 C2414 1.398 . S
C2414 H2402 0.950 . S
C2414 C2413 1.398 . S
C2414 C2415 1.391 . S
C2415 H2403 0.950 . S
C2415 C2411 1.393 . S
C2415 C2414 1.391 . S
H2416 C2424 0.950 . S
H2417 C2429 0.950 . S
H2418 C2426 0.950 . S
H2419 C2428 0.950 . S
H2420 C2430 0.950 . S
H2421 C2432 0.950 . S
H2422 C2434 0.950 . S
H2423 C2435 0.950 . S
C2424 H2416 0.950 . S
C2424 C2425 1.386 . S
C2424 C2426 1.391 . S
C2425 C2424 1.386 . S
C2425 C2429 1.393 . S
C2426 H2418 0.950 . S
C2426 C2424 1.391 . S
C2426 C2427 1.400 . S
C2427 C2426 1.400 . S
C2427 C2428 1.398 . S
C2427 C2433 1.491 . S
C2428 H2419 0.950 . S
C2428 C2427 1.398 . S
C2428 C2429 1.391 . S
C2429 H2417 0.950 . S
C2429 C2425 1.393 . S
C2429 C2428 1.391 . S
C2430 H2420 0.950 . S
C2430 C2431 1.386 . S
C2430 C2432 1.391 . S
C2431 C2430 1.386 . S
C2431 C2435 1.393 . S
C2432 H2421 0.950 . S
C2432 C2430 1.391 . S
C2432 C2433 1.400 . S
C2433 C2427 1.491 . S
C2433 C2432 1.400 . S
C2433 C2434 1.398 . S
C2434 H2422 0.950 . S
C2434 C2433 1.398 . S
C2434 C2435 1.391 . S
C2435 H2423 0.950 . S
C2435 C2431 1.393 . S
C2435 C2434 1.391 . S
H2436 C2444 0.950 . S
H2437 C2449 0.950 . S
H2438 C2446 0.950 . S
H2439 C2448 0.950 . S
H2440 C2450 0.950 . S
H2441 C2452 0.950 . S
H2442 C2454 0.950 . S
H2443 C2455 0.950 . S
C2444 H2436 0.950 . S
C2444 C2445 1.386 . S
C2444 C2446 1.391 . S
C2445 C2444 1.386 . S
C2445 C2449 1.393 . S
C2446 H2438 0.950 . S
C2446 C2444 1.391 . S
C2446 C2447 1.400 . S
C2447 C2446 1.400 . S
C2447 C2448 1.398 . S
C2447 C2453 1.491 . S
C2448 H2439 0.950 . S
C2448 C2447 1.398 . S
C2448 C2449 1.391 . S
C2449 H2437 0.950 . S
C2449 C2445 1.393 . S
C2449 C2448 1.391 . S
C2450 H2440 0.950 . S
C2450 C2451 1.386 . S
C2450 C2452 1.391 . S
C2451 C2450 1.386 . S
C2451 C2455 1.393 . S
C2452 H2441 0.950 . S
C2452 C2450 1.391 . S
C2452 C2453 1.400 . S
C2453 C2447 1.491 . S
C2453 C2452 1.400 . S
C2453 C2454 1.398 . S
C2454 H2442 0.950 . S
C2454 C2453 1.398 . S
C2454 C2455 1.391 . S
C2455 H2443 0.950 . S
C2455 C2451 1.393 . S
C2455 C2454 1.391 . S
H2456 C2464 0.950 . S
H2457 C2469 0.950 . S
H2458 C2466 0.950 . S
H2459 C2468 0.950 . S
H2460 C2470 0.950 1_556 S
H2461 C2472 0.950 . S
H2462 C2474 0.950 . S
H2463 C2475 0.950 . S
C2464 H2456 0.950 . S
C2464 C2465 1.386 . S
C2464 C2466 1.391 . S
C2465 C2464 1.386 . S
C2465 C2469 1.393 . S
C2466 H2458 0.950 . S
C2466 C2464 1.391 . S
C2466 C2467 1.400 . S
C2467 C2466 1.400 . S
C2467 C2468 1.398 . S
C2467 C2473 1.491 . S
C2468 H2459 0.950 . S
C2468 C2467 1.398 . S
C2468 C2469 1.391 . S
C2469 H2457 0.950 . S
C2469 C2465 1.393 . S
C2469 C2468 1.391 . S
C2470 H2460 0.950 1_554 S
C2470 C2471 1.386 . S
C2470 C2472 1.391 . S
C2471 C2470 1.386 . S
C2471 C2475 1.393 . S
C2472 H2461 0.950 . S
C2472 C2470 1.391 . S
C2472 C2473 1.400 . S
C2473 C2467 1.491 . S
C2473 C2472 1.400 . S
C2473 C2474 1.398 . S
C2474 H2462 0.950 . S
C2474 C2473 1.398 . S
C2474 C2475 1.391 . S
C2475 H2463 0.950 . S
C2475 C2471 1.393 . S
C2475 C2474 1.391 . S
H2476 C2484 0.950 . S
H2477 C2489 0.950 . S
H2478 C2486 0.950 . S
H2479 C2488 0.950 . S
H2480 C2490 0.950 . S
H2481 C2492 0.950 . S
H2482 C2494 0.950 . S
H2483 C2495 0.950 . S
C2484 H2476 0.950 . S
C2484 C2485 1.386 . S
C2484 C2486 1.391 . S
C2485 C2484 1.386 . S
C2485 C2489 1.393 . S
C2486 H2478 0.950 . S
C2486 C2484 1.391 . S
C2486 C2487 1.400 . S
C2487 C2486 1.400 . S
C2487 C2488 1.398 . S
C2487 C2493 1.491 . S
C2488 H2479 0.950 . S
C2488 C2487 1.398 . S
C2488 C2489 1.391 . S
C2489 H2477 0.950 . S
C2489 C2485 1.393 . S
C2489 C2488 1.391 . S
C2490 H2480 0.950 . S
C2490 C2491 1.386 . S
C2490 C2492 1.391 . S
C2491 C2490 1.386 . S
C2491 C2495 1.393 . S
C2492 H2481 0.950 . S
C2492 C2490 1.391 . S
C2492 C2493 1.400 . S
C2493 C2487 1.491 . S
C2493 C2492 1.400 . S
C2493 C2494 1.398 . S
C2494 H2482 0.950 . S
C2494 C2493 1.398 . S
C2494 C2495 1.391 . S
C2495 H2483 0.950 . S
C2495 C2491 1.393 . S
C2495 C2494 1.391 . S
H2496 C2504 0.950 . S
H2497 C2509 0.950 . S
H2498 C2506 0.950 . S
H2499 C2508 0.950 . S
H2500 C2510 0.950 . S
H2501 C2512 0.950 . S
H2502 C2514 0.950 . S
H2503 C2515 0.950 . S
C2504 H2496 0.950 . S
C2504 C2505 1.386 . S
C2504 C2506 1.391 . S
C2505 C2504 1.386 . S
C2505 C2509 1.393 . S
C2506 H2498 0.950 . S
C2506 C2504 1.391 . S
C2506 C2507 1.400 . S
C2507 C2506 1.400 . S
C2507 C2508 1.398 . S
C2507 C2513 1.491 . S
C2508 H2499 0.950 . S
C2508 C2507 1.398 . S
C2508 C2509 1.391 . S
C2509 H2497 0.950 . S
C2509 C2505 1.393 . S
C2509 C2508 1.391 . S
C2510 H2500 0.950 . S
C2510 C2511 1.386 . S
C2510 C2512 1.391 . S
C2511 C2510 1.386 . S
C2511 C2515 1.393 . S
C2512 H2501 0.950 . S
C2512 C2510 1.391 . S
C2512 C2513 1.400 . S
C2513 C2507 1.491 . S
C2513 C2512 1.400 . S
C2513 C2514 1.398 . S
C2514 H2502 0.950 . S
C2514 C2513 1.398 . S
C2514 C2515 1.391 . S
C2515 H2503 0.950 . S
C2515 C2511 1.393 . S
C2515 C2514 1.391 . S
H2516 C2524 0.950 . S
H2517 C2529 0.950 . S
H2518 C2526 0.950 . S
H2519 C2528 0.950 . S
H2520 C2530 0.950 . S
H2521 C2532 0.950 . S
H2522 C2534 0.950 . S
H2523 C2535 0.950 . S
C2524 H2516 0.950 . S
C2524 C2525 1.386 . S
C2524 C2526 1.391 . S
C2525 C2524 1.386 . S
C2525 C2529 1.393 . S
C2526 H2518 0.950 . S
C2526 C2524 1.391 . S
C2526 C2527 1.400 . S
C2527 C2526 1.400 . S
C2527 C2528 1.398 . S
C2527 C2533 1.491 . S
C2528 H2519 0.950 . S
C2528 C2527 1.398 . S
C2528 C2529 1.391 . S
C2529 H2517 0.950 . S
C2529 C2525 1.393 . S
C2529 C2528 1.391 . S
C2530 H2520 0.950 . S
C2530 C2531 1.386 . S
C2530 C2532 1.391 . S
C2531 C2530 1.386 . S
C2531 C2535 1.393 . S
C2532 H2521 0.950 . S
C2532 C2530 1.391 . S
C2532 C2533 1.400 . S
C2533 C2527 1.491 . S
C2533 C2532 1.400 . S
C2533 C2534 1.398 . S
C2534 H2522 0.950 . S
C2534 C2533 1.398 . S
C2534 C2535 1.391 . S
C2535 H2523 0.950 . S
C2535 C2531 1.393 . S
C2535 C2534 1.391 . S
H2536 C2544 0.950 . S
H2537 C2549 0.950 . S
H2538 C2546 0.950 . S
H2539 C2548 0.950 . S
H2540 C2550 0.950 . S
H2541 C2552 0.950 . S
H2542 C2554 0.950 . S
H2543 C2555 0.950 . S
C2544 H2536 0.950 . S
C2544 C2545 1.386 . S
C2544 C2546 1.391 . S
C2545 C2544 1.386 . S
C2545 C2549 1.393 . S
C2546 H2538 0.950 . S
C2546 C2544 1.391 . S
C2546 C2547 1.400 . S
C2547 C2546 1.400 . S
C2547 C2548 1.398 . S
C2547 C2553 1.491 . S
C2548 H2539 0.950 . S
C2548 C2547 1.398 . S
C2548 C2549 1.391 . S
C2549 H2537 0.950 . S
C2549 C2545 1.393 . S
C2549 C2548 1.391 . S
C2550 H2540 0.950 . S
C2550 C2551 1.386 . S
C2550 C2552 1.391 . S
C2551 C2550 1.386 . S
C2551 C2555 1.393 . S
C2552 H2541 0.950 . S
C2552 C2550 1.391 . S
C2552 C2553 1.400 . S
C2553 C2547 1.491 . S
C2553 C2552 1.400 . S
C2553 C2554 1.398 . S
C2554 H2542 0.950 . S
C2554 C2553 1.398 . S
C2554 C2555 1.391 . S
C2555 H2543 0.950 . S
C2555 C2551 1.393 . S
C2555 C2554 1.391 . S
H2556 C2564 0.950 . S
H2557 C2569 0.950 . S
H2558 C2566 0.950 . S
H2559 C2568 0.950 . S
H2560 C2570 0.950 . S
H2561 C2572 0.950 . S
H2562 C2574 0.950 . S
H2563 C2575 0.950 . S
C2564 H2556 0.950 . S
C2564 C2565 1.386 . S
C2564 C2566 1.391 . S
C2565 C2564 1.386 . S
C2565 C2569 1.393 . S
C2566 H2558 0.950 . S
C2566 C2564 1.391 . S
C2566 C2567 1.400 . S
C2567 C2566 1.400 . S
C2567 C2568 1.398 . S
C2567 C2573 1.491 . S
C2568 H2559 0.950 . S
C2568 C2567 1.398 . S
C2568 C2569 1.391 . S
C2569 H2557 0.950 . S
C2569 C2565 1.393 . S
C2569 C2568 1.391 . S
C2570 H2560 0.950 . S
C2570 C2571 1.386 . S
C2570 C2572 1.391 . S
C2571 C2570 1.386 . S
C2571 C2575 1.393 . S
C2572 H2561 0.950 . S
C2572 C2570 1.391 . S
C2572 C2573 1.400 . S
C2573 C2567 1.491 . S
C2573 C2572 1.400 . S
C2573 C2574 1.398 . S
C2574 H2562 0.950 . S
C2574 C2573 1.398 . S
C2574 C2575 1.391 . S
C2575 H2563 0.950 . S
C2575 C2571 1.393 . S
C2575 C2574 1.391 . S
H2576 C2584 0.950 . S
H2577 C2589 0.950 . S
H2578 C2586 0.950 . S
H2579 C2588 0.950 . S
H2580 C2590 0.950 . S
H2581 C2592 0.950 . S
H2582 C2594 0.950 . S
H2583 C2595 0.950 . S
C2584 H2576 0.950 . S
C2584 C2585 1.386 . S
C2584 C2586 1.391 . S
C2585 C2584 1.386 . S
C2585 C2589 1.393 . S
C2586 H2578 0.950 . S
C2586 C2584 1.391 . S
C2586 C2587 1.400 . S
C2587 C2586 1.400 . S
C2587 C2588 1.398 . S
C2587 C2593 1.491 . S
C2588 H2579 0.950 . S
C2588 C2587 1.398 . S
C2588 C2589 1.391 . S
C2589 H2577 0.950 . S
C2589 C2585 1.393 . S
C2589 C2588 1.391 . S
C2590 H2580 0.950 . S
C2590 C2591 1.386 . S
C2590 C2592 1.391 . S
C2591 C2590 1.386 . S
C2591 C2595 1.393 . S
C2592 H2581 0.950 . S
C2592 C2590 1.391 . S
C2592 C2593 1.400 . S
C2593 C2587 1.491 . S
C2593 C2592 1.400 . S
C2593 C2594 1.398 . S
C2594 H2582 0.950 . S
C2594 C2593 1.398 . S
C2594 C2595 1.391 . S
C2595 H2583 0.950 . S
C2595 C2591 1.393 . S
C2595 C2594 1.391 . S
H2596 C2604 0.950 . S
H2597 C2609 0.950 . S
H2598 C2606 0.950 . S
H2599 C2608 0.950 . S
H2600 C2610 0.950 . S
H2601 C2612 0.950 . S
H2602 C2614 0.950 . S
H2603 C2615 0.950 . S
C2604 H2596 0.950 . S
C2604 C2605 1.386 . S
C2604 C2606 1.391 . S
C2605 C2604 1.386 . S
C2605 C2609 1.393 . S
C2606 H2598 0.950 . S
C2606 C2604 1.391 . S
C2606 C2607 1.400 . S
C2607 C2606 1.400 . S
C2607 C2608 1.398 . S
C2607 C2613 1.491 . S
C2608 H2599 0.950 . S
C2608 C2607 1.398 . S
C2608 C2609 1.391 . S
C2609 H2597 0.950 . S
C2609 C2605 1.393 . S
C2609 C2608 1.391 . S
C2610 H2600 0.950 . S
C2610 C2611 1.386 . S
C2610 C2612 1.391 . S
C2611 C2610 1.386 . S
C2611 C2615 1.393 . S
C2612 H2601 0.950 . S
C2612 C2610 1.391 . S
C2612 C2613 1.400 . S
C2613 C2607 1.491 . S
C2613 C2612 1.400 . S
C2613 C2614 1.398 . S
C2614 H2602 0.950 . S
C2614 C2613 1.398 . S
C2614 C2615 1.391 . S
C2615 H2603 0.950 . S
C2615 C2611 1.393 . S
C2615 C2614 1.391 . S
H2616 C2624 0.950 . S
H2617 C2629 0.950 . S
H2618 C2626 0.950 . S
H2619 C2628 0.950 1_455 S
H2620 C2630 0.950 . S
H2621 C2632 0.950 . S
H2622 C2634 0.950 . S
H2623 C2635 0.957 . S
C2624 H2616 0.950 . S
C2624 C2625 1.386 . S
C2624 C2626 1.391 . S
C2625 C2624 1.386 . S
C2625 C2629 1.393 . S
C2626 H2618 0.950 . S
C2626 C2624 1.391 . S
C2626 C2627 1.400 . S
C2627 C2626 1.400 . S
C2627 C2628 1.398 . S
C2627 C2633 1.491 . S
C2628 H2619 0.950 1_655 S
C2628 C2627 1.398 . S
C2628 C2629 1.391 . S
C2629 H2617 0.950 . S
C2629 C2625 1.393 . S
C2629 C2628 1.391 . S
C2630 H2620 0.950 . S
C2630 C2631 1.386 . S
C2630 C2632 1.391 . S
C2631 C2630 1.386 . S
C2631 C2635 1.377 1_455 S
C2632 H2621 0.950 . S
C2632 C2630 1.391 . S
C2632 C2633 1.400 1_455 S
C2633 C2627 1.491 . S
C2633 C2632 1.400 1_655 S
C2633 C2634 1.398 . S
C2634 H2622 0.950 . S
C2634 C2633 1.398 . S
C2634 C2635 1.399 . S
C2635 H2623 0.957 . S
C2635 C2631 1.377 1_655 S
C2635 C2634 1.399 . S
H2636 C2644 0.950 . S
H2637 C2649 0.950 . S
H2638 C2646 0.950 . S
H2639 C2648 0.950 . S
H2640 C2650 0.950 . S
H2641 C2652 0.950 . S
H2642 C2654 0.950 . S
H2643 C2655 0.950 . S
C2644 H2636 0.950 . S
C2644 C2645 1.386 . S
C2644 C2646 1.391 . S
C2645 C2644 1.386 . S
C2645 C2649 1.393 . S
C2646 H2638 0.950 . S
C2646 C2644 1.391 . S
C2646 C2647 1.400 . S
C2647 C2646 1.400 . S
C2647 C2648 1.398 . S
C2647 C2653 1.491 . S
C2648 H2639 0.950 . S
C2648 C2647 1.398 . S
C2648 C2649 1.391 . S
C2649 H2637 0.950 . S
C2649 C2645 1.393 . S
C2649 C2648 1.391 . S
C2650 H2640 0.950 . S
C2650 C2651 1.386 . S
C2650 C2652 1.391 . S
C2651 C2650 1.386 . S
C2651 C2655 1.393 . S
C2652 H2641 0.950 . S
C2652 C2650 1.391 . S
C2652 C2653 1.400 . S
C2653 C2647 1.491 . S
C2653 C2652 1.400 . S
C2653 C2654 1.398 . S
C2654 H2642 0.950 . S
C2654 C2653 1.398 . S
C2654 C2655 1.391 . S
C2655 H2643 0.950 . S
C2655 C2651 1.393 . S
C2655 C2654 1.391 . S
H2656 C2664 0.950 . S
H2657 C2669 0.950 . S
H2658 C2666 0.950 . S
H2659 C2668 0.950 . S
H2660 C2670 0.950 . S
H2661 C2672 0.950 . S
H2662 C2674 0.950 . S
H2663 C2675 0.950 . S
C2664 H2656 0.950 . S
C2664 C2665 1.386 . S
C2664 C2666 1.391 . S
C2665 C2664 1.386 . S
C2665 C2669 1.393 . S
C2666 H2658 0.950 . S
C2666 C2664 1.391 . S
C2666 C2667 1.400 . S
C2667 C2666 1.400 . S
C2667 C2668 1.398 . S
C2667 C2673 1.491 . S
C2668 H2659 0.950 . S
C2668 C2667 1.398 . S
C2668 C2669 1.391 . S
C2669 H2657 0.950 . S
C2669 C2665 1.393 . S
C2669 C2668 1.391 . S
C2670 H2660 0.950 . S
C2670 C2671 1.386 . S
C2670 C2672 1.391 . S
C2671 C2670 1.386 . S
C2671 C2675 1.393 . S
C2672 H2661 0.950 . S
C2672 C2670 1.391 . S
C2672 C2673 1.400 . S
C2673 C2667 1.491 . S
C2673 C2672 1.400 . S
C2673 C2674 1.398 . S
C2674 H2662 0.950 . S
C2674 C2673 1.398 . S
C2674 C2675 1.391 . S
C2675 H2663 0.950 . S
C2675 C2671 1.393 . S
C2675 C2674 1.391 . S
H2676 C2684 0.950 . S
H2677 C2689 0.950 . S
H2678 C2686 0.950 . S
H2679 C2688 0.950 . S
H2680 C2690 0.950 . S
H2681 C2692 0.950 . S
H2682 C2694 0.950 . S
H2683 C2695 0.950 . S
C2684 H2676 0.950 . S
C2684 C2685 1.386 . S
C2684 C2686 1.391 . S
C2685 C2684 1.386 . S
C2685 C2689 1.393 . S
C2686 H2678 0.950 . S
C2686 C2684 1.391 . S
C2686 C2687 1.400 . S
C2687 C2686 1.400 . S
C2687 C2688 1.398 . S
C2687 C2693 1.491 . S
C2688 H2679 0.950 . S
C2688 C2687 1.398 . S
C2688 C2689 1.391 . S
C2689 H2677 0.950 . S
C2689 C2685 1.393 . S
C2689 C2688 1.391 . S
C2690 H2680 0.950 . S
C2690 C2691 1.386 . S
C2690 C2692 1.391 . S
C2691 C2690 1.386 . S
C2691 C2695 1.393 . S
C2692 H2681 0.950 . S
C2692 C2690 1.391 . S
C2692 C2693 1.400 . S
C2693 C2687 1.491 . S
C2693 C2692 1.400 . S
C2693 C2694 1.398 . S
C2694 H2682 0.950 . S
C2694 C2693 1.398 . S
C2694 C2695 1.391 . S
C2695 H2683 0.950 . S
C2695 C2691 1.393 . S
C2695 C2694 1.391 . S
H2696 C2704 0.950 . S
H2697 C2709 0.950 . S
H2698 C2706 0.950 . S
H2699 C2708 0.950 . S
H2700 C2710 0.950 . S
H2701 C2712 0.950 . S
H2702 C2714 0.950 . S
H2703 C2715 0.950 . S
C2704 H2696 0.950 . S
C2704 C2705 1.386 . S
C2704 C2706 1.391 . S
C2705 C2704 1.386 . S
C2705 C2709 1.393 . S
C2706 H2698 0.950 . S
C2706 C2704 1.391 . S
C2706 C2707 1.400 . S
C2707 C2706 1.400 . S
C2707 C2708 1.398 . S
C2707 C2713 1.491 . S
C2708 H2699 0.950 . S
C2708 C2707 1.398 . S
C2708 C2709 1.391 . S
C2709 H2697 0.950 . S
C2709 C2705 1.393 . S
C2709 C2708 1.391 . S
C2710 H2700 0.950 . S
C2710 C2711 1.386 . S
C2710 C2712 1.391 . S
C2711 C2710 1.386 . S
C2711 C2715 1.393 . S
C2712 H2701 0.950 . S
C2712 C2710 1.391 . S
C2712 C2713 1.400 . S
C2713 C2707 1.491 . S
C2713 C2712 1.400 . S
C2713 C2714 1.398 . S
C2714 H2702 0.950 . S
C2714 C2713 1.398 . S
C2714 C2715 1.391 . S
C2715 H2703 0.950 . S
C2715 C2711 1.393 . S
C2715 C2714 1.391 . S
H2716 C2724 0.950 . S
H2717 C2729 0.950 . S
H2718 C2726 0.950 . S
H2719 C2728 0.950 . S
H2720 C2730 0.950 . S
H2721 C2732 0.950 . S
H2722 C2734 0.950 . S
H2723 C2735 0.950 . S
C2724 H2716 0.950 . S
C2724 C2725 1.386 . S
C2724 C2726 1.391 . S
C2725 C2724 1.386 . S
C2725 C2729 1.393 . S
C2726 H2718 0.950 . S
C2726 C2724 1.391 . S
C2726 C2727 1.400 . S
C2727 C2726 1.400 . S
C2727 C2728 1.398 . S
C2727 C2733 1.491 . S
C2728 H2719 0.950 . S
C2728 C2727 1.398 . S
C2728 C2729 1.391 . S
C2729 H2717 0.950 . S
C2729 C2725 1.393 . S
C2729 C2728 1.391 . S
C2730 H2720 0.950 . S
C2730 C2731 1.386 . S
C2730 C2732 1.391 . S
C2731 C2730 1.386 . S
C2731 C2735 1.393 . S
C2732 H2721 0.950 . S
C2732 C2730 1.391 . S
C2732 C2733 1.400 . S
C2733 C2727 1.491 . S
C2733 C2732 1.400 . S
C2733 C2734 1.398 . S
C2734 H2722 0.950 . S
C2734 C2733 1.398 . S
C2734 C2735 1.391 . S
C2735 H2723 0.950 . S
C2735 C2731 1.393 . S
C2735 C2734 1.391 . S
H2736 C2744 0.950 . S
H2737 C2749 0.950 . S
H2738 C2746 0.950 . S
H2739 C2748 0.950 . S
H2740 C2750 0.950 . S
H2741 C2752 0.950 . S
H2742 C2754 0.950 . S
H2743 C2755 0.950 . S
C2744 H2736 0.950 . S
C2744 C2745 1.386 . S
C2744 C2746 1.391 . S
C2745 C2744 1.386 . S
C2745 C2749 1.393 . S
C2746 H2738 0.950 . S
C2746 C2744 1.391 . S
C2746 C2747 1.400 . S
C2747 C2746 1.400 . S
C2747 C2748 1.398 . S
C2747 C2753 1.491 . S
C2748 H2739 0.950 . S
C2748 C2747 1.398 . S
C2748 C2749 1.391 . S
C2749 H2737 0.950 . S
C2749 C2745 1.393 . S
C2749 C2748 1.391 . S
C2750 H2740 0.950 . S
C2750 C2751 1.386 . S
C2750 C2752 1.391 . S
C2751 C2750 1.386 . S
C2751 C2755 1.393 . S
C2752 H2741 0.950 . S
C2752 C2750 1.391 . S
C2752 C2753 1.400 . S
C2753 C2747 1.491 . S
C2753 C2752 1.400 . S
C2753 C2754 1.398 . S
C2754 H2742 0.950 . S
C2754 C2753 1.398 . S
C2754 C2755 1.391 . S
C2755 H2743 0.950 . S
C2755 C2751 1.393 . S
C2755 C2754 1.391 . S
H2756 C2764 0.950 . S
H2757 C2769 0.950 . S
H2758 C2766 0.950 . S
H2759 C2768 0.950 . S
H2760 C2770 0.950 . S
H2761 C2772 0.950 . S
H2762 C2774 0.950 . S
H2763 C2775 0.950 . S
C2764 H2756 0.950 . S
C2764 C2765 1.386 . S
C2764 C2766 1.391 . S
C2765 C2764 1.386 . S
C2765 C2769 1.393 . S
C2766 H2758 0.950 . S
C2766 C2764 1.391 . S
C2766 C2767 1.400 . S
C2767 C2766 1.400 . S
C2767 C2768 1.398 . S
C2767 C2773 1.491 . S
C2768 H2759 0.950 . S
C2768 C2767 1.398 . S
C2768 C2769 1.391 . S
C2769 H2757 0.950 . S
C2769 C2765 1.393 . S
C2769 C2768 1.391 . S
C2770 H2760 0.950 . S
C2770 C2771 1.386 1_545 S
C2770 C2772 1.391 1_545 S
C2771 C2770 1.386 1_565 S
C2771 C2775 1.393 . S
C2772 H2761 0.950 . S
C2772 C2770 1.391 1_565 S
C2772 C2773 1.400 . S
C2773 C2767 1.491 . S
C2773 C2772 1.400 . S
C2773 C2774 1.398 . S
C2774 H2762 0.950 . S
C2774 C2773 1.398 . S
C2774 C2775 1.391 . S
C2775 H2763 0.950 . S
C2775 C2771 1.393 . S
C2775 C2774 1.391 . S
H2776 C2784 0.950 . S
H2777 C2789 0.950 . S
H2778 C2786 0.950 . S
H2779 C2788 0.950 . S
H2780 C2790 0.950 . S
H2781 C2792 0.950 . S
H2782 C2794 0.950 . S
H2783 C2795 0.950 . S
C2784 H2776 0.950 . S
C2784 C2785 1.386 . S
C2784 C2786 1.391 . S
C2785 C2784 1.386 . S
C2785 C2789 1.393 . S
C2786 H2778 0.950 . S
C2786 C2784 1.391 . S
C2786 C2787 1.400 . S
C2787 C2786 1.400 . S
C2787 C2788 1.398 . S
C2787 C2793 1.491 . S
C2788 H2779 0.950 . S
C2788 C2787 1.398 . S
C2788 C2789 1.391 . S
C2789 H2777 0.950 . S
C2789 C2785 1.393 . S
C2789 C2788 1.391 . S
C2790 H2780 0.950 . S
C2790 C2791 1.386 . S
C2790 C2792 1.391 . S
C2791 C2790 1.386 . S
C2791 C2795 1.393 . S
C2792 H2781 0.950 . S
C2792 C2790 1.391 . S
C2792 C2793 1.400 . S
C2793 C2787 1.491 . S
C2793 C2792 1.400 . S
C2793 C2794 1.398 . S
C2794 H2782 0.950 . S
C2794 C2793 1.398 . S
C2794 C2795 1.391 . S
C2795 H2783 0.950 . S
C2795 C2791 1.393 . S
C2795 C2794 1.391 . S
H2796 C2804 0.950 . S
H2797 C2809 0.950 . S
H2798 C2806 0.950 . S
H2799 C2808 0.950 . S
H2800 C2810 0.950 . S
H2801 C2812 0.950 . S
H2802 C2814 0.950 . S
H2803 C2815 0.950 . S
C2804 H2796 0.950 . S
C2804 C2805 1.386 1_556 S
C2804 C2806 1.391 . S
C2805 C2804 1.386 1_554 S
C2805 C2809 1.393 . S
C2806 H2798 0.950 . S
C2806 C2804 1.391 . S
C2806 C2807 1.400 1_556 S
C2807 C2806 1.400 1_554 S
C2807 C2808 1.398 . S
C2807 C2813 1.491 . S
C2808 H2799 0.950 . S
C2808 C2807 1.398 . S
C2808 C2809 1.391 . S
C2809 H2797 0.950 . S
C2809 C2805 1.393 . S
C2809 C2808 1.391 . S
C2810 H2800 0.950 . S
C2810 C2811 1.386 . S
C2810 C2812 1.391 . S
C2811 C2810 1.386 . S
C2811 C2815 1.393 1_554 S
C2812 H2801 0.950 . S
C2812 C2810 1.391 . S
C2812 C2813 1.400 . S
C2813 C2807 1.491 . S
C2813 C2812 1.400 . S
C2813 C2814 1.398 1_554 S
C2814 H2802 0.950 . S
C2814 C2813 1.398 1_556 S
C2814 C2815 1.391 . S
C2815 H2803 0.950 . S
C2815 C2811 1.393 1_556 S
C2815 C2814 1.391 . S
H2816 C2824 0.950 . S
H2817 C2829 0.950 . S
H2818 C2826 0.950 . S
H2819 C2828 0.950 . S
H2820 C2830 0.950 . S
H2821 C2832 0.950 . S
H2822 C2834 0.950 . S
H2823 C2835 0.950 . S
C2824 H2816 0.950 . S
C2824 C2825 1.386 . S
C2824 C2826 1.391 . S
C2825 C2824 1.386 . S
C2825 C2829 1.393 . S
C2826 H2818 0.950 . S
C2826 C2824 1.391 . S
C2826 C2827 1.400 . S
C2827 C2826 1.400 . S
C2827 C2828 1.398 . S
C2827 C2833 1.491 . S
C2828 H2819 0.950 . S
C2828 C2827 1.398 . S
C2828 C2829 1.391 . S
C2829 H2817 0.950 . S
C2829 C2825 1.393 . S
C2829 C2828 1.391 . S
C2830 H2820 0.950 . S
C2830 C2831 1.386 . S
C2830 C2832 1.391 . S
C2831 C2830 1.386 . S
C2831 C2835 1.393 . S
C2832 H2821 0.950 . S
C2832 C2830 1.391 . S
C2832 C2833 1.400 . S
C2833 C2827 1.491 . S
C2833 C2832 1.400 . S
C2833 C2834 1.398 . S
C2834 H2822 0.950 . S
C2834 C2833 1.398 . S
C2834 C2835 1.391 . S
C2835 H2823 0.950 . S
C2835 C2831 1.393 . S
C2835 C2834 1.391 . S
H2836 C2844 0.950 . S
H2837 C2849 0.950 . S
H2838 C2846 0.950 . S
H2839 C2848 0.950 . S
H2840 C2850 0.950 . S
H2841 C2852 0.950 . S
H2842 C2854 0.950 . S
H2843 C2855 0.950 . S
C2844 H2836 0.950 . S
C2844 C2845 1.386 1_556 S
C2844 C2846 1.391 . S
C2845 C2844 1.386 1_554 S
C2845 C2849 1.393 . S
C2846 H2838 0.950 . S
C2846 C2844 1.391 . S
C2846 C2847 1.400 1_556 S
C2847 C2846 1.400 1_554 S
C2847 C2848 1.398 . S
C2847 C2853 1.491 1_554 S
C2848 H2839 0.950 . S
C2848 C2847 1.398 . S
C2848 C2849 1.391 . S
C2849 H2837 0.950 . S
C2849 C2845 1.393 . S
C2849 C2848 1.391 . S
C2850 H2840 0.950 . S
C2850 C2851 1.386 1_554 S
C2850 C2852 1.391 . S
C2851 C2850 1.386 1_556 S
C2851 C2855 1.393 . S
C2852 H2841 0.950 . S
C2852 C2850 1.391 . S
C2852 C2853 1.400 1_554 S
C2853 C2847 1.491 1_556 S
C2853 C2852 1.400 1_556 S
C2853 C2854 1.398 . S
C2854 H2842 0.950 . S
C2854 C2853 1.398 . S
C2854 C2855 1.391 . S
C2855 H2843 0.950 . S
C2855 C2851 1.393 . S
C2855 C2854 1.391 . S
H2856 C2864 0.950 . S
H2857 C2869 0.950 . S
H2858 C2866 0.950 . S
H2859 C2868 0.950 . S
H2860 C2870 0.950 . S
H2861 C2872 0.950 . S
H2862 C2874 0.950 . S
H2863 C2875 0.950 . S
C2864 H2856 0.950 . S
C2864 C2865 1.386 . S
C2864 C2866 1.391 . S
C2865 C2864 1.386 . S
C2865 C2869 1.393 . S
C2866 H2858 0.950 . S
C2866 C2864 1.391 . S
C2866 C2867 1.400 . S
C2867 C2866 1.400 . S
C2867 C2868 1.398 . S
C2867 C2873 1.491 . S
C2868 H2859 0.950 . S
C2868 C2867 1.398 . S
C2868 C2869 1.391 . S
C2869 H2857 0.950 . S
C2869 C2865 1.393 . S
C2869 C2868 1.391 . S
C2870 H2860 0.950 . S
C2870 C2871 1.386 . S
C2870 C2872 1.391 . S
C2871 C2870 1.386 . S
C2871 C2875 1.393 . S
C2872 H2861 0.950 . S
C2872 C2870 1.391 . S
C2872 C2873 1.400 . S
C2873 C2867 1.491 . S
C2873 C2872 1.400 . S
C2873 C2874 1.398 . S
C2874 H2862 0.950 . S
C2874 C2873 1.398 . S
C2874 C2875 1.391 . S
C2875 H2863 0.950 . S
C2875 C2871 1.393 . S
C2875 C2874 1.391 . S
H2876 C2884 0.950 . S
H2877 C2889 0.950 . S
H2878 C2886 0.950 . S
H2879 C2888 0.950 . S
H2880 C2890 0.950 . S
H2881 C2892 0.950 . S
H2882 C2894 0.950 . S
H2883 C2895 0.950 . S
C2884 H2876 0.950 . S
C2884 C2885 1.386 . S
C2884 C2886 1.391 . S
C2885 C2884 1.386 . S
C2885 C2889 1.393 . S
C2886 H2878 0.950 . S
C2886 C2884 1.391 . S
C2886 C2887 1.400 . S
C2887 C2886 1.400 . S
C2887 C2888 1.398 . S
C2887 C2893 1.491 . S
C2888 H2879 0.950 . S
C2888 C2887 1.398 . S
C2888 C2889 1.391 . S
C2889 H2877 0.950 . S
C2889 C2885 1.393 . S
C2889 C2888 1.391 . S
C2890 H2880 0.950 . S
C2890 C2891 1.386 . S
C2890 C2892 1.391 . S
C2891 C2890 1.386 . S
C2891 C2895 1.393 . S
C2892 H2881 0.950 . S
C2892 C2890 1.391 . S
C2892 C2893 1.400 . S
C2893 C2887 1.491 . S
C2893 C2892 1.400 . S
C2893 C2894 1.398 . S
C2894 H2882 0.950 . S
C2894 C2893 1.398 . S
C2894 C2895 1.391 . S
C2895 H2883 0.950 . S
C2895 C2891 1.393 . S
C2895 C2894 1.391 . S
C985 C105 2.311 . S
C991 C338 2.276 1_556 S
C1005 C65 2.164 . S
C1011 C395 2.163 . S
C1025 C73 1.226 . S
C1031 C418 1.183 . S
C1051 C472 1.405 . S
C1045 C92 1.419 . S
C1065 C17 1.391 . S
C1071 C512 1.337 . S
C1091 C543 0.510 . S
C1085 C37 0.511 . S
C1111 C595 1.354 . S
C1105 C49 1.231 . S
C1125 C8 1.845 . S
C1131 C618 1.774 . S
C1151 C355 2.488 . S
C1145 C231 2.437 . S
C1165 C241 0.508 . S
C1171 C392 0.544 . S
C1191 C435 1.321 . S
C1185 C273 1.294 . S
C1211 C458 1.315 . S
C1205 C171 1.324 . S
C1225 C227 1.906 . S
C1231 C498 1.866 . S
C1251 C546 1.461 . S
C1245 C245 1.428 . S
C1271 C592 0.433 . S
C1265 C269 0.314 . S
C1291 C635 2.068 . S
C1285 C175 2.077 . S
C1311 C352 1.488 1_565 S
C1305 C162 1.542 . S
C1325 C289 2.010 . S
C1331 C675 2.010 . S
C1351 C707 2.627 . S
C1345 C330 2.657 . S
C1371 C738 0.625 1_655 S
C1365 C317 0.661 . S
C1385 C120 1.484 . S
C1391 C632 1.442 . S
C1405 C134 1.596 . S
C1411 C432 1.562 . S
C1425 C331 2.256 . S
C1431 C795 2.250 . S
C1451 C818 0.565 . S
C1445 C303 0.493 . S
C1471 C347 2.282 . S
C1465 C59 2.300 . S
C1491 C826 2.201 . S
C1485 C107 2.196 . S
C1505 C91 1.270 . S
C1511 C427 1.242 . S
C1525 C78 1.432 . S
C1531 C783 1.425 . S
C1551 C503 1.359 . S
C1545 C7 1.319 . S
C1565 C51 0.544 . S
C1571 C712 0.518 . S
C1591 C586 1.408 . S
C1585 C31 1.394 . S
C1611 C867 1.791 . S
C1605 C22 1.835 . S
C1631 C346 2.514 . S
C1625 C143 2.525 . S
C1651 C823 0.591 . S
C1645 C315 0.610 . S
C1665 C115 1.365 . S
C1671 C426 1.351 . S
C1685 C287 1.357 . S
C1691 C787 1.373 . S
C1705 C147 1.826 . S
C1711 C507 1.907 . S
C1731 C715 1.471 . S
C1725 C311 1.497 . S
C1745 C119 0.436 1_545 S
C1751 C583 0.415 . S
C1765 C283 2.105 . S
C1771 C866 2.092 . S
C1785 C190 1.546 . S
C1791 C343 1.521 . S
C1805 C177 2.035 . S
C1811 C666 2.045 . S
C1825 C260 2.686 . S
C1831 C538 2.653 . S
C1845 C247 0.705 . S
C1851 C747 0.713 . S
C1871 C863 1.440 . S
C1865 C274 1.452 . S
C1885 C218 1.579 . S
C1891 C423 1.568 . S
C1911 C466 2.283 . S
C1905 C261 2.289 . S
C1931 C387 0.613 . S
C1925 C205 0.537 . S
C1945 C77 2.305 . S
C1951 C898 2.264 . S
C1971 C835 2.164 . S
C1965 C93 2.163 . S
C1985 C101 1.226 . S
C1991 C938 1.184 . S
C2005 C64 1.417 . S
C2011 C792 1.407 . S
C2025 C45 1.408 . S
C2031 C672 1.367 . S
C2051 C703 0.505 . S
C2045 C9 0.515 . S
C2071 C755 1.354 . S
C2065 C21 1.227 . S
C2091 C858 1.781 . S
C2085 C36 1.847 . S
C2111 C915 2.488 . S
C2105 C259 2.439 . S
C2125 C185 0.520 . S
C2131 C832 0.577 . S
C2151 C955 1.319 . S
C2145 C203 1.299 . S
C2171 C778 1.324 . S
C2165 C213 1.323 . S
C2191 C658 1.874 . S
C2185 C255 1.896 . S
C2205 C189 1.431 . S
C2211 C706 1.464 . S
C2231 C752 0.358 . S
C2225 C199 0.294 . S
C2245 C217 2.073 . S
C2251 C875 2.073 . S
C2271 C912 1.489 . S
C2265 C316 1.542 . S
C2285 C135 2.005 . S
C2291 C515 2.008 . S
C2311 C547 2.628 . S
C2305 C148 2.663 . S
C2331 C578 0.648 . S
C2325 C163 0.635 . S
C2351 C872 1.461 . S
C2345 C302 1.495 . S
C2365 C288 1.597 . S
C2371 C952 1.562 . S
C2391 C475 2.248 . S
C2385 C149 2.257 . S
C2411 C378 0.567 . S
C2405 C121 0.494 . S
C2425 C87 2.299 . S
C2431 C907 2.289 . S
C2451 C386 2.199 . S
C2445 C79 2.193 . S
C2465 C63 1.275 . S
C2471 C947 1.246 . S
C2485 C106 1.438 . S
C2491 C463 1.424 . S
C2505 C35 1.310 . S
C2511 C663 1.359 . S
C2531 C552 0.518 . S
C2525 C23 0.539 . S
C2545 C3 1.379 . S
C2551 C746 1.398 . S
C2565 C50 1.820 . S
C2571 C627 1.768 . S
C2591 C906 2.514 . S
C2585 C325 2.525 . S
C2605 C161 0.569 . S
C2611 C383 0.536 . S
C2631 C946 1.362 . S
C2625 C297 1.366 . S
C2645 C133 1.361 . S
C2651 C467 1.373 . S
C2665 C329 1.852 . S
C2671 C667 1.920 . S
C2691 C555 1.482 . S
C2685 C157 1.495 . S
C2705 C301 0.426 . S
C2711 C743 0.429 . S
C2731 C626 2.096 . S
C2725 C129 2.107 . S
C2751 C903 1.503 . S
C2745 C246 1.533 . S
C2771 C506 2.044 1_665 S
C2765 C219 2.034 . S
C2785 C232 2.684 . S
C2791 C698 2.653 . S
C2811 C587 0.706 . S
C2805 C191 0.729 . S
C2825 C204 1.453 . S
C2831 C623 1.443 . S
C2845 C176 1.595 . S
C2851 C943 1.582 . S
C2871 C786 2.282 . S
C2865 C233 2.285 1_565 S
C2891 C827 0.616 . S
C2885 C275 0.537 . S
