# Generated by pormake.
# Topology zzz, (3,6)-cn, num edge types: 1
# Building blocks:
#     Node 0, Type 0, BuildingBlock: OLANEW_clean_sbu_2, # of connection points: 3
#     Node 1, Type 0, BuildingBlock: OLANEW_clean_sbu_2, # of connection points: 3
#     Node 2, Type 0, BuildingBlock: OLANEW_clean_sbu_2, # of connection points: 3
#     Node 3, Type 0, BuildingBlock: OLANEW_clean_sbu_2, # of connection points: 3
#     Node 4, Type 0, BuildingBlock: OLANEW_clean_sbu_2, # of connection points: 3
#     Node 5, Type 0, BuildingBlock: OLANEW_clean_sbu_2, # of connection points: 3
#     Node 6, Type 0, BuildingBlock: OLANEW_clean_sbu_2, # of connection points: 3
#     Node 7, Type 0, BuildingBlock: OLANEW_clean_sbu_2, # of connection points: 3
#     Node 8, Type 1, BuildingBlock: GEDQOX_clean_sbu_0, # of connection points: 6
#     Node 9, Type 1, BuildingBlock: GEDQOX_clean_sbu_0, # of connection points: 6
#     Node 10, Type 1, BuildingBlock: GEDQOX_clean_sbu_0, # of connection points: 6
#     Node 11, Type 1, BuildingBlock: GEDQOX_clean_sbu_0, # of connection points: 6
#     Edge 12, Type (0, 1), BuildingBlock: XUDNAN_clean_linker_2, # of connection points: 2
#     Edge 13, Type (0, 1), BuildingBlock: XUDNAN_clean_linker_2, # of connection points: 2
#     Edge 14, Type (0, 1), BuildingBlock: XUDNAN_clean_linker_2, # of connection points: 2
#     Edge 15, Type (0, 1), BuildingBlock: XUDNAN_clean_linker_2, # of connection points: 2
#     Edge 16, Type (0, 1), BuildingBlock: XUDNAN_clean_linker_2, # of connection points: 2
#     Edge 17, Type (0, 1), BuildingBlock: XUDNAN_clean_linker_2, # of connection points: 2
#     Edge 18, Type (0, 1), BuildingBlock: XUDNAN_clean_linker_2, # of connection points: 2
#     Edge 19, Type (0, 1), BuildingBlock: XUDNAN_clean_linker_2, # of connection points: 2
#     Edge 20, Type (0, 1), BuildingBlock: XUDNAN_clean_linker_2, # of connection points: 2
#     Edge 21, Type (0, 1), BuildingBlock: XUDNAN_clean_linker_2, # of connection points: 2
#     Edge 22, Type (0, 1), BuildingBlock: XUDNAN_clean_linker_2, # of connection points: 2
#     Edge 23, Type (0, 1), BuildingBlock: XUDNAN_clean_linker_2, # of connection points: 2
#     Edge 24, Type (0, 1), BuildingBlock: XUDNAN_clean_linker_2, # of connection points: 2
#     Edge 25, Type (0, 1), BuildingBlock: XUDNAN_clean_linker_2, # of connection points: 2
#     Edge 26, Type (0, 1), BuildingBlock: XUDNAN_clean_linker_2, # of connection points: 2
#     Edge 27, Type (0, 1), BuildingBlock: XUDNAN_clean_linker_2, # of connection points: 2
#     Edge 28, Type (0, 1), BuildingBlock: XUDNAN_clean_linker_2, # of connection points: 2
#     Edge 29, Type (0, 1), BuildingBlock: XUDNAN_clean_linker_2, # of connection points: 2
#     Edge 30, Type (0, 1), BuildingBlock: XUDNAN_clean_linker_2, # of connection points: 2
#     Edge 31, Type (0, 1), BuildingBlock: XUDNAN_clean_linker_2, # of connection points: 2
#     Edge 32, Type (0, 1), BuildingBlock: XUDNAN_clean_linker_2, # of connection points: 2
#     Edge 33, Type (0, 1), BuildingBlock: XUDNAN_clean_linker_2, # of connection points: 2
#     Edge 34, Type (0, 1), BuildingBlock: XUDNAN_clean_linker_2, # of connection points: 2
#     Edge 35, Type (0, 1), BuildingBlock: XUDNAN_clean_linker_2, # of connection points: 2
# Relax obj value: 0.145
# Max RMSD: 0.230
# Mean RMSD: 0.100
data_MOF--net-zzz--node1-OLANEW_clean_sbu_2--node2-GEDQOX_clean_sbu_0--edge1-XUDNAN_clean_linker_2
_symmetry_space_group_name_H-M    P1
_symmetry_Int_Tables_number       1
_symmetry_cell_setting            triclinic
loop_
_symmetry_equiv_pos_as_xyz
'x, y, z'
_cell_length_a     57.96152
_cell_length_b     56.411984
_cell_length_c     19.119194
_cell_angle_alpha  80.882222
_cell_angle_beta   89.987027
_cell_angle_gamma 101.58169
loop_
_atom_site_label
_atom_site_type_symbol
_atom_site_fract_x
_atom_site_fract_y
_atom_site_fract_z
_atom_type_partial_charge
O0 O 0.80741 0.4897 0.93527 0.0
Cd1 Cd 0.77977 0.50299 0.01039 0.0
O2 O 0.81835 0.46511 0.02458 0.0
Cd3 Cd 0.7985 0.47629 0.10589 0.0
O4 O 0.81368 0.49621 0.1892 0.0
C5 C 0.82436 0.51827 0.16956 0.0
O6 O 0.82308 0.52835 0.10319 0.0
C7 C 0.82001 0.47434 0.95921 0.0
C8 C 0.73181 0.49005 0.98426 0.0
O9 O 0.74438 0.51025 0.95254 0.0
O10 O 0.74212 0.47572 0.02631 0.0
O11 O 0.98276 0.78071 0.91312 0.0
Cd12 Cd 0.95694 0.74089 0.90891 0.0
O13 O 0.95853 0.78611 0.99476 0.0
Cd14 Cd 0.94939 0.80876 0.06938 0.0
O15 O 0.94865 0.83156 0.15143 0.0
C16 C 0.94168 0.82131 0.21398 0.0
O17 O 0.93448 0.79737 0.22682 0.0
C18 C 0.97665 0.79425 0.95389 0.0
C19 C 0.97926 0.70361 0.88258 0.0
O20 O 0.97523 0.71992 0.83196 0.0
O21 O 0.97322 0.7052 0.94591 0.0
O22 O 0.74417 0.00381 0.87053 0.0
Cd23 Cd 0.77275 0.98254 0.93472 0.0
O24 O 0.73174 0.9992 0.98081 0.0
Cd25 Cd 0.70499 1.00002 0.06006 0.0
O26 O 0.67738 0.99125 0.14297 0.0
C27 C 0.66747 0.96889 0.16182 0.0
O28 O 0.67404 0.95216 0.13022 0.0
C29 C 0.72932 0.00676 0.9156 0.0
C30 C 0.819 0.98932 0.88322 0.0
O31 O 0.8032 0.97123 0.87045 0.0
O32 O 0.81267 0.00497 0.9171 0.0
O33 O 0.56095 0.7679 0.29709 0.0
Cd34 Cd 0.56655 0.80066 0.36879 0.0
O35 O 0.53897 0.74158 0.38026 0.0
Cd36 Cd 0.55264 0.7584 0.47083 0.0
O37 O 0.56543 0.73429 0.55665 0.0
C38 C 0.55025 0.71916 0.59817 0.0
O39 O 0.52799 0.7208 0.59338 0.0
C40 C 0.54695 0.74746 0.31659 0.0
C41 C 0.55259 0.84047 0.2863 0.0
O42 O 0.57449 0.83978 0.29192 0.0
O43 O 0.53749 0.82291 0.32153 0.0
O44 O 0.26731 0.57635 0.74689 0.0
Cd45 Cd 0.30983 0.59011 0.71938 0.0
O46 O 0.25833 0.54796 0.67888 0.0
Cd47 Cd 0.23117 0.52667 0.62145 0.0
O48 O 0.20075 0.51739 0.55626 0.0
C49 C 0.18688 0.53236 0.54733 0.0
O50 O 0.19139 0.55193 0.57823 0.0
C51 C 0.252 0.56074 0.7216 0.0
C52 C 0.34228 0.56061 0.76091 0.0
O53 O 0.33287 0.57066 0.80608 0.0
O54 O 0.33548 0.56344 0.69686 0.0
O55 O 0.11336 0.25596 0.73682 0.0
Cd56 Cd 0.13497 0.2973 0.74687 0.0
O57 O 0.10646 0.26632 0.62438 0.0
Cd58 Cd 0.09201 0.2588 0.52225 0.0
O59 O 0.08409 0.2359 0.43968 0.0
C60 C 0.06854 0.2382 0.39372 0.0
O61 O 0.05646 0.25557 0.39378 0.0
C62 C 0.10496 0.24993 0.67929 0.0
C63 C 0.10744 0.3321 0.75543 0.0
O64 O 0.11688 0.33057 0.69609 0.0
O65 O 0.11062 0.31689 0.81013 0.0
O66 O 0.3064 0.05976 0.89458 0.0
Cd67 Cd 0.27657 0.08519 0.8873 0.0
O68 O 0.31221 0.07034 0.77951 0.0
Cd69 Cd 0.33194 0.07275 0.67982 0.0
O70 O 0.34973 0.07841 0.57565 0.0
C71 C 0.3718 0.07979 0.5683 0.0
O72 O 0.38446 0.07751 0.62505 0.0
C73 C 0.31734 0.05865 0.83796 0.0
C74 C 0.23266 0.06313 0.8432 0.0
O75 O 0.23668 0.06267 0.90927 0.0
O76 O 0.24947 0.07362 0.79832 0.0
O77 O 0.50836 0.26377 0.35879 0.0
Cd78 Cd 0.50224 0.22928 0.29297 0.0
O79 O 0.47269 0.25001 0.4061 0.0
Cd80 Cd 0.46266 0.23765 0.30599 0.0
O81 O 0.46633 0.2646 0.20889 0.0
C82 C 0.46476 0.2858 0.22066 0.0
O83 O 0.45988 0.28847 0.28574 0.0
C84 C 0.49292 0.26387 0.40601 0.0
C85 C 0.4995 0.18709 0.39375 0.0
O86 O 0.51878 0.19698 0.35861 0.0
O87 O 0.48139 0.19654 0.37931 0.0
Nd88 Nd 0.01739 0.01708 0.74559 0.0
Nd89 Nd 0.03848 0.02794 0.8972 0.0
C90 C 0.98712 0.00367 0.64923 0.0
C91 C 0.98114 0.98257 0.61156 0.0
C92 C 0.98567 0.95963 0.64125 0.0
C93 C 0.97962 0.9396 0.60548 0.0
C94 C 0.96907 0.9422 0.53917 0.0
C95 C 0.96481 0.96532 0.50936 0.0
C96 C 0.97076 0.98532 0.54538 0.0
C97 C 0.06489 0.01583 0.7514 0.0
C98 C 0.02658 0.97241 0.86885 0.0
C99 C 0.06214 0.04556 0.00183 0.0
C100 C 0.06092 0.06652 0.03775 0.0
C101 C 0.08125 0.07937 0.06502 0.0
C102 C 0.08027 0.09991 0.09667 0.0
C103 C 0.05891 0.10793 0.10153 0.0
C104 C 0.03859 0.09489 0.07406 0.0
C105 C 0.03962 0.0745 0.04214 0.0
C106 C 0.99049 0.02027 0.88581 0.0
C107 C 0.03627 0.07403 0.76597 0.0
O108 O 0.98192 0.99921 0.71744 0.0
O109 O 0.00776 0.01812 0.63299 0.0
O110 O 0.05274 0.01244 0.69534 0.0
O111 O 0.05135 0.01896 0.79848 0.0
O112 O 0.01268 0.97955 0.81813 0.0
O113 O 0.04194 0.98809 0.89905 0.0
O114 O 0.06989 0.05117 0.93575 0.0
O115 O 0.04385 0.02734 0.01195 0.0
O116 O 1.00065 0.01288 0.94332 0.0
O117 O 0.00547 0.032 0.83876 0.0
O118 O 0.0425 0.0665 0.83114 0.0
O119 O 0.02534 0.05902 0.72426 0.0
H120 H 0.99385 0.95719 0.69214 0.0
H121 H 0.98343 0.92214 0.62941 0.0
H122 H 0.9565 0.96785 0.45873 0.0
H123 H 0.96716 0.00291 0.52172 0.0
H124 H 0.09792 0.07367 0.06118 0.0
H125 H 0.09633 0.10973 0.11626 0.0
H126 H 0.02178 0.10028 0.07769 0.0
H127 H 0.02374 0.065 0.02065 0.0
Nd128 Nd 0.51743 0.00141 0.81137 0.0
Nd129 Nd 0.52097 0.03404 0.92273 0.0
C130 C 0.51356 0.96682 0.73129 0.0
C131 C 0.5267 0.96256 0.66974 0.0
C132 C 0.53771 0.94235 0.67626 0.0
C133 C 0.55121 0.93869 0.6198 0.0
C134 C 0.55383 0.95509 0.55535 0.0
C135 C 0.54232 0.97501 0.54845 0.0
C136 C 0.52898 0.97876 0.60503 0.0
C137 C 0.52258 0.05044 0.75598 0.0
C138 C 0.56897 0.02962 0.84898 0.0
C139 C 0.51878 0.0646 0.01347 0.0
C140 C 0.50132 0.07418 0.05047 0.0
C141 C 0.47717 0.06524 0.04451 0.0
C142 C 0.46079 0.07086 0.08966 0.0
C143 C 0.46832 0.0856 0.14159 0.0
C144 C 0.49253 0.09553 0.1448 0.0
C145 C 0.50888 0.08978 0.09974 0.0
C146 C 0.52883 0.98769 0.96935 0.0
C147 C 0.46812 0.00839 0.87879 0.0
O148 O 0.52438 0.96574 0.79154 0.0
O149 O 0.5019 0.98463 0.72069 0.0
O150 O 0.53314 0.03549 0.72953 0.0
O151 O 0.50999 0.03927 0.8094 0.0
O152 O 0.55691 0.00872 0.83365 0.0
O153 O 0.5581 0.04557 0.8715 0.0
O154 O 0.52221 0.07191 0.94505 0.0
O155 O 0.51808 0.04117 0.03203 0.0
O156 O 0.54194 0.00746 0.98497 0.0
O157 O 0.51258 0.99276 0.9297 0.0
O158 O 0.4807 0.02399 0.91577 0.0
O159 O 0.4781 0.99616 0.83827 0.0
H160 H 0.53622 0.9296 0.72558 0.0
H161 H 0.56005 0.92333 0.62736 0.0
H162 H 0.54362 0.98777 0.49923 0.0
H163 H 0.52066 0.99451 0.59813 0.0
H164 H 0.47112 0.053 0.00724 0.0
H165 H 0.44235 0.0626 0.08621 0.0
H166 H 0.49891 0.10724 0.18337 0.0
H167 H 0.5275 0.09674 0.10534 0.0
Nd168 Nd 0.52134 0.50697 0.9561 0.0
Nd169 Nd 0.53685 0.49589 0.81683 0.0
C170 C 0.50491 0.52578 0.05915 0.0
C171 C 0.50548 0.55072 0.07367 0.0
C172 C 0.50237 0.56969 0.01956 0.0
C173 C 0.50481 0.59365 0.03336 0.0
C174 C 0.51068 0.59913 0.10115 0.0
C175 C 0.5134 0.57997 0.15535 0.0
C176 C 0.51077 0.556 0.14171 0.0
C177 C 0.56455 0.49445 0.95654 0.0
C178 C 0.54658 0.55197 0.83188 0.0
C179 C 0.55405 0.4767 0.71605 0.0
C180 C 0.54646 0.45339 0.6898 0.0
C181 C 0.56258 0.44364 0.65427 0.0
C182 C 0.55562 0.42076 0.63276 0.0
C183 C 0.5324 0.40728 0.64654 0.0
C184 C 0.5163 0.41732 0.68185 0.0
C185 C 0.52331 0.44008 0.7036 0.0
C186 C 0.49225 0.50564 0.8187 0.0
C187 C 0.51074 0.45029 0.94131 0.0
O188 O 0.49221 0.51901 0.00647 0.0
O189 O 0.52521 0.51902 0.06106 0.0
O190 O 0.54891 0.48665 0.0079 0.0
O191 O 0.55752 0.50889 0.90763 0.0
O192 O 0.53039 0.54476 0.88364 0.0
O193 O 0.55572 0.53594 0.80377 0.0
O194 O 0.56167 0.47479 0.78067 0.0
O195 O 0.54002 0.4923 0.70375 0.0
O196 O 0.50679 0.51305 0.76438 0.0
O197 O 0.50096 0.49271 0.86717 0.0
O198 O 0.5244 0.45729 0.88323 0.0
O199 O 0.50426 0.46638 0.97629 0.0
H200 H 0.4984 0.5661 0.96639 0.0
H201 H 0.50218 0.6079 0.99099 0.0
H202 H 0.51829 0.58358 0.2079 0.0
H203 H 0.51345 0.54165 0.18394 0.0
H204 H 0.5806 0.45357 0.64404 0.0
H205 H 0.56855 0.41344 0.60662 0.0
H206 H 0.49821 0.40767 0.69241 0.0
H207 H 0.51067 0.44724 0.73166 0.0
Nd208 Nd 0.02876 0.52473 0.71267 0.0
Nd209 Nd 0.03096 0.49933 0.86586 0.0
C210 C 0.01897 0.55128 0.59364 0.0
C211 C 0.99811 0.55318 0.5511 0.0
C212 C 0.97538 0.54617 0.58252 0.0
C213 C 0.95563 0.54745 0.54129 0.0
C214 C 0.95833 0.55607 0.46805 0.0
C215 C 0.98117 0.5634 0.43696 0.0
C216 C 1.0009 0.56186 0.47818 0.0
C217 C 0.03869 0.4787 0.7273 0.0
C218 C 0.98017 0.49271 0.79685 0.0
C219 C 0.04047 0.47457 0.98837 0.0
C220 C 0.05384 0.48134 0.04995 0.0
C221 C 0.05659 0.4633 0.10699 0.0
C222 C 0.06836 0.46994 0.16711 0.0
C223 C 0.07741 0.49476 0.17112 0.0
C224 C 0.07487 0.51272 0.11314 0.0
C225 C 0.06321 0.50605 0.0531 0.0
C226 C 0.02339 0.54644 0.8528 0.0
C227 C 0.07982 0.52993 0.77796 0.0
O228 O 0.0188 0.55827 0.65566 0.0
O229 O 0.02702 0.53115 0.5953 0.0
O230 O 0.04827 0.49653 0.67784 0.0
O231 O 0.02364 0.48504 0.76402 0.0
O232 O 0.98972 0.51165 0.74878 0.0
O233 O 0.99326 0.48149 0.84215 0.0
O234 O 0.05278 0.4763 0.92975 0.0
O235 O 0.02136 0.48341 0.97788 0.0
O236 O 0.01446 0.52921 0.90419 0.0
O237 O 0.03719 0.53906 0.81461 0.0
O238 O 0.07028 0.51145 0.8278 0.0
O239 O 0.06685 0.54117 0.73253 0.0
H240 H 0.97291 0.53975 0.63891 0.0
H241 H 0.93826 0.5419 0.56677 0.0
H242 H 0.98377 0.56984 0.38051 0.0
H243 H 0.01833 0.56733 0.45306 0.0
H244 H 0.04938 0.44413 0.10539 0.0
H245 H 0.06993 0.45572 0.21103 0.0
H246 H 0.08199 0.53194 0.11402 0.0
H247 H 0.06128 0.52022 0.00934 0.0
H248 H 0.19059 0.05155 0.9191 0.0
H249 H 0.22147 0.05166 0.71218 0.0
H250 H 0.18193 0.03648 0.66921 0.0
H251 H 0.14343 0.99705 0.92125 0.0
H252 H 0.12227 0.01001 0.96381 0.0
H253 H 0.15318 0.01867 0.98049 0.0
H254 H 0.15156 0.06446 0.9414 0.0
H255 H 0.12068 0.05585 0.925 0.0
H256 H 0.14062 0.07407 0.85546 0.0
H257 H 0.1391 0.02345 0.64668 0.0
H258 H 0.09561 0.01494 0.64484 0.0
H259 H 0.09231 0.02406 0.86538 0.0
C260 C 0.18906 0.04797 0.86513 0.0
C261 C 0.20912 0.05261 0.81907 0.0
C262 C 0.20635 0.04818 0.74839 0.0
C263 C 0.18398 0.03948 0.72358 0.0
C264 C 0.16454 0.0354 0.77 0.0
C265 C 0.16681 0.03954 0.83925 0.0
C266 C 0.14292 0.03524 0.87677 0.0
C267 C 0.14031 0.01397 0.93928 0.0
C268 C 0.13871 0.05881 0.90104 0.0
C269 C 0.12688 0.02839 0.81745 0.0
C270 C 0.13973 0.02833 0.75658 0.0
C271 C 0.12885 0.02328 0.69412 0.0
C272 C 0.10417 0.01847 0.69358 0.0
C273 C 0.0907 0.01893 0.75489 0.0
C274 C 0.10222 0.02363 0.81779 0.0
H275 H 0.52832 0.15358 0.4136 0.0
H276 H 0.46868 0.17437 0.50737 0.0
H277 H 0.46912 0.14257 0.61193 0.0
H278 H 0.5083 0.08755 0.47619 0.0
H279 H 0.53789 0.08267 0.48938 0.0
H280 H 0.53243 0.1069 0.42195 0.0
H281 H 0.56296 0.1381 0.47842 0.0
H282 H 0.56801 0.11397 0.54681 0.0
H283 H 0.55912 0.1406 0.57038 0.0
H284 H 0.47764 0.11058 0.70929 0.0
H285 H 0.49011 0.07641 0.78675 0.0
H286 H 0.54281 0.07452 0.62743 0.0
C287 C 0.5153 0.15132 0.45604 0.0
C288 C 0.49858 0.16652 0.45276 0.0
C289 C 0.48162 0.16287 0.50881 0.0
C290 C 0.48182 0.14497 0.56858 0.0
C291 C 0.49882 0.1306 0.57084 0.0
C292 C 0.51492 0.13317 0.51548 0.0
C293 C 0.53077 0.11471 0.53033 0.0
C294 C 0.52712 0.0969 0.47625 0.0
C295 C 0.55675 0.12763 0.53156 0.0
C296 C 0.52147 0.10184 0.60352 0.0
C297 C 0.50311 0.11139 0.62594 0.0
C298 C 0.49186 0.10279 0.6921 0.0
C299 C 0.49917 0.08348 0.73586 0.0
C300 C 0.51739 0.0728 0.713 0.0
C301 C 0.52886 0.08236 0.6463 0.0
H302 H 0.37998 0.55871 0.67792 0.0
H303 H 0.34899 0.53485 0.89018 0.0
H304 H 0.38326 0.51627 0.92639 0.0
H305 H 0.40816 0.50697 0.66727 0.0
H306 H 0.43418 0.52601 0.62135 0.0
H307 H 0.40619 0.53518 0.61047 0.0
H308 H 0.42421 0.57671 0.64982 0.0
H309 H 0.4522 0.56761 0.66113 0.0
H310 H 0.43833 0.57685 0.73382 0.0
H311 H 0.42115 0.5009 0.93959 0.0
H312 H 0.46102 0.4921 0.93144 0.0
H313 H 0.46886 0.52915 0.71335 0.0
C314 C 0.3802 0.5491 0.73158 0.0
C315 C 0.36169 0.54776 0.78107 0.0
C316 C 0.36292 0.5358 0.85143 0.0
C317 C 0.38228 0.52521 0.87236 0.0
C318 C 0.40042 0.52714 0.82255 0.0
C319 C 0.39966 0.53897 0.75377 0.0
C320 C 0.42226 0.54018 0.71219 0.0
C321 C 0.4174 0.52625 0.64909 0.0
C322 C 0.435 0.56693 0.68783 0.0
C323 C 0.43584 0.52714 0.76827 0.0
C324 C 0.42281 0.51952 0.83128 0.0
C325 C 0.43155 0.50691 0.89065 0.0
C326 C 0.45425 0.50208 0.88561 0.0
C327 C 0.46811 0.51023 0.82211 0.0
C328 C 0.4587 0.52283 0.76269 0.0
H329 H 0.10902 0.37533 0.66482 0.0
H330 H 0.07547 0.33231 0.86008 0.0
H331 H 0.05349 0.36477 0.87233 0.0
H332 H 0.11656 0.43356 0.72489 0.0
H333 H 0.11119 0.45012 0.63986 0.0
H334 H 0.12349 0.42305 0.64464 0.0
H335 H 0.08955 0.40379 0.57 0.0
H336 H 0.07721 0.43085 0.56508 0.0
H337 H 0.05943 0.40117 0.59919 0.0
H338 H 0.03534 0.40183 0.86388 0.0
H339 H 0.02323 0.44179 0.83737 0.0
H340 H 0.06969 0.46149 0.65014 0.0
C341 C 0.09686 0.37265 0.70974 0.0
C342 C 0.09377 0.35122 0.76125 0.0
C343 C 0.07804 0.34856 0.81997 0.0
C344 C 0.06547 0.36687 0.82732 0.0
C345 C 0.06902 0.38783 0.7759 0.0
C346 C 0.08444 0.39092 0.71847 0.0
C347 C 0.08574 0.41567 0.67235 0.0
C348 C 0.11073 0.43153 0.67036 0.0
C349 C 0.07748 0.41268 0.59722 0.0
C350 C 0.06846 0.42588 0.7125 0.0
C351 C 0.05897 0.40949 0.77194 0.0
C352 C 0.04264 0.41481 0.81749 0.0
C353 C 0.03585 0.43751 0.80198 0.0
C354 C 0.0455 0.45463 0.74171 0.0
C355 C 0.062 0.44869 0.6965 0.0
H356 H 0.85547 0.02923 0.87631 0.0
H357 H 0.83947 0.95234 0.85374 0.0
H358 H 0.88197 0.9527 0.84336 0.0
H359 H 0.90782 0.04647 0.75072 0.0
H360 H 0.92336 0.06808 0.80315 0.0
H361 H 0.89164 0.06236 0.80174 0.0
H362 H 0.88951 0.05144 0.93874 0.0
H363 H 0.92115 0.05684 0.94056 0.0
H364 H 0.90385 0.02769 0.98134 0.0
H365 H 0.92574 0.95958 0.85537 0.0
H366 H 0.96825 0.97426 0.87234 0.0
H367 H 0.95642 0.04744 0.87557 0.0
C368 C 0.86092 0.01263 0.86754 0.0
C369 C 0.84417 0.99075 0.86587 0.0
C370 C 0.85197 0.96936 0.85467 0.0
C371 C 0.87608 0.96936 0.84894 0.0
C372 C 0.89216 0.99103 0.85291 0.0
C373 C 0.88493 0.01244 0.86026 0.0
C374 C 0.90585 0.03305 0.86512 0.0
C375 C 0.90725 0.05371 0.80137 0.0
C376 C 0.90503 0.04281 0.93564 0.0
C377 C 0.92591 0.01963 0.86216 0.0
C378 C 0.9176 0.99536 0.85538 0.0
C379 C 0.93252 0.9787 0.85854 0.0
C380 C 0.95657 0.98711 0.8684 0.0
C381 C 0.96542 0.01197 0.87335 0.0
C382 C 0.94999 0.02846 0.86986 0.0
H383 H 0.57613 0.88807 0.24546 0.0
H384 H 0.51156 0.83692 0.21612 0.0
H385 H 0.49931 0.86852 0.12749 0.0
H386 H 0.54792 0.94196 0.23101 0.0
H387 H 0.57455 0.96173 0.19083 0.0
H388 H 0.57598 0.9342 0.25147 0.0
H389 H 0.60016 0.92188 0.15066 0.0
H390 H 0.59651 0.94896 0.09138 0.0
H391 H 0.58671 0.91911 0.06663 0.0
H392 H 0.49477 0.90507 0.039 0.0
H393 H 0.496 0.94577 0.96677 0.0
H394 H 0.56238 0.97391 0.05847 0.0
C395 C 0.55942 0.88358 0.22029 0.0
C396 C 0.54483 0.86005 0.23708 0.0
C397 C 0.52294 0.85489 0.20404 0.0
C398 C 0.5159 0.87265 0.15338 0.0
C399 C 0.53079 0.8956 0.13733 0.0
C400 C 0.55186 0.90129 0.17075 0.0
C401 C 0.56394 0.92777 0.14654 0.0
C402 C 0.56571 0.94231 0.20858 0.0
C403 C 0.58827 0.92953 0.11172 0.0
C404 C 0.5467 0.93584 0.09291 0.0
C405 C 0.52773 0.91697 0.08821 0.0
C406 C 0.50946 0.92003 0.04248 0.0
C407 C 0.51034 0.94316 0.00155 0.0
C408 C 0.52922 0.96292 0.00734 0.0
C409 C 0.54773 0.95909 0.05302 0.0
H410 H 0.70414 0.51807 0.90589 0.0
H411 H 0.70086 0.44897 0.04672 0.0
H412 H 0.6575 0.44101 0.04512 0.0
H413 H 0.6571 0.53503 0.98378 0.0
H414 H 0.64569 0.54847 0.90263 0.0
H415 H 0.67651 0.54757 0.90738 0.0
H416 H 0.6735 0.52471 0.79938 0.0
H417 H 0.64263 0.52566 0.79403 0.0
H418 H 0.65187 0.49672 0.80148 0.0
H419 H 0.61504 0.44286 0.04118 0.0
H420 H 0.57577 0.45349 0.03001 0.0
H421 H 0.60576 0.52053 0.88794 0.0
C422 C 0.69432 0.50101 0.93512 0.0
C423 C 0.70595 0.48412 0.97636 0.0
C424 C 0.69241 0.46216 0.01459 0.0
C425 C 0.66774 0.45744 0.01394 0.0
C426 C 0.65683 0.47472 0.97421 0.0
C427 C 0.66963 0.49595 0.93479 0.0
C428 C 0.65347 0.51215 0.9001 0.0
C429 C 0.6585 0.53728 0.92499 0.0
C430 C 0.65549 0.51497 0.81892 0.0
C431 C 0.62966 0.49709 0.92818 0.0
C432 C 0.63205 0.47551 0.97053 0.0
C433 C 0.61288 0.45946 0.00708 0.0
C434 C 0.59069 0.4657 0.0007 0.0
C435 C 0.58782 0.48768 0.95774 0.0
C436 C 0.60748 0.50338 0.92007 0.0
H437 H 0.97472 0.65826 0.96331 0.0
H438 H 0.00683 0.70234 0.76776 0.0
H439 H 0.02301 0.66729 0.74083 0.0
H440 H 0.0206 0.62351 0.007 0.0
H441 H 1.00002 0.5954 0.03927 0.0
H442 H 0.99245 0.62447 0.0454 0.0
H443 H 0.95449 0.61239 0.97662 0.0
H444 H 0.96197 0.58333 0.97012 0.0
H445 H 0.9567 0.60331 0.891 0.0
H446 H 0.03568 0.62732 0.73558 0.0
H447 H 0.04172 0.58469 0.74855 0.0
H448 H 0.99882 0.56605 0.94299 0.0
C449 C 0.98544 0.66063 0.91533 0.0
C450 C 0.98978 0.68306 0.86794 0.0
C451 C 0.00341 0.68531 0.80487 0.0
C452 C 0.0127 0.66554 0.78924 0.0
C453 C 0.00792 0.64358 0.8368 0.0
C454 C 0.99445 0.64096 0.89829 0.0
C455 C 0.99073 0.61502 0.93843 0.0
C456 C 0.0016 0.61458 0.01187 0.0
C457 C 0.96441 0.6028 0.94435 0.0
C458 C 0.00421 0.60346 0.88995 0.0
C459 C 0.01422 0.6203 0.83203 0.0
C460 C 0.02777 0.61394 0.78044 0.0
C461 C 0.03102 0.58969 0.78806 0.0
C462 C 0.02044 0.57206 0.84613 0.0
C463 C 0.00697 0.57912 0.89775 0.0
H464 H 0.08245 0.21561 0.78846 0.0
H465 H 0.10521 0.22447 0.5683 0.0
H466 H 0.08528 0.18202 0.563 0.0
H467 H 0.09569 0.15589 0.83093 0.0
H468 H 0.07175 0.14443 0.89541 0.0
H469 H 0.08479 0.17664 0.87898 0.0
H470 H 0.04368 0.18661 0.85121 0.0
H471 H 0.03062 0.15436 0.86711 0.0
H472 H 0.02659 0.17286 0.78384 0.0
H473 H 0.06321 0.13841 0.58186 0.0
H474 H 0.04635 0.09492 0.62794 0.0
H475 H 0.04268 0.11255 0.84002 0.0
C476 C 0.08291 0.20871 0.73886 0.0
C477 C 0.09382 0.22402 0.67703 0.0
C478 C 0.09505 0.21393 0.61422 0.0
C479 C 0.08421 0.18959 0.61122 0.0
C480 C 0.07294 0.17523 0.6724 0.0
C481 C 0.07275 0.1842 0.73558 0.0
C482 C 0.06174 0.16414 0.7955 0.0
C483 C 0.07956 0.16003 0.8536 0.0
C484 C 0.03932 0.16984 0.82619 0.0
C485 C 0.05592 0.14252 0.75607 0.0
C486 C 0.06206 0.14945 0.68484 0.0
C487 C 0.05837 0.13273 0.63756 0.0
C488 C 0.04866 0.10811 0.66412 0.0
C489 C 0.04325 0.10042 0.73743 0.0
C490 C 0.04668 0.11794 0.7837 0.0
H491 H 0.35209 0.05852 0.93392 0.0
H492 H 0.32609 0.02867 0.74692 0.0
H493 H 0.35968 0.00762 0.7473 0.0
H494 H 0.41132 0.07245 0.8773 0.0
H495 H 0.42299 0.06548 0.96374 0.0
H496 H 0.39528 0.07522 0.95544 0.0
H497 H 0.37493 0.03597 0.03955 0.0
H498 H 0.40265 0.02612 0.04864 0.0
H499 H 0.37729 0.00633 0.01971 0.0
H500 H 0.39726 0.9922 0.76336 0.0
H501 H 0.43797 0.98706 0.78569 0.0
H502 H 0.44019 0.02806 0.96033 0.0
C503 C 0.35326 0.04708 0.89412 0.0
C504 C 0.33655 0.045 0.84061 0.0
C505 C 0.33885 0.03049 0.78811 0.0
C506 C 0.35771 0.01832 0.78835 0.0
C507 C 0.37413 0.02098 0.84131 0.0
C508 C 0.3722 0.03517 0.89292 0.0
C509 C 0.39357 0.03729 0.93893 0.0
C510 C 0.40655 0.0642 0.93348 0.0
C511 C 0.38669 0.02573 0.0163 0.0
C512 C 0.40794 0.02238 0.90447 0.0
C513 C 0.39624 0.01277 0.84912 0.0
C514 C 0.40652 0.99944 0.80701 0.0
C515 C 0.42967 0.99655 0.82033 0.0
C516 C 0.4424 0.00724 0.87472 0.0
C517 C 0.43103 0.01967 0.91845 0.0
H518 H 0.52322 0.30831 0.38644 0.0
H519 H 0.47251 0.25937 0.53755 0.0
H520 H 0.47856 0.29007 0.61849 0.0
H521 H 0.56319 0.33526 0.51272 0.0
H522 H 0.56834 0.3655 0.46062 0.0
H523 H 0.56148 0.33886 0.41758 0.0
H524 H 0.52644 0.35508 0.3568 0.0
H525 H 0.53314 0.38172 0.39973 0.0
H526 H 0.50413 0.36243 0.41049 0.0
H527 H 0.48952 0.32643 0.6813 0.0
H528 H 0.5032 0.36647 0.7198 0.0
H529 H 0.54471 0.39265 0.52349 0.0
C530 C 0.51375 0.30388 0.43719 0.0
C531 C 0.49765 0.28138 0.45642 0.0
C532 C 0.48503 0.27648 0.52223 0.0
C533 C 0.48839 0.29376 0.56847 0.0
C534 C 0.50419 0.31592 0.54756 0.0
C535 C 0.51656 0.32109 0.4833 0.0
C536 C 0.53124 0.34689 0.47129 0.0
C537 C 0.55763 0.3466 0.46522 0.0
C538 C 0.52325 0.36244 0.40571 0.0
C539 C 0.52527 0.35541 0.539 0.0
C540 C 0.50978 0.33722 0.58247 0.0
C541 C 0.50158 0.34085 0.64761 0.0
C542 C 0.50933 0.36374 0.66874 0.0
C543 C 0.52494 0.38283 0.62455 0.0
C544 C 0.53303 0.37842 0.55898 0.0
H545 H 0.21556 0.52069 0.75623 0.0
H546 H 0.23179 0.60019 0.71399 0.0
H547 H 0.18956 0.60081 0.7273 0.0
H548 H 0.15932 0.51055 0.66932 0.0
H549 H 0.14676 0.48534 0.73691 0.0
H550 H 0.17811 0.49253 0.71886 0.0
H551 H 0.18286 0.49495 0.85431 0.0
H552 H 0.15135 0.48958 0.86797 0.0
H553 H 0.16972 0.51664 0.89207 0.0
H554 H 0.14587 0.59301 0.73424 0.0
H555 H 0.1029 0.57725 0.74728 0.0
H556 H 0.11445 0.50289 0.7969 0.0
C557 C 0.21011 0.53816 0.74994 0.0
C558 C 0.22679 0.56043 0.73356 0.0
C559 C 0.21922 0.58298 0.72669 0.0
C560 C 0.1953 0.5835 0.73388 0.0
C561 C 0.17924 0.5613 0.74949 0.0
C562 C 0.18625 0.53902 0.7586 0.0
C563 C 0.16527 0.51793 0.7777 0.0
C564 C 0.16224 0.50058 0.72239 0.0
C565 C 0.16744 0.50395 0.85247 0.0
C566 C 0.14539 0.53188 0.77545 0.0
C567 C 0.15391 0.55686 0.7586 0.0
C568 C 0.13898 0.57353 0.74861 0.0
C569 C 0.11464 0.56443 0.75583 0.0
C570 C 0.10551 0.53896 0.77392 0.0
C571 C 0.12108 0.5225 0.78457 0.0
H572 H 0.95721 0.83431 0.94407 0.0
H573 H 0.02442 0.81173 0.95086 0.0
H574 H 0.04508 0.85533 0.93962 0.0
H575 H 0.97439 0.88546 0.81073 0.0
H576 H 0.95696 0.90412 0.84641 0.0
H577 H 0.94788 0.87126 0.86294 0.0
H578 H 0.94728 0.87179 0.99844 0.0
H579 H 0.95638 0.90471 0.98219 0.0
H580 H 0.97331 0.8864 0.03863 0.0
H581 H 0.05801 0.902 0.92659 0.0
H582 H 0.06211 0.94723 0.89856 0.0
H583 H 0.98619 0.93804 0.89037 0.0
C584 C 0.97627 0.83855 0.94487 0.0
C585 C 0.98932 0.81982 0.95017 0.0
C586 C 0.01422 0.82596 0.94787 0.0
C587 C 0.02603 0.85059 0.9418 0.0
C588 C 0.01258 0.86871 0.93685 0.0
C589 C 0.98823 0.86292 0.93741 0.0
C590 C 0.97778 0.88565 0.92502 0.0
C591 C 0.96342 0.88667 0.85725 0.0
C592 C 0.96281 0.88723 0.98994 0.0
C593 C 1.00002 0.90523 0.91624 0.0
C594 C 0.01995 0.89523 0.92487 0.0
C595 C 0.04252 0.90999 0.9196 0.0
C596 C 0.0447 0.93558 0.90395 0.0
C597 C 0.02446 0.94591 0.89206 0.0
C598 C 0.00193 0.93053 0.89884 0.0
H599 H 0.69221 0.98842 0.83893 0.0
H600 H 0.72008 0.04866 0.94987 0.0
H601 H 0.68335 0.06445 0.92982 0.0
H602 H 0.65603 0.02111 0.70919 0.0
H603 H 0.63229 0.99465 0.71672 0.0
H604 H 0.66227 0.99073 0.72777 0.0
H605 H 0.65044 0.9642 0.85088 0.0
H606 H 0.62054 0.96812 0.84032 0.0
H607 H 0.63634 0.9766 0.91675 0.0
H608 H 0.64245 0.07122 0.90888 0.0
H609 H 0.59958 0.0672 0.89542 0.0
H610 H 0.59734 0.00118 0.80343 0.0
C611 C 0.69079 0.00543 0.85645 0.0
C612 C 0.70904 0.01784 0.894 0.0
C613 C 0.70636 0.03934 0.91953 0.0
C614 C 0.68562 0.0484 0.90835 0.0
C615 C 0.66764 0.03553 0.87228 0.0
C616 C 0.66996 0.01444 0.84689 0.0
C617 C 0.64696 0.00237 0.81812 0.0
C618 C 0.64955 0.00222 0.73819 0.0
C619 C 0.63805 0.97629 0.85898 0.0
C620 C 0.63125 0.01959 0.83291 0.0
C621 C 0.64363 0.03885 0.86289 0.0
C622 C 0.63262 0.05639 0.88465 0.0
C623 C 0.60823 0.05394 0.87678 0.0
C624 C 0.59505 0.0339 0.84827 0.0
C625 C 0.6069 0.01682 0.82492 0.0
H626 H 0.51899 0.70169 0.34485 0.0
H627 H 0.56143 0.75263 0.17689 0.0
H628 H 0.55364 0.7212 0.09845 0.0
H629 H 0.53908 0.65003 0.3161 0.0
H630 H 0.51118 0.62905 0.33593 0.0
H631 H 0.51778 0.65642 0.37545 0.0
H632 H 0.47985 0.66932 0.3247 0.0
H633 H 0.47304 0.64187 0.28522 0.0
H634 H 0.47509 0.67146 0.23093 0.0
H635 H 0.54407 0.68273 0.04264 0.0
H636 H 0.53401 0.64066 0.01476 0.0
H637 H 0.49749 0.61557 0.21949 0.0
C638 C 0.52635 0.70649 0.29114 0.0
C639 C 0.54079 0.72968 0.26696 0.0
C640 C 0.55025 0.73503 0.19653 0.0
C641 C 0.54587 0.7173 0.15159 0.0
C642 C 0.5319 0.69444 0.17776 0.0
C643 C 0.52219 0.68908 0.24585 0.0
C644 C 0.50914 0.66272 0.26315 0.0
C645 C 0.51995 0.64874 0.32637 0.0
C646 C 0.48271 0.66127 0.27678 0.0
C647 C 0.51355 0.65381 0.19485 0.0
C648 C 0.52646 0.6724 0.14585 0.0
C649 C 0.53366 0.66814 0.08021 0.0
C650 C 0.52776 0.64419 0.06475 0.0
C651 C 0.51492 0.6248 0.11492 0.0
C652 C 0.50744 0.62992 0.1802 0.0
H653 H 0.85743 0.45396 0.00388 0.0
H654 H 0.82739 0.48762 0.81506 0.0
H655 H 0.86407 0.48933 0.74695 0.0
H656 H 0.91062 0.4914 0.981 0.0
H657 H 0.92792 0.46905 0.01411 0.0
H658 H 0.89775 0.46463 0.04384 0.0
H659 H 0.88844 0.42219 0.00295 0.0
H660 H 0.91878 0.42632 0.97374 0.0
H661 H 0.8955 0.41974 0.91287 0.0
H662 H 0.90586 0.49424 0.70534 0.0
H663 H 0.94915 0.50184 0.6933 0.0
H664 H 0.95249 0.46628 0.91039 0.0
C665 C 0.85813 0.46074 0.94752 0.0
C666 C 0.8394 0.47043 0.91464 0.0
C667 C 0.84139 0.47987 0.84124 0.0
C668 C 0.86216 0.48087 0.8021 0.0
C669 C 0.88073 0.47227 0.83706 0.0
C670 C 0.87881 0.46215 0.90806 0.0
C671 C 0.90226 0.45738 0.93565 0.0
C672 C 0.91008 0.47147 0.99723 0.0
C673 C 0.90117 0.42976 0.95758 0.0
C674 C 0.91795 0.46757 0.87009 0.0
C675 C 0.9051 0.47557 0.81338 0.0
C676 C 0.91601 0.48765 0.74901 0.0
C677 C 0.94066 0.4921 0.74289 0.0
C678 C 0.95421 0.48475 0.80099 0.0
C679 C 0.9426 0.47175 0.8647 0.0
H680 H 0.08733 0.19758 0.38859 0.0
H681 H 0.03947 0.24025 0.28065 0.0
H682 H 0.03215 0.21188 0.19327 0.0
H683 H 0.11272 0.18332 0.23279 0.0
H684 H 0.11459 0.1527 0.27346 0.0
H685 H 0.11619 0.17648 0.32709 0.0
H686 H 0.08125 0.14995 0.40674 0.0
H687 H 0.07961 0.12605 0.35356 0.0
H688 H 0.05395 0.13853 0.36681 0.0
H689 H 0.03056 0.17915 0.11669 0.0
H690 H 0.0337 0.14376 0.05889 0.0
H691 H 0.08149 0.12172 0.21988 0.0
C692 C 0.07535 0.20105 0.34648 0.0
C693 C 0.06404 0.22123 0.34127 0.0
C694 C 0.04836 0.22495 0.28566 0.0
C695 C 0.04412 0.20895 0.23573 0.0
C696 C 0.05562 0.18929 0.24234 0.0
C697 C 0.07084 0.18523 0.29648 0.0
C698 C 0.08072 0.16257 0.29235 0.0
C699 C 0.10765 0.16917 0.28072 0.0
C700 C 0.07344 0.14313 0.3588 0.0
C701 C 0.06867 0.15449 0.22735 0.0
C702 C 0.05435 0.1702 0.19911 0.0
C703 C 0.04159 0.16662 0.13865 0.0
C704 C 0.04337 0.14635 0.10646 0.0
C705 C 0.05771 0.12977 0.13501 0.0
C706 C 0.07056 0.1341 0.19618 0.0
H707 H 0.4182 0.08133 0.53324 0.0
H708 H 0.35067 0.0869 0.44076 0.0
H709 H 0.36883 0.09219 0.32118 0.0
H710 H 0.45465 0.12594 0.39647 0.0
H711 H 0.47775 0.10874 0.39823 0.0
H712 H 0.46006 0.10685 0.47718 0.0
H713 H 0.44877 0.05975 0.48787 0.0
H714 H 0.46664 0.06123 0.40976 0.0
H715 H 0.43599 0.04629 0.41369 0.0
H716 H 0.39363 0.09465 0.21196 0.0
H717 H 0.42324 0.09311 0.12083 0.0
H718 H 0.4744 0.08517 0.28436 0.0
C719 C 0.40726 0.0839 0.48787 0.0
C720 C 0.38298 0.08372 0.49651 0.0
C721 C 0.36929 0.08698 0.43563 0.0
C722 C 0.37947 0.09009 0.3674 0.0
C723 C 0.40338 0.09 0.36077 0.0
C724 C 0.41713 0.08702 0.41931 0.0
C725 C 0.44215 0.08648 0.39756 0.0
C726 C 0.45968 0.10831 0.41858 0.0
C727 C 0.44876 0.06197 0.42907 0.0
C728 C 0.44011 0.089 0.31779 0.0
C729 C 0.41768 0.0913 0.29764 0.0
C730 C 0.4113 0.09299 0.22702 0.0
C731 C 0.4282 0.09195 0.17568 0.0
C732 C 0.45119 0.08906 0.19521 0.0
C733 C 0.45718 0.08789 0.2673 0.0
H734 H 0.46475 0.33326 0.23396 0.0
H735 H 0.47741 0.28778 0.08067 0.0
H736 H 0.48888 0.32494 0.98998 0.0
H737 H 0.44111 0.37812 0.11233 0.0
H738 H 0.45518 0.40333 0.15484 0.0
H739 H 0.44669 0.37303 0.20573 0.0
H740 H 0.4896 0.37513 0.24666 0.0
H741 H 0.49823 0.40538 0.19581 0.0
H742 H 0.51334 0.38153 0.18114 0.0
H743 H 0.50129 0.36758 0.9184 0.0
H744 H 0.51278 0.41185 0.87135 0.0
H745 H 0.49145 0.42878 0.07241 0.0
C746 C 0.46964 0.33099 0.18112 0.0
C747 C 0.4701 0.30757 0.16433 0.0
C748 C 0.47683 0.30552 0.09466 0.0
C749 C 0.48338 0.32652 0.04285 0.0
C750 C 0.48301 0.34936 0.06161 0.0
C751 C 0.4762 0.35166 0.12905 0.0
C752 C 0.47811 0.37825 0.13682 0.0
C753 C 0.45382 0.38348 0.15339 0.0
C754 C 0.49588 0.38549 0.19344 0.0
C755 C 0.48723 0.39066 0.06328 0.0
C756 C 0.48996 0.37373 0.02057 0.0
C757 C 0.49903 0.38097 0.95121 0.0
C758 C 0.50555 0.40616 0.92503 0.0
C759 C 0.50288 0.42379 0.96807 0.0
C760 C 0.49343 0.4158 0.03785 0.0
H761 H 0.17374 0.49517 0.46915 0.0
H762 H 0.15383 0.56076 0.52057 0.0
H763 H 0.1215 0.55621 0.43682 0.0
H764 H 0.16495 0.50633 0.28788 0.0
H765 H 0.153 0.47489 0.2793 0.0
H766 H 0.17296 0.48168 0.3488 0.0
H767 H 0.14205 0.45534 0.44262 0.0
H768 H 0.12195 0.44839 0.37331 0.0
H769 H 0.11289 0.46182 0.44557 0.0
H770 H 0.09383 0.54688 0.33995 0.0
H771 H 0.07215 0.53289 0.23802 0.0
H772 H 0.10992 0.47337 0.24905 0.0
C773 C 0.16236 0.50836 0.46363 0.0
C774 C 0.16639 0.52839 0.50124 0.0
C775 C 0.15116 0.54532 0.49221 0.0
C776 C 0.13268 0.54284 0.44492 0.0
C777 C 0.1295 0.52321 0.40754 0.0
C778 C 0.14377 0.50613 0.41676 0.0
C779 C 0.1373 0.48745 0.36742 0.0
C780 C 0.1583 0.48762 0.31792 0.0
C781 C 0.12799 0.46173 0.40976 0.0
C782 C 0.11783 0.4973 0.327 0.0
C783 C 0.11341 0.51775 0.35167 0.0
C784 C 0.09699 0.53075 0.32059 0.0
C785 C 0.0849 0.52279 0.26236 0.0
C786 C 0.08938 0.50208 0.23543 0.0
C787 C 0.10586 0.48904 0.26902 0.0
H788 H 0.95874 0.87077 0.20759 0.0
H789 H 0.92703 0.80484 0.35237 0.0
H790 H 0.92992 0.82872 0.45067 0.0
H791 H 1.00016 0.89597 0.32775 0.0
H792 H 0.99773 0.92726 0.29724 0.0
H793 H 0.99242 0.90518 0.23761 0.0
H794 H 0.95117 0.91509 0.21261 0.0
H795 H 0.95635 0.93724 0.27211 0.0
H796 H 0.9307 0.91273 0.28563 0.0
H797 H 0.93724 0.85946 0.53393 0.0
H798 H 0.94794 0.89515 0.59596 0.0
H799 H 0.97519 0.94094 0.39729 0.0
C800 C 0.95224 0.86136 0.25985 0.0
C801 C 0.94262 0.83591 0.27221 0.0
C802 C 0.93445 0.82431 0.34151 0.0
C803 C 0.93601 0.83772 0.39774 0.0
C804 C 0.94576 0.86272 0.38384 0.0
C805 C 0.95369 0.87445 0.31661 0.0
C806 C 0.96383 0.90141 0.31621 0.0
C807 C 0.99009 0.90782 0.29337 0.0
C808 C 0.94966 0.91757 0.26884 0.0
C809 C 0.96043 0.90297 0.39378 0.0
C810 C 0.94998 0.88045 0.43186 0.0
C811 C 0.94541 0.87721 0.50466 0.0
C812 C 0.95168 0.89754 0.53949 0.0
C813 C 0.96241 0.92083 0.50154 0.0
C814 C 0.96675 0.92347 0.42764 0.0
H815 H 0.64926 0.99908 0.23616 0.0
H816 H 0.64455 0.92246 0.21865 0.0
H817 H 0.61468 0.91045 0.3167 0.0
H818 H 0.64372 0.99065 0.42567 0.0
H819 H 0.62634 0.01377 0.42616 0.0
H820 H 0.64715 0.01622 0.35414 0.0
H821 H 0.61381 0.01865 0.26431 0.0
H822 H 0.59293 0.01619 0.33621 0.0
H823 H 0.58766 0.99474 0.27463 0.0
H824 H 0.58491 0.90691 0.41608 0.0
H825 H 0.55846 0.91205 0.51145 0.0
H826 H 0.58381 0.99093 0.46553 0.0
C827 C 0.64196 0.97977 0.25284 0.0
C828 C 0.64927 0.96171 0.21974 0.0
C829 C 0.63926 0.93663 0.24325 0.0
C830 C 0.62232 0.92962 0.29901 0.0
C831 C 0.61558 0.9479 0.33062 0.0
C832 C 0.62507 0.97245 0.30833 0.0
C833 C 0.61487 0.98849 0.35118 0.0
C834 C 0.63417 0.00314 0.3917 0.0
C835 C 0.60153 0.00552 0.30374 0.0
C836 C 0.59814 0.96913 0.40109 0.0
C837 C 0.59867 0.94584 0.38815 0.0
C838 C 0.58451 0.92505 0.42716 0.0
C839 C 0.56964 0.92816 0.48145 0.0
C840 C 0.56907 0.95189 0.49635 0.0
C841 C 0.58353 0.97256 0.45514 0.0
H842 H 0.52284 0.68522 0.69879 0.0
H843 H 0.59193 0.70336 0.59344 0.0
H844 H 0.60007 0.66364 0.6509 0.0
H845 H 0.54087 0.65084 0.86717 0.0
H846 H 0.51312 0.62924 0.87539 0.0
H847 H 0.51457 0.66045 0.83356 0.0
H848 H 0.49548 0.64412 0.72293 0.0
H849 H 0.49475 0.61305 0.76444 0.0
H850 H 0.50951 0.62443 0.67918 0.0
H851 H 0.59814 0.61951 0.70484 0.0
H852 H 0.58769 0.57588 0.76025 0.0
H853 H 0.52078 0.58736 0.83529 0.0
C854 C 0.53992 0.68113 0.68917 0.0
C855 C 0.55674 0.69743 0.64162 0.0
C856 C 0.57881 0.69127 0.63002 0.0
C857 C 0.58359 0.66871 0.66232 0.0
C858 C 0.56629 0.65269 0.70701 0.0
C859 C 0.54506 0.65882 0.72151 0.0
C860 C 0.52893 0.63787 0.76838 0.0
C861 C 0.52412 0.64505 0.84043 0.0
C862 C 0.50582 0.62938 0.7315 0.0
C863 C 0.54403 0.61867 0.77586 0.0
C864 C 0.56554 0.62757 0.74019 0.0
C865 C 0.58158 0.61251 0.7343 0.0
C866 C 0.57546 0.58774 0.76556 0.0
C867 C 0.55357 0.57835 0.80269 0.0
C868 C 0.53786 0.59416 0.80857 0.0
H869 H 0.83924 0.49861 0.29803 0.0
H870 H 0.84897 0.56568 0.14477 0.0
H871 H 0.88218 0.58429 0.21216 0.0
H872 H 0.85664 0.52814 0.45735 0.0
H873 H 0.87143 0.50399 0.49402 0.0
H874 H 0.84616 0.49736 0.44014 0.0
H875 H 0.8708 0.47909 0.35736 0.0
H876 H 0.89616 0.48586 0.41039 0.0
H877 H 0.89795 0.4976 0.31678 0.0
H878 H 0.91747 0.59352 0.28615 0.0
H879 H 0.95122 0.59334 0.36514 0.0
H880 H 0.91858 0.52031 0.46989 0.0
C881 C 0.84786 0.51748 0.27981 0.0
C882 C 0.84142 0.53073 0.21627 0.0
C883 C 0.85351 0.5552 0.19345 0.0
C884 C 0.8724 0.56595 0.23141 0.0
C885 C 0.87885 0.55206 0.29238 0.0
C886 C 0.86678 0.52845 0.31696 0.0
C887 C 0.8785 0.51673 0.38038 0.0
C888 C 0.86221 0.51124 0.44692 0.0
C889 C 0.88632 0.49346 0.36527 0.0
C890 C 0.89946 0.53713 0.38613 0.0
C891 C 0.89923 0.55743 0.3353 0.0
C892 C 0.91764 0.57789 0.32695 0.0
C893 C 0.9368 0.57756 0.37161 0.0
C894 C 0.93741 0.55688 0.42382 0.0
C895 C 0.91834 0.53657 0.43146 0.0
loop_
_geom_bond_atom_site_label_1
_geom_bond_atom_site_label_2
_geom_bond_distance
_geom_bond_site_symmetry_2
_ccdc_geom_bond_type
O0 Cd1 2.300 . S
O0 C7 1.275 . S
Cd1 O0 2.300 . S
Cd1 O9 2.381 . S
Cd1 O10 2.378 . S
O2 Cd3 2.385 1_556 S
O2 C7 1.255 . S
Cd3 O2 2.385 1_554 S
Cd3 O4 2.317 . S
O4 Cd3 2.317 . S
O4 C5 1.232 . S
C5 O4 1.232 . S
C5 O6 1.218 . S
O6 C5 1.218 . S
C7 O0 1.275 . S
C7 O2 1.255 . S
C8 O9 1.258 . S
C8 O10 1.256 . S
O9 Cd1 2.381 . S
O9 C8 1.258 . S
O10 Cd1 2.378 . S
O10 C8 1.256 . S
O11 Cd12 2.300 1_556 S
O11 C18 1.275 . S
Cd12 O11 2.300 1_554 S
Cd12 O20 2.381 1_554 S
Cd12 O21 2.378 . S
O13 Cd14 2.385 1_655 S
O13 C18 1.255 1_554 S
Cd14 O13 2.385 1_455 S
Cd14 O15 2.317 1_455 S
O15 Cd14 2.317 1_655 S
O15 C16 1.232 . S
C16 O15 1.232 . S
C16 O17 1.218 . S
O17 C16 1.218 . S
C18 O11 1.275 . S
C18 O13 1.255 1_556 S
C19 O20 1.258 . S
C19 O21 1.256 1_556 S
O20 Cd12 2.381 1_556 S
O20 C19 1.258 . S
O21 Cd12 2.378 . S
O21 C19 1.256 1_554 S
O22 Cd23 2.300 . S
O22 C29 1.275 . S
Cd23 O22 2.300 . S
Cd23 O31 2.381 . S
Cd23 O32 2.378 . S
O24 Cd25 2.385 1_566 S
O24 C29 1.255 . S
Cd25 O24 2.385 1_544 S
Cd25 O26 2.317 1_545 S
O26 Cd25 2.317 1_565 S
O26 C27 1.232 . S
C27 O26 1.232 . S
C27 O28 1.218 . S
O28 C27 1.218 . S
C29 O22 1.275 . S
C29 O24 1.255 . S
C30 O31 1.258 . S
C30 O32 1.256 . S
O31 Cd23 2.381 . S
O31 C30 1.258 . S
O32 Cd23 2.378 . S
O32 C30 1.256 . S
O33 Cd34 2.300 . S
O33 C40 1.275 . S
Cd34 O33 2.300 . S
Cd34 O42 2.381 . S
Cd34 O43 2.378 . S
O35 Cd36 2.385 . S
O35 C40 1.255 . S
Cd36 O35 2.385 . S
Cd36 O37 2.317 . S
O37 Cd36 2.317 . S
O37 C38 1.232 . S
C38 O37 1.232 . S
C38 O39 1.218 . S
O39 C38 1.218 . S
C40 O33 1.275 . S
C40 O35 1.255 . S
C41 O42 1.258 . S
C41 O43 1.256 . S
O42 Cd34 2.381 . S
O42 C41 1.258 . S
O43 Cd34 2.378 . S
O43 C41 1.256 . S
O44 Cd45 2.300 . S
O44 C51 1.275 . S
Cd45 O44 2.300 . S
Cd45 O53 2.381 . S
Cd45 O54 2.378 . S
O46 Cd47 2.385 . S
O46 C51 1.255 . S
Cd47 O46 2.385 . S
Cd47 O48 2.317 . S
O48 Cd47 2.317 . S
O48 C49 1.232 . S
C49 O48 1.232 . S
C49 O50 1.218 . S
O50 C49 1.218 . S
C51 O44 1.275 . S
C51 O46 1.255 . S
C52 O53 1.258 . S
C52 O54 1.256 . S
O53 Cd45 2.381 . S
O53 C52 1.258 . S
O54 Cd45 2.378 . S
O54 C52 1.256 . S
O55 Cd56 2.300 . S
O55 C62 1.275 . S
Cd56 O55 2.300 . S
Cd56 O64 2.381 . S
Cd56 O65 2.378 . S
O57 Cd58 2.385 . S
O57 C62 1.255 . S
Cd58 O57 2.385 . S
Cd58 O59 2.317 . S
O59 Cd58 2.317 . S
O59 C60 1.232 . S
C60 O59 1.232 . S
C60 O61 1.218 . S
O61 C60 1.218 . S
C62 O55 1.275 . S
C62 O57 1.255 . S
C63 O64 1.258 . S
C63 O65 1.256 . S
O64 Cd56 2.381 . S
O64 C63 1.258 . S
O65 Cd56 2.378 . S
O65 C63 1.256 . S
O66 Cd67 2.300 . S
O66 C73 1.275 . S
Cd67 O66 2.300 . S
Cd67 O75 2.381 . S
Cd67 O76 2.378 . S
O68 Cd69 2.385 . S
O68 C73 1.255 . S
Cd69 O68 2.385 . S
Cd69 O70 2.317 . S
O70 Cd69 2.317 . S
O70 C71 1.232 . S
C71 O70 1.232 . S
C71 O72 1.218 . S
O72 C71 1.218 . S
C73 O66 1.275 . S
C73 O68 1.255 . S
C74 O75 1.258 . S
C74 O76 1.256 . S
O75 Cd67 2.381 . S
O75 C74 1.258 . S
O76 Cd67 2.378 . S
O76 C74 1.256 . S
O77 Cd78 2.300 . S
O77 C84 1.275 . S
Cd78 O77 2.300 . S
Cd78 O86 2.381 . S
Cd78 O87 2.378 . S
O79 Cd80 2.385 . S
O79 C84 1.255 . S
Cd80 O79 2.385 . S
Cd80 O81 2.317 . S
O81 Cd80 2.317 . S
O81 C82 1.232 . S
C82 O81 1.232 . S
C82 O83 1.218 . S
O83 C82 1.218 . S
C84 O77 1.275 . S
C84 O79 1.255 . S
C85 O86 1.258 . S
C85 O87 1.256 . S
O86 Cd78 2.381 . S
O86 C85 1.258 . S
O87 Cd78 2.378 . S
O87 C85 1.256 . S
Nd88 C90 2.836 1_545 S
Nd88 O108 2.500 1_445 S
Nd88 O109 2.492 1_545 S
Nd88 O110 2.487 . S
Nd88 O111 2.682 . S
Nd88 O112 2.410 1_545 S
Nd88 O117 2.414 1_455 S
Nd88 O119 2.424 . S
Nd89 C99 2.836 1_556 S
Nd89 O111 2.414 . S
Nd89 O113 2.424 1_545 S
Nd89 O114 2.500 . S
Nd89 O115 2.492 1_556 S
Nd89 O116 2.487 1_455 S
Nd89 O117 2.682 1_455 S
Nd89 O118 2.410 . S
C90 Nd88 2.836 1_565 S
C90 C91 1.496 1_455 S
C90 O108 1.258 1_455 S
C90 O109 1.239 . S
C91 C90 1.496 1_655 S
C91 C92 1.382 . S
C91 C96 1.393 1_655 S
C92 C91 1.382 . S
C92 C93 1.392 . S
C92 H120 0.930 . S
C93 C92 1.392 . S
C93 C94 1.398 . S
C93 H121 0.929 . S
C94 C93 1.398 . S
C94 C95 1.352 1_655 S
C95 C94 1.352 1_455 S
C95 C96 1.384 . S
C95 H122 0.930 . S
C96 C91 1.393 1_455 S
C96 C95 1.384 . S
C96 H123 0.929 . S
C97 O110 1.241 . S
C97 O111 1.273 . S
C98 O112 1.251 . S
C98 O113 1.268 . S
C99 Nd89 2.836 1_554 S
C99 C100 1.498 . S
C99 O114 1.258 1_554 S
C99 O115 1.239 . S
C100 C99 1.498 . S
C100 C101 1.366 . S
C100 C105 1.407 . S
C101 C100 1.366 . S
C101 C102 1.392 . S
C101 H124 0.930 . S
C102 C101 1.392 . S
C102 C103 1.398 . S
C102 H125 0.929 . S
C103 C102 1.398 . S
C103 C104 1.352 . S
C104 C103 1.352 . S
C104 C105 1.384 . S
C104 H126 0.930 . S
C105 C100 1.407 . S
C105 C104 1.384 . S
C105 H127 0.929 . S
C106 O116 1.241 . S
C106 O117 1.273 . S
C107 O118 1.251 . S
C107 O119 1.268 . S
O108 Nd88 2.500 1_665 S
O108 C90 1.258 1_655 S
O109 Nd88 2.492 1_565 S
O109 C90 1.239 . S
O110 Nd88 2.487 . S
O110 C97 1.241 . S
O111 Nd88 2.682 . S
O111 Nd89 2.414 . S
O111 C97 1.273 . S
O112 Nd88 2.410 1_565 S
O112 C98 1.251 . S
O113 Nd89 2.424 1_565 S
O113 C98 1.268 . S
O114 Nd89 2.500 . S
O114 C99 1.258 1_556 S
O115 Nd89 2.492 1_554 S
O115 C99 1.239 . S
O116 Nd89 2.487 1_655 S
O116 C106 1.241 . S
O117 Nd88 2.414 1_655 S
O117 Nd89 2.682 1_655 S
O117 C106 1.273 . S
O118 Nd89 2.410 . S
O118 C107 1.251 . S
O119 Nd88 2.424 . S
O119 C107 1.268 . S
H120 C92 0.930 . S
H121 C93 0.929 . S
H122 C95 0.930 . S
H123 C96 0.929 . S
H124 C101 0.930 . S
H125 C102 0.929 . S
H126 C104 0.930 . S
H127 C105 0.929 . S
Nd128 C130 2.836 1_545 S
Nd128 O148 2.500 1_545 S
Nd128 O149 2.492 . S
Nd128 O150 2.487 . S
Nd128 O151 2.682 . S
Nd128 O152 2.410 . S
Nd128 O157 2.414 1_545 S
Nd128 O159 2.424 . S
Nd129 C139 2.836 1_556 S
Nd129 O151 2.414 . S
Nd129 O153 2.424 . S
Nd129 O154 2.500 . S
Nd129 O155 2.492 1_556 S
Nd129 O156 2.487 1_545 S
Nd129 O157 2.682 1_545 S
Nd129 O158 2.410 . S
C130 Nd128 2.836 1_565 S
C130 C131 1.498 . S
C130 O148 1.258 . S
C130 O149 1.239 1_565 S
C131 C130 1.498 . S
C131 C132 1.366 . S
C131 C136 1.407 . S
C132 C131 1.366 . S
C132 C133 1.392 . S
C132 H160 0.930 . S
C133 C132 1.392 . S
C133 C134 1.398 . S
C133 H161 0.929 . S
C134 C133 1.398 . S
C134 C135 1.352 . S
C135 C134 1.352 . S
C135 C136 1.384 . S
C135 H162 0.930 . S
C136 C131 1.407 . S
C136 C135 1.384 . S
C136 H163 0.929 1_565 S
C137 O150 1.241 . S
C137 O151 1.273 . S
C138 O152 1.251 . S
C138 O153 1.268 . S
C139 Nd129 2.836 1_554 S
C139 C140 1.498 . S
C139 O154 1.258 1_554 S
C139 O155 1.239 . S
C140 C139 1.498 . S
C140 C141 1.366 . S
C140 C145 1.407 . S
C141 C140 1.366 . S
C141 C142 1.392 . S
C141 H164 0.930 1_554 S
C142 C141 1.392 . S
C142 C143 1.398 . S
C142 H165 0.929 . S
C143 C142 1.398 . S
C143 C144 1.352 . S
C144 C143 1.352 . S
C144 C145 1.384 . S
C144 H166 0.930 . S
C145 C140 1.407 . S
C145 C144 1.384 . S
C145 H167 0.929 . S
C146 O156 1.241 . S
C146 O157 1.273 . S
C147 O158 1.251 . S
C147 O159 1.268 . S
O148 Nd128 2.500 1_565 S
O148 C130 1.258 . S
O149 Nd128 2.492 . S
O149 C130 1.239 1_545 S
O150 Nd128 2.487 . S
O150 C137 1.241 . S
O151 Nd128 2.682 . S
O151 Nd129 2.414 . S
O151 C137 1.273 . S
O152 Nd128 2.410 . S
O152 C138 1.251 . S
O153 Nd129 2.424 . S
O153 C138 1.268 . S
O154 Nd129 2.500 . S
O154 C139 1.258 1_556 S
O155 Nd129 2.492 1_554 S
O155 C139 1.239 . S
O156 Nd129 2.487 1_565 S
O156 C146 1.241 . S
O157 Nd128 2.414 1_565 S
O157 Nd129 2.682 1_565 S
O157 C146 1.273 . S
O158 Nd129 2.410 . S
O158 C147 1.251 . S
O159 Nd128 2.424 . S
O159 C147 1.268 . S
H160 C132 0.930 . S
H161 C133 0.929 . S
H162 C135 0.930 . S
H163 C136 0.929 1_545 S
H164 C141 0.930 1_556 S
H165 C142 0.929 . S
H166 C144 0.930 . S
H167 C145 0.929 . S
Nd168 C170 2.836 . S
Nd168 O188 2.500 . S
Nd168 O189 2.492 . S
Nd168 O190 2.487 . S
Nd168 O191 2.682 . S
Nd168 O192 2.410 . S
Nd168 O197 2.414 . S
Nd168 O199 2.424 . S
Nd169 C179 2.836 . S
Nd169 O191 2.414 . S
Nd169 O193 2.424 . S
Nd169 O194 2.500 . S
Nd169 O195 2.492 . S
Nd169 O196 2.487 . S
Nd169 O197 2.682 . S
Nd169 O198 2.410 . S
C170 Nd168 2.836 . S
C170 C171 1.498 . S
C170 O188 1.258 . S
C170 O189 1.239 . S
C171 C170 1.498 . S
C171 C172 1.366 . S
C171 C176 1.407 1_556 S
C172 C171 1.366 . S
C172 C173 1.392 . S
C172 H200 0.930 . S
C173 C172 1.392 . S
C173 C174 1.398 1_556 S
C173 H201 0.929 . S
C174 C173 1.398 1_554 S
C174 C175 1.352 . S
C175 C174 1.352 . S
C175 C176 1.384 . S
C175 H202 0.930 . S
C176 C171 1.407 1_554 S
C176 C175 1.384 . S
C176 H203 0.929 . S
C177 O190 1.241 . S
C177 O191 1.273 . S
C178 O192 1.251 . S
C178 O193 1.268 . S
C179 Nd169 2.836 . S
C179 C180 1.498 . S
C179 O194 1.258 . S
C179 O195 1.239 . S
C180 C179 1.498 . S
C180 C181 1.366 . S
C180 C185 1.407 . S
C181 C180 1.366 . S
C181 C182 1.392 . S
C181 H204 0.930 . S
C182 C181 1.392 . S
C182 C183 1.398 . S
C182 H205 0.929 . S
C183 C182 1.398 . S
C183 C184 1.352 . S
C184 C183 1.352 . S
C184 C185 1.384 . S
C184 H206 0.930 . S
C185 C180 1.407 . S
C185 C184 1.384 . S
C185 H207 0.929 . S
C186 O196 1.241 . S
C186 O197 1.273 . S
C187 O198 1.251 . S
C187 O199 1.268 . S
O188 Nd168 2.500 . S
O188 C170 1.258 . S
O189 Nd168 2.492 . S
O189 C170 1.239 . S
O190 Nd168 2.487 . S
O190 C177 1.241 . S
O191 Nd168 2.682 . S
O191 Nd169 2.414 . S
O191 C177 1.273 . S
O192 Nd168 2.410 . S
O192 C178 1.251 . S
O193 Nd169 2.424 . S
O193 C178 1.268 . S
O194 Nd169 2.500 . S
O194 C179 1.258 . S
O195 Nd169 2.492 . S
O195 C179 1.239 . S
O196 Nd169 2.487 . S
O196 C186 1.241 . S
O197 Nd168 2.414 . S
O197 Nd169 2.682 . S
O197 C186 1.273 . S
O198 Nd169 2.410 . S
O198 C187 1.251 . S
O199 Nd168 2.424 . S
O199 C187 1.268 . S
H200 C172 0.930 . S
H201 C173 0.929 . S
H202 C175 0.930 . S
H203 C176 0.929 . S
H204 C181 0.930 . S
H205 C182 0.929 . S
H206 C184 0.930 . S
H207 C185 0.929 . S
Nd208 C210 2.836 1_455 S
Nd208 O228 2.500 1_455 S
Nd208 O229 2.492 1_455 S
Nd208 O230 2.487 . S
Nd208 O231 2.682 . S
Nd208 O232 2.410 1_455 S
Nd208 O237 2.414 . S
Nd208 O239 2.424 . S
Nd209 C219 2.836 1_556 S
Nd209 O231 2.414 . S
Nd209 O233 2.424 1_455 S
Nd209 O234 2.495 1_556 S
Nd209 O235 2.492 1_556 S
Nd209 O236 2.487 . S
Nd209 O237 2.682 . S
Nd209 O238 2.410 . S
C210 Nd208 2.836 1_655 S
C210 C211 1.498 . S
C210 O228 1.258 . S
C210 O229 1.239 . S
C211 C210 1.498 . S
C211 C212 1.366 . S
C211 C216 1.407 . S
C212 C211 1.366 . S
C212 C213 1.392 . S
C212 H240 0.930 . S
C213 C212 1.392 . S
C213 C214 1.398 . S
C213 H241 0.929 . S
C214 C213 1.398 . S
C214 C215 1.352 . S
C215 C214 1.352 . S
C215 C216 1.384 . S
C215 H242 0.930 . S
C216 C211 1.407 . S
C216 C215 1.384 . S
C216 H243 0.929 . S
C217 O230 1.241 . S
C217 O231 1.273 . S
C218 O232 1.251 . S
C218 O233 1.268 . S
C219 Nd209 2.836 1_554 S
C219 C220 1.498 . S
C219 O234 1.268 . S
C219 O235 1.239 . S
C220 C219 1.498 . S
C220 C221 1.366 . S
C220 C225 1.407 . S
C221 C220 1.366 . S
C221 C222 1.392 . S
C221 H244 0.930 . S
C222 C221 1.392 . S
C222 C223 1.398 . S
C222 H245 0.929 . S
C223 C222 1.398 . S
C223 C224 1.352 . S
C224 C223 1.352 . S
C224 C225 1.384 . S
C224 H246 0.930 . S
C225 C220 1.407 . S
C225 C224 1.384 . S
C225 H247 0.929 . S
C226 O236 1.241 . S
C226 O237 1.273 . S
C227 O238 1.251 . S
C227 O239 1.268 . S
O228 Nd208 2.500 1_655 S
O228 C210 1.258 . S
O229 Nd208 2.492 1_655 S
O229 C210 1.239 . S
O230 Nd208 2.487 . S
O230 C217 1.241 . S
O231 Nd208 2.682 . S
O231 Nd209 2.414 . S
O231 C217 1.273 . S
O232 Nd208 2.410 1_655 S
O232 C218 1.251 . S
O233 Nd209 2.424 1_655 S
O233 C218 1.268 . S
O234 Nd209 2.495 1_554 S
O234 C219 1.268 . S
O235 Nd209 2.492 1_554 S
O235 C219 1.239 . S
O236 Nd209 2.487 . S
O236 C226 1.241 . S
O237 Nd208 2.414 . S
O237 Nd209 2.682 . S
O237 C226 1.273 . S
O238 Nd209 2.410 . S
O238 C227 1.251 . S
O239 Nd208 2.424 . S
O239 C227 1.268 . S
H240 C212 0.930 . S
H241 C213 0.929 . S
H242 C215 0.930 . S
H243 C216 0.929 . S
H244 C221 0.930 . S
H245 C222 0.929 . S
H246 C224 0.930 . S
H247 C225 0.929 . S
H248 C260 0.930 . S
H249 C262 0.930 . S
H250 C263 0.930 . S
H251 C267 0.959 . S
H252 C267 0.959 . S
H253 C267 0.961 . S
H254 C268 0.960 . S
H255 C268 0.961 . S
H256 C268 0.959 . S
H257 C271 0.929 . S
H258 C272 0.931 . S
H259 C274 0.930 . S
C260 H248 0.930 . S
C260 C261 1.399 . S
C260 C265 1.399 . S
C261 C260 1.399 . S
C261 C262 1.376 . S
C262 H249 0.930 . S
C262 C261 1.376 . S
C262 C263 1.388 . S
C263 H250 0.930 . S
C263 C262 1.388 . S
C263 C264 1.390 . S
C264 C263 1.390 . S
C264 C265 1.394 . S
C264 C270 1.465 . S
C265 C260 1.399 . S
C265 C264 1.394 . S
C265 C266 1.516 . S
C266 C265 1.516 . S
C266 C267 1.502 . S
C266 C268 1.561 . S
C266 C269 1.526 . S
C267 H251 0.959 . S
C267 H252 0.959 . S
C267 H253 0.961 . S
C267 C266 1.502 . S
C268 H254 0.960 . S
C268 H255 0.961 . S
C268 H256 0.959 . S
C268 C266 1.561 . S
C269 C266 1.526 . S
C269 C270 1.396 . S
C269 C274 1.390 . S
C270 C264 1.465 . S
C270 C269 1.396 . S
C270 C271 1.399 . S
C271 H257 0.929 . S
C271 C270 1.399 . S
C271 C272 1.385 . S
C272 H258 0.931 . S
C272 C271 1.385 . S
C272 C273 1.389 . S
C273 C272 1.389 . S
C273 C274 1.387 . S
C274 H259 0.930 . S
C274 C269 1.390 . S
C274 C273 1.387 . S
H275 C287 0.930 . S
H276 C289 0.930 . S
H277 C290 0.930 . S
H278 C294 0.959 . S
H279 C294 0.959 . S
H280 C294 0.961 . S
H281 C295 0.960 . S
H282 C295 0.961 . S
H283 C295 0.959 . S
H284 C298 0.929 . S
H285 C299 0.931 . S
H286 C301 0.930 . S
C287 H275 0.930 . S
C287 C288 1.399 . S
C287 C292 1.399 . S
C288 C287 1.399 . S
C288 C289 1.376 . S
C289 H276 0.930 . S
C289 C288 1.376 . S
C289 C290 1.388 . S
C290 H277 0.930 . S
C290 C289 1.388 . S
C290 C291 1.390 . S
C291 C290 1.390 . S
C291 C292 1.394 . S
C291 C297 1.465 . S
C292 C287 1.399 . S
C292 C291 1.394 . S
C292 C293 1.516 . S
C293 C292 1.516 . S
C293 C294 1.502 . S
C293 C295 1.561 . S
C293 C296 1.526 . S
C294 H278 0.959 . S
C294 H279 0.959 . S
C294 H280 0.961 . S
C294 C293 1.502 . S
C295 H281 0.960 . S
C295 H282 0.961 . S
C295 H283 0.959 . S
C295 C293 1.561 . S
C296 C293 1.526 . S
C296 C297 1.396 . S
C296 C301 1.390 . S
C297 C291 1.465 . S
C297 C296 1.396 . S
C297 C298 1.399 . S
C298 H284 0.929 . S
C298 C297 1.399 . S
C298 C299 1.385 . S
C299 H285 0.931 . S
C299 C298 1.385 . S
C299 C300 1.389 . S
C300 C299 1.389 . S
C300 C301 1.387 . S
C301 H286 0.930 . S
C301 C296 1.390 . S
C301 C300 1.387 . S
H302 C314 0.930 . S
H303 C316 0.930 . S
H304 C317 0.930 . S
H305 C321 0.959 . S
H306 C321 0.959 . S
H307 C321 0.961 . S
H308 C322 0.960 . S
H309 C322 0.961 . S
H310 C322 0.959 . S
H311 C325 0.929 . S
H312 C326 0.931 . S
H313 C328 0.930 . S
C314 H302 0.930 . S
C314 C315 1.399 . S
C314 C319 1.399 . S
C315 C314 1.399 . S
C315 C316 1.376 . S
C316 H303 0.930 . S
C316 C315 1.376 . S
C316 C317 1.388 . S
C317 H304 0.930 . S
C317 C316 1.388 . S
C317 C318 1.390 . S
C318 C317 1.390 . S
C318 C319 1.394 . S
C318 C324 1.465 . S
C319 C314 1.399 . S
C319 C318 1.394 . S
C319 C320 1.516 . S
C320 C319 1.516 . S
C320 C321 1.502 . S
C320 C322 1.561 . S
C320 C323 1.526 . S
C321 H305 0.959 . S
C321 H306 0.959 . S
C321 H307 0.961 . S
C321 C320 1.502 . S
C322 H308 0.960 . S
C322 H309 0.961 . S
C322 H310 0.959 . S
C322 C320 1.561 . S
C323 C320 1.526 . S
C323 C324 1.396 . S
C323 C328 1.390 . S
C324 C318 1.465 . S
C324 C323 1.396 . S
C324 C325 1.399 . S
C325 H311 0.929 . S
C325 C324 1.399 . S
C325 C326 1.385 . S
C326 H312 0.931 . S
C326 C325 1.385 . S
C326 C327 1.389 . S
C327 C326 1.389 . S
C327 C328 1.387 . S
C328 H313 0.930 . S
C328 C323 1.390 . S
C328 C327 1.387 . S
H329 C341 0.930 . S
H330 C343 0.930 . S
H331 C344 0.930 . S
H332 C348 0.959 . S
H333 C348 0.959 . S
H334 C348 0.961 . S
H335 C349 0.960 . S
H336 C349 0.961 . S
H337 C349 0.959 . S
H338 C352 0.929 . S
H339 C353 0.931 . S
H340 C355 0.930 . S
C341 H329 0.930 . S
C341 C342 1.399 . S
C341 C346 1.399 . S
C342 C341 1.399 . S
C342 C343 1.376 . S
C343 H330 0.930 . S
C343 C342 1.376 . S
C343 C344 1.388 . S
C344 H331 0.930 . S
C344 C343 1.388 . S
C344 C345 1.390 . S
C345 C344 1.390 . S
C345 C346 1.394 . S
C345 C351 1.465 . S
C346 C341 1.399 . S
C346 C345 1.394 . S
C346 C347 1.516 . S
C347 C346 1.516 . S
C347 C348 1.502 . S
C347 C349 1.561 . S
C347 C350 1.526 . S
C348 H332 0.959 . S
C348 H333 0.959 . S
C348 H334 0.961 . S
C348 C347 1.502 . S
C349 H335 0.960 . S
C349 H336 0.961 . S
C349 H337 0.959 . S
C349 C347 1.561 . S
C350 C347 1.526 . S
C350 C351 1.396 . S
C350 C355 1.390 . S
C351 C345 1.465 . S
C351 C350 1.396 . S
C351 C352 1.399 . S
C352 H338 0.929 . S
C352 C351 1.399 . S
C352 C353 1.385 . S
C353 H339 0.931 . S
C353 C352 1.385 . S
C353 C354 1.389 . S
C354 C353 1.389 . S
C354 C355 1.387 . S
C355 H340 0.930 . S
C355 C350 1.390 . S
C355 C354 1.387 . S
H356 C368 0.930 . S
H357 C370 0.930 1_554 S
H358 C371 0.930 1_554 S
H359 C375 0.959 1_565 S
H360 C375 0.959 . S
H361 C375 0.961 . S
H362 C376 0.960 . S
H363 C376 0.961 . S
H364 C376 0.959 . S
H365 C379 0.929 . S
H366 C380 0.931 . S
H367 C382 0.930 . S
C368 H356 0.930 . S
C368 C369 1.399 . S
C368 C373 1.399 . S
C369 C368 1.399 . S
C369 C370 1.376 . S
C370 H357 0.930 1_556 S
C370 C369 1.376 . S
C370 C371 1.388 . S
C371 H358 0.930 1_556 S
C371 C370 1.388 . S
C371 C372 1.390 . S
C372 C371 1.390 . S
C372 C373 1.394 . S
C372 C378 1.465 . S
C373 C368 1.399 . S
C373 C372 1.394 . S
C373 C374 1.516 1_565 S
C374 C373 1.516 1_545 S
C374 C375 1.502 . S
C374 C376 1.561 . S
C374 C377 1.526 . S
C375 H359 0.959 1_545 S
C375 H360 0.959 . S
C375 H361 0.961 . S
C375 C374 1.502 . S
C376 H362 0.960 . S
C376 H363 0.961 . S
C376 H364 0.959 . S
C376 C374 1.561 . S
C377 C374 1.526 . S
C377 C378 1.396 1_545 S
C377 C382 1.390 . S
C378 C372 1.465 . S
C378 C377 1.396 1_565 S
C378 C379 1.399 . S
C379 H365 0.929 . S
C379 C378 1.399 . S
C379 C380 1.385 . S
C380 H366 0.931 . S
C380 C379 1.385 . S
C380 C381 1.389 1_565 S
C381 C380 1.389 1_545 S
C381 C382 1.387 . S
C382 H367 0.930 . S
C382 C377 1.390 . S
C382 C381 1.387 . S
H383 C395 0.930 . S
H384 C397 0.930 . S
H385 C398 0.930 . S
H386 C402 0.959 . S
H387 C402 0.959 1_556 S
H388 C402 0.961 . S
H389 C403 0.960 . S
H390 C403 0.961 1_556 S
H391 C403 0.959 . S
H392 C406 0.929 . S
H393 C407 0.931 . S
H394 C409 0.930 . S
C395 H383 0.930 . S
C395 C396 1.399 . S
C395 C400 1.399 . S
C396 C395 1.399 . S
C396 C397 1.376 . S
C397 H384 0.930 . S
C397 C396 1.376 . S
C397 C398 1.388 . S
C398 H385 0.930 . S
C398 C397 1.388 . S
C398 C399 1.390 . S
C399 C398 1.390 . S
C399 C400 1.394 . S
C399 C405 1.465 . S
C400 C395 1.399 . S
C400 C399 1.394 . S
C400 C401 1.516 . S
C401 C400 1.516 . S
C401 C402 1.502 . S
C401 C403 1.561 . S
C401 C404 1.526 . S
C402 H386 0.959 . S
C402 H387 0.959 1_554 S
C402 H388 0.961 . S
C402 C401 1.502 . S
C403 H389 0.960 . S
C403 H390 0.961 1_554 S
C403 H391 0.959 . S
C403 C401 1.561 . S
C404 C401 1.526 . S
C404 C405 1.396 . S
C404 C409 1.390 1_554 S
C405 C399 1.465 . S
C405 C404 1.396 . S
C405 C406 1.399 . S
C406 H392 0.929 . S
C406 C405 1.399 . S
C406 C407 1.385 . S
C407 H393 0.931 . S
C407 C406 1.385 . S
C407 C408 1.389 1_554 S
C408 C407 1.389 1_556 S
C408 C409 1.387 . S
C409 H394 0.930 . S
C409 C404 1.390 1_556 S
C409 C408 1.387 . S
H410 C422 0.930 . S
H411 C424 0.930 . S
H412 C425 0.930 . S
H413 C429 0.959 . S
H414 C429 0.959 . S
H415 C429 0.961 . S
H416 C430 0.960 . S
H417 C430 0.961 . S
H418 C430 0.959 . S
H419 C433 0.929 . S
H420 C434 0.931 . S
H421 C436 0.930 . S
C422 H410 0.930 . S
C422 C423 1.399 . S
C422 C427 1.399 . S
C423 C422 1.399 . S
C423 C424 1.376 . S
C424 H411 0.930 . S
C424 C423 1.376 . S
C424 C425 1.388 . S
C425 H412 0.930 . S
C425 C424 1.388 . S
C425 C426 1.390 . S
C426 C425 1.390 . S
C426 C427 1.394 . S
C426 C432 1.465 . S
C427 C422 1.399 . S
C427 C426 1.394 . S
C427 C428 1.516 . S
C428 C427 1.516 . S
C428 C429 1.502 . S
C428 C430 1.561 . S
C428 C431 1.526 . S
C429 H413 0.959 . S
C429 H414 0.959 . S
C429 H415 0.961 . S
C429 C428 1.502 . S
C430 H416 0.960 . S
C430 H417 0.961 . S
C430 H418 0.959 . S
C430 C428 1.561 . S
C431 C428 1.526 . S
C431 C432 1.396 . S
C431 C436 1.390 . S
C432 C426 1.465 . S
C432 C431 1.396 . S
C432 C433 1.399 . S
C433 H419 0.929 . S
C433 C432 1.399 . S
C433 C434 1.385 . S
C434 H420 0.931 . S
C434 C433 1.385 . S
C434 C435 1.389 . S
C435 C434 1.389 . S
C435 C436 1.387 . S
C436 H421 0.930 . S
C436 C431 1.390 . S
C436 C435 1.387 . S
H437 C449 0.930 . S
H438 C451 0.930 . S
H439 C452 0.930 . S
H440 C456 0.959 . S
H441 C456 0.959 . S
H442 C456 0.961 1_655 S
H443 C457 0.960 . S
H444 C457 0.961 . S
H445 C457 0.959 . S
H446 C460 0.929 . S
H447 C461 0.928 1_455 S
H448 C463 0.944 . S
C449 H437 0.930 . S
C449 C450 1.399 1_554 S
C449 C454 1.399 1_554 S
C450 C449 1.399 1_556 S
C450 C451 1.376 . S
C451 H438 0.930 . S
C451 C450 1.376 . S
C451 C452 1.388 . S
C452 H439 0.930 . S
C452 C451 1.388 . S
C452 C453 1.390 . S
C453 C452 1.390 . S
C453 C454 1.394 . S
C453 C459 1.465 . S
C454 C449 1.399 1_556 S
C454 C453 1.394 . S
C454 C455 1.516 1_556 S
C455 C454 1.516 1_554 S
C455 C456 1.502 1_655 S
C455 C457 1.561 . S
C455 C458 1.526 1_554 S
C456 H440 0.959 . S
C456 H441 0.959 . S
C456 H442 0.961 1_455 S
C456 C455 1.502 1_455 S
C457 H443 0.960 . S
C457 H444 0.961 . S
C457 H445 0.959 . S
C457 C455 1.561 . S
C458 C455 1.526 1_556 S
C458 C459 1.396 . S
C458 C463 1.367 1_655 S
C459 C453 1.465 . S
C459 C458 1.396 . S
C459 C460 1.399 . S
C460 H446 0.929 . S
C460 C459 1.399 . S
C460 C461 1.391 . S
C461 H447 0.928 1_655 S
C461 C460 1.391 . S
C461 C462 1.386 1_655 S
C462 C461 1.386 1_455 S
C462 C463 1.396 . S
C463 H448 0.944 . S
C463 C458 1.367 1_455 S
C463 C462 1.396 . S
H464 C476 0.930 . S
H465 C478 0.930 . S
H466 C479 0.930 . S
H467 C483 0.959 . S
H468 C483 0.959 . S
H469 C483 0.961 . S
H470 C484 0.960 . S
H471 C484 0.961 . S
H472 C484 0.959 . S
H473 C487 0.929 . S
H474 C488 0.931 . S
H475 C490 0.930 . S
C476 H464 0.930 . S
C476 C477 1.399 . S
C476 C481 1.399 . S
C477 C476 1.399 . S
C477 C478 1.376 . S
C478 H465 0.930 . S
C478 C477 1.376 . S
C478 C479 1.388 . S
C479 H466 0.930 . S
C479 C478 1.388 . S
C479 C480 1.390 . S
C480 C479 1.390 . S
C480 C481 1.394 . S
C480 C486 1.465 . S
C481 C476 1.399 . S
C481 C480 1.394 . S
C481 C482 1.516 . S
C482 C481 1.516 . S
C482 C483 1.502 . S
C482 C484 1.561 . S
C482 C485 1.526 . S
C483 H467 0.959 . S
C483 H468 0.959 . S
C483 H469 0.961 . S
C483 C482 1.502 . S
C484 H470 0.960 . S
C484 H471 0.961 . S
C484 H472 0.959 . S
C484 C482 1.561 . S
C485 C482 1.526 . S
C485 C486 1.396 . S
C485 C490 1.390 . S
C486 C480 1.465 . S
C486 C485 1.396 . S
C486 C487 1.399 . S
C487 H473 0.929 . S
C487 C486 1.399 . S
C487 C488 1.385 . S
C488 H474 0.931 . S
C488 C487 1.385 . S
C488 C489 1.389 . S
C489 C488 1.389 . S
C489 C490 1.387 . S
C490 H475 0.930 . S
C490 C485 1.390 . S
C490 C489 1.387 . S
H491 C503 0.930 . S
H492 C505 0.930 . S
H493 C506 0.930 . S
H494 C510 0.959 . S
H495 C510 0.959 . S
H496 C510 0.961 . S
H497 C511 0.960 . S
H498 C511 0.961 . S
H499 C511 0.959 . S
H500 C514 0.929 1_565 S
H501 C515 0.931 . S
H502 C517 0.930 . S
C503 H491 0.930 . S
C503 C504 1.399 . S
C503 C508 1.399 . S
C504 C503 1.399 . S
C504 C505 1.376 . S
C505 H492 0.930 . S
C505 C504 1.376 . S
C505 C506 1.388 . S
C506 H493 0.930 . S
C506 C505 1.388 . S
C506 C507 1.390 . S
C507 C506 1.390 . S
C507 C508 1.394 . S
C507 C513 1.465 . S
C508 C503 1.399 . S
C508 C507 1.394 . S
C508 C509 1.516 . S
C509 C508 1.516 . S
C509 C510 1.502 . S
C509 C511 1.561 . S
C509 C512 1.526 . S
C510 H494 0.959 . S
C510 H495 0.959 . S
C510 H496 0.961 . S
C510 C509 1.502 . S
C511 H497 0.960 . S
C511 H498 0.961 . S
C511 H499 0.959 . S
C511 C509 1.561 . S
C512 C509 1.526 . S
C512 C513 1.396 . S
C512 C517 1.390 . S
C513 C507 1.465 . S
C513 C512 1.396 . S
C513 C514 1.399 . S
C514 H500 0.929 1_545 S
C514 C513 1.399 . S
C514 C515 1.385 1_545 S
C515 H501 0.931 . S
C515 C514 1.385 1_565 S
C515 C516 1.389 1_565 S
C516 C515 1.389 1_545 S
C516 C517 1.387 . S
C517 H502 0.930 . S
C517 C512 1.390 . S
C517 C516 1.387 . S
H518 C530 0.930 . S
H519 C532 0.930 . S
H520 C533 0.930 . S
H521 C537 0.959 . S
H522 C537 0.959 . S
H523 C537 0.961 . S
H524 C538 0.960 . S
H525 C538 0.961 . S
H526 C538 0.959 . S
H527 C541 0.929 . S
H528 C542 0.931 . S
H529 C544 0.930 . S
C530 H518 0.930 . S
C530 C531 1.399 . S
C530 C535 1.399 . S
C531 C530 1.399 . S
C531 C532 1.376 . S
C532 H519 0.930 . S
C532 C531 1.376 . S
C532 C533 1.388 . S
C533 H520 0.930 . S
C533 C532 1.388 . S
C533 C534 1.390 . S
C534 C533 1.390 . S
C534 C535 1.394 . S
C534 C540 1.465 . S
C535 C530 1.399 . S
C535 C534 1.394 . S
C535 C536 1.516 . S
C536 C535 1.516 . S
C536 C537 1.502 . S
C536 C538 1.561 . S
C536 C539 1.526 . S
C537 H521 0.959 . S
C537 H522 0.959 . S
C537 H523 0.961 . S
C537 C536 1.502 . S
C538 H524 0.960 . S
C538 H525 0.961 . S
C538 H526 0.959 . S
C538 C536 1.561 . S
C539 C536 1.526 . S
C539 C540 1.396 . S
C539 C544 1.390 . S
C540 C534 1.465 . S
C540 C539 1.396 . S
C540 C541 1.399 . S
C541 H527 0.929 . S
C541 C540 1.399 . S
C541 C542 1.385 . S
C542 H528 0.931 . S
C542 C541 1.385 . S
C542 C543 1.389 . S
C543 C542 1.389 . S
C543 C544 1.387 . S
C544 H529 0.930 . S
C544 C539 1.390 . S
C544 C543 1.387 . S
H545 C557 0.930 . S
H546 C559 0.930 . S
H547 C560 0.930 . S
H548 C564 0.959 . S
H549 C564 0.959 . S
H550 C564 0.961 . S
H551 C565 0.960 . S
H552 C565 0.961 . S
H553 C565 0.959 . S
H554 C568 0.929 . S
H555 C569 0.931 . S
H556 C571 0.930 . S
C557 H545 0.930 . S
C557 C558 1.399 . S
C557 C562 1.399 . S
C558 C557 1.399 . S
C558 C559 1.376 . S
C559 H546 0.930 . S
C559 C558 1.376 . S
C559 C560 1.388 . S
C560 H547 0.930 . S
C560 C559 1.388 . S
C560 C561 1.390 . S
C561 C560 1.390 . S
C561 C562 1.394 . S
C561 C567 1.465 . S
C562 C557 1.399 . S
C562 C561 1.394 . S
C562 C563 1.516 . S
C563 C562 1.516 . S
C563 C564 1.502 . S
C563 C565 1.561 . S
C563 C566 1.526 . S
C564 H548 0.959 . S
C564 H549 0.959 . S
C564 H550 0.961 . S
C564 C563 1.502 . S
C565 H551 0.960 . S
C565 H552 0.961 . S
C565 H553 0.959 . S
C565 C563 1.561 . S
C566 C563 1.526 . S
C566 C567 1.396 . S
C566 C571 1.390 . S
C567 C561 1.465 . S
C567 C566 1.396 . S
C567 C568 1.399 . S
C568 H554 0.929 . S
C568 C567 1.399 . S
C568 C569 1.385 . S
C569 H555 0.931 . S
C569 C568 1.385 . S
C569 C570 1.389 . S
C570 C569 1.389 . S
C570 C571 1.387 . S
C571 H556 0.930 . S
C571 C566 1.390 . S
C571 C570 1.387 . S
H572 C584 0.930 1_554 S
H573 C586 0.930 . S
H574 C587 0.930 . S
H575 C591 0.959 . S
H576 C591 0.959 . S
H577 C591 0.961 . S
H578 C592 0.960 . S
H579 C592 0.961 . S
H580 C592 0.959 1_556 S
H581 C595 0.929 . S
H582 C596 0.931 . S
H583 C598 0.930 . S
C584 H572 0.930 1_556 S
C584 C585 1.399 . S
C584 C589 1.399 . S
C585 C584 1.399 . S
C585 C586 1.376 . S
C586 H573 0.930 . S
C586 C585 1.376 . S
C586 C587 1.388 . S
C587 H574 0.930 . S
C587 C586 1.388 . S
C587 C588 1.390 . S
C588 C587 1.390 . S
C588 C589 1.394 . S
C588 C594 1.465 . S
C589 C584 1.399 . S
C589 C588 1.394 . S
C589 C590 1.507 1_556 S
C590 C589 1.507 1_554 S
C590 C591 1.513 . S
C590 C592 1.567 1_655 S
C590 C593 1.517 1_554 S
C591 H575 0.959 . S
C591 H576 0.959 . S
C591 H577 0.961 . S
C591 C590 1.513 . S
C592 H578 0.960 . S
C592 H579 0.961 . S
C592 H580 0.959 1_554 S
C592 C590 1.567 1_455 S
C593 C590 1.517 1_556 S
C593 C594 1.396 . S
C593 C598 1.390 1_655 S
C594 C588 1.465 . S
C594 C593 1.396 . S
C594 C595 1.399 . S
C595 H581 0.929 . S
C595 C594 1.399 . S
C595 C596 1.385 1_655 S
C596 H582 0.931 . S
C596 C595 1.385 1_455 S
C596 C597 1.389 . S
C597 C596 1.389 . S
C597 C598 1.387 . S
C598 H583 0.930 . S
C598 C593 1.390 1_455 S
C598 C597 1.387 . S
H599 C611 0.930 . S
H600 C613 0.930 1_554 S
H601 C614 0.930 1_554 S
H602 C618 0.959 . S
H603 C618 0.959 . S
H604 C618 0.961 . S
H605 C619 0.960 . S
H606 C619 0.961 . S
H607 C619 0.959 . S
H608 C622 0.929 1_554 S
H609 C623 0.931 . S
H610 C625 0.930 . S
C611 H599 0.930 . S
C611 C612 1.399 . S
C611 C616 1.399 . S
C612 C611 1.399 . S
C612 C613 1.376 . S
C613 H600 0.930 1_556 S
C613 C612 1.376 . S
C613 C614 1.388 . S
C614 H601 0.930 1_556 S
C614 C613 1.388 . S
C614 C615 1.390 . S
C615 C614 1.390 . S
C615 C616 1.394 . S
C615 C621 1.465 . S
C616 C611 1.399 . S
C616 C615 1.394 . S
C616 C617 1.516 . S
C617 C616 1.516 . S
C617 C618 1.502 1_565 S
C617 C619 1.561 . S
C617 C620 1.526 1_565 S
C618 H602 0.959 . S
C618 H603 0.959 . S
C618 H604 0.961 . S
C618 C617 1.502 1_545 S
C619 H605 0.960 . S
C619 H606 0.961 . S
C619 H607 0.959 . S
C619 C617 1.561 . S
C620 C617 1.526 1_545 S
C620 C621 1.396 1_545 S
C620 C625 1.390 . S
C621 C615 1.465 . S
C621 C620 1.396 1_565 S
C621 C622 1.399 . S
C622 H608 0.929 1_556 S
C622 C621 1.399 . S
C622 C623 1.385 1_565 S
C623 H609 0.931 . S
C623 C622 1.385 1_545 S
C623 C624 1.389 . S
C624 C623 1.389 . S
C624 C625 1.387 . S
C625 H610 0.930 . S
C625 C620 1.390 . S
C625 C624 1.387 . S
H626 C638 0.930 . S
H627 C640 0.930 . S
H628 C641 0.930 . S
H629 C645 0.959 . S
H630 C645 0.959 . S
H631 C645 0.961 . S
H632 C646 0.960 . S
H633 C646 0.961 . S
H634 C646 0.959 . S
H635 C649 0.929 . S
H636 C650 0.931 1_556 S
H637 C652 0.930 . S
C638 H626 0.930 . S
C638 C639 1.399 . S
C638 C643 1.399 . S
C639 C638 1.399 . S
C639 C640 1.376 . S
C640 H627 0.930 . S
C640 C639 1.376 . S
C640 C641 1.388 . S
C641 H628 0.930 . S
C641 C640 1.388 . S
C641 C642 1.390 . S
C642 C641 1.390 . S
C642 C643 1.394 . S
C642 C648 1.465 . S
C643 C638 1.399 . S
C643 C642 1.394 . S
C643 C644 1.516 . S
C644 C643 1.516 . S
C644 C645 1.502 . S
C644 C646 1.561 . S
C644 C647 1.526 . S
C645 H629 0.959 . S
C645 H630 0.959 . S
C645 H631 0.961 . S
C645 C644 1.502 . S
C646 H632 0.960 . S
C646 H633 0.961 . S
C646 H634 0.959 . S
C646 C644 1.561 . S
C647 C644 1.526 . S
C647 C648 1.396 . S
C647 C652 1.390 . S
C648 C642 1.465 . S
C648 C647 1.396 . S
C648 C649 1.399 . S
C649 H635 0.929 . S
C649 C648 1.399 . S
C649 C650 1.385 . S
C650 H636 0.931 1_554 S
C650 C649 1.385 . S
C650 C651 1.389 . S
C651 C650 1.389 . S
C651 C652 1.387 . S
C652 H637 0.930 . S
C652 C647 1.390 . S
C652 C651 1.387 . S
H653 C665 0.930 . S
H654 C667 0.930 . S
H655 C668 0.930 . S
H656 C672 0.959 1_554 S
H657 C672 0.959 1_554 S
H658 C672 0.961 1_554 S
H659 C673 0.960 . S
H660 C673 0.961 . S
H661 C673 0.959 . S
H662 C676 0.929 . S
H663 C677 0.931 . S
H664 C679 0.930 . S
C665 H653 0.930 . S
C665 C666 1.399 . S
C665 C670 1.399 . S
C666 C665 1.399 . S
C666 C667 1.376 . S
C667 H654 0.930 . S
C667 C666 1.376 . S
C667 C668 1.388 . S
C668 H655 0.930 . S
C668 C667 1.388 . S
C668 C669 1.390 . S
C669 C668 1.390 . S
C669 C670 1.394 . S
C669 C675 1.465 . S
C670 C665 1.399 . S
C670 C669 1.394 . S
C670 C671 1.516 . S
C671 C670 1.516 . S
C671 C672 1.502 . S
C671 C673 1.561 . S
C671 C674 1.526 . S
C672 H656 0.959 1_556 S
C672 H657 0.959 1_556 S
C672 H658 0.961 1_556 S
C672 C671 1.502 . S
C673 H659 0.960 . S
C673 H660 0.961 . S
C673 H661 0.959 . S
C673 C671 1.561 . S
C674 C671 1.526 . S
C674 C675 1.396 . S
C674 C679 1.390 . S
C675 C669 1.465 . S
C675 C674 1.396 . S
C675 C676 1.399 . S
C676 H662 0.929 . S
C676 C675 1.399 . S
C676 C677 1.385 . S
C677 H663 0.931 . S
C677 C676 1.385 . S
C677 C678 1.389 . S
C678 C677 1.389 . S
C678 C679 1.387 . S
C679 H664 0.930 . S
C679 C674 1.390 . S
C679 C678 1.387 . S
H680 C692 0.930 . S
H681 C694 0.930 . S
H682 C695 0.930 . S
H683 C699 0.959 . S
H684 C699 0.959 . S
H685 C699 0.961 . S
H686 C700 0.960 . S
H687 C700 0.961 . S
H688 C700 0.959 . S
H689 C703 0.929 . S
H690 C704 0.931 . S
H691 C706 0.930 . S
C692 H680 0.930 . S
C692 C693 1.399 . S
C692 C697 1.399 . S
C693 C692 1.399 . S
C693 C694 1.376 . S
C694 H681 0.930 . S
C694 C693 1.376 . S
C694 C695 1.388 . S
C695 H682 0.930 . S
C695 C694 1.388 . S
C695 C696 1.390 . S
C696 C695 1.390 . S
C696 C697 1.394 . S
C696 C702 1.465 . S
C697 C692 1.399 . S
C697 C696 1.394 . S
C697 C698 1.516 . S
C698 C697 1.516 . S
C698 C699 1.502 . S
C698 C700 1.561 . S
C698 C701 1.526 . S
C699 H683 0.959 . S
C699 H684 0.959 . S
C699 H685 0.961 . S
C699 C698 1.502 . S
C700 H686 0.960 . S
C700 H687 0.961 . S
C700 H688 0.959 . S
C700 C698 1.561 . S
C701 C698 1.526 . S
C701 C702 1.396 . S
C701 C706 1.390 . S
C702 C696 1.465 . S
C702 C701 1.396 . S
C702 C703 1.399 . S
C703 H689 0.929 . S
C703 C702 1.399 . S
C703 C704 1.385 . S
C704 H690 0.931 . S
C704 C703 1.385 . S
C704 C705 1.389 . S
C705 C704 1.389 . S
C705 C706 1.387 . S
C706 H691 0.930 . S
C706 C701 1.390 . S
C706 C705 1.387 . S
H707 C719 0.930 . S
H708 C721 0.930 . S
H709 C722 0.930 . S
H710 C726 0.959 . S
H711 C726 0.959 . S
H712 C726 0.961 . S
H713 C727 0.960 . S
H714 C727 0.961 . S
H715 C727 0.959 . S
H716 C730 0.929 . S
H717 C731 0.931 . S
H718 C733 0.930 . S
C719 H707 0.930 . S
C719 C720 1.399 . S
C719 C724 1.399 . S
C720 C719 1.399 . S
C720 C721 1.376 . S
C721 H708 0.930 . S
C721 C720 1.376 . S
C721 C722 1.388 . S
C722 H709 0.930 . S
C722 C721 1.388 . S
C722 C723 1.390 . S
C723 C722 1.390 . S
C723 C724 1.394 . S
C723 C729 1.465 . S
C724 C719 1.399 . S
C724 C723 1.394 . S
C724 C725 1.516 . S
C725 C724 1.516 . S
C725 C726 1.502 . S
C725 C727 1.561 . S
C725 C728 1.526 . S
C726 H710 0.959 . S
C726 H711 0.959 . S
C726 H712 0.961 . S
C726 C725 1.502 . S
C727 H713 0.960 . S
C727 H714 0.961 . S
C727 H715 0.959 . S
C727 C725 1.561 . S
C728 C725 1.526 . S
C728 C729 1.396 . S
C728 C733 1.390 . S
C729 C723 1.465 . S
C729 C728 1.396 . S
C729 C730 1.399 . S
C730 H716 0.929 . S
C730 C729 1.399 . S
C730 C731 1.385 . S
C731 H717 0.931 . S
C731 C730 1.385 . S
C731 C732 1.389 . S
C732 C731 1.389 . S
C732 C733 1.387 . S
C733 H718 0.930 . S
C733 C728 1.390 . S
C733 C732 1.387 . S
H734 C746 0.930 . S
H735 C748 0.930 . S
H736 C749 0.930 . S
H737 C753 0.959 . S
H738 C753 0.959 . S
H739 C753 0.961 . S
H740 C754 0.960 . S
H741 C754 0.961 . S
H742 C754 0.959 . S
H743 C757 0.929 . S
H744 C758 0.931 . S
H745 C760 0.930 . S
C746 H734 0.930 . S
C746 C747 1.399 . S
C746 C751 1.399 . S
C747 C746 1.399 . S
C747 C748 1.376 . S
C748 H735 0.930 . S
C748 C747 1.376 . S
C748 C749 1.388 1_554 S
C749 H736 0.930 . S
C749 C748 1.388 1_556 S
C749 C750 1.390 1_556 S
C750 C749 1.390 1_554 S
C750 C751 1.394 . S
C750 C756 1.465 1_554 S
C751 C746 1.399 . S
C751 C750 1.394 . S
C751 C752 1.516 . S
C752 C751 1.516 . S
C752 C753 1.502 . S
C752 C754 1.561 . S
C752 C755 1.526 . S
C753 H737 0.959 . S
C753 H738 0.959 . S
C753 H739 0.961 . S
C753 C752 1.502 . S
C754 H740 0.960 . S
C754 H741 0.961 . S
C754 H742 0.959 . S
C754 C752 1.561 . S
C755 C752 1.526 . S
C755 C756 1.396 1_554 S
C755 C760 1.390 . S
C756 C750 1.465 1_556 S
C756 C755 1.396 1_556 S
C756 C757 1.399 . S
C757 H743 0.929 . S
C757 C756 1.399 . S
C757 C758 1.385 . S
C758 H744 0.931 . S
C758 C757 1.385 . S
C758 C759 1.389 . S
C759 C758 1.389 . S
C759 C760 1.387 1_556 S
C760 H745 0.930 . S
C760 C755 1.390 . S
C760 C759 1.387 1_554 S
H761 C773 0.930 . S
H762 C775 0.930 . S
H763 C776 0.930 . S
H764 C780 0.959 . S
H765 C780 0.959 . S
H766 C780 0.961 . S
H767 C781 0.960 . S
H768 C781 0.961 . S
H769 C781 0.959 . S
H770 C784 0.929 . S
H771 C785 0.931 . S
H772 C787 0.930 . S
C773 H761 0.930 . S
C773 C774 1.399 . S
C773 C778 1.399 . S
C774 C773 1.399 . S
C774 C775 1.376 . S
C775 H762 0.930 . S
C775 C774 1.376 . S
C775 C776 1.388 . S
C776 H763 0.930 . S
C776 C775 1.388 . S
C776 C777 1.390 . S
C777 C776 1.390 . S
C777 C778 1.394 . S
C777 C783 1.465 . S
C778 C773 1.399 . S
C778 C777 1.394 . S
C778 C779 1.516 . S
C779 C778 1.516 . S
C779 C780 1.502 . S
C779 C781 1.561 . S
C779 C782 1.526 . S
C780 H764 0.959 . S
C780 H765 0.959 . S
C780 H766 0.961 . S
C780 C779 1.502 . S
C781 H767 0.960 . S
C781 H768 0.961 . S
C781 H769 0.959 . S
C781 C779 1.561 . S
C782 C779 1.526 . S
C782 C783 1.396 . S
C782 C787 1.390 . S
C783 C777 1.465 . S
C783 C782 1.396 . S
C783 C784 1.399 . S
C784 H770 0.929 . S
C784 C783 1.399 . S
C784 C785 1.385 . S
C785 H771 0.931 . S
C785 C784 1.385 . S
C785 C786 1.389 . S
C786 C785 1.389 . S
C786 C787 1.387 . S
C787 H772 0.930 . S
C787 C782 1.390 . S
C787 C786 1.387 . S
H788 C800 0.930 . S
H789 C802 0.930 . S
H790 C803 0.930 . S
H791 C807 0.959 . S
H792 C807 0.959 . S
H793 C807 0.961 . S
H794 C808 0.960 1_455 S
H795 C808 0.961 1_455 S
H796 C808 0.959 . S
H797 C811 0.929 . S
H798 C812 0.931 . S
H799 C814 0.930 1_455 S
C800 H788 0.930 . S
C800 C801 1.399 . S
C800 C805 1.399 . S
C801 C800 1.399 . S
C801 C802 1.376 . S
C802 H789 0.930 . S
C802 C801 1.376 . S
C802 C803 1.388 . S
C803 H790 0.930 . S
C803 C802 1.388 . S
C803 C804 1.390 . S
C804 C803 1.390 . S
C804 C805 1.394 . S
C804 C810 1.465 . S
C805 C800 1.399 . S
C805 C804 1.394 . S
C805 C806 1.516 . S
C806 C805 1.516 . S
C806 C807 1.502 1_655 S
C806 C808 1.561 . S
C806 C809 1.526 . S
C807 H791 0.959 . S
C807 H792 0.959 . S
C807 H793 0.961 . S
C807 C806 1.502 1_455 S
C808 H794 0.960 1_655 S
C808 H795 0.961 1_655 S
C808 H796 0.959 . S
C808 C806 1.561 . S
C809 C806 1.526 . S
C809 C810 1.396 . S
C809 C814 1.390 . S
C810 C804 1.465 . S
C810 C809 1.396 . S
C810 C811 1.399 . S
C811 H797 0.929 . S
C811 C810 1.399 . S
C811 C812 1.385 . S
C812 H798 0.931 . S
C812 C811 1.385 . S
C812 C813 1.389 . S
C813 C812 1.389 . S
C813 C814 1.387 . S
C814 H799 0.930 1_655 S
C814 C809 1.390 . S
C814 C813 1.387 . S
H815 C827 0.937 . S
H816 C829 0.930 . S
H817 C830 0.930 . S
H818 C834 0.959 1_565 S
H819 C834 0.959 . S
H820 C834 0.961 . S
H821 C835 0.960 . S
H822 C835 0.961 . S
H823 C835 0.959 . S
H824 C838 0.929 . S
H825 C839 0.931 . S
H826 C841 0.930 . S
C827 H815 0.937 . S
C827 C828 1.399 . S
C827 C832 1.399 . S
C828 C827 1.399 . S
C828 C829 1.376 . S
C829 H816 0.930 . S
C829 C828 1.376 . S
C829 C830 1.388 . S
C830 H817 0.930 . S
C830 C829 1.388 . S
C830 C831 1.390 . S
C831 C830 1.390 . S
C831 C832 1.394 . S
C831 C837 1.465 . S
C832 C827 1.399 . S
C832 C831 1.394 . S
C832 C833 1.516 . S
C833 C832 1.516 . S
C833 C834 1.502 1_565 S
C833 C835 1.561 1_565 S
C833 C836 1.526 . S
C834 H818 0.959 1_545 S
C834 H819 0.959 . S
C834 H820 0.961 . S
C834 C833 1.502 1_545 S
C835 H821 0.960 . S
C835 H822 0.961 . S
C835 H823 0.959 . S
C835 C833 1.561 1_545 S
C836 C833 1.526 . S
C836 C837 1.396 . S
C836 C841 1.390 . S
C837 C831 1.465 . S
C837 C836 1.396 . S
C837 C838 1.399 . S
C838 H824 0.929 . S
C838 C837 1.399 . S
C838 C839 1.385 . S
C839 H825 0.931 . S
C839 C838 1.385 . S
C839 C840 1.389 . S
C840 C839 1.389 . S
C840 C841 1.387 . S
C841 H826 0.930 . S
C841 C836 1.390 . S
C841 C840 1.387 . S
H842 C854 0.930 . S
H843 C856 0.930 . S
H844 C857 0.930 . S
H845 C861 0.959 . S
H846 C861 0.959 . S
H847 C861 0.961 . S
H848 C862 0.960 . S
H849 C862 0.961 . S
H850 C862 0.959 . S
H851 C865 0.929 . S
H852 C866 0.931 . S
H853 C868 0.930 . S
C854 H842 0.930 . S
C854 C855 1.399 . S
C854 C859 1.399 . S
C855 C854 1.399 . S
C855 C856 1.376 . S
C856 H843 0.930 . S
C856 C855 1.376 . S
C856 C857 1.388 . S
C857 H844 0.930 . S
C857 C856 1.388 . S
C857 C858 1.390 . S
C858 C857 1.390 . S
C858 C859 1.394 . S
C858 C864 1.465 . S
C859 C854 1.399 . S
C859 C858 1.394 . S
C859 C860 1.516 . S
C860 C859 1.516 . S
C860 C861 1.502 . S
C860 C862 1.561 . S
C860 C863 1.526 . S
C861 H845 0.959 . S
C861 H846 0.959 . S
C861 H847 0.961 . S
C861 C860 1.502 . S
C862 H848 0.960 . S
C862 H849 0.961 . S
C862 H850 0.959 . S
C862 C860 1.561 . S
C863 C860 1.526 . S
C863 C864 1.396 . S
C863 C868 1.390 . S
C864 C858 1.465 . S
C864 C863 1.396 . S
C864 C865 1.399 . S
C865 H851 0.929 . S
C865 C864 1.399 . S
C865 C866 1.385 . S
C866 H852 0.931 . S
C866 C865 1.385 . S
C866 C867 1.389 . S
C867 C866 1.389 . S
C867 C868 1.387 . S
C868 H853 0.930 . S
C868 C863 1.390 . S
C868 C867 1.387 . S
H869 C881 0.930 . S
H870 C883 0.930 . S
H871 C884 0.930 . S
H872 C888 0.959 . S
H873 C888 0.959 . S
H874 C888 0.961 . S
H875 C889 0.960 . S
H876 C889 0.961 . S
H877 C889 0.959 . S
H878 C892 0.929 . S
H879 C893 0.931 . S
H880 C895 0.930 . S
C881 H869 0.930 . S
C881 C882 1.399 . S
C881 C886 1.399 . S
C882 C881 1.399 . S
C882 C883 1.376 . S
C883 H870 0.930 . S
C883 C882 1.376 . S
C883 C884 1.388 . S
C884 H871 0.930 . S
C884 C883 1.388 . S
C884 C885 1.390 . S
C885 C884 1.390 . S
C885 C886 1.394 . S
C885 C891 1.465 . S
C886 C881 1.399 . S
C886 C885 1.394 . S
C886 C887 1.516 . S
C887 C886 1.516 . S
C887 C888 1.502 . S
C887 C889 1.561 . S
C887 C890 1.526 . S
C888 H872 0.959 . S
C888 H873 0.959 . S
C888 H874 0.961 . S
C888 C887 1.502 . S
C889 H875 0.960 . S
C889 H876 0.961 . S
C889 H877 0.959 . S
C889 C887 1.561 . S
C890 C887 1.526 . S
C890 C891 1.396 . S
C890 C895 1.390 . S
C891 C885 1.465 . S
C891 C890 1.396 . S
C891 C892 1.399 . S
C892 H878 0.929 . S
C892 C891 1.399 . S
C892 C893 1.385 . S
C893 H879 0.931 . S
C893 C892 1.385 . S
C893 C894 1.389 . S
C894 C893 1.389 . S
C894 C895 1.387 . S
C895 H880 0.930 . S
C895 C890 1.390 . S
C895 C894 1.387 . S
C261 C74 1.519 . S
C273 C97 1.459 . S
C300 C137 1.231 . S
C288 C85 1.402 . S
C327 C186 1.356 . S
C315 C52 1.374 . S
C354 C217 1.784 . S
C342 C63 1.862 . S
C381 C106 1.465 . S
C369 C30 1.488 . S
C396 C41 1.344 . S
C408 C146 1.239 . S
C423 C8 1.366 . S
C435 C177 1.341 . S
C450 C19 1.813 . S
C462 C226 1.821 . S
C489 C107 1.145 . S
C477 C62 1.118 . S
C516 C147 1.374 . S
C504 C73 1.352 . S
C543 C183 0.896 . S
C531 C84 0.842 . S
C558 C51 1.276 . S
C570 C227 1.274 . S
C585 C18 1.070 . S
C597 C98 1.146 . S
C624 C138 1.354 . S
C612 C29 1.289 . S
C651 C174 0.916 . S
C639 C40 0.810 . S
C666 C7 1.285 . S
C678 C218 1.276 . S
C693 C60 1.535 . S
C705 C103 1.680 . S
C720 C71 1.263 . S
C732 C143 1.483 . S
C759 C187 1.996 . S
C747 C82 1.706 . S
C786 C223 1.376 . S
C774 C49 1.133 . S
C801 C16 1.418 . S
C813 C94 1.695 . S
C840 C134 1.467 . S
C828 C27 1.303 . S
C867 C178 1.998 . S
C855 C38 1.452 . S
C882 C5 1.257 . S
C894 C214 1.384 . S
