# Generated by pormake.
# Topology zzz, (3,6)-cn, num edge types: 1
# Building blocks:
#     Node 0, Type 0, BuildingBlock: OLANEW_clean_sbu_2, # of connection points: 3
#     Node 1, Type 0, BuildingBlock: OLANEW_clean_sbu_2, # of connection points: 3
#     Node 2, Type 0, BuildingBlock: OLANEW_clean_sbu_2, # of connection points: 3
#     Node 3, Type 0, BuildingBlock: OLANEW_clean_sbu_2, # of connection points: 3
#     Node 4, Type 0, BuildingBlock: OLANEW_clean_sbu_2, # of connection points: 3
#     Node 5, Type 0, BuildingBlock: OLANEW_clean_sbu_2, # of connection points: 3
#     Node 6, Type 0, BuildingBlock: OLANEW_clean_sbu_2, # of connection points: 3
#     Node 7, Type 0, BuildingBlock: OLANEW_clean_sbu_2, # of connection points: 3
#     Node 8, Type 1, BuildingBlock: KUMBUR_clean_sbu_1, # of connection points: 6
#     Node 9, Type 1, BuildingBlock: KUMBUR_clean_sbu_1, # of connection points: 6
#     Node 10, Type 1, BuildingBlock: KUMBUR_clean_sbu_1, # of connection points: 6
#     Node 11, Type 1, BuildingBlock: KUMBUR_clean_sbu_1, # of connection points: 6
#     Edge 12, Type (0, 1), BuildingBlock: MIFKUJ_clean_linker_0, # of connection points: 2
#     Edge 13, Type (0, 1), BuildingBlock: MIFKUJ_clean_linker_0, # of connection points: 2
#     Edge 14, Type (0, 1), BuildingBlock: MIFKUJ_clean_linker_0, # of connection points: 2
#     Edge 15, Type (0, 1), BuildingBlock: MIFKUJ_clean_linker_0, # of connection points: 2
#     Edge 16, Type (0, 1), BuildingBlock: MIFKUJ_clean_linker_0, # of connection points: 2
#     Edge 17, Type (0, 1), BuildingBlock: MIFKUJ_clean_linker_0, # of connection points: 2
#     Edge 18, Type (0, 1), BuildingBlock: MIFKUJ_clean_linker_0, # of connection points: 2
#     Edge 19, Type (0, 1), BuildingBlock: MIFKUJ_clean_linker_0, # of connection points: 2
#     Edge 20, Type (0, 1), BuildingBlock: MIFKUJ_clean_linker_0, # of connection points: 2
#     Edge 21, Type (0, 1), BuildingBlock: MIFKUJ_clean_linker_0, # of connection points: 2
#     Edge 22, Type (0, 1), BuildingBlock: MIFKUJ_clean_linker_0, # of connection points: 2
#     Edge 23, Type (0, 1), BuildingBlock: MIFKUJ_clean_linker_0, # of connection points: 2
#     Edge 24, Type (0, 1), BuildingBlock: MIFKUJ_clean_linker_0, # of connection points: 2
#     Edge 25, Type (0, 1), BuildingBlock: MIFKUJ_clean_linker_0, # of connection points: 2
#     Edge 26, Type (0, 1), BuildingBlock: MIFKUJ_clean_linker_0, # of connection points: 2
#     Edge 27, Type (0, 1), BuildingBlock: MIFKUJ_clean_linker_0, # of connection points: 2
#     Edge 28, Type (0, 1), BuildingBlock: MIFKUJ_clean_linker_0, # of connection points: 2
#     Edge 29, Type (0, 1), BuildingBlock: MIFKUJ_clean_linker_0, # of connection points: 2
#     Edge 30, Type (0, 1), BuildingBlock: MIFKUJ_clean_linker_0, # of connection points: 2
#     Edge 31, Type (0, 1), BuildingBlock: MIFKUJ_clean_linker_0, # of connection points: 2
#     Edge 32, Type (0, 1), BuildingBlock: MIFKUJ_clean_linker_0, # of connection points: 2
#     Edge 33, Type (0, 1), BuildingBlock: MIFKUJ_clean_linker_0, # of connection points: 2
#     Edge 34, Type (0, 1), BuildingBlock: MIFKUJ_clean_linker_0, # of connection points: 2
#     Edge 35, Type (0, 1), BuildingBlock: MIFKUJ_clean_linker_0, # of connection points: 2
# Relax obj value: 0.130
# Max RMSD: 0.093
# Mean RMSD: 0.083
data_MOF--net-zzz--node1-OLANEW_clean_sbu_2--node2-KUMBUR_clean_sbu_1--edge1-MIFKUJ_clean_linker_0
_symmetry_space_group_name_H-M    P1
_symmetry_Int_Tables_number       1
_symmetry_cell_setting            triclinic
loop_
_symmetry_equiv_pos_as_xyz
'x, y, z'
_cell_length_a     68.699271
_cell_length_b     68.813426
_cell_length_c     22.728894
_cell_angle_alpha  90.268295
_cell_angle_beta   89.796229
_cell_angle_gamma 90.383789
loop_
_atom_site_label
_atom_site_type_symbol
_atom_site_fract_x
_atom_site_fract_y
_atom_site_fract_z
_atom_type_partial_charge
O0 O 0.74531 0.57271 0.08676 0.0
Cd1 Cd 0.71556 0.58107 0.13953 0.0
O2 O 0.74801 0.55021 0.15305 0.0
Cd3 Cd 0.75953 0.52678 0.20612 0.0
O4 O 0.78508 0.5217 0.25894 0.0
C5 C 0.78612 0.52778 0.31166 0.0
O6 O 0.7707 0.53542 0.33683 0.0
C7 C 0.75485 0.55858 0.10746 0.0
C8 C 0.68375 0.56725 0.07646 0.0
O9 O 0.69055 0.58443 0.06834 0.0
O10 O 0.69181 0.55664 0.11553 0.0
O11 O 0.94558 0.7457 0.10849 0.0
Cd12 Cd 0.93958 0.71585 0.16261 0.0
O13 O 0.96908 0.74997 0.17151 0.0
Cd14 Cd 0.99075 0.76611 0.22173 0.0
O15 O 0.99601 0.78932 0.28442 0.0
C16 C 0.98051 0.7957 0.30791 0.0
O17 O 0.96382 0.78755 0.29362 0.0
C18 C 0.95972 0.75597 0.12699 0.0
C19 C 0.95083 0.68496 0.09202 0.0
O20 O 0.93298 0.69019 0.0947 0.0
O21 O 0.96327 0.69408 0.1239 0.0
O22 O 0.76758 0.93416 0.07357 0.0
Cd23 Cd 0.79653 0.92625 0.13041 0.0
O24 O 0.76419 0.95381 0.14822 0.0
Cd25 Cd 0.75123 0.97548 0.20628 0.0
O26 O 0.72937 0.98421 0.27013 0.0
C27 C 0.71419 0.99224 0.25033 0.0
O28 O 0.71344 0.99673 0.1943 0.0
C29 C 0.75771 0.94714 0.09966 0.0
C30 C 0.82863 0.9451 0.08251 0.0
O31 O 0.82555 0.92699 0.07265 0.0
O32 O 0.81674 0.95426 0.11593 0.0
O33 O 0.56977 0.76496 0.10558 0.0
Cd34 Cd 0.58029 0.79683 0.14144 0.0
O35 O 0.54229 0.7682 0.15377 0.0
Cd36 Cd 0.51627 0.75538 0.19279 0.0
O37 O 0.51053 0.73241 0.25587 0.0
C38 C 0.52603 0.7237 0.27035 0.0
O39 O 0.5426 0.72941 0.24684 0.0
C40 C 0.55324 0.75819 0.12028 0.0
C41 C 0.56421 0.82626 0.07395 0.0
O42 O 0.57932 0.81699 0.05677 0.0
O43 O 0.55663 0.8218 0.12373 0.0
O44 O 0.27011 0.47139 0.09399 0.0
Cd45 Cd 0.29874 0.46853 0.03159 0.0
O46 O 0.25723 0.44719 0.04578 0.0
Cd47 Cd 0.23455 0.42986 0.00508 0.0
O48 O 0.21499 0.43712 0.93462 0.0
C49 C 0.21503 0.45515 0.9229 0.0
O50 O 0.2264 0.46688 0.95325 0.0
C51 C 0.25557 0.46038 0.08483 0.0
C52 C 0.33028 0.47458 0.1039 0.0
O53 O 0.32047 0.4889 0.08423 0.0
O54 O 0.32567 0.45732 0.0875 0.0
O55 O 0.03457 0.26947 0.08569 0.0
Cd56 Cd 0.03643 0.29813 0.02319 0.0
O57 O 0.06117 0.25574 0.05198 0.0
Cd58 Cd 0.05873 0.26995 0.96687 0.0
O59 O 0.05115 0.24834 0.89957 0.0
C60 C 0.05918 0.23207 0.90933 0.0
O61 O 0.07151 0.23088 0.9532 0.0
C62 C 0.04746 0.25639 0.08953 0.0
C63 C 0.03321 0.33025 0.09801 0.0
O64 O 0.0181 0.32169 0.07718 0.0
O65 O 0.04997 0.32406 0.08185 0.0
O66 O 0.2401 0.02848 0.10853 0.0
Cd67 Cd 0.21183 0.03382 0.04596 0.0
O68 O 0.24944 0.05532 0.0667 0.0
Cd69 Cd 0.27021 0.07607 0.03209 0.0
O70 O 0.29338 0.07564 0.96786 0.0
C71 C 0.29039 0.06819 0.91735 0.0
O72 O 0.27273 0.06253 0.90299 0.0
C73 C 0.25306 0.04151 0.10191 0.0
C74 C 0.17843 0.03537 0.11421 0.0
O75 O 0.18376 0.01947 0.08961 0.0
O76 O 0.18875 0.05068 0.10544 0.0
O77 O 0.47222 0.24295 0.08924 0.0
Cd78 Cd 0.46768 0.2112 0.04303 0.0
O79 O 0.444 0.25319 0.05732 0.0
Cd80 Cd 0.42544 0.27736 0.03337 0.0
O81 O 0.42857 0.30304 0.97894 0.0
C82 C 0.44604 0.30576 0.96222 0.0
O83 O 0.45943 0.29346 0.97913 0.0
C84 C 0.4598 0.25644 0.08471 0.0
C85 C 0.47275 0.18159 0.12413 0.0
O86 O 0.4874 0.18996 0.09984 0.0
O87 O 0.45564 0.1871 0.1098 0.0
Tb88 Tb 0.98849 0.02788 0.57021 0.0
C89 C 0.05706 0.01758 0.7535 0.0
N90 N 0.05404 0.0079 0.70202 0.0
C91 C 0.08817 0.00963 0.67985 0.0
C92 C 0.07586 0.02379 0.77005 0.0
C93 C 0.06925 0.00376 0.66525 0.0
C94 C 0.0915 0.01969 0.73243 0.0
C95 C 0.04354 0.03231 0.84178 0.0
C96 C 0.04109 0.02184 0.78885 0.0
C97 C 0.06229 0.03827 0.8589 0.0
C98 C 0.0784 0.03405 0.8231 0.0
Tb99 Tb 0.02263 0.99886 0.68444 0.0
N100 N 0.02305 0.01656 0.76962 0.0
C101 C 0.02704 0.03671 0.87541 0.0
C102 C 0.007 0.02023 0.80329 0.0
C103 C 0.00872 0.03057 0.85615 0.0
H104 H 0.06695 0.99553 0.62528 0.0
H105 H 0.9959 0.03371 0.88215 0.0
H106 H 0.9433 0.02004 0.61599 0.0
H107 H 0.02311 0.01635 0.35859 0.0
H108 H 0.9929 0.0151 0.79029 0.0
H109 H 0.02829 0.04476 0.91632 0.0
H110 H 0.02003 0.03024 0.45756 0.0
H111 H 0.10018 0.00627 0.65076 0.0
H112 H 0.06447 0.04632 0.89945 0.0
H113 H 0.09274 0.03891 0.83663 0.0
H114 H 0.91365 0.00384 0.57873 0.0
H115 H 0.10617 0.02422 0.74352 0.0
H116 H 0.99589 0.99727 0.31616 0.0
N117 N 0.96018 0.01359 0.54004 0.0
C118 C 0.96034 0.00582 0.48499 0.0
C119 C 0.92673 0.00418 0.55204 0.0
C120 C 0.94363 0.9968 0.4613 0.0
C121 C 0.94363 0.01315 0.5734 0.0
C122 C 0.92674 0.99591 0.49581 0.0
N123 N 0.99315 0.01603 0.47683 0.0
C124 C 0.00891 0.02041 0.44244 0.0
C125 C 0.97793 0.99987 0.3942 0.0
C126 C 0.97741 0.00701 0.45244 0.0
C127 C 0.9949 0.00256 0.36105 0.0
C128 C 0.01035 0.01318 0.38499 0.0
H129 H 0.91358 0.98909 0.47921 0.0
H130 H 0.93151 0.98237 0.38461 0.0
H131 H 0.96131 0.98588 0.32511 0.0
O132 O 0.99615 0.05445 0.53092 0.0
O133 O 0.98562 0.99607 0.57279 0.0
O134 O 0.01592 0.98485 0.60013 0.0
O135 O 0.96644 0.04831 0.55495 0.0
O136 O 0.02048 0.0302 0.56332 0.0
O137 O 0.03313 0.00086 0.59415 0.0
O138 O 0.01274 0.97706 0.74217 0.0
O139 O 0.02543 0.0308 0.68218 0.0
O140 O 0.99476 0.03985 0.6566 0.0
O141 O 0.04159 0.97607 0.70552 0.0
O142 O 0.99087 0.99582 0.69218 0.0
O143 O 0.9766 0.02417 0.65893 0.0
C144 C 0.99902 0.98256 0.57377 0.0
C145 C 0.97202 0.06732 0.46951 0.0
C146 C 0.97633 0.09083 0.39054 0.0
C147 C 0.96044 0.08249 0.36079 0.0
C148 C 0.95631 0.05893 0.43883 0.0
C149 C 0.95061 0.06652 0.3847 0.0
C150 C 0.98209 0.08313 0.44477 0.0
C151 C 0.03412 0.01684 0.56275 0.0
C152 C 0.97816 0.06007 0.5274 0.0
C153 C 0.94424 0.98925 0.40384 0.0
C154 C 0.96127 0.991 0.37018 0.0
C155 C 0.01224 0.04429 0.67473 0.0
C156 C 0.02539 0.94612 0.72144 0.0
C157 C 0.01449 0.91376 0.75096 0.0
C158 C 0.01732 0.90716 0.69297 0.0
C159 C 0.0285 0.93915 0.66403 0.0
C160 C 0.01861 0.93329 0.765 0.0
C161 C 0.02446 0.91977 0.64997 0.0
C162 C 0.97626 0.00811 0.69045 0.0
C163 C 0.02848 0.9668 0.73599 0.0
H164 H 0.95579 0.08823 0.31886 0.0
H165 H 0.94838 0.04664 0.45665 0.0
H166 H 0.93846 0.06006 0.36133 0.0
H167 H 0.9942 0.08968 0.46827 0.0
H168 H 0.01431 0.89216 0.6812 0.0
H169 H 0.03402 0.9487 0.63011 0.0
H170 H 0.01621 0.93857 0.80944 0.0
H171 H 0.02689 0.91451 0.60564 0.0
Tb172 Tb 0.51408 0.01693 0.67386 0.0
C173 C 0.48965 0.93873 0.5624 0.0
N174 N 0.50048 0.95329 0.53851 0.0
C175 C 0.52398 0.93026 0.50407 0.0
C176 C 0.49598 0.91931 0.55989 0.0
C177 C 0.51718 0.94934 0.50823 0.0
C178 C 0.5134 0.91519 0.53036 0.0
C179 C 0.46113 0.92893 0.61796 0.0
C180 C 0.4725 0.94356 0.59111 0.0
C181 C 0.46746 0.90955 0.61629 0.0
C182 C 0.48481 0.90474 0.58722 0.0
Tb183 Tb 0.48796 0.98369 0.54642 0.0
N184 N 0.46691 0.96252 0.5921 0.0
C185 C 0.44362 0.93418 0.64502 0.0
C186 C 0.44922 0.96745 0.61523 0.0
C187 C 0.43753 0.95348 0.64297 0.0
H188 H 0.52523 0.96084 0.48691 0.0
H189 H 0.42367 0.95756 0.66196 0.0
H190 H 0.47978 0.03278 0.76613 0.0
H191 H 0.5748 0.05546 0.57844 0.0
H192 H 0.44359 0.98191 0.61119 0.0
H193 H 0.43447 0.92339 0.66624 0.0
H194 H 0.55627 0.02663 0.61174 0.0
H195 H 0.53733 0.92719 0.48045 0.0
H196 H 0.45894 0.89813 0.63692 0.0
H197 H 0.48946 0.88973 0.58607 0.0
H198 H 0.46476 0.06396 0.793 0.0
H199 H 0.51876 0.90044 0.52733 0.0
H200 H 0.56107 0.08834 0.59291 0.0
N201 N 0.49954 0.04518 0.70439 0.0
C202 C 0.50773 0.06194 0.68463 0.0
C203 C 0.47659 0.0636 0.76146 0.0
C204 C 0.50025 0.08023 0.70082 0.0
C205 C 0.4848 0.04585 0.74487 0.0
C206 C 0.48419 0.08087 0.73866 0.0
N207 N 0.53191 0.04284 0.64098 0.0
C208 C 0.55002 0.04083 0.61683 0.0
C209 C 0.5348 0.07769 0.63513 0.0
C210 C 0.52471 0.06075 0.65246 0.0
C211 C 0.55282 0.07569 0.60684 0.0
C212 C 0.5606 0.05716 0.59847 0.0
H213 H 0.47823 0.09465 0.7527 0.0
H214 H 0.50397 0.11143 0.6927 0.0
H215 H 0.53429 0.10918 0.63493 0.0
O216 O 0.53921 0.00481 0.71227 0.0
O217 O 0.51275 0.02918 0.58451 0.0
O218 O 0.48485 0.01524 0.54716 0.0
O219 O 0.52004 0.02285 0.76266 0.0
O220 O 0.53189 0.99715 0.62016 0.0
O221 O 0.51744 0.99409 0.52815 0.0
O222 O 0.4647 0.97727 0.48904 0.0
O223 O 0.5048 0.97025 0.61722 0.0
O224 O 0.49692 0.99097 0.69086 0.0
O225 O 0.49332 0.98334 0.45551 0.0
O226 O 0.46922 0.0045 0.59308 0.0
O227 O 0.48273 0.00995 0.68571 0.0
C228 C 0.49847 0.02868 0.54608 0.0
C229 C 0.55344 0.02472 0.78593 0.0
C230 C 0.58431 0.02484 0.83901 0.0
C231 C 0.58424 0.04525 0.8389 0.0
C232 C 0.55381 0.04515 0.78568 0.0
C233 C 0.56916 0.0553 0.81192 0.0
C234 C 0.56892 0.0146 0.81192 0.0
C235 C 0.53285 0.99476 0.56257 0.0
C236 C 0.53661 0.0139 0.76186 0.0
C237 C 0.50961 0.09724 0.68112 0.0
C238 C 0.52688 0.09597 0.64832 0.0
C239 C 0.50283 0.97394 0.67348 0.0
C240 C 0.46688 0.99573 0.40098 0.0
C241 C 0.43936 0.01385 0.36086 0.0
C242 C 0.45244 0.0244 0.32534 0.0
C243 C 0.47951 0.00634 0.36412 0.0
C244 C 0.44668 0.99939 0.39844 0.0
C245 C 0.47231 0.02058 0.32684 0.0
C246 C 0.46807 0.01075 0.64811 0.0
C247 C 0.47499 0.98128 0.44244 0.0
H248 H 0.59598 0.0534 0.85929 0.0
H249 H 0.54212 0.05331 0.76606 0.0
H250 H 0.56927 0.07103 0.81181 0.0
H251 H 0.56874 0.99884 0.81245 0.0
H252 H 0.44725 0.0354 0.29538 0.0
H253 H 0.49506 0.00381 0.36446 0.0
H254 H 0.43671 0.99124 0.42613 0.0
H255 H 0.4822 0.02875 0.29903 0.0
Tb256 Tb 0.52691 0.49633 0.54335 0.0
C257 C 0.4655 0.49196 0.74021 0.0
N258 N 0.46372 0.5027 0.69059 0.0
C259 C 0.43116 0.49071 0.67727 0.0
C260 C 0.45025 0.47978 0.75977 0.0
C261 C 0.44678 0.50244 0.65939 0.0
C262 C 0.43294 0.47923 0.7275 0.0
C263 C 0.48529 0.4823 0.82277 0.0
C264 C 0.48291 0.49296 0.77047 0.0
C265 C 0.47035 0.46975 0.84188 0.0
C266 C 0.45287 0.46849 0.81041 0.0
Tb267 Tb 0.49041 0.5204 0.66288 0.0
N268 N 0.49713 0.50506 0.75007 0.0
C269 C 0.5023 0.48514 0.85537 0.0
C270 C 0.51252 0.5096 0.78562 0.0
C271 C 0.51573 0.49925 0.83751 0.0
H272 H 0.44531 0.51136 0.62093 0.0
H273 H 0.52832 0.50252 0.86439 0.0
H274 H 0.56979 0.49023 0.60847 0.0
H275 H 0.50505 0.53745 0.35298 0.0
H276 H 0.52205 0.52161 0.77561 0.0
H277 H 0.5047 0.47729 0.89589 0.0
H278 H 0.49986 0.51608 0.43806 0.0
H279 H 0.41779 0.49049 0.65223 0.0
H280 H 0.47201 0.46127 0.88157 0.0
H281 H 0.4414 0.45889 0.82591 0.0
H282 H 0.6035 0.50185 0.59409 0.0
H283 H 0.42086 0.47006 0.74105 0.0
H284 H 0.53812 0.54969 0.32978 0.0
N285 N 0.55868 0.50569 0.53505 0.0
C286 C 0.56291 0.5172 0.48819 0.0
C287 C 0.5922 0.50633 0.56414 0.0
C288 C 0.58204 0.52388 0.47771 0.0
C289 C 0.57301 0.49999 0.57261 0.0
C290 C 0.59674 0.51834 0.51655 0.0
N291 N 0.52947 0.51672 0.46475 0.0
C292 C 0.51426 0.52148 0.42926 0.0
C293 C 0.55157 0.53483 0.40277 0.0
C294 C 0.54788 0.52263 0.45123 0.0
C295 C 0.53592 0.5403 0.36737 0.0
C296 C 0.51721 0.5335 0.38052 0.0
H297 H 0.61163 0.5232 0.51011 0.0
H298 H 0.60044 0.54123 0.42044 0.0
H299 H 0.57376 0.55081 0.35485 0.0
O300 O 0.51755 0.47676 0.47794 0.0
O301 O 0.52769 0.52825 0.55341 0.0
O302 O 0.49671 0.53634 0.58277 0.0
O303 O 0.54613 0.47442 0.51559 0.0
O304 O 0.49556 0.49398 0.52737 0.0
O305 O 0.47868 0.51924 0.57314 0.0
O306 O 0.49571 0.54529 0.71559 0.0
O307 O 0.48765 0.48932 0.64175 0.0
O308 O 0.51883 0.47928 0.62107 0.0
O309 O 0.46671 0.53876 0.68241 0.0
O310 O 0.52216 0.52426 0.66943 0.0
O311 O 0.5354 0.49565 0.6354 0.0
C312 C 0.51388 0.54113 0.5622 0.0
C313 C 0.53014 0.44533 0.48672 0.0
C314 C 0.51918 0.41473 0.44338 0.0
C315 C 0.52319 0.40529 0.49652 0.0
C316 C 0.53363 0.43575 0.54009 0.0
C317 C 0.53026 0.41579 0.54472 0.0
C318 C 0.52291 0.43473 0.43838 0.0
C319 C 0.48033 0.50543 0.53268 0.0
C320 C 0.53328 0.46641 0.48106 0.0
C321 C 0.58583 0.53595 0.42923 0.0
C322 C 0.57064 0.54139 0.39183 0.0
C323 C 0.50107 0.47585 0.64032 0.0
C324 C 0.47003 0.56821 0.74199 0.0
C325 C 0.47523 0.59863 0.79652 0.0
C326 C 0.45501 0.60183 0.79518 0.0
C327 C 0.44997 0.57192 0.74103 0.0
C328 C 0.48265 0.58163 0.76992 0.0
C329 C 0.44255 0.58861 0.76755 0.0
C330 C 0.53618 0.51133 0.66824 0.0
C331 C 0.4776 0.55055 0.71278 0.0
H332 H 0.52097 0.38975 0.50051 0.0
H333 H 0.53898 0.44367 0.57811 0.0
H334 H 0.53312 0.40844 0.58576 0.0
H335 H 0.51992 0.44206 0.3973 0.0
H336 H 0.44871 0.61446 0.81632 0.0
H337 H 0.43996 0.5619 0.71982 0.0
H338 H 0.49818 0.57901 0.77014 0.0
H339 H 0.42705 0.59128 0.76689 0.0
Tb340 Tb 0.02032 0.52313 0.55971 0.0
C341 C 0.01432 0.45664 0.74145 0.0
N342 N 0.00614 0.45831 0.6874 0.0
C343 C 0.01539 0.42565 0.66375 0.0
C344 C 0.02396 0.43953 0.7581 0.0
C345 C 0.00596 0.44293 0.6493 0.0
C346 C 0.02458 0.42399 0.7182 0.0
C347 C 0.02139 0.47114 0.83634 0.0
C348 C 0.01306 0.47229 0.77985 0.0
C349 C 0.03107 0.45415 0.85317 0.0
C350 C 0.03244 0.43841 0.81409 0.0
Tb351 Tb 0.99064 0.4868 0.6691 0.0
N352 N 0.00323 0.48838 0.76236 0.0
C353 C 0.01935 0.48693 0.87469 0.0
C354 C 0.00013 0.50323 0.80128 0.0
C355 C 0.00853 0.50295 0.85717 0.0
H356 H 0.99831 0.44376 0.60809 0.0
H357 H 0.00632 0.51494 0.88707 0.0
H358 H 0.01801 0.56722 0.62421 0.0
H359 H 0.00687 0.50218 0.33566 0.0
H360 H 0.99069 0.51509 0.79082 0.0
H361 H 0.0256 0.48668 0.91839 0.0
H362 H 0.02008 0.49863 0.43577 0.0
H363 H 0.01538 0.41355 0.63314 0.0
H364 H 0.03721 0.45289 0.89675 0.0
H365 H 0.03985 0.42536 0.82785 0.0
H366 H 0.00125 0.59803 0.607 0.0
H367 H 0.03181 0.41056 0.72936 0.0
H368 H 0.98767 0.5313 0.31023 0.0
N369 N 0.00676 0.55328 0.54745 0.0
C370 C 0.99768 0.55615 0.49516 0.0
C371 C -0.00019 0.58623 0.5756 0.0
C372 C 0.98866 0.57394 0.48193 0.0
C373 C 0.00887 0.56844 0.58607 0.0
C374 C 0.98936 0.58889 0.52374 0.0
N375 N 0.00786 0.52495 0.46731 0.0
C376 C 0.01138 0.51112 0.42549 0.0
C377 C 0.99075 0.54435 0.39666 0.0
C378 C 0.99862 0.54163 0.45313 0.0
C379 C 0.99335 0.52972 0.35435 0.0
C380 C 0.00403 0.51319 0.3686 0.0
H381 H 0.98262 0.60279 0.51534 0.0
H382 H 0.97281 0.58998 0.41585 0.0
H383 H 0.9747 0.56404 0.34104 0.0
O384 O 0.04681 0.51322 0.52363 0.0
O385 O 0.99079 0.51376 0.53528 0.0
O386 O 0.97672 0.51118 0.626 0.0
O387 O 0.04194 0.54364 0.53807 0.0
O388 O 0.02287 0.49162 0.54749 0.0
O389 O 0.9936 0.47761 0.57676 0.0
O390 O 0.96924 0.48022 0.73269 0.0
O391 O 0.02235 0.48428 0.65935 0.0
O392 O 0.03084 0.51609 0.64697 0.0
O393 O 0.96722 0.46867 0.64502 0.0
O394 O 0.98775 0.51821 0.6875 0.0
O395 O 0.0153 0.53412 0.65035 0.0
C396 C 0.97532 0.51358 0.56921 0.0
C397 C 0.06063 0.5348 0.45442 0.0
C398 C 0.08457 0.52901 0.37675 0.0
C399 C 0.07567 0.54327 0.34229 0.0
C400 C 0.05176 0.54886 0.41884 0.0
C401 C 0.05925 0.55301 0.36311 0.0
C402 C 0.07693 0.52472 0.43273 0.0
C403 C 0.00918 0.4782 0.54256 0.0
C404 C 0.05327 0.53073 0.51428 0.0
C405 C 0.97993 0.57646 0.42666 0.0
C406 C 0.98103 0.56171 0.38401 0.0
C407 C 0.03499 0.49854 0.66431 0.0
C408 C 0.9375 0.47709 0.69227 0.0
C409 C 0.90875 0.49231 0.73649 0.0
C410 C 0.89831 0.48829 0.68476 0.0
C411 C 0.92656 0.47306 0.64139 0.0
C412 C 0.92834 0.48649 0.74033 0.0
C413 C 0.90711 0.47858 0.63796 0.0
C414 C -0.0 0.53318 0.68601 0.0
C415 C 0.95823 0.47113 0.69504 0.0
H416 H 0.08137 0.54676 0.29907 0.0
H417 H 0.03912 0.55676 0.43413 0.0
H418 H 0.05239 0.5639 0.33612 0.0
H419 H 0.08389 0.51384 0.45972 0.0
H420 H 0.88313 0.49228 0.68102 0.0
H421 H 0.93299 0.46559 0.60412 0.0
H422 H 0.93641 0.48947 0.78029 0.0
H423 H 0.89872 0.4752 0.59906 0.0
H424 H 0.15093 0.00708 0.12961 0.0
H425 H 0.12508 0.00621 0.20365 0.0
H426 H 0.14205 0.06333 0.26433 0.0
H427 H 0.16795 0.06437 0.19015 0.0
H428 H 0.13967 0.03657 0.3538 0.0
H429 H 0.10011 0.05864 0.19632 0.0
H430 H 0.08616 0.05908 0.09655 0.0
H431 H 0.06169 0.00222 0.12332 0.0
H432 H 0.07569 0.00133 0.22309 0.0
H433 H 0.05264 0.05026 0.53175 0.0
H434 H 0.07735 0.05429 0.45432 0.0
H435 H 0.07563 0.99264 0.41976 0.0
H436 H 0.05137 0.98842 0.49831 0.0
H437 H 0.06961 0.02329 0.3175 0.0
H438 H 0.11258 0.00041 0.47117 0.0
H439 H 0.12603 0.00069 0.5716 0.0
H440 H 0.14315 0.06042 0.55135 0.0
H441 H 0.12973 0.06049 0.45068 0.0
C442 C 0.149 0.01957 0.15818 0.0
C443 C 0.16153 0.03574 0.15436 0.0
C444 C 0.13418 0.01908 0.20025 0.0
C445 C 0.13169 0.03472 0.23929 0.0
C446 C 0.14379 0.05113 0.23451 0.0
C447 C 0.15852 0.05171 0.19204 0.0
C448 C 0.11739 0.03323 0.28777 0.0
C449 C 0.1243 0.03398 0.34579 0.0
C450 C 0.09743 0.02947 0.2772 0.0
C451 C 0.08913 0.02984 0.217 0.0
C452 C 0.09192 0.04614 0.18074 0.0
C453 C 0.08396 0.0465 0.12424 0.0
C454 C 0.0731 0.03066 0.10354 0.0
C455 C 0.07014 0.01446 0.13938 0.0
C456 C 0.07806 0.01403 0.19595 0.0
C457 C 0.0578 0.03757 0.50815 0.0
C458 C 0.05028 0.01904 0.52084 0.0
C459 C 0.07179 0.03989 0.46407 0.0
C460 C 0.07812 0.02375 0.43158 0.0
C461 C 0.07082 0.0052 0.44462 0.0
C462 C 0.05716 0.00281 0.48961 0.0
C463 C 0.09202 0.02642 0.38287 0.0
C464 C 0.08499 0.02594 0.32508 0.0
C465 C 0.11184 0.03049 0.3935 0.0
C466 C 0.11994 0.03053 0.4538 0.0
C467 C 0.11904 0.01366 0.48837 0.0
C468 C 0.12671 0.01373 0.54525 0.0
C469 C 0.13532 0.0306 0.56801 0.0
C470 C 0.13641 0.04739 0.53373 0.0
C471 C 0.12883 0.04736 0.47671 0.0
H472 H 0.14121 0.03064 0.61212 0.0
H473 H 0.06694 0.03097 0.05978 0.0
H474 H 0.50368 0.17678 0.19689 0.0
H475 H 0.50817 0.15146 0.27046 0.0
H476 H 0.45311 0.12558 0.22114 0.0
H477 H 0.44805 0.15167 0.15015 0.0
H478 H 0.45562 0.12425 0.33192 0.0
H479 H 0.50032 0.10719 0.17703 0.0
H480 H 0.52728 0.11245 0.1068 0.0
H481 H 0.56641 0.12377 0.25002 0.0
H482 H 0.53963 0.11881 0.32107 0.0
H483 H 0.46884 0.03396 0.46847 0.0
H484 H 0.46522 0.05971 0.39689 0.0
H485 H 0.51906 0.08587 0.45567 0.0
H486 H 0.52357 0.05913 0.52447 0.0
H487 H 0.51731 0.08737 0.34199 0.0
H488 H 0.47123 0.10339 0.4968 0.0
H489 H 0.444 0.0956 0.56396 0.0
H490 H 0.40691 0.08389 0.41611 0.0
H491 H 0.43397 0.0914 0.34811 0.0
C492 C 0.49256 0.16566 0.2018 0.0
C493 C 0.47556 0.16609 0.16776 0.0
C494 C 0.49519 0.15111 0.24359 0.0
C495 C 0.4812 0.13629 0.2506 0.0
C496 C 0.46415 0.1368 0.21662 0.0
C497 C 0.46128 0.15167 0.17595 0.0
C498 C 0.48415 0.12043 0.29385 0.0
C499 C 0.46905 0.11606 0.33356 0.0
C500 C 0.50179 0.10991 0.29702 0.0
C501 C 0.51792 0.11281 0.25432 0.0
C502 C 0.51465 0.11092 0.19351 0.0
C503 C 0.5299 0.11383 0.15357 0.0
C504 C 0.54854 0.11849 0.17393 0.0
C505 C 0.55197 0.12019 0.2343 0.0
C506 C 0.53676 0.11731 0.27442 0.0
C507 C 0.48002 0.0451 0.46618 0.0
C508 C 0.4964 0.04461 0.50312 0.0
C509 C 0.47779 0.05998 0.42548 0.0
C510 C 0.49156 0.07508 0.42193 0.0
C511 C 0.5081 0.0745 0.45805 0.0
C512 C 0.51057 0.05932 0.49795 0.0
C513 C 0.48881 0.09125 0.37985 0.0
C514 C 0.50394 0.09566 0.34041 0.0
C515 C 0.47112 0.10165 0.37648 0.0
C516 C 0.45464 0.09792 0.4174 0.0
C517 C 0.45726 0.09916 0.47865 0.0
C518 C 0.44186 0.09478 0.51686 0.0
C519 C 0.42374 0.08925 0.49433 0.0
C520 C 0.42094 0.0882 0.43352 0.0
C521 C 0.43629 0.09257 0.39512 0.0
H522 H 0.41187 0.08579 0.52399 0.0
H523 H 0.56032 0.12075 0.14293 0.0
H524 H 0.32909 0.49929 0.19626 0.0
H525 H 0.35361 0.50379 0.2726 0.0
H526 H 0.39082 0.46242 0.18426 0.0
H527 H 0.36543 0.45674 0.11043 0.0
H528 H 0.39298 0.45654 0.29381 0.0
H529 H 0.39668 0.51542 0.178 0.0
H530 H 0.38325 0.54471 0.13139 0.0
H531 H 0.36485 0.5661 0.30031 0.0
H532 H 0.378 0.53684 0.34782 0.0
H533 H 0.47994 0.48072 0.4384 0.0
H534 H 0.45429 0.4758 0.36712 0.0
H535 H 0.41844 0.5174 0.45913 0.0
H536 H 0.445 0.52398 0.52749 0.0
H537 H 0.41485 0.52285 0.35041 0.0
H538 H 0.41269 0.46395 0.46649 0.0
H539 H 0.42699 0.43478 0.51156 0.0
H540 H 0.44331 0.41342 0.34071 0.0
H541 H 0.42927 0.44251 0.29465 0.0
C542 C 0.34257 0.49126 0.19318 0.0
C543 C 0.34561 0.47786 0.14748 0.0
C544 C 0.35662 0.4939 0.23657 0.0
C545 C 0.37433 0.48386 0.23339 0.0
C546 C 0.37731 0.4704 0.18755 0.0
C547 C 0.36292 0.46723 0.14529 0.0
C548 C 0.38964 0.48721 0.27819 0.0
C549 C 0.39792 0.47104 0.30569 0.0
C550 C 0.39577 0.50614 0.2949 0.0
C551 C 0.38821 0.52389 0.26636 0.0
C552 C 0.38972 0.52635 0.20514 0.0
C553 C 0.38215 0.54294 0.17858 0.0
C554 C 0.37317 0.55724 0.21285 0.0
C555 C 0.3718 0.55501 0.2738 0.0
C556 C 0.37934 0.53845 0.30057 0.0
C557 C 0.46664 0.48888 0.44383 0.0
C558 C 0.4644 0.50243 0.48991 0.0
C559 C 0.45183 0.48584 0.40317 0.0
C560 C 0.43411 0.49565 0.40891 0.0
C561 C 0.43189 0.5094 0.45431 0.0
C562 C 0.44701 0.51298 0.4939 0.0
C563 C 0.41824 0.49219 0.36601 0.0
C564 C 0.40985 0.50835 0.33882 0.0
C565 C 0.41209 0.47324 0.34947 0.0
C566 C 0.42001 0.45547 0.37718 0.0
C567 C 0.41935 0.45305 0.43856 0.0
C568 C 0.42741 0.43653 0.46426 0.0
C569 C 0.43607 0.4223 0.42899 0.0
C570 C 0.43659 0.42447 0.36794 0.0
C571 C 0.42854 0.44094 0.34202 0.0
H572 H 0.44235 0.40958 0.44891 0.0
H573 H 0.3673 0.57006 0.19219 0.0
H574 H 0.06129 0.35603 0.1346 0.0
H575 H 0.05806 0.3817 0.20892 0.0
H576 H 0.99791 0.36543 0.23586 0.0
H577 H 0.00084 0.34038 0.16015 0.0
H578 H 0.00092 0.40295 0.23201 0.0
H579 H 0.03695 0.35246 0.33273 0.0
H580 H 0.06456 0.33014 0.34564 0.0
H581 H 0.10426 0.37859 0.34857 0.0
H582 H 0.07692 0.40117 0.33499 0.0
H583 H 0.98225 0.45183 0.50151 0.0
H584 H 0.98694 0.42704 0.42532 0.0
H585 H 0.04676 0.44536 0.40455 0.0
H586 H 0.04238 0.46967 0.48163 0.0
H587 H 0.04507 0.40764 0.40365 0.0
H588 H 0.01078 0.45819 0.30658 0.0
H589 H 0.98479 0.48157 0.28402 0.0
H590 H 0.94357 0.43484 0.26706 0.0
H591 H 0.96912 0.41115 0.29054 0.0
C592 C 0.04736 0.358 0.15625 0.0
C593 C 0.03131 0.3462 0.14149 0.0
C594 C 0.04558 0.37258 0.19907 0.0
C595 C 0.02783 0.3753 0.22885 0.0
C596 C 0.01176 0.36362 0.21362 0.0
C597 C 0.01345 0.34929 0.17026 0.0
C598 C 0.02569 0.39049 0.27516 0.0
C599 C 0.01039 0.40378 0.27006 0.0
C600 C 0.03852 0.39209 0.32362 0.0
C601 C 0.05491 0.37848 0.33231 0.0
C602 C 0.05158 0.35833 0.33578 0.0
C603 C 0.06718 0.34564 0.34327 0.0
C604 C 0.08616 0.35294 0.34778 0.0
C605 C 0.08957 0.37295 0.345 0.0
C606 C 0.07403 0.3857 0.33747 0.0
C607 C 0.99643 0.45049 0.48098 0.0
C608 C 0.01191 0.46279 0.49755 0.0
C609 C 0.99906 0.43641 0.43708 0.0
C610 C 0.01714 0.4345 0.40856 0.0
C611 C 0.03267 0.44656 0.42577 0.0
C612 C 0.0301 0.46053 0.46977 0.0
C613 C 0.02001 0.41986 0.36108 0.0
C614 C 0.03551 0.40675 0.36581 0.0
C615 C 0.00748 0.41856 0.31187 0.0
C616 C 0.99185 0.43289 0.30102 0.0
C617 C 0.99611 0.4529 0.29906 0.0
C618 C 0.98147 0.46621 0.28605 0.0
C619 C 0.96257 0.45971 0.27455 0.0
C620 C 0.95821 0.43987 0.27622 0.0
C621 C 0.97275 0.42649 0.28947 0.0
H622 H 0.95135 0.47006 0.26392 0.0
H623 H 0.09821 0.34309 0.35353 0.0
H624 H 0.82939 0.98257 0.04504 0.0
H625 H 0.85439 0.99801 0.98313 0.0
H626 H 0.8893 0.94631 0.99306 0.0
H627 H 0.86401 0.93048 0.05273 0.0
H628 H 0.90614 0.99382 0.00443 0.0
H629 H 0.87645 0.93937 0.8866 0.0
H630 H 0.84714 0.92165 0.85313 0.0
H631 H 0.82308 0.97482 0.78825 0.0
H632 H 0.85215 0.99289 0.82246 0.0
H633 H 0.96944 0.97595 0.75737 0.0
H634 H 0.94329 0.97077 0.82847 0.0
H635 H 0.91912 0.02657 0.78598 0.0
H636 H 0.9458 0.03244 0.71634 0.0
H637 H 0.89483 0.9823 0.79123 0.0
H638 H 0.92755 0.03586 0.89259 0.0
H639 H 0.95684 0.05346 0.92663 0.0
H640 H 0.97493 0.00309 0.02241 0.0
H641 H 0.94585 0.98511 0.98808 0.0
C642 C 0.84257 0.97466 0.03483 0.0
C643 C 0.84479 0.95532 0.05306 0.0
C644 C 0.85678 0.98348 0.99968 0.0
C645 C 0.87356 0.97322 0.98377 0.0
C646 C 0.87639 0.95438 0.00512 0.0
C647 C 0.86195 0.94536 0.03884 0.0
C648 C 0.88705 0.98119 0.93948 0.0
C649 C 0.90366 0.99142 0.95784 0.0
C650 C 0.88357 0.97828 0.87888 0.0
C651 C 0.86627 0.96748 0.85774 0.0
C652 C 0.8648 0.94729 0.86573 0.0
C653 C 0.84827 0.93718 0.84657 0.0
C654 C 0.83322 0.94712 0.81877 0.0
C655 C 0.83471 0.96716 0.80996 0.0
C656 C 0.8512 0.97734 0.82927 0.0
C657 C 0.95864 0.98719 0.763 0.0
C658 C 0.9597 0.00459 0.73085 0.0
C659 C 0.94372 0.98418 0.80364 0.0
C660 C 0.92948 0.99836 0.81241 0.0
C661 C 0.93012 0.01555 0.77973 0.0
C662 C 0.94528 0.01877 0.73972 0.0
C663 C 0.91402 0.99484 0.85606 0.0
C664 C 0.89709 0.9852 0.83769 0.0
C665 C 0.91719 0.99842 0.91653 0.0
C666 C 0.93466 0.0091 0.93732 0.0
C667 C 0.93788 0.02848 0.92039 0.0
C668 C 0.9544 0.03855 0.93991 0.0
C669 C 0.96773 0.0294 0.97673 0.0
C670 C 0.96458 0.01016 0.99397 0.0
C671 C 0.94808 3e-05 0.97453 0.0
H672 H 0.98051 0.03722 0.99182 0.0
H673 H 0.82043 0.93927 0.80391 0.0
H674 H 0.54338 0.85808 0.1091 0.0
H675 H 0.53166 0.88456 0.04699 0.0
H676 H 0.55368 0.85478 0.89312 0.0
H677 H 0.56632 0.82903 0.95526 0.0
H678 H 0.56403 0.89019 0.8875 0.0
H679 H 0.50232 0.85845 0.93669 0.0
H680 H 0.47653 0.84661 0.00362 0.0
H681 H 0.46953 0.9042 0.07372 0.0
H682 H 0.49542 0.91633 0.00768 0.0
H683 H 0.51869 0.93809 0.65451 0.0
H684 H 0.52735 0.914 0.72813 0.0
H685 H 0.5086 0.95286 0.86634 0.0
H686 H 0.49923 0.9768 0.7928 0.0
H687 H 0.4968 0.91599 0.8876 0.0
H688 H 0.55636 0.94827 0.83787 0.0
H689 H 0.58136 0.9614 0.77053 0.0
H690 H 0.59226 0.90401 0.70363 0.0
H691 H 0.56716 0.89056 0.77013 0.0
C692 C 0.54559 0.85721 0.06195 0.0
C693 C 0.55586 0.84162 0.03691 0.0
C694 C 0.53878 0.87227 0.02643 0.0
C695 C 0.54162 0.87164 0.96513 0.0
C696 C 0.55141 0.85572 0.94024 0.0
C697 C 0.55861 0.84098 0.97576 0.0
C698 C 0.53544 0.88784 0.92656 0.0
C699 C 0.54924 0.8956 0.88715 0.0
C700 C 0.51639 0.89563 0.92771 0.0
C701 C 0.50096 0.88824 0.96772 0.0
C702 C 0.4954 0.86854 0.96674 0.0
C703 C 0.48074 0.86179 0.00444 0.0
C704 C 0.47144 0.87463 0.04303 0.0
C705 C 0.47676 0.89426 0.04391 0.0
C706 C 0.49142 0.90108 0.00634 0.0
C707 C 0.51617 0.94144 0.70044 0.0
C708 C 0.50818 0.95931 0.71773 0.0
C709 C 0.52128 0.92771 0.74254 0.0
C710 C 0.51881 0.93175 0.80273 0.0
C711 C 0.51061 0.94947 0.82013 0.0
C712 C 0.50537 0.96315 0.77801 0.0
C713 C 0.52519 0.91757 0.8474 0.0
C714 C 0.51156 0.91046 0.88819 0.0
C715 C 0.54441 0.91043 0.84797 0.0
C716 C 0.5598 0.91842 0.80874 0.0
C717 C 0.56403 0.93846 0.80861 0.0
C718 C 0.57822 0.94596 0.77061 0.0
C719 C 0.58836 0.93355 0.73274 0.0
C720 C 0.58439 0.91361 0.73298 0.0
C721 C 0.57021 0.90603 0.77089 0.0
H722 H 0.59932 0.93938 0.70327 0.0
H723 H 0.46009 0.86938 0.07213 0.0
H724 H 0.66467 0.58614 0.98913 0.0
H725 H 0.63882 0.57354 0.92631 0.0
H726 H 0.64 0.51891 0.01852 0.0
H727 H 0.66623 0.53136 0.08142 0.0
H728 H 0.6391 0.51368 0.89987 0.0
H729 H 0.60278 0.54986 0.0419 0.0
H730 H 0.59423 0.57812 0.10363 0.0
H731 H 0.58467 0.61227 0.94889 0.0
H732 H 0.59343 0.58429 0.8862 0.0
H733 H 0.55374 0.48465 0.73764 0.0
H734 H 0.57816 0.49113 0.81377 0.0
H735 H 0.58076 0.55131 0.76061 0.0
H736 H 0.55547 0.54503 0.68752 0.0
H737 H 0.5777 0.54996 0.8721 0.0
H738 H 0.61796 0.51493 0.73039 0.0
H739 H 0.62621 0.48657 0.66852 0.0
H740 H 0.62793 0.4504 0.82179 0.0
H741 H 0.61959 0.47852 0.88455 0.0
C742 C 0.65938 0.57149 0.99643 0.0
C743 C 0.66746 0.55978 0.04039 0.0
C744 C 0.64454 0.56433 0.96058 0.0
C745 C 0.63733 0.54538 0.96826 0.0
C746 C 0.64534 0.5336 0.01207 0.0
C747 C 0.66026 0.54076 0.04803 0.0
C748 C 0.62179 0.53791 0.9291 0.0
C749 C 0.62552 0.52141 0.89436 0.0
C750 C 0.60417 0.5481 0.92169 0.0
C751 C 0.59889 0.56498 0.95934 0.0
C752 C 0.599 0.56343 0.02102 0.0
C753 C 0.59409 0.5794 0.05619 0.0
C754 C 0.58894 0.59699 0.0302 0.0
C755 C 0.58866 0.59864 0.96897 0.0
C756 C 0.59357 0.58272 0.9336 0.0
C757 C 0.55986 0.49915 0.74182 0.0
C758 C 0.5529 0.51439 0.70712 0.0
C759 C 0.57379 0.50285 0.78518 0.0
C760 C 0.58144 0.5217 0.79275 0.0
C761 C 0.575 0.53669 0.75598 0.0
C762 C 0.56068 0.53311 0.71403 0.0
C763 C 0.59539 0.5263 0.8406 0.0
C764 C 0.59124 0.54215 0.8776 0.0
C765 C 0.61262 0.51557 0.84977 0.0
C766 C 0.618 0.49878 0.81208 0.0
C767 C 0.62003 0.50091 0.75085 0.0
C768 C 0.62471 0.48489 0.71563 0.0
C769 C 0.62751 0.46669 0.74117 0.0
C770 C 0.62574 0.4645 0.80205 0.0
C771 C 0.62107 0.48048 0.83747 0.0
H772 H 0.6311 0.4543 0.71381 0.0
H773 H 0.58514 0.60933 0.05751 0.0
H774 H 0.98749 0.6776 0.05162 0.0
H775 H 0.9974 0.65223 0.9819 0.0
H776 H 0.93811 0.63148 0.97279 0.0
H777 H 0.928 0.657 0.04162 0.0
H778 H 0.96727 0.60212 0.99156 0.0
H779 H 0.95289 0.65605 0.86485 0.0
H780 H 0.95579 0.68989 0.8307 0.0
H781 H 0.01686 0.68194 0.79866 0.0
H782 H 0.01439 0.6481 0.8336 0.0
H783 H 0.96585 0.54245 0.7397 0.0
H784 H 0.95998 0.56825 0.8114 0.0
H785 H 0.02005 0.58636 0.79854 0.0
H786 H 0.02623 0.56014 0.7275 0.0
H787 H 0.99301 0.61737 0.79254 0.0
H788 H 0.00939 0.56727 0.93429 0.0
H789 H 0.00865 0.53455 0.97829 0.0
H790 H 0.94615 0.53561 0.98158 0.0
H791 H 0.94661 0.5687 0.93969 0.0
C792 C 0.97659 0.66759 0.0349 0.0
C793 C 0.95698 0.66924 0.05196 0.0
C794 C 0.98226 0.65321 0.99495 0.0
C795 C 0.96844 0.64014 0.97215 0.0
C796 C 0.94894 0.64151 0.98994 0.0
C797 C 0.9432 0.65608 0.0291 0.0
C798 C 0.97434 0.62486 0.93015 0.0
C799 C 0.97269 0.60545 0.94783 0.0
C800 C 0.982 0.62931 0.87393 0.0
C801 C 0.9835 0.64961 0.85256 0.0
C802 C 0.96699 0.66157 0.85111 0.0
C803 C 0.96854 0.68074 0.83149 0.0
C804 C 0.98651 0.68808 0.81272 0.0
C805 C 0.00296 0.67624 0.81334 0.0
C806 C 0.00148 0.65706 0.83303 0.0
C807 C 0.97786 0.55185 0.75223 0.0
C808 C 0.9965 0.54931 0.72778 0.0
C809 C 0.97449 0.56655 0.79331 0.0
C810 C 0.98963 0.57905 0.81058 0.0
C811 C 0.0082 0.5768 0.78571 0.0
C812 C 0.01166 0.56192 0.74495 0.0
C813 C 0.98574 0.59464 0.85386 0.0
C814 C 0.98771 0.61409 0.83643 0.0
C815 C 0.97853 0.59033 0.9106 0.0
C816 C 0.97804 0.57027 0.93345 0.0
C817 C 0.99551 0.56045 0.94418 0.0
C818 C 0.99514 0.54194 0.96917 0.0
C819 C 0.97736 0.53293 0.98223 0.0
C820 C 0.95991 0.54257 0.97122 0.0
C821 C 0.96021 0.56127 0.9474 0.0
H822 H 0.97711 0.51852 0.00109 0.0
H823 H 0.98769 0.70293 0.79755 0.0
H824 H 0.01842 0.25188 0.1706 0.0
H825 H 0.01194 0.22365 0.23179 0.0
H826 H 0.06475 0.19685 0.16906 0.0
H827 H 0.0711 0.22496 0.10618 0.0
H828 H 0.03607 0.17211 0.16113 0.0
H829 H 0.06013 0.21203 0.31346 0.0
H830 H 0.06438 0.24174 0.37314 0.0
H831 H 0.00435 0.23895 0.42581 0.0
H832 H -0.00036 0.20938 0.3657 0.0
H833 H 0.01511 0.09427 0.36668 0.0
H834 H 0.03222 0.12247 0.32431 0.0
H835 H 0.9781 0.15378 0.31827 0.0
H836 H 0.96089 0.12549 0.35908 0.0
H837 H 0.01341 0.17462 0.36857 0.0
H838 H 0.99026 0.13663 0.19978 0.0
H839 H 0.98788 0.10653 0.14087 0.0
H840 H 0.05013 0.10521 0.12354 0.0
H841 H 0.05286 0.1352 0.18314 0.0
C842 C 0.02887 0.24016 0.17049 0.0
C843 C 0.04524 0.24067 0.13329 0.0
C844 C 0.02519 0.22403 0.20584 0.0
C845 C 0.03794 0.20816 0.20547 0.0
C846 C 0.05471 0.20893 0.17008 0.0
C847 C 0.05836 0.22505 0.13437 0.0
C848 C 0.03272 0.19024 0.23819 0.0
C849 C 0.03158 0.17261 0.20692 0.0
C850 C 0.02676 0.19082 0.29788 0.0
C851 C 0.02951 0.20851 0.33474 0.0
C852 C 0.04779 0.21781 0.33747 0.0
C853 C 0.05029 0.23462 0.37142 0.0
C854 C 0.03463 0.24224 0.40318 0.0
C855 C 0.01646 0.23303 0.40118 0.0
C856 C 0.01388 0.21621 0.36724 0.0
C857 C 0.00694 0.10722 0.35631 0.0
C858 C 0.98672 0.10778 0.36568 0.0
C859 C 0.01669 0.12325 0.3323 0.0
C860 C 0.00638 0.14014 0.31848 0.0
C861 C 0.98626 0.14086 0.32896 0.0
C862 C 0.97646 0.12471 0.35178 0.0
C863 C 0.01632 0.15689 0.29087 0.0
C864 C 0.01833 0.17419 0.32318 0.0
C865 C 0.02344 0.15593 0.23255 0.0
C866 C 0.02178 0.13798 0.19657 0.0
C867 C 0.00344 0.12981 0.18393 0.0
C868 C 0.00203 0.1128 0.15029 0.0
C869 C 0.01885 0.10392 0.12865 0.0
C870 C 0.03711 0.11208 0.14045 0.0
C871 C 0.0386 0.12908 0.17413 0.0
H872 H 0.01773 0.09076 0.1026 0.0
H873 H 0.03659 0.25527 0.42941 0.0
H874 H 0.27853 0.07068 0.13348 0.0
H875 H 0.30926 0.06756 0.18647 0.0
H876 H 0.30099 0.00541 0.1939 0.0
H877 H 0.27028 0.00848 0.14092 0.0
H878 H 0.31164 0.01819 0.29737 0.0
H879 H 0.33856 0.02657 0.10012 0.0
H880 H 0.34591 0.04197 0.00471 0.0
H881 H 0.3621 0.0949 0.09334 0.0
H882 H 0.35512 0.07966 0.1893 0.0
H883 H 0.40961 0.98735 0.34989 0.0
H884 H 0.37588 0.99396 0.32216 0.0
H885 H 0.38753 0.05557 0.33196 0.0
H886 H 0.42121 0.04902 0.35958 0.0
H887 H 0.37437 0.04557 0.22696 0.0
H888 H 0.35442 0.03409 0.42405 0.0
H889 H 0.35095 0.01707 0.51876 0.0
H890 H 0.32228 0.96935 0.43198 0.0
H891 H 0.32582 0.98594 0.33657 0.0
C892 C 0.28349 0.05631 0.14502 0.0
C893 C 0.27212 0.03979 0.13192 0.0
C894 C 0.30105 0.05454 0.17567 0.0
C895 C 0.30764 0.03621 0.19372 0.0
C896 C 0.29627 0.01972 0.18057 0.0
C897 C 0.27871 0.02149 0.15016 0.0
C898 C 0.32595 0.03419 0.22815 0.0
C899 C 0.32542 0.02398 0.28165 0.0
C900 C 0.34383 0.04233 0.20908 0.0
C901 C 0.3461 0.05208 0.15161 0.0
C902 C 0.3434 0.04158 0.0991 0.0
C903 C 0.34766 0.05023 0.04501 0.0
C904 C 0.35447 0.06942 0.04299 0.0
C905 C 0.35685 0.08005 0.09499 0.0
C906 C 0.35281 0.07139 0.14921 0.0
C907 C 0.40481 0.00229 0.34789 0.0
C908 C 0.41813 0.01767 0.356 0.0
C909 C 0.38549 0.00607 0.33211 0.0
C910 C 0.37915 0.02528 0.32467 0.0
C911 C 0.3921 0.04063 0.33703 0.0
C912 C 0.41136 0.03687 0.35262 0.0
C913 C 0.3602 0.02931 0.29576 0.0
C914 C 0.36058 0.03992 0.24322 0.0
C915 C 0.34228 0.02147 0.31584 0.0
C916 C 0.34058 0.01119 0.37295 0.0
C917 C 0.34759 0.01986 0.42499 0.0
C918 C 0.34555 0.01031 0.47886 0.0
C919 C 0.33645 0.99212 0.48137 0.0
C920 C 0.32936 0.98343 0.42998 0.0
C921 C 0.33137 0.99291 0.37598 0.0
H922 H 0.33484 0.98478 0.52314 0.0
H923 H 0.35801 0.07604 0.00117 0.0
H924 H 0.43569 0.28106 0.14429 0.0
H925 H 0.44449 0.31183 0.19197 0.0
H926 H 0.50298 0.30682 0.12341 0.0
H927 H 0.49444 0.2755 0.07905 0.0
H928 H 0.50571 0.31507 0.2295 0.0
H929 H 0.46718 0.34342 0.07622 0.0
H930 H 0.43828 0.34864 0.01443 0.0
H931 H 0.40421 0.3619 0.16774 0.0
H932 H 0.43295 0.35705 0.23064 0.0
H933 H 0.53734 0.40535 0.34074 0.0
H934 H 0.52567 0.38257 0.26488 0.0
H935 H 0.47135 0.37603 0.3589 0.0
H936 H 0.48301 0.3989 0.43436 0.0
H937 H 0.46701 0.37565 0.23408 0.0
H938 H 0.50557 0.34517 0.38572 0.0
H939 H 0.53499 0.34166 0.44648 0.0
H940 H 0.56943 0.33242 0.29092 0.0
H941 H 0.54024 0.33623 0.22915 0.0
C942 C 0.45033 0.28673 0.13882 0.0
C943 C 0.46441 0.27595 0.10822 0.0
C944 C 0.45534 0.30441 0.16568 0.0
C945 C 0.47439 0.31191 0.1609 0.0
C946 C 0.48822 0.3014 0.12815 0.0
C947 C 0.48335 0.2835 0.10277 0.0
C948 C 0.48052 0.32957 0.19458 0.0
C949 C 0.4974 0.32842 0.22913 0.0
C950 C 0.46951 0.34695 0.19591 0.0
C951 C 0.45219 0.34969 0.1582 0.0
C952 C 0.45349 0.34727 0.09685 0.0
C953 C 0.43715 0.35018 0.0616 0.0
C954 C 0.41939 0.35537 0.08711 0.0
C955 C 0.41797 0.35783 0.14801 0.0
C956 C 0.4343 0.35511 0.18347 0.0
C957 C 0.52278 0.39931 0.34432 0.0
C958 C 0.51114 0.40349 0.39352 0.0
C959 C 0.51613 0.38634 0.30117 0.0
C960 C 0.49775 0.37743 0.30672 0.0
C961 C 0.48559 0.38269 0.35386 0.0
C962 C 0.4923 0.39556 0.39716 0.0
C963 C 0.49216 0.36099 0.26767 0.0
C964 C 0.47537 0.36234 0.23298 0.0
C965 C 0.50329 0.3438 0.26564 0.0
C966 C 0.52077 0.34119 0.30282 0.0
C967 C 0.51944 0.34253 0.36446 0.0
C968 C 0.53607 0.34047 0.39908 0.0
C969 C 0.55408 0.33686 0.37257 0.0
C970 C 0.55548 0.33525 0.31138 0.0
C971 C 0.5389 0.33736 0.27655 0.0
H972 H 0.56694 0.33527 0.39944 0.0
H973 H 0.40677 0.35759 0.05965 0.0
H974 H 0.24564 0.49369 0.14142 0.0
H975 H 0.21587 0.50081 0.19542 0.0
H976 H 0.19338 0.44378 0.15381 0.0
H977 H 0.22358 0.4362 0.10097 0.0
H978 H 0.16607 0.47432 0.13751 0.0
H979 H 0.2081 0.45067 0.28616 0.0
H980 H 0.23866 0.44789 0.34186 0.0
H981 H 0.23459 0.50777 0.39418 0.0
H982 H 0.20415 0.51101 0.33794 0.0
H983 H 0.08807 0.49085 0.34595 0.0
H984 H 0.11642 0.47513 0.29972 0.0
H985 H 0.14852 0.52909 0.31102 0.0
H986 H 0.12009 0.54489 0.35558 0.0
H987 H 0.16976 0.49487 0.34686 0.0
H988 H 0.13033 0.51927 0.1885 0.0
H989 H 0.10048 0.52269 0.12967 0.0
H990 H 0.10004 0.46132 0.09462 0.0
H991 H 0.12973 0.45748 0.15427 0.0
C992 C 0.23442 0.48257 0.14361 0.0
C993 C 0.23697 0.46443 0.11589 0.0
C994 C 0.21739 0.4867 0.17462 0.0
C995 C 0.20246 0.4728 0.1789 0.0
C996 C 0.20472 0.45474 0.15074 0.0
C997 C 0.22193 0.45051 0.11997 0.0
C998 C 0.18463 0.47741 0.21315 0.0
C999 C 0.16675 0.47836 0.18366 0.0
C1000 C 0.18564 0.483 0.27311 0.0
C1001 C 0.20389 0.48112 0.30742 0.0
C1002 C 0.21379 0.46329 0.30915 0.0
C1003 C 0.23109 0.46163 0.34088 0.0
C1004 C 0.23858 0.47765 0.37145 0.0
C1005 C 0.22877 0.49537 0.37045 0.0
C1006 C 0.21148 0.49712 0.33869 0.0
C1007 C 0.10128 0.49921 0.33896 0.0
C1008 C 0.10204 0.51901 0.35412 0.0
C1009 C 0.11739 0.49029 0.3125 0.0
C1010 C 0.13452 0.50099 0.30185 0.0
C1011 C 0.13545 0.5206 0.31897 0.0
C1012 C 0.11926 0.52959 0.34425 0.0
C1013 C 0.15131 0.49209 0.27093 0.0
C1014 C 0.16899 0.49041 0.30107 0.0
C1015 C 0.1501 0.48582 0.21163 0.0
C1016 C 0.13207 0.48804 0.17666 0.0
C1017 C 0.12372 0.50646 0.16898 0.0
C1018 C 0.10687 0.50848 0.13531 0.0
C1019 C 0.09833 0.49222 0.10861 0.0
C1020 C 0.10664 0.4739 0.1155 0.0
C1021 C 0.12347 0.47178 0.14926 0.0
H1022 H 0.08531 0.49383 0.08243 0.0
H1023 H 0.25198 0.47633 0.396 0.0
H1024 H 0.93598 0.7779 0.05891 0.0
H1025 H 0.94457 0.80688 0.00231 0.0
H1026 H 0.00299 0.80498 0.07033 0.0
H1027 H 0.99487 0.77543 0.12452 0.0
H1028 H 0.98328 0.84448 0.0655 0.0
H1029 H -0.00013 0.78779 0.94776 0.0
H1030 H 0.99258 0.75604 0.90177 0.0
H1031 H 0.94552 0.78142 0.80558 0.0
H1032 H 0.95237 0.81327 0.85172 0.0
H1033 H 0.03124 0.90544 0.85637 0.0
H1034 H 0.02094 0.88074 0.92741 0.0
H1035 H 0.97093 0.86726 0.81965 0.0
H1036 H 0.98183 0.89124 0.74736 0.0
H1037 H 0.98601 0.8357 0.84885 0.0
H1038 H 0.969 0.89238 0.95941 0.0
H1039 H 0.97364 0.92427 0.00741 0.0
H1040 H 0.01782 0.90033 0.11829 0.0
H1041 H 0.01364 0.86834 0.07038 0.0
C1042 C 0.95061 0.78374 0.06239 0.0
C1043 C 0.96461 0.77454 0.09748 0.0
C1044 C 0.95545 0.80034 0.0302 0.0
C1045 C 0.97435 0.8081 0.03262 0.0
C1046 C 0.98823 0.79936 0.06878 0.0
C1047 C 0.98348 0.78256 0.10036 0.0
C1048 C 0.97999 0.82435 0.99355 0.0
C1049 C 0.98412 0.84263 0.01813 0.0
C1050 C 0.9805 0.82193 0.93185 0.0
C1051 C 0.97651 0.80285 0.90362 0.0
C1052 C 0.98787 0.78656 0.91718 0.0
C1053 C 0.98383 0.76855 0.89102 0.0
C1054 C 0.96856 0.7667 0.8509 0.0
C1055 C 0.95733 0.78287 0.83672 0.0
C1056 C 0.96129 0.8009 0.86282 0.0
C1057 C 0.01794 0.89731 0.84841 0.0
C1058 C 0.00733 0.90015 0.79651 0.0
C1059 C 0.01198 0.88328 0.88915 0.0
C1060 C 0.99499 0.87219 0.87946 0.0
C1061 C 0.98411 0.87551 0.82821 0.0
C1062 C 0.9903 0.88922 0.78696 0.0
C1063 C 0.98924 0.85625 0.92029 0.0
C1064 C 0.98513 0.83784 0.8961 0.0
C1065 C 0.98846 0.85873 0.9823 0.0
C1066 C 0.99114 0.878 0.01082 0.0
C1067 C 0.97983 0.89395 0.99364 0.0
C1068 C 0.98235 0.91204 0.02092 0.0
C1069 C 0.99605 0.91434 0.06576 0.0
C1070 C 0.00723 0.89854 0.08348 0.0
C1071 C 0.00479 0.88042 0.0563 0.0
H1072 H 0.99797 0.92835 0.08686 0.0
H1073 H 0.96546 0.75275 0.83069 0.0
H1074 H 0.72527 0.96043 0.15705 0.0
H1075 H 0.69568 0.97342 0.11388 0.0
H1076 H 0.71772 0.96028 0.94029 0.0
H1077 H 0.74808 0.94871 0.98354 0.0
H1078 H 0.70115 0.99371 0.93679 0.0
H1079 H 0.68071 0.93159 0.01598 0.0
H1080 H 0.67772 0.90721 0.09484 0.0
H1081 H 0.64569 0.94779 0.20104 0.0
H1082 H 0.64857 0.97243 0.12288 0.0
H1083 H 0.60943 0.99886 0.78967 0.0
H1084 H 0.63835 0.98453 0.83548 0.0
H1085 H 0.62428 0.01316 0.99921 0.0
H1086 H 0.59574 0.02794 0.95309 0.0
H1087 H 0.63618 0.97202 0.00781 0.0
H1088 H 0.65622 0.03373 0.93076 0.0
H1089 H 0.65962 0.05896 0.85474 0.0
H1090 H 0.69289 0.01986 0.74701 0.0
H1091 H 0.68938 0.99424 0.82206 0.0
C1092 C 0.72411 0.96092 0.10972 0.0
C1093 C 0.7393 0.95417 0.07376 0.0
C1094 C 0.70693 0.96791 0.08496 0.0
C1095 C 0.70426 0.96769 0.02368 0.0
C1096 C 0.71936 0.96068 0.98766 0.0
C1097 C 0.73667 0.95395 0.01244 0.0
C1098 C 0.68584 0.9749 0.99714 0.0
C1099 C 0.68699 0.98866 0.95172 0.0
C1100 C 0.66723 0.96884 0.01755 0.0
C1101 C 0.6649 0.95384 0.06369 0.0
C1102 C 0.67302 0.93529 0.05615 0.0
C1103 C 0.67135 0.92144 0.10072 0.0
C1104 C 0.66152 0.92595 0.15291 0.0
C1105 C 0.65326 0.9443 0.16053 0.0
C1106 C 0.65485 0.95819 0.11605 0.0
C1107 C 0.61244 0.00187 0.83559 0.0
C1108 C 0.60047 0.0145 0.86794 0.0
C1109 C 0.62894 0.99376 0.86161 0.0
C1110 C 0.63346 0.99787 0.92064 0.0
C1111 C 0.62102 0.00981 0.95366 0.0
C1112 C 0.6048 0.01826 0.92732 0.0
C1113 C 0.65165 0.99047 0.94714 0.0
C1114 C 0.65041 0.97683 0.99263 0.0
C1115 C 0.67015 0.99664 0.92691 0.0
C1116 C 0.6723 0.01198 0.88165 0.0
C1117 C 0.66407 0.03042 0.89056 0.0
C1118 C 0.66605 0.04482 0.84772 0.0
C1119 C 0.6764 0.04099 0.79597 0.0
C1120 C 0.68483 0.02278 0.78705 0.0
C1121 C 0.68285 0.00832 0.82973 0.0
H1122 H 0.67794 0.05216 0.76287 0.0
H1123 H 0.6603 0.91523 0.18743 0.0
H1124 H 0.57496 0.72531 0.10968 0.0
H1125 H 0.56518 0.69433 0.06466 0.0
H1126 H 0.50802 0.71757 0.03157 0.0
H1127 H 0.51744 0.74794 0.07998 0.0
H1128 H 0.50349 0.68234 0.05659 0.0
H1129 H 0.54846 0.71555 0.92458 0.0
H1130 H 0.57996 0.73077 0.89868 0.0
H1131 H 0.6093 0.6772 0.93431 0.0
H1132 H 0.57798 0.66173 0.96099 0.0
H1133 H 0.47302 0.63828 0.79392 0.0
H1134 H 0.49051 0.66164 0.85552 0.0
H1135 H 0.52478 0.61541 0.92808 0.0
H1136 H 0.50678 0.59163 0.86791 0.0
H1137 H 0.54405 0.65722 0.89217 0.0
H1138 H 0.49643 0.62402 0.01634 0.0
H1139 H 0.46368 0.61026 0.03387 0.0
H1140 H 0.4383 0.66622 0.00416 0.0
H1141 H 0.47092 0.68022 0.98567 0.0
C1142 C 0.56023 0.72361 0.09348 0.0
C1143 C 0.54693 0.73895 0.09821 0.0
C1144 C 0.55468 0.70597 0.06731 0.0
C1145 C 0.53598 0.70367 0.04308 0.0
C1146 C 0.52253 0.71886 0.04972 0.0
C1147 C 0.5279 0.73625 0.07742 0.0
C1148 C 0.53046 0.68591 0.00879 0.0
C1149 C 0.51245 0.67695 0.02074 0.0
C1150 C 0.5422 0.67839 0.96247 0.0
C1151 C 0.56094 0.68756 0.94529 0.0
C1152 C 0.56165 0.70705 0.92704 0.0
C1153 C 0.57946 0.71571 0.91225 0.0
C1154 C 0.59662 0.70497 0.915 0.0
C1155 C 0.596 0.68551 0.93229 0.0
C1156 C 0.57823 0.67678 0.94719 0.0
C1157 C 0.48427 0.633 0.82287 0.0
C1158 C 0.48816 0.61299 0.82689 0.0
C1159 C 0.49439 0.64642 0.8576 0.0
C1160 C 0.50878 0.6402 0.89663 0.0
C1161 C 0.51371 0.62045 0.89809 0.0
C1162 C 0.50343 0.60691 0.86358 0.0
C1163 C 0.51705 0.65427 0.93948 0.0
C1164 C 0.53544 0.66249 0.92896 0.0
C1165 C 0.5056 0.66135 0.98655 0.0
C1166 C 0.48606 0.65311 0.99928 0.0
C1167 C 0.48385 0.63334 0.01325 0.0
C1168 C 0.46532 0.62551 0.0234 0.0
C1169 C 0.44891 0.63735 0.02003 0.0
C1170 C 0.45102 0.65706 0.00675 0.0
C1171 C 0.46952 0.66496 0.99653 0.0
H1172 H 0.43457 0.63125 0.0278 0.0
H1173 H 0.6104 0.71172 0.90363 0.0
H1174 H 0.78486 0.5356 0.14968 0.0
H1175 H 0.81317 0.52396 0.09623 0.0
H1176 H 0.79627 0.55782 0.94575 0.0
H1177 H 0.76699 0.56811 0.99738 0.0
H1178 H 0.80634 0.52407 0.91005 0.0
H1179 H 0.83527 0.57027 0.04769 0.0
H1180 H 0.84156 0.58287 0.1477 0.0
H1181 H 0.86828 0.52892 0.19475 0.0
H1182 H 0.86198 0.51594 0.09514 0.0
H1183 H 0.88768 0.52558 0.73326 0.0
H1184 H 0.86531 0.53775 0.80848 0.0
H1185 H 0.88371 0.49272 0.92687 0.0
H1186 H 0.90641 0.48056 0.85148 0.0
H1187 H 0.87394 0.52879 0.98539 0.0
H1188 H 0.84621 0.483 0.84939 0.0
H1189 H 0.83965 0.46953 0.75067 0.0
H1190 H 0.80996 0.52185 0.70315 0.0
H1191 H 0.81664 0.53577 0.80134 0.0
C1192 C 0.78672 0.54013 0.10487 0.0
C1193 C 0.7731 0.55229 0.07758 0.0
C1194 C 0.80332 0.53382 0.07457 0.0
C1195 C 0.80705 0.54008 0.01684 0.0
C1196 C 0.79375 0.55266 0.99011 0.0
C1197 C 0.77701 0.55863 0.01995 0.0
C1198 C 0.82429 0.53312 0.98292 0.0
C1199 C 0.8211 0.52539 0.92648 0.0
C1200 C 0.84359 0.53401 0.00499 0.0
C1201 C 0.84802 0.54209 0.06411 0.0
C1202 C 0.84246 0.56109 0.07941 0.0
C1203 C 0.84601 0.56829 0.13602 0.0
C1204 C 0.85526 0.55668 0.1776 0.0
C1205 C 0.8611 0.53789 0.16251 0.0
C1206 C 0.85758 0.53062 0.10595 0.0
C1207 C 0.88729 0.51855 0.77582 0.0
C1208 C 0.89856 0.50196 0.7863 0.0
C1209 C 0.87454 0.52553 0.8188 0.0
C1210 C 0.87258 0.51592 0.87288 0.0
C1211 C 0.88497 0.50033 0.88541 0.0
C1212 C 0.89791 0.49339 0.84235 0.0
C1213 C 0.85586 0.5206 0.91205 0.0
C1214 C 0.85914 0.5276 0.96932 0.0
C1215 C 0.83654 0.519 0.89112 0.0
C1216 C 0.83206 0.51048 0.83254 0.0
C1217 C 0.83838 0.49167 0.81777 0.0
C1218 C 0.83464 0.48396 0.76192 0.0
C1219 C 0.82443 0.49484 0.72063 0.0
C1220 C 0.81788 0.51344 0.73518 0.0
C1221 C 0.82162 0.52125 0.79094 0.0
H1222 H 0.82156 0.48885 0.67738 0.0
H1223 H 0.85793 0.56225 0.22148 0.0
H1224 H 0.07426 0.19596 0.92216 0.0
H1225 H 0.06481 0.16615 0.87171 0.0
H1226 H 0.02255 0.19763 0.77044 0.0
H1227 H 0.03183 0.22783 0.8217 0.0
H1228 H 0.00808 0.16252 0.81681 0.0
H1229 H 0.06349 0.18386 0.70419 0.0
H1230 H 0.09708 0.19603 0.69132 0.0
H1231 H 0.11923 0.14482 0.77416 0.0
H1232 H 0.08577 0.13245 0.78822 0.0
H1233 H 0.99107 0.07656 0.64929 0.0
H1234 H 0.99817 0.11016 0.67682 0.0
H1235 H 0.0499 0.09154 0.76739 0.0
H1236 H 0.04368 0.05823 0.73602 0.0
H1237 H 0.05783 0.12285 0.71376 0.0
H1238 H 0.00413 0.10304 0.83843 0.0
H1239 H 0.97115 0.09005 0.85727 0.0
H1240 H 0.94638 0.13709 0.75991 0.0
H1241 H 0.97925 0.15023 0.73986 0.0
C1242 C 0.06303 0.19668 0.88892 0.0
C1243 C 0.05389 0.21433 0.8757 0.0
C1244 C 0.05767 0.17958 0.86003 0.0
C1245 C 0.04315 0.17972 0.81686 0.0
C1246 C 0.03385 0.19726 0.80352 0.0
C1247 C 0.03924 0.21449 0.83257 0.0
C1248 C 0.03779 0.16134 0.78655 0.0
C1249 C 0.01882 0.15397 0.79322 0.0
C1250 C 0.05194 0.15005 0.75698 0.0
C1251 C 0.07211 0.15728 0.74746 0.0
C1252 C 0.07552 0.17524 0.71988 0.0
C1253 C 0.09454 0.18217 0.71236 0.0
C1254 C 0.11027 0.17122 0.73196 0.0
C1255 C 0.10703 0.15328 0.75896 0.0
C1256 C 0.08804 0.14629 0.76661 0.0
C1257 C 0.00398 0.07963 0.67504 0.0
C1258 C 0.0166 0.06462 0.69158 0.0
C1259 C 0.00796 0.09886 0.69106 0.0
C1260 C 0.02431 0.1034 0.7255 0.0
C1261 C 0.03711 0.08845 0.74112 0.0
C1262 C 0.03342 0.06931 0.72371 0.0
C1263 C 0.02824 0.12365 0.74548 0.0
C1264 C 0.04696 0.13142 0.73668 0.0
C1265 C 0.01393 0.13514 0.77393 0.0
C1266 C 0.99415 0.12752 0.78722 0.0
C1267 C 0.99165 0.11057 0.82087 0.0
C1268 C 0.97298 0.10318 0.83176 0.0
C1269 C 0.95668 0.11272 0.80969 0.0
C1270 C 0.95902 0.12971 0.77692 0.0
C1271 C 0.97766 0.13715 0.76583 0.0
H1272 H 0.94224 0.10696 0.81807 0.0
H1273 H 0.12498 0.17662 0.72618 0.0
H1274 H 0.29022 0.05668 0.80113 0.0
H1275 H 0.31858 0.04786 0.74078 0.0
H1276 H 0.3561 0.05881 0.88961 0.0
H1277 H 0.32823 0.06892 0.94753 0.0
H1278 H 0.37149 0.07402 0.80156 0.0
H1279 H 0.34036 0.0111 0.83452 0.0
H1280 H 0.3144 0.98628 0.82699 0.0
H1281 H 0.31644 0.98989 0.63848 0.0
H1282 H 0.34224 0.01491 0.64493 0.0
H1283 H 0.45347 0.0116 0.76044 0.0
H1284 H 0.42166 0.02375 0.79207 0.0
H1285 H 0.4069 0.03607 0.61194 0.0
H1286 H 0.43908 0.02509 0.58016 0.0
H1287 H 0.37859 0.01149 0.69472 0.0
H1288 H 0.41274 0.07262 0.66689 0.0
H1289 H 0.43867 0.09725 0.67936 0.0
H1290 H 0.43142 0.095 0.86691 0.0
H1291 H 0.40568 0.07013 0.85565 0.0
C1292 C 0.30459 0.05735 0.82049 0.0
C1293 C 0.30711 0.06352 0.87908 0.0
C1294 C 0.32074 0.05211 0.78623 0.0
C1295 C 0.3395 0.05247 0.81074 0.0
C1296 C 0.34184 0.05852 0.86936 0.0
C1297 C 0.32589 0.06425 0.90268 0.0
C1298 C 0.35707 0.04735 0.77604 0.0
C1299 C 0.37299 0.06024 0.77862 0.0
C1300 C 0.3589 0.02974 0.74395 0.0
C1301 C 0.343 0.0151 0.74027 0.0
C1302 C 0.3351 0.00678 0.79151 0.0
C1303 C 0.32046 0.99263 0.78742 0.0
C1304 C 0.31371 0.98658 0.73231 0.0
C1305 C 0.32161 0.99464 0.68115 0.0
C1306 C 0.33624 0.00881 0.685 0.0
C1307 C 0.44369 0.0174 0.72779 0.0
C1308 C 0.44895 0.01785 0.6681 0.0
C1309 C 0.42548 0.02408 0.74578 0.0
C1310 C 0.41214 0.03084 0.70418 0.0
C1311 C 0.41711 0.03091 0.64447 0.0
C1312 C 0.43546 0.02463 0.62657 0.0
C1313 C 0.39294 0.0377 0.72362 0.0
C1314 C 0.37683 0.02527 0.71743 0.0
C1315 C 0.39095 0.05554 0.75354 0.0
C1316 C 0.40737 0.06942 0.76041 0.0
C1317 C 0.4169 0.07713 0.71081 0.0
C1318 C 0.43148 0.09123 0.71766 0.0
C1319 C 0.43655 0.09779 0.77386 0.0
C1320 C 0.42738 0.08999 0.82341 0.0
C1321 C 0.41282 0.07589 0.81682 0.0
H1322 H 0.44758 0.10895 0.77908 0.0
H1323 H 0.30241 0.97559 0.72925 0.0
H1324 H 0.48255 0.31927 0.93922 0.0
H1325 H 0.49183 0.34733 0.87998 0.0
H1326 H 0.43139 0.35834 0.84267 0.0
H1327 H 0.42192 0.33006 0.90178 0.0
H1328 H 0.45548 0.36103 0.74365 0.0
H1329 H 0.45284 0.38717 0.94024 0.0
H1330 H 0.46013 0.38719 0.04641 0.0
H1331 H 0.52137 0.38906 0.00837 0.0
H1332 H 0.51442 0.38927 0.90185 0.0
H1333 H 0.46534 0.45878 0.64689 0.0
H1334 H 0.45663 0.42844 0.69605 0.0
H1335 H 0.51705 0.41901 0.73775 0.0
H1336 H 0.52582 0.44964 0.68941 0.0
H1337 H 0.49317 0.41516 0.83408 0.0
H1338 H 0.49596 0.38867 0.6378 0.0
H1339 H 0.4889 0.38451 0.53218 0.0
H1340 H 0.42771 0.38214 0.56907 0.0
H1341 H 0.43433 0.38578 0.67528 0.0
C1342 C 0.47121 0.32758 0.91822 0.0
C1343 C 0.45149 0.32251 0.92526 0.0
C1344 C 0.47655 0.34367 0.88465 0.0
C1345 C 0.46228 0.35499 0.85756 0.0
C1346 C 0.44259 0.34977 0.86343 0.0
C1347 C 0.43722 0.33368 0.89727 0.0
C1348 C 0.46803 0.37236 0.82345 0.0
C1349 C 0.46346 0.37303 0.76349 0.0
C1350 C 0.47887 0.38769 0.84923 0.0
C1351 C 0.48312 0.38813 0.91315 0.0
C1352 C 0.46786 0.38756 0.95454 0.0
C1353 C 0.47193 0.38753 0.01475 0.0
C1354 C 0.4912 0.38797 0.03413 0.0
C1355 C 0.50645 0.38868 0.9933 0.0
C1356 C 0.50246 0.38887 0.93299 0.0
C1357 C 0.47677 0.45019 0.66632 0.0
C1358 C 0.49622 0.45663 0.66491 0.0
C1359 C 0.47181 0.43278 0.69389 0.0
C1360 C 0.48621 0.42143 0.72026 0.0
C1361 C 0.50573 0.42757 0.71759 0.0
C1362 C 0.51072 0.44499 0.68976 0.0
C1363 C 0.48066 0.40387 0.75389 0.0
C1364 C 0.4852 0.40319 0.81403 0.0
C1365 C 0.46975 0.38853 0.72825 0.0
C1366 C 0.46563 0.38768 0.66436 0.0
C1367 C 0.48098 0.38751 0.62335 0.0
C1368 C 0.47708 0.38516 0.56343 0.0
C1369 C 0.45792 0.38321 0.54389 0.0
C1370 C 0.44255 0.38366 0.58427 0.0
C1371 C 0.44636 0.38576 0.64436 0.0
H1372 H 0.45501 0.38114 0.49753 0.0
H1373 H 0.49431 0.38781 0.08078 0.0
H1374 H 0.19602 0.43588 0.83491 0.0
H1375 H 0.1687 0.44792 0.77696 0.0
H1376 H 0.17442 0.5041 0.8602 0.0
H1377 H 0.20204 0.49236 0.91724 0.0
H1378 H 0.1382 0.48262 0.8791 0.0
H1379 H 0.17956 0.50599 0.72769 0.0
H1380 H 0.20545 0.50576 0.6524 0.0
H1381 H 0.17505 0.46101 0.55692 0.0
H1382 H 0.14911 0.46073 0.63219 0.0
H1383 H 0.06071 0.52577 0.7031 0.0
H1384 H 0.09353 0.5206 0.74026 0.0
H1385 H 0.08609 0.45869 0.71988 0.0
H1386 H 0.05304 0.46366 0.68215 0.0
H1387 H 0.12406 0.48671 0.66557 0.0
H1388 H 0.09425 0.45574 0.85343 0.0
H1389 H 0.06956 0.45647 0.93258 0.0
H1390 H 0.0781 0.51802 0.9527 0.0
H1391 H 0.10332 0.51746 0.87478 0.0
C1392 C 0.19175 0.45093 0.83973 0.0
C1393 C 0.20089 0.46311 0.88115 0.0
C1394 C 0.1763 0.45782 0.80629 0.0
C1395 C 0.16967 0.47685 0.81452 0.0
C1396 C 0.17951 0.4894 0.85315 0.0
C1397 C 0.1952 0.48264 0.88578 0.0
C1398 C 0.15048 0.48227 0.79158 0.0
C1399 C 0.13522 0.48383 0.83238 0.0
C1400 C 0.14663 0.48349 0.73068 0.0
C1401 C 0.16248 0.48316 0.68611 0.0
C1402 C 0.17851 0.49588 0.69114 0.0
C1403 C 0.19317 0.49591 0.64831 0.0
C1404 C 0.19193 0.48333 0.6 0.0
C1405 C 0.17602 0.47072 0.59444 0.0
C1406 C 0.16132 0.47063 0.63717 0.0
C1407 C 0.066 0.51102 0.70646 0.0
C1408 C 0.05435 0.49509 0.68948 0.0
C1409 C 0.08472 0.50815 0.7277 0.0
C1410 C 0.09209 0.48934 0.73209 0.0
C1411 C 0.0805 0.47332 0.71627 0.0
C1412 C 0.06166 0.47617 0.69517 0.0
C1413 C 0.11203 0.48659 0.75315 0.0
C1414 C 0.12728 0.48559 0.71212 0.0
C1415 C 0.11605 0.48594 0.8137 0.0
C1416 C 0.10042 0.48658 0.8583 0.0
C1417 C 0.09073 0.46942 0.87461 0.0
C1418 C 0.0767 0.4698 0.91925 0.0
C1419 C 0.07207 0.48732 0.94715 0.0
C1420 C 0.08161 0.50448 0.93081 0.0
C1421 C 0.09584 0.50413 0.88665 0.0
H1422 H 0.06117 0.48757 0.98167 0.0
H1423 H 0.20327 0.48341 0.5668 0.0
H1424 H 0.01241 0.81497 0.35118 0.0
H1425 H 0.01279 0.84563 0.40607 0.0
H1426 H 0.95001 0.8464 0.40552 0.0
H1427 H 0.94946 0.81578 0.35087 0.0
H1428 H 0.96615 0.87975 0.36255 0.0
H1429 H 0.97279 0.83972 0.53065 0.0
H1430 H 0.98632 0.81408 0.59347 0.0
H1431 H 0.04131 0.84407 0.59808 0.0
H1432 H 0.02823 0.86974 0.53437 0.0
H1433 H 0.96383 0.96596 0.5464 0.0
H1434 H 0.9582 0.93357 0.5039 0.0
H1435 H 0.02019 0.92509 0.48971 0.0
H1436 H 0.02591 0.95749 0.53041 0.0
H1437 H 0.00091 0.89492 0.54814 0.0
H1438 H 0.9959 0.9315 0.36792 0.0
H1439 H 0.9833 0.95572 0.29839 0.0
H1440 H 0.92573 0.93176 0.31661 0.0
H1441 H 0.93802 0.90734 0.38624 0.0
C1442 C 0.99868 0.82152 0.36349 0.0
C1443 C 0.98091 0.81305 0.3463 0.0
C1444 C 0.99892 0.83897 0.39513 0.0
C1445 C 0.98141 0.8482 0.40992 0.0
C1446 C 0.96366 0.83945 0.39453 0.0
C1447 C 0.9634 0.82196 0.36332 0.0
C1448 C 0.9817 0.86789 0.43612 0.0
C1449 C 0.97339 0.88302 0.40382 0.0
C1450 C 0.99154 0.87212 0.48923 0.0
C1451 C -0.00043 0.85657 0.52706 0.0
C1452 C 0.98784 0.84075 0.54443 0.0
C1453 C 0.99542 0.82623 0.58036 0.0
C1454 C 0.01468 0.82741 0.59961 0.0
C1455 C 0.0264 0.84315 0.58304 0.0
C1456 C 0.0189 0.8577 0.54702 0.0
C1457 C 0.97623 0.95729 0.53336 0.0
C1458 C 0.99532 0.96402 0.54295 0.0
C1459 C 0.97299 0.93881 0.50927 0.0
C1460 C 0.98881 0.92691 0.49449 0.0
C1461 C 0.00782 0.93398 0.50168 0.0
C1462 C 0.01105 0.95243 0.52522 0.0
C1463 C 0.98574 0.90675 0.47382 0.0
C1464 C 0.99348 0.89156 0.50729 0.0
C1465 C 0.97542 0.90242 0.42173 0.0
C1466 C 0.96782 0.91777 0.38278 0.0
C1467 C 0.98051 0.93156 0.35768 0.0
C1468 C 0.97345 0.94522 0.31792 0.0
C1469 C 0.95373 0.94526 0.30305 0.0
C1470 C 0.941 0.9317 0.32814 0.0
C1471 C 0.94801 0.91792 0.36764 0.0
H1472 H 0.94829 0.9558 0.27208 0.0
H1473 H 0.02051 0.81617 0.62748 0.0
H1474 H 0.7121 0.99321 0.37051 0.0
H1475 H 0.68258 0.99396 0.43135 0.0
H1476 H 0.64739 0.99397 0.2743 0.0
H1477 H 0.67671 0.99404 0.2137 0.0
H1478 H 0.63401 0.01922 0.34899 0.0
H1479 H 0.65604 0.95211 0.36377 0.0
H1480 H 0.67914 0.92624 0.38973 0.0
H1481 H 0.67934 0.94593 0.56929 0.0
H1482 H 0.65644 0.97205 0.54425 0.0
H1483 H 0.54142 0.99309 0.4452 0.0
H1484 H 0.57346 0.99213 0.39943 0.0
H1485 H 0.60036 0.99186 0.57071 0.0
H1486 H 0.56824 0.99162 0.61712 0.0
H1487 H 0.6196 0.96907 0.49933 0.0
H1488 H 0.59606 0.03419 0.48846 0.0
H1489 H 0.57242 0.05987 0.4654 0.0
H1490 H 0.57542 0.04482 0.28212 0.0
H1491 H 0.59882 0.01884 0.30407 0.0
C1492 C 0.69803 0.99354 0.34916 0.0
C1493 C 0.69666 0.99375 0.28748 0.0
C1494 C 0.6812 0.9938 0.38389 0.0
C1495 C 0.66276 0.99377 0.35739 0.0
C1496 C 0.66145 0.99407 0.29576 0.0
C1497 C 0.67822 0.99418 0.26114 0.0
C1498 C 0.64467 0.99379 0.39311 0.0
C1499 C 0.63079 0.00813 0.38146 0.0
C1500 C 0.6408 0.9798 0.43726 0.0
C1501 C 0.65471 0.96418 0.45197 0.0
C1502 C 0.66115 0.95103 0.40866 0.0
C1503 C 0.67418 0.9363 0.42325 0.0
C1504 C 0.68075 0.93448 0.48108 0.0
C1505 C 0.67428 0.94737 0.52449 0.0
C1506 C 0.66127 0.96214 0.51013 0.0
C1507 C 0.5541 0.99259 0.47331 0.0
C1508 C 0.55225 0.9928 0.53491 0.0
C1509 C 0.57244 0.99221 0.44701 0.0
C1510 C 0.5893 0.99254 0.48167 0.0
C1511 C 0.58753 0.99183 0.54312 0.0
C1512 C 0.56915 0.99182 0.56954 0.0
C1513 C 0.60872 0.99407 0.45353 0.0
C1514 C 0.62288 0.9802 0.46704 0.0
C1515 C 0.61295 0.00858 0.41138 0.0
C1516 C 0.59913 0.02447 0.39799 0.0
C1517 C 0.59161 0.03628 0.44326 0.0
C1518 C 0.57825 0.05089 0.43041 0.0
C1519 C 0.5724 0.05394 0.37239 0.0
C1520 C 0.57995 0.04243 0.32705 0.0
C1521 C 0.59328 0.02778 0.33966 0.0
H1522 H 0.56204 0.06525 0.36255 0.0
H1523 H 0.69082 0.92306 0.49228 0.0
H1524 H 0.55546 0.69857 0.29232 0.0
H1525 H 0.55427 0.66926 0.35217 0.0
H1526 H 0.4947 0.6813 0.39932 0.0
H1527 H 0.49564 0.71074 0.33869 0.0
H1528 H 0.52064 0.6668 0.49578 0.0
H1529 H 0.49814 0.65182 0.30003 0.0
H1530 H 0.50016 0.65257 0.19171 0.0
H1531 H 0.55441 0.62202 0.19714 0.0
H1532 H 0.55287 0.62139 0.30567 0.0
H1533 H 0.4877 0.5708 0.5644 0.0
H1534 H 0.49176 0.6034 0.52437 0.0
H1535 H 0.55046 0.58973 0.47163 0.0
H1536 H 0.54691 0.55733 0.51414 0.0
H1537 H 0.52564 0.6055 0.38056 0.0
H1538 H 0.5473 0.61874 0.57601 0.0
H1539 H 0.54533 0.61777 0.68425 0.0
H1540 H 0.49272 0.65103 0.68031 0.0
H1541 H 0.49421 0.65198 0.57176 0.0
C1542 C 0.54214 0.69515 0.31587 0.0
C1543 C 0.52556 0.70685 0.31031 0.0
C1544 C 0.54153 0.67843 0.35016 0.0
C1545 C 0.5244 0.67317 0.37986 0.0
C1546 C 0.50807 0.68524 0.37677 0.0
C1547 C 0.50859 0.70192 0.34182 0.0
C1548 C 0.52315 0.65413 0.40924 0.0
C1549 C 0.52148 0.65337 0.47074 0.0
C1550 C 0.52467 0.63672 0.3763 0.0
C1551 C 0.5255 0.63676 0.311 0.0
C1552 C 0.51058 0.64541 0.27816 0.0
C1553 C 0.51162 0.64579 0.21673 0.0
C1554 C 0.52743 0.6374 0.18756 0.0
C1555 C 0.54219 0.62854 0.2198 0.0
C1556 C 0.54123 0.62816 0.28128 0.0
C1557 C 0.50155 0.5747 0.54468 0.0
C1558 C 0.51682 0.56121 0.54095 0.0
C1559 C 0.50383 0.59336 0.52199 0.0
C1560 C 0.52135 0.59884 0.49486 0.0
C1561 C 0.53678 0.58564 0.49208 0.0
C1562 C 0.53464 0.56707 0.51587 0.0
C1563 C 0.52314 0.61811 0.46717 0.0
C1564 C 0.52486 0.61891 0.40578 0.0
C1565 C 0.52162 0.63549 0.5003 0.0
C1566 C 0.52077 0.63527 0.56563 0.0
C1567 C 0.53522 0.62572 0.59813 0.0
C1568 C 0.53421 0.6252 0.65955 0.0
C1569 C 0.51888 0.63429 0.68912 0.0
C1570 C 0.50457 0.64398 0.6573 0.0
C1571 C 0.50551 0.64454 0.5958 0.0
H1572 H 0.51815 0.63388 0.73667 0.0
H1573 H 0.52822 0.63773 0.13999 0.0
H1574 H 0.79327 0.52916 0.43005 0.0
H1575 H 0.82516 0.52903 0.4783 0.0
H1576 H 0.85337 0.52842 0.30823 0.0
H1577 H 0.82177 0.52776 0.26021 0.0
H1578 H 0.86739 0.50131 0.37567 0.0
H1579 H 0.85164 0.56982 0.40336 0.0
H1580 H 0.83176 0.59704 0.44029 0.0
H1581 H 0.83757 0.57608 0.61697 0.0
H1582 H 0.85729 0.54862 0.58105 0.0
H1583 H 0.96526 0.51543 0.45288 0.0
H1584 H 0.93285 0.52043 0.41222 0.0
H1585 H 0.90882 0.52267 0.58787 0.0
H1586 H 0.94124 0.51873 0.62878 0.0
H1587 H 0.89185 0.54864 0.52344 0.0
H1588 H 0.90797 0.48246 0.50336 0.0
H1589 H 0.92544 0.45277 0.47473 0.0
H1590 H 0.91622 0.4658 0.29243 0.0
H1591 H 0.89932 0.49599 0.32008 0.0
C1592 C 0.80632 0.52902 0.40318 0.0
C1593 C 0.80509 0.52815 0.34154 0.0
C1594 C 0.8245 0.52913 0.4307 0.0
C1595 C 0.84164 0.52884 0.39681 0.0
C1596 C 0.84034 0.52853 0.33523 0.0
C1597 C 0.82226 0.52806 0.30786 0.0
C1598 C 0.86101 0.52736 0.42462 0.0
C1599 C 0.87292 0.51188 0.40713 0.0
C1600 C 0.86772 0.54057 0.46806 0.0
C1601 C 0.85579 0.55706 0.4894 0.0
C1602 C 0.84855 0.57093 0.45001 0.0
C1603 C 0.83734 0.58642 0.47079 0.0
C1604 C 0.83336 0.58826 0.53091 0.0
C1605 C 0.84063 0.57463 0.57041 0.0
C1606 C 0.85184 0.55912 0.54987 0.0
C1607 C 0.95316 0.51739 0.48282 0.0
C1608 C 0.95587 0.51682 0.54398 0.0
C1609 C 0.93461 0.52004 0.45955 0.0
C1610 C 0.9184 0.5217 0.49705 0.0
C1611 C 0.92112 0.52147 0.55813 0.0
C1612 C 0.93968 0.51907 0.58139 0.0
C1613 C 0.8985 0.52297 0.47271 0.0
C1614 C 0.88644 0.53822 0.49137 0.0
C1615 C 0.89145 0.50931 0.43106 0.0
C1616 C 0.90251 0.49164 0.41399 0.0
C1617 C 0.90992 0.47918 0.45722 0.0
C1618 C 0.91975 0.46225 0.44113 0.0
C1619 C 0.92201 0.45743 0.38179 0.0
C1620 C 0.91458 0.46962 0.33841 0.0
C1621 C 0.90493 0.48668 0.3543 0.0
H1622 H 0.92941 0.44419 0.36954 0.0
H1623 H 0.82469 0.60026 0.54689 0.0
loop_
_geom_bond_atom_site_label_1
_geom_bond_atom_site_label_2
_geom_bond_distance
_geom_bond_site_symmetry_2
_ccdc_geom_bond_type
O0 Cd1 2.300 . S
O0 C7 1.275 . S
Cd1 O0 2.300 . S
Cd1 O9 2.381 . S
Cd1 O10 2.378 . S
O2 Cd3 2.385 . S
O2 C7 1.255 . S
Cd3 O2 2.385 . S
Cd3 O4 2.317 . S
O4 Cd3 2.317 . S
O4 C5 1.232 . S
C5 O4 1.232 . S
C5 O6 1.218 . S
O6 C5 1.218 . S
C7 O0 1.275 . S
C7 O2 1.255 . S
C8 O9 1.258 . S
C8 O10 1.256 . S
O9 Cd1 2.381 . S
O9 C8 1.258 . S
O10 Cd1 2.378 . S
O10 C8 1.256 . S
O11 Cd12 2.300 . S
O11 C18 1.275 . S
Cd12 O11 2.300 . S
Cd12 O20 2.381 . S
Cd12 O21 2.378 . S
O13 Cd14 2.385 1_655 S
O13 C18 1.255 . S
Cd14 O13 2.385 1_455 S
Cd14 O15 2.317 1_455 S
O15 Cd14 2.317 1_655 S
O15 C16 1.232 . S
C16 O15 1.232 . S
C16 O17 1.218 . S
O17 C16 1.218 . S
C18 O11 1.275 . S
C18 O13 1.255 . S
C19 O20 1.258 . S
C19 O21 1.256 . S
O20 Cd12 2.381 . S
O20 C19 1.258 . S
O21 Cd12 2.378 . S
O21 C19 1.256 . S
O22 Cd23 2.300 . S
O22 C29 1.275 . S
Cd23 O22 2.300 . S
Cd23 O31 2.381 . S
Cd23 O32 2.378 . S
O24 Cd25 2.385 1_565 S
O24 C29 1.255 . S
Cd25 O24 2.385 1_545 S
Cd25 O26 2.317 1_545 S
O26 Cd25 2.317 1_565 S
O26 C27 1.232 . S
C27 O26 1.232 . S
C27 O28 1.218 . S
O28 C27 1.218 . S
C29 O22 1.275 . S
C29 O24 1.255 . S
C30 O31 1.258 . S
C30 O32 1.256 . S
O31 Cd23 2.381 . S
O31 C30 1.258 . S
O32 Cd23 2.378 . S
O32 C30 1.256 . S
O33 Cd34 2.300 . S
O33 C40 1.275 . S
Cd34 O33 2.300 . S
Cd34 O42 2.381 . S
Cd34 O43 2.378 . S
O35 Cd36 2.385 . S
O35 C40 1.255 . S
Cd36 O35 2.385 . S
Cd36 O37 2.317 . S
O37 Cd36 2.317 . S
O37 C38 1.232 . S
C38 O37 1.232 . S
C38 O39 1.218 . S
O39 C38 1.218 . S
C40 O33 1.275 . S
C40 O35 1.255 . S
C41 O42 1.258 . S
C41 O43 1.256 . S
O42 Cd34 2.381 . S
O42 C41 1.258 . S
O43 Cd34 2.378 . S
O43 C41 1.256 . S
O44 Cd45 2.300 . S
O44 C51 1.275 . S
Cd45 O44 2.300 . S
Cd45 O53 2.381 . S
Cd45 O54 2.378 . S
O46 Cd47 2.385 1_554 S
O46 C51 1.255 . S
Cd47 O46 2.385 1_556 S
Cd47 O48 2.317 . S
O48 Cd47 2.317 . S
O48 C49 1.232 . S
C49 O48 1.232 . S
C49 O50 1.218 . S
O50 C49 1.218 . S
C51 O44 1.275 . S
C51 O46 1.255 . S
C52 O53 1.258 . S
C52 O54 1.256 . S
O53 Cd45 2.381 . S
O53 C52 1.258 . S
O54 Cd45 2.378 . S
O54 C52 1.256 . S
O55 Cd56 2.300 . S
O55 C62 1.275 . S
Cd56 O55 2.300 . S
Cd56 O64 2.381 . S
Cd56 O65 2.378 . S
O57 Cd58 2.385 1_554 S
O57 C62 1.255 . S
Cd58 O57 2.385 1_556 S
Cd58 O59 2.317 . S
O59 Cd58 2.317 . S
O59 C60 1.232 . S
C60 O59 1.232 . S
C60 O61 1.218 . S
O61 C60 1.218 . S
C62 O55 1.275 . S
C62 O57 1.255 . S
C63 O64 1.258 . S
C63 O65 1.256 . S
O64 Cd56 2.381 . S
O64 C63 1.258 . S
O65 Cd56 2.378 . S
O65 C63 1.256 . S
O66 Cd67 2.300 . S
O66 C73 1.275 . S
Cd67 O66 2.300 . S
Cd67 O75 2.381 . S
Cd67 O76 2.378 . S
O68 Cd69 2.385 1_554 S
O68 C73 1.255 . S
Cd69 O68 2.385 1_556 S
Cd69 O70 2.317 . S
O70 Cd69 2.317 . S
O70 C71 1.232 . S
C71 O70 1.232 . S
C71 O72 1.218 . S
O72 C71 1.218 . S
C73 O66 1.275 . S
C73 O68 1.255 . S
C74 O75 1.258 . S
C74 O76 1.256 . S
O75 Cd67 2.381 . S
O75 C74 1.258 . S
O76 Cd67 2.378 . S
O76 C74 1.256 . S
O77 Cd78 2.300 . S
O77 C84 1.275 . S
Cd78 O77 2.300 . S
Cd78 O86 2.381 . S
Cd78 O87 2.378 . S
O79 Cd80 2.385 1_554 S
O79 C84 1.255 . S
Cd80 O79 2.385 1_556 S
Cd80 O81 2.317 . S
O81 Cd80 2.317 . S
O81 C82 1.232 . S
C82 O81 1.232 . S
C82 O83 1.218 . S
O83 C82 1.218 . S
C84 O77 1.275 . S
C84 O79 1.255 . S
C85 O86 1.258 . S
C85 O87 1.256 . S
O86 Cd78 2.381 . S
O86 C85 1.258 . S
O87 Cd78 2.378 . S
O87 C85 1.256 . S
Tb88 N117 2.617 . S
Tb88 N123 2.572 . S
Tb88 O132 2.465 1_655 S
Tb88 O133 2.387 1_545 S
Tb88 O135 2.428 . S
Tb88 O136 2.308 1_655 S
Tb88 O140 2.349 1_655 S
Tb88 O143 2.393 . S
Tb88 C152 2.802 . S
C89 N90 1.379 . S
C89 C92 1.416 . S
C89 C96 1.424 . S
N90 C89 1.379 . S
N90 C93 1.335 1_545 S
N90 Tb99 2.617 1_545 S
C91 C93 1.391 1_545 S
C91 C94 1.339 . S
C91 H111 0.930 . S
C92 C89 1.416 . S
C92 C94 1.416 . S
C92 C98 1.448 . S
C93 N90 1.335 1_565 S
C93 C91 1.391 1_565 S
C93 H104 0.928 . S
C94 C91 1.339 . S
C94 C92 1.416 . S
C94 H115 0.930 . S
C95 C96 1.413 . S
C95 C97 1.427 . S
C95 C101 1.416 . S
C96 C89 1.424 . S
C96 C95 1.413 . S
C96 N100 1.361 . S
C97 C95 1.427 . S
C97 C98 1.328 . S
C97 H112 0.929 . S
C98 C92 1.448 . S
C98 C97 1.328 . S
C98 H113 0.930 . S
Tb99 N90 2.617 1_565 S
Tb99 N100 2.572 1_565 S
Tb99 O134 2.349 . S
Tb99 O137 2.393 . S
Tb99 O138 2.465 . S
Tb99 O139 2.387 1_565 S
Tb99 O141 2.428 . S
Tb99 O142 2.308 1_465 S
Tb99 C163 2.802 . S
N100 C96 1.361 . S
N100 Tb99 2.572 1_545 S
N100 C102 1.340 . S
C101 C95 1.416 . S
C101 C103 1.332 . S
C101 H109 0.931 . S
C102 N100 1.340 . S
C102 C103 1.407 . S
C102 H108 0.930 1_455 S
C103 C101 1.332 . S
C103 C102 1.407 . S
C103 H105 0.929 1_455 S
H104 C93 0.928 . S
H105 C103 0.929 1_655 S
H106 C121 0.930 . S
H107 C128 0.931 . S
H108 C102 0.930 1_655 S
H109 C101 0.931 . S
H110 C124 0.930 . S
H111 C91 0.930 . S
H112 C97 0.929 . S
H113 C98 0.930 . S
H114 C119 0.930 . S
H115 C94 0.930 . S
H116 C127 0.931 . S
N117 Tb88 2.617 . S
N117 C118 1.379 . S
N117 C121 1.334 . S
C118 N117 1.379 . S
C118 C120 1.426 . S
C118 C126 1.424 . S
C119 H114 0.930 . S
C119 C121 1.390 . S
C119 C122 1.339 . S
C120 C118 1.426 . S
C120 C122 1.419 . S
C120 C153 1.436 1_545 S
C121 H106 0.930 . S
C121 N117 1.334 . S
C121 C119 1.390 . S
C122 C119 1.339 . S
C122 C120 1.419 . S
C122 H129 0.930 1_545 S
N123 Tb88 2.572 . S
N123 C124 1.340 1_655 S
N123 C126 1.361 . S
C124 H110 0.930 . S
C124 N123 1.340 1_455 S
C124 C128 1.407 . S
C125 C126 1.413 1_565 S
C125 C127 1.416 . S
C125 C154 1.427 . S
C126 C118 1.424 . S
C126 N123 1.361 . S
C126 C125 1.413 1_545 S
C127 H116 0.931 . S
C127 C125 1.416 . S
C127 C128 1.332 1_665 S
C128 H107 0.931 . S
C128 C124 1.407 . S
C128 C127 1.332 1_445 S
H129 C122 0.930 1_565 S
H130 C153 0.930 . S
H131 C154 0.929 . S
O132 Tb88 2.465 1_455 S
O132 C152 1.264 1_455 S
O133 Tb88 2.387 1_565 S
O133 C144 1.264 . S
O134 Tb99 2.349 . S
O134 C144 1.243 1_455 S
O135 Tb88 2.428 . S
O135 C152 1.256 . S
O136 Tb88 2.308 1_455 S
O136 C151 1.266 . S
O137 Tb99 2.393 . S
O137 C151 1.248 1_565 S
O138 Tb99 2.465 . S
O138 C163 1.264 . S
O139 Tb99 2.387 1_545 S
O139 C155 1.264 . S
O140 Tb88 2.349 1_455 S
O140 C155 1.243 . S
O141 Tb99 2.428 . S
O141 C163 1.256 . S
O142 Tb99 2.308 1_645 S
O142 C162 1.266 . S
O143 Tb88 2.393 . S
O143 C162 1.248 . S
C144 O133 1.264 . S
C144 O134 1.243 1_655 S
C145 C148 1.399 . S
C145 C150 1.360 1_655 S
C145 C152 1.496 . S
C146 C147 1.399 . S
C146 C150 1.387 1_655 S
C147 C146 1.399 . S
C147 C149 1.380 . S
C147 H164 0.929 . S
C148 C145 1.399 . S
C148 C149 1.392 . S
C148 H165 0.929 . S
C149 C147 1.380 . S
C149 C148 1.392 . S
C149 H166 0.929 . S
C150 C145 1.360 1_455 S
C150 C146 1.387 1_455 S
C150 H167 0.957 . S
C151 O136 1.266 . S
C151 O137 1.248 1_545 S
C152 Tb88 2.802 . S
C152 O132 1.264 1_655 S
C152 O135 1.256 . S
C152 C145 1.496 . S
C153 C120 1.436 1_565 S
C153 H130 0.930 . S
C153 C154 1.328 . S
C154 C125 1.427 . S
C154 H131 0.929 . S
C154 C153 1.328 . S
C155 O139 1.264 . S
C155 O140 1.243 . S
C156 C159 1.399 . S
C156 C160 1.383 . S
C156 C163 1.496 . S
C157 C158 1.399 . S
C157 C160 1.389 . S
C158 C157 1.399 . S
C158 C161 1.380 . S
C158 H168 0.929 . S
C159 C156 1.399 . S
C159 C161 1.392 . S
C159 H169 0.929 . S
C160 C156 1.383 . S
C160 C157 1.389 . S
C160 H170 0.931 1_455 S
C161 C158 1.380 . S
C161 C159 1.392 . S
C161 H171 0.929 . S
C162 O142 1.266 . S
C162 O143 1.248 . S
C163 Tb99 2.802 . S
C163 O138 1.264 . S
C163 O141 1.256 . S
C163 C156 1.496 . S
H164 C147 0.929 . S
H165 C148 0.929 . S
H166 C149 0.929 . S
H167 C150 0.957 . S
H168 C158 0.929 . S
H169 C159 0.929 . S
H170 C160 0.931 1_655 S
H171 C161 0.929 . S
Tb172 N201 2.617 . S
Tb172 N207 2.572 . S
Tb172 O216 2.465 . S
Tb172 O217 2.387 . S
Tb172 O219 2.428 . S
Tb172 O220 2.308 . S
Tb172 O224 2.349 1_545 S
Tb172 O227 2.393 . S
Tb172 C236 2.802 . S
C173 N174 1.379 . S
C173 C176 1.416 . S
C173 C180 1.424 . S
N174 C173 1.379 . S
N174 C177 1.334 . S
N174 Tb183 2.617 . S
C175 C177 1.390 . S
C175 C178 1.339 . S
C175 H195 0.930 . S
C176 C173 1.416 . S
C176 C178 1.416 . S
C176 C182 1.448 . S
C177 N174 1.334 . S
C177 C175 1.390 . S
C177 H188 0.930 . S
C178 C175 1.339 . S
C178 C176 1.416 . S
C178 H199 0.930 . S
C179 C180 1.413 . S
C179 C181 1.427 . S
C179 C185 1.416 . S
C180 C173 1.424 . S
C180 C179 1.413 . S
C180 N184 1.361 . S
C181 C179 1.427 . S
C181 C182 1.328 . S
C181 H196 0.929 . S
C182 C176 1.448 . S
C182 C181 1.328 . S
C182 H197 0.930 . S
Tb183 N174 2.617 . S
Tb183 N184 2.572 . S
Tb183 O218 2.349 1_565 S
Tb183 O221 2.393 . S
Tb183 O222 2.462 1_565 S
Tb183 O223 2.387 . S
Tb183 O225 2.428 . S
Tb183 O226 2.308 1_565 S
Tb183 C247 2.802 . S
N184 C180 1.361 . S
N184 Tb183 2.572 . S
N184 C186 1.340 . S
C185 C179 1.416 . S
C185 C187 1.332 . S
C185 H193 0.931 . S
C186 N184 1.340 . S
C186 C187 1.407 . S
C186 H192 0.930 . S
C187 C185 1.332 . S
C187 C186 1.407 . S
C187 H189 0.929 . S
H188 C177 0.930 . S
H189 C187 0.929 . S
H190 C205 0.930 . S
H191 C212 0.929 . S
H192 C186 0.930 . S
H193 C185 0.931 . S
H194 C208 0.930 . S
H195 C175 0.930 . S
H196 C181 0.929 . S
H197 C182 0.930 . S
H198 C203 0.930 . S
H199 C178 0.930 . S
H200 C211 0.931 . S
N201 Tb172 2.617 . S
N201 C202 1.379 . S
N201 C205 1.334 . S
C202 N201 1.379 . S
C202 C204 1.416 . S
C202 C210 1.424 . S
C203 H198 0.930 . S
C203 C205 1.390 . S
C203 C206 1.339 . S
C204 C202 1.416 . S
C204 C206 1.416 . S
C204 C237 1.448 . S
C205 H190 0.930 . S
C205 N201 1.334 . S
C205 C203 1.390 . S
C206 C203 1.339 . S
C206 C204 1.416 . S
C206 H213 0.930 . S
N207 Tb172 2.572 . S
N207 C208 1.340 . S
N207 C210 1.361 . S
C208 H194 0.930 . S
C208 N207 1.340 . S
C208 C212 1.407 . S
C209 C210 1.413 . S
C209 C211 1.416 . S
C209 C238 1.427 . S
C210 C202 1.424 . S
C210 N207 1.361 . S
C210 C209 1.413 . S
C211 H200 0.931 . S
C211 C209 1.416 . S
C211 C212 1.332 . S
C212 H191 0.929 . S
C212 C208 1.407 . S
C212 C211 1.332 . S
H213 C206 0.930 . S
H214 C237 0.930 . S
H215 C238 0.929 . S
O216 Tb172 2.465 . S
O216 C236 1.264 . S
O217 Tb172 2.387 . S
O217 C228 1.264 . S
O218 Tb183 2.349 1_545 S
O218 C228 1.243 . S
O219 Tb172 2.428 . S
O219 C236 1.256 . S
O220 Tb172 2.308 . S
O220 C235 1.266 . S
O221 Tb183 2.393 . S
O221 C235 1.248 1_565 S
O222 Tb183 2.462 1_545 S
O222 C247 1.262 1_545 S
O223 Tb183 2.387 . S
O223 C239 1.264 . S
O224 Tb172 2.349 1_565 S
O224 C239 1.243 . S
O225 Tb183 2.428 . S
O225 C247 1.256 . S
O226 Tb183 2.308 1_545 S
O226 C246 1.266 . S
O227 Tb172 2.393 . S
O227 C246 1.248 . S
C228 O217 1.264 . S
C228 O218 1.243 . S
C229 C232 1.399 . S
C229 C234 1.383 . S
C229 C236 1.496 . S
C230 C231 1.399 . S
C230 C234 1.389 . S
C231 C230 1.399 . S
C231 C233 1.380 . S
C231 H248 0.929 . S
C232 C229 1.399 . S
C232 C233 1.392 . S
C232 H249 0.929 . S
C233 C231 1.380 . S
C233 C232 1.392 . S
C233 H250 0.929 . S
C234 C229 1.383 . S
C234 C230 1.389 . S
C234 H251 0.931 . S
C235 O220 1.266 . S
C235 O221 1.248 1_545 S
C236 Tb172 2.802 . S
C236 O216 1.264 . S
C236 O219 1.256 . S
C236 C229 1.496 . S
C237 C204 1.448 . S
C237 H214 0.930 . S
C237 C238 1.328 . S
C238 C209 1.427 . S
C238 H215 0.929 . S
C238 C237 1.328 . S
C239 O223 1.264 . S
C239 O224 1.243 . S
C240 C243 1.395 1_545 S
C240 C244 1.389 . S
C240 C247 1.494 1_545 S
C241 C242 1.399 . S
C241 C244 1.389 . S
C242 C241 1.399 . S
C242 C245 1.380 1_545 S
C242 H252 0.929 . S
C243 C240 1.395 1_565 S
C243 C245 1.392 . S
C243 H253 0.929 . S
C244 C240 1.389 . S
C244 C241 1.389 . S
C244 H254 0.931 . S
C245 C242 1.380 1_565 S
C245 C243 1.392 . S
C245 H255 0.929 . S
C246 O226 1.266 . S
C246 O227 1.248 . S
C247 Tb183 2.802 . S
C247 O222 1.262 1_565 S
C247 O225 1.256 . S
C247 C240 1.494 1_565 S
H248 C231 0.929 . S
H249 C232 0.929 . S
H250 C233 0.929 . S
H251 C234 0.931 . S
H252 C242 0.929 . S
H253 C243 0.929 . S
H254 C244 0.931 . S
H255 C245 0.929 . S
Tb256 N285 2.617 . S
Tb256 N291 2.572 . S
Tb256 O300 2.465 . S
Tb256 O301 2.387 . S
Tb256 O303 2.428 . S
Tb256 O304 2.308 . S
Tb256 O308 2.349 . S
Tb256 O311 2.393 . S
Tb256 C320 2.802 . S
C257 N258 1.379 . S
C257 C260 1.416 . S
C257 C264 1.424 . S
N258 C257 1.379 . S
N258 C261 1.334 . S
N258 Tb267 2.617 . S
C259 C261 1.390 . S
C259 C262 1.339 . S
C259 H279 0.930 . S
C260 C257 1.416 . S
C260 C262 1.416 . S
C260 C266 1.448 . S
C261 N258 1.334 . S
C261 C259 1.390 . S
C261 H272 0.930 . S
C262 C259 1.339 . S
C262 C260 1.416 . S
C262 H283 0.930 . S
C263 C264 1.413 . S
C263 C265 1.427 . S
C263 C269 1.416 . S
C264 C257 1.424 . S
C264 C263 1.413 . S
C264 N268 1.361 . S
C265 C263 1.427 . S
C265 C266 1.328 . S
C265 H280 0.929 . S
C266 C260 1.448 . S
C266 C265 1.328 . S
C266 H281 0.930 . S
Tb267 N258 2.617 . S
Tb267 N268 2.572 . S
Tb267 O302 2.349 . S
Tb267 O305 2.393 . S
Tb267 O306 2.465 . S
Tb267 O307 2.387 . S
Tb267 O309 2.428 . S
Tb267 O310 2.308 . S
Tb267 C331 2.802 . S
N268 C264 1.361 . S
N268 Tb267 2.572 . S
N268 C270 1.340 . S
C269 C263 1.416 . S
C269 C271 1.332 . S
C269 H277 0.931 . S
C270 N268 1.340 . S
C270 C271 1.407 . S
C270 H276 0.930 . S
C271 C269 1.332 . S
C271 C270 1.407 . S
C271 H273 0.929 . S
H272 C261 0.930 . S
H273 C271 0.929 . S
H274 C289 0.930 . S
H275 C296 0.929 . S
H276 C270 0.930 . S
H277 C269 0.931 . S
H278 C292 0.930 . S
H279 C259 0.930 . S
H280 C265 0.929 . S
H281 C266 0.930 . S
H282 C287 0.930 . S
H283 C262 0.930 . S
H284 C295 0.931 . S
N285 Tb256 2.617 . S
N285 C286 1.379 . S
N285 C289 1.334 . S
C286 N285 1.379 . S
C286 C288 1.416 . S
C286 C294 1.424 . S
C287 H282 0.930 . S
C287 C289 1.390 . S
C287 C290 1.339 . S
C288 C286 1.416 . S
C288 C290 1.416 . S
C288 C321 1.448 . S
C289 H274 0.930 . S
C289 N285 1.334 . S
C289 C287 1.390 . S
C290 C287 1.339 . S
C290 C288 1.416 . S
C290 H297 0.930 . S
N291 Tb256 2.572 . S
N291 C292 1.340 . S
N291 C294 1.361 . S
C292 H278 0.930 . S
C292 N291 1.340 . S
C292 C296 1.407 . S
C293 C294 1.413 . S
C293 C295 1.416 . S
C293 C322 1.427 . S
C294 C286 1.424 . S
C294 N291 1.361 . S
C294 C293 1.413 . S
C295 H284 0.931 . S
C295 C293 1.416 . S
C295 C296 1.332 . S
C296 H275 0.929 . S
C296 C292 1.407 . S
C296 C295 1.332 . S
H297 C290 0.930 . S
H298 C321 0.930 . S
H299 C322 0.929 . S
O300 Tb256 2.465 . S
O300 C320 1.264 . S
O301 Tb256 2.387 . S
O301 C312 1.264 . S
O302 Tb267 2.349 . S
O302 C312 1.243 . S
O303 Tb256 2.428 . S
O303 C320 1.256 . S
O304 Tb256 2.308 . S
O304 C319 1.266 . S
O305 Tb267 2.393 . S
O305 C319 1.248 . S
O306 Tb267 2.465 . S
O306 C331 1.264 . S
O307 Tb267 2.387 . S
O307 C323 1.264 . S
O308 Tb256 2.349 . S
O308 C323 1.243 . S
O309 Tb267 2.428 . S
O309 C331 1.256 . S
O310 Tb267 2.308 . S
O310 C330 1.266 . S
O311 Tb256 2.393 . S
O311 C330 1.248 . S
C312 O301 1.264 . S
C312 O302 1.243 . S
C313 C316 1.399 . S
C313 C318 1.383 . S
C313 C320 1.496 . S
C314 C315 1.399 . S
C314 C318 1.389 . S
C315 C314 1.399 . S
C315 C317 1.380 . S
C315 H332 0.929 . S
C316 C313 1.399 . S
C316 C317 1.392 . S
C316 H333 0.929 . S
C317 C315 1.380 . S
C317 C316 1.392 . S
C317 H334 0.929 . S
C318 C313 1.383 . S
C318 C314 1.389 . S
C318 H335 0.931 . S
C319 O304 1.266 . S
C319 O305 1.248 . S
C320 Tb256 2.802 . S
C320 O300 1.264 . S
C320 O303 1.256 . S
C320 C313 1.496 . S
C321 C288 1.448 . S
C321 H298 0.930 . S
C321 C322 1.328 . S
C322 C293 1.427 . S
C322 H299 0.929 . S
C322 C321 1.328 . S
C323 O307 1.264 . S
C323 O308 1.243 . S
C324 C327 1.399 . S
C324 C328 1.383 . S
C324 C331 1.496 . S
C325 C326 1.399 . S
C325 C328 1.389 . S
C326 C325 1.399 . S
C326 C329 1.380 . S
C326 H336 0.929 . S
C327 C324 1.399 . S
C327 C329 1.392 . S
C327 H337 0.929 . S
C328 C324 1.383 . S
C328 C325 1.389 . S
C328 H338 0.931 . S
C329 C326 1.380 . S
C329 C327 1.392 . S
C329 H339 0.929 . S
C330 O310 1.266 . S
C330 O311 1.248 . S
C331 Tb267 2.802 . S
C331 O306 1.264 . S
C331 O309 1.256 . S
C331 C324 1.496 . S
H332 C315 0.929 . S
H333 C316 0.929 . S
H334 C317 0.929 . S
H335 C318 0.931 . S
H336 C326 0.929 . S
H337 C327 0.929 . S
H338 C328 0.931 . S
H339 C329 0.929 . S
Tb340 N369 2.617 . S
Tb340 N375 2.572 . S
Tb340 O384 2.465 . S
Tb340 O385 2.387 1_455 S
Tb340 O387 2.428 . S
Tb340 O388 2.308 . S
Tb340 O392 2.349 . S
Tb340 O395 2.393 . S
Tb340 C404 2.802 . S
C341 N342 1.379 1_455 S
C341 C344 1.416 . S
C341 C348 1.424 . S
N342 C341 1.379 1_655 S
N342 C345 1.334 . S
N342 Tb351 2.617 . S
C343 C345 1.390 1_455 S
C343 C346 1.339 . S
C343 H363 0.931 1_455 S
C344 C341 1.416 . S
C344 C346 1.416 . S
C344 C350 1.448 . S
C345 N342 1.334 . S
C345 C343 1.390 1_655 S
C345 H356 0.930 . S
C346 C343 1.339 . S
C346 C344 1.416 . S
C346 H367 0.930 . S
C347 C348 1.413 . S
C347 C349 1.427 . S
C347 C353 1.416 . S
C348 C341 1.424 . S
C348 C347 1.413 . S
C348 N352 1.381 . S
C349 C347 1.427 . S
C349 C350 1.328 . S
C349 H364 0.929 . S
C350 C344 1.448 . S
C350 C349 1.328 . S
C350 H365 0.930 . S
Tb351 N342 2.617 . S
Tb351 N352 2.556 1_655 S
Tb351 O386 2.349 . S
Tb351 O389 2.393 . S
Tb351 O390 2.465 . S
Tb351 O391 2.387 1_655 S
Tb351 O393 2.428 . S
Tb351 O394 2.309 . S
Tb351 C415 2.802 . S
N352 C348 1.381 . S
N352 Tb351 2.556 1_455 S
N352 C354 1.347 . S
C353 C347 1.416 . S
C353 C355 1.332 . S
C353 H361 0.931 . S
C354 N352 1.347 . S
C354 C355 1.407 . S
C354 H360 0.930 1_455 S
C355 C353 1.332 . S
C355 C354 1.407 . S
C355 H357 0.929 . S
H356 C345 0.930 . S
H357 C355 0.929 . S
H358 C373 0.930 . S
H359 C380 0.929 . S
H360 C354 0.930 1_655 S
H361 C353 0.931 . S
H362 C376 0.930 . S
H363 C343 0.931 1_655 S
H364 C349 0.929 . S
H365 C350 0.930 . S
H366 C371 0.930 . S
H367 C346 0.930 . S
H368 C379 0.931 . S
N369 Tb340 2.617 . S
N369 C370 1.379 . S
N369 C373 1.334 . S
C370 N369 1.379 . S
C370 C372 1.416 1_455 S
C370 C378 1.424 . S
C371 H366 0.930 . S
C371 C373 1.390 . S
C371 C374 1.335 1_455 S
C372 C370 1.416 1_655 S
C372 C374 1.417 . S
C372 C405 1.448 . S
C373 H358 0.930 . S
C373 N369 1.334 . S
C373 C371 1.390 . S
C374 C371 1.335 1_655 S
C374 C372 1.417 . S
C374 H381 0.933 . S
N375 Tb340 2.572 . S
N375 C376 1.340 . S
N375 C378 1.361 . S
C376 H362 0.930 . S
C376 N375 1.340 . S
C376 C380 1.407 1_455 S
C377 C378 1.413 1_655 S
C377 C379 1.416 . S
C377 C406 1.427 . S
C378 C370 1.424 . S
C378 N375 1.361 . S
C378 C377 1.413 1_455 S
C379 H368 0.931 . S
C379 C377 1.416 . S
C379 C380 1.332 . S
C380 H359 0.929 . S
C380 C376 1.407 1_655 S
C380 C379 1.332 . S
H381 C374 0.933 . S
H382 C405 0.930 . S
H383 C406 0.929 . S
O384 Tb340 2.465 . S
O384 C404 1.264 . S
O385 Tb340 2.387 1_655 S
O385 C396 1.264 . S
O386 Tb351 2.349 . S
O386 C396 1.243 . S
O387 Tb340 2.428 . S
O387 C404 1.256 . S
O388 Tb340 2.308 . S
O388 C403 1.266 . S
O389 Tb351 2.393 . S
O389 C403 1.248 1_655 S
O390 Tb351 2.465 . S
O390 C415 1.264 . S
O391 Tb351 2.387 1_455 S
O391 C407 1.264 . S
O392 Tb340 2.349 . S
O392 C407 1.243 . S
O393 Tb351 2.428 . S
O393 C415 1.256 . S
O394 Tb351 2.309 . S
O394 C414 1.266 1_655 S
O395 Tb340 2.393 . S
O395 C414 1.248 . S
C396 O385 1.264 . S
C396 O386 1.243 . S
C397 C400 1.399 . S
C397 C402 1.383 . S
C397 C404 1.496 . S
C398 C399 1.399 . S
C398 C402 1.389 . S
C399 C398 1.399 . S
C399 C401 1.380 . S
C399 H416 0.929 . S
C400 C397 1.399 . S
C400 C401 1.392 . S
C400 H417 0.929 . S
C401 C399 1.380 . S
C401 C400 1.392 . S
C401 H418 0.929 . S
C402 C397 1.383 . S
C402 C398 1.389 . S
C402 H419 0.931 . S
C403 O388 1.266 . S
C403 O389 1.248 1_455 S
C404 Tb340 2.802 . S
C404 O384 1.264 . S
C404 O387 1.256 . S
C404 C397 1.496 . S
C405 C372 1.448 . S
C405 H382 0.930 . S
C405 C406 1.328 . S
C406 C377 1.427 . S
C406 H383 0.929 . S
C406 C405 1.328 . S
C407 O391 1.264 . S
C407 O392 1.243 . S
C408 C411 1.399 . S
C408 C412 1.383 . S
C408 C415 1.496 . S
C409 C410 1.399 . S
C409 C412 1.389 . S
C410 C409 1.399 . S
C410 C413 1.380 . S
C410 H420 0.929 . S
C411 C408 1.399 . S
C411 C413 1.392 . S
C411 H421 0.929 . S
C412 C408 1.383 . S
C412 C409 1.389 . S
C412 H422 0.931 . S
C413 C410 1.380 . S
C413 C411 1.392 . S
C413 H423 0.929 . S
C414 O394 1.266 1_455 S
C414 O395 1.248 . S
C415 Tb351 2.802 . S
C415 O390 1.264 . S
C415 O393 1.256 . S
C415 C408 1.496 . S
H416 C399 0.929 . S
H417 C400 0.929 . S
H418 C401 0.929 . S
H419 C402 0.931 . S
H420 C410 0.929 . S
H421 C411 0.929 . S
H422 C412 0.931 . S
H423 C413 0.929 . S
H424 C442 0.951 . S
H425 C444 0.951 . S
H426 C446 0.950 . S
H427 C447 0.950 . S
H428 C449 0.950 . S
H429 C452 0.950 . S
H430 C453 0.950 . S
H431 C455 0.950 . S
H432 C456 0.950 . S
H433 C457 0.951 . S
H434 C459 0.951 . S
H435 C461 0.950 1_565 S
H436 C462 0.950 1_565 S
H437 C464 0.950 . S
H438 C467 0.950 . S
H439 C468 0.950 1_565 S
H440 C470 0.950 . S
H441 C471 0.950 . S
C442 H424 0.951 . S
C442 C443 1.366 . S
C442 C444 1.388 . S
C443 C442 1.366 . S
C443 C447 1.385 . S
C444 H425 0.951 . S
C444 C442 1.388 . S
C444 C445 1.366 . S
C445 C444 1.366 . S
C445 C446 1.414 . S
C445 C448 1.499 . S
C446 H426 0.950 . S
C446 C445 1.414 . S
C446 C447 1.374 . S
C447 H427 0.950 . S
C447 C443 1.385 . S
C447 C446 1.374 . S
C448 C445 1.499 . S
C448 C449 1.373 . S
C448 C450 1.389 . S
C449 H428 0.950 . S
C449 C448 1.373 . S
C449 C465 1.377 . S
C450 C448 1.389 . S
C450 C451 1.524 . S
C450 C464 1.377 . S
C451 C450 1.524 . S
C451 C452 1.397 . S
C451 C456 1.363 . S
C452 H429 0.950 . S
C452 C451 1.397 . S
C452 C453 1.334 . S
C453 H430 0.950 . S
C453 C452 1.334 . S
C453 C454 1.287 . S
C454 C453 1.287 . S
C454 C455 1.524 . S
C454 H473 0.913 . S
C455 H431 0.950 . S
C455 C454 1.524 . S
C455 C456 1.415 . S
C456 H432 0.950 . S
C456 C451 1.363 . S
C456 C455 1.415 . S
C457 H433 0.951 . S
C457 C458 1.366 . S
C457 C459 1.388 . S
C458 C457 1.366 . S
C458 C462 1.385 . S
C459 H434 0.951 . S
C459 C457 1.388 . S
C459 C460 1.366 . S
C460 C459 1.366 . S
C460 C461 1.414 . S
C460 C463 1.499 . S
C461 H435 0.950 1_545 S
C461 C460 1.414 . S
C461 C462 1.374 . S
C462 H436 0.950 1_545 S
C462 C458 1.385 . S
C462 C461 1.374 . S
C463 C460 1.499 . S
C463 C464 1.373 . S
C463 C465 1.389 . S
C464 H437 0.950 . S
C464 C450 1.377 . S
C464 C463 1.373 . S
C465 C449 1.377 . S
C465 C463 1.389 . S
C465 C466 1.524 . S
C466 C465 1.524 . S
C466 C467 1.397 . S
C466 C471 1.363 . S
C467 H438 0.950 . S
C467 C466 1.397 . S
C467 C468 1.334 . S
C468 H439 0.950 1_545 S
C468 C467 1.334 . S
C468 C469 1.287 . S
C469 C468 1.287 . S
C469 C470 1.524 . S
C469 H472 0.999 . S
C470 H440 0.950 . S
C470 C469 1.524 . S
C470 C471 1.415 . S
C471 H441 0.950 . S
C471 C466 1.363 . S
C471 C470 1.415 . S
H472 C469 0.999 . S
H473 C454 0.913 . S
H474 C492 0.951 . S
H475 C494 0.951 . S
H476 C496 0.950 . S
H477 C497 0.950 . S
H478 C499 0.950 . S
H479 C502 0.950 . S
H480 C503 0.950 . S
H481 C505 0.950 . S
H482 C506 0.950 . S
H483 C507 0.951 . S
H484 C509 0.951 . S
H485 C511 0.950 . S
H486 C512 0.950 . S
H487 C514 0.950 . S
H488 C517 0.950 . S
H489 C518 0.950 . S
H490 C520 0.950 . S
H491 C521 0.950 . S
C492 H474 0.951 . S
C492 C493 1.366 . S
C492 C494 1.388 . S
C493 C492 1.366 . S
C493 C497 1.385 . S
C494 H475 0.951 . S
C494 C492 1.388 . S
C494 C495 1.366 . S
C495 C494 1.366 . S
C495 C496 1.414 . S
C495 C498 1.499 . S
C496 H476 0.950 . S
C496 C495 1.414 . S
C496 C497 1.374 . S
C497 H477 0.950 . S
C497 C493 1.385 . S
C497 C496 1.374 . S
C498 C495 1.499 . S
C498 C499 1.373 . S
C498 C500 1.389 . S
C499 H478 0.950 . S
C499 C498 1.373 . S
C499 C515 1.377 . S
C500 C498 1.389 . S
C500 C501 1.524 . S
C500 C514 1.377 . S
C501 C500 1.524 . S
C501 C502 1.397 . S
C501 C506 1.363 . S
C502 H479 0.950 . S
C502 C501 1.397 . S
C502 C503 1.334 . S
C503 H480 0.950 . S
C503 C502 1.334 . S
C503 C504 1.287 . S
C504 C503 1.287 . S
C504 C505 1.524 . S
C504 H523 0.913 . S
C505 H481 0.950 . S
C505 C504 1.524 . S
C505 C506 1.415 . S
C506 H482 0.950 . S
C506 C501 1.363 . S
C506 C505 1.415 . S
C507 H483 0.951 . S
C507 C508 1.366 . S
C507 C509 1.388 . S
C508 C507 1.366 . S
C508 C512 1.385 . S
C509 H484 0.951 . S
C509 C507 1.388 . S
C509 C510 1.366 . S
C510 C509 1.366 . S
C510 C511 1.414 . S
C510 C513 1.499 . S
C511 H485 0.950 . S
C511 C510 1.414 . S
C511 C512 1.374 . S
C512 H486 0.950 . S
C512 C508 1.385 . S
C512 C511 1.374 . S
C513 C510 1.499 . S
C513 C514 1.373 . S
C513 C515 1.389 . S
C514 H487 0.950 . S
C514 C500 1.377 . S
C514 C513 1.373 . S
C515 C499 1.377 . S
C515 C513 1.389 . S
C515 C516 1.524 . S
C516 C515 1.524 . S
C516 C517 1.397 . S
C516 C521 1.363 . S
C517 H488 0.950 . S
C517 C516 1.397 . S
C517 C518 1.334 . S
C518 H489 0.950 . S
C518 C517 1.334 . S
C518 C519 1.287 . S
C519 C518 1.287 . S
C519 C520 1.524 . S
C519 H522 0.999 . S
C520 H490 0.950 . S
C520 C519 1.524 . S
C520 C521 1.415 . S
C521 H491 0.950 . S
C521 C516 1.363 . S
C521 C520 1.415 . S
H522 C519 0.999 . S
H523 C504 0.913 . S
H524 C542 0.951 . S
H525 C544 0.951 . S
H526 C546 0.950 . S
H527 C547 0.950 . S
H528 C549 0.950 . S
H529 C552 0.950 . S
H530 C553 0.950 . S
H531 C555 0.950 . S
H532 C556 0.950 . S
H533 C557 0.951 . S
H534 C559 0.951 . S
H535 C561 0.950 . S
H536 C562 0.950 . S
H537 C564 0.950 . S
H538 C567 0.950 . S
H539 C568 0.950 . S
H540 C570 0.950 . S
H541 C571 0.950 . S
C542 H524 0.951 . S
C542 C543 1.366 . S
C542 C544 1.388 . S
C543 C542 1.366 . S
C543 C547 1.385 . S
C544 H525 0.951 . S
C544 C542 1.388 . S
C544 C545 1.366 . S
C545 C544 1.366 . S
C545 C546 1.414 . S
C545 C548 1.499 . S
C546 H526 0.950 . S
C546 C545 1.414 . S
C546 C547 1.374 . S
C547 H527 0.950 . S
C547 C543 1.385 . S
C547 C546 1.374 . S
C548 C545 1.499 . S
C548 C549 1.373 . S
C548 C550 1.389 . S
C549 H528 0.950 . S
C549 C548 1.373 . S
C549 C565 1.377 . S
C550 C548 1.389 . S
C550 C551 1.524 . S
C550 C564 1.377 . S
C551 C550 1.524 . S
C551 C552 1.397 . S
C551 C556 1.363 . S
C552 H529 0.950 . S
C552 C551 1.397 . S
C552 C553 1.334 . S
C553 H530 0.950 . S
C553 C552 1.334 . S
C553 C554 1.287 . S
C554 C553 1.287 . S
C554 C555 1.524 . S
C554 H573 0.913 . S
C555 H531 0.950 . S
C555 C554 1.524 . S
C555 C556 1.415 . S
C556 H532 0.950 . S
C556 C551 1.363 . S
C556 C555 1.415 . S
C557 H533 0.951 . S
C557 C558 1.366 . S
C557 C559 1.388 . S
C558 C557 1.366 . S
C558 C562 1.385 . S
C559 H534 0.951 . S
C559 C557 1.388 . S
C559 C560 1.366 . S
C560 C559 1.366 . S
C560 C561 1.414 . S
C560 C563 1.499 . S
C561 H535 0.950 . S
C561 C560 1.414 . S
C561 C562 1.374 . S
C562 H536 0.950 . S
C562 C558 1.385 . S
C562 C561 1.374 . S
C563 C560 1.499 . S
C563 C564 1.373 . S
C563 C565 1.389 . S
C564 H537 0.950 . S
C564 C550 1.377 . S
C564 C563 1.373 . S
C565 C549 1.377 . S
C565 C563 1.389 . S
C565 C566 1.524 . S
C566 C565 1.524 . S
C566 C567 1.397 . S
C566 C571 1.363 . S
C567 H538 0.950 . S
C567 C566 1.397 . S
C567 C568 1.334 . S
C568 H539 0.950 . S
C568 C567 1.334 . S
C568 C569 1.287 . S
C569 C568 1.287 . S
C569 C570 1.524 . S
C569 H572 0.999 . S
C570 H540 0.950 . S
C570 C569 1.524 . S
C570 C571 1.415 . S
C571 H541 0.950 . S
C571 C566 1.363 . S
C571 C570 1.415 . S
H572 C569 0.999 . S
H573 C554 0.913 . S
H574 C592 0.951 . S
H575 C594 0.951 . S
H576 C596 0.950 . S
H577 C597 0.950 . S
H578 C599 0.967 . S
H579 C602 0.950 . S
H580 C603 0.950 . S
H581 C605 0.950 . S
H582 C606 0.950 . S
H583 C607 0.933 1_655 S
H584 C609 0.951 1_655 S
H585 C611 0.950 . S
H586 C612 0.950 . S
H587 C614 0.950 . S
H588 C617 0.986 . S
H589 C618 0.950 . S
H590 C620 0.950 . S
H591 C621 0.950 . S
C592 H574 0.951 . S
C592 C593 1.366 . S
C592 C594 1.388 . S
C593 C592 1.366 . S
C593 C597 1.385 . S
C594 H575 0.951 . S
C594 C592 1.388 . S
C594 C595 1.366 . S
C595 C594 1.366 . S
C595 C596 1.414 . S
C595 C598 1.499 . S
C596 H576 0.950 . S
C596 C595 1.414 . S
C596 C597 1.374 . S
C597 H577 0.950 . S
C597 C593 1.385 . S
C597 C596 1.374 . S
C598 C595 1.499 . S
C598 C599 1.373 . S
C598 C600 1.389 . S
C599 H578 0.967 . S
C599 C598 1.373 . S
C599 C615 1.377 . S
C600 C598 1.389 . S
C600 C601 1.524 . S
C600 C614 1.377 . S
C601 C600 1.524 . S
C601 C602 1.397 . S
C601 C606 1.363 . S
C602 H579 0.950 . S
C602 C601 1.397 . S
C602 C603 1.334 . S
C603 H580 0.950 . S
C603 C602 1.334 . S
C603 C604 1.287 . S
C604 C603 1.287 . S
C604 C605 1.524 . S
C604 H623 0.913 . S
C605 H581 0.950 . S
C605 C604 1.524 . S
C605 C606 1.415 . S
C606 H582 0.950 . S
C606 C601 1.363 . S
C606 C605 1.415 . S
C607 H583 0.933 1_455 S
C607 C608 1.380 . S
C607 C609 1.391 . S
C608 C607 1.380 . S
C608 C612 1.385 . S
C609 H584 0.951 1_455 S
C609 C607 1.391 . S
C609 C610 1.366 . S
C610 C609 1.366 . S
C610 C611 1.414 . S
C610 C613 1.499 . S
C611 H585 0.950 . S
C611 C610 1.414 . S
C611 C612 1.374 . S
C612 H586 0.950 . S
C612 C608 1.385 . S
C612 C611 1.374 . S
C613 C610 1.499 . S
C613 C614 1.373 . S
C613 C615 1.389 . S
C614 H587 0.950 . S
C614 C600 1.377 . S
C614 C613 1.373 . S
C615 C599 1.377 . S
C615 C613 1.389 . S
C615 C616 1.524 1_455 S
C616 C615 1.524 1_655 S
C616 C617 1.397 . S
C616 C621 1.363 . S
C617 H588 0.986 . S
C617 C616 1.397 . S
C617 C618 1.334 . S
C618 H589 0.950 . S
C618 C617 1.334 . S
C618 C619 1.287 . S
C619 C618 1.287 . S
C619 C620 1.524 . S
C619 H622 0.999 . S
C620 H590 0.950 . S
C620 C619 1.524 . S
C620 C621 1.415 . S
C621 H591 0.950 . S
C621 C616 1.363 . S
C621 C620 1.415 . S
H622 C619 0.999 . S
H623 C604 0.913 . S
H624 C642 0.951 . S
H625 C644 0.951 . S
H626 C646 0.950 . S
H627 C647 0.950 . S
H628 C649 0.950 . S
H629 C652 0.950 . S
H630 C653 0.950 . S
H631 C655 0.950 . S
H632 C656 0.950 . S
H633 C657 0.951 . S
H634 C659 0.951 . S
H635 C661 0.950 . S
H636 C662 0.950 . S
H637 C664 0.950 . S
H638 C667 0.950 . S
H639 C668 0.950 . S
H640 C670 0.951 1_554 S
H641 C671 0.950 1_564 S
C642 H624 0.951 . S
C642 C643 1.366 . S
C642 C644 1.388 1_554 S
C643 C642 1.366 . S
C643 C647 1.385 . S
C644 H625 0.951 . S
C644 C642 1.388 1_556 S
C644 C645 1.366 . S
C645 C644 1.366 . S
C645 C646 1.414 1_556 S
C645 C648 1.499 . S
C646 H626 0.950 . S
C646 C645 1.414 1_554 S
C646 C647 1.374 . S
C647 H627 0.950 . S
C647 C643 1.385 . S
C647 C646 1.374 . S
C648 C645 1.499 . S
C648 C649 1.373 . S
C648 C650 1.389 . S
C649 H628 0.950 . S
C649 C648 1.373 . S
C649 C665 1.377 . S
C650 C648 1.389 . S
C650 C651 1.524 . S
C650 C664 1.377 . S
C651 C650 1.524 . S
C651 C652 1.397 . S
C651 C656 1.363 . S
C652 H629 0.950 . S
C652 C651 1.397 . S
C652 C653 1.334 . S
C653 H630 0.950 . S
C653 C652 1.334 . S
C653 C654 1.287 . S
C654 C653 1.287 . S
C654 C655 1.524 . S
C654 H673 0.913 . S
C655 H631 0.950 . S
C655 C654 1.524 . S
C655 C656 1.415 . S
C656 H632 0.950 . S
C656 C651 1.363 . S
C656 C655 1.415 . S
C657 H633 0.951 . S
C657 C658 1.363 1_565 S
C657 C659 1.388 . S
C658 C657 1.363 1_545 S
C658 C662 1.386 . S
C659 H634 0.951 . S
C659 C657 1.388 . S
C659 C660 1.366 . S
C660 C659 1.366 . S
C660 C661 1.414 1_565 S
C660 C663 1.499 . S
C661 H635 0.950 . S
C661 C660 1.414 1_545 S
C661 C662 1.374 . S
C662 H636 0.950 . S
C662 C658 1.386 . S
C662 C661 1.374 . S
C663 C660 1.499 . S
C663 C664 1.373 . S
C663 C665 1.389 . S
C664 H637 0.950 . S
C664 C650 1.377 . S
C664 C663 1.373 . S
C665 C649 1.377 . S
C665 C663 1.389 . S
C665 C666 1.524 1_565 S
C666 C665 1.524 1_545 S
C666 C667 1.397 . S
C666 C671 1.363 . S
C667 H638 0.950 . S
C667 C666 1.397 . S
C667 C668 1.334 . S
C668 H639 0.950 . S
C668 C667 1.334 . S
C668 C669 1.287 . S
C669 C668 1.287 . S
C669 C670 1.523 . S
C669 H672 0.999 . S
C670 H640 0.951 1_556 S
C670 C669 1.523 . S
C670 C671 1.414 . S
C671 H641 0.950 1_546 S
C671 C666 1.363 . S
C671 C670 1.414 . S
H672 C669 0.999 . S
H673 C654 0.913 . S
H674 C692 0.951 . S
H675 C694 0.951 . S
H676 C696 0.950 . S
H677 C697 0.950 . S
H678 C699 0.950 . S
H679 C702 0.950 . S
H680 C703 0.950 . S
H681 C705 0.950 . S
H682 C706 0.950 . S
H683 C707 0.951 . S
H684 C709 0.951 . S
H685 C711 0.950 . S
H686 C712 0.950 . S
H687 C714 0.950 . S
H688 C717 0.950 . S
H689 C718 0.950 . S
H690 C720 0.950 . S
H691 C721 0.950 . S
C692 H674 0.951 . S
C692 C693 1.366 . S
C692 C694 1.388 . S
C693 C692 1.366 . S
C693 C697 1.385 . S
C694 H675 0.951 . S
C694 C692 1.388 . S
C694 C695 1.366 1_554 S
C695 C694 1.366 1_556 S
C695 C696 1.414 . S
C695 C698 1.499 . S
C696 H676 0.950 . S
C696 C695 1.414 . S
C696 C697 1.374 1_556 S
C697 H677 0.950 . S
C697 C693 1.385 . S
C697 C696 1.374 1_554 S
C698 C695 1.499 . S
C698 C699 1.373 . S
C698 C700 1.389 . S
C699 H678 0.950 . S
C699 C698 1.373 . S
C699 C715 1.377 . S
C700 C698 1.389 . S
C700 C701 1.524 . S
C700 C714 1.377 . S
C701 C700 1.524 . S
C701 C702 1.397 . S
C701 C706 1.363 1_556 S
C702 H679 0.950 . S
C702 C701 1.397 . S
C702 C703 1.334 1_556 S
C703 H680 0.950 . S
C703 C702 1.334 1_554 S
C703 C704 1.287 . S
C704 C703 1.287 . S
C704 C705 1.524 . S
C704 H723 0.913 . S
C705 H681 0.950 . S
C705 C704 1.524 . S
C705 C706 1.415 . S
C706 H682 0.950 . S
C706 C701 1.363 1_554 S
C706 C705 1.415 . S
C707 H683 0.951 . S
C707 C708 1.366 . S
C707 C709 1.388 . S
C708 C707 1.366 . S
C708 C712 1.385 . S
C709 H684 0.951 . S
C709 C707 1.388 . S
C709 C710 1.366 . S
C710 C709 1.366 . S
C710 C711 1.414 . S
C710 C713 1.499 . S
C711 H685 0.950 . S
C711 C710 1.414 . S
C711 C712 1.374 . S
C712 H686 0.950 . S
C712 C708 1.385 . S
C712 C711 1.374 . S
C713 C710 1.499 . S
C713 C714 1.373 . S
C713 C715 1.389 . S
C714 H687 0.950 . S
C714 C700 1.377 . S
C714 C713 1.373 . S
C715 C699 1.377 . S
C715 C713 1.389 . S
C715 C716 1.524 . S
C716 C715 1.524 . S
C716 C717 1.397 . S
C716 C721 1.363 . S
C717 H688 0.950 . S
C717 C716 1.397 . S
C717 C718 1.334 . S
C718 H689 0.950 . S
C718 C717 1.334 . S
C718 C719 1.287 . S
C719 C718 1.287 . S
C719 C720 1.524 . S
C719 H722 0.999 . S
C720 H690 0.950 . S
C720 C719 1.524 . S
C720 C721 1.415 . S
C721 H691 0.950 . S
C721 C716 1.363 . S
C721 C720 1.415 . S
H722 C719 0.999 . S
H723 C704 0.913 . S
H724 C742 0.951 . S
H725 C744 0.951 . S
H726 C746 0.950 . S
H727 C747 0.950 . S
H728 C749 0.950 . S
H729 C752 0.950 . S
H730 C753 0.950 . S
H731 C755 0.950 . S
H732 C756 0.950 . S
H733 C757 0.951 . S
H734 C759 0.951 . S
H735 C761 0.950 . S
H736 C762 0.950 . S
H737 C764 0.950 . S
H738 C767 0.950 . S
H739 C768 0.950 . S
H740 C770 0.950 . S
H741 C771 0.950 . S
C742 H724 0.951 . S
C742 C743 1.366 . S
C742 C744 1.388 1_554 S
C743 C742 1.366 . S
C743 C747 1.385 . S
C744 H725 0.951 . S
C744 C742 1.388 1_556 S
C744 C745 1.366 . S
C745 C744 1.366 . S
C745 C746 1.414 1_556 S
C745 C748 1.499 . S
C746 H726 0.950 . S
C746 C745 1.414 1_554 S
C746 C747 1.374 . S
C747 H727 0.950 . S
C747 C743 1.385 . S
C747 C746 1.374 . S
C748 C745 1.499 . S
C748 C749 1.373 . S
C748 C750 1.389 . S
C749 H728 0.950 . S
C749 C748 1.373 . S
C749 C765 1.377 . S
C750 C748 1.389 . S
C750 C751 1.524 . S
C750 C764 1.377 . S
C751 C750 1.524 . S
C751 C752 1.397 1_556 S
C751 C756 1.363 . S
C752 H729 0.950 . S
C752 C751 1.397 1_554 S
C752 C753 1.334 . S
C753 H730 0.950 . S
C753 C752 1.334 . S
C753 C754 1.287 . S
C754 C753 1.287 . S
C754 C755 1.524 1_554 S
C754 H773 0.913 . S
C755 H731 0.950 . S
C755 C754 1.524 1_556 S
C755 C756 1.415 . S
C756 H732 0.950 . S
C756 C751 1.363 . S
C756 C755 1.415 . S
C757 H733 0.951 . S
C757 C758 1.366 . S
C757 C759 1.388 . S
C758 C757 1.366 . S
C758 C762 1.385 . S
C759 H734 0.951 . S
C759 C757 1.388 . S
C759 C760 1.366 . S
C760 C759 1.366 . S
C760 C761 1.414 . S
C760 C763 1.499 . S
C761 H735 0.950 . S
C761 C760 1.414 . S
C761 C762 1.374 . S
C762 H736 0.950 . S
C762 C758 1.385 . S
C762 C761 1.374 . S
C763 C760 1.499 . S
C763 C764 1.373 . S
C763 C765 1.389 . S
C764 H737 0.950 . S
C764 C750 1.377 . S
C764 C763 1.373 . S
C765 C749 1.377 . S
C765 C763 1.389 . S
C765 C766 1.524 . S
C766 C765 1.524 . S
C766 C767 1.397 . S
C766 C771 1.363 . S
C767 H738 0.950 . S
C767 C766 1.397 . S
C767 C768 1.334 . S
C768 H739 0.950 . S
C768 C767 1.334 . S
C768 C769 1.287 . S
C769 C768 1.287 . S
C769 C770 1.524 . S
C769 H772 0.999 . S
C770 H740 0.950 . S
C770 C769 1.524 . S
C770 C771 1.415 . S
C771 H741 0.950 . S
C771 C766 1.363 . S
C771 C770 1.415 . S
H772 C769 0.999 . S
H773 C754 0.913 . S
H774 C792 0.951 . S
H775 C794 0.951 1_455 S
H776 C796 0.950 . S
H777 C797 0.950 . S
H778 C799 0.950 . S
H779 C802 0.950 . S
H780 C803 0.950 . S
H781 C805 0.955 . S
H782 C806 0.983 . S
H783 C807 0.951 . S
H784 C809 0.951 . S
H785 C811 0.950 . S
H786 C812 0.950 . S
H787 C814 0.950 . S
H788 C817 0.950 . S
H789 C818 0.950 . S
H790 C820 0.950 1_554 S
H791 C821 0.950 . S
C792 H774 0.951 . S
C792 C793 1.366 . S
C792 C794 1.388 1_554 S
C793 C792 1.366 . S
C793 C797 1.385 . S
C794 H775 0.951 1_655 S
C794 C792 1.388 1_556 S
C794 C795 1.366 . S
C795 C794 1.366 . S
C795 C796 1.414 1_556 S
C795 C798 1.499 . S
C796 H776 0.950 . S
C796 C795 1.414 1_554 S
C796 C797 1.374 . S
C797 H777 0.950 . S
C797 C793 1.385 . S
C797 C796 1.374 . S
C798 C795 1.499 . S
C798 C799 1.373 . S
C798 C800 1.389 . S
C799 H778 0.950 . S
C799 C798 1.373 . S
C799 C815 1.377 . S
C800 C798 1.389 . S
C800 C801 1.524 . S
C800 C814 1.377 . S
C801 C800 1.524 . S
C801 C802 1.397 . S
C801 C806 1.332 1_655 S
C802 H779 0.950 . S
C802 C801 1.397 . S
C802 C803 1.334 . S
C803 H780 0.950 . S
C803 C802 1.334 . S
C803 C804 1.287 . S
C804 C803 1.287 . S
C804 C805 1.518 1_655 S
C804 H823 0.913 . S
C805 H781 0.955 . S
C805 C804 1.518 1_455 S
C805 C806 1.414 . S
C806 H782 0.983 . S
C806 C801 1.332 1_455 S
C806 C805 1.414 . S
C807 H783 0.951 . S
C807 C808 1.366 . S
C807 C809 1.388 . S
C808 C807 1.366 . S
C808 C812 1.385 1_655 S
C809 H784 0.951 . S
C809 C807 1.388 . S
C809 C810 1.366 . S
C810 C809 1.366 . S
C810 C811 1.414 1_655 S
C810 C813 1.499 . S
C811 H785 0.950 . S
C811 C810 1.414 1_455 S
C811 C812 1.374 . S
C812 H786 0.950 . S
C812 C808 1.385 1_455 S
C812 C811 1.374 . S
C813 C810 1.499 . S
C813 C814 1.373 . S
C813 C815 1.389 . S
C814 H787 0.950 . S
C814 C800 1.377 . S
C814 C813 1.373 . S
C815 C799 1.377 . S
C815 C813 1.389 . S
C815 C816 1.524 . S
C816 C815 1.524 . S
C816 C817 1.397 1_655 S
C816 C821 1.363 . S
C817 H788 0.950 . S
C817 C816 1.397 1_455 S
C817 C818 1.334 . S
C818 H789 0.950 . S
C818 C817 1.334 . S
C818 C819 1.287 1_455 S
C819 C818 1.287 1_655 S
C819 C820 1.524 . S
C819 H822 0.999 . S
C820 H790 0.950 1_556 S
C820 C819 1.524 . S
C820 C821 1.415 . S
C821 H791 0.950 . S
C821 C816 1.363 . S
C821 C820 1.415 . S
H822 C819 0.999 . S
H823 C804 0.913 . S
H824 C842 0.951 . S
H825 C844 0.951 . S
H826 C846 0.950 . S
H827 C847 0.950 . S
H828 C849 0.950 . S
H829 C852 0.950 . S
H830 C853 0.950 . S
H831 C855 0.950 . S
H832 C856 0.902 1_655 S
H833 C857 0.951 . S
H834 C859 0.951 . S
H835 C861 0.950 . S
H836 C862 0.950 . S
H837 C864 0.950 . S
H838 C867 0.950 1_655 S
H839 C868 0.950 1_655 S
H840 C870 0.950 . S
H841 C871 0.950 . S
C842 H824 0.951 . S
C842 C843 1.366 . S
C842 C844 1.388 . S
C843 C842 1.366 . S
C843 C847 1.385 . S
C844 H825 0.951 . S
C844 C842 1.388 . S
C844 C845 1.366 . S
C845 C844 1.366 . S
C845 C846 1.414 . S
C845 C848 1.499 . S
C846 H826 0.950 . S
C846 C845 1.414 . S
C846 C847 1.374 . S
C847 H827 0.950 . S
C847 C843 1.385 . S
C847 C846 1.374 . S
C848 C845 1.499 . S
C848 C849 1.373 . S
C848 C850 1.389 . S
C849 H828 0.950 . S
C849 C848 1.373 . S
C849 C865 1.377 . S
C850 C848 1.389 . S
C850 C851 1.524 . S
C850 C864 1.377 . S
C851 C850 1.524 . S
C851 C852 1.397 . S
C851 C856 1.363 . S
C852 H829 0.950 . S
C852 C851 1.397 . S
C852 C853 1.334 . S
C853 H830 0.950 . S
C853 C852 1.334 . S
C853 C854 1.287 . S
C854 C853 1.287 . S
C854 C855 1.524 . S
C854 H873 0.913 . S
C855 H831 0.950 . S
C855 C854 1.524 . S
C855 C856 1.415 . S
C856 H832 0.902 1_455 S
C856 C851 1.363 . S
C856 C855 1.415 . S
C857 H833 0.951 . S
C857 C858 1.366 . S
C857 C859 1.388 . S
C858 C857 1.366 . S
C858 C862 1.385 1_455 S
C859 H834 0.951 . S
C859 C857 1.388 . S
C859 C860 1.366 . S
C860 C859 1.366 . S
C860 C861 1.414 1_455 S
C860 C863 1.499 . S
C861 H835 0.950 . S
C861 C860 1.414 1_655 S
C861 C862 1.374 . S
C862 H836 0.950 . S
C862 C858 1.385 1_655 S
C862 C861 1.374 . S
C863 C860 1.499 . S
C863 C864 1.373 . S
C863 C865 1.389 . S
C864 H837 0.950 . S
C864 C850 1.377 . S
C864 C863 1.373 . S
C865 C849 1.377 . S
C865 C863 1.389 . S
C865 C866 1.524 . S
C866 C865 1.524 . S
C866 C867 1.397 . S
C866 C871 1.363 . S
C867 H838 0.950 1_455 S
C867 C866 1.397 . S
C867 C868 1.334 . S
C868 H839 0.950 1_455 S
C868 C867 1.334 . S
C868 C869 1.287 . S
C869 C868 1.287 . S
C869 C870 1.524 . S
C869 H872 0.999 . S
C870 H840 0.950 . S
C870 C869 1.524 . S
C870 C871 1.415 . S
C871 H841 0.950 . S
C871 C866 1.363 . S
C871 C870 1.415 . S
H872 C869 0.999 . S
H873 C854 0.913 . S
H874 C892 0.951 . S
H875 C894 0.951 . S
H876 C896 0.950 . S
H877 C897 0.950 . S
H878 C899 0.950 . S
H879 C902 0.950 . S
H880 C903 0.950 . S
H881 C905 0.950 . S
H882 C906 0.950 . S
H883 C907 0.951 . S
H884 C909 0.951 1_565 S
H885 C911 0.950 . S
H886 C912 0.950 . S
H887 C914 0.950 . S
H888 C917 0.950 . S
H889 C918 0.950 . S
H890 C920 0.950 . S
H891 C921 0.950 . S
C892 H874 0.951 . S
C892 C893 1.366 . S
C892 C894 1.388 . S
C893 C892 1.366 . S
C893 C897 1.385 . S
C894 H875 0.951 . S
C894 C892 1.388 . S
C894 C895 1.366 . S
C895 C894 1.366 . S
C895 C896 1.414 . S
C895 C898 1.499 . S
C896 H876 0.950 . S
C896 C895 1.414 . S
C896 C897 1.374 . S
C897 H877 0.950 . S
C897 C893 1.385 . S
C897 C896 1.374 . S
C898 C895 1.499 . S
C898 C899 1.373 . S
C898 C900 1.389 . S
C899 H878 0.950 . S
C899 C898 1.373 . S
C899 C915 1.377 . S
C900 C898 1.389 . S
C900 C901 1.524 . S
C900 C914 1.377 . S
C901 C900 1.524 . S
C901 C902 1.397 . S
C901 C906 1.363 . S
C902 H879 0.950 . S
C902 C901 1.397 . S
C902 C903 1.334 . S
C903 H880 0.950 . S
C903 C902 1.334 . S
C903 C904 1.287 . S
C904 C903 1.287 . S
C904 C905 1.524 . S
C904 H923 0.913 . S
C905 H881 0.950 . S
C905 C904 1.524 . S
C905 C906 1.415 . S
C906 H882 0.950 . S
C906 C901 1.363 . S
C906 C905 1.415 . S
C907 H883 0.951 . S
C907 C908 1.366 1_565 S
C907 C909 1.388 1_565 S
C908 C907 1.366 1_545 S
C908 C912 1.385 . S
C909 H884 0.951 1_545 S
C909 C907 1.388 1_545 S
C909 C910 1.366 . S
C910 C909 1.366 . S
C910 C911 1.414 . S
C910 C913 1.499 . S
C911 H885 0.950 . S
C911 C910 1.414 . S
C911 C912 1.374 . S
C912 H886 0.950 . S
C912 C908 1.385 . S
C912 C911 1.374 . S
C913 C910 1.499 . S
C913 C914 1.373 . S
C913 C915 1.389 . S
C914 H887 0.950 . S
C914 C900 1.377 . S
C914 C913 1.373 . S
C915 C899 1.377 . S
C915 C913 1.389 . S
C915 C916 1.524 . S
C916 C915 1.524 . S
C916 C917 1.397 . S
C916 C921 1.363 1_545 S
C917 H888 0.950 . S
C917 C916 1.397 . S
C917 C918 1.334 . S
C918 H889 0.950 . S
C918 C917 1.334 . S
C918 C919 1.287 1_545 S
C919 C918 1.287 1_565 S
C919 C920 1.524 . S
C919 H922 0.999 . S
C920 H890 0.950 . S
C920 C919 1.524 . S
C920 C921 1.415 . S
C921 H891 0.950 . S
C921 C916 1.363 1_565 S
C921 C920 1.415 . S
H922 C919 0.999 . S
H923 C904 0.913 . S
H924 C942 0.951 . S
H925 C944 0.951 . S
H926 C946 0.950 . S
H927 C947 0.950 . S
H928 C949 0.950 . S
H929 C952 0.950 . S
H930 C953 0.950 . S
H931 C955 0.950 . S
H932 C956 0.950 . S
H933 C957 0.951 . S
H934 C959 0.951 . S
H935 C961 0.950 . S
H936 C962 0.950 . S
H937 C964 0.950 . S
H938 C967 0.950 . S
H939 C968 0.950 . S
H940 C970 0.950 . S
H941 C971 0.950 . S
C942 H924 0.951 . S
C942 C943 1.366 . S
C942 C944 1.388 . S
C943 C942 1.366 . S
C943 C947 1.385 . S
C944 H925 0.951 . S
C944 C942 1.388 . S
C944 C945 1.366 . S
C945 C944 1.366 . S
C945 C946 1.414 . S
C945 C948 1.499 . S
C946 H926 0.950 . S
C946 C945 1.414 . S
C946 C947 1.374 . S
C947 H927 0.950 . S
C947 C943 1.385 . S
C947 C946 1.374 . S
C948 C945 1.499 . S
C948 C949 1.373 . S
C948 C950 1.389 . S
C949 H928 0.950 . S
C949 C948 1.373 . S
C949 C965 1.377 . S
C950 C948 1.389 . S
C950 C951 1.524 . S
C950 C964 1.377 . S
C951 C950 1.524 . S
C951 C952 1.397 . S
C951 C956 1.363 . S
C952 H929 0.950 . S
C952 C951 1.397 . S
C952 C953 1.334 . S
C953 H930 0.950 . S
C953 C952 1.334 . S
C953 C954 1.287 . S
C954 C953 1.287 . S
C954 C955 1.524 . S
C954 H973 0.913 . S
C955 H931 0.950 . S
C955 C954 1.524 . S
C955 C956 1.415 . S
C956 H932 0.950 . S
C956 C951 1.363 . S
C956 C955 1.415 . S
C957 H933 0.951 . S
C957 C958 1.366 . S
C957 C959 1.388 . S
C958 C957 1.366 . S
C958 C962 1.385 . S
C959 H934 0.951 . S
C959 C957 1.388 . S
C959 C960 1.366 . S
C960 C959 1.366 . S
C960 C961 1.414 . S
C960 C963 1.499 . S
C961 H935 0.950 . S
C961 C960 1.414 . S
C961 C962 1.374 . S
C962 H936 0.950 . S
C962 C958 1.385 . S
C962 C961 1.374 . S
C963 C960 1.499 . S
C963 C964 1.373 . S
C963 C965 1.389 . S
C964 H937 0.950 . S
C964 C950 1.377 . S
C964 C963 1.373 . S
C965 C949 1.377 . S
C965 C963 1.389 . S
C965 C966 1.524 . S
C966 C965 1.524 . S
C966 C967 1.397 . S
C966 C971 1.363 . S
C967 H938 0.950 . S
C967 C966 1.397 . S
C967 C968 1.334 . S
C968 H939 0.950 . S
C968 C967 1.334 . S
C968 C969 1.287 . S
C969 C968 1.287 . S
C969 C970 1.524 . S
C969 H972 0.999 . S
C970 H940 0.950 . S
C970 C969 1.524 . S
C970 C971 1.415 . S
C971 H941 0.950 . S
C971 C966 1.363 . S
C971 C970 1.415 . S
H972 C969 0.999 . S
H973 C954 0.913 . S
H974 C992 0.951 . S
H975 C994 0.951 . S
H976 C996 0.950 . S
H977 C997 0.950 . S
H978 C999 0.950 . S
H979 C1002 0.950 . S
H980 C1003 0.950 . S
H981 C1005 0.950 . S
H982 C1006 0.950 . S
H983 C1007 0.951 . S
H984 C1009 0.951 . S
H985 C1011 0.950 . S
H986 C1012 0.950 . S
H987 C1014 0.950 . S
H988 C1017 0.950 . S
H989 C1018 0.950 . S
H990 C1020 0.950 . S
H991 C1021 0.950 . S
C992 H974 0.951 . S
C992 C993 1.366 . S
C992 C994 1.388 . S
C993 C992 1.366 . S
C993 C997 1.385 . S
C994 H975 0.951 . S
C994 C992 1.388 . S
C994 C995 1.366 . S
C995 C994 1.366 . S
C995 C996 1.414 . S
C995 C998 1.499 . S
C996 H976 0.950 . S
C996 C995 1.414 . S
C996 C997 1.374 . S
C997 H977 0.950 . S
C997 C993 1.385 . S
C997 C996 1.374 . S
C998 C995 1.499 . S
C998 C999 1.373 . S
C998 C1000 1.389 . S
C999 H978 0.950 . S
C999 C998 1.373 . S
C999 C1015 1.377 . S
C1000 C998 1.389 . S
C1000 C1001 1.524 . S
C1000 C1014 1.377 . S
C1001 C1000 1.524 . S
C1001 C1002 1.397 . S
C1001 C1006 1.363 . S
C1002 H979 0.950 . S
C1002 C1001 1.397 . S
C1002 C1003 1.334 . S
C1003 H980 0.950 . S
C1003 C1002 1.334 . S
C1003 C1004 1.287 . S
C1004 C1003 1.287 . S
C1004 C1005 1.524 . S
C1004 H1023 0.913 . S
C1005 H981 0.950 . S
C1005 C1004 1.524 . S
C1005 C1006 1.415 . S
C1006 H982 0.950 . S
C1006 C1001 1.363 . S
C1006 C1005 1.415 . S
C1007 H983 0.951 . S
C1007 C1008 1.366 . S
C1007 C1009 1.388 . S
C1008 C1007 1.366 . S
C1008 C1012 1.385 . S
C1009 H984 0.951 . S
C1009 C1007 1.388 . S
C1009 C1010 1.366 . S
C1010 C1009 1.366 . S
C1010 C1011 1.414 . S
C1010 C1013 1.499 . S
C1011 H985 0.950 . S
C1011 C1010 1.414 . S
C1011 C1012 1.374 . S
C1012 H986 0.950 . S
C1012 C1008 1.385 . S
C1012 C1011 1.374 . S
C1013 C1010 1.499 . S
C1013 C1014 1.373 . S
C1013 C1015 1.389 . S
C1014 H987 0.950 . S
C1014 C1000 1.377 . S
C1014 C1013 1.373 . S
C1015 C999 1.377 . S
C1015 C1013 1.389 . S
C1015 C1016 1.524 . S
C1016 C1015 1.524 . S
C1016 C1017 1.397 . S
C1016 C1021 1.363 . S
C1017 H988 0.950 . S
C1017 C1016 1.397 . S
C1017 C1018 1.334 . S
C1018 H989 0.950 . S
C1018 C1017 1.334 . S
C1018 C1019 1.287 . S
C1019 C1018 1.287 . S
C1019 C1020 1.524 . S
C1019 H1022 0.999 . S
C1020 H990 0.950 . S
C1020 C1019 1.524 . S
C1020 C1021 1.415 . S
C1021 H991 0.950 . S
C1021 C1016 1.363 . S
C1021 C1020 1.415 . S
H1022 C1019 0.999 . S
H1023 C1004 0.913 . S
H1024 C1042 0.951 . S
H1025 C1044 0.951 1_556 S
H1026 C1046 0.950 1_455 S
H1027 C1047 0.950 . S
H1028 C1049 0.950 . S
H1029 C1052 0.948 1_455 S
H1030 C1053 0.950 . S
H1031 C1055 0.950 . S
H1032 C1056 0.950 . S
H1033 C1057 0.951 . S
H1034 C1059 0.951 . S
H1035 C1061 0.950 . S
H1036 C1062 0.950 . S
H1037 C1064 0.950 . S
H1038 C1067 0.950 1_556 S
H1039 C1068 0.950 . S
H1040 C1070 0.950 . S
H1041 C1071 0.950 . S
C1042 H1024 0.951 . S
C1042 C1043 1.366 . S
C1042 C1044 1.388 . S
C1043 C1042 1.366 . S
C1043 C1047 1.385 . S
C1044 H1025 0.951 1_554 S
C1044 C1042 1.388 . S
C1044 C1045 1.366 . S
C1045 C1044 1.366 . S
C1045 C1046 1.414 . S
C1045 C1048 1.499 1_554 S
C1046 H1026 0.950 1_655 S
C1046 C1045 1.414 . S
C1046 C1047 1.374 . S
C1047 H1027 0.950 . S
C1047 C1043 1.385 . S
C1047 C1046 1.374 . S
C1048 C1045 1.499 1_556 S
C1048 C1049 1.373 1_556 S
C1048 C1050 1.389 . S
C1049 H1028 0.950 . S
C1049 C1048 1.373 1_554 S
C1049 C1065 1.377 1_554 S
C1050 C1048 1.389 . S
C1050 C1051 1.524 . S
C1050 C1064 1.377 . S
C1051 C1050 1.524 . S
C1051 C1052 1.397 . S
C1051 C1056 1.363 . S
C1052 H1029 0.948 1_655 S
C1052 C1051 1.397 . S
C1052 C1053 1.334 . S
C1053 H1030 0.950 . S
C1053 C1052 1.334 . S
C1053 C1054 1.287 . S
C1054 C1053 1.287 . S
C1054 C1055 1.524 . S
C1054 H1073 0.913 . S
C1055 H1031 0.950 . S
C1055 C1054 1.524 . S
C1055 C1056 1.415 . S
C1056 H1032 0.950 . S
C1056 C1051 1.363 . S
C1056 C1055 1.415 . S
C1057 H1033 0.951 . S
C1057 C1058 1.366 . S
C1057 C1059 1.388 . S
C1058 C1057 1.366 . S
C1058 C1062 1.385 1_455 S
C1059 H1034 0.951 . S
C1059 C1057 1.388 . S
C1059 C1060 1.366 1_455 S
C1060 C1059 1.366 1_655 S
C1060 C1061 1.414 . S
C1060 C1063 1.499 . S
C1061 H1035 0.950 . S
C1061 C1060 1.414 . S
C1061 C1062 1.374 . S
C1062 H1036 0.950 . S
C1062 C1058 1.385 1_655 S
C1062 C1061 1.374 . S
C1063 C1060 1.499 . S
C1063 C1064 1.373 . S
C1063 C1065 1.389 . S
C1064 H1037 0.950 . S
C1064 C1050 1.377 . S
C1064 C1063 1.373 . S
C1065 C1049 1.377 1_556 S
C1065 C1063 1.389 . S
C1065 C1066 1.524 1_556 S
C1066 C1065 1.524 1_554 S
C1066 C1067 1.397 . S
C1066 C1071 1.363 1_655 S
C1067 H1038 0.950 1_554 S
C1067 C1066 1.397 . S
C1067 C1068 1.334 . S
C1068 H1039 0.950 . S
C1068 C1067 1.334 . S
C1068 C1069 1.287 . S
C1069 C1068 1.287 . S
C1069 C1070 1.524 1_655 S
C1069 H1072 1.006 . S
C1070 H1040 0.950 . S
C1070 C1069 1.524 1_455 S
C1070 C1071 1.415 . S
C1071 H1041 0.950 . S
C1071 C1066 1.363 1_455 S
C1071 C1070 1.415 . S
H1072 C1069 1.006 . S
H1073 C1054 0.913 . S
H1074 C1092 0.951 . S
H1075 C1094 0.951 . S
H1076 C1096 0.950 1_556 S
H1077 C1097 0.950 . S
H1078 C1099 0.950 1_545 S
H1079 C1102 0.950 . S
H1080 C1103 0.950 . S
H1081 C1105 0.950 . S
H1082 C1106 0.950 . S
H1083 C1107 0.953 . S
H1084 C1109 0.951 . S
H1085 C1111 0.950 . S
H1086 C1112 0.950 . S
H1087 C1114 0.950 . S
H1088 C1117 0.950 . S
H1089 C1118 0.950 . S
H1090 C1120 0.950 . S
H1091 C1121 0.950 . S
C1092 H1074 0.951 . S
C1092 C1093 1.366 . S
C1092 C1094 1.388 . S
C1093 C1092 1.366 . S
C1093 C1097 1.385 . S
C1094 H1075 0.951 . S
C1094 C1092 1.388 . S
C1094 C1095 1.366 . S
C1095 C1094 1.366 . S
C1095 C1096 1.414 . S
C1095 C1098 1.499 1_554 S
C1096 H1076 0.950 1_554 S
C1096 C1095 1.414 . S
C1096 C1097 1.374 . S
C1097 H1077 0.950 . S
C1097 C1093 1.385 . S
C1097 C1096 1.374 . S
C1098 C1095 1.499 1_556 S
C1098 C1099 1.373 . S
C1098 C1100 1.389 1_556 S
C1099 H1078 0.950 1_565 S
C1099 C1098 1.373 . S
C1099 C1115 1.377 1_565 S
C1100 C1098 1.389 1_554 S
C1100 C1101 1.524 . S
C1100 C1114 1.377 1_554 S
C1101 C1100 1.524 . S
C1101 C1102 1.397 . S
C1101 C1106 1.363 . S
C1102 H1079 0.950 . S
C1102 C1101 1.397 . S
C1102 C1103 1.334 . S
C1103 H1080 0.950 . S
C1103 C1102 1.334 . S
C1103 C1104 1.287 . S
C1104 C1103 1.287 . S
C1104 C1105 1.524 . S
C1104 H1123 0.913 . S
C1105 H1081 0.950 . S
C1105 C1104 1.524 . S
C1105 C1106 1.415 . S
C1106 H1082 0.950 . S
C1106 C1101 1.363 . S
C1106 C1105 1.415 . S
C1107 H1083 0.953 . S
C1107 C1108 1.366 . S
C1107 C1109 1.388 1_545 S
C1108 C1107 1.366 . S
C1108 C1112 1.385 . S
C1109 H1084 0.951 . S
C1109 C1107 1.388 1_565 S
C1109 C1110 1.366 . S
C1110 C1109 1.366 . S
C1110 C1111 1.414 1_565 S
C1110 C1113 1.499 . S
C1111 H1085 0.950 . S
C1111 C1110 1.414 1_545 S
C1111 C1112 1.374 . S
C1112 H1086 0.950 . S
C1112 C1108 1.385 . S
C1112 C1111 1.374 . S
C1113 C1110 1.499 . S
C1113 C1114 1.373 . S
C1113 C1115 1.389 1_565 S
C1114 H1087 0.950 . S
C1114 C1100 1.377 1_556 S
C1114 C1113 1.373 . S
C1115 C1099 1.377 1_545 S
C1115 C1113 1.389 1_545 S
C1115 C1116 1.524 . S
C1116 C1115 1.524 . S
C1116 C1117 1.397 . S
C1116 C1121 1.363 . S
C1117 H1088 0.950 . S
C1117 C1116 1.397 . S
C1117 C1118 1.334 . S
C1118 H1089 0.950 . S
C1118 C1117 1.334 . S
C1118 C1119 1.287 . S
C1119 C1118 1.287 . S
C1119 C1120 1.524 . S
C1119 H1122 0.999 . S
C1120 H1090 0.950 . S
C1120 C1119 1.524 . S
C1120 C1121 1.415 . S
C1121 H1091 0.950 . S
C1121 C1116 1.363 . S
C1121 C1120 1.415 . S
H1122 C1119 0.999 . S
H1123 C1104 0.913 . S
H1124 C1142 0.951 . S
H1125 C1144 0.951 . S
H1126 C1146 0.950 . S
H1127 C1147 0.950 . S
H1128 C1149 0.950 1_554 S
H1129 C1152 0.950 . S
H1130 C1153 0.950 . S
H1131 C1155 0.950 . S
H1132 C1156 0.950 . S
H1133 C1157 0.951 . S
H1134 C1159 0.951 . S
H1135 C1161 0.950 . S
H1136 C1162 0.950 . S
H1137 C1164 0.950 . S
H1138 C1167 0.947 1_554 S
H1139 C1168 0.950 . S
H1140 C1170 0.950 . S
H1141 C1171 0.950 . S
C1142 H1124 0.951 . S
C1142 C1143 1.366 . S
C1142 C1144 1.388 . S
C1143 C1142 1.366 . S
C1143 C1147 1.385 . S
C1144 H1125 0.951 . S
C1144 C1142 1.388 . S
C1144 C1145 1.366 . S
C1145 C1144 1.366 . S
C1145 C1146 1.414 . S
C1145 C1148 1.499 1_554 S
C1146 H1126 0.950 . S
C1146 C1145 1.414 . S
C1146 C1147 1.374 . S
C1147 H1127 0.950 . S
C1147 C1143 1.385 . S
C1147 C1146 1.374 . S
C1148 C1145 1.499 1_556 S
C1148 C1149 1.373 . S
C1148 C1150 1.389 . S
C1149 H1128 0.950 1_556 S
C1149 C1148 1.373 . S
C1149 C1165 1.377 . S
C1150 C1148 1.389 . S
C1150 C1151 1.524 . S
C1150 C1164 1.377 . S
C1151 C1150 1.524 . S
C1151 C1152 1.397 . S
C1151 C1156 1.363 . S
C1152 H1129 0.950 . S
C1152 C1151 1.397 . S
C1152 C1153 1.334 . S
C1153 H1130 0.950 . S
C1153 C1152 1.334 . S
C1153 C1154 1.287 . S
C1154 C1153 1.287 . S
C1154 C1155 1.524 . S
C1154 H1173 0.913 . S
C1155 H1131 0.950 . S
C1155 C1154 1.524 . S
C1155 C1156 1.415 . S
C1156 H1132 0.950 . S
C1156 C1151 1.363 . S
C1156 C1155 1.415 . S
C1157 H1133 0.951 . S
C1157 C1158 1.366 . S
C1157 C1159 1.388 . S
C1158 C1157 1.366 . S
C1158 C1162 1.385 . S
C1159 H1134 0.951 . S
C1159 C1157 1.388 . S
C1159 C1160 1.366 . S
C1160 C1159 1.366 . S
C1160 C1161 1.414 . S
C1160 C1163 1.499 . S
C1161 H1135 0.950 . S
C1161 C1160 1.414 . S
C1161 C1162 1.374 . S
C1162 H1136 0.950 . S
C1162 C1158 1.385 . S
C1162 C1161 1.374 . S
C1163 C1160 1.499 . S
C1163 C1164 1.373 . S
C1163 C1165 1.389 . S
C1164 H1137 0.950 . S
C1164 C1150 1.377 . S
C1164 C1163 1.373 . S
C1165 C1149 1.377 . S
C1165 C1163 1.389 . S
C1165 C1166 1.524 . S
C1166 C1165 1.524 . S
C1166 C1167 1.397 . S
C1166 C1171 1.363 . S
C1167 H1138 0.947 1_556 S
C1167 C1166 1.397 . S
C1167 C1168 1.334 1_556 S
C1168 H1139 0.950 . S
C1168 C1167 1.334 1_554 S
C1168 C1169 1.288 . S
C1169 C1168 1.288 . S
C1169 C1170 1.520 1_554 S
C1169 H1172 1.001 . S
C1170 H1140 0.950 . S
C1170 C1169 1.520 1_556 S
C1170 C1171 1.415 . S
C1171 H1141 0.950 . S
C1171 C1166 1.363 . S
C1171 C1170 1.415 . S
H1172 C1169 1.001 . S
H1173 C1154 0.913 . S
H1174 C1192 0.951 . S
H1175 C1194 0.951 . S
H1176 C1196 0.950 1_556 S
H1177 C1197 0.950 . S
H1178 C1199 0.950 . S
H1179 C1202 0.950 . S
H1180 C1203 0.950 . S
H1181 C1205 0.950 . S
H1182 C1206 0.950 . S
H1183 C1207 0.951 . S
H1184 C1209 0.951 . S
H1185 C1211 0.950 . S
H1186 C1212 0.950 . S
H1187 C1214 0.949 1_554 S
H1188 C1217 0.950 . S
H1189 C1218 0.950 . S
H1190 C1220 0.950 . S
H1191 C1221 0.950 . S
C1192 H1174 0.951 . S
C1192 C1193 1.366 . S
C1192 C1194 1.388 . S
C1193 C1192 1.366 . S
C1193 C1197 1.385 . S
C1194 H1175 0.951 . S
C1194 C1192 1.388 . S
C1194 C1195 1.366 . S
C1195 C1194 1.366 . S
C1195 C1196 1.414 . S
C1195 C1198 1.499 1_554 S
C1196 H1176 0.950 1_554 S
C1196 C1195 1.414 . S
C1196 C1197 1.374 . S
C1197 H1177 0.950 . S
C1197 C1193 1.385 . S
C1197 C1196 1.374 . S
C1198 C1195 1.499 1_556 S
C1198 C1199 1.373 . S
C1198 C1200 1.389 1_556 S
C1199 H1178 0.950 . S
C1199 C1198 1.373 . S
C1199 C1215 1.377 . S
C1200 C1198 1.389 1_554 S
C1200 C1201 1.524 . S
C1200 C1214 1.377 1_554 S
C1201 C1200 1.524 . S
C1201 C1202 1.397 . S
C1201 C1206 1.363 . S
C1202 H1179 0.950 . S
C1202 C1201 1.397 . S
C1202 C1203 1.334 . S
C1203 H1180 0.950 . S
C1203 C1202 1.334 . S
C1203 C1204 1.287 . S
C1204 C1203 1.287 . S
C1204 C1205 1.524 . S
C1204 H1223 0.913 . S
C1205 H1181 0.950 . S
C1205 C1204 1.524 . S
C1205 C1206 1.415 . S
C1206 H1182 0.950 . S
C1206 C1201 1.363 . S
C1206 C1205 1.415 . S
C1207 H1183 0.951 . S
C1207 C1208 1.366 . S
C1207 C1209 1.388 . S
C1208 C1207 1.366 . S
C1208 C1212 1.385 . S
C1209 H1184 0.951 . S
C1209 C1207 1.388 . S
C1209 C1210 1.366 . S
C1210 C1209 1.366 . S
C1210 C1211 1.414 . S
C1210 C1213 1.499 . S
C1211 H1185 0.950 . S
C1211 C1210 1.414 . S
C1211 C1212 1.374 . S
C1212 H1186 0.950 . S
C1212 C1208 1.385 . S
C1212 C1211 1.374 . S
C1213 C1210 1.499 . S
C1213 C1214 1.373 . S
C1213 C1215 1.389 . S
C1214 H1187 0.949 1_556 S
C1214 C1200 1.377 1_556 S
C1214 C1213 1.373 . S
C1215 C1199 1.377 . S
C1215 C1213 1.389 . S
C1215 C1216 1.524 . S
C1216 C1215 1.524 . S
C1216 C1217 1.397 . S
C1216 C1221 1.363 . S
C1217 H1188 0.950 . S
C1217 C1216 1.397 . S
C1217 C1218 1.334 . S
C1218 H1189 0.950 . S
C1218 C1217 1.334 . S
C1218 C1219 1.287 . S
C1219 C1218 1.287 . S
C1219 C1220 1.524 . S
C1219 H1222 0.999 . S
C1220 H1190 0.950 . S
C1220 C1219 1.524 . S
C1220 C1221 1.415 . S
C1221 H1191 0.950 . S
C1221 C1216 1.363 . S
C1221 C1220 1.415 . S
H1222 C1219 0.999 . S
H1223 C1204 0.913 . S
H1224 C1242 0.951 . S
H1225 C1244 0.951 . S
H1226 C1246 0.950 . S
H1227 C1247 0.950 . S
H1228 C1249 0.950 . S
H1229 C1252 0.950 . S
H1230 C1253 0.950 . S
H1231 C1255 0.950 . S
H1232 C1256 0.950 . S
H1233 C1257 0.951 1_655 S
H1234 C1259 0.951 . S
H1235 C1261 0.950 . S
H1236 C1262 0.950 . S
H1237 C1264 0.950 . S
H1238 C1267 0.950 . S
H1239 C1268 0.950 . S
H1240 C1270 0.950 . S
H1241 C1271 0.950 . S
C1242 H1224 0.951 . S
C1242 C1243 1.366 . S
C1242 C1244 1.388 . S
C1243 C1242 1.366 . S
C1243 C1247 1.385 . S
C1244 H1225 0.951 . S
C1244 C1242 1.388 . S
C1244 C1245 1.366 . S
C1245 C1244 1.366 . S
C1245 C1246 1.414 . S
C1245 C1248 1.499 . S
C1246 H1226 0.950 . S
C1246 C1245 1.414 . S
C1246 C1247 1.374 . S
C1247 H1227 0.950 . S
C1247 C1243 1.385 . S
C1247 C1246 1.374 . S
C1248 C1245 1.499 . S
C1248 C1249 1.373 . S
C1248 C1250 1.389 . S
C1249 H1228 0.950 . S
C1249 C1248 1.373 . S
C1249 C1265 1.377 . S
C1250 C1248 1.389 . S
C1250 C1251 1.524 . S
C1250 C1264 1.377 . S
C1251 C1250 1.524 . S
C1251 C1252 1.397 . S
C1251 C1256 1.363 . S
C1252 H1229 0.950 . S
C1252 C1251 1.397 . S
C1252 C1253 1.334 . S
C1253 H1230 0.950 . S
C1253 C1252 1.334 . S
C1253 C1254 1.287 . S
C1254 C1253 1.287 . S
C1254 C1255 1.524 . S
C1254 H1273 0.913 . S
C1255 H1231 0.950 . S
C1255 C1254 1.524 . S
C1255 C1256 1.415 . S
C1256 H1232 0.950 . S
C1256 C1251 1.363 . S
C1256 C1255 1.415 . S
C1257 H1233 0.951 1_455 S
C1257 C1258 1.366 . S
C1257 C1259 1.388 . S
C1258 C1257 1.366 . S
C1258 C1262 1.385 . S
C1259 H1234 0.951 . S
C1259 C1257 1.388 . S
C1259 C1260 1.366 . S
C1260 C1259 1.366 . S
C1260 C1261 1.414 . S
C1260 C1263 1.499 . S
C1261 H1235 0.950 . S
C1261 C1260 1.414 . S
C1261 C1262 1.374 . S
C1262 H1236 0.950 . S
C1262 C1258 1.385 . S
C1262 C1261 1.374 . S
C1263 C1260 1.499 . S
C1263 C1264 1.373 . S
C1263 C1265 1.389 . S
C1264 H1237 0.950 . S
C1264 C1250 1.377 . S
C1264 C1263 1.373 . S
C1265 C1249 1.377 . S
C1265 C1263 1.389 . S
C1265 C1266 1.524 1_455 S
C1266 C1265 1.524 1_655 S
C1266 C1267 1.397 . S
C1266 C1271 1.363 . S
C1267 H1238 0.950 . S
C1267 C1266 1.397 . S
C1267 C1268 1.334 . S
C1268 H1239 0.950 . S
C1268 C1267 1.334 . S
C1268 C1269 1.287 . S
C1269 C1268 1.287 . S
C1269 C1270 1.524 . S
C1269 H1272 0.999 . S
C1270 H1240 0.950 . S
C1270 C1269 1.524 . S
C1270 C1271 1.415 . S
C1271 H1241 0.950 . S
C1271 C1266 1.363 . S
C1271 C1270 1.415 . S
H1272 C1269 0.999 . S
H1273 C1254 0.913 . S
H1274 C1292 0.951 . S
H1275 C1294 0.951 . S
H1276 C1296 0.950 . S
H1277 C1297 0.950 . S
H1278 C1299 0.950 . S
H1279 C1302 0.950 . S
H1280 C1303 0.950 . S
H1281 C1305 0.950 . S
H1282 C1306 0.950 . S
H1283 C1307 0.951 . S
H1284 C1309 0.951 . S
H1285 C1311 0.950 . S
H1286 C1312 0.950 . S
H1287 C1314 0.950 . S
H1288 C1317 0.950 . S
H1289 C1318 0.950 . S
H1290 C1320 0.950 . S
H1291 C1321 0.950 . S
C1292 H1274 0.951 . S
C1292 C1293 1.366 . S
C1292 C1294 1.388 . S
C1293 C1292 1.366 . S
C1293 C1297 1.385 . S
C1294 H1275 0.951 . S
C1294 C1292 1.388 . S
C1294 C1295 1.366 . S
C1295 C1294 1.366 . S
C1295 C1296 1.414 . S
C1295 C1298 1.499 . S
C1296 H1276 0.950 . S
C1296 C1295 1.414 . S
C1296 C1297 1.374 . S
C1297 H1277 0.950 . S
C1297 C1293 1.385 . S
C1297 C1296 1.374 . S
C1298 C1295 1.499 . S
C1298 C1299 1.373 . S
C1298 C1300 1.389 . S
C1299 H1278 0.950 . S
C1299 C1298 1.373 . S
C1299 C1315 1.377 . S
C1300 C1298 1.389 . S
C1300 C1301 1.551 . S
C1300 C1314 1.377 . S
C1301 C1300 1.551 . S
C1301 C1302 1.383 1_545 S
C1301 C1306 1.350 1_545 S
C1302 H1279 0.950 . S
C1302 C1301 1.383 1_565 S
C1302 C1303 1.334 . S
C1303 H1280 0.950 . S
C1303 C1302 1.334 . S
C1303 C1304 1.287 . S
C1304 C1303 1.287 . S
C1304 C1305 1.524 . S
C1304 H1323 0.913 . S
C1305 H1281 0.950 . S
C1305 C1304 1.524 . S
C1305 C1306 1.415 . S
C1306 H1282 0.950 . S
C1306 C1301 1.350 1_565 S
C1306 C1305 1.415 . S
C1307 H1283 0.951 . S
C1307 C1308 1.366 . S
C1307 C1309 1.388 . S
C1308 C1307 1.366 . S
C1308 C1312 1.385 . S
C1309 H1284 0.951 . S
C1309 C1307 1.388 . S
C1309 C1310 1.366 . S
C1310 C1309 1.366 . S
C1310 C1311 1.414 . S
C1310 C1313 1.499 . S
C1311 H1285 0.950 . S
C1311 C1310 1.414 . S
C1311 C1312 1.374 . S
C1312 H1286 0.950 . S
C1312 C1308 1.385 . S
C1312 C1311 1.374 . S
C1313 C1310 1.499 . S
C1313 C1314 1.373 . S
C1313 C1315 1.389 . S
C1314 H1287 0.950 . S
C1314 C1300 1.377 . S
C1314 C1313 1.373 . S
C1315 C1299 1.377 . S
C1315 C1313 1.389 . S
C1315 C1316 1.524 . S
C1316 C1315 1.524 . S
C1316 C1317 1.397 . S
C1316 C1321 1.363 . S
C1317 H1288 0.950 . S
C1317 C1316 1.397 . S
C1317 C1318 1.334 . S
C1318 H1289 0.950 . S
C1318 C1317 1.334 . S
C1318 C1319 1.287 . S
C1319 C1318 1.287 . S
C1319 C1320 1.524 . S
C1319 H1322 0.999 . S
C1320 H1290 0.950 . S
C1320 C1319 1.524 . S
C1320 C1321 1.415 . S
C1321 H1291 0.950 . S
C1321 C1316 1.363 . S
C1321 C1320 1.415 . S
H1322 C1319 0.999 . S
H1323 C1304 0.913 . S
H1324 C1342 0.951 . S
H1325 C1344 0.951 . S
H1326 C1346 0.950 . S
H1327 C1347 0.950 . S
H1328 C1349 0.950 . S
H1329 C1352 0.950 . S
H1330 C1353 0.950 1_554 S
H1331 C1355 0.950 1_554 S
H1332 C1356 0.950 . S
H1333 C1357 0.951 . S
H1334 C1359 0.951 . S
H1335 C1361 0.950 . S
H1336 C1362 0.950 . S
H1337 C1364 0.950 . S
H1338 C1367 0.950 . S
H1339 C1368 0.950 . S
H1340 C1370 0.950 . S
H1341 C1371 0.950 . S
C1342 H1324 0.951 . S
C1342 C1343 1.366 . S
C1342 C1344 1.388 . S
C1343 C1342 1.366 . S
C1343 C1347 1.385 . S
C1344 H1325 0.951 . S
C1344 C1342 1.388 . S
C1344 C1345 1.366 . S
C1345 C1344 1.366 . S
C1345 C1346 1.414 . S
C1345 C1348 1.499 . S
C1346 H1326 0.950 . S
C1346 C1345 1.414 . S
C1346 C1347 1.374 . S
C1347 H1327 0.950 . S
C1347 C1343 1.385 . S
C1347 C1346 1.374 . S
C1348 C1345 1.499 . S
C1348 C1349 1.373 . S
C1348 C1350 1.389 . S
C1349 H1328 0.950 . S
C1349 C1348 1.373 . S
C1349 C1365 1.377 . S
C1350 C1348 1.389 . S
C1350 C1351 1.524 . S
C1350 C1364 1.377 . S
C1351 C1350 1.524 . S
C1351 C1352 1.397 . S
C1351 C1356 1.363 . S
C1352 H1329 0.950 . S
C1352 C1351 1.397 . S
C1352 C1353 1.334 . S
C1353 H1330 0.950 1_556 S
C1353 C1352 1.334 . S
C1353 C1354 1.287 1_556 S
C1354 C1353 1.287 1_554 S
C1354 C1355 1.524 1_554 S
C1354 H1373 0.913 . S
C1355 H1331 0.950 1_556 S
C1355 C1354 1.524 1_556 S
C1355 C1356 1.415 . S
C1356 H1332 0.950 . S
C1356 C1351 1.363 . S
C1356 C1355 1.415 . S
C1357 H1333 0.951 . S
C1357 C1358 1.366 . S
C1357 C1359 1.388 . S
C1358 C1357 1.366 . S
C1358 C1362 1.385 . S
C1359 H1334 0.951 . S
C1359 C1357 1.388 . S
C1359 C1360 1.366 . S
C1360 C1359 1.366 . S
C1360 C1361 1.414 . S
C1360 C1363 1.499 . S
C1361 H1335 0.950 . S
C1361 C1360 1.414 . S
C1361 C1362 1.374 . S
C1362 H1336 0.950 . S
C1362 C1358 1.385 . S
C1362 C1361 1.374 . S
C1363 C1360 1.499 . S
C1363 C1364 1.373 . S
C1363 C1365 1.389 . S
C1364 H1337 0.950 . S
C1364 C1350 1.377 . S
C1364 C1363 1.373 . S
C1365 C1349 1.377 . S
C1365 C1363 1.389 . S
C1365 C1366 1.524 . S
C1366 C1365 1.524 . S
C1366 C1367 1.397 . S
C1366 C1371 1.363 . S
C1367 H1338 0.950 . S
C1367 C1366 1.397 . S
C1367 C1368 1.334 . S
C1368 H1339 0.950 . S
C1368 C1367 1.334 . S
C1368 C1369 1.287 . S
C1369 C1368 1.287 . S
C1369 C1370 1.524 . S
C1369 H1372 0.999 . S
C1370 H1340 0.950 . S
C1370 C1369 1.524 . S
C1370 C1371 1.415 . S
C1371 H1341 0.950 . S
C1371 C1366 1.363 . S
C1371 C1370 1.415 . S
H1372 C1369 0.999 . S
H1373 C1354 0.913 . S
H1374 C1392 0.951 . S
H1375 C1394 0.951 . S
H1376 C1396 0.950 . S
H1377 C1397 0.950 . S
H1378 C1399 0.950 . S
H1379 C1402 0.950 . S
H1380 C1403 0.950 . S
H1381 C1405 0.950 . S
H1382 C1406 0.950 . S
H1383 C1407 0.951 . S
H1384 C1409 0.951 . S
H1385 C1411 0.950 . S
H1386 C1412 0.950 . S
H1387 C1414 0.950 . S
H1388 C1417 0.950 . S
H1389 C1418 0.950 . S
H1390 C1420 0.950 . S
H1391 C1421 0.950 . S
C1392 H1374 0.951 . S
C1392 C1393 1.366 . S
C1392 C1394 1.388 . S
C1393 C1392 1.366 . S
C1393 C1397 1.385 . S
C1394 H1375 0.951 . S
C1394 C1392 1.388 . S
C1394 C1395 1.366 . S
C1395 C1394 1.366 . S
C1395 C1396 1.414 . S
C1395 C1398 1.499 . S
C1396 H1376 0.950 . S
C1396 C1395 1.414 . S
C1396 C1397 1.374 . S
C1397 H1377 0.950 . S
C1397 C1393 1.385 . S
C1397 C1396 1.374 . S
C1398 C1395 1.499 . S
C1398 C1399 1.373 . S
C1398 C1400 1.389 . S
C1399 H1378 0.950 . S
C1399 C1398 1.373 . S
C1399 C1415 1.377 . S
C1400 C1398 1.389 . S
C1400 C1401 1.524 . S
C1400 C1414 1.377 . S
C1401 C1400 1.524 . S
C1401 C1402 1.397 . S
C1401 C1406 1.363 . S
C1402 H1379 0.950 . S
C1402 C1401 1.397 . S
C1402 C1403 1.334 . S
C1403 H1380 0.950 . S
C1403 C1402 1.334 . S
C1403 C1404 1.287 . S
C1404 C1403 1.287 . S
C1404 C1405 1.524 . S
C1404 H1423 0.913 . S
C1405 H1381 0.950 . S
C1405 C1404 1.524 . S
C1405 C1406 1.415 . S
C1406 H1382 0.950 . S
C1406 C1401 1.363 . S
C1406 C1405 1.415 . S
C1407 H1383 0.951 . S
C1407 C1408 1.366 . S
C1407 C1409 1.388 . S
C1408 C1407 1.366 . S
C1408 C1412 1.385 . S
C1409 H1384 0.951 . S
C1409 C1407 1.388 . S
C1409 C1410 1.366 . S
C1410 C1409 1.366 . S
C1410 C1411 1.414 . S
C1410 C1413 1.499 . S
C1411 H1385 0.950 . S
C1411 C1410 1.414 . S
C1411 C1412 1.374 . S
C1412 H1386 0.950 . S
C1412 C1408 1.385 . S
C1412 C1411 1.374 . S
C1413 C1410 1.499 . S
C1413 C1414 1.373 . S
C1413 C1415 1.389 . S
C1414 H1387 0.950 . S
C1414 C1400 1.377 . S
C1414 C1413 1.373 . S
C1415 C1399 1.377 . S
C1415 C1413 1.389 . S
C1415 C1416 1.524 . S
C1416 C1415 1.524 . S
C1416 C1417 1.397 . S
C1416 C1421 1.363 . S
C1417 H1388 0.950 . S
C1417 C1416 1.397 . S
C1417 C1418 1.334 . S
C1418 H1389 0.950 . S
C1418 C1417 1.334 . S
C1418 C1419 1.287 . S
C1419 C1418 1.287 . S
C1419 C1420 1.524 . S
C1419 H1422 0.999 . S
C1420 H1390 0.950 . S
C1420 C1419 1.524 . S
C1420 C1421 1.415 . S
C1421 H1391 0.950 . S
C1421 C1416 1.363 . S
C1421 C1420 1.415 . S
H1422 C1419 0.999 . S
H1423 C1404 0.913 . S
H1424 C1442 0.951 1_455 S
H1425 C1444 0.951 1_455 S
H1426 C1446 0.950 . S
H1427 C1447 0.950 . S
H1428 C1449 0.950 . S
H1429 C1452 0.950 . S
H1430 C1453 0.950 . S
H1431 C1455 0.950 . S
H1432 C1456 0.950 . S
H1433 C1457 0.951 . S
H1434 C1459 0.951 . S
H1435 C1461 0.950 . S
H1436 C1462 0.950 . S
H1437 C1464 0.950 1_455 S
H1438 C1467 0.950 . S
H1439 C1468 0.950 . S
H1440 C1470 0.950 . S
H1441 C1471 0.950 . S
C1442 H1424 0.951 1_655 S
C1442 C1443 1.366 . S
C1442 C1444 1.388 . S
C1443 C1442 1.366 . S
C1443 C1447 1.385 . S
C1444 H1425 0.951 1_655 S
C1444 C1442 1.388 . S
C1444 C1445 1.366 . S
C1445 C1444 1.366 . S
C1445 C1446 1.414 . S
C1445 C1448 1.499 . S
C1446 H1426 0.950 . S
C1446 C1445 1.414 . S
C1446 C1447 1.374 . S
C1447 H1427 0.950 . S
C1447 C1443 1.385 . S
C1447 C1446 1.374 . S
C1448 C1445 1.499 . S
C1448 C1449 1.373 . S
C1448 C1450 1.389 . S
C1449 H1428 0.950 . S
C1449 C1448 1.373 . S
C1449 C1465 1.377 . S
C1450 C1448 1.389 . S
C1450 C1451 1.518 1_655 S
C1450 C1464 1.377 . S
C1451 C1450 1.518 1_455 S
C1451 C1452 1.387 1_455 S
C1451 C1456 1.379 . S
C1452 H1429 0.950 . S
C1452 C1451 1.387 1_655 S
C1452 C1453 1.334 . S
C1453 H1430 0.950 . S
C1453 C1452 1.334 . S
C1453 C1454 1.287 1_655 S
C1454 C1453 1.287 1_455 S
C1454 C1455 1.524 . S
C1454 H1473 0.913 . S
C1455 H1431 0.950 . S
C1455 C1454 1.524 . S
C1455 C1456 1.415 . S
C1456 H1432 0.950 . S
C1456 C1451 1.379 . S
C1456 C1455 1.415 . S
C1457 H1433 0.951 . S
C1457 C1458 1.366 . S
C1457 C1459 1.388 . S
C1458 C1457 1.366 . S
C1458 C1462 1.385 1_655 S
C1459 H1434 0.951 . S
C1459 C1457 1.388 . S
C1459 C1460 1.366 . S
C1460 C1459 1.366 . S
C1460 C1461 1.414 1_655 S
C1460 C1463 1.499 . S
C1461 H1435 0.950 . S
C1461 C1460 1.414 1_455 S
C1461 C1462 1.374 . S
C1462 H1436 0.950 . S
C1462 C1458 1.385 1_455 S
C1462 C1461 1.374 . S
C1463 C1460 1.499 . S
C1463 C1464 1.373 . S
C1463 C1465 1.389 . S
C1464 H1437 0.950 1_655 S
C1464 C1450 1.377 . S
C1464 C1463 1.373 . S
C1465 C1449 1.377 . S
C1465 C1463 1.389 . S
C1465 C1466 1.524 . S
C1466 C1465 1.524 . S
C1466 C1467 1.397 . S
C1466 C1471 1.363 . S
C1467 H1438 0.950 . S
C1467 C1466 1.397 . S
C1467 C1468 1.334 . S
C1468 H1439 0.950 . S
C1468 C1467 1.334 . S
C1468 C1469 1.287 . S
C1469 C1468 1.287 . S
C1469 C1470 1.524 . S
C1469 H1472 0.999 . S
C1470 H1440 0.950 . S
C1470 C1469 1.524 . S
C1470 C1471 1.415 . S
C1471 H1441 0.950 . S
C1471 C1466 1.363 . S
C1471 C1470 1.415 . S
H1472 C1469 0.999 . S
H1473 C1454 0.913 . S
H1474 C1492 0.951 . S
H1475 C1494 0.951 . S
H1476 C1496 0.950 . S
H1477 C1497 0.950 . S
H1478 C1499 0.955 . S
H1479 C1502 0.950 . S
H1480 C1503 0.950 . S
H1481 C1505 0.950 . S
H1482 C1506 0.950 . S
H1483 C1507 0.951 . S
H1484 C1509 0.951 . S
H1485 C1511 0.950 . S
H1486 C1512 0.950 1_545 S
H1487 C1514 0.950 . S
H1488 C1517 0.950 . S
H1489 C1518 0.950 . S
H1490 C1520 0.950 . S
H1491 C1521 0.950 . S
C1492 H1474 0.951 . S
C1492 C1493 1.366 . S
C1492 C1494 1.388 . S
C1493 C1492 1.366 . S
C1493 C1497 1.385 . S
C1494 H1475 0.951 . S
C1494 C1492 1.388 . S
C1494 C1495 1.366 . S
C1495 C1494 1.366 . S
C1495 C1496 1.414 . S
C1495 C1498 1.499 . S
C1496 H1476 0.950 . S
C1496 C1495 1.414 . S
C1496 C1497 1.374 . S
C1497 H1477 0.950 . S
C1497 C1493 1.385 . S
C1497 C1496 1.374 . S
C1498 C1495 1.499 . S
C1498 C1499 1.373 . S
C1498 C1500 1.389 . S
C1499 H1478 0.955 . S
C1499 C1498 1.373 . S
C1499 C1515 1.377 . S
C1500 C1498 1.389 . S
C1500 C1501 1.524 . S
C1500 C1514 1.377 . S
C1501 C1500 1.524 . S
C1501 C1502 1.397 . S
C1501 C1506 1.363 . S
C1502 H1479 0.950 . S
C1502 C1501 1.397 . S
C1502 C1503 1.334 . S
C1503 H1480 0.950 . S
C1503 C1502 1.334 . S
C1503 C1504 1.287 . S
C1504 C1503 1.287 . S
C1504 C1505 1.524 . S
C1504 H1523 0.913 . S
C1505 H1481 0.950 . S
C1505 C1504 1.524 . S
C1505 C1506 1.415 . S
C1506 H1482 0.950 . S
C1506 C1501 1.363 . S
C1506 C1505 1.415 . S
C1507 H1483 0.951 . S
C1507 C1508 1.366 . S
C1507 C1509 1.388 . S
C1508 C1507 1.366 . S
C1508 C1512 1.385 . S
C1509 H1484 0.951 . S
C1509 C1507 1.388 . S
C1509 C1510 1.366 . S
C1510 C1509 1.366 . S
C1510 C1511 1.414 . S
C1510 C1513 1.499 . S
C1511 H1485 0.950 . S
C1511 C1510 1.414 . S
C1511 C1512 1.374 . S
C1512 H1486 0.950 1_565 S
C1512 C1508 1.385 . S
C1512 C1511 1.374 . S
C1513 C1510 1.499 . S
C1513 C1514 1.373 . S
C1513 C1515 1.389 . S
C1514 H1487 0.950 . S
C1514 C1500 1.377 . S
C1514 C1513 1.373 . S
C1515 C1499 1.377 . S
C1515 C1513 1.389 . S
C1515 C1516 1.524 1_565 S
C1516 C1515 1.524 1_545 S
C1516 C1517 1.397 . S
C1516 C1521 1.363 . S
C1517 H1488 0.950 . S
C1517 C1516 1.397 . S
C1517 C1518 1.334 . S
C1518 H1489 0.950 . S
C1518 C1517 1.334 . S
C1518 C1519 1.287 . S
C1519 C1518 1.287 . S
C1519 C1520 1.524 . S
C1519 H1522 0.999 . S
C1520 H1490 0.950 . S
C1520 C1519 1.524 . S
C1520 C1521 1.415 . S
C1521 H1491 0.950 . S
C1521 C1516 1.363 . S
C1521 C1520 1.415 . S
H1522 C1519 0.999 . S
H1523 C1504 0.913 . S
H1524 C1542 0.951 . S
H1525 C1544 0.951 . S
H1526 C1546 0.950 . S
H1527 C1547 0.950 . S
H1528 C1549 0.950 . S
H1529 C1552 0.950 . S
H1530 C1553 0.950 . S
H1531 C1555 0.950 . S
H1532 C1556 0.950 . S
H1533 C1557 0.951 . S
H1534 C1559 0.951 . S
H1535 C1561 0.950 . S
H1536 C1562 0.950 . S
H1537 C1564 0.950 . S
H1538 C1567 0.950 . S
H1539 C1568 0.950 . S
H1540 C1570 0.950 . S
H1541 C1571 0.950 . S
C1542 H1524 0.951 . S
C1542 C1543 1.366 . S
C1542 C1544 1.388 . S
C1543 C1542 1.366 . S
C1543 C1547 1.385 . S
C1544 H1525 0.951 . S
C1544 C1542 1.388 . S
C1544 C1545 1.366 . S
C1545 C1544 1.366 . S
C1545 C1546 1.414 . S
C1545 C1548 1.499 . S
C1546 H1526 0.950 . S
C1546 C1545 1.414 . S
C1546 C1547 1.374 . S
C1547 H1527 0.950 . S
C1547 C1543 1.385 . S
C1547 C1546 1.374 . S
C1548 C1545 1.499 . S
C1548 C1549 1.373 . S
C1548 C1550 1.389 . S
C1549 H1528 0.950 . S
C1549 C1548 1.373 . S
C1549 C1565 1.377 . S
C1550 C1548 1.389 . S
C1550 C1551 1.524 . S
C1550 C1564 1.377 . S
C1551 C1550 1.524 . S
C1551 C1552 1.397 . S
C1551 C1556 1.363 . S
C1552 H1529 0.950 . S
C1552 C1551 1.397 . S
C1552 C1553 1.334 . S
C1553 H1530 0.950 . S
C1553 C1552 1.334 . S
C1553 C1554 1.287 . S
C1554 C1553 1.287 . S
C1554 C1555 1.524 . S
C1554 H1573 0.913 . S
C1555 H1531 0.950 . S
C1555 C1554 1.524 . S
C1555 C1556 1.415 . S
C1556 H1532 0.950 . S
C1556 C1551 1.363 . S
C1556 C1555 1.415 . S
C1557 H1533 0.951 . S
C1557 C1558 1.366 . S
C1557 C1559 1.388 . S
C1558 C1557 1.366 . S
C1558 C1562 1.385 . S
C1559 H1534 0.951 . S
C1559 C1557 1.388 . S
C1559 C1560 1.366 . S
C1560 C1559 1.366 . S
C1560 C1561 1.414 . S
C1560 C1563 1.499 . S
C1561 H1535 0.950 . S
C1561 C1560 1.414 . S
C1561 C1562 1.374 . S
C1562 H1536 0.950 . S
C1562 C1558 1.385 . S
C1562 C1561 1.374 . S
C1563 C1560 1.499 . S
C1563 C1564 1.373 . S
C1563 C1565 1.389 . S
C1564 H1537 0.950 . S
C1564 C1550 1.377 . S
C1564 C1563 1.373 . S
C1565 C1549 1.377 . S
C1565 C1563 1.389 . S
C1565 C1566 1.524 . S
C1566 C1565 1.524 . S
C1566 C1567 1.397 . S
C1566 C1571 1.363 . S
C1567 H1538 0.950 . S
C1567 C1566 1.397 . S
C1567 C1568 1.334 . S
C1568 H1539 0.950 . S
C1568 C1567 1.334 . S
C1568 C1569 1.287 . S
C1569 C1568 1.287 . S
C1569 C1570 1.524 . S
C1569 H1572 0.999 . S
C1570 H1540 0.950 . S
C1570 C1569 1.524 . S
C1570 C1571 1.415 . S
C1571 H1541 0.950 . S
C1571 C1566 1.363 . S
C1571 C1570 1.415 . S
H1572 C1569 0.999 . S
H1573 C1554 0.913 . S
H1574 C1592 0.951 . S
H1575 C1594 0.951 . S
H1576 C1596 0.950 . S
H1577 C1597 0.950 . S
H1578 C1599 0.950 . S
H1579 C1602 0.950 . S
H1580 C1603 0.950 . S
H1581 C1605 0.950 . S
H1582 C1606 0.950 . S
H1583 C1607 0.951 . S
H1584 C1609 0.951 . S
H1585 C1611 0.950 . S
H1586 C1612 0.950 . S
H1587 C1614 0.950 . S
H1588 C1617 0.950 . S
H1589 C1618 0.950 . S
H1590 C1620 0.950 . S
H1591 C1621 0.950 . S
C1592 H1574 0.951 . S
C1592 C1593 1.366 . S
C1592 C1594 1.388 . S
C1593 C1592 1.366 . S
C1593 C1597 1.385 . S
C1594 H1575 0.951 . S
C1594 C1592 1.388 . S
C1594 C1595 1.366 . S
C1595 C1594 1.366 . S
C1595 C1596 1.414 . S
C1595 C1598 1.499 . S
C1596 H1576 0.950 . S
C1596 C1595 1.414 . S
C1596 C1597 1.374 . S
C1597 H1577 0.950 . S
C1597 C1593 1.385 . S
C1597 C1596 1.374 . S
C1598 C1595 1.499 . S
C1598 C1599 1.373 . S
C1598 C1600 1.389 . S
C1599 H1578 0.950 . S
C1599 C1598 1.373 . S
C1599 C1615 1.377 . S
C1600 C1598 1.389 . S
C1600 C1601 1.524 . S
C1600 C1614 1.377 . S
C1601 C1600 1.524 . S
C1601 C1602 1.397 . S
C1601 C1606 1.363 . S
C1602 H1579 0.950 . S
C1602 C1601 1.397 . S
C1602 C1603 1.334 . S
C1603 H1580 0.950 . S
C1603 C1602 1.334 . S
C1603 C1604 1.287 . S
C1604 C1603 1.287 . S
C1604 C1605 1.524 . S
C1604 H1623 0.913 . S
C1605 H1581 0.950 . S
C1605 C1604 1.524 . S
C1605 C1606 1.415 . S
C1606 H1582 0.950 . S
C1606 C1601 1.363 . S
C1606 C1605 1.415 . S
C1607 H1583 0.951 . S
C1607 C1608 1.366 . S
C1607 C1609 1.388 . S
C1608 C1607 1.366 . S
C1608 C1612 1.385 . S
C1609 H1584 0.951 . S
C1609 C1607 1.388 . S
C1609 C1610 1.366 . S
C1610 C1609 1.366 . S
C1610 C1611 1.414 . S
C1610 C1613 1.499 . S
C1611 H1585 0.950 . S
C1611 C1610 1.414 . S
C1611 C1612 1.374 . S
C1612 H1586 0.950 . S
C1612 C1608 1.385 . S
C1612 C1611 1.374 . S
C1613 C1610 1.499 . S
C1613 C1614 1.373 . S
C1613 C1615 1.389 . S
C1614 H1587 0.950 . S
C1614 C1600 1.377 . S
C1614 C1613 1.373 . S
C1615 C1599 1.377 . S
C1615 C1613 1.389 . S
C1615 C1616 1.524 . S
C1616 C1615 1.524 . S
C1616 C1617 1.397 . S
C1616 C1621 1.363 . S
C1617 H1588 0.950 . S
C1617 C1616 1.397 . S
C1617 C1618 1.334 . S
C1618 H1589 0.950 . S
C1618 C1617 1.334 . S
C1618 C1619 1.287 . S
C1619 C1618 1.287 . S
C1619 C1620 1.524 . S
C1619 H1622 0.999 . S
C1620 H1590 0.950 . S
C1620 C1619 1.524 . S
C1620 C1621 1.415 . S
C1621 H1591 0.950 . S
C1621 C1616 1.363 . S
C1621 C1620 1.415 . S
H1622 C1619 0.999 . S
H1623 C1604 0.913 . S
C443 C74 1.813 . S
C458 C151 1.860 . S
C508 C228 1.876 . S
C493 C85 1.821 . S
C558 C319 1.847 . S
C543 C52 1.800 . S
C608 C403 1.836 . S
C593 C63 1.790 . S
C658 C162 1.862 . S
C643 C30 1.782 . S
C693 C41 1.789 . S
C708 C239 1.876 . S
C743 C8 1.769 . S
C758 C330 1.847 . S
C793 C19 1.760 . S
C808 C414 1.836 1_655 S
C858 C146 0.609 1_455 S
C843 C62 0.561 . S
C908 C241 0.604 . S
C893 C73 0.521 . S
C958 C314 0.612 . S
C943 C84 0.564 . S
C993 C51 0.542 . S
C1008 C398 0.596 . S
C1043 C18 0.596 . S
C1058 C157 0.608 . S
C1108 C230 0.605 . S
C1093 C29 0.567 . S
C1158 C325 0.612 . S
C1143 C40 0.600 . S
C1193 C7 0.581 . S
C1208 C409 0.597 . S
C1243 C60 1.641 . S
C1258 C155 1.982 . S
C1293 C71 1.638 . S
C1308 C246 1.976 . S
C1358 C323 2.003 . S
C1343 C82 1.661 . S
C1408 C407 2.008 . S
C1393 C49 1.662 . S
C1443 C16 1.517 . S
C1458 C144 1.982 . S
C1508 C235 1.977 1_565 S
C1493 C27 1.506 . S
C1558 C312 2.004 . S
C1543 C38 1.532 . S
C1593 C5 1.539 . S
C1608 C396 2.009 . S
