# Generated by pormake.
# Topology zzz, (3,6)-cn, num edge types: 1
# Building blocks:
#     Node 0, Type 0, BuildingBlock: WUSLED_clean_sbu_0, # of connection points: 3
#     Node 1, Type 0, BuildingBlock: WUSLED_clean_sbu_0, # of connection points: 3
#     Node 2, Type 0, BuildingBlock: WUSLED_clean_sbu_0, # of connection points: 3
#     Node 3, Type 0, BuildingBlock: WUSLED_clean_sbu_0, # of connection points: 3
#     Node 4, Type 0, BuildingBlock: WUSLED_clean_sbu_0, # of connection points: 3
#     Node 5, Type 0, BuildingBlock: WUSLED_clean_sbu_0, # of connection points: 3
#     Node 6, Type 0, BuildingBlock: WUSLED_clean_sbu_0, # of connection points: 3
#     Node 7, Type 0, BuildingBlock: WUSLED_clean_sbu_0, # of connection points: 3
#     Node 8, Type 1, BuildingBlock: KUMBUR_clean_sbu_1, # of connection points: 6
#     Node 9, Type 1, BuildingBlock: KUMBUR_clean_sbu_1, # of connection points: 6
#     Node 10, Type 1, BuildingBlock: KUMBUR_clean_sbu_1, # of connection points: 6
#     Node 11, Type 1, BuildingBlock: KUMBUR_clean_sbu_1, # of connection points: 6
#     Edge 12, Type (0, 1), BuildingBlock: KIFKEQ_clean_linker_1, # of connection points: 2
#     Edge 13, Type (0, 1), BuildingBlock: KIFKEQ_clean_linker_1, # of connection points: 2
#     Edge 14, Type (0, 1), BuildingBlock: KIFKEQ_clean_linker_1, # of connection points: 2
#     Edge 15, Type (0, 1), BuildingBlock: KIFKEQ_clean_linker_1, # of connection points: 2
#     Edge 16, Type (0, 1), BuildingBlock: KIFKEQ_clean_linker_1, # of connection points: 2
#     Edge 17, Type (0, 1), BuildingBlock: KIFKEQ_clean_linker_1, # of connection points: 2
#     Edge 18, Type (0, 1), BuildingBlock: KIFKEQ_clean_linker_1, # of connection points: 2
#     Edge 19, Type (0, 1), BuildingBlock: KIFKEQ_clean_linker_1, # of connection points: 2
#     Edge 20, Type (0, 1), BuildingBlock: KIFKEQ_clean_linker_1, # of connection points: 2
#     Edge 21, Type (0, 1), BuildingBlock: KIFKEQ_clean_linker_1, # of connection points: 2
#     Edge 22, Type (0, 1), BuildingBlock: KIFKEQ_clean_linker_1, # of connection points: 2
#     Edge 23, Type (0, 1), BuildingBlock: KIFKEQ_clean_linker_1, # of connection points: 2
#     Edge 24, Type (0, 1), BuildingBlock: KIFKEQ_clean_linker_1, # of connection points: 2
#     Edge 25, Type (0, 1), BuildingBlock: KIFKEQ_clean_linker_1, # of connection points: 2
#     Edge 26, Type (0, 1), BuildingBlock: KIFKEQ_clean_linker_1, # of connection points: 2
#     Edge 27, Type (0, 1), BuildingBlock: KIFKEQ_clean_linker_1, # of connection points: 2
#     Edge 28, Type (0, 1), BuildingBlock: KIFKEQ_clean_linker_1, # of connection points: 2
#     Edge 29, Type (0, 1), BuildingBlock: KIFKEQ_clean_linker_1, # of connection points: 2
#     Edge 30, Type (0, 1), BuildingBlock: KIFKEQ_clean_linker_1, # of connection points: 2
#     Edge 31, Type (0, 1), BuildingBlock: KIFKEQ_clean_linker_1, # of connection points: 2
#     Edge 32, Type (0, 1), BuildingBlock: KIFKEQ_clean_linker_1, # of connection points: 2
#     Edge 33, Type (0, 1), BuildingBlock: KIFKEQ_clean_linker_1, # of connection points: 2
#     Edge 34, Type (0, 1), BuildingBlock: KIFKEQ_clean_linker_1, # of connection points: 2
#     Edge 35, Type (0, 1), BuildingBlock: KIFKEQ_clean_linker_1, # of connection points: 2
# Relax obj value: 0.286
# Max RMSD: 0.200
# Mean RMSD: 0.174
data_MOF--net-zzz--node1-WUSLED_clean_sbu_0--node2-KUMBUR_clean_sbu_1--edge1-KIFKEQ_clean_linker_1
_symmetry_space_group_name_H-M    P1
_symmetry_Int_Tables_number       1
_symmetry_cell_setting            triclinic
loop_
_symmetry_equiv_pos_as_xyz
'x, y, z'
_cell_length_a     61.797142
_cell_length_b     61.656608
_cell_length_c     22.637065
_cell_angle_alpha  90.208028
_cell_angle_beta   89.753618
_cell_angle_gamma 90.486782
loop_
_atom_site_label
_atom_site_type_symbol
_atom_site_fract_x
_atom_site_fract_y
_atom_site_fract_z
_atom_type_partial_charge
C0 C 0.79887 0.52851 0.27485 0.0
C1 C 0.81612 0.51503 0.25777 0.0
C2 C 0.83874 0.52891 0.33836 0.0
C3 C 0.83574 0.51527 0.28891 0.0
C4 C 0.82165 0.54275 0.35453 0.0
C5 C 0.80202 0.54248 0.32345 0.0
U6 U 0.75292 0.54009 0.15968 0.0
O7 O 0.73062 0.51595 0.12137 0.0
O8 O 0.71757 0.54279 0.17382 0.0
C9 C 0.71319 0.52624 0.13891 0.0
C10 C 0.77696 0.52595 0.24751 0.0
C11 C 0.69627 0.52951 0.0934 0.0
C12 C 0.65805 0.5294 0.06657 0.0
C13 C 0.67433 0.52806 0.10942 0.0
C14 C 0.68534 0.53404 0.99067 0.0
C15 C 0.66331 0.53211 1.0064 0.0
C16 C 0.70161 0.53282 0.03364 0.0
C17 C 0.79168 0.57868 0.08036 0.0
C18 C 0.81649 0.59965 0.01953 0.0
C19 C 0.83001 0.57907 0.10244 0.0
C20 C 0.80895 0.57238 0.11615 0.0
C21 C 0.83411 0.59214 0.05264 0.0
C22 C 0.79543 0.59289 0.03324 0.0
C23 C 0.77031 0.56854 0.08739 0.0
O24 O 0.76342 0.54221 0.25266 0.0
O25 O 0.77581 0.51632 0.19566 0.0
O26 O 0.7699 0.54757 0.07692 0.0
O27 O 0.75932 0.57409 0.13485 0.0
H28 H 0.81429 0.50382 0.22115 0.0
H29 H 0.84854 0.50459 0.27439 0.0
H30 H 0.82311 0.55329 0.39268 0.0
H31 H 0.78903 0.55279 0.33879 0.0
H32 H 0.64134 0.52763 0.08043 0.0
H33 H 0.66977 0.52541 0.15512 0.0
H34 H 0.69004 0.53644 0.94501 0.0
H35 H 0.7184 0.53412 0.01997 0.0
H36 H 0.8191 0.6099 0.98136 0.0
H37 H 0.84318 0.57274 0.12845 0.0
H38 H 0.80628 0.56132 0.15264 0.0
H39 H 0.7822 0.59791 1.00529 0.0
C40 C 0.99589 0.79321 0.3416 0.0
C41 C 1.00255 0.81182 0.31049 0.0
C42 C 0.99795 0.83452 0.39924 0.0
C43 C 1.00353 0.8322 0.33889 0.0
C44 C 0.99113 0.81576 0.42977 0.0
C45 C 0.99011 0.79549 0.40136 0.0
U46 U 0.99207 0.75003 0.21311 0.0
O47 O 0.97579 0.718 0.21349 0.0
O48 O 1.01101 0.71998 0.20483 0.0
C49 C 0.99376 0.70741 0.20254 0.0
C50 C 0.99579 0.77108 0.31468 0.0
C51 C 0.9932 0.69142 0.15308 0.0
C52 C 1.00072 0.65494 0.11639 0.0
C53 C 1.00047 0.67022 0.16255 0.0
C54 C 0.98617 0.6817 0.05001 0.0
C55 C 0.99369 0.66042 0.05921 0.0
C56 C 0.986 0.69703 0.09632 0.0
C57 C 0.9869 0.7943 0.09254 0.0
C58 C 0.97842 0.8174 1.0096 0.0
C59 C 1.00339 0.83002 0.08476 0.0
C60 C 1.00029 0.81069 0.11581 0.0
C61 C 0.99324 0.83314 0.02993 0.0
C62 C 0.9753 0.79814 0.04072 0.0
C63 C 0.98737 0.77209 0.1154 0.0
O64 O 0.97726 0.76369 0.29411 0.0
O65 O 0.01236 0.7658 0.28109 0.0
O66 O 1.00618 0.7655 0.13502 0.0
O67 O 0.97086 0.76563 0.14782 0.0
H68 H 1.00714 0.81059 0.26443 0.0
H69 H 1.00857 0.84617 0.31329 0.0
H70 H 0.98703 0.81655 0.47625 0.0
H71 H 0.9851 0.78141 0.42661 0.0
H72 H 1.00632 0.63873 0.12575 0.0
H73 H 1.00607 0.66545 0.20585 0.0
H74 H 0.98083 0.68667 1.00667 0.0
H75 H 0.98044 0.71332 0.08766 0.0
H76 H 0.97047 0.81915 0.96736 0.0
H77 H 0.01464 0.84201 0.102 0.0
H78 H 1.00937 0.80802 0.15589 0.0
H79 H 0.96495 0.78562 0.02208 0.0
C80 C 0.74164 0.01743 0.33183 0.0
C81 C 0.72238 0.01767 0.29872 0.0
C82 C 0.70041 0.01488 0.38886 0.0
C83 C 0.70207 0.01617 0.32682 0.0
C84 C 0.7197 0.01461 0.42175 0.0
C85 C 0.73998 0.0158 0.39362 0.0
U86 U 0.78845 1.00354 0.22124 0.0
O87 O 0.82405 1.00275 0.23243 0.0
O88 O 0.80931 0.02728 0.17599 0.0
C89 C 0.82734 0.01821 0.19338 0.0
C90 C 0.76346 0.02045 0.30412 0.0
C91 C 0.84341 1.01397 0.14576 0.0
C92 C 0.88034 0.01744 0.10808 0.0
C93 C 0.86529 0.01934 0.15444 0.0
C94 C 0.85196 1.00436 0.04359 0.0
C95 C 0.87385 1.01025 0.05165 0.0
C96 C 0.83695 1.00614 0.09008 0.0
C97 C 0.7498 0.96298 0.15357 0.0
C98 C 0.72362 0.94725 0.08645 0.0
C99 C 0.71196 0.97216 0.16294 0.0
C100 C 0.73304 0.97315 0.18453 0.0
C101 C 0.7074 0.96063 0.11053 0.0
C102 C 0.74484 0.94877 0.10718 0.0
C103 C 0.77173 0.97189 0.1582 0.0
O104 O 0.77796 1.00546 0.31465 0.0
O105 O 0.76424 0.02757 0.24942 0.0
O106 O 0.77304 0.99207 0.14015 0.0
O107 O 0.78207 0.96854 0.20793 0.0
H108 H 0.72295 0.01931 0.25114 0.0
H109 H 0.68762 0.01665 0.29999 0.0
H110 H 0.71915 1.01342 0.46945 0.0
H111 H 0.75445 0.01581 0.42046 0.0
H112 H 0.89696 0.02232 0.11598 0.0
H113 H 0.87067 0.02554 0.1968 0.0
H114 H 0.84638 0.99845 1.00115 0.0
H115 H 0.82018 1.00182 0.08215 0.0
H116 H 0.72048 0.93739 0.04769 0.0
H117 H 0.70004 0.98255 0.18347 0.0
H118 H 0.73671 0.98396 0.22093 0.0
H119 H 0.75762 0.94059 0.0832 0.0
C120 C 0.52435 0.7384 0.31857 0.0
C121 C 0.50765 0.72291 0.31167 0.0
C122 C 0.5251 0.69809 0.38084 0.0
C123 C 0.50805 0.70308 0.34215 0.0
C124 C 0.54205 0.7134 0.38668 0.0
C125 C 0.54163 0.73324 0.35629 0.0
U126 U 0.5308 0.78396 0.19776 0.0
O127 O 0.50703 0.80934 0.17786 0.0
O128 O 0.53949 0.81861 0.20748 0.0
C129 C 0.52102 0.82524 0.18544 0.0
C130 C 0.52238 0.76075 0.29327 0.0
C131 C 0.52223 0.84126 0.13655 0.0
C132 C 0.50869 0.87427 0.09095 0.0
C133 C 0.50864 0.85938 0.13772 0.0
C134 C 0.53616 0.85334 0.0408 0.0
C135 C 0.52236 0.87146 0.04154 0.0
C136 C 0.53602 0.83837 0.08761 0.0
C137 C 0.55438 0.74322 0.08436 0.0
C138 C 0.56987 0.72311 1.0026 0.0
C139 C 0.54397 0.70568 0.06806 0.0
C140 C 0.54295 0.72458 0.10217 0.0
C141 C 0.55641 0.70528 1.01586 0.0
C142 C 0.56878 0.742 0.03657 0.0
C143 C 0.54824 0.76474 0.10602 0.0
O144 O 0.54024 0.77224 0.28604 0.0
O145 O 0.50843 0.76356 0.25027 0.0
O146 O 0.52733 0.76767 0.11251 0.0
O147 O 0.55989 0.77343 0.14854 0.0
H148 H 0.4939 0.7263 0.28379 0.0
H149 H 0.49483 0.6917 0.33558 0.0
H150 H 0.55535 0.71041 0.41647 0.0
H151 H 0.55457 0.74486 0.36385 0.0
H152 H 0.49806 0.88811 0.09379 0.0
H153 H 0.49782 0.86197 0.17481 0.0
H154 H 0.54676 0.85046 1.00343 0.0
H155 H 0.54651 0.8244 0.08528 0.0
H156 H 0.57987 0.7231 0.96317 0.0
H157 H 0.53338 0.69223 0.07939 0.0
H158 H 0.53179 0.72523 0.1392 0.0
H159 H 0.57779 0.75623 0.02242 0.0
C160 C 0.23665 0.5126 0.95344 0.0
C161 C 0.21697 0.51053 0.98427 0.0
C162 C 0.19666 0.51309 0.892 0.0
C163 C 0.19722 0.51081 0.95394 0.0
C164 C 0.21649 0.51477 0.8613 0.0
C165 C 0.23623 0.51457 0.89172 0.0
U166 U 0.26985 0.50516 0.09411 0.0
O167 O 0.29497 0.52643 0.13262 0.0
O168 O 0.30299 0.49308 0.10724 0.0
C169 C 0.30969 0.51113 0.13274 0.0
C170 C 0.25757 0.51342 0.98521 0.0
C171 C 0.32358 0.50913 0.18627 0.0
C172 C 0.35352 0.49124 0.23619 0.0
C173 C 0.338 0.49169 0.19119 0.0
C174 C 0.34035 0.52542 0.27375 0.0
C175 C 0.35525 0.50831 0.27748 0.0
C176 C 0.3248 0.52587 0.22868 0.0
C177 C 0.23582 0.48543 0.22887 0.0
C178 C 0.24569 0.48628 0.33258 0.0
C179 C 0.20902 0.47708 0.30374 0.0
C180 C 0.21486 0.47902 0.24457 0.0
C181 C 0.22413 0.48134 0.34887 0.0
C182 C 0.25147 0.48847 0.27289 0.0
C183 C 0.2398 0.49116 0.16705 0.0
O184 O 0.25907 0.52829 0.02675 0.0
O185 O 0.26555 0.49467 1.00143 0.0
O186 O 0.25203 0.47807 0.13571 0.0
O187 O 0.24366 0.51181 0.157 0.0
H188 H 0.21689 0.50891 0.03192 0.0
H189 H 0.18235 0.50916 0.97909 0.0
H190 H 0.21676 0.51677 0.8138 0.0
H191 H 0.25121 0.51625 0.86703 0.0
H192 H 0.36442 0.4776 0.238 0.0
H193 H 0.33776 0.47865 0.15901 0.0
H194 H 0.34126 0.53898 0.30418 0.0
H195 H 0.31426 0.53976 0.22594 0.0
H196 H 0.25789 0.48932 0.36583 0.0
H197 H 0.19218 0.47372 0.31363 0.0
H198 H 0.20258 0.47671 0.21102 0.0
H199 H 0.2678 0.49342 0.26125 0.0
C200 C 0.01642 0.24595 0.95201 0.0
C201 C 0.01932 0.22718 0.98635 0.0
C202 C 0.0193 0.2041 0.89752 0.0
C203 C 0.02086 0.20656 0.95943 0.0
C204 C 0.01695 0.22304 0.8635 0.0
C205 C 0.01554 0.24356 0.8903 0.0
U206 U 0.02677 0.29566 0.0586 0.0
O207 O 1.00131 0.31493 0.10185 0.0
O208 O 0.02466 0.331 0.0432 0.0
C209 C 1.00892 0.33348 0.082 0.0
C210 C 0.01227 0.26782 0.97853 0.0
C211 C 1.01113 0.3511 0.12712 0.0
C212 C 0.03257 0.37638 0.18718 0.0
C213 C 0.03128 0.36002 0.14361 0.0
C214 C 0.99369 0.37518 0.19856 0.0
C215 C 0.01378 0.3841 0.21572 0.0
C216 C 0.99241 0.35899 0.15496 0.0
C217 C 0.07037 0.26281 0.13306 0.0
C218 C 0.08364 0.23855 0.20804 0.0
C219 C 0.06874 0.22396 0.11722 0.0
C220 C 0.06571 0.24501 0.0964 0.0
C221 C 0.07605 0.22059 0.17529 0.0
C222 C 0.08077 0.25953 0.18698 0.0
C223 C 0.05918 0.28332 0.12435 0.0
O224 O 1.00507 0.26862 0.03324 0.0
O225 O 0.02622 0.28345 0.96648 0.0
O226 O 0.06198 0.29313 0.07337 0.0
O227 O 0.03888 0.28247 0.14142 0.0
H228 H 0.01993 0.22834 0.03406 0.0
H229 H 0.02254 0.19247 0.98739 0.0
H230 H 0.01608 0.22204 0.8158 0.0
H231 H 0.01323 0.25763 0.86258 0.0
H232 H 0.04835 0.38265 0.1994 0.0
H233 H 0.04605 0.35426 0.12327 0.0
H234 H 0.97881 0.38084 0.21856 0.0
H235 H 0.97665 0.35253 0.14308 0.0
H236 H 0.08935 0.2367 0.25287 0.0
H237 H 0.06327 0.21045 0.09027 0.0
H238 H 0.05769 0.24733 0.05445 0.0
H239 H 0.08439 0.27314 0.21582 0.0
C240 C 0.28984 0.02784 0.94926 0.0
C241 C 0.30908 0.02214 0.97812 0.0
C242 C 0.33023 0.02873 0.88795 0.0
C243 C 0.32901 0.02267 0.94795 0.0
C244 C 0.31092 0.03461 0.85952 0.0
C245 C 0.29105 0.03418 0.88979 0.0
U246 U 0.24939 0.03594 0.07999 0.0
O247 O 0.22403 1.01319 0.10999 0.0
O248 O 0.215 0.04552 0.07942 0.0
C249 C 0.20848 0.02751 0.1053 0.0
C250 C 0.26824 0.02616 0.9786 0.0
C251 C 0.19334 0.02955 0.15678 0.0
C252 C 0.16395 0.04844 0.20758 0.0
C253 C 0.17938 0.04738 0.16193 0.0
C254 C 0.17603 1.01391 0.24446 0.0
C255 C 0.1619 0.03163 0.24933 0.0
C256 C 0.19144 1.01284 0.19884 0.0
C257 C 0.29698 0.05921 0.16507 0.0
C258 C 0.32847 0.06458 0.22686 0.0
C259 C 0.33293 0.05843 0.12166 0.0
C260 C 0.31046 0.05742 0.11533 0.0
C261 C 0.34217 0.06133 0.17786 0.0
C262 C 0.30604 0.06344 0.22048 0.0
C263 C 0.27389 0.05392 0.16106 0.0
O264 O 0.26638 1.01253 0.02293 0.0
O265 O 0.25786 0.0444 0.98781 0.0
O266 O 0.2627 0.06523 0.12291 0.0
O267 O 0.26966 0.03302 0.15879 0.0
H268 H 0.30872 0.017 0.02382 0.0
H269 H 0.3434 0.0178 0.97138 0.0
H270 H 0.31114 0.03967 0.81376 0.0
H271 H 0.27649 0.03858 0.86634 0.0
H272 H 0.15358 0.06249 0.21005 0.0
H273 H 0.18014 0.06044 0.13009 0.0
H274 H 0.1748 1.00045 0.27493 0.0
H275 H 0.20159 0.99864 0.19594 0.0
H276 H 0.33506 0.06656 0.27084 0.0
H277 H 0.34307 0.05606 0.08305 0.0
H278 H 0.30362 0.05426 0.07217 0.0
H279 H 0.29582 0.06474 0.25932 0.0
C280 C 0.51136 0.29442 0.96974 0.0
C281 C 0.50433 0.313 1.00045 0.0
C282 C 0.50799 0.33517 0.91093 0.0
C283 C 0.50254 0.33309 0.97131 0.0
C284 C 0.5145 0.31637 0.88032 0.0
C285 C 0.51615 0.29636 0.90927 0.0
U286 U 0.49901 0.24556 0.07642 0.0
O287 O 0.50423 0.21026 0.06469 0.0
O288 O 0.52319 0.22861 0.12966 0.0
C289 C 0.51791 0.20935 0.109 0.0
C290 C 0.51563 0.27331 0.99957 0.0
C291 C 0.51407 0.19221 0.1542 0.0
C292 C 0.51852 0.15472 0.18629 0.0
C293 C 0.52031 0.17076 0.14255 0.0
C294 C 0.50389 0.18119 0.25426 0.0
C295 C 0.51055 0.15974 0.24313 0.0
C296 C 0.50555 0.19719 0.21036 0.0
C297 C 0.44975 0.27593 0.13145 0.0
C298 C 0.43236 0.30062 0.19949 0.0
C299 C 0.44926 0.31439 0.11028 0.0
C300 C 0.45439 0.29324 0.09333 0.0
C301 C 0.43993 0.31839 0.16614 0.0
C302 C 0.43729 0.27951 0.18218 0.0
C303 C 0.46268 0.2562 0.1287 0.0
O304 O 0.51998 0.27374 0.0564 0.0
O305 O 0.50349 0.2566 0.98424 0.0
O306 O 0.46326 0.24567 0.07811 0.0
O307 O 0.48181 0.25872 0.15286 0.0
H308 H 0.50064 0.31214 0.0472 0.0
H309 H 0.49757 0.34714 0.99662 0.0
H310 H 0.51846 0.31708 0.83372 0.0
H311 H 0.52166 0.28239 0.88441 0.0
H312 H 0.524 0.1385 0.17603 0.0
H313 H 0.52704 0.16649 0.09984 0.0
H314 H 0.49737 0.18566 0.29705 0.0
H315 H 0.50051 0.21355 0.2207 0.0
H316 H 0.42508 0.30291 0.24262 0.0
H317 H 0.45473 0.32769 0.08271 0.0
H318 H 0.46395 0.29067 0.05372 0.0
H319 H 0.43361 0.26628 0.21207 0.0
Tb320 Tb 0.99268 0.03366 0.57887 0.0
C321 C 0.05601 0.01958 0.80915 0.0
N322 N 0.0585 0.02474 0.75146 0.0
C323 C 0.08738 0.04933 0.77632 0.0
C324 C 0.06866 0.02956 0.85333 0.0
C325 C 0.07457 0.0387 0.73416 0.0
C326 C 0.08417 0.04501 0.83632 0.0
C327 C 0.04043 0.99515 0.88126 0.0
C328 C 0.04215 1.00279 0.82284 0.0
C329 C 0.05197 1.00581 0.92637 0.0
C330 C 0.06606 0.02304 0.91241 0.0
Tb331 Tb 0.0359 1.00779 0.68597 0.0
N332 N 0.03186 0.99271 0.77771 0.0
C333 C 0.02802 0.97646 0.89191 0.0
C334 C 0.02082 0.97372 0.78724 0.0
C335 C 0.01849 0.96547 0.84446 0.0
H336 H 0.07719 0.04201 0.68783 0.0
H337 H 1.00941 0.95063 0.85186 0.0
H338 H 0.95875 0.06518 0.65058 0.0
H339 H 0.97904 0.98738 0.37929 0.0
H340 H 0.01351 0.96509 0.75066 0.0
H341 H 0.02634 0.96997 0.93613 0.0
H342 H 1.00046 1.00927 0.45013 0.0
H343 H 0.09974 0.0608 0.76251 0.0
H344 H 0.05071 1.00037 0.97173 0.0
H345 H 0.07545 0.03064 0.94722 0.0
H346 H 0.91918 0.06806 0.66538 0.0
H347 H 0.09423 0.0531 0.86886 0.0
H348 H 0.93961 0.98242 0.39486 0.0
N349 N 0.95629 0.03873 0.59066 0.0
C350 C 0.94291 0.02609 0.55804 0.0
C351 C 0.92563 0.05604 0.63528 0.0
C352 C 0.92026 0.02727 0.56398 0.0
C353 C 0.94802 0.05439 0.62685 0.0
C354 C 0.91167 0.04213 0.60446 0.0
N355 N 0.97377 0.0152 0.50736 0.0
C356 C 0.98335 1.00686 0.4578 0.0
C357 C 0.93903 1.00191 0.47464 0.0
C358 C 0.95208 1.01372 0.51444 0.0
C359 C 0.94901 0.9917 0.42652 0.0
C360 C 0.97125 0.99454 0.41747 0.0
H361 H 0.89434 0.04358 0.6105 0.0
H362 H 0.88959 0.0148 0.53153 0.0
H363 H 0.9061 0.9925 0.45296 0.0
O364 O 0.01327 0.06024 0.56358 0.0
O365 O 1.00384 1.00044 0.56198 0.0
O366 O 1.00927 0.98672 0.654 0.0
O367 O 0.9838 0.05629 0.51399 0.0
O368 O 0.023 0.0201 0.54505 0.0
O369 O 0.04594 0.03088 0.61713 0.0
O370 O 0.06323 0.98824 0.69946 0.0
O371 O 0.0339 0.04367 0.68564 0.0
O372 O 0.99826 0.05069 0.66311 0.0
O373 O 0.0478 0.98912 0.61495 0.0
O374 O 1.00308 1.00658 0.72509 0.0
O375 O 0.97848 0.02542 0.66593 0.0
C376 C 1.00417 0.98384 0.59817 0.0
C377 C 0.99856 0.09166 0.52354 0.0
C378 C 1.00853 0.12598 0.47805 0.0
C379 C 0.99838 0.13704 0.52491 0.0
C380 C 0.98844 0.1027 0.5701 0.0
C381 C 0.98831 0.12539 0.57056 0.0
C382 C 1.00846 0.10327 0.47793 0.0
C383 C 0.04217 0.0273 0.56088 0.0
C384 C 1.00099 0.06816 0.52285 0.0
C385 C 0.90705 0.01438 0.5273 0.0
C386 C 0.91645 1.00168 0.48259 0.0
C387 C 0.01649 0.05591 0.68991 0.0
C388 C 0.0604 0.95543 0.64475 0.0
C389 C 0.04948 0.92136 0.69101 0.0
C390 C 0.05127 0.91087 0.63598 0.0
C391 C 0.06221 0.94471 0.59018 0.0
C392 C 0.05459 0.94352 0.69506 0.0
C393 C 0.05784 0.92248 0.58602 0.0
C394 C 0.9837 0.0147 0.71448 0.0
C395 C 0.06181 0.97927 0.64739 0.0
H396 H 0.99815 0.1546 0.52606 0.0
H397 H 0.98103 0.09386 0.60618 0.0
H398 H 0.98058 0.13397 0.60662 0.0
H399 H 0.01682 0.09451 0.44312 0.0
H400 H 0.04755 0.89374 0.63154 0.0
H401 H 0.06641 0.95366 0.55058 0.0
H402 H 0.05311 0.9517 0.73711 0.0
H403 H 0.05902 0.91435 0.54368 0.0
Tb404 Tb 0.52539 0.03648 0.70248 0.0
C405 C 0.50587 0.945 0.63567 0.0
N406 N 0.51867 0.95923 0.6056 0.0
C407 C 0.54672 0.93265 0.59874 0.0
C408 C 0.51329 0.92412 0.64994 0.0
C409 C 0.53877 0.95328 0.58609 0.0
C410 C 0.53399 0.91805 0.63112 0.0
C411 C 0.47151 0.93717 0.68319 0.0
C412 C 0.48536 0.95161 0.65262 0.0
C413 C 0.47907 0.91661 0.69944 0.0
C414 C 0.4999 0.91009 0.68277 0.0
Tb415 Tb 0.504 0.99245 0.58788 0.0
N416 N 0.47857 0.97164 0.63618 0.0
C417 C 0.45019 0.94347 0.69432 0.0
C418 C 0.45707 0.97653 0.64027 0.0
C419 C 0.44279 0.96301 0.67137 0.0
H420 H 0.54866 0.96456 0.56116 0.0
H421 H 0.42596 0.96743 0.67633 0.0
H422 H 0.48749 0.04593 0.80388 0.0
H423 H 0.57501 0.09057 0.57054 0.0
H424 H 0.45062 0.99059 0.61862 0.0
H425 H 0.43903 0.93287 0.71769 0.0
H426 H 0.56381 0.05535 0.61118 0.0
H427 H 0.56269 0.92805 0.58374 0.0
H428 H 0.46874 0.90542 0.72356 0.0
H429 H 0.5054 0.89408 0.69485 0.0
H430 H 0.46665 0.07732 0.83975 0.0
H431 H 0.54028 0.90215 0.64124 0.0
H432 H 0.55573 0.12392 0.60001 0.0
N433 N 0.50601 0.06437 0.74214 0.0
C434 C 0.51092 0.08443 0.72126 0.0
C435 C 0.47894 0.07953 0.80607 0.0
C436 C 0.4998 0.10291 0.74148 0.0
C437 C 0.49056 0.06171 0.78497 0.0
C438 C 0.48348 0.1002 0.78396 0.0
N439 N 0.53776 0.0682 0.66194 0.0
C440 C 0.55502 0.06957 0.62416 0.0
C441 C 0.53353 0.10704 0.6585 0.0
C442 C 0.52755 0.08647 0.68042 0.0
C443 C 0.55065 0.10842 0.618 0.0
C444 C 0.56154 0.08962 0.60116 0.0
H445 H 0.47453 0.11399 0.80062 0.0
H446 H 0.49705 0.13782 0.73398 0.0
H447 H 0.52659 0.14143 0.66125 0.0
O448 O 0.55419 0.02511 0.7396 0.0
O449 O 0.51166 0.05006 0.62081 0.0
O450 O 0.51326 0.02353 0.54793 0.0
O451 O 0.53456 0.04875 0.78535 0.0
O452 O 0.5506 0.02082 0.64729 0.0
O453 O 0.5359 1.00492 0.56261 0.0
O454 O 0.47963 0.99207 0.5227 0.0
O455 O 0.52434 0.9841 0.66525 0.0
O456 O 0.5117 1.0063 0.73686 0.0
O457 O 0.50828 0.97338 0.51171 0.0
O458 O 0.48003 0.01559 0.62573 0.0
O459 O 0.49353 0.02208 0.71833 0.0
C460 C 0.51152 0.04388 0.565 0.0
C461 C 0.57184 0.04832 0.80694 0.0
C462 C 0.60394 0.0463 0.86845 0.0
C463 C 0.60948 0.06764 0.85201 0.0
C464 C 0.57741 0.06958 0.79075 0.0
C465 C 0.59625 0.07917 0.81332 0.0
C466 C 0.58512 0.03681 0.8452 0.0
C467 C 0.5524 1.0124 0.59362 0.0
C468 C 0.5522 0.03746 0.78612 0.0
C469 C 0.50546 0.12343 0.71915 0.0
C470 C 0.5223 0.12549 0.67778 0.0
C471 C 0.5187 0.98724 0.72055 0.0
C472 C 0.49554 0.99161 0.42764 0.0
C473 C 0.4818 1.01149 0.34285 0.0
C474 C 0.50306 0.01469 0.32251 0.0
C475 C 0.51674 0.99462 0.40587 0.0
C476 C 0.47814 0.99986 0.39537 0.0
C477 C 0.52041 1.00609 0.35366 0.0
C478 C 0.47718 0.02119 0.6816 0.0
C479 C 0.49155 0.98128 0.48562 0.0
H480 H 0.62389 0.07544 0.86936 0.0
H481 H 0.56726 0.07869 0.7611 0.0
H482 H 0.60057 0.09559 0.80097 0.0
H483 H 0.58082 0.02021 0.85626 0.0
H484 H 0.50623 0.02357 0.28213 0.0
H485 H 0.53056 0.98849 0.4296 0.0
H486 H 0.46177 0.99774 0.41197 0.0
H487 H 0.53678 1.00851 0.33764 0.0
Tb488 Tb 0.52898 0.50203 0.57711 0.0
C489 C 0.48219 0.50283 0.8204 0.0
N490 N 0.47346 0.50411 0.76591 0.0
C491 C 0.44619 0.47803 0.79309 0.0
C492 C 0.47398 0.48827 0.86291 0.0
C493 C 0.45494 0.49287 0.75264 0.0
C494 C 0.4561 0.47531 0.84798 0.0
C495 C 0.50532 0.51943 0.89368 0.0
C496 C 0.49756 0.51806 0.83533 0.0
C497 C 0.49872 0.50378 0.93519 0.0
C498 C 0.48303 0.48818 0.91978 0.0
Tb499 Tb 0.48993 0.52711 0.70052 0.0
N500 N 0.50269 0.53324 0.79444 0.0
C501 C 0.51824 0.53728 0.90934 0.0
C502 C 0.51335 0.55179 0.81125 0.0
C503 C 0.52178 0.55383 0.86833 0.0
H504 H 0.44745 0.49486 0.70993 0.0
H505 H 0.53094 0.56818 0.88063 0.0
H506 H 0.56283 0.46853 0.64246 0.0
H507 H 0.53957 0.54639 0.37409 0.0
H508 H 0.51605 0.56471 0.7798 0.0
H509 H 0.52455 0.53899 0.95371 0.0
H510 H 0.51894 0.52718 0.45216 0.0
H511 H 0.43193 0.46863 0.78179 0.0
H512 H 0.50475 0.50431 0.98004 0.0
H513 H 0.47723 0.47689 0.95294 0.0
H514 H 0.60232 0.46313 0.64773 0.0
H515 H 0.44926 0.4639 0.87935 0.0
H516 H 0.57963 0.54773 0.37796 0.0
N517 N 0.56514 0.49414 0.57993 0.0
C518 C 0.57832 0.50544 0.54324 0.0
C519 C 0.5958 0.47523 0.61839 0.0
C520 C 0.60092 0.50263 0.54351 0.0
C521 C 0.57343 0.4784 0.61545 0.0
C522 C 0.60967 0.48765 0.58289 0.0
N523 N 0.54692 0.51865 0.50079 0.0
C524 C 0.53638 0.5278 0.45427 0.0
C525 C 0.58132 0.5287 0.45801 0.0
C526 C 0.56877 0.51823 0.50165 0.0
C527 C 0.57062 0.53947 0.41246 0.0
C528 C 0.54802 0.53867 0.41 0.0
H529 H 0.62696 0.485 0.58466 0.0
H530 H 0.63124 0.51241 0.50251 0.0
H531 H 0.614 0.53528 0.42722 0.0
O532 O 0.5045 0.4789 0.56251 0.0
O533 O 0.52437 0.53731 0.56831 0.0
O534 O 0.50961 0.55217 0.65486 0.0
O535 O 0.53403 0.4783 0.51152 0.0
O536 O 0.49944 0.5192 0.55154 0.0
O537 O 0.47731 0.50833 0.62592 0.0
O538 O 0.46581 0.54468 0.74556 0.0
O539 O 0.49107 0.49171 0.68431 0.0
O540 O 0.52624 0.48466 0.66143 0.0
O541 O 0.46864 0.5464 0.6515 0.0
O542 O 0.52498 0.53465 0.70847 0.0
O543 O 0.54352 0.50634 0.66471 0.0
C544 C 0.51873 0.554 0.60188 0.0
C545 C 0.51439 0.44551 0.52217 0.0
C546 C 0.50069 0.41257 0.47571 0.0
C547 C 0.50948 0.40037 0.52213 0.0
C548 C 0.52315 0.43333 0.56825 0.0
C549 C 0.52065 0.41076 0.5681 0.0
C550 C 0.50318 0.43517 0.47658 0.0
C551 C 0.47993 0.51454 0.571 0.0
C552 C 0.51531 0.46913 0.52125 0.0
C553 C 0.6138 0.51413 0.50273 0.0
C554 C 0.60399 0.52715 0.45989 0.0
C555 C 0.50838 0.47965 0.69004 0.0
C556 C 0.45924 0.57838 0.69964 0.0
C557 C 0.47528 0.61235 0.73372 0.0
C558 C 0.46397 0.62351 0.68976 0.0
C559 C 0.44777 0.58974 0.65642 0.0
C560 C 0.47253 0.58987 0.73907 0.0
C561 C 0.45005 0.61224 0.65182 0.0
C562 C 0.54211 0.52213 0.70385 0.0
C563 C 0.45952 0.55454 0.69806 0.0
H564 H 0.50794 0.38286 0.52253 0.0
H565 H 0.53165 0.44124 0.60422 0.0
H566 H 0.52736 0.40129 0.60369 0.0
H567 H 0.49597 0.44491 0.44215 0.0
H568 H 0.4659 0.6409 0.68491 0.0
H569 H 0.43759 0.58112 0.62516 0.0
H570 H 0.48158 0.58127 0.77223 0.0
H571 H 0.44138 0.6209 0.61795 0.0
Tb572 Tb 0.02598 0.54813 0.58919 0.0
C573 C 0.01368 0.45104 0.69647 0.0
N574 N 0.9989 0.46444 0.67216 0.0
C575 C 0.98011 0.43401 0.63002 0.0
C576 C 0.01261 0.42847 0.68717 0.0
C577 C 0.98174 0.45631 0.64114 0.0
C578 C 0.99579 0.42005 0.6524 0.0
C579 C 0.04308 0.44642 0.76568 0.0
C580 C 0.0287 0.45989 0.73504 0.0
C581 C 0.04298 0.424 0.75403 0.0
C582 C 0.02777 0.41504 0.71481 0.0
Tb583 Tb 1.00413 0.50041 0.68987 0.0
N584 N 0.02789 0.48151 0.74622 0.0
C585 C 0.05641 0.45576 0.80889 0.0
C586 C 0.03971 0.49045 0.79116 0.0
C587 C 0.05443 0.4778 0.82241 0.0
H588 H 0.96969 0.46715 0.62378 0.0
H589 H 0.06421 0.48505 0.85689 0.0
H590 H 0.04192 0.58229 0.69422 0.0
H591 H 0.99594 0.56257 0.36991 0.0
H592 H 0.0381 0.50745 0.802 0.0
H593 H 0.06771 0.44597 0.83346 0.0
H594 H 0.01288 0.54108 0.44927 0.0
H595 H 0.96679 0.4276 0.60423 0.0
H596 H 0.05407 0.41338 0.77663 0.0
H597 H 0.02739 0.39765 0.70778 0.0
H598 H 0.03729 0.62116 0.71808 0.0
H599 H 0.9944 0.40278 0.6441 0.0
H600 H 0.986 0.60083 0.38855 0.0
N601 N 0.02384 0.58388 0.61464 0.0
C602 C 0.01347 0.59677 0.57571 0.0
C603 C 0.03042 0.61449 0.67798 0.0
C604 C 1.01059 0.61903 0.58704 0.0
C605 C 0.03299 0.5925 0.6644 0.0
C606 C 0.0189 0.62777 0.63954 0.0
N607 N 0.0118 0.5667 0.51201 0.0
C608 C 1.00852 0.55772 0.45756 0.0
C609 C 0.99776 0.60081 0.47857 0.0
C610 C 1.00719 0.58783 0.52237 0.0
C611 C 0.99328 0.59143 0.42347 0.0
C612 C 0.99893 0.56985 0.4127 0.0
H613 H 0.01703 0.64481 0.64999 0.0
H614 H 0.99769 0.64905 0.55276 0.0
H615 H 0.98642 0.63306 0.45769 0.0
O616 O 0.05521 0.53268 0.56696 0.0
O617 O 0.99378 0.53796 0.56057 0.0
O618 O 0.98009 0.51102 0.62387 0.0
O619 O 0.05004 0.56648 0.54602 0.0
O620 O 0.02278 0.51696 0.54039 0.0
O621 O 1.00713 0.48952 0.59835 0.0
O622 O 0.97774 0.516 0.73068 0.0
O623 O 0.0395 0.50472 0.67628 0.0
O624 O 0.04403 0.54143 0.66942 0.0
O625 O 0.98682 0.4836 0.75568 0.0
O626 O 0.01322 0.53038 0.73571 0.0
O627 O 1.00582 0.5567 0.6675 0.0
C628 C 0.97813 0.52506 0.57986 0.0
C629 C 0.08472 0.55665 0.58137 0.0
C630 C 0.12207 0.54778 0.60559 0.0
C631 C 0.12345 0.56654 0.64072 0.0
C632 C 0.08658 0.57554 0.61608 0.0
C633 C 0.10574 0.58027 0.64608 0.0
C634 C 0.10252 0.54272 0.57678 0.0
C635 C 0.01604 0.4967 0.54895 0.0
C636 C 0.06422 0.55103 0.55122 0.0
C637 C 1.00024 0.63192 0.54473 0.0
C638 C 0.99383 0.62282 0.49057 0.0
C639 C 0.0514 0.52233 0.68394 0.0
C640 C 0.97787 0.5081 0.83263 0.0
C641 C 0.96833 0.53382 0.91081 0.0
C642 C 0.98429 0.52471 0.94697 0.0
C643 C 0.99307 0.49871 0.87068 0.0
C644 C 0.9654 0.52553 0.85324 0.0
C645 C 0.99643 0.50718 0.92707 0.0
C646 C 1.00687 0.55009 0.72282 0.0
C647 C 0.97596 0.50082 0.77049 0.0
H648 H 0.13837 0.57075 0.66314 0.0
H649 H 0.07332 0.58674 0.62006 0.0
H650 H 0.10695 0.5948 0.67289 0.0
H651 H 0.10139 0.52836 0.54913 0.0
H652 H 0.98725 0.53099 0.99097 0.0
H653 H 1.00259 0.48494 0.85686 0.0
H654 H 0.95324 0.53236 0.82461 0.0
H655 H 1.00846 0.50008 0.95557 0.0
H656 H 0.12008 0.04631 0.24089 0.0
H657 H 0.16449 0.01812 0.36514 0.0
H658 H 0.09191 0.04648 0.31643 0.0
H659 H 0.136 0.01746 0.44007 0.0
H660 H 0.08516 0.03756 0.57846 0.0
H661 H 0.11411 0.03959 0.50469 0.0
H662 H 0.06848 0.02198 0.36836 0.0
H663 H 0.03962 0.02041 0.44165 0.0
C664 C 0.12394 0.04025 0.28438 0.0
C665 C 0.14471 0.0322 0.2965 0.0
C666 C 0.10762 0.04008 0.32768 0.0
C667 C 0.1115 0.03186 0.38462 0.0
C668 C 0.13236 0.02409 0.39706 0.0
C669 C 0.14869 0.02423 0.35368 0.0
C670 C 0.08129 0.03421 0.53273 0.0
C671 C 0.05997 0.02884 0.51622 0.0
C672 C 0.09796 0.03523 0.49033 0.0
C673 C 0.09376 0.03099 0.43019 0.0
C674 C 0.07239 0.0257 0.41389 0.0
C675 C 0.05578 0.02464 0.45619 0.0
H676 H 0.49856 0.1167 0.23405 0.0
H677 H 0.52075 0.16429 0.36077 0.0
H678 H 0.49794 0.08916 0.31104 0.0
H679 H 0.5205 0.13673 0.43764 0.0
H680 H 0.49994 0.08679 0.57619 0.0
H681 H 0.49899 0.11451 0.49973 0.0
H682 H 0.52003 0.06731 0.37056 0.0
H683 H 0.52086 0.03974 0.44701 0.0
C684 C 0.50347 0.1213 0.27825 0.0
C685 C 0.5097 0.14284 0.29085 0.0
C686 C 0.50317 0.10542 0.32264 0.0
C687 C 0.50923 0.11051 0.38111 0.0
C688 C 0.51535 0.13211 0.39368 0.0
C689 C 0.51552 0.148 0.34936 0.0
C690 C 0.50451 0.08234 0.53159 0.0
C691 C 0.51055 0.06092 0.51814 0.0
C692 C 0.50399 0.09831 0.48747 0.0
C693 C 0.50946 0.09337 0.42838 0.0
C694 C 0.51536 0.07186 0.41503 0.0
C695 C 0.51589 0.05594 0.45914 0.0
H696 H 0.3975 0.49581 0.26271 0.0
H697 H 0.35388 0.52207 0.39367 0.0
H698 H 0.42684 0.497 0.33401 0.0
H699 H 0.38354 0.52404 0.46456 0.0
H700 H 0.43744 0.50396 0.59413 0.0
H701 H 0.40727 0.50217 0.52479 0.0
H702 H 0.45 0.52257 0.38374 0.0
H703 H 0.48009 0.52402 0.45265 0.0
C704 C 0.39407 0.50173 0.30683 0.0
C705 C 0.37315 0.50876 0.32216 0.0
C706 C 0.41105 0.5027 0.34765 0.0
C707 C 0.40772 0.51074 0.40524 0.0
C708 C 0.38676 0.51759 0.42088 0.0
C709 C 0.36975 0.51667 0.37991 0.0
C710 C 0.44041 0.50806 0.54831 0.0
C711 C 0.46133 0.51399 0.5291 0.0
C712 C 0.42304 0.50716 0.50851 0.0
C713 C 0.4261 0.51211 0.44831 0.0
C714 C 0.447 0.51826 0.42939 0.0
C715 C 0.46432 0.51921 0.46915 0.0
H716 H 0.03978 0.4208 0.2221 0.0
H717 H 0.99038 0.38592 0.31905 0.0
H718 H 0.04125 0.44819 0.30072 0.0
H719 H 0.99142 0.41342 0.39634 0.0
H720 H 0.01454 0.45243 0.55458 0.0
H721 H 0.01438 0.42611 0.47481 0.0
H722 H 0.02103 0.47785 0.34797 0.0
H723 H 0.02105 0.50444 0.42869 0.0
C724 C 0.02926 0.4189 0.26013 0.0
C725 C 0.01494 0.40102 0.26381 0.0
C726 C 0.02993 0.43478 0.30504 0.0
C727 C 0.01648 0.43314 0.35532 0.0
C728 C 1.00223 0.41523 0.35889 0.0
C729 C 1.00146 0.39949 0.31399 0.0
C730 C 0.01554 0.45838 0.50981 0.0
C731 C 0.0171 0.4808 0.49858 0.0
C732 C 0.01556 0.44315 0.46371 0.0
C733 C 0.01734 0.4497 0.4044 0.0
C734 C 0.01965 0.47209 0.39296 0.0
C735 C 0.01955 0.48742 0.4394 0.0
H736 H 0.86733 0.02229 0.93636 0.0
H737 H 0.91632 0.99694 0.05196 0.0
H738 H 0.89316 0.02226 0.85456 0.0
H739 H 0.94233 0.99738 0.97033 0.0
H740 H 0.97739 0.9818 0.79473 0.0
H741 H 0.95107 0.97997 0.87548 0.0
H742 H 0.92556 0.04189 0.8227 0.0
H743 H 0.95231 0.04392 0.74359 0.0
C744 C 0.88356 0.01655 0.94435 0.0
C745 C 0.88964 1.00961 1.00107 0.0
C746 C 0.89849 0.01676 0.89744 0.0
C747 C 0.91994 1.00989 0.90561 0.0
C748 C 0.92595 1.00263 0.96209 0.0
C749 C 0.91105 1.00258 1.00916 0.0
C750 C 0.96635 0.99512 0.80073 0.0
C751 C 0.967 1.01295 0.76217 0.0
C752 C 0.95115 0.99405 0.84701 0.0
C753 C 0.93604 1.01075 0.8558 0.0
C754 C 0.93661 0.02851 0.81685 0.0
C755 C 0.95191 0.02962 0.77098 0.0
H756 H 0.48714 0.89116 0.99183 0.0
H757 H 0.55665 0.88772 0.97618 0.0
H758 H 0.48634 0.91775 0.91273 0.0
H759 H 0.55591 0.91461 0.89721 0.0
H760 H 0.54555 0.95178 0.72353 0.0
H761 H 0.54615 0.92272 0.7971 0.0
H762 H 0.49498 0.95451 0.894 0.0
H763 H 0.49387 0.98277 0.81941 0.0
C764 C 0.50232 0.89619 0.97189 0.0
C765 C 0.52198 0.88731 0.99116 0.0
C766 C 0.50187 0.91154 0.9263 0.0
C767 C 0.52108 0.91866 0.89844 0.0
C768 C 0.54073 0.90945 0.91685 0.0
C769 C 0.54116 0.89399 0.96241 0.0
C770 C 0.53424 0.95231 0.76014 0.0
C771 C 0.51946 0.96944 0.76502 0.0
C772 C 0.53474 0.93579 0.80285 0.0
C773 C 0.52055 0.93604 0.85188 0.0
C774 C 0.50591 0.95336 0.85663 0.0
C775 C 0.50541 0.96978 0.814 0.0
H776 H 0.66375 0.51242 0.89742 0.0
H777 H 0.62335 0.55163 1.01057 0.0
H778 H 0.63517 0.51125 0.8235 0.0
H779 H 0.59451 0.55003 0.93697 0.0
H780 H 0.55547 0.55895 0.76363 0.0
H781 H 0.58458 0.56225 0.83632 0.0
H782 H 0.5995 0.49454 0.81158 0.0
H783 H 0.57019 0.49116 0.74066 0.0
C784 C 0.64885 0.52096 0.90643 0.0
C785 C 0.64596 0.53212 0.96023 0.0
C786 C 0.63232 0.52008 0.86419 0.0
C787 C 0.61241 0.53045 0.8742 0.0
C788 C 0.60964 0.54198 0.92747 0.0
C789 C 0.62614 0.54271 0.96999 0.0
C790 C 0.56474 0.54471 0.77445 0.0
C791 C 0.56023 0.52473 0.74671 0.0
C792 C 0.58152 0.54661 0.81594 0.0
C793 C 0.59448 0.52867 0.82997 0.0
C794 C 0.59012 0.5088 0.80145 0.0
C795 C 0.57326 0.50686 0.7606 0.0
H796 H 0.96425 0.65311 0.96937 0.0
H797 H 0.02542 0.63058 0.03573 0.0
H798 H 0.96598 0.6263 0.88959 0.0
H799 H 0.02728 0.60409 0.95609 0.0
H800 H 0.01682 0.54528 0.83988 0.0
H801 H 0.01221 0.57108 0.92034 0.0
H802 H 0.98431 0.61689 0.7992 0.0
H803 H 0.98812 0.59056 0.71886 0.0
C804 C 0.97817 0.64259 0.96681 0.0
C805 C 0.99464 0.6441 1.00956 0.0
C806 C 0.97918 0.62717 0.92084 0.0
C807 C 0.99675 0.61281 0.91598 0.0
C808 C 0.01323 0.61444 0.95865 0.0
C809 C 0.01218 0.62975 1.00458 0.0
C810 C 1.00957 0.56079 0.83022 0.0
C811 C 1.00311 0.56584 0.77234 0.0
C812 C 1.0071 0.57576 0.87655 0.0
C813 C 0.99816 0.59638 0.86667 0.0
C814 C 0.99116 0.60122 0.809 0.0
C815 C 0.99354 0.58615 0.76261 0.0
H816 H 0.09943 0.19978 0.26138 0.0
H817 H 0.03966 0.19577 0.16303 0.0
H818 H 0.08475 0.17387 0.33288 0.0
H819 H 0.0254 0.16993 0.23326 0.0
H820 H 1.00698 0.11712 0.36009 0.0
H821 H 0.0272 0.13476 0.28087 0.0
H822 H 0.05557 0.17914 0.40744 0.0
H823 H 0.03589 0.16091 0.48717 0.0
C824 C 0.08345 0.19297 0.25407 0.0
C825 C 0.07065 0.20016 0.20689 0.0
C826 C 0.07502 0.17824 0.29513 0.0
C827 C 0.05377 0.17026 0.2893 0.0
C828 C 0.04185 0.17573 0.23894 0.0
C829 C 0.05018 0.19051 0.19822 0.0
C830 C 0.01768 0.13053 0.37106 0.0
C831 C 0.01982 0.1377 0.4298 0.0
C832 C 0.02921 0.14065 0.32568 0.0
C833 C 0.0431 0.15821 0.33798 0.0
C834 C 0.04529 0.16537 0.39675 0.0
C835 C 0.03373 0.15523 0.44223 0.0
H836 H 0.36977 0.0847 0.24878 0.0
H837 H 0.36739 0.02986 0.12952 0.0
H838 H 0.40595 0.07402 0.28013 0.0
H839 H 0.40361 0.01954 0.15989 0.0
H840 H 0.4454 0.98991 0.30941 0.0
H841 H 0.41404 1.00441 0.25844 0.0
H842 H 0.44514 0.06735 0.25006 0.0
H843 H 0.47666 0.05272 0.30163 0.0
C844 C 0.37717 0.07068 0.2283 0.0
C845 C 0.36564 0.05798 0.18723 0.0
C846 C 0.39792 0.06467 0.24591 0.0
C847 C 0.40741 0.04578 0.22299 0.0
C848 C 0.39653 0.03402 0.17878 0.0
C849 C 0.37587 0.04008 0.16097 0.0
C850 C 0.44555 1.0068 0.29642 0.0
C851 C 0.46334 0.02023 0.30949 0.0
C852 C 0.42774 0.01505 0.26672 0.0
C853 C 0.42725 0.03697 0.24993 0.0
C854 C 0.44514 0.0504 0.26249 0.0
C855 C 0.46314 0.04204 0.29166 0.0
H856 H 0.4134 0.33927 0.24625 0.0
H857 H 0.47524 0.34496 0.1571 0.0
H858 H 0.4254 0.36614 0.31899 0.0
H859 H 0.48684 0.37165 0.22837 0.0
H860 H 0.50334 0.42272 0.35864 0.0
H861 H 0.48379 0.40624 0.27681 0.0
H862 H 0.45256 0.36174 0.39777 0.0
H863 H 0.47135 0.37901 0.48035 0.0
C864 C 0.42925 0.34667 0.24105 0.0
C865 C 0.44347 0.33956 0.1964 0.0
C866 C 0.43614 0.36196 0.28285 0.0
C867 C 0.45724 0.3706 0.28019 0.0
C868 C 0.47046 0.36537 0.2317 0.0
C869 C 0.46366 0.35005 0.1903 0.0
C870 C 0.49201 0.40968 0.36801 0.0
C871 C 0.48894 0.40212 0.42604 0.0
C872 C 0.48089 0.40018 0.32101 0.0
C873 C 0.46659 0.38274 0.33077 0.0
C874 C 0.4632 0.3754 0.3889 0.0
C875 C 0.47428 0.38499 0.43608 0.0
H876 H 0.19146 0.45885 0.40583 0.0
H877 H 0.23898 0.50962 0.4345 0.0
H878 H 0.17044 0.47228 0.48793 0.0
H879 H 0.21943 0.52128 0.52152 0.0
H880 H 0.16035 0.56319 0.56572 0.0
H881 H 0.19004 0.54279 0.52517 0.0
H882 H 0.15841 0.48293 0.57834 0.0
H883 H 0.12778 0.50388 0.61554 0.0
C884 C 0.19781 0.47251 0.43068 0.0
C885 C 0.21628 0.48391 0.41099 0.0
C886 C 0.18586 0.48004 0.47895 0.0
C887 C 0.19257 0.49871 0.5101 0.0
C888 C 0.21306 0.50763 0.4967 0.0
C889 C 0.2246 0.5006 0.44709 0.0
C890 C 0.16 0.54569 0.5699 0.0
C891 C 0.1417 0.53507 0.59279 0.0
C892 C 0.17721 0.53383 0.54703 0.0
C893 C 0.17676 0.51097 0.54737 0.0
C894 C 0.15918 0.50043 0.57546 0.0
C895 C 0.14166 0.51237 0.59716 0.0
H896 H 0.03452 0.84728 1.01067 0.0
H897 H 0.96852 0.85812 0.95648 0.0
H898 H 0.04744 0.87074 0.93207 0.0
H899 H 0.98157 0.88169 0.87714 0.0
H900 H 0.01571 0.89254 0.69691 0.0
H901 H 1.00114 0.87453 0.78434 0.0
H902 H 0.04879 0.90732 0.89247 0.0
H903 H 0.06394 0.92457 0.80478 0.0
C904 C 0.0227 0.85521 0.98316 0.0
C905 C 1.00047 0.85074 0.98972 0.0
C906 C 0.03014 0.86862 0.93783 0.0
C907 C 0.01554 0.87784 0.89795 0.0
C908 C 0.99323 0.87443 0.90653 0.0
C909 C 0.98576 0.86103 0.95204 0.0
C910 C 0.02324 0.89567 0.73922 0.0
C911 C 0.04109 0.90982 0.74381 0.0
C912 C 0.01466 0.88567 0.78946 0.0
C913 C 0.02375 0.88961 0.84535 0.0
C914 C 0.04152 0.90385 0.84997 0.0
C915 C 0.05012 0.91381 0.79976 0.0
H916 H 0.70533 0.96389 0.99017 0.0
H917 H 0.66645 0.97241 0.14799 0.0
H918 H 0.67862 0.98278 0.93324 0.0
H919 H 0.64037 0.99296 0.09092 0.0
H920 H 0.5912 0.019 0.95741 0.0
H921 H 0.61371 0.99442 1.01394 0.0
H922 H 0.67069 0.02061 0.92764 0.0
H923 H 0.64809 0.04424 0.86873 0.0
C924 C 0.69086 0.96924 1.01284 0.0
C925 C 0.68836 0.96682 0.07434 0.0
C926 C 0.67572 0.98059 0.98007 0.0
C927 C 0.65781 0.99009 1.00788 0.0
C928 C 0.65416 0.98605 0.06822 0.0
C929 C 0.66922 0.97438 0.10105 0.0
C930 C 0.60855 0.0194 0.95027 0.0
C931 C 0.61786 0.03339 0.90803 0.0
C932 C 0.62144 1.00543 0.98305 0.0
C933 C 0.64395 1.00527 0.97459 0.0
C934 C 0.65332 0.01991 0.9341 0.0
C935 C 0.64042 0.03376 0.90105 0.0
H936 H 0.55191 0.66114 0.02899 0.0
H937 H 0.5492 0.71235 0.89963 0.0
H938 H 0.53645 0.63578 0.95701 0.0
H939 H 0.53326 0.68759 0.82905 0.0
H940 H 0.50878 0.63867 0.70131 0.0
H941 H 0.53429 0.65762 0.76595 0.0
H942 H 0.50141 0.6307 0.91852 0.0
H943 H 0.47676 0.61108 0.8535 0.0
C944 C 0.54839 0.66685 0.98489 0.0
C945 C 0.55173 0.68871 0.97002 0.0
C946 C 0.53938 0.65241 0.94379 0.0
C947 C 0.53326 0.65969 0.8874 0.0
C948 C 0.53799 0.68123 0.87156 0.0
C949 C 0.5472 0.69552 0.91225 0.0
C950 C 0.50714 0.63688 0.74873 0.0
C951 C 0.49068 0.6238 0.77272 0.0
C952 C 0.52173 0.64765 0.78579 0.0
C953 C 0.51988 0.64585 0.84762 0.0
C954 C 0.50365 0.63223 0.87125 0.0
C955 C 0.48931 0.62119 0.83414 0.0
H956 H 0.87101 0.6006 0.11637 0.0
H957 H 0.84824 0.58909 0.93869 0.0
H958 H 0.90816 0.59484 0.0829 0.0
H959 H 0.88507 0.58341 0.90557 0.0
H960 H 0.95242 0.56987 0.8546 0.0
H961 H 0.92332 0.59341 0.88955 0.0
H962 H 0.92225 0.55924 0.05586 0.0
H963 H 0.95077 0.5358 0.02114 0.0
C964 C 0.87397 0.59741 0.06996 0.0
C965 C 0.85663 0.59484 0.03049 0.0
C966 C 0.89523 0.59417 0.05078 0.0
C967 C 0.89951 0.58826 0.99185 0.0
C968 C 0.8824 0.58807 0.95118 0.0
C969 C 0.86118 0.59131 0.97031 0.0
C970 C 0.94612 0.56762 0.89889 0.0
C971 C 0.95366 0.5507 0.93469 0.0
C972 C 0.92958 0.58119 0.919 0.0
C973 C 0.92037 0.57811 0.97532 0.0
C974 C 0.92916 0.56232 1.01261 0.0
C975 C 0.94554 0.54876 0.99251 0.0
H976 H 0.99482 0.18974 0.80366 0.0
H977 H 0.04375 0.16801 0.9248 0.0
H978 H 0.99492 0.15448 0.7551 0.0
H979 H 0.04341 0.13231 0.87695 0.0
H980 H 0.05216 0.07784 0.73504 0.0
H981 H 0.05321 0.11284 0.78616 0.0
H982 H 0.98385 0.11749 0.77 0.0
H983 H 0.98282 0.08261 0.71979 0.0
C984 C 1.00571 0.1775 0.81998 0.0
C985 C 0.01936 0.18202 0.86833 0.0
C986 C 1.00557 0.15705 0.79238 0.0
C987 C 0.01911 0.14028 0.81191 0.0
C988 C 0.03286 0.14476 0.86013 0.0
C989 C 0.03289 0.16525 0.88808 0.0
C990 C 0.03711 0.08616 0.74293 0.0
C991 C 0.01743 0.07715 0.72281 0.0
C992 C 0.0377 0.10635 0.77237 0.0
C993 C 0.01863 0.1183 0.78222 0.0
C994 C 0.99897 0.10914 0.76254 0.0
C995 C 0.99837 0.08895 0.73362 0.0
H996 H 0.33831 0.01609 0.77286 0.0
H997 H 0.37044 0.04124 0.92796 0.0
H998 H 0.37296 0.01494 0.72066 0.0
H999 H 0.40496 0.04017 0.87586 0.0
H1000 H 0.46548 1.01171 0.79443 0.0
H1001 H 0.4303 0.01418 0.8412 0.0
H1002 H 0.40273 0.03574 0.67679 0.0
H1003 H 0.4385 0.03304 0.62927 0.0
C1004 C 0.35269 0.02163 0.79575 0.0
C1005 C 0.35143 0.02863 0.85506 0.0
C1006 C 0.37263 0.02098 0.76563 0.0
C1007 C 0.39195 0.02729 0.79388 0.0
C1008 C 0.39059 0.03471 0.85279 0.0
C1009 C 0.3707 0.03532 0.88286 0.0
C1010 C 0.45204 0.0172 0.76804 0.0
C1011 C 0.45499 0.02246 0.70806 0.0
C1012 C 0.43173 0.01867 0.79514 0.0
C1013 C 0.41353 0.02548 0.76334 0.0
C1014 C 0.41631 0.03037 0.70283 0.0
C1015 C 0.43682 0.0289 0.67552 0.0
H1016 H 0.47812 0.36823 0.9214 0.0
H1017 H 0.53716 0.35144 0.83017 0.0
H1018 H 0.47782 0.40317 0.87014 0.0
H1019 H 0.53657 0.38592 0.77821 0.0
H1020 H 0.54221 0.45838 0.74001 0.0
H1021 H 0.54182 0.42431 0.79437 0.0
H1022 H 0.47261 0.41946 0.77179 0.0
H1023 H 0.4732 0.45342 0.71601 0.0
C1024 C 0.49107 0.37194 0.89058 0.0
C1025 C 0.50762 0.35679 0.88005 0.0
C1026 C 0.49078 0.39195 0.86066 0.0
C1027 C 0.50718 0.39754 0.8198 0.0
C1028 C 0.52377 0.38243 0.80967 0.0
C1029 C 0.52396 0.36243 0.83913 0.0
C1030 C 0.52688 0.45007 0.74655 0.0
C1031 C 0.50766 0.45896 0.7244 0.0
C1032 C 0.52665 0.43042 0.77772 0.0
C1033 C 0.50717 0.41895 0.78786 0.0
C1034 C 0.4879 0.42792 0.76592 0.0
C1035 C 0.48818 0.44753 0.73423 0.0
H1036 H 0.15963 0.53414 0.92581 0.0
H1037 H 0.18567 0.49471 0.78484 0.0
H1038 H 0.12521 0.53604 0.87405 0.0
H1039 H 0.15129 0.49713 0.73217 0.0
H1040 H 0.07785 0.48682 0.69145 0.0
H1041 H 0.11315 0.48451 0.73975 0.0
H1042 H 0.10965 0.55242 0.78571 0.0
H1043 H 0.07438 0.55461 0.73846 0.0
C1044 C 0.15802 0.52578 0.88388 0.0
C1045 C 0.17552 0.51419 0.85982 0.0
C1046 C 0.13831 0.5271 0.85377 0.0
C1047 C 0.13541 0.51679 0.79875 0.0
C1048 C 0.15285 0.50513 0.77465 0.0
C1049 C 0.17266 0.50392 0.80465 0.0
C1050 C 0.08466 0.50124 0.71185 0.0
C1051 C 0.07321 0.52086 0.71133 0.0
C1052 C 0.10495 0.49996 0.73923 0.0
C1053 C 0.11425 0.51825 0.76707 0.0
C1054 C 0.10289 0.53792 0.76565 0.0
C1055 C 0.0827 0.53921 0.73807 0.0
H1056 H 0.02788 0.86759 0.38307 0.0
H1057 H 0.97152 0.85096 0.4875 0.0
H1058 H 0.03021 0.90253 0.43346 0.0
H1059 H 0.9741 0.88582 0.53834 0.0
H1060 H 0.99643 0.94445 0.65324 0.0
H1061 H 0.99555 0.90819 0.60779 0.0
H1062 H 1.01117 0.93648 0.43862 0.0
H1063 H 0.01233 0.97221 0.48369 0.0
C1064 C 0.01583 0.87135 0.41634 0.0
C1065 C 0.99943 0.85619 0.43052 0.0
C1066 C 0.01724 0.89148 0.44557 0.0
C1067 C 1.00232 0.89721 0.49017 0.0
C1068 C 0.98608 0.88199 0.50496 0.0
C1069 C 0.98462 0.86188 0.47554 0.0
C1070 C 0.99964 0.94288 0.60635 0.0
C1071 C 1.00398 0.96144 0.57209 0.0
C1072 C 0.99905 0.92208 0.58015 0.0
C1073 C 1.00322 0.91924 0.51922 0.0
C1074 C 1.00802 0.93782 0.48558 0.0
C1075 C 1.00837 0.9585 0.51149 0.0
H1076 H 0.66397 0.99152 0.35812 0.0
H1077 H 0.68761 0.03683 0.48882 0.0
H1078 H 0.62895 0.99027 0.40806 0.0
H1079 H 0.65245 0.03623 0.53788 0.0
H1080 H 0.59256 0.01723 0.64498 0.0
H1081 H 0.62796 0.01713 0.59687 0.0
H1082 H 0.59703 1.00857 0.42739 0.0
H1083 H 0.5619 1.00784 0.4758 0.0
C1084 C 0.66164 1.00141 0.39723 0.0
C1085 C 0.67875 0.01423 0.41932 0.0
C1086 C 0.64143 1.00078 0.42599 0.0
C1087 C 0.63753 1.01317 0.47746 0.0
C1088 C 0.6547 0.02607 0.49929 0.0
C1089 C 0.67497 0.0265 0.47089 0.0
C1090 C 0.59333 0.01523 0.59746 0.0
C1091 C 0.57424 1.01235 0.56457 0.0
C1092 C 0.61372 0.01533 0.56958 0.0
C1093 C 0.6157 1.01281 0.50775 0.0
C1094 C 0.5965 1.01008 0.47502 0.0
C1095 C 0.57617 1.00975 0.50294 0.0
H1096 H 0.55946 0.67182 0.40952 0.0
H1097 H 0.49035 0.67717 0.433 0.0
H1098 H 0.55917 0.63859 0.46759 0.0
H1099 H 0.48993 0.64351 0.48913 0.0
H1100 H 0.49759 0.59172 0.63062 0.0
H1101 H 0.49974 0.62679 0.5809 0.0
H1102 H 0.5486 0.60139 0.46311 0.0
H1103 H 0.54696 0.56683 0.51452 0.0
C1104 C 0.54417 0.66599 0.42707 0.0
C1105 C 0.52493 0.67736 0.41603 0.0
C1106 C 0.54396 0.6467 0.46005 0.0
C1107 C 0.52451 0.63812 0.48336 0.0
C1108 C 0.5053 0.64959 0.47271 0.0
C1109 C 0.5055 0.66884 0.43958 0.0
C1110 C 0.50898 0.59372 0.59471 0.0
C1111 C 0.52179 0.57619 0.57616 0.0
C1112 C 0.51007 0.61382 0.56555 0.0
C1113 C 0.52416 0.61707 0.51709 0.0
C1114 C 0.53758 0.59974 0.50016 0.0
C1115 C 0.53644 0.57969 0.52928 0.0
H1116 H 0.86336 0.49342 0.36736 0.0
H1117 H 0.86078 0.56288 0.39085 0.0
H1118 H 0.89651 0.49235 0.42537 0.0
H1119 H 0.89342 0.5617 0.45072 0.0
H1120 H 0.96438 0.55586 0.50183 0.0
H1121 H 0.93149 0.55634 0.44374 0.0
H1122 H 0.9108 0.4962 0.52413 0.0
H1123 H 0.9443 0.49536 0.58123 0.0
C1124 C 0.86986 0.50851 0.38463 0.0
C1125 C 0.85926 0.52826 0.37389 0.0
C1126 C 0.88879 0.50785 0.41875 0.0
C1127 C 0.89782 0.52692 0.44312 0.0
C1128 C 0.88721 0.54666 0.43233 0.0
C1129 C 0.86827 0.54732 0.39836 0.0
C1130 C 0.95301 0.54256 0.50691 0.0
C1131 C 0.95733 0.52542 0.54602 0.0
C1132 C 0.93388 0.54299 0.4739 0.0
C1133 C 0.91828 0.52633 0.4789 0.0
C1134 C 0.92248 0.50921 0.51832 0.0
C1135 C 0.94168 0.5088 0.55155 0.0
loop_
_geom_bond_atom_site_label_1
_geom_bond_atom_site_label_2
_geom_bond_distance
_geom_bond_site_symmetry_2
_ccdc_geom_bond_type
C0 C1 1.264 . S
C0 C5 1.479 . S
C0 C10 1.465 . S
C1 C0 1.264 . S
C1 C3 1.339 . S
C1 H28 0.931 . S
C2 C3 1.395 . S
C2 C4 1.320 . S
C3 C1 1.339 . S
C3 C2 1.395 . S
C3 H29 0.929 . S
C4 C2 1.320 . S
C4 C5 1.405 . S
C4 H30 0.930 . S
C5 C0 1.479 . S
C5 C4 1.405 . S
C5 H31 0.931 . S
U6 O7 2.454 . S
U6 O8 2.458 . S
U6 C9 2.984 . S
U6 C10 2.847 . S
U6 C23 2.882 . S
U6 O24 2.441 . S
U6 O25 2.420 . S
U6 O26 2.455 . S
U6 O27 2.449 . S
O7 U6 2.454 . S
O7 C9 1.353 . S
O8 U6 2.458 . S
O8 C9 1.286 . S
C9 U6 2.984 . S
C9 O7 1.353 . S
C9 O8 1.286 . S
C9 C11 1.363 . S
C10 C0 1.465 . S
C10 U6 2.847 . S
C10 O24 1.249 . S
C10 O25 1.202 . S
C11 C9 1.363 . S
C11 C13 1.408 . S
C11 C16 1.342 . S
C12 C13 1.310 . S
C12 C15 1.461 . S
C12 H32 0.932 . S
C13 C11 1.408 . S
C13 C12 1.310 . S
C13 H33 0.930 . S
C14 C15 1.474 . S
C14 C16 1.285 . S
C14 H34 0.929 . S
C15 C12 1.461 . S
C15 C14 1.474 . S
C16 C11 1.342 . S
C16 C14 1.285 . S
C16 H35 0.930 . S
C17 C20 1.424 . S
C17 C22 1.245 . S
C17 C23 1.428 . S
C18 C21 1.260 . S
C18 C22 1.477 1_556 S
C18 H36 0.932 . S
C19 C20 1.384 . S
C19 C21 1.479 1_554 S
C19 H37 0.929 . S
C20 C17 1.424 . S
C20 C19 1.384 . S
C20 H38 0.928 . S
C21 C18 1.260 . S
C21 C19 1.479 1_556 S
C22 C17 1.245 . S
C22 C18 1.477 1_554 S
C22 H39 0.932 . S
C23 U6 2.882 . S
C23 C17 1.428 . S
C23 O26 1.301 . S
C23 O27 1.282 . S
O24 U6 2.441 . S
O24 C10 1.249 . S
O25 U6 2.420 . S
O25 C10 1.202 . S
O26 U6 2.455 . S
O26 C23 1.301 . S
O27 U6 2.449 . S
O27 C23 1.282 . S
H28 C1 0.931 . S
H29 C3 0.929 . S
H30 C4 0.930 . S
H31 C5 0.931 . S
H32 C12 0.932 . S
H33 C13 0.930 . S
H34 C14 0.929 . S
H35 C16 0.930 . S
H36 C18 0.932 . S
H37 C19 0.929 . S
H38 C20 0.928 . S
H39 C22 0.932 . S
C40 C41 1.264 . S
C40 C45 1.479 . S
C40 C50 1.465 . S
C41 C40 1.264 . S
C41 C43 1.339 . S
C41 H68 0.931 . S
C42 C43 1.395 . S
C42 C44 1.320 . S
C43 C41 1.339 . S
C43 C42 1.395 . S
C43 H69 0.929 . S
C44 C42 1.320 . S
C44 C45 1.405 . S
C44 H70 0.930 . S
C45 C40 1.479 . S
C45 C44 1.405 . S
C45 H71 0.931 . S
U46 O47 2.454 . S
U46 O48 2.458 . S
U46 C49 2.984 . S
U46 C50 2.847 . S
U46 C63 2.882 . S
U46 O64 2.441 . S
U46 O65 2.420 . S
U46 O66 2.455 . S
U46 O67 2.449 . S
O47 U46 2.454 . S
O47 C49 1.353 . S
O48 U46 2.458 . S
O48 C49 1.286 . S
C49 U46 2.984 . S
C49 O47 1.353 . S
C49 O48 1.286 . S
C49 C51 1.363 . S
C50 C40 1.465 . S
C50 U46 2.847 . S
C50 O64 1.249 . S
C50 O65 1.202 . S
C51 C49 1.363 . S
C51 C53 1.408 . S
C51 C56 1.342 . S
C52 C53 1.310 . S
C52 C55 1.461 . S
C52 H72 0.932 . S
C53 C51 1.408 . S
C53 C52 1.310 . S
C53 H73 0.930 . S
C54 C55 1.474 . S
C54 C56 1.285 . S
C54 H74 0.929 . S
C55 C52 1.461 . S
C55 C54 1.474 . S
C56 C51 1.342 . S
C56 C54 1.285 . S
C56 H75 0.930 . S
C57 C60 1.424 . S
C57 C62 1.245 . S
C57 C63 1.428 . S
C58 C61 1.260 . S
C58 C62 1.477 1_556 S
C58 H76 0.932 . S
C59 C60 1.384 . S
C59 C61 1.479 1_554 S
C59 H77 0.929 . S
C60 C57 1.424 . S
C60 C59 1.384 . S
C60 H78 0.928 . S
C61 C58 1.260 . S
C61 C59 1.479 1_556 S
C62 C57 1.245 . S
C62 C58 1.477 1_554 S
C62 H79 0.932 . S
C63 U46 2.882 . S
C63 C57 1.428 . S
C63 O66 1.301 . S
C63 O67 1.282 . S
O64 U46 2.441 . S
O64 C50 1.249 . S
O65 U46 2.420 . S
O65 C50 1.202 . S
O66 U46 2.455 . S
O66 C63 1.301 . S
O67 U46 2.449 . S
O67 C63 1.282 . S
H68 C41 0.931 . S
H69 C43 0.929 . S
H70 C44 0.930 . S
H71 C45 0.931 . S
H72 C52 0.932 . S
H73 C53 0.930 . S
H74 C54 0.929 . S
H75 C56 0.930 . S
H76 C58 0.932 . S
H77 C59 0.929 . S
H78 C60 0.928 . S
H79 C62 0.932 . S
C80 C81 1.264 . S
C80 C85 1.479 . S
C80 C90 1.465 . S
C81 C80 1.264 . S
C81 C83 1.339 . S
C81 H108 0.931 . S
C82 C83 1.395 . S
C82 C84 1.320 . S
C83 C81 1.339 . S
C83 C82 1.395 . S
C83 H109 0.929 . S
C84 C82 1.320 . S
C84 C85 1.405 . S
C84 H110 0.930 . S
C85 C80 1.479 . S
C85 C84 1.405 . S
C85 H111 0.931 . S
U86 O87 2.454 . S
U86 O88 2.458 . S
U86 C89 2.984 . S
U86 C90 2.847 . S
U86 C103 2.882 . S
U86 O104 2.441 . S
U86 O105 2.420 . S
U86 O106 2.455 . S
U86 O107 2.449 . S
O87 U86 2.454 . S
O87 C89 1.353 . S
O88 U86 2.458 . S
O88 C89 1.286 . S
C89 U86 2.984 . S
C89 O87 1.353 . S
C89 O88 1.286 . S
C89 C91 1.363 . S
C90 C80 1.465 . S
C90 U86 2.847 . S
C90 O104 1.249 . S
C90 O105 1.202 . S
C91 C89 1.363 . S
C91 C93 1.408 . S
C91 C96 1.342 . S
C92 C93 1.310 . S
C92 C95 1.461 . S
C92 H112 0.932 . S
C93 C91 1.408 . S
C93 C92 1.310 . S
C93 H113 0.930 . S
C94 C95 1.474 . S
C94 C96 1.285 . S
C94 H114 0.929 . S
C95 C92 1.461 . S
C95 C94 1.474 . S
C96 C91 1.342 . S
C96 C94 1.285 . S
C96 H115 0.930 . S
C97 C100 1.424 . S
C97 C102 1.245 . S
C97 C103 1.428 . S
C98 C101 1.260 . S
C98 C102 1.477 1_556 S
C98 H116 0.932 . S
C99 C100 1.384 . S
C99 C101 1.479 1_554 S
C99 H117 0.929 . S
C100 C97 1.424 . S
C100 C99 1.384 . S
C100 H118 0.928 . S
C101 C98 1.260 . S
C101 C99 1.479 1_556 S
C102 C97 1.245 . S
C102 C98 1.477 1_554 S
C102 H119 0.932 . S
C103 U86 2.882 . S
C103 C97 1.428 . S
C103 O106 1.301 . S
C103 O107 1.282 . S
O104 U86 2.441 . S
O104 C90 1.249 . S
O105 U86 2.420 . S
O105 C90 1.202 . S
O106 U86 2.455 . S
O106 C103 1.301 . S
O107 U86 2.449 . S
O107 C103 1.282 . S
H108 C81 0.931 . S
H109 C83 0.929 . S
H110 C84 0.930 . S
H111 C85 0.931 . S
H112 C92 0.932 . S
H113 C93 0.930 . S
H114 C94 0.929 . S
H115 C96 0.930 . S
H116 C98 0.932 . S
H117 C99 0.929 . S
H118 C100 0.928 . S
H119 C102 0.932 . S
C120 C121 1.264 . S
C120 C125 1.479 . S
C120 C130 1.465 . S
C121 C120 1.264 . S
C121 C123 1.339 . S
C121 H148 0.931 . S
C122 C123 1.395 . S
C122 C124 1.320 . S
C123 C121 1.339 . S
C123 C122 1.395 . S
C123 H149 0.929 . S
C124 C122 1.320 . S
C124 C125 1.405 . S
C124 H150 0.930 . S
C125 C120 1.479 . S
C125 C124 1.405 . S
C125 H151 0.931 . S
U126 O127 2.454 . S
U126 O128 2.458 . S
U126 C129 2.984 . S
U126 C130 2.847 . S
U126 C143 2.882 . S
U126 O144 2.441 . S
U126 O145 2.420 . S
U126 O146 2.455 . S
U126 O147 2.449 . S
O127 U126 2.454 . S
O127 C129 1.353 . S
O128 U126 2.458 . S
O128 C129 1.286 . S
C129 U126 2.984 . S
C129 O127 1.353 . S
C129 O128 1.286 . S
C129 C131 1.363 . S
C130 C120 1.465 . S
C130 U126 2.847 . S
C130 O144 1.249 . S
C130 O145 1.202 . S
C131 C129 1.363 . S
C131 C133 1.408 . S
C131 C136 1.342 . S
C132 C133 1.310 . S
C132 C135 1.461 . S
C132 H152 0.932 . S
C133 C131 1.408 . S
C133 C132 1.310 . S
C133 H153 0.930 . S
C134 C135 1.474 . S
C134 C136 1.285 . S
C134 H154 0.929 . S
C135 C132 1.461 . S
C135 C134 1.474 . S
C136 C131 1.342 . S
C136 C134 1.285 . S
C136 H155 0.930 . S
C137 C140 1.424 . S
C137 C142 1.245 . S
C137 C143 1.428 . S
C138 C141 1.259 1_556 S
C138 C142 1.477 1_556 S
C138 H156 0.932 . S
C139 C140 1.384 . S
C139 C141 1.482 . S
C139 H157 0.929 . S
C140 C137 1.424 . S
C140 C139 1.384 . S
C140 H158 0.928 . S
C141 C138 1.259 1_554 S
C141 C139 1.482 . S
C142 C137 1.245 . S
C142 C138 1.477 1_554 S
C142 H159 0.932 . S
C143 U126 2.882 . S
C143 C137 1.428 . S
C143 O146 1.301 . S
C143 O147 1.282 . S
O144 U126 2.441 . S
O144 C130 1.249 . S
O145 U126 2.420 . S
O145 C130 1.202 . S
O146 U126 2.455 . S
O146 C143 1.301 . S
O147 U126 2.449 . S
O147 C143 1.282 . S
H148 C121 0.931 . S
H149 C123 0.929 . S
H150 C124 0.930 . S
H151 C125 0.931 . S
H152 C132 0.932 . S
H153 C133 0.930 . S
H154 C134 0.929 . S
H155 C136 0.930 . S
H156 C138 0.932 . S
H157 C139 0.929 . S
H158 C140 0.928 . S
H159 C142 0.932 . S
C160 C161 1.264 . S
C160 C165 1.479 . S
C160 C170 1.465 . S
C161 C160 1.264 . S
C161 C163 1.339 . S
C161 H188 0.931 . S
C162 C163 1.395 . S
C162 C164 1.320 . S
C163 C161 1.339 . S
C163 C162 1.395 . S
C163 H189 0.929 . S
C164 C162 1.320 . S
C164 C165 1.405 . S
C164 H190 0.930 . S
C165 C160 1.479 . S
C165 C164 1.405 . S
C165 H191 0.931 . S
U166 O167 2.454 . S
U166 O168 2.458 . S
U166 C169 2.984 . S
U166 C170 2.847 1_554 S
U166 C183 2.882 . S
U166 O184 2.441 1_554 S
U166 O185 2.420 1_554 S
U166 O186 2.455 . S
U166 O187 2.449 . S
O167 U166 2.454 . S
O167 C169 1.353 . S
O168 U166 2.458 . S
O168 C169 1.286 . S
C169 U166 2.984 . S
C169 O167 1.353 . S
C169 O168 1.286 . S
C169 C171 1.363 . S
C170 C160 1.465 . S
C170 U166 2.847 1_556 S
C170 O184 1.249 . S
C170 O185 1.202 . S
C171 C169 1.363 . S
C171 C173 1.408 . S
C171 C176 1.342 . S
C172 C173 1.310 . S
C172 C175 1.461 . S
C172 H192 0.932 . S
C173 C171 1.408 . S
C173 C172 1.310 . S
C173 H193 0.941 . S
C174 C175 1.474 . S
C174 C176 1.285 . S
C174 H194 0.929 . S
C175 C172 1.461 . S
C175 C174 1.474 . S
C176 C171 1.342 . S
C176 C174 1.285 . S
C176 H195 0.930 . S
C177 C180 1.424 . S
C177 C182 1.245 . S
C177 C183 1.428 . S
C178 C181 1.260 . S
C178 C182 1.477 . S
C178 H196 0.932 . S
C179 C180 1.384 . S
C179 C181 1.479 . S
C179 H197 0.929 . S
C180 C177 1.424 . S
C180 C179 1.384 . S
C180 H198 0.928 . S
C181 C178 1.260 . S
C181 C179 1.479 . S
C182 C177 1.245 . S
C182 C178 1.477 . S
C182 H199 0.932 . S
C183 U166 2.882 . S
C183 C177 1.428 . S
C183 O186 1.301 . S
C183 O187 1.282 . S
O184 U166 2.441 1_556 S
O184 C170 1.249 . S
O185 U166 2.420 1_556 S
O185 C170 1.202 . S
O186 U166 2.455 . S
O186 C183 1.301 . S
O187 U166 2.449 . S
O187 C183 1.282 . S
H188 C161 0.931 . S
H189 C163 0.929 . S
H190 C164 0.930 . S
H191 C165 0.931 . S
H192 C172 0.932 . S
H193 C173 0.941 . S
H194 C174 0.929 . S
H195 C176 0.930 . S
H196 C178 0.932 . S
H197 C179 0.929 . S
H198 C180 0.928 . S
H199 C182 0.932 . S
C200 C201 1.264 . S
C200 C205 1.479 . S
C200 C210 1.465 . S
C201 C200 1.264 . S
C201 C203 1.339 . S
C201 H228 0.931 . S
C202 C203 1.395 . S
C202 C204 1.320 . S
C203 C201 1.339 . S
C203 C202 1.395 . S
C203 H229 0.929 . S
C204 C202 1.320 . S
C204 C205 1.405 . S
C204 H230 0.930 . S
C205 C200 1.479 . S
C205 C204 1.405 . S
C205 H231 0.931 . S
U206 O207 2.454 . S
U206 O208 2.458 . S
U206 C209 2.984 . S
U206 C210 2.847 1_554 S
U206 C223 2.882 . S
U206 O224 2.441 1_554 S
U206 O225 2.420 1_554 S
U206 O226 2.455 . S
U206 O227 2.449 . S
O207 U206 2.454 . S
O207 C209 1.353 . S
O208 U206 2.458 . S
O208 C209 1.286 . S
C209 U206 2.984 . S
C209 O207 1.353 . S
C209 O208 1.286 . S
C209 C211 1.363 . S
C210 C200 1.465 . S
C210 U206 2.847 1_556 S
C210 O224 1.249 . S
C210 O225 1.202 . S
C211 C209 1.363 . S
C211 C213 1.408 . S
C211 C216 1.342 . S
C212 C213 1.310 . S
C212 C215 1.461 . S
C212 H232 0.932 . S
C213 C211 1.408 . S
C213 C212 1.310 . S
C213 H233 0.930 . S
C214 C215 1.474 . S
C214 C216 1.285 . S
C214 H234 0.929 . S
C215 C212 1.461 . S
C215 C214 1.474 . S
C216 C211 1.342 . S
C216 C214 1.285 . S
C216 H235 0.930 . S
C217 C220 1.424 . S
C217 C222 1.245 . S
C217 C223 1.428 . S
C218 C221 1.260 . S
C218 C222 1.477 . S
C218 H236 0.932 . S
C219 C220 1.384 . S
C219 C221 1.479 . S
C219 H237 0.929 . S
C220 C217 1.424 . S
C220 C219 1.384 . S
C220 H238 0.928 . S
C221 C218 1.260 . S
C221 C219 1.479 . S
C222 C217 1.245 . S
C222 C218 1.477 . S
C222 H239 0.932 . S
C223 U206 2.882 . S
C223 C217 1.428 . S
C223 O226 1.301 . S
C223 O227 1.282 . S
O224 U206 2.441 1_556 S
O224 C210 1.249 . S
O225 U206 2.420 1_556 S
O225 C210 1.202 . S
O226 U206 2.455 . S
O226 C223 1.301 . S
O227 U206 2.449 . S
O227 C223 1.282 . S
H228 C201 0.931 . S
H229 C203 0.929 . S
H230 C204 0.930 . S
H231 C205 0.931 . S
H232 C212 0.932 . S
H233 C213 0.930 . S
H234 C214 0.929 . S
H235 C216 0.930 . S
H236 C218 0.932 . S
H237 C219 0.929 . S
H238 C220 0.928 . S
H239 C222 0.932 . S
C240 C241 1.264 . S
C240 C245 1.479 . S
C240 C250 1.465 . S
C241 C240 1.264 . S
C241 C243 1.339 . S
C241 H268 0.931 . S
C242 C243 1.395 . S
C242 C244 1.320 . S
C243 C241 1.339 . S
C243 C242 1.395 . S
C243 H269 0.929 . S
C244 C242 1.320 . S
C244 C245 1.405 . S
C244 H270 0.930 . S
C245 C240 1.479 . S
C245 C244 1.405 . S
C245 H271 0.931 . S
U246 O247 2.454 . S
U246 O248 2.458 . S
U246 C249 2.984 . S
U246 C250 2.847 1_554 S
U246 C263 2.882 . S
U246 O264 2.441 1_554 S
U246 O265 2.420 1_554 S
U246 O266 2.455 . S
U246 O267 2.449 . S
O247 U246 2.454 . S
O247 C249 1.353 . S
O248 U246 2.458 . S
O248 C249 1.286 . S
C249 U246 2.984 . S
C249 O247 1.353 . S
C249 O248 1.286 . S
C249 C251 1.363 . S
C250 C240 1.465 . S
C250 U246 2.847 1_556 S
C250 O264 1.249 . S
C250 O265 1.202 . S
C251 C249 1.363 . S
C251 C253 1.408 . S
C251 C256 1.342 . S
C252 C253 1.310 . S
C252 C255 1.461 . S
C252 H272 0.932 . S
C253 C251 1.408 . S
C253 C252 1.310 . S
C253 H273 0.930 . S
C254 C255 1.474 . S
C254 C256 1.285 . S
C254 H274 0.929 . S
C255 C252 1.461 . S
C255 C254 1.474 . S
C256 C251 1.342 . S
C256 C254 1.285 . S
C256 H275 0.930 . S
C257 C260 1.424 . S
C257 C262 1.245 . S
C257 C263 1.428 . S
C258 C261 1.260 . S
C258 C262 1.477 . S
C258 H276 0.932 . S
C259 C260 1.384 . S
C259 C261 1.479 . S
C259 H277 0.929 . S
C260 C257 1.424 . S
C260 C259 1.384 . S
C260 H278 0.928 . S
C261 C258 1.260 . S
C261 C259 1.479 . S
C262 C257 1.245 . S
C262 C258 1.477 . S
C262 H279 0.932 . S
C263 U246 2.882 . S
C263 C257 1.428 . S
C263 O266 1.301 . S
C263 O267 1.282 . S
O264 U246 2.441 1_556 S
O264 C250 1.249 . S
O265 U246 2.420 1_556 S
O265 C250 1.202 . S
O266 U246 2.455 . S
O266 C263 1.301 . S
O267 U246 2.449 . S
O267 C263 1.282 . S
H268 C241 0.931 . S
H269 C243 0.929 . S
H270 C244 0.930 . S
H271 C245 0.931 . S
H272 C252 0.932 . S
H273 C253 0.930 . S
H274 C254 0.929 . S
H275 C256 0.930 . S
H276 C258 0.932 . S
H277 C259 0.929 . S
H278 C260 0.928 . S
H279 C262 0.932 . S
C280 C281 1.264 . S
C280 C285 1.479 . S
C280 C290 1.465 . S
C281 C280 1.264 . S
C281 C283 1.339 . S
C281 H308 0.931 . S
C282 C283 1.395 . S
C282 C284 1.320 . S
C283 C281 1.339 . S
C283 C282 1.395 . S
C283 H309 0.929 . S
C284 C282 1.320 . S
C284 C285 1.405 . S
C284 H310 0.930 . S
C285 C280 1.479 . S
C285 C284 1.405 . S
C285 H311 0.931 . S
U286 O287 2.454 . S
U286 O288 2.458 . S
U286 C289 2.984 . S
U286 C290 2.847 1_554 S
U286 C303 2.882 . S
U286 O304 2.441 1_554 S
U286 O305 2.420 1_554 S
U286 O306 2.455 . S
U286 O307 2.449 . S
O287 U286 2.454 . S
O287 C289 1.353 . S
O288 U286 2.458 . S
O288 C289 1.286 . S
C289 U286 2.984 . S
C289 O287 1.353 . S
C289 O288 1.286 . S
C289 C291 1.363 . S
C290 C280 1.465 . S
C290 U286 2.847 1_556 S
C290 O304 1.249 . S
C290 O305 1.202 . S
C291 C289 1.363 . S
C291 C293 1.408 . S
C291 C296 1.342 . S
C292 C293 1.310 . S
C292 C295 1.461 . S
C292 H312 0.932 . S
C293 C291 1.408 . S
C293 C292 1.310 . S
C293 H313 0.911 1_554 S
C294 C295 1.474 . S
C294 C296 1.285 . S
C294 H314 0.929 . S
C295 C292 1.461 . S
C295 C294 1.474 . S
C296 C291 1.342 . S
C296 C294 1.285 . S
C296 H315 0.930 . S
C297 C300 1.424 . S
C297 C302 1.245 . S
C297 C303 1.428 . S
C298 C301 1.260 . S
C298 C302 1.477 . S
C298 H316 0.932 . S
C299 C300 1.384 . S
C299 C301 1.479 . S
C299 H317 0.929 . S
C300 C297 1.424 . S
C300 C299 1.384 . S
C300 H318 0.928 . S
C301 C298 1.260 . S
C301 C299 1.479 . S
C302 C297 1.245 . S
C302 C298 1.477 . S
C302 H319 0.932 . S
C303 U286 2.882 . S
C303 C297 1.428 . S
C303 O306 1.301 . S
C303 O307 1.282 . S
O304 U286 2.441 1_556 S
O304 C290 1.249 . S
O305 U286 2.420 1_556 S
O305 C290 1.202 . S
O306 U286 2.455 . S
O306 C303 1.301 . S
O307 U286 2.449 . S
O307 C303 1.282 . S
H308 C281 0.931 . S
H309 C283 0.929 . S
H310 C284 0.930 . S
H311 C285 0.931 . S
H312 C292 0.932 . S
H313 C293 0.911 1_556 S
H314 C294 0.929 . S
H315 C296 0.930 . S
H316 C298 0.932 . S
H317 C299 0.929 . S
H318 C300 0.928 . S
H319 C302 0.932 . S
Tb320 N349 2.617 . S
Tb320 N355 2.572 . S
Tb320 O364 2.465 . S
Tb320 O365 2.387 1_545 S
Tb320 O367 2.428 . S
Tb320 O368 2.308 1_655 S
Tb320 O372 2.349 1_655 S
Tb320 O375 2.393 . S
Tb320 C384 2.802 . S
C321 N322 1.365 1_545 S
C321 C324 1.416 . S
C321 C328 1.424 . S
N322 C321 1.365 1_565 S
N322 C325 1.338 . S
N322 Tb331 2.625 . S
C323 C325 1.390 1_545 S
C323 C326 1.339 . S
C323 H343 0.930 . S
C324 C321 1.416 . S
C324 C326 1.416 . S
C324 C330 1.448 . S
C325 N322 1.338 . S
C325 C323 1.390 1_565 S
C325 H336 0.930 . S
C326 C323 1.339 . S
C326 C324 1.416 . S
C326 H347 0.930 . S
C327 C328 1.413 . S
C327 C329 1.427 . S
C327 C333 1.416 . S
C328 C321 1.424 . S
C328 C327 1.413 . S
C328 N332 1.361 . S
C329 C327 1.427 . S
C329 C330 1.328 . S
C329 H344 0.929 . S
C330 C324 1.448 . S
C330 C329 1.328 . S
C330 H345 0.930 . S
Tb331 N322 2.625 . S
Tb331 N332 2.572 1_565 S
Tb331 O366 2.349 . S
Tb331 O369 2.393 . S
Tb331 O370 2.465 . S
Tb331 O371 2.387 1_565 S
Tb331 O373 2.428 . S
Tb331 O374 2.295 1_465 S
Tb331 C395 2.802 . S
N332 C328 1.361 . S
N332 Tb331 2.572 1_545 S
N332 C334 1.340 . S
C333 C327 1.416 . S
C333 C335 1.332 . S
C333 H341 0.931 . S
C334 N332 1.340 . S
C334 C335 1.407 . S
C334 H340 0.930 1_455 S
C335 C333 1.332 . S
C335 C334 1.407 . S
C335 H337 0.963 . S
H336 C325 0.930 . S
H337 C335 0.963 . S
H338 C353 0.930 . S
H339 C360 0.929 1_455 S
H340 C334 0.930 1_655 S
H341 C333 0.931 . S
H342 C356 0.930 1_455 S
H343 C323 0.930 . S
H344 C329 0.929 . S
H345 C330 0.930 . S
H346 C351 0.930 . S
H347 C326 0.930 . S
H348 C359 0.931 . S
N349 Tb320 2.617 . S
N349 C350 1.379 . S
N349 C353 1.334 . S
C350 N349 1.379 . S
C350 C352 1.416 1_545 S
C350 C358 1.424 . S
C351 H346 0.930 . S
C351 C353 1.390 . S
C351 C354 1.339 1_545 S
C352 C350 1.416 1_565 S
C352 C354 1.416 . S
C352 C385 1.448 . S
C353 H338 0.930 . S
C353 N349 1.334 . S
C353 C351 1.390 . S
C354 C351 1.339 1_565 S
C354 C352 1.416 . S
C354 H361 0.930 . S
N355 Tb320 2.572 . S
N355 C356 1.340 . S
N355 C358 1.361 . S
C356 H342 0.930 1_655 S
C356 N355 1.340 . S
C356 C360 1.407 1_545 S
C357 C358 1.413 1_565 S
C357 C359 1.416 . S
C357 C386 1.427 . S
C358 C350 1.424 . S
C358 N355 1.361 . S
C358 C357 1.413 1_545 S
C359 H348 0.931 . S
C359 C357 1.416 . S
C359 C360 1.332 . S
C360 H339 0.929 1_655 S
C360 C356 1.407 1_565 S
C360 C359 1.332 . S
H361 C354 0.930 . S
H362 C385 0.930 . S
H363 C386 0.929 . S
O364 Tb320 2.465 . S
O364 C384 1.264 . S
O365 Tb320 2.387 1_565 S
O365 C376 1.264 . S
O366 Tb331 2.349 . S
O366 C376 1.243 1_455 S
O367 Tb320 2.428 . S
O367 C384 1.256 . S
O368 Tb320 2.308 1_455 S
O368 C383 1.266 . S
O369 Tb331 2.393 . S
O369 C383 1.248 1_565 S
O370 Tb331 2.465 . S
O370 C395 1.264 . S
O371 Tb331 2.387 1_545 S
O371 C387 1.264 . S
O372 Tb320 2.349 1_455 S
O372 C387 1.243 . S
O373 Tb331 2.428 . S
O373 C395 1.256 . S
O374 Tb331 2.295 1_645 S
O374 C394 1.278 . S
O375 Tb320 2.393 . S
O375 C394 1.248 . S
C376 O365 1.264 . S
C376 O366 1.243 1_655 S
C377 C380 1.399 . S
C377 C382 1.383 . S
C377 C384 1.496 . S
C378 C379 1.399 . S
C378 C382 1.389 . S
C379 C378 1.399 . S
C379 C381 1.380 . S
C379 H396 0.929 . S
C380 C377 1.399 . S
C380 C381 1.392 . S
C380 H397 0.929 . S
C381 C379 1.380 . S
C381 C380 1.392 . S
C381 H398 0.929 . S
C382 C377 1.383 . S
C382 C378 1.389 . S
C382 H399 0.931 1_655 S
C383 O368 1.266 . S
C383 O369 1.248 1_545 S
C384 Tb320 2.802 . S
C384 O364 1.264 . S
C384 O367 1.256 . S
C384 C377 1.496 . S
C385 C352 1.448 . S
C385 H362 0.930 . S
C385 C386 1.328 . S
C386 C357 1.427 . S
C386 H363 0.929 . S
C386 C385 1.328 . S
C387 O371 1.264 . S
C387 O372 1.243 . S
C388 C391 1.399 . S
C388 C392 1.383 . S
C388 C395 1.496 . S
C389 C390 1.399 . S
C389 C392 1.389 . S
C390 C389 1.399 . S
C390 C393 1.380 . S
C390 H400 0.929 . S
C391 C388 1.399 . S
C391 C393 1.392 . S
C391 H401 0.929 . S
C392 C388 1.383 . S
C392 C389 1.389 . S
C392 H402 0.957 . S
C393 C390 1.380 . S
C393 C391 1.392 . S
C393 H403 0.929 . S
C394 O374 1.278 . S
C394 O375 1.248 . S
C395 Tb331 2.802 . S
C395 O370 1.264 . S
C395 O373 1.256 . S
C395 C388 1.496 . S
H396 C379 0.929 . S
H397 C380 0.929 . S
H398 C381 0.929 . S
H399 C382 0.931 1_455 S
H400 C390 0.929 . S
H401 C391 0.929 . S
H402 C392 0.957 . S
H403 C393 0.929 . S
Tb404 N433 2.617 . S
Tb404 N439 2.572 . S
Tb404 O448 2.465 . S
Tb404 O449 2.387 . S
Tb404 O451 2.428 . S
Tb404 O452 2.308 . S
Tb404 O456 2.349 1_545 S
Tb404 O459 2.393 . S
Tb404 C468 2.802 . S
C405 N406 1.379 . S
C405 C408 1.416 . S
C405 C412 1.424 . S
N406 C405 1.379 . S
N406 C409 1.334 . S
N406 Tb415 2.617 . S
C407 C409 1.390 . S
C407 C410 1.339 . S
C407 H427 0.930 . S
C408 C405 1.416 . S
C408 C410 1.416 . S
C408 C414 1.448 . S
C409 N406 1.334 . S
C409 C407 1.390 . S
C409 H420 0.930 . S
C410 C407 1.339 . S
C410 C408 1.416 . S
C410 H431 0.930 . S
C411 C412 1.413 . S
C411 C413 1.427 . S
C411 C417 1.416 . S
C412 C405 1.424 . S
C412 C411 1.413 . S
C412 N416 1.361 . S
C413 C411 1.427 . S
C413 C414 1.328 . S
C413 H428 0.929 . S
C414 C408 1.448 . S
C414 C413 1.328 . S
C414 H429 0.930 . S
Tb415 N406 2.617 . S
Tb415 N416 2.572 . S
Tb415 O450 2.349 1_565 S
Tb415 O453 2.393 . S
Tb415 O454 2.465 . S
Tb415 O455 2.387 . S
Tb415 O457 2.428 . S
Tb415 O458 2.308 1_565 S
Tb415 C479 2.802 . S
N416 C412 1.361 . S
N416 Tb415 2.572 . S
N416 C418 1.340 . S
C417 C411 1.416 . S
C417 C419 1.332 . S
C417 H425 0.931 . S
C418 N416 1.340 . S
C418 C419 1.407 . S
C418 H424 0.930 . S
C419 C417 1.332 . S
C419 C418 1.407 . S
C419 H421 0.929 . S
H420 C409 0.930 . S
H421 C419 0.929 . S
H422 C437 0.930 . S
H423 C444 0.929 . S
H424 C418 0.930 . S
H425 C417 0.931 . S
H426 C440 0.930 . S
H427 C407 0.930 . S
H428 C413 0.929 . S
H429 C414 0.930 . S
H430 C435 0.930 . S
H431 C410 0.930 . S
H432 C443 0.931 . S
N433 Tb404 2.617 . S
N433 C434 1.379 . S
N433 C437 1.334 . S
C434 N433 1.379 . S
C434 C436 1.416 . S
C434 C442 1.424 . S
C435 H430 0.930 . S
C435 C437 1.390 . S
C435 C438 1.339 . S
C436 C434 1.416 . S
C436 C438 1.416 . S
C436 C469 1.448 . S
C437 H422 0.930 . S
C437 N433 1.334 . S
C437 C435 1.390 . S
C438 C435 1.339 . S
C438 C436 1.416 . S
C438 H445 0.930 . S
N439 Tb404 2.572 . S
N439 C440 1.340 . S
N439 C442 1.361 . S
C440 H426 0.930 . S
C440 N439 1.340 . S
C440 C444 1.407 . S
C441 C442 1.413 . S
C441 C443 1.416 . S
C441 C470 1.427 . S
C442 C434 1.424 . S
C442 N439 1.361 . S
C442 C441 1.413 . S
C443 H432 0.931 . S
C443 C441 1.416 . S
C443 C444 1.332 . S
C444 H423 0.929 . S
C444 C440 1.407 . S
C444 C443 1.332 . S
H445 C438 0.930 . S
H446 C469 0.930 . S
H447 C470 0.929 . S
O448 Tb404 2.465 . S
O448 C468 1.264 . S
O449 Tb404 2.387 . S
O449 C460 1.264 . S
O450 Tb415 2.349 1_545 S
O450 C460 1.243 . S
O451 Tb404 2.428 . S
O451 C468 1.256 . S
O452 Tb404 2.308 . S
O452 C467 1.266 1_545 S
O453 Tb415 2.393 . S
O453 C467 1.248 . S
O454 Tb415 2.465 . S
O454 C479 1.264 . S
O455 Tb415 2.387 . S
O455 C471 1.264 . S
O456 Tb404 2.349 1_565 S
O456 C471 1.243 . S
O457 Tb415 2.428 . S
O457 C479 1.256 . S
O458 Tb415 2.308 1_545 S
O458 C478 1.266 . S
O459 Tb404 2.393 . S
O459 C478 1.248 . S
C460 O449 1.264 . S
C460 O450 1.243 . S
C461 C464 1.399 . S
C461 C466 1.383 . S
C461 C468 1.496 . S
C462 C463 1.399 . S
C462 C466 1.389 . S
C463 C462 1.399 . S
C463 C465 1.380 . S
C463 H480 0.929 . S
C464 C461 1.399 . S
C464 C465 1.392 . S
C464 H481 0.929 . S
C465 C463 1.380 . S
C465 C464 1.392 . S
C465 H482 0.929 . S
C466 C461 1.383 . S
C466 C462 1.389 . S
C466 H483 0.931 . S
C467 O452 1.266 1_565 S
C467 O453 1.248 . S
C468 Tb404 2.802 . S
C468 O448 1.264 . S
C468 O451 1.256 . S
C468 C461 1.496 . S
C469 C436 1.448 . S
C469 H446 0.930 . S
C469 C470 1.328 . S
C470 C441 1.427 . S
C470 H447 0.929 . S
C470 C469 1.328 . S
C471 O455 1.264 . S
C471 O456 1.243 . S
C472 C475 1.399 . S
C472 C476 1.367 1_565 S
C472 C479 1.496 . S
C473 C474 1.399 1_545 S
C473 C476 1.392 . S
C474 C473 1.399 1_565 S
C474 C477 1.380 . S
C474 H484 0.929 . S
C475 C472 1.399 . S
C475 C477 1.392 . S
C475 H485 0.929 . S
C476 C472 1.367 1_545 S
C476 C473 1.392 . S
C476 H486 0.947 . S
C477 C474 1.380 . S
C477 C475 1.392 . S
C477 H487 0.929 . S
C478 O458 1.266 . S
C478 O459 1.248 . S
C479 Tb415 2.802 . S
C479 O454 1.264 . S
C479 O457 1.256 . S
C479 C472 1.496 . S
H480 C463 0.929 . S
H481 C464 0.929 . S
H482 C465 0.929 . S
H483 C466 0.931 . S
H484 C474 0.929 . S
H485 C475 0.929 . S
H486 C476 0.947 . S
H487 C477 0.929 . S
Tb488 N517 2.617 . S
Tb488 N523 2.572 . S
Tb488 O532 2.465 . S
Tb488 O533 2.387 . S
Tb488 O535 2.428 . S
Tb488 O536 2.308 . S
Tb488 O540 2.349 . S
Tb488 O543 2.393 . S
Tb488 C552 2.802 . S
C489 N490 1.379 . S
C489 C492 1.416 . S
C489 C496 1.424 . S
N490 C489 1.379 . S
N490 C493 1.334 . S
N490 Tb499 2.617 . S
C491 C493 1.390 . S
C491 C494 1.339 . S
C491 H511 0.930 . S
C492 C489 1.416 . S
C492 C494 1.416 . S
C492 C498 1.448 . S
C493 N490 1.334 . S
C493 C491 1.390 . S
C493 H504 0.930 . S
C494 C491 1.339 . S
C494 C492 1.416 . S
C494 H515 0.930 . S
C495 C496 1.413 . S
C495 C497 1.427 . S
C495 C501 1.416 . S
C496 C489 1.424 . S
C496 C495 1.413 . S
C496 N500 1.361 . S
C497 C495 1.427 . S
C497 C498 1.328 . S
C497 H512 0.929 . S
C498 C492 1.448 . S
C498 C497 1.328 . S
C498 H513 0.930 . S
Tb499 N490 2.617 . S
Tb499 N500 2.572 . S
Tb499 O534 2.349 . S
Tb499 O537 2.393 . S
Tb499 O538 2.465 . S
Tb499 O539 2.387 . S
Tb499 O541 2.428 . S
Tb499 O542 2.308 . S
Tb499 C563 2.802 . S
N500 C496 1.361 . S
N500 Tb499 2.572 . S
N500 C502 1.340 . S
C501 C495 1.416 . S
C501 C503 1.332 . S
C501 H509 0.931 . S
C502 N500 1.340 . S
C502 C503 1.407 . S
C502 H508 0.930 . S
C503 C501 1.332 . S
C503 C502 1.407 . S
C503 H505 0.929 . S
H504 C493 0.930 . S
H505 C503 0.929 . S
H506 C521 0.930 . S
H507 C528 0.929 . S
H508 C502 0.930 . S
H509 C501 0.931 . S
H510 C524 0.930 . S
H511 C491 0.930 . S
H512 C497 0.929 . S
H513 C498 0.930 . S
H514 C519 0.930 . S
H515 C494 0.930 . S
H516 C527 0.931 . S
N517 Tb488 2.617 . S
N517 C518 1.379 . S
N517 C521 1.334 . S
C518 N517 1.379 . S
C518 C520 1.416 . S
C518 C526 1.424 . S
C519 H514 0.930 . S
C519 C521 1.390 . S
C519 C522 1.339 . S
C520 C518 1.416 . S
C520 C522 1.416 . S
C520 C553 1.448 . S
C521 H506 0.930 . S
C521 N517 1.334 . S
C521 C519 1.390 . S
C522 C519 1.339 . S
C522 C520 1.416 . S
C522 H529 0.930 . S
N523 Tb488 2.572 . S
N523 C524 1.340 . S
N523 C526 1.361 . S
C524 H510 0.930 . S
C524 N523 1.340 . S
C524 C528 1.407 . S
C525 C526 1.413 . S
C525 C527 1.416 . S
C525 C554 1.427 . S
C526 C518 1.424 . S
C526 N523 1.361 . S
C526 C525 1.413 . S
C527 H516 0.931 . S
C527 C525 1.416 . S
C527 C528 1.332 . S
C528 H507 0.929 . S
C528 C524 1.407 . S
C528 C527 1.332 . S
H529 C522 0.930 . S
H530 C553 0.930 . S
H531 C554 0.929 . S
O532 Tb488 2.465 . S
O532 C552 1.264 . S
O533 Tb488 2.387 . S
O533 C544 1.264 . S
O534 Tb499 2.349 . S
O534 C544 1.243 . S
O535 Tb488 2.428 . S
O535 C552 1.256 . S
O536 Tb488 2.308 . S
O536 C551 1.266 . S
O537 Tb499 2.393 . S
O537 C551 1.248 . S
O538 Tb499 2.465 . S
O538 C563 1.264 . S
O539 Tb499 2.387 . S
O539 C555 1.264 . S
O540 Tb488 2.349 . S
O540 C555 1.243 . S
O541 Tb499 2.428 . S
O541 C563 1.256 . S
O542 Tb499 2.308 . S
O542 C562 1.266 . S
O543 Tb488 2.393 . S
O543 C562 1.248 . S
C544 O533 1.264 . S
C544 O534 1.243 . S
C545 C548 1.399 . S
C545 C550 1.383 . S
C545 C552 1.496 . S
C546 C547 1.399 . S
C546 C550 1.389 . S
C547 C546 1.399 . S
C547 C549 1.380 . S
C547 H564 0.929 . S
C548 C545 1.399 . S
C548 C549 1.392 . S
C548 H565 0.929 . S
C549 C547 1.380 . S
C549 C548 1.392 . S
C549 H566 0.929 . S
C550 C545 1.383 . S
C550 C546 1.389 . S
C550 H567 0.931 . S
C551 O536 1.266 . S
C551 O537 1.248 . S
C552 Tb488 2.802 . S
C552 O532 1.264 . S
C552 O535 1.256 . S
C552 C545 1.496 . S
C553 C520 1.448 . S
C553 H530 0.930 . S
C553 C554 1.328 . S
C554 C525 1.427 . S
C554 H531 0.929 . S
C554 C553 1.328 . S
C555 O539 1.264 . S
C555 O540 1.243 . S
C556 C559 1.399 . S
C556 C560 1.383 . S
C556 C563 1.496 . S
C557 C558 1.399 . S
C557 C560 1.389 . S
C558 C557 1.399 . S
C558 C561 1.380 . S
C558 H568 0.929 . S
C559 C556 1.399 . S
C559 C561 1.392 . S
C559 H569 0.929 . S
C560 C556 1.383 . S
C560 C557 1.389 . S
C560 H570 0.931 . S
C561 C558 1.380 . S
C561 C559 1.392 . S
C561 H571 0.929 . S
C562 O542 1.266 . S
C562 O543 1.248 . S
C563 Tb499 2.802 . S
C563 O538 1.264 . S
C563 O541 1.256 . S
C563 C556 1.496 . S
H564 C547 0.929 . S
H565 C548 0.929 . S
H566 C549 0.929 . S
H567 C550 0.931 . S
H568 C558 0.929 . S
H569 C559 0.929 . S
H570 C560 0.931 . S
H571 C561 0.929 . S
Tb572 N601 2.617 . S
Tb572 N607 2.572 . S
Tb572 O616 2.465 . S
Tb572 O617 2.387 1_455 S
Tb572 O619 2.428 . S
Tb572 O620 2.308 . S
Tb572 O624 2.349 . S
Tb572 O627 2.393 . S
Tb572 C636 2.802 . S
C573 N574 1.379 1_455 S
C573 C576 1.416 . S
C573 C580 1.424 . S
N574 C573 1.379 1_655 S
N574 C577 1.334 . S
N574 Tb583 2.617 . S
C575 C577 1.390 1_455 S
C575 C578 1.339 . S
C575 H595 0.928 1_455 S
C576 C573 1.416 . S
C576 C578 1.416 . S
C576 C582 1.448 . S
C577 N574 1.334 . S
C577 C575 1.390 1_655 S
C577 H588 0.930 . S
C578 C575 1.339 . S
C578 C576 1.416 . S
C578 H599 0.930 . S
C579 C580 1.413 . S
C579 C581 1.427 . S
C579 C585 1.416 . S
C580 C573 1.424 . S
C580 C579 1.413 . S
C580 N584 1.378 . S
C581 C579 1.427 . S
C581 C582 1.328 . S
C581 H596 0.929 . S
C582 C576 1.448 . S
C582 C581 1.328 . S
C582 H597 0.930 . S
Tb583 N574 2.617 . S
Tb583 N584 2.558 1_655 S
Tb583 O618 2.349 . S
Tb583 O621 2.393 . S
Tb583 O622 2.465 . S
Tb583 O623 2.387 1_655 S
Tb583 O625 2.428 . S
Tb583 O626 2.316 . S
Tb583 C647 2.802 . S
N584 C580 1.378 . S
N584 Tb583 2.558 1_455 S
N584 C586 1.346 . S
C585 C579 1.416 . S
C585 C587 1.332 . S
C585 H593 0.931 . S
C586 N584 1.346 . S
C586 C587 1.407 . S
C586 H592 0.930 1_455 S
C587 C585 1.332 . S
C587 C586 1.407 . S
C587 H589 0.929 . S
H588 C577 0.930 . S
H589 C587 0.929 . S
H590 C605 0.930 . S
H591 C612 0.929 . S
H592 C586 0.930 1_655 S
H593 C585 0.931 . S
H594 C608 0.930 . S
H595 C575 0.928 1_655 S
H596 C581 0.929 . S
H597 C582 0.930 . S
H598 C603 0.930 . S
H599 C578 0.930 . S
H600 C611 0.931 . S
N601 Tb572 2.617 . S
N601 C602 1.379 . S
N601 C605 1.334 . S
C602 N601 1.379 . S
C602 C604 1.416 1_455 S
C602 C610 1.424 . S
C603 H598 0.930 . S
C603 C605 1.390 . S
C603 C606 1.339 1_455 S
C604 C602 1.416 1_655 S
C604 C606 1.416 . S
C604 C637 1.448 . S
C605 H590 0.930 . S
C605 N601 1.334 . S
C605 C603 1.390 . S
C606 C603 1.339 1_655 S
C606 C604 1.416 . S
C606 H613 0.930 . S
N607 Tb572 2.572 . S
N607 C608 1.340 . S
N607 C610 1.361 . S
C608 H594 0.930 . S
C608 N607 1.340 . S
C608 C612 1.407 1_455 S
C609 C610 1.413 1_655 S
C609 C611 1.416 . S
C609 C638 1.427 . S
C610 C602 1.424 . S
C610 N607 1.361 . S
C610 C609 1.413 1_455 S
C611 H600 0.931 . S
C611 C609 1.416 . S
C611 C612 1.332 . S
C612 H591 0.929 . S
C612 C608 1.407 1_655 S
C612 C611 1.332 . S
H613 C606 0.930 . S
H614 C637 0.930 . S
H615 C638 0.929 . S
O616 Tb572 2.465 . S
O616 C636 1.264 . S
O617 Tb572 2.387 1_655 S
O617 C628 1.264 . S
O618 Tb583 2.349 . S
O618 C628 1.243 . S
O619 Tb572 2.428 . S
O619 C636 1.256 . S
O620 Tb572 2.308 . S
O620 C635 1.266 . S
O621 Tb583 2.393 . S
O621 C635 1.248 1_655 S
O622 Tb583 2.465 . S
O622 C647 1.264 . S
O623 Tb583 2.387 1_455 S
O623 C639 1.264 . S
O624 Tb572 2.349 . S
O624 C639 1.243 . S
O625 Tb583 2.428 . S
O625 C647 1.256 . S
O626 Tb583 2.316 . S
O626 C646 1.260 1_655 S
O627 Tb572 2.393 . S
O627 C646 1.248 . S
C628 O617 1.264 . S
C628 O618 1.243 . S
C629 C632 1.399 . S
C629 C634 1.383 . S
C629 C636 1.496 . S
C630 C631 1.399 . S
C630 C634 1.389 . S
C631 C630 1.399 . S
C631 C633 1.380 . S
C631 H648 0.929 . S
C632 C629 1.399 . S
C632 C633 1.392 . S
C632 H649 0.929 . S
C633 C631 1.380 . S
C633 C632 1.392 . S
C633 H650 0.929 . S
C634 C629 1.383 . S
C634 C630 1.389 . S
C634 H651 0.931 . S
C635 O620 1.266 . S
C635 O621 1.248 1_455 S
C636 Tb572 2.802 . S
C636 O616 1.264 . S
C636 O619 1.256 . S
C636 C629 1.496 . S
C637 C604 1.448 . S
C637 H614 0.930 . S
C637 C638 1.328 . S
C638 C609 1.427 . S
C638 H615 0.929 . S
C638 C637 1.328 . S
C639 O623 1.264 . S
C639 O624 1.243 . S
C640 C643 1.399 . S
C640 C644 1.383 . S
C640 C647 1.496 . S
C641 C642 1.399 . S
C641 C644 1.389 . S
C642 C641 1.399 . S
C642 C645 1.380 . S
C642 H652 0.929 . S
C643 C640 1.399 . S
C643 C645 1.392 . S
C643 H653 0.929 . S
C644 C640 1.383 . S
C644 C641 1.389 . S
C644 H654 0.931 . S
C645 C642 1.380 . S
C645 C643 1.392 . S
C645 H655 0.929 . S
C646 O626 1.260 1_455 S
C646 O627 1.248 . S
C647 Tb583 2.802 . S
C647 O622 1.264 . S
C647 O625 1.256 . S
C647 C640 1.496 . S
H648 C631 0.929 . S
H649 C632 0.929 . S
H650 C633 0.929 . S
H651 C634 0.931 . S
H652 C642 0.929 . S
H653 C643 0.929 . S
H654 C644 0.931 . S
H655 C645 0.929 . S
H656 C664 0.950 . S
H657 C669 0.950 . S
H658 C666 0.950 . S
H659 C668 0.950 . S
H660 C670 0.950 . S
H661 C672 0.950 . S
H662 C674 0.950 . S
H663 C675 0.950 . S
C664 H656 0.950 . S
C664 C665 1.386 . S
C664 C666 1.391 . S
C665 C664 1.386 . S
C665 C669 1.393 . S
C666 H658 0.950 . S
C666 C664 1.391 . S
C666 C667 1.400 . S
C667 C666 1.400 . S
C667 C668 1.398 . S
C667 C673 1.491 . S
C668 H659 0.950 . S
C668 C667 1.398 . S
C668 C669 1.391 . S
C669 H657 0.950 . S
C669 C665 1.393 . S
C669 C668 1.391 . S
C670 H660 0.950 . S
C670 C671 1.386 . S
C670 C672 1.391 . S
C671 C670 1.386 . S
C671 C675 1.393 . S
C672 H661 0.950 . S
C672 C670 1.391 . S
C672 C673 1.400 . S
C673 C667 1.491 . S
C673 C672 1.400 . S
C673 C674 1.398 . S
C674 H662 0.950 . S
C674 C673 1.398 . S
C674 C675 1.391 . S
C675 H663 0.950 . S
C675 C671 1.393 . S
C675 C674 1.391 . S
H676 C684 0.950 . S
H677 C689 0.950 . S
H678 C686 0.950 . S
H679 C688 0.950 . S
H680 C690 0.950 . S
H681 C692 0.950 . S
H682 C694 0.950 . S
H683 C695 0.950 . S
C684 H676 0.950 . S
C684 C685 1.386 . S
C684 C686 1.391 . S
C685 C684 1.386 . S
C685 C689 1.393 . S
C686 H678 0.950 . S
C686 C684 1.391 . S
C686 C687 1.400 . S
C687 C686 1.400 . S
C687 C688 1.398 . S
C687 C693 1.491 . S
C688 H679 0.950 . S
C688 C687 1.398 . S
C688 C689 1.391 . S
C689 H677 0.950 . S
C689 C685 1.393 . S
C689 C688 1.391 . S
C690 H680 0.950 . S
C690 C691 1.386 . S
C690 C692 1.391 . S
C691 C690 1.386 . S
C691 C695 1.393 . S
C692 H681 0.950 . S
C692 C690 1.391 . S
C692 C693 1.400 . S
C693 C687 1.491 . S
C693 C692 1.400 . S
C693 C694 1.398 . S
C694 H682 0.950 . S
C694 C693 1.398 . S
C694 C695 1.391 . S
C695 H683 0.950 . S
C695 C691 1.393 . S
C695 C694 1.391 . S
H696 C704 0.950 . S
H697 C709 0.950 . S
H698 C706 0.950 . S
H699 C708 0.950 . S
H700 C710 0.950 . S
H701 C712 0.950 . S
H702 C714 0.950 . S
H703 C715 0.950 . S
C704 H696 0.950 . S
C704 C705 1.386 . S
C704 C706 1.391 . S
C705 C704 1.386 . S
C705 C709 1.393 . S
C706 H698 0.950 . S
C706 C704 1.391 . S
C706 C707 1.400 . S
C707 C706 1.400 . S
C707 C708 1.398 . S
C707 C713 1.491 . S
C708 H699 0.950 . S
C708 C707 1.398 . S
C708 C709 1.391 . S
C709 H697 0.950 . S
C709 C705 1.393 . S
C709 C708 1.391 . S
C710 H700 0.950 . S
C710 C711 1.386 . S
C710 C712 1.391 . S
C711 C710 1.386 . S
C711 C715 1.393 . S
C712 H701 0.950 . S
C712 C710 1.391 . S
C712 C713 1.400 . S
C713 C707 1.491 . S
C713 C712 1.400 . S
C713 C714 1.398 . S
C714 H702 0.950 . S
C714 C713 1.398 . S
C714 C715 1.391 . S
C715 H703 0.950 . S
C715 C711 1.393 . S
C715 C714 1.391 . S
H716 C724 0.950 . S
H717 C729 0.950 . S
H718 C726 0.950 . S
H719 C728 0.950 . S
H720 C730 0.950 . S
H721 C732 0.950 . S
H722 C734 0.950 . S
H723 C735 0.950 . S
C724 H716 0.950 . S
C724 C725 1.386 . S
C724 C726 1.391 . S
C725 C724 1.386 . S
C725 C729 1.393 . S
C726 H718 0.950 . S
C726 C724 1.391 . S
C726 C727 1.400 . S
C727 C726 1.400 . S
C727 C728 1.398 . S
C727 C733 1.491 . S
C728 H719 0.950 . S
C728 C727 1.398 . S
C728 C729 1.391 . S
C729 H717 0.950 . S
C729 C725 1.393 . S
C729 C728 1.391 . S
C730 H720 0.950 . S
C730 C731 1.386 . S
C730 C732 1.391 . S
C731 C730 1.386 . S
C731 C735 1.393 . S
C732 H721 0.950 . S
C732 C730 1.391 . S
C732 C733 1.400 . S
C733 C727 1.491 . S
C733 C732 1.400 . S
C733 C734 1.398 . S
C734 H722 0.950 . S
C734 C733 1.398 . S
C734 C735 1.391 . S
C735 H723 0.950 . S
C735 C731 1.393 . S
C735 C734 1.391 . S
H736 C744 0.950 . S
H737 C749 0.950 . S
H738 C746 0.950 . S
H739 C748 0.950 . S
H740 C750 0.950 . S
H741 C752 0.950 . S
H742 C754 0.950 . S
H743 C755 0.950 . S
C744 H736 0.950 . S
C744 C745 1.386 . S
C744 C746 1.391 1_554 S
C745 C744 1.386 . S
C745 C749 1.393 . S
C746 H738 0.950 . S
C746 C744 1.391 1_556 S
C746 C747 1.400 . S
C747 C746 1.400 . S
C747 C748 1.398 . S
C747 C753 1.491 . S
C748 H739 0.950 . S
C748 C747 1.398 . S
C748 C749 1.391 1_556 S
C749 H737 0.950 . S
C749 C745 1.393 . S
C749 C748 1.391 1_554 S
C750 H740 0.950 . S
C750 C751 1.386 . S
C750 C752 1.391 . S
C751 C750 1.386 . S
C751 C755 1.393 . S
C752 H741 0.950 . S
C752 C750 1.391 . S
C752 C753 1.400 . S
C753 C747 1.491 . S
C753 C752 1.400 . S
C753 C754 1.398 . S
C754 H742 0.950 . S
C754 C753 1.398 . S
C754 C755 1.391 . S
C755 H743 0.950 . S
C755 C751 1.393 . S
C755 C754 1.391 . S
H756 C764 0.950 . S
H757 C769 0.950 . S
H758 C766 0.950 . S
H759 C768 0.950 . S
H760 C770 0.950 . S
H761 C772 0.950 . S
H762 C774 0.950 . S
H763 C775 0.950 . S
C764 H756 0.950 . S
C764 C765 1.386 . S
C764 C766 1.391 1_554 S
C765 C764 1.386 . S
C765 C769 1.393 . S
C766 H758 0.950 . S
C766 C764 1.391 1_556 S
C766 C767 1.400 . S
C767 C766 1.400 . S
C767 C768 1.398 . S
C767 C773 1.491 . S
C768 H759 0.950 . S
C768 C767 1.398 . S
C768 C769 1.391 1_556 S
C769 H757 0.950 . S
C769 C765 1.393 . S
C769 C768 1.391 1_554 S
C770 H760 0.950 . S
C770 C771 1.386 . S
C770 C772 1.391 . S
C771 C770 1.386 . S
C771 C775 1.393 . S
C772 H761 0.950 . S
C772 C770 1.391 . S
C772 C773 1.400 . S
C773 C767 1.491 . S
C773 C772 1.400 . S
C773 C774 1.398 . S
C774 H762 0.950 . S
C774 C773 1.398 . S
C774 C775 1.391 . S
C775 H763 0.950 . S
C775 C771 1.393 . S
C775 C774 1.391 . S
H776 C784 0.950 . S
H777 C789 0.950 . S
H778 C786 0.950 . S
H779 C788 0.950 . S
H780 C790 0.950 . S
H781 C792 0.950 . S
H782 C794 0.950 . S
H783 C795 0.950 . S
C784 H776 0.950 . S
C784 C785 1.386 . S
C784 C786 1.391 1_554 S
C785 C784 1.386 . S
C785 C789 1.393 . S
C786 H778 0.950 . S
C786 C784 1.391 1_556 S
C786 C787 1.400 . S
C787 C786 1.400 . S
C787 C788 1.398 . S
C787 C793 1.491 . S
C788 H779 0.950 . S
C788 C787 1.398 . S
C788 C789 1.391 1_556 S
C789 H777 0.950 . S
C789 C785 1.393 . S
C789 C788 1.391 1_554 S
C790 H780 0.950 . S
C790 C791 1.386 . S
C790 C792 1.391 . S
C791 C790 1.386 . S
C791 C795 1.393 . S
C792 H781 0.950 . S
C792 C790 1.391 . S
C792 C793 1.400 . S
C793 C787 1.491 . S
C793 C792 1.400 . S
C793 C794 1.398 . S
C794 H782 0.950 . S
C794 C793 1.398 . S
C794 C795 1.391 . S
C795 H783 0.950 . S
C795 C791 1.393 . S
C795 C794 1.391 . S
H796 C804 0.950 . S
H797 C809 0.950 . S
H798 C806 0.950 . S
H799 C808 0.950 . S
H800 C810 0.950 1_455 S
H801 C812 0.950 . S
H802 C814 0.950 . S
H803 C815 0.950 . S
C804 H796 0.950 . S
C804 C805 1.386 . S
C804 C806 1.391 1_554 S
C805 C804 1.386 . S
C805 C809 1.393 . S
C806 H798 0.950 . S
C806 C804 1.391 1_556 S
C806 C807 1.400 . S
C807 C806 1.400 . S
C807 C808 1.398 . S
C807 C813 1.491 . S
C808 H799 0.950 . S
C808 C807 1.398 . S
C808 C809 1.391 1_556 S
C809 H797 0.950 . S
C809 C805 1.393 . S
C809 C808 1.391 1_554 S
C810 H800 0.950 1_655 S
C810 C811 1.386 . S
C810 C812 1.391 . S
C811 C810 1.386 . S
C811 C815 1.393 . S
C812 H801 0.950 . S
C812 C810 1.391 . S
C812 C813 1.400 . S
C813 C807 1.491 . S
C813 C812 1.400 . S
C813 C814 1.398 . S
C814 H802 0.950 . S
C814 C813 1.398 . S
C814 C815 1.391 . S
C815 H803 0.950 . S
C815 C811 1.393 . S
C815 C814 1.391 . S
H816 C824 0.950 . S
H817 C829 0.950 . S
H818 C826 0.950 . S
H819 C828 0.950 . S
H820 C830 0.950 . S
H821 C832 0.950 . S
H822 C834 0.950 . S
H823 C835 0.950 . S
C824 H816 0.950 . S
C824 C825 1.386 . S
C824 C826 1.391 . S
C825 C824 1.386 . S
C825 C829 1.393 . S
C826 H818 0.950 . S
C826 C824 1.391 . S
C826 C827 1.400 . S
C827 C826 1.400 . S
C827 C828 1.398 . S
C827 C833 1.491 . S
C828 H819 0.950 . S
C828 C827 1.398 . S
C828 C829 1.391 . S
C829 H817 0.950 . S
C829 C825 1.393 . S
C829 C828 1.391 . S
C830 H820 0.950 . S
C830 C831 1.386 1_655 S
C830 C832 1.391 . S
C831 C830 1.386 1_455 S
C831 C835 1.393 . S
C832 H821 0.950 . S
C832 C830 1.391 . S
C832 C833 1.400 1_655 S
C833 C827 1.491 . S
C833 C832 1.400 1_455 S
C833 C834 1.398 . S
C834 H822 0.950 . S
C834 C833 1.398 . S
C834 C835 1.391 . S
C835 H823 0.950 . S
C835 C831 1.393 . S
C835 C834 1.391 . S
H836 C844 0.950 . S
H837 C849 0.950 . S
H838 C846 0.950 . S
H839 C848 0.950 . S
H840 C850 0.963 . S
H841 C852 0.950 . S
H842 C854 0.950 . S
H843 C855 0.950 . S
C844 H836 0.950 . S
C844 C845 1.386 . S
C844 C846 1.391 . S
C845 C844 1.386 . S
C845 C849 1.393 . S
C846 H838 0.950 . S
C846 C844 1.391 . S
C846 C847 1.400 . S
C847 C846 1.400 . S
C847 C848 1.398 . S
C847 C853 1.491 . S
C848 H839 0.950 . S
C848 C847 1.398 . S
C848 C849 1.391 . S
C849 H837 0.950 . S
C849 C845 1.393 . S
C849 C848 1.391 . S
C850 H840 0.963 . S
C850 C851 1.382 1_565 S
C850 C852 1.382 1_565 S
C851 C850 1.382 1_545 S
C851 C855 1.393 . S
C852 H841 0.950 . S
C852 C850 1.382 1_545 S
C852 C853 1.400 . S
C853 C847 1.491 . S
C853 C852 1.400 . S
C853 C854 1.398 . S
C854 H842 0.950 . S
C854 C853 1.398 . S
C854 C855 1.391 . S
C855 H843 0.950 . S
C855 C851 1.393 . S
C855 C854 1.391 . S
H856 C864 0.950 . S
H857 C869 0.950 . S
H858 C866 0.950 . S
H859 C868 0.950 . S
H860 C870 0.950 . S
H861 C872 0.950 . S
H862 C874 0.950 . S
H863 C875 0.950 . S
C864 H856 0.950 . S
C864 C865 1.386 . S
C864 C866 1.391 . S
C865 C864 1.386 . S
C865 C869 1.393 . S
C866 H858 0.950 . S
C866 C864 1.391 . S
C866 C867 1.400 . S
C867 C866 1.400 . S
C867 C868 1.398 . S
C867 C873 1.491 . S
C868 H859 0.950 . S
C868 C867 1.398 . S
C868 C869 1.391 . S
C869 H857 0.950 . S
C869 C865 1.393 . S
C869 C868 1.391 . S
C870 H860 0.950 . S
C870 C871 1.386 . S
C870 C872 1.391 . S
C871 C870 1.386 . S
C871 C875 1.393 . S
C872 H861 0.950 . S
C872 C870 1.391 . S
C872 C873 1.400 . S
C873 C867 1.491 . S
C873 C872 1.400 . S
C873 C874 1.398 . S
C874 H862 0.950 . S
C874 C873 1.398 . S
C874 C875 1.391 . S
C875 H863 0.950 . S
C875 C871 1.393 . S
C875 C874 1.391 . S
H876 C884 0.950 . S
H877 C889 0.950 . S
H878 C886 0.950 . S
H879 C888 0.950 . S
H880 C890 0.950 . S
H881 C892 0.950 . S
H882 C894 0.950 . S
H883 C895 0.950 . S
C884 H876 0.950 . S
C884 C885 1.386 . S
C884 C886 1.391 . S
C885 C884 1.386 . S
C885 C889 1.393 . S
C886 H878 0.950 . S
C886 C884 1.391 . S
C886 C887 1.400 . S
C887 C886 1.400 . S
C887 C888 1.398 . S
C887 C893 1.491 . S
C888 H879 0.950 . S
C888 C887 1.398 . S
C888 C889 1.391 . S
C889 H877 0.950 . S
C889 C885 1.393 . S
C889 C888 1.391 . S
C890 H880 0.950 . S
C890 C891 1.386 . S
C890 C892 1.391 . S
C891 C890 1.386 . S
C891 C895 1.393 . S
C892 H881 0.950 . S
C892 C890 1.391 . S
C892 C893 1.400 . S
C893 C887 1.491 . S
C893 C892 1.400 . S
C893 C894 1.398 . S
C894 H882 0.950 . S
C894 C893 1.398 . S
C894 C895 1.391 . S
C895 H883 0.950 . S
C895 C891 1.393 . S
C895 C894 1.391 . S
H896 C904 0.950 . S
H897 C909 0.950 . S
H898 C906 0.950 . S
H899 C908 0.950 . S
H900 C910 0.950 . S
H901 C912 0.950 . S
H902 C914 0.950 . S
H903 C915 0.950 . S
C904 H896 0.950 . S
C904 C905 1.386 1_554 S
C904 C906 1.391 1_554 S
C905 C904 1.386 1_556 S
C905 C909 1.393 . S
C906 H898 0.950 . S
C906 C904 1.391 1_556 S
C906 C907 1.400 . S
C907 C906 1.400 . S
C907 C908 1.398 . S
C907 C913 1.491 . S
C908 H899 0.950 . S
C908 C907 1.398 . S
C908 C909 1.391 . S
C909 H897 0.950 . S
C909 C905 1.393 . S
C909 C908 1.391 . S
C910 H900 0.950 . S
C910 C911 1.386 1_655 S
C910 C912 1.391 . S
C911 C910 1.386 1_455 S
C911 C915 1.393 . S
C912 H901 0.950 . S
C912 C910 1.391 . S
C912 C913 1.400 . S
C913 C907 1.491 . S
C913 C912 1.400 . S
C913 C914 1.398 1_655 S
C914 H902 0.950 . S
C914 C913 1.398 1_455 S
C914 C915 1.391 . S
C915 H903 0.950 . S
C915 C911 1.393 . S
C915 C914 1.391 . S
H916 C924 0.950 . S
H917 C929 0.950 . S
H918 C926 0.950 . S
H919 C928 0.950 . S
H920 C930 0.950 . S
H921 C932 0.950 . S
H922 C934 0.950 . S
H923 C935 0.950 . S
C924 H916 0.950 . S
C924 C925 1.386 . S
C924 C926 1.391 . S
C925 C924 1.386 . S
C925 C929 1.393 1_556 S
C926 H918 0.950 . S
C926 C924 1.391 . S
C926 C927 1.400 . S
C927 C926 1.400 . S
C927 C928 1.398 . S
C927 C933 1.491 . S
C928 H919 0.950 . S
C928 C927 1.398 . S
C928 C929 1.391 1_556 S
C929 H917 0.950 . S
C929 C925 1.393 1_554 S
C929 C928 1.391 1_554 S
C930 H920 0.950 . S
C930 C931 1.386 . S
C930 C932 1.391 1_545 S
C931 C930 1.386 . S
C931 C935 1.393 . S
C932 H921 0.950 . S
C932 C930 1.391 1_565 S
C932 C933 1.400 . S
C933 C927 1.491 . S
C933 C932 1.400 . S
C933 C934 1.398 . S
C934 H922 0.950 . S
C934 C933 1.398 . S
C934 C935 1.391 1_565 S
C935 H923 0.950 . S
C935 C931 1.393 . S
C935 C934 1.391 1_545 S
H936 C944 0.950 1_554 S
H937 C949 0.950 . S
H938 C946 0.950 . S
H939 C948 0.950 . S
H940 C950 0.950 . S
H941 C952 0.950 . S
H942 C954 0.950 . S
H943 C955 0.950 . S
C944 H936 0.950 1_556 S
C944 C945 1.386 . S
C944 C946 1.391 . S
C945 C944 1.386 . S
C945 C949 1.393 . S
C946 H938 0.950 . S
C946 C944 1.391 . S
C946 C947 1.400 . S
C947 C946 1.400 . S
C947 C948 1.398 . S
C947 C953 1.491 . S
C948 H939 0.950 . S
C948 C947 1.398 . S
C948 C949 1.391 . S
C949 H937 0.950 . S
C949 C945 1.393 . S
C949 C948 1.391 . S
C950 H940 0.950 . S
C950 C951 1.386 . S
C950 C952 1.391 . S
C951 C950 1.386 . S
C951 C955 1.393 . S
C952 H941 0.950 . S
C952 C950 1.391 . S
C952 C953 1.400 . S
C953 C947 1.491 . S
C953 C952 1.400 . S
C953 C954 1.398 . S
C954 H942 0.950 . S
C954 C953 1.398 . S
C954 C955 1.391 . S
C955 H943 0.950 . S
C955 C951 1.393 . S
C955 C954 1.391 . S
H956 C964 0.950 . S
H957 C969 0.950 . S
H958 C966 0.942 1_554 S
H959 C968 0.950 . S
H960 C970 0.950 . S
H961 C972 0.950 . S
H962 C974 0.950 . S
H963 C975 0.950 . S
C964 H956 0.950 . S
C964 C965 1.386 1_554 S
C964 C966 1.391 1_554 S
C965 C964 1.386 1_556 S
C965 C969 1.393 . S
C966 H958 0.942 1_556 S
C966 C964 1.391 1_556 S
C966 C967 1.400 . S
C967 C966 1.400 . S
C967 C968 1.398 . S
C967 C973 1.491 . S
C968 H959 0.950 . S
C968 C967 1.398 . S
C968 C969 1.391 . S
C969 H957 0.950 . S
C969 C965 1.393 . S
C969 C968 1.391 . S
C970 H960 0.950 . S
C970 C971 1.386 . S
C970 C972 1.391 . S
C971 C970 1.386 . S
C971 C975 1.393 . S
C972 H961 0.950 . S
C972 C970 1.391 . S
C972 C973 1.400 . S
C973 C967 1.491 . S
C973 C972 1.400 . S
C973 C974 1.398 . S
C974 H962 0.950 . S
C974 C973 1.398 . S
C974 C975 1.391 . S
C975 H963 0.950 . S
C975 C971 1.393 . S
C975 C974 1.391 . S
H976 C984 0.950 . S
H977 C989 0.950 . S
H978 C986 0.950 . S
H979 C988 0.950 . S
H980 C990 0.950 . S
H981 C992 0.950 . S
H982 C994 0.950 1_655 S
H983 C995 0.950 1_655 S
C984 H976 0.950 . S
C984 C985 1.386 . S
C984 C986 1.391 . S
C985 C984 1.386 . S
C985 C989 1.393 . S
C986 H978 0.950 . S
C986 C984 1.391 . S
C986 C987 1.400 . S
C987 C986 1.400 . S
C987 C988 1.398 . S
C987 C993 1.491 . S
C988 H979 0.950 . S
C988 C987 1.398 . S
C988 C989 1.391 . S
C989 H977 0.950 . S
C989 C985 1.393 . S
C989 C988 1.391 . S
C990 H980 0.950 . S
C990 C991 1.386 . S
C990 C992 1.391 . S
C991 C990 1.386 . S
C991 C995 1.393 . S
C992 H981 0.950 . S
C992 C990 1.391 . S
C992 C993 1.400 . S
C993 C987 1.491 . S
C993 C992 1.400 . S
C993 C994 1.398 . S
C994 H982 0.950 1_455 S
C994 C993 1.398 . S
C994 C995 1.391 . S
C995 H983 0.950 1_455 S
C995 C991 1.393 . S
C995 C994 1.391 . S
H996 C1004 0.950 . S
H997 C1009 0.950 . S
H998 C1006 0.950 . S
H999 C1008 0.950 . S
H1000 C1010 0.950 . S
H1001 C1012 0.950 . S
H1002 C1014 0.947 1_565 S
H1003 C1015 0.950 1_565 S
C1004 H996 0.950 . S
C1004 C1005 1.386 . S
C1004 C1006 1.391 . S
C1005 C1004 1.386 . S
C1005 C1009 1.393 . S
C1006 H998 0.950 . S
C1006 C1004 1.391 . S
C1006 C1007 1.400 . S
C1007 C1006 1.400 . S
C1007 C1008 1.398 . S
C1007 C1013 1.491 . S
C1008 H999 0.950 . S
C1008 C1007 1.398 . S
C1008 C1009 1.391 . S
C1009 H997 0.950 . S
C1009 C1005 1.393 . S
C1009 C1008 1.391 . S
C1010 H1000 0.950 . S
C1010 C1011 1.386 . S
C1010 C1012 1.391 . S
C1011 C1010 1.386 . S
C1011 C1015 1.393 . S
C1012 H1001 0.950 . S
C1012 C1010 1.391 . S
C1012 C1013 1.400 . S
C1013 C1007 1.491 . S
C1013 C1012 1.400 . S
C1013 C1014 1.398 . S
C1014 H1002 0.947 1_545 S
C1014 C1013 1.398 . S
C1014 C1015 1.391 . S
C1015 H1003 0.950 1_545 S
C1015 C1011 1.393 . S
C1015 C1014 1.391 . S
H1016 C1024 0.950 . S
H1017 C1029 0.950 . S
H1018 C1026 0.950 . S
H1019 C1028 0.950 . S
H1020 C1030 0.950 . S
H1021 C1032 0.950 . S
H1022 C1034 0.950 . S
H1023 C1035 0.950 . S
C1024 H1016 0.950 . S
C1024 C1025 1.386 . S
C1024 C1026 1.391 . S
C1025 C1024 1.386 . S
C1025 C1029 1.393 . S
C1026 H1018 0.950 . S
C1026 C1024 1.391 . S
C1026 C1027 1.400 . S
C1027 C1026 1.400 . S
C1027 C1028 1.398 . S
C1027 C1033 1.491 . S
C1028 H1019 0.950 . S
C1028 C1027 1.398 . S
C1028 C1029 1.391 . S
C1029 H1017 0.950 . S
C1029 C1025 1.393 . S
C1029 C1028 1.391 . S
C1030 H1020 0.950 . S
C1030 C1031 1.386 . S
C1030 C1032 1.391 . S
C1031 C1030 1.386 . S
C1031 C1035 1.393 . S
C1032 H1021 0.950 . S
C1032 C1030 1.391 . S
C1032 C1033 1.400 . S
C1033 C1027 1.491 . S
C1033 C1032 1.400 . S
C1033 C1034 1.398 . S
C1034 H1022 0.950 . S
C1034 C1033 1.398 . S
C1034 C1035 1.391 . S
C1035 H1023 0.950 . S
C1035 C1031 1.393 . S
C1035 C1034 1.391 . S
H1036 C1044 0.950 . S
H1037 C1049 0.950 . S
H1038 C1046 0.950 . S
H1039 C1048 0.950 . S
H1040 C1050 0.950 . S
H1041 C1052 0.950 . S
H1042 C1054 0.950 . S
H1043 C1055 0.950 . S
C1044 H1036 0.950 . S
C1044 C1045 1.386 . S
C1044 C1046 1.391 . S
C1045 C1044 1.386 . S
C1045 C1049 1.393 . S
C1046 H1038 0.950 . S
C1046 C1044 1.391 . S
C1046 C1047 1.400 . S
C1047 C1046 1.400 . S
C1047 C1048 1.398 . S
C1047 C1053 1.491 . S
C1048 H1039 0.950 . S
C1048 C1047 1.398 . S
C1048 C1049 1.391 . S
C1049 H1037 0.950 . S
C1049 C1045 1.393 . S
C1049 C1048 1.391 . S
C1050 H1040 0.950 . S
C1050 C1051 1.386 . S
C1050 C1052 1.391 . S
C1051 C1050 1.386 . S
C1051 C1055 1.393 . S
C1052 H1041 0.950 . S
C1052 C1050 1.391 . S
C1052 C1053 1.400 . S
C1053 C1047 1.491 . S
C1053 C1052 1.400 . S
C1053 C1054 1.398 . S
C1054 H1042 0.950 . S
C1054 C1053 1.398 . S
C1054 C1055 1.391 . S
C1055 H1043 0.950 . S
C1055 C1051 1.393 . S
C1055 C1054 1.391 . S
H1056 C1064 0.950 . S
H1057 C1069 0.950 . S
H1058 C1066 0.950 . S
H1059 C1068 0.950 . S
H1060 C1070 0.950 . S
H1061 C1072 0.950 . S
H1062 C1074 0.950 . S
H1063 C1075 0.950 1_455 S
C1064 H1056 0.950 . S
C1064 C1065 1.386 . S
C1064 C1066 1.391 . S
C1065 C1064 1.386 . S
C1065 C1069 1.393 . S
C1066 H1058 0.950 . S
C1066 C1064 1.391 . S
C1066 C1067 1.400 . S
C1067 C1066 1.400 . S
C1067 C1068 1.398 . S
C1067 C1073 1.491 . S
C1068 H1059 0.950 . S
C1068 C1067 1.398 . S
C1068 C1069 1.391 . S
C1069 H1057 0.950 . S
C1069 C1065 1.393 . S
C1069 C1068 1.391 . S
C1070 H1060 0.950 . S
C1070 C1071 1.386 . S
C1070 C1072 1.391 . S
C1071 C1070 1.386 . S
C1071 C1075 1.393 . S
C1072 H1061 0.950 . S
C1072 C1070 1.391 . S
C1072 C1073 1.400 . S
C1073 C1067 1.491 . S
C1073 C1072 1.400 . S
C1073 C1074 1.398 . S
C1074 H1062 0.950 . S
C1074 C1073 1.398 . S
C1074 C1075 1.391 . S
C1075 H1063 0.950 1_655 S
C1075 C1071 1.393 . S
C1075 C1074 1.391 . S
H1076 C1084 0.950 . S
H1077 C1089 0.950 . S
H1078 C1086 0.950 . S
H1079 C1088 0.967 . S
H1080 C1090 0.950 . S
H1081 C1092 0.950 1_545 S
H1082 C1094 0.950 . S
H1083 C1095 0.950 . S
C1084 H1076 0.950 . S
C1084 C1085 1.386 . S
C1084 C1086 1.391 . S
C1085 C1084 1.386 . S
C1085 C1089 1.393 . S
C1086 H1078 0.950 . S
C1086 C1084 1.391 . S
C1086 C1087 1.400 . S
C1087 C1086 1.400 . S
C1087 C1088 1.398 . S
C1087 C1093 1.491 . S
C1088 H1079 0.967 . S
C1088 C1087 1.398 . S
C1088 C1089 1.391 . S
C1089 H1077 0.950 . S
C1089 C1085 1.393 . S
C1089 C1088 1.391 . S
C1090 H1080 0.950 . S
C1090 C1091 1.386 1_545 S
C1090 C1092 1.391 1_545 S
C1091 C1090 1.386 1_565 S
C1091 C1095 1.393 . S
C1092 H1081 0.950 1_565 S
C1092 C1090 1.391 1_565 S
C1092 C1093 1.400 . S
C1093 C1087 1.491 . S
C1093 C1092 1.400 . S
C1093 C1094 1.398 . S
C1094 H1082 0.950 . S
C1094 C1093 1.398 . S
C1094 C1095 1.391 . S
C1095 H1083 0.950 . S
C1095 C1091 1.393 . S
C1095 C1094 1.391 . S
H1096 C1104 0.950 . S
H1097 C1109 0.950 . S
H1098 C1106 0.950 . S
H1099 C1108 0.950 . S
H1100 C1110 0.950 . S
H1101 C1112 0.950 . S
H1102 C1114 0.950 . S
H1103 C1115 0.950 . S
C1104 H1096 0.950 . S
C1104 C1105 1.386 . S
C1104 C1106 1.391 . S
C1105 C1104 1.386 . S
C1105 C1109 1.393 . S
C1106 H1098 0.950 . S
C1106 C1104 1.391 . S
C1106 C1107 1.400 . S
C1107 C1106 1.400 . S
C1107 C1108 1.398 . S
C1107 C1113 1.491 . S
C1108 H1099 0.950 . S
C1108 C1107 1.398 . S
C1108 C1109 1.391 . S
C1109 H1097 0.950 . S
C1109 C1105 1.393 . S
C1109 C1108 1.391 . S
C1110 H1100 0.950 . S
C1110 C1111 1.386 . S
C1110 C1112 1.391 . S
C1111 C1110 1.386 . S
C1111 C1115 1.393 . S
C1112 H1101 0.950 . S
C1112 C1110 1.391 . S
C1112 C1113 1.400 . S
C1113 C1107 1.491 . S
C1113 C1112 1.400 . S
C1113 C1114 1.398 . S
C1114 H1102 0.950 . S
C1114 C1113 1.398 . S
C1114 C1115 1.391 . S
C1115 H1103 0.950 . S
C1115 C1111 1.393 . S
C1115 C1114 1.391 . S
H1116 C1124 0.950 . S
H1117 C1129 0.950 . S
H1118 C1126 0.950 . S
H1119 C1128 0.950 . S
H1120 C1130 0.950 . S
H1121 C1132 0.950 . S
H1122 C1134 0.950 . S
H1123 C1135 0.950 . S
C1124 H1116 0.950 . S
C1124 C1125 1.386 . S
C1124 C1126 1.391 . S
C1125 C1124 1.386 . S
C1125 C1129 1.393 . S
C1126 H1118 0.950 . S
C1126 C1124 1.391 . S
C1126 C1127 1.400 . S
C1127 C1126 1.400 . S
C1127 C1128 1.398 . S
C1127 C1133 1.491 . S
C1128 H1119 0.950 . S
C1128 C1127 1.398 . S
C1128 C1129 1.391 . S
C1129 H1117 0.950 . S
C1129 C1125 1.393 . S
C1129 C1128 1.391 . S
C1130 H1120 0.950 . S
C1130 C1131 1.386 . S
C1130 C1132 1.391 . S
C1131 C1130 1.386 . S
C1131 C1135 1.393 . S
C1132 H1121 0.950 . S
C1132 C1130 1.391 . S
C1132 C1133 1.400 . S
C1133 C1127 1.491 . S
C1133 C1132 1.400 . S
C1133 C1134 1.398 . S
C1134 H1122 0.950 . S
C1134 C1133 1.398 . S
C1134 C1135 1.391 . S
C1135 H1123 0.950 . S
C1135 C1131 1.393 . S
C1135 C1134 1.391 . S
C665 C255 2.372 . S
C671 C383 2.546 . S
C691 C460 2.549 . S
C685 C295 2.393 . S
C711 C551 2.543 . S
C705 C175 2.367 . S
C731 C635 2.523 . S
C725 C215 2.350 . S
C751 C394 2.549 1_565 S
C745 C95 2.373 . S
C765 C135 2.401 . S
C771 C471 2.560 . S
C785 C15 2.379 . S
C791 C562 2.550 . S
C805 C55 2.345 . S
C811 C646 2.523 1_655 S
C831 C378 0.535 1_455 S
C825 C221 0.474 . S
C851 C473 0.515 . S
C845 C261 0.435 . S
C871 C546 0.541 . S
C865 C301 0.468 . S
C885 C181 0.472 . S
C891 C630 0.504 . S
C905 C61 0.537 . S
C911 C389 0.537 . S
C931 C462 0.536 . S
C925 C101 0.584 . S
C951 C557 0.522 . S
C945 C141 0.518 1_556 S
C965 C21 0.506 . S
C971 C641 0.521 . S
C985 C202 2.911 . S
C991 C387 3.132 . S
C1005 C242 2.904 . S
C1011 C478 3.184 . S
C1031 C555 3.149 . S
C1025 C282 2.918 . S
C1051 C639 3.156 . S
C1045 C162 2.934 . S
C1065 C42 2.859 . S
C1071 C376 3.124 . S
C1091 C467 3.184 . S
C1085 C82 2.862 . S
C1111 C544 3.159 . S
C1105 C122 2.892 . S
C1125 C2 2.877 . S
C1131 C628 3.148 . S
