# Generated by pormake.
# Topology iac, (4,6)-cn, num edge types: 1
# Building blocks:
#     Node 0, Type 0, BuildingBlock: QUQFOY_clean_sbu_3, # of connection points: 4
#     Node 1, Type 0, BuildingBlock: QUQFOY_clean_sbu_3, # of connection points: 4
#     Node 2, Type 0, BuildingBlock: QUQFOY_clean_sbu_3, # of connection points: 4
#     Node 3, Type 0, BuildingBlock: QUQFOY_clean_sbu_3, # of connection points: 4
#     Node 4, Type 0, BuildingBlock: QUQFOY_clean_sbu_3, # of connection points: 4
#     Node 5, Type 0, BuildingBlock: QUQFOY_clean_sbu_3, # of connection points: 4
#     Node 6, Type 0, BuildingBlock: QUQFOY_clean_sbu_3, # of connection points: 4
#     Node 7, Type 0, BuildingBlock: QUQFOY_clean_sbu_3, # of connection points: 4
#     Node 8, Type 0, BuildingBlock: QUQFOY_clean_sbu_3, # of connection points: 4
#     Node 9, Type 0, BuildingBlock: QUQFOY_clean_sbu_3, # of connection points: 4
#     Node 10, Type 0, BuildingBlock: QUQFOY_clean_sbu_3, # of connection points: 4
#     Node 11, Type 0, BuildingBlock: QUQFOY_clean_sbu_3, # of connection points: 4
#     Node 12, Type 0, BuildingBlock: QUQFOY_clean_sbu_3, # of connection points: 4
#     Node 13, Type 0, BuildingBlock: QUQFOY_clean_sbu_3, # of connection points: 4
#     Node 14, Type 0, BuildingBlock: QUQFOY_clean_sbu_3, # of connection points: 4
#     Node 15, Type 0, BuildingBlock: QUQFOY_clean_sbu_3, # of connection points: 4
#     Node 16, Type 0, BuildingBlock: QUQFOY_clean_sbu_3, # of connection points: 4
#     Node 17, Type 0, BuildingBlock: QUQFOY_clean_sbu_3, # of connection points: 4
#     Node 18, Type 0, BuildingBlock: QUQFOY_clean_sbu_3, # of connection points: 4
#     Node 19, Type 0, BuildingBlock: QUQFOY_clean_sbu_3, # of connection points: 4
#     Node 20, Type 0, BuildingBlock: QUQFOY_clean_sbu_3, # of connection points: 4
#     Node 21, Type 0, BuildingBlock: QUQFOY_clean_sbu_3, # of connection points: 4
#     Node 22, Type 0, BuildingBlock: QUQFOY_clean_sbu_3, # of connection points: 4
#     Node 23, Type 0, BuildingBlock: QUQFOY_clean_sbu_3, # of connection points: 4
#     Node 24, Type 1, BuildingBlock: FUNLAD_clean_sbu_0, # of connection points: 6
#     Node 25, Type 1, BuildingBlock: FUNLAD_clean_sbu_0, # of connection points: 6
#     Node 26, Type 1, BuildingBlock: FUNLAD_clean_sbu_0, # of connection points: 6
#     Node 27, Type 1, BuildingBlock: FUNLAD_clean_sbu_0, # of connection points: 6
#     Node 28, Type 1, BuildingBlock: FUNLAD_clean_sbu_0, # of connection points: 6
#     Node 29, Type 1, BuildingBlock: FUNLAD_clean_sbu_0, # of connection points: 6
#     Node 30, Type 1, BuildingBlock: FUNLAD_clean_sbu_0, # of connection points: 6
#     Node 31, Type 1, BuildingBlock: FUNLAD_clean_sbu_0, # of connection points: 6
#     Node 32, Type 1, BuildingBlock: FUNLAD_clean_sbu_0, # of connection points: 6
#     Node 33, Type 1, BuildingBlock: FUNLAD_clean_sbu_0, # of connection points: 6
#     Node 34, Type 1, BuildingBlock: FUNLAD_clean_sbu_0, # of connection points: 6
#     Node 35, Type 1, BuildingBlock: FUNLAD_clean_sbu_0, # of connection points: 6
#     Node 36, Type 1, BuildingBlock: FUNLAD_clean_sbu_0, # of connection points: 6
#     Node 37, Type 1, BuildingBlock: FUNLAD_clean_sbu_0, # of connection points: 6
#     Node 38, Type 1, BuildingBlock: FUNLAD_clean_sbu_0, # of connection points: 6
#     Node 39, Type 1, BuildingBlock: FUNLAD_clean_sbu_0, # of connection points: 6
#     Edge 40, Type (0, 1), BuildingBlock: XIVTED_clean_linker_0, # of connection points: 2
#     Edge 41, Type (0, 1), BuildingBlock: XIVTED_clean_linker_0, # of connection points: 2
#     Edge 42, Type (0, 1), BuildingBlock: XIVTED_clean_linker_0, # of connection points: 2
#     Edge 43, Type (0, 1), BuildingBlock: XIVTED_clean_linker_0, # of connection points: 2
#     Edge 44, Type (0, 1), BuildingBlock: XIVTED_clean_linker_0, # of connection points: 2
#     Edge 45, Type (0, 1), BuildingBlock: XIVTED_clean_linker_0, # of connection points: 2
#     Edge 46, Type (0, 1), BuildingBlock: XIVTED_clean_linker_0, # of connection points: 2
#     Edge 47, Type (0, 1), BuildingBlock: XIVTED_clean_linker_0, # of connection points: 2
#     Edge 48, Type (0, 1), BuildingBlock: XIVTED_clean_linker_0, # of connection points: 2
#     Edge 49, Type (0, 1), BuildingBlock: XIVTED_clean_linker_0, # of connection points: 2
#     Edge 50, Type (0, 1), BuildingBlock: XIVTED_clean_linker_0, # of connection points: 2
#     Edge 51, Type (0, 1), BuildingBlock: XIVTED_clean_linker_0, # of connection points: 2
#     Edge 52, Type (0, 1), BuildingBlock: XIVTED_clean_linker_0, # of connection points: 2
#     Edge 53, Type (0, 1), BuildingBlock: XIVTED_clean_linker_0, # of connection points: 2
#     Edge 54, Type (0, 1), BuildingBlock: XIVTED_clean_linker_0, # of connection points: 2
#     Edge 55, Type (0, 1), BuildingBlock: XIVTED_clean_linker_0, # of connection points: 2
#     Edge 56, Type (0, 1), BuildingBlock: XIVTED_clean_linker_0, # of connection points: 2
#     Edge 57, Type (0, 1), BuildingBlock: XIVTED_clean_linker_0, # of connection points: 2
#     Edge 58, Type (0, 1), BuildingBlock: XIVTED_clean_linker_0, # of connection points: 2
#     Edge 59, Type (0, 1), BuildingBlock: XIVTED_clean_linker_0, # of connection points: 2
#     Edge 60, Type (0, 1), BuildingBlock: XIVTED_clean_linker_0, # of connection points: 2
#     Edge 61, Type (0, 1), BuildingBlock: XIVTED_clean_linker_0, # of connection points: 2
#     Edge 62, Type (0, 1), BuildingBlock: XIVTED_clean_linker_0, # of connection points: 2
#     Edge 63, Type (0, 1), BuildingBlock: XIVTED_clean_linker_0, # of connection points: 2
#     Edge 64, Type (0, 1), BuildingBlock: XIVTED_clean_linker_0, # of connection points: 2
#     Edge 65, Type (0, 1), BuildingBlock: XIVTED_clean_linker_0, # of connection points: 2
#     Edge 66, Type (0, 1), BuildingBlock: XIVTED_clean_linker_0, # of connection points: 2
#     Edge 67, Type (0, 1), BuildingBlock: XIVTED_clean_linker_0, # of connection points: 2
#     Edge 68, Type (0, 1), BuildingBlock: XIVTED_clean_linker_0, # of connection points: 2
#     Edge 69, Type (0, 1), BuildingBlock: XIVTED_clean_linker_0, # of connection points: 2
#     Edge 70, Type (0, 1), BuildingBlock: XIVTED_clean_linker_0, # of connection points: 2
#     Edge 71, Type (0, 1), BuildingBlock: XIVTED_clean_linker_0, # of connection points: 2
#     Edge 72, Type (0, 1), BuildingBlock: XIVTED_clean_linker_0, # of connection points: 2
#     Edge 73, Type (0, 1), BuildingBlock: XIVTED_clean_linker_0, # of connection points: 2
#     Edge 74, Type (0, 1), BuildingBlock: XIVTED_clean_linker_0, # of connection points: 2
#     Edge 75, Type (0, 1), BuildingBlock: XIVTED_clean_linker_0, # of connection points: 2
#     Edge 76, Type (0, 1), BuildingBlock: XIVTED_clean_linker_0, # of connection points: 2
#     Edge 77, Type (0, 1), BuildingBlock: XIVTED_clean_linker_0, # of connection points: 2
#     Edge 78, Type (0, 1), BuildingBlock: XIVTED_clean_linker_0, # of connection points: 2
#     Edge 79, Type (0, 1), BuildingBlock: XIVTED_clean_linker_0, # of connection points: 2
#     Edge 80, Type (0, 1), BuildingBlock: XIVTED_clean_linker_0, # of connection points: 2
#     Edge 81, Type (0, 1), BuildingBlock: XIVTED_clean_linker_0, # of connection points: 2
#     Edge 82, Type (0, 1), BuildingBlock: XIVTED_clean_linker_0, # of connection points: 2
#     Edge 83, Type (0, 1), BuildingBlock: XIVTED_clean_linker_0, # of connection points: 2
#     Edge 84, Type (0, 1), BuildingBlock: XIVTED_clean_linker_0, # of connection points: 2
#     Edge 85, Type (0, 1), BuildingBlock: XIVTED_clean_linker_0, # of connection points: 2
#     Edge 86, Type (0, 1), BuildingBlock: XIVTED_clean_linker_0, # of connection points: 2
#     Edge 87, Type (0, 1), BuildingBlock: XIVTED_clean_linker_0, # of connection points: 2
#     Edge 88, Type (0, 1), BuildingBlock: XIVTED_clean_linker_0, # of connection points: 2
#     Edge 89, Type (0, 1), BuildingBlock: XIVTED_clean_linker_0, # of connection points: 2
#     Edge 90, Type (0, 1), BuildingBlock: XIVTED_clean_linker_0, # of connection points: 2
#     Edge 91, Type (0, 1), BuildingBlock: XIVTED_clean_linker_0, # of connection points: 2
#     Edge 92, Type (0, 1), BuildingBlock: XIVTED_clean_linker_0, # of connection points: 2
#     Edge 93, Type (0, 1), BuildingBlock: XIVTED_clean_linker_0, # of connection points: 2
#     Edge 94, Type (0, 1), BuildingBlock: XIVTED_clean_linker_0, # of connection points: 2
#     Edge 95, Type (0, 1), BuildingBlock: XIVTED_clean_linker_0, # of connection points: 2
#     Edge 96, Type (0, 1), BuildingBlock: XIVTED_clean_linker_0, # of connection points: 2
#     Edge 97, Type (0, 1), BuildingBlock: XIVTED_clean_linker_0, # of connection points: 2
#     Edge 98, Type (0, 1), BuildingBlock: XIVTED_clean_linker_0, # of connection points: 2
#     Edge 99, Type (0, 1), BuildingBlock: XIVTED_clean_linker_0, # of connection points: 2
#     Edge 100, Type (0, 1), BuildingBlock: XIVTED_clean_linker_0, # of connection points: 2
#     Edge 101, Type (0, 1), BuildingBlock: XIVTED_clean_linker_0, # of connection points: 2
#     Edge 102, Type (0, 1), BuildingBlock: XIVTED_clean_linker_0, # of connection points: 2
#     Edge 103, Type (0, 1), BuildingBlock: XIVTED_clean_linker_0, # of connection points: 2
#     Edge 104, Type (0, 1), BuildingBlock: XIVTED_clean_linker_0, # of connection points: 2
#     Edge 105, Type (0, 1), BuildingBlock: XIVTED_clean_linker_0, # of connection points: 2
#     Edge 106, Type (0, 1), BuildingBlock: XIVTED_clean_linker_0, # of connection points: 2
#     Edge 107, Type (0, 1), BuildingBlock: XIVTED_clean_linker_0, # of connection points: 2
#     Edge 108, Type (0, 1), BuildingBlock: XIVTED_clean_linker_0, # of connection points: 2
#     Edge 109, Type (0, 1), BuildingBlock: XIVTED_clean_linker_0, # of connection points: 2
#     Edge 110, Type (0, 1), BuildingBlock: XIVTED_clean_linker_0, # of connection points: 2
#     Edge 111, Type (0, 1), BuildingBlock: XIVTED_clean_linker_0, # of connection points: 2
#     Edge 112, Type (0, 1), BuildingBlock: XIVTED_clean_linker_0, # of connection points: 2
#     Edge 113, Type (0, 1), BuildingBlock: XIVTED_clean_linker_0, # of connection points: 2
#     Edge 114, Type (0, 1), BuildingBlock: XIVTED_clean_linker_0, # of connection points: 2
#     Edge 115, Type (0, 1), BuildingBlock: XIVTED_clean_linker_0, # of connection points: 2
#     Edge 116, Type (0, 1), BuildingBlock: XIVTED_clean_linker_0, # of connection points: 2
#     Edge 117, Type (0, 1), BuildingBlock: XIVTED_clean_linker_0, # of connection points: 2
#     Edge 118, Type (0, 1), BuildingBlock: XIVTED_clean_linker_0, # of connection points: 2
#     Edge 119, Type (0, 1), BuildingBlock: XIVTED_clean_linker_0, # of connection points: 2
#     Edge 120, Type (0, 1), BuildingBlock: XIVTED_clean_linker_0, # of connection points: 2
#     Edge 121, Type (0, 1), BuildingBlock: XIVTED_clean_linker_0, # of connection points: 2
#     Edge 122, Type (0, 1), BuildingBlock: XIVTED_clean_linker_0, # of connection points: 2
#     Edge 123, Type (0, 1), BuildingBlock: XIVTED_clean_linker_0, # of connection points: 2
#     Edge 124, Type (0, 1), BuildingBlock: XIVTED_clean_linker_0, # of connection points: 2
#     Edge 125, Type (0, 1), BuildingBlock: XIVTED_clean_linker_0, # of connection points: 2
#     Edge 126, Type (0, 1), BuildingBlock: XIVTED_clean_linker_0, # of connection points: 2
#     Edge 127, Type (0, 1), BuildingBlock: XIVTED_clean_linker_0, # of connection points: 2
#     Edge 128, Type (0, 1), BuildingBlock: XIVTED_clean_linker_0, # of connection points: 2
#     Edge 129, Type (0, 1), BuildingBlock: XIVTED_clean_linker_0, # of connection points: 2
#     Edge 130, Type (0, 1), BuildingBlock: XIVTED_clean_linker_0, # of connection points: 2
#     Edge 131, Type (0, 1), BuildingBlock: XIVTED_clean_linker_0, # of connection points: 2
#     Edge 132, Type (0, 1), BuildingBlock: XIVTED_clean_linker_0, # of connection points: 2
#     Edge 133, Type (0, 1), BuildingBlock: XIVTED_clean_linker_0, # of connection points: 2
#     Edge 134, Type (0, 1), BuildingBlock: XIVTED_clean_linker_0, # of connection points: 2
#     Edge 135, Type (0, 1), BuildingBlock: XIVTED_clean_linker_0, # of connection points: 2
# Relax obj value: 0.324
# Max RMSD: 0.274
# Mean RMSD: 0.129
data_MOF--net-iac--node1-QUQFOY_clean_sbu_3--node2-FUNLAD_clean_sbu_0--edge1-XIVTED_clean_linker_0
_symmetry_space_group_name_H-M    P1
_symmetry_Int_Tables_number       1
_symmetry_cell_setting            triclinic
loop_
_symmetry_equiv_pos_as_xyz
'x, y, z'
_cell_length_a     55.88742
_cell_length_b     54.651228
_cell_length_c     60.429585
_cell_angle_alpha  90.795504
_cell_angle_beta   92.142334
_cell_angle_gamma 90.695328
loop_
_atom_site_label
_atom_site_type_symbol
_atom_site_fract_x
_atom_site_fract_y
_atom_site_fract_z
_atom_type_partial_charge
C0 C 0.03228 0.19603 0.207 0.0
O1 O 0.05264 0.19268 0.21636 0.0
Cd2 Cd 0.08727 0.20976 0.19967 0.0
O3 O 0.0298 0.21072 0.19094 0.0
Cd4 Cd 0.05356 0.23911 0.16944 0.0
C5 C 0.07863 0.19032 0.14642 0.0
O6 O 0.08269 0.25402 0.19689 0.0
O7 O 0.09166 0.25853 0.16258 0.0
O8 O 0.02894 0.27566 0.16819 0.0
C9 C 0.09562 0.26429 0.18278 0.0
O10 O 0.08954 0.1859 0.16476 0.0
C11 C 0.02458 0.2739 0.14744 0.0
O12 O 0.06477 0.20834 0.14444 0.0
O13 O 0.03199 0.25495 0.13763 0.0
C14 C 0.98265 0.74603 0.35039 0.0
O15 O -0.00301 0.75781 0.33853 0.0
Cd16 Cd 0.03831 0.76522 0.34691 0.0
O17 O -0.00981 0.73552 0.36802 0.0
Cd18 Cd 0.02925 0.72913 0.38883 0.0
C19 C 0.03113 0.7906 0.39909 0.0
O20 O 0.05343 0.72634 0.35649 0.0
O21 O 0.07375 0.73056 0.38716 0.0
O22 O 0.01755 0.68629 0.39333 0.0
C23 C 0.07379 0.72768 0.36629 0.0
O24 O 0.03683 0.79269 0.37897 0.0
C25 C 0.02115 0.68583 0.41419 0.0
O26 O 0.02645 0.76965 0.40706 0.0
O27 O 0.02846 0.70568 0.42353 0.0
C28 C 0.5396 0.69864 0.70523 0.0
O29 O 0.56035 0.69509 0.7137 0.0
Cd30 Cd 0.59346 0.71195 0.69434 0.0
O31 O 0.53644 0.71388 0.6897 0.0
Cd32 Cd 0.55796 0.74368 0.6679 0.0
C33 C 0.57731 0.69491 0.64112 0.0
O34 O 0.59142 0.75624 0.69179 0.0
O35 O 0.59563 0.7603 0.65647 0.0
O36 O 0.53459 0.78035 0.67368 0.0
C37 C 0.60306 0.76528 0.67611 0.0
O38 O 0.58999 0.69004 0.65841 0.0
C39 C 0.5276 0.78168 0.65349 0.0
O40 O 0.56391 0.71344 0.64044 0.0
O41 O 0.53333 0.76433 0.64065 0.0
C42 C 0.47916 0.25157 0.85012 0.0
O43 O 0.49306 0.26431 0.83862 0.0
Cd44 Cd 0.53413 0.27268 0.84746 0.0
O45 O 0.48708 0.24089 0.86753 0.0
Cd46 Cd 0.52652 0.23598 0.88812 0.0
C47 C 0.52712 0.29706 0.89987 0.0
O48 O 0.5508 0.23393 0.85563 0.0
O49 O 0.57082 0.23886 0.88642 0.0
O50 O 0.51659 0.19261 0.89221 0.0
C51 C 0.57105 0.23553 0.86562 0.0
O52 O 0.53262 0.29973 0.87977 0.0
C53 C 0.52091 0.19192 0.91296 0.0
O54 O 0.52284 0.27583 0.90741 0.0
O55 O 0.52751 0.21193 0.92244 0.0
C56 C 0.09446 0.03634 0.26193 0.0
O57 O 0.08175 0.04786 0.24778 0.0
Cd58 Cd 0.09263 0.05265 0.20998 0.0
O59 O 0.11343 0.0256 0.25621 0.0
Cd60 Cd 0.1363 0.01903 0.22222 0.0
C61 C 0.14692 0.08004 0.22148 0.0
O62 O 0.10234 0.0128 0.19599 0.0
O63 O 0.13669 0.01862 0.18173 0.0
O64 O 0.14472 0.97873 0.23732 0.0
C65 C 0.11471 0.01307 0.17883 0.0
O66 O 0.12609 0.08213 0.21248 0.0
C67 C 0.16636 0.97841 0.23161 0.0
O68 O 0.15449 0.05935 0.22792 0.0
O69 O 0.17419 -0.00283 0.22191 0.0
C70 C 0.30982 0.93684 0.54816 0.0
O71 O 0.29282 0.95026 0.54127 0.0
Cd72 Cd 0.25354 0.93596 0.53209 0.0
O73 O 0.30587 0.91461 0.55337 0.0
Cd74 Cd 0.27022 0.88652 0.55542 0.0
C75 C 0.2713 0.88713 0.50006 0.0
O76 O 0.23945 0.91584 0.56379 0.0
O77 O 0.2269 0.88269 0.54759 0.0
O78 O 0.28409 0.86961 0.59107 0.0
C79 C 0.22182 0.90289 0.55669 0.0
O80 O 0.2611 0.90784 0.5011 0.0
C81 C 0.27894 0.84758 0.58554 0.0
O82 O 0.27757 0.87585 0.51756 0.0
O83 O 0.27036 0.84377 0.56605 0.0
C84 C 0.445 0.96863 0.76909 0.0
O85 O 0.45923 0.96273 0.75405 0.0
Cd86 Cd 0.44948 0.96673 0.71562 0.0
O87 O 0.42507 0.97879 0.76429 0.0
Cd88 Cd 0.40132 -0.00671 0.73177 0.0
C89 C 0.39751 0.93288 0.71748 0.0
O90 O 0.43601 0.00815 0.71355 0.0
O91 O 0.40327 0.00852 0.69367 0.0
O92 O 0.38831 0.02661 0.75573 0.0
C93 C 0.42533 0.01409 0.69567 0.0
O94 O 0.41914 0.93406 0.71161 0.0
C95 C 0.36686 0.0264 0.74796 0.0
O96 O 0.38727 0.95165 0.7252 0.0
O97 O 0.36136 0.01032 0.7332 0.0
C98 C 0.31428 0.06062 0.07037 0.0
O99 O 0.30879 0.05841 0.09044 0.0
Cd100 Cd 0.28935 0.0906 0.10951 0.0
O101 O 0.30948 0.08014 0.05995 0.0
Cd102 Cd 0.28942 0.11907 0.06638 0.0
C103 C 0.32915 0.13813 0.10601 0.0
O104 O 0.25625 0.10061 0.08475 0.0
O105 O 0.25664 0.14003 0.08389 0.0
O106 O 0.27317 0.1156 0.02835 0.0
C107 C 0.24451 0.12033 0.08485 0.0
O108 O 0.31972 0.12207 0.1181 0.0
C109 C 0.27988 0.13683 0.02281 0.0
O110 O 0.32185 0.14067 0.08606 0.0
O111 O 0.29164 0.14948 0.03734 0.0
C112 C 0.8111 0.43155 0.04326 0.0
O113 O 0.79455 0.4458 0.03682 0.0
Cd114 Cd 0.75472 0.4331 0.02787 0.0
O115 O 0.80636 0.40943 0.04826 0.0
Cd116 Cd 0.76981 0.38285 0.05081 0.0
C117 C 0.77049 0.38366 -0.00452 0.0
O118 O 0.74024 0.41327 0.05956 0.0
O119 O 0.72639 0.38046 0.04357 0.0
O120 O 0.7836 0.36637 0.08654 0.0
C121 C 0.72212 0.40082 0.05277 0.0
O122 O 0.7612 0.4048 -0.00323 0.0
C123 C 0.77751 0.34442 0.08163 0.0
O124 O 0.77634 0.37191 0.01284 0.0
O125 O 0.76853 0.34034 0.06231 0.0
C126 C 0.94271 0.47899 0.26946 0.0
O127 O 0.95698 0.47321 0.25445 0.0
Cd128 Cd 0.94552 0.47432 0.21637 0.0
O129 O 0.92229 0.48805 0.26452 0.0
Cd130 Cd 0.89815 0.50075 0.23142 0.0
C131 C 0.89392 0.44005 0.22139 0.0
O132 O 0.93131 0.51508 0.21079 0.0
O133 O 0.89921 0.50694 0.19125 0.0
O134 O 0.88589 0.53661 0.25248 0.0
C135 C 0.92029 0.51581 0.19219 0.0
O136 O 0.9153 0.44115 0.21482 0.0
C137 C 0.86436 0.53602 0.24495 0.0
O138 O 0.88371 0.45909 0.22859 0.0
O139 O 0.85844 0.51873 0.23153 0.0
C140 C 0.80381 0.55042 0.56426 0.0
O141 O 0.79984 0.54858 0.58471 0.0
Cd142 Cd 0.78868 0.58345 0.60607 0.0
O143 O 0.80138 0.57085 0.55466 0.0
Cd144 Cd 0.78863 0.61255 0.5633 0.0
C145 C 0.835 0.62358 0.59903 0.0
O146 O 0.75535 0.60108 0.58587 0.0
O147 O 0.76314 0.63975 0.58395 0.0
O148 O 0.76804 0.6124 0.52689 0.0
C149 C 0.74825 0.62291 0.58813 0.0
O150 O 0.8244 0.6092 0.61195 0.0
C151 C 0.77778 0.63211 0.52068 0.0
O152 O 0.82618 0.62759 0.57979 0.0
O153 O 0.79291 0.64233 0.53411 0.0
C154 C 0.5953 0.53309 0.76825 0.0
O155 O 0.58389 0.54558 0.75387 0.0
Cd156 Cd 0.59499 0.54868 0.71589 0.0
O157 O 0.61333 0.52059 0.76284 0.0
Cd158 Cd 0.63577 0.51267 0.72897 0.0
C159 C 0.65077 0.57261 0.72557 0.0
O160 O 0.60245 0.50827 0.7019 0.0
O161 O 0.63752 0.51265 0.68858 0.0
O162 O 0.64123 0.46963 0.73708 0.0
C163 C 0.61544 0.50774 0.68515 0.0
O164 O 0.63011 0.57595 0.71661 0.0
C165 C 0.66395 0.47055 0.73754 0.0
O166 O 0.6567 0.55178 0.73294 0.0
O167 O 0.67369 0.49134 0.73478 0.0
C168 C 0.96488 0.7891 0.83831 0.0
O169 O 0.97323 0.80121 0.82249 0.0
Cd170 Cd 0.01029 0.82404 0.82781 0.0
O171 O 0.97629 0.78793 0.85677 0.0
Cd172 Cd 0.01311 0.79922 0.87655 0.0
C173 C -7e-05 0.85887 0.87437 0.0
O174 O 0.03713 0.79537 0.84456 0.0
O175 O 0.0558 0.80812 0.87458 0.0
O176 O 0.00579 0.75817 0.88731 0.0
C177 C 0.05648 0.80275 0.85412 0.0
O178 O 0.00423 0.85808 0.85381 0.0
C179 C 0.00968 0.76174 0.9079 0.0
O180 O 0.00026 0.83963 0.88597 0.0
O181 O 0.01666 0.78303 0.91427 0.0
C182 C 0.96886 0.22941 0.68532 0.0
O183 O 0.98077 0.21402 0.69663 0.0
Cd184 Cd 0.02055 0.20116 0.68899 0.0
O185 O 0.97791 0.23959 0.66864 0.0
Cd186 Cd 0.01703 0.24035 0.64959 0.0
C187 C 0.01628 0.17992 0.63477 0.0
O188 O 0.04212 0.23837 0.6837 0.0
O189 O 0.06095 0.2368 0.65331 0.0
O190 O 0.01194 0.28445 0.64549 0.0
C191 C 0.06194 0.23695 0.6743 0.0
O192 O 0.01967 0.17573 0.65533 0.0
C193 C 0.01274 0.28446 0.62453 0.0
O194 O 0.01329 0.20171 0.62802 0.0
O195 O 0.01595 0.26392 0.61507 0.0
C196 C 0.45009 0.29018 0.32905 0.0
O197 O 0.45425 0.30431 0.31313 0.0
Cd198 Cd 0.48976 0.33024 0.31516 0.0
O199 O 0.46525 0.28807 0.34495 0.0
Cd200 Cd 0.50529 0.30089 0.35604 0.0
C201 C 0.48818 0.35751 0.36642 0.0
O202 O 0.52489 0.30581 0.32067 0.0
O203 O 0.5428 0.32091 0.35037 0.0
O204 O 0.51042 0.25783 0.36101 0.0
C205 C 0.54323 0.31633 0.32976 0.0
O206 O 0.48827 0.36035 0.34553 0.0
C207 C 0.51591 0.25926 0.38154 0.0
O208 O 0.4914 0.33659 0.37485 0.0
O209 O 0.51814 0.28057 0.39016 0.0
C210 C 0.46918 0.73744 0.18763 0.0
O211 O 0.48083 0.7219 0.19901 0.0
Cd212 Cd 0.52046 0.7084 0.19148 0.0
O213 O 0.47839 0.74725 0.17084 0.0
Cd214 Cd 0.51753 0.74669 0.15187 0.0
C215 C 0.51651 0.68599 0.13777 0.0
O216 O 0.54262 0.74531 0.18609 0.0
O217 O 0.56135 0.74289 0.15566 0.0
O218 O 0.5136 0.79078 0.14694 0.0
C219 C 0.56241 0.74374 0.17665 0.0
O220 O 0.5198 0.68207 0.15838 0.0
C221 C 0.51444 0.79028 0.12598 0.0
O222 O 0.51361 0.7077 0.13079 0.0
O223 O 0.51693 0.76942 0.11688 0.0
C224 C 0.93502 0.03292 0.81068 0.0
O225 O 0.9503 0.02145 0.79963 0.0
Cd226 Cd 0.93871 -0.00155 0.76683 0.0
O227 O 0.91318 0.03352 0.80405 0.0
Cd228 Cd 0.88546 0.02151 0.77339 0.0
C229 C 0.89236 0.96241 0.78599 0.0
O230 O 0.91465 0.02593 0.74571 0.0
O231 O 0.8812 0.00962 0.73394 0.0
O232 O 0.87427 0.06256 0.78121 0.0
C233 C 0.90222 0.01667 0.72972 0.0
O234 O 0.91328 0.9644 0.7784 0.0
C235 C 0.85184 0.05906 0.77931 0.0
O236 O 0.87882 0.9809 0.78747 0.0
O237 O 0.84444 0.0376 0.77398 0.0
C238 C 0.80712 0.07318 0.49276 0.0
O239 O 0.79086 0.06093 0.50197 0.0
Cd240 Cd 0.74993 0.07171 0.50637 0.0
O241 O 0.80275 0.0941 0.48448 0.0
Cd242 Cd 0.76848 0.12246 0.47931 0.0
C243 C 0.75835 0.1269 0.53461 0.0
O244 O 0.73987 0.09004 0.47227 0.0
O245 O 0.72506 0.12597 0.47158 0.0
O246 O 0.78623 0.13366 0.44477 0.0
C247 C 0.72136 0.10307 0.47106 0.0
O248 O 0.75093 0.10474 0.53388 0.0
C249 C 0.78328 0.15654 0.44727 0.0
O250 O 0.76686 0.13706 0.51767 0.0
O251 O 0.77384 0.16369 0.46499 0.0
C252 C 0.6006 0.00182 0.32722 0.0
O253 O 0.5892 0.01461 0.31305 0.0
Cd254 Cd 0.59931 0.02312 0.27616 0.0
O255 O 0.62039 0.9918 0.32262 0.0
Cd256 Cd 0.64664 0.98817 0.28997 0.0
C257 C 0.65561 0.04963 0.28553 0.0
O258 O 0.61289 0.98458 0.2647 0.0
O259 O 0.64652 0.98598 0.2489 0.0
O260 O 0.65462 0.94669 0.30217 0.0
C261 C 0.6239 0.98488 0.24687 0.0
O262 O 0.63374 0.05091 0.27894 0.0
C263 C 0.67686 0.94741 0.2986 0.0
O264 O 0.66459 0.02942 0.29186 0.0
O265 O 0.68531 0.96745 0.29168 0.0
C266 C 0.76227 0.9271 0.01473 0.0
O267 O 0.74235 0.93797 0.01279 0.0
Cd268 Cd 0.70499 0.91918 0.02019 0.0
O269 O 0.76346 0.90513 0.02154 0.0
Cd270 Cd 0.73881 0.87116 0.03554 0.0
C271 C 0.70772 0.86732 0.98644 0.0
O272 O 0.71464 0.89911 0.05383 0.0
O273 O 0.70059 0.86258 0.05408 0.0
O274 O 0.77202 0.86527 0.06136 0.0
C275 C 0.69775 0.885 0.05883 0.0
O276 O 0.69875 0.88815 0.99068 0.0
C277 C 0.77231 0.84213 0.05941 0.0
O278 O 0.72329 0.85775 -0.00052 0.0
O279 O 0.75696 0.83224 0.04592 0.0
C280 C 0.30773 0.57663 0.00308 0.0
O281 O 0.29142 0.565 0.01279 0.0
Cd282 Cd 0.25003 0.57527 0.01392 0.0
O283 O 0.30315 0.59639 -0.00717 0.0
Cd284 Cd 0.2687 0.62327 0.98403 0.0
C285 C 0.25549 0.63304 0.03801 0.0
O286 O 0.2421 0.58914 0.97768 0.0
O287 O 0.22514 0.62396 0.97517 0.0
O288 O 0.28798 0.6306 0.94934 0.0
C289 C 0.22291 0.60087 0.97505 0.0
O290 O 0.24789 0.61097 0.03839 0.0
C291 C 0.28471 0.65355 0.9494 0.0
O292 O 0.2656 0.6415 0.02109 0.0
O293 O 0.27423 0.66263 0.96585 0.0
C294 C 0.1042 0.5015 0.82061 0.0
O295 O 0.09342 0.51385 0.80576 0.0
Cd296 Cd 0.10378 0.51701 0.76843 0.0
O297 O 0.12298 0.48946 0.8163 0.0
Cd298 Cd 0.14761 0.48178 0.78294 0.0
C299 C 0.1609 0.54152 0.77565 0.0
O300 O 0.11289 0.4761 0.75877 0.0
O301 O 0.1455 0.4809 0.74177 0.0
O302 O 0.15372 0.44035 0.79654 0.0
C303 C 0.12318 0.47652 0.74058 0.0
O304 O 0.13923 0.54337 0.76863 0.0
C305 C 0.17557 0.43919 0.79168 0.0
O306 O 0.16867 0.52147 0.78349 0.0
O307 O 0.18476 0.4582 0.78345 0.0
C308 C 0.26084 0.43356 0.51888 0.0
O309 O 0.24158 0.44543 0.51599 0.0
Cd310 Cd 0.20274 0.43093 0.5254 0.0
O311 O 0.26087 0.41247 0.52763 0.0
Cd312 Cd 0.23428 0.38204 0.54389 0.0
C313 C 0.19968 0.37637 0.49609 0.0
O314 O 0.21178 0.413 0.56032 0.0
O315 O 0.19765 0.37707 0.5654 0.0
O316 O 0.26638 0.37061 0.56984 0.0
C317 C 0.19498 0.39999 0.56736 0.0
O318 O 0.19197 0.39809 0.4984 0.0
C319 C 0.26467 0.34788 0.56518 0.0
O320 O 0.2153 0.3677 0.50959 0.0
O321 O 0.24889 0.34129 0.55057 0.0
C322 C 0.43568 0.53174 0.31422 0.0
O323 O 0.44953 0.51861 0.30301 0.0
Cd324 Cd 0.43531 0.49548 0.27141 0.0
O325 O 0.41377 0.53414 0.3082 0.0
Cd326 Cd 0.38447 0.52383 0.27795 0.0
C327 C 0.38647 0.46514 0.29326 0.0
O328 O 0.41377 0.5249 0.25043 0.0
O329 O 0.37951 0.51066 0.23858 0.0
O330 O 0.37722 0.56622 0.28437 0.0
C331 C 0.40094 0.51634 0.23443 0.0
O332 O 0.40739 0.46497 0.2855 0.0
C333 C 0.35459 0.56497 0.28239 0.0
O334 O 0.37429 0.48468 0.29365 0.0
O335 O 0.3452 0.54409 0.27784 0.0
C336 C -0.00751 0.07397 0.95911 0.0
N337 N 0.96443 0.03613 0.01213 0.0
C338 C 0.94479 0.05019 0.00846 0.0
C339 C 0.92189 0.04008 0.0103 0.0
C340 C 0.91938 0.01542 0.01615 0.0
C341 C 0.94 0.00214 0.02179 0.0
C342 C 0.96243 0.01278 0.01938 0.0
Zn343 Zn -0.00305 0.0468 0.00163 0.0
C344 C 0.01337 0.00888 0.96863 0.0
N345 N 0.06421 0.06494 0.97632 0.0
C346 C 0.06767 0.08899 0.97173 0.0
C347 C 0.08293 0.04972 0.97986 0.0
C348 C 0.10602 0.05936 0.98252 0.0
C349 C 0.10967 0.08483 0.98132 0.0
C350 C 0.09053 0.09937 0.97393 0.0
Zn351 Zn 0.03177 0.05444 0.98678 0.0
O352 O 0.98021 0.06512 0.97444 0.0
C353 C 0.01602 0.09182 0.02025 0.0
O354 O 0.01511 0.0726 0.96052 0.0
H355 H 0.0797 0.03062 0.9833 0.0
H356 H 0.94681 0.06872 0.00271 0.0
H357 H 0.05248 0.10076 0.9689 0.0
O358 O -0.0027 0.07859 0.02161 0.0
O359 O 0.03174 0.08605 0.00659 0.0
H360 H 0.97818 0.00175 0.02191 0.0
O361 O 0.04865 0.03593 0.01384 0.0
O362 O 0.01406 0.02881 0.02842 0.0
O363 O 0.03164 0.02268 0.96709 0.0
O364 O -0.0028 0.01465 0.98188 0.0
C365 C 0.03669 0.02727 0.02944 0.0
H366 H 0.90647 0.05098 0.00578 0.0
H367 H 0.93888 0.98327 0.02693 0.0
H368 H 0.12015 0.0473 0.98813 0.0
H369 H 0.09268 0.11896 0.9722 0.0
C370 C 0.30938 0.78034 0.2454 0.0
N371 N 0.24409 0.75588 0.21689 0.0
C372 C 0.24947 0.76948 0.19902 0.0
C373 C 0.246 0.7598 0.17767 0.0
C374 C 0.23734 0.73569 0.17465 0.0
C375 C 0.23044 0.7227 0.19336 0.0
C376 C 0.23389 0.73324 0.21442 0.0
Zn377 Zn 0.25664 0.7677 0.24734 0.0
C378 C 0.27777 0.72664 0.27339 0.0
N379 N 0.28625 0.79169 0.30971 0.0
C380 C 0.29839 0.81338 0.3115 0.0
C381 C 0.28012 0.77907 0.32793 0.0
C382 C 0.28486 0.78898 0.34902 0.0
C383 C 0.29595 0.81211 0.35133 0.0
C384 C 0.30346 0.824 0.3323 0.0
Zn385 Zn 0.27328 0.77983 0.27958 0.0
O386 O 0.29107 0.77341 0.23373 0.0
C387 C 0.25149 0.82104 0.25422 0.0
O388 O 0.30707 0.78536 0.2658 0.0
H389 H 0.27037 0.76191 0.3261 0.0
H390 H 0.25772 0.78737 0.20134 0.0
H391 H 0.30313 0.82303 0.29676 0.0
O392 O 0.24663 0.8042 0.24 0.0
O393 O 0.2628 0.81587 0.27212 0.0
H394 H 0.22976 0.72274 0.22886 0.0
O395 O 0.2397 0.77349 0.29319 0.0
O396 O 0.22256 0.76137 0.26162 0.0
O397 O 0.28313 0.74389 0.28702 0.0
O398 O 0.26673 0.73145 0.25525 0.0
C399 C 0.2213 0.76545 0.28234 0.0
H400 H 0.25105 0.77074 0.16374 0.0
H401 H 0.22387 0.704 0.19196 0.0
H402 H 0.27852 0.77932 0.36323 0.0
H403 H 0.31232 0.84173 0.33342 0.0
C404 C 0.50994 0.03509 0.55886 0.0
N405 N 0.53648 0.96875 0.53689 0.0
C406 C 0.54687 0.96905 0.55759 0.0
C407 C 0.54604 0.94824 0.57058 0.0
C408 C 0.53493 0.92674 0.56196 0.0
C409 C 0.5269 0.92628 0.53962 0.0
C410 C 0.52755 0.94769 0.52742 0.0
Zn411 Zn 0.52681 0.00096 0.52319 0.0
C412 C 0.47292 -1e-05 0.51467 0.0
N413 N 0.50149 0.06799 0.4977 0.0
C414 C 0.50875 0.08876 0.5088 0.0
C415 C 0.49129 0.06883 0.47695 0.0
C416 C 0.48988 0.09101 0.46589 0.0
C417 C 0.49865 0.11259 0.47646 0.0
C418 C 0.50714 0.11136 0.49857 0.0
Zn419 Zn 0.51128 0.03542 0.51077 0.0
O420 O 0.52023 0.01494 0.55525 0.0
C421 C 0.56503 0.03644 0.51936 0.0
O422 O 0.50398 0.04843 0.54264 0.0
H423 H 0.48558 0.05211 0.46844 0.0
H424 H 0.55398 0.98599 0.56476 0.0
H425 H 0.51707 0.08773 0.52518 0.0
O426 O 0.56223 0.0144 0.52523 0.0
O427 O 0.54682 0.04887 0.51363 0.0
H428 H 0.51924 0.9479 0.51098 0.0
O429 O 0.51859 0.02188 0.47882 0.0
O430 O 0.53347 0.9875 0.49112 0.0
O431 O 0.47597 0.02174 0.50807 0.0
O432 O 0.49099 0.98769 0.52103 0.0
C433 C 0.52832 0.00143 0.47505 0.0
H434 H 0.55246 0.94969 0.58767 0.0
H435 H 0.51898 0.90994 0.53195 0.0
H436 H 0.48334 0.09088 0.4488 0.0
H437 H 0.51349 0.12754 0.50765 0.0
C438 C 0.27493 0.17732 0.7738 0.0
N439 N 0.24404 0.21353 0.82688 0.0
C440 C 0.23549 0.19091 0.83181 0.0
C441 C 0.23419 0.18383 0.85388 0.0
C442 C 0.24149 0.20032 0.87096 0.0
C443 C 0.248 0.22427 0.8653 0.0
C444 C 0.2495 0.23039 0.84311 0.0
Zn445 Zn 0.25498 0.22104 0.79578 0.0
C446 C 0.30729 0.23517 0.79777 0.0
N447 N 0.28169 0.23729 0.73261 0.0
C448 C 0.2781 0.22052 0.71594 0.0
C449 C 0.29318 0.2589 0.72923 0.0
C450 C 0.30045 0.26488 0.70816 0.0
C451 C 0.29631 0.24825 0.69039 0.0
C452 C 0.28563 0.22548 0.69473 0.0
Zn453 Zn 0.26932 0.23006 0.76307 0.0
O454 O 0.26503 0.18389 0.79144 0.0
C455 C 0.21724 0.21657 0.76007 0.0
O456 O 0.27859 0.19298 0.75898 0.0
H457 H 0.29614 0.27185 0.74278 0.0
H458 H 0.2312 0.17777 0.81868 0.0
H459 H 0.26895 0.20342 0.71895 0.0
O460 O 0.21987 0.21378 0.78094 0.0
O461 O 0.2352 0.22275 0.74905 0.0
H462 H 0.25657 0.24817 0.83898 0.0
O463 O 0.2598 0.26732 0.76761 0.0
O464 O 0.24531 0.25819 0.79971 0.0
O465 O 0.30332 0.23744 0.77712 0.0
O466 O 0.29022 0.22868 0.80983 0.0
C467 C 0.24951 0.27396 0.78506 0.0
H468 H 0.2291 0.16514 0.85738 0.0
H469 H 0.25314 0.23784 0.87787 0.0
H470 H 0.30819 0.28285 0.70575 0.0
H471 H 0.28247 0.21182 0.68178 0.0
C472 C 0.06581 0.98016 0.51719 0.0
N473 N 0.03491 0.01689 0.46259 0.0
C474 C 0.05624 0.02878 0.46052 0.0
C475 C 0.06382 0.03533 0.43956 0.0
C476 C 0.04917 0.02978 0.42069 0.0
C477 C 0.02694 0.01828 0.42349 0.0
C478 C 0.02022 0.01186 0.44461 0.0
Zn479 Zn 0.02499 0.00252 0.49201 0.0
C480 C 0.01364 0.94788 0.48463 0.0
N481 N 0.00274 0.96813 0.55068 0.0
C482 C 0.01715 0.97278 0.56893 0.0
C483 C 0.97999 0.95942 0.55255 0.0
C484 C 0.97 0.9581 0.57335 0.0
C485 C 0.98377 0.96539 0.59229 0.0
C486 C 0.00811 0.97107 0.58998 0.0
Zn487 Zn 0.01333 0.98211 0.52141 0.0
O488 O 0.06116 0.99244 0.49986 0.0
C489 C 0.02478 0.03636 0.52954 0.0
O490 O 0.04895 0.97369 0.52937 0.0
H491 H 0.96887 0.95555 0.53787 0.0
H492 H 0.06771 0.03248 0.47502 0.0
H493 H 0.03508 0.97993 0.56727 0.0
O494 O 0.03012 0.03692 0.50924 0.0
O495 O 0.01774 0.01632 0.53763 0.0
H496 H 0.00358 0.00194 0.44648 0.0
O497 O 0.97769 0.99096 0.51303 0.0
O498 O -0.01124 0.01243 0.48477 0.0
O499 O 0.00915 0.94798 0.50509 0.0
O500 O 0.0197 0.96781 0.47558 0.0
C501 C 0.97229 0.00459 0.49684 0.0
H502 H 0.08107 0.04428 0.43808 0.0
H503 H 0.01529 0.01325 0.40939 0.0
H504 H 0.95117 0.9535 0.57429 0.0
H505 H 0.01962 0.97606 0.60418 0.0
C506 C 0.2872 0.73654 0.71241 0.0
N507 N 0.33947 0.6998 0.75064 0.0
C508 C 0.3391 0.67995 0.7368 0.0
C509 C 0.35971 0.66606 0.73454 0.0
C510 C 0.38087 0.67284 0.74653 0.0
C511 C 0.38036 0.69302 0.76116 0.0
C512 C 0.35942 0.7062 0.76302 0.0
Zn513 Zn 0.31006 0.72048 0.75454 0.0
C514 C 0.32135 0.77367 0.75634 0.0
N515 N 0.24893 0.76325 0.76562 0.0
C516 C 0.22726 0.75689 0.75615 0.0
C517 C 0.25145 0.78255 0.77999 0.0
C518 C 0.23152 0.79559 0.78621 0.0
C519 C 0.20866 0.78827 0.77805 0.0
C520 C 0.20674 0.76912 0.76227 0.0
Zn521 Zn 0.27793 0.74241 0.7604 0.0
O522 O 0.3048 0.72417 0.71985 0.0
C523 C 0.26585 0.68962 0.75787 0.0
O524 O 0.27239 0.74533 0.72578 0.0
H525 H 0.26883 0.78728 0.78739 0.0
H526 H 0.3229 0.67507 0.72732 0.0
H527 H 0.22573 0.74159 0.74462 0.0
O528 O 0.28814 0.68809 0.75464 0.0
O529 O 0.25673 0.71054 0.76058 0.0
H530 H 0.35923 0.72188 0.77411 0.0
O531 O 0.28373 0.7395 0.79516 0.0
O532 O 0.31533 0.71749 0.78917 0.0
O533 O 0.29916 0.77407 0.75987 0.0
O534 O 0.33154 0.75317 0.75409 0.0
C535 C 0.30128 0.7272 0.80266 0.0
H536 H 0.35921 0.65055 0.72319 0.0
H537 H 0.39627 0.6994 0.77038 0.0
H538 H 0.23392 0.81056 0.79804 0.0
H539 H 0.1895 0.76262 0.75569 0.0
C540 C 0.50497 0.94464 0.03789 0.0
N541 N 0.51872 0.01516 0.06282 0.0
C542 C 0.50733 0.00624 0.08054 0.0
C543 C 0.51654 0.01102 0.10191 0.0
C544 C 0.53759 0.02518 0.10497 0.0
C545 C 0.54734 0.03638 0.08651 0.0
C546 C 0.53762 0.03099 0.06541 0.0
Zn547 Zn 0.51189 -0.00076 0.03273 0.0
C548 C 0.55637 0.98046 0.01485 0.0
N549 N 0.49924 0.96298 0.97113 0.0
C550 C 0.47988 0.94804 0.96709 0.0
C551 C 0.51406 0.96928 0.95477 0.0
C552 C 0.50892 0.96162 0.93305 0.0
C553 C 0.48825 0.94745 0.92813 0.0
C554 C 0.47399 0.94003 0.94553 0.0
Zn555 Zn 0.50502 0.97914 0.00118 0.0
O556 O 0.51003 0.9646 0.04812 0.0
C557 C 0.46043 -0.00471 0.02109 0.0
O558 O 0.50101 0.94491 0.01705 0.0
H559 H 0.52928 0.98127 0.95837 0.0
H560 H 0.49233 -0.00631 0.07805 0.0
H561 H 0.46843 0.94321 0.98044 0.0
O562 O 0.4753 0.003 0.03605 0.0
O563 O 0.46785 0.98549 0.0035 0.0
H564 H 0.54636 0.03787 0.05106 0.0
O565 O 0.50921 0.01386 0.98543 0.0
O566 O 0.51384 0.03358 0.01714 0.0
O567 O 0.54199 0.97197 -0.00018 0.0
O568 O 0.54852 -0.00563 0.02979 0.0
C569 C 0.51233 0.03393 -0.00387 0.0
H570 H 0.50848 0.00188 0.11561 0.0
H571 H 0.5633 0.0478 0.08821 0.0
H572 H 0.52019 0.96808 0.9201 0.0
H573 H 0.45799 0.92894 0.94239 0.0
C574 C 0.23867 0.23169 0.26668 0.0
N575 N 0.30102 0.26139 0.24183 0.0
C576 C 0.30796 0.23781 0.23939 0.0
C577 C 0.32521 0.23175 0.22436 0.0
C578 C 0.33537 0.25007 0.21147 0.0
C579 C 0.32783 0.27429 0.21416 0.0
C580 C 0.31062 0.27963 0.22969 0.0
Zn581 Zn 0.27749 0.26853 0.26584 0.0
C582 C 0.23937 0.30086 0.25321 0.0
N583 N 0.23224 0.2816 0.31924 0.0
C584 C 0.22413 0.26338 0.33221 0.0
C585 C 0.22581 0.30524 0.32255 0.0
C586 C 0.21173 0.31154 0.34021 0.0
C587 C 0.20398 0.29333 0.35457 0.0
C588 C 0.20978 0.26885 0.35001 0.0
Zn589 Zn 0.25529 0.27445 0.29488 0.0
O590 O 0.25526 0.23923 0.25461 0.0
C591 C 0.29373 0.24223 0.30735 0.0
O592 O 0.235 0.24265 0.28493 0.0
H593 H 0.23232 0.31942 0.31193 0.0
H594 H 0.30009 0.22358 0.24913 0.0
H595 H 0.22934 0.24468 0.32914 0.0
O596 O 0.29661 0.24512 0.28683 0.0
O597 O 0.27689 0.25333 0.3166 0.0
H598 H 0.30494 0.2983 0.23207 0.0
O599 O 0.27603 0.30589 0.30448 0.0
O600 O 0.29956 0.29774 0.27718 0.0
O601 O 0.23428 0.29581 0.27298 0.0
O602 O 0.25804 0.29198 0.24508 0.0
C603 C 0.2946 0.31084 0.29384 0.0
H604 H 0.32992 0.2127 0.22234 0.0
H605 H 0.33506 0.28886 0.20433 0.0
H606 H 0.20814 0.3307 0.34321 0.0
H607 H 0.20395 0.25417 0.36046 0.0
C608 C 0.56657 0.48285 0.02235 0.0
N609 N 0.53511 0.52095 0.96887 0.0
C610 C 0.55669 0.5323 0.96669 0.0
C611 C 0.56429 0.53866 0.94569 0.0
C612 C 0.5494 0.53348 0.92691 0.0
C613 C 0.52684 0.52276 0.92983 0.0
C614 C 0.5201 0.51649 0.95098 0.0
Zn615 Zn 0.52549 0.50608 -0.00184 0.0
C616 C 0.51351 0.45181 0.98993 0.0
N617 N 0.50405 0.47053 0.05652 0.0
C618 C 0.51862 0.47449 0.07478 0.0
C619 C 0.48128 0.46187 0.0583 0.0
C620 C 0.47137 0.46005 0.07909 0.0
C621 C 0.48529 0.46672 0.09812 0.0
C622 C 0.50969 0.47218 0.09583 0.0
Zn623 Zn 0.51439 0.48525 0.0275 0.0
O624 O 0.56162 0.49545 0.00528 0.0
C625 C 0.52629 0.53926 0.0363 0.0
O626 O 0.54998 0.47629 0.0348 0.0
H627 H 0.47005 0.45848 0.04359 0.0
H628 H 0.5684 0.53556 0.98111 0.0
H629 H 0.5366 0.48153 0.07318 0.0
O630 O 0.53118 0.54002 0.0159 0.0
O631 O 0.5194 0.51913 0.04436 0.0
H632 H 0.50325 0.50699 0.95293 0.0
O633 O 0.47878 0.49472 0.01985 0.0
O634 O 0.48939 0.51648 -0.00837 0.0
O635 O 0.50956 0.45148 0.01049 0.0
O636 O 0.51955 0.47188 0.98114 0.0
C637 C 0.47315 0.50867 0.00396 0.0
H638 H 0.5818 0.54702 0.94411 0.0
H639 H 0.51498 0.51804 0.91579 0.0
H640 H 0.4525 0.45562 0.07997 0.0
H641 H 0.52132 0.47664 0.11008 0.0
C642 C 0.78074 0.24148 0.21374 0.0
N643 N 0.83217 0.20736 0.25421 0.0
C644 C 0.83152 0.18692 0.24108 0.0
C645 C 0.85187 0.17258 0.23939 0.0
C646 C 0.87308 0.1795 0.2512 0.0
C647 C 0.87289 0.20027 0.26515 0.0
C648 C 0.85216 0.21394 0.26645 0.0
Zn649 Zn 0.80283 0.22836 0.25669 0.0
C650 C 0.81395 0.28136 0.25672 0.0
N651 N 0.7411 0.27125 0.26444 0.0
C652 C 0.7203 0.26421 0.25371 0.0
C653 C 0.74261 0.29209 0.27698 0.0
C654 C 0.72248 0.30648 0.27957 0.0
C655 C 0.70038 0.29899 0.26966 0.0
C656 C 0.69959 0.27771 0.25627 0.0
Zn657 Zn 0.77042 0.25019 0.26154 0.0
O658 O 0.79822 0.22954 0.22195 0.0
C659 C 0.75874 0.19745 0.26135 0.0
O660 O 0.76583 0.25108 0.22655 0.0
H661 H 0.75937 0.29741 0.2853 0.0
H662 H 0.81531 0.18194 0.23168 0.0
H663 H 0.71959 0.24775 0.24356 0.0
O664 O 0.78107 0.19609 0.25832 0.0
O665 O 0.74924 0.21833 0.26289 0.0
H666 H 0.85218 0.23014 0.27693 0.0
O667 O 0.7754 0.24923 0.29666 0.0
O668 O 0.8076 0.22783 0.29127 0.0
O669 O 0.79172 0.28182 0.26011 0.0
O670 O 0.82423 0.26085 0.25497 0.0
C671 C 0.79339 0.23776 0.30448 0.0
H672 H 0.85118 0.15663 0.22855 0.0
H673 H 0.88891 0.20668 0.27419 0.0
H674 H 0.72415 0.32296 0.28967 0.0
H675 H 0.683 0.27086 0.24858 0.0
C676 C -0.00606 0.43964 0.53866 0.0
N677 N 0.00152 0.51011 0.56551 0.0
C678 C 0.98797 0.5012 0.58186 0.0
C679 C -0.00422 0.50394 0.60394 0.0
C680 C 0.0181 0.51523 0.60907 0.0
C681 C 0.03003 0.52695 0.592 0.0
C682 C 0.02122 0.52434 0.57022 0.0
Zn683 Zn -0.00221 0.4949 0.5347 0.0
C684 C 0.04502 0.47941 0.51955 0.0
N685 N -0.00765 0.45938 0.4721 0.0
C686 C 0.97374 0.44406 0.46631 0.0
C687 C 0.00789 0.46736 0.45692 0.0
C688 C 0.004 0.46141 0.43462 0.0
C689 C 0.98384 0.44724 0.42791 0.0
C690 C 0.9691 0.43773 0.44411 0.0
Zn691 Zn -0.00499 0.47476 0.50273 0.0
O692 O -0.00346 0.45974 0.54936 0.0
C693 C 0.94766 0.48785 0.51951 0.0
O694 O -0.00812 0.43999 0.51765 0.0
H695 H 0.02247 0.47965 0.4619 0.0
H696 H 0.97232 0.48998 0.57774 0.0
H697 H 0.9617 0.43789 0.47873 0.0
O698 O 0.96068 0.4965 0.53547 0.0
O699 O 0.95726 0.47869 0.50264 0.0
H700 H 0.03159 0.53147 0.55694 0.0
O701 O -0.00151 0.51005 0.48802 0.0
O702 O -0.00059 0.52981 0.51986 0.0
O703 O 0.03249 0.47001 0.5036 0.0
O704 O 0.03493 0.49213 0.53407 0.0
C705 C -0.0002 0.53018 0.49885 0.0
H706 H 0.98543 0.49545 0.61661 0.0
H707 H 0.04724 0.53594 0.59492 0.0
H708 H 0.01563 0.4694 0.42266 0.0
H709 H 0.9535 0.42654 0.43956 0.0
C710 C 0.77463 0.68768 0.27413 0.0
N711 N 0.7452 0.72183 0.32906 0.0
C712 C 0.73618 0.69913 0.33301 0.0
C713 C 0.7347 0.69093 0.35474 0.0
C714 C 0.74233 0.7064 0.37248 0.0
C715 C 0.74925 0.73052 0.36787 0.0
C716 C 0.75091 0.73776 0.346 0.0
Zn717 Zn 0.75664 0.73075 0.29844 0.0
C718 C 0.80934 0.74221 0.3012 0.0
N719 N 0.78433 0.74988 0.23632 0.0
C720 C 0.77576 0.7378 0.21782 0.0
C721 C 0.80183 0.76728 0.23528 0.0
C722 C 0.81117 0.77338 0.21499 0.0
C723 C 0.80194 0.76199 0.19542 0.0
C724 C 0.78414 0.74376 0.19712 0.0
Zn725 Zn 0.77119 0.74118 0.26618 0.0
O726 O 0.76549 0.69382 0.29227 0.0
C727 C 0.71874 0.72995 0.26259 0.0
O728 O 0.77838 0.70386 0.25975 0.0
H729 H 0.80847 0.77665 0.25018 0.0
H730 H 0.7317 0.68674 0.31934 0.0
H731 H 0.76207 0.72378 0.21904 0.0
O732 O 0.72139 0.72533 0.28317 0.0
O733 O 0.73674 0.73681 0.25196 0.0
H734 H 0.75837 0.7556 0.34266 0.0
O735 O 0.76387 0.77868 0.27283 0.0
O736 O 0.74825 0.7678 0.30401 0.0
O737 O 0.8054 0.7454 0.28068 0.0
O738 O 0.792 0.73631 0.31315 0.0
C739 C 0.75342 0.78443 0.29046 0.0
H740 H 0.72927 0.67216 0.35746 0.0
H741 H 0.75469 0.74331 0.38101 0.0
H742 H 0.8252 0.78719 0.21469 0.0
H743 H 0.77605 0.73473 0.1826 0.0
C744 C 0.80826 0.27034 0.7429 0.0
N745 N 0.74219 0.24652 0.71497 0.0
C746 C 0.75049 0.25723 0.69654 0.0
C747 C 0.74709 0.2458 0.67589 0.0
C748 C 0.73484 0.22321 0.67416 0.0
C749 C 0.72469 0.21367 0.69322 0.0
C750 C 0.72875 0.22561 0.71361 0.0
Zn751 Zn 0.7549 0.2593 0.74493 0.0
C752 C 0.7744 0.21885 0.77222 0.0
N753 N 0.78499 0.28521 0.80645 0.0
C754 C 0.79725 0.30685 0.80806 0.0
C755 C 0.7788 0.27282 0.82478 0.0
C756 C 0.78376 0.28281 0.84579 0.0
C757 C 0.79505 0.30584 0.84793 0.0
C758 C 0.80245 0.31761 0.82879 0.0
Zn759 Zn 0.77205 0.27267 0.77652 0.0
O760 O 0.78982 0.26324 0.7315 0.0
C761 C 0.75132 0.313 0.7494 0.0
O762 O 0.80606 0.27648 0.76305 0.0
H763 H 0.76889 0.25574 0.82311 0.0
H764 H 0.76114 0.27386 0.69802 0.0
H765 H 0.80202 0.31633 0.79323 0.0
O766 O 0.74595 0.29527 0.73626 0.0
O767 O 0.76289 0.3089 0.76744 0.0
H768 H 0.72234 0.21743 0.7285 0.0
O769 O 0.73804 0.2682 0.79009 0.0
O770 O 0.72066 0.25495 0.759 0.0
O771 O 0.78065 0.23643 0.78521 0.0
O772 O 0.76342 0.22335 0.75401 0.0
C773 C 0.71942 0.26028 0.77948 0.0
H774 H 0.75544 0.2538 0.66178 0.0
H775 H 0.71466 0.19658 0.6926 0.0
H776 H 0.77745 0.27329 0.86009 0.0
H777 H 0.8114 0.3353 0.82981 0.0
C778 C 0.75532 0.71901 0.7582 0.0
N779 N 0.81744 0.74706 0.73067 0.0
C780 C 0.82438 0.72335 0.72974 0.0
C781 C 0.84168 0.7161 0.71517 0.0
C782 C 0.85205 0.73338 0.70129 0.0
C783 C 0.84471 0.75782 0.70267 0.0
C784 C 0.8273 0.76432 0.71763 0.0
Zn785 Zn 0.79358 0.75626 0.75383 0.0
C786 C 0.75491 0.78621 0.73821 0.0
N787 N 0.74768 0.77435 0.80606 0.0
C788 C 0.74486 0.76005 0.82403 0.0
C789 C 0.7363 0.79613 0.80416 0.0
C790 C 0.72205 0.80461 0.82095 0.0
C791 C 0.72035 0.79125 0.84054 0.0
C792 C 0.73151 0.76831 0.84166 0.0
Zn793 Zn 0.77094 0.76466 0.78222 0.0
O794 O 0.77184 0.72532 0.74547 0.0
C795 C 0.81046 0.73521 0.7976 0.0
O796 O 0.75143 0.73187 0.77536 0.0
H797 H 0.73886 0.80753 0.78998 0.0
H798 H 0.81641 0.70996 0.74032 0.0
H799 H 0.75379 0.74265 0.82517 0.0
O800 O 0.81344 0.73581 0.77692 0.0
O801 O 0.79306 0.74662 0.8056 0.0
H802 H 0.82166 0.78314 0.71883 0.0
O803 O 0.79063 0.79713 0.78899 0.0
O804 O 0.81483 0.7873 0.76265 0.0
O805 O 0.74982 0.78291 0.75825 0.0
O806 O 0.77365 0.77679 0.73074 0.0
C807 C 0.80915 0.80172 0.77819 0.0
H808 H 0.8462 0.69691 0.71426 0.0
H809 H 0.85215 0.77167 0.69219 0.0
H810 H 0.71324 0.82198 0.81881 0.0
H811 H 0.7311 0.75729 0.85637 0.0
C812 C 0.50164 0.56129 0.46174 0.0
N813 N 0.47077 0.52429 0.51356 0.0
C814 C 0.45226 0.5399 0.51021 0.0
C815 C 0.42873 0.5315 0.51164 0.0
C816 C 0.42435 0.5069 0.51678 0.0
C817 C 0.44389 0.4918 0.52188 0.0
C818 C 0.46706 0.50085 0.51995 0.0
Zn819 Zn 0.504 0.53397 0.50455 0.0
C820 C 0.52136 0.49572 0.47215 0.0
N821 N 0.5726 0.55173 0.48186 0.0
C822 C 0.57573 0.57613 0.47854 0.0
C823 C 0.59126 0.53734 0.48809 0.0
C824 C 0.61283 0.54817 0.49553 0.0
C825 C 0.61483 0.57383 0.49636 0.0
C826 C 0.59694 0.58772 0.48585 0.0
Zn827 Zn 0.53932 0.5412 0.49047 0.0
O828 O 0.48891 0.55263 0.47682 0.0
C829 C 0.52203 0.57919 0.52298 0.0
O830 O 0.52421 0.55935 0.46341 0.0
H831 H 0.58839 0.51796 0.49041 0.0
H832 H 0.45569 0.55849 0.50518 0.0
H833 H 0.56062 0.58725 0.47363 0.0
O834 O 0.5035 0.56575 0.52426 0.0
O835 O 0.53831 0.57315 0.51002 0.0
H836 H 0.48204 0.48872 0.5224 0.0
O837 O 0.55446 0.52276 0.51836 0.0
O838 O 0.51934 0.51573 0.53197 0.0
O839 O 0.53992 0.50924 0.47098 0.0
O840 O 0.50485 0.50182 0.48492 0.0
C841 C 0.54196 0.51421 0.53364 0.0
H842 H 0.41421 0.54376 0.50751 0.0
H843 H 0.44132 0.47289 0.52645 0.0
H844 H 0.62661 0.53684 0.503 0.0
H845 H 0.59788 0.60753 0.48604 0.0
C846 C 0.01338 0.51643 0.05635 0.0
N847 N 0.03992 0.45568 0.02454 0.0
C848 C 0.05288 0.45375 0.04389 0.0
C849 C 0.05351 0.43162 0.05496 0.0
C850 C 0.04104 0.41114 0.04581 0.0
C851 C 0.0303 0.41302 0.02449 0.0
C852 C 0.02974 0.4357 0.01417 0.0
Zn853 Zn 0.02909 0.48957 0.01594 0.0
C854 C 0.97549 0.48975 0.00872 0.0
N855 N 0.00323 0.56037 0.0018 0.0
C856 C 0.01059 0.57882 0.01589 0.0
C857 C -0.00945 0.56494 0.9827 0.0
C858 C 0.9859 0.589 0.97662 0.0
C859 C -0.00583 0.60847 0.99047 0.0
C860 C 0.00598 0.60305 0.01067 0.0
Zn861 Zn 0.01416 0.52605 0.00897 0.0
O862 O 0.023 0.49694 0.04966 0.0
C863 C 0.06741 0.52642 0.01646 0.0
O864 O 0.008 0.53286 0.04255 0.0
H865 H 0.98489 0.54997 0.97176 0.0
H866 H 0.06079 0.46991 0.05183 0.0
H867 H 0.02084 0.57485 0.03091 0.0
O868 O 0.06462 0.50355 0.01911 0.0
O869 O 0.04922 0.53962 0.01283 0.0
H870 H 0.0195 0.43773 -0.00123 0.0
O871 O 0.02055 0.51872 0.97515 0.0
O872 O 0.03492 0.48235 0.98238 0.0
O873 O 0.97901 0.51236 0.00528 0.0
O874 O -0.00668 0.47609 0.01273 0.0
C875 C 0.02994 0.49896 0.96852 0.0
H876 H 0.06194 0.43134 0.07136 0.0
H877 H 0.02111 0.39758 0.01644 0.0
H878 H 0.977 0.59226 0.96073 0.0
H879 H 0.0123 0.6174 0.02205 0.0
H880 H 0.06817 0.14179 0.14739 0.0
H881 H 0.0455 0.13132 0.01668 0.0
H882 H 0.08587 0.2003 0.10356 0.0
H883 H 0.00397 0.09157 0.06342 0.0
H884 H 0.06588 0.1535 0.04751 0.0
H885 H 0.05239 0.11772 0.11538 0.0
C886 C 0.06969 0.14906 0.13091 0.0
C887 C 0.07834 0.17288 0.1279 0.0
C888 C 0.05206 0.14017 0.05097 0.0
C889 C 0.05976 0.14614 0.09168 0.0
C890 C 0.04021 0.1278 0.03342 0.0
C891 C 0.02287 0.10985 0.03758 0.0
C892 C 0.0468 0.13417 0.07275 0.0
C893 C 0.01695 0.10559 0.05954 0.0
C894 C 0.06024 0.13562 0.11277 0.0
C895 C 0.07941 0.18188 0.10637 0.0
N896 N 0.02916 0.11745 0.07639 0.0
N897 N 0.06997 0.16857 0.08901 0.0
H898 H 0.07835 0.72426 0.32143 0.0
H899 H 0.2148 0.77038 0.32666 0.0
H900 H 0.1192 0.73911 0.38226 0.0
H901 H 0.17769 0.74769 0.26571 0.0
H902 H 0.17943 0.75991 0.34691 0.0
H903 H 0.11406 0.73298 0.30056 0.0
C904 C 0.09488 0.7292 0.33042 0.0
C905 C 0.09577 0.73103 0.35365 0.0
C906 C 0.17894 0.75719 0.32912 0.0
C907 C 0.13667 0.74124 0.3298 0.0
C908 C 0.19916 0.76327 0.31746 0.0
C909 C 0.19926 0.75996 0.29436 0.0
C910 C 0.15848 0.74776 0.31769 0.0
C911 C 0.17841 0.75059 0.28348 0.0
C912 C 0.11525 0.73421 0.31847 0.0
C913 C 0.11767 0.73748 0.36438 0.0
N914 N 0.15883 0.74484 0.29524 0.0
N915 N 0.13719 0.74248 0.35237 0.0
H916 H 0.533 0.82757 0.67106 0.0
H917 H 0.49608 0.89517 0.55977 0.0
H918 H 0.50254 0.78781 0.61435 0.0
H919 H 0.56142 0.91089 0.59829 0.0
H920 H 0.48752 0.86163 0.58465 0.0
H921 H 0.53031 0.86542 0.65001 0.0
C922 C 0.52488 0.82693 0.6545 0.0
C923 C 0.51836 0.80455 0.64422 0.0
C924 C 0.50358 0.87267 0.58762 0.0
C925 C 0.51539 0.84749 0.62028 0.0
C926 C 0.50877 0.89158 0.57326 0.0
C927 C 0.52976 0.90587 0.57665 0.0
C928 C 0.5191 0.86843 0.6058 0.0
C929 C 0.54491 0.90073 0.59504 0.0
C930 C 0.52362 0.84845 0.64247 0.0
C931 C 0.50805 0.80472 0.6227 0.0
N932 N 0.53924 0.88246 0.60895 0.0
N933 N 0.50715 0.8259 0.61125 0.0
H934 H 0.45755 0.26971 0.81275 0.0
H935 H 0.32525 0.22393 0.83942 0.0
H936 H 0.44224 0.22914 0.87151 0.0
H937 H 0.34533 0.25517 0.77744 0.0
H938 H 0.36701 0.22838 0.85322 0.0
H939 H 0.41552 0.26701 0.80125 0.0
C940 C 0.44535 0.26019 0.82328 0.0
C941 C 0.45353 0.24956 0.84313 0.0
C942 C 0.36218 0.23431 0.83664 0.0
C943 C 0.40504 0.24644 0.82996 0.0
C944 C 0.33837 0.23188 0.82879 0.0
C945 C 0.33183 0.23911 0.80721 0.0
C946 C 0.37942 0.24416 0.82282 0.0
C947 C 0.34954 0.24922 0.79414 0.0
C948 C 0.42127 0.25865 0.81667 0.0
C949 C 0.43675 0.23751 0.85604 0.0
N950 N 0.37246 0.2514 0.80214 0.0
N951 N 0.41325 0.23627 0.84923 0.0
H952 H 0.0174 0.79508 0.44236 0.0
H953 H 0.02227 0.94171 0.44074 0.0
H954 H 0.03894 0.83782 0.38674 0.0
H955 H 0.00586 0.90103 0.49913 0.0
H956 H 0.02617 0.90333 0.42037 0.0
H957 H 0.01163 0.83318 0.46335 0.0
C958 C 0.02102 0.8124 0.43459 0.0
C959 C 0.02867 0.81317 0.41272 0.0
C960 C 0.02163 0.90272 0.43762 0.0
C961 C 0.0219 0.85678 0.43656 0.0
C962 C 0.0193 0.9247 0.44927 0.0
C963 C 0.01379 0.92464 0.47173 0.0
C964 C 0.01846 0.88039 0.44844 0.0
C965 C 0.01013 0.90195 0.48184 0.0
C966 C 0.01766 0.83414 0.44656 0.0
C967 C 0.03302 0.8362 0.40351 0.0
N968 N 0.01263 0.88072 0.47014 0.0
N969 N 0.02953 0.85698 0.41544 0.0
H970 H 0.5305 0.68056 0.74643 0.0
H971 H 0.39614 0.65652 0.70645 0.0
H972 H 0.50205 0.6833 0.67918 0.0
H973 H 0.41908 0.66368 0.77532 0.0
H974 H 0.43741 0.65068 0.69686 0.0
H975 H 0.49283 0.66117 0.75736 0.0
C976 C 0.51648 0.6767 0.73397 0.0
C977 C 0.51891 0.68417 0.71207 0.0
C978 C 0.43342 0.65306 0.71415 0.0
C979 C 0.47639 0.66181 0.72419 0.0
C980 C 0.4097 0.65614 0.71971 0.0
C981 C 0.40417 0.66162 0.74167 0.0
C982 C 0.45173 0.65601 0.73057 0.0
C983 C 0.42269 0.66067 0.75803 0.0
C984 C 0.4951 0.6656 0.74015 0.0
C985 C 0.50051 0.6785 0.6964 0.0
N986 N 0.44579 0.65873 0.75209 0.0
N987 N 0.47996 0.66791 0.70281 0.0
H988 H 0.50907 0.14638 0.89635 0.0
H989 H 0.52071 0.07997 0.01367 0.0
H990 H 0.52838 0.18451 0.95756 0.0
H991 H 0.50724 0.0416 0.95145 0.0
H992 H 0.52247 0.11856 -0.00628 0.0
H993 H 0.50696 0.10808 0.91656 0.0
C994 C 0.51281 0.14672 0.91407 0.0
C995 C 0.51893 0.16873 0.92527 0.0
C996 C 0.51915 0.1017 0.98443 0.0
C997 C 0.51658 0.12479 0.94857 0.0
C998 C 0.51814 0.07963 -0.00418 0.0
C999 C 0.51381 0.05745 0.98424 0.0
C1000 C 0.51574 0.10167 0.96128 0.0
C1001 C 0.51063 0.0582 0.96109 0.0
C1002 C 0.51164 0.1248 0.92561 0.0
C1003 C 0.5236 0.168 0.94825 0.0
N1004 N 0.51162 0.07992 0.95041 0.0
N1005 N 0.52234 0.1464 0.95913 0.0
H1006 H 0.10085 0.28959 0.22174 0.0
H1007 H 0.23645 0.30153 0.20789 0.0
H1008 H 0.13413 0.27826 0.1592 0.0
H1009 H 0.20051 0.32652 0.26583 0.0
H1010 H 0.19916 0.30545 0.18613 0.0
H1011 H 0.13549 0.31388 0.23475 0.0
C1012 C 0.11545 0.29239 0.21071 0.0
C1013 C 0.1151 0.28128 0.18969 0.0
C1014 C 0.19956 0.31084 0.20346 0.0
C1015 C 0.15491 0.30882 0.20446 0.0
C1016 C 0.22093 0.30871 0.21588 0.0
C1017 C 0.22115 0.31254 0.23887 0.0
C1018 C 0.17846 0.31647 0.21431 0.0
C1019 C 0.20077 0.32238 0.24827 0.0
C1020 C 0.13514 0.30648 0.21802 0.0
C1021 C 0.13405 0.28607 0.17576 0.0
N1022 N 0.17997 0.32328 0.23607 0.0
N1023 N 0.15352 0.29901 0.18359 0.0
H1024 H 0.0677 0.00304 0.16747 0.0
H1025 H 0.08499 0.02474 0.03862 0.0
H1026 H 0.13631 0.01625 0.13906 0.0
H1027 H 0.01652 0.01029 0.06694 0.0
H1028 H 0.10466 0.0167 0.0745 0.0
H1029 H 0.04917 0.00112 0.13021 0.0
C1030 C 0.07889 0.00538 0.15339 0.0
C1031 C 0.10354 0.01008 0.15638 0.0
C1032 C 0.08535 0.01499 0.07281 0.0
C1033 C 0.08246 0.00795 0.11367 0.0
C1034 C 0.0741 0.01949 0.05228 0.0
C1035 C 0.04904 0.01845 0.04982 0.0
C1036 C 0.07143 0.00953 0.09103 0.0
C1037 C 0.03588 0.0115 0.0681 0.0
C1038 C 0.06831 0.00424 0.1321 0.0
C1039 C 0.1172 0.01279 0.13753 0.0
N1040 N 0.04721 0.00758 0.08799 0.0
N1041 N 0.10645 0.01189 0.11699 0.0
H1042 H 0.29156 0.84282 0.49146 0.0
H1043 H 0.28585 0.8599 0.3603 0.0
H1044 H 0.26381 0.90708 0.45906 0.0
H1045 H 0.30769 0.79308 0.39206 0.0
H1046 H 0.28221 0.87916 0.39661 0.0
H1047 H 0.30106 0.82569 0.45542 0.0
C1048 C 0.28743 0.85334 0.47678 0.0
C1049 C 0.27673 0.87639 0.47829 0.0
C1050 C 0.28801 0.86035 0.39566 0.0
C1051 C 0.28773 0.85689 0.43698 0.0
C1052 C 0.29035 0.84941 0.37492 0.0
C1053 C 0.29701 0.8248 0.37316 0.0
C1054 C 0.2923 0.84658 0.4148 0.0
C1055 C 0.30219 0.81199 0.39268 0.0
C1056 C 0.29292 0.84355 0.4562 0.0
C1057 C 0.27191 0.88919 0.45869 0.0
N1058 N 0.29958 0.82299 0.41272 0.0
N1059 N 0.27742 0.87924 0.43884 0.0
H1060 H 0.40714 0.03324 0.65712 0.0
H1061 H 0.47614 0.0682 0.57049 0.0
H1062 H 0.47376 0.01741 0.69217 0.0
H1063 H 0.52438 0.0144 0.59788 0.0
H1064 H 0.45619 0.07011 0.6058 0.0
H1065 H 0.42966 0.04602 0.6253 0.0
C1066 C 0.42652 0.03283 0.65821 0.0
C1067 C 0.43861 0.02407 0.67717 0.0
C1068 C 0.47123 0.05802 0.60408 0.0
C1069 C 0.4645 0.03899 0.64108 0.0
C1070 C 0.48283 0.05715 0.58406 0.0
C1071 C 0.5016 0.04072 0.58116 0.0
C1072 C 0.47856 0.04237 0.6212 0.0
C1073 C 0.50968 0.02699 0.59932 0.0
C1074 C 0.43939 0.04042 0.64016 0.0
C1075 C 0.46374 0.02395 0.6778 0.0
N1076 N 0.49793 0.02794 0.61855 0.0
N1077 N 0.47585 0.03087 0.65983 0.0
H1078 H 0.29704 0.17854 0.00446 0.0
H1079 H 0.21442 0.1671 0.89379 0.0
H1080 H 0.2485 0.11762 0.9911 0.0
H1081 H 0.2772 0.2139 0.901 0.0
H1082 H 0.22305 0.15169 0.9311 0.0
H1083 H 0.28623 0.1949 0.96811 0.0
C1084 C 0.28413 0.16859 -0.00615 0.0
C1085 C 0.27377 0.14662 0.00072 0.0
C1086 C 0.23479 0.16546 0.92447 0.0
C1087 C 0.26116 0.16533 0.95919 0.0
C1088 C 0.22992 0.17423 0.90317 0.0
C1089 C 0.24499 0.19197 0.89417 0.0
C1090 C 0.25478 0.17459 0.93687 0.0
C1091 C 0.26468 0.20069 0.90729 0.0
C1092 C 0.27796 0.17793 0.97311 0.0
C1093 C 0.25706 0.13453 0.98635 0.0
N1094 N 0.26897 0.19192 0.9279 0.0
N1095 N 0.25121 0.14408 0.96624 0.0
H1096 H 0.05407 0.05496 0.27989 0.0
H1097 H 0.09335 0.02082 0.40441 0.0
H1098 H 0.11975 0.01798 0.29763 0.0
H1099 H 0.02363 0.04824 0.38527 0.0
H1100 H 0.10506 0.02371 0.36591 0.0
H1101 H 0.044 0.05581 0.31886 0.0
C1102 C 0.06637 0.04696 0.29195 0.0
C1103 C 0.08776 0.03629 0.28542 0.0
C1104 C 0.08725 0.02924 0.37016 0.0
C1105 C 0.0764 0.0374 0.33016 0.0
C1106 C 0.08063 0.02782 0.39217 0.0
C1107 C 0.05744 0.0342 0.39803 0.0
C1108 C 0.07058 0.03719 0.35391 0.0
C1109 C 0.04159 0.04284 0.38142 0.0
C1110 C 0.06061 0.0475 0.31423 0.0
C1111 C 0.10301 0.02629 0.30185 0.0
N1112 N 0.04842 0.04399 0.36012 0.0
N1113 N 0.09704 0.02712 0.32345 0.0
H1114 H 0.25181 0.80594 0.58712 0.0
H1115 H 0.32532 0.74704 0.68743 0.0
H1116 H 0.31185 0.84347 0.61989 0.0
H1117 H 0.24808 0.74747 0.68599 0.0
H1118 H 0.32464 0.7714 0.65362 0.0
H1119 H 0.25449 0.77388 0.6152 0.0
C1120 C 0.26576 0.80722 0.60003 0.0
C1121 C 0.28157 0.82739 0.60135 0.0
C1122 C 0.30789 0.76559 0.66048 0.0
C1123 C 0.28503 0.79067 0.63288 0.0
C1124 C 0.30821 0.7515 0.67956 0.0
C1125 C 0.28669 0.74526 0.68944 0.0
C1126 C 0.28591 0.7729 0.65099 0.0
C1127 C 0.26504 0.75194 0.67883 0.0
C1128 C 0.26721 0.78901 0.61598 0.0
C1129 C 0.29923 0.82829 0.61844 0.0
N1130 N 0.26517 0.76549 0.66013 0.0
N1131 N 0.30058 0.81009 0.63353 0.0
H1132 H 0.4864 0.94858 0.78592 0.0
H1133 H 0.44302 0.95203 0.91025 0.0
H1134 H 0.41725 0.97428 0.80508 0.0
H1135 H 0.51514 0.93466 0.89282 0.0
H1136 H 0.43137 0.95334 0.87105 0.0
H1137 H 0.49565 0.93796 0.82438 0.0
C1138 C 0.47316 0.95202 0.7982 0.0
C1139 C 0.45109 0.96256 0.79231 0.0
C1140 C 0.44969 0.94895 0.87578 0.0
C1141 C 0.4615 0.95021 0.83625 0.0
C1142 C 0.45629 0.9479 0.89818 0.0
C1143 C 0.48015 0.94346 0.90478 0.0
C1144 C 0.46709 0.94562 0.85989 0.0
C1145 C 0.49664 0.93857 0.88839 0.0
C1146 C 0.47844 0.94586 0.82013 0.0
C1147 C 0.43458 0.96642 0.80889 0.0
N1148 N 0.48986 0.94005 0.86666 0.0
N1149 N 0.44015 0.9603 0.83011 0.0
H1150 H 0.358 0.13294 0.14308 0.0
H1151 H 0.33361 0.26476 0.16838 0.0
H1152 H 0.3388 0.18453 0.09225 0.0
H1153 H 0.37301 0.21844 0.21357 0.0
H1154 H 0.34806 0.24089 0.13745 0.0
H1155 H 0.37608 0.16621 0.16535 0.0
C1156 C 0.35812 0.15123 0.1364 0.0
C1157 C 0.34608 0.1562 0.11625 0.0
C1158 C 0.35428 0.23637 0.15407 0.0
C1159 C 0.36604 0.19451 0.14186 0.0
C1160 C 0.34609 0.25015 0.17178 0.0
C1161 C 0.35124 0.24279 0.19355 0.0
C1162 C 0.3671 0.21484 0.15834 0.0
C1163 C 0.36778 0.22397 0.19696 0.0
C1164 C 0.36854 0.17028 0.14907 0.0
C1165 C 0.34734 0.18005 0.10803 0.0
N1166 N 0.37449 0.21007 0.17956 0.0
N1167 N 0.35639 0.19851 0.12121 0.0
H1168 H 0.21749 0.15833 0.06837 0.0
H1169 H 0.15602 0.06847 0.98261 0.0
H1170 H 0.216 0.08013 0.07804 0.0
H1171 H 0.11191 0.12668 0.007 0.0
H1172 H 0.18693 0.08007 0.01063 0.0
H1173 H 0.18415 0.15347 0.04088 0.0
C1174 C 0.20977 0.14028 0.06524 0.0
C1175 C 0.21993 0.11949 0.07511 0.0
C1176 C 0.17056 0.09047 0.00943 0.0
C1177 C 0.18296 0.11398 0.04336 0.0
C1178 C 0.153 0.08397 -0.00654 0.0
C1179 C 0.13106 0.09618 -0.00726 0.0
C1180 C 0.16636 0.10962 0.02438 0.0
C1181 C 0.12848 0.11667 0.00686 0.0
C1182 C 0.19102 0.13757 0.04941 0.0
C1183 C 0.2091 0.09659 0.0705 0.0
N1184 N 0.14588 0.12263 0.02235 0.0
N1185 N 0.19163 0.09435 0.05447 0.0
H1186 H 0.68874 0.39144 0.01963 0.0
H1187 H 0.58807 0.47631 0.06284 0.0
H1188 H 0.70303 0.43748 0.07735 0.0
H1189 H 0.59996 0.46925 -0.00707 0.0
H1190 H 0.62687 0.45716 0.07082 0.0
H1191 H 0.6518 0.41399 0.01192 0.0
C1192 C 0.68392 0.40609 0.03085 0.0
C1193 C 0.69882 0.41263 0.04923 0.0
C1194 C 0.62105 0.46009 0.05377 0.0
C1195 C 0.65683 0.43825 0.04048 0.0
C1196 C 0.59902 0.47095 0.04921 0.0
C1197 C 0.59099 0.47434 0.02722 0.0
C1198 C 0.63466 0.45192 0.03619 0.0
C1199 C 0.6057 0.46708 0.0101 0.0
C1200 C 0.66306 0.41906 0.02628 0.0
C1201 C 0.69195 0.43192 0.06305 0.0
N1202 N 0.62673 0.45578 0.01494 0.0
N1203 N 0.67125 0.44398 0.05851 0.0
H1204 H 0.9123 0.39421 0.21467 0.0
H1205 H 0.79738 0.32753 0.26235 0.0
H1206 H 0.848 0.43113 0.23324 0.0
H1207 H 0.85935 0.28811 0.24153 0.0
H1208 H 0.81644 0.36564 0.25201 0.0
H1209 H 0.89343 0.35503 0.22341 0.0
C1210 C 0.89412 0.39408 0.22028 0.0
C1211 C 0.88177 0.41604 0.22335 0.0
C1212 C 0.82598 0.34871 0.24973 0.0
C1213 C 0.86028 0.37136 0.23366 0.0
C1214 C 0.81513 0.3269 0.25575 0.0
C1215 C 0.82678 0.30456 0.25277 0.0
C1216 C 0.8487 0.34833 0.24061 0.0
C1217 C 0.84977 0.30493 0.24417 0.0
C1218 C 0.88343 0.37172 0.2254 0.0
C1219 C 0.85829 0.41473 0.23073 0.0
N1220 N 0.85998 0.32651 0.2383 0.0
N1221 N 0.8484 0.39282 0.23575 0.0
H1222 H 0.81782 0.5062 0.58077 0.0
H1223 H 0.91274 0.49519 0.48728 0.0
H1224 H 0.81564 0.54817 0.52071 0.0
H1225 H 0.92383 0.47816 0.55634 0.0
H1226 H 0.86962 0.49952 0.49332 0.0
H1227 H 0.84757 0.4797 0.56472 0.0
C1228 C 0.82307 0.50946 0.56398 0.0
C1229 C 0.81512 0.53009 0.55244 0.0
C1230 C 0.8815 0.49423 0.50696 0.0
C1231 C 0.8492 0.50007 0.53419 0.0
C1232 C 0.90597 0.49189 0.50355 0.0
C1233 C 0.92166 0.48711 0.52154 0.0
C1234 C 0.87296 0.49126 0.52836 0.0
C1235 C 0.91224 0.48262 0.54223 0.0
C1236 C 0.84006 0.49432 0.55484 0.0
C1237 C 0.82203 0.53299 0.53051 0.0
N1238 N 0.88851 0.48504 0.54514 0.0
N1239 N 0.83925 0.51854 0.52228 0.0
H1240 H 0.14728 0.12312 0.19885 0.0
H1241 H 0.21731 0.19859 0.29319 0.0
H1242 H 0.17917 0.08752 0.25582 0.0
H1243 H 0.22777 0.21529 0.22461 0.0
H1244 H 0.19543 0.16116 0.28136 0.0
H1245 H 0.16977 0.16073 0.20941 0.0
C1246 C 0.1591 0.12321 0.21348 0.0
C1247 C 0.16152 0.10222 0.22644 0.0
C1248 C 0.2025 0.17311 0.26896 0.0
C1249 C 0.18649 0.14504 0.23883 0.0
C1250 C 0.2148 0.19447 0.27566 0.0
C1251 C 0.22437 0.20991 0.25982 0.0
C1252 C 0.19926 0.16758 0.2463 0.0
C1253 C 0.22076 0.20372 0.23731 0.0
C1254 C 0.17187 0.14457 0.21944 0.0
C1255 C 0.17699 0.10325 0.24527 0.0
N1256 N 0.20828 0.18307 0.23116 0.0
N1257 N 0.18867 0.12443 0.25108 0.0
H1258 H 0.35199 0.91171 0.5531 0.0
H1259 H 0.43011 0.02329 0.50876 0.0
H1260 H 0.32411 0.98357 0.53959 0.0
H1261 H 0.46046 0.95423 0.52838 0.0
H1262 H 0.39075 0.0082 0.5188 0.0
H1263 H 0.39199 0.9267 0.5445 0.0
C1264 C 0.35431 0.93072 0.54869 0.0
C1265 C 0.33461 0.94635 0.54692 0.0
C1266 C 0.40601 -0.0037 0.52083 0.0
C1267 C 0.38017 0.96344 0.53665 0.0
C1268 C 0.42846 0.00484 0.51491 0.0
C1269 C 0.44861 0.99002 0.51774 0.0
C1270 C 0.40366 0.97275 0.52962 0.0
C1271 C 0.4454 0.96631 0.52593 0.0
C1272 C 0.37711 0.93921 0.54361 0.0
C1273 C 0.3387 0.97078 0.54103 0.0
N1274 N 0.42336 0.95844 0.53165 0.0
N1275 N 0.36095 0.97849 0.53593 0.0
H1276 H 0.82501 0.55043 0.22068 0.0
H1277 H 0.78764 0.65459 0.30559 0.0
H1278 H 0.8654 0.56582 0.28164 0.0
H1279 H 0.78124 0.66386 0.23481 0.0
H1280 H 0.80666 0.61497 0.29951 0.0
H1281 H 0.79936 0.58542 0.22845 0.0
C1282 C 0.82823 0.56095 0.23585 0.0
C1283 C 0.84741 0.55541 0.2505 0.0
C1284 C 0.80077 0.6256 0.28536 0.0
C1285 C 0.81806 0.59495 0.25953 0.0
C1286 C 0.78982 0.64807 0.28878 0.0
C1287 C 0.78302 0.66252 0.27064 0.0
C1288 C 0.80442 0.61737 0.26369 0.0
C1289 C 0.7864 0.65331 0.24922 0.0
C1290 C 0.81369 0.58089 0.24018 0.0
C1291 C 0.85091 0.56965 0.26986 0.0
N1292 N 0.79688 0.63126 0.2463 0.0
N1293 N 0.83632 0.5888 0.27386 0.0
H1294 H 0.71148 0.46669 0.74987 0.0
H1295 H 0.71631 0.32505 0.71903 0.0
H1296 H 0.64903 0.42361 0.72957 0.0
H1297 H 0.76361 0.35661 0.77019 0.0
H1298 H 0.69615 0.36427 0.71566 0.0
H1299 H 0.73504 0.42897 0.75142 0.0
C1300 C 0.70275 0.44932 0.7458 0.0
C1301 C 0.67828 0.44818 0.73969 0.0
C1302 C 0.71108 0.36262 0.72749 0.0
C1303 C 0.70508 0.40544 0.74087 0.0
C1304 C 0.72273 0.34033 0.72931 0.0
C1305 C 0.74156 0.33752 0.74504 0.0
C1306 C 0.71852 0.38236 0.74124 0.0
C1307 C 0.74906 0.35798 0.75795 0.0
C1308 C 0.71616 0.42791 0.74668 0.0
C1309 C 0.66781 0.42527 0.73453 0.0
N1310 N 0.73747 0.37961 0.7558 0.0
N1311 N 0.68132 0.40482 0.73505 0.0
H1312 H 0.01443 0.90397 0.86067 0.0
H1313 H 0.98138 0.97145 0.97317 0.0
H1314 H 0.97979 0.86761 0.91403 0.0
H1315 H 0.03709 -0.00291 0.93126 0.0
H1316 H 0.97454 0.93629 0.94829 0.0
H1317 H 0.01585 0.94186 0.8828 0.0
C1318 C 0.00672 0.90408 0.87685 0.0
C1319 C -0.00279 0.88261 0.88568 0.0
C1320 C 0.98826 0.94962 0.94457 0.0
C1321 C -0.00108 0.92562 0.91095 0.0
C1322 C -0.00778 0.96964 0.95876 0.0
C1323 C 0.00998 0.98706 0.95433 0.0
C1324 C 0.00196 0.94718 0.92571 0.0
C1325 C 0.02341 0.9839 0.93538 0.0
C1326 C 0.00774 0.92561 0.88951 0.0
C1327 C 0.98753 0.88371 0.90674 0.0
N1328 N 0.01908 0.96432 0.92169 0.0
N1329 N -0.01125 0.90486 0.91873 0.0
H1330 H 0.93235 0.25092 0.66099 0.0
H1331 H 0.85155 0.27205 0.76541 0.0
H1332 H 0.95096 0.2249 0.72644 0.0
H1333 H 0.81994 0.26403 0.69938 0.0
H1334 H 0.89077 0.26358 0.75073 0.0
H1335 H 0.89322 0.26356 0.6743 0.0
C1336 C 0.92822 0.24787 0.67811 0.0
C1337 C 0.94489 0.23669 0.69259 0.0
C1338 C 0.87527 0.26388 0.73944 0.0
C1339 C 0.9006 0.25157 0.70792 0.0
C1340 C 0.85288 0.2689 0.74777 0.0
C1341 C 0.83237 0.26863 0.73362 0.0
C1342 C 0.87731 0.25888 0.71675 0.0
C1343 C 0.83526 0.2643 0.71089 0.0
C1344 C 0.90594 0.25506 0.68565 0.0
C1345 C 0.93862 0.23323 0.71463 0.0
N1346 N 0.85734 0.25957 0.70313 0.0
N1347 N 0.91708 0.24079 0.72164 0.0
H1348 H 0.49924 0.21392 0.36963 0.0
H1349 H 0.53414 0.14781 0.481 0.0
H1350 H 0.53304 0.25442 0.42441 0.0
H1351 H 0.46914 0.12988 0.44278 0.0
H1352 H 0.53949 0.18386 0.45833 0.0
H1353 H 0.49493 0.1787 0.39357 0.0
C1354 C 0.50611 0.21529 0.38661 0.0
C1355 C 0.51647 0.23713 0.39511 0.0
C1356 C 0.52402 0.17203 0.45509 0.0
C1357 C 0.51149 0.19696 0.42245 0.0
C1358 C 0.52074 0.15154 0.46813 0.0
C1359 C 0.50106 0.13562 0.4639 0.0
C1360 C 0.50786 0.17633 0.43738 0.0
C1361 C 0.48481 0.14124 0.44647 0.0
C1362 C 0.5034 0.19527 0.40027 0.0
C1363 C 0.52491 0.23791 0.41727 0.0
N1364 N 0.48871 0.16101 0.4337 0.0
N1365 N 0.52227 0.21801 0.43025 0.0
H1366 H 0.60728 0.73939 0.16068 0.0
H1367 H 0.67378 0.7272 0.28003 0.0
H1368 H 0.56967 0.74122 0.22176 0.0
H1369 H 0.70969 0.73046 0.2181 0.0
H1370 H 0.63512 0.72949 0.25938 0.0
H1371 H 0.64477 0.73384 0.18185 0.0
C1372 C 0.60691 0.73866 0.17857 0.0
C1373 C 0.5853 0.74085 0.18945 0.0
C1374 C 0.6515 0.72956 0.25037 0.0
C1375 C 0.62828 0.73438 0.21392 0.0
C1376 C 0.67354 0.72812 0.26213 0.0
C1377 C 0.69501 0.72877 0.25081 0.0
C1378 C 0.65103 0.73155 0.22716 0.0
C1379 C 0.69364 0.73009 0.2276 0.0
C1380 C 0.62834 0.73545 0.19069 0.0
C1381 C 0.58594 0.7397 0.21269 0.0
N1382 N 0.67211 0.73151 0.21661 0.0
N1383 N 0.60709 0.73656 0.22417 0.0
H1384 H 0.01809 0.1312 0.64385 0.0
H1385 H 0.02841 0.08513 0.51795 0.0
H1386 H 0.01654 0.18111 0.58907 0.0
H1387 H 0.02268 0.03802 0.57432 0.0
H1388 H 0.02635 0.12091 0.54305 0.0
H1389 H 0.02145 0.0972 0.61794 0.0
C1390 C 0.01837 0.13506 0.62633 0.0
C1391 C 0.01699 0.15915 0.61869 0.0
C1392 C 0.02563 0.1027 0.54984 0.0
C1393 C 0.02102 0.11995 0.58865 0.0
C1394 C 0.02695 0.0823 0.53555 0.0
C1395 C 0.02564 0.05853 0.544 0.0
C1396 C 0.02314 0.09918 0.57267 0.0
C1397 C 0.02361 0.05594 0.56695 0.0
C1398 C 0.02032 0.11555 0.61147 0.0
C1399 C 0.01745 0.16285 0.59571 0.0
N1400 N 0.0224 0.07592 0.58038 0.0
N1401 N 0.01949 0.14345 0.58148 0.0
H1402 H 0.55199 0.30501 0.28645 0.0
H1403 H 0.68968 0.3212 0.30898 0.0
H1404 H 0.58335 0.34074 0.34495 0.0
H1405 H 0.65938 0.30506 0.24343 0.0
H1406 H 0.6508 0.33418 0.32035 0.0
H1407 H 0.59024 0.30962 0.26839 0.0
C1408 C 0.56681 0.31413 0.29536 0.0
C1409 C 0.56475 0.32193 0.3174 0.0
C1410 C 0.65267 0.3282 0.30335 0.0
C1411 C 0.60833 0.32725 0.29697 0.0
C1412 C 0.67506 0.32092 0.29672 0.0
C1413 C 0.67788 0.31144 0.27527 0.0
C1414 C 0.63276 0.32546 0.28865 0.0
C1415 C 0.65793 0.31136 0.26038 0.0
C1416 C 0.58858 0.31686 0.28503 0.0
C1417 C 0.58433 0.33394 0.32811 0.0
N1418 N 0.63606 0.31771 0.26749 0.0
N1419 N 0.60542 0.33588 0.3179 0.0
H1420 H 0.51132 0.83726 0.1415 0.0
H1421 H 0.501 0.89753 0.02136 0.0
H1422 H 0.51284 0.79496 0.08073 0.0
H1423 H 0.50855 0.93887 0.08268 0.0
H1424 H 0.50266 0.85958 0.04253 0.0
H1425 H 0.50786 0.87452 0.11992 0.0
C1426 C 0.51093 0.8358 0.12359 0.0
C1427 C 0.51243 0.81294 0.11291 0.0
C1428 C 0.5039 0.87698 0.05132 0.0
C1429 C 0.50839 0.85565 0.08802 0.0
C1430 C 0.50286 0.89864 0.03926 0.0
C1431 C 0.50468 0.92143 0.05025 0.0
C1432 C 0.50665 0.87814 0.07453 0.0
C1433 C 0.50715 0.92175 0.07347 0.0
C1434 C 0.50896 0.85711 0.11126 0.0
C1435 C 0.5118 0.81221 0.08965 0.0
N1436 N 0.50807 0.90048 0.08479 0.0
N1437 N 0.50981 0.83325 0.07797 0.0
H1438 H 0.94524 0.76972 0.79986 0.0
H1439 H 0.82085 0.74838 0.8408 0.0
H1440 H 0.9346 0.77502 0.87014 0.0
H1441 H 0.847 0.70545 0.78654 0.0
H1442 H 0.86192 0.75394 0.85523 0.0
H1443 H 0.90883 0.74459 0.79566 0.0
C1444 C 0.93517 0.76564 0.81436 0.0
C1445 C 0.94263 0.7747 0.83528 0.0
C1446 C 0.85858 0.74249 0.84064 0.0
C1447 C 0.90131 0.74586 0.83073 0.0
C1448 C 0.83508 0.7391 0.8325 0.0
C1449 C 0.83076 0.72747 0.81188 0.0
C1450 C 0.87745 0.73437 0.82783 0.0
C1451 C 0.84978 0.71543 0.80206 0.0
C1452 C 0.91468 0.75096 0.81206 0.0
C1453 C 0.92924 0.76851 0.85367 0.0
N1454 N 0.87253 0.72005 0.80961 0.0
N1455 N 0.90891 0.75481 0.85092 0.0
H1456 H 0.98042 0.04586 0.82515 0.0
H1457 H 0.94482 0.07079 0.94677 0.0
H1458 H 0.90647 0.05016 0.84299 0.0
H1459 H 0.01383 0.09142 0.92255 0.0
H1460 H 0.92894 0.06818 0.90862 0.0
H1461 H -0.00765 0.0658 0.86028 0.0
C1462 C 0.9667 0.05109 0.83643 0.0
C1463 C 0.94247 0.046 0.83133 0.0
C1464 C 0.9474 0.0739 0.91169 0.0
C1465 C 0.95595 0.06884 0.87151 0.0
C1466 C 0.95645 0.07552 0.93349 0.0
C1467 C 0.98087 0.08058 0.93778 0.0
C1468 C 0.963 0.07707 0.89423 0.0
C1469 C -0.00497 0.08682 0.91995 0.0
C1470 C 0.97348 0.0627 0.85639 0.0
C1471 C 0.92539 0.05353 0.84639 0.0
N1472 N 0.98605 0.08425 0.8989 0.0
N1473 N 0.93248 0.06423 0.86599 0.0
H1474 H 0.7616 0.17673 0.5403 0.0
H1475 H 0.73939 0.17356 0.66962 0.0
H1476 H 0.74815 0.11008 0.57561 0.0
H1477 H 0.73194 0.23924 0.63109 0.0
H1478 H 0.74452 0.15016 0.63565 0.0
H1479 H 0.75399 0.20027 0.574 0.0
C1480 C 0.75724 0.16704 0.55516 0.0
C1481 C 0.75552 0.14139 0.55514 0.0
C1482 C 0.74156 0.16967 0.63461 0.0
C1483 C 0.74667 0.16819 0.59362 0.0
C1484 C 0.73836 0.18307 0.65401 0.0
C1485 C 0.73518 0.20851 0.65331 0.0
C1486 C 0.74189 0.18176 0.6143 0.0
C1487 C 0.73469 0.21976 0.63252 0.0
C1488 C 0.75271 0.18049 0.57432 0.0
C1489 C 0.74962 0.12982 0.57484 0.0
N1490 N 0.73821 0.20634 0.61386 0.0
N1491 N 0.74547 0.1433 0.59329 0.0
H1492 H 0.61895 0.97648 0.36305 0.0
H1493 H 0.55888 0.96537 0.46214 0.0
H1494 H 0.55787 0.01862 0.34104 0.0
H1495 H 0.51627 0.02487 0.43684 0.0
H1496 H 0.57662 0.96098 0.42597 0.0
H1497 H 0.60075 0.9715 0.39887 0.0
C1498 C 0.60164 0.9845 0.36568 0.0
C1499 C 0.59002 -0.0019 0.34902 0.0
C1500 C 0.56352 0.97509 0.42831 0.0
C1501 C 0.56868 0.99196 0.38978 0.0
C1502 C 0.55309 0.97734 0.4489 0.0
C1503 C 0.53629 -0.00428 0.45258 0.0
C1504 C 0.55708 0.99141 0.41138 0.0
C1505 C 0.52935 0.01064 0.43484 0.0
C1506 C 0.59107 0.98142 0.3861 0.0
C1507 C 0.56763 0.00809 0.35336 0.0
N1508 N 0.53988 0.00823 0.4151 0.0
N1509 N 0.55782 0.00492 0.37329 0.0
H1510 H 0.80784 0.85869 0.0881 0.0
H1511 H 0.80491 0.73564 0.15622 0.0
H1512 H 0.77192 0.79237 0.06468 0.0
H1513 H 0.81475 0.80864 0.18385 0.0
H1514 H 0.80741 0.75261 0.11913 0.0
H1515 H 0.8259 0.83608 0.11883 0.0
C1516 C 0.80416 0.83924 0.08914 0.0
C1517 C 0.78776 0.82751 0.07427 0.0
C1518 C 0.80958 0.7647 0.13343 0.0
C1519 C 0.80822 0.80169 0.10939 0.0
C1520 C 0.80792 0.75512 0.15462 0.0
C1521 C 0.80886 0.77077 0.17333 0.0
C1522 C 0.81254 0.79001 0.13099 0.0
C1523 C 0.81382 0.79571 0.17013 0.0
C1524 C 0.81448 0.82637 0.10668 0.0
C1525 C 0.78406 0.8022 0.07611 0.0
N1526 N 0.81512 0.80457 0.14938 0.0
N1527 N 0.79381 0.79018 0.09372 0.0
H1528 H 0.94488 0.03293 0.71517 0.0
H1529 H 0.94648 0.94082 0.61154 0.0
H1530 H 0.88526 0.98483 0.69715 0.0
H1531 H -0.00606 0.00346 0.6209 0.0
H1532 H 0.92566 0.9535 0.64476 0.0
H1533 H 0.96501 0.01932 0.68222 0.0
C1534 C 0.93596 0.01961 0.70416 0.0
C1535 C 0.91338 0.01002 0.70883 0.0
C1536 C 0.94075 0.96429 0.63952 0.0
C1537 C 0.93643 -0.00589 0.67123 0.0
C1538 C 0.95265 0.95708 0.6206 0.0
C1539 C 0.9722 0.9709 0.61347 0.0
C1540 C 0.94856 0.98538 0.65136 0.0
C1541 C 0.97945 0.99175 0.62597 0.0
C1542 C 0.94747 0.01181 0.68537 0.0
C1543 C 0.90263 0.99277 0.69405 0.0
N1544 N 0.96765 -0.0017 0.64424 0.0
N1545 N 0.91434 0.98521 0.67591 0.0
H1546 H 0.76502 0.2021 0.43999 0.0
H1547 H 0.83082 0.21539 0.32572 0.0
H1548 H 0.81452 0.14982 0.4143 0.0
H1549 H 0.763 0.2492 0.33782 0.0
H1550 H 0.83222 0.20041 0.3635 0.0
H1551 H 0.77114 0.22777 0.40758 0.0
C1552 C 0.77749 0.19626 0.42774 0.0
C1553 C 0.78911 0.17372 0.42963 0.0
C1554 C 0.8172 0.21141 0.35799 0.0
C1555 C 0.7963 0.20294 0.3929 0.0
C1556 C 0.81638 0.22004 0.33643 0.0
C1557 C 0.79649 0.23315 0.32845 0.0
C1558 C 0.79804 0.21593 0.37173 0.0
C1559 C 0.77852 0.2389 0.34323 0.0
C1560 C 0.78088 0.21085 0.40928 0.0
C1561 C 0.80502 0.16695 0.41332 0.0
N1562 N 0.77955 0.22995 0.36414 0.0
N1563 N 0.80808 0.18146 0.39559 0.0
H1564 H 0.57594 0.99086 0.2397 0.0
H1565 H 0.58593 0.02081 0.11173 0.0
H1566 H 0.64297 0.9929 0.20643 0.0
H1567 H 0.52045 0.02719 0.14703 0.0
H1568 H 0.60745 0.01247 0.14647 0.0
H1569 H 0.55539 0.00425 0.20581 0.0
C1570 C 0.58632 -0.00605 0.22519 0.0
C1571 C 0.6112 0.99073 0.22585 0.0
C1572 C 0.58843 0.01598 0.14668 0.0
C1573 C 0.5878 0.00632 0.18707 0.0
C1574 C 0.57613 0.02107 0.12686 0.0
C1575 C 0.55127 0.02464 0.12643 0.0
C1576 C 0.57578 0.01424 0.16621 0.0
C1577 C 0.53954 0.02418 0.14654 0.0
C1578 C 0.57459 0.00178 0.2059 0.0
C1579 C 0.62375 -0.0049 0.20661 0.0
N1580 N 0.55186 0.01881 0.1656 0.0
N1581 N 0.61189 0.00268 0.18796 0.0
H1582 H 0.71126 0.81861 0.97657 0.0
H1583 H 0.71818 0.84009 0.85205 0.0
H1584 H 0.68931 0.88731 0.94838 0.0
H1585 H 0.69823 0.76831 0.87513 0.0
H1586 H 0.70637 0.85763 0.88678 0.0
H1587 H 0.70584 0.79915 0.94 0.0
C1588 C 0.705 0.82951 0.96273 0.0
C1589 C 0.70114 0.85468 0.96537 0.0
C1590 C 0.70414 0.83808 0.88407 0.0
C1591 C 0.69514 0.83264 0.92366 0.0
C1592 C 0.71076 0.82791 0.86404 0.0
C1593 C 0.70957 0.80242 0.86044 0.0
C1594 C 0.69694 0.82273 0.90099 0.0
C1595 C 0.70029 0.78791 0.87725 0.0
C1596 C 0.70172 0.81836 0.94195 0.0
C1597 C 0.6927 0.8679 0.94701 0.0
N1598 N 0.69486 0.7982 0.89702 0.0
N1599 N 0.69049 0.85682 0.92678 0.0
H1600 H 0.7685 0.97671 0.01246 0.0
H1601 H 0.90964 0.96924 0.00028 0.0
H1602 H 0.80689 0.9087 0.0093 0.0
H1603 H 0.87525 0.03297 0.02701 0.0
H1604 H 0.87102 0.94828 -0.00266 0.0
H1605 H 0.80656 -0.00089 0.01097 0.0
C1606 C 0.78489 0.96649 0.01114 0.0
C1607 C 0.7846 0.9408 0.01116 0.0
C1608 C 0.87194 0.96683 0.00389 0.0
C1609 C 0.82797 0.96627 0.00951 0.0
C1610 C 0.89401 0.97877 0.00579 0.0
C1611 C 0.89579 0.00278 0.01434 0.0
C1612 C 0.85137 0.97901 0.01033 0.0
C1613 C 0.87472 0.01448 0.02035 0.0
C1614 C 0.80656 0.97929 0.01046 0.0
C1615 C 0.80633 0.9285 0.00952 0.0
N1616 N 0.85333 0.00243 0.01828 0.0
N1617 N 0.82717 0.94137 0.00881 0.0
H1618 H 0.32436 0.53635 0.02476 0.0
H1619 H 0.45559 0.54438 0.97651 0.0
H1620 H 0.34651 0.59329 0.98077 0.0
H1621 H 0.43415 0.49252 0.02551 0.0
H1622 H 0.41496 0.56075 0.97541 0.0
H1623 H 0.36402 0.51868 0.02327 0.0
C1624 C 0.33758 0.5452 0.01481 0.0
C1625 C 0.33208 0.56639 0.00291 0.0
C1626 C 0.41916 0.5457 0.9863 0.0
C1627 C 0.37762 0.54609 0.00104 0.0
C1628 C 0.44229 0.53627 0.98685 0.0
C1629 C 0.44828 0.51714 0.0012 0.0
C1630 C 0.40197 0.53585 0.00015 0.0
C1631 C 0.43038 0.50736 0.01427 0.0
C1632 C 0.36025 0.53505 0.01395 0.0
C1633 C 0.34998 0.577 0.99029 0.0
N1634 N 0.40809 0.51689 0.01349 0.0
N1635 N 0.37197 0.56671 0.98967 0.0
H1636 H 0.21004 0.54355 0.78138 0.0
H1637 H 0.21719 0.68724 0.75869 0.0
H1638 H 0.14877 0.5884 0.76575 0.0
H1639 H 0.27977 0.64164 0.76107 0.0
H1640 H 0.19214 0.65114 0.76347 0.0
H1641 H 0.23621 0.57931 0.77658 0.0
C1642 C 0.20208 0.56089 0.77707 0.0
C1643 C 0.17715 0.56295 0.77394 0.0
C1644 C 0.21133 0.64894 0.76286 0.0
C1645 C 0.20693 0.60379 0.7684 0.0
C1646 C 0.22568 0.66958 0.76013 0.0
C1647 C 0.25063 0.66746 0.75947 0.0
C1648 C 0.22194 0.62591 0.76513 0.0
C1649 C 0.26059 0.64408 0.76141 0.0
C1650 C 0.21703 0.58124 0.77422 0.0
C1651 C 0.16785 0.58586 0.76827 0.0
N1652 N 0.2462 0.62418 0.76427 0.0
N1653 N 0.18272 0.60533 0.76571 0.0
H1654 H 0.15261 0.37733 0.55519 0.0
H1655 H 0.07899 0.50067 0.5474 0.0
H1656 H 0.18316 0.44681 0.57719 0.0
H1657 H 0.06576 0.43808 0.50407 0.0
H1658 H 0.11471 0.48069 0.56283 0.0
H1659 H 0.11614 0.39822 0.54304 0.0
C1660 C 0.15134 0.39686 0.55815 0.0
C1661 C 0.17093 0.41046 0.56703 0.0
C1662 C 0.10412 0.47153 0.54975 0.0
C1663 C 0.1297 0.43439 0.55269 0.0
C1664 C 0.08394 0.48299 0.54077 0.0
C1665 C 0.06947 0.47098 0.52443 0.0
C1666 C 0.10951 0.4478 0.54257 0.0
C1667 C 0.07653 0.44804 0.51653 0.0
C1668 C 0.13072 0.4088 0.55084 0.0
C1669 C 0.16841 0.43575 0.5703 0.0
N1670 N 0.0959 0.437 0.52593 0.0
N1671 N 0.14822 0.44701 0.5629 0.0
H1672 H 0.85006 0.95086 0.8051 0.0
H1673 H 0.8536 0.81288 0.76371 0.0
H1674 H 0.91253 0.91802 0.77767 0.0
H1675 H 0.79794 0.8408 0.80444 0.0
H1676 H 0.87639 0.85077 0.77044 0.0
H1677 H 0.83171 0.91026 0.80736 0.0
C1678 C 0.86006 0.93509 0.79984 0.0
C1679 C 0.88272 0.93789 0.79086 0.0
C1680 C 0.8593 0.84853 0.77809 0.0
C1681 C 0.86171 0.89145 0.79317 0.0
C1682 C 0.84623 0.82696 0.77416 0.0
C1683 C 0.82373 0.82385 0.78332 0.0
C1684 C 0.84966 0.86725 0.79104 0.0
C1685 C 0.81516 0.84254 0.79694 0.0
C1686 C 0.84957 0.91191 0.80114 0.0
C1687 C 0.89493 0.91678 0.78451 0.0
N1688 N 0.82802 0.8636 0.80018 0.0
N1689 N 0.88412 0.89448 0.78547 0.0
H1690 H 0.67922 0.1275 0.47373 0.0
H1691 H 0.60784 0.01242 0.52016 0.0
H1692 H 0.70978 0.0557 0.48068 0.0
H1693 H 0.57685 0.08355 0.50975 0.0
H1694 H 0.64609 0.02839 0.50779 0.0
H1695 H 0.64165 0.11167 0.4874 0.0
C1696 C 0.67794 0.10833 0.4779 0.0
C1697 C 0.69767 0.09292 0.47615 0.0
C1698 C 0.63095 0.04053 0.50839 0.0
C1699 C 0.65485 0.07474 0.49216 0.0
C1700 C 0.60919 0.03149 0.51566 0.0
C1701 C 0.58911 0.04665 0.51589 0.0
C1702 C 0.6326 0.06487 0.50135 0.0
C1703 C 0.59183 0.07116 0.50973 0.0
C1704 C 0.65653 0.09932 0.48585 0.0
C1705 C 0.695 0.06823 0.48179 0.0
N1706 N 0.61312 0.07946 0.50258 0.0
N1707 N 0.67401 0.05993 0.48968 0.0
H1708 H 0.16341 0.39858 0.81483 0.0
H1709 H 0.2602 0.31388 0.76005 0.0
H1710 H 0.21802 0.42725 0.77333 0.0
H1711 H 0.22041 0.29212 0.81657 0.0
H1712 H 0.24455 0.35531 0.76391 0.0
H1713 H 0.18364 0.35918 0.8152 0.0
C1714 C 0.1798 0.39664 0.80596 0.0
C1715 C 0.18901 0.41618 0.79397 0.0
C1716 C 0.23943 0.3415 0.77557 0.0
C1717 C 0.21207 0.37104 0.79406 0.0
C1718 C 0.24829 0.31784 0.77334 0.0
C1719 C 0.2415 0.29947 0.78793 0.0
C1720 C 0.22342 0.34674 0.79233 0.0
C1721 C 0.22609 0.30567 0.80491 0.0
C1722 C 0.19135 0.37416 0.8062 0.0
C1723 C 0.21032 0.41266 0.78281 0.0
N1724 N 0.2174 0.32871 0.8065 0.0
N1725 N 0.22099 0.39043 0.78291 0.0
H1726 H 0.36819 0.60656 0.3044 0.0
H1727 H 0.30065 0.71019 0.31091 0.0
H1728 H 0.30899 0.57403 0.26615 0.0
H1729 H 0.27153 0.68559 0.2471 0.0
H1730 H 0.31612 0.66929 0.31733 0.0
H1731 H 0.34682 0.64492 0.30583 0.0
C1732 C 0.35047 0.60744 0.29658 0.0
C1733 C 0.34033 0.58718 0.28508 0.0
C1734 C 0.3065 0.67289 0.30186 0.0
C1735 C 0.3155 0.63102 0.28694 0.0
C1736 C 0.29752 0.69619 0.29823 0.0
C1737 C 0.28527 0.70144 0.27822 0.0
C1738 C 0.3034 0.65478 0.28526 0.0
C1739 C 0.28125 0.68242 0.26261 0.0
C1740 C 0.33812 0.62929 0.29763 0.0
C1741 C 0.31733 0.58928 0.27524 0.0
N1742 N 0.2905 0.65991 0.26639 0.0
N1743 N 0.3058 0.61104 0.27606 0.0
H1744 H 0.57605 0.70524 0.59741 0.0
H1745 H 0.50785 0.58238 0.56544 0.0
H1746 H 0.57161 0.64565 0.64317 0.0
H1747 H 0.54946 0.6198 0.51724 0.0
H1748 H 0.52465 0.61027 0.59426 0.0
H1749 H 0.56197 0.67756 0.56728 0.0
C1750 C 0.57267 0.68614 0.60092 0.0
C1751 C 0.57508 0.67749 0.6226 0.0
C1752 C 0.52986 0.61245 0.57731 0.0
C1753 C 0.55804 0.64639 0.58878 0.0
C1754 C 0.51997 0.59691 0.56086 0.0
C1755 C 0.52723 0.59901 0.53903 0.0
C1756 C 0.54667 0.63035 0.57168 0.0
C1757 C 0.54339 0.61775 0.53394 0.0
C1758 C 0.56451 0.67049 0.58386 0.0
C1759 C 0.57023 0.65279 0.62655 0.0
N1760 N 0.5526 0.63282 0.5502 0.0
N1761 N 0.56144 0.6381 0.60979 0.0
H1762 H 0.61659 0.24537 0.88201 0.0
H1763 H 0.67526 0.24444 0.76282 0.0
H1764 H 0.57613 0.23066 0.82093 0.0
H1765 H 0.7127 0.26728 0.82358 0.0
H1766 H 0.63912 0.23733 0.78375 0.0
H1767 H 0.65262 0.25102 0.86084 0.0
C1768 C 0.6153 0.2432 0.86416 0.0
C1769 C 0.5933 0.23761 0.85323 0.0
C1770 C 0.65526 0.24394 0.79245 0.0
C1771 C 0.63447 0.24414 0.82884 0.0
C1772 C 0.67587 0.24803 0.78051 0.0
C1773 C 0.69704 0.25653 0.79143 0.0
C1774 C 0.65588 0.24825 0.81547 0.0
C1775 C 0.69681 0.26079 0.81441 0.0
C1776 C 0.63587 0.24651 0.85205 0.0
C1777 C 0.59271 0.23502 0.83004 0.0
N1778 N 0.67661 0.25657 0.82562 0.0
N1779 N 0.61297 0.23834 0.81862 0.0
H1780 H 0.0031 0.27403 0.10607 0.0
H1781 H 0.07082 0.39149 0.07809 0.0
H1782 H 0.03092 0.32182 0.15862 0.0
H1783 H 0.00103 0.38112 0.04565 0.0
H1784 H 0.06051 0.36013 0.10453 0.0
H1785 H 0.00393 0.3086 0.08054 0.0
C1786 C 0.00859 0.29196 0.11238 0.0
C1787 C 0.0171 0.29514 0.13439 0.0
C1788 C 0.04755 0.36485 0.09155 0.0
C1789 C 0.01907 0.33395 0.10532 0.0
C1790 C 0.05338 0.38271 0.07642 0.0
C1791 C 0.0367 0.38936 0.05967 0.0
C1792 C 0.02519 0.35303 0.08959 0.0
C1793 C 0.01466 0.37652 0.05802 0.0
C1794 C 0.0092 0.31153 0.09782 0.0
C1795 C 0.02419 0.31864 0.14177 0.0
N1796 N 0.00957 0.35882 0.07276 0.0
N1797 N 0.02572 0.33706 0.12707 0.0
H1798 H 0.96157 0.76455 0.31297 0.0
H1799 H 0.82729 0.72807 0.34214 0.0
H1800 H 0.94489 0.72636 0.37268 0.0
H1801 H 0.84799 0.76094 0.28105 0.0
H1802 H 0.86951 0.72914 0.35517 0.0
H1803 H 0.91932 0.76482 0.30237 0.0
C1804 C 0.94902 0.75614 0.32388 0.0
C1805 C 0.95688 0.74537 0.34375 0.0
C1806 C 0.86471 0.73619 0.33896 0.0
C1807 C 0.90807 0.74568 0.33164 0.0
C1808 C 0.84064 0.73569 0.33158 0.0
C1809 C 0.83414 0.74432 0.31044 0.0
C1810 C 0.88222 0.74549 0.32512 0.0
C1811 C 0.85214 0.75393 0.2974 0.0
C1812 C 0.9248 0.75632 0.3178 0.0
C1813 C 0.93964 0.73479 0.35717 0.0
N1814 N 0.87528 0.75419 0.30493 0.0
N1815 N 0.91599 0.73522 0.35087 0.0
H1816 H 0.51494 0.30018 0.94369 0.0
H1817 H 0.51994 0.44688 0.94555 0.0
H1818 H 0.53358 0.34471 0.88825 0.0
H1819 H 0.50616 0.40454 0.00362 0.0
H1820 H 0.52253 0.40911 0.92405 0.0
H1821 H 0.50992 0.33765 0.96584 0.0
C1822 C 0.51804 0.31777 0.93619 0.0
C1823 C 0.52473 0.31923 0.91405 0.0
C1824 C 0.51885 0.408 0.94147 0.0
C1825 C 0.51883 0.36209 0.93922 0.0
C1826 C 0.51729 0.42962 0.95378 0.0
C1827 C 0.51291 0.42892 0.97648 0.0
C1828 C 0.51607 0.38535 0.95186 0.0
C1829 C 0.50958 0.40595 0.98617 0.0
C1830 C 0.51512 0.33913 0.94882 0.0
C1831 C 0.52844 0.34255 0.90522 0.0
N1832 N 0.51133 0.38505 0.97382 0.0
N1833 N 0.52542 0.36296 0.91779 0.0
H1834 H -0.00425 0.17845 0.18073 0.0
H1835 H 0.91073 0.16986 0.28039 0.0
H1836 H 0.02112 0.18243 0.24896 0.0
H1837 H 0.88826 0.16251 0.21144 0.0
H1838 H 0.95202 0.16283 0.27023 0.0
H1839 H 0.958 0.16122 0.19232 0.0
C1840 C -0.00666 0.17548 0.1982 0.0
C1841 C 0.01115 0.18245 0.21402 0.0
C1842 C 0.93795 0.1621 0.25742 0.0
C1843 C 0.96785 0.16319 0.22752 0.0
C1844 C 0.91438 0.16621 0.26319 0.0
C1845 C 0.89613 0.16769 0.24664 0.0
C1846 C 0.94317 0.15959 0.23497 0.0
C1847 C 0.90171 0.16191 0.22477 0.0
C1848 C 0.97185 0.16549 0.20484 0.0
C1849 C 0.00754 0.17762 0.23636 0.0
N1850 N 0.92482 0.15868 0.21952 0.0
N1851 N 0.98597 0.16882 0.24255 0.0
H1852 H 0.00794 0.64056 0.39788 0.0
H1853 H 0.00695 0.57651 0.51647 0.0
H1854 H 0.02542 0.67923 0.45922 0.0
H1855 H -0.00187 0.53739 0.45408 0.0
H1856 H 0.01161 0.61472 0.49622 0.0
H1857 H 0.0021 0.60309 0.41859 0.0
C1858 C 0.01052 0.6412 0.41573 0.0
C1859 C 0.01723 0.66311 0.42681 0.0
C1860 C 0.00863 0.59777 0.48699 0.0
C1861 C 0.01053 0.62009 0.45073 0.0
C1862 C 0.00591 0.57594 0.49853 0.0
C1863 C 0.00215 0.55365 0.48698 0.0
C1864 C 0.00747 0.59736 0.46371 0.0
C1865 C 0.00103 0.55408 0.46373 0.0
C1866 C 0.00721 0.61975 0.42757 0.0
C1867 C 0.0203 0.66276 0.44999 0.0
N1868 N 0.00366 0.57553 0.4529 0.0
N1869 N 0.01692 0.6416 0.46118 0.0
H1870 H 0.63969 0.77265 0.64813 0.0
H1871 H 0.72159 0.81941 0.74946 0.0
H1872 H 0.61678 0.78996 0.71387 0.0
H1873 H 0.74743 0.77893 0.6936 0.0
H1874 H 0.68418 0.82654 0.72865 0.0
H1875 H 0.67897 0.79107 0.65788 0.0
C1876 C 0.6428 0.78075 0.66446 0.0
C1877 C 0.62537 0.77919 0.68051 0.0
C1878 C 0.6983 0.81671 0.7207 0.0
C1879 C 0.66971 0.80057 0.69147 0.0
C1880 C 0.71964 0.81267 0.73254 0.0
C1881 C 0.73709 0.79776 0.72346 0.0
C1882 C 0.69438 0.80535 0.69991 0.0
C1883 C 0.73406 0.79002 0.70132 0.0
C1884 C 0.66511 0.79133 0.66994 0.0
C1885 C 0.63005 0.7902 0.70127 0.0
N1886 N 0.71266 0.79325 0.69045 0.0
N1887 N 0.65192 0.80019 0.70625 0.0
H1888 H 0.56883 0.49708 0.67296 0.0
H1889 H 0.59001 0.51209 0.54401 0.0
H1890 H 0.63832 0.50918 0.64592 0.0
H1891 H 0.52075 0.49819 0.57099 0.0
H1892 H 0.60867 0.50584 0.58062 0.0
H1893 H 0.55151 0.49286 0.63537 0.0
C1894 C 0.58047 0.49874 0.6591 0.0
C1895 C 0.60501 0.50377 0.66256 0.0
C1896 C 0.58942 0.50382 0.57848 0.0
C1897 C 0.58531 0.49896 0.61948 0.0
C1898 C 0.57874 0.50728 0.55754 0.0
C1899 C 0.55373 0.50594 0.55448 0.0
C1900 C 0.57498 0.49912 0.59652 0.0
C1901 C 0.54008 0.49961 0.57262 0.0
C1902 C 0.57058 0.49626 0.63764 0.0
C1903 C 0.61927 0.50551 0.64401 0.0
N1904 N 0.55086 0.49674 0.59292 0.0
N1905 N 0.60918 0.50331 0.62326 0.0
H1906 H 0.76356 0.4044 0.95475 0.0
H1907 H 0.80778 0.28686 0.88838 0.0
H1908 H 0.78936 0.33883 0.98631 0.0
H1909 H 0.78468 0.3535 0.85709 0.0
H1910 H 0.80374 0.30657 0.92458 0.0
H1911 H 0.77302 0.38675 0.91886 0.0
C1912 C 0.77116 0.38627 0.95415 0.0
C1913 C 0.77555 0.37303 0.97357 0.0
C1914 C 0.7998 0.31697 0.9098 0.0
C1915 C 0.78656 0.35278 0.93255 0.0
C1916 C 0.80212 0.30573 0.88915 0.0
C1917 C 0.79644 0.31852 0.86974 0.0
C1918 C 0.79157 0.34112 0.911 0.0
C1919 C 0.78944 0.34302 0.87164 0.0
C1920 C 0.77666 0.37625 0.93365 0.0
C1921 C 0.78557 0.34968 0.97177 0.0
N1922 N 0.78697 0.35344 0.89192 0.0
N1923 N 0.79067 0.34028 0.95161 0.0
H1924 H 0.95718 0.54784 0.18645 0.0
H1925 H 0.00376 0.47859 0.08334 0.0
H1926 H 0.91444 0.4914 0.15289 0.0
H1927 H 0.00186 0.55746 0.08009 0.0
H1928 H 0.98118 0.48047 0.11717 0.0
H1929 H 0.98271 0.54984 0.1541 0.0
C1930 C 0.95307 0.53613 0.17217 0.0
C1931 C 0.93371 0.51954 0.17212 0.0
C1932 C 0.98611 0.49732 0.10916 0.0
C1933 C 0.96303 0.52106 0.13606 0.0
C1934 C -0.00084 0.49634 0.09006 0.0
C1935 C 0.00452 0.51793 0.0789 0.0
C1936 C 0.97893 0.52003 0.11738 0.0
C1937 C -0.00208 0.54042 0.08822 0.0
C1938 C 0.96757 0.53725 0.15391 0.0
C1939 C 0.92907 0.50459 0.15341 0.0
N1940 N 0.98536 0.54094 0.10705 0.0
N1941 N 0.94393 0.50539 0.13621 0.0
H1942 H 0.74268 0.6173 0.49032 0.0
H1943 H 0.77895 0.7173 0.40232 0.0
H1944 H 0.79852 0.67176 0.50189 0.0
H1945 H 0.7147 0.6728 0.39432 0.0
H1946 H 0.78646 0.69998 0.43857 0.0
H1947 H 0.73258 0.63611 0.45466 0.0
C1948 C 0.75284 0.63317 0.48534 0.0
C1949 C 0.77154 0.64294 0.49903 0.0
C1950 C 0.77059 0.69411 0.42901 0.0
C1951 C 0.76006 0.6645 0.4584 0.0
C1952 C 0.76612 0.7042 0.40831 0.0
C1953 C 0.74595 0.69676 0.39522 0.0
C1954 C 0.755 0.67615 0.43678 0.0
C1955 C 0.73053 0.679 0.40373 0.0
C1956 C 0.74699 0.64394 0.46505 0.0
C1957 C 0.78401 0.66359 0.49185 0.0
N1958 N 0.73542 0.66923 0.42396 0.0
N1959 N 0.77809 0.67361 0.47201 0.0
H1960 H 0.55608 0.55493 0.78557 0.0
H1961 H 0.59316 0.52231 0.91092 0.0
H1962 H 0.61897 0.51384 0.80439 0.0
H1963 H 0.52467 0.55221 0.89109 0.0
H1964 H 0.60498 0.52352 0.87239 0.0
H1965 H 0.54592 0.55757 0.8245 0.0
C1966 C 0.56773 0.5464 0.79786 0.0
C1967 C 0.58838 0.53405 0.79166 0.0
C1968 C 0.58742 0.52997 0.87649 0.0
C1969 C 0.57694 0.53723 0.8363 0.0
C1970 C 0.58076 0.52953 0.89851 0.0
C1971 C 0.55786 0.5371 0.9042 0.0
C1972 C 0.57111 0.53813 0.86003 0.0
C1973 C 0.5424 0.54594 0.88738 0.0
C1974 C 0.56193 0.54796 0.8201 0.0
C1975 C 0.60282 0.52343 0.80835 0.0
N1976 N 0.54926 0.54613 0.86605 0.0
N1977 N 0.59684 0.5253 0.8299 0.0
H1978 H 0.74823 0.30454 0.08502 0.0
H1979 H 0.81907 0.24757 0.18788 0.0
H1980 H 0.81073 0.3399 0.1156 0.0
H1981 H 0.74208 0.25313 0.18694 0.0
H1982 H 0.81948 0.26931 0.15269 0.0
H1983 H 0.74933 0.27401 0.11454 0.0
C1984 C 0.7624 0.30561 0.09773 0.0
C1985 C 0.77936 0.32477 0.09804 0.0
C1986 C 0.80251 0.26519 0.15999 0.0
C1987 C 0.78099 0.2898 0.13121 0.0
C1988 C 0.80219 0.2526 0.1799 0.0
C1989 C 0.78048 0.24863 0.19031 0.0
C1990 C 0.78094 0.27326 0.15023 0.0
C1991 C 0.75918 0.25591 0.17943 0.0
C1992 C 0.76294 0.28829 0.11451 0.0
C1993 C 0.79726 0.32548 0.11491 0.0
N1994 N 0.75992 0.26799 0.15994 0.0
N1995 N 0.79768 0.30815 0.13083 0.0
H1996 H 0.98506 0.46114 0.28626 0.0
H1997 H 0.93906 0.45313 0.40948 0.0
H1998 H 0.91472 0.48317 0.30548 0.0
H1999 H 0.01199 0.4391 0.39236 0.0
H2000 H 0.92846 0.45864 0.37043 0.0
H2001 H -0.00574 0.44912 0.32432 0.0
C2002 C 0.97158 0.46358 0.2985 0.0
C2003 C 0.9491 0.47329 0.29269 0.0
C2004 C 0.94674 0.4541 0.37517 0.0
C2005 C 0.95945 0.45927 0.3362 0.0
C2006 C 0.95274 0.45062 0.39745 0.0
C2007 C 0.97649 0.44578 0.40418 0.0
C2008 C 0.96462 0.4528 0.35952 0.0
C2009 C -0.00646 0.44315 0.38788 0.0
C2010 C 0.97682 0.4566 0.3202 0.0
C2011 C 0.93232 0.47591 0.30922 0.0
N2012 N 0.98731 0.44691 0.36628 0.0
N2013 N 0.93784 0.46891 0.33023 0.0
H2014 H 0.86472 0.61505 0.63502 0.0
H2015 H 0.85216 0.7477 0.65801 0.0
H2016 H 0.85104 0.66731 0.58337 0.0
H2017 H 0.8878 0.69932 0.70402 0.0
H2018 H 0.8658 0.72282 0.62752 0.0
H2019 H 0.88711 0.64638 0.65631 0.0
C2020 C 0.86701 0.63297 0.62789 0.0
C2021 C 0.85508 0.63896 0.60793 0.0
C2022 C 0.87137 0.71797 0.64423 0.0
C2023 C 0.87994 0.67515 0.63246 0.0
C2024 C 0.86363 0.73235 0.66174 0.0
C2025 C 0.86777 0.72479 0.68362 0.0
C2026 C 0.88259 0.6956 0.64877 0.0
C2027 C 0.88312 0.705 0.68734 0.0
C2028 C 0.87988 0.65092 0.64002 0.0
C2029 C 0.85928 0.66217 0.5991 0.0
N2030 N 0.88927 0.69052 0.6701 0.0
N2031 N 0.87065 0.67973 0.61179 0.0
H2032 H 0.71137 0.59778 0.60543 0.0
H2033 H 0.64178 0.61576 0.49113 0.0
H2034 H 0.7271 0.65626 0.56085 0.0
H2035 H 0.62521 0.56031 0.53857 0.0
H2036 H 0.66788 0.63626 0.51938 0.0
H2037 H 0.67288 0.59122 0.58587 0.0
C2038 C 0.70622 0.60994 0.59211 0.0
C2039 C 0.72257 0.62712 0.58436 0.0
C2040 C 0.6584 0.61968 0.5236 0.0
C2041 C 0.67935 0.61892 0.56115 0.0
C2042 C 0.64375 0.60787 0.50743 0.0
C2043 C 0.632 0.58589 0.5123 0.0
C2044 C 0.66114 0.60943 0.54476 0.0
C2045 C 0.6347 0.57668 0.53381 0.0
C2046 C 0.6844 0.60598 0.58069 0.0
C2047 C 0.71507 0.64254 0.56713 0.0
N2048 N 0.6491 0.58839 0.54914 0.0
N2049 N 0.69428 0.63751 0.55554 0.0
H2050 H 0.20065 0.93853 0.58093 0.0
H2051 H 0.10074 0.96755 0.48891 0.0
H2052 H 0.19036 0.89357 0.52201 0.0
H2053 H 0.08592 0.97387 0.55829 0.0
H2054 H 0.1394 0.94892 0.49902 0.0
H2055 H 0.1631 0.9596 0.5713 0.0
C2056 C 0.19038 0.93301 0.56608 0.0
C2057 C 0.19837 0.91416 0.55235 0.0
C2058 C 0.1277 0.95464 0.51196 0.0
C2059 C 0.15631 0.9386 0.54093 0.0
C2060 C 0.10585 0.96542 0.50624 0.0
C2061 C 0.09024 0.9721 0.52282 0.0
C2062 C 0.13406 0.95117 0.53438 0.0
C2063 C 0.09749 0.96878 0.54505 0.0
C2064 C 0.16912 0.94503 0.5606 0.0
C2065 C 0.18462 0.90777 0.53318 0.0
N2066 N 0.11898 0.9586 0.55023 0.0
N2067 N 0.16435 0.92018 0.52789 0.0
H2068 H 0.41613 0.88732 0.70984 0.0
H2069 H 0.30521 0.81975 0.76345 0.0
H2070 H 0.35164 0.92331 0.72925 0.0
H2071 H 0.36571 0.78067 0.73896 0.0
H2072 H 0.32304 0.85792 0.75165 0.0
H2073 H 0.39822 0.84796 0.71942 0.0
C2074 C 0.39806 0.88694 0.71573 0.0
C2075 C 0.38545 0.90873 0.71892 0.0
C2076 C 0.33252 0.84105 0.74889 0.0
C2077 C 0.36511 0.86383 0.73029 0.0
C2078 C 0.32242 0.81921 0.75579 0.0
C2079 C 0.33397 0.79694 0.75216 0.0
C2080 C 0.35441 0.84077 0.73825 0.0
C2081 C 0.35625 0.79744 0.74216 0.0
C2082 C 0.38794 0.86447 0.72136 0.0
C2083 C 0.36213 0.90707 0.72666 0.0
N2084 N 0.36573 0.81904 0.73545 0.0
N2085 N 0.35284 0.88507 0.73225 0.0
H2086 H 0.33365 0.01972 0.08908 0.0
H2087 H 0.42335 0.00275 0.99103 0.0
H2088 H 0.32746 0.05829 0.02725 0.0
H2089 H 0.4396 0.99007 0.06024 0.0
H2090 H 0.38128 0.00969 -0.00013 0.0
H2091 H 0.36473 -0.00556 0.07355 0.0
C2092 C 0.33845 0.02255 0.0721 0.0
C2093 C 0.32862 0.04171 0.05969 0.0
C2094 C 0.39405 0.00489 0.01297 0.0
C2095 C 0.36408 0.01299 0.04198 0.0
C2096 C 0.41792 0.00103 0.00797 0.0
C2097 C 0.43483 -0.00344 0.02508 0.0
C2098 C 0.38729 0.00373 0.0351 0.0
C2099 C 0.4271 -0.00583 0.04671 0.0
C2100 C 0.35617 0.00811 0.06326 0.0
C2101 C 0.33514 0.04418 0.03761 0.0
N2102 N 0.40389 -0.00202 0.05115 0.0
N2103 N 0.35288 0.03031 0.02956 0.0
H2104 H 0.65443 0.61352 0.70019 0.0
H2105 H 0.73389 0.68905 0.78736 0.0
H2106 H 0.68471 0.57935 0.75861 0.0
H2107 H 0.74346 0.69906 0.71752 0.0
H2108 H 0.70938 0.65242 0.77856 0.0
H2109 H 0.68114 0.64905 0.70746 0.0
C2110 C 0.66674 0.61348 0.71447 0.0
C2111 C 0.66747 0.59352 0.72882 0.0
C2112 C 0.71694 0.66266 0.76522 0.0
C2113 C 0.69737 0.63401 0.73739 0.0
C2114 C 0.73076 0.68354 0.77019 0.0
C2115 C 0.7407 0.69695 0.75311 0.0
C2116 C 0.71252 0.6556 0.74303 0.0
C2117 C 0.73621 0.68906 0.73114 0.0
C2118 C 0.68195 0.63363 0.71853 0.0
C2119 C 0.68373 0.59431 0.74708 0.0
N2120 N 0.72216 0.66898 0.72667 0.0
N2121 N 0.69784 0.61441 0.75103 0.0
H2122 H 0.85216 0.40436 0.04626 0.0
H2123 H 0.93349 0.51459 0.00414 0.0
H2124 H 0.82715 0.47792 0.0358 0.0
H2125 H 0.96166 0.44349 0.02019 0.0
H2126 H 0.89391 0.50045 0.01422 0.0
H2127 H 0.89246 0.41788 0.03701 0.0
C2128 C 0.85519 0.42341 0.04239 0.0
C2129 C 0.83619 0.43999 0.04167 0.0
C2130 C 0.90871 0.48787 0.01545 0.0
C2131 C 0.88206 0.45541 0.03064 0.0
C2132 C 0.9313 0.49589 0.0095 0.0
C2133 C 0.95095 0.48023 0.01136 0.0
C2134 C 0.90568 0.46402 0.02333 0.0
C2135 C 0.94701 0.45619 0.01848 0.0
C2136 C 0.87816 0.43106 0.03692 0.0
C2137 C 0.84117 0.46443 0.03642 0.0
N2138 N 0.92483 0.44885 0.02432 0.0
N2139 N 0.86354 0.47133 0.03095 0.0
H2140 H 0.36872 0.05603 0.78492 0.0
H2141 H 0.28022 0.15213 0.73516 0.0
H2142 H 0.32621 0.04002 0.72527 0.0
H2143 H 0.29018 0.14583 0.80598 0.0
H2144 H 0.29918 0.11234 0.73045 0.0
H2145 H 0.34234 0.09041 0.79279 0.0
C2146 C 0.35369 0.05959 0.77363 0.0
C2147 C 0.34968 0.04528 0.75437 0.0
C2148 C 0.2969 0.11952 0.74702 0.0
C2149 C 0.31988 0.08463 0.76304 0.0
C2150 C 0.28618 0.14221 0.74971 0.0
C2151 C 0.2837 0.1522 0.77098 0.0
C2152 C 0.30579 0.1071 0.7657 0.0
C2153 C 0.29169 0.13865 0.78931 0.0
C2154 C 0.33864 0.0791 0.77817 0.0
C2155 C 0.32993 0.05061 0.74031 0.0
N2156 N 0.3028 0.11692 0.78625 0.0
N2157 N 0.31599 0.07014 0.74472 0.0
H2158 H 0.20292 0.96225 0.20674 0.0
H2159 H 0.2414 0.85451 0.28616 0.0
H2160 H 0.16371 0.94545 0.2649 0.0
H2161 H 0.24008 0.84396 0.2152 0.0
H2162 H 0.22237 0.89427 0.28102 0.0
H2163 H 0.22604 0.92464 0.21214 0.0
C2164 C 0.1994 0.95079 0.22077 0.0
C2165 C 0.18139 0.95681 0.23539 0.0
C2166 C 0.22648 0.88329 0.26662 0.0
C2167 C 0.20789 0.91441 0.24178 0.0
C2168 C 0.23744 0.86073 0.26949 0.0
C2169 C 0.24221 0.84594 0.25105 0.0
C2170 C 0.22082 0.89135 0.24518 0.0
C2171 C 0.23655 0.8548 0.22983 0.0
C2172 C 0.21246 0.92938 0.22373 0.0
C2173 C 0.17737 0.94132 0.25321 0.0
N2174 N 0.22621 0.87706 0.22743 0.0
N2175 N 0.19066 0.92088 0.25602 0.0
H2176 H 0.47602 0.3592 0.40971 0.0
H2177 H 0.54232 0.48643 0.43283 0.0
H2178 H 0.50149 0.40435 0.35723 0.0
H2179 H 0.4908 0.45725 0.47732 0.0
H2180 H 0.53148 0.45356 0.40622 0.0
H2181 H 0.48376 0.39311 0.43594 0.0
C2182 C 0.48286 0.3764 0.40367 0.0
C2183 C 0.4882 0.37901 0.38133 0.0
C2184 C 0.52262 0.45439 0.42185 0.0
C2185 C 0.49768 0.41743 0.41121 0.0
C2186 C 0.52901 0.4729 0.43712 0.0
C2187 C 0.51746 0.47445 0.45726 0.0
C2188 C 0.50487 0.4372 0.42698 0.0
C2189 C 0.50011 0.45667 0.46193 0.0
C2190 C 0.48734 0.39566 0.41862 0.0
C2191 C 0.49703 0.40163 0.37431 0.0
N2192 N 0.49437 0.43869 0.4469 0.0
N2193 N 0.50187 0.41991 0.38931 0.0
H2194 H 0.43314 0.7598 0.16336 0.0
H2195 H 0.35265 0.7819 0.268 0.0
H2196 H 0.45133 0.73359 0.22883 0.0
H2197 H 0.32119 0.77532 0.2018 0.0
H2198 H 0.39184 0.77331 0.2533 0.0
H2199 H 0.3944 0.77351 0.17675 0.0
C2200 C 0.42901 0.75694 0.18051 0.0
C2201 C 0.44543 0.74537 0.19496 0.0
C2202 C 0.37638 0.77399 0.24197 0.0
C2203 C 0.40158 0.76148 0.2104 0.0
C2204 C 0.35401 0.7791 0.25032 0.0
C2205 C 0.33354 0.77919 0.23614 0.0
C2206 C 0.37843 0.76924 0.21924 0.0
C2207 C 0.33648 0.7753 0.21335 0.0
C2208 C 0.40694 0.76475 0.1881 0.0
C2209 C 0.43916 0.74218 0.21703 0.0
N2210 N 0.35852 0.77042 0.20559 0.0
N2211 N 0.41784 0.75032 0.22409 0.0
H2212 H 0.02902 0.7557 0.9499 0.0
H2213 H 0.9577 0.63002 0.96627 0.0
H2214 H 0.9793 0.72329 0.90124 0.0
H2215 H 0.02736 0.64545 -0.00283 0.0
H2216 H 0.9587 0.67032 0.94929 0.0
H2217 H 0.02189 0.72079 0.97424 0.0
C2218 C 0.0165 0.74137 0.94447 0.0
C2219 C 0.00503 0.74203 0.92348 0.0
C2220 C 0.97357 0.66491 0.96008 0.0
C2221 C -0.00353 0.70279 0.9511 0.0
C2222 C 0.97309 0.6419 0.96967 0.0
C2223 C -0.00737 0.63411 0.9829 0.0
C2224 C -0.00637 0.68029 0.96387 0.0
C2225 C 0.01179 0.65063 0.98722 0.0
C2226 C 0.01244 0.72157 0.95829 0.0
C2227 C -0.01116 0.72319 0.91717 0.0
N2228 N 0.01191 0.67288 0.97755 0.0
N2229 N 0.98506 0.7043 0.93092 0.0
H2230 H 0.10655 0.23021 0.65832 0.0
H2231 H 0.17241 0.21707 0.77778 0.0
H2232 H 0.069 0.23383 0.71938 0.0
H2233 H 0.20793 0.21322 0.71564 0.0
H2234 H 0.13388 0.22059 0.75715 0.0
H2235 H 0.14359 0.22225 0.67947 0.0
C2236 C 0.1061 0.22939 0.6762 0.0
C2237 C 0.08464 0.23279 0.68708 0.0
C2238 C 0.15012 0.21875 0.74808 0.0
C2239 C 0.1271 0.22352 0.71153 0.0
C2240 C 0.17208 0.21656 0.75985 0.0
C2241 C 0.19345 0.215 0.74844 0.0
C2242 C 0.14961 0.21933 0.72478 0.0
C2243 C 0.19197 0.2146 0.72518 0.0
C2244 C 0.12727 0.22476 0.6883 0.0
C2245 C 0.08517 0.23141 0.71031 0.0
N2246 N 0.17052 0.2169 0.71418 0.0
N2247 N 0.10606 0.22693 0.72177 0.0
H2248 H 0.51628 0.68672 0.09206 0.0
H2249 H 0.5252 0.5409 0.0812 0.0
H2250 H 0.51918 0.63735 0.14723 0.0
H2251 H 0.52886 0.588 0.02464 0.0
H2252 H 0.52286 0.57668 0.1052 0.0
H2253 H 0.52004 0.65155 0.06673 0.0
C2254 C 0.51756 0.66853 0.09886 0.0
C2255 C 0.51738 0.66505 0.12187 0.0
C2256 C 0.52429 0.57934 0.08758 0.0
C2257 C 0.52185 0.62481 0.09298 0.0
C2258 C 0.52567 0.55884 0.07379 0.0
C2259 C 0.52719 0.5614 0.0508 0.0
C2260 C 0.52426 0.60282 0.07844 0.0
C2261 C 0.52779 0.58518 0.04228 0.0
C2262 C 0.51983 0.64849 0.08438 0.0
C2263 C 0.51924 0.64104 0.12968 0.0
N2264 N 0.52617 0.60502 0.0561 0.0
N2265 N 0.52138 0.62196 0.11531 0.0
H2266 H 0.06179 0.79735 0.80961 0.0
H2267 H 0.20297 0.80142 0.82136 0.0
H2268 H 0.10108 0.81545 0.87064 0.0
H2269 H 0.16457 0.79713 0.75796 0.0
H2270 H 0.16594 0.81102 0.83891 0.0
H2271 H 0.09895 0.80048 0.78978 0.0
C2272 C 0.07824 0.80207 0.81881 0.0
C2273 C 0.07849 0.80577 0.84183 0.0
C2274 C 0.16562 0.80835 0.82111 0.0
C2275 C 0.12094 0.80946 0.8193 0.0
C2276 C 0.18688 0.80307 0.81097 0.0
C2277 C 0.18694 0.79817 0.78809 0.0
C2278 C 0.14411 0.80833 0.80841 0.0
C2279 C 0.1653 0.80016 0.77571 0.0
C2280 C 0.0994 0.80401 0.80747 0.0
C2281 C 0.10018 0.81218 0.85292 0.0
N2282 N 0.14465 0.80472 0.78609 0.0
N2283 N 0.1206 0.81357 0.84156 0.0
H2284 H 0.00693 0.33084 0.64077 0.0
H2285 H -0.00562 0.39279 0.52143 0.0
H2286 H 0.01123 0.29008 0.57939 0.0
H2287 H -0.00432 0.4331 0.58343 0.0
H2288 H -0.00155 0.35468 0.54207 0.0
H2289 H 0.00109 0.36822 0.61976 0.0
C2290 C 0.00668 0.32974 0.62285 0.0
C2291 C 0.00962 0.30727 0.61183 0.0
C2292 C -0.00225 0.37187 0.55113 0.0
C2293 C 0.00283 0.35013 0.58758 0.0
C2294 C -0.00467 0.39363 0.53936 0.0
C2295 C -0.00528 0.41621 0.5507 0.0
C2296 C -0.0005 0.3727 0.5744 0.0
C2297 C -0.00388 0.41616 0.57395 0.0
C2298 C 0.00332 0.35113 0.61084 0.0
C2299 C 0.00909 0.30701 0.58857 0.0
N2300 N -0.00151 0.3948 0.58499 0.0
N2301 N 0.00575 0.32811 0.57721 0.0
H2302 H 0.42377 0.27172 0.2936 0.0
H2303 H 0.309 0.25467 0.34953 0.0
H2304 H 0.4269 0.27435 0.36506 0.0
H2305 H 0.32532 0.20802 0.29413 0.0
H2306 H 0.35164 0.25766 0.35953 0.0
H2307 H 0.38716 0.24682 0.29464 0.0
C2308 C 0.41671 0.26702 0.30947 0.0
C2309 C 0.42804 0.27531 0.32924 0.0
C2310 C 0.3458 0.24585 0.34577 0.0
C2311 C 0.38651 0.24684 0.33061 0.0
C2312 C 0.32139 0.2439 0.3402 0.0
C2313 C 0.3139 0.23209 0.32035 0.0
C2314 C 0.3623 0.2361 0.33118 0.0
C2315 C 0.33063 0.21815 0.30909 0.0
C2316 C 0.39613 0.25249 0.3101 0.0
C2317 C 0.41848 0.26841 0.34945 0.0
N2318 N 0.3543 0.22146 0.31402 0.0
N2319 N 0.39789 0.25498 0.34964 0.0
H2320 H 0.48234 0.54119 0.32673 0.0
H2321 H 0.45377 0.56359 0.45054 0.0
H2322 H 0.41007 0.55098 0.34785 0.0
H2323 H 0.52378 0.57662 0.4248 0.0
H2324 H 0.43651 0.56485 0.41289 0.0
H2325 H 0.49744 0.5587 0.3619 0.0
C2326 C 0.46965 0.54717 0.33874 0.0
C2327 C 0.44495 0.5442 0.33458 0.0
C2328 C 0.45557 0.56804 0.41553 0.0
C2329 C 0.46207 0.5642 0.37488 0.0
C2330 C 0.46543 0.56737 0.43705 0.0
C2331 C 0.49033 0.56925 0.4407 0.0
C2332 C 0.4708 0.57025 0.39768 0.0
C2333 C 0.50454 0.57447 0.42266 0.0
C2334 C 0.47826 0.55738 0.35874 0.0
C2335 C 0.42929 0.55268 0.35053 0.0
N2336 N 0.49464 0.57419 0.40184 0.0
N2337 N 0.43812 0.5619 0.37019 0.0
H2338 H 0.22614 0.62489 0.07236 0.0
H2339 H 0.2707 0.74127 0.14284 0.0
H2340 H 0.27593 0.67808 0.04766 0.0
H2341 H 0.20569 0.70138 0.15619 0.0
H2342 H 0.2737 0.71798 0.10847 0.0
H2343 H 0.2198 0.65167 0.10416 0.0
C2344 C 0.2358 0.64219 0.07363 0.0
C2345 C 0.25172 0.64919 0.05736 0.0
C2346 C 0.25865 0.71451 0.11882 0.0
C2347 C 0.24447 0.67994 0.09377 0.0
C2348 C 0.25676 0.72796 0.13842 0.0
C2349 C 0.23788 0.72333 0.15259 0.0
C2350 C 0.24176 0.69601 0.11341 0.0
C2351 C 0.22079 0.70533 0.14606 0.0
C2352 C 0.23203 0.65753 0.09173 0.0
C2353 C 0.26354 0.67193 0.05982 0.0
N2354 N 0.22326 0.69218 0.12706 0.0
N2355 N 0.25981 0.68643 0.07779 0.0
H2356 H 0.11606 0.47108 0.85523 0.0
H2357 H 0.01879 0.52877 0.93385 0.0
H2358 H 0.06815 0.52921 0.83618 0.0
H2359 H 0.05956 0.46472 0.95108 0.0
H2360 H 0.03656 0.52858 0.89765 0.0
H2361 H 0.09626 0.4685 0.89069 0.0
C2362 C 0.10152 0.48337 0.85853 0.0
C2363 C 0.09377 0.50038 0.8427 0.0
C2364 C 0.04149 0.51441 0.90925 0.0
C2365 C 0.07098 0.49739 0.88301 0.0
C2366 C 0.03126 0.51447 0.92991 0.0
C2367 C 0.03776 0.49679 0.94553 0.0
C2368 C 0.05854 0.49669 0.90421 0.0
C2369 C 0.05402 0.47868 0.93951 0.0
C2370 C 0.09012 0.48178 0.87869 0.0
C2371 C 0.07474 0.51576 0.84782 0.0
N2372 N 0.06404 0.47923 0.91937 0.0
N2373 N 0.06405 0.51389 0.86749 0.0
H2374 H 0.30063 0.35616 0.59649 0.0
H2375 H 0.27024 0.23502 0.65255 0.0
H2376 H 0.26022 0.29814 0.56266 0.0
H2377 H 0.3313 0.27924 0.67506 0.0
H2378 H 0.27128 0.25431 0.61689 0.0
H2379 H 0.31698 0.32631 0.62248 0.0
C2380 C 0.29557 0.33706 0.59427 0.0
C2381 C 0.27853 0.32968 0.57782 0.0
C2382 C 0.2848 0.25947 0.62945 0.0
C2383 C 0.29692 0.29557 0.60754 0.0
C2384 C 0.28434 0.24828 0.64995 0.0
C2385 C 0.30031 0.25592 0.66728 0.0
C2386 C 0.30088 0.27892 0.62634 0.0
C2387 C 0.31796 0.27346 0.66258 0.0
C2388 C 0.30499 0.32 0.60905 0.0
C2389 C 0.27291 0.30468 0.57542 0.0
N2390 N 0.31737 0.28486 0.64275 0.0
N2391 N 0.28166 0.28859 0.59046 0.0
H2392 H 0.38301 0.48517 0.20157 0.0
H2393 H 0.49633 0.50392 0.12742 0.0
H2394 H 0.44416 0.53094 0.22026 0.0
H2395 H 0.44717 0.44283 0.11684 0.0
H2396 H 0.47555 0.51542 0.16023 0.0
H2397 H 0.40384 0.47147 0.16859 0.0
C2398 C 0.40069 0.49248 0.19862 0.0
C2399 C 0.41192 0.50921 0.2136 0.0
C2400 C 0.4694 0.49934 0.1509 0.0
C2401 C 0.43571 0.49361 0.17628 0.0
C2402 C 0.48149 0.4925 0.13221 0.0
C2403 C 0.47379 0.47206 0.11938 0.0
C2404 C 0.44914 0.48594 0.15682 0.0
C2405 C 0.45371 0.45876 0.12614 0.0
C2406 C 0.41261 0.48451 0.17996 0.0
C2407 C 0.43487 0.51799 0.20915 0.0
N2408 N 0.44197 0.46601 0.14439 0.0
N2409 N 0.44597 0.51011 0.1909 0.0
H2410 H 0.26992 0.69977 0.93907 0.0
H2411 H 0.33455 0.69827 0.82326 0.0
H2412 H 0.31485 0.64145 0.91666 0.0
H2413 H 0.27368 0.74345 0.83639 0.0
H2414 H 0.33451 0.68406 0.86134 0.0
H2415 H 0.27797 0.72219 0.9052 0.0
C2416 C 0.28175 0.69186 0.92718 0.0
C2417 C 0.29153 0.66861 0.93051 0.0
C2418 C 0.32134 0.6973 0.85596 0.0
C2419 C 0.30085 0.69412 0.89197 0.0
C2420 C 0.32139 0.70551 0.83424 0.0
C2421 C 0.30384 0.72179 0.82652 0.0
C2422 C 0.30368 0.70547 0.87011 0.0
C2423 C 0.28737 0.73068 0.84157 0.0
C2424 C 0.28625 0.70462 0.90787 0.0
C2425 C 0.30673 0.6592 0.91461 0.0
N2426 N 0.28753 0.7222 0.86263 0.0
N2427 N 0.31083 0.67194 0.89598 0.0
H2428 H 0.13454 0.50406 0.70492 0.0
H2429 H 0.01517 0.4748 0.63534 0.0
H2430 H 0.07886 0.45809 0.73029 0.0
H2431 H 0.05102 0.54521 0.63201 0.0
H2432 H 0.04065 0.465 0.66728 0.0
H2433 H 0.1074 0.51483 0.67379 0.0
C2434 C 0.11678 0.49588 0.70367 0.0
C2435 C 0.10885 0.48011 0.72005 0.0
C2436 C 0.04273 0.48268 0.65964 0.0
C2437 C 0.07792 0.49246 0.68489 0.0
C2438 C 0.02794 0.48854 0.64151 0.0
C2439 C 0.0308 0.51099 0.63073 0.0
C2440 C 0.06091 0.49907 0.66683 0.0
C2441 C 0.04838 0.5275 0.63938 0.0
C2442 C 0.10126 0.50229 0.68615 0.0
C2443 C 0.08558 0.47029 0.71792 0.0
N2444 N 0.06301 0.52107 0.65675 0.0
N2445 N 0.07091 0.47656 0.70059 0.0
H2446 H 0.20394 0.32704 0.49115 0.0
H2447 H 0.17186 0.33018 0.36212 0.0
H2448 H 0.17622 0.39058 0.45767 0.0
H2449 H 0.2113 0.27302 0.39537 0.0
H2450 H 0.16262 0.3477 0.39822 0.0
H2451 H 0.19572 0.30267 0.45768 0.0
C2452 C 0.19591 0.33584 0.47679 0.0
C2453 C 0.19134 0.36102 0.47699 0.0
C2454 C 0.17286 0.33103 0.39755 0.0
C2455 C 0.18201 0.3332 0.43853 0.0
C2456 C 0.17823 0.32106 0.37696 0.0
C2457 C 0.19296 0.30045 0.37565 0.0
C2458 C 0.18221 0.32025 0.41689 0.0
C2459 C 0.20001 0.28896 0.39543 0.0
C2460 C 0.19114 0.32187 0.45769 0.0
C2461 C 0.18037 0.37129 0.45809 0.0
N2462 N 0.19491 0.29926 0.41521 0.0
N2463 N 0.17648 0.35741 0.43943 0.0
H2464 H 0.27093 0.48237 0.51502 0.0
H2465 H 0.41037 0.46201 0.50022 0.0
H2466 H 0.30323 0.41106 0.51218 0.0
H2467 H 0.38225 0.52819 0.52866 0.0
H2468 H 0.37 0.44478 0.49743 0.0
H2469 H 0.31066 0.50122 0.51213 0.0
C2470 C 0.28632 0.4707 0.51342 0.0
C2471 C 0.2839 0.44514 0.51403 0.0
C2472 C 0.3727 0.46307 0.50428 0.0
C2473 C 0.32907 0.4665 0.51078 0.0
C2474 C 0.39576 0.47286 0.5061 0.0
C2475 C 0.39979 0.49645 0.51508 0.0
C2476 C 0.35344 0.47704 0.51123 0.0
C2477 C 0.37998 0.50996 0.52162 0.0
C2478 C 0.30893 0.48146 0.51195 0.0
C2479 C 0.30438 0.43085 0.512 0.0
N2480 N 0.3576 0.50002 0.51961 0.0
N2481 N 0.32615 0.44174 0.51053 0.0
H2482 H 0.84632 0.09195 0.47223 0.0
H2483 H 0.93258 0.98604 0.51568 0.0
H2484 H 0.82314 0.03039 0.51044 0.0
H2485 H 0.95518 0.0415 0.47047 0.0
H2486 H 0.8921 0.0019 0.51307 0.0
H2487 H 0.88618 0.07397 0.47087 0.0
C2488 C 0.84957 0.07468 0.48032 0.0
C2489 C 0.83135 0.06273 0.49155 0.0
C2490 C 0.90582 0.01053 0.50357 0.0
C2491 C 0.87684 0.04209 0.49001 0.0
C2492 C 0.92897 0.00146 0.50504 0.0
C2493 C 0.94731 0.01254 0.49336 0.0
C2494 C 0.90092 0.03103 0.49048 0.0
C2495 C 0.94155 0.03241 0.47976 0.0
C2496 C 0.8723 0.0644 0.47946 0.0
C2497 C 0.83659 0.04034 0.50163 0.0
N2498 N 0.91886 0.04119 0.47884 0.0
N2499 N 0.85883 0.03083 0.50069 0.0
H2500 H 0.64143 0.09671 0.2793 0.0
H2501 H 0.77379 0.14997 0.26504 0.0
H2502 H 0.70479 0.05297 0.28834 0.0
H2503 H 0.71031 0.19423 0.26506 0.0
H2504 H 0.74907 0.11386 0.27238 0.0
H2505 H 0.6667 0.13245 0.27356 0.0
C2506 C 0.66069 0.09463 0.28023 0.0
C2507 C 0.67099 0.07175 0.28424 0.0
C2508 C 0.74059 0.13149 0.27076 0.0
C2509 C 0.70013 0.11272 0.27744 0.0
C2510 C 0.75466 0.15207 0.26645 0.0
C2511 C 0.74409 0.17515 0.26441 0.0
C2512 C 0.7158 0.13402 0.27294 0.0
C2513 C 0.71924 0.17683 0.26651 0.0
C2514 C 0.67513 0.11509 0.27692 0.0
C2515 C 0.69608 0.07026 0.28534 0.0
N2516 N 0.70597 0.15656 0.27064 0.0
N2517 N 0.70981 0.09045 0.28179 0.0
H2518 H 0.65645 0.86629 0.0394 0.0
H2519 H 0.59255 -0.00397 0.04338 0.0
H2520 H 0.68534 0.92847 0.07667 0.0
H2521 H 0.57277 0.93826 -0.00353 0.0
H2522 H 0.62525 0.97095 0.05776 0.0
H2523 H 0.62199 0.89075 0.02785 0.0
C2524 C 0.65507 0.88479 0.04585 0.0
C2525 C 0.67374 0.8955 0.0589 0.0
C2526 C 0.61393 0.96389 0.04414 0.0
C2527 C 0.63504 0.92373 0.04513 0.0
C2528 C 0.59547 0.97832 0.03572 0.0
C2529 C 0.57987 0.96917 0.01876 0.0
C2530 C 0.61666 0.9401 0.03564 0.0
C2531 C 0.58441 0.94607 0.00952 0.0
C2532 C 0.63567 0.8989 0.03888 0.0
C2533 C 0.67127 0.91964 0.06654 0.0
N2534 N 0.60223 0.93217 0.01829 0.0
N2535 N 0.65242 0.9331 0.05928 0.0
H2536 H 0.40602 0.41951 0.29237 0.0
H2537 H 0.28327 0.35127 0.3185 0.0
H2538 H 0.3419 0.45756 0.30975 0.0
H2539 H 0.34081 0.31872 0.28307 0.0
H2540 H 0.30788 0.38847 0.32437 0.0
H2541 H 0.38556 0.38067 0.29838 0.0
C2542 C 0.38774 0.41975 0.29772 0.0
C2543 C 0.3755 0.44184 0.30012 0.0
C2544 C 0.31516 0.37303 0.31556 0.0
C2545 C 0.352 0.39739 0.30694 0.0
C2546 C 0.30119 0.35183 0.31226 0.0
C2547 C 0.30993 0.33212 0.29998 0.0
C2548 C 0.33803 0.37427 0.30673 0.0
C2549 C 0.33326 0.33369 0.29231 0.0
C2550 C 0.37607 0.39754 0.30111 0.0
C2551 C 0.35192 0.44096 0.30737 0.0
N2552 N 0.34644 0.35447 0.2957 0.0
N2553 N 0.34081 0.41905 0.31027 0.0
H2554 H 0.21363 0.55222 0.98072 0.0
H2555 H 0.07902 0.57487 0.01533 0.0
H2556 H 0.17956 0.62271 0.97962 0.0
H2557 H 0.11016 0.50306 0.01175 0.0
H2558 H 0.1169 0.5928 0.00478 0.0
H2559 H 0.17645 0.53377 -0.00704 0.0
C2560 C 0.19823 0.56377 0.98279 0.0
C2561 C 0.19969 0.58906 0.97921 0.0
C2562 C 0.11555 0.57314 0.00644 0.0
C2563 C 0.15729 0.56814 -0.00645 0.0
C2564 C 0.09396 0.56288 0.01263 0.0
C2565 C 0.0914 0.5374 0.01428 0.0
C2566 C 0.13476 0.55784 0.0018 0.0
C2567 C 0.11138 0.52279 0.01068 0.0
C2568 C 0.17708 0.55324 0.98992 0.0
C2569 C 0.17924 0.60315 0.98219 0.0
N2570 N 0.13222 0.53322 0.0044 0.0
N2571 N 0.15891 0.5925 0.98932 0.0
H2572 H 0.72062 0.93888 0.28127 0.0
H2573 H 0.72582 0.80108 0.32367 0.0
H2574 H 0.6666 0.90558 0.32069 0.0
H2575 H 0.76353 0.82569 0.26682 0.0
H2576 H 0.71013 0.84218 0.32848 0.0
H2577 H 0.74247 0.90022 0.28161 0.0
C2578 C 0.71355 0.92356 0.29027 0.0
C2579 C 0.69169 0.92534 0.30084 0.0
C2580 C 0.72197 0.83862 0.31505 0.0
C2581 C 0.71656 0.88129 0.30132 0.0
C2582 C 0.73101 0.81518 0.31231 0.0
C2583 C 0.74582 0.80985 0.29465 0.0
C2584 C 0.7279 0.857 0.30016 0.0
C2585 C 0.752 0.82894 0.28054 0.0
C2586 C 0.72595 0.90152 0.29034 0.0
C2587 C 0.68329 0.90493 0.31218 0.0
N2588 N 0.74291 0.85168 0.28353 0.0
N2589 N 0.69572 0.88373 0.31208 0.0
H2590 H 0.80633 0.06522 0.76171 0.0
H2591 H 0.80227 0.20311 0.80721 0.0
H2592 H 0.86064 0.09948 0.80475 0.0
H2593 H 0.76116 0.17688 0.74955 0.0
H2594 H 0.81653 0.16161 0.8133 0.0
H2595 H 0.78256 0.10269 0.76394 0.0
C2596 C 0.813 0.08045 0.77192 0.0
C2597 C 0.83557 0.07955 0.78276 0.0
C2598 C 0.80418 0.16492 0.79946 0.0
C2599 C 0.80868 0.122 0.7855 0.0
C2600 C 0.79603 0.18859 0.79598 0.0
C2601 C 0.7809 0.19351 0.7776 0.0
C2602 C 0.7971 0.14609 0.78449 0.0
C2603 C 0.77316 0.17393 0.76372 0.0
C2604 C 0.79953 0.10178 0.77313 0.0
C2605 C 0.84348 0.09966 0.79582 0.0
N2606 N 0.78155 0.15107 0.76732 0.0
N2607 N 0.83012 0.12013 0.79671 0.0
loop_
_geom_bond_atom_site_label_1
_geom_bond_atom_site_label_2
_geom_bond_distance
_geom_bond_site_symmetry_2
_ccdc_geom_bond_type
C0 O1 1.306 . S
C0 O3 1.160 . S
O1 C0 1.306 . S
O1 Cd2 2.228 . S
Cd2 O1 2.228 . S
Cd2 O6 2.273 . S
Cd2 O10 2.277 . S
O3 C0 1.160 . S
O3 Cd4 2.203 . S
Cd4 O3 2.203 . S
Cd4 O6 2.411 . S
Cd4 O7 2.333 . S
Cd4 O8 2.352 . S
Cd4 O12 2.277 . S
Cd4 O13 2.356 . S
C5 O10 1.209 . S
C5 O12 1.226 . S
O6 Cd2 2.273 . S
O6 Cd4 2.411 . S
O6 C9 1.320 . S
O7 Cd4 2.333 . S
O7 C9 1.214 . S
O8 Cd4 2.352 . S
O8 C11 1.258 . S
C9 O6 1.320 . S
C9 O7 1.214 . S
O10 Cd2 2.277 . S
O10 C5 1.209 . S
C11 O8 1.258 . S
C11 O13 1.282 . S
O12 Cd4 2.277 . S
O12 C5 1.226 . S
O13 Cd4 2.356 . S
O13 C11 1.282 . S
C14 O15 1.286 1_655 S
C14 O17 1.160 . S
O15 C14 1.286 1_455 S
O15 Cd16 2.257 . S
Cd16 O15 2.257 . S
Cd16 O20 2.273 . S
Cd16 O24 2.277 . S
O17 C14 1.160 . S
O17 Cd18 2.203 1_655 S
Cd18 O17 2.203 1_455 S
Cd18 O20 2.411 . S
Cd18 O21 2.333 . S
Cd18 O22 2.352 . S
Cd18 O26 2.277 . S
Cd18 O27 2.356 . S
C19 O24 1.209 . S
C19 O26 1.226 . S
O20 Cd16 2.273 . S
O20 Cd18 2.411 . S
O20 C23 1.320 . S
O21 Cd18 2.333 . S
O21 C23 1.214 . S
O22 Cd18 2.352 . S
O22 C25 1.258 . S
C23 O20 1.320 . S
C23 O21 1.214 . S
O24 Cd16 2.277 . S
O24 C19 1.209 . S
C25 O22 1.258 . S
C25 O27 1.282 . S
O26 Cd18 2.277 . S
O26 C19 1.226 . S
O27 Cd18 2.356 . S
O27 C25 1.282 . S
C28 O29 1.306 . S
C28 O31 1.160 . S
O29 C28 1.306 . S
O29 Cd30 2.228 . S
Cd30 O29 2.228 . S
Cd30 O34 2.273 . S
Cd30 O38 2.277 . S
O31 C28 1.160 . S
O31 Cd32 2.203 . S
Cd32 O31 2.203 . S
Cd32 O34 2.411 . S
Cd32 O35 2.333 . S
Cd32 O36 2.352 . S
Cd32 O40 2.277 . S
Cd32 O41 2.356 . S
C33 O38 1.209 . S
C33 O40 1.226 . S
O34 Cd30 2.273 . S
O34 Cd32 2.411 . S
O34 C37 1.320 . S
O35 Cd32 2.333 . S
O35 C37 1.214 . S
O36 Cd32 2.352 . S
O36 C39 1.258 . S
C37 O34 1.320 . S
C37 O35 1.214 . S
O38 Cd30 2.277 . S
O38 C33 1.209 . S
C39 O36 1.258 . S
C39 O41 1.282 . S
O40 Cd32 2.277 . S
O40 C33 1.226 . S
O41 Cd32 2.356 . S
O41 C39 1.282 . S
C42 O43 1.306 . S
C42 O45 1.160 . S
O43 C42 1.306 . S
O43 Cd44 2.228 . S
Cd44 O43 2.228 . S
Cd44 O48 2.273 . S
Cd44 O52 2.277 . S
O45 C42 1.160 . S
O45 Cd46 2.203 . S
Cd46 O45 2.203 . S
Cd46 O48 2.411 . S
Cd46 O49 2.333 . S
Cd46 O50 2.352 . S
Cd46 O54 2.277 . S
Cd46 O55 2.356 . S
C47 O52 1.209 . S
C47 O54 1.226 . S
O48 Cd44 2.273 . S
O48 Cd46 2.411 . S
O48 C51 1.320 . S
O49 Cd46 2.333 . S
O49 C51 1.214 . S
O50 Cd46 2.352 . S
O50 C53 1.258 . S
C51 O48 1.320 . S
C51 O49 1.214 . S
O52 Cd44 2.277 . S
O52 C47 1.209 . S
C53 O50 1.258 . S
C53 O55 1.282 . S
O54 Cd46 2.277 . S
O54 C47 1.226 . S
O55 Cd46 2.356 . S
O55 C53 1.282 . S
C56 O57 1.306 . S
C56 O59 1.160 . S
O57 C56 1.306 . S
O57 Cd58 2.228 . S
Cd58 O57 2.228 . S
Cd58 O62 2.273 . S
Cd58 O66 2.277 . S
O59 C56 1.160 . S
O59 Cd60 2.203 . S
Cd60 O59 2.203 . S
Cd60 O62 2.411 . S
Cd60 O63 2.333 . S
Cd60 O64 2.352 1_545 S
Cd60 O68 2.277 . S
Cd60 O69 2.356 1_545 S
C61 O66 1.209 . S
C61 O68 1.226 . S
O62 Cd58 2.273 . S
O62 Cd60 2.411 . S
O62 C65 1.320 . S
O63 Cd60 2.333 . S
O63 C65 1.214 . S
O64 Cd60 2.352 1_565 S
O64 C67 1.258 . S
C65 O62 1.320 . S
C65 O63 1.214 . S
O66 Cd58 2.277 . S
O66 C61 1.209 . S
C67 O64 1.258 . S
C67 O69 1.282 . S
O68 Cd60 2.277 . S
O68 C61 1.226 . S
O69 Cd60 2.356 1_565 S
O69 C67 1.282 . S
C70 O71 1.306 . S
C70 O73 1.160 . S
O71 C70 1.306 . S
O71 Cd72 2.228 . S
Cd72 O71 2.228 . S
Cd72 O76 2.273 . S
Cd72 O80 2.277 . S
O73 C70 1.160 . S
O73 Cd74 2.203 . S
Cd74 O73 2.203 . S
Cd74 O76 2.411 . S
Cd74 O77 2.333 . S
Cd74 O78 2.352 . S
Cd74 O82 2.277 . S
Cd74 O83 2.356 . S
C75 O80 1.209 . S
C75 O82 1.226 . S
O76 Cd72 2.273 . S
O76 Cd74 2.411 . S
O76 C79 1.320 . S
O77 Cd74 2.333 . S
O77 C79 1.214 . S
O78 Cd74 2.352 . S
O78 C81 1.258 . S
C79 O76 1.320 . S
C79 O77 1.214 . S
O80 Cd72 2.277 . S
O80 C75 1.209 . S
C81 O78 1.258 . S
C81 O83 1.282 . S
O82 Cd74 2.277 . S
O82 C75 1.226 . S
O83 Cd74 2.356 . S
O83 C81 1.282 . S
C84 O85 1.306 1_545 S
C84 O87 1.160 . S
O85 C84 1.306 1_565 S
O85 Cd86 2.228 . S
Cd86 O85 2.228 . S
Cd86 O90 2.273 1_565 S
Cd86 O94 2.277 . S
O87 C84 1.160 . S
O87 Cd88 2.203 . S
Cd88 O87 2.203 . S
Cd88 O90 2.411 . S
Cd88 O91 2.333 . S
Cd88 O92 2.352 . S
Cd88 O96 2.277 1_545 S
Cd88 O97 2.356 . S
C89 O94 1.209 . S
C89 O96 1.226 . S
O90 Cd86 2.273 1_545 S
O90 Cd88 2.411 . S
O90 C93 1.320 . S
O91 Cd88 2.333 . S
O91 C93 1.214 . S
O92 Cd88 2.352 . S
O92 C95 1.258 . S
C93 O90 1.320 . S
C93 O91 1.214 . S
O94 Cd86 2.277 . S
O94 C89 1.209 . S
C95 O92 1.258 . S
C95 O97 1.282 . S
O96 Cd88 2.277 1_565 S
O96 C89 1.226 . S
O97 Cd88 2.356 . S
O97 C95 1.282 . S
C98 O99 1.306 . S
C98 O101 1.160 . S
O99 C98 1.306 . S
O99 Cd100 2.228 . S
Cd100 O99 2.228 . S
Cd100 O104 2.273 . S
Cd100 O108 2.277 . S
O101 C98 1.160 . S
O101 Cd102 2.203 . S
Cd102 O101 2.203 . S
Cd102 O104 2.411 . S
Cd102 O105 2.333 . S
Cd102 O106 2.352 1_554 S
Cd102 O110 2.277 . S
Cd102 O111 2.356 1_554 S
C103 O108 1.209 . S
C103 O110 1.226 . S
O104 Cd100 2.273 . S
O104 Cd102 2.411 . S
O104 C107 1.320 . S
O105 Cd102 2.333 . S
O105 C107 1.214 . S
O106 Cd102 2.352 1_556 S
O106 C109 1.258 . S
C107 O104 1.320 . S
C107 O105 1.214 . S
O108 Cd100 2.277 . S
O108 C103 1.209 . S
C109 O106 1.258 . S
C109 O111 1.282 . S
O110 Cd102 2.277 . S
O110 C103 1.226 . S
O111 Cd102 2.356 1_556 S
O111 C109 1.282 . S
C112 O113 1.306 . S
C112 O115 1.160 . S
O113 C112 1.306 . S
O113 Cd114 2.228 . S
Cd114 O113 2.228 . S
Cd114 O118 2.273 . S
Cd114 O122 2.277 . S
O115 C112 1.160 . S
O115 Cd116 2.203 . S
Cd116 O115 2.203 . S
Cd116 O118 2.411 . S
Cd116 O119 2.333 . S
Cd116 O120 2.352 . S
Cd116 O124 2.277 . S
Cd116 O125 2.356 . S
C117 O122 1.209 . S
C117 O124 1.226 . S
O118 Cd114 2.273 . S
O118 Cd116 2.411 . S
O118 C121 1.320 . S
O119 Cd116 2.333 . S
O119 C121 1.214 . S
O120 Cd116 2.352 . S
O120 C123 1.258 . S
C121 O118 1.320 . S
C121 O119 1.214 . S
O122 Cd114 2.277 . S
O122 C117 1.209 . S
C123 O120 1.258 . S
C123 O125 1.282 . S
O124 Cd116 2.277 . S
O124 C117 1.226 . S
O125 Cd116 2.356 . S
O125 C123 1.282 . S
C126 O127 1.306 . S
C126 O129 1.160 . S
O127 C126 1.306 . S
O127 Cd128 2.228 . S
Cd128 O127 2.228 . S
Cd128 O132 2.273 . S
Cd128 O136 2.277 . S
O129 C126 1.160 . S
O129 Cd130 2.203 . S
Cd130 O129 2.203 . S
Cd130 O132 2.411 . S
Cd130 O133 2.333 . S
Cd130 O134 2.352 . S
Cd130 O138 2.277 . S
Cd130 O139 2.356 . S
C131 O136 1.209 . S
C131 O138 1.226 . S
O132 Cd128 2.273 . S
O132 Cd130 2.411 . S
O132 C135 1.320 . S
O133 Cd130 2.333 . S
O133 C135 1.214 . S
O134 Cd130 2.352 . S
O134 C137 1.258 . S
C135 O132 1.320 . S
C135 O133 1.214 . S
O136 Cd128 2.277 . S
O136 C131 1.209 . S
C137 O134 1.258 . S
C137 O139 1.282 . S
O138 Cd130 2.277 . S
O138 C131 1.226 . S
O139 Cd130 2.356 . S
O139 C137 1.282 . S
C140 O141 1.306 . S
C140 O143 1.160 . S
O141 C140 1.306 . S
O141 Cd142 2.228 . S
Cd142 O141 2.228 . S
Cd142 O146 2.273 . S
Cd142 O150 2.277 . S
O143 C140 1.160 . S
O143 Cd144 2.203 . S
Cd144 O143 2.203 . S
Cd144 O146 2.411 . S
Cd144 O147 2.333 . S
Cd144 O148 2.352 . S
Cd144 O152 2.277 . S
Cd144 O153 2.356 . S
C145 O150 1.209 . S
C145 O152 1.226 . S
O146 Cd142 2.273 . S
O146 Cd144 2.411 . S
O146 C149 1.320 . S
O147 Cd144 2.333 . S
O147 C149 1.214 . S
O148 Cd144 2.352 . S
O148 C151 1.258 . S
C149 O146 1.320 . S
C149 O147 1.214 . S
O150 Cd142 2.277 . S
O150 C145 1.209 . S
C151 O148 1.258 . S
C151 O153 1.282 . S
O152 Cd144 2.277 . S
O152 C145 1.226 . S
O153 Cd144 2.356 . S
O153 C151 1.282 . S
C154 O155 1.306 . S
C154 O157 1.160 . S
O155 C154 1.306 . S
O155 Cd156 2.228 . S
Cd156 O155 2.228 . S
Cd156 O160 2.273 . S
Cd156 O164 2.277 . S
O157 C154 1.160 . S
O157 Cd158 2.203 . S
Cd158 O157 2.203 . S
Cd158 O160 2.411 . S
Cd158 O161 2.333 . S
Cd158 O162 2.352 . S
Cd158 O166 2.277 . S
Cd158 O167 2.356 . S
C159 O164 1.209 . S
C159 O166 1.226 . S
O160 Cd156 2.273 . S
O160 Cd158 2.411 . S
O160 C163 1.320 . S
O161 Cd158 2.333 . S
O161 C163 1.214 . S
O162 Cd158 2.352 . S
O162 C165 1.258 . S
C163 O160 1.320 . S
C163 O161 1.214 . S
O164 Cd156 2.277 . S
O164 C159 1.209 . S
C165 O162 1.258 . S
C165 O167 1.282 . S
O166 Cd158 2.277 . S
O166 C159 1.226 . S
O167 Cd158 2.356 . S
O167 C165 1.282 . S
C168 O169 1.306 . S
C168 O171 1.160 . S
O169 C168 1.306 . S
O169 Cd170 2.228 1_655 S
Cd170 O169 2.228 1_455 S
Cd170 O174 2.273 . S
Cd170 O178 2.277 . S
O171 C168 1.160 . S
O171 Cd172 2.203 1_655 S
Cd172 O171 2.203 1_455 S
Cd172 O174 2.411 . S
Cd172 O175 2.333 . S
Cd172 O176 2.350 1_455 S
Cd172 O180 2.277 1_455 S
Cd172 O181 2.356 . S
C173 O178 1.215 . S
C173 O180 1.224 1_455 S
O174 Cd170 2.273 . S
O174 Cd172 2.411 . S
O174 C177 1.320 . S
O175 Cd172 2.333 . S
O175 C177 1.214 . S
O176 Cd172 2.350 1_655 S
O176 C179 1.255 1_655 S
C177 O174 1.320 . S
C177 O175 1.214 . S
O178 Cd170 2.277 . S
O178 C173 1.215 . S
C179 O176 1.255 1_455 S
C179 O181 1.282 . S
O180 Cd172 2.277 1_655 S
O180 C173 1.224 1_655 S
O181 Cd172 2.356 . S
O181 C179 1.282 . S
C182 O183 1.306 1_655 S
C182 O185 1.160 . S
O183 C182 1.306 1_455 S
O183 Cd184 2.228 . S
Cd184 O183 2.228 . S
Cd184 O188 2.273 . S
Cd184 O192 2.277 . S
O185 C182 1.160 . S
O185 Cd186 2.203 1_655 S
Cd186 O185 2.203 1_455 S
Cd186 O188 2.411 . S
Cd186 O189 2.333 . S
Cd186 O190 2.352 . S
Cd186 O194 2.277 . S
Cd186 O195 2.356 . S
C187 O192 1.209 . S
C187 O194 1.226 . S
O188 Cd184 2.273 . S
O188 Cd186 2.411 . S
O188 C191 1.320 . S
O189 Cd186 2.333 . S
O189 C191 1.214 . S
O190 Cd186 2.352 . S
O190 C193 1.258 . S
C191 O188 1.320 . S
C191 O189 1.214 . S
O192 Cd184 2.277 . S
O192 C187 1.209 . S
C193 O190 1.258 . S
C193 O195 1.282 . S
O194 Cd186 2.277 . S
O194 C187 1.226 . S
O195 Cd186 2.356 . S
O195 C193 1.282 . S
C196 O197 1.306 . S
C196 O199 1.160 . S
O197 C196 1.306 . S
O197 Cd198 2.228 . S
Cd198 O197 2.228 . S
Cd198 O202 2.273 . S
Cd198 O206 2.277 . S
O199 C196 1.160 . S
O199 Cd200 2.203 . S
Cd200 O199 2.203 . S
Cd200 O202 2.411 . S
Cd200 O203 2.333 . S
Cd200 O204 2.352 . S
Cd200 O208 2.277 . S
Cd200 O209 2.356 . S
C201 O206 1.209 . S
C201 O208 1.226 . S
O202 Cd198 2.273 . S
O202 Cd200 2.411 . S
O202 C205 1.320 . S
O203 Cd200 2.333 . S
O203 C205 1.214 . S
O204 Cd200 2.352 . S
O204 C207 1.258 . S
C205 O202 1.320 . S
C205 O203 1.214 . S
O206 Cd198 2.277 . S
O206 C201 1.209 . S
C207 O204 1.258 . S
C207 O209 1.282 . S
O208 Cd200 2.277 . S
O208 C201 1.226 . S
O209 Cd200 2.356 . S
O209 C207 1.282 . S
C210 O211 1.306 . S
C210 O213 1.160 . S
O211 C210 1.306 . S
O211 Cd212 2.228 . S
Cd212 O211 2.228 . S
Cd212 O216 2.273 . S
Cd212 O220 2.277 . S
O213 C210 1.160 . S
O213 Cd214 2.203 . S
Cd214 O213 2.203 . S
Cd214 O216 2.411 . S
Cd214 O217 2.333 . S
Cd214 O218 2.352 . S
Cd214 O222 2.277 . S
Cd214 O223 2.356 . S
C215 O220 1.209 . S
C215 O222 1.226 . S
O216 Cd212 2.273 . S
O216 Cd214 2.411 . S
O216 C219 1.320 . S
O217 Cd214 2.333 . S
O217 C219 1.214 . S
O218 Cd214 2.352 . S
O218 C221 1.258 . S
C219 O216 1.320 . S
C219 O217 1.214 . S
O220 Cd212 2.277 . S
O220 C215 1.209 . S
C221 O218 1.258 . S
C221 O223 1.282 . S
O222 Cd214 2.277 . S
O222 C215 1.226 . S
O223 Cd214 2.356 . S
O223 C221 1.282 . S
C224 O225 1.306 1_545 S
C224 O227 1.160 . S
O225 C224 1.306 1_565 S
O225 Cd226 2.228 . S
Cd226 O225 2.228 . S
Cd226 O230 2.273 1_565 S
Cd226 O234 2.277 . S
O227 C224 1.160 . S
O227 Cd228 2.203 . S
Cd228 O227 2.203 . S
Cd228 O230 2.411 . S
Cd228 O231 2.333 . S
Cd228 O232 2.352 . S
Cd228 O236 2.277 1_545 S
Cd228 O237 2.356 . S
C229 O234 1.209 . S
C229 O236 1.226 . S
O230 Cd226 2.273 1_545 S
O230 Cd228 2.411 . S
O230 C233 1.320 . S
O231 Cd228 2.333 . S
O231 C233 1.214 . S
O232 Cd228 2.352 . S
O232 C235 1.258 . S
C233 O230 1.320 . S
C233 O231 1.214 . S
O234 Cd226 2.277 . S
O234 C229 1.209 . S
C235 O232 1.258 . S
C235 O237 1.282 . S
O236 Cd228 2.277 1_565 S
O236 C229 1.226 . S
O237 Cd228 2.356 . S
O237 C235 1.282 . S
C238 O239 1.306 . S
C238 O241 1.160 . S
O239 C238 1.306 . S
O239 Cd240 2.228 . S
Cd240 O239 2.228 . S
Cd240 O244 2.273 . S
Cd240 O248 2.277 . S
O241 C238 1.160 . S
O241 Cd242 2.203 . S
Cd242 O241 2.203 . S
Cd242 O244 2.411 . S
Cd242 O245 2.333 . S
Cd242 O246 2.352 . S
Cd242 O250 2.277 . S
Cd242 O251 2.356 . S
C243 O248 1.209 . S
C243 O250 1.226 . S
O244 Cd240 2.273 . S
O244 Cd242 2.411 . S
O244 C247 1.320 . S
O245 Cd242 2.333 . S
O245 C247 1.214 . S
O246 Cd242 2.352 . S
O246 C249 1.258 . S
C247 O244 1.320 . S
C247 O245 1.214 . S
O248 Cd240 2.277 . S
O248 C243 1.209 . S
C249 O246 1.258 . S
C249 O251 1.282 . S
O250 Cd242 2.277 . S
O250 C243 1.226 . S
O251 Cd242 2.356 . S
O251 C249 1.282 . S
C252 O253 1.306 . S
C252 O255 1.160 . S
O253 C252 1.306 . S
O253 Cd254 2.228 . S
Cd254 O253 2.228 . S
Cd254 O258 2.273 . S
Cd254 O262 2.277 . S
O255 C252 1.160 . S
O255 Cd256 2.203 . S
Cd256 O255 2.203 . S
Cd256 O258 2.411 . S
Cd256 O259 2.333 . S
Cd256 O260 2.352 1_545 S
Cd256 O264 2.277 . S
Cd256 O265 2.356 1_545 S
C257 O262 1.209 . S
C257 O264 1.226 . S
O258 Cd254 2.273 . S
O258 Cd256 2.411 . S
O258 C261 1.320 . S
O259 Cd256 2.333 . S
O259 C261 1.214 . S
O260 Cd256 2.352 1_565 S
O260 C263 1.258 . S
C261 O258 1.320 . S
C261 O259 1.214 . S
O262 Cd254 2.277 . S
O262 C257 1.209 . S
C263 O260 1.258 . S
C263 O265 1.282 . S
O264 Cd256 2.277 . S
O264 C257 1.226 . S
O265 Cd256 2.356 1_565 S
O265 C263 1.282 . S
C266 O267 1.306 . S
C266 O269 1.160 . S
O267 C266 1.306 . S
O267 Cd268 2.228 1_554 S
Cd268 O267 2.228 1_556 S
Cd268 O272 2.273 1_556 S
Cd268 O276 2.277 . S
O269 C266 1.160 . S
O269 Cd270 2.203 . S
Cd270 O269 2.203 . S
Cd270 O272 2.411 . S
Cd270 O273 2.333 . S
Cd270 O274 2.352 . S
Cd270 O278 2.248 1_554 S
Cd270 O279 2.356 . S
C271 O276 1.209 . S
C271 O278 1.255 . S
O272 Cd268 2.273 1_554 S
O272 Cd270 2.411 . S
O272 C275 1.320 . S
O273 Cd270 2.333 . S
O273 C275 1.214 . S
O274 Cd270 2.352 . S
O274 C277 1.258 . S
C275 O272 1.320 . S
C275 O273 1.214 . S
O276 Cd268 2.277 . S
O276 C271 1.209 . S
C277 O274 1.258 . S
C277 O279 1.282 . S
O278 Cd270 2.248 1_556 S
O278 C271 1.255 . S
O279 Cd270 2.356 . S
O279 C277 1.282 . S
C280 O281 1.306 . S
C280 O283 1.160 1_554 S
O281 C280 1.306 . S
O281 Cd282 2.228 . S
Cd282 O281 2.228 . S
Cd282 O286 2.273 . S
Cd282 O290 2.277 . S
O283 C280 1.160 1_556 S
O283 Cd284 2.203 . S
Cd284 O283 2.203 . S
Cd284 O286 2.411 1_556 S
Cd284 O287 2.333 . S
Cd284 O288 2.352 . S
Cd284 O292 2.277 1_556 S
Cd284 O293 2.356 . S
C285 O290 1.209 . S
C285 O292 1.226 . S
O286 Cd282 2.273 . S
O286 Cd284 2.411 1_554 S
O286 C289 1.320 1_554 S
O287 Cd284 2.333 . S
O287 C289 1.214 . S
O288 Cd284 2.352 . S
O288 C291 1.258 . S
C289 O286 1.320 1_556 S
C289 O287 1.214 . S
O290 Cd282 2.277 . S
O290 C285 1.209 . S
C291 O288 1.258 . S
C291 O293 1.282 . S
O292 Cd284 2.277 1_554 S
O292 C285 1.226 . S
O293 Cd284 2.356 . S
O293 C291 1.282 . S
C294 O295 1.306 . S
C294 O297 1.160 . S
O295 C294 1.306 . S
O295 Cd296 2.228 . S
Cd296 O295 2.228 . S
Cd296 O300 2.273 . S
Cd296 O304 2.277 . S
O297 C294 1.160 . S
O297 Cd298 2.203 . S
Cd298 O297 2.203 . S
Cd298 O300 2.411 . S
Cd298 O301 2.333 . S
Cd298 O302 2.352 . S
Cd298 O306 2.277 . S
Cd298 O307 2.356 . S
C299 O304 1.209 . S
C299 O306 1.226 . S
O300 Cd296 2.273 . S
O300 Cd298 2.411 . S
O300 C303 1.320 . S
O301 Cd298 2.333 . S
O301 C303 1.214 . S
O302 Cd298 2.352 . S
O302 C305 1.258 . S
C303 O300 1.320 . S
C303 O301 1.214 . S
O304 Cd296 2.277 . S
O304 C299 1.209 . S
C305 O302 1.258 . S
C305 O307 1.282 . S
O306 Cd298 2.277 . S
O306 C299 1.226 . S
O307 Cd298 2.356 . S
O307 C305 1.282 . S
C308 O309 1.306 . S
C308 O311 1.160 . S
O309 C308 1.306 . S
O309 Cd310 2.228 . S
Cd310 O309 2.228 . S
Cd310 O314 2.273 . S
Cd310 O318 2.277 . S
O311 C308 1.160 . S
O311 Cd312 2.203 . S
Cd312 O311 2.203 . S
Cd312 O314 2.411 . S
Cd312 O315 2.333 . S
Cd312 O316 2.352 . S
Cd312 O320 2.277 . S
Cd312 O321 2.356 . S
C313 O318 1.209 . S
C313 O320 1.226 . S
O314 Cd310 2.273 . S
O314 Cd312 2.411 . S
O314 C317 1.320 . S
O315 Cd312 2.333 . S
O315 C317 1.214 . S
O316 Cd312 2.352 . S
O316 C319 1.258 . S
C317 O314 1.320 . S
C317 O315 1.214 . S
O318 Cd310 2.277 . S
O318 C313 1.209 . S
C319 O316 1.258 . S
C319 O321 1.282 . S
O320 Cd312 2.277 . S
O320 C313 1.226 . S
O321 Cd312 2.356 . S
O321 C319 1.282 . S
C322 O323 1.306 . S
C322 O325 1.160 . S
O323 C322 1.306 . S
O323 Cd324 2.228 . S
Cd324 O323 2.228 . S
Cd324 O328 2.273 . S
Cd324 O332 2.277 . S
O325 C322 1.160 . S
O325 Cd326 2.203 . S
Cd326 O325 2.203 . S
Cd326 O328 2.411 . S
Cd326 O329 2.333 . S
Cd326 O330 2.352 . S
Cd326 O334 2.277 . S
Cd326 O335 2.356 . S
C327 O332 1.209 . S
C327 O334 1.226 . S
O328 Cd324 2.273 . S
O328 Cd326 2.411 . S
O328 C331 1.320 . S
O329 Cd326 2.333 . S
O329 C331 1.214 . S
O330 Cd326 2.352 . S
O330 C333 1.258 . S
C331 O328 1.320 . S
C331 O329 1.214 . S
O332 Cd324 2.277 . S
O332 C327 1.209 . S
C333 O330 1.258 . S
C333 O335 1.282 . S
O334 Cd326 2.277 . S
O334 C327 1.226 . S
O335 Cd326 2.356 . S
O335 C333 1.282 . S
C336 O352 1.270 1_556 S
C336 O354 1.254 . S
N337 C338 1.333 1_565 S
N337 C342 1.307 . S
N337 Zn343 2.020 1_665 S
C338 N337 1.333 1_545 S
C338 C339 1.384 . S
C338 H356 0.952 . S
C339 C338 1.384 . S
C339 C340 1.373 1_545 S
C339 H366 0.961 . S
C340 C339 1.373 1_565 S
C340 C341 1.357 . S
C341 C340 1.357 . S
C341 C342 1.370 . S
C341 H367 0.950 . S
C342 N337 1.307 . S
C342 C341 1.370 . S
C342 H360 0.948 . S
Zn343 N337 2.020 1_445 S
Zn343 O352 2.041 . S
Zn343 O358 2.034 . S
Zn343 O362 2.025 1_545 S
Zn343 O364 2.024 1_545 S
C344 O363 1.246 . S
C344 O364 1.249 . S
N345 C346 1.307 1_554 S
N345 C347 1.333 . S
N345 Zn351 2.020 . S
C346 N345 1.307 1_556 S
C346 C350 1.370 . S
C346 H357 0.948 . S
C347 N345 1.333 . S
C347 C348 1.379 . S
C347 H355 0.952 . S
C348 C347 1.379 . S
C348 C349 1.426 . S
C348 H368 0.949 . S
C349 C348 1.426 . S
C349 C350 1.337 1_554 S
C350 C346 1.370 . S
C350 C349 1.337 1_556 S
C350 H369 0.950 . S
Zn351 N345 2.020 . S
Zn351 O354 2.025 1_554 S
Zn351 O359 2.024 . S
Zn351 O361 2.039 . S
Zn351 O363 2.034 1_545 S
O352 C336 1.270 1_554 S
O352 Zn343 2.041 . S
C353 O358 1.246 . S
C353 O359 1.249 . S
O354 C336 1.254 . S
O354 Zn351 2.025 1_556 S
H355 C347 0.952 . S
H356 C338 0.952 . S
H357 C346 0.948 . S
O358 Zn343 2.034 . S
O358 C353 1.246 . S
O359 Zn351 2.024 . S
O359 C353 1.249 . S
H360 C342 0.948 . S
O361 Zn351 2.039 . S
O361 C365 1.237 1_545 S
O362 Zn343 2.025 1_565 S
O362 C365 1.261 . S
O363 C344 1.246 . S
O363 Zn351 2.034 1_565 S
O364 Zn343 2.024 1_565 S
O364 C344 1.249 . S
C365 O361 1.237 1_565 S
C365 O362 1.261 . S
H366 C339 0.961 . S
H367 C341 0.950 . S
H368 C348 0.949 . S
H369 C350 0.950 . S
C370 O386 1.251 . S
C370 O388 1.254 . S
N371 C372 1.333 . S
N371 C376 1.307 . S
N371 Zn377 2.020 . S
C372 N371 1.333 . S
C372 C373 1.379 . S
C372 H390 0.952 . S
C373 C372 1.379 . S
C373 C374 1.390 . S
C373 H400 0.949 . S
C374 C373 1.390 . S
C374 C375 1.357 . S
C375 C374 1.357 . S
C375 C376 1.370 . S
C375 H401 0.950 . S
C376 N371 1.307 . S
C376 C375 1.370 . S
C376 H394 0.948 . S
Zn377 N371 2.020 . S
Zn377 O386 2.039 . S
Zn377 O392 2.034 . S
Zn377 O396 2.025 . S
Zn377 O398 2.024 . S
C378 O397 1.246 . S
C378 O398 1.249 . S
N379 C380 1.307 . S
N379 C381 1.333 . S
N379 Zn385 2.020 . S
C380 N379 1.307 . S
C380 C384 1.370 . S
C380 H391 0.948 . S
C381 N379 1.333 . S
C381 C382 1.379 . S
C381 H389 0.952 . S
C382 C381 1.379 . S
C382 C383 1.390 . S
C382 H402 0.949 . S
C383 C382 1.390 . S
C383 C384 1.357 . S
C384 C380 1.370 . S
C384 C383 1.357 . S
C384 H403 0.950 . S
Zn385 N379 2.020 . S
Zn385 O388 2.025 . S
Zn385 O393 2.024 . S
Zn385 O395 2.039 . S
Zn385 O397 2.034 . S
O386 C370 1.251 . S
O386 Zn377 2.039 . S
C387 O392 1.246 . S
C387 O393 1.249 . S
O388 C370 1.254 . S
O388 Zn385 2.025 . S
H389 C381 0.952 . S
H390 C372 0.952 . S
H391 C380 0.948 . S
O392 Zn377 2.034 . S
O392 C387 1.246 . S
O393 Zn385 2.024 . S
O393 C387 1.249 . S
H394 C376 0.948 . S
O395 Zn385 2.039 . S
O395 C399 1.251 . S
O396 Zn377 2.025 . S
O396 C399 1.254 . S
O397 C378 1.246 . S
O397 Zn385 2.034 . S
O398 Zn377 2.024 . S
O398 C378 1.249 . S
C399 O395 1.251 . S
C399 O396 1.254 . S
H400 C373 0.949 . S
H401 C375 0.950 . S
H402 C382 0.949 . S
H403 C384 0.950 . S
C404 O420 1.251 . S
C404 O422 1.254 . S
N405 C406 1.333 . S
N405 C410 1.307 . S
N405 Zn411 2.020 . S
C406 N405 1.333 . S
C406 C407 1.379 . S
C406 H424 0.952 . S
C407 C406 1.379 . S
C407 C408 1.390 . S
C407 H434 0.949 . S
C408 C407 1.390 . S
C408 C409 1.357 . S
C409 C408 1.357 . S
C409 C410 1.370 . S
C409 H435 0.950 . S
C410 N405 1.307 . S
C410 C409 1.370 . S
C410 H428 0.948 . S
Zn411 N405 2.020 . S
Zn411 O420 2.039 1_565 S
Zn411 O426 2.034 1_565 S
Zn411 O430 2.025 . S
Zn411 O432 2.024 . S
C412 O431 1.246 1_565 S
C412 O432 1.249 . S
N413 C414 1.307 . S
N413 C415 1.333 . S
N413 Zn419 2.020 . S
C414 N413 1.307 . S
C414 C418 1.370 . S
C414 H425 0.948 . S
C415 N413 1.333 . S
C415 C416 1.379 . S
C415 H423 0.952 . S
C416 C415 1.379 . S
C416 C417 1.390 . S
C416 H436 0.949 . S
C417 C416 1.390 . S
C417 C418 1.357 . S
C418 C414 1.370 . S
C418 C417 1.357 . S
C418 H437 0.950 . S
Zn419 N413 2.020 . S
Zn419 O422 2.025 . S
Zn419 O427 2.024 . S
Zn419 O429 2.039 . S
Zn419 O431 2.034 . S
O420 C404 1.251 . S
O420 Zn411 2.039 1_545 S
C421 O426 1.246 . S
C421 O427 1.249 . S
O422 C404 1.254 . S
O422 Zn419 2.025 . S
H423 C415 0.952 . S
H424 C406 0.952 . S
H425 C414 0.948 . S
O426 Zn411 2.034 1_545 S
O426 C421 1.246 . S
O427 Zn419 2.024 . S
O427 C421 1.249 . S
H428 C410 0.948 . S
O429 Zn419 2.039 . S
O429 C433 1.251 . S
O430 Zn411 2.025 . S
O430 C433 1.254 1_565 S
O431 C412 1.246 1_545 S
O431 Zn419 2.034 . S
O432 Zn411 2.024 . S
O432 C412 1.249 . S
C433 O429 1.251 . S
C433 O430 1.254 1_545 S
H434 C407 0.949 . S
H435 C409 0.950 . S
H436 C416 0.949 . S
H437 C418 0.950 . S
C438 O454 1.251 . S
C438 O456 1.254 . S
N439 C440 1.333 . S
N439 C444 1.307 . S
N439 Zn445 2.020 . S
C440 N439 1.333 . S
C440 C441 1.379 . S
C440 H458 0.952 . S
C441 C440 1.379 . S
C441 C442 1.390 . S
C441 H468 0.949 . S
C442 C441 1.390 . S
C442 C443 1.357 . S
C443 C442 1.357 . S
C443 C444 1.370 . S
C443 H469 0.950 . S
C444 N439 1.307 . S
C444 C443 1.370 . S
C444 H462 0.948 . S
Zn445 N439 2.020 . S
Zn445 O454 2.039 . S
Zn445 O460 2.034 . S
Zn445 O464 2.025 . S
Zn445 O466 2.024 . S
C446 O465 1.246 . S
C446 O466 1.249 . S
N447 C448 1.307 . S
N447 C449 1.333 . S
N447 Zn453 2.020 . S
C448 N447 1.307 . S
C448 C452 1.370 . S
C448 H459 0.948 . S
C449 N447 1.333 . S
C449 C450 1.379 . S
C449 H457 0.952 . S
C450 C449 1.379 . S
C450 C451 1.390 . S
C450 H470 0.949 . S
C451 C450 1.390 . S
C451 C452 1.357 . S
C452 C448 1.370 . S
C452 C451 1.357 . S
C452 H471 0.950 . S
Zn453 N447 2.020 . S
Zn453 O456 2.025 . S
Zn453 O461 2.024 . S
Zn453 O463 2.039 . S
Zn453 O465 2.034 . S
O454 C438 1.251 . S
O454 Zn445 2.039 . S
C455 O460 1.246 . S
C455 O461 1.249 . S
O456 C438 1.254 . S
O456 Zn453 2.025 . S
H457 C449 0.952 . S
H458 C440 0.952 . S
H459 C448 0.948 . S
O460 Zn445 2.034 . S
O460 C455 1.246 . S
O461 Zn453 2.024 . S
O461 C455 1.249 . S
H462 C444 0.948 . S
O463 Zn453 2.039 . S
O463 C467 1.251 . S
O464 Zn445 2.025 . S
O464 C467 1.254 . S
O465 C446 1.246 . S
O465 Zn453 2.034 . S
O466 Zn445 2.024 . S
O466 C446 1.249 . S
C467 O463 1.251 . S
C467 O464 1.254 . S
H468 C441 0.949 . S
H469 C443 0.950 . S
H470 C450 0.949 . S
H471 C452 0.950 . S
C472 O488 1.251 1_565 S
C472 O490 1.254 . S
N473 C474 1.333 . S
N473 C478 1.307 . S
N473 Zn479 2.020 . S
C474 N473 1.333 . S
C474 C475 1.379 . S
C474 H492 0.952 . S
C475 C474 1.379 . S
C475 C476 1.390 . S
C475 H502 0.949 . S
C476 C475 1.390 . S
C476 C477 1.357 . S
C477 C476 1.357 . S
C477 C478 1.370 . S
C477 H503 0.950 . S
C478 N473 1.307 . S
C478 C477 1.370 . S
C478 H496 0.948 . S
Zn479 N473 2.020 . S
Zn479 O488 2.039 . S
Zn479 O494 2.034 . S
Zn479 O498 2.025 . S
Zn479 O500 2.024 1_545 S
C480 O499 1.246 . S
C480 O500 1.249 . S
N481 C482 1.307 . S
N481 C483 1.333 1_455 S
N481 Zn487 2.020 1_565 S
C482 N481 1.307 . S
C482 C486 1.370 . S
C482 H493 0.947 1_565 S
C483 N481 1.333 1_655 S
C483 C484 1.379 . S
C483 H491 0.952 . S
C484 C483 1.379 . S
C484 C485 1.390 . S
C484 H504 0.949 . S
C485 C484 1.390 . S
C485 C486 1.357 1_655 S
C486 C482 1.370 . S
C486 C485 1.357 1_455 S
C486 H505 0.950 . S
Zn487 N481 2.020 1_545 S
Zn487 O490 2.025 1_545 S
Zn487 O495 2.024 . S
Zn487 O497 2.039 1_455 S
Zn487 O499 2.034 1_545 S
O488 C472 1.251 1_545 S
O488 Zn479 2.039 . S
C489 O494 1.246 . S
C489 O495 1.249 . S
O490 C472 1.254 . S
O490 Zn487 2.025 1_565 S
H491 C483 0.952 . S
H492 C474 0.952 . S
H493 C482 0.947 1_545 S
O494 Zn479 2.034 . S
O494 C489 1.246 . S
O495 Zn487 2.024 . S
O495 C489 1.249 . S
H496 C478 0.948 . S
O497 Zn487 2.039 1_655 S
O497 C501 1.251 . S
O498 Zn479 2.025 . S
O498 C501 1.254 1_455 S
O499 C480 1.246 . S
O499 Zn487 2.034 1_565 S
O500 Zn479 2.024 1_565 S
O500 C480 1.249 . S
C501 O497 1.251 . S
C501 O498 1.254 1_655 S
H502 C475 0.949 . S
H503 C477 0.950 . S
H504 C484 0.949 . S
H505 C486 0.950 . S
C506 O522 1.251 . S
C506 O524 1.254 . S
N507 C508 1.333 . S
N507 C512 1.307 . S
N507 Zn513 2.020 . S
C508 N507 1.333 . S
C508 C509 1.379 . S
C508 H526 0.952 . S
C509 C508 1.379 . S
C509 C510 1.390 . S
C509 H536 0.949 . S
C510 C509 1.390 . S
C510 C511 1.357 . S
C511 C510 1.357 . S
C511 C512 1.370 . S
C511 H537 0.950 . S
C512 N507 1.307 . S
C512 C511 1.370 . S
C512 H530 0.948 . S
Zn513 N507 2.020 . S
Zn513 O522 2.039 . S
Zn513 O528 2.034 . S
Zn513 O532 2.025 . S
Zn513 O534 2.024 . S
C514 O533 1.246 . S
C514 O534 1.249 . S
N515 C516 1.307 . S
N515 C517 1.333 . S
N515 Zn521 2.020 . S
C516 N515 1.307 . S
C516 C520 1.370 . S
C516 H527 0.948 . S
C517 N515 1.333 . S
C517 C518 1.379 . S
C517 H525 0.952 . S
C518 C517 1.379 . S
C518 C519 1.390 . S
C518 H538 0.949 . S
C519 C518 1.390 . S
C519 C520 1.357 . S
C520 C516 1.370 . S
C520 C519 1.357 . S
C520 H539 0.950 . S
Zn521 N515 2.020 . S
Zn521 O524 2.025 . S
Zn521 O529 2.024 . S
Zn521 O531 2.039 . S
Zn521 O533 2.034 . S
O522 C506 1.251 . S
O522 Zn513 2.039 . S
C523 O528 1.246 . S
C523 O529 1.249 . S
O524 C506 1.254 . S
O524 Zn521 2.025 . S
H525 C517 0.952 . S
H526 C508 0.952 . S
H527 C516 0.948 . S
O528 Zn513 2.034 . S
O528 C523 1.246 . S
O529 Zn521 2.024 . S
O529 C523 1.249 . S
H530 C512 0.948 . S
O531 Zn521 2.039 . S
O531 C535 1.251 . S
O532 Zn513 2.025 . S
O532 C535 1.254 . S
O533 C514 1.246 . S
O533 Zn521 2.034 . S
O534 Zn513 2.024 . S
O534 C514 1.249 . S
C535 O531 1.251 . S
C535 O532 1.254 . S
H536 C509 0.949 . S
H537 C511 0.950 . S
H538 C518 0.949 . S
H539 C520 0.950 . S
C540 O556 1.251 . S
C540 O558 1.254 . S
N541 C542 1.333 . S
N541 C546 1.307 . S
N541 Zn547 2.020 . S
C542 N541 1.333 . S
C542 C543 1.379 . S
C542 H560 0.952 . S
C543 C542 1.379 . S
C543 C544 1.390 . S
C543 H570 0.949 . S
C544 C543 1.390 . S
C544 C545 1.357 . S
C545 C544 1.357 . S
C545 C546 1.370 . S
C545 H571 0.950 . S
C546 N541 1.307 . S
C546 C545 1.370 . S
C546 H564 0.948 . S
Zn547 N541 2.020 . S
Zn547 O556 2.039 1_545 S
Zn547 O562 2.034 . S
Zn547 O566 2.025 . S
Zn547 O568 2.024 . S
C548 O567 1.246 . S
C548 O568 1.249 1_565 S
N549 C550 1.307 . S
N549 C551 1.333 1_565 S
N549 Zn555 2.020 1_566 S
C550 N549 1.307 . S
C550 C554 1.370 . S
C550 H561 0.948 . S
C551 N549 1.333 1_545 S
C551 C552 1.374 1_545 S
C551 H559 0.952 . S
C552 C551 1.374 1_565 S
C552 C553 1.414 . S
C552 H572 0.932 1_565 S
C553 C552 1.414 . S
C553 C554 1.357 . S
C554 C550 1.370 . S
C554 C553 1.357 . S
C554 H573 0.950 . S
Zn555 N549 2.020 1_544 S
Zn555 O558 2.025 1_545 S
Zn555 O563 2.024 . S
Zn555 O565 2.039 1_554 S
Zn555 O567 2.034 1_545 S
O556 C540 1.251 . S
O556 Zn547 2.039 1_565 S
C557 O562 1.246 . S
C557 O563 1.249 . S
O558 C540 1.254 . S
O558 Zn555 2.025 1_565 S
H559 C551 0.952 . S
H560 C542 0.952 . S
H561 C550 0.948 . S
O562 Zn547 2.034 . S
O562 C557 1.246 . S
O563 Zn555 2.024 . S
O563 C557 1.249 . S
H564 C546 0.948 . S
O565 Zn555 2.039 1_556 S
O565 C569 1.251 1_556 S
O566 Zn547 2.025 . S
O566 C569 1.254 . S
O567 C548 1.246 . S
O567 Zn555 2.034 1_565 S
O568 Zn547 2.024 . S
O568 C548 1.249 1_545 S
C569 O565 1.251 1_554 S
C569 O566 1.254 . S
H570 C543 0.949 . S
H571 C545 0.950 . S
H572 C552 0.932 1_545 S
H573 C554 0.950 . S
C574 O590 1.251 . S
C574 O592 1.254 . S
N575 C576 1.333 . S
N575 C580 1.307 . S
N575 Zn581 2.020 . S
C576 N575 1.333 . S
C576 C577 1.379 . S
C576 H594 0.952 . S
C577 C576 1.379 . S
C577 C578 1.390 . S
C577 H604 0.949 . S
C578 C577 1.390 . S
C578 C579 1.357 . S
C579 C578 1.357 . S
C579 C580 1.370 . S
C579 H605 0.950 . S
C580 N575 1.307 . S
C580 C579 1.370 . S
C580 H598 0.948 . S
Zn581 N575 2.020 . S
Zn581 O590 2.039 . S
Zn581 O596 2.034 . S
Zn581 O600 2.025 . S
Zn581 O602 2.024 . S
C582 O601 1.246 . S
C582 O602 1.249 . S
N583 C584 1.307 . S
N583 C585 1.333 . S
N583 Zn589 2.020 . S
C584 N583 1.307 . S
C584 C588 1.370 . S
C584 H595 0.948 . S
C585 N583 1.333 . S
C585 C586 1.379 . S
C585 H593 0.952 . S
C586 C585 1.379 . S
C586 C587 1.390 . S
C586 H606 0.949 . S
C587 C586 1.390 . S
C587 C588 1.357 . S
C588 C584 1.370 . S
C588 C587 1.357 . S
C588 H607 0.950 . S
Zn589 N583 2.020 . S
Zn589 O592 2.025 . S
Zn589 O597 2.024 . S
Zn589 O599 2.039 . S
Zn589 O601 2.034 . S
O590 C574 1.251 . S
O590 Zn581 2.039 . S
C591 O596 1.246 . S
C591 O597 1.249 . S
O592 C574 1.254 . S
O592 Zn589 2.025 . S
H593 C585 0.952 . S
H594 C576 0.952 . S
H595 C584 0.948 . S
O596 Zn581 2.034 . S
O596 C591 1.246 . S
O597 Zn589 2.024 . S
O597 C591 1.249 . S
H598 C580 0.948 . S
O599 Zn589 2.039 . S
O599 C603 1.251 . S
O600 Zn581 2.025 . S
O600 C603 1.254 . S
O601 C582 1.246 . S
O601 Zn589 2.034 . S
O602 Zn581 2.024 . S
O602 C582 1.249 . S
C603 O599 1.251 . S
C603 O600 1.254 . S
H604 C577 0.949 . S
H605 C579 0.950 . S
H606 C586 0.949 . S
H607 C588 0.950 . S
C608 O624 1.251 . S
C608 O626 1.254 . S
N609 C610 1.333 . S
N609 C614 1.307 . S
N609 Zn615 2.020 1_556 S
C610 N609 1.333 . S
C610 C611 1.379 . S
C610 H628 0.952 . S
C611 C610 1.379 . S
C611 C612 1.390 . S
C611 H638 0.949 . S
C612 C611 1.390 . S
C612 C613 1.357 . S
C613 C612 1.357 . S
C613 C614 1.370 . S
C613 H639 0.950 . S
C614 N609 1.307 . S
C614 C613 1.370 . S
C614 H632 0.948 . S
Zn615 N609 2.020 1_554 S
Zn615 O624 2.039 . S
Zn615 O630 2.034 . S
Zn615 O634 2.025 . S
Zn615 O636 2.024 1_554 S
C616 O635 1.246 . S
C616 O636 1.249 1_554 S
N617 C618 1.307 . S
N617 C619 1.333 . S
N617 Zn623 2.020 . S
C618 N617 1.307 . S
C618 C622 1.370 . S
C618 H629 0.948 . S
C619 N617 1.333 . S
C619 C620 1.379 . S
C619 H627 0.952 . S
C620 C619 1.379 . S
C620 C621 1.390 . S
C620 H640 0.949 . S
C621 C620 1.390 . S
C621 C622 1.357 . S
C622 C618 1.370 . S
C622 C621 1.357 . S
C622 H641 0.950 . S
Zn623 N617 2.020 . S
Zn623 O626 2.025 . S
Zn623 O631 2.024 . S
Zn623 O633 2.039 . S
Zn623 O635 2.034 . S
O624 C608 1.251 . S
O624 Zn615 2.039 . S
C625 O630 1.246 . S
C625 O631 1.249 . S
O626 C608 1.254 . S
O626 Zn623 2.025 . S
H627 C619 0.952 . S
H628 C610 0.952 . S
H629 C618 0.948 . S
O630 Zn615 2.034 . S
O630 C625 1.246 . S
O631 Zn623 2.024 . S
O631 C625 1.249 . S
H632 C614 0.948 . S
O633 Zn623 2.039 . S
O633 C637 1.251 . S
O634 Zn615 2.025 . S
O634 C637 1.254 . S
O635 C616 1.246 . S
O635 Zn623 2.034 . S
O636 Zn615 2.024 1_556 S
O636 C616 1.249 1_556 S
C637 O633 1.251 . S
C637 O634 1.254 . S
H638 C611 0.949 . S
H639 C613 0.950 . S
H640 C620 0.949 . S
H641 C622 0.950 . S
C642 O658 1.251 . S
C642 O660 1.254 . S
N643 C644 1.333 . S
N643 C648 1.307 . S
N643 Zn649 2.020 . S
C644 N643 1.333 . S
C644 C645 1.379 . S
C644 H662 0.952 . S
C645 C644 1.379 . S
C645 C646 1.390 . S
C645 H672 0.949 . S
C646 C645 1.390 . S
C646 C647 1.357 . S
C647 C646 1.357 . S
C647 C648 1.370 . S
C647 H673 0.950 . S
C648 N643 1.307 . S
C648 C647 1.370 . S
C648 H666 0.948 . S
Zn649 N643 2.020 . S
Zn649 O658 2.039 . S
Zn649 O664 2.034 . S
Zn649 O668 2.025 . S
Zn649 O670 2.024 . S
C650 O669 1.246 . S
C650 O670 1.249 . S
N651 C652 1.307 . S
N651 C653 1.333 . S
N651 Zn657 2.020 . S
C652 N651 1.307 . S
C652 C656 1.370 . S
C652 H663 0.948 . S
C653 N651 1.333 . S
C653 C654 1.379 . S
C653 H661 0.952 . S
C654 C653 1.379 . S
C654 C655 1.390 . S
C654 H674 0.949 . S
C655 C654 1.390 . S
C655 C656 1.357 . S
C656 C652 1.370 . S
C656 C655 1.357 . S
C656 H675 0.950 . S
Zn657 N651 2.020 . S
Zn657 O660 2.025 . S
Zn657 O665 2.024 . S
Zn657 O667 2.039 . S
Zn657 O669 2.034 . S
O658 C642 1.251 . S
O658 Zn649 2.039 . S
C659 O664 1.246 . S
C659 O665 1.249 . S
O660 C642 1.254 . S
O660 Zn657 2.025 . S
H661 C653 0.952 . S
H662 C644 0.952 . S
H663 C652 0.948 . S
O664 Zn649 2.034 . S
O664 C659 1.246 . S
O665 Zn657 2.024 . S
O665 C659 1.249 . S
H666 C648 0.948 . S
O667 Zn657 2.039 . S
O667 C671 1.251 . S
O668 Zn649 2.025 . S
O668 C671 1.254 . S
O669 C650 1.246 . S
O669 Zn657 2.034 . S
O670 Zn649 2.024 . S
O670 C650 1.249 . S
C671 O667 1.251 . S
C671 O668 1.254 . S
H672 C645 0.949 . S
H673 C647 0.950 . S
H674 C654 0.949 . S
H675 C656 0.950 . S
C676 O692 1.251 . S
C676 O694 1.254 . S
N677 C678 1.333 . S
N677 C682 1.307 . S
N677 Zn683 2.020 . S
C678 N677 1.333 . S
C678 C679 1.379 . S
C678 H696 0.952 . S
C679 C678 1.379 . S
C679 C680 1.390 . S
C679 H706 0.949 . S
C680 C679 1.390 . S
C680 C681 1.357 . S
C681 C680 1.357 . S
C681 C682 1.370 . S
C681 H707 0.950 . S
C682 N677 1.307 . S
C682 C681 1.370 . S
C682 H700 0.948 . S
Zn683 N677 2.020 . S
Zn683 O692 2.039 . S
Zn683 O698 2.034 . S
Zn683 O702 2.025 . S
Zn683 O704 2.024 . S
C684 O703 1.246 . S
C684 O704 1.249 . S
N685 C686 1.307 1_455 S
N685 C687 1.333 . S
N685 Zn691 2.020 . S
C686 N685 1.307 1_655 S
C686 C690 1.370 . S
C686 H697 0.948 . S
C687 N685 1.333 . S
C687 C688 1.379 . S
C687 H695 0.952 . S
C688 C687 1.379 . S
C688 C689 1.390 1_455 S
C688 H708 0.949 . S
C689 C688 1.390 1_655 S
C689 C690 1.357 . S
C690 C686 1.370 . S
C690 C689 1.357 . S
C690 H709 0.950 . S
Zn691 N685 2.020 . S
Zn691 O694 2.025 . S
Zn691 O699 2.024 1_455 S
Zn691 O701 2.039 . S
Zn691 O703 2.034 . S
O692 C676 1.251 . S
O692 Zn683 2.039 . S
C693 O698 1.246 1_655 S
C693 O699 1.249 . S
O694 C676 1.254 . S
O694 Zn691 2.025 . S
H695 C687 0.952 . S
H696 C678 0.952 . S
H697 C686 0.948 . S
O698 Zn683 2.034 . S
O698 C693 1.246 1_455 S
O699 Zn691 2.024 1_655 S
O699 C693 1.249 . S
H700 C682 0.948 . S
O701 Zn691 2.039 . S
O701 C705 1.251 . S
O702 Zn683 2.025 . S
O702 C705 1.254 . S
O703 C684 1.246 . S
O703 Zn691 2.034 . S
O704 Zn683 2.024 . S
O704 C684 1.249 . S
C705 O701 1.251 . S
C705 O702 1.254 . S
H706 C679 0.949 . S
H707 C681 0.950 . S
H708 C688 0.949 . S
H709 C690 0.950 . S
C710 O726 1.251 . S
C710 O728 1.254 . S
N711 C712 1.333 . S
N711 C716 1.307 . S
N711 Zn717 2.020 . S
C712 N711 1.333 . S
C712 C713 1.379 . S
C712 H730 0.952 . S
C713 C712 1.379 . S
C713 C714 1.390 . S
C713 H740 0.949 . S
C714 C713 1.390 . S
C714 C715 1.357 . S
C715 C714 1.357 . S
C715 C716 1.370 . S
C715 H741 0.950 . S
C716 N711 1.307 . S
C716 C715 1.370 . S
C716 H734 0.948 . S
Zn717 N711 2.020 . S
Zn717 O726 2.039 . S
Zn717 O732 2.034 . S
Zn717 O736 2.025 . S
Zn717 O738 2.024 . S
C718 O737 1.246 . S
C718 O738 1.249 . S
N719 C720 1.307 . S
N719 C721 1.333 . S
N719 Zn725 2.020 . S
C720 N719 1.307 . S
C720 C724 1.370 . S
C720 H731 0.948 . S
C721 N719 1.333 . S
C721 C722 1.379 . S
C721 H729 0.952 . S
C722 C721 1.379 . S
C722 C723 1.390 . S
C722 H742 0.949 . S
C723 C722 1.390 . S
C723 C724 1.357 . S
C724 C720 1.370 . S
C724 C723 1.357 . S
C724 H743 0.950 . S
Zn725 N719 2.020 . S
Zn725 O728 2.025 . S
Zn725 O733 2.024 . S
Zn725 O735 2.039 . S
Zn725 O737 2.034 . S
O726 C710 1.251 . S
O726 Zn717 2.039 . S
C727 O732 1.246 . S
C727 O733 1.249 . S
O728 C710 1.254 . S
O728 Zn725 2.025 . S
H729 C721 0.952 . S
H730 C712 0.952 . S
H731 C720 0.948 . S
O732 Zn717 2.034 . S
O732 C727 1.246 . S
O733 Zn725 2.024 . S
O733 C727 1.249 . S
H734 C716 0.948 . S
O735 Zn725 2.039 . S
O735 C739 1.251 . S
O736 Zn717 2.025 . S
O736 C739 1.254 . S
O737 C718 1.246 . S
O737 Zn725 2.034 . S
O738 Zn717 2.024 . S
O738 C718 1.249 . S
C739 O735 1.251 . S
C739 O736 1.254 . S
H740 C713 0.949 . S
H741 C715 0.950 . S
H742 C722 0.949 . S
H743 C724 0.950 . S
C744 O760 1.251 . S
C744 O762 1.254 . S
N745 C746 1.333 . S
N745 C750 1.307 . S
N745 Zn751 2.020 . S
C746 N745 1.333 . S
C746 C747 1.379 . S
C746 H764 0.952 . S
C747 C746 1.379 . S
C747 C748 1.390 . S
C747 H774 0.949 . S
C748 C747 1.390 . S
C748 C749 1.357 . S
C749 C748 1.357 . S
C749 C750 1.370 . S
C749 H775 0.950 . S
C750 N745 1.307 . S
C750 C749 1.370 . S
C750 H768 0.948 . S
Zn751 N745 2.020 . S
Zn751 O760 2.039 . S
Zn751 O766 2.034 . S
Zn751 O770 2.025 . S
Zn751 O772 2.024 . S
C752 O771 1.246 . S
C752 O772 1.249 . S
N753 C754 1.307 . S
N753 C755 1.333 . S
N753 Zn759 2.020 . S
C754 N753 1.307 . S
C754 C758 1.370 . S
C754 H765 0.948 . S
C755 N753 1.333 . S
C755 C756 1.379 . S
C755 H763 0.952 . S
C756 C755 1.379 . S
C756 C757 1.390 . S
C756 H776 0.949 . S
C757 C756 1.390 . S
C757 C758 1.357 . S
C758 C754 1.370 . S
C758 C757 1.357 . S
C758 H777 0.950 . S
Zn759 N753 2.020 . S
Zn759 O762 2.025 . S
Zn759 O767 2.024 . S
Zn759 O769 2.039 . S
Zn759 O771 2.034 . S
O760 C744 1.251 . S
O760 Zn751 2.039 . S
C761 O766 1.246 . S
C761 O767 1.249 . S
O762 C744 1.254 . S
O762 Zn759 2.025 . S
H763 C755 0.952 . S
H764 C746 0.952 . S
H765 C754 0.948 . S
O766 Zn751 2.034 . S
O766 C761 1.246 . S
O767 Zn759 2.024 . S
O767 C761 1.249 . S
H768 C750 0.948 . S
O769 Zn759 2.039 . S
O769 C773 1.251 . S
O770 Zn751 2.025 . S
O770 C773 1.254 . S
O771 C752 1.246 . S
O771 Zn759 2.034 . S
O772 Zn751 2.024 . S
O772 C752 1.249 . S
C773 O769 1.251 . S
C773 O770 1.254 . S
H774 C747 0.949 . S
H775 C749 0.950 . S
H776 C756 0.949 . S
H777 C758 0.950 . S
C778 O794 1.251 . S
C778 O796 1.254 . S
N779 C780 1.333 . S
N779 C784 1.307 . S
N779 Zn785 2.020 . S
C780 N779 1.333 . S
C780 C781 1.379 . S
C780 H798 0.952 . S
C781 C780 1.379 . S
C781 C782 1.390 . S
C781 H808 0.949 . S
C782 C781 1.390 . S
C782 C783 1.357 . S
C783 C782 1.357 . S
C783 C784 1.370 . S
C783 H809 0.950 . S
C784 N779 1.307 . S
C784 C783 1.370 . S
C784 H802 0.948 . S
Zn785 N779 2.020 . S
Zn785 O794 2.039 . S
Zn785 O800 2.034 . S
Zn785 O804 2.025 . S
Zn785 O806 2.024 . S
C786 O805 1.246 . S
C786 O806 1.249 . S
N787 C788 1.307 . S
N787 C789 1.333 . S
N787 Zn793 2.020 . S
C788 N787 1.307 . S
C788 C792 1.370 . S
C788 H799 0.948 . S
C789 N787 1.333 . S
C789 C790 1.379 . S
C789 H797 0.952 . S
C790 C789 1.379 . S
C790 C791 1.390 . S
C790 H810 0.949 . S
C791 C790 1.390 . S
C791 C792 1.357 . S
C792 C788 1.370 . S
C792 C791 1.357 . S
C792 H811 0.950 . S
Zn793 N787 2.020 . S
Zn793 O796 2.025 . S
Zn793 O801 2.024 . S
Zn793 O803 2.039 . S
Zn793 O805 2.034 . S
O794 C778 1.251 . S
O794 Zn785 2.039 . S
C795 O800 1.246 . S
C795 O801 1.249 . S
O796 C778 1.254 . S
O796 Zn793 2.025 . S
H797 C789 0.952 . S
H798 C780 0.952 . S
H799 C788 0.948 . S
O800 Zn785 2.034 . S
O800 C795 1.246 . S
O801 Zn793 2.024 . S
O801 C795 1.249 . S
H802 C784 0.948 . S
O803 Zn793 2.039 . S
O803 C807 1.251 . S
O804 Zn785 2.025 . S
O804 C807 1.254 . S
O805 C786 1.246 . S
O805 Zn793 2.034 . S
O806 Zn785 2.024 . S
O806 C786 1.249 . S
C807 O803 1.251 . S
C807 O804 1.254 . S
H808 C781 0.949 . S
H809 C783 0.950 . S
H810 C790 0.949 . S
H811 C792 0.950 . S
C812 O828 1.251 . S
C812 O830 1.254 . S
N813 C814 1.333 . S
N813 C818 1.307 . S
N813 Zn819 2.020 . S
C814 N813 1.333 . S
C814 C815 1.379 . S
C814 H832 0.952 . S
C815 C814 1.379 . S
C815 C816 1.390 . S
C815 H842 0.949 . S
C816 C815 1.390 . S
C816 C817 1.357 . S
C817 C816 1.357 . S
C817 C818 1.370 . S
C817 H843 0.950 . S
C818 N813 1.307 . S
C818 C817 1.370 . S
C818 H836 0.948 . S
Zn819 N813 2.020 . S
Zn819 O828 2.039 . S
Zn819 O834 2.034 . S
Zn819 O838 2.025 . S
Zn819 O840 2.024 . S
C820 O839 1.246 . S
C820 O840 1.249 . S
N821 C822 1.307 . S
N821 C823 1.333 . S
N821 Zn827 2.020 . S
C822 N821 1.307 . S
C822 C826 1.370 . S
C822 H833 0.948 . S
C823 N821 1.333 . S
C823 C824 1.379 . S
C823 H831 0.952 . S
C824 C823 1.379 . S
C824 C825 1.390 . S
C824 H844 0.949 . S
C825 C824 1.390 . S
C825 C826 1.357 . S
C826 C822 1.370 . S
C826 C825 1.357 . S
C826 H845 0.950 . S
Zn827 N821 2.020 . S
Zn827 O830 2.025 . S
Zn827 O835 2.024 . S
Zn827 O837 2.039 . S
Zn827 O839 2.034 . S
O828 C812 1.251 . S
O828 Zn819 2.039 . S
C829 O834 1.246 . S
C829 O835 1.249 . S
O830 C812 1.254 . S
O830 Zn827 2.025 . S
H831 C823 0.952 . S
H832 C814 0.952 . S
H833 C822 0.948 . S
O834 Zn819 2.034 . S
O834 C829 1.246 . S
O835 Zn827 2.024 . S
O835 C829 1.249 . S
H836 C818 0.948 . S
O837 Zn827 2.039 . S
O837 C841 1.251 . S
O838 Zn819 2.025 . S
O838 C841 1.254 . S
O839 C820 1.246 . S
O839 Zn827 2.034 . S
O840 Zn819 2.024 . S
O840 C820 1.249 . S
C841 O837 1.251 . S
C841 O838 1.254 . S
H842 C815 0.949 . S
H843 C817 0.950 . S
H844 C824 0.949 . S
H845 C826 0.950 . S
C846 O862 1.251 . S
C846 O864 1.254 . S
N847 C848 1.333 . S
N847 C852 1.307 . S
N847 Zn853 2.020 . S
C848 N847 1.333 . S
C848 C849 1.379 . S
C848 H866 0.952 . S
C849 C848 1.379 . S
C849 C850 1.390 . S
C849 H876 0.949 . S
C850 C849 1.390 . S
C850 C851 1.357 . S
C851 C850 1.357 . S
C851 C852 1.370 . S
C851 H877 0.950 . S
C852 N847 1.307 . S
C852 C851 1.370 . S
C852 H870 0.948 . S
Zn853 N847 2.020 . S
Zn853 O862 2.039 . S
Zn853 O868 2.034 . S
Zn853 O872 2.063 . S
Zn853 O874 2.024 . S
C854 O873 1.246 . S
C854 O874 1.249 1_655 S
N855 C856 1.307 . S
N855 C857 1.333 1_554 S
N855 Zn861 2.020 . S
C856 N855 1.307 . S
C856 C860 1.370 . S
C856 H867 0.948 . S
C857 N855 1.333 1_556 S
C857 C858 1.394 . S
C857 H865 0.952 . S
C858 C857 1.394 . S
C858 C859 1.383 1_455 S
C858 H878 0.942 1_455 S
C859 C858 1.383 1_655 S
C859 C860 1.346 1_656 S
C860 C856 1.370 . S
C860 C859 1.346 1_454 S
C860 H879 0.950 . S
Zn861 N855 2.020 . S
Zn861 O864 2.025 . S
Zn861 O869 2.024 . S
Zn861 O871 2.039 1_554 S
Zn861 O873 2.034 1_455 S
O862 C846 1.251 . S
O862 Zn853 2.039 . S
C863 O868 1.246 . S
C863 O869 1.249 . S
O864 C846 1.254 . S
O864 Zn861 2.025 . S
H865 C857 0.952 . S
H866 C848 0.952 . S
H867 C856 0.948 . S
O868 Zn853 2.034 . S
O868 C863 1.246 . S
O869 Zn861 2.024 . S
O869 C863 1.249 . S
H870 C852 0.948 . S
O871 Zn861 2.039 1_556 S
O871 C875 1.251 . S
O872 Zn853 2.063 . S
O872 C875 1.227 1_554 S
O873 C854 1.246 . S
O873 Zn861 2.034 1_655 S
O874 Zn853 2.024 . S
O874 C854 1.249 1_455 S
C875 O871 1.251 . S
C875 O872 1.227 1_556 S
H876 C849 0.949 . S
H877 C851 0.950 . S
H878 C858 0.942 1_655 S
H879 C860 0.950 . S
H880 C886 0.930 . S
H881 C890 0.930 . S
H882 C895 0.929 . S
H883 C893 0.929 . S
H884 C888 0.929 . S
H885 C894 0.929 . S
C886 H880 0.930 . S
C886 C887 1.367 . S
C886 C894 1.378 . S
C887 C886 1.367 . S
C887 C895 1.433 . S
C888 H884 0.929 . S
C888 C890 1.378 . S
C888 C892 1.350 . S
C889 C892 1.463 . S
C889 C894 1.350 . S
C889 N897 1.427 . S
C890 H881 0.930 . S
C890 C888 1.378 . S
C890 C891 1.367 . S
C891 C890 1.367 . S
C891 C893 1.433 . S
C892 C888 1.350 . S
C892 C889 1.463 . S
C892 N896 1.427 . S
C893 H883 0.929 . S
C893 C891 1.433 . S
C893 N896 1.384 . S
C894 H885 0.929 . S
C894 C886 1.378 . S
C894 C889 1.350 . S
C895 H882 0.929 . S
C895 C887 1.433 . S
C895 N897 1.384 . S
N896 C892 1.427 . S
N896 C893 1.384 . S
N897 C889 1.427 . S
N897 C895 1.384 . S
H898 C904 0.930 . S
H899 C908 0.930 . S
H900 C913 0.929 . S
H901 C911 0.929 . S
H902 C906 0.929 . S
H903 C912 0.929 . S
C904 H898 0.930 . S
C904 C905 1.367 . S
C904 C912 1.378 . S
C905 C904 1.367 . S
C905 C913 1.433 . S
C906 H902 0.929 . S
C906 C908 1.378 . S
C906 C910 1.350 . S
C907 C910 1.463 . S
C907 C912 1.350 . S
C907 N915 1.427 . S
C908 H899 0.930 . S
C908 C906 1.378 . S
C908 C909 1.367 . S
C909 C908 1.367 . S
C909 C911 1.433 . S
C910 C906 1.350 . S
C910 C907 1.463 . S
C910 N914 1.427 . S
C911 H901 0.929 . S
C911 C909 1.433 . S
C911 N914 1.384 . S
C912 H903 0.929 . S
C912 C904 1.378 . S
C912 C907 1.350 . S
C913 H900 0.929 . S
C913 C905 1.433 . S
C913 N915 1.384 . S
N914 C910 1.427 . S
N914 C911 1.384 . S
N915 C907 1.427 . S
N915 C913 1.384 . S
H916 C922 0.930 . S
H917 C926 0.930 . S
H918 C931 0.929 . S
H919 C929 0.929 . S
H920 C924 0.929 . S
H921 C930 0.929 . S
C922 H916 0.930 . S
C922 C923 1.367 . S
C922 C930 1.378 . S
C923 C922 1.367 . S
C923 C931 1.433 . S
C924 H920 0.929 . S
C924 C926 1.378 . S
C924 C928 1.350 . S
C925 C928 1.463 . S
C925 C930 1.350 . S
C925 N933 1.427 . S
C926 H917 0.930 . S
C926 C924 1.378 . S
C926 C927 1.367 . S
C927 C926 1.367 . S
C927 C929 1.433 . S
C928 C924 1.350 . S
C928 C925 1.463 . S
C928 N932 1.427 . S
C929 H919 0.929 . S
C929 C927 1.433 . S
C929 N932 1.384 . S
C930 H921 0.929 . S
C930 C922 1.378 . S
C930 C925 1.350 . S
C931 H918 0.929 . S
C931 C923 1.433 . S
C931 N933 1.384 . S
N932 C928 1.427 . S
N932 C929 1.384 . S
N933 C925 1.427 . S
N933 C931 1.384 . S
H934 C940 0.930 . S
H935 C944 0.930 . S
H936 C949 0.929 . S
H937 C947 0.929 . S
H938 C942 0.929 . S
H939 C948 0.929 . S
C940 H934 0.930 . S
C940 C941 1.367 . S
C940 C948 1.378 . S
C941 C940 1.367 . S
C941 C949 1.433 . S
C942 H938 0.929 . S
C942 C944 1.378 . S
C942 C946 1.350 . S
C943 C946 1.463 . S
C943 C948 1.350 . S
C943 N951 1.427 . S
C944 H935 0.930 . S
C944 C942 1.378 . S
C944 C945 1.367 . S
C945 C944 1.367 . S
C945 C947 1.433 . S
C946 C942 1.350 . S
C946 C943 1.463 . S
C946 N950 1.427 . S
C947 H937 0.929 . S
C947 C945 1.433 . S
C947 N950 1.384 . S
C948 H939 0.929 . S
C948 C940 1.378 . S
C948 C943 1.350 . S
C949 H936 0.929 . S
C949 C941 1.433 . S
C949 N951 1.384 . S
N950 C946 1.427 . S
N950 C947 1.384 . S
N951 C943 1.427 . S
N951 C949 1.384 . S
H952 C958 0.930 . S
H953 C962 0.930 . S
H954 C967 0.929 . S
H955 C965 0.929 . S
H956 C960 0.929 . S
H957 C966 0.929 . S
C958 H952 0.930 . S
C958 C959 1.367 . S
C958 C966 1.378 . S
C959 C958 1.367 . S
C959 C967 1.433 . S
C960 H956 0.929 . S
C960 C962 1.378 . S
C960 C964 1.350 . S
C961 C964 1.463 . S
C961 C966 1.350 . S
C961 N969 1.427 . S
C962 H953 0.930 . S
C962 C960 1.378 . S
C962 C963 1.367 . S
C963 C962 1.367 . S
C963 C965 1.433 . S
C964 C960 1.350 . S
C964 C961 1.463 . S
C964 N968 1.427 . S
C965 H955 0.929 . S
C965 C963 1.433 . S
C965 N968 1.384 . S
C966 H957 0.929 . S
C966 C958 1.378 . S
C966 C961 1.350 . S
C967 H954 0.929 . S
C967 C959 1.433 . S
C967 N969 1.384 . S
N968 C964 1.427 . S
N968 C965 1.384 . S
N969 C961 1.427 . S
N969 C967 1.384 . S
H970 C976 0.930 . S
H971 C980 0.930 . S
H972 C985 0.929 . S
H973 C983 0.929 . S
H974 C978 0.929 . S
H975 C984 0.929 . S
C976 H970 0.930 . S
C976 C977 1.367 . S
C976 C984 1.378 . S
C977 C976 1.367 . S
C977 C985 1.433 . S
C978 H974 0.929 . S
C978 C980 1.378 . S
C978 C982 1.350 . S
C979 C982 1.463 . S
C979 C984 1.350 . S
C979 N987 1.427 . S
C980 H971 0.930 . S
C980 C978 1.378 . S
C980 C981 1.367 . S
C981 C980 1.367 . S
C981 C983 1.433 . S
C982 C978 1.350 . S
C982 C979 1.463 . S
C982 N986 1.427 . S
C983 H973 0.929 . S
C983 C981 1.433 . S
C983 N986 1.384 . S
C984 H975 0.929 . S
C984 C976 1.378 . S
C984 C979 1.350 . S
C985 H972 0.929 . S
C985 C977 1.433 . S
C985 N987 1.384 . S
N986 C982 1.427 . S
N986 C983 1.384 . S
N987 C979 1.427 . S
N987 C985 1.384 . S
H988 C994 0.930 . S
H989 C998 0.930 . S
H990 C1003 0.929 . S
H991 C1001 0.929 . S
H992 C996 0.929 . S
H993 C1002 0.929 . S
C994 H988 0.930 . S
C994 C995 1.367 . S
C994 C1002 1.378 . S
C995 C994 1.367 . S
C995 C1003 1.433 . S
C996 H992 0.929 . S
C996 C998 1.378 1_556 S
C996 C1000 1.350 . S
C997 C1000 1.463 . S
C997 C1002 1.350 . S
C997 N1005 1.427 . S
C998 H989 0.930 . S
C998 C996 1.378 1_554 S
C998 C999 1.367 1_554 S
C999 C998 1.367 1_556 S
C999 C1001 1.433 . S
C1000 C996 1.350 . S
C1000 C997 1.463 . S
C1000 N1004 1.427 . S
C1001 H991 0.929 . S
C1001 C999 1.433 . S
C1001 N1004 1.384 . S
C1002 H993 0.929 . S
C1002 C994 1.378 . S
C1002 C997 1.350 . S
C1003 H990 0.929 . S
C1003 C995 1.433 . S
C1003 N1005 1.384 . S
N1004 C1000 1.427 . S
N1004 C1001 1.384 . S
N1005 C997 1.427 . S
N1005 C1003 1.384 . S
H1006 C1012 0.930 . S
H1007 C1016 0.930 . S
H1008 C1021 0.929 . S
H1009 C1019 0.929 . S
H1010 C1014 0.929 . S
H1011 C1020 0.929 . S
C1012 H1006 0.930 . S
C1012 C1013 1.367 . S
C1012 C1020 1.378 . S
C1013 C1012 1.367 . S
C1013 C1021 1.433 . S
C1014 H1010 0.929 . S
C1014 C1016 1.378 . S
C1014 C1018 1.350 . S
C1015 C1018 1.463 . S
C1015 C1020 1.350 . S
C1015 N1023 1.427 . S
C1016 H1007 0.930 . S
C1016 C1014 1.378 . S
C1016 C1017 1.367 . S
C1017 C1016 1.367 . S
C1017 C1019 1.433 . S
C1018 C1014 1.350 . S
C1018 C1015 1.463 . S
C1018 N1022 1.427 . S
C1019 H1009 0.929 . S
C1019 C1017 1.433 . S
C1019 N1022 1.384 . S
C1020 H1011 0.929 . S
C1020 C1012 1.378 . S
C1020 C1015 1.350 . S
C1021 H1008 0.929 . S
C1021 C1013 1.433 . S
C1021 N1023 1.384 . S
N1022 C1018 1.427 . S
N1022 C1019 1.384 . S
N1023 C1015 1.427 . S
N1023 C1021 1.384 . S
H1024 C1030 0.930 . S
H1025 C1034 0.930 . S
H1026 C1039 0.929 . S
H1027 C1037 0.929 . S
H1028 C1032 0.929 . S
H1029 C1038 0.929 1_565 S
C1030 H1024 0.930 . S
C1030 C1031 1.367 . S
C1030 C1038 1.378 . S
C1031 C1030 1.367 . S
C1031 C1039 1.433 . S
C1032 H1028 0.929 . S
C1032 C1034 1.378 . S
C1032 C1036 1.350 . S
C1033 C1036 1.463 . S
C1033 C1038 1.350 . S
C1033 N1041 1.427 . S
C1034 H1025 0.930 . S
C1034 C1032 1.378 . S
C1034 C1035 1.367 1_545 S
C1035 C1034 1.367 1_565 S
C1035 C1037 1.433 . S
C1036 C1032 1.350 . S
C1036 C1033 1.463 . S
C1036 N1040 1.427 1_545 S
C1037 H1027 0.929 . S
C1037 C1035 1.433 . S
C1037 N1040 1.384 . S
C1038 H1029 0.929 1_545 S
C1038 C1030 1.378 . S
C1038 C1033 1.350 . S
C1039 H1026 0.929 . S
C1039 C1031 1.433 . S
C1039 N1041 1.384 . S
N1040 C1036 1.427 1_565 S
N1040 C1037 1.384 . S
N1041 C1033 1.427 . S
N1041 C1039 1.384 . S
H1042 C1048 0.930 . S
H1043 C1052 0.930 . S
H1044 C1057 0.929 . S
H1045 C1055 0.929 . S
H1046 C1050 0.929 . S
H1047 C1056 0.929 . S
C1048 H1042 0.930 . S
C1048 C1049 1.367 . S
C1048 C1056 1.378 . S
C1049 C1048 1.367 . S
C1049 C1057 1.433 . S
C1050 H1046 0.929 . S
C1050 C1052 1.378 . S
C1050 C1054 1.350 . S
C1051 C1054 1.463 . S
C1051 C1056 1.350 . S
C1051 N1059 1.427 . S
C1052 H1043 0.930 . S
C1052 C1050 1.378 . S
C1052 C1053 1.367 . S
C1053 C1052 1.367 . S
C1053 C1055 1.433 . S
C1054 C1050 1.350 . S
C1054 C1051 1.463 . S
C1054 N1058 1.427 . S
C1055 H1045 0.929 . S
C1055 C1053 1.433 . S
C1055 N1058 1.384 . S
C1056 H1047 0.929 . S
C1056 C1048 1.378 . S
C1056 C1051 1.350 . S
C1057 H1044 0.929 . S
C1057 C1049 1.433 . S
C1057 N1059 1.384 . S
N1058 C1054 1.427 . S
N1058 C1055 1.384 . S
N1059 C1051 1.427 . S
N1059 C1057 1.384 . S
H1060 C1066 0.930 . S
H1061 C1070 0.930 . S
H1062 C1075 0.929 . S
H1063 C1073 0.928 1_565 S
H1064 C1068 0.929 . S
H1065 C1074 0.929 . S
C1066 H1060 0.930 . S
C1066 C1067 1.367 1_565 S
C1066 C1074 1.378 . S
C1067 C1066 1.367 1_545 S
C1067 C1075 1.433 . S
C1068 H1064 0.929 . S
C1068 C1070 1.378 . S
C1068 C1072 1.350 . S
C1069 C1072 1.463 . S
C1069 C1074 1.350 1_545 S
C1069 N1077 1.427 . S
C1070 H1061 0.930 . S
C1070 C1068 1.378 . S
C1070 C1071 1.367 . S
C1071 C1070 1.367 . S
C1071 C1073 1.434 . S
C1072 C1068 1.350 . S
C1072 C1069 1.463 . S
C1072 N1076 1.427 1_545 S
C1073 H1063 0.928 1_545 S
C1073 C1071 1.434 . S
C1073 N1076 1.383 1_545 S
C1074 H1065 0.929 . S
C1074 C1066 1.378 . S
C1074 C1069 1.350 1_565 S
C1075 H1062 0.929 . S
C1075 C1067 1.433 . S
C1075 N1077 1.384 . S
N1076 C1072 1.427 1_565 S
N1076 C1073 1.383 1_565 S
N1077 C1069 1.427 . S
N1077 C1075 1.384 . S
H1078 C1084 0.930 . S
H1079 C1088 0.930 . S
H1080 C1093 0.929 . S
H1081 C1091 0.929 . S
H1082 C1086 0.929 . S
H1083 C1092 0.929 . S
C1084 H1078 0.930 . S
C1084 C1085 1.367 . S
C1084 C1092 1.378 . S
C1085 C1084 1.367 . S
C1085 C1093 1.433 . S
C1086 H1082 0.929 . S
C1086 C1088 1.378 . S
C1086 C1090 1.350 . S
C1087 C1090 1.463 . S
C1087 C1092 1.350 . S
C1087 N1095 1.427 . S
C1088 H1079 0.930 . S
C1088 C1086 1.378 . S
C1088 C1089 1.367 . S
C1089 C1088 1.367 . S
C1089 C1091 1.433 . S
C1090 C1086 1.350 . S
C1090 C1087 1.463 . S
C1090 N1094 1.427 . S
C1091 H1081 0.929 . S
C1091 C1089 1.433 . S
C1091 N1094 1.384 . S
C1092 H1083 0.929 . S
C1092 C1084 1.378 . S
C1092 C1087 1.350 . S
C1093 H1080 0.929 . S
C1093 C1085 1.433 . S
C1093 N1095 1.384 . S
N1094 C1090 1.427 . S
N1094 C1091 1.384 . S
N1095 C1087 1.427 . S
N1095 C1093 1.384 . S
H1096 C1102 0.930 . S
H1097 C1106 0.930 . S
H1098 C1111 0.901 1_565 S
H1099 C1109 0.929 . S
H1100 C1104 0.929 1_565 S
H1101 C1110 0.929 . S
C1102 H1096 0.930 . S
C1102 C1103 1.367 . S
C1102 C1110 1.378 . S
C1103 C1102 1.367 . S
C1103 C1111 1.458 . S
C1104 H1100 0.929 1_545 S
C1104 C1106 1.378 . S
C1104 C1108 1.350 . S
C1105 C1108 1.463 . S
C1105 C1110 1.350 . S
C1105 N1113 1.427 . S
C1106 H1097 0.930 . S
C1106 C1104 1.378 . S
C1106 C1107 1.367 . S
C1107 C1106 1.367 . S
C1107 C1109 1.433 . S
C1108 C1104 1.350 . S
C1108 C1105 1.463 . S
C1108 N1112 1.427 . S
C1109 H1099 0.929 . S
C1109 C1107 1.433 . S
C1109 N1112 1.384 . S
C1110 H1101 0.929 . S
C1110 C1102 1.378 . S
C1110 C1105 1.350 . S
C1111 H1098 0.901 1_545 S
C1111 C1103 1.458 . S
C1111 N1113 1.389 . S
N1112 C1108 1.427 . S
N1112 C1109 1.384 . S
N1113 C1105 1.427 . S
N1113 C1111 1.389 . S
H1114 C1120 0.930 . S
H1115 C1124 0.930 . S
H1116 C1129 0.929 . S
H1117 C1127 0.929 . S
H1118 C1122 0.929 . S
H1119 C1128 0.929 . S
C1120 H1114 0.930 . S
C1120 C1121 1.367 . S
C1120 C1128 1.378 . S
C1121 C1120 1.367 . S
C1121 C1129 1.433 . S
C1122 H1118 0.929 . S
C1122 C1124 1.378 . S
C1122 C1126 1.350 . S
C1123 C1126 1.463 . S
C1123 C1128 1.350 . S
C1123 N1131 1.427 . S
C1124 H1115 0.930 . S
C1124 C1122 1.378 . S
C1124 C1125 1.367 . S
C1125 C1124 1.367 . S
C1125 C1127 1.433 . S
C1126 C1122 1.350 . S
C1126 C1123 1.463 . S
C1126 N1130 1.427 . S
C1127 H1117 0.929 . S
C1127 C1125 1.433 . S
C1127 N1130 1.384 . S
C1128 H1119 0.929 . S
C1128 C1120 1.378 . S
C1128 C1123 1.350 . S
C1129 H1116 0.929 . S
C1129 C1121 1.433 . S
C1129 N1131 1.384 . S
N1130 C1126 1.427 . S
N1130 C1127 1.384 . S
N1131 C1123 1.427 . S
N1131 C1129 1.384 . S
H1132 C1138 0.930 . S
H1133 C1142 0.930 1_545 S
H1134 C1147 0.929 . S
H1135 C1145 0.929 . S
H1136 C1140 0.929 . S
H1137 C1146 0.929 . S
C1138 H1132 0.930 . S
C1138 C1139 1.367 1_565 S
C1138 C1146 1.378 . S
C1139 C1138 1.367 1_545 S
C1139 C1147 1.433 . S
C1140 H1136 0.929 . S
C1140 C1142 1.378 1_545 S
C1140 C1144 1.350 1_545 S
C1141 C1144 1.463 . S
C1141 C1146 1.350 . S
C1141 N1149 1.427 1_565 S
C1142 H1133 0.930 1_565 S
C1142 C1140 1.378 1_565 S
C1142 C1143 1.367 . S
C1143 C1142 1.367 . S
C1143 C1145 1.433 . S
C1144 C1140 1.350 1_565 S
C1144 C1141 1.463 . S
C1144 N1148 1.427 . S
C1145 H1135 0.929 . S
C1145 C1143 1.433 . S
C1145 N1148 1.384 . S
C1146 H1137 0.929 . S
C1146 C1138 1.378 . S
C1146 C1141 1.350 . S
C1147 H1134 0.929 . S
C1147 C1139 1.433 . S
C1147 N1149 1.384 . S
N1148 C1144 1.427 . S
N1148 C1145 1.384 . S
N1149 C1141 1.427 1_545 S
N1149 C1147 1.384 . S
H1150 C1156 0.930 . S
H1151 C1160 0.930 . S
H1152 C1165 0.929 . S
H1153 C1163 0.929 . S
H1154 C1158 0.929 . S
H1155 C1164 0.929 . S
C1156 H1150 0.930 . S
C1156 C1157 1.367 . S
C1156 C1164 1.378 . S
C1157 C1156 1.367 . S
C1157 C1165 1.433 . S
C1158 H1154 0.929 . S
C1158 C1160 1.378 . S
C1158 C1162 1.350 . S
C1159 C1162 1.463 . S
C1159 C1164 1.350 . S
C1159 N1167 1.427 . S
C1160 H1151 0.930 . S
C1160 C1158 1.378 . S
C1160 C1161 1.367 . S
C1161 C1160 1.367 . S
C1161 C1163 1.433 . S
C1162 C1158 1.350 . S
C1162 C1159 1.463 . S
C1162 N1166 1.427 . S
C1163 H1153 0.929 . S
C1163 C1161 1.433 . S
C1163 N1166 1.384 . S
C1164 H1155 0.929 . S
C1164 C1156 1.378 . S
C1164 C1159 1.350 . S
C1165 H1152 0.929 . S
C1165 C1157 1.433 . S
C1165 N1167 1.384 . S
N1166 C1162 1.427 . S
N1166 C1163 1.384 . S
N1167 C1159 1.427 . S
N1167 C1165 1.384 . S
H1168 C1174 0.930 . S
H1169 C1178 0.930 . S
H1170 C1183 0.929 1_556 S
H1171 C1181 0.929 . S
H1172 C1176 0.929 . S
H1173 C1182 0.929 . S
C1174 H1168 0.930 . S
C1174 C1175 1.367 . S
C1174 C1182 1.378 . S
C1175 C1174 1.367 . S
C1175 C1183 1.433 . S
C1176 H1172 0.929 . S
C1176 C1178 1.378 . S
C1176 C1180 1.350 1_556 S
C1177 C1180 1.463 . S
C1177 C1182 1.350 . S
C1177 N1185 1.427 . S
C1178 H1169 0.930 . S
C1178 C1176 1.378 . S
C1178 C1179 1.367 . S
C1179 C1178 1.367 . S
C1179 C1181 1.433 1_556 S
C1180 C1176 1.350 1_554 S
C1180 C1177 1.463 . S
C1180 N1184 1.427 . S
C1181 H1171 0.929 . S
C1181 C1179 1.433 1_554 S
C1181 N1184 1.384 . S
C1182 H1173 0.929 . S
C1182 C1174 1.378 . S
C1182 C1177 1.350 . S
C1183 H1170 0.929 1_554 S
C1183 C1175 1.433 . S
C1183 N1185 1.384 . S
N1184 C1180 1.427 . S
N1184 C1181 1.384 . S
N1185 C1177 1.427 . S
N1185 C1183 1.384 . S
H1186 C1192 0.930 . S
H1187 C1196 0.930 . S
H1188 C1201 0.929 . S
H1189 C1199 0.929 . S
H1190 C1194 0.929 . S
H1191 C1200 0.929 . S
C1192 H1186 0.930 . S
C1192 C1193 1.367 . S
C1192 C1200 1.378 . S
C1193 C1192 1.367 . S
C1193 C1201 1.433 . S
C1194 H1190 0.929 . S
C1194 C1196 1.378 . S
C1194 C1198 1.350 . S
C1195 C1198 1.463 . S
C1195 C1200 1.350 . S
C1195 N1203 1.427 . S
C1196 H1187 0.930 . S
C1196 C1194 1.378 . S
C1196 C1197 1.367 . S
C1197 C1196 1.367 . S
C1197 C1199 1.433 . S
C1198 C1194 1.350 . S
C1198 C1195 1.463 . S
C1198 N1202 1.427 . S
C1199 H1189 0.929 . S
C1199 C1197 1.433 . S
C1199 N1202 1.384 . S
C1200 H1191 0.929 . S
C1200 C1192 1.378 . S
C1200 C1195 1.350 . S
C1201 H1188 0.929 . S
C1201 C1193 1.433 . S
C1201 N1203 1.384 . S
N1202 C1198 1.427 . S
N1202 C1199 1.384 . S
N1203 C1195 1.427 . S
N1203 C1201 1.384 . S
H1204 C1210 0.930 . S
H1205 C1214 0.930 . S
H1206 C1219 0.929 . S
H1207 C1217 0.929 . S
H1208 C1212 0.929 . S
H1209 C1218 0.929 . S
C1210 H1204 0.930 . S
C1210 C1211 1.367 . S
C1210 C1218 1.378 . S
C1211 C1210 1.367 . S
C1211 C1219 1.433 . S
C1212 H1208 0.929 . S
C1212 C1214 1.378 . S
C1212 C1216 1.350 . S
C1213 C1216 1.463 . S
C1213 C1218 1.350 . S
C1213 N1221 1.427 . S
C1214 H1205 0.930 . S
C1214 C1212 1.378 . S
C1214 C1215 1.367 . S
C1215 C1214 1.367 . S
C1215 C1217 1.433 . S
C1216 C1212 1.350 . S
C1216 C1213 1.463 . S
C1216 N1220 1.427 . S
C1217 H1207 0.929 . S
C1217 C1215 1.433 . S
C1217 N1220 1.384 . S
C1218 H1209 0.929 . S
C1218 C1210 1.378 . S
C1218 C1213 1.350 . S
C1219 H1206 0.929 . S
C1219 C1211 1.433 . S
C1219 N1221 1.384 . S
N1220 C1216 1.427 . S
N1220 C1217 1.384 . S
N1221 C1213 1.427 . S
N1221 C1219 1.384 . S
H1222 C1228 0.930 . S
H1223 C1232 0.930 . S
H1224 C1237 0.929 . S
H1225 C1235 0.929 . S
H1226 C1230 0.929 . S
H1227 C1236 0.929 . S
C1228 H1222 0.930 . S
C1228 C1229 1.367 . S
C1228 C1236 1.378 . S
C1229 C1228 1.367 . S
C1229 C1237 1.433 . S
C1230 H1226 0.929 . S
C1230 C1232 1.378 . S
C1230 C1234 1.350 . S
C1231 C1234 1.463 . S
C1231 C1236 1.350 . S
C1231 N1239 1.427 . S
C1232 H1223 0.930 . S
C1232 C1230 1.378 . S
C1232 C1233 1.367 . S
C1233 C1232 1.367 . S
C1233 C1235 1.433 . S
C1234 C1230 1.350 . S
C1234 C1231 1.463 . S
C1234 N1238 1.427 . S
C1235 H1225 0.929 . S
C1235 C1233 1.433 . S
C1235 N1238 1.384 . S
C1236 H1227 0.929 . S
C1236 C1228 1.378 . S
C1236 C1231 1.350 . S
C1237 H1224 0.929 . S
C1237 C1229 1.433 . S
C1237 N1239 1.384 . S
N1238 C1234 1.427 . S
N1238 C1235 1.384 . S
N1239 C1231 1.427 . S
N1239 C1237 1.384 . S
H1240 C1246 0.930 . S
H1241 C1250 0.930 . S
H1242 C1255 0.929 . S
H1243 C1253 0.929 . S
H1244 C1248 0.929 . S
H1245 C1254 0.929 . S
C1246 H1240 0.930 . S
C1246 C1247 1.367 . S
C1246 C1254 1.378 . S
C1247 C1246 1.367 . S
C1247 C1255 1.433 . S
C1248 H1244 0.929 . S
C1248 C1250 1.378 . S
C1248 C1252 1.350 . S
C1249 C1252 1.463 . S
C1249 C1254 1.350 . S
C1249 N1257 1.427 . S
C1250 H1241 0.930 . S
C1250 C1248 1.378 . S
C1250 C1251 1.367 . S
C1251 C1250 1.367 . S
C1251 C1253 1.433 . S
C1252 C1248 1.350 . S
C1252 C1249 1.463 . S
C1252 N1256 1.427 . S
C1253 H1243 0.929 . S
C1253 C1251 1.433 . S
C1253 N1256 1.384 . S
C1254 H1245 0.929 . S
C1254 C1246 1.378 . S
C1254 C1249 1.350 . S
C1255 H1242 0.929 . S
C1255 C1247 1.433 . S
C1255 N1257 1.384 . S
N1256 C1252 1.427 . S
N1256 C1253 1.384 . S
N1257 C1249 1.427 . S
N1257 C1255 1.384 . S
H1258 C1264 0.930 . S
H1259 C1268 0.911 1_545 S
H1260 C1273 0.929 . S
H1261 C1271 0.929 . S
H1262 C1266 0.929 . S
H1263 C1272 0.929 . S
C1264 H1258 0.930 . S
C1264 C1265 1.367 . S
C1264 C1272 1.378 . S
C1265 C1264 1.367 . S
C1265 C1273 1.433 . S
C1266 H1262 0.929 . S
C1266 C1268 1.386 . S
C1266 C1270 1.350 . S
C1267 C1270 1.463 . S
C1267 C1272 1.350 . S
C1267 N1275 1.427 . S
C1268 H1259 0.911 1_565 S
C1268 C1266 1.386 . S
C1268 C1269 1.378 . S
C1269 C1268 1.378 . S
C1269 C1271 1.433 . S
C1270 C1266 1.350 . S
C1270 C1267 1.463 . S
C1270 N1274 1.427 . S
C1271 H1261 0.929 . S
C1271 C1269 1.433 . S
C1271 N1274 1.384 . S
C1272 H1263 0.929 . S
C1272 C1264 1.378 . S
C1272 C1267 1.350 . S
C1273 H1260 0.929 . S
C1273 C1265 1.433 . S
C1273 N1275 1.384 . S
N1274 C1270 1.427 . S
N1274 C1271 1.384 . S
N1275 C1267 1.427 . S
N1275 C1273 1.384 . S
H1276 C1282 0.930 . S
H1277 C1286 0.930 . S
H1278 C1291 0.929 . S
H1279 C1289 0.929 . S
H1280 C1284 0.929 . S
H1281 C1290 0.929 . S
C1282 H1276 0.930 . S
C1282 C1283 1.367 . S
C1282 C1290 1.378 . S
C1283 C1282 1.367 . S
C1283 C1291 1.433 . S
C1284 H1280 0.929 . S
C1284 C1286 1.378 . S
C1284 C1288 1.350 . S
C1285 C1288 1.463 . S
C1285 C1290 1.350 . S
C1285 N1293 1.427 . S
C1286 H1277 0.930 . S
C1286 C1284 1.378 . S
C1286 C1287 1.367 . S
C1287 C1286 1.367 . S
C1287 C1289 1.433 . S
C1288 C1284 1.350 . S
C1288 C1285 1.463 . S
C1288 N1292 1.427 . S
C1289 H1279 0.929 . S
C1289 C1287 1.433 . S
C1289 N1292 1.384 . S
C1290 H1281 0.929 . S
C1290 C1282 1.378 . S
C1290 C1285 1.350 . S
C1291 H1278 0.929 . S
C1291 C1283 1.433 . S
C1291 N1293 1.384 . S
N1292 C1288 1.427 . S
N1292 C1289 1.384 . S
N1293 C1285 1.427 . S
N1293 C1291 1.384 . S
H1294 C1300 0.930 . S
H1295 C1304 0.930 . S
H1296 C1309 0.929 . S
H1297 C1307 0.929 . S
H1298 C1302 0.929 . S
H1299 C1308 0.929 . S
C1300 H1294 0.930 . S
C1300 C1301 1.367 . S
C1300 C1308 1.378 . S
C1301 C1300 1.367 . S
C1301 C1309 1.433 . S
C1302 H1298 0.929 . S
C1302 C1304 1.378 . S
C1302 C1306 1.350 . S
C1303 C1306 1.463 . S
C1303 C1308 1.350 . S
C1303 N1311 1.427 . S
C1304 H1295 0.930 . S
C1304 C1302 1.378 . S
C1304 C1305 1.367 . S
C1305 C1304 1.367 . S
C1305 C1307 1.433 . S
C1306 C1302 1.350 . S
C1306 C1303 1.463 . S
C1306 N1310 1.427 . S
C1307 H1297 0.929 . S
C1307 C1305 1.433 . S
C1307 N1310 1.384 . S
C1308 H1299 0.929 . S
C1308 C1300 1.378 . S
C1308 C1303 1.350 . S
C1309 H1296 0.929 . S
C1309 C1301 1.433 . S
C1309 N1311 1.384 . S
N1310 C1306 1.427 . S
N1310 C1307 1.384 . S
N1311 C1303 1.427 . S
N1311 C1309 1.384 . S
H1312 C1318 0.930 . S
H1313 C1322 0.930 . S
H1314 C1327 0.929 . S
H1315 C1325 0.929 . S
H1316 C1320 0.929 1_655 S
H1317 C1326 0.929 . S
C1318 H1312 0.930 . S
C1318 C1319 1.367 . S
C1318 C1326 1.378 . S
C1319 C1318 1.367 . S
C1319 C1327 1.433 1_455 S
C1320 H1316 0.929 1_455 S
C1320 C1322 1.378 1_556 S
C1320 C1324 1.350 . S
C1321 C1324 1.463 . S
C1321 C1326 1.350 . S
C1321 N1329 1.427 1_455 S
C1322 H1313 0.930 . S
C1322 C1320 1.378 1_554 S
C1322 C1323 1.367 1_554 S
C1323 C1322 1.367 1_556 S
C1323 C1325 1.433 . S
C1324 C1320 1.350 . S
C1324 C1321 1.463 . S
C1324 N1328 1.427 . S
C1325 H1315 0.929 . S
C1325 C1323 1.433 . S
C1325 N1328 1.384 . S
C1326 H1317 0.929 . S
C1326 C1318 1.378 . S
C1326 C1321 1.350 . S
C1327 H1314 0.929 . S
C1327 C1319 1.433 1_655 S
C1327 N1329 1.384 . S
N1328 C1324 1.427 . S
N1328 C1325 1.384 . S
N1329 C1321 1.427 1_655 S
N1329 C1327 1.384 . S
H1330 C1336 0.930 . S
H1331 C1340 0.930 . S
H1332 C1345 0.929 . S
H1333 C1343 0.929 . S
H1334 C1338 0.929 . S
H1335 C1344 0.929 . S
C1336 H1330 0.930 . S
C1336 C1337 1.367 . S
C1336 C1344 1.378 . S
C1337 C1336 1.367 . S
C1337 C1345 1.433 . S
C1338 H1334 0.929 . S
C1338 C1340 1.378 . S
C1338 C1342 1.350 . S
C1339 C1342 1.463 . S
C1339 C1344 1.350 . S
C1339 N1347 1.427 . S
C1340 H1331 0.930 . S
C1340 C1338 1.378 . S
C1340 C1341 1.367 . S
C1341 C1340 1.367 . S
C1341 C1343 1.433 . S
C1342 C1338 1.350 . S
C1342 C1339 1.463 . S
C1342 N1346 1.427 . S
C1343 H1333 0.929 . S
C1343 C1341 1.433 . S
C1343 N1346 1.384 . S
C1344 H1335 0.929 . S
C1344 C1336 1.378 . S
C1344 C1339 1.350 . S
C1345 H1332 0.929 . S
C1345 C1337 1.433 . S
C1345 N1347 1.384 . S
N1346 C1342 1.427 . S
N1346 C1343 1.384 . S
N1347 C1339 1.427 . S
N1347 C1345 1.384 . S
H1348 C1354 0.930 . S
H1349 C1358 0.930 . S
H1350 C1363 0.929 . S
H1351 C1361 0.929 . S
H1352 C1356 0.929 . S
H1353 C1362 0.929 . S
C1354 H1348 0.930 . S
C1354 C1355 1.367 . S
C1354 C1362 1.378 . S
C1355 C1354 1.367 . S
C1355 C1363 1.433 . S
C1356 H1352 0.929 . S
C1356 C1358 1.378 . S
C1356 C1360 1.350 . S
C1357 C1360 1.463 . S
C1357 C1362 1.350 . S
C1357 N1365 1.427 . S
C1358 H1349 0.930 . S
C1358 C1356 1.378 . S
C1358 C1359 1.367 . S
C1359 C1358 1.367 . S
C1359 C1361 1.433 . S
C1360 C1356 1.350 . S
C1360 C1357 1.463 . S
C1360 N1364 1.427 . S
C1361 H1351 0.929 . S
C1361 C1359 1.433 . S
C1361 N1364 1.384 . S
C1362 H1353 0.929 . S
C1362 C1354 1.378 . S
C1362 C1357 1.350 . S
C1363 H1350 0.929 . S
C1363 C1355 1.433 . S
C1363 N1365 1.384 . S
N1364 C1360 1.427 . S
N1364 C1361 1.384 . S
N1365 C1357 1.427 . S
N1365 C1363 1.384 . S
H1366 C1372 0.930 . S
H1367 C1376 0.930 . S
H1368 C1381 0.929 . S
H1369 C1379 0.929 . S
H1370 C1374 0.929 . S
H1371 C1380 0.929 . S
C1372 H1366 0.930 . S
C1372 C1373 1.367 . S
C1372 C1380 1.378 . S
C1373 C1372 1.367 . S
C1373 C1381 1.433 . S
C1374 H1370 0.929 . S
C1374 C1376 1.378 . S
C1374 C1378 1.350 . S
C1375 C1378 1.463 . S
C1375 C1380 1.350 . S
C1375 N1383 1.427 . S
C1376 H1367 0.930 . S
C1376 C1374 1.378 . S
C1376 C1377 1.367 . S
C1377 C1376 1.367 . S
C1377 C1379 1.433 . S
C1378 C1374 1.350 . S
C1378 C1375 1.463 . S
C1378 N1382 1.427 . S
C1379 H1369 0.929 . S
C1379 C1377 1.433 . S
C1379 N1382 1.384 . S
C1380 H1371 0.929 . S
C1380 C1372 1.378 . S
C1380 C1375 1.350 . S
C1381 H1368 0.929 . S
C1381 C1373 1.433 . S
C1381 N1383 1.384 . S
N1382 C1378 1.427 . S
N1382 C1379 1.384 . S
N1383 C1375 1.427 . S
N1383 C1381 1.384 . S
H1384 C1390 0.930 . S
H1385 C1394 0.930 . S
H1386 C1399 0.929 . S
H1387 C1397 0.929 . S
H1388 C1392 0.929 . S
H1389 C1398 0.929 . S
C1390 H1384 0.930 . S
C1390 C1391 1.367 . S
C1390 C1398 1.378 . S
C1391 C1390 1.367 . S
C1391 C1399 1.433 . S
C1392 H1388 0.929 . S
C1392 C1394 1.378 . S
C1392 C1396 1.350 . S
C1393 C1396 1.463 . S
C1393 C1398 1.350 . S
C1393 N1401 1.427 . S
C1394 H1385 0.930 . S
C1394 C1392 1.378 . S
C1394 C1395 1.367 . S
C1395 C1394 1.367 . S
C1395 C1397 1.433 . S
C1396 C1392 1.350 . S
C1396 C1393 1.463 . S
C1396 N1400 1.427 . S
C1397 H1387 0.929 . S
C1397 C1395 1.433 . S
C1397 N1400 1.384 . S
C1398 H1389 0.929 . S
C1398 C1390 1.378 . S
C1398 C1393 1.350 . S
C1399 H1386 0.929 . S
C1399 C1391 1.433 . S
C1399 N1401 1.384 . S
N1400 C1396 1.427 . S
N1400 C1397 1.384 . S
N1401 C1393 1.427 . S
N1401 C1399 1.384 . S
H1402 C1408 0.930 . S
H1403 C1412 0.930 . S
H1404 C1417 0.929 . S
H1405 C1415 0.929 . S
H1406 C1410 0.929 . S
H1407 C1416 0.929 . S
C1408 H1402 0.930 . S
C1408 C1409 1.367 . S
C1408 C1416 1.378 . S
C1409 C1408 1.367 . S
C1409 C1417 1.433 . S
C1410 H1406 0.929 . S
C1410 C1412 1.378 . S
C1410 C1414 1.350 . S
C1411 C1414 1.463 . S
C1411 C1416 1.350 . S
C1411 N1419 1.427 . S
C1412 H1403 0.930 . S
C1412 C1410 1.378 . S
C1412 C1413 1.367 . S
C1413 C1412 1.367 . S
C1413 C1415 1.433 . S
C1414 C1410 1.350 . S
C1414 C1411 1.463 . S
C1414 N1418 1.427 . S
C1415 H1405 0.929 . S
C1415 C1413 1.433 . S
C1415 N1418 1.384 . S
C1416 H1407 0.929 . S
C1416 C1408 1.378 . S
C1416 C1411 1.350 . S
C1417 H1404 0.929 . S
C1417 C1409 1.433 . S
C1417 N1419 1.384 . S
N1418 C1414 1.427 . S
N1418 C1415 1.384 . S
N1419 C1411 1.427 . S
N1419 C1417 1.384 . S
H1420 C1426 0.930 . S
H1421 C1430 0.930 . S
H1422 C1435 0.929 . S
H1423 C1433 0.929 . S
H1424 C1428 0.929 . S
H1425 C1434 0.929 . S
C1426 H1420 0.930 . S
C1426 C1427 1.367 . S
C1426 C1434 1.378 . S
C1427 C1426 1.367 . S
C1427 C1435 1.433 . S
C1428 H1424 0.929 . S
C1428 C1430 1.378 . S
C1428 C1432 1.350 . S
C1429 C1432 1.463 . S
C1429 C1434 1.350 . S
C1429 N1437 1.427 . S
C1430 H1421 0.930 . S
C1430 C1428 1.378 . S
C1430 C1431 1.367 . S
C1431 C1430 1.367 . S
C1431 C1433 1.433 . S
C1432 C1428 1.350 . S
C1432 C1429 1.463 . S
C1432 N1436 1.427 . S
C1433 H1423 0.929 . S
C1433 C1431 1.433 . S
C1433 N1436 1.384 . S
C1434 H1425 0.929 . S
C1434 C1426 1.378 . S
C1434 C1429 1.350 . S
C1435 H1422 0.929 . S
C1435 C1427 1.433 . S
C1435 N1437 1.384 . S
N1436 C1432 1.427 . S
N1436 C1433 1.384 . S
N1437 C1429 1.427 . S
N1437 C1435 1.384 . S
H1438 C1444 0.930 . S
H1439 C1448 0.930 . S
H1440 C1453 0.929 . S
H1441 C1451 0.929 . S
H1442 C1446 0.929 . S
H1443 C1452 0.929 . S
C1444 H1438 0.930 . S
C1444 C1445 1.367 . S
C1444 C1452 1.378 . S
C1445 C1444 1.367 . S
C1445 C1453 1.433 . S
C1446 H1442 0.929 . S
C1446 C1448 1.378 . S
C1446 C1450 1.350 . S
C1447 C1450 1.463 . S
C1447 C1452 1.350 . S
C1447 N1455 1.427 . S
C1448 H1439 0.930 . S
C1448 C1446 1.378 . S
C1448 C1449 1.367 . S
C1449 C1448 1.367 . S
C1449 C1451 1.433 . S
C1450 C1446 1.350 . S
C1450 C1447 1.463 . S
C1450 N1454 1.427 . S
C1451 H1441 0.929 . S
C1451 C1449 1.433 . S
C1451 N1454 1.384 . S
C1452 H1443 0.929 . S
C1452 C1444 1.378 . S
C1452 C1447 1.350 . S
C1453 H1440 0.929 . S
C1453 C1445 1.433 . S
C1453 N1455 1.384 . S
N1454 C1450 1.427 . S
N1454 C1451 1.384 . S
N1455 C1447 1.427 . S
N1455 C1453 1.384 . S
H1456 C1462 0.930 . S
H1457 C1466 0.930 . S
H1458 C1471 0.929 . S
H1459 C1469 0.929 1_565 S
H1460 C1464 0.929 . S
H1461 C1470 0.929 . S
C1462 H1456 0.930 . S
C1462 C1463 1.367 1_565 S
C1462 C1470 1.378 . S
C1463 C1462 1.367 1_545 S
C1463 C1471 1.433 . S
C1464 H1460 0.929 . S
C1464 C1466 1.378 . S
C1464 C1468 1.350 . S
C1465 C1468 1.463 . S
C1465 C1470 1.350 1_545 S
C1465 N1473 1.427 . S
C1466 H1457 0.930 . S
C1466 C1464 1.378 . S
C1466 C1467 1.367 1_655 S
C1467 C1466 1.367 1_455 S
C1467 C1469 1.433 . S
C1468 C1464 1.350 . S
C1468 C1465 1.463 . S
C1468 N1472 1.427 . S
C1469 H1459 0.929 1_545 S
C1469 C1467 1.433 . S
C1469 N1472 1.384 1_455 S
C1470 H1461 0.929 . S
C1470 C1462 1.378 . S
C1470 C1465 1.350 1_565 S
C1471 H1458 0.929 . S
C1471 C1463 1.433 . S
C1471 N1473 1.384 . S
N1472 C1468 1.427 . S
N1472 C1469 1.384 1_655 S
N1473 C1465 1.427 . S
N1473 C1471 1.384 . S
H1474 C1480 0.930 . S
H1475 C1484 0.930 . S
H1476 C1489 0.929 . S
H1477 C1487 0.929 . S
H1478 C1482 0.929 . S
H1479 C1488 0.929 . S
C1480 H1474 0.930 . S
C1480 C1481 1.367 . S
C1480 C1488 1.378 . S
C1481 C1480 1.367 . S
C1481 C1489 1.433 . S
C1482 H1478 0.929 . S
C1482 C1484 1.378 . S
C1482 C1486 1.350 . S
C1483 C1486 1.463 . S
C1483 C1488 1.350 . S
C1483 N1491 1.427 . S
C1484 H1475 0.930 . S
C1484 C1482 1.378 . S
C1484 C1485 1.367 . S
C1485 C1484 1.367 . S
C1485 C1487 1.433 . S
C1486 C1482 1.350 . S
C1486 C1483 1.463 . S
C1486 N1490 1.427 . S
C1487 H1477 0.929 . S
C1487 C1485 1.433 . S
C1487 N1490 1.384 . S
C1488 H1479 0.929 . S
C1488 C1480 1.378 . S
C1488 C1483 1.350 . S
C1489 H1476 0.929 . S
C1489 C1481 1.433 . S
C1489 N1491 1.384 . S
N1490 C1486 1.427 . S
N1490 C1487 1.384 . S
N1491 C1483 1.427 . S
N1491 C1489 1.384 . S
H1492 C1498 0.930 . S
H1493 C1502 0.930 . S
H1494 C1507 0.929 . S
H1495 C1505 0.929 . S
H1496 C1500 0.929 . S
H1497 C1506 0.929 . S
C1498 H1492 0.930 . S
C1498 C1499 1.367 . S
C1498 C1506 1.378 . S
C1499 C1498 1.367 . S
C1499 C1507 1.433 1_545 S
C1500 H1496 0.929 . S
C1500 C1502 1.378 . S
C1500 C1504 1.350 1_565 S
C1501 C1504 1.463 . S
C1501 C1506 1.350 . S
C1501 N1509 1.427 1_545 S
C1502 H1493 0.930 . S
C1502 C1500 1.378 . S
C1502 C1503 1.348 1_565 S
C1503 C1502 1.348 1_545 S
C1503 C1505 1.456 . S
C1504 C1500 1.350 1_545 S
C1504 C1501 1.463 . S
C1504 N1508 1.427 . S
C1505 H1495 0.929 . S
C1505 C1503 1.456 . S
C1505 N1508 1.384 . S
C1506 H1497 0.929 . S
C1506 C1498 1.378 . S
C1506 C1501 1.350 . S
C1507 H1494 0.929 . S
C1507 C1499 1.433 1_565 S
C1507 N1509 1.384 . S
N1508 C1504 1.427 . S
N1508 C1505 1.384 . S
N1509 C1501 1.427 1_565 S
N1509 C1507 1.384 . S
H1510 C1516 0.930 . S
H1511 C1520 0.930 . S
H1512 C1525 0.929 . S
H1513 C1523 0.929 . S
H1514 C1518 0.929 . S
H1515 C1524 0.929 . S
C1516 H1510 0.930 . S
C1516 C1517 1.367 . S
C1516 C1524 1.378 . S
C1517 C1516 1.367 . S
C1517 C1525 1.433 . S
C1518 H1514 0.929 . S
C1518 C1520 1.378 . S
C1518 C1522 1.350 . S
C1519 C1522 1.463 . S
C1519 C1524 1.350 . S
C1519 N1527 1.427 . S
C1520 H1511 0.930 . S
C1520 C1518 1.378 . S
C1520 C1521 1.367 . S
C1521 C1520 1.367 . S
C1521 C1523 1.433 . S
C1522 C1518 1.350 . S
C1522 C1519 1.463 . S
C1522 N1526 1.427 . S
C1523 H1513 0.929 . S
C1523 C1521 1.433 . S
C1523 N1526 1.384 . S
C1524 H1515 0.929 . S
C1524 C1516 1.378 . S
C1524 C1519 1.350 . S
C1525 H1512 0.929 . S
C1525 C1517 1.433 . S
C1525 N1527 1.384 . S
N1526 C1522 1.427 . S
N1526 C1523 1.384 . S
N1527 C1519 1.427 . S
N1527 C1525 1.384 . S
H1528 C1534 0.930 . S
H1529 C1538 0.930 . S
H1530 C1543 0.929 . S
H1531 C1541 0.929 . S
H1532 C1536 0.929 . S
H1533 C1542 0.929 . S
C1534 H1528 0.930 . S
C1534 C1535 1.367 . S
C1534 C1542 1.378 . S
C1535 C1534 1.367 . S
C1535 C1543 1.433 1_545 S
C1536 H1532 0.929 . S
C1536 C1538 1.378 . S
C1536 C1540 1.350 . S
C1537 C1540 1.463 . S
C1537 C1542 1.350 1_565 S
C1537 N1545 1.427 . S
C1538 H1529 0.930 . S
C1538 C1536 1.378 . S
C1538 C1539 1.367 . S
C1539 C1538 1.367 . S
C1539 C1541 1.433 1_565 S
C1540 C1536 1.350 . S
C1540 C1537 1.463 . S
C1540 N1544 1.427 1_565 S
C1541 H1531 0.929 . S
C1541 C1539 1.433 1_545 S
C1541 N1544 1.384 . S
C1542 H1533 0.929 . S
C1542 C1534 1.378 . S
C1542 C1537 1.350 1_545 S
C1543 H1530 0.929 . S
C1543 C1535 1.433 1_565 S
C1543 N1545 1.384 . S
N1544 C1540 1.427 1_545 S
N1544 C1541 1.384 . S
N1545 C1537 1.427 . S
N1545 C1543 1.384 . S
H1546 C1552 0.930 . S
H1547 C1556 0.930 . S
H1548 C1561 0.929 . S
H1549 C1559 0.929 . S
H1550 C1554 0.929 . S
H1551 C1560 0.929 . S
C1552 H1546 0.930 . S
C1552 C1553 1.367 . S
C1552 C1560 1.378 . S
C1553 C1552 1.367 . S
C1553 C1561 1.433 . S
C1554 H1550 0.929 . S
C1554 C1556 1.378 . S
C1554 C1558 1.350 . S
C1555 C1558 1.463 . S
C1555 C1560 1.350 . S
C1555 N1563 1.427 . S
C1556 H1547 0.930 . S
C1556 C1554 1.378 . S
C1556 C1557 1.367 . S
C1557 C1556 1.367 . S
C1557 C1559 1.433 . S
C1558 C1554 1.350 . S
C1558 C1555 1.463 . S
C1558 N1562 1.427 . S
C1559 H1549 0.929 . S
C1559 C1557 1.433 . S
C1559 N1562 1.384 . S
C1560 H1551 0.929 . S
C1560 C1552 1.378 . S
C1560 C1555 1.350 . S
C1561 H1548 0.929 . S
C1561 C1553 1.433 . S
C1561 N1563 1.384 . S
N1562 C1558 1.427 . S
N1562 C1559 1.384 . S
N1563 C1555 1.427 . S
N1563 C1561 1.384 . S
H1564 C1570 0.930 . S
H1565 C1574 0.930 . S
H1566 C1579 0.929 . S
H1567 C1577 0.929 . S
H1568 C1572 0.929 . S
H1569 C1578 0.929 . S
C1570 H1564 0.930 . S
C1570 C1571 1.367 . S
C1570 C1578 1.378 . S
C1571 C1570 1.367 . S
C1571 C1579 1.433 . S
C1572 H1568 0.929 . S
C1572 C1574 1.378 . S
C1572 C1576 1.350 . S
C1573 C1576 1.463 . S
C1573 C1578 1.350 . S
C1573 N1581 1.427 . S
C1574 H1565 0.930 . S
C1574 C1572 1.378 . S
C1574 C1575 1.367 . S
C1575 C1574 1.367 . S
C1575 C1577 1.433 . S
C1576 C1572 1.350 . S
C1576 C1573 1.463 . S
C1576 N1580 1.427 . S
C1577 H1567 0.929 . S
C1577 C1575 1.433 . S
C1577 N1580 1.384 . S
C1578 H1569 0.929 . S
C1578 C1570 1.378 . S
C1578 C1573 1.350 . S
C1579 H1566 0.929 . S
C1579 C1571 1.433 . S
C1579 N1581 1.384 . S
N1580 C1576 1.427 . S
N1580 C1577 1.384 . S
N1581 C1573 1.427 . S
N1581 C1579 1.384 . S
H1582 C1588 0.930 . S
H1583 C1592 0.930 . S
H1584 C1597 0.929 . S
H1585 C1595 0.929 . S
H1586 C1590 0.929 . S
H1587 C1596 0.929 . S
C1588 H1582 0.930 . S
C1588 C1589 1.367 . S
C1588 C1596 1.378 . S
C1589 C1588 1.367 . S
C1589 C1597 1.433 . S
C1590 H1586 0.929 . S
C1590 C1592 1.378 . S
C1590 C1594 1.350 . S
C1591 C1594 1.463 . S
C1591 C1596 1.350 . S
C1591 N1599 1.427 . S
C1592 H1583 0.930 . S
C1592 C1590 1.378 . S
C1592 C1593 1.367 . S
C1593 C1592 1.367 . S
C1593 C1595 1.433 . S
C1594 C1590 1.350 . S
C1594 C1591 1.463 . S
C1594 N1598 1.427 . S
C1595 H1585 0.929 . S
C1595 C1593 1.433 . S
C1595 N1598 1.384 . S
C1596 H1587 0.929 . S
C1596 C1588 1.378 . S
C1596 C1591 1.350 . S
C1597 H1584 0.929 . S
C1597 C1589 1.433 . S
C1597 N1599 1.384 . S
N1598 C1594 1.427 . S
N1598 C1595 1.384 . S
N1599 C1591 1.427 . S
N1599 C1597 1.384 . S
H1600 C1606 0.930 . S
H1601 C1610 0.930 . S
H1602 C1615 0.929 . S
H1603 C1613 0.929 1_545 S
H1604 C1608 0.929 . S
H1605 C1614 0.929 . S
C1606 H1600 0.930 . S
C1606 C1607 1.367 . S
C1606 C1614 1.378 . S
C1607 C1606 1.367 . S
C1607 C1615 1.433 . S
C1608 H1604 0.929 . S
C1608 C1610 1.378 . S
C1608 C1612 1.350 . S
C1609 C1612 1.463 . S
C1609 C1614 1.350 . S
C1609 N1617 1.427 . S
C1610 H1601 0.930 . S
C1610 C1608 1.378 . S
C1610 C1611 1.367 . S
C1611 C1610 1.367 . S
C1611 C1613 1.433 . S
C1612 C1608 1.350 . S
C1612 C1609 1.463 . S
C1612 N1616 1.427 . S
C1613 H1603 0.929 1_565 S
C1613 C1611 1.433 . S
C1613 N1616 1.384 . S
C1614 H1605 0.929 . S
C1614 C1606 1.378 . S
C1614 C1609 1.350 . S
C1615 H1602 0.929 . S
C1615 C1607 1.433 . S
C1615 N1617 1.384 . S
N1616 C1612 1.427 . S
N1616 C1613 1.384 . S
N1617 C1609 1.427 . S
N1617 C1615 1.384 . S
H1618 C1624 0.930 . S
H1619 C1628 0.930 . S
H1620 C1633 0.929 . S
H1621 C1631 0.929 . S
H1622 C1626 0.929 . S
H1623 C1632 0.929 . S
C1624 H1618 0.930 . S
C1624 C1625 1.367 . S
C1624 C1632 1.378 . S
C1625 C1624 1.367 . S
C1625 C1633 1.433 1_554 S
C1626 H1622 0.929 . S
C1626 C1628 1.378 . S
C1626 C1630 1.350 1_556 S
C1627 C1630 1.463 . S
C1627 C1632 1.350 . S
C1627 N1635 1.427 1_554 S
C1628 H1619 0.930 . S
C1628 C1626 1.378 . S
C1628 C1629 1.367 1_556 S
C1629 C1628 1.367 1_554 S
C1629 C1631 1.433 . S
C1630 C1626 1.350 1_554 S
C1630 C1627 1.463 . S
C1630 N1634 1.427 . S
C1631 H1621 0.929 . S
C1631 C1629 1.433 . S
C1631 N1634 1.384 . S
C1632 H1623 0.929 . S
C1632 C1624 1.378 . S
C1632 C1627 1.350 . S
C1633 H1620 0.929 . S
C1633 C1625 1.433 1_556 S
C1633 N1635 1.384 . S
N1634 C1630 1.427 . S
N1634 C1631 1.384 . S
N1635 C1627 1.427 1_556 S
N1635 C1633 1.384 . S
H1636 C1642 0.930 . S
H1637 C1646 0.930 . S
H1638 C1651 0.929 . S
H1639 C1649 0.929 . S
H1640 C1644 0.929 . S
H1641 C1650 0.929 . S
C1642 H1636 0.930 . S
C1642 C1643 1.367 . S
C1642 C1650 1.378 . S
C1643 C1642 1.367 . S
C1643 C1651 1.433 . S
C1644 H1640 0.929 . S
C1644 C1646 1.378 . S
C1644 C1648 1.350 . S
C1645 C1648 1.463 . S
C1645 C1650 1.350 . S
C1645 N1653 1.427 . S
C1646 H1637 0.930 . S
C1646 C1644 1.378 . S
C1646 C1647 1.367 . S
C1647 C1646 1.367 . S
C1647 C1649 1.433 . S
C1648 C1644 1.350 . S
C1648 C1645 1.463 . S
C1648 N1652 1.427 . S
C1649 H1639 0.929 . S
C1649 C1647 1.433 . S
C1649 N1652 1.384 . S
C1650 H1641 0.929 . S
C1650 C1642 1.378 . S
C1650 C1645 1.350 . S
C1651 H1638 0.929 . S
C1651 C1643 1.433 . S
C1651 N1653 1.384 . S
N1652 C1648 1.427 . S
N1652 C1649 1.384 . S
N1653 C1645 1.427 . S
N1653 C1651 1.384 . S
H1654 C1660 0.930 . S
H1655 C1664 0.930 . S
H1656 C1669 0.929 . S
H1657 C1667 0.929 . S
H1658 C1662 0.929 . S
H1659 C1668 0.929 . S
C1660 H1654 0.930 . S
C1660 C1661 1.367 . S
C1660 C1668 1.378 . S
C1661 C1660 1.367 . S
C1661 C1669 1.433 . S
C1662 H1658 0.929 . S
C1662 C1664 1.378 . S
C1662 C1666 1.350 . S
C1663 C1666 1.463 . S
C1663 C1668 1.350 . S
C1663 N1671 1.427 . S
C1664 H1655 0.930 . S
C1664 C1662 1.378 . S
C1664 C1665 1.367 . S
C1665 C1664 1.367 . S
C1665 C1667 1.433 . S
C1666 C1662 1.350 . S
C1666 C1663 1.463 . S
C1666 N1670 1.427 . S
C1667 H1657 0.929 . S
C1667 C1665 1.433 . S
C1667 N1670 1.384 . S
C1668 H1659 0.929 . S
C1668 C1660 1.378 . S
C1668 C1663 1.350 . S
C1669 H1656 0.929 . S
C1669 C1661 1.433 . S
C1669 N1671 1.384 . S
N1670 C1666 1.427 . S
N1670 C1667 1.384 . S
N1671 C1663 1.427 . S
N1671 C1669 1.384 . S
H1672 C1678 0.930 . S
H1673 C1682 0.930 . S
H1674 C1687 0.929 . S
H1675 C1685 0.929 . S
H1676 C1680 0.929 . S
H1677 C1686 0.929 . S
C1678 H1672 0.930 . S
C1678 C1679 1.367 . S
C1678 C1686 1.378 . S
C1679 C1678 1.367 . S
C1679 C1687 1.433 . S
C1680 H1676 0.929 . S
C1680 C1682 1.378 . S
C1680 C1684 1.350 . S
C1681 C1684 1.463 . S
C1681 C1686 1.350 . S
C1681 N1689 1.427 . S
C1682 H1673 0.930 . S
C1682 C1680 1.378 . S
C1682 C1683 1.367 . S
C1683 C1682 1.367 . S
C1683 C1685 1.433 . S
C1684 C1680 1.350 . S
C1684 C1681 1.463 . S
C1684 N1688 1.427 . S
C1685 H1675 0.929 . S
C1685 C1683 1.433 . S
C1685 N1688 1.384 . S
C1686 H1677 0.929 . S
C1686 C1678 1.378 . S
C1686 C1681 1.350 . S
C1687 H1674 0.929 . S
C1687 C1679 1.433 . S
C1687 N1689 1.384 . S
N1688 C1684 1.427 . S
N1688 C1685 1.384 . S
N1689 C1681 1.427 . S
N1689 C1687 1.384 . S
H1690 C1696 0.930 . S
H1691 C1700 0.930 . S
H1692 C1705 0.929 . S
H1693 C1703 0.929 . S
H1694 C1698 0.929 . S
H1695 C1704 0.929 . S
C1696 H1690 0.930 . S
C1696 C1697 1.367 . S
C1696 C1704 1.378 . S
C1697 C1696 1.367 . S
C1697 C1705 1.433 . S
C1698 H1694 0.929 . S
C1698 C1700 1.378 . S
C1698 C1702 1.350 . S
C1699 C1702 1.463 . S
C1699 C1704 1.350 . S
C1699 N1707 1.427 . S
C1700 H1691 0.930 . S
C1700 C1698 1.378 . S
C1700 C1701 1.367 . S
C1701 C1700 1.367 . S
C1701 C1703 1.433 . S
C1702 C1698 1.350 . S
C1702 C1699 1.463 . S
C1702 N1706 1.427 . S
C1703 H1693 0.929 . S
C1703 C1701 1.433 . S
C1703 N1706 1.384 . S
C1704 H1695 0.929 . S
C1704 C1696 1.378 . S
C1704 C1699 1.350 . S
C1705 H1692 0.929 . S
C1705 C1697 1.433 . S
C1705 N1707 1.384 . S
N1706 C1702 1.427 . S
N1706 C1703 1.384 . S
N1707 C1699 1.427 . S
N1707 C1705 1.384 . S
H1708 C1714 0.930 . S
H1709 C1718 0.930 . S
H1710 C1723 0.929 . S
H1711 C1721 0.929 . S
H1712 C1716 0.929 . S
H1713 C1722 0.929 . S
C1714 H1708 0.930 . S
C1714 C1715 1.367 . S
C1714 C1722 1.378 . S
C1715 C1714 1.367 . S
C1715 C1723 1.433 . S
C1716 H1712 0.929 . S
C1716 C1718 1.378 . S
C1716 C1720 1.350 . S
C1717 C1720 1.463 . S
C1717 C1722 1.350 . S
C1717 N1725 1.427 . S
C1718 H1709 0.930 . S
C1718 C1716 1.378 . S
C1718 C1719 1.367 . S
C1719 C1718 1.367 . S
C1719 C1721 1.433 . S
C1720 C1716 1.350 . S
C1720 C1717 1.463 . S
C1720 N1724 1.427 . S
C1721 H1711 0.929 . S
C1721 C1719 1.433 . S
C1721 N1724 1.384 . S
C1722 H1713 0.929 . S
C1722 C1714 1.378 . S
C1722 C1717 1.350 . S
C1723 H1710 0.929 . S
C1723 C1715 1.433 . S
C1723 N1725 1.384 . S
N1724 C1720 1.427 . S
N1724 C1721 1.384 . S
N1725 C1717 1.427 . S
N1725 C1723 1.384 . S
H1726 C1732 0.930 . S
H1727 C1736 0.930 . S
H1728 C1741 0.929 . S
H1729 C1739 0.929 . S
H1730 C1734 0.929 . S
H1731 C1740 0.929 . S
C1732 H1726 0.930 . S
C1732 C1733 1.367 . S
C1732 C1740 1.378 . S
C1733 C1732 1.367 . S
C1733 C1741 1.433 . S
C1734 H1730 0.929 . S
C1734 C1736 1.378 . S
C1734 C1738 1.350 . S
C1735 C1738 1.463 . S
C1735 C1740 1.350 . S
C1735 N1743 1.427 . S
C1736 H1727 0.930 . S
C1736 C1734 1.378 . S
C1736 C1737 1.367 . S
C1737 C1736 1.367 . S
C1737 C1739 1.433 . S
C1738 C1734 1.350 . S
C1738 C1735 1.463 . S
C1738 N1742 1.427 . S
C1739 H1729 0.929 . S
C1739 C1737 1.433 . S
C1739 N1742 1.384 . S
C1740 H1731 0.929 . S
C1740 C1732 1.378 . S
C1740 C1735 1.350 . S
C1741 H1728 0.929 . S
C1741 C1733 1.433 . S
C1741 N1743 1.384 . S
N1742 C1738 1.427 . S
N1742 C1739 1.384 . S
N1743 C1735 1.427 . S
N1743 C1741 1.384 . S
H1744 C1750 0.930 . S
H1745 C1754 0.930 . S
H1746 C1759 0.929 . S
H1747 C1757 0.929 . S
H1748 C1752 0.929 . S
H1749 C1758 0.929 . S
C1750 H1744 0.930 . S
C1750 C1751 1.367 . S
C1750 C1758 1.378 . S
C1751 C1750 1.367 . S
C1751 C1759 1.433 . S
C1752 H1748 0.929 . S
C1752 C1754 1.378 . S
C1752 C1756 1.350 . S
C1753 C1756 1.463 . S
C1753 C1758 1.350 . S
C1753 N1761 1.427 . S
C1754 H1745 0.930 . S
C1754 C1752 1.378 . S
C1754 C1755 1.367 . S
C1755 C1754 1.367 . S
C1755 C1757 1.433 . S
C1756 C1752 1.350 . S
C1756 C1753 1.463 . S
C1756 N1760 1.427 . S
C1757 H1747 0.929 . S
C1757 C1755 1.433 . S
C1757 N1760 1.384 . S
C1758 H1749 0.929 . S
C1758 C1750 1.378 . S
C1758 C1753 1.350 . S
C1759 H1746 0.929 . S
C1759 C1751 1.433 . S
C1759 N1761 1.384 . S
N1760 C1756 1.427 . S
N1760 C1757 1.384 . S
N1761 C1753 1.427 . S
N1761 C1759 1.384 . S
H1762 C1768 0.930 . S
H1763 C1772 0.930 . S
H1764 C1777 0.929 . S
H1765 C1775 0.929 . S
H1766 C1770 0.929 . S
H1767 C1776 0.929 . S
C1768 H1762 0.930 . S
C1768 C1769 1.367 . S
C1768 C1776 1.378 . S
C1769 C1768 1.367 . S
C1769 C1777 1.433 . S
C1770 H1766 0.929 . S
C1770 C1772 1.378 . S
C1770 C1774 1.350 . S
C1771 C1774 1.463 . S
C1771 C1776 1.350 . S
C1771 N1779 1.427 . S
C1772 H1763 0.930 . S
C1772 C1770 1.378 . S
C1772 C1773 1.367 . S
C1773 C1772 1.367 . S
C1773 C1775 1.433 . S
C1774 C1770 1.350 . S
C1774 C1771 1.463 . S
C1774 N1778 1.427 . S
C1775 H1765 0.929 . S
C1775 C1773 1.433 . S
C1775 N1778 1.384 . S
C1776 H1767 0.929 . S
C1776 C1768 1.378 . S
C1776 C1771 1.350 . S
C1777 H1764 0.929 . S
C1777 C1769 1.433 . S
C1777 N1779 1.384 . S
N1778 C1774 1.427 . S
N1778 C1775 1.384 . S
N1779 C1771 1.427 . S
N1779 C1777 1.384 . S
H1780 C1786 0.930 . S
H1781 C1790 0.930 . S
H1782 C1795 0.929 . S
H1783 C1793 0.929 . S
H1784 C1788 0.929 . S
H1785 C1794 0.929 . S
C1786 H1780 0.930 . S
C1786 C1787 1.367 . S
C1786 C1794 1.378 . S
C1787 C1786 1.367 . S
C1787 C1795 1.433 . S
C1788 H1784 0.929 . S
C1788 C1790 1.378 . S
C1788 C1792 1.350 . S
C1789 C1792 1.463 . S
C1789 C1794 1.350 . S
C1789 N1797 1.427 . S
C1790 H1781 0.930 . S
C1790 C1788 1.378 . S
C1790 C1791 1.367 . S
C1791 C1790 1.367 . S
C1791 C1793 1.433 . S
C1792 C1788 1.350 . S
C1792 C1789 1.463 . S
C1792 N1796 1.427 . S
C1793 H1783 0.929 . S
C1793 C1791 1.433 . S
C1793 N1796 1.384 . S
C1794 H1785 0.929 . S
C1794 C1786 1.378 . S
C1794 C1789 1.350 . S
C1795 H1782 0.929 . S
C1795 C1787 1.433 . S
C1795 N1797 1.384 . S
N1796 C1792 1.427 . S
N1796 C1793 1.384 . S
N1797 C1789 1.427 . S
N1797 C1795 1.384 . S
H1798 C1804 0.930 . S
H1799 C1808 0.930 . S
H1800 C1813 0.929 . S
H1801 C1811 0.929 . S
H1802 C1806 0.929 . S
H1803 C1812 0.929 . S
C1804 H1798 0.930 . S
C1804 C1805 1.367 . S
C1804 C1812 1.378 . S
C1805 C1804 1.367 . S
C1805 C1813 1.433 . S
C1806 H1802 0.929 . S
C1806 C1808 1.378 . S
C1806 C1810 1.350 . S
C1807 C1810 1.463 . S
C1807 C1812 1.350 . S
C1807 N1815 1.427 . S
C1808 H1799 0.930 . S
C1808 C1806 1.378 . S
C1808 C1809 1.367 . S
C1809 C1808 1.367 . S
C1809 C1811 1.433 . S
C1810 C1806 1.350 . S
C1810 C1807 1.463 . S
C1810 N1814 1.427 . S
C1811 H1801 0.929 . S
C1811 C1809 1.433 . S
C1811 N1814 1.384 . S
C1812 H1803 0.929 . S
C1812 C1804 1.378 . S
C1812 C1807 1.350 . S
C1813 H1800 0.929 . S
C1813 C1805 1.433 . S
C1813 N1815 1.384 . S
N1814 C1810 1.427 . S
N1814 C1811 1.384 . S
N1815 C1807 1.427 . S
N1815 C1813 1.384 . S
H1816 C1822 0.930 . S
H1817 C1826 0.930 . S
H1818 C1831 0.929 . S
H1819 C1829 0.929 . S
H1820 C1824 0.929 . S
H1821 C1830 0.929 . S
C1822 H1816 0.930 . S
C1822 C1823 1.367 . S
C1822 C1830 1.378 . S
C1823 C1822 1.367 . S
C1823 C1831 1.433 . S
C1824 H1820 0.929 . S
C1824 C1826 1.378 . S
C1824 C1828 1.350 . S
C1825 C1828 1.463 . S
C1825 C1830 1.350 . S
C1825 N1833 1.427 . S
C1826 H1817 0.930 . S
C1826 C1824 1.378 . S
C1826 C1827 1.367 . S
C1827 C1826 1.367 . S
C1827 C1829 1.433 1_556 S
C1828 C1824 1.350 . S
C1828 C1825 1.463 . S
C1828 N1832 1.427 . S
C1829 H1819 0.929 . S
C1829 C1827 1.433 1_554 S
C1829 N1832 1.384 1_554 S
C1830 H1821 0.929 . S
C1830 C1822 1.378 . S
C1830 C1825 1.350 . S
C1831 H1818 0.929 . S
C1831 C1823 1.433 . S
C1831 N1833 1.384 . S
N1832 C1828 1.427 . S
N1832 C1829 1.384 1_556 S
N1833 C1825 1.427 . S
N1833 C1831 1.384 . S
H1834 C1840 0.930 . S
H1835 C1844 0.930 . S
H1836 C1849 0.929 . S
H1837 C1847 0.929 . S
H1838 C1842 0.929 . S
H1839 C1848 0.929 . S
C1840 H1834 0.930 . S
C1840 C1841 1.367 1_655 S
C1840 C1848 1.378 . S
C1841 C1840 1.367 1_455 S
C1841 C1849 1.433 . S
C1842 H1838 0.929 . S
C1842 C1844 1.378 . S
C1842 C1846 1.350 . S
C1843 C1846 1.463 . S
C1843 C1848 1.350 . S
C1843 N1851 1.427 . S
C1844 H1835 0.930 . S
C1844 C1842 1.378 . S
C1844 C1845 1.367 . S
C1845 C1844 1.367 . S
C1845 C1847 1.433 . S
C1846 C1842 1.350 . S
C1846 C1843 1.463 . S
C1846 N1850 1.427 . S
C1847 H1837 0.929 . S
C1847 C1845 1.433 . S
C1847 N1850 1.384 . S
C1848 H1839 0.929 . S
C1848 C1840 1.378 . S
C1848 C1843 1.350 . S
C1849 H1836 0.929 . S
C1849 C1841 1.433 . S
C1849 N1851 1.384 1_455 S
N1850 C1846 1.427 . S
N1850 C1847 1.384 . S
N1851 C1843 1.427 . S
N1851 C1849 1.384 1_655 S
H1852 C1858 0.930 . S
H1853 C1862 0.930 . S
H1854 C1867 0.929 . S
H1855 C1865 0.929 . S
H1856 C1860 0.929 . S
H1857 C1866 0.929 . S
C1858 H1852 0.930 . S
C1858 C1859 1.367 . S
C1858 C1866 1.378 . S
C1859 C1858 1.367 . S
C1859 C1867 1.433 . S
C1860 H1856 0.929 . S
C1860 C1862 1.378 . S
C1860 C1864 1.350 . S
C1861 C1864 1.463 . S
C1861 C1866 1.350 . S
C1861 N1869 1.427 . S
C1862 H1853 0.930 . S
C1862 C1860 1.378 . S
C1862 C1863 1.367 . S
C1863 C1862 1.367 . S
C1863 C1865 1.433 . S
C1864 C1860 1.350 . S
C1864 C1861 1.463 . S
C1864 N1868 1.427 . S
C1865 H1855 0.929 . S
C1865 C1863 1.433 . S
C1865 N1868 1.384 . S
C1866 H1857 0.929 . S
C1866 C1858 1.378 . S
C1866 C1861 1.350 . S
C1867 H1854 0.929 . S
C1867 C1859 1.433 . S
C1867 N1869 1.384 . S
N1868 C1864 1.427 . S
N1868 C1865 1.384 . S
N1869 C1861 1.427 . S
N1869 C1867 1.384 . S
H1870 C1876 0.930 . S
H1871 C1880 0.930 . S
H1872 C1885 0.929 . S
H1873 C1883 0.929 . S
H1874 C1878 0.929 . S
H1875 C1884 0.929 . S
C1876 H1870 0.930 . S
C1876 C1877 1.367 . S
C1876 C1884 1.378 . S
C1877 C1876 1.367 . S
C1877 C1885 1.433 . S
C1878 H1874 0.929 . S
C1878 C1880 1.378 . S
C1878 C1882 1.350 . S
C1879 C1882 1.463 . S
C1879 C1884 1.350 . S
C1879 N1887 1.427 . S
C1880 H1871 0.930 . S
C1880 C1878 1.378 . S
C1880 C1881 1.367 . S
C1881 C1880 1.367 . S
C1881 C1883 1.433 . S
C1882 C1878 1.350 . S
C1882 C1879 1.463 . S
C1882 N1886 1.427 . S
C1883 H1873 0.929 . S
C1883 C1881 1.433 . S
C1883 N1886 1.384 . S
C1884 H1875 0.929 . S
C1884 C1876 1.378 . S
C1884 C1879 1.350 . S
C1885 H1872 0.929 . S
C1885 C1877 1.433 . S
C1885 N1887 1.384 . S
N1886 C1882 1.427 . S
N1886 C1883 1.384 . S
N1887 C1879 1.427 . S
N1887 C1885 1.384 . S
H1888 C1894 0.930 . S
H1889 C1898 0.930 . S
H1890 C1903 0.929 . S
H1891 C1901 0.929 . S
H1892 C1896 0.929 . S
H1893 C1902 0.929 . S
C1894 H1888 0.930 . S
C1894 C1895 1.367 . S
C1894 C1902 1.378 . S
C1895 C1894 1.367 . S
C1895 C1903 1.433 . S
C1896 H1892 0.929 . S
C1896 C1898 1.378 . S
C1896 C1900 1.350 . S
C1897 C1900 1.463 . S
C1897 C1902 1.350 . S
C1897 N1905 1.427 . S
C1898 H1889 0.930 . S
C1898 C1896 1.378 . S
C1898 C1899 1.367 . S
C1899 C1898 1.367 . S
C1899 C1901 1.433 . S
C1900 C1896 1.350 . S
C1900 C1897 1.463 . S
C1900 N1904 1.427 . S
C1901 H1891 0.929 . S
C1901 C1899 1.433 . S
C1901 N1904 1.384 . S
C1902 H1893 0.929 . S
C1902 C1894 1.378 . S
C1902 C1897 1.350 . S
C1903 H1890 0.929 . S
C1903 C1895 1.433 . S
C1903 N1905 1.384 . S
N1904 C1900 1.427 . S
N1904 C1901 1.384 . S
N1905 C1897 1.427 . S
N1905 C1903 1.384 . S
H1906 C1912 0.930 . S
H1907 C1916 0.930 . S
H1908 C1921 0.929 . S
H1909 C1919 0.929 . S
H1910 C1914 0.929 . S
H1911 C1920 0.929 . S
C1912 H1906 0.930 . S
C1912 C1913 1.367 . S
C1912 C1920 1.378 . S
C1913 C1912 1.367 . S
C1913 C1921 1.433 . S
C1914 H1910 0.929 . S
C1914 C1916 1.378 . S
C1914 C1918 1.350 . S
C1915 C1918 1.463 . S
C1915 C1920 1.350 . S
C1915 N1923 1.427 . S
C1916 H1907 0.930 . S
C1916 C1914 1.378 . S
C1916 C1917 1.367 . S
C1917 C1916 1.367 . S
C1917 C1919 1.433 . S
C1918 C1914 1.350 . S
C1918 C1915 1.463 . S
C1918 N1922 1.427 . S
C1919 H1909 0.929 . S
C1919 C1917 1.433 . S
C1919 N1922 1.384 . S
C1920 H1911 0.929 . S
C1920 C1912 1.378 . S
C1920 C1915 1.350 . S
C1921 H1908 0.929 . S
C1921 C1913 1.433 . S
C1921 N1923 1.384 . S
N1922 C1918 1.427 . S
N1922 C1919 1.384 . S
N1923 C1915 1.427 . S
N1923 C1921 1.384 . S
H1924 C1930 0.930 . S
H1925 C1934 0.930 . S
H1926 C1939 0.929 . S
H1927 C1937 0.929 . S
H1928 C1932 0.929 . S
H1929 C1938 0.929 . S
C1930 H1924 0.930 . S
C1930 C1931 1.367 . S
C1930 C1938 1.378 . S
C1931 C1930 1.367 . S
C1931 C1939 1.433 . S
C1932 H1928 0.929 . S
C1932 C1934 1.378 . S
C1932 C1936 1.350 . S
C1933 C1936 1.463 . S
C1933 C1938 1.350 . S
C1933 N1941 1.427 . S
C1934 H1925 0.930 . S
C1934 C1932 1.378 . S
C1934 C1935 1.367 1_655 S
C1935 C1934 1.367 1_455 S
C1935 C1937 1.433 . S
C1936 C1932 1.350 . S
C1936 C1933 1.463 . S
C1936 N1940 1.427 . S
C1937 H1927 0.929 . S
C1937 C1935 1.433 . S
C1937 N1940 1.384 1_455 S
C1938 H1929 0.929 . S
C1938 C1930 1.378 . S
C1938 C1933 1.350 . S
C1939 H1926 0.929 . S
C1939 C1931 1.433 . S
C1939 N1941 1.384 . S
N1940 C1936 1.427 . S
N1940 C1937 1.384 1_655 S
N1941 C1933 1.427 . S
N1941 C1939 1.384 . S
H1942 C1948 0.930 . S
H1943 C1952 0.930 . S
H1944 C1957 0.929 . S
H1945 C1955 0.929 . S
H1946 C1950 0.929 . S
H1947 C1956 0.929 . S
C1948 H1942 0.930 . S
C1948 C1949 1.367 . S
C1948 C1956 1.378 . S
C1949 C1948 1.367 . S
C1949 C1957 1.433 . S
C1950 H1946 0.929 . S
C1950 C1952 1.378 . S
C1950 C1954 1.350 . S
C1951 C1954 1.463 . S
C1951 C1956 1.350 . S
C1951 N1959 1.427 . S
C1952 H1943 0.930 . S
C1952 C1950 1.378 . S
C1952 C1953 1.367 . S
C1953 C1952 1.367 . S
C1953 C1955 1.433 . S
C1954 C1950 1.350 . S
C1954 C1951 1.463 . S
C1954 N1958 1.427 . S
C1955 H1945 0.929 . S
C1955 C1953 1.433 . S
C1955 N1958 1.384 . S
C1956 H1947 0.929 . S
C1956 C1948 1.378 . S
C1956 C1951 1.350 . S
C1957 H1944 0.929 . S
C1957 C1949 1.433 . S
C1957 N1959 1.384 . S
N1958 C1954 1.427 . S
N1958 C1955 1.384 . S
N1959 C1951 1.427 . S
N1959 C1957 1.384 . S
H1960 C1966 0.930 . S
H1961 C1970 0.930 . S
H1962 C1975 0.929 . S
H1963 C1973 0.929 . S
H1964 C1968 0.929 . S
H1965 C1974 0.929 . S
C1966 H1960 0.930 . S
C1966 C1967 1.367 . S
C1966 C1974 1.378 . S
C1967 C1966 1.367 . S
C1967 C1975 1.433 . S
C1968 H1964 0.929 . S
C1968 C1970 1.378 . S
C1968 C1972 1.350 . S
C1969 C1972 1.463 . S
C1969 C1974 1.350 . S
C1969 N1977 1.427 . S
C1970 H1961 0.930 . S
C1970 C1968 1.378 . S
C1970 C1971 1.367 . S
C1971 C1970 1.367 . S
C1971 C1973 1.433 . S
C1972 C1968 1.350 . S
C1972 C1969 1.463 . S
C1972 N1976 1.427 . S
C1973 H1963 0.929 . S
C1973 C1971 1.433 . S
C1973 N1976 1.384 . S
C1974 H1965 0.929 . S
C1974 C1966 1.378 . S
C1974 C1969 1.350 . S
C1975 H1962 0.929 . S
C1975 C1967 1.433 . S
C1975 N1977 1.384 . S
N1976 C1972 1.427 . S
N1976 C1973 1.384 . S
N1977 C1969 1.427 . S
N1977 C1975 1.384 . S
H1978 C1984 0.930 . S
H1979 C1988 0.930 . S
H1980 C1993 0.929 . S
H1981 C1991 0.929 . S
H1982 C1986 0.929 . S
H1983 C1992 0.929 . S
C1984 H1978 0.930 . S
C1984 C1985 1.367 . S
C1984 C1992 1.378 . S
C1985 C1984 1.367 . S
C1985 C1993 1.433 . S
C1986 H1982 0.929 . S
C1986 C1988 1.378 . S
C1986 C1990 1.350 . S
C1987 C1990 1.463 . S
C1987 C1992 1.350 . S
C1987 N1995 1.427 . S
C1988 H1979 0.930 . S
C1988 C1986 1.378 . S
C1988 C1989 1.367 . S
C1989 C1988 1.367 . S
C1989 C1991 1.433 . S
C1990 C1986 1.350 . S
C1990 C1987 1.463 . S
C1990 N1994 1.427 . S
C1991 H1981 0.929 . S
C1991 C1989 1.433 . S
C1991 N1994 1.384 . S
C1992 H1983 0.929 . S
C1992 C1984 1.378 . S
C1992 C1987 1.350 . S
C1993 H1980 0.929 . S
C1993 C1985 1.433 . S
C1993 N1995 1.384 . S
N1994 C1990 1.427 . S
N1994 C1991 1.384 . S
N1995 C1987 1.427 . S
N1995 C1993 1.384 . S
H1996 C2002 0.930 . S
H1997 C2006 0.930 . S
H1998 C2011 0.929 . S
H1999 C2009 0.929 . S
H2000 C2004 0.929 . S
H2001 C2010 0.929 . S
C2002 H1996 0.930 . S
C2002 C2003 1.367 . S
C2002 C2010 1.378 . S
C2003 C2002 1.367 . S
C2003 C2011 1.433 . S
C2004 H2000 0.929 . S
C2004 C2006 1.378 . S
C2004 C2008 1.350 . S
C2005 C2008 1.463 . S
C2005 C2010 1.350 . S
C2005 N2013 1.427 . S
C2006 H1997 0.930 . S
C2006 C2004 1.378 . S
C2006 C2007 1.367 . S
C2007 C2006 1.367 . S
C2007 C2009 1.433 . S
C2008 C2004 1.350 . S
C2008 C2005 1.463 . S
C2008 N2012 1.427 . S
C2009 H1999 0.929 . S
C2009 C2007 1.433 . S
C2009 N2012 1.384 . S
C2010 H2001 0.929 . S
C2010 C2002 1.378 . S
C2010 C2005 1.350 . S
C2011 H1998 0.929 . S
C2011 C2003 1.433 . S
C2011 N2013 1.384 . S
N2012 C2008 1.427 . S
N2012 C2009 1.384 . S
N2013 C2005 1.427 . S
N2013 C2011 1.384 . S
H2014 C2020 0.930 . S
H2015 C2024 0.930 . S
H2016 C2029 0.929 . S
H2017 C2027 0.929 . S
H2018 C2022 0.929 . S
H2019 C2028 0.929 . S
C2020 H2014 0.930 . S
C2020 C2021 1.367 . S
C2020 C2028 1.378 . S
C2021 C2020 1.367 . S
C2021 C2029 1.433 . S
C2022 H2018 0.929 . S
C2022 C2024 1.378 . S
C2022 C2026 1.350 . S
C2023 C2026 1.463 . S
C2023 C2028 1.350 . S
C2023 N2031 1.427 . S
C2024 H2015 0.930 . S
C2024 C2022 1.378 . S
C2024 C2025 1.367 . S
C2025 C2024 1.367 . S
C2025 C2027 1.433 . S
C2026 C2022 1.350 . S
C2026 C2023 1.463 . S
C2026 N2030 1.427 . S
C2027 H2017 0.929 . S
C2027 C2025 1.433 . S
C2027 N2030 1.384 . S
C2028 H2019 0.929 . S
C2028 C2020 1.378 . S
C2028 C2023 1.350 . S
C2029 H2016 0.929 . S
C2029 C2021 1.433 . S
C2029 N2031 1.384 . S
N2030 C2026 1.427 . S
N2030 C2027 1.384 . S
N2031 C2023 1.427 . S
N2031 C2029 1.384 . S
H2032 C2038 0.930 . S
H2033 C2042 0.930 . S
H2034 C2047 0.929 . S
H2035 C2045 0.929 . S
H2036 C2040 0.929 . S
H2037 C2046 0.929 . S
C2038 H2032 0.930 . S
C2038 C2039 1.367 . S
C2038 C2046 1.378 . S
C2039 C2038 1.367 . S
C2039 C2047 1.433 . S
C2040 H2036 0.929 . S
C2040 C2042 1.378 . S
C2040 C2044 1.350 . S
C2041 C2044 1.463 . S
C2041 C2046 1.350 . S
C2041 N2049 1.427 . S
C2042 H2033 0.930 . S
C2042 C2040 1.378 . S
C2042 C2043 1.367 . S
C2043 C2042 1.367 . S
C2043 C2045 1.433 . S
C2044 C2040 1.350 . S
C2044 C2041 1.463 . S
C2044 N2048 1.427 . S
C2045 H2035 0.929 . S
C2045 C2043 1.433 . S
C2045 N2048 1.384 . S
C2046 H2037 0.929 . S
C2046 C2038 1.378 . S
C2046 C2041 1.350 . S
C2047 H2034 0.929 . S
C2047 C2039 1.433 . S
C2047 N2049 1.384 . S
N2048 C2044 1.427 . S
N2048 C2045 1.384 . S
N2049 C2041 1.427 . S
N2049 C2047 1.384 . S
H2050 C2056 0.930 . S
H2051 C2060 0.930 . S
H2052 C2065 0.929 . S
H2053 C2063 0.929 . S
H2054 C2058 0.929 . S
H2055 C2064 0.929 . S
C2056 H2050 0.930 . S
C2056 C2057 1.367 . S
C2056 C2064 1.378 . S
C2057 C2056 1.367 . S
C2057 C2065 1.433 . S
C2058 H2054 0.929 . S
C2058 C2060 1.378 . S
C2058 C2062 1.350 . S
C2059 C2062 1.463 . S
C2059 C2064 1.350 . S
C2059 N2067 1.427 . S
C2060 H2051 0.930 . S
C2060 C2058 1.378 . S
C2060 C2061 1.367 . S
C2061 C2060 1.367 . S
C2061 C2063 1.433 . S
C2062 C2058 1.350 . S
C2062 C2059 1.463 . S
C2062 N2066 1.427 . S
C2063 H2053 0.929 . S
C2063 C2061 1.433 . S
C2063 N2066 1.384 . S
C2064 H2055 0.929 . S
C2064 C2056 1.378 . S
C2064 C2059 1.350 . S
C2065 H2052 0.929 . S
C2065 C2057 1.433 . S
C2065 N2067 1.384 . S
N2066 C2062 1.427 . S
N2066 C2063 1.384 . S
N2067 C2059 1.427 . S
N2067 C2065 1.384 . S
H2068 C2074 0.930 . S
H2069 C2078 0.930 . S
H2070 C2083 0.929 . S
H2071 C2081 0.929 . S
H2072 C2076 0.929 . S
H2073 C2082 0.929 . S
C2074 H2068 0.930 . S
C2074 C2075 1.367 . S
C2074 C2082 1.378 . S
C2075 C2074 1.367 . S
C2075 C2083 1.433 . S
C2076 H2072 0.929 . S
C2076 C2078 1.378 . S
C2076 C2080 1.350 . S
C2077 C2080 1.463 . S
C2077 C2082 1.350 . S
C2077 N2085 1.427 . S
C2078 H2069 0.930 . S
C2078 C2076 1.378 . S
C2078 C2079 1.367 . S
C2079 C2078 1.367 . S
C2079 C2081 1.433 . S
C2080 C2076 1.350 . S
C2080 C2077 1.463 . S
C2080 N2084 1.427 . S
C2081 H2071 0.929 . S
C2081 C2079 1.433 . S
C2081 N2084 1.384 . S
C2082 H2073 0.929 . S
C2082 C2074 1.378 . S
C2082 C2077 1.350 . S
C2083 H2070 0.929 . S
C2083 C2075 1.433 . S
C2083 N2085 1.384 . S
N2084 C2080 1.427 . S
N2084 C2081 1.384 . S
N2085 C2077 1.427 . S
N2085 C2083 1.384 . S
H2086 C2092 0.930 . S
H2087 C2096 0.968 . S
H2088 C2101 0.929 . S
H2089 C2099 0.929 . S
H2090 C2094 0.929 . S
H2091 C2100 0.929 . S
C2092 H2086 0.930 . S
C2092 C2093 1.367 . S
C2092 C2100 1.378 . S
C2093 C2092 1.367 . S
C2093 C2101 1.433 . S
C2094 H2090 0.929 . S
C2094 C2096 1.378 . S
C2094 C2098 1.350 . S
C2095 C2098 1.463 . S
C2095 C2100 1.350 . S
C2095 N2103 1.427 . S
C2096 H2087 0.968 . S
C2096 C2094 1.378 . S
C2096 C2097 1.367 . S
C2097 C2096 1.367 . S
C2097 C2099 1.433 . S
C2098 C2094 1.350 . S
C2098 C2095 1.463 . S
C2098 N2102 1.427 . S
C2099 H2089 0.929 . S
C2099 C2097 1.433 . S
C2099 N2102 1.384 . S
C2100 H2091 0.929 . S
C2100 C2092 1.378 . S
C2100 C2095 1.350 . S
C2101 H2088 0.929 . S
C2101 C2093 1.433 . S
C2101 N2103 1.384 . S
N2102 C2098 1.427 . S
N2102 C2099 1.384 . S
N2103 C2095 1.427 . S
N2103 C2101 1.384 . S
H2104 C2110 0.930 . S
H2105 C2114 0.930 . S
H2106 C2119 0.929 . S
H2107 C2117 0.929 . S
H2108 C2112 0.929 . S
H2109 C2118 0.929 . S
C2110 H2104 0.930 . S
C2110 C2111 1.367 . S
C2110 C2118 1.378 . S
C2111 C2110 1.367 . S
C2111 C2119 1.433 . S
C2112 H2108 0.929 . S
C2112 C2114 1.378 . S
C2112 C2116 1.350 . S
C2113 C2116 1.463 . S
C2113 C2118 1.350 . S
C2113 N2121 1.427 . S
C2114 H2105 0.930 . S
C2114 C2112 1.378 . S
C2114 C2115 1.367 . S
C2115 C2114 1.367 . S
C2115 C2117 1.433 . S
C2116 C2112 1.350 . S
C2116 C2113 1.463 . S
C2116 N2120 1.427 . S
C2117 H2107 0.929 . S
C2117 C2115 1.433 . S
C2117 N2120 1.384 . S
C2118 H2109 0.929 . S
C2118 C2110 1.378 . S
C2118 C2113 1.350 . S
C2119 H2106 0.929 . S
C2119 C2111 1.433 . S
C2119 N2121 1.384 . S
N2120 C2116 1.427 . S
N2120 C2117 1.384 . S
N2121 C2113 1.427 . S
N2121 C2119 1.384 . S
H2122 C2128 0.930 . S
H2123 C2132 0.930 . S
H2124 C2137 0.929 . S
H2125 C2135 0.923 1_556 S
H2126 C2130 0.929 . S
H2127 C2136 0.929 . S
C2128 H2122 0.930 . S
C2128 C2129 1.367 . S
C2128 C2136 1.378 . S
C2129 C2128 1.367 . S
C2129 C2137 1.433 . S
C2130 H2126 0.929 . S
C2130 C2132 1.378 . S
C2130 C2134 1.350 . S
C2131 C2134 1.463 . S
C2131 C2136 1.350 . S
C2131 N2139 1.427 . S
C2132 H2123 0.930 . S
C2132 C2130 1.378 . S
C2132 C2133 1.367 . S
C2133 C2132 1.367 . S
C2133 C2135 1.433 . S
C2134 C2130 1.350 . S
C2134 C2131 1.463 . S
C2134 N2138 1.427 . S
C2135 H2125 0.923 1_554 S
C2135 C2133 1.433 . S
C2135 N2138 1.384 . S
C2136 H2127 0.929 . S
C2136 C2128 1.378 . S
C2136 C2131 1.350 . S
C2137 H2124 0.929 . S
C2137 C2129 1.433 . S
C2137 N2139 1.384 . S
N2138 C2134 1.427 . S
N2138 C2135 1.384 . S
N2139 C2131 1.427 . S
N2139 C2137 1.384 . S
H2140 C2146 0.930 . S
H2141 C2150 0.930 . S
H2142 C2155 0.929 . S
H2143 C2153 0.929 . S
H2144 C2148 0.929 . S
H2145 C2154 0.929 . S
C2146 H2140 0.930 . S
C2146 C2147 1.367 . S
C2146 C2154 1.378 . S
C2147 C2146 1.367 . S
C2147 C2155 1.433 . S
C2148 H2144 0.929 . S
C2148 C2150 1.378 . S
C2148 C2152 1.350 . S
C2149 C2152 1.463 . S
C2149 C2154 1.350 . S
C2149 N2157 1.427 . S
C2150 H2141 0.930 . S
C2150 C2148 1.378 . S
C2150 C2151 1.367 . S
C2151 C2150 1.367 . S
C2151 C2153 1.433 . S
C2152 C2148 1.350 . S
C2152 C2149 1.463 . S
C2152 N2156 1.427 . S
C2153 H2143 0.929 . S
C2153 C2151 1.433 . S
C2153 N2156 1.384 . S
C2154 H2145 0.929 . S
C2154 C2146 1.378 . S
C2154 C2149 1.350 . S
C2155 H2142 0.929 . S
C2155 C2147 1.433 . S
C2155 N2157 1.384 . S
N2156 C2152 1.427 . S
N2156 C2153 1.384 . S
N2157 C2149 1.427 . S
N2157 C2155 1.384 . S
H2158 C2164 0.930 . S
H2159 C2168 0.930 . S
H2160 C2173 0.929 . S
H2161 C2171 0.929 . S
H2162 C2166 0.929 . S
H2163 C2172 0.929 . S
C2164 H2158 0.930 . S
C2164 C2165 1.367 . S
C2164 C2172 1.378 . S
C2165 C2164 1.367 . S
C2165 C2173 1.433 . S
C2166 H2162 0.929 . S
C2166 C2168 1.378 . S
C2166 C2170 1.350 . S
C2167 C2170 1.463 . S
C2167 C2172 1.350 . S
C2167 N2175 1.427 . S
C2168 H2159 0.930 . S
C2168 C2166 1.378 . S
C2168 C2169 1.367 . S
C2169 C2168 1.367 . S
C2169 C2171 1.433 . S
C2170 C2166 1.350 . S
C2170 C2167 1.463 . S
C2170 N2174 1.427 . S
C2171 H2161 0.929 . S
C2171 C2169 1.433 . S
C2171 N2174 1.384 . S
C2172 H2163 0.929 . S
C2172 C2164 1.378 . S
C2172 C2167 1.350 . S
C2173 H2160 0.929 . S
C2173 C2165 1.433 . S
C2173 N2175 1.384 . S
N2174 C2170 1.427 . S
N2174 C2171 1.384 . S
N2175 C2167 1.427 . S
N2175 C2173 1.384 . S
H2176 C2182 0.930 . S
H2177 C2186 0.930 . S
H2178 C2191 0.929 . S
H2179 C2189 0.929 . S
H2180 C2184 0.929 . S
H2181 C2190 0.929 . S
C2182 H2176 0.930 . S
C2182 C2183 1.367 . S
C2182 C2190 1.378 . S
C2183 C2182 1.367 . S
C2183 C2191 1.433 . S
C2184 H2180 0.929 . S
C2184 C2186 1.378 . S
C2184 C2188 1.350 . S
C2185 C2188 1.463 . S
C2185 C2190 1.350 . S
C2185 N2193 1.427 . S
C2186 H2177 0.930 . S
C2186 C2184 1.378 . S
C2186 C2187 1.367 . S
C2187 C2186 1.367 . S
C2187 C2189 1.433 . S
C2188 C2184 1.350 . S
C2188 C2185 1.463 . S
C2188 N2192 1.427 . S
C2189 H2179 0.929 . S
C2189 C2187 1.433 . S
C2189 N2192 1.384 . S
C2190 H2181 0.929 . S
C2190 C2182 1.378 . S
C2190 C2185 1.350 . S
C2191 H2178 0.929 . S
C2191 C2183 1.433 . S
C2191 N2193 1.384 . S
N2192 C2188 1.427 . S
N2192 C2189 1.384 . S
N2193 C2185 1.427 . S
N2193 C2191 1.384 . S
H2194 C2200 0.930 . S
H2195 C2204 0.930 . S
H2196 C2209 0.929 . S
H2197 C2207 0.929 . S
H2198 C2202 0.929 . S
H2199 C2208 0.929 . S
C2200 H2194 0.930 . S
C2200 C2201 1.367 . S
C2200 C2208 1.378 . S
C2201 C2200 1.367 . S
C2201 C2209 1.433 . S
C2202 H2198 0.929 . S
C2202 C2204 1.378 . S
C2202 C2206 1.350 . S
C2203 C2206 1.463 . S
C2203 C2208 1.350 . S
C2203 N2211 1.427 . S
C2204 H2195 0.930 . S
C2204 C2202 1.378 . S
C2204 C2205 1.367 . S
C2205 C2204 1.367 . S
C2205 C2207 1.433 . S
C2206 C2202 1.350 . S
C2206 C2203 1.463 . S
C2206 N2210 1.427 . S
C2207 H2197 0.929 . S
C2207 C2205 1.433 . S
C2207 N2210 1.384 . S
C2208 H2199 0.929 . S
C2208 C2200 1.378 . S
C2208 C2203 1.350 . S
C2209 H2196 0.929 . S
C2209 C2201 1.433 . S
C2209 N2211 1.384 . S
N2210 C2206 1.427 . S
N2210 C2207 1.384 . S
N2211 C2203 1.427 . S
N2211 C2209 1.384 . S
H2212 C2218 0.930 . S
H2213 C2222 0.930 . S
H2214 C2227 0.929 . S
H2215 C2225 0.929 1_554 S
H2216 C2220 0.929 . S
H2217 C2226 0.929 . S
C2218 H2212 0.930 . S
C2218 C2219 1.367 . S
C2218 C2226 1.378 . S
C2219 C2218 1.367 . S
C2219 C2227 1.433 1_455 S
C2220 H2216 0.929 . S
C2220 C2222 1.378 . S
C2220 C2224 1.350 . S
C2221 C2224 1.465 . S
C2221 C2226 1.343 1_655 S
C2221 N2229 1.433 . S
C2222 H2213 0.930 . S
C2222 C2220 1.378 . S
C2222 C2223 1.367 . S
C2223 C2222 1.367 . S
C2223 C2225 1.433 1_655 S
C2224 C2220 1.350 . S
C2224 C2221 1.465 . S
C2224 N2228 1.427 1_655 S
C2225 H2215 0.929 1_556 S
C2225 C2223 1.433 1_455 S
C2225 N2228 1.384 . S
C2226 H2217 0.929 . S
C2226 C2218 1.378 . S
C2226 C2221 1.343 1_455 S
C2227 H2214 0.929 . S
C2227 C2219 1.433 1_655 S
C2227 N2229 1.384 . S
N2228 C2224 1.427 1_455 S
N2228 C2225 1.384 . S
N2229 C2221 1.433 . S
N2229 C2227 1.384 . S
H2230 C2236 0.930 . S
H2231 C2240 0.930 . S
H2232 C2245 0.929 . S
H2233 C2243 0.929 . S
H2234 C2238 0.929 . S
H2235 C2244 0.929 . S
C2236 H2230 0.930 . S
C2236 C2237 1.367 . S
C2236 C2244 1.378 . S
C2237 C2236 1.367 . S
C2237 C2245 1.433 . S
C2238 H2234 0.929 . S
C2238 C2240 1.378 . S
C2238 C2242 1.350 . S
C2239 C2242 1.463 . S
C2239 C2244 1.350 . S
C2239 N2247 1.427 . S
C2240 H2231 0.930 . S
C2240 C2238 1.378 . S
C2240 C2241 1.367 . S
C2241 C2240 1.367 . S
C2241 C2243 1.433 . S
C2242 C2238 1.350 . S
C2242 C2239 1.463 . S
C2242 N2246 1.427 . S
C2243 H2233 0.929 . S
C2243 C2241 1.433 . S
C2243 N2246 1.384 . S
C2244 H2235 0.929 . S
C2244 C2236 1.378 . S
C2244 C2239 1.350 . S
C2245 H2232 0.929 . S
C2245 C2237 1.433 . S
C2245 N2247 1.384 . S
N2246 C2242 1.427 . S
N2246 C2243 1.384 . S
N2247 C2239 1.427 . S
N2247 C2245 1.384 . S
H2248 C2254 0.930 . S
H2249 C2258 0.930 . S
H2250 C2263 0.929 . S
H2251 C2261 0.929 . S
H2252 C2256 0.929 . S
H2253 C2262 0.929 . S
C2254 H2248 0.930 . S
C2254 C2255 1.367 . S
C2254 C2262 1.378 . S
C2255 C2254 1.367 . S
C2255 C2263 1.433 . S
C2256 H2252 0.929 . S
C2256 C2258 1.378 . S
C2256 C2260 1.350 . S
C2257 C2260 1.463 . S
C2257 C2262 1.350 . S
C2257 N2265 1.427 . S
C2258 H2249 0.930 . S
C2258 C2256 1.378 . S
C2258 C2259 1.367 . S
C2259 C2258 1.367 . S
C2259 C2261 1.433 . S
C2260 C2256 1.350 . S
C2260 C2257 1.463 . S
C2260 N2264 1.427 . S
C2261 H2251 0.929 . S
C2261 C2259 1.433 . S
C2261 N2264 1.384 . S
C2262 H2253 0.929 . S
C2262 C2254 1.378 . S
C2262 C2257 1.350 . S
C2263 H2250 0.929 . S
C2263 C2255 1.433 . S
C2263 N2265 1.384 . S
N2264 C2260 1.427 . S
N2264 C2261 1.384 . S
N2265 C2257 1.427 . S
N2265 C2263 1.384 . S
H2266 C2272 0.930 . S
H2267 C2276 0.930 . S
H2268 C2281 0.929 . S
H2269 C2279 0.929 . S
H2270 C2274 0.929 . S
H2271 C2280 0.929 . S
C2272 H2266 0.930 . S
C2272 C2273 1.367 . S
C2272 C2280 1.378 . S
C2273 C2272 1.367 . S
C2273 C2281 1.433 . S
C2274 H2270 0.929 . S
C2274 C2276 1.378 . S
C2274 C2278 1.350 . S
C2275 C2278 1.463 . S
C2275 C2280 1.350 . S
C2275 N2283 1.427 . S
C2276 H2267 0.930 . S
C2276 C2274 1.378 . S
C2276 C2277 1.367 . S
C2277 C2276 1.367 . S
C2277 C2279 1.433 . S
C2278 C2274 1.350 . S
C2278 C2275 1.463 . S
C2278 N2282 1.427 . S
C2279 H2269 0.929 . S
C2279 C2277 1.433 . S
C2279 N2282 1.384 . S
C2280 H2271 0.929 . S
C2280 C2272 1.378 . S
C2280 C2275 1.350 . S
C2281 H2268 0.929 . S
C2281 C2273 1.433 . S
C2281 N2283 1.384 . S
N2282 C2278 1.427 . S
N2282 C2279 1.384 . S
N2283 C2275 1.427 . S
N2283 C2281 1.384 . S
H2284 C2290 0.930 . S
H2285 C2294 0.930 1_655 S
H2286 C2299 0.929 . S
H2287 C2297 0.929 . S
H2288 C2292 0.902 1_655 S
H2289 C2298 0.929 . S
C2290 H2284 0.930 . S
C2290 C2291 1.367 . S
C2290 C2298 1.378 . S
C2291 C2290 1.367 . S
C2291 C2299 1.433 . S
C2292 H2288 0.902 1_455 S
C2292 C2294 1.378 . S
C2292 C2296 1.350 . S
C2293 C2296 1.463 . S
C2293 C2298 1.350 . S
C2293 N2301 1.427 . S
C2294 H2285 0.930 1_455 S
C2294 C2292 1.378 . S
C2294 C2295 1.367 . S
C2295 C2294 1.367 . S
C2295 C2297 1.433 . S
C2296 C2292 1.350 . S
C2296 C2293 1.463 . S
C2296 N2300 1.427 . S
C2297 H2287 0.929 . S
C2297 C2295 1.433 . S
C2297 N2300 1.384 . S
C2298 H2289 0.929 . S
C2298 C2290 1.378 . S
C2298 C2293 1.350 . S
C2299 H2286 0.929 . S
C2299 C2291 1.433 . S
C2299 N2301 1.384 . S
N2300 C2296 1.427 . S
N2300 C2297 1.384 . S
N2301 C2293 1.427 . S
N2301 C2299 1.384 . S
H2302 C2308 0.930 . S
H2303 C2312 0.930 . S
H2304 C2317 0.929 . S
H2305 C2315 0.929 . S
H2306 C2310 0.929 . S
H2307 C2316 0.929 . S
C2308 H2302 0.930 . S
C2308 C2309 1.367 . S
C2308 C2316 1.378 . S
C2309 C2308 1.367 . S
C2309 C2317 1.433 . S
C2310 H2306 0.929 . S
C2310 C2312 1.378 . S
C2310 C2314 1.350 . S
C2311 C2314 1.463 . S
C2311 C2316 1.350 . S
C2311 N2319 1.427 . S
C2312 H2303 0.930 . S
C2312 C2310 1.378 . S
C2312 C2313 1.367 . S
C2313 C2312 1.367 . S
C2313 C2315 1.433 . S
C2314 C2310 1.350 . S
C2314 C2311 1.463 . S
C2314 N2318 1.427 . S
C2315 H2305 0.929 . S
C2315 C2313 1.433 . S
C2315 N2318 1.384 . S
C2316 H2307 0.929 . S
C2316 C2308 1.378 . S
C2316 C2311 1.350 . S
C2317 H2304 0.929 . S
C2317 C2309 1.433 . S
C2317 N2319 1.384 . S
N2318 C2314 1.427 . S
N2318 C2315 1.384 . S
N2319 C2311 1.427 . S
N2319 C2317 1.384 . S
H2320 C2326 0.930 . S
H2321 C2330 0.930 . S
H2322 C2335 0.929 . S
H2323 C2333 0.929 . S
H2324 C2328 0.929 . S
H2325 C2334 0.929 . S
C2326 H2320 0.930 . S
C2326 C2327 1.367 . S
C2326 C2334 1.378 . S
C2327 C2326 1.367 . S
C2327 C2335 1.433 . S
C2328 H2324 0.929 . S
C2328 C2330 1.378 . S
C2328 C2332 1.350 . S
C2329 C2332 1.463 . S
C2329 C2334 1.350 . S
C2329 N2337 1.427 . S
C2330 H2321 0.930 . S
C2330 C2328 1.378 . S
C2330 C2331 1.367 . S
C2331 C2330 1.367 . S
C2331 C2333 1.433 . S
C2332 C2328 1.350 . S
C2332 C2329 1.463 . S
C2332 N2336 1.427 . S
C2333 H2323 0.929 . S
C2333 C2331 1.433 . S
C2333 N2336 1.384 . S
C2334 H2325 0.929 . S
C2334 C2326 1.378 . S
C2334 C2329 1.350 . S
C2335 H2322 0.929 . S
C2335 C2327 1.433 . S
C2335 N2337 1.384 . S
N2336 C2332 1.427 . S
N2336 C2333 1.384 . S
N2337 C2329 1.427 . S
N2337 C2335 1.384 . S
H2338 C2344 0.930 . S
H2339 C2348 0.930 . S
H2340 C2353 0.929 . S
H2341 C2351 0.929 . S
H2342 C2346 0.929 . S
H2343 C2352 0.929 . S
C2344 H2338 0.930 . S
C2344 C2345 1.367 . S
C2344 C2352 1.378 . S
C2345 C2344 1.367 . S
C2345 C2353 1.433 . S
C2346 H2342 0.929 . S
C2346 C2348 1.378 . S
C2346 C2350 1.350 . S
C2347 C2350 1.463 . S
C2347 C2352 1.350 . S
C2347 N2355 1.427 . S
C2348 H2339 0.930 . S
C2348 C2346 1.378 . S
C2348 C2349 1.367 . S
C2349 C2348 1.367 . S
C2349 C2351 1.433 . S
C2350 C2346 1.350 . S
C2350 C2347 1.463 . S
C2350 N2354 1.427 . S
C2351 H2341 0.929 . S
C2351 C2349 1.433 . S
C2351 N2354 1.384 . S
C2352 H2343 0.929 . S
C2352 C2344 1.378 . S
C2352 C2347 1.350 . S
C2353 H2340 0.929 . S
C2353 C2345 1.433 . S
C2353 N2355 1.384 . S
N2354 C2350 1.427 . S
N2354 C2351 1.384 . S
N2355 C2347 1.427 . S
N2355 C2353 1.384 . S
H2356 C2362 0.930 . S
H2357 C2366 0.930 . S
H2358 C2371 0.929 . S
H2359 C2369 0.929 . S
H2360 C2364 0.929 . S
H2361 C2370 0.929 . S
C2362 H2356 0.930 . S
C2362 C2363 1.367 . S
C2362 C2370 1.378 . S
C2363 C2362 1.367 . S
C2363 C2371 1.433 . S
C2364 H2360 0.929 . S
C2364 C2366 1.378 . S
C2364 C2368 1.350 . S
C2365 C2368 1.463 . S
C2365 C2370 1.350 . S
C2365 N2373 1.427 . S
C2366 H2357 0.930 . S
C2366 C2364 1.378 . S
C2366 C2367 1.367 . S
C2367 C2366 1.367 . S
C2367 C2369 1.433 . S
C2368 C2364 1.350 . S
C2368 C2365 1.463 . S
C2368 N2372 1.427 . S
C2369 H2359 0.929 . S
C2369 C2367 1.433 . S
C2369 N2372 1.384 . S
C2370 H2361 0.929 . S
C2370 C2362 1.378 . S
C2370 C2365 1.350 . S
C2371 H2358 0.929 . S
C2371 C2363 1.433 . S
C2371 N2373 1.384 . S
N2372 C2368 1.427 . S
N2372 C2369 1.384 . S
N2373 C2365 1.427 . S
N2373 C2371 1.384 . S
H2374 C2380 0.930 . S
H2375 C2384 0.930 . S
H2376 C2389 0.929 . S
H2377 C2387 0.929 . S
H2378 C2382 0.929 . S
H2379 C2388 0.929 . S
C2380 H2374 0.930 . S
C2380 C2381 1.367 . S
C2380 C2388 1.378 . S
C2381 C2380 1.367 . S
C2381 C2389 1.433 . S
C2382 H2378 0.929 . S
C2382 C2384 1.378 . S
C2382 C2386 1.350 . S
C2383 C2386 1.463 . S
C2383 C2388 1.350 . S
C2383 N2391 1.427 . S
C2384 H2375 0.930 . S
C2384 C2382 1.378 . S
C2384 C2385 1.367 . S
C2385 C2384 1.367 . S
C2385 C2387 1.433 . S
C2386 C2382 1.350 . S
C2386 C2383 1.463 . S
C2386 N2390 1.427 . S
C2387 H2377 0.929 . S
C2387 C2385 1.433 . S
C2387 N2390 1.384 . S
C2388 H2379 0.929 . S
C2388 C2380 1.378 . S
C2388 C2383 1.350 . S
C2389 H2376 0.929 . S
C2389 C2381 1.433 . S
C2389 N2391 1.384 . S
N2390 C2386 1.427 . S
N2390 C2387 1.384 . S
N2391 C2383 1.427 . S
N2391 C2389 1.384 . S
H2392 C2398 0.930 . S
H2393 C2402 0.930 . S
H2394 C2407 0.929 . S
H2395 C2405 0.929 . S
H2396 C2400 0.929 . S
H2397 C2406 0.929 . S
C2398 H2392 0.930 . S
C2398 C2399 1.367 . S
C2398 C2406 1.378 . S
C2399 C2398 1.367 . S
C2399 C2407 1.433 . S
C2400 H2396 0.929 . S
C2400 C2402 1.378 . S
C2400 C2404 1.350 . S
C2401 C2404 1.463 . S
C2401 C2406 1.350 . S
C2401 N2409 1.427 . S
C2402 H2393 0.930 . S
C2402 C2400 1.378 . S
C2402 C2403 1.367 . S
C2403 C2402 1.367 . S
C2403 C2405 1.433 . S
C2404 C2400 1.350 . S
C2404 C2401 1.463 . S
C2404 N2408 1.427 . S
C2405 H2395 0.929 . S
C2405 C2403 1.433 . S
C2405 N2408 1.384 . S
C2406 H2397 0.929 . S
C2406 C2398 1.378 . S
C2406 C2401 1.350 . S
C2407 H2394 0.929 . S
C2407 C2399 1.433 . S
C2407 N2409 1.384 . S
N2408 C2404 1.427 . S
N2408 C2405 1.384 . S
N2409 C2401 1.427 . S
N2409 C2407 1.384 . S
H2410 C2416 0.930 . S
H2411 C2420 0.930 . S
H2412 C2425 0.929 . S
H2413 C2423 0.929 . S
H2414 C2418 0.929 . S
H2415 C2424 0.929 . S
C2416 H2410 0.930 . S
C2416 C2417 1.367 . S
C2416 C2424 1.378 . S
C2417 C2416 1.367 . S
C2417 C2425 1.433 . S
C2418 H2414 0.929 . S
C2418 C2420 1.378 . S
C2418 C2422 1.350 . S
C2419 C2422 1.463 . S
C2419 C2424 1.350 . S
C2419 N2427 1.427 . S
C2420 H2411 0.930 . S
C2420 C2418 1.378 . S
C2420 C2421 1.367 . S
C2421 C2420 1.367 . S
C2421 C2423 1.433 . S
C2422 C2418 1.350 . S
C2422 C2419 1.463 . S
C2422 N2426 1.427 . S
C2423 H2413 0.929 . S
C2423 C2421 1.433 . S
C2423 N2426 1.384 . S
C2424 H2415 0.929 . S
C2424 C2416 1.378 . S
C2424 C2419 1.350 . S
C2425 H2412 0.929 . S
C2425 C2417 1.433 . S
C2425 N2427 1.384 . S
N2426 C2422 1.427 . S
N2426 C2423 1.384 . S
N2427 C2419 1.427 . S
N2427 C2425 1.384 . S
H2428 C2434 0.930 . S
H2429 C2438 0.930 . S
H2430 C2443 0.929 . S
H2431 C2441 0.929 . S
H2432 C2436 0.929 . S
H2433 C2442 0.929 . S
C2434 H2428 0.930 . S
C2434 C2435 1.367 . S
C2434 C2442 1.378 . S
C2435 C2434 1.367 . S
C2435 C2443 1.433 . S
C2436 H2432 0.929 . S
C2436 C2438 1.378 . S
C2436 C2440 1.350 . S
C2437 C2440 1.463 . S
C2437 C2442 1.350 . S
C2437 N2445 1.427 . S
C2438 H2429 0.930 . S
C2438 C2436 1.378 . S
C2438 C2439 1.367 . S
C2439 C2438 1.367 . S
C2439 C2441 1.433 . S
C2440 C2436 1.350 . S
C2440 C2437 1.463 . S
C2440 N2444 1.427 . S
C2441 H2431 0.929 . S
C2441 C2439 1.433 . S
C2441 N2444 1.384 . S
C2442 H2433 0.929 . S
C2442 C2434 1.378 . S
C2442 C2437 1.350 . S
C2443 H2430 0.929 . S
C2443 C2435 1.433 . S
C2443 N2445 1.384 . S
N2444 C2440 1.427 . S
N2444 C2441 1.384 . S
N2445 C2437 1.427 . S
N2445 C2443 1.384 . S
H2446 C2452 0.930 . S
H2447 C2456 0.930 . S
H2448 C2461 0.929 . S
H2449 C2459 0.929 . S
H2450 C2454 0.929 . S
H2451 C2460 0.929 . S
C2452 H2446 0.930 . S
C2452 C2453 1.367 . S
C2452 C2460 1.378 . S
C2453 C2452 1.367 . S
C2453 C2461 1.433 . S
C2454 H2450 0.929 . S
C2454 C2456 1.378 . S
C2454 C2458 1.350 . S
C2455 C2458 1.463 . S
C2455 C2460 1.350 . S
C2455 N2463 1.427 . S
C2456 H2447 0.930 . S
C2456 C2454 1.378 . S
C2456 C2457 1.367 . S
C2457 C2456 1.367 . S
C2457 C2459 1.433 . S
C2458 C2454 1.350 . S
C2458 C2455 1.463 . S
C2458 N2462 1.427 . S
C2459 H2449 0.929 . S
C2459 C2457 1.433 . S
C2459 N2462 1.384 . S
C2460 H2451 0.929 . S
C2460 C2452 1.378 . S
C2460 C2455 1.350 . S
C2461 H2448 0.929 . S
C2461 C2453 1.433 . S
C2461 N2463 1.384 . S
N2462 C2458 1.427 . S
N2462 C2459 1.384 . S
N2463 C2455 1.427 . S
N2463 C2461 1.384 . S
H2464 C2470 0.930 . S
H2465 C2474 0.930 . S
H2466 C2479 0.929 . S
H2467 C2477 0.929 . S
H2468 C2472 0.929 . S
H2469 C2478 0.929 . S
C2470 H2464 0.930 . S
C2470 C2471 1.367 . S
C2470 C2478 1.378 . S
C2471 C2470 1.367 . S
C2471 C2479 1.433 . S
C2472 H2468 0.929 . S
C2472 C2474 1.378 . S
C2472 C2476 1.350 . S
C2473 C2476 1.463 . S
C2473 C2478 1.350 . S
C2473 N2481 1.427 . S
C2474 H2465 0.930 . S
C2474 C2472 1.378 . S
C2474 C2475 1.367 . S
C2475 C2474 1.367 . S
C2475 C2477 1.433 . S
C2476 C2472 1.350 . S
C2476 C2473 1.463 . S
C2476 N2480 1.427 . S
C2477 H2467 0.929 . S
C2477 C2475 1.433 . S
C2477 N2480 1.384 . S
C2478 H2469 0.929 . S
C2478 C2470 1.378 . S
C2478 C2473 1.350 . S
C2479 H2466 0.929 . S
C2479 C2471 1.433 . S
C2479 N2481 1.384 . S
N2480 C2476 1.427 . S
N2480 C2477 1.384 . S
N2481 C2473 1.427 . S
N2481 C2479 1.384 . S
H2482 C2488 0.930 . S
H2483 C2492 0.930 . S
H2484 C2497 0.929 . S
H2485 C2495 0.929 . S
H2486 C2490 0.929 . S
H2487 C2496 0.929 . S
C2488 H2482 0.930 . S
C2488 C2489 1.367 . S
C2488 C2496 1.378 . S
C2489 C2488 1.367 . S
C2489 C2497 1.433 . S
C2490 H2486 0.929 . S
C2490 C2492 1.378 . S
C2490 C2494 1.350 . S
C2491 C2494 1.463 . S
C2491 C2496 1.350 . S
C2491 N2499 1.427 . S
C2492 H2483 0.930 . S
C2492 C2490 1.378 . S
C2492 C2493 1.367 . S
C2493 C2492 1.367 . S
C2493 C2495 1.433 . S
C2494 C2490 1.350 . S
C2494 C2491 1.463 . S
C2494 N2498 1.427 . S
C2495 H2485 0.929 . S
C2495 C2493 1.433 . S
C2495 N2498 1.384 . S
C2496 H2487 0.929 . S
C2496 C2488 1.378 . S
C2496 C2491 1.350 . S
C2497 H2484 0.929 . S
C2497 C2489 1.433 . S
C2497 N2499 1.384 . S
N2498 C2494 1.427 . S
N2498 C2495 1.384 . S
N2499 C2491 1.427 . S
N2499 C2497 1.384 . S
H2500 C2506 0.930 . S
H2501 C2510 0.930 . S
H2502 C2515 0.929 . S
H2503 C2513 0.929 . S
H2504 C2508 0.929 . S
H2505 C2514 0.929 . S
C2506 H2500 0.930 . S
C2506 C2507 1.367 . S
C2506 C2514 1.378 . S
C2507 C2506 1.367 . S
C2507 C2515 1.433 . S
C2508 H2504 0.929 . S
C2508 C2510 1.378 . S
C2508 C2512 1.350 . S
C2509 C2512 1.463 . S
C2509 C2514 1.350 . S
C2509 N2517 1.427 . S
C2510 H2501 0.930 . S
C2510 C2508 1.378 . S
C2510 C2511 1.367 . S
C2511 C2510 1.367 . S
C2511 C2513 1.433 . S
C2512 C2508 1.350 . S
C2512 C2509 1.463 . S
C2512 N2516 1.427 . S
C2513 H2503 0.929 . S
C2513 C2511 1.433 . S
C2513 N2516 1.384 . S
C2514 H2505 0.929 . S
C2514 C2506 1.378 . S
C2514 C2509 1.350 . S
C2515 H2502 0.929 . S
C2515 C2507 1.433 . S
C2515 N2517 1.384 . S
N2516 C2512 1.427 . S
N2516 C2513 1.384 . S
N2517 C2509 1.427 . S
N2517 C2515 1.384 . S
H2518 C2524 0.930 . S
H2519 C2528 0.930 . S
H2520 C2533 0.929 . S
H2521 C2531 0.929 1_556 S
H2522 C2526 0.929 . S
H2523 C2532 0.929 . S
C2524 H2518 0.930 . S
C2524 C2525 1.367 . S
C2524 C2532 1.378 . S
C2525 C2524 1.367 . S
C2525 C2533 1.433 . S
C2526 H2522 0.929 . S
C2526 C2528 1.378 1_565 S
C2526 C2530 1.350 . S
C2527 C2530 1.463 . S
C2527 C2532 1.350 . S
C2527 N2535 1.427 . S
C2528 H2519 0.930 . S
C2528 C2526 1.378 1_545 S
C2528 C2529 1.367 1_545 S
C2529 C2528 1.367 1_565 S
C2529 C2531 1.433 . S
C2530 C2526 1.350 . S
C2530 C2527 1.463 . S
C2530 N2534 1.427 . S
C2531 H2521 0.929 1_554 S
C2531 C2529 1.433 . S
C2531 N2534 1.384 . S
C2532 H2523 0.929 . S
C2532 C2524 1.378 . S
C2532 C2527 1.350 . S
C2533 H2520 0.929 . S
C2533 C2525 1.433 . S
C2533 N2535 1.384 . S
N2534 C2530 1.427 . S
N2534 C2531 1.384 . S
N2535 C2527 1.427 . S
N2535 C2533 1.384 . S
H2536 C2542 0.930 . S
H2537 C2546 0.930 . S
H2538 C2551 0.929 . S
H2539 C2549 0.929 . S
H2540 C2544 0.929 . S
H2541 C2550 0.929 . S
C2542 H2536 0.930 . S
C2542 C2543 1.367 . S
C2542 C2550 1.378 . S
C2543 C2542 1.367 . S
C2543 C2551 1.433 . S
C2544 H2540 0.929 . S
C2544 C2546 1.378 . S
C2544 C2548 1.350 . S
C2545 C2548 1.463 . S
C2545 C2550 1.350 . S
C2545 N2553 1.427 . S
C2546 H2537 0.930 . S
C2546 C2544 1.378 . S
C2546 C2547 1.367 . S
C2547 C2546 1.367 . S
C2547 C2549 1.433 . S
C2548 C2544 1.350 . S
C2548 C2545 1.463 . S
C2548 N2552 1.427 . S
C2549 H2539 0.929 . S
C2549 C2547 1.433 . S
C2549 N2552 1.384 . S
C2550 H2541 0.929 . S
C2550 C2542 1.378 . S
C2550 C2545 1.350 . S
C2551 H2538 0.929 . S
C2551 C2543 1.433 . S
C2551 N2553 1.384 . S
N2552 C2548 1.427 . S
N2552 C2549 1.384 . S
N2553 C2545 1.427 . S
N2553 C2551 1.384 . S
H2554 C2560 0.930 . S
H2555 C2564 0.930 . S
H2556 C2569 0.946 . S
H2557 C2567 0.929 . S
H2558 C2562 0.929 . S
H2559 C2568 0.929 . S
C2560 H2554 0.930 . S
C2560 C2561 1.367 . S
C2560 C2568 1.378 . S
C2561 C2560 1.367 . S
C2561 C2569 1.429 1_554 S
C2562 H2558 0.929 . S
C2562 C2564 1.378 . S
C2562 C2566 1.350 . S
C2563 C2566 1.463 . S
C2563 C2568 1.350 . S
C2563 N2571 1.427 . S
C2564 H2555 0.930 . S
C2564 C2562 1.378 . S
C2564 C2565 1.367 . S
C2565 C2564 1.367 . S
C2565 C2567 1.433 . S
C2566 C2562 1.350 . S
C2566 C2563 1.463 . S
C2566 N2570 1.427 . S
C2567 H2557 0.929 . S
C2567 C2565 1.433 . S
C2567 N2570 1.384 . S
C2568 H2559 0.929 . S
C2568 C2560 1.378 . S
C2568 C2563 1.350 . S
C2569 H2556 0.946 . S
C2569 C2561 1.429 1_556 S
C2569 N2571 1.373 1_556 S
N2570 C2566 1.427 . S
N2570 C2567 1.384 . S
N2571 C2563 1.427 . S
N2571 C2569 1.373 1_554 S
H2572 C2578 0.930 . S
H2573 C2582 0.930 . S
H2574 C2587 0.929 . S
H2575 C2585 0.929 . S
H2576 C2580 0.929 . S
H2577 C2586 0.929 . S
C2578 H2572 0.930 . S
C2578 C2579 1.367 . S
C2578 C2586 1.378 . S
C2579 C2578 1.367 . S
C2579 C2587 1.433 . S
C2580 H2576 0.929 . S
C2580 C2582 1.378 . S
C2580 C2584 1.350 . S
C2581 C2584 1.463 . S
C2581 C2586 1.350 . S
C2581 N2589 1.427 . S
C2582 H2573 0.930 . S
C2582 C2580 1.378 . S
C2582 C2583 1.367 . S
C2583 C2582 1.367 . S
C2583 C2585 1.433 . S
C2584 C2580 1.350 . S
C2584 C2581 1.463 . S
C2584 N2588 1.427 . S
C2585 H2575 0.929 . S
C2585 C2583 1.433 . S
C2585 N2588 1.384 . S
C2586 H2577 0.929 . S
C2586 C2578 1.378 . S
C2586 C2581 1.350 . S
C2587 H2574 0.929 . S
C2587 C2579 1.433 . S
C2587 N2589 1.384 . S
N2588 C2584 1.427 . S
N2588 C2585 1.384 . S
N2589 C2581 1.427 . S
N2589 C2587 1.384 . S
H2590 C2596 0.930 . S
H2591 C2600 0.930 . S
H2592 C2605 0.929 . S
H2593 C2603 0.929 . S
H2594 C2598 0.929 . S
H2595 C2604 0.929 . S
C2596 H2590 0.930 . S
C2596 C2597 1.367 . S
C2596 C2604 1.378 . S
C2597 C2596 1.367 . S
C2597 C2605 1.433 . S
C2598 H2594 0.929 . S
C2598 C2600 1.378 . S
C2598 C2602 1.350 . S
C2599 C2602 1.463 . S
C2599 C2604 1.350 . S
C2599 N2607 1.427 . S
C2600 H2591 0.930 . S
C2600 C2598 1.378 . S
C2600 C2601 1.367 . S
C2601 C2600 1.367 . S
C2601 C2603 1.433 . S
C2602 C2598 1.350 . S
C2602 C2599 1.463 . S
C2602 N2606 1.427 . S
C2603 H2593 0.929 . S
C2603 C2601 1.433 . S
C2603 N2606 1.384 . S
C2604 H2595 0.929 . S
C2604 C2596 1.378 . S
C2604 C2599 1.350 . S
C2605 H2592 0.929 . S
C2605 C2597 1.433 . S
C2605 N2607 1.384 . S
N2606 C2602 1.427 . S
N2606 C2603 1.384 . S
N2607 C2599 1.427 . S
N2607 C2605 1.384 . S
C891 C353 1.063 . S
C887 C5 1.069 . S
C905 C23 1.907 . S
C909 C399 1.894 . S
C923 C39 0.872 . S
C927 C408 0.864 . S
C945 C446 1.664 . S
C941 C42 1.680 . S
C959 C19 1.676 . S
C963 C480 1.649 . S
C981 C510 0.836 . S
C977 C28 0.838 . S
C999 C569 1.616 1_556 S
C995 C53 1.622 . S
C1013 C9 0.983 . S
C1017 C582 0.977 . S
C1031 C65 1.459 . S
C1035 C365 1.444 . S
C1049 C75 1.208 . S
C1053 C383 1.194 . S
C1071 C404 1.750 . S
C1067 C93 1.770 . S
C1089 C442 0.807 . S
C1085 C109 0.803 . S
C1103 C56 1.280 . S
C1107 C476 1.267 . S
C1125 C506 1.560 . S
C1121 C81 1.569 . S
C1143 C553 1.259 . S
C1139 C84 1.265 . S
C1161 C578 0.693 . S
C1157 C103 0.693 . S
C1179 C349 0.671 1_556 S
C1175 C107 0.672 . S
C1197 C608 1.620 . S
C1193 C121 1.616 . S
C1211 C131 1.486 . S
C1215 C650 1.473 . S
C1233 C693 0.551 . S
C1229 C140 0.552 . S
C1247 C61 1.426 . S
C1251 C574 1.409 . S
C1269 C412 1.449 . S
C1265 C70 1.444 . S
C1283 C137 1.347 . S
C1287 C710 1.342 . S
C1305 C761 1.536 . S
C1301 C165 1.537 . S
C1319 C173 1.041 . S
C1323 C344 1.027 1_556 S
C1341 C744 1.839 . S
C1337 C182 1.852 . S
C1355 C207 0.870 . S
C1359 C417 0.863 . S
C1373 C219 1.662 . S
C1377 C727 1.631 . S
C1395 C489 1.619 . S
C1391 C187 1.641 . S
C1413 C655 0.827 . S
C1409 C205 0.838 . S
C1431 C540 1.587 . S
C1427 C221 1.591 . S
C1449 C795 0.952 . S
C1445 C168 0.963 . S
C1467 C336 1.404 . S
C1463 C224 1.421 . S
C1481 C243 1.175 . S
C1485 C748 1.159 . S
C1503 C433 1.692 . S
C1499 C252 1.705 . S
C1517 C277 0.782 . S
C1521 C723 0.783 . S
C1535 C233 1.299 . S
C1539 C485 1.283 . S
C1553 C249 1.552 . S
C1557 C671 1.542 . S
C1575 C544 1.249 . S
C1571 C261 1.273 . S
C1589 C271 0.667 . S
C1593 C791 0.667 . S
C1607 C266 0.637 . S
C1611 C340 0.644 . S
C1625 C280 1.567 . S
C1629 C637 1.575 . S
C1643 C299 1.436 . S
C1647 C523 1.423 . S
C1661 C317 0.515 . S
C1665 C684 0.517 . S
C1683 C807 1.375 . S
C1679 C229 1.392 . S
C1701 C421 1.437 . S
C1697 C247 1.452 . S
C1719 C467 1.321 . S
C1715 C305 1.324 . S
C1737 C378 1.525 . S
C1733 C333 1.523 . S
C1751 C33 1.054 . S
C1755 C829 1.049 . S
C1773 C773 1.894 . S
C1769 C51 1.904 . S
C1791 C850 0.870 . S
C1787 C11 0.867 . S
C1805 C14 1.679 . S
C1809 C718 1.660 . S
C1823 C47 1.677 . S
C1827 C616 1.650 1_556 S
C1845 C646 0.843 . S
C1841 C0 0.846 . S
C1863 C705 1.616 . S
C1859 C25 1.622 . S
C1881 C786 0.986 . S
C1877 C37 0.984 . S
C1899 C841 1.439 . S
C1895 C163 1.457 . S
C1913 C117 1.206 1_556 S
C1917 C757 1.193 . S
C1931 C135 1.765 . S
C1935 C846 1.741 . S
C1953 C714 0.784 . S
C1949 C151 0.791 . S
C1971 C612 1.267 . S
C1967 C154 1.280 . S
C1985 C123 1.568 . S
C1989 C642 1.558 . S
C2007 C689 1.259 . S
C2003 C126 1.265 . S
C2021 C145 0.693 . S
C2025 C782 0.695 . S
C2043 C825 0.680 . S
C2039 C149 0.678 . S
C2061 C472 1.617 . S
C2057 C79 1.617 . S
C2079 C514 1.473 . S
C2075 C89 1.487 . S
C2093 C98 0.563 . S
C2097 C557 0.560 . S
C2115 C778 1.409 . S
C2111 C159 1.426 . S
C2129 C112 1.444 . S
C2133 C854 1.448 . S
C2151 C438 1.347 . S
C2147 C95 1.345 . S
C2169 C387 1.534 . S
C2165 C67 1.538 . S
C2183 C201 1.044 . S
C2187 C820 1.041 . S
C2205 C370 1.840 . S
C2201 C210 1.852 . S
C2223 C859 0.873 . S
C2219 C179 0.860 . S
C2237 C191 1.662 . S
C2241 C455 1.625 . S
C2255 C215 1.636 . S
C2259 C625 1.610 . S
C2273 C177 0.838 . S
C2277 C519 0.824 . S
C2291 C193 1.591 . S
C2295 C676 1.587 . S
C2309 C196 0.954 . S
C2313 C591 0.946 . S
C2331 C812 1.406 . S
C2327 C322 1.423 . S
C2345 C285 1.174 . S
C2349 C374 1.159 . S
C2367 C875 1.683 . S
C2363 C294 1.704 . S
C2381 C319 0.763 . S
C2385 C451 0.755 . S
C2399 C331 1.295 . S
C2403 C621 1.270 . S
C2421 C535 1.535 . S
C2417 C291 1.549 . S
C2435 C303 1.268 . S
C2439 C680 1.246 . S
C2457 C587 0.687 . S
C2453 C313 0.675 . S
C2475 C816 0.643 . S
C2471 C308 0.637 . S
C2493 C501 1.574 . S
C2489 C238 1.570 . S
C2507 C257 1.428 . S
C2511 C659 1.416 . S
C2529 C548 0.522 . S
C2525 C275 0.512 . S
C2547 C603 1.375 . S
C2543 C327 1.392 . S
C2561 C289 1.450 1_554 S
C2565 C863 1.427 . S
C2583 C739 1.325 . S
C2579 C263 1.319 . S
C2601 C752 1.524 . S
C2597 C235 1.521 . S
