# Generated by pormake.
# Topology gar, (4,6)-cn, num edge types: 1
# Building blocks:
#     Node 0, Type 0, BuildingBlock: UXUYUI_clean_sbu_0, # of connection points: 4
#     Node 1, Type 0, BuildingBlock: UXUYUI_clean_sbu_0, # of connection points: 4
#     Node 2, Type 0, BuildingBlock: UXUYUI_clean_sbu_0, # of connection points: 4
#     Node 3, Type 0, BuildingBlock: UXUYUI_clean_sbu_0, # of connection points: 4
#     Node 4, Type 0, BuildingBlock: UXUYUI_clean_sbu_0, # of connection points: 4
#     Node 5, Type 0, BuildingBlock: UXUYUI_clean_sbu_0, # of connection points: 4
#     Node 6, Type 0, BuildingBlock: UXUYUI_clean_sbu_0, # of connection points: 4
#     Node 7, Type 0, BuildingBlock: UXUYUI_clean_sbu_0, # of connection points: 4
#     Node 8, Type 0, BuildingBlock: UXUYUI_clean_sbu_0, # of connection points: 4
#     Node 9, Type 0, BuildingBlock: UXUYUI_clean_sbu_0, # of connection points: 4
#     Node 10, Type 0, BuildingBlock: UXUYUI_clean_sbu_0, # of connection points: 4
#     Node 11, Type 0, BuildingBlock: UXUYUI_clean_sbu_0, # of connection points: 4
#     Node 12, Type 0, BuildingBlock: UXUYUI_clean_sbu_0, # of connection points: 4
#     Node 13, Type 0, BuildingBlock: UXUYUI_clean_sbu_0, # of connection points: 4
#     Node 14, Type 0, BuildingBlock: UXUYUI_clean_sbu_0, # of connection points: 4
#     Node 15, Type 0, BuildingBlock: UXUYUI_clean_sbu_0, # of connection points: 4
#     Node 16, Type 0, BuildingBlock: UXUYUI_clean_sbu_0, # of connection points: 4
#     Node 17, Type 0, BuildingBlock: UXUYUI_clean_sbu_0, # of connection points: 4
#     Node 18, Type 0, BuildingBlock: UXUYUI_clean_sbu_0, # of connection points: 4
#     Node 19, Type 0, BuildingBlock: UXUYUI_clean_sbu_0, # of connection points: 4
#     Node 20, Type 0, BuildingBlock: UXUYUI_clean_sbu_0, # of connection points: 4
#     Node 21, Type 0, BuildingBlock: UXUYUI_clean_sbu_0, # of connection points: 4
#     Node 22, Type 0, BuildingBlock: UXUYUI_clean_sbu_0, # of connection points: 4
#     Node 23, Type 0, BuildingBlock: UXUYUI_clean_sbu_0, # of connection points: 4
#     Node 24, Type 1, BuildingBlock: MIFKUJ_clean_sbu_0, # of connection points: 6
#     Node 25, Type 1, BuildingBlock: MIFKUJ_clean_sbu_0, # of connection points: 6
#     Node 26, Type 1, BuildingBlock: MIFKUJ_clean_sbu_0, # of connection points: 6
#     Node 27, Type 1, BuildingBlock: MIFKUJ_clean_sbu_0, # of connection points: 6
#     Node 28, Type 1, BuildingBlock: MIFKUJ_clean_sbu_0, # of connection points: 6
#     Node 29, Type 1, BuildingBlock: MIFKUJ_clean_sbu_0, # of connection points: 6
#     Node 30, Type 1, BuildingBlock: MIFKUJ_clean_sbu_0, # of connection points: 6
#     Node 31, Type 1, BuildingBlock: MIFKUJ_clean_sbu_0, # of connection points: 6
#     Node 32, Type 1, BuildingBlock: MIFKUJ_clean_sbu_0, # of connection points: 6
#     Node 33, Type 1, BuildingBlock: MIFKUJ_clean_sbu_0, # of connection points: 6
#     Node 34, Type 1, BuildingBlock: MIFKUJ_clean_sbu_0, # of connection points: 6
#     Node 35, Type 1, BuildingBlock: MIFKUJ_clean_sbu_0, # of connection points: 6
#     Node 36, Type 1, BuildingBlock: MIFKUJ_clean_sbu_0, # of connection points: 6
#     Node 37, Type 1, BuildingBlock: MIFKUJ_clean_sbu_0, # of connection points: 6
#     Node 38, Type 1, BuildingBlock: MIFKUJ_clean_sbu_0, # of connection points: 6
#     Node 39, Type 1, BuildingBlock: MIFKUJ_clean_sbu_0, # of connection points: 6
#     Edge 40, Type (0, 1), BuildingBlock: KIFKEQ_clean_linker_1, # of connection points: 2
#     Edge 41, Type (0, 1), BuildingBlock: KIFKEQ_clean_linker_1, # of connection points: 2
#     Edge 42, Type (0, 1), BuildingBlock: KIFKEQ_clean_linker_1, # of connection points: 2
#     Edge 43, Type (0, 1), BuildingBlock: KIFKEQ_clean_linker_1, # of connection points: 2
#     Edge 44, Type (0, 1), BuildingBlock: KIFKEQ_clean_linker_1, # of connection points: 2
#     Edge 45, Type (0, 1), BuildingBlock: KIFKEQ_clean_linker_1, # of connection points: 2
#     Edge 46, Type (0, 1), BuildingBlock: KIFKEQ_clean_linker_1, # of connection points: 2
#     Edge 47, Type (0, 1), BuildingBlock: KIFKEQ_clean_linker_1, # of connection points: 2
#     Edge 48, Type (0, 1), BuildingBlock: KIFKEQ_clean_linker_1, # of connection points: 2
#     Edge 49, Type (0, 1), BuildingBlock: KIFKEQ_clean_linker_1, # of connection points: 2
#     Edge 50, Type (0, 1), BuildingBlock: KIFKEQ_clean_linker_1, # of connection points: 2
#     Edge 51, Type (0, 1), BuildingBlock: KIFKEQ_clean_linker_1, # of connection points: 2
#     Edge 52, Type (0, 1), BuildingBlock: KIFKEQ_clean_linker_1, # of connection points: 2
#     Edge 53, Type (0, 1), BuildingBlock: KIFKEQ_clean_linker_1, # of connection points: 2
#     Edge 54, Type (0, 1), BuildingBlock: KIFKEQ_clean_linker_1, # of connection points: 2
#     Edge 55, Type (0, 1), BuildingBlock: KIFKEQ_clean_linker_1, # of connection points: 2
#     Edge 56, Type (0, 1), BuildingBlock: KIFKEQ_clean_linker_1, # of connection points: 2
#     Edge 57, Type (0, 1), BuildingBlock: KIFKEQ_clean_linker_1, # of connection points: 2
#     Edge 58, Type (0, 1), BuildingBlock: KIFKEQ_clean_linker_1, # of connection points: 2
#     Edge 59, Type (0, 1), BuildingBlock: KIFKEQ_clean_linker_1, # of connection points: 2
#     Edge 60, Type (0, 1), BuildingBlock: KIFKEQ_clean_linker_1, # of connection points: 2
#     Edge 61, Type (0, 1), BuildingBlock: KIFKEQ_clean_linker_1, # of connection points: 2
#     Edge 62, Type (0, 1), BuildingBlock: KIFKEQ_clean_linker_1, # of connection points: 2
#     Edge 63, Type (0, 1), BuildingBlock: KIFKEQ_clean_linker_1, # of connection points: 2
#     Edge 64, Type (0, 1), BuildingBlock: KIFKEQ_clean_linker_1, # of connection points: 2
#     Edge 65, Type (0, 1), BuildingBlock: KIFKEQ_clean_linker_1, # of connection points: 2
#     Edge 66, Type (0, 1), BuildingBlock: KIFKEQ_clean_linker_1, # of connection points: 2
#     Edge 67, Type (0, 1), BuildingBlock: KIFKEQ_clean_linker_1, # of connection points: 2
#     Edge 68, Type (0, 1), BuildingBlock: KIFKEQ_clean_linker_1, # of connection points: 2
#     Edge 69, Type (0, 1), BuildingBlock: KIFKEQ_clean_linker_1, # of connection points: 2
#     Edge 70, Type (0, 1), BuildingBlock: KIFKEQ_clean_linker_1, # of connection points: 2
#     Edge 71, Type (0, 1), BuildingBlock: KIFKEQ_clean_linker_1, # of connection points: 2
#     Edge 72, Type (0, 1), BuildingBlock: KIFKEQ_clean_linker_1, # of connection points: 2
#     Edge 73, Type (0, 1), BuildingBlock: KIFKEQ_clean_linker_1, # of connection points: 2
#     Edge 74, Type (0, 1), BuildingBlock: KIFKEQ_clean_linker_1, # of connection points: 2
#     Edge 75, Type (0, 1), BuildingBlock: KIFKEQ_clean_linker_1, # of connection points: 2
#     Edge 76, Type (0, 1), BuildingBlock: KIFKEQ_clean_linker_1, # of connection points: 2
#     Edge 77, Type (0, 1), BuildingBlock: KIFKEQ_clean_linker_1, # of connection points: 2
#     Edge 78, Type (0, 1), BuildingBlock: KIFKEQ_clean_linker_1, # of connection points: 2
#     Edge 79, Type (0, 1), BuildingBlock: KIFKEQ_clean_linker_1, # of connection points: 2
#     Edge 80, Type (0, 1), BuildingBlock: KIFKEQ_clean_linker_1, # of connection points: 2
#     Edge 81, Type (0, 1), BuildingBlock: KIFKEQ_clean_linker_1, # of connection points: 2
#     Edge 82, Type (0, 1), BuildingBlock: KIFKEQ_clean_linker_1, # of connection points: 2
#     Edge 83, Type (0, 1), BuildingBlock: KIFKEQ_clean_linker_1, # of connection points: 2
#     Edge 84, Type (0, 1), BuildingBlock: KIFKEQ_clean_linker_1, # of connection points: 2
#     Edge 85, Type (0, 1), BuildingBlock: KIFKEQ_clean_linker_1, # of connection points: 2
#     Edge 86, Type (0, 1), BuildingBlock: KIFKEQ_clean_linker_1, # of connection points: 2
#     Edge 87, Type (0, 1), BuildingBlock: KIFKEQ_clean_linker_1, # of connection points: 2
#     Edge 88, Type (0, 1), BuildingBlock: KIFKEQ_clean_linker_1, # of connection points: 2
#     Edge 89, Type (0, 1), BuildingBlock: KIFKEQ_clean_linker_1, # of connection points: 2
#     Edge 90, Type (0, 1), BuildingBlock: KIFKEQ_clean_linker_1, # of connection points: 2
#     Edge 91, Type (0, 1), BuildingBlock: KIFKEQ_clean_linker_1, # of connection points: 2
#     Edge 92, Type (0, 1), BuildingBlock: KIFKEQ_clean_linker_1, # of connection points: 2
#     Edge 93, Type (0, 1), BuildingBlock: KIFKEQ_clean_linker_1, # of connection points: 2
#     Edge 94, Type (0, 1), BuildingBlock: KIFKEQ_clean_linker_1, # of connection points: 2
#     Edge 95, Type (0, 1), BuildingBlock: KIFKEQ_clean_linker_1, # of connection points: 2
#     Edge 96, Type (0, 1), BuildingBlock: KIFKEQ_clean_linker_1, # of connection points: 2
#     Edge 97, Type (0, 1), BuildingBlock: KIFKEQ_clean_linker_1, # of connection points: 2
#     Edge 98, Type (0, 1), BuildingBlock: KIFKEQ_clean_linker_1, # of connection points: 2
#     Edge 99, Type (0, 1), BuildingBlock: KIFKEQ_clean_linker_1, # of connection points: 2
#     Edge 100, Type (0, 1), BuildingBlock: KIFKEQ_clean_linker_1, # of connection points: 2
#     Edge 101, Type (0, 1), BuildingBlock: KIFKEQ_clean_linker_1, # of connection points: 2
#     Edge 102, Type (0, 1), BuildingBlock: KIFKEQ_clean_linker_1, # of connection points: 2
#     Edge 103, Type (0, 1), BuildingBlock: KIFKEQ_clean_linker_1, # of connection points: 2
#     Edge 104, Type (0, 1), BuildingBlock: KIFKEQ_clean_linker_1, # of connection points: 2
#     Edge 105, Type (0, 1), BuildingBlock: KIFKEQ_clean_linker_1, # of connection points: 2
#     Edge 106, Type (0, 1), BuildingBlock: KIFKEQ_clean_linker_1, # of connection points: 2
#     Edge 107, Type (0, 1), BuildingBlock: KIFKEQ_clean_linker_1, # of connection points: 2
#     Edge 108, Type (0, 1), BuildingBlock: KIFKEQ_clean_linker_1, # of connection points: 2
#     Edge 109, Type (0, 1), BuildingBlock: KIFKEQ_clean_linker_1, # of connection points: 2
#     Edge 110, Type (0, 1), BuildingBlock: KIFKEQ_clean_linker_1, # of connection points: 2
#     Edge 111, Type (0, 1), BuildingBlock: KIFKEQ_clean_linker_1, # of connection points: 2
#     Edge 112, Type (0, 1), BuildingBlock: KIFKEQ_clean_linker_1, # of connection points: 2
#     Edge 113, Type (0, 1), BuildingBlock: KIFKEQ_clean_linker_1, # of connection points: 2
#     Edge 114, Type (0, 1), BuildingBlock: KIFKEQ_clean_linker_1, # of connection points: 2
#     Edge 115, Type (0, 1), BuildingBlock: KIFKEQ_clean_linker_1, # of connection points: 2
#     Edge 116, Type (0, 1), BuildingBlock: KIFKEQ_clean_linker_1, # of connection points: 2
#     Edge 117, Type (0, 1), BuildingBlock: KIFKEQ_clean_linker_1, # of connection points: 2
#     Edge 118, Type (0, 1), BuildingBlock: KIFKEQ_clean_linker_1, # of connection points: 2
#     Edge 119, Type (0, 1), BuildingBlock: KIFKEQ_clean_linker_1, # of connection points: 2
#     Edge 120, Type (0, 1), BuildingBlock: KIFKEQ_clean_linker_1, # of connection points: 2
#     Edge 121, Type (0, 1), BuildingBlock: KIFKEQ_clean_linker_1, # of connection points: 2
#     Edge 122, Type (0, 1), BuildingBlock: KIFKEQ_clean_linker_1, # of connection points: 2
#     Edge 123, Type (0, 1), BuildingBlock: KIFKEQ_clean_linker_1, # of connection points: 2
#     Edge 124, Type (0, 1), BuildingBlock: KIFKEQ_clean_linker_1, # of connection points: 2
#     Edge 125, Type (0, 1), BuildingBlock: KIFKEQ_clean_linker_1, # of connection points: 2
#     Edge 126, Type (0, 1), BuildingBlock: KIFKEQ_clean_linker_1, # of connection points: 2
#     Edge 127, Type (0, 1), BuildingBlock: KIFKEQ_clean_linker_1, # of connection points: 2
#     Edge 128, Type (0, 1), BuildingBlock: KIFKEQ_clean_linker_1, # of connection points: 2
#     Edge 129, Type (0, 1), BuildingBlock: KIFKEQ_clean_linker_1, # of connection points: 2
#     Edge 130, Type (0, 1), BuildingBlock: KIFKEQ_clean_linker_1, # of connection points: 2
#     Edge 131, Type (0, 1), BuildingBlock: KIFKEQ_clean_linker_1, # of connection points: 2
#     Edge 132, Type (0, 1), BuildingBlock: KIFKEQ_clean_linker_1, # of connection points: 2
#     Edge 133, Type (0, 1), BuildingBlock: KIFKEQ_clean_linker_1, # of connection points: 2
#     Edge 134, Type (0, 1), BuildingBlock: KIFKEQ_clean_linker_1, # of connection points: 2
#     Edge 135, Type (0, 1), BuildingBlock: KIFKEQ_clean_linker_1, # of connection points: 2
# Relax obj value: 0.129
# Max RMSD: 0.264
# Mean RMSD: 0.181
data_MOF--net-gar--node1-UXUYUI_clean_sbu_0--node2-MIFKUJ_clean_sbu_0--edge1-KIFKEQ_clean_linker_1
_symmetry_space_group_name_H-M    P1
_symmetry_Int_Tables_number       1
_symmetry_cell_setting            triclinic
loop_
_symmetry_equiv_pos_as_xyz
'x, y, z'
_cell_length_a     69.667997
_cell_length_b     69.679062
_cell_length_c     67.544693
_cell_angle_alpha  94.360562
_cell_angle_beta   94.355373
_cell_angle_gamma 98.510921
loop_
_atom_site_label
_atom_site_type_symbol
_atom_site_fract_x
_atom_site_fract_y
_atom_site_fract_z
_atom_type_partial_charge
Li0 Li 0.00121 0.26828 0.38128 0.0
Li1 Li 0.02435 0.28804 0.4064 0.0
Li2 Li 0.0366 0.2683 0.38097 0.0
Li3 Li 0.01972 0.25313 0.40746 0.0
C4 C 0.02035 0.29458 0.35765 0.0
N5 N 0.01748 0.30287 0.31828 0.0
C6 C 0.02169 0.31389 0.35292 0.0
C7 C 0.01764 0.2795 0.34236 0.0
C8 C 0.02018 0.31778 0.33292 0.0
C9 C 0.0162 0.28399 0.32255 0.0
C10 C 0.99547 0.27366 0.42986 0.0
C11 C 0.00438 0.27568 0.46524 0.0
N12 N 0.98639 0.27983 0.4687 0.0
C13 C 0.97709 0.27795 0.43374 0.0
C14 C 0.00925 0.27251 0.44571 0.0
C15 C 0.97277 0.28102 0.45349 0.0
C16 C 0.96375 0.24956 0.36831 0.0
N17 N 0.97636 0.26613 0.36687 0.0
C18 C 0.9519 0.27947 0.34794 0.0
C19 C 0.97085 0.281 0.35698 0.0
C20 C 0.93845 0.2627 0.34961 0.0
C21 C 0.94459 0.24755 0.3598 0.0
H22 H 0.96848 0.2381 0.37652 0.0
H23 H 0.98091 0.29429 0.35654 0.0
C24 C 0.03806 0.31553 0.44022 0.0
N25 N 0.02773 0.31229 0.42206 0.0
C26 C 0.03947 0.33356 0.45129 0.0
C27 C 0.01975 0.34446 0.42463 0.0
C28 C 0.01864 0.32625 0.41417 0.0
C29 C 0.03024 0.34832 0.44346 0.0
H30 H 0.04511 0.30411 0.44615 0.0
H31 H 0.01034 0.32313 0.39979 0.0
C32 C 0.01507 0.22832 0.36805 0.0
N33 N 0.01417 0.19245 0.34719 0.0
C34 C 0.02603 0.21481 0.37555 0.0
C35 C 0.00345 0.22348 0.35005 0.0
C36 C 0.02545 0.19679 0.36476 0.0
C37 C 0.00325 0.2053 0.33969 0.0
C38 C 0.06291 0.28245 0.41319 0.0
C39 C 0.06655 0.3 0.40438 0.0
C40 C 0.07784 0.27636 0.42499 0.0
C41 C 0.08509 0.31112 0.40746 0.0
C42 C 0.09619 0.28791 0.42772 0.0
N43 N 0.09941 0.30489 0.41897 0.0
C44 C 0.06597 0.28286 0.35652 0.0
C45 C 0.06614 0.25014 0.36371 0.0
C46 C 0.0829 0.28279 0.34675 0.0
N47 N 0.05798 0.26671 0.36487 0.0
C48 C 0.08304 0.24939 0.35396 0.0
C49 C 0.09183 0.266 0.34564 0.0
H50 H 0.0597 0.2961 0.3581 0.0
H51 H 0.06005 0.23776 0.37108 0.0
C52 C 1.00057 0.22163 0.42651 0.0
N53 N 0.01815 0.23182 0.4235 0.0
C54 C 0.99959 0.20529 0.43743 0.0
C55 C 0.0348 0.2105 0.44204 0.0
C56 C 0.03508 0.22677 0.4312 0.0
C57 C 0.0169 0.19938 0.44507 0.0
H58 H 0.98734 0.22601 0.42014 0.0
H59 H 0.04882 0.23513 0.42849 0.0
O60 O 0.02181 0.29063 0.37719 0.0
O61 O 0.99994 0.27078 0.4106 0.0
O62 O 0.01509 0.2459 0.37857 0.0
O63 O 0.04492 0.27114 0.41028 0.0
H64 H 0.02387 0.32574 0.36459 0.0
H65 H 0.01679 0.26453 0.34573 0.0
H66 H 0.02116 0.33265 0.32904 0.0
H67 H 0.01411 0.27245 0.31058 0.0
H68 H 0.01491 0.27488 0.47766 0.0
H69 H 0.96628 0.27892 0.42161 0.0
H70 H 0.02361 0.26934 0.44298 0.0
H71 H 0.95859 0.28435 0.45673 0.0
H72 H 0.94758 0.29156 0.34044 0.0
H73 H 0.9346 0.23438 0.36134 0.0
H74 H 0.04777 0.33598 0.46572 0.0
H75 H 0.01211 0.35528 0.41819 0.0
H76 H 0.03505 0.21826 0.38948 0.0
H77 H 0.99461 0.23362 0.34415 0.0
H78 H 0.03396 0.18625 0.37035 0.0
H79 H 0.99437 0.20139 0.32572 0.0
H80 H 0.05524 0.30504 0.39522 0.0
H81 H 0.07531 0.26285 0.43195 0.0
H82 H 0.0881 0.3247 0.40069 0.0
H83 H 0.10788 0.28335 0.4368 0.0
H84 H 0.08921 0.29592 0.34054 0.0
H85 H 0.08968 0.23628 0.35381 0.0
H86 H 0.98551 0.19702 0.43931 0.0
H87 H 0.04847 0.20656 0.44787 0.0
Li88 Li 0.00332 0.77213 0.63118 0.0
Li89 Li 0.02024 0.7548 0.65571 0.0
Li90 Li 0.99862 0.73667 0.63029 0.0
Li91 Li 0.98553 0.75398 0.65832 0.0
C92 C 0.0314 0.74856 0.61082 0.0
N93 N 0.04955 0.73599 0.57834 0.0
C94 C 0.04373 0.73456 0.61263 0.0
C95 C 0.02847 0.75631 0.59253 0.0
C96 C 0.05271 0.72834 0.59602 0.0
C97 C 0.03775 0.74973 0.57628 0.0
C98 C 0.0185 0.78741 0.67624 0.0
C99 C 0.02903 0.79388 0.71125 0.0
N100 N 0.04465 0.80643 0.70675 0.0
C101 C 0.03459 0.80043 0.67194 0.0
C102 C 0.01563 0.78412 0.69602 0.0
C103 C 0.04768 0.80988 0.68759 0.0
C104 C 0.98745 0.80097 0.61144 0.0
N105 N 0.0044 0.79448 0.61674 0.0
C106 C 0.0227 0.82045 0.60175 0.0
C107 C 0.02185 0.80383 0.6122 0.0
C108 C 0.00543 0.82761 0.59622 0.0
C109 C 0.98763 0.8176 0.60114 0.0
H110 H 0.9738 0.79323 0.61531 0.0
H111 H 0.03511 0.79837 0.61675 0.0
C112 C 0.04743 0.75177 0.6898 0.0
N113 N 0.04515 0.75592 0.67047 0.0
C114 C 0.06608 0.75177 0.69912 0.0
C115 C 0.07962 0.76101 0.66873 0.0
C116 C 0.06081 0.76092 0.66008 0.0
C117 C 0.08245 0.75609 0.68839 0.0
H118 H 0.03482 0.74834 0.69798 0.0
H119 H 0.05872 0.76478 0.64497 0.0
C120 C 0.96644 0.74408 0.61302 0.0
N121 N 0.94395 0.7229 0.581 0.0
C122 C 0.95151 0.72919 0.6162 0.0
C123 C 0.96989 0.74827 0.59358 0.0
C124 C 0.94031 0.71863 0.59981 0.0
C125 C 0.95836 0.73739 0.57758 0.0
C126 C 0.00874 0.71988 0.66997 0.0
C127 C 0.02212 0.70909 0.66194 0.0
C128 C 0.00403 0.71784 0.68952 0.0
C129 C 0.03087 0.69663 0.67376 0.0
C130 C 0.01308 0.70521 0.70086 0.0
N131 N 0.02622 0.69498 0.69282 0.0
C132 C 0.99755 0.71069 0.59429 0.0
C133 C 0.98578 0.69663 0.62267 0.0
C134 C 0.99586 0.6923 0.58391 0.0
N135 N 0.99336 0.71245 0.61362 0.0
C136 C 0.98354 0.67801 0.61278 0.0
C137 C 0.9893 0.67555 0.59335 0.0
H138 H 0.00264 0.72343 0.58697 0.0
H139 H 0.98187 0.69841 0.63781 0.0
C140 C 0.96002 0.77027 0.68361 0.0
N141 N 0.96441 0.75357 0.67453 0.0
C142 C 0.94326 0.76984 0.69388 0.0
C143 C 0.93617 0.73502 0.68545 0.0
C144 C 0.95311 0.7361 0.67556 0.0
C145 C 0.93088 0.75208 0.69448 0.0
H146 H 0.96924 0.78399 0.68242 0.0
H147 H 0.95702 0.72306 0.66821 0.0
O148 O 0.02272 0.75507 0.62701 0.0
O149 O 0.00585 0.77761 0.66112 0.0
O150 O 0.97798 0.75415 0.62883 0.0
O151 O 1.00001 0.73215 0.65865 0.0
H152 H 0.04643 0.72864 0.62673 0.0
H153 H 0.01892 0.76707 0.59078 0.0
H154 H 0.06224 0.71748 0.5972 0.0
H155 H 0.03551 0.75551 0.56201 0.0
H156 H 0.02706 0.7914 0.72663 0.0
H157 H 0.03705 0.80303 0.65667 0.0
H158 H 0.00332 0.77394 0.69955 0.0
H159 H 0.06027 0.81991 0.6845 0.0
H160 H 0.03672 0.82786 0.59842 0.0
H161 H 0.97398 0.82256 0.597 0.0
H162 H 0.06764 0.74803 0.71437 0.0
H163 H 0.09186 0.76498 0.6601 0.0
H164 H 0.94874 0.7257 0.63116 0.0
H165 H 0.98149 0.75966 0.59088 0.0
H166 H 0.92877 0.70699 0.60203 0.0
H167 H 0.96093 0.7404 0.56245 0.0
H168 H 0.02567 0.7103 0.64674 0.0
H169 H 0.9936 0.72604 0.69589 0.0
H170 H 0.04133 0.68825 0.66777 0.0
H171 H 0.00968 0.70356 0.71606 0.0
H172 H 1.00043 0.69127 0.56895 0.0
H173 H 0.97773 0.66566 0.62047 0.0
H174 H 0.9396 0.78332 0.70054 0.0
H175 H 0.92711 0.72102 0.68576 0.0
Li176 Li 0.50517 0.77126 0.88085 0.0
Li177 Li 0.52814 0.78862 0.90795 0.0
Li178 Li 0.53935 0.76981 0.88 0.0
Li179 Li 0.52156 0.75351 0.90553 0.0
C180 C 0.51776 0.80498 0.86764 0.0
N181 N 0.49823 0.82806 0.84429 0.0
C182 C 0.51205 0.8219 0.87621 0.0
C183 C 0.51364 0.79985 0.84718 0.0
C184 C 0.50218 0.83338 0.86415 0.0
C185 C 0.50371 0.81169 0.83564 0.0
C186 C 0.49065 0.76308 0.92216 0.0
C187 C 0.48412 0.75179 0.95422 0.0
N188 N 0.46597 0.74333 0.94654 0.0
C189 C 0.47191 0.75432 0.91458 0.0
C190 C 0.4968 0.76188 0.94216 0.0
C191 C 0.45965 0.74439 0.92715 0.0
C192 C 0.47375 0.75866 0.85081 0.0
N193 N 0.48101 0.7723 0.86604 0.0
C194 C 0.45253 0.78753 0.86261 0.0
C195 C 0.47086 0.78659 0.872 0.0
C196 C 0.44434 0.77336 0.84715 0.0
C197 C 0.45534 0.75891 0.8411 0.0
H198 H 0.48202 0.74728 0.84657 0.0
H199 H 0.47688 0.79708 0.88435 0.0
C200 C 0.54785 0.82633 0.92214 0.0
N201 N 0.53339 0.8119 0.92551 0.0
C202 C 0.55053 0.84422 0.93364 0.0
C203 C 0.52366 0.8319 0.95211 0.0
C204 C 0.5215 0.81428 0.94026 0.0
C205 C 0.5381 0.8473 0.94863 0.0
H206 H 0.55689 0.82416 0.91009 0.0
H207 H 0.50985 0.80277 0.94236 0.0
C208 C 0.52427 0.73537 0.86289 0.0
N209 N 0.54008 0.71134 0.83631 0.0
C210 C 0.53267 0.71974 0.86953 0.0
C211 C 0.52378 0.73871 0.84273 0.0
C212 C 0.54061 0.70776 0.85585 0.0
C213 C 0.5319 0.72643 0.82954 0.0
C214 C 0.56176 0.78061 0.92162 0.0
C215 C 0.578 0.79089 0.91411 0.0
C216 C 0.56014 0.78184 0.94216 0.0
C217 C 0.59235 0.80234 0.92732 0.0
C218 C 0.57478 0.79348 0.95487 0.0
N219 N 0.59045 0.8034 0.94725 0.0
C220 C 0.56357 0.78123 0.84952 0.0
C221 C 0.57277 0.7556 0.86744 0.0
C222 C 0.57986 0.7814 0.83864 0.0
N223 N 0.56044 0.76856 0.86369 0.0
C224 C 0.58919 0.75519 0.85685 0.0
C225 C 0.59309 0.76843 0.84244 0.0
H226 H 0.55371 0.79156 0.84701 0.0
H227 H 0.57012 0.74593 0.87906 0.0
C228 C 0.50209 0.7182 0.91773 0.0
N229 N 0.5189 0.73114 0.92031 0.0
C230 C 0.49978 0.70203 0.92884 0.0
C231 C 0.53248 0.71231 0.94433 0.0
C232 C 0.53402 0.72845 0.93318 0.0
C233 C 0.51512 0.69884 0.94238 0.0
H234 H 0.49041 0.72052 0.90714 0.0
H235 H 0.54737 0.73875 0.93464 0.0
O236 O 0.52716 0.79339 0.87924 0.0
O237 O 0.50295 0.77267 0.91004 0.0
O238 O 0.51679 0.7475 0.87611 0.0
O239 O 0.54737 0.76962 0.90891 0.0
H240 H 0.51501 0.82605 0.89203 0.0
H241 H 0.51782 0.78673 0.84034 0.0
H242 H 0.4976 0.84647 0.87059 0.0
H243 H 0.5003 0.80783 0.81981 0.0
H244 H 0.48874 0.75063 0.96969 0.0
H245 H 0.46692 0.755 0.89914 0.0
H246 H 0.51131 0.76844 0.94822 0.0
H247 H 0.44514 0.73748 0.92148 0.0
H248 H 0.44477 0.79909 0.86763 0.0
H249 H 0.44953 0.7475 0.82951 0.0
H250 H 0.56193 0.85565 0.93051 0.0
H251 H 0.51349 0.83372 0.96321 0.0
H252 H 0.53323 0.71699 0.88509 0.0
H253 H 0.51738 0.75079 0.83738 0.0
H254 H 0.54724 0.69566 0.86078 0.0
H255 H 0.53174 0.72891 0.81391 0.0
H256 H 0.57943 0.79021 0.89825 0.0
H257 H 0.54761 0.77406 0.94819 0.0
H258 H 0.60497 0.81044 0.92172 0.0
H259 H 0.57367 0.79465 0.97079 0.0
H260 H 0.58225 0.79179 0.8276 0.0
H261 H 0.59915 0.74518 0.86051 0.0
H262 H 0.48605 0.69225 0.92689 0.0
H263 H 0.54493 0.71029 0.95411 0.0
Li264 Li 0.50344 0.26989 0.12349 0.0
Li265 Li 0.51869 0.25252 0.14918 0.0
Li266 Li 0.49702 0.23474 0.12143 0.0
Li267 Li 0.48443 0.25384 0.14828 0.0
C268 C 0.53451 0.26023 0.10781 0.0
N269 N 0.55881 0.27962 0.08284 0.0
C270 C 0.55305 0.26971 0.11524 0.0
C271 C 0.52835 0.26061 0.08767 0.0
C272 C 0.56512 0.27941 0.10237 0.0
C273 C 0.54084 0.27051 0.0753 0.0
C274 C 0.49824 0.28858 0.16494 0.0
C275 C 0.48767 0.29799 0.19696 0.0
N276 N 0.47999 0.31283 0.18897 0.0
C277 C 0.49027 0.30394 0.15705 0.0
C278 C 0.49699 0.28561 0.18507 0.0
C279 C 0.48111 0.31604 0.16945 0.0
C280 C 0.49178 0.29495 0.09541 0.0
N281 N 0.5066 0.29217 0.10861 0.0
C282 C 0.52586 0.32158 0.10101 0.0
C283 C 0.52332 0.3052 0.11179 0.0
C284 C 0.51079 0.32494 0.08723 0.0
C285 C 0.49353 0.31132 0.08459 0.0
H286 H 0.47844 0.28462 0.09353 0.0
H287 H 0.5347 0.30287 0.12272 0.0
C288 C 0.55486 0.24067 0.15747 0.0
N289 N 0.54215 0.25152 0.16531 0.0
C290 C 0.57259 0.2396 0.16807 0.0
C291 C 0.5635 0.26025 0.19506 0.0
C292 C 0.54606 0.26117 0.18375 0.0
C293 C 0.57723 0.24955 0.18715 0.0
H294 H 0.55134 0.2331 0.14276 0.0
H295 H 0.53567 0.26961 0.18969 0.0
C296 C 0.46383 0.24243 0.10596 0.0
N297 N 0.43604 0.21935 0.07957 0.0
C298 C 0.4476 0.23165 0.113 0.0
C299 C 0.46591 0.24152 0.08551 0.0
C300 C 0.43371 0.22007 0.09941 0.0
C301 C 0.45171 0.22974 0.07241 0.0
C302 C 0.50657 0.21899 0.16171 0.0
C303 C 0.5147 0.20372 0.15272 0.0
C304 C 0.50914 0.22301 0.18242 0.0
C305 C 0.5253 0.19272 0.16463 0.0
C306 C 0.51987 0.21169 0.1938 0.0
N307 N 0.52766 0.19691 0.18475 0.0
C308 C 0.50463 0.20864 0.08972 0.0
C309 C 0.47784 0.19684 0.10736 0.0
C310 C 0.50265 0.19091 0.07808 0.0
N311 N 0.49239 0.21123 0.10409 0.0
C312 C 0.47533 0.17885 0.09606 0.0
C313 C 0.48805 0.1756 0.08138 0.0
H314 H 0.51641 0.22006 0.08777 0.0
H315 H 0.46855 0.19914 0.11915 0.0
C316 C 0.44981 0.26747 0.15595 0.0
N317 N 0.4625 0.25611 0.16318 0.0
C318 C 0.43332 0.27001 0.16573 0.0
C319 C 0.4434 0.24942 0.19054 0.0
C320 C 0.45964 0.24712 0.18013 0.0
C321 C 0.4299 0.26084 0.18321 0.0
H322 H 0.4525 0.27451 0.14247 0.0
H323 H 0.4699 0.23811 0.18553 0.0
O324 O 0.52236 0.25083 0.12022 0.0
O325 O 0.50682 0.27627 0.15292 0.0
O326 O 0.47779 0.25357 0.11905 0.0
O327 O 0.4966 0.23028 0.15026 0.0
H328 H 0.55799 0.26983 0.13081 0.0
H329 H 0.51398 0.25356 0.08171 0.0
H330 H 0.57947 0.28687 0.10793 0.0
H331 H 0.53621 0.271 0.05972 0.0
H332 H 0.48643 0.29574 0.21251 0.0
H333 H 0.49098 0.30641 0.1415 0.0
H334 H 0.50274 0.27358 0.19134 0.0
H335 H 0.47482 0.32793 0.16353 0.0
H336 H 0.53952 0.33145 0.10349 0.0
H337 H 0.48126 0.31345 0.07462 0.0
H338 H 0.58273 0.23148 0.16108 0.0
H339 H 0.56617 0.26788 0.2098 0.0
H340 H 0.44586 0.232 0.12879 0.0
H341 H 0.47842 0.24971 0.07982 0.0
H342 H 0.42111 0.21158 0.10465 0.0
H343 H 0.45317 0.22883 0.05655 0.0
H344 H 0.51306 0.20052 0.13672 0.0
H345 H 0.5033 0.23502 0.18959 0.0
H346 H 0.53174 0.1809 0.15787 0.0
H347 H 0.52211 0.21474 0.20982 0.0
H348 H 0.51305 0.18895 0.06725 0.0
H349 H 0.46382 0.16749 0.09907 0.0
H350 H 0.42336 0.27907 0.15969 0.0
H351 H 0.44116 0.24197 0.20387 0.0
Li352 Li 0.0176 0.78717 0.13161 0.0
Li353 Li 0.03499 0.77297 0.15816 0.0
Li354 Li 0.01458 0.75226 0.12957 0.0
Li355 Li 0.99883 0.76893 0.15585 0.0
C356 C 0.05072 0.78229 0.11796 0.0
N357 N 0.07394 0.80577 0.09524 0.0
C358 C 0.06564 0.79649 0.1272 0.0
C359 C 0.04771 0.77988 0.09718 0.0
C360 C 0.0772 0.80825 0.11545 0.0
C361 C 0.05958 0.79194 0.08594 0.0
C362 C 0.02044 0.80253 0.18005 0.0
C363 C 0.01963 0.80078 0.21551 0.0
N364 N 0.02517 0.82041 0.21843 0.0
C365 C 0.02598 0.82271 0.18339 0.0
C366 C 0.01714 0.7915 0.19623 0.0
C367 C 0.02834 0.83146 0.20291 0.0
C368 C 0.00726 0.80982 0.09989 0.0
N369 N 0.01876 0.80964 0.11706 0.0
C370 C 0.0313 0.84335 0.1164 0.0
C371 C 0.03083 0.82587 0.12524 0.0
C372 C 0.01927 0.84411 0.09892 0.0
C373 C 0.0074 0.82699 0.09042 0.0
H374 H 0.99763 0.7968 0.0938 0.0
H375 H 0.0399 0.82527 0.13882 0.0
C376 C 0.06586 0.7574 0.17519 0.0
N377 N 0.0581 0.77417 0.17537 0.0
C378 C 0.08264 0.75635 0.18742 0.0
C379 C 0.0834 0.79001 0.1996 0.0
C380 C 0.06659 0.79042 0.18705 0.0
C381 C 0.0916 0.77276 0.19997 0.0
H382 H 0.05891 0.7448 0.16553 0.0
H383 H 0.06042 0.80372 0.18663 0.0
C384 C 0.98055 0.75878 0.11131 0.0
N385 N 0.955 0.73905 0.08063 0.0
C386 C 0.96152 0.75126 0.11488 0.0
C387 C 0.98655 0.75639 0.09211 0.0
C388 C 0.94882 0.7413 0.09917 0.0
C389 C 0.97343 0.74633 0.07681 0.0
C390 C 0.01214 0.73507 0.17166 0.0
C391 C 0.99976 0.71762 0.16553 0.0
C392 C 0.02114 0.73798 0.19111 0.0
C393 C 0.99622 0.70357 0.17906 0.0
C394 C 0.01726 0.72358 0.20419 0.0
N395 N 0.00497 0.70682 0.19795 0.0
C396 C 0.03021 0.72394 0.1066 0.0
C397 C 0.9965 0.71563 0.11017 0.0
C398 C 0.03065 0.7056 0.09684 0.0
N399 N 0.01337 0.72845 0.11331 0.0
C400 C 0.99624 0.69723 0.1004 0.0
C401 C 0.01358 0.6918 0.09406 0.0
H402 H 0.04348 0.73433 0.10952 0.0
H403 H 0.98336 0.71939 0.11589 0.0
C404 C 0.97119 0.78431 0.17834 0.0
N405 N 0.9762 0.76747 0.17031 0.0
C406 C 0.95436 0.78401 0.18831 0.0
C407 C 0.94769 0.74907 0.18104 0.0
C408 C 0.96483 0.75003 0.17143 0.0
C409 C 0.94217 0.76624 0.18956 0.0
H410 H 0.9801 0.79808 0.17676 0.0
H411 H 0.96865 0.73694 0.16424 0.0
O412 O 0.03896 0.77096 0.12922 0.0
O413 O 0.01829 0.7937 0.16103 0.0
O414 O 0.9932 0.76846 0.12654 0.0
O415 O 0.01603 0.74886 0.15847 0.0
H416 H 0.06811 0.79856 0.14329 0.0
H417 H 0.03631 0.76886 0.08981 0.0
H418 H 0.08873 0.81939 0.12239 0.0
H419 H 0.05737 0.79032 0.06984 0.0
H420 H 0.0171 0.79239 0.22815 0.0
H421 H 0.02845 0.83153 0.17106 0.0
H422 H 0.01239 0.77599 0.19388 0.0
H423 H 0.03269 0.84705 0.20571 0.0
H424 H 0.04086 0.8562 0.12327 0.0
H425 H 0.99783 0.82704 0.07702 0.0
H426 H 0.08867 0.74288 0.18682 0.0
H427 H 0.08979 0.80299 0.20904 0.0
H428 H 0.95658 0.75311 0.1296 0.0
H429 H 0.00124 0.76205 0.08911 0.0
H430 H 0.93407 0.73537 0.10173 0.0
H431 H 0.97791 0.74427 0.06191 0.0
H432 H 0.99274 0.715 0.15057 0.0
H433 H 0.03112 0.75115 0.1961 0.0
H434 H 0.98654 0.69008 0.17452 0.0
H435 H 0.02408 0.7257 0.21929 0.0
H436 H 0.04439 0.70199 0.09241 0.0
H437 H 0.98268 0.68717 0.09832 0.0
H438 H 0.95085 0.79763 0.19477 0.0
H439 H 0.93855 0.73509 0.18114 0.0
Li440 Li 0.50127 0.76791 0.40619 0.0
Li441 Li 0.48161 0.74609 0.38026 0.0
Li442 Li 0.50397 0.73441 0.40478 0.0
Li443 Li 0.51694 0.75266 0.37873 0.0
C444 C 0.47101 0.75306 0.42489 0.0
N445 N 0.45252 0.76827 0.45589 0.0
C446 C 0.45143 0.75537 0.42196 0.0
C447 C 0.48105 0.75814 0.4437 0.0
C448 C 0.44237 0.76317 0.43779 0.0
C449 C 0.4715 0.76592 0.45915 0.0
C450 C 0.49498 0.77635 0.35827 0.0
C451 C 0.4913 0.76808 0.32272 0.0
N452 N 0.4889 0.78673 0.3199 0.0
C453 C 0.49244 0.79541 0.35504 0.0
C454 C 0.49438 0.76254 0.34201 0.0
C455 C 0.4894 0.80038 0.33552 0.0
C456 C 0.51643 0.80049 0.43415 0.0
N457 N 0.5009 0.79178 0.42159 0.0
C458 C 0.48381 0.81853 0.4282 0.0
C459 C 0.48475 0.80033 0.41855 0.0
C460 C 0.49981 0.82822 0.44087 0.0
C461 C 0.51618 0.81882 0.44403 0.0
H462 H 0.5292 0.79347 0.43605 0.0
H463 H 0.4727 0.7931 0.40833 0.0
C464 C 0.45027 0.72844 0.35036 0.0
N465 N 0.45722 0.74323 0.36461 0.0
C466 C 0.43231 0.72824 0.33949 0.0
C467 C 0.42939 0.75872 0.35775 0.0
C468 C 0.44734 0.75835 0.36815 0.0
C469 C 0.42154 0.74344 0.34332 0.0
H470 H 0.45863 0.71687 0.34725 0.0
H471 H 0.45352 0.77022 0.37911 0.0
C472 C 0.53933 0.74926 0.41906 0.0
N473 N 0.56598 0.73288 0.44214 0.0
C474 C 0.55259 0.73897 0.41003 0.0
C475 C 0.5398 0.75143 0.43984 0.0
C476 C 0.56591 0.73075 0.42195 0.0
C477 C 0.55333 0.74298 0.45125 0.0
C478 C 0.48984 0.70869 0.3709 0.0
C479 C 0.47497 0.70168 0.38251 0.0
C480 C 0.49434 0.69674 0.35489 0.0
C481 C 0.46488 0.68281 0.37788 0.0
C482 C 0.48389 0.67796 0.35074 0.0
N483 N 0.46951 0.67144 0.36223 0.0
C484 C 0.5007 0.70989 0.43716 0.0
C485 C 0.51854 0.69986 0.41075 0.0
C486 C 0.50324 0.69321 0.44674 0.0
N487 N 0.5082 0.71277 0.41942 0.0
C488 C 0.52129 0.68299 0.4197 0.0
C489 C 0.51336 0.67935 0.43779 0.0
H490 H 0.49241 0.72028 0.44367 0.0
H491 H 0.52437 0.70253 0.39666 0.0
C492 C 0.54539 0.77419 0.35774 0.0
N493 N 0.53702 0.75604 0.36129 0.0
C494 C 0.56071 0.77656 0.34549 0.0
C495 C 0.55829 0.74151 0.34071 0.0
C496 C 0.54298 0.73984 0.35293 0.0
C497 C 0.5675 0.76007 0.33693 0.0
H498 H 0.54028 0.78682 0.36459 0.0
H499 H 0.53614 0.72561 0.3562 0.0
O500 O 0.4802 0.74569 0.40948 0.0
O501 O 0.49779 0.77127 0.37733 0.0
O502 O 0.52587 0.75701 0.4076 0.0
O503 O 0.50015 0.72704 0.37519 0.0
H504 H 0.44326 0.75108 0.40767 0.0
H505 H 0.49614 0.75635 0.44627 0.0
H506 H 0.42726 0.76512 0.43569 0.0
H507 H 0.47919 0.7701 0.47372 0.0
H508 H 0.49079 0.75756 0.31 0.0
H509 H 0.49279 0.80623 0.3675 0.0
H510 H 0.4962 0.74768 0.34421 0.0
H511 H 0.48741 0.81509 0.33279 0.0
H512 H 0.4708 0.82508 0.4255 0.0
H513 H 0.52897 0.82585 0.45341 0.0
H514 H 0.4268 0.71623 0.32842 0.0
H515 H 0.42184 0.77098 0.36082 0.0
H516 H 0.55245 0.73714 0.394 0.0
H517 H 0.52983 0.75951 0.44712 0.0
H518 H 0.57614 0.72262 0.41515 0.0
H519 H 0.55378 0.74445 0.46734 0.0
H520 H 0.47122 0.71062 0.39496 0.0
H521 H 0.50577 0.70193 0.34573 0.0
H522 H 0.45337 0.6772 0.38674 0.0
H523 H 0.48722 0.66857 0.33838 0.0
H524 H 0.49674 0.69084 0.46059 0.0
H525 H 0.52937 0.67276 0.41241 0.0
H526 H 0.5672 0.79114 0.34282 0.0
H527 H 0.56322 0.72839 0.33481 0.0
Li528 Li 0.51917 0.28523 0.63042 0.0
Li529 Li 0.53782 0.27316 0.65913 0.0
Li530 Li 0.51862 0.25059 0.6339 0.0
Li531 Li 0.503 0.26813 0.65771 0.0
C532 C 0.55271 0.25976 0.61994 0.0
N533 N 0.57448 0.23623 0.59932 0.0
C534 C 0.56488 0.24892 0.63027 0.0
C535 C 0.55162 0.25862 0.59912 0.0
C536 C 0.57576 0.23712 0.61957 0.0
C537 C 0.56275 0.24665 0.58898 0.0
C538 C 0.53247 0.30846 0.67099 0.0
C539 C 0.54879 0.32268 0.70265 0.0
N540 N 0.55751 0.33795 0.69351 0.0
C541 C 0.5416 0.32431 0.66192 0.0
C542 C 0.53606 0.30764 0.69154 0.0
C543 C 0.5542 0.33908 0.67356 0.0
C544 C 0.50376 0.31709 0.61766 0.0
N545 N 0.51745 0.3057 0.61365 0.0
C546 C 0.52716 0.32446 0.58689 0.0
C547 C 0.52912 0.30906 0.59865 0.0
C548 C 0.51326 0.33669 0.59081 0.0
C549 C 0.50149 0.33277 0.6065 0.0
H550 H 0.49479 0.31411 0.62979 0.0
H551 H 0.54001 0.29989 0.59589 0.0
C552 C 0.56472 0.26556 0.68983 0.0
N553 N 0.56188 0.27778 0.67551 0.0
C554 C 0.58263 0.26745 0.70107 0.0
C555 C 0.59453 0.29443 0.68254 0.0
C556 C 0.57632 0.29204 0.67167 0.0
C557 C 0.59791 0.28191 0.69735 0.0
H558 H 0.55331 0.25385 0.69205 0.0
H559 H 0.57382 0.30126 0.65986 0.0
C560 C 0.48599 0.25405 0.61182 0.0
N561 N 0.46556 0.23314 0.57839 0.0
C562 C 0.47556 0.23551 0.61322 0.0
C563 C 0.48592 0.26198 0.59341 0.0
C564 C 0.46537 0.22516 0.59615 0.0
C565 C 0.47552 0.25117 0.57669 0.0
C566 C 0.50999 0.23979 0.67676 0.0
C567 C 0.49606 0.22337 0.67079 0.0
C568 C 0.51235 0.24731 0.69674 0.0
C569 C 0.48477 0.21472 0.68491 0.0
C570 C 0.50075 0.23826 0.7104 0.0
N571 N 0.48732 0.22229 0.70425 0.0
C572 C 0.52389 0.2116 0.6307 0.0
C573 C 0.51551 0.22243 0.59925 0.0
C574 C 0.52399 0.19285 0.62201 0.0
N575 N 0.51908 0.2258 0.61941 0.0
C576 C 0.51557 0.20384 0.58987 0.0
C577 C 0.51944 0.18869 0.6014 0.0
H578 H 0.52757 0.2148 0.64655 0.0
H579 H 0.51246 0.2341 0.59043 0.0
C580 C 0.48187 0.27989 0.68992 0.0
N581 N 0.4809 0.26779 0.67298 0.0
C582 C 0.46587 0.27942 0.70126 0.0
C583 C 0.44812 0.25419 0.67742 0.0
C584 C 0.46443 0.25516 0.66657 0.0
C585 C 0.44867 0.26644 0.69502 0.0
H586 H 0.49507 0.28987 0.69467 0.0
H587 H 0.46395 0.24582 0.65302 0.0
O588 O 0.54156 0.27099 0.63015 0.0
O589 O 0.52028 0.29372 0.65979 0.0
O590 O 0.49595 0.26454 0.62838 0.0
O591 O 0.52082 0.24881 0.66303 0.0
H592 H 0.56571 0.2494 0.64635 0.0
H593 H 0.54197 0.26655 0.59086 0.0
H594 H 0.58517 0.22859 0.62737 0.0
H595 H 0.56194 0.24554 0.57286 0.0
H596 H 0.55179 0.32215 0.71854 0.0
H597 H 0.53915 0.32517 0.64604 0.0
H598 H 0.52939 0.29537 0.69879 0.0
H599 H 0.5614 0.3514 0.66672 0.0
H600 H 0.53645 0.3267 0.57486 0.0
H601 H 0.4909 0.34197 0.6105 0.0
H602 H 0.58474 0.25716 0.71197 0.0
H603 H 0.60591 0.30577 0.67919 0.0
H604 H 0.47567 0.22897 0.62721 0.0
H605 H 0.49381 0.2763 0.592 0.0
H606 H 0.45739 0.21074 0.597 0.0
H607 H 0.47539 0.25712 0.56236 0.0
H608 H 0.49376 0.21749 0.65538 0.0
H609 H 0.52274 0.26023 0.70162 0.0
H610 H 0.47389 0.20206 0.68045 0.0
H611 H 0.50235 0.24402 0.72587 0.0
H612 H 0.52754 0.18168 0.63135 0.0
H613 H 0.51212 0.20123 0.57389 0.0
H614 H 0.467 0.28905 0.71479 0.0
H615 H 0.43507 0.24423 0.67181 0.0
Li616 Li 0.0067 0.26807 0.90785 0.0
Li617 Li 0.98739 0.24696 0.88075 0.0
Li618 Li 0.00648 0.23337 0.90683 0.0
Li619 Li 0.02212 0.25155 0.88131 0.0
C620 C 0.97335 0.25632 0.9224 0.0
N621 N 0.95239 0.27597 0.94808 0.0
C622 C 0.95751 0.2646 0.91492 0.0
C623 C 0.97844 0.2579 0.94294 0.0
C624 C 0.94711 0.2745 0.92816 0.0
C625 C 0.96769 0.26794 0.95568 0.0
C626 C 0.01541 0.28403 0.86788 0.0
C627 C 0.02735 0.29204 0.83645 0.0
N628 N 0.03848 0.30839 0.84576 0.0
C629 C 0.02698 0.30091 0.87714 0.0
C630 C 0.01557 0.27956 0.84736 0.0
C631 C 0.03852 0.31305 0.86569 0.0
C632 C 0.0216 0.29743 0.93926 0.0
N633 N 0.00747 0.29176 0.92408 0.0
C634 C 0.99477 0.32159 0.92935 0.0
C635 C 0.99416 0.30337 0.91902 0.0
C636 C 0.00945 0.32805 0.94483 0.0
C637 C 0.02286 0.31562 0.94991 0.0
H638 H 0.03222 0.28809 0.94274 0.0
H639 H 0.98339 0.29867 0.90654 0.0
C640 C 0.94811 0.23055 0.8679 0.0
N641 N 0.96348 0.24396 0.86441 0.0
C642 C 0.93008 0.22968 0.85699 0.0
C643 C 0.94423 0.2561 0.83888 0.0
C644 C 0.9619 0.25648 0.85014 0.0
C645 C 0.9279 0.24284 0.8425 0.0
H646 H 0.94973 0.22095 0.87957 0.0
H647 H 0.97423 0.26717 0.84786 0.0
C648 C 0.04205 0.24804 0.92382 0.0
N649 N 0.06696 0.23362 0.95072 0.0
C650 C 0.05855 0.241 0.91749 0.0
C651 C 0.03829 0.24786 0.94384 0.0
C652 C 0.07096 0.23376 0.93132 0.0
C653 C 0.05103 0.24046 0.9572 0.0
C654 C 0.99193 0.21278 0.86554 0.0
C655 C 0.98225 0.1965 0.87353 0.0
C656 C 0.98818 0.21527 0.84534 0.0
C657 C 0.9689 0.18299 0.86115 0.0
C658 C 0.9747 0.20145 0.83348 0.0
N659 N 0.96542 0.18574 0.84156 0.0
C660 C 0.99412 0.20691 0.935 0.0
C661 C 0.02273 0.20137 0.92011 0.0
C662 C 0.99497 0.19094 0.94617 0.0
N663 N 0.00792 0.21181 0.92235 0.0
C664 C 0.02442 0.18559 0.93132 0.0
C665 C 0.01033 0.18 0.94451 0.0
H666 H 0.98225 0.21521 0.93618 0.0
H667 H 0.03326 0.20531 0.90959 0.0
C668 C 0.05955 0.26724 0.87131 0.0
N669 N 0.04364 0.25363 0.8655 0.0
C670 C 0.07565 0.26879 0.8601 0.0
C671 C 0.05852 0.24254 0.83697 0.0
C672 C 0.04282 0.24143 0.84869 0.0
C673 C 0.07534 0.25621 0.84273 0.0
H674 H 0.0598 0.27669 0.88482 0.0
H675 H 0.03001 0.23074 0.84445 0.0
O676 O 0.98393 0.24687 0.90967 0.0
O677 O 0.00435 0.27171 0.87891 0.0
O678 O 0.02962 0.25499 0.91046 0.0
O679 O 0.00479 0.22635 0.87749 0.0
H680 H 0.95343 0.26363 0.89907 0.0
H681 H 0.99064 0.25156 0.94897 0.0
H682 H 0.93489 0.28108 0.92257 0.0
H683 H 0.97154 0.26937 0.9716 0.0
H684 H 0.02772 0.28868 0.8206 0.0
H685 H 0.02722 0.30454 0.89301 0.0
H686 H 0.007 0.26637 0.84 0.0
H687 H 0.04758 0.32612 0.87267 0.0
H688 H 0.9844 0.33086 0.92469 0.0
H689 H 0.03439 0.32007 0.96176 0.0
H690 H 0.91782 0.2194 0.86045 0.0
H691 H 0.94327 0.26635 0.8277 0.0
H692 H 0.06164 0.24091 0.90204 0.0
H693 H 0.02556 0.25318 0.94897 0.0
H694 H 0.08373 0.22817 0.92662 0.0
H695 H 0.04822 0.24012 0.97271 0.0
H696 H 0.9849 0.19436 0.88913 0.0
H697 H 0.9953 0.22793 0.83897 0.0
H698 H 0.96127 0.17036 0.86714 0.0
H699 H 0.97154 0.20328 0.81786 0.0
H700 H 0.98343 0.187 0.95564 0.0
H701 H 0.03668 0.17791 0.9296 0.0
H702 H 0.08839 0.27933 0.86531 0.0
H703 H 0.05751 0.23273 0.82358 0.0
Li704 Li 0.39749 0.02064 0.28923 0.0
Li705 Li 0.37088 0.99997 0.26869 0.0
Li706 Li 0.39694 0.02005 0.25376 0.0
Li707 Li 0.37213 0.03449 0.27042 0.0
C708 C 0.40947 0.98724 0.259 0.0
N709 N 0.43038 0.9663 0.23437 0.0
C710 C 0.40001 0.97104 0.24667 0.0
C711 C 0.4296 0.99276 0.2588 0.0
C712 C 0.41084 0.96064 0.23435 0.0
C713 C 0.43989 0.982 0.24623 0.0
C714 C 0.35724 0.00622 0.30336 0.0
C715 C 0.32546 0.98889 0.30789 0.0
N716 N 0.33325 0.98118 0.32398 0.0
C717 C 0.36492 0.99816 0.31997 0.0
C718 C 0.33733 0.00161 0.2973 0.0
C719 C 0.35255 0.98553 0.33019 0.0
C720 C 0.41243 0.03441 0.32928 0.0
N721 N 0.41425 0.02217 0.31309 0.0
C722 C 0.44077 0.01038 0.33021 0.0
C723 C 0.42801 0.01026 0.3133 0.0
C724 C 0.43918 0.02266 0.34727 0.0
C725 C 0.42487 0.03494 0.34663 0.0
H726 H 0.40118 0.04356 0.32878 0.0
H727 H 0.42894 0.00044 0.30042 0.0
C728 C 0.33959 0.97053 0.25264 0.0
N729 N 0.35479 0.9753 0.26685 0.0
C730 C 0.32835 0.95206 0.25113 0.0
C731 C 0.34861 0.94386 0.27896 0.0
C732 C 0.35948 0.96243 0.27987 0.0
C733 C 0.33291 0.93841 0.26433 0.0
H734 H 0.33637 0.98094 0.2423 0.0
H735 H 0.37188 0.96655 0.29078 0.0
C736 C 0.41237 0.05672 0.28604 0.0
N737 N 0.4356 0.08302 0.31384 0.0
C738 C 0.40435 0.07114 0.29667 0.0
C739 C 0.43221 0.05568 0.28958 0.0
C740 C 0.41634 0.08432 0.31064 0.0
C741 C 0.4437 0.06909 0.30371 0.0
C742 C 0.35688 0.02467 0.23379 0.0
C743 C 0.365 0.03634 0.21968 0.0
C744 C 0.33688 0.02286 0.23581 0.0
C745 C 0.35296 0.04609 0.20785 0.0
C746 C 0.32534 0.03288 0.22373 0.0
N747 N 0.33356 0.04419 0.21012 0.0
C748 C 0.40726 0.00872 0.21557 0.0
C749 C 0.42986 0.03369 0.23402 0.0
C750 C 0.41938 0.00827 0.20007 0.0
N751 N 0.41278 0.02119 0.23215 0.0
C752 C 0.44248 0.03364 0.21897 0.0
C753 C 0.43734 0.02076 0.20172 0.0
H754 H 0.39354 0.99898 0.21451 0.0
H755 H 0.43382 0.04349 0.24731 0.0
C756 C 0.33989 0.05399 0.27798 0.0
N757 N 0.35689 0.05497 0.26923 0.0
C758 C 0.32827 0.06855 0.27592 0.0
C759 C 0.35206 0.08496 0.25615 0.0
C760 C 0.36314 0.07004 0.25851 0.0
C761 C 0.33432 0.08433 0.26489 0.0
H762 H 0.33525 0.04184 0.2864 0.0
H763 H 0.37675 0.0704 0.25172 0.0
O764 O 0.39905 0.99791 0.27084 0.0
O765 O 0.36917 0.01839 0.29298 0.0
O766 O 0.40081 0.04353 0.27246 0.0
O767 O 0.3685 0.01541 0.24586 0.0
H768 H 0.38445 0.96665 0.24639 0.0
H769 H 0.43714 0.0055 0.26788 0.0
H770 H 0.40369 0.94812 0.2247 0.0
H771 H 0.45542 0.98623 0.2458 0.0
H772 H 0.31007 0.98506 0.30325 0.0
H773 H 0.38028 0.00146 0.32483 0.0
H774 H 0.33119 0.00744 0.28428 0.0
H775 H 0.35831 0.97913 0.34303 0.0
H776 H 0.45167 0.0008 0.32995 0.0
H777 H 0.42293 0.04441 0.35955 0.0
H778 H 0.31633 0.94845 0.23968 0.0
H779 H 0.35286 0.93367 0.28917 0.0
H780 H 0.38901 0.07207 0.29435 0.0
H781 H 0.43861 0.04434 0.28188 0.0
H782 H 0.41032 0.09552 0.31899 0.0
H783 H 0.45904 0.06835 0.3067 0.0
H784 H 0.38047 0.03807 0.21804 0.0
H785 H 0.33039 0.01413 0.24686 0.0
H786 H 0.35906 0.05525 0.19694 0.0
H787 H 0.30988 0.03175 0.22526 0.0
H788 H 0.41462 0.99838 0.18688 0.0
H789 H 0.45623 0.04341 0.22098 0.0
H790 H 0.31464 0.06735 0.28277 0.0
H791 H 0.35752 0.097 0.24786 0.0
Li792 Li 0.26521 0.14522 0.52004 0.0
Li793 Li 0.28093 0.12171 0.50266 0.0
Li794 Li 0.26567 0.1467 0.4839 0.0
Li795 Li 0.24587 0.11867 0.49886 0.0
C796 C 0.29848 0.16745 0.51438 0.0
N797 N 0.31895 0.20131 0.53431 0.0
C798 C 0.30834 0.16701 0.53312 0.0
C799 C 0.29907 0.18513 0.50577 0.0
C800 C 0.31858 0.18428 0.54296 0.0
C801 C 0.3095 0.20209 0.51608 0.0
C802 C 0.2717 0.10432 0.53342 0.0
C803 C 0.27889 0.0718 0.53656 0.0
N804 N 0.29137 0.07856 0.55289 0.0
C805 C 0.28461 0.11094 0.55024 0.0
C806 C 0.26879 0.08458 0.52653 0.0
C807 C 0.2944 0.09769 0.55989 0.0
C808 C 0.25751 0.15003 0.56003 0.0
N809 N 0.2639 0.16046 0.54497 0.0
C810 C 0.26614 0.19023 0.56589 0.0
C811 C 0.26787 0.18027 0.54746 0.0
C812 C 0.26005 0.17972 0.58187 0.0
C813 C 0.25565 0.15933 0.57865 0.0
H814 H 0.25372 0.13438 0.55759 0.0
H815 H 0.27215 0.18842 0.53512 0.0
C816 C 0.30216 0.09139 0.49028 0.0
N817 N 0.30254 0.10727 0.50339 0.0
C818 C 0.31722 0.08014 0.49143 0.0
C819 C 0.33288 0.10191 0.51943 0.0
C820 C 0.31764 0.11279 0.51762 0.0
C821 C 0.33284 0.08526 0.50627 0.0
H822 H 0.29011 0.08735 0.47898 0.0
H823 H 0.31766 0.1254 0.5279 0.0
C824 C 0.23241 0.15822 0.50996 0.0
N825 N 0.2118 0.18176 0.53202 0.0
C826 C 0.21906 0.15007 0.52259 0.0
C827 C 0.23524 0.17831 0.50847 0.0
C828 C 0.2088 0.16223 0.53365 0.0
C829 C 0.22467 0.18998 0.51976 0.0
C830 C 0.25212 0.10548 0.46282 0.0
C831 C 0.24367 0.11294 0.44622 0.0
C832 C 0.24817 0.08552 0.46498 0.0
C833 C 0.23128 0.10031 0.43211 0.0
C834 C 0.23567 0.07337 0.45056 0.0
N835 N 0.22755 0.08095 0.43456 0.0
C836 C 0.28418 0.16373 0.45237 0.0
C837 C 0.25263 0.17173 0.45572 0.0
C838 C 0.28624 0.1747 0.43595 0.0
N839 N 0.26758 0.16244 0.46186 0.0
C840 C 0.25409 0.18291 0.43938 0.0
C841 C 0.27104 0.18445 0.42916 0.0
H842 H 0.29583 0.15618 0.45757 0.0
H843 H 0.23946 0.17024 0.46335 0.0
C844 C 0.21762 0.09025 0.51173 0.0
N845 N 0.22123 0.10182 0.4967 0.0
C846 C 0.19923 0.07934 0.51242 0.0
C847 C 0.1885 0.09221 0.48199 0.0
C848 C 0.20715 0.10296 0.48192 0.0
C849 C 0.18425 0.08047 0.49762 0.0
H850 H 0.22879 0.09002 0.52365 0.0
H851 H 0.21019 0.11271 0.47045 0.0
O852 O 0.2885 0.15068 0.5044 0.0
O853 O 0.26232 0.11715 0.52345 0.0
O854 O 0.24297 0.14661 0.49945 0.0
O855 O 0.2641 0.11766 0.47694 0.0
H856 H 0.30777 0.15358 0.5402 0.0
H857 H 0.29149 0.18582 0.49134 0.0
H858 H 0.32615 0.18416 0.55753 0.0
H859 H 0.31005 0.21586 0.5096 0.0
H860 H 0.27685 0.05652 0.53132 0.0
H861 H 0.28732 0.12619 0.55562 0.0
H862 H 0.25901 0.07921 0.51344 0.0
H863 H 0.3045 0.10264 0.57285 0.0
H864 H 0.26931 0.20598 0.5675 0.0
H865 H 0.25106 0.15052 0.59048 0.0
H866 H 0.31666 0.06767 0.4807 0.0
H867 H 0.34438 0.10633 0.53131 0.0
H868 H 0.21683 0.13455 0.52401 0.0
H869 H 0.24571 0.18487 0.49896 0.0
H870 H 0.1985 0.15615 0.54358 0.0
H871 H 0.22679 0.20557 0.51886 0.0
H872 H 0.24654 0.12832 0.44429 0.0
H873 H 0.25451 0.07949 0.47776 0.0
H874 H 0.22458 0.1059 0.41922 0.0
H875 H 0.2324 0.05792 0.45211 0.0
H876 H 0.29965 0.17561 0.4287 0.0
H877 H 0.24187 0.18989 0.43451 0.0
H878 H 0.19667 0.07041 0.52468 0.0
H879 H 0.17732 0.09377 0.47044 0.0
Li880 Li 0.15142 0.02883 0.78739 0.0
Li881 Li 0.12443 0.00933 0.80238 0.0
Li882 Li 0.1493 0.99358 0.78396 0.0
Li883 Li 0.12389 0.00802 0.76541 0.0
C884 C 0.16614 0.02237 0.82319 0.0
N885 N 0.19221 0.04579 0.85099 0.0
C886 C 0.15944 0.0318 0.83971 0.0
C887 C 0.18609 0.02469 0.82089 0.0
C888 C 0.17286 0.04361 0.85359 0.0
C889 C 0.19904 0.03665 0.83508 0.0
C890 C 0.10843 0.04161 0.78637 0.0
C891 C 0.07453 0.04496 0.78072 0.0
N892 N 0.07861 0.06348 0.78954 0.0
C893 C 0.11232 0.06075 0.79519 0.0
C894 C 0.08941 0.0337 0.77892 0.0
C895 C 0.09704 0.07154 0.79673 0.0
C896 C 0.17893 0.05692 0.77303 0.0
N897 N 0.16845 0.05339 0.7889 0.0
C898 C 0.18021 0.08565 0.80399 0.0
C899 C 0.169 0.06727 0.80433 0.0
C900 C 0.19078 0.08984 0.7875 0.0
C901 C 0.19027 0.07504 0.77206 0.0
H902 H 0.17806 0.04585 0.76078 0.0
H903 H 0.16026 0.06431 0.81661 0.0
C904 C 0.10511 0.98988 0.83214 0.0
N905 N 0.1083 0.00739 0.82433 0.0
C906 C 0.09362 0.98742 0.84816 0.0
C907 C 0.08873 0.02098 0.84774 0.0
C908 C 0.10046 0.02285 0.83187 0.0
C909 C 0.08524 0.00311 0.85618 0.0
H910 H 0.11154 0.97782 0.82593 0.0
H911 H 0.10349 0.03675 0.82582 0.0
C912 C 0.16504 0.00454 0.75083 0.0
N913 N 0.19062 0.98914 0.72711 0.0
C914 C 0.15844 0.9955 0.73185 0.0
C915 C 0.18469 0.00595 0.75766 0.0
C916 C 0.1716 0.98777 0.7201 0.0
C917 C 0.19738 0.99801 0.74548 0.0
C918 C 0.10379 0.97291 0.77818 0.0
C919 C 0.10456 0.9542 0.76953 0.0
C920 C 0.08587 0.97803 0.78271 0.0
C921 C 0.0873 0.94104 0.76517 0.0
C922 C 0.06894 0.96445 0.77815 0.0
N923 N 0.06999 0.9464 0.76952 0.0
C924 C 0.17678 0.96971 0.79762 0.0
C925 C 0.16109 0.95999 0.76534 0.0
C926 C 0.18776 0.95446 0.79609 0.0
N927 N 0.16382 0.97222 0.78232 0.0
C928 C 0.17197 0.94479 0.76302 0.0
C929 C 0.18556 0.94174 0.77853 0.0
H930 H 0.17859 0.97954 0.81104 0.0
H931 H 0.1506 0.9622 0.75342 0.0
C932 C 0.10613 0.0239 0.73302 0.0
N933 N 0.10838 0.00679 0.74067 0.0
C934 C 0.09658 0.02395 0.71407 0.0
C935 C 0.09163 0.98875 0.71129 0.0
C936 C 0.10128 0.98939 0.73028 0.0
C937 C 0.08944 0.00619 0.70279 0.0
H938 H 0.11228 0.03754 0.74142 0.0
H939 H 0.10367 0.976 0.7364 0.0
O940 O 0.15322 0.01089 0.80936 0.0
O941 O 0.12325 0.03088 0.78476 0.0
O942 O 0.15232 0.01195 0.76266 0.0
O943 O 0.12058 0.98594 0.78258 0.0
H944 H 0.14405 0.03013 0.84172 0.0
H945 H 0.1915 0.01739 0.80825 0.0
H946 H 0.16789 0.05107 0.86641 0.0
H947 H 0.21452 0.03866 0.83344 0.0
H948 H 0.05974 0.039 0.77504 0.0
H949 H 0.12697 0.06717 0.80091 0.0
H950 H 0.08619 0.01911 0.7716 0.0
H951 H 0.09983 0.08632 0.80363 0.0
H952 H 0.17995 0.09669 0.81611 0.0
H953 H 0.19831 0.07753 0.75915 0.0
H954 H 0.09126 0.97337 0.85415 0.0
H955 H 0.08288 0.03356 0.8537 0.0
H956 H 0.1433 0.99437 0.7263 0.0
H957 H 0.19003 0.01297 0.77227 0.0
H958 H 0.16668 0.98064 0.70542 0.0
H959 H 0.21259 0.99887 0.75063 0.0
H960 H 0.11832 0.94991 0.76612 0.0
H961 H 0.08503 0.99225 0.78985 0.0
H962 H 0.08767 0.92655 0.75836 0.0
H963 H 0.05497 0.96825 0.78154 0.0
H964 H 0.19767 0.95257 0.80867 0.0
H965 H 0.16987 0.93572 0.74906 0.0
H966 H 0.09552 0.03774 0.70801 0.0
H967 H 0.08626 0.97473 0.7032 0.0
Li968 Li 0.23515 0.89524 0.01704 0.0
Li969 Li 0.24737 0.86805 0.03188 0.0
Li970 Li 0.26921 0.89325 0.01773 0.0
Li971 Li 0.24603 0.8691 0.99646 0.0
C972 C 0.24635 0.90817 0.05384 0.0
N973 N 0.22899 0.93234 0.07885 0.0
C974 C 0.23369 0.90026 0.06724 0.0
C975 C 0.25021 0.92837 0.05318 0.0
C976 C 0.22507 0.91274 0.07978 0.0
C977 C 0.24126 0.94034 0.06593 0.0
C978 C 0.20947 0.8565 0.00061 0.0
C979 C 0.19503 0.82611 0.9822 0.0
N980 N 0.1812 0.83528 0.9733 0.0
C981 C 0.19514 0.86563 0.99124 0.0
C982 C 0.20943 0.83658 0.99606 0.0
C983 C 0.18096 0.85464 0.97751 0.0
C984 C 0.21983 0.93013 0.01116 0.0
N985 N 0.21662 0.91276 0.01916 0.0
C986 C 0.18706 0.92043 0.03129 0.0
C987 C 0.20068 0.90776 0.02917 0.0
C988 C 0.18994 0.93853 0.02315 0.0
C989 C 0.20672 0.94335 0.01311 0.0
H990 H 0.23259 0.93378 0.00329 0.0
H991 H 0.1985 0.89382 0.03539 0.0
C992 C 0.25815 0.85663 0.06958 0.0
N993 N 0.24575 0.85137 0.05291 0.0
C994 C 0.25842 0.84436 0.08495 0.0
C995 C 0.23318 0.82144 0.06565 0.0
C996 C 0.23327 0.83427 0.05075 0.0
C997 C 0.24589 0.8264 0.08307 0.0
H998 H 0.26793 0.87034 0.07085 0.0
H999 H 0.22359 0.83043 0.03734 0.0
C1000 C 0.26394 0.90904 0.98405 0.0
N1001 N 0.2904 0.93171 0.96368 0.0
C1002 C 0.27045 0.90124 0.96655 0.0
C1003 C 0.27085 0.92841 0.99114 0.0
C1004 C 0.28382 0.91294 0.95647 0.0
C1005 C 0.28425 0.93961 0.98066 0.0
C1006 C 0.27801 0.85239 0.02436 0.0
C1007 C 0.29449 0.85982 0.03732 0.0
C1008 C 0.271 0.83241 0.0227 0.0
C1009 C 0.30366 0.84712 0.04844 0.0
C1010 C 0.28056 0.8202 0.03411 0.0
N1011 N 0.29656 0.82774 0.04664 0.0
C1012 C 0.30121 0.92138 0.03465 0.0
C1013 C 0.30692 0.90217 0.00582 0.0
C1014 C 0.32023 0.93137 0.03598 0.0
N1015 N 0.29496 0.90717 0.01969 0.0
C1016 C 0.32599 0.91186 0.00649 0.0
C1017 C 0.33289 0.92662 0.02177 0.0
H1018 H 0.29148 0.92484 0.04565 0.0
H1019 H 0.30161 0.89057 0.99428 0.0
C1020 C 0.22981 0.85758 0.95659 0.0
N1021 N 0.24255 0.85378 0.97152 0.0
C1022 C 0.22796 0.84676 0.93808 0.0
C1023 C 0.25236 0.82839 0.9507 0.0
C1024 C 0.25373 0.83954 0.96892 0.0
C1025 C 0.23947 0.83204 0.93491 0.0
H1026 H 0.22131 0.8692 0.95899 0.0
H1027 H 0.2641 0.83716 0.98082 0.0
O1028 O 0.25452 0.89618 0.04108 0.0
O1029 O 0.22359 0.86705 0.01399 0.0
O1030 O 0.25104 0.89773 0.99429 0.0
O1031 O 0.26848 0.86467 0.01376 0.0
H1032 H 0.23035 0.88466 0.06779 0.0
H1033 H 0.2597 0.93472 0.04267 0.0
H1034 H 0.21519 0.90682 0.09016 0.0
H1035 H 0.24399 0.95599 0.06547 0.0
H1036 H 0.19491 0.81072 0.97843 0.0
H1037 H 0.19504 0.88105 0.99437 0.0
H1038 H 0.22066 0.82935 0.00277 0.0
H1039 H 0.16981 0.86152 0.97012 0.0
H1040 H 0.17421 0.91587 0.03883 0.0
H1041 H 0.20976 0.9572 0.00682 0.0
H1042 H 0.26818 0.84903 0.09824 0.0
H1043 H 0.22343 0.8077 0.0634 0.0
H1044 H 0.26538 0.88629 0.96087 0.0
H1045 H 0.26631 0.93459 0.00487 0.0
H1046 H 0.28902 0.90707 0.94295 0.0
H1047 H 0.28985 0.95455 0.98609 0.0
H1048 H 0.30001 0.87524 0.03899 0.0
H1049 H 0.25806 0.82644 0.01304 0.0
H1050 H 0.31638 0.85268 0.05858 0.0
H1051 H 0.27519 0.80475 0.0331 0.0
H1052 H 0.32498 0.9427 0.04797 0.0
H1053 H 0.33538 0.90751 0.99546 0.0
H1054 H 0.2178 0.85002 0.92633 0.0
H1055 H 0.26185 0.81752 0.94879 0.0
Li1056 Li 0.24583 0.39918 0.0338 0.0
Li1057 Li 0.25895 0.37514 0.0517 0.0
Li1058 Li 0.28154 0.40235 0.0379 0.0
Li1059 Li 0.26131 0.37455 0.0162 0.0
C1060 C 0.25751 0.41929 0.06952 0.0
N1061 N 0.24573 0.45052 0.09041 0.0
C1062 C 0.23933 0.41718 0.07724 0.0
C1063 C 0.26975 0.43726 0.07253 0.0
C1064 C 0.23362 0.43316 0.08771 0.0
C1065 C 0.26352 0.45287 0.08312 0.0
C1066 C 0.22522 0.35628 0.03767 0.0
C1067 C 0.21639 0.32252 0.04353 0.0
N1068 N 0.20173 0.32732 0.0542 0.0
C1069 C 0.21003 0.36087 0.04864 0.0
C1070 C 0.22839 0.33694 0.03503 0.0
C1071 C 0.19832 0.34603 0.05688 0.0
C1072 C 0.20713 0.40556 0.02318 0.0
N1073 N 0.22513 0.41472 0.03058 0.0
C1074 C 0.21369 0.44552 0.03256 0.0
C1075 C 0.22873 0.43441 0.03477 0.0
C1076 C 0.1948 0.43636 0.02556 0.0
C1077 C 0.19168 0.41612 0.0206 0.0
H1078 H 0.20474 0.39002 0.01924 0.0
H1079 H 0.2433 0.44155 0.03977 0.0
C1080 C 0.26876 0.34637 0.07739 0.0
N1081 N 0.25659 0.35963 0.07422 0.0
C1082 C 0.26759 0.33563 0.09409 0.0
C1083 C 0.24124 0.35215 0.10383 0.0
C1084 C 0.24304 0.36266 0.08709 0.0
C1085 C 0.25377 0.33854 0.10773 0.0
H1086 H 0.27964 0.34437 0.06717 0.0
H1087 H 0.23359 0.3733 0.08443 0.0
C1088 C 0.25544 0.41267 0.99975 0.0
N1089 N 0.23516 0.43247 0.97342 0.0
C1090 C 0.24086 0.40245 0.9859 0.0
C1091 C 0.2597 0.43295 0.00023 0.0
C1092 C 0.23078 0.41273 0.97271 0.0
C1093 C 0.24928 0.44269 0.98678 0.0
C1094 C 0.29414 0.36198 0.02817 0.0
C1095 C 0.31181 0.37008 0.02151 0.0
C1096 C 0.28798 0.34188 0.02501 0.0
C1097 C 0.32292 0.35794 0.01156 0.0
C1098 C 0.29948 0.33024 0.01498 0.0
N1099 N 0.31657 0.33844 0.00851 0.0
C1100 C 0.31869 0.41983 0.05689 0.0
C1101 C 0.31094 0.42899 0.02451 0.0
C1102 C 0.33731 0.4308 0.05768 0.0
N1103 N 0.30603 0.41906 0.0404 0.0
C1104 C 0.32928 0.44028 0.02475 0.0
C1105 C 0.34284 0.4411 0.04139 0.0
H1106 H 0.31446 0.41158 0.06922 0.0
H1107 H 0.30084 0.42767 0.01136 0.0
C1108 C 0.24766 0.34535 0.98356 0.0
N1109 N 0.26215 0.35987 0.99122 0.0
C1110 C 0.24826 0.33622 0.96447 0.0
C1111 C 0.27881 0.35693 0.96174 0.0
C1112 C 0.2775 0.36576 0.98072 0.0
C1113 C 0.2639 0.34215 0.95315 0.0
H1114 H 0.23533 0.34128 0.99198 0.0
H1115 H 0.2886 0.37763 0.98698 0.0
O1116 O 0.26344 0.40386 0.05924 0.0
O1117 O 0.23705 0.37065 0.02974 0.0
O1118 O 0.26504 0.4029 0.01319 0.0
O1119 O 0.28289 0.37368 0.03764 0.0
H1120 H 0.22952 0.40352 0.07476 0.0
H1121 H 0.28388 0.43915 0.06669 0.0
H1122 H 0.21951 0.43178 0.0936 0.0
H1123 H 0.27282 0.46687 0.08552 0.0
H1124 H 0.21874 0.30751 0.04168 0.0
H1125 H 0.20751 0.37578 0.05111 0.0
H1126 H 0.24006 0.33312 0.02661 0.0
H1127 H 0.1866 0.34939 0.06552 0.0
H1128 H 0.21686 0.46114 0.03614 0.0
H1129 H 0.17737 0.40844 0.01517 0.0
H1130 H 0.2778 0.32557 0.09656 0.0
H1131 H 0.23013 0.35474 0.11364 0.0
H1132 H 0.23716 0.38679 0.98553 0.0
H1133 H 0.27067 0.44113 0.0111 0.0
H1134 H 0.21941 0.40502 0.96197 0.0
H1135 H 0.25234 0.45839 0.98705 0.0
H1136 H 0.31683 0.38559 0.02381 0.0
H1137 H 0.27439 0.33535 0.03013 0.0
H1138 H 0.33657 0.36403 0.00623 0.0
H1139 H 0.29483 0.31468 0.01233 0.0
H1140 H 0.34734 0.43107 0.0708 0.0
H1141 H 0.33307 0.44765 0.01172 0.0
H1142 H 0.23624 0.32517 0.95838 0.0
H1143 H 0.29128 0.36186 0.95378 0.0
Li1144 Li 0.78057 0.15413 0.0425 0.0
Li1145 Li 0.79027 0.12727 0.02198 0.0
Li1146 Li 0.77714 0.15382 0.00684 0.0
Li1147 Li 0.7564 0.12932 0.02311 0.0
C1148 C 0.81639 0.16684 0.03557 0.0
N1149 N 0.84567 0.18988 0.06031 0.0
C1150 C 0.83132 0.15851 0.04494 0.0
C1151 C 0.81636 0.1869 0.03879 0.0
C1152 C 0.84601 0.17041 0.05737 0.0
C1153 C 0.83128 0.19829 0.05137 0.0
C1154 C 0.76357 0.11495 0.0572 0.0
C1155 C 0.74348 0.08485 0.06266 0.0
N1156 N 0.73842 0.09343 0.07986 0.0
C1157 C 0.75819 0.12346 0.07494 0.0
C1158 C 0.75621 0.09546 0.05102 0.0
C1159 C 0.74546 0.11233 0.08619 0.0
C1160 C 0.77355 0.18418 0.0697 0.0
N1161 N 0.78525 0.17044 0.06687 0.0
C1162 C 0.80142 0.17909 0.09951 0.0
C1163 C 0.79904 0.1677 0.08129 0.0
C1164 C 0.78932 0.19325 0.10296 0.0
C1165 C 0.77538 0.19583 0.08765 0.0
H1166 H 0.76234 0.1857 0.05826 0.0
H1167 H 0.80791 0.15641 0.0788 0.0
C1168 C 0.82446 0.11471 0.00912 0.0
N1169 N 0.80876 0.10977 0.01949 0.0
C1170 C 0.83826 0.1022 0.00714 0.0
C1171 C 0.81914 0.0795 0.026 0.0
C1172 C 0.80587 0.09256 0.02783 0.0
C1173 C 0.83578 0.08433 0.01575 0.0
H1174 H 0.82637 0.1285 0.00261 0.0
H1175 H 0.79326 0.08895 0.03593 0.0
C1176 C 0.74718 0.17035 0.01651 0.0
N1177 N 0.7273 0.19534 0.9961 0.0
C1178 C 0.72926 0.16335 0.00573 0.0
C1179 C 0.75493 0.1901 0.01699 0.0
C1180 C 0.71944 0.17622 0.99551 0.0
C1181 C 0.74468 0.20248 0.00653 0.0
C1182 C 0.77734 0.11334 0.98585 0.0
C1183 C 0.78917 0.12104 0.97167 0.0
C1184 C 0.7738 0.09319 0.987 0.0
C1185 C 0.79735 0.10842 0.95887 0.0
C1186 C 0.78228 0.08107 0.97397 0.0
N1187 N 0.79378 0.08887 0.96029 0.0
C1188 C 0.79136 0.18552 0.98504 0.0
C1189 C 0.76215 0.16574 0.97094 0.0
C1190 C 0.79001 0.19846 0.97037 0.0
N1191 N 0.77732 0.16977 0.98525 0.0
C1192 C 0.76015 0.17834 0.95609 0.0
C1193 C 0.77405 0.1951 0.95586 0.0
H1194 H 0.80334 0.18828 0.9965 0.0
H1195 H 0.75129 0.15301 0.97144 0.0
C1196 C 0.71953 0.12141 0.03719 0.0
N1197 N 0.73069 0.11564 0.0229 0.0
C1198 C 0.70035 0.1123 0.0375 0.0
C1199 C 0.70446 0.09155 0.00826 0.0
C1200 C 0.72361 0.10103 0.00857 0.0
C1201 C 0.69251 0.09726 0.02278 0.0
H1202 H 0.72553 0.13323 0.04828 0.0
H1203 H 0.73272 0.09698 0.99719 0.0
O1204 O 0.80178 0.15541 0.02348 0.0
O1205 O 0.77582 0.12569 0.04584 0.0
O1206 O 0.75727 0.1579 0.02622 0.0
O1207 O 0.76965 0.12549 0.99887 0.0
H1208 H 0.83148 0.143 0.04282 0.0
H1209 H 0.80476 0.19356 0.03194 0.0
H1210 H 0.85762 0.16414 0.06476 0.0
H1211 H 0.83137 0.2138 0.05409 0.0
H1212 H 0.73753 0.06982 0.05796 0.0
H1213 H 0.76364 0.13851 0.07995 0.0
H1214 H 0.75986 0.08874 0.03714 0.0
H1215 H 0.74113 0.11875 0.09992 0.0
H1216 H 0.81239 0.17663 0.11088 0.0
H1217 H 0.76538 0.20617 0.08978 0.0
H1218 H 0.85097 0.10676 0.99938 0.0
H1219 H 0.81637 0.0658 0.0326 0.0
H1220 H 0.7231 0.14811 0.00501 0.0
H1221 H 0.76889 0.19574 0.02506 0.0
H1222 H 0.70561 0.17098 0.98703 0.0
H1223 H 0.7506 0.21775 0.00663 0.0
H1224 H 0.79219 0.1366 0.97068 0.0
H1225 H 0.76491 0.08701 0.99809 0.0
H1226 H 0.8066 0.11418 0.94787 0.0
H1227 H 0.7798 0.06546 0.97479 0.0
H1228 H 0.80103 0.21122 0.97072 0.0
H1229 H 0.74783 0.17503 0.94495 0.0
H1230 H 0.69174 0.11705 0.04908 0.0
H1231 H 0.69892 0.08028 0.99643 0.0
Li1232 Li 0.151 0.5177 0.26759 0.0
Li1233 Li 0.12399 0.49929 0.28248 0.0
Li1234 Li 0.14927 0.48316 0.26813 0.0
Li1235 Li 0.12485 0.49609 0.24709 0.0
C1236 C 0.16324 0.49514 0.30495 0.0
N1237 N 0.18536 0.47741 0.33167 0.0
C1238 C 0.15455 0.4856 0.32023 0.0
C1239 C 0.1832 0.49568 0.30328 0.0
C1240 C 0.16599 0.47675 0.3336 0.0
C1241 C 0.19412 0.4866 0.31691 0.0
C1242 C 0.1117 0.53131 0.27344 0.0
C1243 C 0.08022 0.53729 0.28278 0.0
N1244 N 0.08896 0.55342 0.2945 0.0
C1245 C 0.12036 0.54795 0.28558 0.0
C1246 C 0.09145 0.52594 0.27199 0.0
C1247 C 0.10861 0.55895 0.29609 0.0
C1248 C 0.16394 0.55507 0.2559 0.0
N1249 N 0.1677 0.54205 0.26911 0.0
C1250 C 0.19482 0.56426 0.28506 0.0
C1251 C 0.18273 0.54628 0.28355 0.0
C1252 C 0.19127 0.5781 0.2717 0.0
C1253 C 0.17563 0.57326 0.25688 0.0
H1254 H 0.15169 0.55138 0.24474 0.0
H1255 H 0.18521 0.53579 0.29404 0.0
C1256 C 0.0899 0.4887 0.30206 0.0
N1257 N 0.10747 0.50038 0.30349 0.0
C1258 C 0.07738 0.49012 0.31709 0.0
C1259 C 0.10141 0.51539 0.33488 0.0
C1260 C 0.11339 0.51357 0.31943 0.0
C1261 C 0.08311 0.50355 0.33385 0.0
H1262 H 0.08556 0.47836 0.28921 0.0
H1263 H 0.12746 0.52267 0.32011 0.0
C1264 C 0.16571 0.50951 0.23421 0.0
N1265 N 0.19048 0.53361 0.21343 0.0
C1266 C 0.15847 0.51733 0.21724 0.0
C1267 C 0.18556 0.51388 0.24057 0.0
C1268 C 0.17123 0.52948 0.20694 0.0
C1269 C 0.19784 0.52613 0.22988 0.0
C1270 C 0.10884 0.46058 0.25304 0.0
C1271 C 0.1164 0.44458 0.24483 0.0
C1272 C 0.0893 0.46224 0.24824 0.0
C1273 C 0.10428 0.43049 0.23189 0.0
C1274 C 0.07767 0.44786 0.23521 0.0
N1275 N 0.08534 0.43242 0.22738 0.0
C1276 C 0.15982 0.44947 0.28416 0.0
C1277 C 0.18041 0.46252 0.26052 0.0
C1278 C 0.17176 0.43548 0.28783 0.0
N1279 N 0.16451 0.4628 0.27093 0.0
C1280 C 0.19272 0.44875 0.26367 0.0
C1281 C 0.18859 0.4351 0.27765 0.0
H1282 H 0.14702 0.45001 0.29218 0.0
H1283 H 0.18366 0.47312 0.24991 0.0
C1284 C 0.09644 0.50522 0.21901 0.0
N1285 N 0.10936 0.49274 0.22227 0.0
C1286 C 0.08487 0.50347 0.20101 0.0
C1287 C 0.10019 0.47609 0.18993 0.0
C1288 C 0.11153 0.47842 0.20817 0.0
C1289 C 0.08669 0.48879 0.18614 0.0
H1290 H 0.09537 0.51679 0.23025 0.0
H1291 H 0.12212 0.46887 0.21108 0.0
O1292 O 0.15222 0.50362 0.2915 0.0
O1293 O 0.123 0.52006 0.26344 0.0
O1294 O 0.15338 0.4979 0.24474 0.0
O1295 O 0.12052 0.47461 0.26562 0.0
H1296 H 0.13911 0.48482 0.32164 0.0
H1297 H 0.19011 0.50267 0.29133 0.0
H1298 H 0.15945 0.46926 0.34546 0.0
H1299 H 0.20953 0.48676 0.31568 0.0
H1300 H 0.06456 0.53322 0.28191 0.0
H1301 H 0.136 0.55223 0.28708 0.0
H1302 H 0.08452 0.51291 0.26296 0.0
H1303 H 0.11513 0.57181 0.30559 0.0
H1304 H 0.2068 0.56729 0.2966 0.0
H1305 H 0.17214 0.58358 0.24649 0.0
H1306 H 0.06334 0.48085 0.31553 0.0
H1307 H 0.10663 0.52567 0.34766 0.0
H1308 H 0.14315 0.51421 0.21216 0.0
H1309 H 0.19137 0.50819 0.25383 0.0
H1310 H 0.16582 0.53569 0.19382 0.0
H1311 H 0.2132 0.52976 0.23473 0.0
H1312 H 0.13149 0.44308 0.24828 0.0
H1313 H 0.08328 0.4747 0.25415 0.0
H1314 H 0.10995 0.41805 0.22539 0.0
H1315 H 0.06258 0.44905 0.23124 0.0
H1316 H 0.16806 0.42535 0.29884 0.0
H1317 H 0.20529 0.44875 0.25517 0.0
H1318 H 0.07504 0.51389 0.19856 0.0
H1319 H 0.10204 0.46454 0.17892 0.0
Li1320 Li 0.74205 0.89857 0.537 0.0
Li1321 Li 0.75737 0.87344 0.55288 0.0
Li1322 Li 0.77833 0.9011 0.53813 0.0
Li1323 Li 0.75773 0.87397 0.51707 0.0
C1324 C 0.76066 0.91773 0.57429 0.0
N1325 N 0.75919 0.94904 0.60156 0.0
C1326 C 0.75137 0.91495 0.59171 0.0
C1327 C 0.76959 0.9364 0.57099 0.0
C1328 C 0.75066 0.93097 0.60524 0.0
C1329 C 0.76859 0.95205 0.58488 0.0
C1330 C 0.72145 0.85627 0.54008 0.0
C1331 C 0.71012 0.82308 0.54637 0.0
N1332 N 0.69566 0.8292 0.55648 0.0
C1333 C 0.7064 0.86223 0.55039 0.0
C1334 C 0.72326 0.83653 0.5379 0.0
C1335 C 0.69353 0.84832 0.55861 0.0
C1336 C 0.71313 0.9164 0.5174 0.0
N1337 N 0.72074 0.91332 0.53583 0.0
C1338 C 0.69776 0.93078 0.55105 0.0
C1339 C 0.71325 0.92011 0.55252 0.0
C1340 C 0.68982 0.93452 0.53219 0.0
C1341 C 0.69778 0.92712 0.51523 0.0
H1342 H 0.71905 0.91055 0.5043 0.0
H1343 H 0.71902 0.91701 0.56699 0.0
C1344 C 0.7695 0.8445 0.5765 0.0
N1345 N 0.75618 0.8568 0.5745 0.0
C1346 C 0.76931 0.83245 0.59216 0.0
C1347 C 0.74163 0.84584 0.6035 0.0
C1348 C 0.74233 0.85759 0.58758 0.0
C1349 C 0.75534 0.83311 0.60609 0.0
H1350 H 0.78045 0.84414 0.56603 0.0
H1351 H 0.73189 0.86747 0.58577 0.0
C1352 C 0.76044 0.91843 0.50466 0.0
N1353 N 0.76239 0.95099 0.4835 0.0
C1354 C 0.76261 0.9168 0.48422 0.0
C1355 C 0.75902 0.93658 0.51426 0.0
C1356 C 0.76365 0.93344 0.47381 0.0
C1357 C 0.76008 0.95287 0.50333 0.0
C1358 C 0.79053 0.8603 0.52719 0.0
C1359 C 0.80861 0.86738 0.52071 0.0
C1360 C 0.783 0.84051 0.52349 0.0
C1361 C 0.81874 0.85456 0.51036 0.0
C1362 C 0.79356 0.82816 0.51306 0.0
N1363 N 0.81105 0.83538 0.50675 0.0
C1364 C 0.81458 0.92342 0.55591 0.0
C1365 C 0.80874 0.92272 0.52085 0.0
C1366 C 0.83313 0.93427 0.55533 0.0
N1367 N 0.80288 0.91781 0.53877 0.0
C1368 C 0.82698 0.93366 0.5196 0.0
C1369 C 0.83968 0.93931 0.53691 0.0
H1370 H 0.8097 0.91907 0.56996 0.0
H1371 H 0.79951 0.91762 0.50736 0.0
C1372 C 0.74218 0.84603 0.48404 0.0
N1373 N 0.75733 0.85986 0.49163 0.0
C1374 C 0.74205 0.83708 0.46473 0.0
C1375 C 0.77332 0.85643 0.46178 0.0
C1376 C 0.77276 0.86507 0.48099 0.0
C1377 C 0.75766 0.84247 0.4532 0.0
H1378 H 0.73 0.84229 0.49277 0.0
H1379 H 0.7845 0.87628 0.48731 0.0
O1380 O 0.76166 0.90215 0.56098 0.0
O1381 O 0.73435 0.8697 0.53217 0.0
O1382 O 0.75944 0.90224 0.51508 0.0
O1383 O 0.78025 0.8727 0.53707 0.0
H1384 H 0.74462 0.9006 0.59469 0.0
H1385 H 0.77742 0.9388 0.55798 0.0
H1386 H 0.74335 0.92902 0.61868 0.0
H1387 H 0.77537 0.96658 0.58245 0.0
H1388 H 0.71141 0.80776 0.54491 0.0
H1389 H 0.70477 0.87745 0.55217 0.0
H1390 H 0.73472 0.83166 0.52983 0.0
H1391 H 0.68188 0.85274 0.56674 0.0
H1392 H 0.69186 0.93571 0.56456 0.0
H1393 H 0.69233 0.92969 0.50038 0.0
H1394 H 0.78004 0.82273 0.59332 0.0
H1395 H 0.73075 0.84712 0.61395 0.0
H1396 H 0.76351 0.90285 0.47647 0.0
H1397 H 0.75673 0.93803 0.52989 0.0
H1398 H 0.76543 0.9324 0.45801 0.0
H1399 H 0.75897 0.967 0.51059 0.0
H1400 H 0.81473 0.88262 0.52357 0.0
H1401 H 0.76908 0.83478 0.52847 0.0
H1402 H 0.8327 0.85986 0.50517 0.0
H1403 H 0.78784 0.81283 0.50997 0.0
H1404 H 0.84247 0.93806 0.56905 0.0
H1405 H 0.83116 0.93738 0.50509 0.0
H1406 H 0.72955 0.82659 0.45868 0.0
H1407 H 0.78581 0.86086 0.45366 0.0
Li1408 Li 0.89767 0.01478 0.26943 0.0
Li1409 Li 0.87087 0.99471 0.248 0.0
Li1410 Li 0.89769 0.01601 0.23265 0.0
Li1411 Li 0.87209 0.02993 0.24994 0.0
C1412 C 0.91463 0.98356 0.25202 0.0
N1413 N 0.94574 0.96367 0.25834 0.0
C1414 C 0.91171 0.96497 0.2588 0.0
C1415 C 0.93332 0.99186 0.2481 0.0
C1416 C 0.92764 0.95521 0.26202 0.0
C1417 C 0.94887 0.98162 0.25148 0.0
C1418 C 0.85477 0.00367 0.28206 0.0
C1419 C 0.82086 0.99127 0.28425 0.0
N1420 N 0.82557 0.98455 0.30209 0.0
C1421 C 0.85926 0.99679 0.30049 0.0
C1422 C 0.83541 0.00104 0.27393 0.0
C1423 C 0.84429 0.98711 0.31036 0.0
C1424 C 0.92018 0.03358 0.3042 0.0
N1425 N 0.91295 0.01594 0.29436 0.0
C1426 C 0.92472 0.99961 0.32164 0.0
C1427 C 0.91505 0.99911 0.30266 0.0
C1428 C 0.93216 0.01762 0.33229 0.0
C1429 C 0.92999 0.03477 0.32318 0.0
H1430 H 0.91793 0.04677 0.2975 0.0
H1431 H 0.90853 0.9853 0.29491 0.0
C1432 C 0.84211 0.96331 0.22968 0.0
N1433 N 0.85443 0.96995 0.24618 0.0
C1434 C 0.83009 0.94523 0.22892 0.0
C1435 C 0.84348 0.94137 0.26219 0.0
C1436 C 0.85549 0.95926 0.26214 0.0
C1437 C 0.8306 0.93414 0.24542 0.0
H1438 H 0.84163 0.97204 0.21713 0.0
H1439 H 0.86567 0.96468 0.27491 0.0
C1440 C 0.91704 0.05189 0.25404 0.0
N1441 N 0.94971 0.07979 0.25432 0.0
C1442 C 0.91518 0.0706 0.24879 0.0
C1443 C 0.93548 0.04746 0.25969 0.0
C1444 C 0.93188 0.08447 0.24895 0.0
C1445 C 0.95183 0.06174 0.25967 0.0
C1446 C 0.85688 0.01901 0.21222 0.0
C1447 C 0.86473 0.02988 0.19738 0.0
C1448 C 0.83676 0.01613 0.21357 0.0
C1449 C 0.85229 0.03797 0.1843 0.0
C1450 C 0.82482 0.02448 0.20024 0.0
N1451 N 0.83277 0.03515 0.18601 0.0
C1452 C 0.91514 0.00058 0.19992 0.0
C1453 C 0.92344 0.03481 0.20591 0.0
C1454 C 0.92663 0.00048 0.18381 0.0
N1455 N 0.91382 0.01756 0.21067 0.0
C1456 C 0.93527 0.03538 0.19006 0.0
C1457 C 0.93703 0.01805 0.17868 0.0
H1458 H 0.90719 0.98706 0.20385 0.0
H1459 H 0.92194 0.04821 0.2143 0.0
C1460 C 0.84544 0.05304 0.26587 0.0
N1461 N 0.85707 0.05096 0.25081 0.0
C1462 C 0.83495 0.06867 0.26723 0.0
C1463 C 0.84858 0.07976 0.23753 0.0
C1464 C 0.85883 0.06397 0.2368 0.0
C1465 C 0.83654 0.0824 0.253 0.0
H1466 H 0.84456 0.04278 0.2771 0.0
H1467 H 0.86843 0.06226 0.22517 0.0
O1468 O 0.89915 0.99327 0.24869 0.0
O1469 O 0.86927 0.01289 0.27201 0.0
O1470 O 0.90082 0.03813 0.25387 0.0
O1471 O 0.86884 0.01111 0.22524 0.0
H1472 H 0.89731 0.9582 0.26165 0.0
H1473 H 0.9358 0.00596 0.24231 0.0
H1474 H 0.92561 0.94088 0.26741 0.0
H1475 H 0.96342 0.98791 0.24855 0.0
H1476 H 0.80583 0.98902 0.27807 0.0
H1477 H 0.87414 0.99882 0.30705 0.0
H1478 H 0.83168 0.00639 0.25976 0.0
H1479 H 0.84757 0.98162 0.32458 0.0
H1480 H 0.92564 0.98604 0.3282 0.0
H1481 H 0.93558 0.04898 0.33076 0.0
H1482 H 0.82035 0.94006 0.2157 0.0
H1483 H 0.84453 0.9331 0.27507 0.0
H1484 H 0.90102 0.07434 0.24454 0.0
H1485 H 0.93715 0.03325 0.26428 0.0
H1486 H 0.93067 0.09897 0.24482 0.0
H1487 H 0.96619 0.05849 0.26399 0.0
H1488 H 0.88026 0.0322 0.19608 0.0
H1489 H 0.83044 0.00754 0.2248 0.0
H1490 H 0.85817 0.04653 0.17283 0.0
H1491 H 0.80923 0.02245 0.20118 0.0
H1492 H 0.92708 0.98677 0.17531 0.0
H1493 H 0.94307 0.04928 0.18692 0.0
H1494 H 0.82614 0.07025 0.2796 0.0
H1495 H 0.85013 0.08981 0.22608 0.0
Li1496 Li 0.28105 0.64625 0.54189 0.0
Li1497 Li 0.29048 0.62082 0.51932 0.0
Li1498 Li 0.27589 0.64684 0.50589 0.0
Li1499 Li 0.25716 0.62145 0.52311 0.0
C1500 C 0.31947 0.65259 0.53191 0.0
N1501 N 0.35642 0.65896 0.55159 0.0
C1502 C 0.32394 0.64161 0.54767 0.0
C1503 C 0.33383 0.66678 0.52618 0.0
C1504 C 0.34269 0.64505 0.55741 0.0
C1505 C 0.35242 0.66979 0.53632 0.0
C1506 C 0.26755 0.60324 0.55377 0.0
C1507 C 0.25079 0.57032 0.55357 0.0
N1508 N 0.24678 0.57417 0.57273 0.0
C1509 C 0.26351 0.60676 0.57355 0.0
C1510 C 0.26138 0.58478 0.54379 0.0
C1511 C 0.25291 0.59192 0.58284 0.0
C1512 C 0.26931 0.6601 0.5773 0.0
N1513 N 0.28486 0.66253 0.56629 0.0
C1514 C 0.3012 0.68828 0.58983 0.0
C1515 C 0.30056 0.67648 0.57199 0.0
C1516 C 0.28555 0.68556 0.60178 0.0
C1517 C 0.26942 0.67133 0.59526 0.0
H1518 H 0.25667 0.64949 0.57195 0.0
H1519 H 0.31246 0.6787 0.56265 0.0
C1520 C 0.32311 0.61 0.50159 0.0
N1521 N 0.30992 0.60465 0.51476 0.0
C1522 C 0.33732 0.59848 0.49736 0.0
C1523 C 0.32437 0.57633 0.52064 0.0
C1524 C 0.3104 0.58828 0.5244 0.0
C1525 C 0.33806 0.58134 0.50692 0.0
H1526 H 0.32251 0.62321 0.49428 0.0
H1527 H 0.30004 0.58454 0.5351 0.0
C1528 C 0.25423 0.66888 0.52848 0.0
N1529 N 0.2482 0.70721 0.53318 0.0
C1530 C 0.23548 0.67325 0.53035 0.0
C1531 C 0.26992 0.68401 0.52898 0.0
C1532 C 0.23273 0.69272 0.53272 0.0
C1533 C 0.26657 0.70328 0.53138 0.0
C1534 C 0.27612 0.60792 0.48284 0.0
C1535 C 0.28601 0.61728 0.46814 0.0
C1536 C 0.27399 0.58763 0.48258 0.0
C1537 C 0.2938 0.60618 0.45356 0.0
C1538 C 0.28204 0.57706 0.46778 0.0
N1539 N 0.2917 0.58648 0.4537 0.0
C1540 C 0.2902 0.67536 0.48066 0.0
C1541 C 0.25617 0.66427 0.47624 0.0
C1542 C 0.28865 0.68818 0.4659 0.0
N1543 N 0.27409 0.66376 0.48544 0.0
C1544 C 0.25393 0.67685 0.46141 0.0
C1545 C 0.27032 0.689 0.45603 0.0
H1546 H 0.30425 0.67461 0.48826 0.0
H1547 H 0.24362 0.65496 0.48055 0.0
C1548 C 0.22051 0.61597 0.5372 0.0
N1549 N 0.23164 0.60775 0.5243 0.0
C1550 C 0.20118 0.60771 0.53829 0.0
C1551 C 0.20533 0.58213 0.51343 0.0
C1552 C 0.22453 0.59112 0.51253 0.0
C1553 C 0.19337 0.59067 0.52621 0.0
H1554 H 0.22662 0.62917 0.54641 0.0
H1555 H 0.23367 0.58499 0.50232 0.0
O1556 O 0.30125 0.64947 0.52196 0.0
O1557 O 0.27772 0.61768 0.54431 0.0
O1558 O 0.2571 0.64986 0.52617 0.0
O1559 O 0.26874 0.61858 0.49749 0.0
H1560 H 0.31313 0.63056 0.55239 0.0
H1561 H 0.33067 0.67542 0.51405 0.0
H1562 H 0.34633 0.63667 0.56961 0.0
H1563 H 0.36365 0.68075 0.53204 0.0
H1564 H 0.24574 0.55606 0.54591 0.0
H1565 H 0.26867 0.62071 0.58176 0.0
H1566 H 0.2645 0.58174 0.52855 0.0
H1567 H 0.24961 0.59449 0.59813 0.0
H1568 H 0.3138 0.69924 0.59433 0.0
H1569 H 0.25686 0.66912 0.60381 0.0
H1570 H 0.34748 0.60285 0.48659 0.0
H1571 H 0.32464 0.56348 0.52867 0.0
H1572 H 0.22317 0.6617 0.52995 0.0
H1573 H 0.28454 0.68094 0.52755 0.0
H1574 H 0.21829 0.69632 0.53419 0.0
H1575 H 0.27858 0.71513 0.5318 0.0
H1576 H 0.28787 0.63294 0.46809 0.0
H1577 H 0.26639 0.58011 0.49378 0.0
H1578 H 0.30159 0.61325 0.44217 0.0
H1579 H 0.28063 0.56137 0.4675 0.0
H1580 H 0.30169 0.69709 0.46204 0.0
H1581 H 0.23951 0.67719 0.45437 0.0
H1582 H 0.19235 0.61463 0.54836 0.0
H1583 H 0.19968 0.56906 0.50378 0.0
Li1584 Li 0.37011 0.49435 0.74848 0.0
Li1585 Li 0.39759 0.51489 0.76874 0.0
Li1586 Li 0.37234 0.53053 0.74982 0.0
Li1587 Li 0.39713 0.51527 0.73283 0.0
C1588 C 0.35284 0.51073 0.78177 0.0
N1589 N 0.31951 0.5059 0.80173 0.0
C1590 C 0.35398 0.50723 0.8019 0.0
C1591 C 0.33478 0.51199 0.77187 0.0
C1592 C 0.33696 0.50475 0.81171 0.0
C1593 C 0.31809 0.50946 0.7822 0.0
C1594 C 0.41109 0.48227 0.75824 0.0
C1595 C 0.44378 0.47854 0.76996 0.0
N1596 N 0.43661 0.46208 0.77826 0.0
C1597 C 0.40404 0.46523 0.76672 0.0
C1598 C 0.43112 0.48891 0.75971 0.0
C1599 C 0.41718 0.45526 0.77684 0.0
C1600 C 0.34852 0.45921 0.72894 0.0
N1601 N 0.35328 0.46982 0.74686 0.0
C1602 C 0.33585 0.4445 0.76349 0.0
C1603 C 0.34727 0.46279 0.76396 0.0
C1604 C 0.33086 0.43311 0.74527 0.0
C1605 C 0.33729 0.44069 0.7278 0.0
H1606 H 0.35371 0.46502 0.71559 0.0
H1607 H 0.35182 0.4711 0.77811 0.0
C1608 C 0.42752 0.53106 0.79929 0.0
N1609 N 0.41307 0.51587 0.79348 0.0
C1610 C 0.43802 0.53204 0.81792 0.0
C1611 C 0.41885 0.50157 0.82404 0.0
C1612 C 0.40862 0.50127 0.8054 0.0
C1613 C 0.43363 0.51723 0.83064 0.0
H1614 H 0.43064 0.54258 0.78962 0.0
H1615 H 0.39684 0.48954 0.80056 0.0
C1616 C 0.35344 0.51262 0.71204 0.0
N1617 N 0.32344 0.51529 0.68364 0.0
C1618 C 0.35723 0.52237 0.69508 0.0
C1619 C 0.33445 0.50387 0.71432 0.0
C1620 C 0.34185 0.52367 0.68096 0.0
C1621 C 0.31946 0.50547 0.69987 0.0
C1622 C 0.41474 0.55144 0.74608 0.0
C1623 C 0.4091 0.56778 0.73788 0.0
C1624 C 0.43424 0.54872 0.74674 0.0
C1625 C 0.42308 0.58101 0.73018 0.0
C1626 C 0.44777 0.56226 0.73886 0.0
N1627 N 0.44195 0.57799 0.7308 0.0
C1628 C 0.35312 0.55872 0.76922 0.0
C1629 C 0.35208 0.55999 0.73425 0.0
C1630 C 0.34243 0.57414 0.77103 0.0
N1631 N 0.35753 0.55179 0.75101 0.0
C1632 C 0.34148 0.57552 0.73538 0.0
C1633 C 0.33643 0.58281 0.75396 0.0
H1634 H 0.35793 0.55227 0.78241 0.0
H1635 H 0.35628 0.55476 0.72003 0.0
C1636 C 0.42254 0.50103 0.70636 0.0
N1637 N 0.41282 0.5162 0.71051 0.0
C1638 C 0.43379 0.5008 0.69007 0.0
C1639 C 0.42502 0.5319 0.68265 0.0
C1640 C 0.41382 0.53146 0.69899 0.0
C1641 C 0.4351 0.51636 0.6779 0.0
H1642 H 0.42141 0.48898 0.71559 0.0
H1643 H 0.40577 0.54323 0.70234 0.0
O1644 O 0.36939 0.5131 0.77194 0.0
O1645 O 0.39843 0.49241 0.74858 0.0
O1646 O 0.36838 0.51105 0.7259 0.0
O1647 O 0.40123 0.53824 0.75354 0.0
H1648 H 0.36786 0.50637 0.80985 0.0
H1649 H 0.3337 0.51519 0.75648 0.0
H1650 H 0.33762 0.50194 0.82726 0.0
H1651 H 0.30403 0.51041 0.7747 0.0
H1652 H 0.45931 0.48358 0.77132 0.0
H1653 H 0.3886 0.45983 0.76565 0.0
H1654 H 0.43682 0.50197 0.75308 0.0
H1655 H 0.41192 0.44211 0.78359 0.0
H1656 H 0.33159 0.43903 0.77735 0.0
H1657 H 0.33376 0.43236 0.71346 0.0
H1658 H 0.44935 0.54434 0.82241 0.0
H1659 H 0.41475 0.49003 0.83348 0.0
H1660 H 0.37186 0.52902 0.69292 0.0
H1661 H 0.33129 0.49574 0.72699 0.0
H1662 H 0.34457 0.53133 0.66787 0.0
H1663 H 0.30469 0.49883 0.7015 0.0
H1664 H 0.3941 0.57017 0.73735 0.0
H1665 H 0.43887 0.53623 0.75316 0.0
H1666 H 0.41891 0.59368 0.72369 0.0
H1667 H 0.46289 0.56027 0.73915 0.0
H1668 H 0.33883 0.57912 0.78567 0.0
H1669 H 0.33766 0.58201 0.72184 0.0
H1670 H 0.4414 0.48858 0.68706 0.0
H1671 H 0.42536 0.54405 0.67352 0.0
Li1672 Li 0.62642 0.99304 0.7772 0.0
Li1673 Li 0.65078 0.01423 0.76255 0.0
Li1674 Li 0.62826 0.99073 0.74177 0.0
Li1675 Li 0.65396 0.97978 0.76197 0.0
C1676 C 0.60301 0.01435 0.75673 0.0
N1677 N 0.56378 0.01708 0.75198 0.0
C1678 C 0.59696 0.03258 0.75636 0.0
C1679 C 0.58908 0.9975 0.75465 0.0
C1680 C 0.57706 0.03366 0.75396 0.0
C1681 C 0.56933 0.99919 0.75227 0.0
C1682 C 0.67007 0.01034 0.79624 0.0
C1683 C 0.70458 0.022 0.80152 0.0
N1684 N 0.70128 0.03506 0.8164 0.0
C1685 C 0.66702 0.02382 0.81164 0.0
C1686 C 0.689 0.00937 0.79115 0.0
C1687 C 0.68299 0.03621 0.82163 0.0
C1688 C 0.59781 0.97539 0.80067 0.0
N1689 N 0.60957 0.99212 0.79781 0.0
C1690 C 0.59664 0.00948 0.8242 0.0
C1691 C 0.60903 0.00904 0.80897 0.0
C1692 C 0.58435 0.99239 0.82773 0.0
C1693 C 0.58491 0.97522 0.81551 0.0
H1694 H 0.59839 0.96222 0.79136 0.0
H1695 H 0.61826 0.02221 0.806 0.0
C1696 C 0.68232 0.04507 0.75967 0.0
N1697 N 0.6642 0.04011 0.7657 0.0
C1698 C 0.69096 0.06461 0.76119 0.0
C1699 C 0.66232 0.07331 0.77555 0.0
C1700 C 0.6543 0.05368 0.77382 0.0
C1701 C 0.68074 0.07903 0.76889 0.0
H1702 H 0.68984 0.03389 0.7533 0.0
H1703 H 0.64004 0.04921 0.77875 0.0
C1704 C 0.62158 0.95089 0.74834 0.0
N1705 N 0.61388 0.91496 0.72656 0.0
C1706 C 0.63442 0.94558 0.73474 0.0
C1707 C 0.60477 0.93792 0.75081 0.0
C1708 C 0.63031 0.92735 0.72389 0.0
C1709 C 0.60114 0.91983 0.73966 0.0
C1710 C 0.65945 0.00158 0.72105 0.0
C1711 C 0.65795 0.02033 0.7157 0.0
C1712 C 0.66337 0.98747 0.70669 0.0
C1713 C 0.6601 0.02458 0.69604 0.0
C1714 C 0.66543 0.9923 0.68717 0.0
N1715 N 0.66375 0.01059 0.68229 0.0
C1716 C 0.6111 0.00566 0.70947 0.0
C1717 C 0.60257 0.97133 0.70736 0.0
C1718 C 0.59993 0.00655 0.69171 0.0
N1719 N 0.61253 0.98825 0.71682 0.0
C1720 C 0.59094 0.97157 0.68959 0.0
C1721 C 0.58972 0.98935 0.68152 0.0
H1722 H 0.6185 0.01899 0.7176 0.0
H1723 H 0.60337 0.95765 0.71353 0.0
C1724 C 0.6698 0.94936 0.7791 0.0
N1725 N 0.67202 0.96208 0.76488 0.0
C1726 C 0.68305 0.9364 0.7819 0.0
C1727 C 0.70057 0.94991 0.75531 0.0
C1728 C 0.68702 0.96266 0.75309 0.0
C1729 C 0.69869 0.93655 0.76988 0.0
H1730 H 0.65771 0.9493 0.78825 0.0
H1731 H 0.68851 0.97311 0.74205 0.0
O1732 O 0.62248 0.01317 0.75907 0.0
O1733 O 0.65458 0.99847 0.78588 0.0
O1734 O 0.62535 0.96864 0.75919 0.0
O1735 O 0.65724 0.99708 0.74023 0.0
H1736 H 0.60754 0.04577 0.75787 0.0
H1737 H 0.59342 0.98325 0.75482 0.0
H1738 H 0.57218 0.04767 0.75364 0.0
H1739 H 0.55842 0.98627 0.75065 0.0
H1740 H 0.7193 0.02148 0.79766 0.0
H1741 H 0.65248 0.0248 0.81576 0.0
H1742 H 0.69161 0.99918 0.77914 0.0
H1743 H 0.68083 0.04677 0.83352 0.0
H1744 H 0.59704 0.02301 0.83334 0.0
H1745 H 0.5755 0.96177 0.81734 0.0
H1746 H 0.70518 0.06845 0.75586 0.0
H1747 H 0.65414 0.08393 0.78197 0.0
H1748 H 0.6473 0.95548 0.73244 0.0
H1749 H 0.59455 0.94182 0.76111 0.0
H1750 H 0.64013 0.92309 0.71331 0.0
H1751 H 0.58817 0.90968 0.7414 0.0
H1752 H 0.6547 0.0314 0.72647 0.0
H1753 H 0.6649 0.97296 0.7105 0.0
H1754 H 0.65878 0.03898 0.69168 0.0
H1755 H 0.66841 0.9815 0.67592 0.0
H1756 H 0.59903 0.02059 0.68613 0.0
H1757 H 0.58318 0.95801 0.68213 0.0
H1758 H 0.68092 0.92617 0.79312 0.0
H1759 H 0.71251 0.95066 0.74588 0.0
Li1760 Li 0.76484 0.64463 0.02041 0.0
Li1761 Li 0.78218 0.62251 0.00355 0.0
Li1762 Li 0.76638 0.64689 0.98434 0.0
Li1763 Li 0.7471 0.61789 0.99832 0.0
C1764 C 0.79696 0.66868 0.01661 0.0
N1765 N 0.81408 0.70292 0.03845 0.0
C1766 C 0.80711 0.66816 0.03519 0.0
C1767 C 0.79554 0.68665 0.00916 0.0
C1768 C 0.81563 0.68562 0.04601 0.0
C1769 C 0.80432 0.70379 0.02041 0.0
C1770 C 0.77262 0.60394 0.03338 0.0
C1771 C 0.77913 0.57142 0.03792 0.0
N1772 N 0.79319 0.57879 0.05275 0.0
C1773 C 0.78708 0.61117 0.04872 0.0
C1774 C 0.76858 0.58389 0.02795 0.0
C1775 C 0.79734 0.59823 0.05831 0.0
C1776 C 0.75779 0.6487 0.06077 0.0
N1777 N 0.76214 0.65937 0.04522 0.0
C1778 C 0.76057 0.68887 0.06531 0.0
C1779 C 0.76327 0.67911 0.04709 0.0
C1780 C 0.75638 0.67819 0.08171 0.0
C1781 C 0.75498 0.65781 0.0792 0.0
H1782 H 0.75631 0.63301 0.05885 0.0
H1783 H 0.76601 0.68731 0.03441 0.0
C1784 C 0.80336 0.59046 0.99779 0.0
N1785 N 0.80476 0.60943 0.005 0.0
C1786 C 0.81955 0.58077 0.99955 0.0
C1787 C 0.83846 0.61042 0.0157 0.0
C1788 C 0.82191 0.61949 0.01371 0.0
C1789 C 0.83744 0.59078 0.00858 0.0
H1790 H 0.78964 0.58276 0.99081 0.0
H1791 H 0.82277 0.63457 0.01915 0.0
C1792 C 0.73147 0.65657 0.00848 0.0
N1793 N 0.70826 0.67922 0.02807 0.0
C1794 C 0.71868 0.64837 0.02161 0.0
C1795 C 0.73238 0.67622 0.00518 0.0
C1796 C 0.7071 0.66009 0.03142 0.0
C1797 C 0.72053 0.68744 0.01526 0.0
C1798 C 0.75567 0.60515 0.96281 0.0
C1799 C 0.74897 0.61155 0.94481 0.0
C1800 C 0.75135 0.58545 0.96603 0.0
C1801 C 0.73788 0.59815 0.93038 0.0
C1802 C 0.74019 0.57251 0.95125 0.0
N1803 N 0.73374 0.57907 0.93388 0.0
C1804 C 0.78511 0.67011 0.95633 0.0
C1805 C 0.75068 0.66681 0.95339 0.0
C1806 C 0.78615 0.68184 0.9404 0.0
N1807 N 0.76757 0.66299 0.96256 0.0
C1808 C 0.75101 0.6782 0.93721 0.0
C1809 C 0.76894 0.68602 0.93047 0.0
H1810 H 0.79834 0.66681 0.96387 0.0
H1811 H 0.7369 0.66076 0.9585 0.0
C1812 C 0.71761 0.58932 0.00946 0.0
N1813 N 0.72261 0.60089 0.99475 0.0
C1814 C 0.69897 0.57853 0.00867 0.0
C1815 C 0.69082 0.5918 0.97766 0.0
C1816 C 0.70968 0.60229 0.979 0.0
C1817 C 0.68516 0.57991 0.99277 0.0
H1818 H 0.7278 0.58912 0.02228 0.0
H1819 H 0.71382 0.61203 0.9678 0.0
O1820 O 0.78853 0.65172 0.00574 0.0
O1821 O 0.76281 0.61648 0.02344 0.0
O1822 O 0.74325 0.64546 0.99911 0.0
O1823 O 0.76637 0.6181 0.97721 0.0
H1824 H 0.80823 0.65447 0.04133 0.0
H1825 H 0.78751 0.68743 0.995 0.0
H1826 H 0.82343 0.68542 0.06045 0.0
H1827 H 0.80326 0.71778 0.01484 0.0
H1828 H 0.77624 0.5559 0.03378 0.0
H1829 H 0.79046 0.62661 0.05311 0.0
H1830 H 0.75765 0.57801 0.01595 0.0
H1831 H 0.80862 0.60365 0.07014 0.0
H1832 H 0.76144 0.70456 0.06644 0.0
H1833 H 0.75196 0.64895 0.09141 0.0
H1834 H 0.81814 0.56571 0.99358 0.0
H1835 H 0.85189 0.61869 0.0229 0.0
H1836 H 0.7179 0.63319 0.02437 0.0
H1837 H 0.74231 0.68278 0.99514 0.0
H1838 H 0.69722 0.65399 0.04173 0.0
H1839 H 0.72114 0.70271 0.01295 0.0
H1840 H 0.7523 0.62668 0.94197 0.0
H1841 H 0.75624 0.58026 0.97992 0.0
H1842 H 0.73256 0.60291 0.9164 0.0
H1843 H 0.73661 0.55726 0.95362 0.0
H1844 H 0.80034 0.68768 0.93608 0.0
H1845 H 0.73729 0.68053 0.92987 0.0
H1846 H 0.69513 0.56994 0.0209 0.0
H1847 H 0.68065 0.59329 0.96512 0.0
Li1848 Li 0.87309 0.50266 0.77238 0.0
Li1849 Li 0.89927 0.52533 0.79161 0.0
Li1850 Li 0.87208 0.53689 0.77332 0.0
Li1851 Li 0.89723 0.52366 0.75592 0.0
C1852 C 0.8604 0.50887 0.80761 0.0
N1853 N 0.8389 0.48341 0.82998 0.0
C1854 C 0.86917 0.50256 0.82473 0.0
C1855 C 0.84066 0.50229 0.80192 0.0
C1856 C 0.85806 0.48968 0.83584 0.0
C1857 C 0.83005 0.48939 0.8134 0.0
C1858 C 0.91291 0.49243 0.76249 0.0
C1859 C 0.9439 0.48945 0.74978 0.0
N1860 N 0.93573 0.47245 0.73919 0.0
C1861 C 0.90485 0.47489 0.7515 0.0
C1862 C 0.93263 0.49974 0.76168 0.0
C1863 C 0.91663 0.46501 0.73982 0.0
C1864 C 0.84438 0.47078 0.75661 0.0
N1865 N 0.85882 0.47716 0.77133 0.0
C1866 C 0.85485 0.44612 0.78451 0.0
C1867 C 0.86422 0.4653 0.78511 0.0
C1868 C 0.84003 0.43902 0.76935 0.0
C1869 C 0.83473 0.45163 0.75533 0.0
H1870 H 0.84064 0.48044 0.74565 0.0
H1871 H 0.87607 0.47067 0.79636 0.0
C1872 C 0.91531 0.54074 0.83106 0.0
N1873 N 0.91684 0.52812 0.81508 0.0
C1874 C 0.92772 0.5413 0.84846 0.0
C1875 C 0.9431 0.51612 0.83245 0.0
C1876 C 0.93044 0.51602 0.81548 0.0
C1877 C 0.94162 0.52861 0.84937 0.0
H1878 H 0.90412 0.54995 0.83049 0.0
H1879 H 0.93113 0.50585 0.80281 0.0
C1880 C 0.85623 0.52564 0.73724 0.0
N1881 N 0.83121 0.54355 0.71379 0.0
C1882 C 0.86356 0.53825 0.72353 0.0
C1883 C 0.83618 0.52207 0.73898 0.0
C1884 C 0.85067 0.54716 0.7118 0.0
C1885 C 0.82377 0.5313 0.72701 0.0
C1886 C 0.91245 0.56132 0.7865 0.0
C1887 C 0.90476 0.57561 0.79767 0.0
C1888 C 0.93251 0.56092 0.78847 0.0
C1889 C 0.91731 0.58932 0.81063 0.0
C1890 C 0.94456 0.57486 0.80163 0.0
N1891 N 0.93677 0.58865 0.81234 0.0
C1892 C 0.83773 0.55301 0.78021 0.0
C1893 C 0.8606 0.57209 0.76266 0.0
C1894 C 0.82482 0.56642 0.77839 0.0
N1895 N 0.85518 0.55602 0.77232 0.0
C1896 C 0.84825 0.58601 0.76069 0.0
C1897 C 0.83001 0.58328 0.76858 0.0
H1898 H 0.83372 0.54007 0.7877 0.0
H1899 H 0.87454 0.57404 0.75643 0.0
C1900 C 0.90655 0.50994 0.71852 0.0
N1901 N 0.91186 0.52442 0.73339 0.0
C1902 C 0.91821 0.50805 0.70283 0.0
C1903 C 0.94004 0.53668 0.71753 0.0
C1904 C 0.92798 0.53794 0.73301 0.0
C1905 C 0.93539 0.52136 0.70235 0.0
H1906 H 0.89362 0.4994 0.71929 0.0
H1907 H 0.93173 0.54942 0.74495 0.0
O1908 O 0.8711 0.52131 0.79641 0.0
O1909 O 0.90152 0.50255 0.77369 0.0
O1910 O 0.86867 0.51723 0.74926 0.0
O1911 O 0.90039 0.54762 0.7739 0.0
H1912 H 0.88443 0.5074 0.82934 0.0
H1913 H 0.8337 0.50668 0.7885 0.0
H1914 H 0.86468 0.48463 0.84908 0.0
H1915 H 0.81482 0.48403 0.80906 0.0
H1916 H 0.95911 0.49505 0.74888 0.0
H1917 H 0.88962 0.46905 0.75176 0.0
H1918 H 0.93907 0.51343 0.76984 0.0
H1919 H 0.91055 0.45148 0.73118 0.0
H1920 H 0.85961 0.43676 0.79537 0.0
H1921 H 0.82336 0.44668 0.74343 0.0
H1922 H 0.92591 0.55096 0.86129 0.0
H1923 H 0.9537 0.50621 0.83243 0.0
H1924 H 0.87906 0.54131 0.72212 0.0
H1925 H 0.8303 0.51256 0.74972 0.0
H1926 H 0.85614 0.55703 0.70119 0.0
H1927 H 0.80824 0.5288 0.72831 0.0
H1928 H 0.88927 0.57602 0.79652 0.0
H1929 H 0.93868 0.54977 0.7802 0.0
H1930 H 0.91156 0.60044 0.81941 0.0
H1931 H 0.96009 0.57465 0.8034 0.0
H1932 H 0.81085 0.56349 0.78446 0.0
H1933 H 0.85311 0.5989 0.75334 0.0
H1934 H 0.91414 0.4959 0.69159 0.0
H1935 H 0.95293 0.54749 0.71753 0.0
Li1936 Li 0.75141 0.3634 0.53833 0.0
Li1937 Li 0.73524 0.38828 0.52339 0.0
Li1938 Li 0.7481 0.36328 0.50276 0.0
Li1939 Li 0.76983 0.38995 0.52237 0.0
C1940 C 0.71283 0.34782 0.50873 0.0
N1941 N 0.68511 0.32425 0.48265 0.0
C1942 C 0.69737 0.35554 0.49955 0.0
C1943 C 0.71415 0.3281 0.5047 0.0
C1944 C 0.6835 0.34338 0.48641 0.0
C1945 C 0.70001 0.31643 0.49145 0.0
C1946 C 0.74861 0.40359 0.56005 0.0
C1947 C 0.74091 0.43506 0.57116 0.0
N1948 N 0.73305 0.42732 0.58716 0.0
C1949 C 0.74052 0.39595 0.57664 0.0
C1950 C 0.7489 0.42332 0.55731 0.0
C1951 C 0.73272 0.40819 0.59017 0.0
C1952 C 0.76682 0.35092 0.57424 0.0
N1953 N 0.75196 0.34709 0.55957 0.0
C1954 C 0.73895 0.318 0.57356 0.0
C1955 C 0.738 0.33119 0.55912 0.0
C1956 C 0.75445 0.32124 0.58856 0.0
C1957 C 0.76843 0.33804 0.58891 0.0
H1958 H 0.77761 0.3638 0.5743 0.0
H1959 H 0.72628 0.32859 0.54737 0.0
C1960 C 0.71231 0.41714 0.51335 0.0
N1961 N 0.71467 0.4033 0.52605 0.0
C1962 C 0.69782 0.42879 0.51567 0.0
C1963 C 0.68841 0.41166 0.54407 0.0
C1964 C 0.70287 0.40014 0.54097 0.0
C1965 C 0.68571 0.4263 0.53134 0.0
H1966 H 0.72166 0.4191 0.50137 0.0
H1967 H 0.7049 0.38883 0.55069 0.0
C1968 C 0.78366 0.35088 0.52932 0.0
N1969 N 0.80661 0.32878 0.55024 0.0
C1970 C 0.80115 0.35971 0.53992 0.0
C1971 C 0.77787 0.33078 0.52934 0.0
C1972 C 0.81255 0.34829 0.55038 0.0
C1973 C 0.78966 0.31987 0.54003 0.0
C1974 C 0.76053 0.40419 0.48879 0.0
C1975 C 0.76864 0.39709 0.47195 0.0
C1976 C 0.76385 0.42416 0.49465 0.0
C1977 C 0.7801 0.41013 0.4613 0.0
C1978 C 0.77543 0.43671 0.48362 0.0
N1979 N 0.78324 0.4295 0.46732 0.0
C1980 C 0.73181 0.34904 0.46318 0.0
C1981 C 0.75784 0.33413 0.47636 0.0
C1982 C 0.73086 0.33763 0.44507 0.0
N1983 N 0.74523 0.34712 0.47832 0.0
C1984 C 0.75741 0.32246 0.45861 0.0
C1985 C 0.744 0.32433 0.44255 0.0
H1986 H 0.72214 0.35972 0.46504 0.0
H1987 H 0.7686 0.33311 0.48842 0.0
C1988 C 0.79908 0.42223 0.53625 0.0
N1989 N 0.79415 0.40658 0.5226 0.0
C1990 C 0.81706 0.43419 0.53638 0.0
C1991 C 0.82454 0.41362 0.50844 0.0
C1992 C 0.80644 0.40208 0.50887 0.0
C1993 C 0.83011 0.42989 0.52239 0.0
H1994 H 0.78917 0.42531 0.54719 0.0
H1995 H 0.80217 0.38943 0.49829 0.0
O1996 O 0.72671 0.35955 0.52141 0.0
O1997 O 0.75611 0.39178 0.54651 0.0
O1998 O 0.77211 0.36187 0.51925 0.0
O1999 O 0.74962 0.39162 0.49967 0.0
H2000 H 0.69615 0.37077 0.50241 0.0
H2001 H 0.72615 0.32194 0.51148 0.0
H2002 H 0.67149 0.34916 0.47915 0.0
H2003 H 0.70093 0.30119 0.48808 0.0
H2004 H 0.74089 0.45031 0.56914 0.0
H2005 H 0.74012 0.38072 0.57896 0.0
H2006 H 0.75493 0.42942 0.54446 0.0
H2007 H 0.72635 0.40247 0.60304 0.0
H2008 H 0.72791 0.3052 0.57275 0.0
H2009 H 0.78042 0.34123 0.60043 0.0
H2010 H 0.69602 0.43945 0.50511 0.0
H2011 H 0.67963 0.40925 0.55646 0.0
H2012 H 0.8058 0.37525 0.54025 0.0
H2013 H 0.76422 0.32373 0.5215 0.0
H2014 H 0.82609 0.35495 0.55869 0.0
H2015 H 0.78527 0.30435 0.54031 0.0
H2016 H 0.76631 0.38167 0.46727 0.0
H2017 H 0.75779 0.42987 0.50772 0.0
H2018 H 0.78655 0.40484 0.44829 0.0
H2019 H 0.77824 0.45219 0.48806 0.0
H2020 H 0.72048 0.33972 0.43296 0.0
H2021 H 0.7677 0.3123 0.45738 0.0
H2022 H 0.82088 0.44638 0.54762 0.0
H2023 H 0.83405 0.40986 0.49729 0.0
Li2024 Li 0.62574 0.50967 0.30069 0.0
Li2025 Li 0.65111 0.53048 0.28663 0.0
Li2026 Li 0.62586 0.50989 0.26478 0.0
Li2027 Li 0.65025 0.49549 0.28326 0.0
C2028 C 0.60391 0.53509 0.28234 0.0
N2029 N 0.5658 0.54193 0.27845 0.0
C2030 C 0.5999 0.55404 0.2811 0.0
C2031 C 0.58854 0.51961 0.28161 0.0
C2032 C 0.58053 0.5572 0.27913 0.0
C2033 C 0.56938 0.52336 0.27964 0.0
C2034 C 0.65839 0.52389 0.32643 0.0
C2035 C 0.67404 0.52879 0.35991 0.0
N2036 N 0.66628 0.54546 0.36296 0.0
C2037 C 0.65059 0.54108 0.32989 0.0
C2038 C 0.67021 0.51768 0.34154 0.0
C2039 C 0.65474 0.55178 0.34846 0.0
C2040 C 0.60771 0.48993 0.33113 0.0
N2041 N 0.61017 0.50727 0.32295 0.0
C2042 C 0.5917 0.52105 0.34731 0.0
C2043 C 0.60247 0.52273 0.33072 0.0
C2044 C 0.58904 0.50337 0.35621 0.0
C2045 C 0.5972 0.48766 0.34787 0.0
H2046 H 0.6141 0.47791 0.32474 0.0
H2047 H 0.6049 0.5365 0.32424 0.0
C2048 C 0.6594 0.56787 0.27588 0.0
N2049 N 0.66673 0.55556 0.28804 0.0
C2050 C 0.66956 0.58644 0.27453 0.0
C2051 C 0.69475 0.57952 0.29835 0.0
C2052 C 0.68403 0.56097 0.29927 0.0
C2053 C 0.6876 0.59248 0.28569 0.0
H2054 H 0.64567 0.56311 0.26706 0.0
H2055 H 0.68962 0.55083 0.30871 0.0
C2056 C 0.61714 0.46991 0.26821 0.0
N2057 N 0.60851 0.43567 0.24363 0.0
C2058 C 0.62485 0.46847 0.24974 0.0
C2059 C 0.60503 0.45396 0.27417 0.0
C2060 C 0.62032 0.45103 0.23753 0.0
C2061 C 0.60083 0.43677 0.26153 0.0
C2062 C 0.67346 0.51679 0.25845 0.0
C2063 C 0.67837 0.51908 0.23899 0.0
C2064 C 0.68824 0.51748 0.27383 0.0
C2065 C 0.69799 0.52211 0.23525 0.0
C2066 C 0.70768 0.52054 0.26948 0.0
N2067 N 0.71211 0.52277 0.25044 0.0
C2068 C 0.62046 0.52038 0.22638 0.0
C2069 C 0.59312 0.49899 0.23475 0.0
C2070 C 0.61189 0.52062 0.2071 0.0
N2071 N 0.61118 0.50947 0.23964 0.0
C2072 C 0.58383 0.49906 0.21562 0.0
C2073 C 0.59341 0.50976 0.20146 0.0
H2074 H 0.63468 0.52876 0.23077 0.0
H2075 H 0.58606 0.49038 0.24557 0.0
C2076 C 0.66807 0.4651 0.29889 0.0
N2077 N 0.66518 0.47441 0.28221 0.0
C2078 C 0.67813 0.44914 0.2984 0.0
C2079 C 0.68223 0.45276 0.26363 0.0
C2080 C 0.67204 0.46858 0.26477 0.0
C2081 C 0.68532 0.44267 0.28055 0.0
H2082 H 0.6623 0.46992 0.31252 0.0
H2083 H 0.66944 0.47606 0.25162 0.0
O2084 O 0.62284 0.53185 0.28422 0.0
O2085 O 0.65449 0.51304 0.30844 0.0
O2086 O 0.62139 0.48677 0.28054 0.0
O2087 O 0.65428 0.51384 0.26227 0.0
H2088 H 0.61164 0.56619 0.28166 0.0
H2089 H 0.59133 0.50484 0.28261 0.0
H2090 H 0.57721 0.5718 0.27816 0.0
H2091 H 0.55735 0.51152 0.27906 0.0
H2092 H 0.68316 0.52415 0.37174 0.0
H2093 H 0.64143 0.54616 0.31841 0.0
H2094 H 0.67635 0.50439 0.33908 0.0
H2095 H 0.64879 0.5651 0.35134 0.0
H2096 H 0.58594 0.53362 0.35344 0.0
H2097 H 0.59543 0.47376 0.3542 0.0
H2098 H 0.66326 0.59601 0.26486 0.0
H2099 H 0.70864 0.58349 0.3071 0.0
H2100 H 0.63426 0.48064 0.24486 0.0
H2101 H 0.59895 0.45486 0.28844 0.0
H2102 H 0.62621 0.44971 0.22321 0.0
H2103 H 0.59149 0.4243 0.26596 0.0
H2104 H 0.66713 0.51849 0.22689 0.0
H2105 H 0.6848 0.51564 0.28896 0.0
H2106 H 0.70198 0.52391 0.22026 0.0
H2107 H 0.71924 0.52113 0.28124 0.0
H2108 H 0.61964 0.52922 0.19666 0.0
H2109 H 0.5696 0.49043 0.21175 0.0
H2110 H 0.67985 0.44167 0.31176 0.0
H2111 H 0.68767 0.44853 0.24961 0.0
Zn2112 Zn 0.03388 0.00967 0.02727 0.0
Zn2113 Zn 0.99195 0.01271 0.01078 0.0
C2114 C 0.03103 0.97689 0.04733 0.0
O2115 O 0.04107 0.991 0.05961 0.0
C2116 C 0.99397 0.04972 0.99711 0.0
O2117 O 0.98009 0.03931 0.98489 0.0
O2118 O 0.06318 0.01135 0.03274 0.0
O2119 O 0.03098 0.01695 0.99888 0.0
O2120 O 0.00305 0.99909 0.98759 0.0
C2121 C 0.06918 0.99991 0.01979 0.0
O2122 O 0.05648 0.99016 0.00588 0.0
O2123 O 0.02474 0.98096 0.03019 0.0
C2124 C 0.95647 0.02193 0.02036 0.0
O2125 O 0.96894 0.02997 0.03532 0.0
O2126 O 0.96264 0.01189 0.00633 0.0
O2127 O 0.99561 0.00336 0.03831 0.0
O2128 O 0.02161 0.02451 0.04884 0.0
O2129 O 0.00264 0.04149 0.0106 0.0
C2130 C 0.02013 0.00701 0.98459 0.0
C2131 C 0.00559 0.01454 0.05234 0.0
Zn2132 Zn 0.25404 0.75831 0.29239 0.0
Zn2133 Zn 0.2588 0.75823 0.24951 0.0
C2134 C 0.25716 0.71727 0.29184 0.0
O2135 O 0.27081 0.72335 0.3064 0.0
C2136 C 0.28 0.79528 0.24903 0.0
O2137 O 0.28978 0.78422 0.23831 0.0
O2138 O 0.25234 0.75867 0.32212 0.0
O2139 O 0.2816 0.76846 0.28735 0.0
O2140 O 0.28133 0.74658 0.26212 0.0
C2141 C 0.26733 0.76253 0.33455 0.0
O2142 O 0.28428 0.76877 0.32817 0.0
O2143 O 0.24853 0.72965 0.28331 0.0
C2144 C 0.24499 0.7649 0.21182 0.0
O2145 O 0.23339 0.77238 0.22367 0.0
O2146 O 0.25823 0.75624 0.21944 0.0
O2147 O 0.2312 0.74839 0.25526 0.0
O2148 O 0.23214 0.77075 0.28007 0.0
O2149 O 0.26502 0.7873 0.25665 0.0
C2150 C 0.29051 0.75713 0.27709 0.0
C2151 C 0.22259 0.75997 0.26552 0.0
Zn2152 Zn 0.48937 0.0136 0.52311 0.0
Zn2153 Zn 0.53116 0.00553 0.51281 0.0
C2154 C 0.50083 0.04839 0.54689 0.0
O2155 O 0.49207 0.03686 0.55907 0.0
C2156 C 0.52175 0.97015 0.49032 0.0
O2157 O 0.53178 0.9814 0.47875 0.0
O2158 O 0.461 0.01602 0.52644 0.0
O2159 O 0.49118 0.00466 0.49447 0.0
O2160 O 0.52051 0.01998 0.49053 0.0
C2161 C 0.44749 0.01195 0.51231 0.0
O2162 O 0.45119 0.00323 0.49541 0.0
O2163 O 0.5023 0.04163 0.52913 0.0
C2164 C 0.56718 0.99532 0.5259 0.0
O2165 O 0.55611 0.9901 0.54007 0.0
O2166 O 0.55996 0.00356 0.51149 0.0
O2167 O 0.5285 0.0158 0.54091 0.0
O2168 O 0.50034 0.99785 0.54405 0.0
O2169 O 0.51848 0.97742 0.50736 0.0
C2170 C 0.50319 0.01311 0.48345 0.0
C2171 C 0.51729 0.00562 0.55141 0.0
Zn2172 Zn 0.28121 0.25616 0.76103 0.0
Zn2173 Zn 0.24087 0.26731 0.77258 0.0
C2174 C 0.26949 0.23174 0.72552 0.0
O2175 O 0.27602 0.21951 0.73728 0.0
C2176 C 0.24991 0.29135 0.8078 0.0
O2177 O 0.24116 0.30191 0.79572 0.0
O2178 O 0.30955 0.25393 0.75886 0.0
O2179 O 0.28169 0.28483 0.76901 0.0
O2180 O 0.25265 0.28781 0.75556 0.0
C2181 C 0.3171 0.26521 0.74662 0.0
O2182 O 0.30613 0.27625 0.73753 0.0
O2183 O 0.26928 0.24918 0.73255 0.0
C2184 C 0.20518 0.25741 0.78693 0.0
O2185 O 0.21628 0.24601 0.79524 0.0
O2186 O 0.2125 0.26915 0.77498 0.0
O2187 O 0.24058 0.23894 0.7638 0.0
O2188 O 0.26907 0.23581 0.77831 0.0
O2189 O 0.25285 0.27457 0.80104 0.0
C2190 C 0.27039 0.29498 0.7604 0.0
C2191 C 0.25145 0.22864 0.77277 0.0
Zn2192 Zn 0.01694 0.99154 0.52228 0.0
Zn2193 Zn 0.00615 0.03286 0.51286 0.0
C2194 C 0.04086 0.00061 0.55757 0.0
O2195 O 0.05196 0.99297 0.54524 0.0
C2196 C 0.98225 0.02512 0.47743 0.0
O2197 O 0.97119 0.03247 0.49002 0.0
O2198 O 0.0191 0.96307 0.5243 0.0
O2199 O 0.98862 0.99157 0.51341 0.0
O2200 O 0.98523 0.01962 0.52883 0.0
C2201 C 0.00637 0.95492 0.53481 0.0
O2202 O 0.99384 0.96523 0.5422 0.0
O2203 O 0.02378 0.00279 0.55097 0.0
C2204 C 0.01779 0.07128 0.50417 0.0
O2205 O 0.03202 0.06248 0.49822 0.0
O2206 O 0.00397 0.06152 0.51216 0.0
O2207 O 0.03459 0.03221 0.52141 0.0
O2208 O 0.03744 0.00415 0.50564 0.0
O2209 O 0.99929 0.02269 0.48387 0.0
C2210 C 0.97822 0.00209 0.5227 0.0
C2211 C 0.04478 0.02154 0.51196 0.0
Zn2212 Zn 0.2595 0.78504 0.761 0.0
Zn2213 Zn 0.26782 0.74287 0.77096 0.0
C2214 C 0.22402 0.77574 0.73831 0.0
O2215 O 0.23534 0.78557 0.72665 0.0
C2216 C 0.30291 0.75092 0.79391 0.0
O2217 O 0.29117 0.74048 0.80472 0.0
O2218 O 0.25764 0.81381 0.75906 0.0
O2219 O 0.26934 0.78233 0.78935 0.0
O2220 O 0.25298 0.75344 0.79285 0.0
C2221 C 0.25122 0.8224 0.77394 0.0
O2222 O 0.24763 0.81279 0.78957 0.0
O2223 O 0.23129 0.77252 0.75537 0.0
C2224 C 0.27773 0.70672 0.75798 0.0
O2225 O 0.28353 0.71784 0.74405 0.0
O2226 O 0.2692 0.71396 0.77214 0.0
O2227 O 0.25764 0.74572 0.74284 0.0
O2228 O 0.27444 0.7743 0.73907 0.0
O2229 O 0.29609 0.75515 0.77704 0.0
C2230 C 0.25979 0.77073 0.80001 0.0
C2231 C 0.2672 0.75709 0.73201 0.0
Zn2232 Zn 0.51505 0.01452 0.99477 0.0
Zn2233 Zn 0.51101 0.00728 0.03751 0.0
C2234 C 0.55045 0.03966 1.00001 0.0
O2235 O 0.53941 0.04891 0.98865 0.0
C2236 C 0.4757 0.98226 0.03486 0.0
O2237 O 0.48744 0.97327 0.0457 0.0
O2238 O 0.51638 0.01372 0.96496 0.0
O2239 O 0.50642 0.9865 0.99942 0.0
O2240 O 0.52627 0.98702 0.02625 0.0
C2241 C 0.52862 0.0028 0.95987 0.0
O2242 O 0.53757 0.9943 0.97377 0.0
O2243 O 0.54311 0.02338 0.00565 0.0
C2244 C 0.50014 0.01931 0.0738 0.0
O2245 O 0.49139 0.02914 0.06098 0.0
O2246 O 0.51112 0.00761 0.06739 0.0
O2247 O 0.51868 0.03548 0.03273 0.0
O2248 O 0.49959 0.03497 0.00527 0.0
O2249 O 0.48261 0.99821 0.02825 0.0
C2250 C 0.51786 0.97808 0.01008 0.0
C2251 C 0.50754 0.04387 0.02167 0.0
Zn2252 Zn 0.26857 0.24471 0.2593 0.0
Zn2253 Zn 0.26004 0.28393 0.28219 0.0
C2254 C 0.30115 0.25832 0.24011 0.0
O2255 O 0.28793 0.25145 0.22539 0.0
C2256 C 0.22783 0.27404 0.30286 0.0
O2257 O 0.24166 0.28185 0.31668 0.0
O2258 O 0.27039 0.21647 0.25132 0.0
O2259 O 0.26049 0.24322 0.28733 0.0
O2260 O 0.27712 0.27083 0.30095 0.0
C2261 C 0.28274 0.21103 0.26375 0.0
O2262 O 0.29184 0.22387 0.27791 0.0
O2263 O 0.29646 0.25792 0.25795 0.0
C2264 C 0.26737 0.32648 0.28477 0.0
O2265 O 0.27857 0.32406 0.27028 0.0
O2266 O 0.2599 0.31169 0.29301 0.0
O2267 O 0.26495 0.28565 0.2531 0.0
O2268 O 0.2517 0.25658 0.23923 0.0
O2269 O 0.23211 0.27206 0.2849 0.0
C2270 C 0.27025 0.25308 0.30232 0.0
C2271 C 0.2569 0.27471 0.23787 0.0
Zn2272 Zn 0.51843 0.49182 0.02119 0.0
Zn2273 Zn 0.50755 0.53364 0.01131 0.0
C2274 C 0.54226 0.50338 0.05706 0.0
O2275 O 0.55509 0.49871 0.045 0.0
C2276 C 0.48403 0.52751 0.97567 0.0
O2277 O 0.4735 0.53577 0.98816 0.0
O2278 O 0.52182 0.46358 0.02231 0.0
O2279 O 0.48998 0.49163 0.0124 0.0
O2280 O 0.48713 0.52004 0.02748 0.0
C2281 C 0.50832 0.45285 0.02978 0.0
O2282 O 0.4932 0.46041 0.03535 0.0
O2283 O 0.52461 0.50248 0.05015 0.0
C2284 C 0.51811 0.57296 0.00371 0.0
O2285 O 0.53325 0.56546 0.99813 0.0
O2286 O 0.50455 0.56213 0.01099 0.0
O2287 O 0.53616 0.53359 0.01933 0.0
O2288 O 0.5388 0.50495 0.0047 0.0
O2289 O 0.50049 0.52361 0.9823 0.0
C2290 C 0.4798 0.50255 0.02152 0.0
C2291 C 0.54618 0.52251 0.01021 0.0
Zn2292 Zn 0.75225 0.28111 0.26396 0.0
Zn2293 Zn 0.76205 0.23887 0.27413 0.0
C2294 C 0.71701 0.26688 0.24023 0.0
O2295 O 0.72793 0.27388 0.22663 0.0
C2296 C 0.79667 0.24456 0.29746 0.0
O2297 O 0.78452 0.2331 0.30697 0.0
O2298 O 0.74965 0.3097 0.26267 0.0
O2299 O 0.76199 0.27851 0.29227 0.0
O2300 O 0.74691 0.24906 0.29605 0.0
C2301 C 0.74026 0.31634 0.27645 0.0
O2302 O 0.73412 0.30473 0.28987 0.0
O2303 O 0.7244 0.26757 0.25812 0.0
C2304 C 0.77489 0.20485 0.26122 0.0
O2305 O 0.78285 0.21817 0.25031 0.0
O2306 O 0.76351 0.20978 0.27396 0.0
O2307 O 0.75304 0.24244 0.24584 0.0
O2308 O 0.76855 0.27169 0.24274 0.0
O2309 O 0.79024 0.2509 0.28146 0.0
C2310 C 0.75339 0.26646 0.30317 0.0
C2311 C 0.76327 0.25407 0.23579 0.0
Zn2312 Zn 0.01361 0.51605 0.50156 0.0
Zn2313 Zn 0.00797 0.50421 0.54244 0.0
C2314 C 0.04973 0.54025 0.51317 0.0
O2315 O 0.0393 0.55315 0.50681 0.0
C2316 C 0.9666 0.50358 0.54057 0.0
O2317 O 0.97158 0.51595 0.55644 0.0
O2318 O 0.0155 0.51905 0.47227 0.0
O2319 O 0.00386 0.48747 0.50237 0.0
O2320 O 0.02317 0.48521 0.52889 0.0
C2321 C 0.02655 0.50764 0.46537 0.0
O2322 O 0.03455 0.49666 0.47756 0.0
O2323 O 0.04177 0.5226 0.51308 0.0
C2324 C 0.01444 0.51112 0.58552 0.0
O2325 O 0.02618 0.52673 0.58179 0.0
O2326 O 0.00669 0.49895 0.57113 0.0
O2327 O 0.01586 0.5332 0.54224 0.0
O2328 O 0.99839 0.53556 0.5143 0.0
O2329 O 0.97989 0.49715 0.53134 0.0
C2330 C 0.01464 0.47772 0.5122 0.0
C2331 C 0.00569 0.54288 0.53154 0.0
Zn2332 Zn 0.77497 0.75806 0.25805 0.0
Zn2333 Zn 0.73451 0.77025 0.2715 0.0
C2334 C 0.76153 0.73238 0.22399 0.0
O2335 O 0.76912 0.7209 0.23592 0.0
C2336 C 0.74257 0.7938 0.30716 0.0
O2337 O 0.73446 0.80479 0.29505 0.0
O2338 O 0.80275 0.75461 0.25404 0.0
O2339 O 0.77692 0.78696 0.26481 0.0
O2340 O 0.74698 0.79126 0.25531 0.0
C2341 C 0.80875 0.76321 0.2392 0.0
O2342 O 0.79696 0.77292 0.22933 0.0
O2343 O 0.76108 0.74992 0.23048 0.0
C2344 C 0.69584 0.75893 0.28038 0.0
O2345 O 0.70417 0.74441 0.28637 0.0
O2346 O 0.70599 0.77255 0.27252 0.0
O2347 O 0.73485 0.74182 0.26291 0.0
O2348 O 0.76365 0.73925 0.27708 0.0
O2349 O 0.74536 0.77702 0.30027 0.0
C2350 C 0.76511 0.79771 0.25823 0.0
C2351 C 0.74604 0.73182 0.27191 0.0
Zn2352 Zn 0.75511 0.25903 0.79309 0.0
Zn2353 Zn 0.76665 0.25881 0.752 0.0
C2354 C 0.73042 0.22305 0.78765 0.0
O2355 O 0.71928 0.23426 0.79625 0.0
C2356 C 0.79146 0.2948 0.75546 0.0
O2357 O 0.80218 0.28338 0.74652 0.0
O2358 O 0.75026 0.25995 0.82209 0.0
O2359 O 0.78408 0.26599 0.79248 0.0
O2360 O 0.78476 0.24413 0.76754 0.0
C2361 C 0.76246 0.26894 0.83587 0.0
O2362 O 0.77771 0.28057 0.83111 0.0
O2363 O 0.74738 0.23056 0.78394 0.0
C2364 C 0.75996 0.24795 0.70916 0.0
O2365 O 0.74423 0.23683 0.71361 0.0
O2366 O 0.77189 0.25695 0.72315 0.0
O2367 O 0.73753 0.25282 0.7523 0.0
O2368 O 0.73682 0.27386 0.77802 0.0
O2369 O 0.77486 0.28743 0.76028 0.0
C2370 C 0.79298 0.25382 0.78341 0.0
C2371 C 0.72884 0.26504 0.76161 0.0
Zn2372 Zn 0.76289 0.74104 0.76201 0.0
Zn2373 Zn 0.76291 0.78285 0.77907 0.0
C2374 C 0.79752 0.74153 0.74491 0.0
O2375 O 0.78438 0.73056 0.73227 0.0
C2376 C 0.72883 0.78074 0.79818 0.0
O2377 O 0.74238 0.78992 0.81162 0.0
O2378 O 0.76039 0.71158 0.75706 0.0
O2379 O 0.75427 0.74467 0.78991 0.0
O2380 O 0.77721 0.76923 0.79986 0.0
C2381 C 0.77043 0.70501 0.77083 0.0
O2382 O 0.77949 0.7173 0.78546 0.0
O2383 O 0.79203 0.74957 0.76063 0.0
C2384 C 0.77317 0.82496 0.77673 0.0
O2385 O 0.78208 0.82011 0.76108 0.0
O2386 O 0.7661 0.81173 0.78725 0.0
O2387 O 0.76924 0.78052 0.75031 0.0
O2388 O 0.74969 0.75341 0.7394 0.0
O2389 O 0.73386 0.77489 0.78129 0.0
C2390 C 0.76628 0.75393 0.80367 0.0
C2391 C 0.75894 0.76987 0.73608 0.0
Zn2392 Zn 0.53188 0.5032 0.52794 0.0
Zn2393 Zn 0.49272 0.51366 0.50523 0.0
C2394 C 0.51661 0.46861 0.54356 0.0
O2395 O 0.52134 0.48058 0.55974 0.0
C2396 C 0.50659 0.54675 0.48691 0.0
O2397 O 0.50054 0.53374 0.47177 0.0
O2398 O 0.55956 0.5011 0.53809 0.0
O2399 O 0.53428 0.51237 0.50036 0.0
O2400 O 0.50617 0.49702 0.48636 0.0
C2401 C 0.56817 0.49211 0.52516 0.0
O2402 O 0.55877 0.48584 0.50775 0.0
O2403 O 0.51895 0.47507 0.52665 0.0
C2404 C 0.45024 0.50682 0.50107 0.0
O2405 O 0.45217 0.49478 0.51488 0.0
O2406 O 0.46536 0.51483 0.49369 0.0
O2407 O 0.4899 0.50697 0.53361 0.0
O2408 O 0.51901 0.51894 0.54826 0.0
O2409 O 0.50541 0.54168 0.50454 0.0
C2410 C 0.52408 0.50336 0.48514 0.0
C2411 C 0.50077 0.51407 0.5492 0.0
Zn2412 Zn 0.99442 0.51574 0.02384 0.0
Zn2413 Zn 0.03572 0.50657 0.01235 0.0
C2414 C 0.00678 0.55065 0.04692 0.0
O2415 O 0.99832 0.53929 0.05942 0.0
C2416 C 0.02794 0.47103 0.98997 0.0
O2417 O 0.03808 0.4825 0.97867 0.0
O2418 O 0.96599 0.51897 0.02569 0.0
O2419 O 0.99589 0.50532 0.99552 0.0
O2420 O 0.02452 0.52146 0.9908 0.0
C2421 C 0.96061 0.5299 0.0127 0.0
O2422 O 0.97315 0.53639 0.00025 0.0
O2423 O 0.00804 0.5436 0.02922 0.0
C2424 C 0.07141 0.49527 0.02335 0.0
O2425 O 0.05996 0.48808 0.03644 0.0
O2426 O 0.06452 0.50525 0.01026 0.0
O2427 O 0.03376 0.51592 0.04091 0.0
O2428 O 0.00482 0.50027 0.04533 0.0
O2429 O 0.02355 0.47832 0.00655 0.0
C2430 C 0.00709 0.51449 0.98425 0.0
C2431 C 0.0225 0.50625 0.05178 0.0
H2432 H 0.02405 0.14618 0.93284 0.0
H2433 H 0.99841 0.17367 0.9818 0.0
H2434 H 0.02331 0.11678 0.95016 0.0
H2435 H 0.9966 0.14359 0.99836 0.0
H2436 H 0.96858 0.07498 0.99269 0.0
H2437 H 0.97539 0.10847 0.98367 0.0
H2438 H 0.03679 0.10467 0.98604 0.0
H2439 H 0.02997 0.07116 0.99584 0.0
C2440 C 0.0186 0.14621 0.94742 0.0
C2441 C 0.01117 0.16245 0.95577 0.0
C2442 C 0.01815 0.12927 0.9573 0.0
C2443 C 0.00995 0.12802 0.97557 0.0
C2444 C 0.00299 0.14427 0.98425 0.0
C2445 C 0.00381 0.16139 0.97459 0.0
C2446 C 0.98357 0.08151 0.99179 0.0
C2447 C 0.99878 0.07066 0.99497 0.0
C2448 C 0.98746 0.10063 0.98671 0.0
C2449 C 0.00659 0.10906 0.98419 0.0
C2450 C 0.02193 0.09844 0.98799 0.0
C2451 C 0.01807 0.0794 0.99365 0.0
H2452 H 0.1001 0.74262 0.22109 0.0
H2453 H 0.1239 0.8008 0.20831 0.0
H2454 H 0.13079 0.73978 0.23967 0.0
H2455 H 0.15447 0.79802 0.2273 0.0
H2456 H 0.20262 0.78998 0.27524 0.0
H2457 H 0.16975 0.79375 0.262 0.0
H2458 H 0.16397 0.73771 0.22825 0.0
H2459 H 0.19658 0.73396 0.24132 0.0
C2460 C 0.11184 0.75483 0.22228 0.0
C2461 C 0.10961 0.77184 0.21296 0.0
C2462 C 0.12937 0.75322 0.23301 0.0
C2463 C 0.14503 0.76863 0.23482 0.0
C2464 C 0.14256 0.78598 0.22631 0.0
C2465 C 0.12504 0.78756 0.21544 0.0
C2466 C 0.19419 0.77838 0.2652 0.0
C2467 C 0.20217 0.7617 0.25928 0.0
C2468 C 0.17547 0.78059 0.25755 0.0
C2469 C 0.16433 0.76601 0.24412 0.0
C2470 C 0.17212 0.74909 0.23874 0.0
C2471 C 0.19085 0.747 0.24615 0.0
H2472 H 0.48566 0.85774 0.42298 0.0
H2473 H 0.5145 0.84482 0.47823 0.0
H2474 H 0.48783 0.89155 0.43595 0.0
H2475 H 0.51742 0.87902 0.49091 0.0
H2476 H 0.50721 0.94064 0.51244 0.0
H2477 H 0.49934 0.9058 0.50144 0.0
H2478 H 0.51498 0.91799 0.44248 0.0
H2479 H 0.52249 0.95246 0.45327 0.0
C2480 C 0.49223 0.86202 0.43801 0.0
C2481 C 0.49996 0.84853 0.44953 0.0
C2482 C 0.49367 0.88149 0.44536 0.0
C2483 C 0.50296 0.88801 0.46438 0.0
C2484 C 0.51007 0.87443 0.47623 0.0
C2485 C 0.50862 0.85489 0.46887 0.0
C2486 C 0.50872 0.93584 0.49709 0.0
C2487 C 0.51551 0.94928 0.48374 0.0
C2488 C 0.50435 0.91591 0.49083 0.0
C2489 C 0.50652 0.90914 0.47108 0.0
C2490 C 0.51288 0.92271 0.45771 0.0
C2491 C 0.51732 0.9425 0.46395 0.0
H2492 H 0.43454 0.29762 0.71235 0.0
H2493 H 0.42293 0.23479 0.70291 0.0
H2494 H 0.40422 0.29754 0.72807 0.0
H2495 H 0.39216 0.23479 0.71792 0.0
H2496 H 0.34305 0.24113 0.75812 0.0
H2497 H 0.37638 0.24166 0.74865 0.0
H2498 H 0.37029 0.29097 0.71488 0.0
H2499 H 0.33743 0.29066 0.7245 0.0
C2500 C 0.42566 0.28376 0.71386 0.0
C2501 C 0.43109 0.26622 0.70621 0.0
C2502 C 0.40817 0.28374 0.72268 0.0
C2503 C 0.39567 0.26617 0.72404 0.0
C2504 C 0.40149 0.24856 0.7172 0.0
C2505 C 0.41901 0.24858 0.70837 0.0
C2506 C 0.34895 0.25217 0.74884 0.0
C2507 C 0.33758 0.2658 0.742 0.0
C2508 C 0.36797 0.25242 0.74334 0.0
C2509 C 0.376 0.26639 0.73105 0.0
C2510 C 0.3647 0.28021 0.72461 0.0
C2511 C 0.34575 0.27991 0.73 0.0
H2512 H 0.02596 0.83811 0.56463 0.0
H2513 H 0.98621 0.85806 0.60471 0.0
H2514 H 0.02612 0.86781 0.54745 0.0
H2515 H 0.9867 0.88779 0.58804 0.0
H2516 H 0.97545 0.93052 0.54489 0.0
H2517 H 0.97524 0.89894 0.55787 0.0
H2518 H 0.03683 0.90249 0.55099 0.0
H2519 H 0.03677 0.93397 0.53714 0.0
C2520 C 0.01737 0.84892 0.56984 0.0
C2521 C 0.00593 0.8457 0.58589 0.0
C2522 C 0.01749 0.86594 0.56003 0.0
C2523 C 0.00626 0.88015 0.56619 0.0
C2524 C 0.99511 0.87698 0.58249 0.0
C2525 C 0.99487 0.85995 0.59213 0.0
C2526 C 0.98891 0.92444 0.54592 0.0
C2527 C 0.00616 0.93475 0.54018 0.0
C2528 C 0.98883 0.90639 0.55352 0.0
C2529 C 0.00611 0.89831 0.55591 0.0
C2530 C 0.02324 0.90823 0.54929 0.0
C2531 C 0.02324 0.92626 0.54138 0.0
H2532 H 0.41299 0.78167 0.86637 0.0
H2533 H 0.42936 0.76381 0.80812 0.0
H2534 H 0.37938 0.77915 0.85282 0.0
H2535 H 0.39531 0.76028 0.79475 0.0
H2536 H 0.33281 0.76945 0.7745 0.0
H2537 H 0.36738 0.77719 0.78673 0.0
H2538 H 0.35431 0.75226 0.84172 0.0
H2539 H 0.32015 0.745 0.82984 0.0
C2540 C 0.40951 0.77742 0.8506 0.0
C2541 C 0.42397 0.7729 0.83837 0.0
C2542 C 0.39012 0.77573 0.84287 0.0
C2543 C 0.38459 0.76929 0.82274 0.0
C2544 C 0.39909 0.76537 0.8103 0.0
C2545 C 0.41857 0.76715 0.81803 0.0
C2546 C 0.33737 0.76582 0.78926 0.0
C2547 C 0.32372 0.75663 0.80119 0.0
C2548 C 0.35716 0.77013 0.79621 0.0
C2549 C 0.36361 0.76543 0.81525 0.0
C2550 C 0.34985 0.75643 0.82715 0.0
C2551 C 0.33021 0.75213 0.82024 0.0
H2552 H 0.49281 0.1661 0.04198 0.0
H2553 H 0.48206 0.14052 0.09717 0.0
H2554 H 0.49594 0.13403 0.02619 0.0
H2555 H 0.48464 0.1086 0.08128 0.0
H2556 H 0.52086 0.06438 0.05707 0.0
H2557 H 0.51369 0.09564 0.07001 0.0
H2558 H 0.47805 0.09946 0.01573 0.0
H2559 H 0.48526 0.06771 0.0025 0.0
C2560 C 0.49086 0.15362 0.05065 0.0
C2561 C 0.48733 0.15591 0.07088 0.0
C2562 C 0.49248 0.13525 0.04156 0.0
C2563 C 0.49074 0.11886 0.05257 0.0
C2564 C 0.4863 0.12102 0.07249 0.0
C2565 C 0.48461 0.13931 0.08154 0.0
C2566 C 0.5115 0.07179 0.04776 0.0
C2567 C 0.50357 0.06345 0.02873 0.0
C2568 C 0.50727 0.08969 0.0553 0.0
C2569 C 0.49509 0.09988 0.04401 0.0
C2570 C 0.48747 0.09188 0.02476 0.0
C2571 C 0.49158 0.07373 0.01722 0.0
H2572 H 0.10399 0.23819 0.32052 0.0
H2573 H 0.12324 0.29459 0.35268 0.0
H2574 H 0.13665 0.23836 0.30909 0.0
H2575 H 0.15554 0.29481 0.34116 0.0
H2576 H 0.2153 0.2775 0.33985 0.0
H2577 H 0.18199 0.27449 0.34885 0.0
H2578 H 0.16066 0.25815 0.2873 0.0
H2579 H 0.19434 0.26123 0.27808 0.0
C2580 C 0.11515 0.25063 0.32504 0.0
C2581 C 0.11106 0.26638 0.33748 0.0
C2582 C 0.13375 0.25077 0.3184 0.0
C2583 C 0.14862 0.26653 0.32438 0.0
C2584 C 0.1444 0.28238 0.3365 0.0
C2585 C 0.12584 0.28234 0.34293 0.0
C2586 C 0.20359 0.27311 0.32817 0.0
C2587 C 0.2075 0.26983 0.30819 0.0
C2588 C 0.18448 0.27148 0.33336 0.0
C2589 C 0.16876 0.26639 0.31874 0.0
C2590 C 0.17255 0.26212 0.29886 0.0
C2591 C 0.19179 0.26391 0.2936 0.0
H2592 H 0.95893 0.99051 0.16583 0.0
H2593 H 0.94329 0.04618 0.15228 0.0
H2594 H 0.97743 0.99003 0.13663 0.0
H2595 H 0.96247 0.0459 0.12356 0.0
H2596 H 0.01272 0.0445 0.08217 0.0
H2597 H 0.99788 0.04603 0.11404 0.0
H2598 H 0.96739 0.98749 0.09939 0.0
H2599 H 0.9819 0.98604 0.06773 0.0
C2600 C 0.95937 0.00265 0.15669 0.0
C2601 C 0.94936 0.0183 0.16146 0.0
C2602 C 0.97013 0.00242 0.14002 0.0
C2603 C 0.97141 0.01793 0.12782 0.0
C2604 C 0.96196 0.03385 0.13284 0.0
C2605 C 0.95098 0.03399 0.14937 0.0
C2606 C 0.00304 0.03192 0.08593 0.0
C2607 C 0.99843 0.01519 0.07245 0.0
C2608 C 0.99446 0.03283 0.10406 0.0
C2609 C 0.98147 0.01688 0.10919 0.0
C2610 C 0.97744 0.99996 0.09596 0.0
C2611 C 0.98569 0.99918 0.07777 0.0
H2612 H 0.24806 0.68091 0.42049 0.0
H2613 H 0.28825 0.72664 0.45499 0.0
H2614 H 0.24599 0.70164 0.39327 0.0
H2615 H 0.28615 0.74748 0.42767 0.0
H2616 H 0.29741 0.76407 0.36333 0.0
H2617 H 0.29686 0.74833 0.39426 0.0
H2618 H 0.23459 0.73095 0.383 0.0
H2619 H 0.23518 0.74634 0.35179 0.0
C2620 C 0.2562 0.69552 0.4224 0.0
C2621 C 0.26837 0.7021 0.43989 0.0
C2622 C 0.25498 0.70744 0.4068 0.0
C2623 C 0.26587 0.72625 0.4083 0.0
C2624 C 0.27775 0.73299 0.42596 0.0
C2625 C 0.27898 0.72104 0.44158 0.0
C2626 C 0.28353 0.75721 0.3676 0.0
C2627 C 0.26638 0.75625 0.35495 0.0
C2628 C 0.28321 0.74824 0.38541 0.0
C2629 C 0.26572 0.73816 0.39097 0.0
C2630 C 0.24837 0.73827 0.37893 0.0
C2631 C 0.24869 0.74722 0.36111 0.0
H2632 H 0.6013 0.00786 0.64965 0.0
H2633 H 0.55186 0.97288 0.67072 0.0
H2634 H 0.58189 0.01133 0.61906 0.0
H2635 H 0.53198 0.97684 0.6402 0.0
H2636 H 0.51033 0.97357 0.57237 0.0
H2637 H 0.52699 0.96868 0.60447 0.0
H2638 H 0.55628 0.02827 0.60892 0.0
H2639 H 0.54035 0.03273 0.5767 0.0
C2640 C 0.58619 0.001 0.64771 0.0
C2641 C 0.57801 0.99024 0.66254 0.0
C2642 C 0.575 0.00308 0.63026 0.0
C2643 C 0.55524 0.99469 0.62733 0.0
C2644 C 0.54716 0.98344 0.64196 0.0
C2645 C 0.5585 0.98117 0.65941 0.0
C2646 C 0.5201 0.98564 0.58046 0.0
C2647 C 0.52431 0.00342 0.57206 0.0
C2648 C 0.52965 0.98287 0.59881 0.0
C2649 C 0.54332 0.99795 0.60905 0.0
C2650 C 0.54636 0.01613 0.60114 0.0
C2651 C 0.53712 0.01877 0.58277 0.0
H2652 H 0.27624 0.36133 0.92142 0.0
H2653 H 0.25193 0.30432 0.93704 0.0
H2654 H 0.27562 0.34853 0.88694 0.0
H2655 H 0.25031 0.29171 0.9021 0.0
H2656 H 0.26369 0.27201 0.8387 0.0
H2657 H 0.26901 0.28374 0.87413 0.0
H2658 H 0.25098 0.33828 0.86028 0.0
H2659 H 0.2462 0.32688 0.82523 0.0
C2660 C 0.27092 0.346 0.91758 0.0
C2661 C 0.26413 0.33389 0.93213 0.0
C2662 C 0.27033 0.3387 0.89768 0.0
C2663 C 0.26274 0.31912 0.89165 0.0
C2664 C 0.25637 0.30683 0.90622 0.0
C2665 C 0.25706 0.31414 0.92623 0.0
C2666 C 0.26111 0.28658 0.84326 0.0
C2667 C 0.25455 0.2985 0.82912 0.0
C2668 C 0.264 0.29324 0.86356 0.0
C2669 C 0.26046 0.31198 0.8701 0.0
C2670 C 0.25419 0.32391 0.85583 0.0
C2671 C 0.25132 0.31729 0.83567 0.0
H2672 H 0.9568 0.9943 0.34833 0.0
H2673 H 0.92713 0.04286 0.36376 0.0
H2674 H 0.96924 0.99467 0.38325 0.0
H2675 H 0.94007 0.04366 0.39829 0.0
H2676 H 0.94569 0.02587 0.46071 0.0
H2677 H 0.93447 0.02336 0.42557 0.0
H2678 H 0.9917 0.01435 0.41013 0.0
H2679 H 0.00298 0.01659 0.44562 0.0
C2680 C 0.95301 0.0051 0.35913 0.0
C2681 C 0.94092 0.01853 0.35322 0.0
C2682 C 0.96028 0.00542 0.37909 0.0
C2683 C 0.95551 0.01908 0.39359 0.0
C2684 C 0.94378 0.03273 0.38757 0.0
C2685 C 0.93656 0.03245 0.36768 0.0
C2686 C 0.95591 0.02323 0.44988 0.0
C2687 C 0.97529 0.0216 0.45599 0.0
C2688 C 0.94948 0.02191 0.4297 0.0
C2689 C 0.96226 0.01899 0.41502 0.0
C2690 C 0.98149 0.01659 0.42108 0.0
C2691 C 0.98795 0.01789 0.44139 0.0
H2692 H 0.27715 0.67242 0.63735 0.0
H2693 H 0.2942 0.72528 0.60945 0.0
H2694 H 0.27375 0.6915 0.6682 0.0
H2695 H 0.29042 0.74461 0.64045 0.0
H2696 H 0.29626 0.76943 0.70828 0.0
H2697 H 0.30254 0.75314 0.67637 0.0
H2698 H 0.25008 0.71175 0.6779 0.0
H2699 H 0.24413 0.72755 0.70957 0.0
C2700 C 0.28019 0.68817 0.63787 0.0
C2701 C 0.28567 0.69739 0.62097 0.0
C2702 C 0.27817 0.69911 0.6555 0.0
C2703 C 0.28139 0.71959 0.65664 0.0
C2704 C 0.28782 0.72887 0.64003 0.0
C2705 C 0.28999 0.71783 0.62232 0.0
C2706 C 0.28599 0.75701 0.70158 0.0
C2707 C 0.26987 0.74958 0.71152 0.0
C2708 C 0.28958 0.74769 0.68336 0.0
C2709 C 0.27704 0.73088 0.67487 0.0
C2710 C 0.26035 0.72428 0.68433 0.0
C2711 C 0.25687 0.73344 0.70244 0.0
H2712 H 0.57491 0.96288 0.85158 0.0
H2713 H 0.56543 0.02168 0.84256 0.0
H2714 H 0.55749 0.96378 0.88121 0.0
H2715 H 0.54945 0.02313 0.8733 0.0
H2716 H 0.51281 0.01681 0.92623 0.0
H2717 H 0.52265 0.01257 0.89228 0.0
H2718 H 0.56634 0.97908 0.91342 0.0
H2719 H 0.55615 0.98262 0.94664 0.0
C2720 C 0.56894 0.97595 0.85572 0.0
C2721 C 0.57191 0.99231 0.84472 0.0
C2722 C 0.55918 0.97657 0.87296 0.0
C2723 C 0.55245 0.99369 0.87994 0.0
C2724 C 0.55442 0.0097 0.8684 0.0
C2725 C 0.56392 0.00897 0.85092 0.0
C2726 C 0.52437 0.0084 0.92348 0.0
C2727 C 0.53369 1.00007 0.93911 0.0
C2728 C 0.53007 0.00603 0.90408 0.0
C2729 C 0.54521 0.99536 0.90005 0.0
C2730 C 0.55432 0.98697 0.91577 0.0
C2731 C 0.54857 0.98919 0.93496 0.0
H2732 H 0.24662 0.3529 0.1449 0.0
H2733 H 0.25914 0.30072 0.11292 0.0
H2734 H 0.24571 0.33658 0.17534 0.0
H2735 H 0.2593 0.28466 0.14385 0.0
H2736 H 0.24121 0.25665 0.20113 0.0
H2737 H 0.2394 0.27128 0.16929 0.0
H2738 H 0.26839 0.3263 0.19869 0.0
H2739 H 0.2697 0.31202 0.23019 0.0
C2740 C 0.24906 0.33788 0.14427 0.0
C2741 C 0.25294 0.32818 0.12632 0.0
C2742 C 0.24882 0.32858 0.16188 0.0
C2743 C 0.25263 0.30932 0.16218 0.0
C2744 C 0.25618 0.29945 0.14419 0.0
C2745 C 0.25634 0.30876 0.12648 0.0
C2746 C 0.24708 0.27189 0.20076 0.0
C2747 C 0.25545 0.28315 0.21832 0.0
C2748 C 0.24617 0.28025 0.18249 0.0
C2749 C 0.2536 0.30005 0.18139 0.0
C2750 C 0.26211 0.31115 0.19895 0.0
C2751 C 0.26296 0.30287 0.2171 0.0
H2752 H 0.16756 0.9457 0.05396 0.0
H2753 H 0.17848 0.96153 0.99471 0.0
H2754 H 0.14054 0.9643 0.05381 0.0
H2755 H 0.15242 0.98106 0.99515 0.0
H2756 H 0.08682 0.98352 0.99006 0.0
H2757 H 0.11798 0.97213 0.99206 0.0
H2758 H 0.12904 0.99577 0.05361 0.0
H2759 H 0.09716 0.00687 0.05168 0.0
C2760 C 0.16438 0.95331 0.041 0.0
C2761 C 0.17506 0.95181 0.02422 0.0
C2762 C 0.14908 0.96425 0.04106 0.0
C2763 C 0.14418 0.97404 0.02438 0.0
C2764 C 0.15558 0.97344 0.00811 0.0
C2765 C 0.17073 0.96239 0.00797 0.0
C2766 C 0.09595 0.98653 0.00399 0.0
C2767 C 0.08947 0.99595 0.02077 0.0
C2768 C 0.11397 0.98013 0.00509 0.0
C2769 C 0.12607 0.983 0.02301 0.0
C2770 C 0.11997 0.99317 0.03964 0.0
C2771 C 0.10182 0.99968 0.0385 0.0
H2772 H 0.65188 0.59499 0.98362 0.0
H2773 H 0.67202 0.54301 0.00254 0.0
H2774 H 0.61833 0.58028 0.98647 0.0
H2775 H 0.63838 0.52844 0.00583 0.0
H2776 H 0.57276 0.50308 0.99222 0.0
H2777 H 0.60626 0.51611 0.98637 0.0
H2778 H 0.5993 0.57195 0.01487 0.0
H2779 H 0.56608 0.55908 0.02074 0.0
C2780 C 0.64914 0.58031 0.98812 0.0
C2781 C 0.66465 0.57019 0.99288 0.0
C2782 C 0.62992 0.57197 0.98997 0.0
C2783 C 0.6257 0.55326 0.99655 0.0
C2784 C 0.64114 0.54284 0.00065 0.0
C2785 C 0.66041 0.55125 0.99892 0.0
C2786 C 0.57839 0.51813 0.99722 0.0
C2787 C 0.56663 0.53005 0.00681 0.0
C2788 C 0.59759 0.52557 0.99392 0.0
C2789 C 0.60537 0.54511 0.99999 0.0
C2790 C 0.59365 0.55694 0.00967 0.0
C2791 C 0.57458 0.5495 0.01311 0.0
H2792 H 0.68272 0.41402 0.24976 0.0
H2793 H 0.71106 0.43176 0.30884 0.0
H2794 H 0.69839 0.38498 0.24847 0.0
H2795 H 0.72646 0.40251 0.3076 0.0
H2796 H 0.72658 0.33604 0.30729 0.0
H2797 H 0.71517 0.36738 0.30786 0.0
H2798 H 0.73047 0.37325 0.2476 0.0
H2799 H 0.74186 0.34157 0.24696 0.0
C2800 C 0.6925 0.41191 0.26237 0.0
C2801 C 0.69552 0.42527 0.27945 0.0
C2802 C 0.70149 0.39522 0.26161 0.0
C2803 C 0.71365 0.39139 0.27794 0.0
C2804 C 0.71697 0.4049 0.29486 0.0
C2805 C 0.70806 0.42164 0.2956 0.0
C2806 C 0.72769 0.34405 0.29418 0.0
C2807 C 0.73507 0.33625 0.27704 0.0
C2808 C 0.72125 0.36211 0.29457 0.0
C2809 C 0.72188 0.37283 0.27778 0.0
C2810 C 0.72964 0.36525 0.26073 0.0
C2811 C 0.73628 0.34719 0.2604 0.0
H2812 H 0.86488 0.41721 0.51757 0.0
H2813 H 0.83963 0.46964 0.52835 0.0
H2814 H 0.89715 0.43656 0.5197 0.0
H2815 H 0.87203 0.48907 0.53048 0.0
H2816 H 0.93493 0.51136 0.55947 0.0
H2817 H 0.90152 0.49459 0.55321 0.0
H2818 H 0.9179 0.46024 0.50307 0.0
H2819 H 0.95144 0.47673 0.50957 0.0
C2820 C 0.86618 0.43291 0.52007 0.0
C2821 C 0.84967 0.44187 0.52281 0.0
C2822 C 0.8847 0.44402 0.52127 0.0
C2823 C 0.88718 0.46438 0.52523 0.0
C2824 C 0.87064 0.4734 0.52765 0.0
C2825 C 0.85209 0.46227 0.52646 0.0
C2826 C 0.93137 0.5004 0.54695 0.0
C2827 C 0.94589 0.49525 0.53514 0.0
C2828 C 0.91218 0.49085 0.5433 0.0
C2829 C 0.90707 0.47594 0.52775 0.0
C2830 C 0.92143 0.47141 0.51539 0.0
C2831 C 0.94063 0.48095 0.51904 0.0
H2832 H 0.31458 0.10059 0.29365 0.0
H2833 H 0.32783 0.10485 0.2325 0.0
H2834 H 0.29829 0.12902 0.29219 0.0
H2835 H 0.31233 0.13401 0.23142 0.0
H2836 H 0.27278 0.18143 0.23353 0.0
H2837 H 0.28189 0.14863 0.2328 0.0
H2838 H 0.31175 0.16296 0.29169 0.0
H2839 H 0.30253 0.19508 0.29256 0.0
C2840 C 0.31379 0.10739 0.27979 0.0
C2841 C 0.32274 0.10054 0.26327 0.0
C2842 C 0.30461 0.12384 0.27902 0.0
C2843 C 0.30427 0.13395 0.26179 0.0
C2844 C 0.31229 0.12653 0.2449 0.0
C2845 C 0.32142 0.10998 0.24563 0.0
C2846 C 0.28111 0.1774 0.24634 0.0
C2847 C 0.28702 0.19086 0.26304 0.0
C2848 C 0.28639 0.15871 0.2459 0.0
C2849 C 0.29745 0.15317 0.26224 0.0
C2850 C 0.30294 0.16658 0.279 0.0
C2851 C 0.29781 0.18513 0.27939 0.0
H2852 H 0.33061 0.04543 0.50029 0.0
H2853 H 0.37181 0.09812 0.51628 0.0
H2854 H 0.35715 0.02622 0.50308 0.0
H2855 H 0.39812 0.07885 0.51953 0.0
H2856 H 0.4383 0.03786 0.54133 0.0
H2857 H 0.40983 0.05452 0.54085 0.0
H2858 H 0.38658 0.02141 0.48539 0.0
H2859 H 0.41499 0.00467 0.48585 0.0
C2860 C 0.3453 0.05296 0.50429 0.0
C2861 C 0.34899 0.07339 0.50805 0.0
C2862 C 0.36049 0.04191 0.50599 0.0
C2863 C 0.37972 0.05099 0.51165 0.0
C2864 C 0.38341 0.07137 0.5155 0.0
C2865 C 0.36828 0.08242 0.51364 0.0
C2866 C 0.42697 0.03388 0.52919 0.0
C2867 C 0.42899 0.01998 0.51357 0.0
C2868 C 0.41074 0.04356 0.52885 0.0
C2869 C 0.39604 0.03943 0.51298 0.0
C2870 C 0.39759 0.02486 0.49787 0.0
C2871 C 0.41392 0.0153 0.49812 0.0
H2872 H 0.70835 0.61839 0.31528 0.0
H2873 H 0.6922 0.61111 0.25181 0.0
H2874 H 0.72415 0.65173 0.31221 0.0
H2875 H 0.70764 0.64432 0.24887 0.0
H2876 H 0.71146 0.71052 0.25662 0.0
H2877 H 0.69925 0.67661 0.26027 0.0
H2878 H 0.7518 0.67188 0.29655 0.0
H2879 H 0.7642 0.70617 0.29294 0.0
C2880 C 0.70838 0.62377 0.30066 0.0
C2881 C 0.69872 0.61215 0.28384 0.0
C2882 C 0.71742 0.64287 0.29891 0.0
C2883 C 0.71689 0.65072 0.28034 0.0
C2884 C 0.70793 0.63883 0.26345 0.0
C2885 C 0.69903 0.6198 0.26516 0.0
C2886 C 0.72049 0.70233 0.26539 0.0
C2887 C 0.73886 0.7111 0.27445 0.0
C2888 C 0.71351 0.68282 0.26737 0.0
C2889 C 0.72462 0.67152 0.27856 0.0
C2890 C 0.7429 0.68027 0.28788 0.0
C2891 C 0.75002 0.69985 0.28573 0.0
H2892 H 0.82694 0.41709 0.79893 0.0
H2893 H 0.83312 0.41406 0.73567 0.0
H2894 H 0.8145 0.38214 0.79613 0.0
H2895 H 0.82048 0.3793 0.73284 0.0
H2896 H 0.82322 0.31518 0.74144 0.0
H2897 H 0.83374 0.35025 0.74507 0.0
H2898 H 0.78556 0.3577 0.78003 0.0
H2899 H 0.77492 0.3224 0.77642 0.0
C2900 C 0.82551 0.40897 0.78443 0.0
C2901 C 0.83103 0.41826 0.76752 0.0
C2902 C 0.81828 0.38904 0.78281 0.0
C2903 C 0.81666 0.37803 0.7643 0.0
C2904 C 0.82178 0.38741 0.74734 0.0
C2905 C 0.82882 0.40733 0.74892 0.0
C2906 C 0.81488 0.32424 0.74998 0.0
C2907 C 0.7982 0.31602 0.7586 0.0
C2908 C 0.82084 0.34434 0.75193 0.0
C2909 C 0.81036 0.35668 0.76268 0.0
C2910 C 0.79392 0.34848 0.7717 0.0
C2911 C 0.78782 0.32832 0.76959 0.0
H2912 H 0.02082 0.8518 0.05977 0.0
H2913 H 0.01588 0.87878 0.11846 0.0
H2914 H 0.022 0.88357 0.04621 0.0
H2915 H 0.01654 0.91024 0.105 0.0
H2916 H 0.04578 0.96487 0.08166 0.0
H2917 H 0.04139 0.93254 0.09286 0.0
H2918 H 0.00437 0.9109 0.03917 0.0
H2919 H 0.00924 0.94368 0.02753 0.0
C2920 C 0.01973 0.86449 0.06969 0.0
C2921 C 0.01862 0.86293 0.09022 0.0
C2922 C 0.02031 0.88264 0.06194 0.0
C2923 C 0.01965 0.89949 0.07457 0.0
C2924 C 0.01761 0.89765 0.09493 0.0
C2925 C 0.01722 0.87963 0.10266 0.0
C2926 C 0.03663 0.95331 0.07217 0.0
C2927 C 0.02778 0.9569 0.05371 0.0
C2928 C 0.034 0.93472 0.0787 0.0
C2929 C 0.02231 0.91915 0.06706 0.0
C2930 C 0.01352 0.9226 0.04846 0.0
C2931 C 0.01623 0.94135 0.04183 0.0
H2932 H 0.9123 0.27539 0.83474 0.0
H2933 H 0.89948 0.21252 0.82732 0.0
H2934 H 0.88016 0.2774 0.81915 0.0
H2935 H 0.86683 0.21459 0.81222 0.0
H2936 H 0.81642 0.22859 0.76882 0.0
H2937 H 0.84939 0.22534 0.78208 0.0
H2938 H 0.84701 0.27031 0.82911 0.0
H2939 H 0.81447 0.27375 0.81587 0.0
C2940 C 0.90269 0.26197 0.8296 0.0
C2941 C 0.90848 0.24378 0.83224 0.0
C2942 C 0.88416 0.26313 0.82087 0.0
C2943 C 0.87091 0.24615 0.8146 0.0
C2944 C 0.87678 0.22792 0.81682 0.0
C2945 C 0.89538 0.22675 0.82563 0.0
C2946 C 0.82298 0.23778 0.78197 0.0
C2947 C 0.81284 0.25148 0.79123 0.0
C2948 C 0.8418 0.23584 0.78961 0.0
C2949 C 0.85083 0.24766 0.80655 0.0
C2950 C 0.84059 0.26122 0.81584 0.0
C2951 C 0.82185 0.26311 0.80829 0.0
H2952 H 0.50079 0.15596 0.61492 0.0
H2953 H 0.53454 0.17577 0.56732 0.0
H2954 H 0.49857 0.1225 0.60094 0.0
H2955 H 0.53275 0.14195 0.55338 0.0
H2956 H 0.50471 0.07972 0.52448 0.0
H2957 H 0.5106 0.11419 0.53698 0.0
H2958 H 0.51839 0.09783 0.5972 0.0
H2959 H 0.51175 0.06364 0.58478 0.0
C2960 C 0.50795 0.15309 0.60156 0.0
C2961 C 0.518 0.16843 0.59232 0.0
C2962 C 0.50677 0.13389 0.59356 0.0
C2963 C 0.51577 0.12945 0.5762 0.0
C2964 C 0.52559 0.14485 0.56673 0.0
C2965 C 0.52664 0.16419 0.57469 0.0
C2966 C 0.50796 0.08359 0.54035 0.0
C2967 C 0.50748 0.06907 0.55371 0.0
C2968 C 0.51137 0.10331 0.54752 0.0
C2969 C 0.51455 0.10879 0.56814 0.0
C2970 C 0.51537 0.09416 0.58129 0.0
C2971 C 0.5117 0.07455 0.57417 0.0
H2972 H 0.57332 0.73752 0.30348 0.0
H2973 H 0.60075 0.78705 0.34343 0.0
H2974 H 0.6031 0.7383 0.28655 0.0
H2975 H 0.63029 0.78803 0.32615 0.0
H2976 H 0.67738 0.79107 0.28245 0.0
H2977 H 0.64478 0.79288 0.29311 0.0
H2978 H 0.63604 0.73088 0.29842 0.0
H2979 H 0.66842 0.72908 0.2879 0.0
C2980 C 0.58563 0.74865 0.30858 0.0
C2981 C 0.58469 0.76206 0.325 0.0
C2982 C 0.60264 0.74914 0.29881 0.0
C2983 C 0.61904 0.76315 0.3051 0.0
C2984 C 0.6178 0.77719 0.32083 0.0
C2985 C 0.60084 0.77662 0.33072 0.0
C2986 C 0.66834 0.77781 0.28559 0.0
C2987 C 0.67546 0.75995 0.28444 0.0
C2988 C 0.64976 0.77887 0.29179 0.0
C2989 C 0.6379 0.76203 0.29661 0.0
C2990 C 0.64475 0.74407 0.29461 0.0
C2991 C 0.66336 0.74307 0.2887 0.0
H2992 H 0.03923 0.17098 0.43915 0.0
H2993 H 0.9934 0.18662 0.4738 0.0
H2994 H 0.03899 0.14118 0.4556 0.0
H2995 H 0.99339 0.15676 0.49077 0.0
H2996 H 0.98591 0.08984 0.4987 0.0
H2997 H 0.98527 0.12163 0.48572 0.0
H2998 H 0.0481 0.13031 0.48683 0.0
H2999 H 0.04859 0.09843 0.49897 0.0
C3000 C 0.02928 0.16815 0.45052 0.0
C3001 C 0.01648 0.18123 0.45532 0.0
C3002 C 0.02917 0.15108 0.46004 0.0
C3003 C 0.01636 0.14666 0.47476 0.0
C3004 C 0.00336 0.15965 0.47944 0.0
C3005 C 0.00338 0.17674 0.46975 0.0
C3006 C 0.99956 0.09873 0.49645 0.0
C3007 C 0.01728 0.0916 0.4996 0.0
C3008 C 0.99922 0.11695 0.48903 0.0
C3009 C 0.01661 0.12839 0.48484 0.0
C3010 C 0.03437 0.12167 0.48929 0.0
C3011 C 0.03468 0.10345 0.49641 0.0
H3012 H 0.5993 0.21985 0.18752 0.0
H3013 H 0.5994 0.27916 0.21184 0.0
H3014 H 0.63262 0.22133 0.20228 0.0
H3015 H 0.63223 0.28003 0.22741 0.0
H3016 H 0.6872 0.26828 0.26412 0.0
H3017 H 0.65217 0.26177 0.25367 0.0
H3018 H 0.66462 0.2442 0.19394 0.0
H3019 H 0.69953 0.25112 0.20419 0.0
C3020 C 0.60628 0.23315 0.19609 0.0
C3021 C 0.59661 0.24948 0.1982 0.0
C3022 C 0.6253 0.23388 0.20468 0.0
C3023 C 0.63491 0.25077 0.21596 0.0
C3024 C 0.62501 0.26674 0.21897 0.0
C3025 C 0.60614 0.26617 0.21006 0.0
C3026 C 0.68241 0.26268 0.24887 0.0
C3027 C 0.69602 0.26026 0.23492 0.0
C3028 C 0.66242 0.25906 0.2429 0.0
C3029 C 0.65578 0.25251 0.22302 0.0
C3030 C 0.66938 0.24911 0.20938 0.0
C3031 C 0.68932 0.25314 0.21522 0.0
H3032 H 0.5339 0.85652 0.98822 0.0
H3033 H 0.54361 0.8825 0.93304 0.0
H3034 H 0.5306 0.88841 0.00429 0.0
H3035 H 0.54092 0.91427 0.94922 0.0
H3036 H 0.50472 0.9581 0.97436 0.0
H3037 H 0.51213 0.9271 0.96089 0.0
H3038 H 0.54798 0.92281 0.01492 0.0
H3039 H 0.54046 0.95423 0.02867 0.0
C3040 C 0.53559 0.86905 0.9796 0.0
C3041 C 0.53886 0.86692 0.95929 0.0
C3042 C 0.53388 0.88733 0.98886 0.0
C3043 C 0.53528 0.90378 0.97794 0.0
C3044 C 0.5395 0.90179 0.95794 0.0
C3045 C 0.54127 0.8836 0.94872 0.0
C3046 C 0.51416 0.95062 0.98349 0.0
C3047 C 0.52202 0.95871 0.00262 0.0
C3048 C 0.51854 0.93289 0.97565 0.0
C3049 C 0.53084 0.92264 0.98673 0.0
C3050 C 0.53846 0.93043 0.00605 0.0
C3051 C 0.53418 0.94839 0.01389 0.0
H3052 H 0.89558 0.73399 0.67782 0.0
H3053 H 0.92328 0.76896 0.73062 0.0
H3054 H 0.8643 0.73224 0.69162 0.0
H3055 H 0.8918 0.76669 0.74498 0.0
H3056 H 0.82676 0.77292 0.75397 0.0
H3057 H 0.85976 0.77623 0.7428 0.0
H3058 H 0.84759 0.71676 0.71626 0.0
H3059 H 0.81477 0.71395 0.7265 0.0
C3060 C 0.89498 0.74109 0.69255 0.0
C3061 C 0.91191 0.75138 0.70325 0.0
C3062 C 0.87703 0.74004 0.70055 0.0
C3063 C 0.87549 0.74901 0.71963 0.0
C3064 C 0.8924 0.75966 0.73023 0.0
C3065 C 0.91043 0.76091 0.72206 0.0
C3066 C 0.83134 0.76059 0.7459 0.0
C3067 C 0.81819 0.7433 0.74081 0.0
C3068 C 0.85021 0.76243 0.73952 0.0
C3069 C 0.85625 0.7469 0.72821 0.0
C3070 C 0.84331 0.72927 0.72429 0.0
C3071 C 0.8245 0.72759 0.7303 0.0
H3072 H 0.09387 0.98583 0.89001 0.0
H3073 H 0.05067 0.01616 0.86234 0.0
H3074 H 0.0765 0.98481 0.92006 0.0
H3075 H 0.03329 0.01518 0.89258 0.0
H3076 H 1.00062 0.99359 0.94774 0.0
H3077 H 0.01487 0.99081 0.91556 0.0
H3078 H 0.07186 0.01271 0.9451 0.0
H3079 H 0.05791 0.01585 0.97673 0.0
C3080 C 0.0805 0.99201 0.89022 0.0
C3081 C 0.07372 0.00117 0.87382 0.0
C3082 C 0.07061 0.99152 0.90747 0.0
C3083 C 0.05357 0.99998 0.90869 0.0
C3084 C 0.04631 0.00845 0.89202 0.0
C3085 C 0.05636 0.00916 0.87481 0.0
C3086 C 0.01618 0.99776 0.9473 0.0
C3087 C 0.02808 0.00487 0.96486 0.0
C3088 C 0.0243 0.99623 0.92891 0.0
C3089 C 0.04451 0.00138 0.92788 0.0
C3090 C 0.05631 0.00836 0.94545 0.0
C3091 C 0.04822 0.01022 0.96361 0.0
H3092 H 0.72533 0.30386 0.60901 0.0
H3093 H 0.78691 0.30708 0.60265 0.0
H3094 H 0.72802 0.2824 0.63554 0.0
H3095 H 0.78962 0.28531 0.62905 0.0
H3096 H 0.78909 0.273 0.69581 0.0
H3097 H 0.78838 0.28787 0.6645 0.0
H3098 H 0.73394 0.25081 0.64444 0.0
H3099 H 0.73434 0.23626 0.67616 0.0
C3100 C 0.73939 0.29968 0.61306 0.0
C3101 C 0.75594 0.30728 0.60389 0.0
C3102 C 0.74093 0.28729 0.6282 0.0
C3103 C 0.75905 0.28211 0.63445 0.0
C3104 C 0.7755 0.28923 0.6248 0.0
C3105 C 0.77397 0.30172 0.60972 0.0
C3106 C 0.77714 0.26771 0.68459 0.0
C3107 C 0.7616 0.25365 0.68863 0.0
C3108 C 0.77679 0.2762 0.66654 0.0
C3109 C 0.76095 0.27075 0.65205 0.0
C3110 C 0.74614 0.25563 0.65548 0.0
C3111 C 0.74646 0.24716 0.6736 0.0
H3112 H 0.44952 0.99018 0.36253 0.0
H3113 H 0.45673 0.0528 0.37431 0.0
H3114 H 0.46819 0.98796 0.3939 0.0
H3115 H 0.47492 0.05043 0.40628 0.0
H3116 H 0.51887 0.03806 0.45713 0.0
H3117 H 0.50578 0.0407 0.42277 0.0
H3118 H 0.45962 0.99319 0.42829 0.0
H3119 H 0.4726 0.99042 0.46206 0.0
C3120 C 0.45532 0.00352 0.37168 0.0
C3121 C 0.45157 0.02168 0.36593 0.0
C3122 C 0.46588 0.00222 0.38975 0.0
C3123 C 0.47288 0.019 0.40259 0.0
C3124 C 0.46979 0.03726 0.3966 0.0
C3125 C 0.45918 0.03858 0.37844 0.0
C3126 C 0.50607 0.02807 0.45083 0.0
C3127 C 0.4967 0.01411 0.46229 0.0
C3128 C 0.49853 0.02967 0.43128 0.0
C3129 C 0.48172 0.01712 0.42287 0.0
C3130 C 0.47273 0.0029 0.43424 0.0
C3131 C 0.48011 0.00143 0.45368 0.0
H3132 H 0.72978 0.66652 0.10795 0.0
H3133 H 0.77705 0.71223 0.10024 0.0
H3134 H 0.72775 0.68075 0.14169 0.0
H3135 H 0.77482 0.72658 0.13394 0.0
H3136 H 0.75807 0.75427 0.19218 0.0
H3137 H 0.75397 0.74253 0.15676 0.0
H3138 H 0.74963 0.68324 0.17258 0.0
H3139 H 0.75362 0.69489 0.20776 0.0
C3140 C 0.73971 0.67964 0.11341 0.0
C3141 C 0.75377 0.68806 0.10145 0.0
C3142 C 0.73848 0.68782 0.13273 0.0
C3143 C 0.75121 0.70471 0.14054 0.0
C3144 C 0.76466 0.71368 0.12828 0.0
C3145 C 0.76595 0.70543 0.10896 0.0
C3146 C 0.75585 0.73872 0.18805 0.0
C3147 C 0.75623 0.7255 0.20274 0.0
C3148 C 0.75367 0.73202 0.16779 0.0
C3149 C 0.75156 0.71196 0.16187 0.0
C3150 C 0.75103 0.69876 0.17662 0.0
C3151 C 0.75342 0.70545 0.19679 0.0
H3152 H 0.09554 0.98227 0.67073 0.0
H3153 H 0.06456 0.02955 0.68724 0.0
H3154 H 0.0831 0.98236 0.63616 0.0
H3155 H 0.05257 0.03006 0.65228 0.0
H3156 H 0.01962 0.0083 0.5892 0.0
H3157 H 0.03068 0.01041 0.62474 0.0
H3158 H 0.08862 0.00375 0.60965 0.0
H3159 H 0.07762 0.00138 0.57444 0.0
C3160 C 0.08593 0.99259 0.66703 0.0
C3161 C 0.08103 0.00588 0.68181 0.0
C3162 C 0.079 0.99282 0.64713 0.0
C3163 C 0.06702 0.00637 0.64142 0.0
C3164 C 0.06174 0.01942 0.65621 0.0
C3165 C 0.06874 0.01923 0.67619 0.0
C3166 C 0.03477 0.00755 0.59353 0.0
C3167 C 0.04769 0.00446 0.57901 0.0
C3168 C 0.0411 0.00877 0.61387 0.0
C3169 C 0.06045 0.0069 0.62001 0.0
C3170 C 0.07351 0.00476 0.60543 0.0
C3171 C 0.06721 0.00352 0.58522 0.0
H3172 H 0.77642 0.31855 0.42427 0.0
H3173 H 0.71355 0.30584 0.41634 0.0
H3174 H 0.77828 0.30226 0.39152 0.0
H3175 H 0.71548 0.28982 0.38307 0.0
H3176 H 0.731 0.24823 0.33031 0.0
H3177 H 0.7281 0.26051 0.36489 0.0
H3178 H 0.76904 0.31189 0.35767 0.0
H3179 H 0.77199 0.29986 0.32363 0.0
C3180 C 0.76298 0.31204 0.41564 0.0
C3181 C 0.74483 0.31349 0.42291 0.0
C3182 C 0.76406 0.30285 0.3968 0.0
C3183 C 0.74703 0.29488 0.38473 0.0
C3184 C 0.72884 0.29575 0.39214 0.0
C3185 C 0.72774 0.30508 0.41105 0.0
C3186 C 0.73944 0.26208 0.33621 0.0
C3187 C 0.75176 0.27302 0.32424 0.0
C3188 C 0.73769 0.26913 0.35591 0.0
C3189 C 0.74845 0.28708 0.36396 0.0
C3190 C 0.76078 0.29788 0.35197 0.0
C3191 C 0.76238 0.29099 0.33239 0.0
H3192 H 0.44503 0.98938 0.17829 0.0
H3193 H 0.45923 0.0521 0.188 0.0
H3194 H 0.46379 0.98979 0.14927 0.0
H3195 H 0.47888 0.05236 0.15978 0.0
H3196 H 0.48217 0.04681 0.09189 0.0
H3197 H 0.47024 0.04736 0.12462 0.0
H3198 H 0.4957 0.99596 0.13627 0.0
H3199 H 0.50734 0.99513 0.10291 0.0
C3200 C 0.4523 0.00323 0.17436 0.0
C3201 C 0.45037 0.02073 0.1853 0.0
C3202 C 0.46333 0.00343 0.15792 0.0
C3203 C 0.47273 0.02113 0.15214 0.0
C3204 C 0.47158 0.03851 0.16368 0.0
C3205 C 0.46046 0.03833 0.18 0.0
C3206 C 0.48545 0.03572 0.10147 0.0
C3207 C 0.49553 0.0208 0.09476 0.0
C3208 C 0.47874 0.03614 0.12036 0.0
C3209 C 0.48198 0.02168 0.13307 0.0
C3210 C 0.4928 0.00719 0.12671 0.0
C3211 C 0.49959 0.00678 0.10771 0.0
H3212 H 0.74422 0.71152 0.9194 0.0
H3213 H 0.79518 0.68819 0.90179 0.0
H3214 H 0.74407 0.72956 0.88987 0.0
H3215 H 0.79542 0.70707 0.87283 0.0
H3216 H 0.79742 0.75849 0.83202 0.0
H3217 H 0.79897 0.74359 0.86384 0.0
H3218 H 0.73845 0.71809 0.8521 0.0
H3219 H 0.73698 0.73257 0.82036 0.0
C3220 C 0.7554 0.71017 0.90932 0.0
C3221 C 0.7696 0.69813 0.91306 0.0
C3222 C 0.75538 0.72068 0.89247 0.0
C3223 C 0.76975 0.71973 0.87908 0.0
C3224 C 0.78431 0.70826 0.88304 0.0
C3225 C 0.78416 0.69748 0.89973 0.0
C3226 C 0.78443 0.74987 0.83639 0.0
C3227 C 0.7671 0.74665 0.82371 0.0
C3228 C 0.78535 0.74127 0.85449 0.0
C3229 C 0.76882 0.7297 0.86042 0.0
C3230 C 0.75136 0.72704 0.848 0.0
C3231 C 0.75057 0.73527 0.82979 0.0
H3232 H 0.85833 0.07698 0.9851 0.0
H3233 H 0.84775 0.06216 0.04475 0.0
H3234 H 0.88561 0.05874 0.98565 0.0
H3235 H 0.87402 0.04291 0.0447 0.0
H3236 H 0.93916 0.03929 0.0499 0.0
H3237 H 0.90836 0.05139 0.04766 0.0
H3238 H 0.89716 0.02754 0.98619 0.0
H3239 H 0.92869 0.0158 0.9883 0.0
C3240 C 0.86165 0.06968 0.99824 0.0
C3241 C 0.85094 0.07133 0.01498 0.0
C3242 C 0.87711 0.05894 0.99842 0.0
C3243 C 0.88215 0.04949 0.0153 0.0
C3244 C 0.87078 0.05029 0.03158 0.0
C3245 C 0.85549 0.06116 0.03149 0.0
C3246 C 0.93009 0.0364 0.03592 0.0
C3247 C 0.93644 0.02669 0.01923 0.0
C3248 C 0.91228 0.04322 0.03469 0.0
C3249 C 0.90021 0.04045 0.01674 0.0
C3250 C 0.90621 0.03009 0.00018 0.0
C3251 C 0.92416 0.02322 0.00143 0.0
H3252 H 0.37701 0.42848 0.05249 0.0
H3253 H 0.35419 0.47735 0.02916 0.0
H3254 H 0.41012 0.44431 0.04897 0.0
H3255 H 0.38738 0.49313 0.02547 0.0
H3256 H 0.45264 0.52154 0.03907 0.0
H3257 H 0.41952 0.50769 0.04559 0.0
H3258 H 0.42817 0.45171 0.01885 0.0
H3259 H 0.4609 0.46541 0.0121 0.0
C3260 C 0.37908 0.44274 0.0469 0.0
C3261 C 0.36299 0.45163 0.04104 0.0
C3262 C 0.39803 0.45172 0.04472 0.0
C3263 C 0.40133 0.4699 0.03681 0.0
C3264 C 0.38529 0.47917 0.03168 0.0
C3265 C 0.3663 0.47007 0.03366 0.0
C3266 C 0.44745 0.50629 0.03457 0.0
C3267 C 0.45954 0.49457 0.02522 0.0
C3268 C 0.42849 0.49838 0.03827 0.0
C3269 C 0.42134 0.47856 0.03293 0.0
C3270 C 0.43338 0.46694 0.02347 0.0
C3271 C 0.45216 0.47485 0.01955 0.0
H3272 H 0.34111 0.61319 0.78326 0.0
H3273 H 0.30669 0.59065 0.72822 0.0
H3274 H 0.32417 0.64139 0.78492 0.0
H3275 H 0.29006 0.61909 0.72975 0.0
H3276 H 0.28783 0.68512 0.72637 0.0
H3277 H 0.29993 0.65411 0.72617 0.0
H3278 H 0.29175 0.65214 0.78877 0.0
H3279 H 0.27961 0.68346 0.78899 0.0
C3280 C 0.32975 0.61405 0.77166 0.0
C3281 C 0.3254 0.59962 0.75553 0.0
C3282 C 0.32003 0.63026 0.77263 0.0
C3283 C 0.30581 0.63253 0.75743 0.0
C3284 C 0.30113 0.6179 0.74156 0.0
C3285 C 0.31075 0.60164 0.74064 0.0
C3286 C 0.28838 0.67799 0.74007 0.0
C3287 C 0.28281 0.68678 0.75772 0.0
C3288 C 0.29522 0.66014 0.73992 0.0
C3289 C 0.29686 0.65066 0.75746 0.0
C3290 C 0.2908 0.65918 0.77505 0.0
C3291 C 0.28371 0.67701 0.77514 0.0
H3292 H 0.17734 0.55351 0.53207 0.0
H3293 H 0.16258 0.60965 0.51989 0.0
H3294 H 0.14274 0.54048 0.53201 0.0
H3295 H 0.12815 0.59664 0.51857 0.0
H3296 H 0.06778 0.57505 0.531 0.0
H3297 H 0.10263 0.58643 0.5368 0.0
H3298 H 0.11391 0.53053 0.51184 0.0
H3299 H 0.07894 0.51887 0.50741 0.0
C3300 C 0.16661 0.56298 0.52925 0.0
C3301 C 0.17252 0.58257 0.52612 0.0
C3302 C 0.14679 0.55554 0.5291 0.0
C3303 C 0.13247 0.56748 0.5254 0.0
C3304 C 0.1386 0.58707 0.52206 0.0
C3305 C 0.15835 0.59455 0.52263 0.0
C3306 C 0.07779 0.56515 0.52707 0.0
C3307 C 0.07075 0.54615 0.51868 0.0
C3308 C 0.09779 0.5717 0.53018 0.0
C3309 C 0.11126 0.55959 0.5244 0.0
C3310 C 0.10411 0.54027 0.51667 0.0
C3311 C 0.08405 0.53357 0.51405 0.0
H3312 H 0.71355 0.91551 0.74059 0.0
H3313 H 0.71541 0.92599 0.8046 0.0
H3314 H 0.73499 0.89122 0.74438 0.0
H3315 H 0.73711 0.90178 0.80846 0.0
H3316 H 0.74991 0.83793 0.80402 0.0
H3317 H 0.73449 0.86697 0.80356 0.0
H3318 H 0.76732 0.88541 0.75474 0.0
H3319 H 0.78239 0.85598 0.75482 0.0
C3320 C 0.71884 0.91287 0.75548 0.0
C3321 C 0.7127 0.9226 0.77229 0.0
C3322 C 0.73121 0.89898 0.75768 0.0
C3323 C 0.73782 0.89453 0.77674 0.0
C3324 C 0.73209 0.90465 0.79356 0.0
C3325 C 0.71963 0.9185 0.79136 0.0
C3326 C 0.75417 0.84835 0.79344 0.0
C3327 C 0.7672 0.84448 0.77927 0.0
C3328 C 0.74535 0.86509 0.79322 0.0
C3329 C 0.74944 0.87841 0.77891 0.0
C3330 C 0.76353 0.87523 0.76568 0.0
C3331 C 0.7723 0.85844 0.76584 0.0
H3332 H 0.65868 0.92849 0.50366 0.0
H3333 H 0.68302 0.96597 0.55628 0.0
H3334 H 0.63088 0.94594 0.50127 0.0
H3335 H 0.65493 0.98308 0.55407 0.0
H3336 H 0.58908 0.98677 0.55805 0.0
H3337 H 0.61982 0.97411 0.55872 0.0
H3338 H 0.62089 0.97851 0.49537 0.0
H3339 H 0.58987 0.99127 0.49469 0.0
C3340 C 0.6583 0.94061 0.51457 0.0
C3341 C 0.67315 0.94569 0.53024 0.0
C3342 C 0.64231 0.95062 0.51317 0.0
C3343 C 0.64067 0.96587 0.52749 0.0
C3344 C 0.65566 0.97123 0.54293 0.0
C3345 C 0.67172 0.96133 0.54425 0.0
C3346 C 0.59597 0.98529 0.54428 0.0
C3347 C 0.58701 0.98997 0.5263 0.0
C3348 C 0.61366 0.97812 0.54469 0.0
C3349 C 0.62278 0.97524 0.5271 0.0
C3350 C 0.61412 0.98042 0.50915 0.0
C3351 C 0.59646 0.98787 0.50878 0.0
H3352 H 0.33893 0.39992 0.72561 0.0
H3353 H 0.29845 0.42089 0.76422 0.0
H3354 H 0.32306 0.36647 0.72748 0.0
H3355 H 0.28264 0.38738 0.76618 0.0
H3356 H 0.24988 0.32424 0.75053 0.0
H3357 H 0.26317 0.3578 0.7449 0.0
H3358 H 0.32154 0.34484 0.75589 0.0
H3359 H 0.30843 0.3116 0.76168 0.0
C3360 C 0.32644 0.39741 0.73423 0.0
C3361 C 0.31998 0.41302 0.74483 0.0
C3362 C 0.31746 0.37826 0.73543 0.0
C3363 C 0.30168 0.37432 0.74707 0.0
C3364 C 0.2947 0.38998 0.75701 0.0
C3365 C 0.30384 0.40913 0.75601 0.0
C3366 C 0.26554 0.32856 0.75166 0.0
C3367 C 0.27809 0.31523 0.75654 0.0
C3368 C 0.27313 0.34777 0.74851 0.0
C3369 C 0.29339 0.35389 0.74985 0.0
C3370 C 0.30587 0.34049 0.75449 0.0
C3371 C 0.29833 0.32145 0.75793 0.0
H3372 H 0.20513 0.60084 0.30604 0.0
H3373 H 0.20448 0.59991 0.24194 0.0
H3374 H 0.22346 0.63362 0.30947 0.0
H3375 H 0.2227 0.63292 0.24542 0.0
H3376 H 0.22982 0.70003 0.26218 0.0
H3377 H 0.21594 0.66568 0.25638 0.0
H3378 H 0.25525 0.65244 0.30424 0.0
H3379 H 0.26901 0.68688 0.31026 0.0
C3380 C 0.20917 0.60749 0.29268 0.0
C3381 C 0.2033 0.59774 0.27371 0.0
C3382 C 0.21969 0.6263 0.29466 0.0
C3383 C 0.22454 0.63585 0.27772 0.0
C3384 C 0.21898 0.62601 0.25874 0.0
C3385 C 0.20851 0.60713 0.25676 0.0
C3386 C 0.23567 0.68978 0.27133 0.0
C3387 C 0.25039 0.69621 0.28682 0.0
C3388 C 0.22778 0.67007 0.26792 0.0
C3389 C 0.23441 0.65638 0.27995 0.0
C3390 C 0.24966 0.6627 0.29491 0.0
C3391 C 0.25761 0.68241 0.29828 0.0
H3392 H 0.52275 0.67329 0.47684 0.0
H3393 H 0.50651 0.64312 0.41841 0.0
H3394 H 0.52467 0.64209 0.49074 0.0
H3395 H 0.50787 0.61216 0.43215 0.0
H3396 H 0.52493 0.55963 0.45552 0.0
H3397 H 0.52957 0.5926 0.44529 0.0
H3398 H 0.50484 0.61283 0.49837 0.0
H3399 H 0.50113 0.57979 0.50903 0.0
C3400 C 0.51954 0.65998 0.46701 0.0
C3401 C 0.51468 0.66063 0.44651 0.0
C3402 C 0.52061 0.64212 0.47495 0.0
C3403 C 0.51667 0.62456 0.46256 0.0
C3404 C 0.5116 0.62535 0.4421 0.0
C3405 C 0.51072 0.64313 0.43418 0.0
C3406 C 0.52087 0.57123 0.46518 0.0
C3407 C 0.51252 0.56719 0.48294 0.0
C3408 C 0.52335 0.5901 0.45925 0.0
C3409 C 0.5171 0.60534 0.47072 0.0
C3410 C 0.50986 0.6015 0.48917 0.0
C3411 C 0.50771 0.58258 0.4953 0.0
H3412 H 0.60737 0.27842 0.73693 0.0
H3413 H 0.63296 0.28704 0.68137 0.0
H3414 H 0.63939 0.27589 0.7531 0.0
H3415 H 0.66495 0.28506 0.69764 0.0
H3416 H 0.71043 0.25139 0.72517 0.0
H3417 H 0.67937 0.25776 0.7105 0.0
H3418 H 0.67281 0.29412 0.7635 0.0
H3419 H 0.7041 0.2876 0.77842 0.0
C3420 C 0.61986 0.27999 0.72824 0.0
C3421 C 0.6176 0.28279 0.70783 0.0
C3422 C 0.63821 0.27872 0.73754 0.0
C3423 C 0.65464 0.2801 0.72659 0.0
C3424 C 0.6525 0.28368 0.7064 0.0
C3425 C 0.6342 0.28503 0.69713 0.0
C3426 C 0.70244 0.26075 0.73376 0.0
C3427 C 0.70977 0.26898 0.75299 0.0
C3428 C 0.68467 0.26454 0.72526 0.0
C3429 C 0.67372 0.27658 0.73577 0.0
C3430 C 0.68092 0.28473 0.75507 0.0
C3431 C 0.69884 0.28104 0.76358 0.0
H3432 H 0.04301 0.35388 0.95285 0.0
H3433 H 0.98101 0.34799 0.95789 0.0
H3434 H 0.04661 0.38811 0.96523 0.0
H3435 H 0.98464 0.3825 0.97011 0.0
H3436 H 0.00615 0.44259 0.00854 0.0
H3437 H 0.00115 0.4073 0.99941 0.0
H3438 H 0.03519 0.4166 0.94923 0.0
H3439 H 0.04011 0.4515 0.95812 0.0
C3440 C 0.03019 0.35981 0.95693 0.0
C3441 C 0.01172 0.34826 0.95435 0.0
C3442 C 0.03223 0.37945 0.96384 0.0
C3443 C 0.01587 0.38797 0.96844 0.0
C3444 C 0.99749 0.37627 0.96671 0.0
C3445 C 0.99541 0.3566 0.9596 0.0
C3446 C 0.01243 0.43706 0.9955 0.0
C3447 C 0.02359 0.44984 0.98411 0.0
C3448 C 0.00955 0.41691 0.99028 0.0
C3449 C 0.018 0.40925 0.97377 0.0
C3450 C 0.02879 0.42208 0.96223 0.0
C3451 C 0.03149 0.44211 0.96728 0.0
H3452 H 0.92422 0.73863 0.21202 0.0
H3453 H 0.91708 0.79285 0.18731 0.0
H3454 H 0.8921 0.73709 0.22455 0.0
H3455 H 0.8858 0.79192 0.20085 0.0
H3456 H 0.82187 0.77358 0.20422 0.0
H3457 H 0.85418 0.77372 0.19329 0.0
H3458 H 0.87295 0.75182 0.24854 0.0
H3459 H 0.84005 0.75109 0.25932 0.0
C3460 C 0.91589 0.75027 0.20936 0.0
C3461 C 0.92326 0.76582 0.19855 0.0
C3462 C 0.89759 0.74951 0.21677 0.0
C3463 C 0.88628 0.76429 0.21356 0.0
C3464 C 0.89393 0.78008 0.20328 0.0
C3465 C 0.91208 0.78077 0.19576 0.0
C3466 C 0.83284 0.76877 0.21409 0.0
C3467 C 0.82844 0.76249 0.23272 0.0
C3468 C 0.85145 0.76897 0.20785 0.0
C3469 C 0.86629 0.76309 0.22016 0.0
C3470 C 0.86183 0.75638 0.23867 0.0
C3471 C 0.84303 0.75603 0.24488 0.0
H3472 H 0.49578 0.32911 0.04916 0.0
H3473 H 0.53011 0.36159 0.10031 0.0
H3474 H 0.49645 0.35908 0.03256 0.0
H3475 H 0.53157 0.39116 0.08311 0.0
H3476 H 0.54171 0.43756 0.03804 0.0
H3477 H 0.54415 0.40547 0.04987 0.0
H3478 H 0.48146 0.39092 0.0431 0.0
H3479 H 0.47898 0.423 0.03178 0.0
C3480 C 0.50354 0.34252 0.05687 0.0
C3481 C 0.51272 0.34283 0.07624 0.0
C3482 C 0.50406 0.35963 0.04724 0.0
C3483 C 0.51411 0.37734 0.05656 0.0
C3484 C 0.52395 0.3776 0.0755 0.0
C3485 C 0.52314 0.36059 0.08531 0.0
C3486 C 0.52851 0.42734 0.03875 0.0
C3487 C 0.51016 0.43272 0.03406 0.0
C3488 C 0.5299 0.40908 0.0456 0.0
C3489 C 0.51298 0.3958 0.04737 0.0
C3490 C 0.49471 0.40085 0.04172 0.0
C3491 C 0.4933 0.41921 0.03532 0.0
H3492 H 0.90641 0.25366 0.36948 0.0
H3493 H 0.92413 0.26924 0.31226 0.0
H3494 H 0.87239 0.25109 0.35697 0.0
H3495 H 0.88991 0.26581 0.29923 0.0
H3496 H 0.82542 0.27262 0.28705 0.0
H3497 H 0.85987 0.27844 0.29975 0.0
H3498 H 0.84933 0.22992 0.33585 0.0
H3499 H 0.8152 0.22482 0.32399 0.0
C3500 C 0.90295 0.25632 0.35411 0.0
C3501 C 0.91783 0.26141 0.34176 0.0
C3502 C 0.88345 0.25478 0.34688 0.0
C3503 C 0.87831 0.25795 0.32695 0.0
C3504 C 0.89328 0.26343 0.31468 0.0
C3505 C 0.91287 0.26528 0.32207 0.0
C3506 C 0.83055 0.26333 0.29779 0.0
C3507 C 0.81757 0.24842 0.30468 0.0
C3508 C 0.85029 0.26656 0.30498 0.0
C3509 C 0.85742 0.25478 0.31902 0.0
C3510 C 0.84437 0.23967 0.32552 0.0
C3511 C 0.82473 0.23665 0.31859 0.0
H3512 H 0.98189 0.66242 0.55349 0.0
H3513 H 0.99803 0.64353 0.61113 0.0
H3514 H 0.98584 0.63075 0.53769 0.0
H3515 H 1.00052 0.61168 0.59556 0.0
H3516 H 0.02711 0.56579 0.56213 0.0
H3517 H 0.02232 0.59765 0.57609 0.0
H3518 H 0.97304 0.59656 0.53283 0.0
H3519 H 0.97837 0.56472 0.51831 0.0
C3520 C 0.98613 0.65152 0.56283 0.0
C3521 C 0.98974 0.65569 0.58363 0.0
C3522 C 0.98814 0.63325 0.55377 0.0
C3523 C 0.99371 0.61869 0.5653 0.0
C3524 C 0.99663 0.62265 0.58613 0.0
C3525 C 0.99483 0.64091 0.59513 0.0
C3526 C 0.01526 0.57234 0.55554 0.0
C3527 C 0.00304 0.56268 0.53919 0.0
C3528 C 0.01242 0.59059 0.56365 0.0
C3529 C 0.99708 0.5996 0.55583 0.0
C3530 C 0.98506 0.59012 0.53917 0.0
C3531 C 0.98807 0.57185 0.53088 0.0
H3532 H 0.61093 0.73857 0.82728 0.0
H3533 H 0.61733 0.80135 0.83582 0.0
H3534 H 0.64313 0.74111 0.8145 0.0
H3535 H 0.64916 0.80382 0.82279 0.0
H3536 H 0.71404 0.79837 0.82945 0.0
H3537 H 0.68048 0.79497 0.83766 0.0
H3538 H 0.663 0.75402 0.78595 0.0
H3539 H 0.697 0.75748 0.77752 0.0
C3540 C 0.61911 0.75289 0.82623 0.0
C3541 C 0.61161 0.76976 0.83266 0.0
C3542 C 0.63744 0.75433 0.81876 0.0
C3543 C 0.64869 0.77266 0.81779 0.0
C3544 C 0.64088 0.78949 0.82354 0.0
C3545 C 0.62256 0.78807 0.83084 0.0
C3546 C 0.70312 0.78862 0.81975 0.0
C3547 C 0.70821 0.77821 0.80279 0.0
C3548 C 0.68383 0.78679 0.82441 0.0
C3549 C 0.66909 0.77437 0.81236 0.0
C3550 C 0.67411 0.7637 0.7955 0.0
C3551 C 0.69351 0.76572 0.79065 0.0
H3552 H 0.45946 0.5464 0.66449 0.0
H3553 H 0.4359 0.48555 0.65054 0.0
H3554 H 0.47632 0.54603 0.63398 0.0
H3555 H 0.45297 0.48513 0.62036 0.0
H3556 H 0.46394 0.49896 0.5567 0.0
H3557 H 0.44939 0.49963 0.58821 0.0
H3558 H 0.5031 0.53152 0.61767 0.0
H3559 H 0.51787 0.53092 0.58583 0.0
C3560 C 0.45793 0.53294 0.65496 0.0
C3561 C 0.44626 0.51602 0.65993 0.0
C3562 C 0.46774 0.53269 0.63759 0.0
C3563 C 0.46592 0.51558 0.6247 0.0
C3564 C 0.45452 0.4986 0.62987 0.0
C3565 C 0.44487 0.4988 0.64727 0.0
C3566 C 0.47274 0.50617 0.56982 0.0
C3567 C 0.49213 0.5149 0.56866 0.0
C3568 C 0.46439 0.50641 0.58796 0.0
C3569 C 0.47511 0.51551 0.60549 0.0
C3570 C 0.49444 0.52446 0.60439 0.0
C3571 C 0.50291 0.52406 0.58618 0.0
H3572 H 0.74094 0.20882 0.94302 0.0
H3573 H 0.80213 0.21284 0.9343 0.0
H3574 H 0.73686 0.23034 0.91666 0.0
H3575 H 0.79806 0.23414 0.90782 0.0
H3576 H 0.78903 0.2807 0.86807 0.0
H3577 H 0.79107 0.26575 0.89952 0.0
H3578 H 0.73693 0.22762 0.88092 0.0
H3579 H 0.73462 0.24282 0.84984 0.0
C3580 C 0.75351 0.21429 0.93543 0.0
C3581 C 0.77182 0.209 0.94059 0.0
C3582 C 0.75119 0.22664 0.92037 0.0
C3583 C 0.76712 0.23394 0.91009 0.0
C3584 C 0.78554 0.22907 0.91566 0.0
C3585 C 0.78788 0.21678 0.93077 0.0
C3586 C 0.77733 0.26944 0.8709 0.0
C3587 C 0.76179 0.26279 0.85634 0.0
C3588 C 0.7786 0.26076 0.88885 0.0
C3589 C 0.76434 0.24527 0.8926 0.0
C3590 C 0.74812 0.23957 0.8786 0.0
C3591 C 0.74684 0.24826 0.8607 0.0
H3592 H 0.09959 0.48184 0.14948 0.0
H3593 H 0.04854 0.49349 0.17801 0.0
H3594 H 0.08258 0.48364 0.11704 0.0
H3595 H 0.03174 0.49605 0.14542 0.0
H3596 H 0.0039 0.48537 0.0798 0.0
H3597 H 0.01821 0.47838 0.11231 0.0
H3598 H 0.07311 0.51175 0.10125 0.0
H3599 H 0.05911 0.51858 0.06917 0.0
C3600 C 0.08463 0.48447 0.14884 0.0
C3601 C 0.0755 0.4877 0.16636 0.0
C3602 C 0.07495 0.48572 0.13024 0.0
C3603 C 0.05593 0.49028 0.12871 0.0
C3604 C 0.04638 0.4925 0.14613 0.0
C3605 C 0.05609 0.49124 0.16478 0.0
C3606 C 0.019 0.49122 0.08438 0.0
C3607 C 0.03037 0.50244 0.07183 0.0
C3608 C 0.02717 0.48723 0.10296 0.0
C3609 C 0.04686 0.49429 0.10918 0.0
C3610 C 0.05804 0.50572 0.09671 0.0
C3611 C 0.04991 0.50976 0.07834 0.0
H3612 H 0.76999 0.86189 0.42166 0.0
H3613 H 0.7442 0.8051 0.43657 0.0
H3614 H 0.76865 0.84953 0.38695 0.0
H3615 H 0.74195 0.79293 0.40142 0.0
H3616 H 0.75562 0.77376 0.3378 0.0
H3617 H 0.76077 0.78493 0.37337 0.0
H3618 H 0.74355 0.84003 0.36033 0.0
H3619 H 0.73888 0.82915 0.32512 0.0
C3620 C 0.76418 0.8467 0.4176 0.0
C3621 C 0.75722 0.83451 0.43201 0.0
C3622 C 0.76317 0.83966 0.39759 0.0
C3623 C 0.75504 0.82027 0.39133 0.0
C3624 C 0.74843 0.80791 0.40575 0.0
C3625 C 0.74949 0.81496 0.42586 0.0
C3626 C 0.75314 0.78832 0.34257 0.0
C3627 C 0.74687 0.80057 0.32861 0.0
C3628 C 0.75594 0.79466 0.36294 0.0
C3629 C 0.75261 0.8134 0.36972 0.0
C3630 C 0.74657 0.82564 0.35566 0.0
C3631 C 0.74377 0.81933 0.33541 0.0
H3632 H 0.4416 0.54927 0.85746 0.0
H3633 H 0.44754 0.48836 0.85029 0.0
H3634 H 0.4551 0.55117 0.89205 0.0
H3635 H 0.46086 0.49024 0.88514 0.0
H3636 H 0.50069 0.5094 0.94509 0.0
H3637 H 0.49004 0.5067 0.90935 0.0
H3638 H 0.44184 0.53672 0.92209 0.0
H3639 H 0.45227 0.53937 0.95744 0.0
C3640 C 0.44605 0.53635 0.86318 0.0
C3641 C 0.44344 0.51865 0.85115 0.0
C3642 C 0.45362 0.5374 0.88305 0.0
C3643 C 0.45887 0.52081 0.89134 0.0
C3644 C 0.45699 0.50327 0.87914 0.0
C3645 C 0.44923 0.50217 0.85926 0.0
C3646 C 0.48777 0.51531 0.94023 0.0
C3647 C 0.47737 0.52465 0.95413 0.0
C3648 C 0.48167 0.51374 0.9198 0.0
C3649 C 0.46524 0.5217 0.91293 0.0
C3650 C 0.45475 0.53074 0.92689 0.0
C3651 C 0.46068 0.53212 0.9472 0.0
H3652 H 0.79397 0.17928 0.13944 0.0
H3653 H 0.78558 0.2316 0.11158 0.0
H3654 H 0.79032 0.19549 0.1718 0.0
H3655 H 0.7811 0.24757 0.14401 0.0
H3656 H 0.78654 0.27345 0.21007 0.0
H3657 H 0.79607 0.25999 0.17829 0.0
H3658 H 0.76123 0.20473 0.18555 0.0
H3659 H 0.75191 0.2179 0.21695 0.0
C3660 C 0.79171 0.19436 0.14023 0.0
C3661 C 0.78987 0.20407 0.12287 0.0
C3662 C 0.78938 0.20357 0.15877 0.0
C3663 C 0.78508 0.22269 0.16039 0.0
C3664 C 0.7844 0.23284 0.14323 0.0
C3665 C 0.78677 0.22361 0.12465 0.0
C3666 C 0.78091 0.25846 0.2048 0.0
C3667 C 0.76854 0.24674 0.21609 0.0
C3668 C 0.78636 0.25076 0.18664 0.0
C3669 C 0.77963 0.23122 0.17958 0.0
C3670 C 0.76705 0.21969 0.19078 0.0
C3671 C 0.76156 0.22734 0.20875 0.0
H3672 H 0.0771 0.53589 0.35703 0.0
H3673 H 0.0608 0.47329 0.34886 0.0
H3674 H 0.06013 0.53671 0.38729 0.0
H3675 H 0.04297 0.47429 0.37834 0.0
H3676 H 0.04445 0.48062 0.44641 0.0
H3677 H 0.0547 0.47987 0.413 0.0
H3678 H 0.02907 0.53148 0.40283 0.0
H3679 H 0.01902 0.53248 0.4369 0.0
C3680 C 0.0697 0.52234 0.36153 0.0
C3681 C 0.07061 0.50449 0.35067 0.0
C3682 C 0.05972 0.52286 0.3787 0.0
C3683 C 0.05039 0.50554 0.38533 0.0
C3684 C 0.0503 0.48786 0.3738 0.0
C3685 C 0.06036 0.48732 0.35674 0.0
C3686 C 0.04084 0.49179 0.43707 0.0
C3687 C 0.03105 0.50672 0.44435 0.0
C3688 C 0.04656 0.49123 0.41778 0.0
C3689 C 0.04263 0.50556 0.40519 0.0
C3690 C 0.0324 0.5203 0.41225 0.0
C3691 C 0.02658 0.52082 0.43168 0.0
H3692 H 0.72423 0.81459 0.62385 0.0
H3693 H 0.78718 0.82489 0.62837 0.0
H3694 H 0.72504 0.79759 0.65417 0.0
H3695 H 0.78793 0.8072 0.65798 0.0
H3696 H 0.78238 0.80065 0.72387 0.0
H3697 H 0.78109 0.81396 0.69185 0.0
H3698 H 0.73347 0.76859 0.66976 0.0
H3699 H 0.73447 0.75532 0.70243 0.0
C3700 C 0.73824 0.81314 0.63119 0.0
C3701 C 0.75564 0.8213 0.62366 0.0
C3702 C 0.73869 0.80315 0.64845 0.0
C3703 C 0.75655 0.80113 0.65864 0.0
C3704 C 0.7739 0.80872 0.65072 0.0
C3705 C 0.77346 0.8187 0.63354 0.0
C3706 C 0.77158 0.79341 0.71227 0.0
C3707 C 0.75843 0.77694 0.71584 0.0
C3708 C 0.77098 0.80099 0.69375 0.0
C3709 C 0.75725 0.79233 0.67812 0.0
C3710 C 0.74415 0.7757 0.68153 0.0
C3711 C 0.7448 0.76802 0.70019 0.0
H3712 H 0.68653 0.46487 0.52472 0.0
H3713 H 0.64939 0.41572 0.54415 0.0
H3714 H 0.65991 0.48395 0.52614 0.0
H3715 H 0.62325 0.43524 0.54645 0.0
H3716 H 0.58418 0.48144 0.56016 0.0
H3717 H 0.61456 0.46764 0.56483 0.0
H3718 H 0.62637 0.47788 0.50438 0.0
H3719 H 0.59599 0.49112 0.49961 0.0
C3720 C 0.67279 0.45812 0.52939 0.0
C3721 C 0.67012 0.43859 0.53406 0.0
C3722 C 0.65764 0.46915 0.5304 0.0
C3723 C 0.6396 0.46106 0.53647 0.0
C3724 C 0.63714 0.44191 0.54202 0.0
C3725 C 0.65217 0.43075 0.5407 0.0
C3726 C 0.59355 0.48114 0.5481 0.0
C3727 C 0.58783 0.48729 0.52954 0.0
C3728 C 0.6108 0.47315 0.5507 0.0
C3729 C 0.62274 0.47171 0.53494 0.0
C3730 C 0.61752 0.47897 0.51681 0.0
C3731 C 0.60014 0.48649 0.51407 0.0
H3732 H 0.16482 0.07825 0.53114 0.0
H3733 H 0.1579 0.06046 0.46801 0.0
H3734 H 0.13161 0.0629 0.53424 0.0
H3735 H 0.12428 0.0454 0.47107 0.0
H3736 H 0.07083 0.00446 0.49048 0.0
H3737 H 0.10477 0.01785 0.48657 0.0
H3738 H 0.09897 0.06967 0.52352 0.0
H3739 H 0.0654 0.0564 0.52756 0.0
C3740 C 0.15627 0.0709 0.51793 0.0
C3741 C 0.16407 0.07054 0.49932 0.0
C3742 C 0.13714 0.06227 0.51968 0.0
C3743 C 0.12526 0.05301 0.50289 0.0
C3744 C 0.13311 0.05232 0.48431 0.0
C3745 C 0.15229 0.06109 0.48252 0.0
C3746 C 0.07684 0.01869 0.49779 0.0
C3747 C 0.06539 0.0293 0.50939 0.0
C3748 C 0.09623 0.02639 0.49545 0.0
C3749 C 0.10459 0.04477 0.50483 0.0
C3750 C 0.09308 0.05535 0.51634 0.0
C3751 C 0.07376 0.04775 0.51857 0.0
H3752 H 0.22313 0.94054 0.79402 0.0
H3753 H 0.17438 0.90543 0.75836 0.0
H3754 H 0.24127 0.91318 0.79182 0.0
H3755 H 0.19301 0.8786 0.75544 0.0
H3756 H 0.23911 0.83983 0.74115 0.0
H3757 H 0.22478 0.86996 0.74099 0.0
H3758 H 0.23578 0.87895 0.80503 0.0
H3759 H 0.24972 0.8488 0.80523 0.0
C3760 C 0.21621 0.92708 0.78572 0.0
C3761 C 0.19713 0.92533 0.77647 0.0
C3762 C 0.22673 0.91146 0.78432 0.0
C3763 C 0.2186 0.89382 0.77335 0.0
C3764 C 0.19978 0.89214 0.76372 0.0
C3765 C 0.18912 0.90762 0.76538 0.0
C3766 C 0.23881 0.84847 0.75512 0.0
C3767 C 0.24551 0.84198 0.7732 0.0
C3768 C 0.23048 0.8656 0.75505 0.0
C3769 C 0.22911 0.87674 0.77301 0.0
C3770 C 0.23675 0.87074 0.79095 0.0
C3771 C 0.24468 0.85346 0.79106 0.0
H3772 H 0.35414 0.94015 0.99183 0.0
H3773 H 0.35807 0.93493 0.05528 0.0
H3774 H 0.38867 0.95421 0.99431 0.0
H3775 H 0.39235 0.94931 0.0578 0.0
H3776 H 0.45684 0.95037 0.04997 0.0
H3777 H 0.42216 0.93801 0.04637 0.0
H3778 H 0.41204 0.98393 0.00924 0.0
H3779 H 0.44702 0.9964 0.01274 0.0
C3780 C 0.36236 0.9421 0.0063 0.0
C3781 C 0.35343 0.93637 0.02335 0.0
C3782 C 0.38205 0.95029 0.00774 0.0
C3783 C 0.3932 0.95273 0.02622 0.0
C3784 C 0.38416 0.94738 0.04331 0.0
C3785 C 0.36448 0.93933 0.04191 0.0
C3786 C 0.44729 0.95784 0.04096 0.0
C3787 C 0.45469 0.97442 0.03169 0.0
C3788 C 0.42739 0.95081 0.03903 0.0
C3789 C 0.41438 0.96012 0.0277 0.0
C3790 C 0.42176 0.97645 0.01802 0.0
C3791 C 0.44175 0.9836 0.02007 0.0
H3792 H 0.8238 0.60595 0.73779 0.0
H3793 H 0.80637 0.59474 0.79644 0.0
H3794 H 0.80556 0.63317 0.73761 0.0
H3795 H 0.78708 0.62097 0.7956 0.0
H3796 H 0.78507 0.68662 0.80099 0.0
H3797 H 0.79593 0.65522 0.7992 0.0
H3798 H 0.77464 0.64524 0.7369 0.0
H3799 H 0.76417 0.67739 0.73861 0.0
C3800 C 0.81592 0.60912 0.75055 0.0
C3801 C 0.81691 0.5983 0.76728 0.0
C3802 C 0.80516 0.62454 0.75029 0.0
C3803 C 0.79499 0.62942 0.76668 0.0
C3804 C 0.79503 0.61786 0.78287 0.0
C3805 C 0.80594 0.60261 0.78323 0.0
C3806 C 0.78244 0.67767 0.78692 0.0
C3807 C 0.77391 0.68456 0.76989 0.0
C3808 C 0.78853 0.65951 0.78594 0.0
C3809 C 0.7862 0.64764 0.76789 0.0
C3810 C 0.77684 0.65413 0.75098 0.0
C3811 C 0.77069 0.67244 0.75199 0.0
H3812 H 0.84025 0.55362 0.0184 0.0
H3813 H 0.87463 0.60588 0.002 0.0
H3814 H 0.86927 0.53756 0.01964 0.0
H3815 H 0.90353 0.59011 0.00379 0.0
H3816 H 0.94523 0.55036 0.98452 0.0
H3817 H 0.91518 0.56401 0.98407 0.0
H3818 H 0.90198 0.53873 0.03881 0.0
H3819 H 0.93234 0.52473 0.03921 0.0
C3820 C 0.85398 0.56168 0.01508 0.0
C3821 C 0.85509 0.58103 0.01003 0.0
C3822 C 0.87062 0.55254 0.01599 0.0
C3823 C 0.88868 0.5625 0.01169 0.0
C3824 C 0.8898 0.58192 0.00692 0.0
C3825 C 0.87325 0.59105 0.00611 0.0
C3826 C 0.93595 0.54758 0.99648 0.0
C3827 C 0.94132 0.53657 0.01202 0.0
C3828 C 0.91872 0.55553 0.99625 0.0
C3829 C 0.90631 0.55274 0.01156 0.0
C3830 C 0.91124 0.54113 0.02678 0.0
C3831 C 0.92862 0.53314 0.02703 0.0
H3832 H 0.21347 0.11501 0.81643 0.0
H3833 H 0.1914 0.11002 0.75444 0.0
H3834 H 0.22913 0.14844 0.81334 0.0
H3835 H 0.20733 0.143 0.75129 0.0
H3836 H 0.21536 0.20911 0.75992 0.0
H3837 H 0.20191 0.17564 0.76401 0.0
H3838 H 0.25579 0.16784 0.79614 0.0
H3839 H 0.26944 0.20173 0.79212 0.0
C3840 C 0.21203 0.121 0.80216 0.0
C3841 C 0.20118 0.10983 0.78569 0.0
C3842 C 0.22115 0.14006 0.80034 0.0
C3843 C 0.21939 0.14839 0.7821 0.0
C3844 C 0.20879 0.13709 0.76561 0.0
C3845 C 0.19982 0.11808 0.76737 0.0
C3846 C 0.22445 0.20034 0.76784 0.0
C3847 C 0.24356 0.20813 0.77559 0.0
C3848 C 0.21672 0.18107 0.77011 0.0
C3849 C 0.22782 0.16902 0.78025 0.0
C3850 C 0.24685 0.17681 0.78831 0.0
C3851 C 0.25469 0.19617 0.78592 0.0
H3852 H 0.32043 0.91589 0.29379 0.0
H3853 H 0.32148 0.91518 0.22986 0.0
H3854 H 0.30601 0.88147 0.29015 0.0
H3855 H 0.30662 0.88104 0.22622 0.0
H3856 H 0.30871 0.81616 0.23102 0.0
H3857 H 0.31933 0.85113 0.23476 0.0
H3858 H 0.27619 0.85789 0.27637 0.0
H3859 H 0.26551 0.82257 0.27274 0.0
C3860 C 0.3174 0.90843 0.27897 0.0
C3861 C 0.32222 0.9182 0.26212 0.0
C3862 C 0.30898 0.8888 0.27688 0.0
C3863 C 0.30535 0.87855 0.25791 0.0
C3864 C 0.30949 0.88852 0.24105 0.0
C3865 C 0.31781 0.90813 0.24312 0.0
C3866 C 0.30143 0.82504 0.24098 0.0
C3867 C 0.28626 0.81659 0.25159 0.0
C3868 C 0.30744 0.84512 0.24299 0.0
C3869 C 0.29848 0.85726 0.25572 0.0
C3870 C 0.28338 0.84885 0.26649 0.0
C3871 C 0.27725 0.82868 0.26436 0.0
H3872 H 0.48017 0.35202 0.58005 0.0
H3873 H 0.5424 0.36062 0.57541 0.0
H3874 H 0.47806 0.38246 0.56501 0.0
H3875 H 0.53994 0.39048 0.5595 0.0
H3876 H 0.5261 0.43821 0.52026 0.0
H3877 H 0.52325 0.4041 0.52808 0.0
H3878 H 0.49318 0.4179 0.57963 0.0
H3879 H 0.49641 0.45191 0.57212 0.0
C3880 C 0.49338 0.36025 0.57572 0.0
C3881 C 0.51152 0.3539 0.57929 0.0
C3882 C 0.49209 0.37758 0.56693 0.0
C3883 C 0.50882 0.38877 0.56111 0.0
C3884 C 0.52677 0.38198 0.56362 0.0
C3885 C 0.52814 0.36481 0.57273 0.0
C3886 C 0.51844 0.43379 0.53294 0.0
C3887 C 0.51149 0.44761 0.54563 0.0
C3888 C 0.51695 0.41436 0.53748 0.0
C3889 C 0.50805 0.40844 0.55447 0.0
C3890 C 0.49997 0.42205 0.56636 0.0
C3891 C 0.50186 0.44149 0.5621 0.0
H3892 H 0.41047 0.7344 0.30335 0.0
H3893 H 0.38885 0.7527 0.35888 0.0
H3894 H 0.37916 0.73726 0.28553 0.0
H3895 H 0.35782 0.75555 0.3412 0.0
H3896 H 0.31544 0.78232 0.30312 0.0
H3897 H 0.3472 0.77798 0.31786 0.0
H3898 H 0.34338 0.72339 0.28183 0.0
H3899 H 0.31133 0.72784 0.26678 0.0
C3900 C 0.39897 0.73879 0.31176 0.0
C3901 C 0.40221 0.7436 0.33248 0.0
C3902 C 0.38109 0.74044 0.30156 0.0
C3903 C 0.36617 0.74694 0.31192 0.0
C3904 C 0.36921 0.75099 0.33272 0.0
C3905 C 0.38699 0.74934 0.34286 0.0
C3906 C 0.32137 0.76942 0.29821 0.0
C3907 C 0.31076 0.7553 0.28396 0.0
C3908 C 0.33955 0.7669 0.30673 0.0
C3909 C 0.34762 0.75016 0.30129 0.0
C3910 C 0.3375 0.73643 0.28632 0.0
C3911 C 0.31918 0.73898 0.27772 0.0
H3912 H 0.03343 0.67884 0.0632 0.0
H3913 H 0.99514 0.65854 0.10721 0.0
H3914 H 0.03502 0.64501 0.05145 0.0
H3915 H 0.99606 0.62511 0.09501 0.0
H3916 H 0.01485 0.56774 0.08458 0.0
H3917 H 0.01882 0.60228 0.09541 0.0
H3918 H 0.01448 0.61572 0.03398 0.0
H3919 H 0.01103 0.58094 0.0231 0.0
C3920 C 0.02533 0.6672 0.07032 0.0
C3921 C 0.0141 0.67141 0.0861 0.0
C3922 C 0.02613 0.64785 0.06349 0.0
C3923 C 0.01582 0.63237 0.07241 0.0
C3924 C 0.00448 0.63666 0.08804 0.0
C3925 C 0.00369 0.65588 0.09483 0.0
C3926 C 0.01505 0.57808 0.07337 0.0
C3927 C 0.01239 0.57165 0.05301 0.0
C3928 C 0.0172 0.59787 0.07957 0.0
C3929 C 0.01651 0.61172 0.06556 0.0
C3930 C 0.01508 0.60541 0.04514 0.0
C3931 C 0.0131 0.58551 0.0389 0.0
H3932 H 0.08973 0.22518 0.82552 0.0
H3933 H 0.10069 0.28807 0.83433 0.0
H3934 H 0.11951 0.22543 0.80898 0.0
H3935 H 0.13112 0.28823 0.8186 0.0
H3936 H 0.17899 0.28167 0.77659 0.0
H3937 H 0.14618 0.28136 0.78748 0.0
H3938 H 0.1535 0.2321 0.82094 0.0
H3939 H 0.18576 0.23214 0.80986 0.0
C3940 C 0.09835 0.2391 0.82372 0.0
C3941 C 0.09283 0.25661 0.83137 0.0
C3942 C 0.11557 0.23922 0.81444 0.0
C3943 C 0.12781 0.25683 0.81268 0.0
C3944 C 0.12197 0.27442 0.81963 0.0
C3945 C 0.10466 0.2743 0.82888 0.0
C3946 C 0.17346 0.27068 0.7861 0.0
C3947 C 0.18498 0.25695 0.79238 0.0
C3948 C 0.15474 0.27057 0.79242 0.0
C3949 C 0.14721 0.25666 0.80502 0.0
C3950 C 0.15869 0.2428 0.81097 0.0
C3951 C 0.1773 0.24293 0.80472 0.0
H3952 H 0.53066 0.69579 0.9805 0.0
H3953 H 0.49549 0.66201 0.93063 0.0
H3954 H 0.53002 0.66648 0.99819 0.0
H3955 H 0.49415 0.63307 0.94886 0.0
H3956 H 0.4846 0.58782 0.99473 0.0
H3957 H 0.48202 0.6195 0.98199 0.0
H3958 H 0.54466 0.63465 0.98946 0.0
H3959 H 0.54726 0.60299 0.00175 0.0
C3960 C 0.52273 0.68221 0.97329 0.0
C3961 C 0.51331 0.68134 0.95397 0.0
C3962 C 0.52224 0.66548 0.98354 0.0
C3963 C 0.512 0.64758 0.97489 0.0
C3964 C 0.50192 0.64678 0.95597 0.0
C3965 C 0.50268 0.66342 0.94556 0.0
C3966 C 0.49775 0.59811 0.99402 0.0
C3967 C 0.51613 0.593 0.99918 0.0
C3968 C 0.49629 0.61613 0.98663 0.0
C3969 C 0.51315 0.62945 0.98473 0.0
C3970 C 0.53143 0.6247 0.99092 0.0
C3971 C 0.53292 0.60658 0.99788 0.0
H3972 H 0.0988 0.77055 0.72582 0.0
H3973 H 0.11129 0.74023 0.67126 0.0
H3974 H 0.13284 0.77253 0.73894 0.0
H3975 H 0.14512 0.74209 0.68434 0.0
H3976 H 0.20628 0.7764 0.70126 0.0
H3977 H 0.17177 0.76921 0.69057 0.0
H3978 H 0.15951 0.75422 0.74971 0.0
H3979 H 0.1944 0.76174 0.76061 0.0
C3980 C 0.10873 0.76401 0.71679 0.0
C3981 C 0.10246 0.75553 0.69739 0.0
C3982 C 0.1282 0.7651 0.72431 0.0
C3983 C 0.14173 0.75769 0.71257 0.0
C3984 C 0.13516 0.74831 0.69359 0.0
C3985 C 0.11579 0.74727 0.68609 0.0
C3986 C 0.1963 0.77144 0.71201 0.0
C3987 C 0.20309 0.7697 0.73181 0.0
C3988 C 0.17648 0.76717 0.70582 0.0
C3989 C 0.16287 0.76107 0.71927 0.0
C3990 C 0.16964 0.75901 0.73904 0.0
C3991 C 0.1896 0.76319 0.74524 0.0
H3992 H 0.02616 0.35588 0.48325 0.0
H3993 H 0.03615 0.3842 0.42943 0.0
H3994 H 0.02398 0.38735 0.50096 0.0
H3995 H 0.03398 0.41551 0.44706 0.0
H3996 H 0.00077 0.46021 0.47553 0.0
H3997 H 0.0066 0.42929 0.46012 0.0
H3998 H 0.04211 0.42061 0.51296 0.0
H3999 H 0.03609 0.45181 0.52868 0.0
C4000 C 0.02824 0.36886 0.47531 0.0
C4001 C 0.03105 0.36753 0.45487 0.0
C4002 C 0.02699 0.38686 0.48545 0.0
C4003 C 0.02853 0.40385 0.47533 0.0
C4004 C 0.0323 0.40261 0.45516 0.0
C4005 C 0.03353 0.38468 0.44506 0.0
C4006 C 0.0098 0.45176 0.48397 0.0
C4007 C 0.01798 0.45852 0.50337 0.0
C4008 C 0.01327 0.43407 0.47503 0.0
C4009 C 0.02499 0.4226 0.48523 0.0
C4010 C 0.03298 0.42914 0.50476 0.0
C4011 C 0.02957 0.447 0.51373 0.0
H4012 H 0.42616 0.26853 0.2231 0.0
H4013 H 0.39294 0.25684 0.16576 0.0
H4014 H 0.39622 0.27158 0.23908 0.0
H4015 H 0.36314 0.25921 0.18153 0.0
H4016 H 0.31324 0.27766 0.20909 0.0
H4017 H 0.34551 0.28119 0.19706 0.0
H4018 H 0.36672 0.25335 0.24764 0.0
H4019 H 0.33447 0.25087 0.26018 0.0
C4020 C 0.41243 0.26652 0.21395 0.0
C4021 C 0.41188 0.2626 0.19317 0.0
C4022 C 0.39528 0.26824 0.22308 0.0
C4023 C 0.37721 0.26589 0.21162 0.0
C4024 C 0.37678 0.26173 0.19085 0.0
C4025 C 0.39387 0.26024 0.18176 0.0
C4026 C 0.32497 0.27276 0.21787 0.0
C4027 C 0.32143 0.26394 0.23548 0.0
C4028 C 0.34342 0.27455 0.21087 0.0
C4029 C 0.35867 0.26705 0.22105 0.0
C4030 C 0.3554 0.25934 0.23941 0.0
C4031 C 0.33694 0.25792 0.24664 0.0
H4032 H 0.59945 0.48682 0.39004 0.0
H4033 H 0.55467 0.51607 0.3637 0.0
H4034 H 0.58295 0.48537 0.42066 0.0
H4035 H 0.53825 0.51477 0.39445 0.0
H4036 H 0.50568 0.49191 0.44767 0.0
H4037 H 0.52059 0.49064 0.41596 0.0
H4038 H 0.57723 0.51042 0.44732 0.0
H4039 H 0.56248 0.51188 0.47878 0.0
C4040 C 0.58597 0.49275 0.39071 0.0
C4041 C 0.5784 0.5016 0.37445 0.0
C4042 C 0.57661 0.49206 0.4083 0.0
C4043 C 0.55933 0.50001 0.40999 0.0
C4044 C 0.55146 0.5084 0.39356 0.0
C4045 C 0.56096 0.5093 0.37602 0.0
C4046 C 0.52132 0.49589 0.44779 0.0
C4047 C 0.53287 0.50191 0.46581 0.0
C4048 C 0.52983 0.49525 0.42963 0.0
C4049 C 0.5501 0.50034 0.42916 0.0
C4050 C 0.56162 0.50616 0.44719 0.0
C4051 C 0.55311 0.50705 0.46525 0.0
H4052 H 0.27691 0.81919 0.10747 0.0
H4053 H 0.21443 0.80371 0.09584 0.0
H4054 H 0.276 0.80072 0.13661 0.0
H4055 H 0.21374 0.78415 0.1241 0.0
H4056 H 0.21678 0.78062 0.19183 0.0
H4057 H 0.21692 0.79211 0.15895 0.0
H4058 H 0.27066 0.76973 0.15045 0.0
H4059 H 0.27084 0.75871 0.18402 0.0
C4060 C 0.263 0.8117 0.11098 0.0
C4061 C 0.2457 0.81327 0.09946 0.0
C4062 C 0.26253 0.8008 0.12752 0.0
C4063 C 0.24477 0.79106 0.13284 0.0
C4064 C 0.22763 0.79175 0.12066 0.0
C4065 C 0.22807 0.8028 0.10426 0.0
C4066 C 0.22854 0.7779 0.1829 0.0
C4067 C 0.24392 0.76893 0.19063 0.0
C4068 C 0.22853 0.78436 0.1639 0.0
C4069 C 0.24384 0.78192 0.15201 0.0
C4070 C 0.25878 0.77208 0.15934 0.0
C4071 C 0.25882 0.76562 0.17849 0.0
H4072 H 0.96042 0.55827 0.87632 0.0
H4073 H 0.94937 0.49555 0.8652 0.0
H4074 H 0.97822 0.55518 0.9084 0.0
H4075 H 0.96743 0.49256 0.89674 0.0
H4076 H 0.97346 0.49539 0.9647 0.0
H4077 H 0.95947 0.49954 0.93164 0.0
H4078 H 0.00884 0.54281 0.92386 0.0
H4079 H 0.02307 0.53872 0.95741 0.0
C4080 C 0.96192 0.54388 0.88065 0.0
C4081 C 0.95347 0.52716 0.86825 0.0
C4082 C 0.97226 0.54213 0.89887 0.0
C4083 C 0.97413 0.52363 0.90504 0.0
C4084 C 0.96609 0.50699 0.89241 0.0
C4085 C 0.95588 0.50873 0.87426 0.0
C4086 C 0.98147 0.50575 0.95599 0.0
C4087 C 0.99943 0.51669 0.96367 0.0
C4088 C 0.97346 0.50804 0.93698 0.0
C4089 C 0.98312 0.52141 0.92515 0.0
C4090 C 0.00108 0.53245 0.93274 0.0
C4091 C 0.00926 0.53001 0.95183 0.0
H4092 H 0.23247 0.17079 0.60802 0.0
H4093 H 0.28434 0.21135 0.60122 0.0
H4094 H 0.23221 0.18471 0.6422 0.0
H4095 H 0.28371 0.22555 0.6353 0.0
H4096 H 0.2686 0.25471 0.69431 0.0
H4097 H 0.26405 0.24381 0.65863 0.0
H4098 H 0.2548 0.18395 0.67285 0.0
H4099 H 0.25942 0.19475 0.70828 0.0
C4100 C 0.24379 0.18271 0.61375 0.0
C4101 C 0.25861 0.18973 0.6019 0.0
C4102 C 0.24356 0.19074 0.63332 0.0
C4103 C 0.25801 0.20613 0.64147 0.0
C4104 C 0.27227 0.21382 0.62937 0.0
C4105 C 0.27261 0.20567 0.60981 0.0
C4106 C 0.26528 0.23924 0.68977 0.0
C4107 C 0.26442 0.22557 0.70408 0.0
C4108 C 0.26282 0.23302 0.66938 0.0
C4109 C 0.25911 0.21304 0.66296 0.0
C4110 C 0.25747 0.19945 0.67732 0.0
C4111 C 0.26021 0.20564 0.69762 0.0
H4112 H 0.61047 0.50193 0.16763 0.0
H4113 H 0.55683 0.51614 0.18842 0.0
H4114 H 0.59714 0.50172 0.13333 0.0
H4115 H 0.54354 0.51686 0.1539 0.0
H4116 H 0.5201 0.49628 0.0883 0.0
H4117 H 0.53165 0.49821 0.12359 0.0
H4118 H 0.58936 0.52233 0.10955 0.0
H4119 H 0.57798 0.51932 0.07437 0.0
C4120 C 0.59584 0.50522 0.16479 0.0
C4121 C 0.58473 0.50917 0.18065 0.0
C4122 C 0.5882 0.50527 0.1451 0.0
C4123 C 0.56932 0.50962 0.14069 0.0
C4124 C 0.55807 0.51331 0.15664 0.0
C4125 C 0.56566 0.51296 0.17642 0.0
C4126 C 0.53518 0.50222 0.09288 0.0
C4127 C 0.5482 0.50748 0.07862 0.0
C4128 C 0.54183 0.50337 0.11312 0.0
C4129 C 0.56158 0.51008 0.11951 0.0
C4130 C 0.57423 0.51646 0.10522 0.0
C4131 C 0.56767 0.51495 0.08504 0.0
H4132 H 0.2407 0.79321 0.92573 0.0
H4133 H 0.23811 0.84723 0.89888 0.0
H4134 H 0.24468 0.7771 0.89316 0.0
H4135 H 0.24145 0.83101 0.8664 0.0
H4136 H 0.27652 0.80494 0.82043 0.0
H4137 H 0.2695 0.81851 0.8527 0.0
H4138 H 0.22844 0.7668 0.8585 0.0
H4139 H 0.23553 0.75298 0.82583 0.0
C4140 C 0.24075 0.80158 0.91285 0.0
C4141 C 0.23927 0.82154 0.91491 0.0
C4142 C 0.24286 0.79231 0.89421 0.0
C4143 C 0.24362 0.80286 0.87731 0.0
C4144 C 0.24122 0.82258 0.87924 0.0
C4145 C 0.23908 0.83182 0.89781 0.0
C4146 C 0.26598 0.79637 0.82851 0.0
C4147 C 0.25642 0.77794 0.82044 0.0
C4148 C 0.26188 0.80424 0.84699 0.0
C4149 C 0.24817 0.79387 0.85796 0.0
C4150 C 0.23905 0.77512 0.85031 0.0
C4151 C 0.24311 0.76723 0.83165 0.0
H4152 H 0.92511 0.51053 0.66277 0.0
H4153 H 0.97534 0.52682 0.70559 0.0
H4154 H 0.94648 0.50594 0.63653 0.0
H4155 H 0.99677 0.52256 0.6791 0.0
H4156 H 0.02337 0.53727 0.61847 0.0
H4157 H 0.00553 0.53857 0.64815 0.0
H4158 H 0.96983 0.48381 0.62671 0.0
H4159 H 0.98748 0.48251 0.59701 0.0
C4160 C 0.9407 0.51297 0.66663 0.0
C4161 C 0.9485 0.51902 0.68629 0.0
C4162 C 0.95295 0.51031 0.65159 0.0
C4163 C 0.97329 0.51372 0.65582 0.0
C4164 C 0.98115 0.51991 0.67542 0.0
C4165 C 0.96887 0.52245 0.69053 0.0
C4166 C 0.01201 0.52529 0.62029 0.0
C4167 C 0.00666 0.50993 0.60524 0.0
C4168 C 0.00181 0.52604 0.63731 0.0
C4169 C 0.98608 0.51146 0.63953 0.0
C4170 C 0.98165 0.49544 0.62516 0.0
C4171 C 0.99187 0.49465 0.60822 0.0
H4172 H 0.2863 0.17443 0.39436 0.0
H4173 H 0.25932 0.21971 0.42317 0.0
H4174 H 0.28804 0.19199 0.36455 0.0
H4175 H 0.26057 0.23705 0.39303 0.0
H4176 H 0.28165 0.2708 0.34017 0.0
H4177 H 0.28324 0.25504 0.37141 0.0
H4178 H 0.26446 0.19894 0.33853 0.0
H4179 H 0.26303 0.21449 0.3076 0.0
C4180 C 0.28089 0.18822 0.39442 0.0
C4181 C 0.27263 0.19561 0.4112 0.0
C4182 C 0.28171 0.19821 0.37723 0.0
C4183 C 0.27435 0.21589 0.37634 0.0
C4184 C 0.26649 0.22354 0.39326 0.0
C4185 C 0.26557 0.21348 0.41045 0.0
C4186 C 0.27802 0.2551 0.33965 0.0
C4187 C 0.2722 0.24393 0.32138 0.0
C4188 C 0.2788 0.24609 0.35754 0.0
C4189 C 0.27401 0.22571 0.35748 0.0
C4190 C 0.26849 0.21461 0.33914 0.0
C4191 C 0.26754 0.22358 0.32138 0.0
H4192 H 0.37653 0.59337 0.50238 0.0
H4193 H 0.33417 0.54145 0.50275 0.0
H4194 H 0.40189 0.57338 0.49756 0.0
H4195 H 0.35964 0.52137 0.49795 0.0
H4196 H 0.4164 0.49719 0.51859 0.0
H4197 H 0.38815 0.51401 0.5174 0.0
H4198 H 0.4135 0.55038 0.47415 0.0
H4199 H 0.44197 0.53382 0.4756 0.0
C4200 C 0.37255 0.57768 0.5011 0.0
C4201 C 0.35331 0.56903 0.50301 0.0
C4202 C 0.38711 0.56619 0.4983 0.0
C4203 C 0.3828 0.54575 0.49732 0.0
C4204 C 0.36349 0.53707 0.49886 0.0
C4205 C 0.34891 0.54858 0.50166 0.0
C4206 C 0.41581 0.50851 0.50852 0.0
C4207 C 0.43157 0.5143 0.49738 0.0
C4208 C 0.39955 0.51813 0.5078 0.0
C4209 C 0.39869 0.53374 0.4959 0.0
C4210 C 0.4139 0.53868 0.48379 0.0
C4211 C 0.43015 0.52908 0.48451 0.0
H4212 H 0.86161 0.96851 0.56261 0.0
H4213 H 0.8638 0.93284 0.50785 0.0
H4214 H 0.89507 0.98416 0.56009 0.0
H4215 H 0.89645 0.94915 0.50476 0.0
H4216 H 0.9612 0.96425 0.51512 0.0
H4217 H 0.92826 0.94986 0.51976 0.0
H4218 H 0.91563 0.00624 0.54132 0.0
H4219 H 0.94925 0.02068 0.53737 0.0
C4220 C 0.86915 0.96403 0.55003 0.0
C4221 C 0.8599 0.9494 0.53543 0.0
C4222 C 0.88826 0.97318 0.54845 0.0
C4223 C 0.89855 0.96788 0.53227 0.0
C4224 C 0.88916 0.95343 0.51761 0.0
C4225 C 0.87022 0.94425 0.51924 0.0
C4226 C 0.9515 0.97367 0.52092 0.0
C4227 C 0.95792 0.99368 0.5258 0.0
C4228 C 0.93247 0.96539 0.52345 0.0
C4229 C 0.91912 0.97689 0.53067 0.0
C4230 C 0.92555 0.99691 0.53584 0.0
C4231 C 0.94477 0.00522 0.53347 0.0
H4232 H 0.79962 0.08443 0.26424 0.0
H4233 H 0.85032 0.11979 0.24574 0.0
H4234 H 0.78295 0.11299 0.26635 0.0
H4235 H 0.83367 0.14805 0.24765 0.0
H4236 H 0.79287 0.18931 0.23111 0.0
H4237 H 0.80638 0.15913 0.2293 0.0
H4238 H 0.7843 0.14565 0.28548 0.0
H4239 H 0.77044 0.1761 0.28723 0.0
C4240 C 0.80726 0.09828 0.26074 0.0
C4241 C 0.82627 0.09972 0.25459 0.0
C4242 C 0.79769 0.11463 0.26195 0.0
C4243 C 0.80689 0.13275 0.25696 0.0
C4244 C 0.82598 0.13422 0.25116 0.0
C4245 C 0.83553 0.11797 0.25001 0.0
C4246 C 0.79073 0.17989 0.24306 0.0
C4247 C 0.78076 0.18523 0.25944 0.0
C4248 C 0.79858 0.1626 0.24205 0.0
C4249 C 0.79675 0.15014 0.25742 0.0
C4250 C 0.78595 0.15495 0.27339 0.0
C4251 C 0.77802 0.17237 0.2744 0.0
H4252 H 0.67674 0.05878 0.01409 0.0
H4253 H 0.66118 0.11547 0.02951 0.0
H4254 H 0.64229 0.04466 0.01026 0.0
H4255 H 0.62693 0.10124 0.02652 0.0
H4256 H 0.57852 0.02338 0.02067 0.0
H4257 H 0.61297 0.03706 0.02832 0.0
H4258 H 0.60338 0.0881 0.99874 0.0
H4259 H 0.56916 0.07472 0.99145 0.0
C4260 C 0.66599 0.06819 0.0168 0.0
C4261 C 0.67172 0.08827 0.02198 0.0
C4262 C 0.64628 0.06006 0.01484 0.0
C4263 C 0.63188 0.07186 0.01799 0.0
C4264 C 0.63766 0.09181 0.02374 0.0
C4265 C 0.65732 0.09993 0.02569 0.0
C4266 C 0.58379 0.03758 0.01595 0.0
C4267 C 0.57113 0.04796 0.00545 0.0
C4268 C 0.60351 0.04535 0.02023 0.0
C4269 C 0.61088 0.06368 0.01418 0.0
C4270 C 0.59812 0.07409 0.0039 0.0
C4271 C 0.5785 0.06633 0.99959 0.0
H4272 H 0.17831 0.39665 0.28355 0.0
H4273 H 0.22854 0.44049 0.28033 0.0
H4274 H 0.19963 0.37246 0.28866 0.0
H4275 H 0.24991 0.41614 0.28528 0.0
H4276 H 0.27519 0.35947 0.26538 0.0
H4277 H 0.25747 0.38712 0.26614 0.0
H4278 H 0.22428 0.3632 0.31245 0.0
H4279 H 0.24177 0.3354 0.31152 0.0
C4280 C 0.19391 0.40121 0.28422 0.0
C4281 C 0.20169 0.42051 0.28145 0.0
C4282 C 0.20616 0.38733 0.28719 0.0
C4283 C 0.22648 0.39239 0.28743 0.0
C4284 C 0.2343 0.41175 0.28496 0.0
C4285 C 0.22205 0.42566 0.28205 0.0
C4286 C 0.26442 0.3603 0.27604 0.0
C4287 C 0.25973 0.34508 0.2882 0.0
C4288 C 0.25427 0.37619 0.2765 0.0
C4289 C 0.23924 0.37719 0.28913 0.0
C4290 C 0.2355 0.36264 0.30226 0.0
C4291 C 0.24565 0.34678 0.30182 0.0
H4292 H 0.16545 0.43338 0.99548 0.0
H4293 H 0.18685 0.46501 0.05224 0.0
H4294 H 0.13711 0.45034 0.99437 0.0
H4295 H 0.15878 0.48221 0.05092 0.0
H4296 H 0.09264 0.48353 0.05418 0.0
H4297 H 0.1237 0.47159 0.05381 0.0
H4298 H 0.12638 0.48322 0.99211 0.0
H4299 H 0.095 0.49525 0.99247 0.0
C4300 C 0.16417 0.44404 0.00764 0.0
C4301 C 0.17834 0.44774 0.02402 0.0
C4302 C 0.14806 0.45392 0.00689 0.0
C4303 C 0.14568 0.46758 0.02258 0.0
C4304 C 0.16012 0.47166 0.03867 0.0
C4305 C 0.17629 0.4619 0.03935 0.0
C4306 C 0.09994 0.48378 0.04057 0.0
C4307 C 0.09135 0.49029 0.02333 0.0
C4308 C 0.11782 0.47703 0.0404 0.0
C4309 C 0.12751 0.47643 0.02293 0.0
C4310 C 0.11918 0.48339 0.00576 0.0
C4311 C 0.10132 0.49041 0.00601 0.0
H4312 H 0.82706 0.90349 0.21706 0.0
H4313 H 0.80665 0.92122 0.27333 0.0
H4314 H 0.80936 0.87052 0.21835 0.0
H4315 H 0.7887 0.88835 0.27446 0.0
H4316 H 0.74621 0.82962 0.25866 0.0
H4317 H 0.76015 0.8633 0.25387 0.0
H4318 H 0.81525 0.8447 0.24378 0.0
H4319 H 0.80162 0.81136 0.24898 0.0
C4320 C 0.8185 0.9004 0.22949 0.0
C4321 C 0.81826 0.91483 0.24513 0.0
C4322 C 0.80846 0.88157 0.23028 0.0
C4323 C 0.79769 0.87692 0.24651 0.0
C4324 C 0.79678 0.89158 0.26172 0.0
C4325 C 0.80712 0.91031 0.26113 0.0
C4326 C 0.76124 0.83275 0.25526 0.0
C4327 C 0.77283 0.81787 0.25424 0.0
C4328 C 0.76921 0.85198 0.2526 0.0
C4329 C 0.78874 0.85653 0.24837 0.0
C4330 C 0.80012 0.84156 0.24683 0.0
C4331 C 0.79232 0.82249 0.24992 0.0
H4332 H 0.71805 0.09674 0.78095 0.0
H4333 H 0.66176 0.10862 0.75824 0.0
H4334 H 0.73057 0.13164 0.78397 0.0
H4335 H 0.67423 0.14332 0.7611 0.0
H4336 H 0.69518 0.20313 0.79422 0.0
H4337 H 0.68396 0.16833 0.7884 0.0
H4338 H 0.73852 0.16024 0.76501 0.0
H4339 H 0.74999 0.19525 0.77122 0.0
C4340 C 0.70845 0.10679 0.77637 0.0
C4341 C 0.68887 0.1 0.76962 0.0
C4342 C 0.71561 0.12675 0.77806 0.0
C4343 C 0.70333 0.14025 0.77296 0.0
C4344 C 0.68395 0.13334 0.76556 0.0
C4345 C 0.6768 0.11346 0.76393 0.0
C4346 C 0.70479 0.19399 0.78775 0.0
C4347 C 0.72348 0.20196 0.78319 0.0
C4348 C 0.69831 0.17402 0.7843 0.0
C4349 C 0.71032 0.16152 0.77616 0.0
C4350 C 0.729 0.16948 0.77146 0.0
C4351 C 0.73551 0.18953 0.77491 0.0
loop_
_geom_bond_atom_site_label_1
_geom_bond_atom_site_label_2
_geom_bond_distance
_geom_bond_site_symmetry_2
_ccdc_geom_bond_type
Li0 N17 1.990 . S
Li0 O60 1.956 1_655 S
Li0 O61 1.970 . S
Li0 O62 1.961 1_655 S
Li1 N25 1.990 . S
Li1 O60 1.970 . S
Li1 O61 1.956 1_455 S
Li1 O63 1.961 . S
Li2 N47 1.990 . S
Li2 O60 1.961 . S
Li2 O62 1.956 . S
Li2 O63 1.970 . S
Li3 N53 1.990 . S
Li3 O61 1.961 1_455 S
Li3 O62 1.970 . S
Li3 O63 1.956 . S
C4 C6 1.348 . S
C4 C7 1.356 . S
C4 O60 1.325 . S
N5 C8 1.314 . S
N5 C9 1.279 . S
C6 C4 1.348 . S
C6 C8 1.353 . S
C6 H64 0.929 . S
C7 C4 1.356 . S
C7 C9 1.358 . S
C7 H65 0.930 . S
C8 N5 1.314 . S
C8 C6 1.353 . S
C8 H66 0.930 . S
C9 N5 1.279 . S
C9 C7 1.358 . S
C9 H67 0.930 . S
C10 C13 1.348 . S
C10 C14 1.356 . S
C10 O61 1.325 . S
C11 N12 1.279 . S
C11 C14 1.358 . S
C11 H68 0.930 . S
N12 C11 1.279 . S
N12 C15 1.314 . S
C13 C10 1.348 . S
C13 C15 1.353 . S
C13 H69 0.929 . S
C14 C10 1.356 . S
C14 C11 1.358 . S
C14 H70 0.930 . S
C15 N12 1.314 . S
C15 C13 1.353 . S
C15 H71 0.930 . S
C16 N17 1.314 . S
C16 C21 1.353 . S
C16 H22 0.930 . S
N17 Li0 1.990 . S
N17 C16 1.314 . S
N17 C19 1.279 . S
C18 C19 1.358 . S
C18 C20 1.356 . S
C18 H72 0.930 . S
C19 N17 1.279 . S
C19 C18 1.358 . S
C19 H23 0.930 . S
C20 C18 1.356 . S
C20 C21 1.348 . S
C21 C16 1.353 . S
C21 C20 1.348 . S
C21 H73 0.929 . S
H22 C16 0.930 . S
H23 C19 0.930 . S
C24 N25 1.314 . S
C24 C26 1.353 . S
C24 H30 0.930 . S
N25 Li1 1.990 . S
N25 C24 1.314 . S
N25 C28 1.279 . S
C26 C24 1.353 . S
C26 C29 1.348 . S
C26 H74 0.929 . S
C27 C28 1.358 . S
C27 C29 1.356 . S
C27 H75 0.930 1_455 S
C28 N25 1.279 . S
C28 C27 1.358 . S
C28 H31 0.930 1_455 S
C29 C26 1.348 . S
C29 C27 1.356 . S
H30 C24 0.930 . S
H31 C28 0.930 1_655 S
C32 C34 1.348 . S
C32 C35 1.356 . S
C32 O62 1.325 . S
N33 C36 1.314 . S
N33 C37 1.279 . S
C34 C32 1.348 . S
C34 C36 1.353 . S
C34 H76 0.929 . S
C35 C32 1.356 . S
C35 C37 1.358 . S
C35 H77 0.930 . S
C36 N33 1.314 . S
C36 C34 1.353 . S
C36 H78 0.930 . S
C37 N33 1.279 . S
C37 C35 1.358 . S
C37 H79 0.930 . S
C38 C39 1.348 . S
C38 C40 1.356 . S
C38 O63 1.325 . S
C39 C38 1.348 . S
C39 C41 1.353 . S
C39 H80 0.929 . S
C40 C38 1.356 . S
C40 C42 1.358 . S
C40 H81 0.930 . S
C41 C39 1.353 . S
C41 N43 1.314 . S
C41 H82 0.930 . S
C42 C40 1.358 . S
C42 N43 1.279 . S
C42 H83 0.930 . S
N43 C41 1.314 . S
N43 C42 1.279 . S
C44 C46 1.353 . S
C44 N47 1.314 . S
C44 H50 0.930 . S
C45 N47 1.279 . S
C45 C48 1.358 . S
C45 H51 0.930 . S
C46 C44 1.353 . S
C46 C49 1.348 . S
C46 H84 0.929 . S
N47 Li2 1.990 . S
N47 C44 1.314 . S
N47 C45 1.279 . S
C48 C45 1.358 . S
C48 C49 1.356 . S
C48 H85 0.930 . S
C49 C46 1.348 . S
C49 C48 1.356 . S
H50 C44 0.930 . S
H51 C45 0.930 . S
C52 N53 1.346 . S
C52 C54 1.353 1_455 S
C52 H58 0.896 1_455 S
N53 Li3 1.990 . S
N53 C52 1.346 . S
N53 C56 1.279 . S
C54 C52 1.353 1_655 S
C54 C57 1.348 1_655 S
C54 H86 0.929 . S
C55 C56 1.358 . S
C55 C57 1.356 . S
C55 H87 0.930 . S
C56 N53 1.279 . S
C56 C55 1.358 . S
C56 H59 0.930 . S
C57 C54 1.348 1_455 S
C57 C55 1.356 . S
H58 C52 0.896 1_655 S
H59 C56 0.930 . S
O60 Li0 1.956 1_455 S
O60 Li1 1.970 . S
O60 Li2 1.961 . S
O60 C4 1.325 . S
O61 Li0 1.970 . S
O61 Li1 1.956 1_655 S
O61 Li3 1.961 1_655 S
O61 C10 1.325 . S
O62 Li0 1.961 1_455 S
O62 Li2 1.956 . S
O62 Li3 1.970 . S
O62 C32 1.325 . S
O63 Li1 1.961 . S
O63 Li2 1.970 . S
O63 Li3 1.956 . S
O63 C38 1.325 . S
H64 C6 0.929 . S
H65 C7 0.930 . S
H66 C8 0.930 . S
H67 C9 0.930 . S
H68 C11 0.930 . S
H69 C13 0.929 . S
H70 C14 0.930 . S
H71 C15 0.930 . S
H72 C18 0.930 . S
H73 C21 0.929 . S
H74 C26 0.929 . S
H75 C27 0.930 1_655 S
H76 C34 0.929 . S
H77 C35 0.930 . S
H78 C36 0.930 . S
H79 C37 0.930 . S
H80 C39 0.929 . S
H81 C40 0.930 . S
H82 C41 0.930 . S
H83 C42 0.930 . S
H84 C46 0.929 . S
H85 C48 0.930 . S
H86 C54 0.929 . S
H87 C55 0.930 . S
Li88 N105 1.990 . S
Li88 O148 1.956 . S
Li88 O149 1.970 . S
Li88 O150 1.961 1_455 S
Li89 N113 1.990 . S
Li89 O148 1.970 . S
Li89 O149 1.956 . S
Li89 O151 1.961 . S
Li90 N135 1.995 1_455 S
Li90 O148 1.961 . S
Li90 O150 1.956 1_455 S
Li90 O151 1.970 . S
Li91 N141 1.990 . S
Li91 O149 1.961 1_655 S
Li91 O150 1.970 . S
Li91 O151 1.956 1_655 S
C92 C94 1.348 . S
C92 C95 1.356 . S
C92 O148 1.325 . S
N93 C96 1.314 . S
N93 C97 1.279 . S
C94 C92 1.348 . S
C94 C96 1.353 . S
C94 H152 0.929 . S
C95 C92 1.356 . S
C95 C97 1.358 . S
C95 H153 0.930 . S
C96 N93 1.314 . S
C96 C94 1.353 . S
C96 H154 0.930 . S
C97 N93 1.279 . S
C97 C95 1.358 . S
C97 H155 0.930 . S
C98 C101 1.348 . S
C98 C102 1.356 . S
C98 O149 1.325 . S
C99 N100 1.279 . S
C99 C102 1.358 . S
C99 H156 0.930 . S
N100 C99 1.279 . S
N100 C103 1.314 . S
C101 C98 1.348 . S
C101 C103 1.353 . S
C101 H157 0.929 . S
C102 C98 1.356 . S
C102 C99 1.358 . S
C102 H158 0.930 . S
C103 N100 1.314 . S
C103 C101 1.353 . S
C103 H159 0.930 . S
C104 N105 1.314 1_655 S
C104 C109 1.353 . S
C104 H110 0.930 . S
N105 Li88 1.990 . S
N105 C104 1.314 1_455 S
N105 C107 1.279 . S
C106 C107 1.358 . S
C106 C108 1.356 . S
C106 H160 0.930 . S
C107 N105 1.279 . S
C107 C106 1.358 . S
C107 H111 0.930 . S
C108 C106 1.356 . S
C108 C109 1.348 1_455 S
C109 C104 1.353 . S
C109 C108 1.348 1_655 S
C109 H161 0.929 . S
H110 C104 0.930 . S
H111 C107 0.930 . S
C112 N113 1.314 . S
C112 C114 1.353 . S
C112 H118 0.930 . S
N113 Li89 1.990 . S
N113 C112 1.314 . S
N113 C116 1.279 . S
C114 C112 1.353 . S
C114 C117 1.348 . S
C114 H162 0.929 . S
C115 C116 1.358 . S
C115 C117 1.356 . S
C115 H163 0.930 . S
C116 N113 1.279 . S
C116 C115 1.358 . S
C116 H119 0.930 . S
C117 C114 1.348 . S
C117 C115 1.356 . S
H118 C112 0.930 . S
H119 C116 0.930 . S
C120 C122 1.348 . S
C120 C123 1.356 . S
C120 O150 1.325 . S
N121 C124 1.314 . S
N121 C125 1.279 . S
C122 C120 1.348 . S
C122 C124 1.353 . S
C122 H164 0.929 . S
C123 C120 1.356 . S
C123 C125 1.358 . S
C123 H165 0.930 . S
C124 N121 1.314 . S
C124 C122 1.353 . S
C124 H166 0.930 . S
C125 N121 1.279 . S
C125 C123 1.358 . S
C125 H167 0.930 . S
C126 C127 1.348 1_455 S
C126 C128 1.356 . S
C126 O151 1.325 . S
C127 C126 1.348 1_655 S
C127 C129 1.353 . S
C127 H168 0.929 . S
C128 C126 1.356 . S
C128 C130 1.358 . S
C128 H169 0.930 . S
C129 C127 1.353 . S
C129 N131 1.304 1_655 S
C129 H170 0.930 . S
C130 C128 1.358 . S
C130 N131 1.291 . S
C130 H171 0.930 . S
N131 C129 1.304 1_455 S
N131 C130 1.291 . S
C132 C134 1.353 . S
C132 N135 1.267 1_455 S
C132 H138 0.930 . S
C133 N135 1.322 . S
C133 C136 1.358 . S
C133 H139 0.930 . S
C134 C132 1.353 . S
C134 C137 1.348 1_455 S
C134 H172 0.929 . S
N135 Li90 1.995 1_655 S
N135 C132 1.267 1_655 S
N135 C133 1.322 . S
C136 C133 1.358 . S
C136 C137 1.356 . S
C136 H173 0.930 . S
C137 C134 1.348 1_655 S
C137 C136 1.356 . S
H138 C132 0.930 . S
H139 C133 0.930 . S
C140 N141 1.314 . S
C140 C142 1.353 . S
C140 H146 0.930 . S
N141 Li91 1.990 . S
N141 C140 1.314 . S
N141 C144 1.279 . S
C142 C140 1.353 . S
C142 C145 1.348 . S
C142 H174 0.929 . S
C143 C144 1.358 . S
C143 C145 1.356 . S
C143 H175 0.930 . S
C144 N141 1.279 . S
C144 C143 1.358 . S
C144 H147 0.930 . S
C145 C142 1.348 . S
C145 C143 1.356 . S
H146 C140 0.930 . S
H147 C144 0.930 . S
O148 Li88 1.956 . S
O148 Li89 1.970 . S
O148 Li90 1.961 . S
O148 C92 1.325 . S
O149 Li88 1.970 . S
O149 Li89 1.956 . S
O149 Li91 1.961 1_455 S
O149 C98 1.325 . S
O150 Li88 1.961 1_655 S
O150 Li90 1.956 1_655 S
O150 Li91 1.970 . S
O150 C120 1.325 . S
O151 Li89 1.961 . S
O151 Li90 1.970 . S
O151 Li91 1.956 1_455 S
O151 C126 1.325 . S
H152 C94 0.929 . S
H153 C95 0.930 . S
H154 C96 0.930 . S
H155 C97 0.930 . S
H156 C99 0.930 . S
H157 C101 0.929 . S
H158 C102 0.930 . S
H159 C103 0.930 . S
H160 C106 0.930 . S
H161 C109 0.929 . S
H162 C114 0.929 . S
H163 C115 0.930 . S
H164 C122 0.929 . S
H165 C123 0.930 . S
H166 C124 0.930 . S
H167 C125 0.930 . S
H168 C127 0.929 . S
H169 C128 0.930 . S
H170 C129 0.930 . S
H171 C130 0.930 . S
H172 C134 0.929 . S
H173 C136 0.930 . S
H174 C142 0.929 . S
H175 C143 0.930 . S
Li176 N193 1.990 . S
Li176 O236 1.956 . S
Li176 O237 1.970 . S
Li176 O238 1.961 . S
Li177 N201 1.990 . S
Li177 O236 1.970 . S
Li177 O237 1.956 . S
Li177 O239 1.961 . S
Li178 N223 1.990 . S
Li178 O236 1.961 . S
Li178 O238 1.956 . S
Li178 O239 1.970 . S
Li179 N229 1.990 . S
Li179 O237 1.961 . S
Li179 O238 1.970 . S
Li179 O239 1.956 . S
C180 C182 1.348 . S
C180 C183 1.356 . S
C180 O236 1.325 . S
N181 C184 1.314 . S
N181 C185 1.279 . S
C182 C180 1.348 . S
C182 C184 1.353 . S
C182 H240 0.929 . S
C183 C180 1.356 . S
C183 C185 1.358 . S
C183 H241 0.930 . S
C184 N181 1.314 . S
C184 C182 1.353 . S
C184 H242 0.930 . S
C185 N181 1.279 . S
C185 C183 1.358 . S
C185 H243 0.930 . S
C186 C189 1.348 . S
C186 C190 1.356 . S
C186 O237 1.325 . S
C187 N188 1.279 . S
C187 C190 1.358 . S
C187 H244 0.930 . S
N188 C187 1.279 . S
N188 C191 1.314 . S
C189 C186 1.348 . S
C189 C191 1.353 . S
C189 H245 0.929 . S
C190 C186 1.356 . S
C190 C187 1.358 . S
C190 H246 0.930 . S
C191 N188 1.314 . S
C191 C189 1.353 . S
C191 H247 0.930 . S
C192 N193 1.314 . S
C192 C197 1.353 . S
C192 H198 0.930 . S
N193 Li176 1.990 . S
N193 C192 1.314 . S
N193 C195 1.279 . S
C194 C195 1.358 . S
C194 C196 1.356 . S
C194 H248 0.930 . S
C195 N193 1.279 . S
C195 C194 1.358 . S
C195 H199 0.930 . S
C196 C194 1.356 . S
C196 C197 1.348 . S
C197 C192 1.353 . S
C197 C196 1.348 . S
C197 H249 0.929 . S
H198 C192 0.930 . S
H199 C195 0.930 . S
C200 N201 1.314 . S
C200 C202 1.353 . S
C200 H206 0.930 . S
N201 Li177 1.990 . S
N201 C200 1.314 . S
N201 C204 1.279 . S
C202 C200 1.353 . S
C202 C205 1.348 . S
C202 H250 0.929 . S
C203 C204 1.358 . S
C203 C205 1.356 . S
C203 H251 0.930 . S
C204 N201 1.279 . S
C204 C203 1.358 . S
C204 H207 0.930 . S
C205 C202 1.348 . S
C205 C203 1.356 . S
H206 C200 0.930 . S
H207 C204 0.930 . S
C208 C210 1.348 . S
C208 C211 1.356 . S
C208 O238 1.325 . S
N209 C212 1.314 . S
N209 C213 1.279 . S
C210 C208 1.348 . S
C210 C212 1.353 . S
C210 H252 0.929 . S
C211 C208 1.356 . S
C211 C213 1.358 . S
C211 H253 0.930 . S
C212 N209 1.314 . S
C212 C210 1.353 . S
C212 H254 0.930 . S
C213 N209 1.279 . S
C213 C211 1.358 . S
C213 H255 0.930 . S
C214 C215 1.348 . S
C214 C216 1.356 . S
C214 O239 1.325 . S
C215 C214 1.348 . S
C215 C217 1.353 . S
C215 H256 0.929 . S
C216 C214 1.356 . S
C216 C218 1.358 . S
C216 H257 0.930 . S
C217 C215 1.353 . S
C217 N219 1.314 . S
C217 H258 0.930 . S
C218 C216 1.358 . S
C218 N219 1.279 . S
C218 H259 0.930 . S
N219 C217 1.314 . S
N219 C218 1.279 . S
C220 C222 1.353 . S
C220 N223 1.314 . S
C220 H226 0.930 . S
C221 N223 1.279 . S
C221 C224 1.358 . S
C221 H227 0.930 . S
C222 C220 1.353 . S
C222 C225 1.348 . S
C222 H260 0.929 . S
N223 Li178 1.990 . S
N223 C220 1.314 . S
N223 C221 1.279 . S
C224 C221 1.358 . S
C224 C225 1.356 . S
C224 H261 0.930 . S
C225 C222 1.348 . S
C225 C224 1.356 . S
H226 C220 0.930 . S
H227 C221 0.930 . S
C228 N229 1.314 . S
C228 C230 1.353 . S
C228 H234 0.930 . S
N229 Li179 1.990 . S
N229 C228 1.314 . S
N229 C232 1.279 . S
C230 C228 1.353 . S
C230 C233 1.348 . S
C230 H262 0.929 . S
C231 C232 1.358 . S
C231 C233 1.356 . S
C231 H263 0.930 . S
C232 N229 1.279 . S
C232 C231 1.358 . S
C232 H235 0.930 . S
C233 C230 1.348 . S
C233 C231 1.356 . S
H234 C228 0.930 . S
H235 C232 0.930 . S
O236 Li176 1.956 . S
O236 Li177 1.970 . S
O236 Li178 1.961 . S
O236 C180 1.325 . S
O237 Li176 1.970 . S
O237 Li177 1.956 . S
O237 Li179 1.961 . S
O237 C186 1.325 . S
O238 Li176 1.961 . S
O238 Li178 1.956 . S
O238 Li179 1.970 . S
O238 C208 1.325 . S
O239 Li177 1.961 . S
O239 Li178 1.970 . S
O239 Li179 1.956 . S
O239 C214 1.325 . S
H240 C182 0.929 . S
H241 C183 0.930 . S
H242 C184 0.930 . S
H243 C185 0.930 . S
H244 C187 0.930 . S
H245 C189 0.929 . S
H246 C190 0.930 . S
H247 C191 0.930 . S
H248 C194 0.930 . S
H249 C197 0.929 . S
H250 C202 0.929 . S
H251 C203 0.930 . S
H252 C210 0.929 . S
H253 C211 0.930 . S
H254 C212 0.930 . S
H255 C213 0.930 . S
H256 C215 0.929 . S
H257 C216 0.930 . S
H258 C217 0.930 . S
H259 C218 0.930 . S
H260 C222 0.929 . S
H261 C224 0.930 . S
H262 C230 0.929 . S
H263 C231 0.930 . S
Li264 N281 1.990 . S
Li264 O324 1.956 . S
Li264 O325 1.970 . S
Li264 O326 1.961 . S
Li265 N289 1.990 . S
Li265 O324 1.970 . S
Li265 O325 1.956 . S
Li265 O327 1.961 . S
Li266 N311 1.990 . S
Li266 O324 1.961 . S
Li266 O326 1.956 . S
Li266 O327 1.970 . S
Li267 N317 1.990 . S
Li267 O325 1.961 . S
Li267 O326 1.970 . S
Li267 O327 1.956 . S
C268 C270 1.348 . S
C268 C271 1.356 . S
C268 O324 1.325 . S
N269 C272 1.314 . S
N269 C273 1.279 . S
C270 C268 1.348 . S
C270 C272 1.353 . S
C270 H328 0.929 . S
C271 C268 1.356 . S
C271 C273 1.358 . S
C271 H329 0.930 . S
C272 N269 1.314 . S
C272 C270 1.353 . S
C272 H330 0.930 . S
C273 N269 1.279 . S
C273 C271 1.358 . S
C273 H331 0.930 . S
C274 C277 1.348 . S
C274 C278 1.356 . S
C274 O325 1.325 . S
C275 N276 1.279 . S
C275 C278 1.358 . S
C275 H332 0.930 . S
N276 C275 1.279 . S
N276 C279 1.314 . S
C277 C274 1.348 . S
C277 C279 1.353 . S
C277 H333 0.929 . S
C278 C274 1.356 . S
C278 C275 1.358 . S
C278 H334 0.930 . S
C279 N276 1.314 . S
C279 C277 1.353 . S
C279 H335 0.930 . S
C280 N281 1.314 . S
C280 C285 1.353 . S
C280 H286 0.930 . S
N281 Li264 1.990 . S
N281 C280 1.314 . S
N281 C283 1.279 . S
C282 C283 1.358 . S
C282 C284 1.356 . S
C282 H336 0.930 . S
C283 N281 1.279 . S
C283 C282 1.358 . S
C283 H287 0.930 . S
C284 C282 1.356 . S
C284 C285 1.348 . S
C285 C280 1.353 . S
C285 C284 1.348 . S
C285 H337 0.929 . S
H286 C280 0.930 . S
H287 C283 0.930 . S
C288 N289 1.314 . S
C288 C290 1.353 . S
C288 H294 0.930 . S
N289 Li265 1.990 . S
N289 C288 1.314 . S
N289 C292 1.279 . S
C290 C288 1.353 . S
C290 C293 1.348 . S
C290 H338 0.929 . S
C291 C292 1.358 . S
C291 C293 1.356 . S
C291 H339 0.930 . S
C292 N289 1.279 . S
C292 C291 1.358 . S
C292 H295 0.930 . S
C293 C290 1.348 . S
C293 C291 1.356 . S
H294 C288 0.930 . S
H295 C292 0.930 . S
C296 C298 1.348 . S
C296 C299 1.356 . S
C296 O326 1.325 . S
N297 C300 1.314 . S
N297 C301 1.279 . S
C298 C296 1.348 . S
C298 C300 1.353 . S
C298 H340 0.929 . S
C299 C296 1.356 . S
C299 C301 1.358 . S
C299 H341 0.930 . S
C300 N297 1.314 . S
C300 C298 1.353 . S
C300 H342 0.930 . S
C301 N297 1.279 . S
C301 C299 1.358 . S
C301 H343 0.930 . S
C302 C303 1.348 . S
C302 C304 1.356 . S
C302 O327 1.325 . S
C303 C302 1.348 . S
C303 C305 1.353 . S
C303 H344 0.929 . S
C304 C302 1.356 . S
C304 C306 1.358 . S
C304 H345 0.930 . S
C305 C303 1.353 . S
C305 N307 1.314 . S
C305 H346 0.930 . S
C306 C304 1.358 . S
C306 N307 1.279 . S
C306 H347 0.930 . S
N307 C305 1.314 . S
N307 C306 1.279 . S
C308 C310 1.353 . S
C308 N311 1.314 . S
C308 H314 0.930 . S
C309 N311 1.279 . S
C309 C312 1.358 . S
C309 H315 0.930 . S
C310 C308 1.353 . S
C310 C313 1.348 . S
C310 H348 0.929 . S
N311 Li266 1.990 . S
N311 C308 1.314 . S
N311 C309 1.279 . S
C312 C309 1.358 . S
C312 C313 1.356 . S
C312 H349 0.930 . S
C313 C310 1.348 . S
C313 C312 1.356 . S
H314 C308 0.930 . S
H315 C309 0.930 . S
C316 N317 1.314 . S
C316 C318 1.353 . S
C316 H322 0.930 . S
N317 Li267 1.990 . S
N317 C316 1.314 . S
N317 C320 1.279 . S
C318 C316 1.353 . S
C318 C321 1.348 . S
C318 H350 0.929 . S
C319 C320 1.358 . S
C319 C321 1.356 . S
C319 H351 0.930 . S
C320 N317 1.279 . S
C320 C319 1.358 . S
C320 H323 0.930 . S
C321 C318 1.348 . S
C321 C319 1.356 . S
H322 C316 0.930 . S
H323 C320 0.930 . S
O324 Li264 1.956 . S
O324 Li265 1.970 . S
O324 Li266 1.961 . S
O324 C268 1.325 . S
O325 Li264 1.970 . S
O325 Li265 1.956 . S
O325 Li267 1.961 . S
O325 C274 1.325 . S
O326 Li264 1.961 . S
O326 Li266 1.956 . S
O326 Li267 1.970 . S
O326 C296 1.325 . S
O327 Li265 1.961 . S
O327 Li266 1.970 . S
O327 Li267 1.956 . S
O327 C302 1.325 . S
H328 C270 0.929 . S
H329 C271 0.930 . S
H330 C272 0.930 . S
H331 C273 0.930 . S
H332 C275 0.930 . S
H333 C277 0.929 . S
H334 C278 0.930 . S
H335 C279 0.930 . S
H336 C282 0.930 . S
H337 C285 0.929 . S
H338 C290 0.929 . S
H339 C291 0.930 . S
H340 C298 0.929 . S
H341 C299 0.930 . S
H342 C300 0.930 . S
H343 C301 0.930 . S
H344 C303 0.929 . S
H345 C304 0.930 . S
H346 C305 0.930 . S
H347 C306 0.930 . S
H348 C310 0.929 . S
H349 C312 0.930 . S
H350 C318 0.929 . S
H351 C319 0.930 . S
Li352 N369 1.990 . S
Li352 O412 1.956 . S
Li352 O413 1.970 . S
Li352 O414 1.956 . S
Li353 N377 1.990 . S
Li353 O412 1.970 . S
Li353 O413 1.956 . S
Li353 O415 1.961 . S
Li354 N399 1.990 . S
Li354 O412 1.961 . S
Li354 O414 1.951 . S
Li354 O415 1.970 . S
Li355 N405 1.990 1_455 S
Li355 O413 1.961 . S
Li355 O414 1.970 . S
Li355 O415 1.956 . S
C356 C358 1.348 . S
C356 C359 1.356 . S
C356 O412 1.325 . S
N357 C360 1.314 . S
N357 C361 1.279 . S
C358 C356 1.348 . S
C358 C360 1.353 . S
C358 H416 0.929 . S
C359 C356 1.356 . S
C359 C361 1.358 . S
C359 H417 0.930 . S
C360 N357 1.314 . S
C360 C358 1.353 . S
C360 H418 0.930 . S
C361 N357 1.279 . S
C361 C359 1.358 . S
C361 H419 0.930 . S
C362 C365 1.348 . S
C362 C366 1.356 . S
C362 O413 1.325 . S
C363 N364 1.279 . S
C363 C366 1.358 . S
C363 H420 0.930 . S
N364 C363 1.279 . S
N364 C367 1.314 . S
C365 C362 1.348 . S
C365 C367 1.353 . S
C365 H421 0.929 . S
C366 C362 1.356 . S
C366 C363 1.358 . S
C366 H422 0.930 . S
C367 N364 1.314 . S
C367 C365 1.353 . S
C367 H423 0.930 . S
C368 N369 1.314 . S
C368 C373 1.353 . S
C368 H374 0.930 1_455 S
N369 Li352 1.990 . S
N369 C368 1.314 . S
N369 C371 1.279 . S
C370 C371 1.358 . S
C370 C372 1.356 . S
C370 H424 0.930 . S
C371 N369 1.279 . S
C371 C370 1.358 . S
C371 H375 0.930 . S
C372 C370 1.356 . S
C372 C373 1.348 . S
C373 C368 1.353 . S
C373 C372 1.348 . S
C373 H425 0.929 1_455 S
H374 C368 0.930 1_655 S
H375 C371 0.930 . S
C376 N377 1.314 . S
C376 C378 1.353 . S
C376 H382 0.930 . S
N377 Li353 1.990 . S
N377 C376 1.314 . S
N377 C380 1.279 . S
C378 C376 1.353 . S
C378 C381 1.348 . S
C378 H426 0.929 . S
C379 C380 1.358 . S
C379 C381 1.356 . S
C379 H427 0.930 . S
C380 N377 1.279 . S
C380 C379 1.358 . S
C380 H383 0.930 . S
C381 C378 1.348 . S
C381 C379 1.356 . S
H382 C376 0.930 . S
H383 C380 0.930 . S
C384 C386 1.348 . S
C384 C387 1.356 . S
C384 O414 1.330 1_655 S
N385 C388 1.314 . S
N385 C389 1.279 . S
C386 C384 1.348 . S
C386 C388 1.353 . S
C386 H428 0.929 . S
C387 C384 1.356 . S
C387 C389 1.358 . S
C387 H429 0.930 . S
C388 N385 1.314 . S
C388 C386 1.353 . S
C388 H430 0.930 . S
C389 N385 1.279 . S
C389 C387 1.358 . S
C389 H431 0.930 . S
C390 C391 1.348 . S
C390 C392 1.356 . S
C390 O415 1.325 . S
C391 C390 1.348 . S
C391 C393 1.353 . S
C391 H432 0.929 . S
C392 C390 1.356 . S
C392 C394 1.358 . S
C392 H433 0.930 . S
C393 C391 1.353 . S
C393 N395 1.314 . S
C393 H434 0.930 . S
C394 C392 1.358 . S
C394 N395 1.279 . S
C394 H435 0.930 . S
N395 C393 1.314 . S
N395 C394 1.279 . S
C396 C398 1.353 . S
C396 N399 1.314 . S
C396 H402 0.930 . S
C397 N399 1.292 . S
C397 C400 1.360 1_455 S
C397 H403 0.915 1_455 S
C398 C396 1.353 . S
C398 C401 1.348 . S
C398 H436 0.929 . S
N399 Li354 1.990 . S
N399 C396 1.314 . S
N399 C397 1.292 . S
C400 C397 1.360 1_655 S
C400 C401 1.356 1_655 S
C400 H437 0.930 . S
C401 C398 1.348 . S
C401 C400 1.356 1_455 S
H402 C396 0.930 . S
H403 C397 0.915 1_655 S
C404 N405 1.314 . S
C404 C406 1.353 . S
C404 H410 0.930 . S
N405 Li355 1.990 1_655 S
N405 C404 1.314 . S
N405 C408 1.279 . S
C406 C404 1.353 . S
C406 C409 1.348 . S
C406 H438 0.929 . S
C407 C408 1.358 . S
C407 C409 1.356 . S
C407 H439 0.930 . S
C408 N405 1.279 . S
C408 C407 1.358 . S
C408 H411 0.930 . S
C409 C406 1.348 . S
C409 C407 1.356 . S
H410 C404 0.930 . S
H411 C408 0.930 . S
O412 Li352 1.956 . S
O412 Li353 1.970 . S
O412 Li354 1.961 . S
O412 C356 1.325 . S
O413 Li352 1.970 . S
O413 Li353 1.956 . S
O413 Li355 1.961 . S
O413 C362 1.325 . S
O414 Li352 1.956 . S
O414 Li354 1.951 . S
O414 Li355 1.970 . S
O414 C384 1.330 1_455 S
O415 Li353 1.961 . S
O415 Li354 1.970 . S
O415 Li355 1.956 . S
O415 C390 1.325 . S
H416 C358 0.929 . S
H417 C359 0.930 . S
H418 C360 0.930 . S
H419 C361 0.930 . S
H420 C363 0.930 . S
H421 C365 0.929 . S
H422 C366 0.930 . S
H423 C367 0.930 . S
H424 C370 0.930 . S
H425 C373 0.929 1_655 S
H426 C378 0.929 . S
H427 C379 0.930 . S
H428 C386 0.929 . S
H429 C387 0.930 . S
H430 C388 0.930 . S
H431 C389 0.930 . S
H432 C391 0.929 . S
H433 C392 0.930 . S
H434 C393 0.930 . S
H435 C394 0.930 . S
H436 C398 0.929 . S
H437 C400 0.930 . S
H438 C406 0.929 . S
H439 C407 0.930 . S
Li440 N457 1.990 . S
Li440 O500 1.956 . S
Li440 O501 1.970 . S
Li440 O502 1.961 . S
Li441 N465 1.990 . S
Li441 O500 1.970 . S
Li441 O501 1.956 . S
Li441 O503 1.961 . S
Li442 N487 1.990 . S
Li442 O500 1.961 . S
Li442 O502 1.956 . S
Li442 O503 1.970 . S
Li443 N493 1.990 . S
Li443 O501 1.961 . S
Li443 O502 1.970 . S
Li443 O503 1.956 . S
C444 C446 1.348 . S
C444 C447 1.356 . S
C444 O500 1.325 . S
N445 C448 1.314 . S
N445 C449 1.279 . S
C446 C444 1.348 . S
C446 C448 1.353 . S
C446 H504 0.929 . S
C447 C444 1.356 . S
C447 C449 1.358 . S
C447 H505 0.930 . S
C448 N445 1.314 . S
C448 C446 1.353 . S
C448 H506 0.930 . S
C449 N445 1.279 . S
C449 C447 1.358 . S
C449 H507 0.930 . S
C450 C453 1.348 . S
C450 C454 1.356 . S
C450 O501 1.325 . S
C451 N452 1.279 . S
C451 C454 1.358 . S
C451 H508 0.930 . S
N452 C451 1.279 . S
N452 C455 1.314 . S
C453 C450 1.348 . S
C453 C455 1.353 . S
C453 H509 0.929 . S
C454 C450 1.356 . S
C454 C451 1.358 . S
C454 H510 0.930 . S
C455 N452 1.314 . S
C455 C453 1.353 . S
C455 H511 0.930 . S
C456 N457 1.314 . S
C456 C461 1.353 . S
C456 H462 0.930 . S
N457 Li440 1.990 . S
N457 C456 1.314 . S
N457 C459 1.279 . S
C458 C459 1.358 . S
C458 C460 1.356 . S
C458 H512 0.930 . S
C459 N457 1.279 . S
C459 C458 1.358 . S
C459 H463 0.930 . S
C460 C458 1.356 . S
C460 C461 1.348 . S
C461 C456 1.353 . S
C461 C460 1.348 . S
C461 H513 0.929 . S
H462 C456 0.930 . S
H463 C459 0.930 . S
C464 N465 1.314 . S
C464 C466 1.353 . S
C464 H470 0.930 . S
N465 Li441 1.990 . S
N465 C464 1.314 . S
N465 C468 1.279 . S
C466 C464 1.353 . S
C466 C469 1.348 . S
C466 H514 0.929 . S
C467 C468 1.358 . S
C467 C469 1.356 . S
C467 H515 0.930 . S
C468 N465 1.279 . S
C468 C467 1.358 . S
C468 H471 0.930 . S
C469 C466 1.348 . S
C469 C467 1.356 . S
H470 C464 0.930 . S
H471 C468 0.930 . S
C472 C474 1.348 . S
C472 C475 1.356 . S
C472 O502 1.325 . S
N473 C476 1.314 . S
N473 C477 1.279 . S
C474 C472 1.348 . S
C474 C476 1.353 . S
C474 H516 0.929 . S
C475 C472 1.356 . S
C475 C477 1.358 . S
C475 H517 0.930 . S
C476 N473 1.314 . S
C476 C474 1.353 . S
C476 H518 0.930 . S
C477 N473 1.279 . S
C477 C475 1.358 . S
C477 H519 0.930 . S
C478 C479 1.348 . S
C478 C480 1.356 . S
C478 O503 1.325 . S
C479 C478 1.348 . S
C479 C481 1.353 . S
C479 H520 0.929 . S
C480 C478 1.356 . S
C480 C482 1.358 . S
C480 H521 0.930 . S
C481 C479 1.353 . S
C481 N483 1.314 . S
C481 H522 0.930 . S
C482 C480 1.358 . S
C482 N483 1.279 . S
C482 H523 0.930 . S
N483 C481 1.314 . S
N483 C482 1.279 . S
C484 C486 1.353 . S
C484 N487 1.314 . S
C484 H490 0.930 . S
C485 N487 1.279 . S
C485 C488 1.358 . S
C485 H491 0.930 . S
C486 C484 1.353 . S
C486 C489 1.348 . S
C486 H524 0.929 . S
N487 Li442 1.990 . S
N487 C484 1.314 . S
N487 C485 1.279 . S
C488 C485 1.358 . S
C488 C489 1.356 . S
C488 H525 0.930 . S
C489 C486 1.348 . S
C489 C488 1.356 . S
H490 C484 0.930 . S
H491 C485 0.930 . S
C492 N493 1.314 . S
C492 C494 1.353 . S
C492 H498 0.930 . S
N493 Li443 1.990 . S
N493 C492 1.314 . S
N493 C496 1.279 . S
C494 C492 1.353 . S
C494 C497 1.348 . S
C494 H526 0.929 . S
C495 C496 1.358 . S
C495 C497 1.356 . S
C495 H527 0.930 . S
C496 N493 1.279 . S
C496 C495 1.358 . S
C496 H499 0.930 . S
C497 C494 1.348 . S
C497 C495 1.356 . S
H498 C492 0.930 . S
H499 C496 0.930 . S
O500 Li440 1.956 . S
O500 Li441 1.970 . S
O500 Li442 1.961 . S
O500 C444 1.325 . S
O501 Li440 1.970 . S
O501 Li441 1.956 . S
O501 Li443 1.961 . S
O501 C450 1.325 . S
O502 Li440 1.961 . S
O502 Li442 1.956 . S
O502 Li443 1.970 . S
O502 C472 1.325 . S
O503 Li441 1.961 . S
O503 Li442 1.970 . S
O503 Li443 1.956 . S
O503 C478 1.325 . S
H504 C446 0.929 . S
H505 C447 0.930 . S
H506 C448 0.930 . S
H507 C449 0.930 . S
H508 C451 0.930 . S
H509 C453 0.929 . S
H510 C454 0.930 . S
H511 C455 0.930 . S
H512 C458 0.930 . S
H513 C461 0.929 . S
H514 C466 0.929 . S
H515 C467 0.930 . S
H516 C474 0.929 . S
H517 C475 0.930 . S
H518 C476 0.930 . S
H519 C477 0.930 . S
H520 C479 0.929 . S
H521 C480 0.930 . S
H522 C481 0.930 . S
H523 C482 0.930 . S
H524 C486 0.929 . S
H525 C488 0.930 . S
H526 C494 0.929 . S
H527 C495 0.930 . S
Li528 N545 1.990 . S
Li528 O588 1.956 . S
Li528 O589 1.970 . S
Li528 O590 1.961 . S
Li529 N553 1.990 . S
Li529 O588 1.970 . S
Li529 O589 1.956 . S
Li529 O591 1.961 . S
Li530 N575 1.990 . S
Li530 O588 1.961 . S
Li530 O590 1.956 . S
Li530 O591 1.970 . S
Li531 N581 1.990 . S
Li531 O589 1.961 . S
Li531 O590 1.970 . S
Li531 O591 1.956 . S
C532 C534 1.348 . S
C532 C535 1.356 . S
C532 O588 1.325 . S
N533 C536 1.314 . S
N533 C537 1.279 . S
C534 C532 1.348 . S
C534 C536 1.353 . S
C534 H592 0.929 . S
C535 C532 1.356 . S
C535 C537 1.358 . S
C535 H593 0.930 . S
C536 N533 1.314 . S
C536 C534 1.353 . S
C536 H594 0.930 . S
C537 N533 1.279 . S
C537 C535 1.358 . S
C537 H595 0.930 . S
C538 C541 1.348 . S
C538 C542 1.356 . S
C538 O589 1.325 . S
C539 N540 1.279 . S
C539 C542 1.358 . S
C539 H596 0.930 . S
N540 C539 1.279 . S
N540 C543 1.314 . S
C541 C538 1.348 . S
C541 C543 1.353 . S
C541 H597 0.929 . S
C542 C538 1.356 . S
C542 C539 1.358 . S
C542 H598 0.930 . S
C543 N540 1.314 . S
C543 C541 1.353 . S
C543 H599 0.930 . S
C544 N545 1.314 . S
C544 C549 1.353 . S
C544 H550 0.930 . S
N545 Li528 1.990 . S
N545 C544 1.314 . S
N545 C547 1.279 . S
C546 C547 1.358 . S
C546 C548 1.356 . S
C546 H600 0.930 . S
C547 N545 1.279 . S
C547 C546 1.358 . S
C547 H551 0.930 . S
C548 C546 1.356 . S
C548 C549 1.348 . S
C549 C544 1.353 . S
C549 C548 1.348 . S
C549 H601 0.929 . S
H550 C544 0.930 . S
H551 C547 0.930 . S
C552 N553 1.314 . S
C552 C554 1.353 . S
C552 H558 0.930 . S
N553 Li529 1.990 . S
N553 C552 1.314 . S
N553 C556 1.279 . S
C554 C552 1.353 . S
C554 C557 1.348 . S
C554 H602 0.929 . S
C555 C556 1.358 . S
C555 C557 1.356 . S
C555 H603 0.930 . S
C556 N553 1.279 . S
C556 C555 1.358 . S
C556 H559 0.930 . S
C557 C554 1.348 . S
C557 C555 1.356 . S
H558 C552 0.930 . S
H559 C556 0.930 . S
C560 C562 1.348 . S
C560 C563 1.356 . S
C560 O590 1.325 . S
N561 C564 1.314 . S
N561 C565 1.279 . S
C562 C560 1.348 . S
C562 C564 1.353 . S
C562 H604 0.929 . S
C563 C560 1.356 . S
C563 C565 1.358 . S
C563 H605 0.930 . S
C564 N561 1.314 . S
C564 C562 1.353 . S
C564 H606 0.930 . S
C565 N561 1.279 . S
C565 C563 1.358 . S
C565 H607 0.930 . S
C566 C567 1.348 . S
C566 C568 1.356 . S
C566 O591 1.325 . S
C567 C566 1.348 . S
C567 C569 1.353 . S
C567 H608 0.929 . S
C568 C566 1.356 . S
C568 C570 1.358 . S
C568 H609 0.930 . S
C569 C567 1.353 . S
C569 N571 1.314 . S
C569 H610 0.930 . S
C570 C568 1.358 . S
C570 N571 1.279 . S
C570 H611 0.930 . S
N571 C569 1.314 . S
N571 C570 1.279 . S
C572 C574 1.353 . S
C572 N575 1.314 . S
C572 H578 0.930 . S
C573 N575 1.279 . S
C573 C576 1.358 . S
C573 H579 0.930 . S
C574 C572 1.353 . S
C574 C577 1.348 . S
C574 H612 0.929 . S
N575 Li530 1.990 . S
N575 C572 1.314 . S
N575 C573 1.279 . S
C576 C573 1.358 . S
C576 C577 1.356 . S
C576 H613 0.930 . S
C577 C574 1.348 . S
C577 C576 1.356 . S
H578 C572 0.930 . S
H579 C573 0.930 . S
C580 N581 1.314 . S
C580 C582 1.353 . S
C580 H586 0.930 . S
N581 Li531 1.990 . S
N581 C580 1.314 . S
N581 C584 1.279 . S
C582 C580 1.353 . S
C582 C585 1.348 . S
C582 H614 0.929 . S
C583 C584 1.358 . S
C583 C585 1.356 . S
C583 H615 0.930 . S
C584 N581 1.279 . S
C584 C583 1.358 . S
C584 H587 0.930 . S
C585 C582 1.348 . S
C585 C583 1.356 . S
H586 C580 0.930 . S
H587 C584 0.930 . S
O588 Li528 1.956 . S
O588 Li529 1.970 . S
O588 Li530 1.961 . S
O588 C532 1.325 . S
O589 Li528 1.970 . S
O589 Li529 1.956 . S
O589 Li531 1.961 . S
O589 C538 1.325 . S
O590 Li528 1.961 . S
O590 Li530 1.956 . S
O590 Li531 1.970 . S
O590 C560 1.325 . S
O591 Li529 1.961 . S
O591 Li530 1.970 . S
O591 Li531 1.956 . S
O591 C566 1.325 . S
H592 C534 0.929 . S
H593 C535 0.930 . S
H594 C536 0.930 . S
H595 C537 0.930 . S
H596 C539 0.930 . S
H597 C541 0.929 . S
H598 C542 0.930 . S
H599 C543 0.930 . S
H600 C546 0.930 . S
H601 C549 0.929 . S
H602 C554 0.929 . S
H603 C555 0.930 . S
H604 C562 0.929 . S
H605 C563 0.930 . S
H606 C564 0.930 . S
H607 C565 0.930 . S
H608 C567 0.929 . S
H609 C568 0.930 . S
H610 C569 0.930 . S
H611 C570 0.930 . S
H612 C574 0.929 . S
H613 C576 0.930 . S
H614 C582 0.929 . S
H615 C583 0.930 . S
Li616 N633 1.990 . S
Li616 O676 1.956 1_455 S
Li616 O677 1.970 . S
Li616 O678 1.961 . S
Li617 N641 1.990 . S
Li617 O676 1.970 . S
Li617 O677 1.956 1_655 S
Li617 O679 1.961 . S
Li618 N663 1.991 1_455 S
Li618 O676 1.951 1_455 S
Li618 O678 1.964 . S
Li618 O679 1.970 1_455 S
Li619 N669 1.990 . S
Li619 O677 1.961 . S
Li619 O678 1.970 . S
Li619 O679 1.956 1_455 S
C620 C622 1.348 . S
C620 C623 1.356 . S
C620 O676 1.325 . S
N621 C624 1.314 . S
N621 C625 1.279 . S
C622 C620 1.348 . S
C622 C624 1.353 . S
C622 H680 0.929 . S
C623 C620 1.356 . S
C623 C625 1.358 . S
C623 H681 0.930 . S
C624 N621 1.314 . S
C624 C622 1.353 . S
C624 H682 0.930 . S
C625 N621 1.279 . S
C625 C623 1.358 . S
C625 H683 0.930 . S
C626 C629 1.348 1_455 S
C626 C630 1.356 . S
C626 O677 1.325 . S
C627 N628 1.279 . S
C627 C630 1.358 . S
C627 H684 0.930 . S
N628 C627 1.279 . S
N628 C631 1.314 1_455 S
C629 C626 1.348 1_655 S
C629 C631 1.353 . S
C629 H685 0.929 . S
C630 C626 1.356 . S
C630 C627 1.358 . S
C630 H686 0.930 . S
C631 N628 1.314 1_655 S
C631 C629 1.353 . S
C631 H687 0.930 . S
C632 N633 1.314 . S
C632 C637 1.353 . S
C632 H638 0.930 . S
N633 Li616 1.990 . S
N633 C632 1.314 . S
N633 C635 1.279 1_455 S
C634 C635 1.358 . S
C634 C636 1.356 1_655 S
C634 H688 0.930 . S
C635 N633 1.279 1_655 S
C635 C634 1.358 . S
C635 H639 0.930 . S
C636 C634 1.356 1_455 S
C636 C637 1.348 . S
C637 C632 1.353 . S
C637 C636 1.348 . S
C637 H689 0.929 . S
H638 C632 0.930 . S
H639 C635 0.930 . S
C640 N641 1.314 . S
C640 C642 1.353 . S
C640 H646 0.930 . S
N641 Li617 1.990 . S
N641 C640 1.314 . S
N641 C644 1.279 . S
C642 C640 1.353 . S
C642 C645 1.348 . S
C642 H690 0.929 . S
C643 C644 1.358 . S
C643 C645 1.356 . S
C643 H691 0.930 . S
C644 N641 1.279 . S
C644 C643 1.358 . S
C644 H647 0.930 . S
C645 C642 1.348 . S
C645 C643 1.356 . S
H646 C640 0.930 . S
H647 C644 0.930 . S
C648 C650 1.348 . S
C648 C651 1.356 . S
C648 O678 1.325 . S
N649 C652 1.314 . S
N649 C653 1.279 . S
C650 C648 1.348 . S
C650 C652 1.353 . S
C650 H692 0.929 . S
C651 C648 1.356 . S
C651 C653 1.358 . S
C651 H693 0.930 . S
C652 N649 1.314 . S
C652 C650 1.353 . S
C652 H694 0.930 . S
C653 N649 1.279 . S
C653 C651 1.358 . S
C653 H695 0.930 . S
C654 C655 1.333 1_655 S
C654 C656 1.356 . S
C654 O679 1.325 . S
C655 C654 1.333 1_455 S
C655 C657 1.357 1_455 S
C655 H696 0.942 . S
C656 C654 1.356 . S
C656 C658 1.358 . S
C656 H697 0.930 . S
C657 C655 1.357 1_655 S
C657 N659 1.314 . S
C657 H698 0.930 1_655 S
C658 C656 1.358 . S
C658 N659 1.279 . S
C658 H699 0.930 . S
N659 C657 1.314 . S
N659 C658 1.279 . S
C660 C662 1.353 . S
C660 N663 1.318 . S
C660 H666 0.930 . S
C661 N663 1.275 1_455 S
C661 C664 1.358 . S
C661 H667 0.930 . S
C662 C660 1.353 . S
C662 C665 1.348 . S
C662 H700 0.929 . S
N663 Li618 1.991 1_655 S
N663 C660 1.318 . S
N663 C661 1.275 1_655 S
C664 C661 1.358 . S
C664 C665 1.356 1_455 S
C664 H701 0.930 . S
C665 C662 1.348 . S
C665 C664 1.356 1_655 S
H666 C660 0.930 . S
H667 C661 0.930 . S
C668 N669 1.314 . S
C668 C670 1.353 . S
C668 H674 0.930 . S
N669 Li619 1.990 . S
N669 C668 1.314 . S
N669 C672 1.279 . S
C670 C668 1.353 . S
C670 C673 1.348 . S
C670 H702 0.929 . S
C671 C672 1.358 . S
C671 C673 1.356 . S
C671 H703 0.930 . S
C672 N669 1.279 . S
C672 C671 1.358 . S
C672 H675 0.930 . S
C673 C670 1.348 . S
C673 C671 1.356 . S
H674 C668 0.930 . S
H675 C672 0.930 . S
O676 Li616 1.956 1_655 S
O676 Li617 1.970 . S
O676 Li618 1.951 1_655 S
O676 C620 1.325 . S
O677 Li616 1.970 . S
O677 Li617 1.956 1_455 S
O677 Li619 1.961 . S
O677 C626 1.325 . S
O678 Li616 1.961 . S
O678 Li618 1.964 . S
O678 Li619 1.970 . S
O678 C648 1.325 . S
O679 Li617 1.961 . S
O679 Li618 1.970 1_655 S
O679 Li619 1.956 1_655 S
O679 C654 1.325 . S
H680 C622 0.929 . S
H681 C623 0.930 . S
H682 C624 0.930 . S
H683 C625 0.930 . S
H684 C627 0.930 . S
H685 C629 0.929 . S
H686 C630 0.930 . S
H687 C631 0.930 . S
H688 C634 0.930 . S
H689 C637 0.929 . S
H690 C642 0.929 . S
H691 C643 0.930 . S
H692 C650 0.929 . S
H693 C651 0.930 . S
H694 C652 0.930 . S
H695 C653 0.930 . S
H696 C655 0.942 . S
H697 C656 0.930 . S
H698 C657 0.930 1_455 S
H699 C658 0.930 . S
H700 C662 0.929 . S
H701 C664 0.930 . S
H702 C670 0.929 . S
H703 C671 0.930 . S
Li704 N721 1.990 . S
Li704 O764 1.972 . S
Li704 O765 1.970 . S
Li704 O766 1.961 . S
Li705 N729 1.991 . S
Li705 O764 1.974 1_565 S
Li705 O765 1.956 1_565 S
Li705 O767 1.961 1_565 S
Li706 N751 1.990 . S
Li706 O764 1.978 . S
Li706 O766 1.956 . S
Li706 O767 1.970 . S
Li707 N757 1.990 . S
Li707 O765 1.961 . S
Li707 O766 1.970 . S
Li707 O767 1.956 . S
C708 C710 1.348 . S
C708 C711 1.356 . S
C708 O764 1.306 1_565 S
N709 C712 1.314 . S
N709 C713 1.279 . S
C710 C708 1.348 . S
C710 C712 1.353 . S
C710 H768 0.929 . S
C711 C708 1.356 . S
C711 C713 1.358 . S
C711 H769 0.930 1_565 S
C712 N709 1.314 . S
C712 C710 1.353 . S
C712 H770 0.930 . S
C713 N709 1.279 . S
C713 C711 1.358 . S
C713 H771 0.930 . S
C714 C717 1.348 . S
C714 C718 1.356 . S
C714 O765 1.325 . S
C715 N716 1.279 . S
C715 C718 1.358 . S
C715 H772 0.930 . S
N716 C715 1.279 . S
N716 C719 1.314 . S
C717 C714 1.348 . S
C717 C719 1.353 . S
C717 H773 0.929 . S
C718 C714 1.356 . S
C718 C715 1.358 . S
C718 H774 0.930 . S
C719 N716 1.314 . S
C719 C717 1.353 . S
C719 H775 0.930 . S
C720 N721 1.314 . S
C720 C725 1.353 . S
C720 H726 0.930 . S
N721 Li704 1.990 . S
N721 C720 1.314 . S
N721 C723 1.279 . S
C722 C723 1.358 . S
C722 C724 1.356 . S
C722 H776 0.930 . S
C723 N721 1.279 . S
C723 C722 1.358 . S
C723 H727 0.930 1_545 S
C724 C722 1.356 . S
C724 C725 1.348 . S
C725 C720 1.353 . S
C725 C724 1.348 . S
C725 H777 0.929 . S
H726 C720 0.930 . S
H727 C723 0.930 1_565 S
C728 N729 1.314 . S
C728 C730 1.353 . S
C728 H734 0.930 . S
N729 Li705 1.991 . S
N729 C728 1.314 . S
N729 C732 1.279 . S
C730 C728 1.353 . S
C730 C733 1.348 . S
C730 H778 0.929 . S
C731 C732 1.358 . S
C731 C733 1.356 . S
C731 H779 0.930 . S
C732 N729 1.279 . S
C732 C731 1.358 . S
C732 H735 0.930 . S
C733 C730 1.348 . S
C733 C731 1.356 . S
H734 C728 0.930 . S
H735 C732 0.930 . S
C736 C738 1.348 . S
C736 C739 1.356 . S
C736 O766 1.325 . S
N737 C740 1.314 . S
N737 C741 1.279 . S
C738 C736 1.348 . S
C738 C740 1.353 . S
C738 H780 0.929 . S
C739 C736 1.356 . S
C739 C741 1.358 . S
C739 H781 0.930 . S
C740 N737 1.314 . S
C740 C738 1.353 . S
C740 H782 0.930 . S
C741 N737 1.279 . S
C741 C739 1.358 . S
C741 H783 0.930 . S
C742 C743 1.348 . S
C742 C744 1.356 . S
C742 O767 1.325 . S
C743 C742 1.348 . S
C743 C745 1.353 . S
C743 H784 0.929 . S
C744 C742 1.356 . S
C744 C746 1.358 . S
C744 H785 0.930 . S
C745 C743 1.353 . S
C745 N747 1.314 . S
C745 H786 0.930 . S
C746 C744 1.358 . S
C746 N747 1.279 . S
C746 H787 0.930 . S
N747 C745 1.314 . S
N747 C746 1.279 . S
C748 C750 1.353 . S
C748 N751 1.314 . S
C748 H754 0.930 1_545 S
C749 N751 1.279 . S
C749 C752 1.358 . S
C749 H755 0.930 . S
C750 C748 1.353 . S
C750 C753 1.348 . S
C750 H788 0.929 1_545 S
N751 Li706 1.990 . S
N751 C748 1.314 . S
N751 C749 1.279 . S
C752 C749 1.358 . S
C752 C753 1.356 . S
C752 H789 0.930 . S
C753 C750 1.348 . S
C753 C752 1.356 . S
H754 C748 0.930 1_565 S
H755 C749 0.930 . S
C756 N757 1.314 . S
C756 C758 1.353 . S
C756 H762 0.930 . S
N757 Li707 1.990 . S
N757 C756 1.314 . S
N757 C760 1.279 . S
C758 C756 1.353 . S
C758 C761 1.348 . S
C758 H790 0.929 . S
C759 C760 1.358 . S
C759 C761 1.356 . S
C759 H791 0.930 . S
C760 N757 1.279 . S
C760 C759 1.358 . S
C760 H763 0.930 . S
C761 C758 1.348 . S
C761 C759 1.356 . S
H762 C756 0.930 . S
H763 C760 0.930 . S
O764 Li704 1.972 . S
O764 Li705 1.974 1_545 S
O764 Li706 1.978 . S
O764 C708 1.306 1_545 S
O765 Li704 1.970 . S
O765 Li705 1.956 1_545 S
O765 Li707 1.961 . S
O765 C714 1.325 . S
O766 Li704 1.961 . S
O766 Li706 1.956 . S
O766 Li707 1.970 . S
O766 C736 1.325 . S
O767 Li705 1.961 1_545 S
O767 Li706 1.970 . S
O767 Li707 1.956 . S
O767 C742 1.325 . S
H768 C710 0.929 . S
H769 C711 0.930 1_545 S
H770 C712 0.930 . S
H771 C713 0.930 . S
H772 C715 0.930 . S
H773 C717 0.929 . S
H774 C718 0.930 . S
H775 C719 0.930 . S
H776 C722 0.930 . S
H777 C725 0.929 . S
H778 C730 0.929 . S
H779 C731 0.930 . S
H780 C738 0.929 . S
H781 C739 0.930 . S
H782 C740 0.930 . S
H783 C741 0.930 . S
H784 C743 0.929 . S
H785 C744 0.930 . S
H786 C745 0.930 . S
H787 C746 0.930 . S
H788 C750 0.929 1_565 S
H789 C752 0.930 . S
H790 C758 0.929 . S
H791 C759 0.930 . S
Li792 N809 1.990 . S
Li792 O852 1.956 . S
Li792 O853 1.970 . S
Li792 O854 1.961 . S
Li793 N817 1.990 . S
Li793 O852 1.970 . S
Li793 O853 1.956 . S
Li793 O855 1.961 . S
Li794 N839 1.990 . S
Li794 O852 1.961 . S
Li794 O854 1.956 . S
Li794 O855 1.970 . S
Li795 N845 1.990 . S
Li795 O853 1.961 . S
Li795 O854 1.970 . S
Li795 O855 1.956 . S
C796 C798 1.348 . S
C796 C799 1.356 . S
C796 O852 1.325 . S
N797 C800 1.314 . S
N797 C801 1.279 . S
C798 C796 1.348 . S
C798 C800 1.353 . S
C798 H856 0.929 . S
C799 C796 1.356 . S
C799 C801 1.358 . S
C799 H857 0.930 . S
C800 N797 1.314 . S
C800 C798 1.353 . S
C800 H858 0.930 . S
C801 N797 1.279 . S
C801 C799 1.358 . S
C801 H859 0.930 . S
C802 C805 1.348 . S
C802 C806 1.356 . S
C802 O853 1.325 . S
C803 N804 1.279 . S
C803 C806 1.358 . S
C803 H860 0.930 . S
N804 C803 1.279 . S
N804 C807 1.314 . S
C805 C802 1.348 . S
C805 C807 1.353 . S
C805 H861 0.929 . S
C806 C802 1.356 . S
C806 C803 1.358 . S
C806 H862 0.930 . S
C807 N804 1.314 . S
C807 C805 1.353 . S
C807 H863 0.930 . S
C808 N809 1.314 . S
C808 C813 1.353 . S
C808 H814 0.930 . S
N809 Li792 1.990 . S
N809 C808 1.314 . S
N809 C811 1.279 . S
C810 C811 1.358 . S
C810 C812 1.356 . S
C810 H864 0.930 . S
C811 N809 1.279 . S
C811 C810 1.358 . S
C811 H815 0.930 . S
C812 C810 1.356 . S
C812 C813 1.348 . S
C813 C808 1.353 . S
C813 C812 1.348 . S
C813 H865 0.929 . S
H814 C808 0.930 . S
H815 C811 0.930 . S
C816 N817 1.314 . S
C816 C818 1.353 . S
C816 H822 0.930 . S
N817 Li793 1.990 . S
N817 C816 1.314 . S
N817 C820 1.279 . S
C818 C816 1.353 . S
C818 C821 1.348 . S
C818 H866 0.929 . S
C819 C820 1.358 . S
C819 C821 1.356 . S
C819 H867 0.930 . S
C820 N817 1.279 . S
C820 C819 1.358 . S
C820 H823 0.930 . S
C821 C818 1.348 . S
C821 C819 1.356 . S
H822 C816 0.930 . S
H823 C820 0.930 . S
C824 C826 1.348 . S
C824 C827 1.356 . S
C824 O854 1.325 . S
N825 C828 1.314 . S
N825 C829 1.279 . S
C826 C824 1.348 . S
C826 C828 1.353 . S
C826 H868 0.929 . S
C827 C824 1.356 . S
C827 C829 1.358 . S
C827 H869 0.930 . S
C828 N825 1.314 . S
C828 C826 1.353 . S
C828 H870 0.930 . S
C829 N825 1.279 . S
C829 C827 1.358 . S
C829 H871 0.930 . S
C830 C831 1.348 . S
C830 C832 1.356 . S
C830 O855 1.325 . S
C831 C830 1.348 . S
C831 C833 1.353 . S
C831 H872 0.929 . S
C832 C830 1.356 . S
C832 C834 1.358 . S
C832 H873 0.930 . S
C833 C831 1.353 . S
C833 N835 1.314 . S
C833 H874 0.930 . S
C834 C832 1.358 . S
C834 N835 1.279 . S
C834 H875 0.930 . S
N835 C833 1.314 . S
N835 C834 1.279 . S
C836 C838 1.353 . S
C836 N839 1.314 . S
C836 H842 0.930 . S
C837 N839 1.279 . S
C837 C840 1.358 . S
C837 H843 0.930 . S
C838 C836 1.353 . S
C838 C841 1.348 . S
C838 H876 0.929 . S
N839 Li794 1.990 . S
N839 C836 1.314 . S
N839 C837 1.279 . S
C840 C837 1.358 . S
C840 C841 1.356 . S
C840 H877 0.930 . S
C841 C838 1.348 . S
C841 C840 1.356 . S
H842 C836 0.930 . S
H843 C837 0.930 . S
C844 N845 1.314 . S
C844 C846 1.353 . S
C844 H850 0.930 . S
N845 Li795 1.990 . S
N845 C844 1.314 . S
N845 C848 1.279 . S
C846 C844 1.353 . S
C846 C849 1.348 . S
C846 H878 0.929 . S
C847 C848 1.358 . S
C847 C849 1.356 . S
C847 H879 0.930 . S
C848 N845 1.279 . S
C848 C847 1.358 . S
C848 H851 0.930 . S
C849 C846 1.348 . S
C849 C847 1.356 . S
H850 C844 0.930 . S
H851 C848 0.930 . S
O852 Li792 1.956 . S
O852 Li793 1.970 . S
O852 Li794 1.961 . S
O852 C796 1.325 . S
O853 Li792 1.970 . S
O853 Li793 1.956 . S
O853 Li795 1.961 . S
O853 C802 1.325 . S
O854 Li792 1.961 . S
O854 Li794 1.956 . S
O854 Li795 1.970 . S
O854 C824 1.325 . S
O855 Li793 1.961 . S
O855 Li794 1.970 . S
O855 Li795 1.956 . S
O855 C830 1.325 . S
H856 C798 0.929 . S
H857 C799 0.930 . S
H858 C800 0.930 . S
H859 C801 0.930 . S
H860 C803 0.930 . S
H861 C805 0.929 . S
H862 C806 0.930 . S
H863 C807 0.930 . S
H864 C810 0.930 . S
H865 C813 0.929 . S
H866 C818 0.929 . S
H867 C819 0.930 . S
H868 C826 0.929 . S
H869 C827 0.930 . S
H870 C828 0.930 . S
H871 C829 0.930 . S
H872 C831 0.929 . S
H873 C832 0.930 . S
H874 C833 0.930 . S
H875 C834 0.930 . S
H876 C838 0.929 . S
H877 C840 0.930 . S
H878 C846 0.929 . S
H879 C847 0.930 . S
Li880 N897 1.990 . S
Li880 O940 1.956 . S
Li880 O941 1.970 . S
Li880 O942 1.961 . S
Li881 N905 1.990 . S
Li881 O940 1.970 . S
Li881 O941 1.956 . S
Li881 O943 1.961 1_545 S
Li882 N927 1.990 . S
Li882 O940 1.961 1_565 S
Li882 O942 1.956 1_565 S
Li882 O943 1.970 . S
Li883 N933 1.989 . S
Li883 O941 1.961 . S
Li883 O942 1.970 . S
Li883 O943 1.956 1_545 S
C884 C886 1.348 . S
C884 C887 1.356 . S
C884 O940 1.325 . S
N885 C888 1.314 . S
N885 C889 1.279 . S
C886 C884 1.348 . S
C886 C888 1.353 . S
C886 H944 0.929 . S
C887 C884 1.356 . S
C887 C889 1.358 . S
C887 H945 0.930 . S
C888 N885 1.314 . S
C888 C886 1.353 . S
C888 H946 0.930 . S
C889 N885 1.279 . S
C889 C887 1.358 . S
C889 H947 0.930 . S
C890 C893 1.348 . S
C890 C894 1.356 . S
C890 O941 1.325 . S
C891 N892 1.279 . S
C891 C894 1.358 . S
C891 H948 0.930 . S
N892 C891 1.279 . S
N892 C895 1.314 . S
C893 C890 1.348 . S
C893 C895 1.353 . S
C893 H949 0.929 . S
C894 C890 1.356 . S
C894 C891 1.358 . S
C894 H950 0.930 . S
C895 N892 1.314 . S
C895 C893 1.353 . S
C895 H951 0.930 . S
C896 N897 1.314 . S
C896 C901 1.353 . S
C896 H902 0.930 . S
N897 Li880 1.990 . S
N897 C896 1.314 . S
N897 C899 1.279 . S
C898 C899 1.358 . S
C898 C900 1.356 . S
C898 H952 0.930 . S
C899 N897 1.279 . S
C899 C898 1.358 . S
C899 H903 0.930 . S
C900 C898 1.356 . S
C900 C901 1.348 . S
C901 C896 1.353 . S
C901 C900 1.348 . S
C901 H953 0.929 . S
H902 C896 0.930 . S
H903 C899 0.930 . S
C904 N905 1.314 1_565 S
C904 C906 1.353 . S
C904 H910 0.930 . S
N905 Li881 1.990 . S
N905 C904 1.314 1_545 S
N905 C908 1.279 . S
C906 C904 1.353 . S
C906 C909 1.348 1_565 S
C906 H954 0.929 . S
C907 C908 1.358 . S
C907 C909 1.356 . S
C907 H955 0.930 . S
C908 N905 1.279 . S
C908 C907 1.358 . S
C908 H911 0.930 . S
C909 C906 1.348 1_545 S
C909 C907 1.356 . S
H910 C904 0.930 . S
H911 C908 0.930 . S
C912 C914 1.350 . S
C912 C915 1.356 . S
C912 O942 1.325 . S
N913 C916 1.324 . S
N913 C917 1.279 . S
C914 C912 1.350 . S
C914 C916 1.354 . S
C914 H956 0.927 1_545 S
C915 C912 1.356 . S
C915 C917 1.358 . S
C915 H957 0.930 . S
C916 N913 1.324 . S
C916 C914 1.354 . S
C916 H958 0.921 1_545 S
C917 N913 1.279 . S
C917 C915 1.358 . S
C917 H959 0.930 . S
C918 C919 1.348 . S
C918 C920 1.356 . S
C918 O943 1.325 . S
C919 C918 1.348 . S
C919 C921 1.353 . S
C919 H960 0.929 . S
C920 C918 1.356 . S
C920 C922 1.358 . S
C920 H961 0.930 . S
C921 C919 1.353 . S
C921 N923 1.314 . S
C921 H962 0.930 . S
C922 C920 1.358 . S
C922 N923 1.279 . S
C922 H963 0.930 . S
N923 C921 1.314 . S
N923 C922 1.279 . S
C924 C926 1.353 . S
C924 N927 1.314 . S
C924 H930 0.930 . S
C925 N927 1.279 . S
C925 C928 1.358 . S
C925 H931 0.930 . S
C926 C924 1.353 . S
C926 C929 1.348 . S
C926 H964 0.929 . S
N927 Li882 1.990 . S
N927 C924 1.314 . S
N927 C925 1.279 . S
C928 C925 1.358 . S
C928 C929 1.356 . S
C928 H965 0.930 . S
C929 C926 1.348 . S
C929 C928 1.356 . S
H930 C924 0.930 . S
H931 C925 0.930 . S
C932 N933 1.334 . S
C932 C934 1.353 . S
C932 H938 0.930 . S
N933 Li883 1.989 . S
N933 C932 1.334 . S
N933 C936 1.262 1_545 S
C934 C932 1.353 . S
C934 C937 1.348 1_545 S
C934 H966 0.929 . S
C935 C936 1.358 . S
C935 C937 1.356 . S
C935 H967 0.930 . S
C936 N933 1.262 1_565 S
C936 C935 1.358 . S
C936 H939 0.930 . S
C937 C934 1.348 1_565 S
C937 C935 1.356 . S
H938 C932 0.930 . S
H939 C936 0.930 . S
O940 Li880 1.956 . S
O940 Li881 1.970 . S
O940 Li882 1.961 1_545 S
O940 C884 1.325 . S
O941 Li880 1.970 . S
O941 Li881 1.956 . S
O941 Li883 1.961 . S
O941 C890 1.325 . S
O942 Li880 1.961 . S
O942 Li882 1.956 1_545 S
O942 Li883 1.970 . S
O942 C912 1.325 . S
O943 Li881 1.961 1_565 S
O943 Li882 1.970 . S
O943 Li883 1.956 1_565 S
O943 C918 1.325 . S
H944 C886 0.929 . S
H945 C887 0.930 . S
H946 C888 0.930 . S
H947 C889 0.930 . S
H948 C891 0.930 . S
H949 C893 0.929 . S
H950 C894 0.930 . S
H951 C895 0.930 . S
H952 C898 0.930 . S
H953 C901 0.929 . S
H954 C906 0.929 . S
H955 C907 0.930 . S
H956 C914 0.927 1_565 S
H957 C915 0.930 . S
H958 C916 0.921 1_565 S
H959 C917 0.930 . S
H960 C919 0.929 . S
H961 C920 0.930 . S
H962 C921 0.930 . S
H963 C922 0.930 . S
H964 C926 0.929 . S
H965 C928 0.930 . S
H966 C934 0.929 . S
H967 C935 0.930 . S
Li968 N985 1.990 . S
Li968 O1028 1.956 . S
Li968 O1029 1.970 . S
Li968 O1030 1.961 1_554 S
Li969 N993 1.990 . S
Li969 O1028 1.970 . S
Li969 O1029 1.956 . S
Li969 O1031 1.961 . S
Li970 N1015 1.990 . S
Li970 O1028 1.961 . S
Li970 O1030 1.956 1_554 S
Li970 O1031 1.970 . S
Li971 N1021 1.990 . S
Li971 O1029 1.961 1_556 S
Li971 O1030 1.970 . S
Li971 O1031 1.956 1_556 S
C972 C974 1.348 . S
C972 C975 1.356 . S
C972 O1028 1.325 . S
N973 C976 1.314 . S
N973 C977 1.279 . S
C974 C972 1.348 . S
C974 C976 1.353 . S
C974 H1032 0.929 . S
C975 C972 1.356 . S
C975 C977 1.358 . S
C975 H1033 0.930 . S
C976 N973 1.314 . S
C976 C974 1.353 . S
C976 H1034 0.930 . S
C977 N973 1.279 . S
C977 C975 1.358 . S
C977 H1035 0.930 . S
C978 C981 1.348 . S
C978 C982 1.356 . S
C978 O1029 1.325 . S
C979 N980 1.279 . S
C979 C982 1.358 . S
C979 H1036 0.930 . S
N980 C979 1.279 . S
N980 C983 1.314 . S
C981 C978 1.348 . S
C981 C983 1.353 . S
C981 H1037 0.929 . S
C982 C978 1.356 . S
C982 C979 1.358 . S
C982 H1038 0.930 . S
C983 N980 1.314 . S
C983 C981 1.353 . S
C983 H1039 0.930 . S
C984 N985 1.314 . S
C984 C989 1.354 . S
C984 H990 0.930 1_554 S
N985 Li968 1.990 . S
N985 C984 1.314 . S
N985 C987 1.279 . S
C986 C987 1.358 . S
C986 C988 1.356 . S
C986 H1040 0.930 . S
C987 N985 1.279 . S
C987 C986 1.358 . S
C987 H991 0.930 . S
C988 C986 1.356 . S
C988 C989 1.360 . S
C989 C984 1.354 . S
C989 C988 1.360 . S
C989 H1041 0.917 1_554 S
H990 C984 0.930 1_556 S
H991 C987 0.930 . S
C992 N993 1.314 . S
C992 C994 1.353 . S
C992 H998 0.930 . S
N993 Li969 1.990 . S
N993 C992 1.314 . S
N993 C996 1.279 . S
C994 C992 1.353 . S
C994 C997 1.348 . S
C994 H1042 0.929 . S
C995 C996 1.358 . S
C995 C997 1.356 . S
C995 H1043 0.930 . S
C996 N993 1.279 . S
C996 C995 1.358 . S
C996 H999 0.930 . S
C997 C994 1.348 . S
C997 C995 1.356 . S
H998 C992 0.930 . S
H999 C996 0.930 . S
C1000 C1002 1.348 . S
C1000 C1003 1.356 . S
C1000 O1030 1.325 . S
N1001 C1004 1.314 . S
N1001 C1005 1.279 . S
C1002 C1000 1.348 . S
C1002 C1004 1.353 . S
C1002 H1044 0.929 . S
C1003 C1000 1.356 . S
C1003 C1005 1.358 . S
C1003 H1045 0.930 . S
C1004 N1001 1.314 . S
C1004 C1002 1.353 . S
C1004 H1046 0.930 . S
C1005 N1001 1.279 . S
C1005 C1003 1.358 . S
C1005 H1047 0.930 . S
C1006 C1007 1.348 . S
C1006 C1008 1.356 . S
C1006 O1031 1.325 . S
C1007 C1006 1.348 . S
C1007 C1009 1.353 . S
C1007 H1048 0.929 . S
C1008 C1006 1.356 . S
C1008 C1010 1.358 . S
C1008 H1049 0.930 . S
C1009 C1007 1.353 . S
C1009 N1011 1.314 . S
C1009 H1050 0.930 . S
C1010 C1008 1.358 . S
C1010 N1011 1.279 . S
C1010 H1051 0.930 . S
N1011 C1009 1.314 . S
N1011 C1010 1.279 . S
C1012 C1014 1.353 . S
C1012 N1015 1.314 . S
C1012 H1018 0.930 . S
C1013 N1015 1.279 . S
C1013 C1016 1.358 . S
C1013 H1019 0.930 1_554 S
C1014 C1012 1.353 . S
C1014 C1017 1.348 . S
C1014 H1052 0.929 . S
N1015 Li970 1.990 . S
N1015 C1012 1.314 . S
N1015 C1013 1.279 . S
C1016 C1013 1.358 . S
C1016 C1017 1.356 . S
C1016 H1053 0.930 1_554 S
C1017 C1014 1.348 . S
C1017 C1016 1.356 . S
H1018 C1012 0.930 . S
H1019 C1013 0.930 1_556 S
C1020 N1021 1.314 . S
C1020 C1022 1.353 . S
C1020 H1026 0.930 . S
N1021 Li971 1.990 . S
N1021 C1020 1.314 . S
N1021 C1024 1.279 . S
C1022 C1020 1.353 . S
C1022 C1025 1.348 . S
C1022 H1054 0.929 . S
C1023 C1024 1.358 . S
C1023 C1025 1.356 . S
C1023 H1055 0.930 . S
C1024 N1021 1.279 . S
C1024 C1023 1.358 . S
C1024 H1027 0.930 . S
C1025 C1022 1.348 . S
C1025 C1023 1.356 . S
H1026 C1020 0.930 . S
H1027 C1024 0.930 . S
O1028 Li968 1.956 . S
O1028 Li969 1.970 . S
O1028 Li970 1.961 . S
O1028 C972 1.325 . S
O1029 Li968 1.970 . S
O1029 Li969 1.956 . S
O1029 Li971 1.961 1_554 S
O1029 C978 1.325 . S
O1030 Li968 1.961 1_556 S
O1030 Li970 1.956 1_556 S
O1030 Li971 1.970 . S
O1030 C1000 1.325 . S
O1031 Li969 1.961 . S
O1031 Li970 1.970 . S
O1031 Li971 1.956 1_554 S
O1031 C1006 1.325 . S
H1032 C974 0.929 . S
H1033 C975 0.930 . S
H1034 C976 0.930 . S
H1035 C977 0.930 . S
H1036 C979 0.930 . S
H1037 C981 0.929 . S
H1038 C982 0.930 . S
H1039 C983 0.930 . S
H1040 C986 0.930 . S
H1041 C989 0.917 1_556 S
H1042 C994 0.929 . S
H1043 C995 0.930 . S
H1044 C1002 0.929 . S
H1045 C1003 0.930 . S
H1046 C1004 0.930 . S
H1047 C1005 0.930 . S
H1048 C1007 0.929 . S
H1049 C1008 0.930 . S
H1050 C1009 0.930 . S
H1051 C1010 0.930 . S
H1052 C1014 0.929 . S
H1053 C1016 0.930 1_556 S
H1054 C1022 0.929 . S
H1055 C1023 0.930 . S
Li1056 N1073 1.990 . S
Li1056 O1116 1.956 . S
Li1056 O1117 1.970 . S
Li1056 O1118 1.961 . S
Li1057 N1081 1.990 . S
Li1057 O1116 1.970 . S
Li1057 O1117 1.956 . S
Li1057 O1119 1.961 . S
Li1058 N1103 1.990 . S
Li1058 O1116 1.961 . S
Li1058 O1118 1.956 . S
Li1058 O1119 1.970 . S
Li1059 N1109 1.990 1_554 S
Li1059 O1117 1.961 . S
Li1059 O1118 1.970 . S
Li1059 O1119 1.956 . S
C1060 C1062 1.348 . S
C1060 C1063 1.356 . S
C1060 O1116 1.325 . S
N1061 C1064 1.314 . S
N1061 C1065 1.279 . S
C1062 C1060 1.348 . S
C1062 C1064 1.353 . S
C1062 H1120 0.929 . S
C1063 C1060 1.356 . S
C1063 C1065 1.358 . S
C1063 H1121 0.930 . S
C1064 N1061 1.314 . S
C1064 C1062 1.353 . S
C1064 H1122 0.930 . S
C1065 N1061 1.279 . S
C1065 C1063 1.358 . S
C1065 H1123 0.930 . S
C1066 C1069 1.348 . S
C1066 C1070 1.356 . S
C1066 O1117 1.325 . S
C1067 N1068 1.279 . S
C1067 C1070 1.358 . S
C1067 H1124 0.930 . S
N1068 C1067 1.279 . S
N1068 C1071 1.314 . S
C1069 C1066 1.348 . S
C1069 C1071 1.353 . S
C1069 H1125 0.929 . S
C1070 C1066 1.356 . S
C1070 C1067 1.358 . S
C1070 H1126 0.930 . S
C1071 N1068 1.314 . S
C1071 C1069 1.353 . S
C1071 H1127 0.930 . S
C1072 N1073 1.314 . S
C1072 C1077 1.353 . S
C1072 H1078 0.930 . S
N1073 Li1056 1.990 . S
N1073 C1072 1.314 . S
N1073 C1075 1.279 . S
C1074 C1075 1.358 . S
C1074 C1076 1.356 . S
C1074 H1128 0.930 . S
C1075 N1073 1.279 . S
C1075 C1074 1.358 . S
C1075 H1079 0.930 . S
C1076 C1074 1.356 . S
C1076 C1077 1.348 . S
C1077 C1072 1.353 . S
C1077 C1076 1.348 . S
C1077 H1129 0.929 . S
H1078 C1072 0.930 . S
H1079 C1075 0.930 . S
C1080 N1081 1.314 . S
C1080 C1082 1.353 . S
C1080 H1086 0.930 . S
N1081 Li1057 1.990 . S
N1081 C1080 1.314 . S
N1081 C1084 1.279 . S
C1082 C1080 1.353 . S
C1082 C1085 1.348 . S
C1082 H1130 0.929 . S
C1083 C1084 1.358 . S
C1083 C1085 1.356 . S
C1083 H1131 0.930 . S
C1084 N1081 1.279 . S
C1084 C1083 1.358 . S
C1084 H1087 0.930 . S
C1085 C1082 1.348 . S
C1085 C1083 1.356 . S
H1086 C1080 0.930 . S
H1087 C1084 0.930 . S
C1088 C1090 1.302 1_554 S
C1088 C1091 1.358 . S
C1088 O1118 1.366 . S
N1089 C1092 1.314 . S
N1089 C1093 1.279 . S
C1090 C1088 1.302 1_556 S
C1090 C1092 1.353 . S
C1090 H1132 0.929 . S
C1091 C1088 1.358 . S
C1091 C1093 1.358 1_554 S
C1091 H1133 0.930 . S
C1092 N1089 1.314 . S
C1092 C1090 1.353 . S
C1092 H1134 0.930 . S
C1093 N1089 1.279 . S
C1093 C1091 1.358 1_556 S
C1093 H1135 0.930 . S
C1094 C1095 1.348 . S
C1094 C1096 1.356 . S
C1094 O1119 1.325 . S
C1095 C1094 1.348 . S
C1095 C1097 1.353 . S
C1095 H1136 0.929 . S
C1096 C1094 1.356 . S
C1096 C1098 1.358 . S
C1096 H1137 0.930 . S
C1097 C1095 1.353 . S
C1097 N1099 1.314 . S
C1097 H1138 0.930 . S
C1098 C1096 1.358 . S
C1098 N1099 1.279 . S
C1098 H1139 0.930 . S
N1099 C1097 1.314 . S
N1099 C1098 1.279 . S
C1100 C1102 1.353 . S
C1100 N1103 1.314 . S
C1100 H1106 0.930 . S
C1101 N1103 1.279 . S
C1101 C1104 1.358 . S
C1101 H1107 0.930 . S
C1102 C1100 1.353 . S
C1102 C1105 1.348 . S
C1102 H1140 0.929 . S
N1103 Li1058 1.990 . S
N1103 C1100 1.314 . S
N1103 C1101 1.279 . S
C1104 C1101 1.358 . S
C1104 C1105 1.356 . S
C1104 H1141 0.930 . S
C1105 C1102 1.348 . S
C1105 C1104 1.356 . S
H1106 C1100 0.930 . S
H1107 C1101 0.930 . S
C1108 N1109 1.314 . S
C1108 C1110 1.353 . S
C1108 H1114 0.930 . S
N1109 Li1059 1.990 1_556 S
N1109 C1108 1.314 . S
N1109 C1112 1.279 . S
C1110 C1108 1.353 . S
C1110 C1113 1.348 . S
C1110 H1142 0.929 . S
C1111 C1112 1.358 . S
C1111 C1113 1.356 . S
C1111 H1143 0.930 . S
C1112 N1109 1.279 . S
C1112 C1111 1.358 . S
C1112 H1115 0.930 . S
C1113 C1110 1.348 . S
C1113 C1111 1.356 . S
H1114 C1108 0.930 . S
H1115 C1112 0.930 . S
O1116 Li1056 1.956 . S
O1116 Li1057 1.970 . S
O1116 Li1058 1.961 . S
O1116 C1060 1.325 . S
O1117 Li1056 1.970 . S
O1117 Li1057 1.956 . S
O1117 Li1059 1.961 . S
O1117 C1066 1.325 . S
O1118 Li1056 1.961 . S
O1118 Li1058 1.956 . S
O1118 Li1059 1.970 . S
O1118 C1088 1.366 . S
O1119 Li1057 1.961 . S
O1119 Li1058 1.970 . S
O1119 Li1059 1.956 . S
O1119 C1094 1.325 . S
H1120 C1062 0.929 . S
H1121 C1063 0.930 . S
H1122 C1064 0.930 . S
H1123 C1065 0.930 . S
H1124 C1067 0.930 . S
H1125 C1069 0.929 . S
H1126 C1070 0.930 . S
H1127 C1071 0.930 . S
H1128 C1074 0.930 . S
H1129 C1077 0.929 . S
H1130 C1082 0.929 . S
H1131 C1083 0.930 . S
H1132 C1090 0.929 . S
H1133 C1091 0.930 . S
H1134 C1092 0.930 . S
H1135 C1093 0.930 . S
H1136 C1095 0.929 . S
H1137 C1096 0.930 . S
H1138 C1097 0.930 . S
H1139 C1098 0.930 . S
H1140 C1102 0.929 . S
H1141 C1104 0.930 . S
H1142 C1110 0.929 . S
H1143 C1111 0.930 . S
Li1144 N1161 1.990 . S
Li1144 O1204 1.956 . S
Li1144 O1205 1.970 . S
Li1144 O1206 1.961 . S
Li1145 N1169 1.990 . S
Li1145 O1204 1.970 . S
Li1145 O1205 1.956 . S
Li1145 O1207 1.961 1_554 S
Li1146 N1191 1.990 1_554 S
Li1146 O1204 1.961 . S
Li1146 O1206 1.956 . S
Li1146 O1207 1.970 1_554 S
Li1147 N1197 1.990 . S
Li1147 O1205 1.961 . S
Li1147 O1206 1.970 . S
Li1147 O1207 1.956 1_554 S
C1148 C1150 1.348 . S
C1148 C1151 1.356 . S
C1148 O1204 1.325 . S
N1149 C1152 1.314 . S
N1149 C1153 1.279 . S
C1150 C1148 1.348 . S
C1150 C1152 1.353 . S
C1150 H1208 0.929 . S
C1151 C1148 1.356 . S
C1151 C1153 1.358 . S
C1151 H1209 0.930 . S
C1152 N1149 1.314 . S
C1152 C1150 1.353 . S
C1152 H1210 0.930 . S
C1153 N1149 1.279 . S
C1153 C1151 1.358 . S
C1153 H1211 0.930 . S
C1154 C1157 1.348 . S
C1154 C1158 1.356 . S
C1154 O1205 1.325 . S
C1155 N1156 1.279 . S
C1155 C1158 1.358 . S
C1155 H1212 0.930 . S
N1156 C1155 1.279 . S
N1156 C1159 1.314 . S
C1157 C1154 1.348 . S
C1157 C1159 1.353 . S
C1157 H1213 0.929 . S
C1158 C1154 1.356 . S
C1158 C1155 1.358 . S
C1158 H1214 0.930 . S
C1159 N1156 1.314 . S
C1159 C1157 1.353 . S
C1159 H1215 0.930 . S
C1160 N1161 1.314 . S
C1160 C1165 1.353 . S
C1160 H1166 0.930 . S
N1161 Li1144 1.990 . S
N1161 C1160 1.314 . S
N1161 C1163 1.279 . S
C1162 C1163 1.358 . S
C1162 C1164 1.356 . S
C1162 H1216 0.930 . S
C1163 N1161 1.279 . S
C1163 C1162 1.358 . S
C1163 H1167 0.930 . S
C1164 C1162 1.356 . S
C1164 C1165 1.348 . S
C1165 C1160 1.353 . S
C1165 C1164 1.348 . S
C1165 H1217 0.929 . S
H1166 C1160 0.930 . S
H1167 C1163 0.930 . S
C1168 N1169 1.314 . S
C1168 C1170 1.353 . S
C1168 H1174 0.930 1_554 S
N1169 Li1145 1.990 . S
N1169 C1168 1.314 . S
N1169 C1172 1.279 . S
C1170 C1168 1.353 . S
C1170 C1173 1.348 . S
C1170 H1218 0.929 1_554 S
C1171 C1172 1.358 . S
C1171 C1173 1.356 . S
C1171 H1219 0.930 . S
C1172 N1169 1.279 . S
C1172 C1171 1.358 . S
C1172 H1175 0.930 . S
C1173 C1170 1.348 . S
C1173 C1171 1.356 . S
H1174 C1168 0.930 1_556 S
H1175 C1172 0.930 . S
C1176 C1178 1.348 . S
C1176 C1179 1.356 . S
C1176 O1206 1.325 . S
N1177 C1180 1.314 . S
N1177 C1181 1.279 . S
C1178 C1176 1.348 . S
C1178 C1180 1.353 . S
C1178 H1220 0.929 . S
C1179 C1176 1.356 . S
C1179 C1181 1.358 . S
C1179 H1221 0.930 . S
C1180 N1177 1.314 . S
C1180 C1178 1.353 . S
C1180 H1222 0.930 . S
C1181 N1177 1.279 . S
C1181 C1179 1.358 . S
C1181 H1223 0.930 . S
C1182 C1183 1.348 . S
C1182 C1184 1.356 . S
C1182 O1207 1.325 . S
C1183 C1182 1.348 . S
C1183 C1185 1.353 . S
C1183 H1224 0.929 . S
C1184 C1182 1.356 . S
C1184 C1186 1.358 . S
C1184 H1225 0.930 . S
C1185 C1183 1.353 . S
C1185 N1187 1.314 . S
C1185 H1226 0.930 . S
C1186 C1184 1.358 . S
C1186 N1187 1.279 . S
C1186 H1227 0.930 . S
N1187 C1185 1.314 . S
N1187 C1186 1.279 . S
C1188 C1190 1.353 . S
C1188 N1191 1.314 . S
C1188 H1194 0.930 . S
C1189 N1191 1.279 . S
C1189 C1192 1.358 . S
C1189 H1195 0.930 . S
C1190 C1188 1.353 . S
C1190 C1193 1.348 . S
C1190 H1228 0.929 . S
N1191 Li1146 1.990 1_556 S
N1191 C1188 1.314 . S
N1191 C1189 1.279 . S
C1192 C1189 1.358 . S
C1192 C1193 1.356 . S
C1192 H1229 0.930 . S
C1193 C1190 1.348 . S
C1193 C1192 1.356 . S
H1194 C1188 0.930 . S
H1195 C1189 0.930 . S
C1196 N1197 1.314 . S
C1196 C1198 1.353 . S
C1196 H1202 0.930 . S
N1197 Li1147 1.990 . S
N1197 C1196 1.314 . S
N1197 C1200 1.251 1_554 S
C1198 C1196 1.353 . S
C1198 C1201 1.348 . S
C1198 H1230 0.929 . S
C1199 C1200 1.358 . S
C1199 C1201 1.356 1_556 S
C1199 H1231 0.930 . S
C1200 N1197 1.251 1_556 S
C1200 C1199 1.358 . S
C1200 H1203 0.963 . S
C1201 C1198 1.348 . S
C1201 C1199 1.356 1_554 S
H1202 C1196 0.930 . S
H1203 C1200 0.963 . S
O1204 Li1144 1.956 . S
O1204 Li1145 1.970 . S
O1204 Li1146 1.961 . S
O1204 C1148 1.325 . S
O1205 Li1144 1.970 . S
O1205 Li1145 1.956 . S
O1205 Li1147 1.961 . S
O1205 C1154 1.325 . S
O1206 Li1144 1.961 . S
O1206 Li1146 1.956 . S
O1206 Li1147 1.970 . S
O1206 C1176 1.325 . S
O1207 Li1145 1.961 1_556 S
O1207 Li1146 1.970 1_556 S
O1207 Li1147 1.956 1_556 S
O1207 C1182 1.325 . S
H1208 C1150 0.929 . S
H1209 C1151 0.930 . S
H1210 C1152 0.930 . S
H1211 C1153 0.930 . S
H1212 C1155 0.930 . S
H1213 C1157 0.929 . S
H1214 C1158 0.930 . S
H1215 C1159 0.930 . S
H1216 C1162 0.930 . S
H1217 C1165 0.929 . S
H1218 C1170 0.929 1_556 S
H1219 C1171 0.930 . S
H1220 C1178 0.929 . S
H1221 C1179 0.930 . S
H1222 C1180 0.930 . S
H1223 C1181 0.930 . S
H1224 C1183 0.929 . S
H1225 C1184 0.930 . S
H1226 C1185 0.930 . S
H1227 C1186 0.930 . S
H1228 C1190 0.929 . S
H1229 C1192 0.930 . S
H1230 C1198 0.929 . S
H1231 C1199 0.930 . S
Li1232 N1249 1.990 . S
Li1232 O1292 1.956 . S
Li1232 O1293 1.970 . S
Li1232 O1294 1.961 . S
Li1233 N1257 1.990 . S
Li1233 O1292 1.970 . S
Li1233 O1293 1.956 . S
Li1233 O1295 1.961 . S
Li1234 N1279 1.990 . S
Li1234 O1292 1.961 . S
Li1234 O1294 1.956 . S
Li1234 O1295 1.970 . S
Li1235 N1285 1.990 . S
Li1235 O1293 1.961 . S
Li1235 O1294 1.970 . S
Li1235 O1295 1.956 . S
C1236 C1238 1.348 . S
C1236 C1239 1.356 . S
C1236 O1292 1.325 . S
N1237 C1240 1.314 . S
N1237 C1241 1.279 . S
C1238 C1236 1.348 . S
C1238 C1240 1.353 . S
C1238 H1296 0.929 . S
C1239 C1236 1.356 . S
C1239 C1241 1.358 . S
C1239 H1297 0.930 . S
C1240 N1237 1.314 . S
C1240 C1238 1.353 . S
C1240 H1298 0.930 . S
C1241 N1237 1.279 . S
C1241 C1239 1.358 . S
C1241 H1299 0.930 . S
C1242 C1245 1.348 . S
C1242 C1246 1.356 . S
C1242 O1293 1.325 . S
C1243 N1244 1.279 . S
C1243 C1246 1.358 . S
C1243 H1300 0.930 . S
N1244 C1243 1.279 . S
N1244 C1247 1.314 . S
C1245 C1242 1.348 . S
C1245 C1247 1.353 . S
C1245 H1301 0.929 . S
C1246 C1242 1.356 . S
C1246 C1243 1.358 . S
C1246 H1302 0.930 . S
C1247 N1244 1.314 . S
C1247 C1245 1.353 . S
C1247 H1303 0.930 . S
C1248 N1249 1.314 . S
C1248 C1253 1.353 . S
C1248 H1254 0.930 . S
N1249 Li1232 1.990 . S
N1249 C1248 1.314 . S
N1249 C1251 1.279 . S
C1250 C1251 1.358 . S
C1250 C1252 1.356 . S
C1250 H1304 0.930 . S
C1251 N1249 1.279 . S
C1251 C1250 1.358 . S
C1251 H1255 0.930 . S
C1252 C1250 1.356 . S
C1252 C1253 1.348 . S
C1253 C1248 1.353 . S
C1253 C1252 1.348 . S
C1253 H1305 0.929 . S
H1254 C1248 0.930 . S
H1255 C1251 0.930 . S
C1256 N1257 1.314 . S
C1256 C1258 1.353 . S
C1256 H1262 0.930 . S
N1257 Li1233 1.990 . S
N1257 C1256 1.314 . S
N1257 C1260 1.279 . S
C1258 C1256 1.353 . S
C1258 C1261 1.348 . S
C1258 H1306 0.929 . S
C1259 C1260 1.358 . S
C1259 C1261 1.356 . S
C1259 H1307 0.930 . S
C1260 N1257 1.279 . S
C1260 C1259 1.358 . S
C1260 H1263 0.930 . S
C1261 C1258 1.348 . S
C1261 C1259 1.356 . S
H1262 C1256 0.930 . S
H1263 C1260 0.930 . S
C1264 C1266 1.348 . S
C1264 C1267 1.356 . S
C1264 O1294 1.325 . S
N1265 C1268 1.314 . S
N1265 C1269 1.279 . S
C1266 C1264 1.348 . S
C1266 C1268 1.353 . S
C1266 H1308 0.929 . S
C1267 C1264 1.356 . S
C1267 C1269 1.358 . S
C1267 H1309 0.930 . S
C1268 N1265 1.314 . S
C1268 C1266 1.353 . S
C1268 H1310 0.930 . S
C1269 N1265 1.279 . S
C1269 C1267 1.358 . S
C1269 H1311 0.930 . S
C1270 C1271 1.348 . S
C1270 C1272 1.356 . S
C1270 O1295 1.325 . S
C1271 C1270 1.348 . S
C1271 C1273 1.353 . S
C1271 H1312 0.929 . S
C1272 C1270 1.356 . S
C1272 C1274 1.358 . S
C1272 H1313 0.930 . S
C1273 C1271 1.353 . S
C1273 N1275 1.314 . S
C1273 H1314 0.930 . S
C1274 C1272 1.358 . S
C1274 N1275 1.279 . S
C1274 H1315 0.930 . S
N1275 C1273 1.314 . S
N1275 C1274 1.279 . S
C1276 C1278 1.353 . S
C1276 N1279 1.314 . S
C1276 H1282 0.930 . S
C1277 N1279 1.279 . S
C1277 C1280 1.358 . S
C1277 H1283 0.930 . S
C1278 C1276 1.353 . S
C1278 C1281 1.348 . S
C1278 H1316 0.929 . S
N1279 Li1234 1.990 . S
N1279 C1276 1.314 . S
N1279 C1277 1.279 . S
C1280 C1277 1.358 . S
C1280 C1281 1.356 . S
C1280 H1317 0.930 . S
C1281 C1278 1.348 . S
C1281 C1280 1.356 . S
H1282 C1276 0.930 . S
H1283 C1277 0.930 . S
C1284 N1285 1.314 . S
C1284 C1286 1.353 . S
C1284 H1290 0.930 . S
N1285 Li1235 1.990 . S
N1285 C1284 1.314 . S
N1285 C1288 1.279 . S
C1286 C1284 1.353 . S
C1286 C1289 1.348 . S
C1286 H1318 0.929 . S
C1287 C1288 1.358 . S
C1287 C1289 1.356 . S
C1287 H1319 0.930 . S
C1288 N1285 1.279 . S
C1288 C1287 1.358 . S
C1288 H1291 0.930 . S
C1289 C1286 1.348 . S
C1289 C1287 1.356 . S
H1290 C1284 0.930 . S
H1291 C1288 0.930 . S
O1292 Li1232 1.956 . S
O1292 Li1233 1.970 . S
O1292 Li1234 1.961 . S
O1292 C1236 1.325 . S
O1293 Li1232 1.970 . S
O1293 Li1233 1.956 . S
O1293 Li1235 1.961 . S
O1293 C1242 1.325 . S
O1294 Li1232 1.961 . S
O1294 Li1234 1.956 . S
O1294 Li1235 1.970 . S
O1294 C1264 1.325 . S
O1295 Li1233 1.961 . S
O1295 Li1234 1.970 . S
O1295 Li1235 1.956 . S
O1295 C1270 1.325 . S
H1296 C1238 0.929 . S
H1297 C1239 0.930 . S
H1298 C1240 0.930 . S
H1299 C1241 0.930 . S
H1300 C1243 0.930 . S
H1301 C1245 0.929 . S
H1302 C1246 0.930 . S
H1303 C1247 0.930 . S
H1304 C1250 0.930 . S
H1305 C1253 0.929 . S
H1306 C1258 0.929 . S
H1307 C1259 0.930 . S
H1308 C1266 0.929 . S
H1309 C1267 0.930 . S
H1310 C1268 0.930 . S
H1311 C1269 0.930 . S
H1312 C1271 0.929 . S
H1313 C1272 0.930 . S
H1314 C1273 0.930 . S
H1315 C1274 0.930 . S
H1316 C1278 0.929 . S
H1317 C1280 0.930 . S
H1318 C1286 0.929 . S
H1319 C1287 0.930 . S
Li1320 N1337 1.990 . S
Li1320 O1380 1.956 . S
Li1320 O1381 1.970 . S
Li1320 O1382 1.961 . S
Li1321 N1345 1.990 . S
Li1321 O1380 1.970 . S
Li1321 O1381 1.956 . S
Li1321 O1383 1.961 . S
Li1322 N1367 1.990 . S
Li1322 O1380 1.961 . S
Li1322 O1382 1.956 . S
Li1322 O1383 1.970 . S
Li1323 N1373 1.990 . S
Li1323 O1381 1.961 . S
Li1323 O1382 1.970 . S
Li1323 O1383 1.956 . S
C1324 C1326 1.348 . S
C1324 C1327 1.356 . S
C1324 O1380 1.325 . S
N1325 C1328 1.314 . S
N1325 C1329 1.279 . S
C1326 C1324 1.348 . S
C1326 C1328 1.353 . S
C1326 H1384 0.929 . S
C1327 C1324 1.356 . S
C1327 C1329 1.358 . S
C1327 H1385 0.930 . S
C1328 N1325 1.314 . S
C1328 C1326 1.353 . S
C1328 H1386 0.930 . S
C1329 N1325 1.279 . S
C1329 C1327 1.358 . S
C1329 H1387 0.930 . S
C1330 C1333 1.348 . S
C1330 C1334 1.356 . S
C1330 O1381 1.325 . S
C1331 N1332 1.279 . S
C1331 C1334 1.358 . S
C1331 H1388 0.930 . S
N1332 C1331 1.279 . S
N1332 C1335 1.314 . S
C1333 C1330 1.348 . S
C1333 C1335 1.353 . S
C1333 H1389 0.929 . S
C1334 C1330 1.356 . S
C1334 C1331 1.358 . S
C1334 H1390 0.930 . S
C1335 N1332 1.314 . S
C1335 C1333 1.353 . S
C1335 H1391 0.930 . S
C1336 N1337 1.314 . S
C1336 C1341 1.353 . S
C1336 H1342 0.930 . S
N1337 Li1320 1.990 . S
N1337 C1336 1.314 . S
N1337 C1339 1.279 . S
C1338 C1339 1.358 . S
C1338 C1340 1.356 . S
C1338 H1392 0.930 . S
C1339 N1337 1.279 . S
C1339 C1338 1.358 . S
C1339 H1343 0.930 . S
C1340 C1338 1.356 . S
C1340 C1341 1.348 . S
C1341 C1336 1.353 . S
C1341 C1340 1.348 . S
C1341 H1393 0.929 . S
H1342 C1336 0.930 . S
H1343 C1339 0.930 . S
C1344 N1345 1.314 . S
C1344 C1346 1.353 . S
C1344 H1350 0.930 . S
N1345 Li1321 1.990 . S
N1345 C1344 1.314 . S
N1345 C1348 1.279 . S
C1346 C1344 1.353 . S
C1346 C1349 1.348 . S
C1346 H1394 0.929 . S
C1347 C1348 1.358 . S
C1347 C1349 1.356 . S
C1347 H1395 0.930 . S
C1348 N1345 1.279 . S
C1348 C1347 1.358 . S
C1348 H1351 0.930 . S
C1349 C1346 1.348 . S
C1349 C1347 1.356 . S
H1350 C1344 0.930 . S
H1351 C1348 0.930 . S
C1352 C1354 1.348 . S
C1352 C1355 1.356 . S
C1352 O1382 1.325 . S
N1353 C1356 1.314 . S
N1353 C1357 1.279 . S
C1354 C1352 1.348 . S
C1354 C1356 1.353 . S
C1354 H1396 0.929 . S
C1355 C1352 1.356 . S
C1355 C1357 1.358 . S
C1355 H1397 0.930 . S
C1356 N1353 1.314 . S
C1356 C1354 1.353 . S
C1356 H1398 0.930 . S
C1357 N1353 1.279 . S
C1357 C1355 1.358 . S
C1357 H1399 0.930 . S
C1358 C1359 1.348 . S
C1358 C1360 1.356 . S
C1358 O1383 1.325 . S
C1359 C1358 1.348 . S
C1359 C1361 1.353 . S
C1359 H1400 0.929 . S
C1360 C1358 1.356 . S
C1360 C1362 1.358 . S
C1360 H1401 0.930 . S
C1361 C1359 1.353 . S
C1361 N1363 1.314 . S
C1361 H1402 0.930 . S
C1362 C1360 1.358 . S
C1362 N1363 1.279 . S
C1362 H1403 0.930 . S
N1363 C1361 1.314 . S
N1363 C1362 1.279 . S
C1364 C1366 1.353 . S
C1364 N1367 1.314 . S
C1364 H1370 0.930 . S
C1365 N1367 1.279 . S
C1365 C1368 1.358 . S
C1365 H1371 0.930 . S
C1366 C1364 1.353 . S
C1366 C1369 1.348 . S
C1366 H1404 0.929 . S
N1367 Li1322 1.990 . S
N1367 C1364 1.314 . S
N1367 C1365 1.279 . S
C1368 C1365 1.358 . S
C1368 C1369 1.356 . S
C1368 H1405 0.930 . S
C1369 C1366 1.348 . S
C1369 C1368 1.356 . S
H1370 C1364 0.930 . S
H1371 C1365 0.930 . S
C1372 N1373 1.314 . S
C1372 C1374 1.353 . S
C1372 H1378 0.930 . S
N1373 Li1323 1.990 . S
N1373 C1372 1.314 . S
N1373 C1376 1.279 . S
C1374 C1372 1.353 . S
C1374 C1377 1.348 . S
C1374 H1406 0.929 . S
C1375 C1376 1.358 . S
C1375 C1377 1.356 . S
C1375 H1407 0.930 . S
C1376 N1373 1.279 . S
C1376 C1375 1.358 . S
C1376 H1379 0.930 . S
C1377 C1374 1.348 . S
C1377 C1375 1.356 . S
H1378 C1372 0.930 . S
H1379 C1376 0.930 . S
O1380 Li1320 1.956 . S
O1380 Li1321 1.970 . S
O1380 Li1322 1.961 . S
O1380 C1324 1.325 . S
O1381 Li1320 1.970 . S
O1381 Li1321 1.956 . S
O1381 Li1323 1.961 . S
O1381 C1330 1.325 . S
O1382 Li1320 1.961 . S
O1382 Li1322 1.956 . S
O1382 Li1323 1.970 . S
O1382 C1352 1.325 . S
O1383 Li1321 1.961 . S
O1383 Li1322 1.970 . S
O1383 Li1323 1.956 . S
O1383 C1358 1.325 . S
H1384 C1326 0.929 . S
H1385 C1327 0.930 . S
H1386 C1328 0.930 . S
H1387 C1329 0.930 . S
H1388 C1331 0.930 . S
H1389 C1333 0.929 . S
H1390 C1334 0.930 . S
H1391 C1335 0.930 . S
H1392 C1338 0.930 . S
H1393 C1341 0.929 . S
H1394 C1346 0.929 . S
H1395 C1347 0.930 . S
H1396 C1354 0.929 . S
H1397 C1355 0.930 . S
H1398 C1356 0.930 . S
H1399 C1357 0.930 . S
H1400 C1359 0.929 . S
H1401 C1360 0.930 . S
H1402 C1361 0.930 . S
H1403 C1362 0.930 . S
H1404 C1366 0.929 . S
H1405 C1368 0.930 . S
H1406 C1374 0.929 . S
H1407 C1375 0.930 . S
Li1408 N1425 1.990 . S
Li1408 O1468 1.956 1_545 S
Li1408 O1469 1.970 . S
Li1408 O1470 1.961 . S
Li1409 N1433 1.990 . S
Li1409 O1468 1.970 . S
Li1409 O1469 1.956 1_565 S
Li1409 O1471 1.961 1_565 S
Li1410 N1455 1.990 . S
Li1410 O1468 1.961 1_545 S
Li1410 O1470 1.956 . S
Li1410 O1471 1.970 . S
Li1411 N1461 1.990 . S
Li1411 O1469 1.961 . S
Li1411 O1470 1.970 . S
Li1411 O1471 1.956 . S
C1412 C1414 1.348 . S
C1412 C1415 1.356 . S
C1412 O1468 1.325 . S
N1413 C1416 1.314 . S
N1413 C1417 1.279 . S
C1414 C1412 1.348 . S
C1414 C1416 1.353 . S
C1414 H1472 0.929 . S
C1415 C1412 1.356 . S
C1415 C1417 1.358 . S
C1415 H1473 0.930 . S
C1416 N1413 1.314 . S
C1416 C1414 1.353 . S
C1416 H1474 0.930 . S
C1417 N1413 1.279 . S
C1417 C1415 1.358 . S
C1417 H1475 0.930 . S
C1418 C1421 1.348 . S
C1418 C1422 1.356 . S
C1418 O1469 1.325 . S
C1419 N1420 1.279 . S
C1419 C1422 1.358 . S
C1419 H1476 0.930 . S
N1420 C1419 1.279 . S
N1420 C1423 1.314 . S
C1421 C1418 1.348 . S
C1421 C1423 1.353 . S
C1421 H1477 0.929 . S
C1422 C1418 1.356 . S
C1422 C1419 1.358 . S
C1422 H1478 0.930 . S
C1423 N1420 1.314 . S
C1423 C1421 1.353 . S
C1423 H1479 0.930 . S
C1424 N1425 1.314 . S
C1424 C1429 1.353 . S
C1424 H1430 0.930 . S
N1425 Li1408 1.990 . S
N1425 C1424 1.314 . S
N1425 C1427 1.279 . S
C1426 C1427 1.358 . S
C1426 C1428 1.356 . S
C1426 H1480 0.930 1_545 S
C1427 N1425 1.279 . S
C1427 C1426 1.358 . S
C1427 H1431 0.930 1_545 S
C1428 C1426 1.356 . S
C1428 C1429 1.348 . S
C1429 C1424 1.353 . S
C1429 C1428 1.348 . S
C1429 H1481 0.929 . S
H1430 C1424 0.930 . S
H1431 C1427 0.930 1_565 S
C1432 N1433 1.314 . S
C1432 C1434 1.353 . S
C1432 H1438 0.930 . S
N1433 Li1409 1.990 . S
N1433 C1432 1.314 . S
N1433 C1436 1.279 . S
C1434 C1432 1.353 . S
C1434 C1437 1.348 . S
C1434 H1482 0.929 . S
C1435 C1436 1.358 . S
C1435 C1437 1.356 . S
C1435 H1483 0.930 . S
C1436 N1433 1.279 . S
C1436 C1435 1.358 . S
C1436 H1439 0.930 . S
C1437 C1434 1.348 . S
C1437 C1435 1.356 . S
H1438 C1432 0.930 . S
H1439 C1436 0.930 . S
C1440 C1442 1.348 . S
C1440 C1443 1.356 . S
C1440 O1470 1.325 . S
N1441 C1444 1.314 . S
N1441 C1445 1.279 . S
C1442 C1440 1.348 . S
C1442 C1444 1.353 . S
C1442 H1484 0.929 . S
C1443 C1440 1.356 . S
C1443 C1445 1.358 . S
C1443 H1485 0.930 . S
C1444 N1441 1.314 . S
C1444 C1442 1.353 . S
C1444 H1486 0.930 . S
C1445 N1441 1.279 . S
C1445 C1443 1.358 . S
C1445 H1487 0.930 . S
C1446 C1447 1.348 . S
C1446 C1448 1.356 . S
C1446 O1471 1.325 . S
C1447 C1446 1.348 . S
C1447 C1449 1.353 . S
C1447 H1488 0.929 . S
C1448 C1446 1.356 . S
C1448 C1450 1.358 . S
C1448 H1489 0.930 . S
C1449 C1447 1.353 . S
C1449 N1451 1.314 . S
C1449 H1490 0.930 . S
C1450 C1448 1.358 . S
C1450 N1451 1.279 . S
C1450 H1491 0.930 1_545 S
N1451 C1449 1.314 . S
N1451 C1450 1.279 . S
C1452 C1454 1.350 1_545 S
C1452 N1455 1.340 . S
C1452 H1458 0.903 1_545 S
C1453 N1455 1.279 . S
C1453 C1456 1.358 . S
C1453 H1459 0.930 . S
C1454 C1452 1.350 1_565 S
C1454 C1457 1.326 1_565 S
C1454 H1492 0.953 . S
N1455 Li1410 1.990 . S
N1455 C1452 1.340 . S
N1455 C1453 1.279 . S
C1456 C1453 1.358 . S
C1456 C1457 1.356 . S
C1456 H1493 0.930 . S
C1457 C1454 1.326 1_545 S
C1457 C1456 1.356 . S
H1458 C1452 0.903 1_565 S
H1459 C1453 0.930 . S
C1460 N1461 1.314 . S
C1460 C1462 1.353 . S
C1460 H1466 0.930 . S
N1461 Li1411 1.990 . S
N1461 C1460 1.314 . S
N1461 C1464 1.279 . S
C1462 C1460 1.353 . S
C1462 C1465 1.348 . S
C1462 H1494 0.929 . S
C1463 C1464 1.358 . S
C1463 C1465 1.356 . S
C1463 H1495 0.930 . S
C1464 N1461 1.279 . S
C1464 C1463 1.358 . S
C1464 H1467 0.930 . S
C1465 C1462 1.348 . S
C1465 C1463 1.356 . S
H1466 C1460 0.930 . S
H1467 C1464 0.930 . S
O1468 Li1408 1.956 1_565 S
O1468 Li1409 1.970 . S
O1468 Li1410 1.961 1_565 S
O1468 C1412 1.325 . S
O1469 Li1408 1.970 . S
O1469 Li1409 1.956 1_545 S
O1469 Li1411 1.961 . S
O1469 C1418 1.325 . S
O1470 Li1408 1.961 . S
O1470 Li1410 1.956 . S
O1470 Li1411 1.970 . S
O1470 C1440 1.325 . S
O1471 Li1409 1.961 1_545 S
O1471 Li1410 1.970 . S
O1471 Li1411 1.956 . S
O1471 C1446 1.325 . S
H1472 C1414 0.929 . S
H1473 C1415 0.930 . S
H1474 C1416 0.930 . S
H1475 C1417 0.930 . S
H1476 C1419 0.930 . S
H1477 C1421 0.929 . S
H1478 C1422 0.930 . S
H1479 C1423 0.930 . S
H1480 C1426 0.930 1_565 S
H1481 C1429 0.929 . S
H1482 C1434 0.929 . S
H1483 C1435 0.930 . S
H1484 C1442 0.929 . S
H1485 C1443 0.930 . S
H1486 C1444 0.930 . S
H1487 C1445 0.930 . S
H1488 C1447 0.929 . S
H1489 C1448 0.930 . S
H1490 C1449 0.930 . S
H1491 C1450 0.930 1_565 S
H1492 C1454 0.953 . S
H1493 C1456 0.930 . S
H1494 C1462 0.929 . S
H1495 C1463 0.930 . S
Li1496 N1513 1.990 . S
Li1496 O1556 1.956 . S
Li1496 O1557 1.970 . S
Li1496 O1558 1.961 . S
Li1497 N1521 1.990 . S
Li1497 O1556 1.970 . S
Li1497 O1557 1.956 . S
Li1497 O1559 1.961 . S
Li1498 N1543 1.990 . S
Li1498 O1556 1.961 . S
Li1498 O1558 1.956 . S
Li1498 O1559 1.970 . S
Li1499 N1549 1.990 . S
Li1499 O1557 1.961 . S
Li1499 O1558 1.970 . S
Li1499 O1559 1.956 . S
C1500 C1502 1.348 . S
C1500 C1503 1.356 . S
C1500 O1556 1.325 . S
N1501 C1504 1.314 . S
N1501 C1505 1.279 . S
C1502 C1500 1.348 . S
C1502 C1504 1.353 . S
C1502 H1560 0.929 . S
C1503 C1500 1.356 . S
C1503 C1505 1.358 . S
C1503 H1561 0.930 . S
C1504 N1501 1.314 . S
C1504 C1502 1.353 . S
C1504 H1562 0.930 . S
C1505 N1501 1.279 . S
C1505 C1503 1.358 . S
C1505 H1563 0.930 . S
C1506 C1509 1.348 . S
C1506 C1510 1.356 . S
C1506 O1557 1.325 . S
C1507 N1508 1.279 . S
C1507 C1510 1.358 . S
C1507 H1564 0.930 . S
N1508 C1507 1.279 . S
N1508 C1511 1.314 . S
C1509 C1506 1.348 . S
C1509 C1511 1.353 . S
C1509 H1565 0.929 . S
C1510 C1506 1.356 . S
C1510 C1507 1.358 . S
C1510 H1566 0.930 . S
C1511 N1508 1.314 . S
C1511 C1509 1.353 . S
C1511 H1567 0.930 . S
C1512 N1513 1.314 . S
C1512 C1517 1.353 . S
C1512 H1518 0.930 . S
N1513 Li1496 1.990 . S
N1513 C1512 1.314 . S
N1513 C1515 1.279 . S
C1514 C1515 1.358 . S
C1514 C1516 1.356 . S
C1514 H1568 0.930 . S
C1515 N1513 1.279 . S
C1515 C1514 1.358 . S
C1515 H1519 0.930 . S
C1516 C1514 1.356 . S
C1516 C1517 1.348 . S
C1517 C1512 1.353 . S
C1517 C1516 1.348 . S
C1517 H1569 0.929 . S
H1518 C1512 0.930 . S
H1519 C1515 0.930 . S
C1520 N1521 1.314 . S
C1520 C1522 1.353 . S
C1520 H1526 0.930 . S
N1521 Li1497 1.990 . S
N1521 C1520 1.314 . S
N1521 C1524 1.279 . S
C1522 C1520 1.353 . S
C1522 C1525 1.348 . S
C1522 H1570 0.929 . S
C1523 C1524 1.358 . S
C1523 C1525 1.356 . S
C1523 H1571 0.930 . S
C1524 N1521 1.279 . S
C1524 C1523 1.358 . S
C1524 H1527 0.930 . S
C1525 C1522 1.348 . S
C1525 C1523 1.356 . S
H1526 C1520 0.930 . S
H1527 C1524 0.930 . S
C1528 C1530 1.348 . S
C1528 C1531 1.356 . S
C1528 O1558 1.325 . S
N1529 C1532 1.314 . S
N1529 C1533 1.279 . S
C1530 C1528 1.348 . S
C1530 C1532 1.353 . S
C1530 H1572 0.929 . S
C1531 C1528 1.356 . S
C1531 C1533 1.358 . S
C1531 H1573 0.930 . S
C1532 N1529 1.314 . S
C1532 C1530 1.353 . S
C1532 H1574 0.930 . S
C1533 N1529 1.279 . S
C1533 C1531 1.358 . S
C1533 H1575 0.930 . S
C1534 C1535 1.348 . S
C1534 C1536 1.356 . S
C1534 O1559 1.325 . S
C1535 C1534 1.348 . S
C1535 C1537 1.353 . S
C1535 H1576 0.929 . S
C1536 C1534 1.356 . S
C1536 C1538 1.358 . S
C1536 H1577 0.930 . S
C1537 C1535 1.353 . S
C1537 N1539 1.314 . S
C1537 H1578 0.930 . S
C1538 C1536 1.358 . S
C1538 N1539 1.279 . S
C1538 H1579 0.930 . S
N1539 C1537 1.314 . S
N1539 C1538 1.279 . S
C1540 C1542 1.353 . S
C1540 N1543 1.314 . S
C1540 H1546 0.930 . S
C1541 N1543 1.279 . S
C1541 C1544 1.358 . S
C1541 H1547 0.930 . S
C1542 C1540 1.353 . S
C1542 C1545 1.348 . S
C1542 H1580 0.929 . S
N1543 Li1498 1.990 . S
N1543 C1540 1.314 . S
N1543 C1541 1.279 . S
C1544 C1541 1.358 . S
C1544 C1545 1.356 . S
C1544 H1581 0.930 . S
C1545 C1542 1.348 . S
C1545 C1544 1.356 . S
H1546 C1540 0.930 . S
H1547 C1541 0.930 . S
C1548 N1549 1.314 . S
C1548 C1550 1.353 . S
C1548 H1554 0.930 . S
N1549 Li1499 1.990 . S
N1549 C1548 1.314 . S
N1549 C1552 1.279 . S
C1550 C1548 1.353 . S
C1550 C1553 1.348 . S
C1550 H1582 0.929 . S
C1551 C1552 1.358 . S
C1551 C1553 1.356 . S
C1551 H1583 0.930 . S
C1552 N1549 1.279 . S
C1552 C1551 1.358 . S
C1552 H1555 0.930 . S
C1553 C1550 1.348 . S
C1553 C1551 1.356 . S
H1554 C1548 0.930 . S
H1555 C1552 0.930 . S
O1556 Li1496 1.956 . S
O1556 Li1497 1.970 . S
O1556 Li1498 1.961 . S
O1556 C1500 1.325 . S
O1557 Li1496 1.970 . S
O1557 Li1497 1.956 . S
O1557 Li1499 1.961 . S
O1557 C1506 1.325 . S
O1558 Li1496 1.961 . S
O1558 Li1498 1.956 . S
O1558 Li1499 1.970 . S
O1558 C1528 1.325 . S
O1559 Li1497 1.961 . S
O1559 Li1498 1.970 . S
O1559 Li1499 1.956 . S
O1559 C1534 1.325 . S
H1560 C1502 0.929 . S
H1561 C1503 0.930 . S
H1562 C1504 0.930 . S
H1563 C1505 0.930 . S
H1564 C1507 0.930 . S
H1565 C1509 0.929 . S
H1566 C1510 0.930 . S
H1567 C1511 0.930 . S
H1568 C1514 0.930 . S
H1569 C1517 0.929 . S
H1570 C1522 0.929 . S
H1571 C1523 0.930 . S
H1572 C1530 0.929 . S
H1573 C1531 0.930 . S
H1574 C1532 0.930 . S
H1575 C1533 0.930 . S
H1576 C1535 0.929 . S
H1577 C1536 0.930 . S
H1578 C1537 0.930 . S
H1579 C1538 0.930 . S
H1580 C1542 0.929 . S
H1581 C1544 0.930 . S
H1582 C1550 0.929 . S
H1583 C1551 0.930 . S
Li1584 N1601 1.990 . S
Li1584 O1644 1.956 . S
Li1584 O1645 1.970 . S
Li1584 O1646 1.961 . S
Li1585 N1609 1.990 . S
Li1585 O1644 1.970 . S
Li1585 O1645 1.956 . S
Li1585 O1647 1.961 . S
Li1586 N1631 1.990 . S
Li1586 O1644 1.961 . S
Li1586 O1646 1.956 . S
Li1586 O1647 1.970 . S
Li1587 N1637 1.990 . S
Li1587 O1645 1.961 . S
Li1587 O1646 1.970 . S
Li1587 O1647 1.956 . S
C1588 C1590 1.348 . S
C1588 C1591 1.356 . S
C1588 O1644 1.325 . S
N1589 C1592 1.314 . S
N1589 C1593 1.279 . S
C1590 C1588 1.348 . S
C1590 C1592 1.353 . S
C1590 H1648 0.929 . S
C1591 C1588 1.356 . S
C1591 C1593 1.358 . S
C1591 H1649 0.930 . S
C1592 N1589 1.314 . S
C1592 C1590 1.353 . S
C1592 H1650 0.930 . S
C1593 N1589 1.279 . S
C1593 C1591 1.358 . S
C1593 H1651 0.930 . S
C1594 C1597 1.348 . S
C1594 C1598 1.356 . S
C1594 O1645 1.325 . S
C1595 N1596 1.279 . S
C1595 C1598 1.358 . S
C1595 H1652 0.930 . S
N1596 C1595 1.279 . S
N1596 C1599 1.314 . S
C1597 C1594 1.348 . S
C1597 C1599 1.353 . S
C1597 H1653 0.929 . S
C1598 C1594 1.356 . S
C1598 C1595 1.358 . S
C1598 H1654 0.930 . S
C1599 N1596 1.314 . S
C1599 C1597 1.353 . S
C1599 H1655 0.930 . S
C1600 N1601 1.314 . S
C1600 C1605 1.353 . S
C1600 H1606 0.930 . S
N1601 Li1584 1.990 . S
N1601 C1600 1.314 . S
N1601 C1603 1.279 . S
C1602 C1603 1.358 . S
C1602 C1604 1.356 . S
C1602 H1656 0.930 . S
C1603 N1601 1.279 . S
C1603 C1602 1.358 . S
C1603 H1607 0.930 . S
C1604 C1602 1.356 . S
C1604 C1605 1.348 . S
C1605 C1600 1.353 . S
C1605 C1604 1.348 . S
C1605 H1657 0.929 . S
H1606 C1600 0.930 . S
H1607 C1603 0.930 . S
C1608 N1609 1.314 . S
C1608 C1610 1.353 . S
C1608 H1614 0.930 . S
N1609 Li1585 1.990 . S
N1609 C1608 1.314 . S
N1609 C1612 1.279 . S
C1610 C1608 1.353 . S
C1610 C1613 1.348 . S
C1610 H1658 0.929 . S
C1611 C1612 1.358 . S
C1611 C1613 1.356 . S
C1611 H1659 0.930 . S
C1612 N1609 1.279 . S
C1612 C1611 1.358 . S
C1612 H1615 0.930 . S
C1613 C1610 1.348 . S
C1613 C1611 1.356 . S
H1614 C1608 0.930 . S
H1615 C1612 0.930 . S
C1616 C1618 1.348 . S
C1616 C1619 1.356 . S
C1616 O1646 1.325 . S
N1617 C1620 1.314 . S
N1617 C1621 1.279 . S
C1618 C1616 1.348 . S
C1618 C1620 1.353 . S
C1618 H1660 0.929 . S
C1619 C1616 1.356 . S
C1619 C1621 1.358 . S
C1619 H1661 0.930 . S
C1620 N1617 1.314 . S
C1620 C1618 1.353 . S
C1620 H1662 0.930 . S
C1621 N1617 1.279 . S
C1621 C1619 1.358 . S
C1621 H1663 0.930 . S
C1622 C1623 1.348 . S
C1622 C1624 1.356 . S
C1622 O1647 1.325 . S
C1623 C1622 1.348 . S
C1623 C1625 1.353 . S
C1623 H1664 0.929 . S
C1624 C1622 1.356 . S
C1624 C1626 1.358 . S
C1624 H1665 0.930 . S
C1625 C1623 1.353 . S
C1625 N1627 1.314 . S
C1625 H1666 0.930 . S
C1626 C1624 1.358 . S
C1626 N1627 1.279 . S
C1626 H1667 0.930 . S
N1627 C1625 1.314 . S
N1627 C1626 1.279 . S
C1628 C1630 1.353 . S
C1628 N1631 1.314 . S
C1628 H1634 0.930 . S
C1629 N1631 1.279 . S
C1629 C1632 1.358 . S
C1629 H1635 0.930 . S
C1630 C1628 1.353 . S
C1630 C1633 1.348 . S
C1630 H1668 0.929 . S
N1631 Li1586 1.990 . S
N1631 C1628 1.314 . S
N1631 C1629 1.279 . S
C1632 C1629 1.358 . S
C1632 C1633 1.356 . S
C1632 H1669 0.930 . S
C1633 C1630 1.348 . S
C1633 C1632 1.356 . S
H1634 C1628 0.930 . S
H1635 C1629 0.930 . S
C1636 N1637 1.314 . S
C1636 C1638 1.353 . S
C1636 H1642 0.930 . S
N1637 Li1587 1.990 . S
N1637 C1636 1.314 . S
N1637 C1640 1.279 . S
C1638 C1636 1.353 . S
C1638 C1641 1.348 . S
C1638 H1670 0.929 . S
C1639 C1640 1.358 . S
C1639 C1641 1.356 . S
C1639 H1671 0.930 . S
C1640 N1637 1.279 . S
C1640 C1639 1.358 . S
C1640 H1643 0.930 . S
C1641 C1638 1.348 . S
C1641 C1639 1.356 . S
H1642 C1636 0.930 . S
H1643 C1640 0.930 . S
O1644 Li1584 1.956 . S
O1644 Li1585 1.970 . S
O1644 Li1586 1.961 . S
O1644 C1588 1.325 . S
O1645 Li1584 1.970 . S
O1645 Li1585 1.956 . S
O1645 Li1587 1.961 . S
O1645 C1594 1.325 . S
O1646 Li1584 1.961 . S
O1646 Li1586 1.956 . S
O1646 Li1587 1.970 . S
O1646 C1616 1.325 . S
O1647 Li1585 1.961 . S
O1647 Li1586 1.970 . S
O1647 Li1587 1.956 . S
O1647 C1622 1.325 . S
H1648 C1590 0.929 . S
H1649 C1591 0.930 . S
H1650 C1592 0.930 . S
H1651 C1593 0.930 . S
H1652 C1595 0.930 . S
H1653 C1597 0.929 . S
H1654 C1598 0.930 . S
H1655 C1599 0.930 . S
H1656 C1602 0.930 . S
H1657 C1605 0.929 . S
H1658 C1610 0.929 . S
H1659 C1611 0.930 . S
H1660 C1618 0.929 . S
H1661 C1619 0.930 . S
H1662 C1620 0.930 . S
H1663 C1621 0.930 . S
H1664 C1623 0.929 . S
H1665 C1624 0.930 . S
H1666 C1625 0.930 . S
H1667 C1626 0.930 . S
H1668 C1630 0.929 . S
H1669 C1632 0.930 . S
H1670 C1638 0.929 . S
H1671 C1639 0.930 . S
Li1672 N1689 1.991 1_545 S
Li1672 O1732 1.954 . S
Li1672 O1733 1.971 . S
Li1672 O1734 1.963 1_545 S
Li1673 N1697 1.990 . S
Li1673 O1732 1.970 . S
Li1673 O1733 1.956 . S
Li1673 O1735 1.961 . S
Li1674 N1719 1.990 . S
Li1674 O1732 1.961 1_565 S
Li1674 O1734 1.956 . S
Li1674 O1735 1.970 1_565 S
Li1675 N1725 1.990 . S
Li1675 O1733 1.961 1_565 S
Li1675 O1734 1.970 . S
Li1675 O1735 1.956 1_565 S
C1676 C1678 1.348 . S
C1676 C1679 1.356 . S
C1676 O1732 1.325 . S
N1677 C1680 1.314 . S
N1677 C1681 1.279 . S
C1678 C1676 1.348 . S
C1678 C1680 1.353 . S
C1678 H1736 0.929 . S
C1679 C1676 1.356 . S
C1679 C1681 1.358 . S
C1679 H1737 0.930 . S
C1680 N1677 1.314 . S
C1680 C1678 1.353 . S
C1680 H1738 0.930 . S
C1681 N1677 1.279 . S
C1681 C1679 1.358 . S
C1681 H1739 0.930 . S
C1682 C1685 1.348 . S
C1682 C1686 1.356 . S
C1682 O1733 1.325 . S
C1683 N1684 1.279 . S
C1683 C1686 1.358 . S
C1683 H1740 0.930 . S
N1684 C1683 1.279 . S
N1684 C1687 1.314 . S
C1685 C1682 1.348 . S
C1685 C1687 1.353 . S
C1685 H1741 0.929 . S
C1686 C1682 1.356 . S
C1686 C1683 1.358 . S
C1686 H1742 0.928 1_545 S
C1687 N1684 1.314 . S
C1687 C1685 1.353 . S
C1687 H1743 0.930 . S
C1688 N1689 1.332 . S
C1688 C1693 1.353 . S
C1688 H1694 0.930 . S
N1689 Li1672 1.991 1_565 S
N1689 C1688 1.332 . S
N1689 C1691 1.262 1_565 S
C1690 C1691 1.358 . S
C1690 C1692 1.356 1_545 S
C1690 H1744 0.930 . S
C1691 N1689 1.262 1_545 S
C1691 C1690 1.358 . S
C1691 H1695 0.930 . S
C1692 C1690 1.356 1_565 S
C1692 C1693 1.348 . S
C1693 C1688 1.353 . S
C1693 C1692 1.348 . S
C1693 H1745 0.929 . S
H1694 C1688 0.930 . S
H1695 C1691 0.930 . S
C1696 N1697 1.314 . S
C1696 C1698 1.353 . S
C1696 H1702 0.930 . S
N1697 Li1673 1.990 . S
N1697 C1696 1.314 . S
N1697 C1700 1.279 . S
C1698 C1696 1.353 . S
C1698 C1701 1.348 . S
C1698 H1746 0.929 . S
C1699 C1700 1.358 . S
C1699 C1701 1.356 . S
C1699 H1747 0.930 . S
C1700 N1697 1.279 . S
C1700 C1699 1.358 . S
C1700 H1703 0.930 . S
C1701 C1698 1.348 . S
C1701 C1699 1.356 . S
H1702 C1696 0.930 . S
H1703 C1700 0.930 . S
C1704 C1706 1.348 . S
C1704 C1707 1.356 . S
C1704 O1734 1.325 . S
N1705 C1708 1.314 . S
N1705 C1709 1.279 . S
C1706 C1704 1.348 . S
C1706 C1708 1.353 . S
C1706 H1748 0.929 . S
C1707 C1704 1.356 . S
C1707 C1709 1.358 . S
C1707 H1749 0.930 . S
C1708 N1705 1.314 . S
C1708 C1706 1.353 . S
C1708 H1750 0.930 . S
C1709 N1705 1.279 . S
C1709 C1707 1.358 . S
C1709 H1751 0.930 . S
C1710 C1711 1.348 1_545 S
C1710 C1712 1.356 . S
C1710 O1735 1.325 . S
C1711 C1710 1.348 1_565 S
C1711 C1713 1.353 . S
C1711 H1752 0.929 . S
C1712 C1710 1.356 . S
C1712 C1714 1.358 . S
C1712 H1753 0.930 . S
C1713 C1711 1.353 . S
C1713 N1715 1.308 1_565 S
C1713 H1754 0.930 . S
C1714 C1712 1.358 . S
C1714 N1715 1.288 . S
C1714 H1755 0.930 . S
N1715 C1713 1.308 1_545 S
N1715 C1714 1.288 . S
C1716 C1718 1.353 . S
C1716 N1719 1.314 1_545 S
C1716 H1722 0.930 . S
C1717 N1719 1.279 . S
C1717 C1720 1.358 . S
C1717 H1723 0.930 . S
C1718 C1716 1.353 . S
C1718 C1721 1.348 1_545 S
C1718 H1756 0.929 . S
N1719 Li1674 1.990 . S
N1719 C1716 1.314 1_565 S
N1719 C1717 1.279 . S
C1720 C1717 1.358 . S
C1720 C1721 1.356 . S
C1720 H1757 0.930 . S
C1721 C1718 1.348 1_565 S
C1721 C1720 1.356 . S
H1722 C1716 0.930 . S
H1723 C1717 0.930 . S
C1724 N1725 1.314 . S
C1724 C1726 1.353 . S
C1724 H1730 0.930 . S
N1725 Li1675 1.990 . S
N1725 C1724 1.314 . S
N1725 C1728 1.279 . S
C1726 C1724 1.353 . S
C1726 C1729 1.348 . S
C1726 H1758 0.929 . S
C1727 C1728 1.358 . S
C1727 C1729 1.356 . S
C1727 H1759 0.930 . S
C1728 N1725 1.279 . S
C1728 C1727 1.358 . S
C1728 H1731 0.930 . S
C1729 C1726 1.348 . S
C1729 C1727 1.356 . S
H1730 C1724 0.930 . S
H1731 C1728 0.930 . S
O1732 Li1672 1.954 . S
O1732 Li1673 1.970 . S
O1732 Li1674 1.961 1_545 S
O1732 C1676 1.325 . S
O1733 Li1672 1.971 . S
O1733 Li1673 1.956 . S
O1733 Li1675 1.961 1_545 S
O1733 C1682 1.325 . S
O1734 Li1672 1.963 1_565 S
O1734 Li1674 1.956 . S
O1734 Li1675 1.970 . S
O1734 C1704 1.325 . S
O1735 Li1673 1.961 . S
O1735 Li1674 1.970 1_545 S
O1735 Li1675 1.956 1_545 S
O1735 C1710 1.325 . S
H1736 C1678 0.929 . S
H1737 C1679 0.930 . S
H1738 C1680 0.930 . S
H1739 C1681 0.930 . S
H1740 C1683 0.930 . S
H1741 C1685 0.929 . S
H1742 C1686 0.928 1_565 S
H1743 C1687 0.930 . S
H1744 C1690 0.930 . S
H1745 C1693 0.929 . S
H1746 C1698 0.929 . S
H1747 C1699 0.930 . S
H1748 C1706 0.929 . S
H1749 C1707 0.930 . S
H1750 C1708 0.930 . S
H1751 C1709 0.930 . S
H1752 C1711 0.929 . S
H1753 C1712 0.930 . S
H1754 C1713 0.930 . S
H1755 C1714 0.930 . S
H1756 C1718 0.929 . S
H1757 C1720 0.930 . S
H1758 C1726 0.929 . S
H1759 C1727 0.930 . S
Li1760 N1777 1.990 . S
Li1760 O1820 1.956 . S
Li1760 O1821 1.970 . S
Li1760 O1822 1.979 . S
Li1761 N1785 1.991 . S
Li1761 O1820 1.968 . S
Li1761 O1821 1.986 . S
Li1761 O1823 1.932 1_554 S
Li1762 N1807 1.990 . S
Li1762 O1820 1.961 1_556 S
Li1762 O1822 1.935 1_556 S
Li1762 O1823 1.970 . S
Li1763 N1813 1.990 . S
Li1763 O1821 1.961 1_556 S
Li1763 O1822 1.970 1_556 S
Li1763 O1823 1.956 . S
C1764 C1766 1.348 . S
C1764 C1767 1.363 . S
C1764 O1820 1.325 . S
N1765 C1768 1.314 . S
N1765 C1769 1.279 . S
C1766 C1764 1.348 . S
C1766 C1768 1.353 . S
C1766 H1824 0.929 . S
C1767 C1764 1.363 . S
C1767 C1769 1.358 . S
C1767 H1825 0.924 1_554 S
C1768 N1765 1.314 . S
C1768 C1766 1.353 . S
C1768 H1826 0.930 . S
C1769 N1765 1.279 . S
C1769 C1767 1.358 . S
C1769 H1827 0.929 1_554 S
C1770 C1773 1.348 . S
C1770 C1774 1.356 . S
C1770 O1821 1.325 . S
C1771 N1772 1.279 . S
C1771 C1774 1.358 . S
C1771 H1828 0.930 . S
N1772 C1771 1.279 . S
N1772 C1775 1.314 . S
C1773 C1770 1.348 . S
C1773 C1775 1.353 . S
C1773 H1829 0.929 . S
C1774 C1770 1.356 . S
C1774 C1771 1.358 . S
C1774 H1830 0.930 . S
C1775 N1772 1.314 . S
C1775 C1773 1.353 . S
C1775 H1831 0.930 . S
C1776 N1777 1.314 . S
C1776 C1781 1.353 . S
C1776 H1782 0.930 . S
N1777 Li1760 1.990 . S
N1777 C1776 1.314 . S
N1777 C1779 1.279 . S
C1778 C1779 1.358 . S
C1778 C1780 1.356 . S
C1778 H1832 0.930 . S
C1779 N1777 1.279 . S
C1779 C1778 1.358 . S
C1779 H1783 0.930 . S
C1780 C1778 1.356 . S
C1780 C1781 1.348 . S
C1781 C1776 1.353 . S
C1781 C1780 1.348 . S
C1781 H1833 0.929 . S
H1782 C1776 0.930 . S
H1783 C1779 0.930 . S
C1784 N1785 1.314 1_556 S
C1784 C1786 1.353 . S
C1784 H1790 0.930 . S
N1785 Li1761 1.991 . S
N1785 C1784 1.314 1_554 S
N1785 C1788 1.279 . S
C1786 C1784 1.353 . S
C1786 C1789 1.327 1_556 S
C1786 H1834 0.929 . S
C1787 C1788 1.358 . S
C1787 C1789 1.377 . S
C1787 H1835 0.930 . S
C1788 N1785 1.279 . S
C1788 C1787 1.358 . S
C1788 H1791 0.930 . S
C1789 C1786 1.327 1_554 S
C1789 C1787 1.377 . S
H1790 C1784 0.930 . S
H1791 C1788 0.930 . S
C1792 C1794 1.349 1_554 S
C1792 C1795 1.355 . S
C1792 O1822 1.325 . S
N1793 C1796 1.314 . S
N1793 C1797 1.279 1_556 S
C1794 C1792 1.349 1_556 S
C1794 C1796 1.353 . S
C1794 H1836 0.929 . S
C1795 C1792 1.355 . S
C1795 C1797 1.358 . S
C1795 H1837 0.930 . S
C1796 N1793 1.314 . S
C1796 C1794 1.353 . S
C1796 H1838 0.930 . S
C1797 N1793 1.279 1_554 S
C1797 C1795 1.358 . S
C1797 H1839 0.930 . S
C1798 C1799 1.348 . S
C1798 C1800 1.356 . S
C1798 O1823 1.325 . S
C1799 C1798 1.348 . S
C1799 C1801 1.353 . S
C1799 H1840 0.929 . S
C1800 C1798 1.356 . S
C1800 C1802 1.358 . S
C1800 H1841 0.930 . S
C1801 C1799 1.353 . S
C1801 N1803 1.314 . S
C1801 H1842 0.930 . S
C1802 C1800 1.358 . S
C1802 N1803 1.279 . S
C1802 H1843 0.930 . S
N1803 C1801 1.314 . S
N1803 C1802 1.279 . S
C1804 C1806 1.353 . S
C1804 N1807 1.314 . S
C1804 H1810 0.930 . S
C1805 N1807 1.279 . S
C1805 C1808 1.358 . S
C1805 H1811 0.930 . S
C1806 C1804 1.353 . S
C1806 C1809 1.348 . S
C1806 H1844 0.929 . S
N1807 Li1762 1.990 . S
N1807 C1804 1.314 . S
N1807 C1805 1.279 . S
C1808 C1805 1.358 . S
C1808 C1809 1.356 . S
C1808 H1845 0.930 . S
C1809 C1806 1.348 . S
C1809 C1808 1.356 . S
H1810 C1804 0.930 . S
H1811 C1805 0.930 . S
C1812 N1813 1.314 1_554 S
C1812 C1814 1.353 . S
C1812 H1818 0.930 . S
N1813 Li1763 1.990 . S
N1813 C1812 1.314 1_556 S
N1813 C1816 1.279 . S
C1814 C1812 1.353 . S
C1814 C1817 1.348 1_554 S
C1814 H1846 0.929 . S
C1815 C1816 1.358 . S
C1815 C1817 1.356 . S
C1815 H1847 0.930 . S
C1816 N1813 1.279 . S
C1816 C1815 1.358 . S
C1816 H1819 0.930 . S
C1817 C1814 1.348 1_556 S
C1817 C1815 1.356 . S
H1818 C1812 0.930 . S
H1819 C1816 0.930 . S
O1820 Li1760 1.956 . S
O1820 Li1761 1.968 . S
O1820 Li1762 1.961 1_554 S
O1820 C1764 1.325 . S
O1821 Li1760 1.970 . S
O1821 Li1761 1.986 . S
O1821 Li1763 1.961 1_554 S
O1821 C1770 1.325 . S
O1822 Li1760 1.979 . S
O1822 Li1762 1.935 1_554 S
O1822 Li1763 1.970 1_554 S
O1822 C1792 1.325 . S
O1823 Li1761 1.932 1_556 S
O1823 Li1762 1.970 . S
O1823 Li1763 1.956 . S
O1823 C1798 1.325 . S
H1824 C1766 0.929 . S
H1825 C1767 0.924 1_556 S
H1826 C1768 0.930 . S
H1827 C1769 0.929 1_556 S
H1828 C1771 0.930 . S
H1829 C1773 0.929 . S
H1830 C1774 0.930 . S
H1831 C1775 0.930 . S
H1832 C1778 0.930 . S
H1833 C1781 0.929 . S
H1834 C1786 0.929 . S
H1835 C1787 0.930 . S
H1836 C1794 0.929 . S
H1837 C1795 0.930 . S
H1838 C1796 0.930 . S
H1839 C1797 0.930 . S
H1840 C1799 0.929 . S
H1841 C1800 0.930 . S
H1842 C1801 0.930 . S
H1843 C1802 0.930 . S
H1844 C1806 0.929 . S
H1845 C1808 0.930 . S
H1846 C1814 0.929 . S
H1847 C1815 0.930 . S
Li1848 N1865 1.990 . S
Li1848 O1908 1.956 . S
Li1848 O1909 1.970 . S
Li1848 O1910 1.961 . S
Li1849 N1873 1.990 . S
Li1849 O1908 1.970 . S
Li1849 O1909 1.956 . S
Li1849 O1911 1.961 . S
Li1850 N1895 1.990 . S
Li1850 O1908 1.961 . S
Li1850 O1910 1.956 . S
Li1850 O1911 1.970 . S
Li1851 N1901 1.990 . S
Li1851 O1909 1.961 . S
Li1851 O1910 1.970 . S
Li1851 O1911 1.956 . S
C1852 C1854 1.348 . S
C1852 C1855 1.356 . S
C1852 O1908 1.325 . S
N1853 C1856 1.314 . S
N1853 C1857 1.279 . S
C1854 C1852 1.348 . S
C1854 C1856 1.353 . S
C1854 H1912 0.929 . S
C1855 C1852 1.356 . S
C1855 C1857 1.358 . S
C1855 H1913 0.930 . S
C1856 N1853 1.314 . S
C1856 C1854 1.353 . S
C1856 H1914 0.930 . S
C1857 N1853 1.279 . S
C1857 C1855 1.358 . S
C1857 H1915 0.930 . S
C1858 C1861 1.348 . S
C1858 C1862 1.356 . S
C1858 O1909 1.325 . S
C1859 N1860 1.279 . S
C1859 C1862 1.358 . S
C1859 H1916 0.930 . S
N1860 C1859 1.279 . S
N1860 C1863 1.314 . S
C1861 C1858 1.348 . S
C1861 C1863 1.353 . S
C1861 H1917 0.929 . S
C1862 C1858 1.356 . S
C1862 C1859 1.358 . S
C1862 H1918 0.930 . S
C1863 N1860 1.314 . S
C1863 C1861 1.353 . S
C1863 H1919 0.930 . S
C1864 N1865 1.314 . S
C1864 C1869 1.353 . S
C1864 H1870 0.930 . S
N1865 Li1848 1.990 . S
N1865 C1864 1.314 . S
N1865 C1867 1.279 . S
C1866 C1867 1.358 . S
C1866 C1868 1.356 . S
C1866 H1920 0.930 . S
C1867 N1865 1.279 . S
C1867 C1866 1.358 . S
C1867 H1871 0.930 . S
C1868 C1866 1.356 . S
C1868 C1869 1.348 . S
C1869 C1864 1.353 . S
C1869 C1868 1.348 . S
C1869 H1921 0.929 . S
H1870 C1864 0.930 . S
H1871 C1867 0.930 . S
C1872 N1873 1.314 . S
C1872 C1874 1.353 . S
C1872 H1878 0.930 . S
N1873 Li1849 1.990 . S
N1873 C1872 1.314 . S
N1873 C1876 1.279 . S
C1874 C1872 1.353 . S
C1874 C1877 1.348 . S
C1874 H1922 0.929 . S
C1875 C1876 1.358 . S
C1875 C1877 1.356 . S
C1875 H1923 0.930 . S
C1876 N1873 1.279 . S
C1876 C1875 1.358 . S
C1876 H1879 0.930 . S
C1877 C1874 1.348 . S
C1877 C1875 1.356 . S
H1878 C1872 0.930 . S
H1879 C1876 0.930 . S
C1880 C1882 1.348 . S
C1880 C1883 1.356 . S
C1880 O1910 1.325 . S
N1881 C1884 1.314 . S
N1881 C1885 1.279 . S
C1882 C1880 1.348 . S
C1882 C1884 1.353 . S
C1882 H1924 0.929 . S
C1883 C1880 1.356 . S
C1883 C1885 1.358 . S
C1883 H1925 0.930 . S
C1884 N1881 1.314 . S
C1884 C1882 1.353 . S
C1884 H1926 0.930 . S
C1885 N1881 1.279 . S
C1885 C1883 1.358 . S
C1885 H1927 0.930 . S
C1886 C1887 1.348 . S
C1886 C1888 1.356 . S
C1886 O1911 1.325 . S
C1887 C1886 1.348 . S
C1887 C1889 1.353 . S
C1887 H1928 0.929 . S
C1888 C1886 1.356 . S
C1888 C1890 1.358 . S
C1888 H1929 0.930 . S
C1889 C1887 1.353 . S
C1889 N1891 1.314 . S
C1889 H1930 0.930 . S
C1890 C1888 1.358 . S
C1890 N1891 1.279 . S
C1890 H1931 0.930 . S
N1891 C1889 1.314 . S
N1891 C1890 1.279 . S
C1892 C1894 1.353 . S
C1892 N1895 1.314 . S
C1892 H1898 0.930 . S
C1893 N1895 1.279 . S
C1893 C1896 1.358 . S
C1893 H1899 0.930 . S
C1894 C1892 1.353 . S
C1894 C1897 1.348 . S
C1894 H1932 0.929 . S
N1895 Li1850 1.990 . S
N1895 C1892 1.314 . S
N1895 C1893 1.279 . S
C1896 C1893 1.358 . S
C1896 C1897 1.356 . S
C1896 H1933 0.930 . S
C1897 C1894 1.348 . S
C1897 C1896 1.356 . S
H1898 C1892 0.930 . S
H1899 C1893 0.930 . S
C1900 N1901 1.314 . S
C1900 C1902 1.353 . S
C1900 H1906 0.930 . S
N1901 Li1851 1.990 . S
N1901 C1900 1.314 . S
N1901 C1904 1.279 . S
C1902 C1900 1.353 . S
C1902 C1905 1.348 . S
C1902 H1934 0.929 . S
C1903 C1904 1.358 . S
C1903 C1905 1.356 . S
C1903 H1935 0.930 . S
C1904 N1901 1.279 . S
C1904 C1903 1.358 . S
C1904 H1907 0.930 . S
C1905 C1902 1.348 . S
C1905 C1903 1.356 . S
H1906 C1900 0.930 . S
H1907 C1904 0.930 . S
O1908 Li1848 1.956 . S
O1908 Li1849 1.970 . S
O1908 Li1850 1.961 . S
O1908 C1852 1.325 . S
O1909 Li1848 1.970 . S
O1909 Li1849 1.956 . S
O1909 Li1851 1.961 . S
O1909 C1858 1.325 . S
O1910 Li1848 1.961 . S
O1910 Li1850 1.956 . S
O1910 Li1851 1.970 . S
O1910 C1880 1.325 . S
O1911 Li1849 1.961 . S
O1911 Li1850 1.970 . S
O1911 Li1851 1.956 . S
O1911 C1886 1.325 . S
H1912 C1854 0.929 . S
H1913 C1855 0.930 . S
H1914 C1856 0.930 . S
H1915 C1857 0.930 . S
H1916 C1859 0.930 . S
H1917 C1861 0.929 . S
H1918 C1862 0.930 . S
H1919 C1863 0.930 . S
H1920 C1866 0.930 . S
H1921 C1869 0.929 . S
H1922 C1874 0.929 . S
H1923 C1875 0.930 . S
H1924 C1882 0.929 . S
H1925 C1883 0.930 . S
H1926 C1884 0.930 . S
H1927 C1885 0.930 . S
H1928 C1887 0.929 . S
H1929 C1888 0.930 . S
H1930 C1889 0.930 . S
H1931 C1890 0.930 . S
H1932 C1894 0.929 . S
H1933 C1896 0.930 . S
H1934 C1902 0.929 . S
H1935 C1903 0.930 . S
Li1936 N1953 1.990 . S
Li1936 O1996 1.956 . S
Li1936 O1997 1.970 . S
Li1936 O1998 1.961 . S
Li1937 N1961 1.990 . S
Li1937 O1996 1.970 . S
Li1937 O1997 1.956 . S
Li1937 O1999 1.961 . S
Li1938 N1983 1.990 . S
Li1938 O1996 1.961 . S
Li1938 O1998 1.956 . S
Li1938 O1999 1.970 . S
Li1939 N1989 1.990 . S
Li1939 O1997 1.961 . S
Li1939 O1998 1.970 . S
Li1939 O1999 1.956 . S
C1940 C1942 1.348 . S
C1940 C1943 1.356 . S
C1940 O1996 1.325 . S
N1941 C1944 1.314 . S
N1941 C1945 1.279 . S
C1942 C1940 1.348 . S
C1942 C1944 1.353 . S
C1942 H2000 0.929 . S
C1943 C1940 1.356 . S
C1943 C1945 1.358 . S
C1943 H2001 0.930 . S
C1944 N1941 1.314 . S
C1944 C1942 1.353 . S
C1944 H2002 0.930 . S
C1945 N1941 1.279 . S
C1945 C1943 1.358 . S
C1945 H2003 0.930 . S
C1946 C1949 1.348 . S
C1946 C1950 1.356 . S
C1946 O1997 1.325 . S
C1947 N1948 1.279 . S
C1947 C1950 1.358 . S
C1947 H2004 0.930 . S
N1948 C1947 1.279 . S
N1948 C1951 1.314 . S
C1949 C1946 1.348 . S
C1949 C1951 1.353 . S
C1949 H2005 0.929 . S
C1950 C1946 1.356 . S
C1950 C1947 1.358 . S
C1950 H2006 0.930 . S
C1951 N1948 1.314 . S
C1951 C1949 1.353 . S
C1951 H2007 0.930 . S
C1952 N1953 1.314 . S
C1952 C1957 1.353 . S
C1952 H1958 0.930 . S
N1953 Li1936 1.990 . S
N1953 C1952 1.314 . S
N1953 C1955 1.279 . S
C1954 C1955 1.358 . S
C1954 C1956 1.356 . S
C1954 H2008 0.930 . S
C1955 N1953 1.279 . S
C1955 C1954 1.358 . S
C1955 H1959 0.930 . S
C1956 C1954 1.356 . S
C1956 C1957 1.348 . S
C1957 C1952 1.353 . S
C1957 C1956 1.348 . S
C1957 H2009 0.929 . S
H1958 C1952 0.930 . S
H1959 C1955 0.930 . S
C1960 N1961 1.314 . S
C1960 C1962 1.353 . S
C1960 H1966 0.930 . S
N1961 Li1937 1.990 . S
N1961 C1960 1.314 . S
N1961 C1964 1.279 . S
C1962 C1960 1.353 . S
C1962 C1965 1.348 . S
C1962 H2010 0.929 . S
C1963 C1964 1.358 . S
C1963 C1965 1.356 . S
C1963 H2011 0.930 . S
C1964 N1961 1.279 . S
C1964 C1963 1.358 . S
C1964 H1967 0.930 . S
C1965 C1962 1.348 . S
C1965 C1963 1.356 . S
H1966 C1960 0.930 . S
H1967 C1964 0.930 . S
C1968 C1970 1.348 . S
C1968 C1971 1.356 . S
C1968 O1998 1.325 . S
N1969 C1972 1.314 . S
N1969 C1973 1.279 . S
C1970 C1968 1.348 . S
C1970 C1972 1.353 . S
C1970 H2012 0.929 . S
C1971 C1968 1.356 . S
C1971 C1973 1.358 . S
C1971 H2013 0.930 . S
C1972 N1969 1.314 . S
C1972 C1970 1.353 . S
C1972 H2014 0.930 . S
C1973 N1969 1.279 . S
C1973 C1971 1.358 . S
C1973 H2015 0.930 . S
C1974 C1975 1.348 . S
C1974 C1976 1.356 . S
C1974 O1999 1.325 . S
C1975 C1974 1.348 . S
C1975 C1977 1.353 . S
C1975 H2016 0.929 . S
C1976 C1974 1.356 . S
C1976 C1978 1.358 . S
C1976 H2017 0.930 . S
C1977 C1975 1.353 . S
C1977 N1979 1.314 . S
C1977 H2018 0.930 . S
C1978 C1976 1.358 . S
C1978 N1979 1.279 . S
C1978 H2019 0.930 . S
N1979 C1977 1.314 . S
N1979 C1978 1.279 . S
C1980 C1982 1.353 . S
C1980 N1983 1.314 . S
C1980 H1986 0.930 . S
C1981 N1983 1.279 . S
C1981 C1984 1.358 . S
C1981 H1987 0.930 . S
C1982 C1980 1.353 . S
C1982 C1985 1.348 . S
C1982 H2020 0.929 . S
N1983 Li1938 1.990 . S
N1983 C1980 1.314 . S
N1983 C1981 1.279 . S
C1984 C1981 1.358 . S
C1984 C1985 1.356 . S
C1984 H2021 0.930 . S
C1985 C1982 1.348 . S
C1985 C1984 1.356 . S
H1986 C1980 0.930 . S
H1987 C1981 0.930 . S
C1988 N1989 1.314 . S
C1988 C1990 1.353 . S
C1988 H1994 0.930 . S
N1989 Li1939 1.990 . S
N1989 C1988 1.314 . S
N1989 C1992 1.279 . S
C1990 C1988 1.353 . S
C1990 C1993 1.348 . S
C1990 H2022 0.929 . S
C1991 C1992 1.358 . S
C1991 C1993 1.356 . S
C1991 H2023 0.930 . S
C1992 N1989 1.279 . S
C1992 C1991 1.358 . S
C1992 H1995 0.930 . S
C1993 C1990 1.348 . S
C1993 C1991 1.356 . S
H1994 C1988 0.930 . S
H1995 C1992 0.930 . S
O1996 Li1936 1.956 . S
O1996 Li1937 1.970 . S
O1996 Li1938 1.961 . S
O1996 C1940 1.325 . S
O1997 Li1936 1.970 . S
O1997 Li1937 1.956 . S
O1997 Li1939 1.961 . S
O1997 C1946 1.325 . S
O1998 Li1936 1.961 . S
O1998 Li1938 1.956 . S
O1998 Li1939 1.970 . S
O1998 C1968 1.325 . S
O1999 Li1937 1.961 . S
O1999 Li1938 1.970 . S
O1999 Li1939 1.956 . S
O1999 C1974 1.325 . S
H2000 C1942 0.929 . S
H2001 C1943 0.930 . S
H2002 C1944 0.930 . S
H2003 C1945 0.930 . S
H2004 C1947 0.930 . S
H2005 C1949 0.929 . S
H2006 C1950 0.930 . S
H2007 C1951 0.930 . S
H2008 C1954 0.930 . S
H2009 C1957 0.929 . S
H2010 C1962 0.929 . S
H2011 C1963 0.930 . S
H2012 C1970 0.929 . S
H2013 C1971 0.930 . S
H2014 C1972 0.930 . S
H2015 C1973 0.930 . S
H2016 C1975 0.929 . S
H2017 C1976 0.930 . S
H2018 C1977 0.930 . S
H2019 C1978 0.930 . S
H2020 C1982 0.929 . S
H2021 C1984 0.930 . S
H2022 C1990 0.929 . S
H2023 C1991 0.930 . S
Li2024 N2041 1.990 . S
Li2024 O2084 1.956 . S
Li2024 O2085 1.970 . S
Li2024 O2086 1.961 . S
Li2025 N2049 1.990 . S
Li2025 O2084 1.970 . S
Li2025 O2085 1.956 . S
Li2025 O2087 1.961 . S
Li2026 N2071 1.990 . S
Li2026 O2084 1.961 . S
Li2026 O2086 1.956 . S
Li2026 O2087 1.970 . S
Li2027 N2077 1.990 . S
Li2027 O2085 1.961 . S
Li2027 O2086 1.970 . S
Li2027 O2087 1.956 . S
C2028 C2030 1.348 . S
C2028 C2031 1.356 . S
C2028 O2084 1.325 . S
N2029 C2032 1.314 . S
N2029 C2033 1.279 . S
C2030 C2028 1.348 . S
C2030 C2032 1.353 . S
C2030 H2088 0.929 . S
C2031 C2028 1.356 . S
C2031 C2033 1.358 . S
C2031 H2089 0.930 . S
C2032 N2029 1.314 . S
C2032 C2030 1.353 . S
C2032 H2090 0.930 . S
C2033 N2029 1.279 . S
C2033 C2031 1.358 . S
C2033 H2091 0.930 . S
C2034 C2037 1.348 . S
C2034 C2038 1.356 . S
C2034 O2085 1.325 . S
C2035 N2036 1.279 . S
C2035 C2038 1.358 . S
C2035 H2092 0.930 . S
N2036 C2035 1.279 . S
N2036 C2039 1.314 . S
C2037 C2034 1.348 . S
C2037 C2039 1.353 . S
C2037 H2093 0.929 . S
C2038 C2034 1.356 . S
C2038 C2035 1.358 . S
C2038 H2094 0.930 . S
C2039 N2036 1.314 . S
C2039 C2037 1.353 . S
C2039 H2095 0.930 . S
C2040 N2041 1.314 . S
C2040 C2045 1.353 . S
C2040 H2046 0.930 . S
N2041 Li2024 1.990 . S
N2041 C2040 1.314 . S
N2041 C2043 1.279 . S
C2042 C2043 1.358 . S
C2042 C2044 1.356 . S
C2042 H2096 0.930 . S
C2043 N2041 1.279 . S
C2043 C2042 1.358 . S
C2043 H2047 0.930 . S
C2044 C2042 1.356 . S
C2044 C2045 1.348 . S
C2045 C2040 1.353 . S
C2045 C2044 1.348 . S
C2045 H2097 0.929 . S
H2046 C2040 0.930 . S
H2047 C2043 0.930 . S
C2048 N2049 1.314 . S
C2048 C2050 1.353 . S
C2048 H2054 0.930 . S
N2049 Li2025 1.990 . S
N2049 C2048 1.314 . S
N2049 C2052 1.279 . S
C2050 C2048 1.353 . S
C2050 C2053 1.348 . S
C2050 H2098 0.929 . S
C2051 C2052 1.358 . S
C2051 C2053 1.356 . S
C2051 H2099 0.930 . S
C2052 N2049 1.279 . S
C2052 C2051 1.358 . S
C2052 H2055 0.930 . S
C2053 C2050 1.348 . S
C2053 C2051 1.356 . S
H2054 C2048 0.930 . S
H2055 C2052 0.930 . S
C2056 C2058 1.348 . S
C2056 C2059 1.356 . S
C2056 O2086 1.325 . S
N2057 C2060 1.314 . S
N2057 C2061 1.279 . S
C2058 C2056 1.348 . S
C2058 C2060 1.353 . S
C2058 H2100 0.929 . S
C2059 C2056 1.356 . S
C2059 C2061 1.358 . S
C2059 H2101 0.930 . S
C2060 N2057 1.314 . S
C2060 C2058 1.353 . S
C2060 H2102 0.930 . S
C2061 N2057 1.279 . S
C2061 C2059 1.358 . S
C2061 H2103 0.930 . S
C2062 C2063 1.348 . S
C2062 C2064 1.356 . S
C2062 O2087 1.325 . S
C2063 C2062 1.348 . S
C2063 C2065 1.353 . S
C2063 H2104 0.929 . S
C2064 C2062 1.356 . S
C2064 C2066 1.358 . S
C2064 H2105 0.930 . S
C2065 C2063 1.353 . S
C2065 N2067 1.314 . S
C2065 H2106 0.930 . S
C2066 C2064 1.358 . S
C2066 N2067 1.279 . S
C2066 H2107 0.930 . S
N2067 C2065 1.314 . S
N2067 C2066 1.279 . S
C2068 C2070 1.353 . S
C2068 N2071 1.314 . S
C2068 H2074 0.930 . S
C2069 N2071 1.279 . S
C2069 C2072 1.358 . S
C2069 H2075 0.930 . S
C2070 C2068 1.353 . S
C2070 C2073 1.348 . S
C2070 H2108 0.929 . S
N2071 Li2026 1.990 . S
N2071 C2068 1.314 . S
N2071 C2069 1.279 . S
C2072 C2069 1.358 . S
C2072 C2073 1.356 . S
C2072 H2109 0.930 . S
C2073 C2070 1.348 . S
C2073 C2072 1.356 . S
H2074 C2068 0.930 . S
H2075 C2069 0.930 . S
C2076 N2077 1.314 . S
C2076 C2078 1.353 . S
C2076 H2082 0.930 . S
N2077 Li2027 1.990 . S
N2077 C2076 1.314 . S
N2077 C2080 1.279 . S
C2078 C2076 1.353 . S
C2078 C2081 1.348 . S
C2078 H2110 0.929 . S
C2079 C2080 1.358 . S
C2079 C2081 1.356 . S
C2079 H2111 0.930 . S
C2080 N2077 1.279 . S
C2080 C2079 1.358 . S
C2080 H2083 0.930 . S
C2081 C2078 1.348 . S
C2081 C2079 1.356 . S
H2082 C2076 0.930 . S
H2083 C2080 0.930 . S
O2084 Li2024 1.956 . S
O2084 Li2025 1.970 . S
O2084 Li2026 1.961 . S
O2084 C2028 1.325 . S
O2085 Li2024 1.970 . S
O2085 Li2025 1.956 . S
O2085 Li2027 1.961 . S
O2085 C2034 1.325 . S
O2086 Li2024 1.961 . S
O2086 Li2026 1.956 . S
O2086 Li2027 1.970 . S
O2086 C2056 1.325 . S
O2087 Li2025 1.961 . S
O2087 Li2026 1.970 . S
O2087 Li2027 1.956 . S
O2087 C2062 1.325 . S
H2088 C2030 0.929 . S
H2089 C2031 0.930 . S
H2090 C2032 0.930 . S
H2091 C2033 0.930 . S
H2092 C2035 0.930 . S
H2093 C2037 0.929 . S
H2094 C2038 0.930 . S
H2095 C2039 0.930 . S
H2096 C2042 0.930 . S
H2097 C2045 0.929 . S
H2098 C2050 0.929 . S
H2099 C2051 0.930 . S
H2100 C2058 0.929 . S
H2101 C2059 0.930 . S
H2102 C2060 0.930 . S
H2103 C2061 0.930 . S
H2104 C2063 0.929 . S
H2105 C2064 0.930 . S
H2106 C2065 0.930 . S
H2107 C2066 0.930 . S
H2108 C2070 0.929 . S
H2109 C2072 0.930 . S
H2110 C2078 0.929 . S
H2111 C2079 0.930 . S
Zn2112 O2118 1.969 . S
Zn2112 O2119 1.965 1_565 S
Zn2112 O2123 2.024 . S
Zn2112 O2128 1.969 1_565 S
Zn2113 O2120 1.969 1_654 S
Zn2113 O2126 1.969 1_554 S
Zn2113 O2127 1.965 . S
Zn2113 O2129 2.024 1_655 S
C2114 O2115 1.229 . S
C2114 O2123 1.058 . S
O2115 C2114 1.229 . S
C2116 O2117 1.229 1_454 S
C2116 O2129 1.058 . S
O2117 C2116 1.229 1_656 S
O2118 Zn2112 1.969 . S
O2118 C2121 1.267 . S
O2119 Zn2112 1.965 1_545 S
O2119 C2130 1.260 1_554 S
O2120 Zn2113 1.969 1_456 S
O2120 C2130 1.258 . S
C2121 O2118 1.267 . S
C2121 O2122 1.228 . S
O2122 C2121 1.228 . S
O2123 Zn2112 2.024 . S
O2123 C2114 1.058 . S
C2124 O2125 1.228 . S
C2124 O2126 1.267 1_554 S
O2125 C2124 1.228 . S
O2126 Zn2113 1.969 1_556 S
O2126 C2124 1.267 1_556 S
O2127 Zn2113 1.965 . S
O2127 C2131 1.260 1_655 S
O2128 Zn2112 1.969 1_545 S
O2128 C2131 1.258 . S
O2129 Zn2113 2.024 1_455 S
O2129 C2116 1.058 . S
C2130 O2119 1.260 1_556 S
C2130 O2120 1.258 . S
C2131 O2127 1.260 1_455 S
C2131 O2128 1.258 . S
Zn2132 O2138 1.969 . S
Zn2132 O2139 1.965 . S
Zn2132 O2143 2.024 . S
Zn2132 O2148 1.969 . S
Zn2133 O2140 1.969 . S
Zn2133 O2146 1.969 . S
Zn2133 O2147 1.965 . S
Zn2133 O2149 2.024 . S
C2134 O2135 1.229 . S
C2134 O2143 1.058 . S
O2135 C2134 1.229 . S
C2136 O2137 1.229 . S
C2136 O2149 1.058 . S
O2137 C2136 1.229 . S
O2138 Zn2132 1.969 . S
O2138 C2141 1.267 . S
O2139 Zn2132 1.965 . S
O2139 C2150 1.260 . S
O2140 Zn2133 1.969 . S
O2140 C2150 1.258 . S
C2141 O2138 1.267 . S
C2141 O2142 1.228 . S
O2142 C2141 1.228 . S
O2143 Zn2132 2.024 . S
O2143 C2134 1.058 . S
C2144 O2145 1.228 . S
C2144 O2146 1.267 . S
O2145 C2144 1.228 . S
O2146 Zn2133 1.969 . S
O2146 C2144 1.267 . S
O2147 Zn2133 1.965 . S
O2147 C2151 1.260 . S
O2148 Zn2132 1.969 . S
O2148 C2151 1.258 . S
O2149 Zn2133 2.024 . S
O2149 C2136 1.058 . S
C2150 O2139 1.260 . S
C2150 O2140 1.258 . S
C2151 O2147 1.260 . S
C2151 O2148 1.258 . S
Zn2152 O2158 1.969 . S
Zn2152 O2159 1.965 . S
Zn2152 O2163 2.024 . S
Zn2152 O2168 1.969 . S
Zn2153 O2160 1.972 . S
Zn2153 O2166 1.969 . S
Zn2153 O2167 1.965 1_565 S
Zn2153 O2169 2.024 . S
C2154 O2155 1.229 . S
C2154 O2163 1.058 . S
O2155 C2154 1.229 . S
C2156 O2157 1.229 . S
C2156 O2169 1.058 . S
O2157 C2156 1.229 . S
O2158 Zn2152 1.969 . S
O2158 C2161 1.267 . S
O2159 Zn2152 1.965 . S
O2159 C2170 1.260 . S
O2160 Zn2153 1.972 . S
O2160 C2170 1.254 1_565 S
C2161 O2158 1.267 . S
C2161 O2162 1.228 . S
O2162 C2161 1.228 . S
O2163 Zn2152 2.024 . S
O2163 C2154 1.058 . S
C2164 O2165 1.228 . S
C2164 O2166 1.267 . S
O2165 C2164 1.228 . S
O2166 Zn2153 1.969 . S
O2166 C2164 1.267 . S
O2167 Zn2153 1.965 1_545 S
O2167 C2171 1.260 . S
O2168 Zn2152 1.969 . S
O2168 C2171 1.258 . S
O2169 Zn2153 2.024 . S
O2169 C2156 1.058 . S
C2170 O2159 1.260 . S
C2170 O2160 1.254 1_545 S
C2171 O2167 1.260 . S
C2171 O2168 1.258 . S
Zn2172 O2178 1.969 . S
Zn2172 O2179 1.965 . S
Zn2172 O2183 2.024 . S
Zn2172 O2188 1.969 . S
Zn2173 O2180 1.969 . S
Zn2173 O2186 1.969 . S
Zn2173 O2187 1.965 . S
Zn2173 O2189 2.024 . S
C2174 O2175 1.229 . S
C2174 O2183 1.058 . S
O2175 C2174 1.229 . S
C2176 O2177 1.229 . S
C2176 O2189 1.058 . S
O2177 C2176 1.229 . S
O2178 Zn2172 1.969 . S
O2178 C2181 1.267 . S
O2179 Zn2172 1.965 . S
O2179 C2190 1.260 . S
O2180 Zn2173 1.969 . S
O2180 C2190 1.258 . S
C2181 O2178 1.267 . S
C2181 O2182 1.228 . S
O2182 C2181 1.228 . S
O2183 Zn2172 2.024 . S
O2183 C2174 1.058 . S
C2184 O2185 1.228 . S
C2184 O2186 1.267 . S
O2185 C2184 1.228 . S
O2186 Zn2173 1.969 . S
O2186 C2184 1.267 . S
O2187 Zn2173 1.965 . S
O2187 C2191 1.260 . S
O2188 Zn2172 1.969 . S
O2188 C2191 1.258 . S
O2189 Zn2173 2.024 . S
O2189 C2176 1.058 . S
C2190 O2179 1.260 . S
C2190 O2180 1.258 . S
C2191 O2187 1.260 . S
C2191 O2188 1.258 . S
Zn2192 O2198 1.969 . S
Zn2192 O2199 1.965 1_455 S
Zn2192 O2203 2.024 1_565 S
Zn2192 O2208 1.969 1_565 S
Zn2193 O2200 1.969 1_455 S
Zn2193 O2206 1.969 1_455 S
Zn2193 O2207 1.965 . S
Zn2193 O2209 2.024 . S
C2194 O2195 1.229 1_545 S
C2194 O2203 1.058 . S
O2195 C2194 1.229 1_565 S
C2196 O2197 1.229 . S
C2196 O2209 1.058 1_655 S
O2197 C2196 1.229 . S
O2198 Zn2192 1.969 . S
O2198 C2201 1.267 . S
O2199 Zn2192 1.965 1_655 S
O2199 C2210 1.270 . S
O2200 Zn2193 1.969 1_655 S
O2200 C2210 1.245 1_545 S
C2201 O2198 1.267 . S
C2201 O2202 1.228 . S
O2202 C2201 1.228 . S
O2203 Zn2192 2.024 1_545 S
O2203 C2194 1.058 . S
C2204 O2205 1.228 . S
C2204 O2206 1.267 1_455 S
O2205 C2204 1.228 . S
O2206 Zn2193 1.969 1_655 S
O2206 C2204 1.267 1_655 S
O2207 Zn2193 1.965 . S
O2207 C2211 1.260 . S
O2208 Zn2192 1.969 1_545 S
O2208 C2211 1.258 . S
O2209 Zn2193 2.024 . S
O2209 C2196 1.058 1_455 S
C2210 O2199 1.270 . S
C2210 O2200 1.245 1_565 S
C2211 O2207 1.260 . S
C2211 O2208 1.258 . S
Zn2212 O2218 1.969 . S
Zn2212 O2219 1.965 . S
Zn2212 O2223 2.024 . S
Zn2212 O2228 1.969 . S
Zn2213 O2220 1.969 . S
Zn2213 O2226 1.969 . S
Zn2213 O2227 1.965 . S
Zn2213 O2229 2.024 . S
C2214 O2215 1.229 . S
C2214 O2223 1.058 . S
O2215 C2214 1.229 . S
C2216 O2217 1.229 . S
C2216 O2229 1.058 . S
O2217 C2216 1.229 . S
O2218 Zn2212 1.969 . S
O2218 C2221 1.267 . S
O2219 Zn2212 1.965 . S
O2219 C2230 1.260 . S
O2220 Zn2213 1.969 . S
O2220 C2230 1.258 . S
C2221 O2218 1.267 . S
C2221 O2222 1.228 . S
O2222 C2221 1.228 . S
O2223 Zn2212 2.024 . S
O2223 C2214 1.058 . S
C2224 O2225 1.228 . S
C2224 O2226 1.267 . S
O2225 C2224 1.228 . S
O2226 Zn2213 1.969 . S
O2226 C2224 1.267 . S
O2227 Zn2213 1.965 . S
O2227 C2231 1.260 . S
O2228 Zn2212 1.969 . S
O2228 C2231 1.258 . S
O2229 Zn2213 2.024 . S
O2229 C2216 1.058 . S
C2230 O2219 1.260 . S
C2230 O2220 1.258 . S
C2231 O2227 1.260 . S
C2231 O2228 1.258 . S
Zn2232 O2238 1.962 1_554 S
Zn2232 O2239 1.964 1_545 S
Zn2232 O2243 2.028 . S
Zn2232 O2248 1.973 . S
Zn2233 O2240 1.981 . S
Zn2233 O2246 1.975 . S
Zn2233 O2247 1.952 1_565 S
Zn2233 O2249 2.019 1_565 S
C2234 O2235 1.229 . S
C2234 O2243 1.058 . S
O2235 C2234 1.229 . S
C2236 O2237 1.229 . S
C2236 O2249 1.058 1_565 S
O2237 C2236 1.229 . S
O2238 Zn2232 1.962 1_556 S
O2238 C2241 1.267 . S
O2239 Zn2232 1.964 1_565 S
O2239 C2250 1.268 . S
O2240 Zn2233 1.981 . S
O2240 C2250 1.258 . S
C2241 O2238 1.267 . S
C2241 O2242 1.228 . S
O2242 C2241 1.228 . S
O2243 Zn2232 2.028 . S
O2243 C2234 1.058 . S
C2244 O2245 1.228 . S
C2244 O2246 1.267 1_545 S
O2245 C2244 1.228 . S
O2246 Zn2233 1.975 . S
O2246 C2244 1.267 1_565 S
O2247 Zn2233 1.952 1_545 S
O2247 C2251 1.260 . S
O2248 Zn2232 1.973 . S
O2248 C2251 1.258 . S
O2249 Zn2233 2.019 1_545 S
O2249 C2236 1.058 1_545 S
C2250 O2239 1.268 . S
C2250 O2240 1.258 . S
C2251 O2247 1.260 . S
C2251 O2248 1.258 . S
Zn2252 O2258 1.969 . S
Zn2252 O2259 1.965 . S
Zn2252 O2263 2.024 . S
Zn2252 O2268 1.969 . S
Zn2253 O2260 1.969 . S
Zn2253 O2266 1.969 . S
Zn2253 O2267 1.965 . S
Zn2253 O2269 2.024 . S
C2254 O2255 1.229 . S
C2254 O2263 1.058 . S
O2255 C2254 1.229 . S
C2256 O2257 1.229 . S
C2256 O2269 1.058 . S
O2257 C2256 1.229 . S
O2258 Zn2252 1.969 . S
O2258 C2261 1.267 . S
O2259 Zn2252 1.965 . S
O2259 C2270 1.260 . S
O2260 Zn2253 1.969 . S
O2260 C2270 1.258 . S
C2261 O2258 1.267 . S
C2261 O2262 1.228 . S
O2262 C2261 1.228 . S
O2263 Zn2252 2.024 . S
O2263 C2254 1.058 . S
C2264 O2265 1.228 . S
C2264 O2266 1.267 . S
O2265 C2264 1.228 . S
O2266 Zn2253 1.969 . S
O2266 C2264 1.267 . S
O2267 Zn2253 1.965 . S
O2267 C2271 1.260 . S
O2268 Zn2252 1.969 . S
O2268 C2271 1.258 . S
O2269 Zn2253 2.024 . S
O2269 C2256 1.058 . S
C2270 O2259 1.260 . S
C2270 O2260 1.258 . S
C2271 O2267 1.260 . S
C2271 O2268 1.258 . S
Zn2272 O2278 1.969 . S
Zn2272 O2279 1.965 . S
Zn2272 O2283 2.024 . S
Zn2272 O2288 1.969 . S
Zn2273 O2280 1.969 1_556 S
Zn2273 O2286 1.969 1_556 S
Zn2273 O2287 1.965 1_556 S
Zn2273 O2289 2.024 . S
C2274 O2275 1.229 . S
C2274 O2283 1.058 . S
O2275 C2274 1.229 . S
C2276 O2277 1.229 . S
C2276 O2289 1.058 . S
O2277 C2276 1.229 . S
O2278 Zn2272 1.969 . S
O2278 C2281 1.267 . S
O2279 Zn2272 1.965 . S
O2279 C2290 1.260 . S
O2280 Zn2273 1.969 1_554 S
O2280 C2290 1.258 . S
C2281 O2278 1.267 . S
C2281 O2282 1.228 . S
O2282 C2281 1.228 . S
O2283 Zn2272 2.024 . S
O2283 C2274 1.058 . S
C2284 O2285 1.228 . S
C2284 O2286 1.267 1_556 S
O2285 C2284 1.228 . S
O2286 Zn2273 1.969 1_554 S
O2286 C2284 1.267 1_554 S
O2287 Zn2273 1.965 1_554 S
O2287 C2291 1.260 . S
O2288 Zn2272 1.969 . S
O2288 C2291 1.258 . S
O2289 Zn2273 2.024 . S
O2289 C2276 1.058 . S
C2290 O2279 1.260 . S
C2290 O2280 1.258 . S
C2291 O2287 1.260 . S
C2291 O2288 1.258 . S
Zn2292 O2298 1.969 . S
Zn2292 O2299 1.965 . S
Zn2292 O2303 2.024 . S
Zn2292 O2308 1.969 . S
Zn2293 O2300 1.969 . S
Zn2293 O2306 1.969 . S
Zn2293 O2307 1.965 . S
Zn2293 O2309 2.024 . S
C2294 O2295 1.229 . S
C2294 O2303 1.058 . S
O2295 C2294 1.229 . S
C2296 O2297 1.229 . S
C2296 O2309 1.058 . S
O2297 C2296 1.229 . S
O2298 Zn2292 1.969 . S
O2298 C2301 1.267 . S
O2299 Zn2292 1.965 . S
O2299 C2310 1.260 . S
O2300 Zn2293 1.969 . S
O2300 C2310 1.258 . S
C2301 O2298 1.267 . S
C2301 O2302 1.228 . S
O2302 C2301 1.228 . S
O2303 Zn2292 2.024 . S
O2303 C2294 1.058 . S
C2304 O2305 1.228 . S
C2304 O2306 1.267 . S
O2305 C2304 1.228 . S
O2306 Zn2293 1.969 . S
O2306 C2304 1.267 . S
O2307 Zn2293 1.965 . S
O2307 C2311 1.260 . S
O2308 Zn2292 1.969 . S
O2308 C2311 1.258 . S
O2309 Zn2293 2.024 . S
O2309 C2296 1.058 . S
C2310 O2299 1.260 . S
C2310 O2300 1.258 . S
C2311 O2307 1.260 . S
C2311 O2308 1.258 . S
Zn2312 O2318 1.969 . S
Zn2312 O2319 1.965 . S
Zn2312 O2323 2.024 . S
Zn2312 O2328 1.969 . S
Zn2313 O2320 1.964 1_655 S
Zn2313 O2326 1.969 . S
Zn2313 O2327 1.965 1_655 S
Zn2313 O2329 2.024 . S
C2314 O2315 1.229 . S
C2314 O2323 1.058 . S
O2315 C2314 1.229 . S
C2316 O2317 1.229 . S
C2316 O2329 1.058 . S
O2317 C2316 1.229 . S
O2318 Zn2312 1.969 . S
O2318 C2321 1.267 . S
O2319 Zn2312 1.965 . S
O2319 C2330 1.260 . S
O2320 Zn2313 1.964 1_455 S
O2320 C2330 1.264 . S
C2321 O2318 1.267 . S
C2321 O2322 1.228 . S
O2322 C2321 1.228 . S
O2323 Zn2312 2.024 . S
O2323 C2314 1.058 . S
C2324 O2325 1.228 . S
C2324 O2326 1.267 . S
O2325 C2324 1.228 . S
O2326 Zn2313 1.969 . S
O2326 C2324 1.267 . S
O2327 Zn2313 1.965 1_455 S
O2327 C2331 1.260 . S
O2328 Zn2312 1.969 . S
O2328 C2331 1.258 . S
O2329 Zn2313 2.024 . S
O2329 C2316 1.058 . S
C2330 O2319 1.260 . S
C2330 O2320 1.264 . S
C2331 O2327 1.260 . S
C2331 O2328 1.258 . S
Zn2332 O2338 1.969 . S
Zn2332 O2339 1.965 . S
Zn2332 O2343 2.024 . S
Zn2332 O2348 1.969 . S
Zn2333 O2340 1.969 . S
Zn2333 O2346 1.969 . S
Zn2333 O2347 1.965 . S
Zn2333 O2349 2.024 . S
C2334 O2335 1.229 . S
C2334 O2343 1.058 . S
O2335 C2334 1.229 . S
C2336 O2337 1.229 . S
C2336 O2349 1.058 . S
O2337 C2336 1.229 . S
O2338 Zn2332 1.969 . S
O2338 C2341 1.267 . S
O2339 Zn2332 1.965 . S
O2339 C2350 1.260 . S
O2340 Zn2333 1.969 . S
O2340 C2350 1.258 . S
C2341 O2338 1.267 . S
C2341 O2342 1.228 . S
O2342 C2341 1.228 . S
O2343 Zn2332 2.024 . S
O2343 C2334 1.058 . S
C2344 O2345 1.228 . S
C2344 O2346 1.267 . S
O2345 C2344 1.228 . S
O2346 Zn2333 1.969 . S
O2346 C2344 1.267 . S
O2347 Zn2333 1.965 . S
O2347 C2351 1.260 . S
O2348 Zn2332 1.969 . S
O2348 C2351 1.258 . S
O2349 Zn2333 2.024 . S
O2349 C2336 1.058 . S
C2350 O2339 1.260 . S
C2350 O2340 1.258 . S
C2351 O2347 1.260 . S
C2351 O2348 1.258 . S
Zn2352 O2358 1.969 . S
Zn2352 O2359 1.965 . S
Zn2352 O2363 2.024 . S
Zn2352 O2368 1.969 . S
Zn2353 O2360 1.969 . S
Zn2353 O2366 1.969 . S
Zn2353 O2367 1.965 . S
Zn2353 O2369 2.024 . S
C2354 O2355 1.229 . S
C2354 O2363 1.058 . S
O2355 C2354 1.229 . S
C2356 O2357 1.229 . S
C2356 O2369 1.058 . S
O2357 C2356 1.229 . S
O2358 Zn2352 1.969 . S
O2358 C2361 1.267 . S
O2359 Zn2352 1.965 . S
O2359 C2370 1.260 . S
O2360 Zn2353 1.969 . S
O2360 C2370 1.258 . S
C2361 O2358 1.267 . S
C2361 O2362 1.228 . S
O2362 C2361 1.228 . S
O2363 Zn2352 2.024 . S
O2363 C2354 1.058 . S
C2364 O2365 1.228 . S
C2364 O2366 1.267 . S
O2365 C2364 1.228 . S
O2366 Zn2353 1.969 . S
O2366 C2364 1.267 . S
O2367 Zn2353 1.965 . S
O2367 C2371 1.260 . S
O2368 Zn2352 1.969 . S
O2368 C2371 1.258 . S
O2369 Zn2353 2.024 . S
O2369 C2356 1.058 . S
C2370 O2359 1.260 . S
C2370 O2360 1.258 . S
C2371 O2367 1.260 . S
C2371 O2368 1.258 . S
Zn2372 O2378 1.969 . S
Zn2372 O2379 1.965 . S
Zn2372 O2383 2.024 . S
Zn2372 O2388 1.969 . S
Zn2373 O2380 1.969 . S
Zn2373 O2386 1.969 . S
Zn2373 O2387 1.965 . S
Zn2373 O2389 2.024 . S
C2374 O2375 1.229 . S
C2374 O2383 1.058 . S
O2375 C2374 1.229 . S
C2376 O2377 1.229 . S
C2376 O2389 1.058 . S
O2377 C2376 1.229 . S
O2378 Zn2372 1.969 . S
O2378 C2381 1.267 . S
O2379 Zn2372 1.965 . S
O2379 C2390 1.260 . S
O2380 Zn2373 1.969 . S
O2380 C2390 1.258 . S
C2381 O2378 1.267 . S
C2381 O2382 1.228 . S
O2382 C2381 1.228 . S
O2383 Zn2372 2.024 . S
O2383 C2374 1.058 . S
C2384 O2385 1.228 . S
C2384 O2386 1.267 . S
O2385 C2384 1.228 . S
O2386 Zn2373 1.969 . S
O2386 C2384 1.267 . S
O2387 Zn2373 1.965 . S
O2387 C2391 1.260 . S
O2388 Zn2372 1.969 . S
O2388 C2391 1.258 . S
O2389 Zn2373 2.024 . S
O2389 C2376 1.058 . S
C2390 O2379 1.260 . S
C2390 O2380 1.258 . S
C2391 O2387 1.260 . S
C2391 O2388 1.258 . S
Zn2392 O2398 1.969 . S
Zn2392 O2399 1.965 . S
Zn2392 O2403 2.024 . S
Zn2392 O2408 1.969 . S
Zn2393 O2400 1.969 . S
Zn2393 O2406 1.969 . S
Zn2393 O2407 1.965 . S
Zn2393 O2409 2.024 . S
C2394 O2395 1.229 . S
C2394 O2403 1.058 . S
O2395 C2394 1.229 . S
C2396 O2397 1.229 . S
C2396 O2409 1.058 . S
O2397 C2396 1.229 . S
O2398 Zn2392 1.969 . S
O2398 C2401 1.267 . S
O2399 Zn2392 1.965 . S
O2399 C2410 1.260 . S
O2400 Zn2393 1.969 . S
O2400 C2410 1.258 . S
C2401 O2398 1.267 . S
C2401 O2402 1.228 . S
O2402 C2401 1.228 . S
O2403 Zn2392 2.024 . S
O2403 C2394 1.058 . S
C2404 O2405 1.228 . S
C2404 O2406 1.267 . S
O2405 C2404 1.228 . S
O2406 Zn2393 1.969 . S
O2406 C2404 1.267 . S
O2407 Zn2393 1.965 . S
O2407 C2411 1.260 . S
O2408 Zn2392 1.969 . S
O2408 C2411 1.258 . S
O2409 Zn2393 2.024 . S
O2409 C2396 1.058 . S
C2410 O2399 1.260 . S
C2410 O2400 1.258 . S
C2411 O2407 1.260 . S
C2411 O2408 1.258 . S
Zn2412 O2418 1.969 . S
Zn2412 O2419 1.965 . S
Zn2412 O2423 2.024 1_655 S
Zn2412 O2428 1.969 1_655 S
Zn2413 O2420 1.969 1_554 S
Zn2413 O2426 1.969 . S
Zn2413 O2427 1.965 . S
Zn2413 O2429 2.024 . S
C2414 O2415 1.207 1_455 S
C2414 O2423 1.058 . S
O2415 C2414 1.207 1_655 S
C2416 O2417 1.220 1_554 S
C2416 O2429 1.067 . S
O2417 C2416 1.220 1_556 S
O2418 Zn2412 1.969 . S
O2418 C2421 1.267 . S
O2419 Zn2412 1.965 . S
O2419 C2430 1.260 1_654 S
O2420 Zn2413 1.969 1_556 S
O2420 C2430 1.258 . S
C2421 O2418 1.267 . S
C2421 O2422 1.228 . S
O2422 C2421 1.228 . S
O2423 Zn2412 2.024 1_455 S
O2423 C2414 1.058 . S
C2424 O2425 1.228 . S
C2424 O2426 1.267 . S
O2425 C2424 1.228 . S
O2426 Zn2413 1.969 . S
O2426 C2424 1.267 . S
O2427 Zn2413 1.965 . S
O2427 C2431 1.260 . S
O2428 Zn2412 1.969 1_455 S
O2428 C2431 1.258 . S
O2429 Zn2413 2.024 . S
O2429 C2416 1.067 . S
C2430 O2419 1.260 1_456 S
C2430 O2420 1.258 . S
C2431 O2427 1.260 . S
C2431 O2428 1.258 . S
H2432 C2440 0.950 . S
H2433 C2445 0.950 . S
H2434 C2442 0.950 . S
H2435 C2444 0.950 . S
H2436 C2446 0.943 1_655 S
H2437 C2448 0.950 . S
H2438 C2450 0.950 . S
H2439 C2451 0.950 . S
C2440 H2432 0.950 . S
C2440 C2441 1.386 1_455 S
C2440 C2442 1.391 . S
C2441 C2440 1.386 1_655 S
C2441 C2445 1.393 . S
C2442 H2434 0.950 . S
C2442 C2440 1.391 . S
C2442 C2443 1.400 . S
C2443 C2442 1.400 . S
C2443 C2444 1.398 1_455 S
C2443 C2449 1.491 . S
C2444 H2435 0.950 . S
C2444 C2443 1.398 1_655 S
C2444 C2445 1.391 . S
C2445 H2433 0.950 . S
C2445 C2441 1.393 . S
C2445 C2444 1.391 . S
C2446 H2436 0.943 1_455 S
C2446 C2447 1.396 . S
C2446 C2448 1.388 1_455 S
C2447 C2446 1.396 . S
C2447 C2451 1.393 1_554 S
C2448 H2437 0.950 . S
C2448 C2446 1.388 1_655 S
C2448 C2449 1.400 1_654 S
C2449 C2443 1.491 . S
C2449 C2448 1.400 1_456 S
C2449 C2450 1.398 . S
C2450 H2438 0.950 . S
C2450 C2449 1.398 . S
C2450 C2451 1.391 . S
C2451 H2439 0.950 . S
C2451 C2447 1.393 1_556 S
C2451 C2450 1.391 . S
H2452 C2460 0.950 . S
H2453 C2465 0.950 . S
H2454 C2462 0.950 . S
H2455 C2464 0.950 . S
H2456 C2466 0.950 . S
H2457 C2468 0.950 . S
H2458 C2470 0.950 . S
H2459 C2471 0.950 . S
C2460 H2452 0.950 . S
C2460 C2461 1.386 . S
C2460 C2462 1.391 . S
C2461 C2460 1.386 . S
C2461 C2465 1.393 . S
C2462 H2454 0.950 . S
C2462 C2460 1.391 . S
C2462 C2463 1.400 . S
C2463 C2462 1.400 . S
C2463 C2464 1.398 . S
C2463 C2469 1.491 . S
C2464 H2455 0.950 . S
C2464 C2463 1.398 . S
C2464 C2465 1.391 . S
C2465 H2453 0.950 . S
C2465 C2461 1.393 . S
C2465 C2464 1.391 . S
C2466 H2456 0.950 . S
C2466 C2467 1.386 . S
C2466 C2468 1.391 . S
C2467 C2466 1.386 . S
C2467 C2471 1.393 . S
C2468 H2457 0.950 . S
C2468 C2466 1.391 . S
C2468 C2469 1.400 . S
C2469 C2463 1.491 . S
C2469 C2468 1.400 . S
C2469 C2470 1.398 . S
C2470 H2458 0.950 . S
C2470 C2469 1.398 . S
C2470 C2471 1.391 . S
C2471 H2459 0.950 . S
C2471 C2467 1.393 . S
C2471 C2470 1.391 . S
H2472 C2480 0.950 . S
H2473 C2485 0.950 . S
H2474 C2482 0.950 . S
H2475 C2484 0.950 . S
H2476 C2486 0.950 . S
H2477 C2488 0.950 . S
H2478 C2490 0.950 . S
H2479 C2491 0.950 . S
C2480 H2472 0.950 . S
C2480 C2481 1.386 . S
C2480 C2482 1.391 . S
C2481 C2480 1.386 . S
C2481 C2485 1.393 . S
C2482 H2474 0.950 . S
C2482 C2480 1.391 . S
C2482 C2483 1.400 . S
C2483 C2482 1.400 . S
C2483 C2484 1.398 . S
C2483 C2489 1.491 . S
C2484 H2475 0.950 . S
C2484 C2483 1.398 . S
C2484 C2485 1.391 . S
C2485 H2473 0.950 . S
C2485 C2481 1.393 . S
C2485 C2484 1.391 . S
C2486 H2476 0.950 . S
C2486 C2487 1.386 . S
C2486 C2488 1.391 . S
C2487 C2486 1.386 . S
C2487 C2491 1.393 . S
C2488 H2477 0.950 . S
C2488 C2486 1.391 . S
C2488 C2489 1.400 . S
C2489 C2483 1.491 . S
C2489 C2488 1.400 . S
C2489 C2490 1.398 . S
C2490 H2478 0.950 . S
C2490 C2489 1.398 . S
C2490 C2491 1.391 . S
C2491 H2479 0.950 . S
C2491 C2487 1.393 . S
C2491 C2490 1.391 . S
H2492 C2500 0.950 . S
H2493 C2505 0.950 . S
H2494 C2502 0.950 . S
H2495 C2504 0.950 . S
H2496 C2506 0.950 . S
H2497 C2508 0.950 . S
H2498 C2510 0.950 . S
H2499 C2511 0.950 . S
C2500 H2492 0.950 . S
C2500 C2501 1.386 . S
C2500 C2502 1.391 . S
C2501 C2500 1.386 . S
C2501 C2505 1.393 . S
C2502 H2494 0.950 . S
C2502 C2500 1.391 . S
C2502 C2503 1.400 . S
C2503 C2502 1.400 . S
C2503 C2504 1.398 . S
C2503 C2509 1.491 . S
C2504 H2495 0.950 . S
C2504 C2503 1.398 . S
C2504 C2505 1.391 . S
C2505 H2493 0.950 . S
C2505 C2501 1.393 . S
C2505 C2504 1.391 . S
C2506 H2496 0.950 . S
C2506 C2507 1.386 . S
C2506 C2508 1.391 . S
C2507 C2506 1.386 . S
C2507 C2511 1.393 . S
C2508 H2497 0.950 . S
C2508 C2506 1.391 . S
C2508 C2509 1.400 . S
C2509 C2503 1.491 . S
C2509 C2508 1.400 . S
C2509 C2510 1.398 . S
C2510 H2498 0.950 . S
C2510 C2509 1.398 . S
C2510 C2511 1.391 . S
C2511 H2499 0.950 . S
C2511 C2507 1.393 . S
C2511 C2510 1.391 . S
H2512 C2520 0.950 . S
H2513 C2525 0.950 . S
H2514 C2522 0.950 . S
H2515 C2524 0.950 . S
H2516 C2526 0.950 1_655 S
H2517 C2528 0.907 1_655 S
H2518 C2530 0.950 . S
H2519 C2531 0.950 . S
C2520 H2512 0.950 . S
C2520 C2521 1.386 . S
C2520 C2522 1.391 . S
C2521 C2520 1.386 . S
C2521 C2525 1.393 1_455 S
C2522 H2514 0.950 . S
C2522 C2520 1.391 . S
C2522 C2523 1.400 . S
C2523 C2522 1.400 . S
C2523 C2524 1.398 1_455 S
C2523 C2529 1.491 . S
C2524 H2515 0.950 . S
C2524 C2523 1.398 1_655 S
C2524 C2525 1.391 . S
C2525 H2513 0.950 . S
C2525 C2521 1.393 1_655 S
C2525 C2524 1.391 . S
C2526 H2516 0.950 1_455 S
C2526 C2527 1.386 . S
C2526 C2528 1.392 . S
C2527 C2526 1.386 . S
C2527 C2531 1.393 . S
C2528 H2517 0.907 1_455 S
C2528 C2526 1.392 . S
C2528 C2529 1.443 . S
C2529 C2523 1.491 . S
C2529 C2528 1.443 . S
C2529 C2530 1.398 . S
C2530 H2518 0.950 . S
C2530 C2529 1.398 . S
C2530 C2531 1.391 . S
C2531 H2519 0.950 . S
C2531 C2527 1.393 . S
C2531 C2530 1.391 . S
H2532 C2540 0.950 . S
H2533 C2545 0.950 . S
H2534 C2542 0.950 . S
H2535 C2544 0.950 . S
H2536 C2546 0.950 . S
H2537 C2548 0.950 . S
H2538 C2550 0.950 . S
H2539 C2551 0.950 . S
C2540 H2532 0.950 . S
C2540 C2541 1.386 . S
C2540 C2542 1.391 . S
C2541 C2540 1.386 . S
C2541 C2545 1.393 . S
C2542 H2534 0.950 . S
C2542 C2540 1.391 . S
C2542 C2543 1.400 . S
C2543 C2542 1.400 . S
C2543 C2544 1.398 . S
C2543 C2549 1.491 . S
C2544 H2535 0.950 . S
C2544 C2543 1.398 . S
C2544 C2545 1.391 . S
C2545 H2533 0.950 . S
C2545 C2541 1.393 . S
C2545 C2544 1.391 . S
C2546 H2536 0.950 . S
C2546 C2547 1.386 . S
C2546 C2548 1.391 . S
C2547 C2546 1.386 . S
C2547 C2551 1.393 . S
C2548 H2537 0.950 . S
C2548 C2546 1.391 . S
C2548 C2549 1.400 . S
C2549 C2543 1.491 . S
C2549 C2548 1.400 . S
C2549 C2550 1.398 . S
C2550 H2538 0.950 . S
C2550 C2549 1.398 . S
C2550 C2551 1.391 . S
C2551 H2539 0.950 . S
C2551 C2547 1.393 . S
C2551 C2550 1.391 . S
H2552 C2560 0.950 . S
H2553 C2565 0.950 . S
H2554 C2562 0.950 . S
H2555 C2564 0.950 . S
H2556 C2566 0.950 . S
H2557 C2568 0.950 . S
H2558 C2570 0.950 . S
H2559 C2571 0.950 . S
C2560 H2552 0.950 . S
C2560 C2561 1.386 . S
C2560 C2562 1.391 . S
C2561 C2560 1.386 . S
C2561 C2565 1.393 . S
C2562 H2554 0.950 . S
C2562 C2560 1.391 . S
C2562 C2563 1.400 . S
C2563 C2562 1.400 . S
C2563 C2564 1.398 . S
C2563 C2569 1.491 . S
C2564 H2555 0.950 . S
C2564 C2563 1.398 . S
C2564 C2565 1.391 . S
C2565 H2553 0.950 . S
C2565 C2561 1.393 . S
C2565 C2564 1.391 . S
C2566 H2556 0.950 . S
C2566 C2567 1.386 . S
C2566 C2568 1.391 . S
C2567 C2566 1.386 . S
C2567 C2571 1.393 . S
C2568 H2557 0.950 . S
C2568 C2566 1.391 . S
C2568 C2569 1.400 . S
C2569 C2563 1.491 . S
C2569 C2568 1.400 . S
C2569 C2570 1.398 . S
C2570 H2558 0.950 . S
C2570 C2569 1.398 . S
C2570 C2571 1.391 . S
C2571 H2559 0.950 . S
C2571 C2567 1.393 . S
C2571 C2570 1.391 . S
H2572 C2580 0.950 . S
H2573 C2585 0.950 . S
H2574 C2582 0.950 . S
H2575 C2584 0.950 . S
H2576 C2586 0.950 . S
H2577 C2588 0.950 . S
H2578 C2590 0.950 . S
H2579 C2591 0.950 . S
C2580 H2572 0.950 . S
C2580 C2581 1.386 . S
C2580 C2582 1.391 . S
C2581 C2580 1.386 . S
C2581 C2585 1.393 . S
C2582 H2574 0.950 . S
C2582 C2580 1.391 . S
C2582 C2583 1.400 . S
C2583 C2582 1.400 . S
C2583 C2584 1.398 . S
C2583 C2589 1.491 . S
C2584 H2575 0.950 . S
C2584 C2583 1.398 . S
C2584 C2585 1.391 . S
C2585 H2573 0.950 . S
C2585 C2581 1.393 . S
C2585 C2584 1.391 . S
C2586 H2576 0.950 . S
C2586 C2587 1.386 . S
C2586 C2588 1.391 . S
C2587 C2586 1.386 . S
C2587 C2591 1.393 . S
C2588 H2577 0.950 . S
C2588 C2586 1.391 . S
C2588 C2589 1.400 . S
C2589 C2583 1.491 . S
C2589 C2588 1.400 . S
C2589 C2590 1.398 . S
C2590 H2578 0.950 . S
C2590 C2589 1.398 . S
C2590 C2591 1.391 . S
C2591 H2579 0.950 . S
C2591 C2587 1.393 . S
C2591 C2590 1.391 . S
H2592 C2600 0.976 . S
H2593 C2605 0.950 . S
H2594 C2602 0.951 . S
H2595 C2604 0.950 . S
H2596 C2606 0.950 . S
H2597 C2608 0.950 . S
H2598 C2610 0.950 1_565 S
H2599 C2611 0.950 1_565 S
C2600 H2592 0.976 . S
C2600 C2601 1.361 1_565 S
C2600 C2602 1.391 . S
C2601 C2600 1.361 1_545 S
C2601 C2605 1.393 . S
C2602 H2594 0.951 . S
C2602 C2600 1.391 . S
C2602 C2603 1.399 1_565 S
C2603 C2602 1.399 1_545 S
C2603 C2604 1.398 . S
C2603 C2609 1.491 . S
C2604 H2595 0.950 . S
C2604 C2603 1.398 . S
C2604 C2605 1.391 . S
C2605 H2593 0.950 . S
C2605 C2601 1.393 . S
C2605 C2604 1.391 . S
C2606 H2596 0.950 . S
C2606 C2607 1.386 . S
C2606 C2608 1.391 . S
C2607 C2606 1.386 . S
C2607 C2611 1.393 . S
C2608 H2597 0.950 . S
C2608 C2606 1.391 . S
C2608 C2609 1.400 . S
C2609 C2603 1.491 . S
C2609 C2608 1.400 . S
C2609 C2610 1.398 . S
C2610 H2598 0.950 1_545 S
C2610 C2609 1.398 . S
C2610 C2611 1.391 . S
C2611 H2599 0.950 1_545 S
C2611 C2607 1.393 . S
C2611 C2610 1.391 . S
H2612 C2620 0.950 . S
H2613 C2625 0.950 . S
H2614 C2622 0.950 . S
H2615 C2624 0.950 . S
H2616 C2626 0.950 . S
H2617 C2628 0.950 . S
H2618 C2630 0.950 . S
H2619 C2631 0.950 . S
C2620 H2612 0.950 . S
C2620 C2621 1.386 . S
C2620 C2622 1.391 . S
C2621 C2620 1.386 . S
C2621 C2625 1.393 . S
C2622 H2614 0.950 . S
C2622 C2620 1.391 . S
C2622 C2623 1.400 . S
C2623 C2622 1.400 . S
C2623 C2624 1.398 . S
C2623 C2629 1.491 . S
C2624 H2615 0.950 . S
C2624 C2623 1.398 . S
C2624 C2625 1.391 . S
C2625 H2613 0.950 . S
C2625 C2621 1.393 . S
C2625 C2624 1.391 . S
C2626 H2616 0.950 . S
C2626 C2627 1.386 . S
C2626 C2628 1.391 . S
C2627 C2626 1.386 . S
C2627 C2631 1.393 . S
C2628 H2617 0.950 . S
C2628 C2626 1.391 . S
C2628 C2629 1.400 . S
C2629 C2623 1.491 . S
C2629 C2628 1.400 . S
C2629 C2630 1.398 . S
C2630 H2618 0.950 . S
C2630 C2629 1.398 . S
C2630 C2631 1.391 . S
C2631 H2619 0.950 . S
C2631 C2627 1.393 . S
C2631 C2630 1.391 . S
H2632 C2640 0.950 . S
H2633 C2645 0.950 . S
H2634 C2642 0.950 . S
H2635 C2644 0.950 . S
H2636 C2646 0.950 . S
H2637 C2648 0.950 . S
H2638 C2650 0.950 . S
H2639 C2651 0.950 . S
C2640 H2632 0.950 . S
C2640 C2641 1.386 1_545 S
C2640 C2642 1.391 . S
C2641 C2640 1.386 1_565 S
C2641 C2645 1.393 . S
C2642 H2634 0.950 . S
C2642 C2640 1.391 . S
C2642 C2643 1.400 1_545 S
C2643 C2642 1.400 1_565 S
C2643 C2644 1.398 . S
C2643 C2649 1.491 . S
C2644 H2635 0.950 . S
C2644 C2643 1.398 . S
C2644 C2645 1.391 . S
C2645 H2633 0.950 . S
C2645 C2641 1.393 . S
C2645 C2644 1.391 . S
C2646 H2636 0.950 . S
C2646 C2647 1.386 1_565 S
C2646 C2648 1.391 . S
C2647 C2646 1.386 1_545 S
C2647 C2651 1.393 . S
C2648 H2637 0.950 . S
C2648 C2646 1.391 . S
C2648 C2649 1.400 . S
C2649 C2643 1.491 . S
C2649 C2648 1.400 . S
C2649 C2650 1.398 1_565 S
C2650 H2638 0.950 . S
C2650 C2649 1.398 1_545 S
C2650 C2651 1.391 . S
C2651 H2639 0.950 . S
C2651 C2647 1.393 . S
C2651 C2650 1.391 . S
H2652 C2660 0.950 . S
H2653 C2665 0.950 . S
H2654 C2662 0.950 . S
H2655 C2664 0.950 . S
H2656 C2666 0.950 . S
H2657 C2668 0.950 . S
H2658 C2670 0.950 . S
H2659 C2671 0.950 . S
C2660 H2652 0.950 . S
C2660 C2661 1.386 . S
C2660 C2662 1.391 . S
C2661 C2660 1.386 . S
C2661 C2665 1.393 . S
C2662 H2654 0.950 . S
C2662 C2660 1.391 . S
C2662 C2663 1.400 . S
C2663 C2662 1.400 . S
C2663 C2664 1.398 . S
C2663 C2669 1.491 . S
C2664 H2655 0.950 . S
C2664 C2663 1.398 . S
C2664 C2665 1.391 . S
C2665 H2653 0.950 . S
C2665 C2661 1.393 . S
C2665 C2664 1.391 . S
C2666 H2656 0.950 . S
C2666 C2667 1.386 . S
C2666 C2668 1.391 . S
C2667 C2666 1.386 . S
C2667 C2671 1.393 . S
C2668 H2657 0.950 . S
C2668 C2666 1.391 . S
C2668 C2669 1.400 . S
C2669 C2663 1.491 . S
C2669 C2668 1.400 . S
C2669 C2670 1.398 . S
C2670 H2658 0.950 . S
C2670 C2669 1.398 . S
C2670 C2671 1.391 . S
C2671 H2659 0.950 . S
C2671 C2667 1.393 . S
C2671 C2670 1.391 . S
H2672 C2680 0.950 . S
H2673 C2685 0.950 . S
H2674 C2682 0.950 . S
H2675 C2684 0.950 . S
H2676 C2686 0.950 . S
H2677 C2688 0.950 . S
H2678 C2690 0.950 1_565 S
H2679 C2691 0.918 1_465 S
C2680 H2672 0.950 . S
C2680 C2681 1.386 . S
C2680 C2682 1.391 . S
C2681 C2680 1.386 . S
C2681 C2685 1.393 . S
C2682 H2674 0.950 . S
C2682 C2680 1.391 . S
C2682 C2683 1.400 . S
C2683 C2682 1.400 . S
C2683 C2684 1.398 . S
C2683 C2689 1.491 . S
C2684 H2675 0.950 . S
C2684 C2683 1.398 . S
C2684 C2685 1.391 . S
C2685 H2673 0.950 . S
C2685 C2681 1.393 . S
C2685 C2684 1.391 . S
C2686 H2676 0.950 . S
C2686 C2687 1.386 . S
C2686 C2688 1.391 . S
C2687 C2686 1.386 . S
C2687 C2691 1.413 . S
C2688 H2677 0.950 . S
C2688 C2686 1.391 . S
C2688 C2689 1.400 . S
C2689 C2683 1.491 . S
C2689 C2688 1.400 . S
C2689 C2690 1.398 . S
C2690 H2678 0.950 1_545 S
C2690 C2689 1.398 . S
C2690 C2691 1.403 . S
C2691 H2679 0.918 1_645 S
C2691 C2687 1.413 . S
C2691 C2690 1.403 . S
H2692 C2700 0.950 . S
H2693 C2705 0.950 . S
H2694 C2702 0.950 . S
H2695 C2704 0.950 . S
H2696 C2706 0.950 . S
H2697 C2708 0.950 . S
H2698 C2710 0.950 . S
H2699 C2711 0.950 . S
C2700 H2692 0.950 . S
C2700 C2701 1.386 . S
C2700 C2702 1.391 . S
C2701 C2700 1.386 . S
C2701 C2705 1.393 . S
C2702 H2694 0.950 . S
C2702 C2700 1.391 . S
C2702 C2703 1.400 . S
C2703 C2702 1.400 . S
C2703 C2704 1.398 . S
C2703 C2709 1.491 . S
C2704 H2695 0.950 . S
C2704 C2703 1.398 . S
C2704 C2705 1.391 . S
C2705 H2693 0.950 . S
C2705 C2701 1.393 . S
C2705 C2704 1.391 . S
C2706 H2696 0.950 . S
C2706 C2707 1.386 . S
C2706 C2708 1.391 . S
C2707 C2706 1.386 . S
C2707 C2711 1.393 . S
C2708 H2697 0.950 . S
C2708 C2706 1.391 . S
C2708 C2709 1.400 . S
C2709 C2703 1.491 . S
C2709 C2708 1.400 . S
C2709 C2710 1.398 . S
C2710 H2698 0.950 . S
C2710 C2709 1.398 . S
C2710 C2711 1.391 . S
C2711 H2699 0.950 . S
C2711 C2707 1.393 . S
C2711 C2710 1.391 . S
H2712 C2720 0.950 . S
H2713 C2725 0.950 . S
H2714 C2722 0.950 . S
H2715 C2724 0.950 . S
H2716 C2726 0.950 . S
H2717 C2728 0.950 . S
H2718 C2730 0.950 . S
H2719 C2731 0.950 . S
C2720 H2712 0.950 . S
C2720 C2721 1.386 1_545 S
C2720 C2722 1.391 . S
C2721 C2720 1.386 1_565 S
C2721 C2725 1.396 . S
C2722 H2714 0.950 . S
C2722 C2720 1.391 . S
C2722 C2723 1.400 . S
C2723 C2722 1.400 . S
C2723 C2724 1.398 . S
C2723 C2729 1.491 . S
C2724 H2715 0.950 . S
C2724 C2723 1.398 . S
C2724 C2725 1.387 1_545 S
C2725 H2713 0.950 . S
C2725 C2721 1.396 . S
C2725 C2724 1.387 1_565 S
C2726 H2716 0.950 . S
C2726 C2727 1.386 . S
C2726 C2728 1.391 . S
C2727 C2726 1.386 . S
C2727 C2731 1.393 . S
C2728 H2717 0.950 . S
C2728 C2726 1.391 . S
C2728 C2729 1.400 . S
C2729 C2723 1.491 . S
C2729 C2728 1.400 . S
C2729 C2730 1.398 . S
C2730 H2718 0.950 . S
C2730 C2729 1.398 . S
C2730 C2731 1.391 . S
C2731 H2719 0.950 . S
C2731 C2727 1.393 . S
C2731 C2730 1.391 . S
H2732 C2740 0.950 . S
H2733 C2745 0.950 . S
H2734 C2742 0.950 . S
H2735 C2744 0.950 . S
H2736 C2746 0.950 . S
H2737 C2748 0.950 . S
H2738 C2750 0.950 . S
H2739 C2751 0.950 . S
C2740 H2732 0.950 . S
C2740 C2741 1.386 . S
C2740 C2742 1.391 . S
C2741 C2740 1.386 . S
C2741 C2745 1.393 . S
C2742 H2734 0.950 . S
C2742 C2740 1.391 . S
C2742 C2743 1.400 . S
C2743 C2742 1.400 . S
C2743 C2744 1.398 . S
C2743 C2749 1.491 . S
C2744 H2735 0.950 . S
C2744 C2743 1.398 . S
C2744 C2745 1.391 . S
C2745 H2733 0.950 . S
C2745 C2741 1.393 . S
C2745 C2744 1.391 . S
C2746 H2736 0.950 . S
C2746 C2747 1.386 . S
C2746 C2748 1.391 . S
C2747 C2746 1.386 . S
C2747 C2751 1.393 . S
C2748 H2737 0.950 . S
C2748 C2746 1.391 . S
C2748 C2749 1.400 . S
C2749 C2743 1.491 . S
C2749 C2748 1.400 . S
C2749 C2750 1.398 . S
C2750 H2738 0.950 . S
C2750 C2749 1.398 . S
C2750 C2751 1.391 . S
C2751 H2739 0.950 . S
C2751 C2747 1.393 . S
C2751 C2750 1.391 . S
H2752 C2760 0.950 . S
H2753 C2765 0.950 . S
H2754 C2762 0.950 . S
H2755 C2764 0.950 . S
H2756 C2766 0.950 . S
H2757 C2768 0.950 . S
H2758 C2770 0.950 . S
H2759 C2771 0.950 1_545 S
C2760 H2752 0.950 . S
C2760 C2761 1.386 . S
C2760 C2762 1.391 . S
C2761 C2760 1.386 . S
C2761 C2765 1.393 . S
C2762 H2754 0.950 . S
C2762 C2760 1.391 . S
C2762 C2763 1.400 . S
C2763 C2762 1.400 . S
C2763 C2764 1.398 . S
C2763 C2769 1.491 . S
C2764 H2755 0.950 . S
C2764 C2763 1.398 . S
C2764 C2765 1.391 . S
C2765 H2753 0.950 . S
C2765 C2761 1.393 . S
C2765 C2764 1.391 . S
C2766 H2756 0.950 . S
C2766 C2767 1.386 . S
C2766 C2768 1.391 . S
C2767 C2766 1.386 . S
C2767 C2771 1.393 . S
C2768 H2757 0.950 . S
C2768 C2766 1.391 . S
C2768 C2769 1.400 . S
C2769 C2763 1.491 . S
C2769 C2768 1.400 . S
C2769 C2770 1.398 . S
C2770 H2758 0.950 . S
C2770 C2769 1.398 . S
C2770 C2771 1.391 . S
C2771 H2759 0.950 1_565 S
C2771 C2767 1.393 . S
C2771 C2770 1.391 . S
H2772 C2780 0.950 . S
H2773 C2785 0.954 . S
H2774 C2782 0.950 . S
H2775 C2784 0.966 . S
H2776 C2786 0.950 . S
H2777 C2788 0.950 . S
H2778 C2790 0.950 . S
H2779 C2791 0.950 . S
C2780 H2772 0.950 . S
C2780 C2781 1.386 . S
C2780 C2782 1.391 . S
C2781 C2780 1.386 . S
C2781 C2785 1.393 . S
C2782 H2774 0.950 . S
C2782 C2780 1.391 . S
C2782 C2783 1.392 1_556 S
C2783 C2782 1.392 1_554 S
C2783 C2784 1.398 . S
C2783 C2789 1.499 . S
C2784 H2775 0.966 . S
C2784 C2783 1.398 . S
C2784 C2785 1.378 1_554 S
C2785 H2773 0.954 . S
C2785 C2781 1.393 . S
C2785 C2784 1.378 1_556 S
C2786 H2776 0.950 . S
C2786 C2787 1.386 . S
C2786 C2788 1.391 . S
C2787 C2786 1.386 . S
C2787 C2791 1.393 . S
C2788 H2777 0.950 . S
C2788 C2786 1.391 . S
C2788 C2789 1.400 . S
C2789 C2783 1.499 . S
C2789 C2788 1.400 . S
C2789 C2790 1.398 . S
C2790 H2778 0.950 . S
C2790 C2789 1.398 . S
C2790 C2791 1.391 . S
C2791 H2779 0.950 . S
C2791 C2787 1.393 . S
C2791 C2790 1.391 . S
H2792 C2800 0.950 . S
H2793 C2805 0.950 . S
H2794 C2802 0.950 . S
H2795 C2804 0.950 . S
H2796 C2806 0.950 . S
H2797 C2808 0.950 . S
H2798 C2810 0.950 . S
H2799 C2811 0.950 . S
C2800 H2792 0.950 . S
C2800 C2801 1.386 . S
C2800 C2802 1.391 . S
C2801 C2800 1.386 . S
C2801 C2805 1.393 . S
C2802 H2794 0.950 . S
C2802 C2800 1.391 . S
C2802 C2803 1.400 . S
C2803 C2802 1.400 . S
C2803 C2804 1.398 . S
C2803 C2809 1.491 . S
C2804 H2795 0.950 . S
C2804 C2803 1.398 . S
C2804 C2805 1.391 . S
C2805 H2793 0.950 . S
C2805 C2801 1.393 . S
C2805 C2804 1.391 . S
C2806 H2796 0.950 . S
C2806 C2807 1.386 . S
C2806 C2808 1.391 . S
C2807 C2806 1.386 . S
C2807 C2811 1.393 . S
C2808 H2797 0.950 . S
C2808 C2806 1.391 . S
C2808 C2809 1.400 . S
C2809 C2803 1.491 . S
C2809 C2808 1.400 . S
C2809 C2810 1.398 . S
C2810 H2798 0.950 . S
C2810 C2809 1.398 . S
C2810 C2811 1.391 . S
C2811 H2799 0.950 . S
C2811 C2807 1.393 . S
C2811 C2810 1.391 . S
H2812 C2820 0.950 . S
H2813 C2825 0.950 . S
H2814 C2822 0.950 . S
H2815 C2824 0.950 . S
H2816 C2826 0.950 . S
H2817 C2828 0.950 . S
H2818 C2830 0.950 . S
H2819 C2831 0.950 . S
C2820 H2812 0.950 . S
C2820 C2821 1.386 . S
C2820 C2822 1.391 . S
C2821 C2820 1.386 . S
C2821 C2825 1.393 . S
C2822 H2814 0.950 . S
C2822 C2820 1.391 . S
C2822 C2823 1.400 . S
C2823 C2822 1.400 . S
C2823 C2824 1.398 . S
C2823 C2829 1.491 . S
C2824 H2815 0.950 . S
C2824 C2823 1.398 . S
C2824 C2825 1.391 . S
C2825 H2813 0.950 . S
C2825 C2821 1.393 . S
C2825 C2824 1.391 . S
C2826 H2816 0.950 . S
C2826 C2827 1.386 . S
C2826 C2828 1.391 . S
C2827 C2826 1.386 . S
C2827 C2831 1.393 . S
C2828 H2817 0.950 . S
C2828 C2826 1.391 . S
C2828 C2829 1.400 . S
C2829 C2823 1.491 . S
C2829 C2828 1.400 . S
C2829 C2830 1.398 . S
C2830 H2818 0.950 . S
C2830 C2829 1.398 . S
C2830 C2831 1.391 . S
C2831 H2819 0.950 . S
C2831 C2827 1.393 . S
C2831 C2830 1.391 . S
H2832 C2840 0.950 . S
H2833 C2845 0.950 . S
H2834 C2842 0.950 . S
H2835 C2844 0.950 . S
H2836 C2846 0.950 . S
H2837 C2848 0.950 . S
H2838 C2850 0.950 . S
H2839 C2851 0.950 . S
C2840 H2832 0.950 . S
C2840 C2841 1.386 . S
C2840 C2842 1.391 . S
C2841 C2840 1.386 . S
C2841 C2845 1.393 . S
C2842 H2834 0.950 . S
C2842 C2840 1.391 . S
C2842 C2843 1.400 . S
C2843 C2842 1.400 . S
C2843 C2844 1.398 . S
C2843 C2849 1.491 . S
C2844 H2835 0.950 . S
C2844 C2843 1.398 . S
C2844 C2845 1.391 . S
C2845 H2833 0.950 . S
C2845 C2841 1.393 . S
C2845 C2844 1.391 . S
C2846 H2836 0.950 . S
C2846 C2847 1.386 . S
C2846 C2848 1.391 . S
C2847 C2846 1.386 . S
C2847 C2851 1.393 . S
C2848 H2837 0.950 . S
C2848 C2846 1.391 . S
C2848 C2849 1.400 . S
C2849 C2843 1.491 . S
C2849 C2848 1.400 . S
C2849 C2850 1.398 . S
C2850 H2838 0.950 . S
C2850 C2849 1.398 . S
C2850 C2851 1.391 . S
C2851 H2839 0.950 . S
C2851 C2847 1.393 . S
C2851 C2850 1.391 . S
H2852 C2860 0.950 . S
H2853 C2865 0.950 . S
H2854 C2862 0.950 . S
H2855 C2864 0.950 . S
H2856 C2866 0.950 . S
H2857 C2868 0.950 . S
H2858 C2870 0.950 . S
H2859 C2871 0.950 . S
C2860 H2852 0.950 . S
C2860 C2861 1.386 . S
C2860 C2862 1.391 . S
C2861 C2860 1.386 . S
C2861 C2865 1.393 . S
C2862 H2854 0.950 . S
C2862 C2860 1.391 . S
C2862 C2863 1.400 . S
C2863 C2862 1.400 . S
C2863 C2864 1.398 . S
C2863 C2869 1.491 . S
C2864 H2855 0.950 . S
C2864 C2863 1.398 . S
C2864 C2865 1.391 . S
C2865 H2853 0.950 . S
C2865 C2861 1.393 . S
C2865 C2864 1.391 . S
C2866 H2856 0.950 . S
C2866 C2867 1.386 . S
C2866 C2868 1.391 . S
C2867 C2866 1.386 . S
C2867 C2871 1.393 . S
C2868 H2857 0.950 . S
C2868 C2866 1.391 . S
C2868 C2869 1.400 . S
C2869 C2863 1.491 . S
C2869 C2868 1.400 . S
C2869 C2870 1.398 . S
C2870 H2858 0.950 . S
C2870 C2869 1.398 . S
C2870 C2871 1.391 . S
C2871 H2859 0.950 . S
C2871 C2867 1.393 . S
C2871 C2870 1.391 . S
H2872 C2880 0.950 . S
H2873 C2885 0.950 . S
H2874 C2882 0.950 . S
H2875 C2884 0.950 . S
H2876 C2886 0.950 . S
H2877 C2888 0.950 . S
H2878 C2890 0.950 . S
H2879 C2891 0.950 . S
C2880 H2872 0.950 . S
C2880 C2881 1.386 . S
C2880 C2882 1.391 . S
C2881 C2880 1.386 . S
C2881 C2885 1.393 . S
C2882 H2874 0.950 . S
C2882 C2880 1.391 . S
C2882 C2883 1.400 . S
C2883 C2882 1.400 . S
C2883 C2884 1.398 . S
C2883 C2889 1.491 . S
C2884 H2875 0.950 . S
C2884 C2883 1.398 . S
C2884 C2885 1.391 . S
C2885 H2873 0.950 . S
C2885 C2881 1.393 . S
C2885 C2884 1.391 . S
C2886 H2876 0.950 . S
C2886 C2887 1.386 . S
C2886 C2888 1.391 . S
C2887 C2886 1.386 . S
C2887 C2891 1.393 . S
C2888 H2877 0.950 . S
C2888 C2886 1.391 . S
C2888 C2889 1.400 . S
C2889 C2883 1.491 . S
C2889 C2888 1.400 . S
C2889 C2890 1.398 . S
C2890 H2878 0.950 . S
C2890 C2889 1.398 . S
C2890 C2891 1.391 . S
C2891 H2879 0.950 . S
C2891 C2887 1.393 . S
C2891 C2890 1.391 . S
H2892 C2900 0.950 . S
H2893 C2905 0.950 . S
H2894 C2902 0.950 . S
H2895 C2904 0.950 . S
H2896 C2906 0.950 . S
H2897 C2908 0.950 . S
H2898 C2910 0.950 . S
H2899 C2911 0.950 . S
C2900 H2892 0.950 . S
C2900 C2901 1.386 . S
C2900 C2902 1.391 . S
C2901 C2900 1.386 . S
C2901 C2905 1.393 . S
C2902 H2894 0.950 . S
C2902 C2900 1.391 . S
C2902 C2903 1.400 . S
C2903 C2902 1.400 . S
C2903 C2904 1.398 . S
C2903 C2909 1.491 . S
C2904 H2895 0.950 . S
C2904 C2903 1.398 . S
C2904 C2905 1.391 . S
C2905 H2893 0.950 . S
C2905 C2901 1.393 . S
C2905 C2904 1.391 . S
C2906 H2896 0.950 . S
C2906 C2907 1.386 . S
C2906 C2908 1.391 . S
C2907 C2906 1.386 . S
C2907 C2911 1.393 . S
C2908 H2897 0.950 . S
C2908 C2906 1.391 . S
C2908 C2909 1.400 . S
C2909 C2903 1.491 . S
C2909 C2908 1.400 . S
C2909 C2910 1.398 . S
C2910 H2898 0.950 . S
C2910 C2909 1.398 . S
C2910 C2911 1.391 . S
C2911 H2899 0.950 . S
C2911 C2907 1.393 . S
C2911 C2910 1.391 . S
H2912 C2920 0.950 . S
H2913 C2925 0.950 . S
H2914 C2922 0.950 1_655 S
H2915 C2924 0.950 . S
H2916 C2926 0.950 . S
H2917 C2928 0.950 . S
H2918 C2930 0.950 1_655 S
H2919 C2931 0.950 . S
C2920 H2912 0.950 . S
C2920 C2921 1.386 . S
C2920 C2922 1.391 . S
C2921 C2920 1.386 . S
C2921 C2925 1.393 . S
C2922 H2914 0.950 1_455 S
C2922 C2920 1.391 . S
C2922 C2923 1.400 . S
C2923 C2922 1.400 . S
C2923 C2924 1.398 . S
C2923 C2929 1.491 . S
C2924 H2915 0.950 . S
C2924 C2923 1.398 . S
C2924 C2925 1.391 . S
C2925 H2913 0.950 . S
C2925 C2921 1.393 . S
C2925 C2924 1.391 . S
C2926 H2916 0.950 . S
C2926 C2927 1.386 . S
C2926 C2928 1.391 . S
C2927 C2926 1.386 . S
C2927 C2931 1.393 1_455 S
C2928 H2917 0.950 . S
C2928 C2926 1.391 . S
C2928 C2929 1.400 . S
C2929 C2923 1.491 . S
C2929 C2928 1.400 . S
C2929 C2930 1.398 . S
C2930 H2918 0.950 1_455 S
C2930 C2929 1.398 . S
C2930 C2931 1.391 1_455 S
C2931 H2919 0.950 . S
C2931 C2927 1.393 1_655 S
C2931 C2930 1.391 1_655 S
H2932 C2940 0.950 . S
H2933 C2945 0.950 . S
H2934 C2942 0.950 . S
H2935 C2944 0.950 . S
H2936 C2946 0.950 . S
H2937 C2948 0.950 . S
H2938 C2950 0.950 . S
H2939 C2951 0.950 . S
C2940 H2932 0.950 . S
C2940 C2941 1.386 . S
C2940 C2942 1.391 . S
C2941 C2940 1.386 . S
C2941 C2945 1.393 . S
C2942 H2934 0.950 . S
C2942 C2940 1.391 . S
C2942 C2943 1.400 . S
C2943 C2942 1.400 . S
C2943 C2944 1.398 . S
C2943 C2949 1.491 . S
C2944 H2935 0.950 . S
C2944 C2943 1.398 . S
C2944 C2945 1.391 . S
C2945 H2933 0.950 . S
C2945 C2941 1.393 . S
C2945 C2944 1.391 . S
C2946 H2936 0.950 . S
C2946 C2947 1.386 . S
C2946 C2948 1.391 . S
C2947 C2946 1.386 . S
C2947 C2951 1.393 . S
C2948 H2937 0.950 . S
C2948 C2946 1.391 . S
C2948 C2949 1.400 . S
C2949 C2943 1.491 . S
C2949 C2948 1.400 . S
C2949 C2950 1.398 . S
C2950 H2938 0.950 . S
C2950 C2949 1.398 . S
C2950 C2951 1.391 . S
C2951 H2939 0.950 . S
C2951 C2947 1.393 . S
C2951 C2950 1.391 . S
H2952 C2960 0.950 . S
H2953 C2965 0.950 . S
H2954 C2962 0.950 . S
H2955 C2964 0.950 . S
H2956 C2966 0.950 . S
H2957 C2968 0.950 . S
H2958 C2970 0.950 . S
H2959 C2971 0.950 . S
C2960 H2952 0.950 . S
C2960 C2961 1.386 . S
C2960 C2962 1.391 . S
C2961 C2960 1.386 . S
C2961 C2965 1.393 . S
C2962 H2954 0.950 . S
C2962 C2960 1.391 . S
C2962 C2963 1.400 . S
C2963 C2962 1.400 . S
C2963 C2964 1.398 . S
C2963 C2969 1.491 . S
C2964 H2955 0.950 . S
C2964 C2963 1.398 . S
C2964 C2965 1.391 . S
C2965 H2953 0.950 . S
C2965 C2961 1.393 . S
C2965 C2964 1.391 . S
C2966 H2956 0.950 . S
C2966 C2967 1.386 . S
C2966 C2968 1.391 . S
C2967 C2966 1.386 . S
C2967 C2971 1.393 . S
C2968 H2957 0.950 . S
C2968 C2966 1.391 . S
C2968 C2969 1.400 . S
C2969 C2963 1.491 . S
C2969 C2968 1.400 . S
C2969 C2970 1.398 . S
C2970 H2958 0.950 . S
C2970 C2969 1.398 . S
C2970 C2971 1.391 . S
C2971 H2959 0.950 . S
C2971 C2967 1.393 . S
C2971 C2970 1.391 . S
H2972 C2980 0.950 . S
H2973 C2985 0.950 . S
H2974 C2982 0.950 . S
H2975 C2984 0.950 . S
H2976 C2986 0.950 . S
H2977 C2988 0.950 . S
H2978 C2990 0.950 . S
H2979 C2991 0.950 . S
C2980 H2972 0.950 . S
C2980 C2981 1.386 . S
C2980 C2982 1.391 . S
C2981 C2980 1.386 . S
C2981 C2985 1.393 . S
C2982 H2974 0.950 . S
C2982 C2980 1.391 . S
C2982 C2983 1.400 . S
C2983 C2982 1.400 . S
C2983 C2984 1.398 . S
C2983 C2989 1.491 . S
C2984 H2975 0.950 . S
C2984 C2983 1.398 . S
C2984 C2985 1.391 . S
C2985 H2973 0.950 . S
C2985 C2981 1.393 . S
C2985 C2984 1.391 . S
C2986 H2976 0.950 . S
C2986 C2987 1.386 . S
C2986 C2988 1.391 . S
C2987 C2986 1.386 . S
C2987 C2991 1.393 . S
C2988 H2977 0.950 . S
C2988 C2986 1.391 . S
C2988 C2989 1.400 . S
C2989 C2983 1.491 . S
C2989 C2988 1.400 . S
C2989 C2990 1.398 . S
C2990 H2978 0.950 . S
C2990 C2989 1.398 . S
C2990 C2991 1.391 . S
C2991 H2979 0.950 . S
C2991 C2987 1.393 . S
C2991 C2990 1.391 . S
H2992 C3000 0.950 . S
H2993 C3005 0.950 . S
H2994 C3002 0.950 . S
H2995 C3004 0.950 . S
H2996 C3006 0.950 . S
H2997 C3008 0.950 . S
H2998 C3010 0.950 . S
H2999 C3011 0.950 . S
C3000 H2992 0.950 . S
C3000 C3001 1.386 . S
C3000 C3002 1.391 . S
C3001 C3000 1.386 . S
C3001 C3005 1.393 1_455 S
C3002 H2994 0.950 . S
C3002 C3000 1.391 . S
C3002 C3003 1.400 . S
C3003 C3002 1.400 . S
C3003 C3004 1.398 1_455 S
C3003 C3009 1.491 . S
C3004 H2995 0.950 . S
C3004 C3003 1.398 1_655 S
C3004 C3005 1.391 . S
C3005 H2993 0.950 . S
C3005 C3001 1.393 1_655 S
C3005 C3004 1.391 . S
C3006 H2996 0.950 . S
C3006 C3007 1.386 1_655 S
C3006 C3008 1.391 . S
C3007 C3006 1.386 1_455 S
C3007 C3011 1.393 . S
C3008 H2997 0.950 . S
C3008 C3006 1.391 . S
C3008 C3009 1.400 1_655 S
C3009 C3003 1.491 . S
C3009 C3008 1.400 1_455 S
C3009 C3010 1.398 . S
C3010 H2998 0.950 . S
C3010 C3009 1.398 . S
C3010 C3011 1.391 . S
C3011 H2999 0.950 . S
C3011 C3007 1.393 . S
C3011 C3010 1.391 . S
H3012 C3020 0.950 . S
H3013 C3025 0.950 . S
H3014 C3022 0.950 . S
H3015 C3024 0.950 . S
H3016 C3026 0.950 . S
H3017 C3028 0.950 . S
H3018 C3030 0.950 . S
H3019 C3031 0.950 . S
C3020 H3012 0.950 . S
C3020 C3021 1.386 . S
C3020 C3022 1.391 . S
C3021 C3020 1.386 . S
C3021 C3025 1.393 . S
C3022 H3014 0.950 . S
C3022 C3020 1.391 . S
C3022 C3023 1.400 . S
C3023 C3022 1.400 . S
C3023 C3024 1.398 . S
C3023 C3029 1.491 . S
C3024 H3015 0.950 . S
C3024 C3023 1.398 . S
C3024 C3025 1.391 . S
C3025 H3013 0.950 . S
C3025 C3021 1.393 . S
C3025 C3024 1.391 . S
C3026 H3016 0.950 . S
C3026 C3027 1.386 . S
C3026 C3028 1.391 . S
C3027 C3026 1.386 . S
C3027 C3031 1.393 . S
C3028 H3017 0.950 . S
C3028 C3026 1.391 . S
C3028 C3029 1.400 . S
C3029 C3023 1.491 . S
C3029 C3028 1.400 . S
C3029 C3030 1.398 . S
C3030 H3018 0.950 . S
C3030 C3029 1.398 . S
C3030 C3031 1.391 . S
C3031 H3019 0.950 . S
C3031 C3027 1.393 . S
C3031 C3030 1.391 . S
H3032 C3040 0.950 . S
H3033 C3045 0.950 . S
H3034 C3042 0.950 1_554 S
H3035 C3044 0.950 . S
H3036 C3046 0.950 . S
H3037 C3048 0.950 . S
H3038 C3050 0.950 . S
H3039 C3051 0.950 . S
C3040 H3032 0.950 . S
C3040 C3041 1.386 . S
C3040 C3042 1.391 . S
C3041 C3040 1.386 . S
C3041 C3045 1.393 . S
C3042 H3034 0.950 1_556 S
C3042 C3040 1.391 . S
C3042 C3043 1.400 . S
C3043 C3042 1.400 . S
C3043 C3044 1.398 . S
C3043 C3049 1.491 . S
C3044 H3035 0.950 . S
C3044 C3043 1.398 . S
C3044 C3045 1.391 . S
C3045 H3033 0.950 . S
C3045 C3041 1.393 . S
C3045 C3044 1.391 . S
C3046 H3036 0.950 . S
C3046 C3047 1.386 1_556 S
C3046 C3048 1.391 . S
C3047 C3046 1.386 1_554 S
C3047 C3051 1.393 . S
C3048 H3037 0.950 . S
C3048 C3046 1.391 . S
C3048 C3049 1.400 . S
C3049 C3043 1.491 . S
C3049 C3048 1.400 . S
C3049 C3050 1.398 1_556 S
C3050 H3038 0.950 . S
C3050 C3049 1.398 1_554 S
C3050 C3051 1.391 . S
C3051 H3039 0.950 . S
C3051 C3047 1.393 . S
C3051 C3050 1.391 . S
H3052 C3060 0.950 . S
H3053 C3065 0.950 . S
H3054 C3062 0.950 . S
H3055 C3064 0.950 . S
H3056 C3066 0.950 . S
H3057 C3068 0.950 . S
H3058 C3070 0.950 . S
H3059 C3071 0.950 . S
C3060 H3052 0.950 . S
C3060 C3061 1.386 . S
C3060 C3062 1.391 . S
C3061 C3060 1.386 . S
C3061 C3065 1.393 . S
C3062 H3054 0.950 . S
C3062 C3060 1.391 . S
C3062 C3063 1.400 . S
C3063 C3062 1.400 . S
C3063 C3064 1.398 . S
C3063 C3069 1.491 . S
C3064 H3055 0.950 . S
C3064 C3063 1.398 . S
C3064 C3065 1.391 . S
C3065 H3053 0.950 . S
C3065 C3061 1.393 . S
C3065 C3064 1.391 . S
C3066 H3056 0.950 . S
C3066 C3067 1.386 . S
C3066 C3068 1.391 . S
C3067 C3066 1.386 . S
C3067 C3071 1.393 . S
C3068 H3057 0.950 . S
C3068 C3066 1.391 . S
C3068 C3069 1.400 . S
C3069 C3063 1.491 . S
C3069 C3068 1.400 . S
C3069 C3070 1.398 . S
C3070 H3058 0.950 . S
C3070 C3069 1.398 . S
C3070 C3071 1.391 . S
C3071 H3059 0.950 . S
C3071 C3067 1.393 . S
C3071 C3070 1.391 . S
H3072 C3080 0.950 . S
H3073 C3085 0.950 . S
H3074 C3082 0.950 . S
H3075 C3084 0.950 . S
H3076 C3086 0.963 1_565 S
H3077 C3088 0.944 . S
H3078 C3090 0.950 . S
H3079 C3091 0.950 . S
C3080 H3072 0.950 . S
C3080 C3081 1.386 . S
C3080 C3082 1.391 . S
C3081 C3080 1.386 . S
C3081 C3085 1.393 . S
C3082 H3074 0.950 . S
C3082 C3080 1.391 . S
C3082 C3083 1.400 . S
C3083 C3082 1.400 . S
C3083 C3084 1.398 . S
C3083 C3089 1.491 . S
C3084 H3075 0.950 . S
C3084 C3083 1.398 . S
C3084 C3085 1.391 . S
C3085 H3073 0.950 . S
C3085 C3081 1.393 . S
C3085 C3084 1.391 . S
C3086 H3076 0.963 1_545 S
C3086 C3087 1.390 . S
C3086 C3088 1.393 . S
C3087 C3086 1.390 . S
C3087 C3091 1.387 . S
C3088 H3077 0.944 . S
C3088 C3086 1.393 . S
C3088 C3089 1.400 . S
C3089 C3083 1.491 . S
C3089 C3088 1.400 . S
C3089 C3090 1.398 . S
C3090 H3078 0.950 . S
C3090 C3089 1.398 . S
C3090 C3091 1.391 . S
C3091 H3079 0.950 . S
C3091 C3087 1.387 . S
C3091 C3090 1.391 . S
H3092 C3100 0.950 . S
H3093 C3105 0.950 . S
H3094 C3102 0.950 . S
H3095 C3104 0.950 . S
H3096 C3106 0.950 . S
H3097 C3108 0.950 . S
H3098 C3110 0.950 . S
H3099 C3111 0.950 . S
C3100 H3092 0.950 . S
C3100 C3101 1.386 . S
C3100 C3102 1.391 . S
C3101 C3100 1.386 . S
C3101 C3105 1.393 . S
C3102 H3094 0.950 . S
C3102 C3100 1.391 . S
C3102 C3103 1.400 . S
C3103 C3102 1.400 . S
C3103 C3104 1.398 . S
C3103 C3109 1.491 . S
C3104 H3095 0.950 . S
C3104 C3103 1.398 . S
C3104 C3105 1.391 . S
C3105 H3093 0.950 . S
C3105 C3101 1.393 . S
C3105 C3104 1.391 . S
C3106 H3096 0.950 . S
C3106 C3107 1.386 . S
C3106 C3108 1.391 . S
C3107 C3106 1.386 . S
C3107 C3111 1.393 . S
C3108 H3097 0.950 . S
C3108 C3106 1.391 . S
C3108 C3109 1.400 . S
C3109 C3103 1.491 . S
C3109 C3108 1.400 . S
C3109 C3110 1.398 . S
C3110 H3098 0.950 . S
C3110 C3109 1.398 . S
C3110 C3111 1.391 . S
C3111 H3099 0.950 . S
C3111 C3107 1.393 . S
C3111 C3110 1.391 . S
H3112 C3120 0.938 1_565 S
H3113 C3125 0.950 . S
H3114 C3122 0.950 1_565 S
H3115 C3124 0.950 . S
H3116 C3126 0.950 . S
H3117 C3128 0.950 . S
H3118 C3130 0.950 1_565 S
H3119 C3131 0.950 1_565 S
C3120 H3112 0.938 1_545 S
C3120 C3121 1.386 . S
C3120 C3122 1.391 . S
C3121 C3120 1.386 . S
C3121 C3125 1.393 . S
C3122 H3114 0.950 1_545 S
C3122 C3120 1.391 . S
C3122 C3123 1.400 . S
C3123 C3122 1.400 . S
C3123 C3124 1.398 . S
C3123 C3129 1.491 . S
C3124 H3115 0.950 . S
C3124 C3123 1.398 . S
C3124 C3125 1.391 . S
C3125 H3113 0.950 . S
C3125 C3121 1.393 . S
C3125 C3124 1.391 . S
C3126 H3116 0.950 . S
C3126 C3127 1.386 . S
C3126 C3128 1.391 . S
C3127 C3126 1.386 . S
C3127 C3131 1.393 . S
C3128 H3117 0.950 . S
C3128 C3126 1.391 . S
C3128 C3129 1.400 . S
C3129 C3123 1.491 . S
C3129 C3128 1.400 . S
C3129 C3130 1.398 . S
C3130 H3118 0.950 1_545 S
C3130 C3129 1.398 . S
C3130 C3131 1.391 . S
C3131 H3119 0.950 1_545 S
C3131 C3127 1.393 . S
C3131 C3130 1.391 . S
H3132 C3140 0.950 . S
H3133 C3145 0.950 . S
H3134 C3142 0.950 . S
H3135 C3144 0.950 . S
H3136 C3146 0.950 . S
H3137 C3148 0.950 . S
H3138 C3150 0.950 . S
H3139 C3151 0.950 . S
C3140 H3132 0.950 . S
C3140 C3141 1.386 . S
C3140 C3142 1.391 . S
C3141 C3140 1.386 . S
C3141 C3145 1.393 . S
C3142 H3134 0.950 . S
C3142 C3140 1.391 . S
C3142 C3143 1.400 . S
C3143 C3142 1.400 . S
C3143 C3144 1.398 . S
C3143 C3149 1.491 . S
C3144 H3135 0.950 . S
C3144 C3143 1.398 . S
C3144 C3145 1.391 . S
C3145 H3133 0.950 . S
C3145 C3141 1.393 . S
C3145 C3144 1.391 . S
C3146 H3136 0.950 . S
C3146 C3147 1.386 . S
C3146 C3148 1.391 . S
C3147 C3146 1.386 . S
C3147 C3151 1.393 . S
C3148 H3137 0.950 . S
C3148 C3146 1.391 . S
C3148 C3149 1.400 . S
C3149 C3143 1.491 . S
C3149 C3148 1.400 . S
C3149 C3150 1.398 . S
C3150 H3138 0.950 . S
C3150 C3149 1.398 . S
C3150 C3151 1.391 . S
C3151 H3139 0.950 . S
C3151 C3147 1.393 . S
C3151 C3150 1.391 . S
H3152 C3160 0.950 . S
H3153 C3165 0.950 . S
H3154 C3162 0.950 . S
H3155 C3164 0.950 . S
H3156 C3166 0.950 . S
H3157 C3168 0.950 . S
H3158 C3170 0.950 . S
H3159 C3171 0.955 . S
C3160 H3152 0.950 . S
C3160 C3161 1.386 . S
C3160 C3162 1.391 . S
C3161 C3160 1.386 . S
C3161 C3165 1.393 1_565 S
C3162 H3154 0.950 . S
C3162 C3160 1.391 . S
C3162 C3163 1.400 1_565 S
C3163 C3162 1.400 1_545 S
C3163 C3164 1.398 . S
C3163 C3169 1.491 . S
C3164 H3155 0.950 . S
C3164 C3163 1.398 . S
C3164 C3165 1.391 . S
C3165 H3153 0.950 . S
C3165 C3161 1.393 1_545 S
C3165 C3164 1.391 . S
C3166 H3156 0.950 . S
C3166 C3167 1.386 . S
C3166 C3168 1.391 . S
C3167 C3166 1.386 . S
C3167 C3171 1.385 1_545 S
C3168 H3157 0.950 . S
C3168 C3166 1.391 . S
C3168 C3169 1.400 . S
C3169 C3163 1.491 . S
C3169 C3168 1.400 . S
C3169 C3170 1.398 1_545 S
C3170 H3158 0.950 . S
C3170 C3169 1.398 1_565 S
C3170 C3171 1.393 . S
C3171 H3159 0.955 . S
C3171 C3167 1.385 1_565 S
C3171 C3170 1.393 . S
H3172 C3180 0.950 . S
H3173 C3185 0.950 . S
H3174 C3182 0.950 . S
H3175 C3184 0.950 . S
H3176 C3186 0.950 . S
H3177 C3188 0.950 . S
H3178 C3190 0.950 . S
H3179 C3191 0.950 . S
C3180 H3172 0.950 . S
C3180 C3181 1.386 . S
C3180 C3182 1.391 . S
C3181 C3180 1.386 . S
C3181 C3185 1.393 . S
C3182 H3174 0.950 . S
C3182 C3180 1.391 . S
C3182 C3183 1.400 . S
C3183 C3182 1.400 . S
C3183 C3184 1.398 . S
C3183 C3189 1.491 . S
C3184 H3175 0.950 . S
C3184 C3183 1.398 . S
C3184 C3185 1.391 . S
C3185 H3173 0.950 . S
C3185 C3181 1.393 . S
C3185 C3184 1.391 . S
C3186 H3176 0.950 . S
C3186 C3187 1.386 . S
C3186 C3188 1.391 . S
C3187 C3186 1.386 . S
C3187 C3191 1.393 . S
C3188 H3177 0.950 . S
C3188 C3186 1.391 . S
C3188 C3189 1.400 . S
C3189 C3183 1.491 . S
C3189 C3188 1.400 . S
C3189 C3190 1.398 . S
C3190 H3178 0.950 . S
C3190 C3189 1.398 . S
C3190 C3191 1.391 . S
C3191 H3179 0.950 . S
C3191 C3187 1.393 . S
C3191 C3190 1.391 . S
H3192 C3200 0.950 . S
H3193 C3205 0.950 . S
H3194 C3202 0.950 . S
H3195 C3204 0.950 . S
H3196 C3206 0.948 . S
H3197 C3208 0.950 . S
H3198 C3210 0.950 . S
H3199 C3211 0.950 . S
C3200 H3192 0.950 . S
C3200 C3201 1.386 . S
C3200 C3202 1.391 . S
C3201 C3200 1.386 . S
C3201 C3205 1.393 . S
C3202 H3194 0.950 . S
C3202 C3200 1.391 . S
C3202 C3203 1.400 . S
C3203 C3202 1.400 . S
C3203 C3204 1.398 . S
C3203 C3209 1.491 . S
C3204 H3195 0.950 . S
C3204 C3203 1.398 . S
C3204 C3205 1.391 . S
C3205 H3193 0.950 . S
C3205 C3201 1.393 . S
C3205 C3204 1.391 . S
C3206 H3196 0.948 . S
C3206 C3207 1.390 . S
C3206 C3208 1.391 . S
C3207 C3206 1.390 . S
C3207 C3211 1.392 . S
C3208 H3197 0.950 . S
C3208 C3206 1.391 . S
C3208 C3209 1.400 . S
C3209 C3203 1.491 . S
C3209 C3208 1.400 . S
C3209 C3210 1.398 . S
C3210 H3198 0.950 . S
C3210 C3209 1.398 . S
C3210 C3211 1.391 . S
C3211 H3199 0.950 . S
C3211 C3207 1.392 . S
C3211 C3210 1.391 . S
H3212 C3220 0.950 . S
H3213 C3225 0.950 . S
H3214 C3222 0.950 . S
H3215 C3224 0.950 . S
H3216 C3226 0.950 . S
H3217 C3228 0.950 . S
H3218 C3230 0.950 . S
H3219 C3231 0.950 . S
C3220 H3212 0.950 . S
C3220 C3221 1.386 . S
C3220 C3222 1.391 . S
C3221 C3220 1.386 . S
C3221 C3225 1.393 . S
C3222 H3214 0.950 . S
C3222 C3220 1.391 . S
C3222 C3223 1.400 . S
C3223 C3222 1.400 . S
C3223 C3224 1.398 . S
C3223 C3229 1.491 . S
C3224 H3215 0.950 . S
C3224 C3223 1.398 . S
C3224 C3225 1.391 . S
C3225 H3213 0.950 . S
C3225 C3221 1.393 . S
C3225 C3224 1.391 . S
C3226 H3216 0.950 . S
C3226 C3227 1.386 . S
C3226 C3228 1.391 . S
C3227 C3226 1.386 . S
C3227 C3231 1.393 . S
C3228 H3217 0.950 . S
C3228 C3226 1.391 . S
C3228 C3229 1.400 . S
C3229 C3223 1.491 . S
C3229 C3228 1.400 . S
C3229 C3230 1.398 . S
C3230 H3218 0.950 . S
C3230 C3229 1.398 . S
C3230 C3231 1.391 . S
C3231 H3219 0.950 . S
C3231 C3227 1.393 . S
C3231 C3230 1.391 . S
H3232 C3240 0.950 1_556 S
H3233 C3245 0.950 . S
H3234 C3242 0.914 1_556 S
H3235 C3244 0.950 . S
H3236 C3246 0.950 . S
H3237 C3248 0.950 . S
H3238 C3250 0.950 . S
H3239 C3251 0.950 . S
C3240 H3232 0.950 1_554 S
C3240 C3241 1.386 . S
C3240 C3242 1.402 . S
C3241 C3240 1.386 . S
C3241 C3245 1.393 . S
C3242 H3234 0.914 1_554 S
C3242 C3240 1.402 . S
C3242 C3243 1.428 . S
C3243 C3242 1.428 . S
C3243 C3244 1.398 . S
C3243 C3249 1.491 . S
C3244 H3235 0.950 . S
C3244 C3243 1.398 . S
C3244 C3245 1.391 . S
C3245 H3233 0.950 . S
C3245 C3241 1.393 . S
C3245 C3244 1.391 . S
C3246 H3236 0.950 . S
C3246 C3247 1.386 . S
C3246 C3248 1.391 . S
C3247 C3246 1.386 . S
C3247 C3251 1.393 1_554 S
C3248 H3237 0.950 . S
C3248 C3246 1.391 . S
C3248 C3249 1.400 . S
C3249 C3243 1.491 . S
C3249 C3248 1.400 . S
C3249 C3250 1.398 1_554 S
C3250 H3238 0.950 . S
C3250 C3249 1.398 1_556 S
C3250 C3251 1.391 . S
C3251 H3239 0.950 . S
C3251 C3247 1.393 1_556 S
C3251 C3250 1.391 . S
H3252 C3260 0.950 . S
H3253 C3265 0.950 . S
H3254 C3262 0.950 . S
H3255 C3264 0.950 . S
H3256 C3266 0.950 . S
H3257 C3268 0.950 . S
H3258 C3270 0.950 . S
H3259 C3271 0.950 . S
C3260 H3252 0.950 . S
C3260 C3261 1.386 . S
C3260 C3262 1.391 . S
C3261 C3260 1.386 . S
C3261 C3265 1.393 . S
C3262 H3254 0.950 . S
C3262 C3260 1.391 . S
C3262 C3263 1.400 . S
C3263 C3262 1.400 . S
C3263 C3264 1.398 . S
C3263 C3269 1.491 . S
C3264 H3255 0.950 . S
C3264 C3263 1.398 . S
C3264 C3265 1.391 . S
C3265 H3253 0.950 . S
C3265 C3261 1.393 . S
C3265 C3264 1.391 . S
C3266 H3256 0.950 . S
C3266 C3267 1.386 . S
C3266 C3268 1.391 . S
C3267 C3266 1.386 . S
C3267 C3271 1.393 . S
C3268 H3257 0.950 . S
C3268 C3266 1.391 . S
C3268 C3269 1.400 . S
C3269 C3263 1.491 . S
C3269 C3268 1.400 . S
C3269 C3270 1.398 . S
C3270 H3258 0.950 . S
C3270 C3269 1.398 . S
C3270 C3271 1.391 . S
C3271 H3259 0.950 . S
C3271 C3267 1.393 . S
C3271 C3270 1.391 . S
H3272 C3280 0.950 . S
H3273 C3285 0.950 . S
H3274 C3282 0.950 . S
H3275 C3284 0.950 . S
H3276 C3286 0.950 . S
H3277 C3288 0.950 . S
H3278 C3290 0.950 . S
H3279 C3291 0.950 . S
C3280 H3272 0.950 . S
C3280 C3281 1.386 . S
C3280 C3282 1.391 . S
C3281 C3280 1.386 . S
C3281 C3285 1.393 . S
C3282 H3274 0.950 . S
C3282 C3280 1.391 . S
C3282 C3283 1.400 . S
C3283 C3282 1.400 . S
C3283 C3284 1.398 . S
C3283 C3289 1.491 . S
C3284 H3275 0.950 . S
C3284 C3283 1.398 . S
C3284 C3285 1.391 . S
C3285 H3273 0.950 . S
C3285 C3281 1.393 . S
C3285 C3284 1.391 . S
C3286 H3276 0.950 . S
C3286 C3287 1.386 . S
C3286 C3288 1.391 . S
C3287 C3286 1.386 . S
C3287 C3291 1.393 . S
C3288 H3277 0.950 . S
C3288 C3286 1.391 . S
C3288 C3289 1.400 . S
C3289 C3283 1.491 . S
C3289 C3288 1.400 . S
C3289 C3290 1.398 . S
C3290 H3278 0.950 . S
C3290 C3289 1.398 . S
C3290 C3291 1.391 . S
C3291 H3279 0.950 . S
C3291 C3287 1.393 . S
C3291 C3290 1.391 . S
H3292 C3300 0.950 . S
H3293 C3305 0.950 . S
H3294 C3302 0.950 . S
H3295 C3304 0.950 . S
H3296 C3306 0.950 . S
H3297 C3308 0.950 . S
H3298 C3310 0.950 . S
H3299 C3311 0.950 . S
C3300 H3292 0.950 . S
C3300 C3301 1.386 . S
C3300 C3302 1.391 . S
C3301 C3300 1.386 . S
C3301 C3305 1.393 . S
C3302 H3294 0.950 . S
C3302 C3300 1.391 . S
C3302 C3303 1.400 . S
C3303 C3302 1.400 . S
C3303 C3304 1.398 . S
C3303 C3309 1.491 . S
C3304 H3295 0.950 . S
C3304 C3303 1.398 . S
C3304 C3305 1.391 . S
C3305 H3293 0.950 . S
C3305 C3301 1.393 . S
C3305 C3304 1.391 . S
C3306 H3296 0.950 . S
C3306 C3307 1.386 . S
C3306 C3308 1.391 . S
C3307 C3306 1.386 . S
C3307 C3311 1.393 . S
C3308 H3297 0.950 . S
C3308 C3306 1.391 . S
C3308 C3309 1.400 . S
C3309 C3303 1.491 . S
C3309 C3308 1.400 . S
C3309 C3310 1.398 . S
C3310 H3298 0.950 . S
C3310 C3309 1.398 . S
C3310 C3311 1.391 . S
C3311 H3299 0.950 . S
C3311 C3307 1.393 . S
C3311 C3310 1.391 . S
H3312 C3320 0.950 . S
H3313 C3325 0.950 . S
H3314 C3322 0.950 . S
H3315 C3324 0.950 . S
H3316 C3326 0.950 . S
H3317 C3328 0.950 . S
H3318 C3330 0.950 . S
H3319 C3331 0.950 . S
C3320 H3312 0.950 . S
C3320 C3321 1.386 . S
C3320 C3322 1.391 . S
C3321 C3320 1.386 . S
C3321 C3325 1.393 . S
C3322 H3314 0.950 . S
C3322 C3320 1.391 . S
C3322 C3323 1.400 . S
C3323 C3322 1.400 . S
C3323 C3324 1.398 . S
C3323 C3329 1.491 . S
C3324 H3315 0.950 . S
C3324 C3323 1.398 . S
C3324 C3325 1.391 . S
C3325 H3313 0.950 . S
C3325 C3321 1.393 . S
C3325 C3324 1.391 . S
C3326 H3316 0.950 . S
C3326 C3327 1.386 . S
C3326 C3328 1.391 . S
C3327 C3326 1.386 . S
C3327 C3331 1.393 . S
C3328 H3317 0.950 . S
C3328 C3326 1.391 . S
C3328 C3329 1.400 . S
C3329 C3323 1.491 . S
C3329 C3328 1.400 . S
C3329 C3330 1.398 . S
C3330 H3318 0.950 . S
C3330 C3329 1.398 . S
C3330 C3331 1.391 . S
C3331 H3319 0.950 . S
C3331 C3327 1.393 . S
C3331 C3330 1.391 . S
H3332 C3340 0.950 . S
H3333 C3345 0.950 . S
H3334 C3342 0.950 . S
H3335 C3344 0.950 . S
H3336 C3346 0.950 . S
H3337 C3348 0.950 . S
H3338 C3350 0.950 . S
H3339 C3351 0.950 . S
C3340 H3332 0.950 . S
C3340 C3341 1.386 . S
C3340 C3342 1.391 . S
C3341 C3340 1.386 . S
C3341 C3345 1.393 . S
C3342 H3334 0.950 . S
C3342 C3340 1.391 . S
C3342 C3343 1.400 . S
C3343 C3342 1.400 . S
C3343 C3344 1.398 . S
C3343 C3349 1.491 . S
C3344 H3335 0.950 . S
C3344 C3343 1.398 . S
C3344 C3345 1.391 . S
C3345 H3333 0.950 . S
C3345 C3341 1.393 . S
C3345 C3344 1.391 . S
C3346 H3336 0.950 . S
C3346 C3347 1.386 . S
C3346 C3348 1.391 . S
C3347 C3346 1.386 . S
C3347 C3351 1.393 . S
C3348 H3337 0.950 . S
C3348 C3346 1.391 . S
C3348 C3349 1.400 . S
C3349 C3343 1.491 . S
C3349 C3348 1.400 . S
C3349 C3350 1.398 . S
C3350 H3338 0.950 . S
C3350 C3349 1.398 . S
C3350 C3351 1.391 . S
C3351 H3339 0.950 . S
C3351 C3347 1.393 . S
C3351 C3350 1.391 . S
H3352 C3360 0.950 . S
H3353 C3365 0.950 . S
H3354 C3362 0.950 . S
H3355 C3364 0.950 . S
H3356 C3366 0.950 . S
H3357 C3368 0.950 . S
H3358 C3370 0.950 . S
H3359 C3371 0.950 . S
C3360 H3352 0.950 . S
C3360 C3361 1.386 . S
C3360 C3362 1.391 . S
C3361 C3360 1.386 . S
C3361 C3365 1.393 . S
C3362 H3354 0.950 . S
C3362 C3360 1.391 . S
C3362 C3363 1.400 . S
C3363 C3362 1.400 . S
C3363 C3364 1.398 . S
C3363 C3369 1.491 . S
C3364 H3355 0.950 . S
C3364 C3363 1.398 . S
C3364 C3365 1.391 . S
C3365 H3353 0.950 . S
C3365 C3361 1.393 . S
C3365 C3364 1.391 . S
C3366 H3356 0.950 . S
C3366 C3367 1.386 . S
C3366 C3368 1.391 . S
C3367 C3366 1.386 . S
C3367 C3371 1.393 . S
C3368 H3357 0.950 . S
C3368 C3366 1.391 . S
C3368 C3369 1.400 . S
C3369 C3363 1.491 . S
C3369 C3368 1.400 . S
C3369 C3370 1.398 . S
C3370 H3358 0.950 . S
C3370 C3369 1.398 . S
C3370 C3371 1.391 . S
C3371 H3359 0.950 . S
C3371 C3367 1.393 . S
C3371 C3370 1.391 . S
H3372 C3380 0.950 . S
H3373 C3385 0.950 . S
H3374 C3382 0.950 . S
H3375 C3384 0.950 . S
H3376 C3386 0.950 . S
H3377 C3388 0.950 . S
H3378 C3390 0.950 . S
H3379 C3391 0.950 . S
C3380 H3372 0.950 . S
C3380 C3381 1.386 . S
C3380 C3382 1.391 . S
C3381 C3380 1.386 . S
C3381 C3385 1.393 . S
C3382 H3374 0.950 . S
C3382 C3380 1.391 . S
C3382 C3383 1.400 . S
C3383 C3382 1.400 . S
C3383 C3384 1.398 . S
C3383 C3389 1.491 . S
C3384 H3375 0.950 . S
C3384 C3383 1.398 . S
C3384 C3385 1.391 . S
C3385 H3373 0.950 . S
C3385 C3381 1.393 . S
C3385 C3384 1.391 . S
C3386 H3376 0.950 . S
C3386 C3387 1.386 . S
C3386 C3388 1.391 . S
C3387 C3386 1.386 . S
C3387 C3391 1.393 . S
C3388 H3377 0.950 . S
C3388 C3386 1.391 . S
C3388 C3389 1.400 . S
C3389 C3383 1.491 . S
C3389 C3388 1.400 . S
C3389 C3390 1.398 . S
C3390 H3378 0.950 . S
C3390 C3389 1.398 . S
C3390 C3391 1.391 . S
C3391 H3379 0.950 . S
C3391 C3387 1.393 . S
C3391 C3390 1.391 . S
H3392 C3400 0.950 . S
H3393 C3405 0.950 . S
H3394 C3402 0.950 . S
H3395 C3404 0.950 . S
H3396 C3406 0.950 . S
H3397 C3408 0.950 . S
H3398 C3410 0.950 . S
H3399 C3411 0.950 . S
C3400 H3392 0.950 . S
C3400 C3401 1.386 . S
C3400 C3402 1.391 . S
C3401 C3400 1.386 . S
C3401 C3405 1.393 . S
C3402 H3394 0.950 . S
C3402 C3400 1.391 . S
C3402 C3403 1.400 . S
C3403 C3402 1.400 . S
C3403 C3404 1.398 . S
C3403 C3409 1.491 . S
C3404 H3395 0.950 . S
C3404 C3403 1.398 . S
C3404 C3405 1.391 . S
C3405 H3393 0.950 . S
C3405 C3401 1.393 . S
C3405 C3404 1.391 . S
C3406 H3396 0.950 . S
C3406 C3407 1.386 . S
C3406 C3408 1.391 . S
C3407 C3406 1.386 . S
C3407 C3411 1.393 . S
C3408 H3397 0.950 . S
C3408 C3406 1.391 . S
C3408 C3409 1.400 . S
C3409 C3403 1.491 . S
C3409 C3408 1.400 . S
C3409 C3410 1.398 . S
C3410 H3398 0.950 . S
C3410 C3409 1.398 . S
C3410 C3411 1.391 . S
C3411 H3399 0.950 . S
C3411 C3407 1.393 . S
C3411 C3410 1.391 . S
H3412 C3420 0.950 . S
H3413 C3425 0.950 . S
H3414 C3422 0.950 . S
H3415 C3424 0.950 . S
H3416 C3426 0.950 . S
H3417 C3428 0.950 . S
H3418 C3430 0.950 . S
H3419 C3431 0.950 . S
C3420 H3412 0.950 . S
C3420 C3421 1.386 . S
C3420 C3422 1.391 . S
C3421 C3420 1.386 . S
C3421 C3425 1.393 . S
C3422 H3414 0.950 . S
C3422 C3420 1.391 . S
C3422 C3423 1.400 . S
C3423 C3422 1.400 . S
C3423 C3424 1.398 . S
C3423 C3429 1.491 . S
C3424 H3415 0.950 . S
C3424 C3423 1.398 . S
C3424 C3425 1.391 . S
C3425 H3413 0.950 . S
C3425 C3421 1.393 . S
C3425 C3424 1.391 . S
C3426 H3416 0.950 . S
C3426 C3427 1.386 . S
C3426 C3428 1.391 . S
C3427 C3426 1.386 . S
C3427 C3431 1.393 . S
C3428 H3417 0.950 . S
C3428 C3426 1.391 . S
C3428 C3429 1.400 . S
C3429 C3423 1.491 . S
C3429 C3428 1.400 . S
C3429 C3430 1.398 . S
C3430 H3418 0.950 . S
C3430 C3429 1.398 . S
C3430 C3431 1.391 . S
C3431 H3419 0.950 . S
C3431 C3427 1.393 . S
C3431 C3430 1.391 . S
H3432 C3440 0.950 . S
H3433 C3445 0.950 . S
H3434 C3442 0.950 . S
H3435 C3444 0.950 1_554 S
H3436 C3446 0.950 . S
H3437 C3448 0.950 . S
H3438 C3450 0.950 . S
H3439 C3451 0.950 . S
C3440 H3432 0.950 . S
C3440 C3441 1.386 . S
C3440 C3442 1.391 . S
C3441 C3440 1.386 . S
C3441 C3445 1.393 . S
C3442 H3434 0.950 . S
C3442 C3440 1.391 . S
C3442 C3443 1.400 . S
C3443 C3442 1.400 . S
C3443 C3444 1.398 . S
C3443 C3449 1.491 . S
C3444 H3435 0.950 1_556 S
C3444 C3443 1.398 . S
C3444 C3445 1.391 . S
C3445 H3433 0.950 . S
C3445 C3441 1.393 . S
C3445 C3444 1.391 . S
C3446 H3436 0.950 . S
C3446 C3447 1.386 1_554 S
C3446 C3448 1.391 . S
C3447 C3446 1.386 1_556 S
C3447 C3451 1.393 . S
C3448 H3437 0.950 . S
C3448 C3446 1.391 . S
C3448 C3449 1.400 1_554 S
C3449 C3443 1.491 . S
C3449 C3448 1.400 1_556 S
C3449 C3450 1.398 . S
C3450 H3438 0.950 . S
C3450 C3449 1.398 . S
C3450 C3451 1.391 . S
C3451 H3439 0.950 . S
C3451 C3447 1.393 . S
C3451 C3450 1.391 . S
H3452 C3460 0.950 . S
H3453 C3465 0.950 . S
H3454 C3462 0.950 . S
H3455 C3464 0.950 . S
H3456 C3466 0.950 . S
H3457 C3468 0.950 . S
H3458 C3470 0.950 . S
H3459 C3471 0.950 . S
C3460 H3452 0.950 . S
C3460 C3461 1.386 . S
C3460 C3462 1.391 . S
C3461 C3460 1.386 . S
C3461 C3465 1.393 . S
C3462 H3454 0.950 . S
C3462 C3460 1.391 . S
C3462 C3463 1.400 . S
C3463 C3462 1.400 . S
C3463 C3464 1.398 . S
C3463 C3469 1.491 . S
C3464 H3455 0.950 . S
C3464 C3463 1.398 . S
C3464 C3465 1.391 . S
C3465 H3453 0.950 . S
C3465 C3461 1.393 . S
C3465 C3464 1.391 . S
C3466 H3456 0.950 . S
C3466 C3467 1.386 . S
C3466 C3468 1.391 . S
C3467 C3466 1.386 . S
C3467 C3471 1.393 . S
C3468 H3457 0.950 . S
C3468 C3466 1.391 . S
C3468 C3469 1.400 . S
C3469 C3463 1.491 . S
C3469 C3468 1.400 . S
C3469 C3470 1.398 . S
C3470 H3458 0.950 . S
C3470 C3469 1.398 . S
C3470 C3471 1.391 . S
C3471 H3459 0.950 . S
C3471 C3467 1.393 . S
C3471 C3470 1.391 . S
H3472 C3480 0.950 . S
H3473 C3485 0.950 . S
H3474 C3482 0.950 . S
H3475 C3484 0.950 . S
H3476 C3486 0.950 . S
H3477 C3488 0.950 . S
H3478 C3490 0.950 . S
H3479 C3491 0.950 . S
C3480 H3472 0.950 . S
C3480 C3481 1.386 . S
C3480 C3482 1.391 . S
C3481 C3480 1.386 . S
C3481 C3485 1.393 . S
C3482 H3474 0.950 . S
C3482 C3480 1.391 . S
C3482 C3483 1.400 . S
C3483 C3482 1.400 . S
C3483 C3484 1.398 . S
C3483 C3489 1.491 . S
C3484 H3475 0.950 . S
C3484 C3483 1.398 . S
C3484 C3485 1.391 . S
C3485 H3473 0.950 . S
C3485 C3481 1.393 . S
C3485 C3484 1.391 . S
C3486 H3476 0.950 . S
C3486 C3487 1.386 . S
C3486 C3488 1.391 . S
C3487 C3486 1.386 . S
C3487 C3491 1.393 . S
C3488 H3477 0.950 . S
C3488 C3486 1.391 . S
C3488 C3489 1.400 . S
C3489 C3483 1.491 . S
C3489 C3488 1.400 . S
C3489 C3490 1.398 . S
C3490 H3478 0.950 . S
C3490 C3489 1.398 . S
C3490 C3491 1.391 . S
C3491 H3479 0.950 . S
C3491 C3487 1.393 . S
C3491 C3490 1.391 . S
H3492 C3500 0.950 . S
H3493 C3505 0.950 . S
H3494 C3502 0.950 . S
H3495 C3504 0.950 . S
H3496 C3506 0.950 . S
H3497 C3508 0.950 . S
H3498 C3510 0.950 . S
H3499 C3511 0.950 . S
C3500 H3492 0.950 . S
C3500 C3501 1.386 . S
C3500 C3502 1.391 . S
C3501 C3500 1.386 . S
C3501 C3505 1.393 . S
C3502 H3494 0.950 . S
C3502 C3500 1.391 . S
C3502 C3503 1.400 . S
C3503 C3502 1.400 . S
C3503 C3504 1.398 . S
C3503 C3509 1.491 . S
C3504 H3495 0.950 . S
C3504 C3503 1.398 . S
C3504 C3505 1.391 . S
C3505 H3493 0.950 . S
C3505 C3501 1.393 . S
C3505 C3504 1.391 . S
C3506 H3496 0.950 . S
C3506 C3507 1.386 . S
C3506 C3508 1.391 . S
C3507 C3506 1.386 . S
C3507 C3511 1.393 . S
C3508 H3497 0.950 . S
C3508 C3506 1.391 . S
C3508 C3509 1.400 . S
C3509 C3503 1.491 . S
C3509 C3508 1.400 . S
C3509 C3510 1.398 . S
C3510 H3498 0.950 . S
C3510 C3509 1.398 . S
C3510 C3511 1.391 . S
C3511 H3499 0.950 . S
C3511 C3507 1.393 . S
C3511 C3510 1.391 . S
H3512 C3520 0.950 . S
H3513 C3525 0.950 . S
H3514 C3522 0.950 . S
H3515 C3524 0.950 . S
H3516 C3526 0.950 . S
H3517 C3528 0.950 . S
H3518 C3530 0.950 . S
H3519 C3531 0.950 . S
C3520 H3512 0.950 . S
C3520 C3521 1.386 1_455 S
C3520 C3522 1.391 . S
C3521 C3520 1.386 1_655 S
C3521 C3525 1.393 . S
C3522 H3514 0.950 . S
C3522 C3520 1.391 . S
C3522 C3523 1.395 1_455 S
C3523 C3522 1.395 1_655 S
C3523 C3524 1.406 . S
C3523 C3529 1.488 1_655 S
C3524 H3515 0.950 . S
C3524 C3523 1.406 . S
C3524 C3525 1.391 . S
C3525 H3513 0.950 . S
C3525 C3521 1.393 . S
C3525 C3524 1.391 . S
C3526 H3516 0.950 . S
C3526 C3527 1.386 1_655 S
C3526 C3528 1.391 . S
C3527 C3526 1.386 1_455 S
C3527 C3531 1.393 . S
C3528 H3517 0.950 . S
C3528 C3526 1.391 . S
C3528 C3529 1.400 1_655 S
C3529 C3523 1.488 1_455 S
C3529 C3528 1.400 1_455 S
C3529 C3530 1.398 . S
C3530 H3518 0.950 . S
C3530 C3529 1.398 . S
C3530 C3531 1.391 . S
C3531 H3519 0.950 . S
C3531 C3527 1.393 . S
C3531 C3530 1.391 . S
H3532 C3540 0.950 . S
H3533 C3545 0.950 . S
H3534 C3542 0.950 . S
H3535 C3544 0.950 . S
H3536 C3546 0.950 . S
H3537 C3548 0.950 . S
H3538 C3550 0.950 . S
H3539 C3551 0.950 . S
C3540 H3532 0.950 . S
C3540 C3541 1.386 . S
C3540 C3542 1.391 . S
C3541 C3540 1.386 . S
C3541 C3545 1.393 . S
C3542 H3534 0.950 . S
C3542 C3540 1.391 . S
C3542 C3543 1.400 . S
C3543 C3542 1.400 . S
C3543 C3544 1.398 . S
C3543 C3549 1.491 . S
C3544 H3535 0.950 . S
C3544 C3543 1.398 . S
C3544 C3545 1.391 . S
C3545 H3533 0.950 . S
C3545 C3541 1.393 . S
C3545 C3544 1.391 . S
C3546 H3536 0.950 . S
C3546 C3547 1.386 . S
C3546 C3548 1.391 . S
C3547 C3546 1.386 . S
C3547 C3551 1.393 . S
C3548 H3537 0.950 . S
C3548 C3546 1.391 . S
C3548 C3549 1.400 . S
C3549 C3543 1.491 . S
C3549 C3548 1.400 . S
C3549 C3550 1.398 . S
C3550 H3538 0.950 . S
C3550 C3549 1.398 . S
C3550 C3551 1.391 . S
C3551 H3539 0.950 . S
C3551 C3547 1.393 . S
C3551 C3550 1.391 . S
H3552 C3560 0.950 . S
H3553 C3565 0.950 . S
H3554 C3562 0.950 . S
H3555 C3564 0.950 . S
H3556 C3566 0.950 . S
H3557 C3568 0.950 . S
H3558 C3570 0.950 . S
H3559 C3571 0.950 . S
C3560 H3552 0.950 . S
C3560 C3561 1.386 . S
C3560 C3562 1.391 . S
C3561 C3560 1.386 . S
C3561 C3565 1.393 . S
C3562 H3554 0.950 . S
C3562 C3560 1.391 . S
C3562 C3563 1.400 . S
C3563 C3562 1.400 . S
C3563 C3564 1.398 . S
C3563 C3569 1.491 . S
C3564 H3555 0.950 . S
C3564 C3563 1.398 . S
C3564 C3565 1.391 . S
C3565 H3553 0.950 . S
C3565 C3561 1.393 . S
C3565 C3564 1.391 . S
C3566 H3556 0.950 . S
C3566 C3567 1.386 . S
C3566 C3568 1.391 . S
C3567 C3566 1.386 . S
C3567 C3571 1.393 . S
C3568 H3557 0.950 . S
C3568 C3566 1.391 . S
C3568 C3569 1.400 . S
C3569 C3563 1.491 . S
C3569 C3568 1.400 . S
C3569 C3570 1.398 . S
C3570 H3558 0.950 . S
C3570 C3569 1.398 . S
C3570 C3571 1.391 . S
C3571 H3559 0.950 . S
C3571 C3567 1.393 . S
C3571 C3570 1.391 . S
H3572 C3580 0.950 . S
H3573 C3585 0.950 . S
H3574 C3582 0.950 . S
H3575 C3584 0.950 . S
H3576 C3586 0.950 . S
H3577 C3588 0.950 . S
H3578 C3590 0.950 . S
H3579 C3591 0.950 . S
C3580 H3572 0.950 . S
C3580 C3581 1.386 . S
C3580 C3582 1.391 . S
C3581 C3580 1.386 . S
C3581 C3585 1.393 . S
C3582 H3574 0.950 . S
C3582 C3580 1.391 . S
C3582 C3583 1.400 . S
C3583 C3582 1.400 . S
C3583 C3584 1.398 . S
C3583 C3589 1.491 . S
C3584 H3575 0.950 . S
C3584 C3583 1.398 . S
C3584 C3585 1.391 . S
C3585 H3573 0.950 . S
C3585 C3581 1.393 . S
C3585 C3584 1.391 . S
C3586 H3576 0.950 . S
C3586 C3587 1.386 . S
C3586 C3588 1.391 . S
C3587 C3586 1.386 . S
C3587 C3591 1.393 . S
C3588 H3577 0.950 . S
C3588 C3586 1.391 . S
C3588 C3589 1.400 . S
C3589 C3583 1.491 . S
C3589 C3588 1.400 . S
C3589 C3590 1.398 . S
C3590 H3578 0.950 . S
C3590 C3589 1.398 . S
C3590 C3591 1.391 . S
C3591 H3579 0.950 . S
C3591 C3587 1.393 . S
C3591 C3590 1.391 . S
H3592 C3600 0.950 . S
H3593 C3605 0.950 . S
H3594 C3602 0.950 . S
H3595 C3604 0.950 . S
H3596 C3606 0.950 . S
H3597 C3608 0.950 . S
H3598 C3610 0.950 . S
H3599 C3611 0.950 . S
C3600 H3592 0.950 . S
C3600 C3601 1.386 . S
C3600 C3602 1.391 . S
C3601 C3600 1.386 . S
C3601 C3605 1.393 . S
C3602 H3594 0.950 . S
C3602 C3600 1.391 . S
C3602 C3603 1.400 . S
C3603 C3602 1.400 . S
C3603 C3604 1.398 . S
C3603 C3609 1.491 . S
C3604 H3595 0.950 . S
C3604 C3603 1.398 . S
C3604 C3605 1.391 . S
C3605 H3593 0.950 . S
C3605 C3601 1.393 . S
C3605 C3604 1.391 . S
C3606 H3596 0.950 . S
C3606 C3607 1.386 . S
C3606 C3608 1.391 . S
C3607 C3606 1.386 . S
C3607 C3611 1.393 . S
C3608 H3597 0.950 . S
C3608 C3606 1.391 . S
C3608 C3609 1.400 . S
C3609 C3603 1.491 . S
C3609 C3608 1.400 . S
C3609 C3610 1.398 . S
C3610 H3598 0.950 . S
C3610 C3609 1.398 . S
C3610 C3611 1.391 . S
C3611 H3599 0.950 . S
C3611 C3607 1.393 . S
C3611 C3610 1.391 . S
H3612 C3620 0.950 . S
H3613 C3625 0.950 . S
H3614 C3622 0.950 . S
H3615 C3624 0.950 . S
H3616 C3626 0.950 . S
H3617 C3628 0.950 . S
H3618 C3630 0.950 . S
H3619 C3631 0.950 . S
C3620 H3612 0.950 . S
C3620 C3621 1.386 . S
C3620 C3622 1.391 . S
C3621 C3620 1.386 . S
C3621 C3625 1.393 . S
C3622 H3614 0.950 . S
C3622 C3620 1.391 . S
C3622 C3623 1.400 . S
C3623 C3622 1.400 . S
C3623 C3624 1.398 . S
C3623 C3629 1.491 . S
C3624 H3615 0.950 . S
C3624 C3623 1.398 . S
C3624 C3625 1.391 . S
C3625 H3613 0.950 . S
C3625 C3621 1.393 . S
C3625 C3624 1.391 . S
C3626 H3616 0.950 . S
C3626 C3627 1.386 . S
C3626 C3628 1.391 . S
C3627 C3626 1.386 . S
C3627 C3631 1.393 . S
C3628 H3617 0.950 . S
C3628 C3626 1.391 . S
C3628 C3629 1.400 . S
C3629 C3623 1.491 . S
C3629 C3628 1.400 . S
C3629 C3630 1.398 . S
C3630 H3618 0.950 . S
C3630 C3629 1.398 . S
C3630 C3631 1.391 . S
C3631 H3619 0.950 . S
C3631 C3627 1.393 . S
C3631 C3630 1.391 . S
H3632 C3640 0.950 . S
H3633 C3645 0.950 . S
H3634 C3642 0.950 . S
H3635 C3644 0.950 . S
H3636 C3646 0.950 . S
H3637 C3648 0.950 . S
H3638 C3650 0.950 . S
H3639 C3651 0.950 . S
C3640 H3632 0.950 . S
C3640 C3641 1.386 . S
C3640 C3642 1.391 . S
C3641 C3640 1.386 . S
C3641 C3645 1.393 . S
C3642 H3634 0.950 . S
C3642 C3640 1.391 . S
C3642 C3643 1.400 . S
C3643 C3642 1.400 . S
C3643 C3644 1.398 . S
C3643 C3649 1.491 . S
C3644 H3635 0.950 . S
C3644 C3643 1.398 . S
C3644 C3645 1.391 . S
C3645 H3633 0.950 . S
C3645 C3641 1.393 . S
C3645 C3644 1.391 . S
C3646 H3636 0.950 . S
C3646 C3647 1.386 . S
C3646 C3648 1.391 . S
C3647 C3646 1.386 . S
C3647 C3651 1.393 . S
C3648 H3637 0.950 . S
C3648 C3646 1.391 . S
C3648 C3649 1.400 . S
C3649 C3643 1.491 . S
C3649 C3648 1.400 . S
C3649 C3650 1.398 . S
C3650 H3638 0.950 . S
C3650 C3649 1.398 . S
C3650 C3651 1.391 . S
C3651 H3639 0.950 . S
C3651 C3647 1.393 . S
C3651 C3650 1.391 . S
H3652 C3660 0.950 . S
H3653 C3665 0.950 . S
H3654 C3662 0.950 . S
H3655 C3664 0.950 . S
H3656 C3666 0.950 . S
H3657 C3668 0.950 . S
H3658 C3670 0.950 . S
H3659 C3671 0.950 . S
C3660 H3652 0.950 . S
C3660 C3661 1.386 . S
C3660 C3662 1.391 . S
C3661 C3660 1.386 . S
C3661 C3665 1.393 . S
C3662 H3654 0.950 . S
C3662 C3660 1.391 . S
C3662 C3663 1.400 . S
C3663 C3662 1.400 . S
C3663 C3664 1.398 . S
C3663 C3669 1.491 . S
C3664 H3655 0.950 . S
C3664 C3663 1.398 . S
C3664 C3665 1.391 . S
C3665 H3653 0.950 . S
C3665 C3661 1.393 . S
C3665 C3664 1.391 . S
C3666 H3656 0.950 . S
C3666 C3667 1.386 . S
C3666 C3668 1.391 . S
C3667 C3666 1.386 . S
C3667 C3671 1.393 . S
C3668 H3657 0.950 . S
C3668 C3666 1.391 . S
C3668 C3669 1.400 . S
C3669 C3663 1.491 . S
C3669 C3668 1.400 . S
C3669 C3670 1.398 . S
C3670 H3658 0.950 . S
C3670 C3669 1.398 . S
C3670 C3671 1.391 . S
C3671 H3659 0.950 . S
C3671 C3667 1.393 . S
C3671 C3670 1.391 . S
H3672 C3680 0.950 . S
H3673 C3685 0.950 . S
H3674 C3682 0.950 . S
H3675 C3684 0.950 . S
H3676 C3686 0.950 . S
H3677 C3688 0.950 . S
H3678 C3690 0.950 . S
H3679 C3691 0.950 . S
C3680 H3672 0.950 . S
C3680 C3681 1.386 . S
C3680 C3682 1.391 . S
C3681 C3680 1.386 . S
C3681 C3685 1.393 . S
C3682 H3674 0.950 . S
C3682 C3680 1.391 . S
C3682 C3683 1.400 . S
C3683 C3682 1.400 . S
C3683 C3684 1.398 . S
C3683 C3689 1.491 . S
C3684 H3675 0.950 . S
C3684 C3683 1.398 . S
C3684 C3685 1.391 . S
C3685 H3673 0.950 . S
C3685 C3681 1.393 . S
C3685 C3684 1.391 . S
C3686 H3676 0.950 . S
C3686 C3687 1.386 . S
C3686 C3688 1.391 . S
C3687 C3686 1.386 . S
C3687 C3691 1.393 . S
C3688 H3677 0.950 . S
C3688 C3686 1.391 . S
C3688 C3689 1.400 . S
C3689 C3683 1.491 . S
C3689 C3688 1.400 . S
C3689 C3690 1.398 . S
C3690 H3678 0.950 . S
C3690 C3689 1.398 . S
C3690 C3691 1.391 . S
C3691 H3679 0.950 . S
C3691 C3687 1.393 . S
C3691 C3690 1.391 . S
H3692 C3700 0.950 . S
H3693 C3705 0.950 . S
H3694 C3702 0.950 . S
H3695 C3704 0.950 . S
H3696 C3706 0.950 . S
H3697 C3708 0.950 . S
H3698 C3710 0.950 . S
H3699 C3711 0.950 . S
C3700 H3692 0.950 . S
C3700 C3701 1.386 . S
C3700 C3702 1.391 . S
C3701 C3700 1.386 . S
C3701 C3705 1.393 . S
C3702 H3694 0.950 . S
C3702 C3700 1.391 . S
C3702 C3703 1.400 . S
C3703 C3702 1.400 . S
C3703 C3704 1.398 . S
C3703 C3709 1.491 . S
C3704 H3695 0.950 . S
C3704 C3703 1.398 . S
C3704 C3705 1.391 . S
C3705 H3693 0.950 . S
C3705 C3701 1.393 . S
C3705 C3704 1.391 . S
C3706 H3696 0.950 . S
C3706 C3707 1.386 . S
C3706 C3708 1.391 . S
C3707 C3706 1.386 . S
C3707 C3711 1.393 . S
C3708 H3697 0.950 . S
C3708 C3706 1.391 . S
C3708 C3709 1.400 . S
C3709 C3703 1.491 . S
C3709 C3708 1.400 . S
C3709 C3710 1.398 . S
C3710 H3698 0.950 . S
C3710 C3709 1.398 . S
C3710 C3711 1.391 . S
C3711 H3699 0.950 . S
C3711 C3707 1.393 . S
C3711 C3710 1.391 . S
H3712 C3720 0.950 . S
H3713 C3725 0.950 . S
H3714 C3722 0.950 . S
H3715 C3724 0.950 . S
H3716 C3726 0.950 . S
H3717 C3728 0.950 . S
H3718 C3730 0.950 . S
H3719 C3731 0.950 . S
C3720 H3712 0.950 . S
C3720 C3721 1.386 . S
C3720 C3722 1.391 . S
C3721 C3720 1.386 . S
C3721 C3725 1.393 . S
C3722 H3714 0.950 . S
C3722 C3720 1.391 . S
C3722 C3723 1.400 . S
C3723 C3722 1.400 . S
C3723 C3724 1.398 . S
C3723 C3729 1.491 . S
C3724 H3715 0.950 . S
C3724 C3723 1.398 . S
C3724 C3725 1.391 . S
C3725 H3713 0.950 . S
C3725 C3721 1.393 . S
C3725 C3724 1.391 . S
C3726 H3716 0.950 . S
C3726 C3727 1.386 . S
C3726 C3728 1.391 . S
C3727 C3726 1.386 . S
C3727 C3731 1.393 . S
C3728 H3717 0.950 . S
C3728 C3726 1.391 . S
C3728 C3729 1.400 . S
C3729 C3723 1.491 . S
C3729 C3728 1.400 . S
C3729 C3730 1.398 . S
C3730 H3718 0.950 . S
C3730 C3729 1.398 . S
C3730 C3731 1.391 . S
C3731 H3719 0.950 . S
C3731 C3727 1.393 . S
C3731 C3730 1.391 . S
H3732 C3740 0.950 . S
H3733 C3745 0.950 . S
H3734 C3742 0.950 . S
H3735 C3744 0.950 . S
H3736 C3746 0.950 . S
H3737 C3748 0.950 . S
H3738 C3750 0.950 . S
H3739 C3751 0.950 . S
C3740 H3732 0.950 . S
C3740 C3741 1.386 . S
C3740 C3742 1.391 . S
C3741 C3740 1.386 . S
C3741 C3745 1.393 . S
C3742 H3734 0.950 . S
C3742 C3740 1.391 . S
C3742 C3743 1.400 . S
C3743 C3742 1.400 . S
C3743 C3744 1.398 . S
C3743 C3749 1.491 . S
C3744 H3735 0.950 . S
C3744 C3743 1.398 . S
C3744 C3745 1.391 . S
C3745 H3733 0.950 . S
C3745 C3741 1.393 . S
C3745 C3744 1.391 . S
C3746 H3736 0.950 . S
C3746 C3747 1.386 . S
C3746 C3748 1.391 . S
C3747 C3746 1.386 . S
C3747 C3751 1.393 . S
C3748 H3737 0.950 . S
C3748 C3746 1.391 . S
C3748 C3749 1.400 . S
C3749 C3743 1.491 . S
C3749 C3748 1.400 . S
C3749 C3750 1.398 . S
C3750 H3738 0.950 . S
C3750 C3749 1.398 . S
C3750 C3751 1.391 . S
C3751 H3739 0.950 . S
C3751 C3747 1.393 . S
C3751 C3750 1.391 . S
H3752 C3760 0.950 . S
H3753 C3765 0.950 . S
H3754 C3762 0.950 . S
H3755 C3764 0.950 . S
H3756 C3766 0.950 . S
H3757 C3768 0.950 . S
H3758 C3770 0.950 . S
H3759 C3771 0.950 . S
C3760 H3752 0.950 . S
C3760 C3761 1.386 . S
C3760 C3762 1.391 . S
C3761 C3760 1.386 . S
C3761 C3765 1.393 . S
C3762 H3754 0.950 . S
C3762 C3760 1.391 . S
C3762 C3763 1.400 . S
C3763 C3762 1.400 . S
C3763 C3764 1.398 . S
C3763 C3769 1.491 . S
C3764 H3755 0.950 . S
C3764 C3763 1.398 . S
C3764 C3765 1.391 . S
C3765 H3753 0.950 . S
C3765 C3761 1.393 . S
C3765 C3764 1.391 . S
C3766 H3756 0.950 . S
C3766 C3767 1.386 . S
C3766 C3768 1.391 . S
C3767 C3766 1.386 . S
C3767 C3771 1.393 . S
C3768 H3757 0.950 . S
C3768 C3766 1.391 . S
C3768 C3769 1.400 . S
C3769 C3763 1.491 . S
C3769 C3768 1.400 . S
C3769 C3770 1.398 . S
C3770 H3758 0.950 . S
C3770 C3769 1.398 . S
C3770 C3771 1.391 . S
C3771 H3759 0.950 . S
C3771 C3767 1.393 . S
C3771 C3770 1.391 . S
H3772 C3780 0.950 . S
H3773 C3785 0.950 . S
H3774 C3782 0.950 . S
H3775 C3784 0.950 . S
H3776 C3786 0.950 . S
H3777 C3788 0.950 . S
H3778 C3790 0.950 . S
H3779 C3791 0.923 1_545 S
C3780 H3772 0.950 . S
C3780 C3781 1.386 . S
C3780 C3782 1.391 . S
C3781 C3780 1.386 . S
C3781 C3785 1.393 . S
C3782 H3774 0.950 . S
C3782 C3780 1.391 . S
C3782 C3783 1.400 . S
C3783 C3782 1.400 . S
C3783 C3784 1.398 . S
C3783 C3789 1.491 . S
C3784 H3775 0.950 . S
C3784 C3783 1.398 . S
C3784 C3785 1.391 . S
C3785 H3773 0.950 . S
C3785 C3781 1.393 . S
C3785 C3784 1.391 . S
C3786 H3776 0.950 . S
C3786 C3787 1.386 . S
C3786 C3788 1.391 . S
C3787 C3786 1.386 . S
C3787 C3791 1.412 . S
C3788 H3777 0.950 . S
C3788 C3786 1.391 . S
C3788 C3789 1.400 . S
C3789 C3783 1.491 . S
C3789 C3788 1.400 . S
C3789 C3790 1.398 . S
C3790 H3778 0.950 . S
C3790 C3789 1.398 . S
C3790 C3791 1.399 . S
C3791 H3779 0.923 1_565 S
C3791 C3787 1.412 . S
C3791 C3790 1.399 . S
H3792 C3800 0.950 . S
H3793 C3805 0.950 . S
H3794 C3802 0.950 . S
H3795 C3804 0.950 . S
H3796 C3806 0.950 . S
H3797 C3808 0.950 . S
H3798 C3810 0.950 . S
H3799 C3811 0.950 . S
C3800 H3792 0.950 . S
C3800 C3801 1.386 . S
C3800 C3802 1.391 . S
C3801 C3800 1.386 . S
C3801 C3805 1.393 . S
C3802 H3794 0.950 . S
C3802 C3800 1.391 . S
C3802 C3803 1.400 . S
C3803 C3802 1.400 . S
C3803 C3804 1.398 . S
C3803 C3809 1.491 . S
C3804 H3795 0.950 . S
C3804 C3803 1.398 . S
C3804 C3805 1.391 . S
C3805 H3793 0.950 . S
C3805 C3801 1.393 . S
C3805 C3804 1.391 . S
C3806 H3796 0.950 . S
C3806 C3807 1.386 . S
C3806 C3808 1.391 . S
C3807 C3806 1.386 . S
C3807 C3811 1.393 . S
C3808 H3797 0.950 . S
C3808 C3806 1.391 . S
C3808 C3809 1.400 . S
C3809 C3803 1.491 . S
C3809 C3808 1.400 . S
C3809 C3810 1.398 . S
C3810 H3798 0.950 . S
C3810 C3809 1.398 . S
C3810 C3811 1.391 . S
C3811 H3799 0.950 . S
C3811 C3807 1.393 . S
C3811 C3810 1.391 . S
H3812 C3820 0.950 . S
H3813 C3825 0.950 . S
H3814 C3822 0.950 . S
H3815 C3824 0.950 . S
H3816 C3826 0.950 . S
H3817 C3828 0.950 . S
H3818 C3830 0.967 . S
H3819 C3831 0.950 . S
C3820 H3812 0.950 . S
C3820 C3821 1.386 1_556 S
C3820 C3822 1.391 . S
C3821 C3820 1.386 1_554 S
C3821 C3825 1.393 . S
C3822 H3814 0.950 . S
C3822 C3820 1.391 . S
C3822 C3823 1.400 1_556 S
C3823 C3822 1.400 1_554 S
C3823 C3824 1.398 . S
C3823 C3829 1.491 . S
C3824 H3815 0.950 . S
C3824 C3823 1.398 . S
C3824 C3825 1.391 . S
C3825 H3813 0.950 . S
C3825 C3821 1.393 . S
C3825 C3824 1.391 . S
C3826 H3816 0.950 . S
C3826 C3827 1.386 . S
C3826 C3828 1.391 . S
C3827 C3826 1.386 . S
C3827 C3831 1.393 . S
C3828 H3817 0.950 . S
C3828 C3826 1.391 . S
C3828 C3829 1.400 . S
C3829 C3823 1.491 . S
C3829 C3828 1.400 . S
C3829 C3830 1.398 . S
C3830 H3818 0.967 . S
C3830 C3829 1.398 . S
C3830 C3831 1.391 . S
C3831 H3819 0.950 . S
C3831 C3827 1.393 . S
C3831 C3830 1.391 . S
H3832 C3840 0.950 . S
H3833 C3845 0.950 . S
H3834 C3842 0.950 . S
H3835 C3844 0.950 . S
H3836 C3846 0.950 . S
H3837 C3848 0.950 . S
H3838 C3850 0.950 . S
H3839 C3851 0.950 . S
C3840 H3832 0.950 . S
C3840 C3841 1.386 . S
C3840 C3842 1.391 . S
C3841 C3840 1.386 . S
C3841 C3845 1.393 . S
C3842 H3834 0.950 . S
C3842 C3840 1.391 . S
C3842 C3843 1.400 . S
C3843 C3842 1.400 . S
C3843 C3844 1.398 . S
C3843 C3849 1.491 . S
C3844 H3835 0.950 . S
C3844 C3843 1.398 . S
C3844 C3845 1.391 . S
C3845 H3833 0.950 . S
C3845 C3841 1.393 . S
C3845 C3844 1.391 . S
C3846 H3836 0.950 . S
C3846 C3847 1.386 . S
C3846 C3848 1.391 . S
C3847 C3846 1.386 . S
C3847 C3851 1.393 . S
C3848 H3837 0.950 . S
C3848 C3846 1.391 . S
C3848 C3849 1.400 . S
C3849 C3843 1.491 . S
C3849 C3848 1.400 . S
C3849 C3850 1.398 . S
C3850 H3838 0.950 . S
C3850 C3849 1.398 . S
C3850 C3851 1.391 . S
C3851 H3839 0.950 . S
C3851 C3847 1.393 . S
C3851 C3850 1.391 . S
H3852 C3860 0.950 . S
H3853 C3865 0.950 . S
H3854 C3862 0.950 . S
H3855 C3864 0.950 . S
H3856 C3866 0.950 . S
H3857 C3868 0.950 . S
H3858 C3870 0.950 . S
H3859 C3871 0.950 . S
C3860 H3852 0.950 . S
C3860 C3861 1.386 . S
C3860 C3862 1.391 . S
C3861 C3860 1.386 . S
C3861 C3865 1.393 . S
C3862 H3854 0.950 . S
C3862 C3860 1.391 . S
C3862 C3863 1.400 . S
C3863 C3862 1.400 . S
C3863 C3864 1.398 . S
C3863 C3869 1.491 . S
C3864 H3855 0.950 . S
C3864 C3863 1.398 . S
C3864 C3865 1.391 . S
C3865 H3853 0.950 . S
C3865 C3861 1.393 . S
C3865 C3864 1.391 . S
C3866 H3856 0.950 . S
C3866 C3867 1.386 . S
C3866 C3868 1.391 . S
C3867 C3866 1.386 . S
C3867 C3871 1.393 . S
C3868 H3857 0.950 . S
C3868 C3866 1.391 . S
C3868 C3869 1.400 . S
C3869 C3863 1.491 . S
C3869 C3868 1.400 . S
C3869 C3870 1.398 . S
C3870 H3858 0.950 . S
C3870 C3869 1.398 . S
C3870 C3871 1.391 . S
C3871 H3859 0.950 . S
C3871 C3867 1.393 . S
C3871 C3870 1.391 . S
H3872 C3880 0.950 . S
H3873 C3885 0.950 . S
H3874 C3882 0.950 . S
H3875 C3884 0.950 . S
H3876 C3886 0.950 . S
H3877 C3888 0.950 . S
H3878 C3890 0.950 . S
H3879 C3891 0.950 . S
C3880 H3872 0.950 . S
C3880 C3881 1.386 . S
C3880 C3882 1.391 . S
C3881 C3880 1.386 . S
C3881 C3885 1.393 . S
C3882 H3874 0.950 . S
C3882 C3880 1.391 . S
C3882 C3883 1.400 . S
C3883 C3882 1.400 . S
C3883 C3884 1.398 . S
C3883 C3889 1.491 . S
C3884 H3875 0.950 . S
C3884 C3883 1.398 . S
C3884 C3885 1.391 . S
C3885 H3873 0.950 . S
C3885 C3881 1.393 . S
C3885 C3884 1.391 . S
C3886 H3876 0.950 . S
C3886 C3887 1.386 . S
C3886 C3888 1.391 . S
C3887 C3886 1.386 . S
C3887 C3891 1.393 . S
C3888 H3877 0.950 . S
C3888 C3886 1.391 . S
C3888 C3889 1.400 . S
C3889 C3883 1.491 . S
C3889 C3888 1.400 . S
C3889 C3890 1.398 . S
C3890 H3878 0.950 . S
C3890 C3889 1.398 . S
C3890 C3891 1.391 . S
C3891 H3879 0.950 . S
C3891 C3887 1.393 . S
C3891 C3890 1.391 . S
H3892 C3900 0.950 . S
H3893 C3905 0.950 . S
H3894 C3902 0.950 . S
H3895 C3904 0.950 . S
H3896 C3906 0.950 . S
H3897 C3908 0.950 . S
H3898 C3910 0.950 . S
H3899 C3911 0.950 . S
C3900 H3892 0.950 . S
C3900 C3901 1.386 . S
C3900 C3902 1.391 . S
C3901 C3900 1.386 . S
C3901 C3905 1.393 . S
C3902 H3894 0.950 . S
C3902 C3900 1.391 . S
C3902 C3903 1.400 . S
C3903 C3902 1.400 . S
C3903 C3904 1.398 . S
C3903 C3909 1.491 . S
C3904 H3895 0.950 . S
C3904 C3903 1.398 . S
C3904 C3905 1.391 . S
C3905 H3893 0.950 . S
C3905 C3901 1.393 . S
C3905 C3904 1.391 . S
C3906 H3896 0.950 . S
C3906 C3907 1.386 . S
C3906 C3908 1.391 . S
C3907 C3906 1.386 . S
C3907 C3911 1.393 . S
C3908 H3897 0.950 . S
C3908 C3906 1.391 . S
C3908 C3909 1.400 . S
C3909 C3903 1.491 . S
C3909 C3908 1.400 . S
C3909 C3910 1.398 . S
C3910 H3898 0.950 . S
C3910 C3909 1.398 . S
C3910 C3911 1.391 . S
C3911 H3899 0.950 . S
C3911 C3907 1.393 . S
C3911 C3910 1.391 . S
H3912 C3920 0.950 . S
H3913 C3925 0.950 . S
H3914 C3922 0.950 . S
H3915 C3924 0.950 . S
H3916 C3926 0.950 . S
H3917 C3928 0.950 . S
H3918 C3930 0.950 . S
H3919 C3931 0.950 . S
C3920 H3912 0.950 . S
C3920 C3921 1.386 . S
C3920 C3922 1.391 . S
C3921 C3920 1.386 . S
C3921 C3925 1.393 . S
C3922 H3914 0.950 . S
C3922 C3920 1.391 . S
C3922 C3923 1.400 . S
C3923 C3922 1.400 . S
C3923 C3924 1.398 . S
C3923 C3929 1.491 . S
C3924 H3915 0.950 . S
C3924 C3923 1.398 . S
C3924 C3925 1.391 . S
C3925 H3913 0.950 . S
C3925 C3921 1.393 . S
C3925 C3924 1.391 . S
C3926 H3916 0.950 . S
C3926 C3927 1.386 . S
C3926 C3928 1.391 . S
C3927 C3926 1.386 . S
C3927 C3931 1.393 . S
C3928 H3917 0.950 . S
C3928 C3926 1.391 . S
C3928 C3929 1.400 . S
C3929 C3923 1.491 . S
C3929 C3928 1.400 . S
C3929 C3930 1.398 . S
C3930 H3918 0.950 . S
C3930 C3929 1.398 . S
C3930 C3931 1.391 . S
C3931 H3919 0.950 . S
C3931 C3927 1.393 . S
C3931 C3930 1.391 . S
H3932 C3940 0.950 . S
H3933 C3945 0.950 . S
H3934 C3942 0.950 . S
H3935 C3944 0.950 . S
H3936 C3946 0.950 . S
H3937 C3948 0.950 . S
H3938 C3950 0.950 . S
H3939 C3951 0.950 . S
C3940 H3932 0.950 . S
C3940 C3941 1.386 . S
C3940 C3942 1.391 . S
C3941 C3940 1.386 . S
C3941 C3945 1.393 . S
C3942 H3934 0.950 . S
C3942 C3940 1.391 . S
C3942 C3943 1.400 . S
C3943 C3942 1.400 . S
C3943 C3944 1.398 . S
C3943 C3949 1.491 . S
C3944 H3935 0.950 . S
C3944 C3943 1.398 . S
C3944 C3945 1.391 . S
C3945 H3933 0.950 . S
C3945 C3941 1.393 . S
C3945 C3944 1.391 . S
C3946 H3936 0.950 . S
C3946 C3947 1.386 . S
C3946 C3948 1.391 . S
C3947 C3946 1.386 . S
C3947 C3951 1.393 . S
C3948 H3937 0.950 . S
C3948 C3946 1.391 . S
C3948 C3949 1.400 . S
C3949 C3943 1.491 . S
C3949 C3948 1.400 . S
C3949 C3950 1.398 . S
C3950 H3938 0.950 . S
C3950 C3949 1.398 . S
C3950 C3951 1.391 . S
C3951 H3939 0.950 . S
C3951 C3947 1.393 . S
C3951 C3950 1.391 . S
H3952 C3960 0.950 . S
H3953 C3965 0.950 . S
H3954 C3962 0.950 . S
H3955 C3964 0.950 . S
H3956 C3966 0.950 . S
H3957 C3968 0.950 . S
H3958 C3970 0.950 . S
H3959 C3971 0.932 1_554 S
C3960 H3952 0.950 . S
C3960 C3961 1.386 . S
C3960 C3962 1.391 . S
C3961 C3960 1.386 . S
C3961 C3965 1.393 . S
C3962 H3954 0.950 . S
C3962 C3960 1.391 . S
C3962 C3963 1.400 . S
C3963 C3962 1.400 . S
C3963 C3964 1.398 . S
C3963 C3969 1.491 . S
C3964 H3955 0.950 . S
C3964 C3963 1.398 . S
C3964 C3965 1.391 . S
C3965 H3953 0.950 . S
C3965 C3961 1.393 . S
C3965 C3964 1.391 . S
C3966 H3956 0.950 . S
C3966 C3967 1.386 . S
C3966 C3968 1.391 . S
C3967 C3966 1.386 . S
C3967 C3971 1.401 . S
C3968 H3957 0.950 . S
C3968 C3966 1.391 . S
C3968 C3969 1.400 . S
C3969 C3963 1.491 . S
C3969 C3968 1.400 . S
C3969 C3970 1.398 . S
C3970 H3958 0.950 . S
C3970 C3969 1.398 . S
C3970 C3971 1.401 . S
C3971 H3959 0.932 1_556 S
C3971 C3967 1.401 . S
C3971 C3970 1.401 . S
H3972 C3980 0.950 . S
H3973 C3985 0.950 . S
H3974 C3982 0.950 . S
H3975 C3984 0.950 . S
H3976 C3986 0.950 . S
H3977 C3988 0.950 . S
H3978 C3990 0.950 . S
H3979 C3991 0.950 . S
C3980 H3972 0.950 . S
C3980 C3981 1.386 . S
C3980 C3982 1.391 . S
C3981 C3980 1.386 . S
C3981 C3985 1.393 . S
C3982 H3974 0.950 . S
C3982 C3980 1.391 . S
C3982 C3983 1.400 . S
C3983 C3982 1.400 . S
C3983 C3984 1.398 . S
C3983 C3989 1.491 . S
C3984 H3975 0.950 . S
C3984 C3983 1.398 . S
C3984 C3985 1.391 . S
C3985 H3973 0.950 . S
C3985 C3981 1.393 . S
C3985 C3984 1.391 . S
C3986 H3976 0.950 . S
C3986 C3987 1.386 . S
C3986 C3988 1.391 . S
C3987 C3986 1.386 . S
C3987 C3991 1.393 . S
C3988 H3977 0.950 . S
C3988 C3986 1.391 . S
C3988 C3989 1.400 . S
C3989 C3983 1.491 . S
C3989 C3988 1.400 . S
C3989 C3990 1.398 . S
C3990 H3978 0.950 . S
C3990 C3989 1.398 . S
C3990 C3991 1.391 . S
C3991 H3979 0.950 . S
C3991 C3987 1.393 . S
C3991 C3990 1.391 . S
H3992 C4000 0.950 . S
H3993 C4005 0.944 1_655 S
H3994 C4002 0.950 . S
H3995 C4004 0.950 1_655 S
H3996 C4006 0.950 1_655 S
H3997 C4008 0.950 1_655 S
H3998 C4010 0.950 . S
H3999 C4011 0.950 . S
C4000 H3992 0.950 . S
C4000 C4001 1.386 . S
C4000 C4002 1.391 . S
C4001 C4000 1.386 . S
C4001 C4005 1.393 . S
C4002 H3994 0.950 . S
C4002 C4000 1.391 . S
C4002 C4003 1.400 . S
C4003 C4002 1.400 . S
C4003 C4004 1.398 . S
C4003 C4009 1.491 . S
C4004 H3995 0.950 1_455 S
C4004 C4003 1.398 . S
C4004 C4005 1.391 . S
C4005 H3993 0.944 1_455 S
C4005 C4001 1.393 . S
C4005 C4004 1.391 . S
C4006 H3996 0.950 1_455 S
C4006 C4007 1.386 . S
C4006 C4008 1.391 . S
C4007 C4006 1.386 . S
C4007 C4011 1.393 . S
C4008 H3997 0.950 1_455 S
C4008 C4006 1.391 . S
C4008 C4009 1.400 . S
C4009 C4003 1.491 . S
C4009 C4008 1.400 . S
C4009 C4010 1.398 . S
C4010 H3998 0.950 . S
C4010 C4009 1.398 . S
C4010 C4011 1.391 . S
C4011 H3999 0.950 . S
C4011 C4007 1.393 . S
C4011 C4010 1.391 . S
H4012 C4020 0.950 . S
H4013 C4025 0.950 . S
H4014 C4022 0.950 . S
H4015 C4024 0.950 . S
H4016 C4026 0.950 . S
H4017 C4028 0.950 . S
H4018 C4030 0.950 . S
H4019 C4031 0.950 . S
C4020 H4012 0.950 . S
C4020 C4021 1.386 . S
C4020 C4022 1.391 . S
C4021 C4020 1.386 . S
C4021 C4025 1.393 . S
C4022 H4014 0.950 . S
C4022 C4020 1.391 . S
C4022 C4023 1.400 . S
C4023 C4022 1.400 . S
C4023 C4024 1.398 . S
C4023 C4029 1.491 . S
C4024 H4015 0.950 . S
C4024 C4023 1.398 . S
C4024 C4025 1.391 . S
C4025 H4013 0.950 . S
C4025 C4021 1.393 . S
C4025 C4024 1.391 . S
C4026 H4016 0.950 . S
C4026 C4027 1.386 . S
C4026 C4028 1.391 . S
C4027 C4026 1.386 . S
C4027 C4031 1.393 . S
C4028 H4017 0.950 . S
C4028 C4026 1.391 . S
C4028 C4029 1.400 . S
C4029 C4023 1.491 . S
C4029 C4028 1.400 . S
C4029 C4030 1.398 . S
C4030 H4018 0.950 . S
C4030 C4029 1.398 . S
C4030 C4031 1.391 . S
C4031 H4019 0.950 . S
C4031 C4027 1.393 . S
C4031 C4030 1.391 . S
H4032 C4040 0.950 . S
H4033 C4045 0.950 . S
H4034 C4042 0.950 . S
H4035 C4044 0.950 . S
H4036 C4046 0.950 . S
H4037 C4048 0.950 . S
H4038 C4050 0.950 . S
H4039 C4051 0.950 . S
C4040 H4032 0.950 . S
C4040 C4041 1.386 . S
C4040 C4042 1.391 . S
C4041 C4040 1.386 . S
C4041 C4045 1.393 . S
C4042 H4034 0.950 . S
C4042 C4040 1.391 . S
C4042 C4043 1.400 . S
C4043 C4042 1.400 . S
C4043 C4044 1.398 . S
C4043 C4049 1.491 . S
C4044 H4035 0.950 . S
C4044 C4043 1.398 . S
C4044 C4045 1.391 . S
C4045 H4033 0.950 . S
C4045 C4041 1.393 . S
C4045 C4044 1.391 . S
C4046 H4036 0.950 . S
C4046 C4047 1.386 . S
C4046 C4048 1.391 . S
C4047 C4046 1.386 . S
C4047 C4051 1.393 . S
C4048 H4037 0.950 . S
C4048 C4046 1.391 . S
C4048 C4049 1.400 . S
C4049 C4043 1.491 . S
C4049 C4048 1.400 . S
C4049 C4050 1.398 . S
C4050 H4038 0.950 . S
C4050 C4049 1.398 . S
C4050 C4051 1.391 . S
C4051 H4039 0.950 . S
C4051 C4047 1.393 . S
C4051 C4050 1.391 . S
H4052 C4060 0.950 . S
H4053 C4065 0.950 . S
H4054 C4062 0.950 . S
H4055 C4064 0.950 . S
H4056 C4066 0.950 . S
H4057 C4068 0.950 . S
H4058 C4070 0.950 . S
H4059 C4071 0.950 . S
C4060 H4052 0.950 . S
C4060 C4061 1.386 . S
C4060 C4062 1.391 . S
C4061 C4060 1.386 . S
C4061 C4065 1.393 . S
C4062 H4054 0.950 . S
C4062 C4060 1.391 . S
C4062 C4063 1.400 . S
C4063 C4062 1.400 . S
C4063 C4064 1.398 . S
C4063 C4069 1.491 . S
C4064 H4055 0.950 . S
C4064 C4063 1.398 . S
C4064 C4065 1.391 . S
C4065 H4053 0.950 . S
C4065 C4061 1.393 . S
C4065 C4064 1.391 . S
C4066 H4056 0.950 . S
C4066 C4067 1.386 . S
C4066 C4068 1.391 . S
C4067 C4066 1.386 . S
C4067 C4071 1.393 . S
C4068 H4057 0.950 . S
C4068 C4066 1.391 . S
C4068 C4069 1.400 . S
C4069 C4063 1.491 . S
C4069 C4068 1.400 . S
C4069 C4070 1.398 . S
C4070 H4058 0.950 . S
C4070 C4069 1.398 . S
C4070 C4071 1.391 . S
C4071 H4059 0.950 . S
C4071 C4067 1.393 . S
C4071 C4070 1.391 . S
H4072 C4080 0.950 . S
H4073 C4085 0.950 . S
H4074 C4082 0.973 . S
H4075 C4084 0.950 . S
H4076 C4086 0.950 . S
H4077 C4088 0.950 . S
H4078 C4090 0.950 . S
H4079 C4091 0.950 . S
C4080 H4072 0.950 . S
C4080 C4081 1.386 . S
C4080 C4082 1.391 . S
C4081 C4080 1.386 . S
C4081 C4085 1.393 . S
C4082 H4074 0.973 . S
C4082 C4080 1.391 . S
C4082 C4083 1.400 . S
C4083 C4082 1.400 . S
C4083 C4084 1.398 . S
C4083 C4089 1.491 . S
C4084 H4075 0.950 . S
C4084 C4083 1.398 . S
C4084 C4085 1.391 . S
C4085 H4073 0.950 . S
C4085 C4081 1.393 . S
C4085 C4084 1.391 . S
C4086 H4076 0.950 . S
C4086 C4087 1.386 . S
C4086 C4088 1.391 . S
C4087 C4086 1.386 . S
C4087 C4091 1.393 1_655 S
C4088 H4077 0.950 . S
C4088 C4086 1.391 . S
C4088 C4089 1.400 . S
C4089 C4083 1.491 . S
C4089 C4088 1.400 . S
C4089 C4090 1.398 1_655 S
C4090 H4078 0.950 . S
C4090 C4089 1.398 1_455 S
C4090 C4091 1.391 . S
C4091 H4079 0.950 . S
C4091 C4087 1.393 1_455 S
C4091 C4090 1.391 . S
H4092 C4100 0.950 . S
H4093 C4105 0.950 . S
H4094 C4102 0.950 . S
H4095 C4104 0.950 . S
H4096 C4106 0.950 . S
H4097 C4108 0.950 . S
H4098 C4110 0.950 . S
H4099 C4111 0.950 . S
C4100 H4092 0.950 . S
C4100 C4101 1.386 . S
C4100 C4102 1.391 . S
C4101 C4100 1.386 . S
C4101 C4105 1.393 . S
C4102 H4094 0.950 . S
C4102 C4100 1.391 . S
C4102 C4103 1.400 . S
C4103 C4102 1.400 . S
C4103 C4104 1.398 . S
C4103 C4109 1.491 . S
C4104 H4095 0.950 . S
C4104 C4103 1.398 . S
C4104 C4105 1.391 . S
C4105 H4093 0.950 . S
C4105 C4101 1.393 . S
C4105 C4104 1.391 . S
C4106 H4096 0.950 . S
C4106 C4107 1.386 . S
C4106 C4108 1.391 . S
C4107 C4106 1.386 . S
C4107 C4111 1.393 . S
C4108 H4097 0.950 . S
C4108 C4106 1.391 . S
C4108 C4109 1.400 . S
C4109 C4103 1.491 . S
C4109 C4108 1.400 . S
C4109 C4110 1.398 . S
C4110 H4098 0.950 . S
C4110 C4109 1.398 . S
C4110 C4111 1.391 . S
C4111 H4099 0.950 . S
C4111 C4107 1.393 . S
C4111 C4110 1.391 . S
H4112 C4120 0.950 . S
H4113 C4125 0.950 . S
H4114 C4122 0.950 . S
H4115 C4124 0.950 . S
H4116 C4126 0.950 . S
H4117 C4128 0.950 . S
H4118 C4130 0.950 . S
H4119 C4131 0.950 . S
C4120 H4112 0.950 . S
C4120 C4121 1.386 . S
C4120 C4122 1.391 . S
C4121 C4120 1.386 . S
C4121 C4125 1.393 . S
C4122 H4114 0.950 . S
C4122 C4120 1.391 . S
C4122 C4123 1.400 . S
C4123 C4122 1.400 . S
C4123 C4124 1.398 . S
C4123 C4129 1.491 . S
C4124 H4115 0.950 . S
C4124 C4123 1.398 . S
C4124 C4125 1.391 . S
C4125 H4113 0.950 . S
C4125 C4121 1.393 . S
C4125 C4124 1.391 . S
C4126 H4116 0.950 . S
C4126 C4127 1.386 . S
C4126 C4128 1.391 . S
C4127 C4126 1.386 . S
C4127 C4131 1.393 . S
C4128 H4117 0.950 . S
C4128 C4126 1.391 . S
C4128 C4129 1.400 . S
C4129 C4123 1.491 . S
C4129 C4128 1.400 . S
C4129 C4130 1.398 . S
C4130 H4118 0.950 . S
C4130 C4129 1.398 . S
C4130 C4131 1.391 . S
C4131 H4119 0.950 . S
C4131 C4127 1.393 . S
C4131 C4130 1.391 . S
H4132 C4140 0.950 . S
H4133 C4145 0.950 . S
H4134 C4142 0.950 . S
H4135 C4144 0.950 . S
H4136 C4146 0.950 . S
H4137 C4148 0.950 . S
H4138 C4150 0.950 . S
H4139 C4151 0.950 . S
C4140 H4132 0.950 . S
C4140 C4141 1.386 . S
C4140 C4142 1.391 . S
C4141 C4140 1.386 . S
C4141 C4145 1.393 . S
C4142 H4134 0.950 . S
C4142 C4140 1.391 . S
C4142 C4143 1.400 . S
C4143 C4142 1.400 . S
C4143 C4144 1.398 . S
C4143 C4149 1.491 . S
C4144 H4135 0.950 . S
C4144 C4143 1.398 . S
C4144 C4145 1.391 . S
C4145 H4133 0.950 . S
C4145 C4141 1.393 . S
C4145 C4144 1.391 . S
C4146 H4136 0.950 . S
C4146 C4147 1.386 . S
C4146 C4148 1.391 . S
C4147 C4146 1.386 . S
C4147 C4151 1.393 . S
C4148 H4137 0.950 . S
C4148 C4146 1.391 . S
C4148 C4149 1.400 . S
C4149 C4143 1.491 . S
C4149 C4148 1.400 . S
C4149 C4150 1.398 . S
C4150 H4138 0.950 . S
C4150 C4149 1.398 . S
C4150 C4151 1.391 . S
C4151 H4139 0.950 . S
C4151 C4147 1.393 . S
C4151 C4150 1.391 . S
H4152 C4160 0.950 . S
H4153 C4165 0.950 . S
H4154 C4162 0.950 . S
H4155 C4164 0.950 . S
H4156 C4166 0.950 1_455 S
H4157 C4168 0.950 . S
H4158 C4170 0.950 . S
H4159 C4171 0.950 . S
C4160 H4152 0.950 . S
C4160 C4161 1.386 . S
C4160 C4162 1.391 . S
C4161 C4160 1.386 . S
C4161 C4165 1.393 . S
C4162 H4154 0.950 . S
C4162 C4160 1.391 . S
C4162 C4163 1.400 . S
C4163 C4162 1.400 . S
C4163 C4164 1.398 . S
C4163 C4169 1.491 . S
C4164 H4155 0.950 . S
C4164 C4163 1.398 . S
C4164 C4165 1.391 . S
C4165 H4153 0.950 . S
C4165 C4161 1.393 . S
C4165 C4164 1.391 . S
C4166 H4156 0.950 1_655 S
C4166 C4167 1.386 . S
C4166 C4168 1.391 . S
C4167 C4166 1.386 . S
C4167 C4171 1.393 . S
C4168 H4157 0.950 . S
C4168 C4166 1.391 . S
C4168 C4169 1.400 . S
C4169 C4163 1.491 . S
C4169 C4168 1.400 . S
C4169 C4170 1.398 . S
C4170 H4158 0.950 . S
C4170 C4169 1.398 . S
C4170 C4171 1.391 . S
C4171 H4159 0.950 . S
C4171 C4167 1.393 . S
C4171 C4170 1.391 . S
H4172 C4180 0.950 . S
H4173 C4185 0.950 . S
H4174 C4182 0.950 . S
H4175 C4184 0.950 . S
H4176 C4186 0.950 . S
H4177 C4188 0.950 . S
H4178 C4190 0.950 . S
H4179 C4191 0.950 . S
C4180 H4172 0.950 . S
C4180 C4181 1.386 . S
C4180 C4182 1.391 . S
C4181 C4180 1.386 . S
C4181 C4185 1.393 . S
C4182 H4174 0.950 . S
C4182 C4180 1.391 . S
C4182 C4183 1.400 . S
C4183 C4182 1.400 . S
C4183 C4184 1.398 . S
C4183 C4189 1.491 . S
C4184 H4175 0.950 . S
C4184 C4183 1.398 . S
C4184 C4185 1.391 . S
C4185 H4173 0.950 . S
C4185 C4181 1.393 . S
C4185 C4184 1.391 . S
C4186 H4176 0.950 . S
C4186 C4187 1.386 . S
C4186 C4188 1.391 . S
C4187 C4186 1.386 . S
C4187 C4191 1.393 . S
C4188 H4177 0.950 . S
C4188 C4186 1.391 . S
C4188 C4189 1.400 . S
C4189 C4183 1.491 . S
C4189 C4188 1.400 . S
C4189 C4190 1.398 . S
C4190 H4178 0.950 . S
C4190 C4189 1.398 . S
C4190 C4191 1.391 . S
C4191 H4179 0.950 . S
C4191 C4187 1.393 . S
C4191 C4190 1.391 . S
H4192 C4200 0.950 . S
H4193 C4205 0.950 . S
H4194 C4202 0.950 . S
H4195 C4204 0.950 . S
H4196 C4206 0.950 . S
H4197 C4208 0.950 . S
H4198 C4210 0.950 . S
H4199 C4211 0.950 . S
C4200 H4192 0.950 . S
C4200 C4201 1.386 . S
C4200 C4202 1.391 . S
C4201 C4200 1.386 . S
C4201 C4205 1.393 . S
C4202 H4194 0.950 . S
C4202 C4200 1.391 . S
C4202 C4203 1.400 . S
C4203 C4202 1.400 . S
C4203 C4204 1.398 . S
C4203 C4209 1.491 . S
C4204 H4195 0.950 . S
C4204 C4203 1.398 . S
C4204 C4205 1.391 . S
C4205 H4193 0.950 . S
C4205 C4201 1.393 . S
C4205 C4204 1.391 . S
C4206 H4196 0.950 . S
C4206 C4207 1.386 . S
C4206 C4208 1.391 . S
C4207 C4206 1.386 . S
C4207 C4211 1.393 . S
C4208 H4197 0.950 . S
C4208 C4206 1.391 . S
C4208 C4209 1.400 . S
C4209 C4203 1.491 . S
C4209 C4208 1.400 . S
C4209 C4210 1.398 . S
C4210 H4198 0.950 . S
C4210 C4209 1.398 . S
C4210 C4211 1.391 . S
C4211 H4199 0.950 . S
C4211 C4207 1.393 . S
C4211 C4210 1.391 . S
H4212 C4220 0.950 . S
H4213 C4225 0.950 . S
H4214 C4222 0.950 . S
H4215 C4224 0.950 . S
H4216 C4226 0.950 . S
H4217 C4228 0.950 . S
H4218 C4230 0.950 1_545 S
H4219 C4231 0.950 . S
C4220 H4212 0.950 . S
C4220 C4221 1.386 . S
C4220 C4222 1.391 . S
C4221 C4220 1.386 . S
C4221 C4225 1.393 . S
C4222 H4214 0.950 . S
C4222 C4220 1.391 . S
C4222 C4223 1.400 . S
C4223 C4222 1.400 . S
C4223 C4224 1.398 . S
C4223 C4229 1.491 . S
C4224 H4215 0.950 . S
C4224 C4223 1.398 . S
C4224 C4225 1.391 . S
C4225 H4213 0.950 . S
C4225 C4221 1.393 . S
C4225 C4224 1.391 . S
C4226 H4216 0.950 . S
C4226 C4227 1.386 . S
C4226 C4228 1.391 . S
C4227 C4226 1.386 . S
C4227 C4231 1.393 1_565 S
C4228 H4217 0.950 . S
C4228 C4226 1.391 . S
C4228 C4229 1.400 . S
C4229 C4223 1.491 . S
C4229 C4228 1.400 . S
C4229 C4230 1.398 . S
C4230 H4218 0.950 1_565 S
C4230 C4229 1.398 . S
C4230 C4231 1.391 1_565 S
C4231 H4219 0.950 . S
C4231 C4227 1.393 1_545 S
C4231 C4230 1.391 1_545 S
H4232 C4240 0.950 . S
H4233 C4245 0.950 . S
H4234 C4242 0.950 . S
H4235 C4244 0.950 . S
H4236 C4246 0.950 . S
H4237 C4248 0.950 . S
H4238 C4250 0.950 . S
H4239 C4251 0.950 . S
C4240 H4232 0.950 . S
C4240 C4241 1.386 . S
C4240 C4242 1.391 . S
C4241 C4240 1.386 . S
C4241 C4245 1.393 . S
C4242 H4234 0.950 . S
C4242 C4240 1.391 . S
C4242 C4243 1.400 . S
C4243 C4242 1.400 . S
C4243 C4244 1.398 . S
C4243 C4249 1.491 . S
C4244 H4235 0.950 . S
C4244 C4243 1.398 . S
C4244 C4245 1.391 . S
C4245 H4233 0.950 . S
C4245 C4241 1.393 . S
C4245 C4244 1.391 . S
C4246 H4236 0.950 . S
C4246 C4247 1.386 . S
C4246 C4248 1.391 . S
C4247 C4246 1.386 . S
C4247 C4251 1.393 . S
C4248 H4237 0.950 . S
C4248 C4246 1.391 . S
C4248 C4249 1.400 . S
C4249 C4243 1.491 . S
C4249 C4248 1.400 . S
C4249 C4250 1.398 . S
C4250 H4238 0.950 . S
C4250 C4249 1.398 . S
C4250 C4251 1.391 . S
C4251 H4239 0.950 . S
C4251 C4247 1.393 . S
C4251 C4250 1.391 . S
H4252 C4260 0.987 . S
H4253 C4265 0.950 . S
H4254 C4262 0.937 1_556 S
H4255 C4264 0.950 . S
H4256 C4266 0.950 . S
H4257 C4268 0.950 . S
H4258 C4270 0.950 1_556 S
H4259 C4271 0.950 1_556 S
C4260 H4252 0.987 . S
C4260 C4261 1.358 1_556 S
C4260 C4262 1.382 1_556 S
C4261 C4260 1.358 1_554 S
C4261 C4265 1.393 . S
C4262 H4254 0.937 1_554 S
C4262 C4260 1.382 1_554 S
C4262 C4263 1.416 . S
C4263 C4262 1.416 . S
C4263 C4264 1.398 . S
C4263 C4269 1.491 . S
C4264 H4255 0.950 . S
C4264 C4263 1.398 . S
C4264 C4265 1.391 . S
C4265 H4253 0.950 . S
C4265 C4261 1.393 . S
C4265 C4264 1.391 . S
C4266 H4256 0.950 . S
C4266 C4267 1.386 . S
C4266 C4268 1.391 . S
C4267 C4266 1.386 . S
C4267 C4271 1.393 . S
C4268 H4257 0.950 . S
C4268 C4266 1.391 . S
C4268 C4269 1.400 . S
C4269 C4263 1.491 . S
C4269 C4268 1.400 . S
C4269 C4270 1.398 . S
C4270 H4258 0.950 1_554 S
C4270 C4269 1.398 . S
C4270 C4271 1.391 . S
C4271 H4259 0.950 1_554 S
C4271 C4267 1.393 . S
C4271 C4270 1.391 . S
H4272 C4280 0.950 . S
H4273 C4285 0.950 . S
H4274 C4282 0.950 . S
H4275 C4284 0.950 . S
H4276 C4286 0.950 . S
H4277 C4288 0.950 . S
H4278 C4290 0.950 . S
H4279 C4291 0.950 . S
C4280 H4272 0.950 . S
C4280 C4281 1.386 . S
C4280 C4282 1.391 . S
C4281 C4280 1.386 . S
C4281 C4285 1.393 . S
C4282 H4274 0.950 . S
C4282 C4280 1.391 . S
C4282 C4283 1.400 . S
C4283 C4282 1.400 . S
C4283 C4284 1.398 . S
C4283 C4289 1.491 . S
C4284 H4275 0.950 . S
C4284 C4283 1.398 . S
C4284 C4285 1.391 . S
C4285 H4273 0.950 . S
C4285 C4281 1.393 . S
C4285 C4284 1.391 . S
C4286 H4276 0.950 . S
C4286 C4287 1.386 . S
C4286 C4288 1.391 . S
C4287 C4286 1.386 . S
C4287 C4291 1.393 . S
C4288 H4277 0.950 . S
C4288 C4286 1.391 . S
C4288 C4289 1.400 . S
C4289 C4283 1.491 . S
C4289 C4288 1.400 . S
C4289 C4290 1.398 . S
C4290 H4278 0.950 . S
C4290 C4289 1.398 . S
C4290 C4291 1.391 . S
C4291 H4279 0.950 . S
C4291 C4287 1.393 . S
C4291 C4290 1.391 . S
H4292 C4300 0.950 . S
H4293 C4305 0.950 . S
H4294 C4302 0.950 . S
H4295 C4304 0.950 . S
H4296 C4306 0.950 . S
H4297 C4308 0.950 . S
H4298 C4310 0.950 . S
H4299 C4311 0.950 . S
C4300 H4292 0.950 . S
C4300 C4301 1.386 . S
C4300 C4302 1.391 . S
C4301 C4300 1.386 . S
C4301 C4305 1.393 . S
C4302 H4294 0.950 . S
C4302 C4300 1.391 . S
C4302 C4303 1.400 . S
C4303 C4302 1.400 . S
C4303 C4304 1.398 . S
C4303 C4309 1.491 . S
C4304 H4295 0.950 . S
C4304 C4303 1.398 . S
C4304 C4305 1.391 . S
C4305 H4293 0.950 . S
C4305 C4301 1.393 . S
C4305 C4304 1.391 . S
C4306 H4296 0.950 . S
C4306 C4307 1.386 . S
C4306 C4308 1.391 . S
C4307 C4306 1.386 . S
C4307 C4311 1.393 . S
C4308 H4297 0.950 . S
C4308 C4306 1.391 . S
C4308 C4309 1.400 . S
C4309 C4303 1.491 . S
C4309 C4308 1.400 . S
C4309 C4310 1.398 . S
C4310 H4298 0.950 . S
C4310 C4309 1.398 . S
C4310 C4311 1.391 . S
C4311 H4299 0.950 . S
C4311 C4307 1.393 . S
C4311 C4310 1.391 . S
H4312 C4320 0.950 . S
H4313 C4325 0.950 . S
H4314 C4322 0.950 . S
H4315 C4324 0.950 . S
H4316 C4326 0.950 . S
H4317 C4328 0.950 . S
H4318 C4330 0.950 . S
H4319 C4331 0.950 . S
C4320 H4312 0.950 . S
C4320 C4321 1.386 . S
C4320 C4322 1.391 . S
C4321 C4320 1.386 . S
C4321 C4325 1.393 . S
C4322 H4314 0.950 . S
C4322 C4320 1.391 . S
C4322 C4323 1.400 . S
C4323 C4322 1.400 . S
C4323 C4324 1.398 . S
C4323 C4329 1.491 . S
C4324 H4315 0.950 . S
C4324 C4323 1.398 . S
C4324 C4325 1.391 . S
C4325 H4313 0.950 . S
C4325 C4321 1.393 . S
C4325 C4324 1.391 . S
C4326 H4316 0.950 . S
C4326 C4327 1.386 . S
C4326 C4328 1.391 . S
C4327 C4326 1.386 . S
C4327 C4331 1.393 . S
C4328 H4317 0.950 . S
C4328 C4326 1.391 . S
C4328 C4329 1.400 . S
C4329 C4323 1.491 . S
C4329 C4328 1.400 . S
C4329 C4330 1.398 . S
C4330 H4318 0.950 . S
C4330 C4329 1.398 . S
C4330 C4331 1.391 . S
C4331 H4319 0.950 . S
C4331 C4327 1.393 . S
C4331 C4330 1.391 . S
H4332 C4340 0.950 . S
H4333 C4345 0.950 . S
H4334 C4342 0.950 . S
H4335 C4344 0.950 . S
H4336 C4346 0.950 . S
H4337 C4348 0.950 . S
H4338 C4350 0.950 . S
H4339 C4351 0.950 . S
C4340 H4332 0.950 . S
C4340 C4341 1.386 . S
C4340 C4342 1.391 . S
C4341 C4340 1.386 . S
C4341 C4345 1.393 . S
C4342 H4334 0.950 . S
C4342 C4340 1.391 . S
C4342 C4343 1.400 . S
C4343 C4342 1.400 . S
C4343 C4344 1.398 . S
C4343 C4349 1.491 . S
C4344 H4335 0.950 . S
C4344 C4343 1.398 . S
C4344 C4345 1.391 . S
C4345 H4333 0.950 . S
C4345 C4341 1.393 . S
C4345 C4344 1.391 . S
C4346 H4336 0.950 . S
C4346 C4347 1.386 . S
C4346 C4348 1.391 . S
C4347 C4346 1.386 . S
C4347 C4351 1.393 . S
C4348 H4337 0.950 . S
C4348 C4346 1.391 . S
C4348 C4349 1.400 . S
C4349 C4343 1.491 . S
C4349 C4348 1.400 . S
C4349 C4350 1.398 . S
C4350 H4338 0.950 . S
C4350 C4349 1.398 . S
C4350 C4351 1.391 . S
C4351 H4339 0.950 . S
C4351 C4347 1.393 . S
C4351 C4350 1.391 . S
C2441 C665 1.246 . S
C2447 C2116 1.092 . S
C2461 C381 1.424 . S
C2467 C2151 1.415 . S
C2481 C460 0.944 . S
C2487 C2156 0.873 . S
C2507 C2181 1.379 . S
C2501 C585 1.442 . S
C2521 C108 1.447 . S
C2527 C2201 1.382 . S
C2547 C2216 0.867 . S
C2541 C196 0.942 . S
C2567 C2251 1.422 . S
C2561 C313 1.423 . S
C2581 C49 1.252 . S
C2587 C2256 1.145 . S
C2607 C2131 1.375 1_655 S
C2601 C1457 1.423 . S
C2621 C1545 0.905 . S
C2627 C2141 0.858 . S
C2647 C2171 1.436 . S
C2641 C1721 1.455 . S
C2667 C2176 1.048 . S
C2661 C1113 1.144 . S
C2681 C1428 1.147 . S
C2687 C2196 1.077 . S
C2707 C2231 1.440 . S
C2701 C1516 1.452 . S
C2727 C2241 0.864 . S
C2721 C1692 0.898 . S
C2747 C2271 1.358 . S
C2741 C1085 1.426 . S
C2767 C2121 1.221 . S
C2761 C988 1.308 . S
C2781 C1817 1.747 . S
C2787 C2291 1.721 . S
C2807 C2301 1.361 . S
C2801 C2081 1.459 . S
C2827 C2316 0.874 . S
C2821 C1993 0.943 . S
C2841 C761 1.299 . S
C2847 C2261 1.197 . S
C2861 C821 1.456 . S
C2867 C2161 1.392 . S
C2881 C2053 1.746 . S
C2887 C2351 1.731 . S
C2907 C2356 0.917 . S
C2901 C1868 0.942 . S
C2927 C2114 1.113 . S
C2921 C372 1.241 . S
C2947 C2370 1.418 . S
C2941 C645 1.421 . S
C2961 C577 0.933 . S
C2967 C2154 0.916 . S
C2981 C497 1.441 . S
C2987 C2344 1.372 . S
C3007 C2204 1.372 . S
C3001 C57 1.444 . S
C3021 C293 0.924 . S
C3027 C2294 0.896 . S
C3047 C2250 1.400 . S
C3041 C205 1.428 . S
C3067 C2374 1.112 . S
C3061 C145 1.251 . S
C3087 C2130 1.401 . S
C3081 C909 1.422 . S
C3107 C2364 0.861 . S
C3101 C1956 0.910 . S
C3121 C724 1.457 . S
C3127 C2170 1.435 . S
C3141 C1780 1.126 . S
C3147 C2334 1.061 . S
C3161 C937 1.144 . S
C3167 C2194 1.066 . S
C3187 C2310 1.439 . S
C3181 C1985 1.455 . S
C3201 C753 0.893 . S
C3207 C2244 0.870 . S
C3221 C1809 1.425 . S
C3227 C2390 1.364 . S
C3241 C1173 1.299 . S
C3247 C2124 1.214 . S
C3261 C1105 1.733 . S
C3267 C2290 1.735 . S
C3281 C1633 1.458 . S
C3287 C2224 1.389 . S
C3301 C1553 0.929 . S
C3307 C2314 0.859 . S
C3327 C2384 1.198 . S
C3321 C1729 1.311 . S
C3341 C1340 1.457 . S
C3347 C2164 1.390 . S
C3367 C2190 1.734 . S
C3361 C1604 1.731 . S
C3387 C2134 0.879 . S
C3381 C1252 0.940 . S
C3401 C489 1.251 . S
C3407 C2396 1.145 . S
C3427 C2371 1.421 . S
C3421 C557 1.422 . S
C3441 C636 0.933 . S
C3447 C2416 0.859 1_556 S
C3461 C409 1.443 . S
C3467 C2341 1.397 . S
C3481 C284 1.437 . S
C3487 C2281 1.402 . S
C3507 C2296 0.883 . S
C3501 C20 0.926 . S
C3527 C2331 1.420 . S
C3521 C137 1.422 . S
C3547 C2376 1.145 . S
C3541 C225 1.252 . S
C3567 C2411 1.386 . S
C3561 C1641 1.425 . S
C3581 C1193 0.918 . S
C3587 C2361 0.877 . S
C3607 C2431 1.434 . S
C3601 C1289 1.462 . S
C3627 C2336 1.054 . S
C3621 C1377 1.146 . S
C3647 C2276 1.035 . S
C3641 C1613 1.134 . S
C3661 C1164 1.462 . S
C3667 C2311 1.435 . S
C3687 C2321 0.895 . S
C3681 C1261 0.917 . S
C3701 C1349 1.427 . S
C3707 C2391 1.384 . S
C3727 C2401 1.232 . S
C3721 C1965 1.306 . S
C3741 C849 1.745 . S
C3747 C2211 1.723 . S
C3767 C2221 1.393 . S
C3761 C929 1.460 . S
C3787 C2236 0.921 . S
C3781 C1017 0.939 . S
C3807 C2381 1.220 . S
C3801 C1897 1.308 . S
C3821 C1789 1.461 . S
C3827 C2421 1.393 . S
C3847 C2191 1.734 . S
C3841 C900 1.744 . S
C3867 C2136 0.921 . S
C3861 C733 0.939 . S
C3881 C548 1.242 . S
C3887 C2394 1.120 . S
C3907 C2150 1.409 . S
C3901 C469 1.420 . S
C3921 C401 0.928 . S
C3927 C2414 0.857 . S
C3941 C673 1.443 . S
C3947 C2184 1.385 . S
C3961 C233 1.441 . S
C3967 C2284 1.372 . S
C3987 C2214 0.884 . S
C3981 C117 0.923 . S
C4001 C29 1.421 . S
C4007 C2330 1.408 . S
C4021 C321 1.243 . S
C4027 C2254 1.089 . S
C4047 C2410 1.382 . S
C4041 C2044 1.421 . S
C4061 C997 0.892 . S
C4067 C2144 0.881 . S
C4087 C2430 1.432 1_655 S
C4081 C1877 1.452 . S
C4101 C812 1.128 . S
C4107 C2174 1.074 . S
C4121 C2073 1.131 . S
C4127 C2274 1.079 . S
C4147 C2230 1.430 . S
C4141 C1025 1.457 . S
C4161 C1905 0.907 . S
C4167 C2324 0.903 . S
C4187 C2270 1.381 . S
C4181 C841 1.423 . S
C4207 C2404 1.220 . S
C4201 C1525 1.306 . S
C4227 C2210 1.726 . S
C4221 C1369 1.738 . S
C4241 C1465 1.452 . S
C4247 C2304 1.378 . S
C4267 C2234 0.859 . S
C4261 C1201 0.935 . S
C4281 C1281 1.306 . S
C4287 C2264 1.221 . S
C4301 C1076 1.451 . S
C4307 C2424 1.370 . S
C4327 C2350 1.735 . S
C4321 C1437 1.731 . S
C4347 C2354 0.878 . S
C4341 C1701 0.918 . S
