# Generated by pormake.
# Topology ocu, (6,8)-cn, num edge types: 1
# Building blocks:
#     Node 0, Type 0, BuildingBlock: NUHQIS_clean_sbu_0, # of connection points: 6
#     Node 1, Type 0, BuildingBlock: NUHQIS_clean_sbu_0, # of connection points: 6
#     Node 2, Type 0, BuildingBlock: NUHQIS_clean_sbu_0, # of connection points: 6
#     Node 3, Type 0, BuildingBlock: NUHQIS_clean_sbu_0, # of connection points: 6
#     Node 4, Type 0, BuildingBlock: NUHQIS_clean_sbu_0, # of connection points: 6
#     Node 5, Type 0, BuildingBlock: NUHQIS_clean_sbu_0, # of connection points: 6
#     Node 6, Type 0, BuildingBlock: NUHQIS_clean_sbu_0, # of connection points: 6
#     Node 7, Type 0, BuildingBlock: NUHQIS_clean_sbu_0, # of connection points: 6
#     Node 8, Type 1, BuildingBlock: TAGTUT_clean_sbu_1, # of connection points: 8
#     Node 9, Type 1, BuildingBlock: TAGTUT_clean_sbu_1, # of connection points: 8
#     Node 10, Type 1, BuildingBlock: TAGTUT_clean_sbu_1, # of connection points: 8
#     Node 11, Type 1, BuildingBlock: TAGTUT_clean_sbu_1, # of connection points: 8
#     Node 12, Type 1, BuildingBlock: TAGTUT_clean_sbu_1, # of connection points: 8
#     Node 13, Type 1, BuildingBlock: TAGTUT_clean_sbu_1, # of connection points: 8
#     Edge 14, Type (0, 1), BuildingBlock: XIVTED_clean_linker_0, # of connection points: 2
#     Edge 15, Type (0, 1), BuildingBlock: XIVTED_clean_linker_0, # of connection points: 2
#     Edge 16, Type (0, 1), BuildingBlock: XIVTED_clean_linker_0, # of connection points: 2
#     Edge 17, Type (0, 1), BuildingBlock: XIVTED_clean_linker_0, # of connection points: 2
#     Edge 18, Type (0, 1), BuildingBlock: XIVTED_clean_linker_0, # of connection points: 2
#     Edge 19, Type (0, 1), BuildingBlock: XIVTED_clean_linker_0, # of connection points: 2
#     Edge 20, Type (0, 1), BuildingBlock: XIVTED_clean_linker_0, # of connection points: 2
#     Edge 21, Type (0, 1), BuildingBlock: XIVTED_clean_linker_0, # of connection points: 2
#     Edge 22, Type (0, 1), BuildingBlock: XIVTED_clean_linker_0, # of connection points: 2
#     Edge 23, Type (0, 1), BuildingBlock: XIVTED_clean_linker_0, # of connection points: 2
#     Edge 24, Type (0, 1), BuildingBlock: XIVTED_clean_linker_0, # of connection points: 2
#     Edge 25, Type (0, 1), BuildingBlock: XIVTED_clean_linker_0, # of connection points: 2
#     Edge 26, Type (0, 1), BuildingBlock: XIVTED_clean_linker_0, # of connection points: 2
#     Edge 27, Type (0, 1), BuildingBlock: XIVTED_clean_linker_0, # of connection points: 2
#     Edge 28, Type (0, 1), BuildingBlock: XIVTED_clean_linker_0, # of connection points: 2
#     Edge 29, Type (0, 1), BuildingBlock: XIVTED_clean_linker_0, # of connection points: 2
#     Edge 30, Type (0, 1), BuildingBlock: XIVTED_clean_linker_0, # of connection points: 2
#     Edge 31, Type (0, 1), BuildingBlock: XIVTED_clean_linker_0, # of connection points: 2
#     Edge 32, Type (0, 1), BuildingBlock: XIVTED_clean_linker_0, # of connection points: 2
#     Edge 33, Type (0, 1), BuildingBlock: XIVTED_clean_linker_0, # of connection points: 2
#     Edge 34, Type (0, 1), BuildingBlock: XIVTED_clean_linker_0, # of connection points: 2
#     Edge 35, Type (0, 1), BuildingBlock: XIVTED_clean_linker_0, # of connection points: 2
#     Edge 36, Type (0, 1), BuildingBlock: XIVTED_clean_linker_0, # of connection points: 2
#     Edge 37, Type (0, 1), BuildingBlock: XIVTED_clean_linker_0, # of connection points: 2
#     Edge 38, Type (0, 1), BuildingBlock: XIVTED_clean_linker_0, # of connection points: 2
#     Edge 39, Type (0, 1), BuildingBlock: XIVTED_clean_linker_0, # of connection points: 2
#     Edge 40, Type (0, 1), BuildingBlock: XIVTED_clean_linker_0, # of connection points: 2
#     Edge 41, Type (0, 1), BuildingBlock: XIVTED_clean_linker_0, # of connection points: 2
#     Edge 42, Type (0, 1), BuildingBlock: XIVTED_clean_linker_0, # of connection points: 2
#     Edge 43, Type (0, 1), BuildingBlock: XIVTED_clean_linker_0, # of connection points: 2
#     Edge 44, Type (0, 1), BuildingBlock: XIVTED_clean_linker_0, # of connection points: 2
#     Edge 45, Type (0, 1), BuildingBlock: XIVTED_clean_linker_0, # of connection points: 2
#     Edge 46, Type (0, 1), BuildingBlock: XIVTED_clean_linker_0, # of connection points: 2
#     Edge 47, Type (0, 1), BuildingBlock: XIVTED_clean_linker_0, # of connection points: 2
#     Edge 48, Type (0, 1), BuildingBlock: XIVTED_clean_linker_0, # of connection points: 2
#     Edge 49, Type (0, 1), BuildingBlock: XIVTED_clean_linker_0, # of connection points: 2
#     Edge 50, Type (0, 1), BuildingBlock: XIVTED_clean_linker_0, # of connection points: 2
#     Edge 51, Type (0, 1), BuildingBlock: XIVTED_clean_linker_0, # of connection points: 2
#     Edge 52, Type (0, 1), BuildingBlock: XIVTED_clean_linker_0, # of connection points: 2
#     Edge 53, Type (0, 1), BuildingBlock: XIVTED_clean_linker_0, # of connection points: 2
#     Edge 54, Type (0, 1), BuildingBlock: XIVTED_clean_linker_0, # of connection points: 2
#     Edge 55, Type (0, 1), BuildingBlock: XIVTED_clean_linker_0, # of connection points: 2
#     Edge 56, Type (0, 1), BuildingBlock: XIVTED_clean_linker_0, # of connection points: 2
#     Edge 57, Type (0, 1), BuildingBlock: XIVTED_clean_linker_0, # of connection points: 2
#     Edge 58, Type (0, 1), BuildingBlock: XIVTED_clean_linker_0, # of connection points: 2
#     Edge 59, Type (0, 1), BuildingBlock: XIVTED_clean_linker_0, # of connection points: 2
#     Edge 60, Type (0, 1), BuildingBlock: XIVTED_clean_linker_0, # of connection points: 2
#     Edge 61, Type (0, 1), BuildingBlock: XIVTED_clean_linker_0, # of connection points: 2
# Relax obj value: 0.137
# Max RMSD: 0.252
# Mean RMSD: 0.127
data_MOF--net-ocu--node1-NUHQIS_clean_sbu_0--node2-TAGTUT_clean_sbu_1--edge1-XIVTED_clean_linker_0
_symmetry_space_group_name_H-M    P1
_symmetry_Int_Tables_number       1
_symmetry_cell_setting            triclinic
loop_
_symmetry_equiv_pos_as_xyz
'x, y, z'
_cell_length_a     39.728871
_cell_length_b     40.292984
_cell_length_c     42.2836
_cell_angle_alpha  96.598428
_cell_angle_beta   85.635056
_cell_angle_gamma 112.11676
loop_
_atom_site_label
_atom_site_type_symbol
_atom_site_fract_x
_atom_site_fract_y
_atom_site_fract_z
_atom_type_partial_charge
Tb0 Tb 0.26318 0.24853 0.26054 0.0
Eu1 Eu 0.32896 0.28423 0.30757 0.0
C2 C 0.33075 0.22031 0.24943 0.0
C3 C 0.25999 0.21518 0.32498 0.0
C4 C 0.17693 0.23053 0.22188 0.0
C5 C 0.13249 0.23651 0.18911 0.0
C6 C 0.15889 0.22245 0.19319 0.0
C7 C 0.16597 0.25 0.2475 0.0
C8 C 0.1398 0.26441 0.24337 0.0
C9 C 0.12411 0.25924 0.21361 0.0
C10 C 0.21164 0.2257 0.22241 0.0
O11 O 0.24685 0.29089 0.29061 0.0
O12 O 0.2882 0.30989 0.33026 0.0
O13 O 0.33421 0.32613 0.27495 0.0
O14 O 0.30936 0.28453 0.23423 0.0
C15 C 0.25824 0.31005 0.3184 0.0
O16 O 0.35304 0.2972 0.35424 0.0
O17 O 0.38719 0.31413 0.3121 0.0
O18 O 0.34882 0.24816 0.26958 0.0
O19 O 0.29554 0.21313 0.24578 0.0
O20 O 0.24192 0.2231 0.30428 0.0
O21 O 0.29545 0.2308 0.32602 0.0
C22 C 0.32992 0.31736 0.24447 0.0
O23 O 0.23986 0.25535 0.22036 0.0
O24 O 0.21519 0.2069 0.24416 0.0
C25 C 0.40969 0.29061 0.34974 0.0
C26 C 0.45489 0.25299 0.35843 0.0
C27 C 0.46985 0.29036 0.35596 0.0
C28 C 0.44736 0.30902 0.3516 0.0
C29 C 0.39478 0.25337 0.35194 0.0
C30 C 0.41706 0.23484 0.35648 0.0
C31 C 0.38622 0.3091 0.34211 0.0
H32 H 0.12118 0.23226 0.16581 0.0
H33 H 0.16726 0.20771 0.1731 0.0
H34 H 0.17957 0.25632 0.26987 0.0
H35 H 0.1336 0.28151 0.26274 0.0
H36 H 0.49889 0.3051 0.35717 0.0
H37 H 0.45937 0.33766 0.34924 0.0
H38 H 0.36583 0.23844 0.34994 0.0
H39 H 0.40438 0.20629 0.35904 0.0
Tb40 Tb 0.82358 0.23211 0.27621 0.0
Eu41 Eu 0.75713 0.26268 0.27673 0.0
C42 C 0.77565 0.2171 0.21806 0.0
C43 C 0.83525 0.30173 0.24234 0.0
C44 C 0.89534 0.18992 0.28181 0.0
C45 C 0.92462 0.14644 0.27265 0.0
C46 C 0.90133 0.16159 0.26291 0.0
C47 C 0.91291 0.20305 0.31072 0.0
C48 C 0.93631 0.18788 0.32051 0.0
C49 C 0.94243 0.15948 0.30149 0.0
C50 C 0.87317 0.20681 0.26895 0.0
O51 O 0.83643 0.278 0.3118 0.0
O52 O 0.77792 0.27206 0.32582 0.0
O53 O 0.73472 0.20621 0.2917 0.0
O54 O 0.78543 0.20606 0.31401 0.0
C55 C 0.81247 0.28518 0.33155 0.0
O56 O 0.73402 0.30162 0.29729 0.0
O57 O 0.70205 0.25601 0.26537 0.0
O58 O 0.76595 0.24473 0.22565 0.0
O59 O 0.7852 0.20239 0.24002 0.0
O60 O 0.84052 0.27133 0.24142 0.0
O61 O 0.80757 0.30675 0.25858 0.0
C62 C 0.74977 0.19455 0.31239 0.0
O63 O 0.83891 0.1875 0.26487 0.0
O64 O 0.87879 0.24038 0.2783 0.0
C65 C 0.6855 0.30805 0.2723 0.0
C66 C 0.64542 0.34853 0.25722 0.0
C67 C 0.66806 0.36009 0.28341 0.0
C68 C 0.68775 0.33998 0.29093 0.0
C69 C 0.66306 0.29653 0.24596 0.0
C70 C 0.64328 0.31665 0.23846 0.0
C71 C 0.70327 0.28531 0.28301 0.0
H72 H 0.92899 0.12479 0.25744 0.0
H73 H 0.88836 0.1515 0.24027 0.0
H74 H 0.90878 0.22507 0.32556 0.0
H75 H 0.94919 0.19803 0.34315 0.0
H76 H 0.67003 0.38434 0.29846 0.0
H77 H 0.70418 0.34906 0.31183 0.0
H78 H 0.66035 0.27178 0.23142 0.0
H79 H 0.62649 0.30737 0.2178 0.0
Tb80 Tb 0.76051 0.73616 0.29295 0.0
Eu81 Eu 0.83535 0.79535 0.27219 0.0
C82 C 0.79722 0.72123 0.22935 0.0
C83 C 0.83291 0.72773 0.31647 0.0
C84 C 0.66478 0.70063 0.3187 0.0
C85 C 0.62568 0.70491 0.36445 0.0
C86 C 0.64663 0.68763 0.34709 0.0
C87 C 0.65758 0.72762 0.30555 0.0
C88 C 0.63644 0.74472 0.32278 0.0
C89 C 0.62261 0.73517 0.35338 0.0
C90 C 0.69777 0.69372 0.30863 0.0
O91 O 0.78119 0.7729 0.33524 0.0
O92 O 0.81012 0.82262 0.31001 0.0
O93 O 0.79665 0.81695 0.25068 0.0
O94 O 0.74321 0.77227 0.26416 0.0
C95 C 0.79877 0.8077 0.33646 0.0
O96 O 0.88859 0.83435 0.28666 0.0
O97 O 0.87407 0.8263 0.23738 0.0
O98 O 0.81661 0.75558 0.22916 0.0
O99 O 0.78259 0.70779 0.25596 0.0
O100 O 0.79715 0.71299 0.31267 0.0
O101 O 0.85164 0.75837 0.30321 0.0
C102 C 0.76077 0.80213 0.2491 0.0
O103 O 0.70936 0.69822 0.27917 0.0
O104 O 0.724 0.7092 0.32827 0.0
C105 C 0.93302 0.83294 0.24659 0.0
C106 C 0.97374 0.79716 0.21127 0.0
C107 C 0.97047 0.82722 0.19997 0.0
C108 C 0.95025 0.84512 0.21764 0.0
C109 C 0.94058 0.80622 0.25985 0.0
C110 C 0.96097 0.78852 0.24232 0.0
C111 C 0.90026 0.84008 0.25734 0.0
H112 H 0.61471 0.69676 0.38781 0.0
H113 H 0.65191 0.66683 0.35756 0.0
H114 H 0.67128 0.7381 0.28364 0.0
H115 H 0.63446 0.76795 0.31367 0.0
H116 H 0.98066 0.83473 0.17629 0.0
H117 H 0.94471 0.86572 0.20706 0.0
H118 H 0.92756 0.79626 0.28215 0.0
H119 H 0.96309 0.76547 0.25166 0.0
Tb120 Tb 0.29832 0.74056 0.30265 0.0
Eu121 Eu 0.27406 0.79425 0.26591 0.0
C122 C 0.30521 0.81501 0.3353 0.0
C123 C 0.21822 0.73746 0.30918 0.0
C124 C 0.34524 0.68227 0.31126 0.0
C125 C 0.3456 0.63113 0.27498 0.0
C126 C 0.33023 0.64535 0.30128 0.0
C127 C 0.37886 0.7034 0.29775 0.0
C128 C 0.39407 0.6893 0.27148 0.0
C129 C 0.37624 0.65368 0.25849 0.0
C130 C 0.32148 0.69998 0.32762 0.0
O131 O 0.28962 0.71515 0.25378 0.0
O132 O 0.25219 0.74101 0.23636 0.0
O133 O 0.32129 0.78705 0.2379 0.0
O134 O 0.34727 0.7783 0.28077 0.0
C135 C 0.26587 0.7156 0.23379 0.0
O136 O 0.23516 0.81741 0.25462 0.0
O137 O 0.29109 0.84031 0.2377 0.0
O138 O 0.30946 0.82565 0.30665 0.0
O139 O 0.29133 0.78053 0.33913 0.0
O140 O 0.23973 0.71935 0.30548 0.0
O141 O 0.22902 0.77086 0.3023 0.0
C142 C 0.34979 0.78752 0.25171 0.0
O143 O 0.33558 0.73499 0.33245 0.0
O144 O 0.28934 0.68918 0.31589 0.0
C145 C 0.26507 0.87992 0.26463 0.0
C146 C 0.2656 0.92448 0.32081 0.0
C147 C 0.29786 0.92089 0.30856 0.0
C148 C 0.29775 0.89907 0.28049 0.0
C149 C 0.23394 0.88735 0.27478 0.0
C150 C 0.23422 0.90959 0.30279 0.0
C151 C 0.26108 0.846 0.24491 0.0
H152 H 0.33192 0.60323 0.26616 0.0
H153 H 0.30452 0.62838 0.31155 0.0
H154 H 0.39149 0.73189 0.30505 0.0
H155 H 0.41778 0.70756 0.2596 0.0
H156 H 0.32233 0.9324 0.32214 0.0
H157 H 0.32241 0.89427 0.27331 0.0
H158 H 0.20845 0.87295 0.2631 0.0
H159 H 0.20898 0.91204 0.31205 0.0
Tb160 Tb 0.31952 0.74171 0.77425 0.0
Eu161 Eu 0.26206 0.78166 0.79724 0.0
C162 C 0.24959 0.72766 0.73227 0.0
C163 C 0.32664 0.81378 0.74533 0.0
C164 C 0.38622 0.69636 0.77276 0.0
C165 C 0.42027 0.65717 0.77115 0.0
C166 C 0.39791 0.67011 0.75645 0.0
C167 C 0.39732 0.70979 0.80391 0.0
C168 C 0.41987 0.69704 0.81857 0.0
C169 C 0.43145 0.67044 0.80241 0.0
C170 C 0.36221 0.70913 0.7571 0.0
O171 O 0.34748 0.78051 0.81431 0.0
O172 O 0.30161 0.79773 0.83793 0.0
O173 O 0.23898 0.72547 0.81209 0.0
O174 O 0.29229 0.71825 0.81739 0.0
C175 C 0.33476 0.79747 0.83809 0.0
O176 O 0.24831 0.82902 0.81199 0.0
O177 O 0.20674 0.77581 0.81282 0.0
O178 O 0.24597 0.75705 0.74667 0.0
O179 O 0.27221 0.71473 0.74308 0.0
O180 O 0.33222 0.78342 0.74196 0.0
O181 O 0.30394 0.8203 0.76696 0.0
C182 C 0.25745 0.7093 0.824 0.0
O183 O 0.32747 0.69293 0.76289 0.0
O184 O 0.37157 0.74392 0.75834 0.0
C185 C 0.18888 0.82209 0.80047 0.0
C186 C 0.14259 0.84636 0.77057 0.0
C187 C 0.15366 0.86013 0.80177 0.0
C188 C 0.17657 0.84798 0.81662 0.0
C189 C 0.17773 0.80809 0.76943 0.0
C190 C 0.15466 0.82002 0.75466 0.0
C191 C 0.21375 0.81028 0.81592 0.0
H192 H 0.42891 0.63686 0.75804 0.0
H193 H 0.38958 0.65948 0.73237 0.0
H194 H 0.38832 0.7299 0.81694 0.0
H195 H 0.42752 0.70739 0.84284 0.0
H196 H 0.1447 0.88036 0.81461 0.0
H197 H 0.18495 0.85903 0.84061 0.0
H198 H 0.1872 0.78826 0.75648 0.0
H199 H 0.14719 0.8094 0.7304 0.0
Tb200 Tb 0.29987 0.30013 0.75956 0.0
Eu201 Eu 0.29547 0.23366 0.80275 0.0
C202 C 0.35639 0.31067 0.81171 0.0
C203 C 0.33815 0.24644 0.73522 0.0
C204 C 0.27315 0.35922 0.71271 0.0
C205 C 0.25874 0.40088 0.684 0.0
C206 C 0.28418 0.39123 0.69796 0.0
C207 C 0.23617 0.33689 0.71336 0.0
C208 C 0.21063 0.34647 0.69928 0.0
C209 C 0.22157 0.37869 0.68445 0.0
C210 C 0.30059 0.34958 0.72709 0.0
O211 O 0.25854 0.25175 0.73886 0.0
O212 O 0.24183 0.21318 0.7788 0.0
O213 O 0.27209 0.27043 0.83235 0.0
O214 O 0.2528 0.29182 0.79216 0.0
C215 C 0.23642 0.22258 0.7514 0.0
O216 O 0.29356 0.17937 0.80721 0.0
O217 O 0.29606 0.21578 0.84945 0.0
O218 O 0.35121 0.27645 0.80617 0.0
O219 O 0.33548 0.32416 0.79943 0.0
O220 O 0.34257 0.28072 0.73979 0.0
O221 O 0.31589 0.22276 0.75345 0.0
C222 C 0.25232 0.2866 0.82233 0.0
O223 O 0.30038 0.35236 0.75809 0.0
O224 O 0.30446 0.31998 0.7149 0.0
C225 C 0.32358 0.17325 0.85122 0.0
C226 C 0.3736 0.15111 0.87868 0.0
C227 C 0.33617 0.1299 0.87905 0.0
C228 C 0.3115 0.14087 0.86548 0.0
C229 C 0.36086 0.19451 0.85047 0.0
C230 C 0.38565 0.18358 0.86415 0.0
C231 C 0.29675 0.1846 0.838 0.0
H232 H 0.26837 0.42554 0.67238 0.0
H233 H 0.3126 0.40877 0.6971 0.0
H234 H 0.22708 0.3121 0.72477 0.0
H235 H 0.18227 0.32887 0.70037 0.0
H236 H 0.32573 0.10509 0.89048 0.0
H237 H 0.28282 0.12418 0.86642 0.0
H238 H 0.37072 0.21958 0.83947 0.0
H239 H 0.41425 0.20044 0.86314 0.0
Tb240 Tb 0.82474 0.25409 0.78599 0.0
Eu241 Eu 0.75598 0.27563 0.78274 0.0
C242 C 0.81626 0.31635 0.83321 0.0
C243 C 0.75554 0.21816 0.83157 0.0
C244 C 0.89078 0.22082 0.75204 0.0
C245 C 0.88459 0.16759 0.71617 0.0
C246 C 0.88667 0.18452 0.74706 0.0
C247 C 0.89691 0.24085 0.72559 0.0
C248 C 0.89443 0.22392 0.69482 0.0
C249 C 0.88649 0.18675 0.68985 0.0
C250 C 0.87747 0.23402 0.78237 0.0
O251 O 0.78781 0.21257 0.75346 0.0
O252 O 0.76012 0.24647 0.73536 0.0
O253 O 0.80063 0.31667 0.7542 0.0
O254 O 0.83819 0.2852 0.74327 0.0
C255 C 0.76963 0.21858 0.7317 0.0
O256 O 0.69766 0.25875 0.77608 0.0
O257 O 0.7309 0.31541 0.78491 0.0
O258 O 0.78115 0.30234 0.82952 0.0
O259 O 0.83851 0.30539 0.81448 0.0
O260 O 0.79149 0.23248 0.82909 0.0
O261 O 0.73641 0.2263 0.81166 0.0
C262 C 0.82862 0.31219 0.73794 0.0
O263 O 0.8814 0.26783 0.78537 0.0
O264 O 0.84466 0.21358 0.7909 0.0
C265 C 0.67806 0.294 0.81609 0.0
C266 C 0.6763 0.31352 0.8816 0.0
C267 C 0.67704 0.33777 0.85994 0.0
C268 C 0.67758 0.32793 0.82729 0.0
C269 C 0.67175 0.26811 0.83786 0.0
C270 C 0.67098 0.27789 0.87052 0.0
C271 C 0.69813 0.29087 0.78602 0.0
H272 H 0.87981 0.13914 0.713 0.0
H273 H 0.88183 0.16851 0.76705 0.0
H274 H 0.90031 0.26896 0.72854 0.0
H275 H 0.89627 0.23959 0.67514 0.0
H276 H 0.67999 0.36516 0.86821 0.0
H277 H 0.68231 0.34826 0.811 0.0
H278 H 0.67169 0.24156 0.82996 0.0
H279 H 0.66969 0.25861 0.88689 0.0
Tb280 Tb 0.75667 0.75211 0.76711 0.0
Eu281 Eu 0.83239 0.77317 0.80568 0.0
C282 C 0.81551 0.71897 0.74046 0.0
C283 C 0.76284 0.70412 0.81943 0.0
C284 C 0.67787 0.76074 0.73125 0.0
C285 C 0.6207 0.76754 0.72431 0.0
C286 C 0.63977 0.74704 0.73258 0.0
C287 C 0.69676 0.79545 0.72184 0.0
C288 C 0.67773 0.81589 0.71335 0.0
C289 C 0.63941 0.80219 0.7144 0.0
C290 C 0.69738 0.73887 0.74054 0.0
O291 O 0.76113 0.80032 0.79957 0.0
O292 O 0.7939 0.79213 0.83806 0.0
O293 O 0.84139 0.82071 0.77799 0.0
O294 O 0.7977 0.79259 0.74076 0.0
C295 C 0.77085 0.80542 0.82941 0.0
O296 O 0.86016 0.78072 0.85005 0.0
O297 O 0.89158 0.79004 0.8057 0.0
O298 O 0.83958 0.7434 0.75898 0.0
O299 O 0.78049 0.71345 0.74405 0.0
O300 O 0.74318 0.71845 0.80645 0.0
O301 O 0.79835 0.71627 0.81559 0.0
C302 C 0.82753 0.81902 0.75028 0.0
O303 O 0.72788 0.74187 0.7251 0.0
O304 O 0.70012 0.73902 0.771 0.0
C305 C 0.91137 0.76375 0.84381 0.0
C306 C 0.94925 0.72062 0.8581 0.0
C307 C 0.91097 0.70709 0.85867 0.0
C308 C 0.89226 0.72832 0.85142 0.0
C309 C 0.94948 0.77737 0.84298 0.0
C310 C 0.96827 0.75603 0.85 0.0
C311 C 0.89185 0.78624 0.83583 0.0
H312 H 0.59128 0.7563 0.72592 0.0
H313 H 0.62473 0.72045 0.74014 0.0
H314 H 0.72621 0.80671 0.7209 0.0
H315 H 0.69313 0.84218 0.70539 0.0
H316 H 0.89529 0.68025 0.86531 0.0
H317 H 0.86282 0.71706 0.85194 0.0
H318 H 0.96472 0.80451 0.83679 0.0
H319 H 0.99771 0.76722 0.84887 0.0
C320 C 0.94139 0.05868 0.52105 0.0
C321 C 1.02119 0.05224 0.45122 0.0
C322 C 0.99895 0.92648 0.48598 0.0
Mg323 Mg 1.02436 0.07393 0.52213 0.0
O324 O 1.00513 0.02612 0.53179 0.0
Mg325 Mg 0.96964 0.99065 0.50122 0.0
Mg326 Mg 0.04121 0.00236 0.52935 0.0
O327 O 0.07693 0.9788 0.5263 0.0
Mg328 Mg 0.06269 0.92897 0.52894 0.0
Mg329 Mg 0.11369 0.01423 0.55592 0.0
C330 C 0.0804 0.07731 0.57368 0.0
C331 C 0.1154 0.05343 0.49238 0.0
O332 O 0.93414 0.02504 0.5131 0.0
O333 O 0.9737 0.0815 0.52598 0.0
O334 O 0.99514 0.02326 0.45796 0.0
O335 O 0.03988 0.07493 0.47285 0.0
O336 O 0.06519 0.0937 0.5587 0.0
O337 O 0.07327 0.04339 0.56795 0.0
C338 C 0.9673 0.95478 0.56748 0.0
O339 O 1.00224 0.96697 0.56605 0.0
O340 O 0.94902 0.96001 0.54602 0.0
O341 O 0.15053 0.98303 0.53704 0.0
O342 O 0.11582 0.92858 0.51418 0.0
O343 O 0.09113 0.97769 0.59713 0.0
C344 C 0.14699 0.95308 0.52063 0.0
O345 O 0.05386 0.92267 0.57904 0.0
O346 O 1.01534 0.9086 0.49745 0.0
C347 C 0.06953 0.94566 0.60191 0.0
O348 O 1.00866 0.96057 0.49224 0.0
O349 O 0.08052 0.03862 0.49233 0.0
O350 O 0.13342 0.04874 0.51416 0.0
C351 C 0.47652 0.07378 0.11785 0.0
C352 C 0.50899 0.0635 0.01705 0.0
C353 C 0.50376 0.92441 0.02361 0.0
Mg354 Mg 0.55096 0.0773 0.07994 0.0
O355 O 0.53708 0.0271 0.07843 0.0
Mg356 Mg 0.48565 0.99799 0.06662 0.0
Mg357 Mg 0.56666 0.99592 0.0585 0.0
O358 O 0.5959 0.96365 0.04224 0.0
Mg359 Mg 0.57959 0.91355 0.04746 0.0
Mg360 Mg 0.64752 0.99275 0.05528 0.0
C361 C 0.62973 0.06524 0.08525 0.0
C362 C 0.6289 0.04192 1.00329 0.0
O363 O 0.46263 0.04153 0.10284 0.0
O364 O 0.51115 0.09133 0.1149 0.0
O365 O 0.48944 0.03218 0.02534 0.0
O366 O 0.53542 0.0851 0.03373 0.0
O367 O 0.60898 0.08353 0.0846 0.0
O368 O 0.6178 0.03061 0.08452 0.0
C369 C 0.5105 0.95485 0.11539 0.0
O370 O 0.54141 0.96181 0.10052 0.0
O371 O 0.48629 0.96597 0.10749 0.0
O372 O 0.66622 0.95353 0.01759 0.0
O373 O 0.61693 0.90236 1.01085 0.0
O374 O 0.65003 0.95293 0.09697 0.0
C375 C 0.65012 0.9216 1.00376 0.0
O376 O 0.60255 0.90125 0.09183 0.0
O377 O 0.52372 0.90635 0.02905 0.0
C378 C 0.63287 0.92048 0.10542 0.0
O379 O 0.51359 0.95879 0.0328 0.0
O380 O 0.59548 0.033 0.01425 0.0
O381 O 0.65033 0.02957 0.01497 0.0
C382 C 1.012 0.59741 0.07251 0.0
C383 C 0.04081 0.57711 0.97462 0.0
C384 C 0.98646 0.43867 0.99312 0.0
Mg385 Mg 0.07536 0.58031 0.03737 0.0
O386 O 0.04317 0.5348 0.0472 0.0
Mg387 Mg 0.9939 0.51812 0.02846 0.0
Mg388 Mg 0.05902 0.49508 0.0301 0.0
O389 O 0.07547 0.45621 0.01136 0.0
Mg390 Mg 0.04518 0.40771 0.01109 0.0
Mg391 Mg 0.12437 0.47319 0.03059 0.0
C392 C 0.13274 0.55276 0.06299 0.0
C393 C 0.12648 0.5284 0.97935 0.0
O394 O 0.98835 0.56799 0.05994 0.0
O395 O 0.0463 0.60664 0.06724 0.0
O396 O 1.01284 0.55271 0.98588 0.0
O397 O 0.07043 0.59039 0.98944 0.0
O398 O 0.12452 0.57826 0.0544 0.0
O399 O 0.11072 0.51958 0.06004 0.0
C400 C 0.99147 0.46464 0.0819 0.0
O401 O 1.02236 0.46376 0.07106 0.0
O402 O 0.9766 0.48333 0.06992 0.0
O403 O 0.13389 0.42671 0.99711 0.0
O404 O 0.07983 0.38682 0.98022 0.0
O405 O 0.10123 0.43501 0.07094 0.0
C406 C 0.11467 0.39838 0.9798 0.0
O407 O 0.04618 0.39461 0.05854 0.0
O408 O 0.99561 0.41162 0.99531 0.0
C409 C 0.07227 0.40842 0.07769 0.0
O410 O 1.0078 0.47121 1.00084 0.0
O411 O 0.09461 0.52634 0.98976 0.0
O412 O 0.14325 0.51112 0.99093 0.0
C413 C 0.46768 0.59399 0.04857 0.0
C414 C 0.52894 0.57872 0.96254 0.0
C415 C 0.50086 0.44688 1.00039 0.0
Mg416 Mg 0.54761 0.60034 0.03275 0.0
O417 O 0.52468 0.55218 0.04204 0.0
Mg418 Mg 0.48188 0.51961 0.01661 0.0
Mg419 Mg 0.55339 0.52124 0.0394 0.0
O420 O 0.58221 0.48989 0.03703 0.0
Mg421 Mg 0.55559 0.44435 0.0507 0.0
Mg422 Mg 0.62284 0.52264 0.06467 0.0
C423 C 0.60914 0.59639 0.07471 0.0
C424 C 0.6279 0.55672 0.99696 0.0
O425 O 0.45576 0.56112 0.03617 0.0
O426 O 0.50169 0.61353 0.0496 0.0
O427 O 0.50385 0.55037 0.9718 0.0
O428 O 0.55163 0.60119 0.98188 0.0
O429 O 0.59667 0.61605 0.06094 0.0
O430 O 0.59329 0.56204 0.07312 0.0
C431 C 0.47874 0.4822 0.08156 0.0
O432 O 0.5135 0.49214 0.07954 0.0
O433 O 0.46134 0.48936 0.06076 0.0
O434 O 0.64781 0.47877 0.05413 0.0
O435 O 0.6 0.4263 0.04627 0.0
O436 O 0.59616 0.49601 0.11067 0.0
C437 C 0.63418 0.44427 0.04894 0.0
O438 O 0.54448 0.44934 0.10084 0.0
O439 O 0.51253 0.4281 0.01616 0.0
C440 C 0.56757 0.47091 0.12031 0.0
O441 O 0.5138 0.48145 1.00405 0.0
O442 O 0.5935 0.54954 1.00013 0.0
O443 O 0.64522 0.54888 0.01765 0.0
C444 C 0.93511 0.60354 0.5635 0.0
C445 C 0.9545 0.60583 0.46208 0.0
C446 C 0.95769 0.46182 0.47789 0.0
Mg447 Mg 1.00677 0.61239 0.52091 0.0
O448 O 0.99017 0.56236 0.52584 0.0
Mg449 Mg 0.93889 0.53337 0.51163 0.0
Mg450 Mg 1.01972 0.53039 0.50993 0.0
O451 O 0.04933 0.49933 0.49031 0.0
Mg452 Mg 0.03511 0.44896 0.48795 0.0
Mg453 Mg 0.10057 0.52842 0.50237 0.0
C454 C 0.08236 0.60156 0.54538 0.0
C455 C 0.07632 0.57258 0.45413 0.0
O456 O 0.91872 0.57231 0.54851 0.0
O457 O 0.96883 0.62208 0.55756 0.0
O458 O 0.93747 0.57314 0.46992 0.0
O459 O 0.98425 0.62524 0.47646 0.0
O460 O 0.06262 0.61972 0.5396 0.0
O461 O 0.07235 0.56708 0.53661 0.0
C462 C 0.95691 0.4845 0.56435 0.0
O463 O 0.99024 0.49296 0.55337 0.0
O464 O 0.9356 0.49686 0.55246 0.0
O465 O 0.12385 0.48549 0.46578 0.0
O466 O 0.07544 0.43585 0.45297 0.0
O467 O 0.09636 0.49322 0.54292 0.0
C468 C 0.11006 0.4535 0.45032 0.0
O469 O 0.05033 0.4403 0.53429 0.0
O470 O 0.97775 0.44286 0.47895 0.0
C471 C 0.07694 0.46176 0.55095 0.0
O472 O 0.96965 0.49642 0.48265 0.0
O473 O 0.04527 0.56506 0.46872 0.0
O474 O 0.10052 0.56136 0.4619 0.0
C475 C 0.4701 0.12576 0.58134 0.0
C476 C 0.51649 0.10821 0.48699 0.0
C477 C 0.45462 0.96723 0.50675 0.0
Mg478 Mg 0.54027 0.11378 0.55538 0.0
O479 O 0.50995 0.06557 0.55759 0.0
Mg480 Mg 0.4621 0.04732 0.53628 0.0
Mg481 Mg 0.52728 0.02653 0.54056 0.0
O482 O 0.54379 0.98685 0.52518 0.0
Mg483 Mg 0.51174 0.94088 0.53424 0.0
Mg484 Mg 0.59264 0.00439 0.54473 0.0
C485 C 0.59861 0.08433 0.57731 0.0
C486 C 0.59668 0.05714 0.49028 0.0
O487 O 0.45168 0.09543 0.56614 0.0
O488 O 0.50496 0.13799 0.58156 0.0
O489 O 0.48681 0.08282 0.49439 0.0
O490 O 0.54206 0.12283 0.5065 0.0
O491 O 0.58915 0.11077 0.57333 0.0
O492 O 0.57762 0.05132 0.5711 0.0
C493 C 0.45843 0.99459 0.5904 0.0
O494 O 0.49043 0.99622 0.58076 0.0
O495 O 0.44207 0.0115 0.57763 0.0
O496 O 0.5996 0.95491 0.51358 0.0
O497 O 0.54214 0.91576 0.50481 0.0
O498 O 0.57303 0.96977 0.5871 0.0
C499 C 0.57659 0.92551 0.5003 0.0
O500 O 0.51634 0.9302 0.58212 0.0
O501 O 0.4625 0.94178 0.51592 0.0
C502 C 0.54542 0.94446 0.59767 0.0
O503 O 0.4767 0.00037 0.50984 0.0
O504 O 0.56502 0.0573 0.4993 0.0
O505 O 0.61109 0.03906 0.50367 0.0
H506 H 0.28555 0.1997 0.37788 0.0
H507 H 0.0928 0.0568 0.43322 0.0
H508 H 0.18746 0.1722 0.32641 0.0
H509 H 0.18578 0.10153 0.49271 0.0
H510 H 0.12766 0.09539 0.39196 0.0
H511 H 0.25045 0.15973 0.41797 0.0
C512 C 0.2567 0.18512 0.37485 0.0
C513 C 0.23951 0.18948 0.34867 0.0
C514 C 0.14036 0.09688 0.41412 0.0
C515 C 0.19901 0.14354 0.39467 0.0
C516 C 0.12028 0.07512 0.43783 0.0
C517 C 0.13595 0.07643 0.46683 0.0
C518 C 0.17666 0.11983 0.41921 0.0
C519 C 0.17237 0.09964 0.47086 0.0
C520 C 0.23661 0.16237 0.39786 0.0
C521 C 0.20194 0.16985 0.3462 0.0
N522 N 0.19139 0.12034 0.44741 0.0
N523 N 0.18301 0.14779 0.36884 0.0
H524 H 1.00858 0.19208 0.32909 0.0
H525 H 0.98633 0.0122 0.39815 0.0
H526 H 0.92954 0.08768 0.29879 0.0
H527 H 0.06557 0.1163 0.42925 0.0
H528 H 0.97896 0.03639 0.35007 0.0
H529 H 0.04164 0.1627 0.35461 0.0
C530 C 0.99843 0.16296 0.32754 0.0
C531 C 0.9658 0.14228 0.31256 0.0
C532 C 0.99858 0.05376 0.36706 0.0
C533 C 1.00338 0.10851 0.34157 0.0
C534 C 1.00285 0.03992 0.39454 0.0
C535 C 1.02539 0.0627 0.4184 0.0
C536 C 1.01659 0.09067 0.36377 0.0
C537 C 0.04691 0.09806 0.41198 0.0
C538 C 1.01746 0.14618 0.34185 0.0
C539 C 0.95441 0.10467 0.31035 0.0
N540 N 0.04123 0.11127 0.38565 0.0
N541 N 0.9728 0.089 0.32526 0.0
H542 H 0.83323 0.88013 0.35025 0.0
H543 H 0.95205 0.85531 0.48374 0.0
H544 H 0.80995 0.7786 0.38837 0.0
H545 H 0.97171 0.9551 0.44396 0.0
H546 H 0.89679 0.82705 0.45268 0.0
H547 H 0.87899 0.90936 0.39018 0.0
C548 C 0.83709 0.86413 0.36755 0.0
C549 C 0.81794 0.82684 0.36573 0.0
C550 C 0.91312 0.85524 0.45103 0.0
C551 C 0.87123 0.8599 0.41099 0.0
C552 C 0.9448 0.87125 0.46851 0.0
C553 C 0.96639 0.90774 0.46665 0.0
C554 C 0.90323 0.87589 0.43151 0.0
C555 C 0.9556 0.92716 0.44667 0.0
C556 C 0.86351 0.88076 0.3902 0.0
C557 C 0.82409 0.80745 0.38883 0.0
N558 N 0.92495 0.91105 0.42993 0.0
N559 N 0.85069 0.82409 0.41015 0.0
H560 H 0.25086 0.98284 0.34775 0.0
H561 H 0.2101 0.00839 0.50685 0.0
H562 H 0.27085 0.89042 0.37035 0.0
H563 H 0.15664 0.89296 0.49067 0.0
H564 H 0.25187 0.00694 0.46174 0.0
H565 H 0.23528 0.99431 0.40426 0.0
C566 C 0.25289 0.96566 0.36484 0.0
C567 C 0.26236 0.93595 0.3548 0.0
C568 C 0.23155 0.98192 0.46869 0.0
C569 C 0.24417 0.94825 0.4187 0.0
C570 C 0.20789 0.98255 0.49462 0.0
C571 C 0.17915 0.95075 0.50201 0.0
C572 C 0.22672 0.94926 0.45051 0.0
C573 C 0.1779 0.91815 0.48535 0.0
C574 C 0.2443 0.97226 0.39697 0.0
C575 C 0.26407 0.91389 0.37752 0.0
N576 N 0.20106 0.91828 0.45998 0.0
N577 N 0.2541 0.91992 0.4084 0.0
H578 H 0.08456 0.80922 0.73284 0.0
H579 H 0.10061 0.9854 0.6566 0.0
H580 H 0.15084 0.9168 0.76955 0.0
H581 H 0.03277 0.87791 0.62064 0.0
H582 H 0.10837 0.96179 0.70495 0.0
H583 H 0.05548 0.83448 0.69843 0.0
C584 C 0.09269 0.83817 0.7339 0.0
C585 C 0.12062 0.86096 0.75364 0.0
C586 C 0.09128 0.94343 0.68672 0.0
C587 C 0.08755 0.89011 0.71429 0.0
C588 C 0.08675 0.95692 0.65907 0.0
C589 C 0.06692 0.93344 0.63404 0.0
C590 C 0.0761 0.90619 0.68925 0.0
C591 C 0.04903 0.89693 0.63895 0.0
C592 C 0.07596 0.85259 0.71437 0.0
C593 C 0.12951 0.89823 0.75462 0.0
N594 N 0.05467 0.88432 0.66571 0.0
N595 N 0.11347 0.91166 0.73481 0.0
H596 H 0.20822 0.14866 0.74406 0.0
H597 H 0.10588 0.14979 0.58882 0.0
H598 H 0.19794 0.2424 0.71259 0.0
H599 H 0.10821 0.05193 0.61921 0.0
H600 H 0.13887 0.18318 0.6354 0.0
H601 H 0.16848 0.11121 0.70124 0.0
C602 C 0.19679 0.16115 0.72869 0.0
C603 C 0.20641 0.19858 0.73158 0.0
C604 C 0.13228 0.1544 0.632 0.0
C605 C 0.16205 0.15648 0.68256 0.0
C606 C 0.11357 0.13528 0.60519 0.0
C607 C 0.10419 0.09794 0.60004 0.0
C608 C 0.14191 0.13623 0.65401 0.0
C609 C 0.11503 0.08073 0.62216 0.0
C610 C 0.17454 0.13991 0.70409 0.0
C611 C 0.19141 0.21364 0.71092 0.0
N612 N 0.13332 0.10004 0.64829 0.0
N613 N 0.17027 0.1926 0.68716 0.0
H614 H 0.83525 0.12021 0.67259 0.0
H615 H 0.938 0.12144 0.50744 0.0
H616 H 0.91952 0.2108 0.63313 0.0
H617 H 0.87843 0.02597 0.55462 0.0
H618 H 0.90504 0.15347 0.5408 0.0
H619 H 0.82856 0.08684 0.61986 0.0
C620 C 0.85219 0.13317 0.65284 0.0
C621 C 0.879 0.16786 0.65752 0.0
C622 C 0.89819 0.12515 0.54313 0.0
C623 C 0.87047 0.13036 0.59717 0.0
C624 C 0.91685 0.10686 0.524 0.0
C625 C 0.91174 0.07161 0.52936 0.0
C626 C 0.87543 0.10824 0.56829 0.0
C627 C 0.88365 0.05352 0.55046 0.0
C628 C 0.84786 0.11433 0.62271 0.0
C629 C 0.89888 0.18397 0.63083 0.0
N630 N 0.86734 0.07249 0.57016 0.0
N631 N 0.89461 0.16485 0.60192 0.0
H632 H 0.80044 0.83521 0.69936 0.0
H633 H 0.99563 0.944 0.62117 0.0
H634 H 0.9006 0.86102 0.74711 0.0
H635 H 0.89361 0.92295 0.57814 0.0
H636 H 0.9621 0.91482 0.66777 0.0
H637 H 0.8346 0.86972 0.65597 0.0
C638 C 0.82965 0.84856 0.70093 0.0
C639 C 0.84766 0.84508 0.72694 0.0
C640 C 0.94708 0.91664 0.64814 0.0
C641 C 0.88726 0.88434 0.67674 0.0
C642 C 0.96622 0.93309 0.62137 0.0
C643 C 0.94751 0.93583 0.59546 0.0
C644 C 0.90887 0.90278 0.6491 0.0
C645 C 0.90932 0.92148 0.59738 0.0
C646 C 0.8492 0.8682 0.67601 0.0
C647 C 0.88556 0.86313 0.72763 0.0
N648 N 0.89138 0.90561 0.62363 0.0
N649 N 0.90417 0.88167 0.70272 0.0
H650 H 0.40485 0.23033 0.24743 0.0
H651 H 0.39938 0.05465 0.12509 0.0
H652 H 0.30528 0.1564 0.20652 0.0
H653 H 0.49821 0.13842 0.15783 0.0
H654 H 0.36434 0.08805 0.15567 0.0
H655 H 0.43777 0.19531 0.21714 0.0
C656 C 0.38948 0.20674 0.23222 0.0
C657 C 0.35136 0.19724 0.2303 0.0
C658 C 0.39371 0.09922 0.15635 0.0
C659 C 0.39054 0.15521 0.1942 0.0
C660 C 0.41408 0.0798 0.13872 0.0
C661 C 0.45273 0.09281 0.1382 0.0
C662 C 0.41131 0.13258 0.1745 0.0
C663 C 0.4689 0.12632 0.15683 0.0
C664 C 0.4087 0.18644 0.2146 0.0
C665 C 0.33429 0.16568 0.20947 0.0
N666 N 0.44861 0.14437 0.17375 0.0
N667 N 0.35359 0.14628 0.19275 0.0
H668 H 0.82742 0.36223 0.2246 0.0
H669 H 1.00826 0.41559 0.11156 0.0
H670 H 0.90016 0.3043 0.21415 0.0
H671 H 0.92868 0.46492 0.11313 0.0
H672 H 0.97227 0.37849 0.15325 0.0
H673 H 0.86762 0.40443 0.18799 0.0
C674 C 0.85191 0.35853 0.21486 0.0
C675 C 0.86016 0.32945 0.22228 0.0
C676 C 0.96277 0.39755 0.14452 0.0
C677 C 0.90627 0.37754 0.18036 0.0
C678 C 0.98338 0.41873 0.12069 0.0
C679 C 0.97145 0.44319 0.10847 0.0
C680 C 0.93005 0.40099 0.1564 0.0
C681 C 0.93895 0.44626 0.12151 0.0
C682 C 0.87481 0.38253 0.19387 0.0
C683 C 0.89237 0.32604 0.20889 0.0
N684 N 0.91942 0.42539 0.14461 0.0
N685 N 0.91409 0.34964 0.18857 0.0
H686 H 0.78792 0.86737 0.22004 0.0
H687 H 0.60411 0.85321 0.13243 0.0
H688 H 0.68619 0.77898 0.23069 0.0
H689 H 0.70281 0.94685 0.13303 0.0
H690 H 0.63258 0.82562 0.16632 0.0
H691 H 0.75798 0.89502 0.18803 0.0
C692 C 0.75921 0.85338 0.21598 0.0
C693 C 0.74048 0.81998 0.22926 0.0
C694 C 0.64825 0.8523 0.15931 0.0
C695 C 0.70441 0.85301 0.19037 0.0
C696 C 0.63168 0.86851 0.13963 0.0
C697 C 0.65007 0.90347 0.12907 0.0
C698 C 0.68461 0.87017 0.16924 0.0
C699 C 0.68637 0.92038 0.14001 0.0
C700 C 0.74183 0.8696 0.19726 0.0
C701 C 0.70282 0.80448 0.22186 0.0
N702 N 0.70186 0.90392 0.15877 0.0
N703 N 0.68667 0.82066 0.20336 0.0
H704 H 0.25516 0.64402 0.23248 0.0
H705 H 0.19765 0.60526 0.05116 0.0
H706 H 0.25228 0.7234 0.17359 0.0
H707 H 0.14096 0.52978 0.1196 0.0
H708 H 0.23934 0.64239 0.09217 0.0
H709 H 0.23204 0.59718 0.18788 0.0
C710 C 0.25019 0.65162 0.21004 0.0
C711 C 0.25518 0.6875 0.20672 0.0
C712 C 0.2185 0.61713 0.09797 0.0
C713 C 0.23005 0.63464 0.1558 0.0
C714 C 0.19499 0.59568 0.0745 0.0
C715 C 0.16553 0.56466 0.08213 0.0
C716 C 0.21265 0.60746 0.1293 0.0
C717 C 0.16331 0.55353 0.11276 0.0
C718 C 0.23703 0.62497 0.18476 0.0
C719 C 0.24835 0.69601 0.17725 0.0
N720 N 0.18608 0.57541 0.13558 0.0
N721 N 0.23624 0.66982 0.15296 0.0
H722 H 0.39466 0.78715 0.85797 0.0
H723 H 0.45581 0.94989 0.99729 0.0
H724 H 0.32988 0.85186 0.88326 0.0
H725 H 0.48358 0.85577 0.99351 0.0
H726 H 0.41384 0.91982 0.95335 0.0
H727 H 0.43239 0.81742 0.90387 0.0
C728 C 0.38831 0.8078 0.873 0.0
C729 C 0.35858 0.81656 0.86631 0.0
C730 C 0.42896 0.90572 0.9624 0.0
C731 C 0.40279 0.85232 0.9196 0.0
C732 C 0.45291 0.92287 0.98776 0.0
C733 C 0.47366 0.90567 0.99986 0.0
C734 C 0.42606 0.87126 0.94823 0.0
C735 C 0.46854 0.87061 0.98562 0.0
C736 C 0.40995 0.82511 0.89947 0.0
C737 C 0.35218 0.84379 0.88724 0.0
N738 N 0.44596 0.85508 0.96074 0.0
N739 N 0.37407 0.86075 0.91253 0.0
H740 H 0.26184 0.30189 0.88631 0.0
H741 H 0.08864 0.35522 0.9253 0.0
H742 H 0.19376 0.30425 0.81242 0.0
H743 H 0.18362 0.39894 0.98266 0.0
H744 H 0.12117 0.32668 0.88689 0.0
H745 H 0.22759 0.3278 0.92517 0.0
C746 C 0.23947 0.30756 0.87828 0.0
C747 C 0.23061 0.30087 0.84604 0.0
C748 C 0.13478 0.34246 0.90794 0.0
C749 C 0.19123 0.33031 0.89052 0.0
C750 C 0.11621 0.35857 0.92998 0.0
C751 C 0.13346 0.37953 0.95726 0.0
C752 C 0.1706 0.34673 0.91351 0.0
C753 C 0.16933 0.38315 0.96192 0.0
C754 C 0.22012 0.32255 0.90047 0.0
C755 C 0.20156 0.30908 0.83701 0.0
N756 N 0.18665 0.36674 0.94035 0.0
N757 N 0.18273 0.3232 0.85919 0.0
H758 H 0.785 0.18964 0.87431 0.0
H759 H 0.59594 0.07498 0.96613 0.0
H760 H 0.68132 0.18719 0.8483 0.0
H761 H 0.70009 0.07004 0.98065 0.0
H762 H 0.62527 0.11725 0.9251 0.0
H763 H 0.75381 0.14812 0.91475 0.0
C764 C 0.75568 0.18058 0.87697 0.0
C765 C 0.73624 0.19251 0.85723 0.0
C766 C 0.64169 0.10685 0.93725 0.0
C767 C 0.69945 0.14388 0.90474 0.0
C768 C 0.62482 0.08251 0.96087 0.0
C769 C 0.64507 0.06809 0.97737 0.0
C770 C 0.67946 0.11758 0.92983 0.0
C771 C 0.68271 0.07969 0.96896 0.0
C772 C 0.73769 0.15657 0.90029 0.0
C773 C 0.69795 0.17913 0.86252 0.0
N774 N 0.69829 0.10332 0.94629 0.0
N775 N 0.68109 0.15592 0.88548 0.0
H776 H 0.93189 0.64768 0.84475 0.0
H777 H 0.08455 0.64272 0.95484 0.0
H778 H 1.01177 0.7422 0.89181 0.0
H779 H 0.98608 0.55169 0.93211 0.0
H780 H 0.06774 0.67706 0.91901 0.0
H781 H 0.96044 0.61063 0.86503 0.0
C782 C 0.95549 0.66074 0.85923 0.0
C783 C 0.96894 0.69819 0.86703 0.0
C784 C 0.05017 0.64935 0.92146 0.0
C785 C 1.00225 0.6558 0.88975 0.0
C786 C 0.05987 0.62959 0.94172 0.0
C787 C 0.03629 0.59447 0.94703 0.0
C788 C 1.01686 0.63376 0.90621 0.0
C789 C 1.00478 0.57889 0.92919 0.0
C790 C 0.97193 0.63953 0.87058 0.0
C791 C 1.00037 0.71354 0.88506 0.0
N792 N 0.99574 0.59878 0.90992 0.0
N793 N 1.01572 0.69227 0.89604 0.0
H794 H 0.14332 0.33142 0.22911 0.0
H795 H 1.01953 0.34636 0.09632 0.0
H796 H 0.06236 0.24018 0.17942 0.0
H797 H 0.1205 0.4301 0.12606 0.0
H798 H 1.02271 0.31202 0.13919 0.0
H799 H 0.12191 0.37149 0.20464 0.0
C800 C 0.12022 0.31971 0.21387 0.0
C801 C 0.10492 0.28237 0.2059 0.0
C802 C 0.04384 0.33817 0.13661 0.0
C803 C 0.08086 0.32821 0.17737 0.0
C804 C 0.0421 0.35786 0.11214 0.0
C805 C 0.07036 0.39079 0.107 0.0
C806 C 0.07393 0.35156 0.15617 0.0
C807 C 0.09851 0.40451 0.12867 0.0
C808 C 0.10828 0.34268 0.19967 0.0
C809 C 0.07533 0.26884 0.18574 0.0
N810 N 0.09985 0.38459 0.15203 0.0
N811 N 0.0646 0.29179 0.17175 0.0
H812 H 0.28669 0.67175 0.8563 0.0
H813 H 0.09625 0.5573 0.93918 0.0
H814 H 0.18499 0.68202 0.84075 0.0
H815 H 0.19891 0.55392 0.96186 0.0
H816 H 0.12791 0.60036 0.90055 0.0
H817 H 0.25464 0.62577 0.89256 0.0
C818 C 0.25764 0.66431 0.86042 0.0
C819 C 0.23854 0.68089 0.84551 0.0
C820 C 0.14355 0.5902 0.91394 0.0
C821 C 0.20171 0.62825 0.88695 0.0
C822 C 0.12548 0.56578 0.93618 0.0
C823 C 0.14499 0.55247 0.95423 0.0
C824 C 0.18147 0.60125 0.9095 0.0
C825 C 0.18275 0.56354 0.94856 0.0
C826 C 0.23936 0.63806 0.88115 0.0
C827 C 0.20089 0.67009 0.85176 0.0
N828 N 0.19977 0.58739 0.92679 0.0
N829 N 0.18376 0.64452 0.87201 0.0
H830 H 0.43257 0.19282 0.91456 0.0
H831 H 0.46208 0.02333 0.97064 0.0
H832 H 0.37384 0.08291 0.87814 0.0
H833 H 0.52763 0.13312 1.00217 0.0
H834 H 0.43389 0.04523 0.93272 0.0
H835 H 0.47149 0.17231 0.943 0.0
C836 C 0.4281 0.16444 0.91216 0.0
C837 C 0.3995 0.13955 0.89411 0.0
C838 C 0.45475 0.0646 0.94762 0.0
C839 C 0.44385 0.11581 0.92702 0.0
C840 C 0.47099 0.05208 0.96928 0.0
C841 C 0.49709 0.07639 0.98993 0.0
C842 C 0.46428 0.10179 0.9467 0.0
C843 C 0.50761 0.11334 0.98682 0.0
C844 C 0.45027 0.15272 0.92857 0.0
C845 C 0.39494 0.10305 0.89227 0.0
N846 N 0.49082 0.12492 0.96597 0.0
N847 N 0.41662 0.09232 0.90866 0.0
H848 H 0.87608 0.37708 0.82977 0.0
H849 H 0.9225 0.38275 1.00144 0.0
H850 H 0.79239 0.31847 0.89562 0.0
H851 H 0.97205 0.4771 0.95042 0.0
H852 H 0.8713 0.36155 0.96597 0.0
H853 H 0.90903 0.41717 0.8744 0.0
C854 C 0.86435 0.37319 0.85369 0.0
C855 C 0.83185 0.34434 0.85925 0.0
C856 C 0.89278 0.38743 0.96312 0.0
C857 C 0.8697 0.38937 0.91038 0.0
C858 C 0.92201 0.39948 0.9833 0.0
C859 C 0.95164 0.43141 0.97846 0.0
C860 C 0.8939 0.40688 0.93732 0.0
C861 C 0.94974 0.45223 0.95478 0.0
C862 C 0.88302 0.39616 0.87913 0.0
C863 C 0.81754 0.34042 0.89053 0.0
N864 N 0.92183 0.43905 0.9344 0.0
N865 N 0.83713 0.36211 0.91514 0.0
H866 H 0.74577 0.86006 0.82374 0.0
H867 H 0.64622 0.85205 0.99386 0.0
H868 H 0.75769 0.79441 0.89245 0.0
H869 H 0.69859 0.9548 0.95596 0.0
H870 H 0.67659 0.82528 0.95155 0.0
H871 H 0.71839 0.89035 0.86635 0.0
C872 C 0.74264 0.85199 0.84768 0.0
C873 C 0.75433 0.82473 0.85446 0.0
C874 C 0.6815 0.8537 0.95252 0.0
C875 C 0.7222 0.85865 0.90308 0.0
C876 C 0.66415 0.86903 0.97665 0.0
C877 C 0.67002 0.90585 0.97872 0.0
C878 C 0.70412 0.87493 0.92941 0.0
C879 C 0.69356 0.92641 0.95554 0.0
C880 C 0.72717 0.86939 0.87199 0.0
C881 C 0.74946 0.81544 0.88605 0.0
N882 N 0.70936 0.91063 0.93164 0.0
N883 N 0.73344 0.83193 0.90894 0.0
H884 H 0.94892 0.7719 0.15167 0.0
H885 H 0.04009 0.62499 0.12965 0.0
H886 H 1.017 0.76025 0.22108 0.0
H887 H 0.96007 0.62568 0.06662 0.0
H888 H 0.03143 0.67436 0.1636 0.0
H889 H 0.95473 0.72033 0.11886 0.0
C890 C 0.96584 0.75901 0.15964 0.0
C891 C 0.98283 0.77052 0.18901 0.0
C892 C 1.01538 0.66357 0.1426 0.0
C893 C 0.98851 0.71083 0.1521 0.0
C894 C 1.02016 0.6353 0.12336 0.0
C895 C 1.00072 0.62154 0.09546 0.0
C896 C 0.99137 0.67858 0.1336 0.0
C897 C 0.97528 0.63558 0.08815 0.0
C898 C 0.9686 0.72919 0.14115 0.0
C899 C 1.00352 0.75221 0.19859 0.0
N900 N 0.97162 0.66383 0.107 0.0
N901 N 1.00572 0.72318 0.18019 0.0
H902 H 0.37142 0.77362 0.19095 0.0
H903 H 0.4838 0.96705 0.17463 0.0
H904 H 0.4075 0.84291 0.27712 0.0
H905 H 0.51416 0.88863 0.11385 0.0
H906 H 0.45646 0.92259 0.21333 0.0
H907 H 0.4241 0.8135 0.16179 0.0
C908 C 0.39115 0.79668 0.20382 0.0
C909 C 0.38541 0.80524 0.23629 0.0
C910 C 0.47003 0.91544 0.19195 0.0
C911 C 0.44444 0.85132 0.20317 0.0
C912 C 0.4854 0.94066 0.1699 0.0
C913 C 0.50098 0.93119 0.14121 0.0
C914 C 0.46901 0.88024 0.18454 0.0
C915 C 0.50236 0.89674 0.13588 0.0
C916 C 0.42114 0.81932 0.18727 0.0
C917 C 0.41133 0.83549 0.25205 0.0
N918 N 0.48553 0.872 0.15698 0.0
N919 N 0.43927 0.85819 0.2351 0.0
H920 H 0.79791 0.16249 0.19486 0.0
H921 H 0.66664 0.12838 0.05952 0.0
H922 H 0.75271 0.23583 0.16568 0.0
H923 H 0.68254 0.04782 0.10893 0.0
H924 H 0.72656 0.17082 0.07506 0.0
H925 H 0.78464 0.12799 0.14308 0.0
C926 C 0.78559 0.17164 0.1774 0.0
C927 C 0.7742 0.20071 0.18512 0.0
C928 C 0.71749 0.14349 0.08158 0.0
C929 C 0.75961 0.16168 0.12599 0.0
C930 C 0.68318 0.11941 0.07307 0.0
C931 C 0.66898 0.08559 0.08501 0.0
C932 C 0.73675 0.13376 0.1029 0.0
C933 C 0.69202 0.07441 0.1007 0.0
C934 C 0.77861 0.15222 0.1477 0.0
C935 C 0.76023 0.21248 0.16116 0.0
N936 N 0.72456 0.09898 0.11023 0.0
N937 N 0.75242 0.19231 0.13281 0.0
H938 H 0.79322 0.67868 0.86306 0.0
H939 H 0.59981 0.57128 0.9454 0.0
H940 H 0.68986 0.66747 0.82799 0.0
H941 H 0.70183 0.58334 0.98382 0.0
H942 H 0.63284 0.60294 0.90021 0.0
H943 H 0.76084 0.63961 0.90481 0.0
C944 C 0.76378 0.66762 0.8638 0.0
C945 C 0.74429 0.67663 0.84204 0.0
C946 C 0.6481 0.59861 0.91842 0.0
C947 C 0.70709 0.63221 0.88996 0.0
C948 C 0.62919 0.58059 0.94441 0.0
C949 C 0.64799 0.57485 0.96874 0.0
C950 C 0.68626 0.61113 0.91654 0.0
C951 C 0.68614 0.58722 0.96573 0.0
C952 C 0.7453 0.64547 0.88777 0.0
C953 C 0.70613 0.66158 0.84432 0.0
N954 N 0.70402 0.60491 0.9402 0.0
N955 N 0.68888 0.64038 0.8679 0.0
H956 H 0.42358 0.59988 0.8022 0.0
H957 H 0.56704 0.64318 0.93794 0.0
H958 H 0.49002 0.70706 0.83978 0.0
H959 H 0.48543 0.53806 0.91398 0.0
H960 H 0.55056 0.66469 0.89198 0.0
H961 H 0.45661 0.57544 0.83349 0.0
C962 C 0.44552 0.61832 0.81663 0.0
C963 C 0.45375 0.65557 0.8187 0.0
C964 C 0.53672 0.63675 0.89648 0.0
C965 C 0.49151 0.62772 0.85471 0.0
C966 C 0.54629 0.62433 0.92261 0.0
C967 C 0.52692 0.58897 0.93038 0.0
C968 C 0.50771 0.61362 0.87794 0.0
C969 C 0.50059 0.56575 0.90934 0.0
C970 C 0.46427 0.60433 0.83458 0.0
C971 C 0.4823 0.67814 0.83798 0.0
N972 N 0.49132 0.57865 0.88441 0.0
N973 N 0.49994 0.66385 0.85543 0.0
H974 H 0.39657 0.28932 0.84885 0.0
H975 H 0.47415 0.47596 0.95699 0.0
H976 H 0.37277 0.38194 0.83236 0.0
H977 H 0.47095 0.37452 0.98385 0.0
H978 H 0.44052 0.44411 0.90944 0.0
H979 H 0.43014 0.3231 0.89541 0.0
C980 C 0.39877 0.31692 0.85473 0.0
C981 C 0.38158 0.33271 0.83673 0.0
C982 C 0.44699 0.4289 0.92594 0.0
C983 C 0.4197 0.37146 0.8904 0.0
C984 C 0.46598 0.44701 0.95319 0.0
C985 C 0.47563 0.42797 0.97443 0.0
C986 C 0.43792 0.39159 0.91981 0.0
C987 C 0.46436 0.39045 0.96816 0.0
C988 C 0.4177 0.33611 0.88154 0.0
C989 C 0.38547 0.36864 0.84561 0.0
N990 N 0.44643 0.3736 0.94132 0.0
N991 N 0.40402 0.38679 0.87193 0.0
H992 H 0.73369 0.37162 0.90379 0.0
H993 H 0.62044 0.37509 0.05991 0.0
H994 H 0.63941 0.28421 0.93523 0.0
H995 H 0.70272 0.46756 0.02166 0.0
H996 H 0.64829 0.33645 0.02936 0.0
H997 H 0.7419 0.39937 0.95855 0.0
C998 C 0.71492 0.35816 0.92241 0.0
C999 C 0.68476 0.32665 0.91506 0.0
C1000 C 0.66103 0.3653 0.02842 0.0
C1001 C 0.694 0.35796 0.97741 0.0
C1002 C 0.64513 0.38735 0.04583 0.0
C1003 C 0.65834 0.4242 0.04183 0.0
C1004 C 0.68946 0.3803 1.00634 0.0
C1005 C 0.69101 0.43902 0.02441 0.0
C1006 C 0.71989 0.37372 0.95365 0.0
C1007 C 0.66228 0.3092 0.93996 0.0
N1008 N 0.70485 0.41679 1.0063 0.0
N1009 N 0.66678 0.32563 0.97005 0.0
H1010 H 0.57511 0.32481 0.2382 0.0
H1011 H 0.6121 0.50883 0.16911 0.0
H1012 H 0.66924 0.42171 0.25734 0.0
H1013 H 0.51906 0.41165 0.14714 0.0
H1014 H 0.62256 0.48281 0.21485 0.0
H1015 H 0.54531 0.36037 0.21721 0.0
C1016 C 0.58937 0.35363 0.23824 0.0
C1017 C 0.62504 0.37022 0.24878 0.0
C1018 C 0.59932 0.46747 0.20048 0.0
C1019 C 0.59109 0.41109 0.22501 0.0
C1020 C 0.59321 0.48242 0.17439 0.0
C1021 C 0.56563 0.46175 0.15343 0.0
C1022 C 0.57794 0.43156 0.20533 0.0
C1023 C 0.54144 0.42812 0.16203 0.0
C1024 C 0.57223 0.37397 0.22654 0.0
C1025 C 0.64183 0.40776 0.24923 0.0
N1026 N 0.5488 0.4136 0.18682 0.0
N1027 N 0.62496 0.42683 0.23694 0.0
H1028 H 0.76481 0.64811 0.21891 0.0
H1029 H 0.65956 0.66535 0.07325 0.0
H1030 H 0.7952 0.74532 0.17185 0.0
H1031 H 0.63703 0.5664 0.11571 0.0
H1032 H 0.71438 0.69336 0.10436 0.0
H1033 H 0.72483 0.61534 0.17548 0.0
C1034 C 0.76385 0.66236 0.19898 0.0
C1035 C 0.78294 0.6996 0.19926 0.0
C1036 C 0.69767 0.66536 0.10651 0.0
C1037 C 0.73634 0.66251 0.1499 0.0
C1038 C 0.66623 0.64941 0.0889 0.0
C1039 C 0.64348 0.61346 0.09194 0.0
C1040 C 0.70625 0.6453 0.12751 0.0
C1041 C 0.65372 0.59407 0.1124 0.0
C1042 C 0.74078 0.64369 0.17426 0.0
C1043 C 0.78081 0.71665 0.17272 0.0
N1044 N 0.68409 0.61031 0.12958 0.0
N1045 N 0.75723 0.69813 0.14944 0.0
H1046 H 0.44444 0.67095 0.23026 0.0
H1047 H 0.39841 0.55497 0.07013 0.0
H1048 H 0.33086 0.61174 0.21139 0.0
H1049 H 0.48095 0.66211 0.07631 0.0
H1050 H 0.37096 0.5707 0.12052 0.0
H1051 H 0.45925 0.66115 0.17386 0.0
C1052 C 0.42261 0.65577 0.21437 0.0
C1053 C 0.38633 0.64243 0.22567 0.0
C1054 C 0.39448 0.59096 0.11025 0.0
C1055 C 0.40323 0.63089 0.16117 0.0
C1056 C 0.41002 0.58219 0.08135 0.0
C1057 C 0.44286 0.60688 0.06959 0.0
C1058 C 0.41228 0.62431 0.12728 0.0
C1059 C 0.45633 0.64184 0.08503 0.0
C1060 C 0.43108 0.65041 0.18217 0.0
C1061 C 0.35929 0.62212 0.20392 0.0
N1062 N 0.44168 0.64917 0.11368 0.0
N1063 N 0.36832 0.61678 0.17262 0.0
H1064 H 0.31821 0.31359 0.18113 0.0
H1065 H 0.49949 0.47994 0.14192 0.0
H1066 H 0.38996 0.3797 0.25468 0.0
H1067 H 0.40914 0.43379 0.07949 0.0
H1068 H 0.46323 0.44072 0.18255 0.0
H1069 H 0.35449 0.35468 0.14243 0.0
C1070 C 0.34156 0.33682 0.18918 0.0
C1071 C 0.35097 0.34322 0.22124 0.0
C1072 C 0.45139 0.43934 0.15997 0.0
C1073 C 0.39301 0.39034 0.17684 0.0
C1074 C 0.47217 0.46147 0.1367 0.0
C1075 C 0.45747 0.45993 0.10716 0.0
C1076 C 0.41583 0.41527 0.15344 0.0
C1077 C 0.42161 0.43601 0.10193 0.0
C1078 C 0.36226 0.36034 0.16706 0.0
C1079 C 0.38157 0.37384 0.23024 0.0
N1080 N 0.40219 0.41453 0.12467 0.0
N1081 N 0.40167 0.39614 0.20812 0.0
H1082 H 0.77823 0.66403 0.69439 0.0
H1083 H 0.96404 0.66343 0.60507 0.0
H1084 H 0.88631 0.72736 0.72649 0.0
H1085 H 0.8611 0.57945 0.58112 0.0
H1086 H 0.93349 0.68901 0.64707 0.0
H1087 H 0.80523 0.63416 0.65104 0.0
C1088 C 0.80746 0.67161 0.69254 0.0
C1089 C 0.82982 0.69848 0.71441 0.0
C1090 C 0.91735 0.66495 0.63277 0.0
C1091 C 0.86092 0.66462 0.66458 0.0
C1092 C 0.93489 0.65024 0.6085 0.0
C1093 C 0.91536 0.619 0.58919 0.0
C1094 C 0.87956 0.64878 0.63818 0.0
C1095 C 0.87746 0.60347 0.59531 0.0
C1096 C 0.82286 0.65452 0.66775 0.0
C1097 C 0.86761 0.70701 0.71052 0.0
N1098 N 0.8608 0.61854 0.61915 0.0
N1099 N 0.8817 0.69043 0.68627 0.0
H1100 H 0.39002 0.82167 0.71131 0.0
H1101 H 0.38715 0.97581 0.6117 0.0
H1102 H 0.30865 0.86909 0.72977 0.0
H1103 H 0.48603 0.9604 0.62779 0.0
H1104 H 0.35521 0.93313 0.65084 0.0
H1105 H 0.42278 0.86786 0.67545 0.0
C1106 C 0.37899 0.84174 0.70775 0.0
C1107 C 0.34655 0.84154 0.72354 0.0
C1108 C 0.38393 0.9392 0.64576 0.0
C1109 C 0.38378 0.89427 0.68242 0.0
C1110 C 0.40222 0.96357 0.62345 0.0
C1111 C 0.43927 0.97115 0.61586 0.0
C1112 C 0.40271 0.922 0.66027 0.0
C1113 C 0.45732 0.95455 0.63205 0.0
C1114 C 0.39781 0.8682 0.68745 0.0
C1115 C 0.33365 0.86836 0.71818 0.0
N1116 N 0.43881 0.93047 0.6532 0.0
N1117 N 0.35216 0.89351 0.69784 0.0
H1118 H 0.16268 0.33548 0.64893 0.0
H1119 H 0.1221 0.50187 0.59844 0.0
H1120 H 0.21893 0.44598 0.68512 0.0
H1121 H 0.06221 0.3918 0.56331 0.0
H1122 H 0.15285 0.48072 0.63474 0.0
H1123 H 0.12157 0.35429 0.62153 0.0
C1124 C 0.1662 0.36363 0.65145 0.0
C1125 C 0.1947 0.38918 0.6692 0.0
C1126 C 0.13268 0.46107 0.61941 0.0
C1127 C 0.14771 0.41098 0.63757 0.0
C1128 C 0.11492 0.47316 0.59871 0.0
C1129 C 0.08964 0.44863 0.57751 0.0
C1130 C 0.12554 0.42411 0.61886 0.0
C1131 C 0.08144 0.41173 0.57919 0.0
C1132 C 0.14275 0.37437 0.63565 0.0
C1133 C 0.19795 0.42534 0.67124 0.0
N1134 N 0.0997 0.40062 0.59913 0.0
N1135 N 0.17498 0.4351 0.65553 0.0
H1136 H 0.74501 0.14483 0.72753 0.0
H1137 H 0.66144 0.13698 0.56086 0.0
H1138 H 0.76603 0.23425 0.67196 0.0
H1139 H 0.61686 0.05304 0.62411 0.0
H1140 H 0.71545 0.16363 0.59271 0.0
H1141 H 0.71302 0.10357 0.6824 0.0
C1142 C 0.7437 0.1556 0.70553 0.0
C1143 C 0.75733 0.19288 0.70347 0.0
C1144 C 0.69427 0.13895 0.59933 0.0
C1145 C 0.72148 0.14631 0.65216 0.0
C1146 C 0.66354 0.12369 0.58109 0.0
C1147 C 0.63453 0.09335 0.59041 0.0
C1148 C 0.69554 0.12427 0.62757 0.0
C1149 C 0.63866 0.07675 0.61645 0.0
C1150 C 0.72543 0.13215 0.67991 0.0
C1151 C 0.75514 0.20567 0.67461 0.0
N1152 N 0.66828 0.09303 0.63477 0.0
N1153 N 0.73721 0.18247 0.65022 0.0
H1154 H 0.78573 0.28286 0.39282 0.0
H1155 H 0.92134 0.48279 0.43747 0.0
H1156 H 0.86486 0.3508 0.32895 0.0
H1157 H 0.91045 0.39688 0.49445 0.0
H1158 H 0.87123 0.4412 0.40533 0.0
H1159 H 0.80646 0.3316 0.43631 0.0
C1160 C 0.80729 0.30813 0.38809 0.0
C1161 C 0.82461 0.31291 0.35791 0.0
C1162 C 0.87886 0.43202 0.42578 0.0
C1163 C 0.84619 0.36849 0.40606 0.0
C1164 C 0.90725 0.45565 0.44412 0.0
C1165 C 0.92048 0.44258 0.46771 0.0
C1166 C 0.86379 0.39567 0.43165 0.0
C1167 C 0.9014 0.40738 0.47568 0.0
C1168 C 0.81861 0.33579 0.41256 0.0
C1169 C 0.85177 0.34602 0.35232 0.0
N1170 N 0.8743 0.38467 0.45712 0.0
N1171 N 0.86181 0.37269 0.37628 0.0
H1172 H 0.57825 0.77077 0.34339 0.0
H1173 H 0.63301 0.90242 0.50386 0.0
H1174 H 0.64635 0.75999 0.41325 0.0
H1175 H 0.54688 0.89559 0.44414 0.0
H1176 H 0.64459 0.85532 0.46736 0.0
H1177 H 0.57071 0.82078 0.3778 0.0
C1178 C 0.5911 0.77862 0.36619 0.0
C1179 C 0.61252 0.76105 0.37572 0.0
C1180 C 0.62337 0.86444 0.46222 0.0
C1181 C 0.60485 0.81849 0.41476 0.0
C1182 C 0.61712 0.89145 0.48278 0.0
C1183 C 0.58884 0.90237 0.47694 0.0
C1184 C 0.60135 0.84892 0.43577 0.0
C1185 C 0.56869 0.88741 0.44954 0.0
C1186 C 0.58702 0.80722 0.38573 0.0
C1187 C 0.62894 0.77238 0.40535 0.0
N1188 N 0.57522 0.86132 0.43003 0.0
N1189 N 0.62494 0.80057 0.42379 0.0
H1190 H 0.18461 0.75861 0.36215 0.0
H1191 H 0.10811 0.56206 0.39709 0.0
H1192 H 0.17085 0.67272 0.28754 0.0
H1193 H 0.06447 0.63478 0.45171 0.0
H1194 H 0.12886 0.60328 0.35553 0.0
H1195 H 0.13639 0.71658 0.39411 0.0
C1196 C 0.17018 0.73138 0.35195 0.0
C1197 C 0.18172 0.71872 0.32254 0.0
C1198 C 0.11413 0.61003 0.37629 0.0
C1199 C 0.12802 0.67077 0.35884 0.0
C1200 C 0.1026 0.58663 0.40005 0.0
C1201 C 0.08496 0.59537 0.42773 0.0
C1202 C 0.1091 0.64298 0.38077 0.0
C1203 C 0.07814 0.62734 0.43053 0.0
C1204 C 0.14293 0.70737 0.3702 0.0
C1205 C 0.16279 0.68318 0.31038 0.0
N1206 N 0.09108 0.65061 0.40761 0.0
N1207 N 0.13743 0.66016 0.3289 0.0
H1208 H 0.51305 0.27579 0.39742 0.0
H1209 H 0.47129 0.08294 0.43647 0.0
H1210 H 0.44882 0.18439 0.33551 0.0
H1211 H 0.56823 0.17083 0.46873 0.0
H1212 H 0.46817 0.11764 0.39391 0.0
H1213 H 0.54024 0.23809 0.41808 0.0
C1214 C 0.50531 0.24805 0.38751 0.0
C1215 C 0.47769 0.23298 0.36543 0.0
C1216 C 0.49064 0.12899 0.40983 0.0
C1217 C 0.50804 0.18941 0.38968 0.0
C1218 C 0.49234 0.10921 0.43423 0.0
C1219 C 0.51933 0.12448 0.45684 0.0
C1220 C 0.51564 0.16448 0.40853 0.0
C1221 C 0.54636 0.15832 0.45233 0.0
C1222 C 0.52081 0.22644 0.39943 0.0
C1223 C 0.46892 0.19679 0.35351 0.0
N1224 N 0.54327 0.17762 0.42921 0.0
N1225 N 0.48331 0.17597 0.3664 0.0
H1226 H 0.57629 0.77793 0.68132 0.0
H1227 H 0.59764 0.97236 0.64236 0.0
H1228 H 0.65623 0.87536 0.72428 0.0
H1229 H 0.50529 0.87673 0.61495 0.0
H1230 H 0.6153 0.93835 0.67766 0.0
H1231 H 0.54635 0.81383 0.66141 0.0
C1232 C 0.58731 0.80681 0.68703 0.0
C1233 C 0.61921 0.82356 0.70428 0.0
C1234 C 0.59078 0.92491 0.66441 0.0
C1235 C 0.58519 0.86503 0.68094 0.0
C1236 C 0.58057 0.94439 0.64431 0.0
C1237 C 0.55027 0.92723 0.62521 0.0
C1238 C 0.57087 0.88785 0.6651 0.0
C1239 C 0.52903 0.89102 0.629 0.0
C1240 C 0.5702 0.82735 0.67552 0.0
C1241 C 0.6323 0.86122 0.71045 0.0
N1242 N 0.54017 0.87233 0.64799 0.0
N1243 N 0.6155 0.88066 0.69851 0.0
H1244 H 0.67546 0.17198 0.32036 0.0
H1245 H 0.66887 0.07458 0.47646 0.0
H1246 H 0.76944 0.16561 0.3603 0.0
H1247 H 0.57457 0.08789 0.44421 0.0
H1248 H 0.70492 0.10627 0.43273 0.0
H1249 H 0.6373 0.13914 0.36341 0.0
C1250 C 0.6881 0.1634 0.33797 0.0
C1251 C 0.72588 0.17162 0.33659 0.0
C1252 C 0.67639 0.10241 0.43508 0.0
C1253 C 0.68212 0.13417 0.38618 0.0
C1254 C 0.65559 0.08418 0.46015 0.0
C1255 C 0.61838 0.07829 0.46409 0.0
C1256 C 0.66014 0.11502 0.41335 0.0
C1257 C 0.60311 0.09186 0.44221 0.0
C1258 C 0.66622 0.1448 0.36266 0.0
C1259 C 0.74055 0.15991 0.36025 0.0
N1260 N 0.62404 0.10949 0.41766 0.0
N1261 N 0.71869 0.14189 0.38401 0.0
H1262 H 0.90577 0.75192 0.33713 0.0
H1263 H 0.88607 0.5777 0.4326 0.0
H1264 H 0.80552 0.66092 0.34421 0.0
H1265 H 0.98203 0.67422 0.43647 0.0
H1266 H 0.8582 0.60574 0.39869 0.0
H1267 H 0.93453 0.72368 0.37015 0.0
C1268 C 0.88944 0.72594 0.34525 0.0
C1269 C 0.85231 0.70955 0.33679 0.0
C1270 C 0.88546 0.621 0.40667 0.0
C1271 C 0.88665 0.67556 0.37627 0.0
C1272 C 0.90185 0.60465 0.42631 0.0
C1273 C 0.93745 0.62264 0.43824 0.0
C1274 C 0.90405 0.65649 0.39769 0.0
C1275 C 0.95497 0.65819 0.42846 0.0
C1276 C 0.90623 0.70958 0.36455 0.0
C1277 C 0.83389 0.6755 0.34924 0.0
N1278 N 0.93854 0.67333 0.40928 0.0
N1279 N 0.85085 0.66018 0.36766 0.0
H1280 H 0.293 0.80518 0.39891 0.0
H1281 H 0.44583 0.9946 0.45275 0.0
H1282 H 0.34844 0.8864 0.3348 0.0
H1283 H 0.3904 0.91195 0.51542 0.0
H1284 H 0.40139 0.96145 0.412 0.0
H1285 H 0.32018 0.84876 0.44382 0.0
C1286 C 0.31066 0.83226 0.39428 0.0
C1287 C 0.31877 0.84197 0.36299 0.0
C1288 C 0.3984 0.95103 0.43497 0.0
C1289 C 0.35022 0.89217 0.41439 0.0
C1290 C 0.4235 0.97023 0.4584 0.0
C1291 C 0.42202 0.95574 0.48733 0.0
C1292 C 0.3718 0.9172 0.44066 0.0
C1293 C 0.39274 0.92384 0.49325 0.0
C1294 C 0.3261 0.85724 0.41996 0.0
C1295 C 0.34153 0.87764 0.3585 0.0
N1296 N 0.36923 0.90536 0.46996 0.0
N1297 N 0.3568 0.90129 0.38385 0.0
H1298 H 0.18772 0.30884 0.30989 0.0
H1299 H 0.1865 0.46898 0.44815 0.0
H1300 H 0.278 0.36352 0.37075 0.0
H1301 H 0.08925 0.39344 0.40478 0.0
H1302 H 0.22163 0.43587 0.41737 0.0
H1303 H 0.1538 0.34299 0.34036 0.0
C1304 C 0.20085 0.32802 0.32947 0.0
C1305 C 0.23662 0.33239 0.33701 0.0
C1306 C 0.19261 0.42648 0.41436 0.0
C1307 C 0.19657 0.37349 0.3731 0.0
C1308 C 0.17223 0.44578 0.43207 0.0
C1309 C 0.13399 0.4349 0.42972 0.0
C1310 C 0.17552 0.39562 0.39303 0.0
C1311 C 0.11826 0.40376 0.40806 0.0
C1312 C 0.18107 0.34778 0.34719 0.0
C1313 C 0.25088 0.35836 0.36333 0.0
N1314 N 0.13864 0.38593 0.39094 0.0
N1315 N 0.23133 0.37755 0.37982 0.0
H1316 H 0.40514 0.28188 0.70616 0.0
H1317 H 0.3966 0.10538 0.59252 0.0
H1318 H 0.31528 0.17965 0.70429 0.0
H1319 H 0.49796 0.19345 0.61348 0.0
H1320 H 0.36441 0.13769 0.6264 0.0
H1321 H 0.43764 0.255 0.66539 0.0
C1322 C 0.39215 0.25401 0.69695 0.0
C1323 C 0.35766 0.23286 0.70884 0.0
C1324 C 0.3937 0.15006 0.62351 0.0
C1325 C 0.39425 0.20222 0.66237 0.0
C1326 C 0.41215 0.13162 0.60406 0.0
C1327 C 0.45018 0.14647 0.6003 0.0
C1328 C 0.41322 0.18379 0.63936 0.0
C1329 C 0.46868 0.18076 0.61587 0.0
C1330 C 0.41071 0.23866 0.67388 0.0
C1331 C 0.34203 0.19685 0.69616 0.0
N1332 N 0.45004 0.19822 0.63483 0.0
N1333 N 0.36039 0.18275 0.67373 0.0
H1334 H 0.81204 0.36638 0.71609 0.0
H1335 H 0.98405 0.43873 0.59121 0.0
H1336 H 0.89195 0.31721 0.7008 0.0
H1337 H 0.89229 0.47189 0.59902 0.0
H1338 H 0.95448 0.3971 0.63267 0.0
H1339 H 0.8439 0.40719 0.67554 0.0
C1340 C 0.83633 0.36399 0.70436 0.0
C1341 C 0.84884 0.33769 0.71248 0.0
C1342 C 0.94087 0.41356 0.62534 0.0
C1343 C 0.88654 0.38574 0.66492 0.0
C1344 C 0.95793 0.43763 0.60159 0.0
C1345 C 0.94106 0.45946 0.59102 0.0
C1346 C 0.90656 0.41114 0.63927 0.0
C1347 C 0.90684 0.45602 0.60581 0.0
C1348 C 0.85468 0.38756 0.68092 0.0
C1349 C 0.88082 0.33667 0.69577 0.0
N1350 N 0.89115 0.43282 0.62878 0.0
N1351 N 0.89839 0.36013 0.67315 0.0
H1352 H 0.23997 0.66028 0.7003 0.0
H1353 H 0.11109 0.67348 0.56705 0.0
H1354 H 0.20695 0.7502 0.69744 0.0
H1355 H 0.12231 0.57347 0.57946 0.0
H1356 H 0.15172 0.70293 0.61082 0.0
H1357 H 0.20263 0.62961 0.6539 0.0
C1358 C 0.22506 0.67378 0.69001 0.0
C1359 C 0.227 0.70824 0.70336 0.0
C1360 C 0.14567 0.67461 0.60396 0.0
C1361 C 0.18386 0.67283 0.64922 0.0
C1362 C 0.1224 0.65756 0.57854 0.0
C1363 C 0.11271 0.62048 0.56886 0.0
C1364 C 0.16022 0.655 0.6205 0.0
C1365 C 0.12881 0.602 0.58546 0.0
C1366 C 0.20358 0.65607 0.66337 0.0
C1367 C 0.20664 0.72382 0.68848 0.0
N1368 N 0.15147 0.61929 0.61028 0.0
N1369 N 0.18634 0.70625 0.66251 0.0
loop_
_geom_bond_atom_site_label_1
_geom_bond_atom_site_label_2
_geom_bond_distance
_geom_bond_site_symmetry_2
_ccdc_geom_bond_type
Tb0 C10 2.825 . S
Tb0 O11 2.347 . S
Tb0 O14 2.366 . S
Tb0 O19 2.418 . S
Tb0 O20 2.384 . S
Tb0 O23 2.479 . S
Tb0 O24 2.471 . S
Eu1 O12 2.418 . S
Eu1 O13 2.384 . S
Eu1 O16 2.479 . S
Eu1 O17 2.471 . S
Eu1 O18 2.347 . S
Eu1 O21 2.366 . S
Eu1 C31 2.825 . S
C2 O18 1.259 . S
C2 O19 1.265 . S
C3 O20 1.255 . S
C3 O21 1.265 . S
C4 C6 1.380 . S
C4 C7 1.374 . S
C4 C10 1.507 . S
C5 C6 1.384 . S
C5 C9 1.387 . S
C5 H32 0.930 . S
C6 C4 1.380 . S
C6 C5 1.384 . S
C6 H33 0.931 . S
C7 C4 1.374 . S
C7 C8 1.390 . S
C7 H34 0.930 . S
C8 C7 1.390 . S
C8 C9 1.391 . S
C8 H35 0.930 . S
C9 C5 1.387 . S
C9 C8 1.391 . S
C10 Tb0 2.825 . S
C10 C4 1.507 . S
C10 O23 1.238 . S
C10 O24 1.247 . S
O11 Tb0 2.347 . S
O11 C15 1.259 . S
O12 Eu1 2.418 . S
O12 C15 1.265 . S
O13 Eu1 2.384 . S
O13 C22 1.255 . S
O14 Tb0 2.366 . S
O14 C22 1.265 . S
C15 O11 1.259 . S
C15 O12 1.265 . S
O16 Eu1 2.479 . S
O16 C31 1.238 . S
O17 Eu1 2.471 . S
O17 C31 1.247 . S
O18 Eu1 2.347 . S
O18 C2 1.259 . S
O19 Tb0 2.418 . S
O19 C2 1.265 . S
O20 Tb0 2.384 . S
O20 C3 1.255 . S
O21 Eu1 2.366 . S
O21 C3 1.265 . S
C22 O13 1.255 . S
C22 O14 1.265 . S
O23 Tb0 2.479 . S
O23 C10 1.238 . S
O24 Tb0 2.471 . S
O24 C10 1.247 . S
C25 C28 1.380 . S
C25 C29 1.374 . S
C25 C31 1.507 . S
C26 C27 1.387 . S
C26 C30 1.391 . S
C27 C26 1.387 . S
C27 C28 1.384 . S
C27 H36 0.930 . S
C28 C25 1.380 . S
C28 C27 1.384 . S
C28 H37 0.931 . S
C29 C25 1.374 . S
C29 C30 1.390 . S
C29 H38 0.930 . S
C30 C26 1.391 . S
C30 C29 1.390 . S
C30 H39 0.930 . S
C31 Eu1 2.825 . S
C31 O16 1.238 . S
C31 O17 1.247 . S
C31 C25 1.507 . S
H32 C5 0.930 . S
H33 C6 0.931 . S
H34 C7 0.930 . S
H35 C8 0.930 . S
H36 C27 0.930 . S
H37 C28 0.931 . S
H38 C29 0.930 . S
H39 C30 0.930 . S
Tb40 C50 2.825 . S
Tb40 O51 2.347 . S
Tb40 O54 2.366 . S
Tb40 O59 2.418 . S
Tb40 O60 2.384 . S
Tb40 O63 2.479 . S
Tb40 O64 2.471 . S
Eu41 O52 2.418 . S
Eu41 O53 2.384 . S
Eu41 O56 2.479 . S
Eu41 O57 2.471 . S
Eu41 O58 2.347 . S
Eu41 O61 2.366 . S
Eu41 C71 2.825 . S
C42 O58 1.259 . S
C42 O59 1.265 . S
C43 O60 1.255 . S
C43 O61 1.265 . S
C44 C46 1.380 . S
C44 C47 1.374 . S
C44 C50 1.507 . S
C45 C46 1.384 . S
C45 C49 1.387 . S
C45 H72 0.930 . S
C46 C44 1.380 . S
C46 C45 1.384 . S
C46 H73 0.931 . S
C47 C44 1.374 . S
C47 C48 1.390 . S
C47 H74 0.930 . S
C48 C47 1.390 . S
C48 C49 1.391 . S
C48 H75 0.930 . S
C49 C45 1.387 . S
C49 C48 1.391 . S
C50 Tb40 2.825 . S
C50 C44 1.507 . S
C50 O63 1.238 . S
C50 O64 1.247 . S
O51 Tb40 2.347 . S
O51 C55 1.259 . S
O52 Eu41 2.418 . S
O52 C55 1.265 . S
O53 Eu41 2.384 . S
O53 C62 1.255 . S
O54 Tb40 2.366 . S
O54 C62 1.265 . S
C55 O51 1.259 . S
C55 O52 1.265 . S
O56 Eu41 2.479 . S
O56 C71 1.238 . S
O57 Eu41 2.471 . S
O57 C71 1.247 . S
O58 Eu41 2.347 . S
O58 C42 1.259 . S
O59 Tb40 2.418 . S
O59 C42 1.265 . S
O60 Tb40 2.384 . S
O60 C43 1.255 . S
O61 Eu41 2.366 . S
O61 C43 1.265 . S
C62 O53 1.255 . S
C62 O54 1.265 . S
O63 Tb40 2.479 . S
O63 C50 1.238 . S
O64 Tb40 2.471 . S
O64 C50 1.247 . S
C65 C68 1.380 . S
C65 C69 1.374 . S
C65 C71 1.507 . S
C66 C67 1.387 . S
C66 C70 1.391 . S
C67 C66 1.387 . S
C67 C68 1.384 . S
C67 H76 0.930 . S
C68 C65 1.380 . S
C68 C67 1.384 . S
C68 H77 0.931 . S
C69 C65 1.374 . S
C69 C70 1.390 . S
C69 H78 0.930 . S
C70 C66 1.391 . S
C70 C69 1.390 . S
C70 H79 0.930 . S
C71 Eu41 2.825 . S
C71 O56 1.238 . S
C71 O57 1.247 . S
C71 C65 1.507 . S
H72 C45 0.930 . S
H73 C46 0.931 . S
H74 C47 0.930 . S
H75 C48 0.930 . S
H76 C67 0.930 . S
H77 C68 0.931 . S
H78 C69 0.930 . S
H79 C70 0.930 . S
Tb80 C90 2.825 . S
Tb80 O91 2.347 . S
Tb80 O94 2.366 . S
Tb80 O99 2.418 . S
Tb80 O100 2.384 . S
Tb80 O103 2.479 . S
Tb80 O104 2.471 . S
Eu81 O92 2.418 . S
Eu81 O93 2.384 . S
Eu81 O96 2.479 . S
Eu81 O97 2.471 . S
Eu81 O98 2.347 . S
Eu81 O101 2.366 . S
Eu81 C111 2.825 . S
C82 O98 1.259 . S
C82 O99 1.265 . S
C83 O100 1.255 . S
C83 O101 1.265 . S
C84 C86 1.380 . S
C84 C87 1.374 . S
C84 C90 1.507 . S
C85 C86 1.384 . S
C85 C89 1.387 . S
C85 H112 0.930 . S
C86 C84 1.380 . S
C86 C85 1.384 . S
C86 H113 0.931 . S
C87 C84 1.374 . S
C87 C88 1.390 . S
C87 H114 0.930 . S
C88 C87 1.390 . S
C88 C89 1.391 . S
C88 H115 0.930 . S
C89 C85 1.387 . S
C89 C88 1.391 . S
C90 Tb80 2.825 . S
C90 C84 1.507 . S
C90 O103 1.238 . S
C90 O104 1.247 . S
O91 Tb80 2.347 . S
O91 C95 1.259 . S
O92 Eu81 2.418 . S
O92 C95 1.265 . S
O93 Eu81 2.384 . S
O93 C102 1.255 . S
O94 Tb80 2.366 . S
O94 C102 1.265 . S
C95 O91 1.259 . S
C95 O92 1.265 . S
O96 Eu81 2.479 . S
O96 C111 1.238 . S
O97 Eu81 2.471 . S
O97 C111 1.247 . S
O98 Eu81 2.347 . S
O98 C82 1.259 . S
O99 Tb80 2.418 . S
O99 C82 1.265 . S
O100 Tb80 2.384 . S
O100 C83 1.255 . S
O101 Eu81 2.366 . S
O101 C83 1.265 . S
C102 O93 1.255 . S
C102 O94 1.265 . S
O103 Tb80 2.479 . S
O103 C90 1.238 . S
O104 Tb80 2.471 . S
O104 C90 1.247 . S
C105 C108 1.380 . S
C105 C109 1.374 . S
C105 C111 1.507 . S
C106 C107 1.387 . S
C106 C110 1.391 . S
C107 C106 1.387 . S
C107 C108 1.384 . S
C107 H116 0.930 . S
C108 C105 1.380 . S
C108 C107 1.384 . S
C108 H117 0.931 . S
C109 C105 1.374 . S
C109 C110 1.390 . S
C109 H118 0.930 . S
C110 C106 1.391 . S
C110 C109 1.390 . S
C110 H119 0.930 . S
C111 Eu81 2.825 . S
C111 O96 1.238 . S
C111 O97 1.247 . S
C111 C105 1.507 . S
H112 C85 0.930 . S
H113 C86 0.931 . S
H114 C87 0.930 . S
H115 C88 0.930 . S
H116 C107 0.930 . S
H117 C108 0.931 . S
H118 C109 0.930 . S
H119 C110 0.930 . S
Tb120 C130 2.825 . S
Tb120 O131 2.347 . S
Tb120 O134 2.366 . S
Tb120 O139 2.418 . S
Tb120 O140 2.384 . S
Tb120 O143 2.479 . S
Tb120 O144 2.471 . S
Eu121 O132 2.418 . S
Eu121 O133 2.384 . S
Eu121 O136 2.479 . S
Eu121 O137 2.471 . S
Eu121 O138 2.347 . S
Eu121 O141 2.366 . S
Eu121 C151 2.825 . S
C122 O138 1.259 . S
C122 O139 1.265 . S
C123 O140 1.255 . S
C123 O141 1.265 . S
C124 C126 1.380 . S
C124 C127 1.374 . S
C124 C130 1.507 . S
C125 C126 1.384 . S
C125 C129 1.387 . S
C125 H152 0.930 . S
C126 C124 1.380 . S
C126 C125 1.384 . S
C126 H153 0.931 . S
C127 C124 1.374 . S
C127 C128 1.390 . S
C127 H154 0.930 . S
C128 C127 1.390 . S
C128 C129 1.391 . S
C128 H155 0.930 . S
C129 C125 1.387 . S
C129 C128 1.391 . S
C130 Tb120 2.825 . S
C130 C124 1.507 . S
C130 O143 1.238 . S
C130 O144 1.247 . S
O131 Tb120 2.347 . S
O131 C135 1.259 . S
O132 Eu121 2.418 . S
O132 C135 1.265 . S
O133 Eu121 2.384 . S
O133 C142 1.255 . S
O134 Tb120 2.366 . S
O134 C142 1.265 . S
C135 O131 1.259 . S
C135 O132 1.265 . S
O136 Eu121 2.479 . S
O136 C151 1.238 . S
O137 Eu121 2.471 . S
O137 C151 1.247 . S
O138 Eu121 2.347 . S
O138 C122 1.259 . S
O139 Tb120 2.418 . S
O139 C122 1.265 . S
O140 Tb120 2.384 . S
O140 C123 1.255 . S
O141 Eu121 2.366 . S
O141 C123 1.265 . S
C142 O133 1.255 . S
C142 O134 1.265 . S
O143 Tb120 2.479 . S
O143 C130 1.238 . S
O144 Tb120 2.471 . S
O144 C130 1.247 . S
C145 C148 1.380 . S
C145 C149 1.374 . S
C145 C151 1.507 . S
C146 C147 1.387 . S
C146 C150 1.391 . S
C147 C146 1.387 . S
C147 C148 1.384 . S
C147 H156 0.930 . S
C148 C145 1.380 . S
C148 C147 1.384 . S
C148 H157 0.931 . S
C149 C145 1.374 . S
C149 C150 1.390 . S
C149 H158 0.930 . S
C150 C146 1.391 . S
C150 C149 1.390 . S
C150 H159 0.930 . S
C151 Eu121 2.825 . S
C151 O136 1.238 . S
C151 O137 1.247 . S
C151 C145 1.507 . S
H152 C125 0.930 . S
H153 C126 0.931 . S
H154 C127 0.930 . S
H155 C128 0.930 . S
H156 C147 0.930 . S
H157 C148 0.931 . S
H158 C149 0.930 . S
H159 C150 0.930 . S
Tb160 C170 2.825 . S
Tb160 O171 2.347 . S
Tb160 O174 2.366 . S
Tb160 O179 2.418 . S
Tb160 O180 2.384 . S
Tb160 O183 2.479 . S
Tb160 O184 2.471 . S
Eu161 O172 2.418 . S
Eu161 O173 2.384 . S
Eu161 O176 2.479 . S
Eu161 O177 2.471 . S
Eu161 O178 2.347 . S
Eu161 O181 2.366 . S
Eu161 C191 2.825 . S
C162 O178 1.259 . S
C162 O179 1.265 . S
C163 O180 1.255 . S
C163 O181 1.265 . S
C164 C166 1.380 . S
C164 C167 1.374 . S
C164 C170 1.507 . S
C165 C166 1.384 . S
C165 C169 1.387 . S
C165 H192 0.930 . S
C166 C164 1.380 . S
C166 C165 1.384 . S
C166 H193 0.931 . S
C167 C164 1.374 . S
C167 C168 1.390 . S
C167 H194 0.930 . S
C168 C167 1.390 . S
C168 C169 1.391 . S
C168 H195 0.930 . S
C169 C165 1.387 . S
C169 C168 1.391 . S
C170 Tb160 2.825 . S
C170 C164 1.507 . S
C170 O183 1.238 . S
C170 O184 1.247 . S
O171 Tb160 2.347 . S
O171 C175 1.259 . S
O172 Eu161 2.418 . S
O172 C175 1.265 . S
O173 Eu161 2.384 . S
O173 C182 1.255 . S
O174 Tb160 2.366 . S
O174 C182 1.265 . S
C175 O171 1.259 . S
C175 O172 1.265 . S
O176 Eu161 2.479 . S
O176 C191 1.238 . S
O177 Eu161 2.471 . S
O177 C191 1.247 . S
O178 Eu161 2.347 . S
O178 C162 1.259 . S
O179 Tb160 2.418 . S
O179 C162 1.265 . S
O180 Tb160 2.384 . S
O180 C163 1.255 . S
O181 Eu161 2.366 . S
O181 C163 1.265 . S
C182 O173 1.255 . S
C182 O174 1.265 . S
O183 Tb160 2.479 . S
O183 C170 1.238 . S
O184 Tb160 2.471 . S
O184 C170 1.247 . S
C185 C188 1.380 . S
C185 C189 1.374 . S
C185 C191 1.507 . S
C186 C187 1.387 . S
C186 C190 1.391 . S
C187 C186 1.387 . S
C187 C188 1.384 . S
C187 H196 0.930 . S
C188 C185 1.380 . S
C188 C187 1.384 . S
C188 H197 0.931 . S
C189 C185 1.374 . S
C189 C190 1.390 . S
C189 H198 0.930 . S
C190 C186 1.391 . S
C190 C189 1.390 . S
C190 H199 0.930 . S
C191 Eu161 2.825 . S
C191 O176 1.238 . S
C191 O177 1.247 . S
C191 C185 1.507 . S
H192 C165 0.930 . S
H193 C166 0.931 . S
H194 C167 0.930 . S
H195 C168 0.930 . S
H196 C187 0.930 . S
H197 C188 0.931 . S
H198 C189 0.930 . S
H199 C190 0.930 . S
Tb200 C210 2.825 . S
Tb200 O211 2.347 . S
Tb200 O214 2.366 . S
Tb200 O219 2.418 . S
Tb200 O220 2.384 . S
Tb200 O223 2.479 . S
Tb200 O224 2.471 . S
Eu201 O212 2.418 . S
Eu201 O213 2.384 . S
Eu201 O216 2.479 . S
Eu201 O217 2.471 . S
Eu201 O218 2.347 . S
Eu201 O221 2.366 . S
Eu201 C231 2.825 . S
C202 O218 1.259 . S
C202 O219 1.265 . S
C203 O220 1.255 . S
C203 O221 1.265 . S
C204 C206 1.380 . S
C204 C207 1.374 . S
C204 C210 1.507 . S
C205 C206 1.384 . S
C205 C209 1.387 . S
C205 H232 0.930 . S
C206 C204 1.380 . S
C206 C205 1.384 . S
C206 H233 0.931 . S
C207 C204 1.374 . S
C207 C208 1.390 . S
C207 H234 0.930 . S
C208 C207 1.390 . S
C208 C209 1.391 . S
C208 H235 0.930 . S
C209 C205 1.387 . S
C209 C208 1.391 . S
C210 Tb200 2.825 . S
C210 C204 1.507 . S
C210 O223 1.238 . S
C210 O224 1.247 . S
O211 Tb200 2.347 . S
O211 C215 1.259 . S
O212 Eu201 2.418 . S
O212 C215 1.265 . S
O213 Eu201 2.384 . S
O213 C222 1.255 . S
O214 Tb200 2.366 . S
O214 C222 1.265 . S
C215 O211 1.259 . S
C215 O212 1.265 . S
O216 Eu201 2.479 . S
O216 C231 1.238 . S
O217 Eu201 2.471 . S
O217 C231 1.247 . S
O218 Eu201 2.347 . S
O218 C202 1.259 . S
O219 Tb200 2.418 . S
O219 C202 1.265 . S
O220 Tb200 2.384 . S
O220 C203 1.255 . S
O221 Eu201 2.366 . S
O221 C203 1.265 . S
C222 O213 1.255 . S
C222 O214 1.265 . S
O223 Tb200 2.479 . S
O223 C210 1.238 . S
O224 Tb200 2.471 . S
O224 C210 1.247 . S
C225 C228 1.380 . S
C225 C229 1.374 . S
C225 C231 1.507 . S
C226 C227 1.387 . S
C226 C230 1.391 . S
C227 C226 1.387 . S
C227 C228 1.384 . S
C227 H236 0.930 . S
C228 C225 1.380 . S
C228 C227 1.384 . S
C228 H237 0.931 . S
C229 C225 1.374 . S
C229 C230 1.390 . S
C229 H238 0.930 . S
C230 C226 1.391 . S
C230 C229 1.390 . S
C230 H239 0.930 . S
C231 Eu201 2.825 . S
C231 O216 1.238 . S
C231 O217 1.247 . S
C231 C225 1.507 . S
H232 C205 0.930 . S
H233 C206 0.931 . S
H234 C207 0.930 . S
H235 C208 0.930 . S
H236 C227 0.930 . S
H237 C228 0.931 . S
H238 C229 0.930 . S
H239 C230 0.930 . S
Tb240 C250 2.825 . S
Tb240 O251 2.347 . S
Tb240 O254 2.366 . S
Tb240 O259 2.418 . S
Tb240 O260 2.384 . S
Tb240 O263 2.479 . S
Tb240 O264 2.471 . S
Eu241 O252 2.418 . S
Eu241 O253 2.384 . S
Eu241 O256 2.479 . S
Eu241 O257 2.471 . S
Eu241 O258 2.347 . S
Eu241 O261 2.366 . S
Eu241 C271 2.825 . S
C242 O258 1.259 . S
C242 O259 1.265 . S
C243 O260 1.255 . S
C243 O261 1.265 . S
C244 C246 1.380 . S
C244 C247 1.374 . S
C244 C250 1.507 . S
C245 C246 1.384 . S
C245 C249 1.387 . S
C245 H272 0.930 . S
C246 C244 1.380 . S
C246 C245 1.384 . S
C246 H273 0.931 . S
C247 C244 1.374 . S
C247 C248 1.390 . S
C247 H274 0.930 . S
C248 C247 1.390 . S
C248 C249 1.391 . S
C248 H275 0.930 . S
C249 C245 1.387 . S
C249 C248 1.391 . S
C250 Tb240 2.825 . S
C250 C244 1.507 . S
C250 O263 1.238 . S
C250 O264 1.247 . S
O251 Tb240 2.347 . S
O251 C255 1.259 . S
O252 Eu241 2.418 . S
O252 C255 1.265 . S
O253 Eu241 2.384 . S
O253 C262 1.255 . S
O254 Tb240 2.366 . S
O254 C262 1.265 . S
C255 O251 1.259 . S
C255 O252 1.265 . S
O256 Eu241 2.479 . S
O256 C271 1.238 . S
O257 Eu241 2.471 . S
O257 C271 1.247 . S
O258 Eu241 2.347 . S
O258 C242 1.259 . S
O259 Tb240 2.418 . S
O259 C242 1.265 . S
O260 Tb240 2.384 . S
O260 C243 1.255 . S
O261 Eu241 2.366 . S
O261 C243 1.265 . S
C262 O253 1.255 . S
C262 O254 1.265 . S
O263 Tb240 2.479 . S
O263 C250 1.238 . S
O264 Tb240 2.471 . S
O264 C250 1.247 . S
C265 C268 1.380 . S
C265 C269 1.374 . S
C265 C271 1.507 . S
C266 C267 1.387 . S
C266 C270 1.391 . S
C267 C266 1.387 . S
C267 C268 1.384 . S
C267 H276 0.930 . S
C268 C265 1.380 . S
C268 C267 1.384 . S
C268 H277 0.931 . S
C269 C265 1.374 . S
C269 C270 1.390 . S
C269 H278 0.930 . S
C270 C266 1.391 . S
C270 C269 1.390 . S
C270 H279 0.930 . S
C271 Eu241 2.825 . S
C271 O256 1.238 . S
C271 O257 1.247 . S
C271 C265 1.507 . S
H272 C245 0.930 . S
H273 C246 0.931 . S
H274 C247 0.930 . S
H275 C248 0.930 . S
H276 C267 0.930 . S
H277 C268 0.931 . S
H278 C269 0.930 . S
H279 C270 0.930 . S
Tb280 C290 2.825 . S
Tb280 O291 2.347 . S
Tb280 O294 2.366 . S
Tb280 O299 2.418 . S
Tb280 O300 2.384 . S
Tb280 O303 2.479 . S
Tb280 O304 2.471 . S
Eu281 O292 2.418 . S
Eu281 O293 2.384 . S
Eu281 O296 2.479 . S
Eu281 O297 2.471 . S
Eu281 O298 2.347 . S
Eu281 O301 2.366 . S
Eu281 C311 2.825 . S
C282 O298 1.259 . S
C282 O299 1.265 . S
C283 O300 1.255 . S
C283 O301 1.265 . S
C284 C286 1.380 . S
C284 C287 1.374 . S
C284 C290 1.507 . S
C285 C286 1.384 . S
C285 C289 1.387 . S
C285 H312 0.930 . S
C286 C284 1.380 . S
C286 C285 1.384 . S
C286 H313 0.931 . S
C287 C284 1.374 . S
C287 C288 1.390 . S
C287 H314 0.930 . S
C288 C287 1.390 . S
C288 C289 1.391 . S
C288 H315 0.930 . S
C289 C285 1.387 . S
C289 C288 1.391 . S
C290 Tb280 2.825 . S
C290 C284 1.507 . S
C290 O303 1.238 . S
C290 O304 1.247 . S
O291 Tb280 2.347 . S
O291 C295 1.259 . S
O292 Eu281 2.418 . S
O292 C295 1.265 . S
O293 Eu281 2.384 . S
O293 C302 1.255 . S
O294 Tb280 2.366 . S
O294 C302 1.265 . S
C295 O291 1.259 . S
C295 O292 1.265 . S
O296 Eu281 2.479 . S
O296 C311 1.238 . S
O297 Eu281 2.471 . S
O297 C311 1.247 . S
O298 Eu281 2.347 . S
O298 C282 1.259 . S
O299 Tb280 2.418 . S
O299 C282 1.265 . S
O300 Tb280 2.384 . S
O300 C283 1.255 . S
O301 Eu281 2.366 . S
O301 C283 1.265 . S
C302 O293 1.255 . S
C302 O294 1.265 . S
O303 Tb280 2.479 . S
O303 C290 1.238 . S
O304 Tb280 2.471 . S
O304 C290 1.247 . S
C305 C308 1.380 . S
C305 C309 1.374 . S
C305 C311 1.507 . S
C306 C307 1.387 . S
C306 C310 1.391 . S
C307 C306 1.387 . S
C307 C308 1.384 . S
C307 H316 0.930 . S
C308 C305 1.380 . S
C308 C307 1.384 . S
C308 H317 0.931 . S
C309 C305 1.374 . S
C309 C310 1.390 . S
C309 H318 0.930 . S
C310 C306 1.391 . S
C310 C309 1.390 . S
C310 H319 0.930 . S
C311 Eu281 2.825 . S
C311 O296 1.238 . S
C311 O297 1.247 . S
C311 C305 1.507 . S
H312 C285 0.930 . S
H313 C286 0.931 . S
H314 C287 0.930 . S
H315 C288 0.930 . S
H316 C307 0.930 . S
H317 C308 0.931 . S
H318 C309 0.930 . S
H319 C310 0.930 . S
C320 O332 1.241 . S
C320 O333 1.280 . S
C321 O334 1.277 . S
C321 O335 1.245 . S
C322 O346 1.247 . S
C322 O348 1.289 . S
Mg323 O324 1.926 1_455 S
Mg323 O333 1.984 1_455 S
Mg323 O335 1.988 1_455 S
Mg323 O336 2.061 . S
O324 Mg323 1.926 1_655 S
O324 Mg325 1.986 . S
O324 Mg326 1.917 1_655 S
Mg325 O324 1.986 . S
Mg325 O332 2.042 . S
Mg325 O334 2.041 . S
Mg325 O340 2.038 1_545 S
Mg325 O348 2.238 1_545 S
Mg326 O324 1.917 1_455 S
Mg326 O327 1.917 1_545 S
Mg326 O337 2.106 . S
Mg326 O339 2.079 1_445 S
Mg326 O348 2.106 1_445 S
Mg326 O349 2.079 . S
O327 Mg326 1.917 1_565 S
O327 Mg328 1.926 . S
O327 Mg329 1.986 1_565 S
Mg328 O327 1.926 . S
Mg328 O342 1.984 . S
Mg328 O345 1.988 . S
Mg328 O346 2.061 1_455 S
Mg329 O327 1.986 1_545 S
Mg329 O337 2.238 . S
Mg329 O341 2.042 1_545 S
Mg329 O343 2.041 1_545 S
Mg329 O350 2.038 . S
C330 O336 1.247 . S
C330 O337 1.289 . S
C331 O349 1.245 . S
C331 O350 1.274 . S
O332 C320 1.241 . S
O332 Mg325 2.042 . S
O333 C320 1.280 . S
O333 Mg323 1.984 1_655 S
O334 C321 1.277 . S
O334 Mg325 2.041 . S
O335 C321 1.245 . S
O335 Mg323 1.988 1_655 S
O336 Mg323 2.061 . S
O336 C330 1.247 . S
O337 Mg326 2.106 . S
O337 Mg329 2.238 . S
O337 C330 1.289 . S
C338 O339 1.245 . S
C338 O340 1.274 . S
O339 Mg326 2.079 1_665 S
O339 C338 1.245 . S
O340 Mg325 2.038 1_565 S
O340 C338 1.274 . S
O341 Mg329 2.042 1_565 S
O341 C344 1.241 . S
O342 Mg328 1.984 . S
O342 C344 1.280 . S
O343 Mg329 2.041 1_565 S
O343 C347 1.277 . S
C344 O341 1.241 . S
C344 O342 1.280 . S
O345 Mg328 1.988 . S
O345 C347 1.245 . S
O346 C322 1.247 . S
O346 Mg328 2.061 1_655 S
C347 O343 1.277 . S
C347 O345 1.245 . S
O348 C322 1.289 . S
O348 Mg325 2.238 1_565 S
O348 Mg326 2.106 1_665 S
O349 Mg326 2.079 . S
O349 C331 1.245 . S
O350 Mg329 2.038 . S
O350 C331 1.274 . S
C351 O363 1.241 . S
C351 O364 1.280 . S
C352 O365 1.278 1_556 S
C352 O366 1.247 1_556 S
C353 O377 1.247 . S
C353 O379 1.289 1_556 S
Mg354 O355 1.926 . S
Mg354 O364 1.984 . S
Mg354 O366 1.988 . S
Mg354 O367 2.061 . S
O355 Mg354 1.926 . S
O355 Mg356 1.983 1_545 S
O355 Mg357 1.917 . S
Mg356 O355 1.983 1_565 S
Mg356 O363 2.029 1_565 S
Mg356 O365 2.027 1_565 S
Mg356 O371 2.053 . S
Mg356 O379 2.251 . S
Mg357 O355 1.917 . S
Mg357 O358 1.917 1_545 S
Mg357 O368 2.106 . S
Mg357 O370 2.079 1_545 S
Mg357 O379 2.106 1_545 S
Mg357 O380 2.079 . S
O358 Mg357 1.917 1_565 S
O358 Mg359 1.926 . S
O358 Mg360 1.986 1_565 S
Mg359 O358 1.926 . S
Mg359 O373 1.984 1_554 S
Mg359 O376 1.988 . S
Mg359 O377 2.061 1_554 S
Mg360 O358 1.986 1_545 S
Mg360 O368 2.238 . S
Mg360 O372 2.042 1_545 S
Mg360 O374 2.041 1_545 S
Mg360 O381 2.038 . S
C361 O367 1.247 . S
C361 O368 1.289 . S
C362 O380 1.245 1_556 S
C362 O381 1.274 1_556 S
O363 C351 1.241 . S
O363 Mg356 2.029 1_545 S
O364 C351 1.280 . S
O364 Mg354 1.984 . S
O365 C352 1.278 1_554 S
O365 Mg356 2.027 1_545 S
O366 C352 1.247 1_554 S
O366 Mg354 1.988 . S
O367 Mg354 2.061 . S
O367 C361 1.247 . S
O368 Mg357 2.106 . S
O368 Mg360 2.238 . S
O368 C361 1.289 . S
C369 O370 1.245 . S
C369 O371 1.274 . S
O370 Mg357 2.079 1_565 S
O370 C369 1.245 . S
O371 Mg356 2.053 . S
O371 C369 1.274 . S
O372 Mg360 2.042 1_565 S
O372 C375 1.241 1_554 S
O373 Mg359 1.984 1_556 S
O373 C375 1.280 . S
O374 Mg360 2.041 1_565 S
O374 C378 1.277 . S
C375 O372 1.241 1_556 S
C375 O373 1.280 . S
O376 Mg359 1.988 . S
O376 C378 1.245 . S
O377 C353 1.247 . S
O377 Mg359 2.061 1_556 S
C378 O374 1.277 . S
C378 O376 1.245 . S
O379 C353 1.289 1_554 S
O379 Mg356 2.251 . S
O379 Mg357 2.106 1_565 S
O380 Mg357 2.079 . S
O380 C362 1.245 1_554 S
O381 Mg360 2.038 . S
O381 C362 1.274 1_554 S
C382 O394 1.241 . S
C382 O395 1.280 . S
C383 O396 1.277 . S
C383 O397 1.245 1_655 S
C384 O408 1.247 . S
C384 O410 1.289 . S
Mg385 O386 1.926 . S
Mg385 O395 1.984 1_455 S
Mg385 O397 1.988 1_554 S
Mg385 O398 2.061 . S
O386 Mg385 1.926 . S
O386 Mg387 1.986 1_455 S
O386 Mg388 1.917 . S
Mg387 O386 1.986 1_655 S
Mg387 O394 2.042 . S
Mg387 O396 2.041 1_554 S
Mg387 O402 2.038 . S
Mg387 O410 2.238 1_554 S
Mg388 O386 1.917 . S
Mg388 O389 1.917 1_554 S
Mg388 O399 2.106 . S
Mg388 O401 2.079 . S
Mg388 O410 2.106 1_454 S
Mg388 O411 2.079 1_554 S
O389 Mg388 1.917 1_556 S
O389 Mg390 1.926 . S
O389 Mg391 1.980 1_556 S
Mg390 O389 1.926 . S
Mg390 O404 1.984 . S
Mg390 O407 1.988 1_556 S
Mg390 O408 2.061 1_455 S
Mg391 O389 1.980 1_554 S
Mg391 O399 2.257 . S
Mg391 O403 2.019 1_554 S
Mg391 O405 2.071 . S
Mg391 O412 2.010 1_554 S
C392 O398 1.247 . S
C392 O399 1.289 . S
C393 O411 1.245 . S
C393 O412 1.274 . S
O394 C382 1.241 . S
O394 Mg387 2.042 . S
O395 C382 1.280 . S
O395 Mg385 1.984 1_655 S
O396 C383 1.277 . S
O396 Mg387 2.041 1_556 S
O397 C383 1.245 1_455 S
O397 Mg385 1.988 1_556 S
O398 Mg385 2.061 . S
O398 C392 1.247 . S
O399 Mg388 2.106 . S
O399 Mg391 2.257 . S
O399 C392 1.289 . S
C400 O401 1.245 1_655 S
C400 O402 1.274 . S
O401 Mg388 2.079 . S
O401 C400 1.245 1_455 S
O402 Mg387 2.038 . S
O402 C400 1.274 . S
O403 Mg391 2.019 1_556 S
O403 C406 1.241 . S
O404 Mg390 1.984 . S
O404 C406 1.280 . S
O405 Mg391 2.071 . S
O405 C409 1.277 . S
C406 O403 1.241 . S
C406 O404 1.280 . S
O407 Mg390 1.988 1_554 S
O407 C409 1.245 . S
O408 C384 1.247 . S
O408 Mg390 2.061 1_655 S
C409 O405 1.277 . S
C409 O407 1.245 . S
O410 C384 1.289 . S
O410 Mg387 2.238 1_556 S
O410 Mg388 2.106 1_656 S
O411 Mg388 2.079 1_556 S
O411 C393 1.245 . S
O412 Mg391 2.010 1_556 S
O412 C393 1.274 . S
C413 O425 1.241 . S
C413 O426 1.280 . S
C414 O427 1.277 . S
C414 O428 1.257 . S
C415 O439 1.247 . S
C415 O441 1.289 . S
Mg416 O417 1.926 . S
Mg416 O426 1.984 . S
Mg416 O428 1.964 1_554 S
Mg416 O429 2.061 . S
O417 Mg416 1.926 . S
O417 Mg418 1.986 . S
O417 Mg419 1.917 . S
Mg418 O417 1.986 . S
Mg418 O425 2.042 . S
Mg418 O427 2.041 1_554 S
Mg418 O433 2.038 . S
Mg418 O441 2.238 1_554 S
Mg419 O417 1.917 . S
Mg419 O420 1.917 . S
Mg419 O430 2.106 . S
Mg419 O432 2.079 . S
Mg419 O441 2.106 1_554 S
Mg419 O442 2.079 1_554 S
O420 Mg419 1.917 . S
O420 Mg421 1.926 . S
O420 Mg422 1.986 . S
Mg421 O420 1.926 . S
Mg421 O435 1.984 1_554 S
Mg421 O438 1.988 . S
Mg421 O439 2.061 1_554 S
Mg422 O420 1.986 . S
Mg422 O430 2.238 . S
Mg422 O434 2.042 1_554 S
Mg422 O436 2.041 . S
Mg422 O443 2.038 1_554 S
C423 O429 1.247 . S
C423 O430 1.289 . S
C424 O442 1.245 . S
C424 O443 1.274 . S
O425 C413 1.241 . S
O425 Mg418 2.042 . S
O426 C413 1.280 . S
O426 Mg416 1.984 . S
O427 C414 1.277 . S
O427 Mg418 2.041 1_556 S
O428 C414 1.257 . S
O428 Mg416 1.964 1_556 S
O429 Mg416 2.061 . S
O429 C423 1.247 . S
O430 Mg419 2.106 . S
O430 Mg422 2.238 . S
O430 C423 1.289 . S
C431 O432 1.245 . S
C431 O433 1.274 . S
O432 Mg419 2.079 . S
O432 C431 1.245 . S
O433 Mg418 2.038 . S
O433 C431 1.274 . S
O434 Mg422 2.042 1_556 S
O434 C437 1.241 . S
O435 Mg421 1.984 1_556 S
O435 C437 1.280 . S
O436 Mg422 2.041 . S
O436 C440 1.277 . S
C437 O434 1.241 . S
C437 O435 1.280 . S
O438 Mg421 1.988 . S
O438 C440 1.245 . S
O439 C415 1.247 . S
O439 Mg421 2.061 1_556 S
C440 O436 1.277 . S
C440 O438 1.245 . S
O441 C415 1.289 . S
O441 Mg418 2.238 1_556 S
O441 Mg419 2.106 1_556 S
O442 Mg419 2.079 1_556 S
O442 C424 1.245 . S
O443 Mg422 2.038 1_556 S
O443 C424 1.274 . S
C444 O456 1.241 . S
C444 O457 1.280 . S
C445 O458 1.277 . S
C445 O459 1.245 . S
C446 O470 1.247 . S
C446 O472 1.289 . S
Mg447 O448 1.927 1_455 S
Mg447 O457 1.972 1_455 S
Mg447 O459 1.982 1_455 S
Mg447 O460 2.076 . S
O448 Mg447 1.927 1_655 S
O448 Mg449 1.986 . S
O448 Mg450 1.917 1_655 S
Mg449 O448 1.986 . S
Mg449 O456 2.042 . S
Mg449 O458 2.041 . S
Mg449 O464 2.038 . S
Mg449 O472 2.238 . S
Mg450 O448 1.917 1_455 S
Mg450 O451 1.917 . S
Mg450 O461 2.106 . S
Mg450 O463 2.079 1_455 S
Mg450 O472 2.106 1_455 S
Mg450 O473 2.079 . S
O451 Mg450 1.917 . S
O451 Mg452 1.926 . S
O451 Mg453 1.986 . S
Mg452 O451 1.926 . S
Mg452 O466 1.984 . S
Mg452 O469 1.988 . S
Mg452 O470 2.061 1_455 S
Mg453 O451 1.986 . S
Mg453 O461 2.238 . S
Mg453 O465 2.042 . S
Mg453 O467 2.041 . S
Mg453 O474 2.038 . S
C454 O460 1.247 . S
C454 O461 1.289 . S
C455 O473 1.245 . S
C455 O474 1.274 . S
O456 C444 1.241 . S
O456 Mg449 2.042 . S
O457 C444 1.280 . S
O457 Mg447 1.972 1_655 S
O458 C445 1.277 . S
O458 Mg449 2.041 . S
O459 C445 1.245 . S
O459 Mg447 1.982 1_655 S
O460 Mg447 2.076 . S
O460 C454 1.247 . S
O461 Mg450 2.106 . S
O461 Mg453 2.238 . S
O461 C454 1.289 . S
C462 O463 1.245 . S
C462 O464 1.274 . S
O463 Mg450 2.079 1_655 S
O463 C462 1.245 . S
O464 Mg449 2.038 . S
O464 C462 1.274 . S
O465 Mg453 2.042 . S
O465 C468 1.241 . S
O466 Mg452 1.984 . S
O466 C468 1.280 . S
O467 Mg453 2.041 . S
O467 C471 1.277 . S
C468 O465 1.241 . S
C468 O466 1.280 . S
O469 Mg452 1.988 . S
O469 C471 1.245 . S
O470 C446 1.247 . S
O470 Mg452 2.061 1_655 S
C471 O467 1.277 . S
C471 O469 1.245 . S
O472 C446 1.289 . S
O472 Mg449 2.238 . S
O472 Mg450 2.106 1_655 S
O473 Mg450 2.079 . S
O473 C455 1.245 . S
O474 Mg453 2.038 . S
O474 C455 1.274 . S
C475 O487 1.241 . S
C475 O488 1.280 . S
C476 O489 1.277 . S
C476 O490 1.245 . S
C477 O501 1.247 . S
C477 O503 1.289 1_565 S
Mg478 O479 1.926 . S
Mg478 O488 1.984 . S
Mg478 O490 1.988 . S
Mg478 O491 2.061 . S
O479 Mg478 1.926 . S
O479 Mg480 1.986 . S
O479 Mg481 1.917 . S
Mg480 O479 1.986 . S
Mg480 O487 2.042 . S
Mg480 O489 2.041 . S
Mg480 O495 2.038 1_545 S
Mg480 O503 2.238 . S
Mg481 O479 1.917 . S
Mg481 O482 1.917 . S
Mg481 O492 2.106 . S
Mg481 O494 2.096 . S
Mg481 O503 2.106 . S
Mg481 O504 2.079 . S
O482 Mg481 1.917 . S
O482 Mg483 1.926 1_545 S
O482 Mg484 1.986 . S
Mg483 O482 1.926 1_565 S
Mg483 O497 1.984 . S
Mg483 O500 1.988 . S
Mg483 O501 2.061 . S
Mg484 O482 1.986 . S
Mg484 O492 2.238 . S
Mg484 O496 2.042 . S
Mg484 O498 2.041 . S
Mg484 O505 2.038 . S
C485 O491 1.247 . S
C485 O492 1.289 . S
C486 O504 1.245 . S
C486 O505 1.274 . S
O487 C475 1.241 . S
O487 Mg480 2.042 . S
O488 C475 1.280 . S
O488 Mg478 1.984 . S
O489 C476 1.277 . S
O489 Mg480 2.041 . S
O490 C476 1.245 . S
O490 Mg478 1.988 . S
O491 Mg478 2.061 . S
O491 C485 1.247 . S
O492 Mg481 2.106 . S
O492 Mg484 2.238 . S
O492 C485 1.289 . S
C493 O494 1.248 1_565 S
C493 O495 1.274 . S
O494 Mg481 2.096 . S
O494 C493 1.248 1_545 S
O495 Mg480 2.038 1_565 S
O495 C493 1.274 . S
O496 Mg484 2.042 . S
O496 C499 1.241 1_545 S
O497 Mg483 1.984 . S
O497 C499 1.280 . S
O498 Mg484 2.041 . S
O498 C502 1.277 1_545 S
C499 O496 1.241 1_565 S
C499 O497 1.280 . S
O500 Mg483 1.988 . S
O500 C502 1.245 . S
O501 C477 1.247 . S
O501 Mg483 2.061 . S
C502 O498 1.277 1_565 S
C502 O500 1.245 . S
O503 C477 1.289 1_545 S
O503 Mg480 2.238 . S
O503 Mg481 2.106 . S
O504 Mg481 2.079 . S
O504 C486 1.245 . S
O505 Mg484 2.038 . S
O505 C486 1.274 . S
H506 C512 0.930 . S
H507 C516 0.930 . S
H508 C521 0.929 . S
H509 C519 0.929 . S
H510 C514 0.929 . S
H511 C520 0.929 . S
C512 H506 0.930 . S
C512 C513 1.367 . S
C512 C520 1.378 . S
C513 C512 1.367 . S
C513 C521 1.433 . S
C514 H510 0.929 . S
C514 C516 1.378 . S
C514 C518 1.350 . S
C515 C518 1.463 . S
C515 C520 1.350 . S
C515 N523 1.427 . S
C516 H507 0.930 . S
C516 C514 1.378 . S
C516 C517 1.367 . S
C517 C516 1.367 . S
C517 C519 1.433 . S
C518 C514 1.350 . S
C518 C515 1.463 . S
C518 N522 1.427 . S
C519 H509 0.929 . S
C519 C517 1.433 . S
C519 N522 1.384 . S
C520 H511 0.929 . S
C520 C512 1.378 . S
C520 C515 1.350 . S
C521 H508 0.929 . S
C521 C513 1.433 . S
C521 N523 1.384 . S
N522 C518 1.427 . S
N522 C519 1.384 . S
N523 C515 1.427 . S
N523 C521 1.384 . S
H524 C530 0.930 . S
H525 C534 0.930 . S
H526 C539 0.929 . S
H527 C537 0.929 . S
H528 C532 0.929 . S
H529 C538 0.929 . S
C530 H524 0.930 . S
C530 C531 1.367 . S
C530 C538 1.378 . S
C531 C530 1.367 . S
C531 C539 1.433 . S
C532 H528 0.929 . S
C532 C534 1.378 . S
C532 C536 1.350 . S
C533 C536 1.463 . S
C533 C538 1.350 . S
C533 N541 1.427 . S
C534 H525 0.930 . S
C534 C532 1.378 . S
C534 C535 1.367 . S
C535 C534 1.367 . S
C535 C537 1.433 . S
C536 C532 1.350 . S
C536 C533 1.463 . S
C536 N540 1.427 . S
C537 H527 0.929 . S
C537 C535 1.433 . S
C537 N540 1.384 . S
C538 H529 0.929 . S
C538 C530 1.378 . S
C538 C533 1.350 . S
C539 H526 0.929 . S
C539 C531 1.433 . S
C539 N541 1.384 . S
N540 C536 1.427 . S
N540 C537 1.384 . S
N541 C533 1.427 . S
N541 C539 1.384 . S
H542 C548 0.930 . S
H543 C552 0.930 . S
H544 C557 0.929 . S
H545 C555 0.929 . S
H546 C550 0.929 . S
H547 C556 0.929 . S
C548 H542 0.930 . S
C548 C549 1.367 . S
C548 C556 1.378 . S
C549 C548 1.367 . S
C549 C557 1.433 . S
C550 H546 0.929 . S
C550 C552 1.378 . S
C550 C554 1.350 . S
C551 C554 1.463 . S
C551 C556 1.350 . S
C551 N559 1.427 . S
C552 H543 0.930 . S
C552 C550 1.378 . S
C552 C553 1.367 . S
C553 C552 1.367 . S
C553 C555 1.433 . S
C554 C550 1.350 . S
C554 C551 1.463 . S
C554 N558 1.427 . S
C555 H545 0.929 . S
C555 C553 1.433 . S
C555 N558 1.384 . S
C556 H547 0.929 . S
C556 C548 1.378 . S
C556 C551 1.350 . S
C557 H544 0.929 . S
C557 C549 1.433 . S
C557 N559 1.384 . S
N558 C554 1.427 . S
N558 C555 1.384 . S
N559 C551 1.427 . S
N559 C557 1.384 . S
H560 C566 0.930 . S
H561 C570 0.930 . S
H562 C575 0.929 . S
H563 C573 0.929 . S
H564 C568 0.929 . S
H565 C574 0.929 . S
C566 H560 0.930 . S
C566 C567 1.367 . S
C566 C574 1.378 . S
C567 C566 1.367 . S
C567 C575 1.433 . S
C568 H564 0.929 . S
C568 C570 1.378 . S
C568 C572 1.350 . S
C569 C572 1.463 . S
C569 C574 1.350 . S
C569 N577 1.427 . S
C570 H561 0.930 . S
C570 C568 1.378 . S
C570 C571 1.367 . S
C571 C570 1.367 . S
C571 C573 1.433 . S
C572 C568 1.350 . S
C572 C569 1.463 . S
C572 N576 1.427 . S
C573 H563 0.929 . S
C573 C571 1.433 . S
C573 N576 1.384 . S
C574 H565 0.929 . S
C574 C566 1.378 . S
C574 C569 1.350 . S
C575 H562 0.929 . S
C575 C567 1.433 . S
C575 N577 1.384 . S
N576 C572 1.427 . S
N576 C573 1.384 . S
N577 C569 1.427 . S
N577 C575 1.384 . S
H578 C584 0.930 . S
H579 C588 0.928 . S
H580 C593 0.929 . S
H581 C591 0.929 . S
H582 C586 0.929 . S
H583 C592 0.929 . S
C584 H578 0.930 . S
C584 C585 1.367 . S
C584 C592 1.378 . S
C585 C584 1.367 . S
C585 C593 1.433 . S
C586 H582 0.929 . S
C586 C588 1.378 . S
C586 C590 1.350 . S
C587 C590 1.463 . S
C587 C592 1.350 . S
C587 N595 1.427 . S
C588 H579 0.928 . S
C588 C586 1.378 . S
C588 C589 1.367 . S
C589 C588 1.367 . S
C589 C591 1.433 . S
C590 C586 1.350 . S
C590 C587 1.463 . S
C590 N594 1.427 . S
C591 H581 0.929 . S
C591 C589 1.433 . S
C591 N594 1.384 . S
C592 H583 0.929 . S
C592 C584 1.378 . S
C592 C587 1.350 . S
C593 H580 0.929 . S
C593 C585 1.433 . S
C593 N595 1.384 . S
N594 C590 1.427 . S
N594 C591 1.384 . S
N595 C587 1.427 . S
N595 C593 1.384 . S
H596 C602 0.930 . S
H597 C606 0.930 . S
H598 C611 0.929 . S
H599 C609 0.929 . S
H600 C604 0.929 . S
H601 C610 0.929 . S
C602 H596 0.930 . S
C602 C603 1.367 . S
C602 C610 1.378 . S
C603 C602 1.367 . S
C603 C611 1.433 . S
C604 H600 0.929 . S
C604 C606 1.378 . S
C604 C608 1.350 . S
C605 C608 1.463 . S
C605 C610 1.350 . S
C605 N613 1.427 . S
C606 H597 0.930 . S
C606 C604 1.378 . S
C606 C607 1.367 . S
C607 C606 1.367 . S
C607 C609 1.433 . S
C608 C604 1.350 . S
C608 C605 1.463 . S
C608 N612 1.427 . S
C609 H599 0.929 . S
C609 C607 1.433 . S
C609 N612 1.384 . S
C610 H601 0.929 . S
C610 C602 1.378 . S
C610 C605 1.350 . S
C611 H598 0.929 . S
C611 C603 1.433 . S
C611 N613 1.384 . S
N612 C608 1.427 . S
N612 C609 1.384 . S
N613 C605 1.427 . S
N613 C611 1.384 . S
H614 C620 0.930 . S
H615 C624 0.930 . S
H616 C629 0.929 . S
H617 C627 0.929 . S
H618 C622 0.929 . S
H619 C628 0.929 . S
C620 H614 0.930 . S
C620 C621 1.367 . S
C620 C628 1.378 . S
C621 C620 1.367 . S
C621 C629 1.433 . S
C622 H618 0.929 . S
C622 C624 1.378 . S
C622 C626 1.350 . S
C623 C626 1.463 . S
C623 C628 1.350 . S
C623 N631 1.427 . S
C624 H615 0.930 . S
C624 C622 1.378 . S
C624 C625 1.367 . S
C625 C624 1.367 . S
C625 C627 1.433 . S
C626 C622 1.350 . S
C626 C623 1.463 . S
C626 N630 1.427 . S
C627 H617 0.929 . S
C627 C625 1.433 . S
C627 N630 1.384 . S
C628 H619 0.929 . S
C628 C620 1.378 . S
C628 C623 1.350 . S
C629 H616 0.929 . S
C629 C621 1.433 . S
C629 N631 1.384 . S
N630 C626 1.427 . S
N630 C627 1.384 . S
N631 C623 1.427 . S
N631 C629 1.384 . S
H632 C638 0.930 . S
H633 C642 0.930 . S
H634 C647 0.929 . S
H635 C645 0.929 . S
H636 C640 0.929 . S
H637 C646 0.929 . S
C638 H632 0.930 . S
C638 C639 1.367 . S
C638 C646 1.378 . S
C639 C638 1.367 . S
C639 C647 1.433 . S
C640 H636 0.929 . S
C640 C642 1.378 . S
C640 C644 1.350 . S
C641 C644 1.463 . S
C641 C646 1.350 . S
C641 N649 1.427 . S
C642 H633 0.930 . S
C642 C640 1.378 . S
C642 C643 1.367 . S
C643 C642 1.367 . S
C643 C645 1.433 . S
C644 C640 1.350 . S
C644 C641 1.463 . S
C644 N648 1.427 . S
C645 H635 0.929 . S
C645 C643 1.433 . S
C645 N648 1.384 . S
C646 H637 0.929 . S
C646 C638 1.378 . S
C646 C641 1.350 . S
C647 H634 0.929 . S
C647 C639 1.433 . S
C647 N649 1.384 . S
N648 C644 1.427 . S
N648 C645 1.384 . S
N649 C641 1.427 . S
N649 C647 1.384 . S
H650 C656 0.930 . S
H651 C660 0.930 . S
H652 C665 0.929 . S
H653 C663 0.929 . S
H654 C658 0.929 . S
H655 C664 0.929 . S
C656 H650 0.930 . S
C656 C657 1.367 . S
C656 C664 1.378 . S
C657 C656 1.367 . S
C657 C665 1.433 . S
C658 H654 0.929 . S
C658 C660 1.378 . S
C658 C662 1.350 . S
C659 C662 1.463 . S
C659 C664 1.350 . S
C659 N667 1.427 . S
C660 H651 0.930 . S
C660 C658 1.378 . S
C660 C661 1.367 . S
C661 C660 1.367 . S
C661 C663 1.433 . S
C662 C658 1.350 . S
C662 C659 1.463 . S
C662 N666 1.427 . S
C663 H653 0.929 . S
C663 C661 1.433 . S
C663 N666 1.384 . S
C664 H655 0.929 . S
C664 C656 1.378 . S
C664 C659 1.350 . S
C665 H652 0.929 . S
C665 C657 1.433 . S
C665 N667 1.384 . S
N666 C662 1.427 . S
N666 C663 1.384 . S
N667 C659 1.427 . S
N667 C665 1.384 . S
H668 C674 0.930 . S
H669 C678 0.930 . S
H670 C683 0.929 . S
H671 C681 0.929 . S
H672 C676 0.929 . S
H673 C682 0.929 . S
C674 H668 0.930 . S
C674 C675 1.367 . S
C674 C682 1.378 . S
C675 C674 1.367 . S
C675 C683 1.433 . S
C676 H672 0.929 . S
C676 C678 1.378 . S
C676 C680 1.350 . S
C677 C680 1.463 . S
C677 C682 1.350 . S
C677 N685 1.427 . S
C678 H669 0.930 . S
C678 C676 1.378 . S
C678 C679 1.367 . S
C679 C678 1.367 . S
C679 C681 1.433 . S
C680 C676 1.350 . S
C680 C677 1.463 . S
C680 N684 1.427 . S
C681 H671 0.929 . S
C681 C679 1.433 . S
C681 N684 1.384 . S
C682 H673 0.929 . S
C682 C674 1.378 . S
C682 C677 1.350 . S
C683 H670 0.929 . S
C683 C675 1.433 . S
C683 N685 1.384 . S
N684 C680 1.427 . S
N684 C681 1.384 . S
N685 C677 1.427 . S
N685 C683 1.384 . S
H686 C692 0.930 . S
H687 C696 0.930 . S
H688 C701 0.929 . S
H689 C699 0.929 . S
H690 C694 0.929 . S
H691 C700 0.929 . S
C692 H686 0.930 . S
C692 C693 1.367 . S
C692 C700 1.378 . S
C693 C692 1.367 . S
C693 C701 1.433 . S
C694 H690 0.929 . S
C694 C696 1.378 . S
C694 C698 1.350 . S
C695 C698 1.463 . S
C695 C700 1.350 . S
C695 N703 1.427 . S
C696 H687 0.930 . S
C696 C694 1.378 . S
C696 C697 1.367 . S
C697 C696 1.367 . S
C697 C699 1.433 . S
C698 C694 1.350 . S
C698 C695 1.463 . S
C698 N702 1.427 . S
C699 H689 0.929 . S
C699 C697 1.433 . S
C699 N702 1.384 . S
C700 H691 0.929 . S
C700 C692 1.378 . S
C700 C695 1.350 . S
C701 H688 0.929 . S
C701 C693 1.433 . S
C701 N703 1.384 . S
N702 C698 1.427 . S
N702 C699 1.384 . S
N703 C695 1.427 . S
N703 C701 1.384 . S
H704 C710 0.930 . S
H705 C714 0.930 . S
H706 C719 0.929 . S
H707 C717 0.929 . S
H708 C712 0.929 . S
H709 C718 0.929 . S
C710 H704 0.930 . S
C710 C711 1.367 . S
C710 C718 1.378 . S
C711 C710 1.367 . S
C711 C719 1.433 . S
C712 H708 0.929 . S
C712 C714 1.378 . S
C712 C716 1.350 . S
C713 C716 1.463 . S
C713 C718 1.350 . S
C713 N721 1.427 . S
C714 H705 0.930 . S
C714 C712 1.378 . S
C714 C715 1.367 . S
C715 C714 1.367 . S
C715 C717 1.433 . S
C716 C712 1.350 . S
C716 C713 1.463 . S
C716 N720 1.427 . S
C717 H707 0.929 . S
C717 C715 1.433 . S
C717 N720 1.384 . S
C718 H709 0.929 . S
C718 C710 1.378 . S
C718 C713 1.350 . S
C719 H706 0.929 . S
C719 C711 1.433 . S
C719 N721 1.384 . S
N720 C716 1.427 . S
N720 C717 1.384 . S
N721 C713 1.427 . S
N721 C719 1.384 . S
H722 C728 0.930 . S
H723 C732 0.930 . S
H724 C737 0.929 . S
H725 C735 0.929 . S
H726 C730 0.929 . S
H727 C736 0.929 . S
C728 H722 0.930 . S
C728 C729 1.367 . S
C728 C736 1.378 . S
C729 C728 1.367 . S
C729 C737 1.433 . S
C730 H726 0.929 . S
C730 C732 1.378 . S
C730 C734 1.350 . S
C731 C734 1.463 . S
C731 C736 1.350 . S
C731 N739 1.427 . S
C732 H723 0.930 . S
C732 C730 1.378 . S
C732 C733 1.367 . S
C733 C732 1.367 . S
C733 C735 1.433 . S
C734 C730 1.350 . S
C734 C731 1.463 . S
C734 N738 1.427 . S
C735 H725 0.929 . S
C735 C733 1.433 . S
C735 N738 1.384 . S
C736 H727 0.929 . S
C736 C728 1.378 . S
C736 C731 1.350 . S
C737 H724 0.929 . S
C737 C729 1.433 . S
C737 N739 1.384 . S
N738 C734 1.427 . S
N738 C735 1.384 . S
N739 C731 1.427 . S
N739 C737 1.384 . S
H740 C746 0.930 . S
H741 C750 0.930 . S
H742 C755 0.929 . S
H743 C753 0.929 . S
H744 C748 0.929 . S
H745 C754 0.929 . S
C746 H740 0.930 . S
C746 C747 1.367 . S
C746 C754 1.378 . S
C747 C746 1.367 . S
C747 C755 1.433 . S
C748 H744 0.929 . S
C748 C750 1.378 . S
C748 C752 1.350 . S
C749 C752 1.463 . S
C749 C754 1.350 . S
C749 N757 1.427 . S
C750 H741 0.930 . S
C750 C748 1.378 . S
C750 C751 1.367 . S
C751 C750 1.367 . S
C751 C753 1.433 . S
C752 C748 1.350 . S
C752 C749 1.463 . S
C752 N756 1.427 . S
C753 H743 0.929 . S
C753 C751 1.433 . S
C753 N756 1.384 . S
C754 H745 0.929 . S
C754 C746 1.378 . S
C754 C749 1.350 . S
C755 H742 0.929 . S
C755 C747 1.433 . S
C755 N757 1.384 . S
N756 C752 1.427 . S
N756 C753 1.384 . S
N757 C749 1.427 . S
N757 C755 1.384 . S
H758 C764 0.930 . S
H759 C768 0.930 . S
H760 C773 0.929 . S
H761 C771 0.929 . S
H762 C766 0.929 . S
H763 C772 0.929 . S
C764 H758 0.930 . S
C764 C765 1.367 . S
C764 C772 1.378 . S
C765 C764 1.367 . S
C765 C773 1.433 . S
C766 H762 0.929 . S
C766 C768 1.378 . S
C766 C770 1.350 . S
C767 C770 1.463 . S
C767 C772 1.350 . S
C767 N775 1.427 . S
C768 H759 0.930 . S
C768 C766 1.378 . S
C768 C769 1.367 . S
C769 C768 1.367 . S
C769 C771 1.433 . S
C770 C766 1.350 . S
C770 C767 1.463 . S
C770 N774 1.427 . S
C771 H761 0.929 . S
C771 C769 1.433 . S
C771 N774 1.384 . S
C772 H763 0.929 . S
C772 C764 1.378 . S
C772 C767 1.350 . S
C773 H760 0.929 . S
C773 C765 1.433 . S
C773 N775 1.384 . S
N774 C770 1.427 . S
N774 C771 1.384 . S
N775 C767 1.427 . S
N775 C773 1.384 . S
H776 C782 0.930 . S
H777 C786 0.930 . S
H778 C791 0.929 . S
H779 C789 0.929 . S
H780 C784 0.929 . S
H781 C790 0.929 . S
C782 H776 0.930 . S
C782 C783 1.367 . S
C782 C790 1.378 . S
C783 C782 1.367 . S
C783 C791 1.433 . S
C784 H780 0.929 . S
C784 C786 1.378 . S
C784 C788 1.350 . S
C785 C788 1.463 . S
C785 C790 1.350 . S
C785 N793 1.427 . S
C786 H777 0.930 . S
C786 C784 1.378 . S
C786 C787 1.367 . S
C787 C786 1.367 . S
C787 C789 1.433 . S
C788 C784 1.350 . S
C788 C785 1.463 . S
C788 N792 1.427 . S
C789 H779 0.929 . S
C789 C787 1.433 . S
C789 N792 1.384 . S
C790 H781 0.929 . S
C790 C782 1.378 . S
C790 C785 1.350 . S
C791 H778 0.929 . S
C791 C783 1.433 . S
C791 N793 1.384 . S
N792 C788 1.427 . S
N792 C789 1.384 . S
N793 C785 1.427 . S
N793 C791 1.384 . S
H794 C800 0.930 . S
H795 C804 0.930 . S
H796 C809 0.929 . S
H797 C807 0.929 . S
H798 C802 0.929 . S
H799 C808 0.929 . S
C800 H794 0.930 . S
C800 C801 1.367 . S
C800 C808 1.378 . S
C801 C800 1.367 . S
C801 C809 1.433 . S
C802 H798 0.929 . S
C802 C804 1.378 . S
C802 C806 1.350 . S
C803 C806 1.463 . S
C803 C808 1.350 . S
C803 N811 1.427 . S
C804 H795 0.930 . S
C804 C802 1.378 . S
C804 C805 1.367 . S
C805 C804 1.367 . S
C805 C807 1.433 . S
C806 C802 1.350 . S
C806 C803 1.463 . S
C806 N810 1.427 . S
C807 H797 0.929 . S
C807 C805 1.433 . S
C807 N810 1.384 . S
C808 H799 0.929 . S
C808 C800 1.378 . S
C808 C803 1.350 . S
C809 H796 0.929 . S
C809 C801 1.433 . S
C809 N811 1.384 . S
N810 C806 1.427 . S
N810 C807 1.384 . S
N811 C803 1.427 . S
N811 C809 1.384 . S
H812 C818 0.930 . S
H813 C822 0.930 . S
H814 C827 0.929 . S
H815 C825 0.929 . S
H816 C820 0.929 . S
H817 C826 0.929 . S
C818 H812 0.930 . S
C818 C819 1.367 . S
C818 C826 1.378 . S
C819 C818 1.367 . S
C819 C827 1.433 . S
C820 H816 0.929 . S
C820 C822 1.378 . S
C820 C824 1.350 . S
C821 C824 1.463 . S
C821 C826 1.350 . S
C821 N829 1.427 . S
C822 H813 0.930 . S
C822 C820 1.378 . S
C822 C823 1.367 . S
C823 C822 1.367 . S
C823 C825 1.433 . S
C824 C820 1.350 . S
C824 C821 1.463 . S
C824 N828 1.427 . S
C825 H815 0.929 . S
C825 C823 1.433 . S
C825 N828 1.384 . S
C826 H817 0.929 . S
C826 C818 1.378 . S
C826 C821 1.350 . S
C827 H814 0.929 . S
C827 C819 1.433 . S
C827 N829 1.384 . S
N828 C824 1.427 . S
N828 C825 1.384 . S
N829 C821 1.427 . S
N829 C827 1.384 . S
H830 C836 0.930 . S
H831 C840 0.930 . S
H832 C845 0.929 . S
H833 C843 0.929 . S
H834 C838 0.929 . S
H835 C844 0.929 . S
C836 H830 0.930 . S
C836 C837 1.367 . S
C836 C844 1.378 . S
C837 C836 1.367 . S
C837 C845 1.433 . S
C838 H834 0.929 . S
C838 C840 1.378 . S
C838 C842 1.350 . S
C839 C842 1.463 . S
C839 C844 1.350 . S
C839 N847 1.427 . S
C840 H831 0.930 . S
C840 C838 1.378 . S
C840 C841 1.367 . S
C841 C840 1.367 . S
C841 C843 1.433 . S
C842 C838 1.350 . S
C842 C839 1.463 . S
C842 N846 1.427 . S
C843 H833 0.929 . S
C843 C841 1.433 . S
C843 N846 1.384 . S
C844 H835 0.929 . S
C844 C836 1.378 . S
C844 C839 1.350 . S
C845 H832 0.929 . S
C845 C837 1.433 . S
C845 N847 1.384 . S
N846 C842 1.427 . S
N846 C843 1.384 . S
N847 C839 1.427 . S
N847 C845 1.384 . S
H848 C854 0.930 . S
H849 C858 0.930 . S
H850 C863 0.929 . S
H851 C861 0.929 . S
H852 C856 0.929 . S
H853 C862 0.929 . S
C854 H848 0.930 . S
C854 C855 1.367 . S
C854 C862 1.378 . S
C855 C854 1.367 . S
C855 C863 1.433 . S
C856 H852 0.929 . S
C856 C858 1.378 . S
C856 C860 1.350 . S
C857 C860 1.463 . S
C857 C862 1.350 . S
C857 N865 1.427 . S
C858 H849 0.930 . S
C858 C856 1.378 . S
C858 C859 1.367 . S
C859 C858 1.367 . S
C859 C861 1.433 . S
C860 C856 1.350 . S
C860 C857 1.463 . S
C860 N864 1.427 . S
C861 H851 0.929 . S
C861 C859 1.433 . S
C861 N864 1.384 . S
C862 H853 0.929 . S
C862 C854 1.378 . S
C862 C857 1.350 . S
C863 H850 0.929 . S
C863 C855 1.433 . S
C863 N865 1.384 . S
N864 C860 1.427 . S
N864 C861 1.384 . S
N865 C857 1.427 . S
N865 C863 1.384 . S
H866 C872 0.930 . S
H867 C876 0.930 . S
H868 C881 0.929 . S
H869 C879 0.929 . S
H870 C874 0.929 . S
H871 C880 0.929 . S
C872 H866 0.930 . S
C872 C873 1.367 . S
C872 C880 1.378 . S
C873 C872 1.367 . S
C873 C881 1.433 . S
C874 H870 0.929 . S
C874 C876 1.378 . S
C874 C878 1.350 . S
C875 C878 1.463 . S
C875 C880 1.350 . S
C875 N883 1.427 . S
C876 H867 0.930 . S
C876 C874 1.378 . S
C876 C877 1.367 . S
C877 C876 1.367 . S
C877 C879 1.433 . S
C878 C874 1.350 . S
C878 C875 1.463 . S
C878 N882 1.427 . S
C879 H869 0.929 . S
C879 C877 1.433 . S
C879 N882 1.384 . S
C880 H871 0.929 . S
C880 C872 1.378 . S
C880 C875 1.350 . S
C881 H868 0.929 . S
C881 C873 1.433 . S
C881 N883 1.384 . S
N882 C878 1.427 . S
N882 C879 1.384 . S
N883 C875 1.427 . S
N883 C881 1.384 . S
H884 C890 0.930 . S
H885 C894 0.967 . S
H886 C899 0.929 . S
H887 C897 0.929 . S
H888 C892 0.929 . S
H889 C898 0.929 . S
C890 H884 0.930 . S
C890 C891 1.367 . S
C890 C898 1.378 . S
C891 C890 1.367 . S
C891 C899 1.433 . S
C892 H888 0.929 . S
C892 C894 1.378 . S
C892 C896 1.350 . S
C893 C896 1.463 . S
C893 C898 1.350 . S
C893 N901 1.427 . S
C894 H885 0.967 . S
C894 C892 1.378 . S
C894 C895 1.367 . S
C895 C894 1.367 . S
C895 C897 1.433 . S
C896 C892 1.350 . S
C896 C893 1.463 . S
C896 N900 1.427 . S
C897 H887 0.929 . S
C897 C895 1.433 . S
C897 N900 1.384 . S
C898 H889 0.929 . S
C898 C890 1.378 . S
C898 C893 1.350 . S
C899 H886 0.929 . S
C899 C891 1.433 . S
C899 N901 1.384 . S
N900 C896 1.427 . S
N900 C897 1.384 . S
N901 C893 1.427 . S
N901 C899 1.384 . S
H902 C908 0.930 . S
H903 C912 0.930 . S
H904 C917 0.929 . S
H905 C915 0.929 . S
H906 C910 0.929 . S
H907 C916 0.929 . S
C908 H902 0.930 . S
C908 C909 1.367 . S
C908 C916 1.378 . S
C909 C908 1.367 . S
C909 C917 1.433 . S
C910 H906 0.929 . S
C910 C912 1.378 . S
C910 C914 1.350 . S
C911 C914 1.463 . S
C911 C916 1.350 . S
C911 N919 1.427 . S
C912 H903 0.930 . S
C912 C910 1.378 . S
C912 C913 1.367 . S
C913 C912 1.367 . S
C913 C915 1.433 . S
C914 C910 1.350 . S
C914 C911 1.463 . S
C914 N918 1.427 . S
C915 H905 0.929 . S
C915 C913 1.433 . S
C915 N918 1.384 . S
C916 H907 0.929 . S
C916 C908 1.378 . S
C916 C911 1.350 . S
C917 H904 0.929 . S
C917 C909 1.433 . S
C917 N919 1.384 . S
N918 C914 1.427 . S
N918 C915 1.384 . S
N919 C911 1.427 . S
N919 C917 1.384 . S
H920 C926 0.930 . S
H921 C930 0.930 . S
H922 C935 0.929 . S
H923 C933 0.929 . S
H924 C928 0.929 . S
H925 C934 0.929 . S
C926 H920 0.930 . S
C926 C927 1.367 . S
C926 C934 1.378 . S
C927 C926 1.367 . S
C927 C935 1.433 . S
C928 H924 0.929 . S
C928 C930 1.378 . S
C928 C932 1.350 . S
C929 C932 1.463 . S
C929 C934 1.350 . S
C929 N937 1.427 . S
C930 H921 0.930 . S
C930 C928 1.378 . S
C930 C931 1.367 . S
C931 C930 1.367 . S
C931 C933 1.433 . S
C932 C928 1.350 . S
C932 C929 1.463 . S
C932 N936 1.427 . S
C933 H923 0.929 . S
C933 C931 1.433 . S
C933 N936 1.384 . S
C934 H925 0.929 . S
C934 C926 1.378 . S
C934 C929 1.350 . S
C935 H922 0.929 . S
C935 C927 1.433 . S
C935 N937 1.384 . S
N936 C932 1.427 . S
N936 C933 1.384 . S
N937 C929 1.427 . S
N937 C935 1.384 . S
H938 C944 0.930 . S
H939 C948 0.930 . S
H940 C953 0.929 . S
H941 C951 0.929 . S
H942 C946 0.929 . S
H943 C952 0.929 . S
C944 H938 0.930 . S
C944 C945 1.367 . S
C944 C952 1.378 . S
C945 C944 1.367 . S
C945 C953 1.433 . S
C946 H942 0.929 . S
C946 C948 1.378 . S
C946 C950 1.350 . S
C947 C950 1.463 . S
C947 C952 1.350 . S
C947 N955 1.427 . S
C948 H939 0.930 . S
C948 C946 1.378 . S
C948 C949 1.367 . S
C949 C948 1.367 . S
C949 C951 1.433 . S
C950 C946 1.350 . S
C950 C947 1.463 . S
C950 N954 1.427 . S
C951 H941 0.929 . S
C951 C949 1.433 . S
C951 N954 1.384 . S
C952 H943 0.929 . S
C952 C944 1.378 . S
C952 C947 1.350 . S
C953 H940 0.929 . S
C953 C945 1.433 . S
C953 N955 1.384 . S
N954 C950 1.427 . S
N954 C951 1.384 . S
N955 C947 1.427 . S
N955 C953 1.384 . S
H956 C962 0.930 . S
H957 C966 0.930 . S
H958 C971 0.929 . S
H959 C969 0.929 . S
H960 C964 0.929 . S
H961 C970 0.929 . S
C962 H956 0.930 . S
C962 C963 1.367 . S
C962 C970 1.378 . S
C963 C962 1.367 . S
C963 C971 1.433 . S
C964 H960 0.929 . S
C964 C966 1.378 . S
C964 C968 1.350 . S
C965 C968 1.463 . S
C965 C970 1.350 . S
C965 N973 1.427 . S
C966 H957 0.930 . S
C966 C964 1.378 . S
C966 C967 1.367 . S
C967 C966 1.367 . S
C967 C969 1.433 . S
C968 C964 1.350 . S
C968 C965 1.463 . S
C968 N972 1.427 . S
C969 H959 0.929 . S
C969 C967 1.433 . S
C969 N972 1.384 . S
C970 H961 0.929 . S
C970 C962 1.378 . S
C970 C965 1.350 . S
C971 H958 0.929 . S
C971 C963 1.433 . S
C971 N973 1.384 . S
N972 C968 1.427 . S
N972 C969 1.384 . S
N973 C965 1.427 . S
N973 C971 1.384 . S
H974 C980 0.930 . S
H975 C984 0.930 . S
H976 C989 0.929 . S
H977 C987 0.929 . S
H978 C982 0.929 . S
H979 C988 0.929 . S
C980 H974 0.930 . S
C980 C981 1.367 . S
C980 C988 1.378 . S
C981 C980 1.367 . S
C981 C989 1.433 . S
C982 H978 0.929 . S
C982 C984 1.378 . S
C982 C986 1.350 . S
C983 C986 1.463 . S
C983 C988 1.350 . S
C983 N991 1.427 . S
C984 H975 0.930 . S
C984 C982 1.378 . S
C984 C985 1.367 . S
C985 C984 1.367 . S
C985 C987 1.433 . S
C986 C982 1.350 . S
C986 C983 1.463 . S
C986 N990 1.427 . S
C987 H977 0.929 . S
C987 C985 1.433 . S
C987 N990 1.384 . S
C988 H979 0.929 . S
C988 C980 1.378 . S
C988 C983 1.350 . S
C989 H976 0.929 . S
C989 C981 1.433 . S
C989 N991 1.384 . S
N990 C986 1.427 . S
N990 C987 1.384 . S
N991 C983 1.427 . S
N991 C989 1.384 . S
H992 C998 0.930 . S
H993 C1002 0.930 1_554 S
H994 C1007 0.929 . S
H995 C1005 0.929 . S
H996 C1000 0.929 . S
H997 C1006 0.929 . S
C998 H992 0.930 . S
C998 C999 1.367 . S
C998 C1006 1.378 . S
C999 C998 1.367 . S
C999 C1007 1.433 . S
C1000 H996 0.929 . S
C1000 C1002 1.378 . S
C1000 C1004 1.350 . S
C1001 C1004 1.463 . S
C1001 C1006 1.350 . S
C1001 N1009 1.427 . S
C1002 H993 0.930 1_556 S
C1002 C1000 1.378 . S
C1002 C1003 1.367 . S
C1003 C1002 1.367 . S
C1003 C1005 1.433 . S
C1004 C1000 1.350 . S
C1004 C1001 1.463 . S
C1004 N1008 1.427 . S
C1005 H995 0.929 . S
C1005 C1003 1.433 . S
C1005 N1008 1.384 . S
C1006 H997 0.929 . S
C1006 C998 1.378 . S
C1006 C1001 1.350 . S
C1007 H994 0.929 . S
C1007 C999 1.433 . S
C1007 N1009 1.384 . S
N1008 C1004 1.427 . S
N1008 C1005 1.384 . S
N1009 C1001 1.427 . S
N1009 C1007 1.384 . S
H1010 C1016 0.930 . S
H1011 C1020 0.930 . S
H1012 C1025 0.929 . S
H1013 C1023 0.929 . S
H1014 C1018 0.929 . S
H1015 C1024 0.929 . S
C1016 H1010 0.930 . S
C1016 C1017 1.367 . S
C1016 C1024 1.378 . S
C1017 C1016 1.367 . S
C1017 C1025 1.433 . S
C1018 H1014 0.929 . S
C1018 C1020 1.378 . S
C1018 C1022 1.350 . S
C1019 C1022 1.463 . S
C1019 C1024 1.350 . S
C1019 N1027 1.427 . S
C1020 H1011 0.930 . S
C1020 C1018 1.378 . S
C1020 C1021 1.367 . S
C1021 C1020 1.367 . S
C1021 C1023 1.433 . S
C1022 C1018 1.350 . S
C1022 C1019 1.463 . S
C1022 N1026 1.427 . S
C1023 H1013 0.929 . S
C1023 C1021 1.433 . S
C1023 N1026 1.384 . S
C1024 H1015 0.929 . S
C1024 C1016 1.378 . S
C1024 C1019 1.350 . S
C1025 H1012 0.929 . S
C1025 C1017 1.433 . S
C1025 N1027 1.384 . S
N1026 C1022 1.427 . S
N1026 C1023 1.384 . S
N1027 C1019 1.427 . S
N1027 C1025 1.384 . S
H1028 C1034 0.930 . S
H1029 C1038 0.930 . S
H1030 C1043 0.929 . S
H1031 C1041 0.929 . S
H1032 C1036 0.929 . S
H1033 C1042 0.929 . S
C1034 H1028 0.930 . S
C1034 C1035 1.367 . S
C1034 C1042 1.378 . S
C1035 C1034 1.367 . S
C1035 C1043 1.433 . S
C1036 H1032 0.929 . S
C1036 C1038 1.378 . S
C1036 C1040 1.350 . S
C1037 C1040 1.463 . S
C1037 C1042 1.350 . S
C1037 N1045 1.427 . S
C1038 H1029 0.930 . S
C1038 C1036 1.378 . S
C1038 C1039 1.367 . S
C1039 C1038 1.367 . S
C1039 C1041 1.433 . S
C1040 C1036 1.350 . S
C1040 C1037 1.463 . S
C1040 N1044 1.427 . S
C1041 H1031 0.929 . S
C1041 C1039 1.433 . S
C1041 N1044 1.384 . S
C1042 H1033 0.929 . S
C1042 C1034 1.378 . S
C1042 C1037 1.350 . S
C1043 H1030 0.929 . S
C1043 C1035 1.433 . S
C1043 N1045 1.384 . S
N1044 C1040 1.427 . S
N1044 C1041 1.384 . S
N1045 C1037 1.427 . S
N1045 C1043 1.384 . S
H1046 C1052 0.930 . S
H1047 C1056 0.930 . S
H1048 C1061 0.929 . S
H1049 C1059 0.929 . S
H1050 C1054 0.929 . S
H1051 C1060 0.929 . S
C1052 H1046 0.930 . S
C1052 C1053 1.367 . S
C1052 C1060 1.378 . S
C1053 C1052 1.367 . S
C1053 C1061 1.433 . S
C1054 H1050 0.929 . S
C1054 C1056 1.378 . S
C1054 C1058 1.350 . S
C1055 C1058 1.463 . S
C1055 C1060 1.350 . S
C1055 N1063 1.427 . S
C1056 H1047 0.930 . S
C1056 C1054 1.378 . S
C1056 C1057 1.367 . S
C1057 C1056 1.367 . S
C1057 C1059 1.433 . S
C1058 C1054 1.350 . S
C1058 C1055 1.463 . S
C1058 N1062 1.427 . S
C1059 H1049 0.929 . S
C1059 C1057 1.433 . S
C1059 N1062 1.384 . S
C1060 H1051 0.929 . S
C1060 C1052 1.378 . S
C1060 C1055 1.350 . S
C1061 H1048 0.929 . S
C1061 C1053 1.433 . S
C1061 N1063 1.384 . S
N1062 C1058 1.427 . S
N1062 C1059 1.384 . S
N1063 C1055 1.427 . S
N1063 C1061 1.384 . S
H1064 C1070 0.930 . S
H1065 C1074 0.930 . S
H1066 C1079 0.929 . S
H1067 C1077 0.929 . S
H1068 C1072 0.929 . S
H1069 C1078 0.929 . S
C1070 H1064 0.930 . S
C1070 C1071 1.367 . S
C1070 C1078 1.378 . S
C1071 C1070 1.367 . S
C1071 C1079 1.433 . S
C1072 H1068 0.929 . S
C1072 C1074 1.378 . S
C1072 C1076 1.350 . S
C1073 C1076 1.463 . S
C1073 C1078 1.350 . S
C1073 N1081 1.427 . S
C1074 H1065 0.930 . S
C1074 C1072 1.378 . S
C1074 C1075 1.367 . S
C1075 C1074 1.367 . S
C1075 C1077 1.433 . S
C1076 C1072 1.350 . S
C1076 C1073 1.463 . S
C1076 N1080 1.427 . S
C1077 H1067 0.929 . S
C1077 C1075 1.433 . S
C1077 N1080 1.384 . S
C1078 H1069 0.929 . S
C1078 C1070 1.378 . S
C1078 C1073 1.350 . S
C1079 H1066 0.929 . S
C1079 C1071 1.433 . S
C1079 N1081 1.384 . S
N1080 C1076 1.427 . S
N1080 C1077 1.384 . S
N1081 C1073 1.427 . S
N1081 C1079 1.384 . S
H1082 C1088 0.930 . S
H1083 C1092 0.930 . S
H1084 C1097 0.929 . S
H1085 C1095 0.929 . S
H1086 C1090 0.929 . S
H1087 C1096 0.929 . S
C1088 H1082 0.930 . S
C1088 C1089 1.367 . S
C1088 C1096 1.378 . S
C1089 C1088 1.367 . S
C1089 C1097 1.433 . S
C1090 H1086 0.929 . S
C1090 C1092 1.378 . S
C1090 C1094 1.350 . S
C1091 C1094 1.463 . S
C1091 C1096 1.350 . S
C1091 N1099 1.427 . S
C1092 H1083 0.930 . S
C1092 C1090 1.378 . S
C1092 C1093 1.367 . S
C1093 C1092 1.367 . S
C1093 C1095 1.433 . S
C1094 C1090 1.350 . S
C1094 C1091 1.463 . S
C1094 N1098 1.427 . S
C1095 H1085 0.929 . S
C1095 C1093 1.433 . S
C1095 N1098 1.384 . S
C1096 H1087 0.929 . S
C1096 C1088 1.378 . S
C1096 C1091 1.350 . S
C1097 H1084 0.929 . S
C1097 C1089 1.433 . S
C1097 N1099 1.384 . S
N1098 C1094 1.427 . S
N1098 C1095 1.384 . S
N1099 C1091 1.427 . S
N1099 C1097 1.384 . S
H1100 C1106 0.930 . S
H1101 C1110 0.913 1_545 S
H1102 C1115 0.929 . S
H1103 C1113 0.929 . S
H1104 C1108 0.929 . S
H1105 C1114 0.929 . S
C1106 H1100 0.930 . S
C1106 C1107 1.367 . S
C1106 C1114 1.378 . S
C1107 C1106 1.367 . S
C1107 C1115 1.433 . S
C1108 H1104 0.929 . S
C1108 C1110 1.378 . S
C1108 C1112 1.350 . S
C1109 C1112 1.463 . S
C1109 C1114 1.350 . S
C1109 N1117 1.427 . S
C1110 H1101 0.913 1_565 S
C1110 C1108 1.378 . S
C1110 C1111 1.367 . S
C1111 C1110 1.367 . S
C1111 C1113 1.433 . S
C1112 C1108 1.350 . S
C1112 C1109 1.463 . S
C1112 N1116 1.427 . S
C1113 H1103 0.929 . S
C1113 C1111 1.433 . S
C1113 N1116 1.384 . S
C1114 H1105 0.929 . S
C1114 C1106 1.378 . S
C1114 C1109 1.350 . S
C1115 H1102 0.929 . S
C1115 C1107 1.433 . S
C1115 N1117 1.384 . S
N1116 C1112 1.427 . S
N1116 C1113 1.384 . S
N1117 C1109 1.427 . S
N1117 C1115 1.384 . S
H1118 C1124 0.930 . S
H1119 C1128 0.930 . S
H1120 C1133 0.929 . S
H1121 C1131 0.929 . S
H1122 C1126 0.929 . S
H1123 C1132 0.929 . S
C1124 H1118 0.930 . S
C1124 C1125 1.367 . S
C1124 C1132 1.378 . S
C1125 C1124 1.367 . S
C1125 C1133 1.433 . S
C1126 H1122 0.929 . S
C1126 C1128 1.378 . S
C1126 C1130 1.350 . S
C1127 C1130 1.463 . S
C1127 C1132 1.350 . S
C1127 N1135 1.427 . S
C1128 H1119 0.930 . S
C1128 C1126 1.378 . S
C1128 C1129 1.367 . S
C1129 C1128 1.367 . S
C1129 C1131 1.433 . S
C1130 C1126 1.350 . S
C1130 C1127 1.463 . S
C1130 N1134 1.427 . S
C1131 H1121 0.929 . S
C1131 C1129 1.433 . S
C1131 N1134 1.384 . S
C1132 H1123 0.929 . S
C1132 C1124 1.378 . S
C1132 C1127 1.350 . S
C1133 H1120 0.929 . S
C1133 C1125 1.433 . S
C1133 N1135 1.384 . S
N1134 C1130 1.427 . S
N1134 C1131 1.384 . S
N1135 C1127 1.427 . S
N1135 C1133 1.384 . S
H1136 C1142 0.930 . S
H1137 C1146 0.930 . S
H1138 C1151 0.929 . S
H1139 C1149 0.929 . S
H1140 C1144 0.929 . S
H1141 C1150 0.929 . S
C1142 H1136 0.930 . S
C1142 C1143 1.367 . S
C1142 C1150 1.378 . S
C1143 C1142 1.367 . S
C1143 C1151 1.433 . S
C1144 H1140 0.929 . S
C1144 C1146 1.378 . S
C1144 C1148 1.350 . S
C1145 C1148 1.463 . S
C1145 C1150 1.350 . S
C1145 N1153 1.427 . S
C1146 H1137 0.930 . S
C1146 C1144 1.378 . S
C1146 C1147 1.367 . S
C1147 C1146 1.367 . S
C1147 C1149 1.433 . S
C1148 C1144 1.350 . S
C1148 C1145 1.463 . S
C1148 N1152 1.427 . S
C1149 H1139 0.929 . S
C1149 C1147 1.433 . S
C1149 N1152 1.384 . S
C1150 H1141 0.929 . S
C1150 C1142 1.378 . S
C1150 C1145 1.350 . S
C1151 H1138 0.929 . S
C1151 C1143 1.433 . S
C1151 N1153 1.384 . S
N1152 C1148 1.427 . S
N1152 C1149 1.384 . S
N1153 C1145 1.427 . S
N1153 C1151 1.384 . S
H1154 C1160 0.930 . S
H1155 C1164 0.930 . S
H1156 C1169 0.929 . S
H1157 C1167 0.929 . S
H1158 C1162 0.929 . S
H1159 C1168 0.929 . S
C1160 H1154 0.930 . S
C1160 C1161 1.367 . S
C1160 C1168 1.378 . S
C1161 C1160 1.367 . S
C1161 C1169 1.433 . S
C1162 H1158 0.929 . S
C1162 C1164 1.378 . S
C1162 C1166 1.350 . S
C1163 C1166 1.463 . S
C1163 C1168 1.350 . S
C1163 N1171 1.427 . S
C1164 H1155 0.930 . S
C1164 C1162 1.378 . S
C1164 C1165 1.367 . S
C1165 C1164 1.367 . S
C1165 C1167 1.433 . S
C1166 C1162 1.350 . S
C1166 C1163 1.463 . S
C1166 N1170 1.427 . S
C1167 H1157 0.929 . S
C1167 C1165 1.433 . S
C1167 N1170 1.384 . S
C1168 H1159 0.929 . S
C1168 C1160 1.378 . S
C1168 C1163 1.350 . S
C1169 H1156 0.929 . S
C1169 C1161 1.433 . S
C1169 N1171 1.384 . S
N1170 C1166 1.427 . S
N1170 C1167 1.384 . S
N1171 C1163 1.427 . S
N1171 C1169 1.384 . S
H1172 C1178 0.930 . S
H1173 C1182 0.930 . S
H1174 C1187 0.929 . S
H1175 C1185 0.929 . S
H1176 C1180 0.929 . S
H1177 C1186 0.929 . S
C1178 H1172 0.930 . S
C1178 C1179 1.367 . S
C1178 C1186 1.378 . S
C1179 C1178 1.367 . S
C1179 C1187 1.433 . S
C1180 H1176 0.929 . S
C1180 C1182 1.378 . S
C1180 C1184 1.350 . S
C1181 C1184 1.463 . S
C1181 C1186 1.350 . S
C1181 N1189 1.427 . S
C1182 H1173 0.930 . S
C1182 C1180 1.378 . S
C1182 C1183 1.367 . S
C1183 C1182 1.367 . S
C1183 C1185 1.433 . S
C1184 C1180 1.350 . S
C1184 C1181 1.463 . S
C1184 N1188 1.427 . S
C1185 H1175 0.929 . S
C1185 C1183 1.433 . S
C1185 N1188 1.384 . S
C1186 H1177 0.929 . S
C1186 C1178 1.378 . S
C1186 C1181 1.350 . S
C1187 H1174 0.929 . S
C1187 C1179 1.433 . S
C1187 N1189 1.384 . S
N1188 C1184 1.427 . S
N1188 C1185 1.384 . S
N1189 C1181 1.427 . S
N1189 C1187 1.384 . S
H1190 C1196 0.930 . S
H1191 C1200 0.930 . S
H1192 C1205 0.929 . S
H1193 C1203 0.929 . S
H1194 C1198 0.929 . S
H1195 C1204 0.929 . S
C1196 H1190 0.930 . S
C1196 C1197 1.367 . S
C1196 C1204 1.378 . S
C1197 C1196 1.367 . S
C1197 C1205 1.433 . S
C1198 H1194 0.929 . S
C1198 C1200 1.378 . S
C1198 C1202 1.350 . S
C1199 C1202 1.463 . S
C1199 C1204 1.350 . S
C1199 N1207 1.427 . S
C1200 H1191 0.930 . S
C1200 C1198 1.378 . S
C1200 C1201 1.367 . S
C1201 C1200 1.367 . S
C1201 C1203 1.433 . S
C1202 C1198 1.350 . S
C1202 C1199 1.463 . S
C1202 N1206 1.427 . S
C1203 H1193 0.929 . S
C1203 C1201 1.433 . S
C1203 N1206 1.384 . S
C1204 H1195 0.929 . S
C1204 C1196 1.378 . S
C1204 C1199 1.350 . S
C1205 H1192 0.929 . S
C1205 C1197 1.433 . S
C1205 N1207 1.384 . S
N1206 C1202 1.427 . S
N1206 C1203 1.384 . S
N1207 C1199 1.427 . S
N1207 C1205 1.384 . S
H1208 C1214 0.930 . S
H1209 C1218 0.930 . S
H1210 C1223 0.929 . S
H1211 C1221 0.929 . S
H1212 C1216 0.929 . S
H1213 C1222 0.929 . S
C1214 H1208 0.930 . S
C1214 C1215 1.367 . S
C1214 C1222 1.378 . S
C1215 C1214 1.367 . S
C1215 C1223 1.433 . S
C1216 H1212 0.929 . S
C1216 C1218 1.378 . S
C1216 C1220 1.350 . S
C1217 C1220 1.463 . S
C1217 C1222 1.350 . S
C1217 N1225 1.427 . S
C1218 H1209 0.930 . S
C1218 C1216 1.378 . S
C1218 C1219 1.367 . S
C1219 C1218 1.367 . S
C1219 C1221 1.433 . S
C1220 C1216 1.350 . S
C1220 C1217 1.463 . S
C1220 N1224 1.427 . S
C1221 H1211 0.929 . S
C1221 C1219 1.433 . S
C1221 N1224 1.384 . S
C1222 H1213 0.929 . S
C1222 C1214 1.378 . S
C1222 C1217 1.350 . S
C1223 H1210 0.929 . S
C1223 C1215 1.433 . S
C1223 N1225 1.384 . S
N1224 C1220 1.427 . S
N1224 C1221 1.384 . S
N1225 C1217 1.427 . S
N1225 C1223 1.384 . S
H1226 C1232 0.930 . S
H1227 C1236 0.930 . S
H1228 C1241 0.929 . S
H1229 C1239 0.929 . S
H1230 C1234 0.929 . S
H1231 C1240 0.929 . S
C1232 H1226 0.930 . S
C1232 C1233 1.367 . S
C1232 C1240 1.378 . S
C1233 C1232 1.367 . S
C1233 C1241 1.433 . S
C1234 H1230 0.929 . S
C1234 C1236 1.378 . S
C1234 C1238 1.350 . S
C1235 C1238 1.463 . S
C1235 C1240 1.350 . S
C1235 N1243 1.427 . S
C1236 H1227 0.930 . S
C1236 C1234 1.378 . S
C1236 C1237 1.367 . S
C1237 C1236 1.367 . S
C1237 C1239 1.433 . S
C1238 C1234 1.350 . S
C1238 C1235 1.463 . S
C1238 N1242 1.427 . S
C1239 H1229 0.929 . S
C1239 C1237 1.433 . S
C1239 N1242 1.384 . S
C1240 H1231 0.929 . S
C1240 C1232 1.378 . S
C1240 C1235 1.350 . S
C1241 H1228 0.929 . S
C1241 C1233 1.433 . S
C1241 N1243 1.384 . S
N1242 C1238 1.427 . S
N1242 C1239 1.384 . S
N1243 C1235 1.427 . S
N1243 C1241 1.384 . S
H1244 C1250 0.930 . S
H1245 C1254 0.930 . S
H1246 C1259 0.929 . S
H1247 C1257 0.929 . S
H1248 C1252 0.929 . S
H1249 C1258 0.929 . S
C1250 H1244 0.930 . S
C1250 C1251 1.367 . S
C1250 C1258 1.378 . S
C1251 C1250 1.367 . S
C1251 C1259 1.433 . S
C1252 H1248 0.929 . S
C1252 C1254 1.378 . S
C1252 C1256 1.350 . S
C1253 C1256 1.463 . S
C1253 C1258 1.350 . S
C1253 N1261 1.427 . S
C1254 H1245 0.930 . S
C1254 C1252 1.378 . S
C1254 C1255 1.367 . S
C1255 C1254 1.367 . S
C1255 C1257 1.433 . S
C1256 C1252 1.350 . S
C1256 C1253 1.463 . S
C1256 N1260 1.427 . S
C1257 H1247 0.929 . S
C1257 C1255 1.433 . S
C1257 N1260 1.384 . S
C1258 H1249 0.929 . S
C1258 C1250 1.378 . S
C1258 C1253 1.350 . S
C1259 H1246 0.929 . S
C1259 C1251 1.433 . S
C1259 N1261 1.384 . S
N1260 C1256 1.427 . S
N1260 C1257 1.384 . S
N1261 C1253 1.427 . S
N1261 C1259 1.384 . S
H1262 C1268 0.930 . S
H1263 C1272 0.930 . S
H1264 C1277 0.929 . S
H1265 C1275 0.929 . S
H1266 C1270 0.929 . S
H1267 C1276 0.929 . S
C1268 H1262 0.930 . S
C1268 C1269 1.367 . S
C1268 C1276 1.378 . S
C1269 C1268 1.367 . S
C1269 C1277 1.433 . S
C1270 H1266 0.929 . S
C1270 C1272 1.378 . S
C1270 C1274 1.350 . S
C1271 C1274 1.463 . S
C1271 C1276 1.350 . S
C1271 N1279 1.427 . S
C1272 H1263 0.930 . S
C1272 C1270 1.378 . S
C1272 C1273 1.367 . S
C1273 C1272 1.367 . S
C1273 C1275 1.433 . S
C1274 C1270 1.350 . S
C1274 C1271 1.463 . S
C1274 N1278 1.427 . S
C1275 H1265 0.929 . S
C1275 C1273 1.433 . S
C1275 N1278 1.384 . S
C1276 H1267 0.929 . S
C1276 C1268 1.378 . S
C1276 C1271 1.350 . S
C1277 H1264 0.929 . S
C1277 C1269 1.433 . S
C1277 N1279 1.384 . S
N1278 C1274 1.427 . S
N1278 C1275 1.384 . S
N1279 C1271 1.427 . S
N1279 C1277 1.384 . S
H1280 C1286 0.930 . S
H1281 C1290 0.930 . S
H1282 C1295 0.929 . S
H1283 C1293 0.929 . S
H1284 C1288 0.929 . S
H1285 C1294 0.929 . S
C1286 H1280 0.930 . S
C1286 C1287 1.367 . S
C1286 C1294 1.378 . S
C1287 C1286 1.367 . S
C1287 C1295 1.433 . S
C1288 H1284 0.929 . S
C1288 C1290 1.378 . S
C1288 C1292 1.350 . S
C1289 C1292 1.463 . S
C1289 C1294 1.350 . S
C1289 N1297 1.427 . S
C1290 H1281 0.930 . S
C1290 C1288 1.378 . S
C1290 C1291 1.367 . S
C1291 C1290 1.367 . S
C1291 C1293 1.433 . S
C1292 C1288 1.350 . S
C1292 C1289 1.463 . S
C1292 N1296 1.427 . S
C1293 H1283 0.929 . S
C1293 C1291 1.433 . S
C1293 N1296 1.384 . S
C1294 H1285 0.929 . S
C1294 C1286 1.378 . S
C1294 C1289 1.350 . S
C1295 H1282 0.929 . S
C1295 C1287 1.433 . S
C1295 N1297 1.384 . S
N1296 C1292 1.427 . S
N1296 C1293 1.384 . S
N1297 C1289 1.427 . S
N1297 C1295 1.384 . S
H1298 C1304 0.930 . S
H1299 C1308 0.930 . S
H1300 C1313 0.929 . S
H1301 C1311 0.929 . S
H1302 C1306 0.929 . S
H1303 C1312 0.929 . S
C1304 H1298 0.930 . S
C1304 C1305 1.367 . S
C1304 C1312 1.378 . S
C1305 C1304 1.367 . S
C1305 C1313 1.433 . S
C1306 H1302 0.929 . S
C1306 C1308 1.378 . S
C1306 C1310 1.350 . S
C1307 C1310 1.463 . S
C1307 C1312 1.350 . S
C1307 N1315 1.427 . S
C1308 H1299 0.930 . S
C1308 C1306 1.378 . S
C1308 C1309 1.367 . S
C1309 C1308 1.367 . S
C1309 C1311 1.433 . S
C1310 C1306 1.350 . S
C1310 C1307 1.463 . S
C1310 N1314 1.427 . S
C1311 H1301 0.929 . S
C1311 C1309 1.433 . S
C1311 N1314 1.384 . S
C1312 H1303 0.929 . S
C1312 C1304 1.378 . S
C1312 C1307 1.350 . S
C1313 H1300 0.929 . S
C1313 C1305 1.433 . S
C1313 N1315 1.384 . S
N1314 C1310 1.427 . S
N1314 C1311 1.384 . S
N1315 C1307 1.427 . S
N1315 C1313 1.384 . S
H1316 C1322 0.930 . S
H1317 C1326 0.930 . S
H1318 C1331 0.929 . S
H1319 C1329 0.929 . S
H1320 C1324 0.929 . S
H1321 C1330 0.929 . S
C1322 H1316 0.930 . S
C1322 C1323 1.367 . S
C1322 C1330 1.378 . S
C1323 C1322 1.367 . S
C1323 C1331 1.433 . S
C1324 H1320 0.929 . S
C1324 C1326 1.378 . S
C1324 C1328 1.350 . S
C1325 C1328 1.463 . S
C1325 C1330 1.350 . S
C1325 N1333 1.427 . S
C1326 H1317 0.930 . S
C1326 C1324 1.378 . S
C1326 C1327 1.367 . S
C1327 C1326 1.367 . S
C1327 C1329 1.433 . S
C1328 C1324 1.350 . S
C1328 C1325 1.463 . S
C1328 N1332 1.427 . S
C1329 H1319 0.929 . S
C1329 C1327 1.433 . S
C1329 N1332 1.384 . S
C1330 H1321 0.929 . S
C1330 C1322 1.378 . S
C1330 C1325 1.350 . S
C1331 H1318 0.929 . S
C1331 C1323 1.433 . S
C1331 N1333 1.384 . S
N1332 C1328 1.427 . S
N1332 C1329 1.384 . S
N1333 C1325 1.427 . S
N1333 C1331 1.384 . S
H1334 C1340 0.930 . S
H1335 C1344 0.930 . S
H1336 C1349 0.929 . S
H1337 C1347 0.929 . S
H1338 C1342 0.929 . S
H1339 C1348 0.929 . S
C1340 H1334 0.930 . S
C1340 C1341 1.367 . S
C1340 C1348 1.378 . S
C1341 C1340 1.367 . S
C1341 C1349 1.433 . S
C1342 H1338 0.929 . S
C1342 C1344 1.378 . S
C1342 C1346 1.350 . S
C1343 C1346 1.463 . S
C1343 C1348 1.350 . S
C1343 N1351 1.427 . S
C1344 H1335 0.930 . S
C1344 C1342 1.378 . S
C1344 C1345 1.367 . S
C1345 C1344 1.367 . S
C1345 C1347 1.433 . S
C1346 C1342 1.350 . S
C1346 C1343 1.463 . S
C1346 N1350 1.427 . S
C1347 H1337 0.929 . S
C1347 C1345 1.433 . S
C1347 N1350 1.384 . S
C1348 H1339 0.929 . S
C1348 C1340 1.378 . S
C1348 C1343 1.350 . S
C1349 H1336 0.929 . S
C1349 C1341 1.433 . S
C1349 N1351 1.384 . S
N1350 C1346 1.427 . S
N1350 C1347 1.384 . S
N1351 C1343 1.427 . S
N1351 C1349 1.384 . S
H1352 C1358 0.930 . S
H1353 C1362 0.930 . S
H1354 C1367 0.929 . S
H1355 C1365 0.929 . S
H1356 C1360 0.929 . S
H1357 C1366 0.929 . S
C1358 H1352 0.930 . S
C1358 C1359 1.367 . S
C1358 C1366 1.378 . S
C1359 C1358 1.367 . S
C1359 C1367 1.433 . S
C1360 H1356 0.929 . S
C1360 C1362 1.378 . S
C1360 C1364 1.350 . S
C1361 C1364 1.463 . S
C1361 C1366 1.350 . S
C1361 N1369 1.427 . S
C1362 H1353 0.930 . S
C1362 C1360 1.378 . S
C1362 C1363 1.367 . S
C1363 C1362 1.367 . S
C1363 C1365 1.433 . S
C1364 C1360 1.350 . S
C1364 C1361 1.463 . S
C1364 N1368 1.427 . S
C1365 H1355 0.929 . S
C1365 C1363 1.433 . S
C1365 N1368 1.384 . S
C1366 H1357 0.929 . S
C1366 C1358 1.378 . S
C1366 C1361 1.350 . S
C1367 H1354 0.929 . S
C1367 C1359 1.433 . S
C1367 N1369 1.384 . S
N1368 C1364 1.427 . S
N1368 C1365 1.384 . S
N1369 C1361 1.427 . S
N1369 C1367 1.384 . S
C517 C331 1.927 . S
C513 C3 1.954 . S
C535 C321 0.977 . S
C531 C49 0.982 . S
C553 C322 1.044 . S
C549 C95 1.042 . S
C567 C146 0.454 . S
C571 C344 0.539 . S
C585 C186 1.113 . S
C589 C347 1.117 . S
C607 C330 1.014 . S
C603 C215 1.029 . S
C621 C249 0.418 . S
C625 C320 0.546 . S
C639 C302 1.944 . S
C643 C338 1.921 . S
C661 C351 3.199 . S
C657 C2 3.315 . S
C675 C43 2.195 . S
C679 C400 2.140 . S
C697 C378 3.279 . S
C693 C102 3.318 . S
C715 C392 1.333 . S
C711 C135 1.379 . S
C729 C175 1.353 . S
C733 C353 1.345 . S
C751 C406 2.227 . S
C747 C222 2.289 . S
C765 C243 2.182 . S
C769 C362 2.173 . S
C783 C306 1.459 . S
C787 C383 1.380 . S
C801 C9 0.934 . S
C805 C409 0.910 . S
C819 C182 1.697 . S
C823 C393 1.656 . S
C841 C352 1.664 . S
C837 C226 1.666 . S
C859 C384 0.713 . S
C855 C242 0.734 . S
C873 C295 2.870 . S
C877 C375 2.805 . S
C891 C106 0.868 . S
C895 C382 0.866 . S
C913 C369 1.648 . S
C909 C142 1.702 . S
C927 C42 0.732 . S
C931 C361 0.725 . S
C945 C283 1.944 . S
C949 C424 1.923 . S
C963 C169 1.127 . S
C967 C414 1.123 . S
C985 C415 1.026 . S
C981 C202 1.035 . S
C1003 C437 0.548 . S
C999 C266 0.422 . S
C1017 C66 0.980 . S
C1021 C440 0.968 . S
C1039 C423 1.031 . S
C1035 C82 1.048 . S
C1053 C129 0.461 . S
C1057 C413 0.543 . S
C1071 C22 1.954 . S
C1075 C431 1.926 . S
C1089 C282 2.867 . S
C1093 C444 2.813 . S
C1111 C493 1.656 . S
C1107 C163 1.697 . S
C1125 C209 1.668 . S
C1129 C471 1.664 . S
C1143 C255 0.729 . S
C1147 C485 0.712 . S
C1165 C446 0.726 . S
C1161 C55 0.731 . S
C1179 C89 0.887 . S
C1183 C499 0.858 . S
C1201 C455 1.652 . S
C1197 C123 1.702 . S
C1219 C476 0.933 . S
C1215 C26 0.948 . S
C1237 C502 1.379 . S
C1233 C289 1.456 . S
C1251 C62 2.193 . S
C1255 C486 2.140 . S
C1269 C83 3.318 . S
C1273 C445 3.279 . S
C1291 C477 1.341 . S
C1287 C122 1.375 . S
C1305 C15 3.316 . S
C1309 C468 3.193 . S
C1323 C203 2.290 . S
C1327 C475 2.228 . S
C1345 C462 2.170 . S
C1341 C262 2.183 . S
C1363 C454 1.335 . S
C1359 C162 1.349 . S
