# Generated by pormake.
# Topology gar, (4,6)-cn, num edge types: 1
# Building blocks:
#     Node 0, Type 0, BuildingBlock: NAHDIM_clean_sbu_0, # of connection points: 4
#     Node 1, Type 0, BuildingBlock: NAHDIM_clean_sbu_0, # of connection points: 4
#     Node 2, Type 0, BuildingBlock: NAHDIM_clean_sbu_0, # of connection points: 4
#     Node 3, Type 0, BuildingBlock: NAHDIM_clean_sbu_0, # of connection points: 4
#     Node 4, Type 0, BuildingBlock: NAHDIM_clean_sbu_0, # of connection points: 4
#     Node 5, Type 0, BuildingBlock: NAHDIM_clean_sbu_0, # of connection points: 4
#     Node 6, Type 0, BuildingBlock: NAHDIM_clean_sbu_0, # of connection points: 4
#     Node 7, Type 0, BuildingBlock: NAHDIM_clean_sbu_0, # of connection points: 4
#     Node 8, Type 0, BuildingBlock: NAHDIM_clean_sbu_0, # of connection points: 4
#     Node 9, Type 0, BuildingBlock: NAHDIM_clean_sbu_0, # of connection points: 4
#     Node 10, Type 0, BuildingBlock: NAHDIM_clean_sbu_0, # of connection points: 4
#     Node 11, Type 0, BuildingBlock: NAHDIM_clean_sbu_0, # of connection points: 4
#     Node 12, Type 0, BuildingBlock: NAHDIM_clean_sbu_0, # of connection points: 4
#     Node 13, Type 0, BuildingBlock: NAHDIM_clean_sbu_0, # of connection points: 4
#     Node 14, Type 0, BuildingBlock: NAHDIM_clean_sbu_0, # of connection points: 4
#     Node 15, Type 0, BuildingBlock: NAHDIM_clean_sbu_0, # of connection points: 4
#     Node 16, Type 0, BuildingBlock: NAHDIM_clean_sbu_0, # of connection points: 4
#     Node 17, Type 0, BuildingBlock: NAHDIM_clean_sbu_0, # of connection points: 4
#     Node 18, Type 0, BuildingBlock: NAHDIM_clean_sbu_0, # of connection points: 4
#     Node 19, Type 0, BuildingBlock: NAHDIM_clean_sbu_0, # of connection points: 4
#     Node 20, Type 0, BuildingBlock: NAHDIM_clean_sbu_0, # of connection points: 4
#     Node 21, Type 0, BuildingBlock: NAHDIM_clean_sbu_0, # of connection points: 4
#     Node 22, Type 0, BuildingBlock: NAHDIM_clean_sbu_0, # of connection points: 4
#     Node 23, Type 0, BuildingBlock: NAHDIM_clean_sbu_0, # of connection points: 4
#     Node 24, Type 1, BuildingBlock: KUMBUR_clean_sbu_0, # of connection points: 6
#     Node 25, Type 1, BuildingBlock: KUMBUR_clean_sbu_0, # of connection points: 6
#     Node 26, Type 1, BuildingBlock: KUMBUR_clean_sbu_0, # of connection points: 6
#     Node 27, Type 1, BuildingBlock: KUMBUR_clean_sbu_0, # of connection points: 6
#     Node 28, Type 1, BuildingBlock: KUMBUR_clean_sbu_0, # of connection points: 6
#     Node 29, Type 1, BuildingBlock: KUMBUR_clean_sbu_0, # of connection points: 6
#     Node 30, Type 1, BuildingBlock: KUMBUR_clean_sbu_0, # of connection points: 6
#     Node 31, Type 1, BuildingBlock: KUMBUR_clean_sbu_0, # of connection points: 6
#     Node 32, Type 1, BuildingBlock: KUMBUR_clean_sbu_0, # of connection points: 6
#     Node 33, Type 1, BuildingBlock: KUMBUR_clean_sbu_0, # of connection points: 6
#     Node 34, Type 1, BuildingBlock: KUMBUR_clean_sbu_0, # of connection points: 6
#     Node 35, Type 1, BuildingBlock: KUMBUR_clean_sbu_0, # of connection points: 6
#     Node 36, Type 1, BuildingBlock: KUMBUR_clean_sbu_0, # of connection points: 6
#     Node 37, Type 1, BuildingBlock: KUMBUR_clean_sbu_0, # of connection points: 6
#     Node 38, Type 1, BuildingBlock: KUMBUR_clean_sbu_0, # of connection points: 6
#     Node 39, Type 1, BuildingBlock: KUMBUR_clean_sbu_0, # of connection points: 6
#     Edge 40, Type (0, 1), BuildingBlock: AJUNOK_clean_linker_0, # of connection points: 2
#     Edge 41, Type (0, 1), BuildingBlock: AJUNOK_clean_linker_0, # of connection points: 2
#     Edge 42, Type (0, 1), BuildingBlock: AJUNOK_clean_linker_0, # of connection points: 2
#     Edge 43, Type (0, 1), BuildingBlock: AJUNOK_clean_linker_0, # of connection points: 2
#     Edge 44, Type (0, 1), BuildingBlock: AJUNOK_clean_linker_0, # of connection points: 2
#     Edge 45, Type (0, 1), BuildingBlock: AJUNOK_clean_linker_0, # of connection points: 2
#     Edge 46, Type (0, 1), BuildingBlock: AJUNOK_clean_linker_0, # of connection points: 2
#     Edge 47, Type (0, 1), BuildingBlock: AJUNOK_clean_linker_0, # of connection points: 2
#     Edge 48, Type (0, 1), BuildingBlock: AJUNOK_clean_linker_0, # of connection points: 2
#     Edge 49, Type (0, 1), BuildingBlock: AJUNOK_clean_linker_0, # of connection points: 2
#     Edge 50, Type (0, 1), BuildingBlock: AJUNOK_clean_linker_0, # of connection points: 2
#     Edge 51, Type (0, 1), BuildingBlock: AJUNOK_clean_linker_0, # of connection points: 2
#     Edge 52, Type (0, 1), BuildingBlock: AJUNOK_clean_linker_0, # of connection points: 2
#     Edge 53, Type (0, 1), BuildingBlock: AJUNOK_clean_linker_0, # of connection points: 2
#     Edge 54, Type (0, 1), BuildingBlock: AJUNOK_clean_linker_0, # of connection points: 2
#     Edge 55, Type (0, 1), BuildingBlock: AJUNOK_clean_linker_0, # of connection points: 2
#     Edge 56, Type (0, 1), BuildingBlock: AJUNOK_clean_linker_0, # of connection points: 2
#     Edge 57, Type (0, 1), BuildingBlock: AJUNOK_clean_linker_0, # of connection points: 2
#     Edge 58, Type (0, 1), BuildingBlock: AJUNOK_clean_linker_0, # of connection points: 2
#     Edge 59, Type (0, 1), BuildingBlock: AJUNOK_clean_linker_0, # of connection points: 2
#     Edge 60, Type (0, 1), BuildingBlock: AJUNOK_clean_linker_0, # of connection points: 2
#     Edge 61, Type (0, 1), BuildingBlock: AJUNOK_clean_linker_0, # of connection points: 2
#     Edge 62, Type (0, 1), BuildingBlock: AJUNOK_clean_linker_0, # of connection points: 2
#     Edge 63, Type (0, 1), BuildingBlock: AJUNOK_clean_linker_0, # of connection points: 2
#     Edge 64, Type (0, 1), BuildingBlock: AJUNOK_clean_linker_0, # of connection points: 2
#     Edge 65, Type (0, 1), BuildingBlock: AJUNOK_clean_linker_0, # of connection points: 2
#     Edge 66, Type (0, 1), BuildingBlock: AJUNOK_clean_linker_0, # of connection points: 2
#     Edge 67, Type (0, 1), BuildingBlock: AJUNOK_clean_linker_0, # of connection points: 2
#     Edge 68, Type (0, 1), BuildingBlock: AJUNOK_clean_linker_0, # of connection points: 2
#     Edge 69, Type (0, 1), BuildingBlock: AJUNOK_clean_linker_0, # of connection points: 2
#     Edge 70, Type (0, 1), BuildingBlock: AJUNOK_clean_linker_0, # of connection points: 2
#     Edge 71, Type (0, 1), BuildingBlock: AJUNOK_clean_linker_0, # of connection points: 2
#     Edge 72, Type (0, 1), BuildingBlock: AJUNOK_clean_linker_0, # of connection points: 2
#     Edge 73, Type (0, 1), BuildingBlock: AJUNOK_clean_linker_0, # of connection points: 2
#     Edge 74, Type (0, 1), BuildingBlock: AJUNOK_clean_linker_0, # of connection points: 2
#     Edge 75, Type (0, 1), BuildingBlock: AJUNOK_clean_linker_0, # of connection points: 2
#     Edge 76, Type (0, 1), BuildingBlock: AJUNOK_clean_linker_0, # of connection points: 2
#     Edge 77, Type (0, 1), BuildingBlock: AJUNOK_clean_linker_0, # of connection points: 2
#     Edge 78, Type (0, 1), BuildingBlock: AJUNOK_clean_linker_0, # of connection points: 2
#     Edge 79, Type (0, 1), BuildingBlock: AJUNOK_clean_linker_0, # of connection points: 2
#     Edge 80, Type (0, 1), BuildingBlock: AJUNOK_clean_linker_0, # of connection points: 2
#     Edge 81, Type (0, 1), BuildingBlock: AJUNOK_clean_linker_0, # of connection points: 2
#     Edge 82, Type (0, 1), BuildingBlock: AJUNOK_clean_linker_0, # of connection points: 2
#     Edge 83, Type (0, 1), BuildingBlock: AJUNOK_clean_linker_0, # of connection points: 2
#     Edge 84, Type (0, 1), BuildingBlock: AJUNOK_clean_linker_0, # of connection points: 2
#     Edge 85, Type (0, 1), BuildingBlock: AJUNOK_clean_linker_0, # of connection points: 2
#     Edge 86, Type (0, 1), BuildingBlock: AJUNOK_clean_linker_0, # of connection points: 2
#     Edge 87, Type (0, 1), BuildingBlock: AJUNOK_clean_linker_0, # of connection points: 2
#     Edge 88, Type (0, 1), BuildingBlock: AJUNOK_clean_linker_0, # of connection points: 2
#     Edge 89, Type (0, 1), BuildingBlock: AJUNOK_clean_linker_0, # of connection points: 2
#     Edge 90, Type (0, 1), BuildingBlock: AJUNOK_clean_linker_0, # of connection points: 2
#     Edge 91, Type (0, 1), BuildingBlock: AJUNOK_clean_linker_0, # of connection points: 2
#     Edge 92, Type (0, 1), BuildingBlock: AJUNOK_clean_linker_0, # of connection points: 2
#     Edge 93, Type (0, 1), BuildingBlock: AJUNOK_clean_linker_0, # of connection points: 2
#     Edge 94, Type (0, 1), BuildingBlock: AJUNOK_clean_linker_0, # of connection points: 2
#     Edge 95, Type (0, 1), BuildingBlock: AJUNOK_clean_linker_0, # of connection points: 2
#     Edge 96, Type (0, 1), BuildingBlock: AJUNOK_clean_linker_0, # of connection points: 2
#     Edge 97, Type (0, 1), BuildingBlock: AJUNOK_clean_linker_0, # of connection points: 2
#     Edge 98, Type (0, 1), BuildingBlock: AJUNOK_clean_linker_0, # of connection points: 2
#     Edge 99, Type (0, 1), BuildingBlock: AJUNOK_clean_linker_0, # of connection points: 2
#     Edge 100, Type (0, 1), BuildingBlock: AJUNOK_clean_linker_0, # of connection points: 2
#     Edge 101, Type (0, 1), BuildingBlock: AJUNOK_clean_linker_0, # of connection points: 2
#     Edge 102, Type (0, 1), BuildingBlock: AJUNOK_clean_linker_0, # of connection points: 2
#     Edge 103, Type (0, 1), BuildingBlock: AJUNOK_clean_linker_0, # of connection points: 2
#     Edge 104, Type (0, 1), BuildingBlock: AJUNOK_clean_linker_0, # of connection points: 2
#     Edge 105, Type (0, 1), BuildingBlock: AJUNOK_clean_linker_0, # of connection points: 2
#     Edge 106, Type (0, 1), BuildingBlock: AJUNOK_clean_linker_0, # of connection points: 2
#     Edge 107, Type (0, 1), BuildingBlock: AJUNOK_clean_linker_0, # of connection points: 2
#     Edge 108, Type (0, 1), BuildingBlock: AJUNOK_clean_linker_0, # of connection points: 2
#     Edge 109, Type (0, 1), BuildingBlock: AJUNOK_clean_linker_0, # of connection points: 2
#     Edge 110, Type (0, 1), BuildingBlock: AJUNOK_clean_linker_0, # of connection points: 2
#     Edge 111, Type (0, 1), BuildingBlock: AJUNOK_clean_linker_0, # of connection points: 2
#     Edge 112, Type (0, 1), BuildingBlock: AJUNOK_clean_linker_0, # of connection points: 2
#     Edge 113, Type (0, 1), BuildingBlock: AJUNOK_clean_linker_0, # of connection points: 2
#     Edge 114, Type (0, 1), BuildingBlock: AJUNOK_clean_linker_0, # of connection points: 2
#     Edge 115, Type (0, 1), BuildingBlock: AJUNOK_clean_linker_0, # of connection points: 2
#     Edge 116, Type (0, 1), BuildingBlock: AJUNOK_clean_linker_0, # of connection points: 2
#     Edge 117, Type (0, 1), BuildingBlock: AJUNOK_clean_linker_0, # of connection points: 2
#     Edge 118, Type (0, 1), BuildingBlock: AJUNOK_clean_linker_0, # of connection points: 2
#     Edge 119, Type (0, 1), BuildingBlock: AJUNOK_clean_linker_0, # of connection points: 2
#     Edge 120, Type (0, 1), BuildingBlock: AJUNOK_clean_linker_0, # of connection points: 2
#     Edge 121, Type (0, 1), BuildingBlock: AJUNOK_clean_linker_0, # of connection points: 2
#     Edge 122, Type (0, 1), BuildingBlock: AJUNOK_clean_linker_0, # of connection points: 2
#     Edge 123, Type (0, 1), BuildingBlock: AJUNOK_clean_linker_0, # of connection points: 2
#     Edge 124, Type (0, 1), BuildingBlock: AJUNOK_clean_linker_0, # of connection points: 2
#     Edge 125, Type (0, 1), BuildingBlock: AJUNOK_clean_linker_0, # of connection points: 2
#     Edge 126, Type (0, 1), BuildingBlock: AJUNOK_clean_linker_0, # of connection points: 2
#     Edge 127, Type (0, 1), BuildingBlock: AJUNOK_clean_linker_0, # of connection points: 2
#     Edge 128, Type (0, 1), BuildingBlock: AJUNOK_clean_linker_0, # of connection points: 2
#     Edge 129, Type (0, 1), BuildingBlock: AJUNOK_clean_linker_0, # of connection points: 2
#     Edge 130, Type (0, 1), BuildingBlock: AJUNOK_clean_linker_0, # of connection points: 2
#     Edge 131, Type (0, 1), BuildingBlock: AJUNOK_clean_linker_0, # of connection points: 2
#     Edge 132, Type (0, 1), BuildingBlock: AJUNOK_clean_linker_0, # of connection points: 2
#     Edge 133, Type (0, 1), BuildingBlock: AJUNOK_clean_linker_0, # of connection points: 2
#     Edge 134, Type (0, 1), BuildingBlock: AJUNOK_clean_linker_0, # of connection points: 2
#     Edge 135, Type (0, 1), BuildingBlock: AJUNOK_clean_linker_0, # of connection points: 2
# Relax obj value: 0.158
# Max RMSD: 0.344
# Mean RMSD: 0.182
data_MOF--net-gar--node1-NAHDIM_clean_sbu_0--node2-KUMBUR_clean_sbu_0--edge1-AJUNOK_clean_linker_0
_symmetry_space_group_name_H-M    P1
_symmetry_Int_Tables_number       1
_symmetry_cell_setting            triclinic
loop_
_symmetry_equiv_pos_as_xyz
'x, y, z'
_cell_length_a     47.514484
_cell_length_b     41.422847
_cell_length_c     40.744772
_cell_angle_alpha  101.89406
_cell_angle_beta   94.570764
_cell_angle_gamma 102.44183
loop_
_atom_site_label
_atom_site_type_symbol
_atom_site_fract_x
_atom_site_fract_y
_atom_site_fract_z
_atom_type_partial_charge
C0 C 0.21293 0.34202 0.38294 0.0
O1 O 0.21469 0.33511 0.41298 0.0
O2 O 0.14784 0.31362 0.42499 0.0
Zn3 Zn 0.15477 0.34799 0.39604 0.0
O4 O 0.15847 0.39261 0.4278 0.0
C5 C 0.0968 0.34774 0.37945 0.0
O6 O 0.09871 0.34942 0.41213 0.0
O7 O 0.18948 0.34771 0.37086 0.0
C8 C 0.15007 0.41632 0.41763 0.0
O9 O 0.14604 0.41479 0.38502 0.0
C10 C 0.15885 0.32281 0.45598 0.0
O11 O 0.17692 0.35272 0.4669 0.0
O12 O 0.11852 0.34314 0.36433 0.0
C13 C 0.9694 0.75221 0.71222 0.0
O14 O 0.96902 0.74425 0.67924 0.0
O15 O 0.02752 0.7336 0.67166 0.0
Zn16 Zn 0.02969 0.77459 0.70878 0.0
O17 O 0.03614 0.81602 0.68827 0.0
C18 C 0.08631 0.7711 0.72452 0.0
O19 O 0.08589 0.77593 0.69366 0.0
O20 O 0.99333 0.76698 0.73082 0.0
C21 C 0.05699 0.84227 0.69827 0.0
O22 O 0.07383 0.84551 0.7265 0.0
C23 C 0.03569 0.73636 0.64323 0.0
O24 O 0.0407 0.76625 0.63574 0.0
O25 O 0.06446 0.77386 0.74 0.0
C26 C 0.70161 0.84523 0.86046 0.0
O27 O 0.68545 0.86078 0.84462 0.0
O28 O 0.64312 0.81111 0.93479 0.0
Zn29 Zn 0.65753 0.84404 0.9064 0.0
O30 O 0.66395 0.88969 0.93797 0.0
C31 C 0.60257 0.84896 0.88249 0.0
O32 O 0.60201 0.85461 0.91534 0.0
O33 O 0.69381 0.83615 0.88698 0.0
C34 C 0.65823 0.91517 0.92857 0.0
O35 O 0.65387 0.914 0.89605 0.0
C36 C 0.65244 0.81862 0.96621 0.0
O37 O 0.67396 0.8454 0.97834 0.0
O38 O 0.62489 0.84143 0.87064 0.0
C39 C 0.45939 0.24529 0.1907 0.0
O40 O 0.45822 0.23605 0.15769 0.0
O41 O 0.52144 0.23297 0.14904 0.0
Zn42 Zn 0.52023 0.27098 0.18779 0.0
O43 O 0.52521 0.31252 0.16843 0.0
C44 C 0.57948 0.29038 0.22509 0.0
O45 O 0.58497 0.3154 0.20954 0.0
O46 O 0.4835 0.2608 0.20846 0.0
C47 C 0.53301 0.34409 0.18187 0.0
O48 O 0.53784 0.35436 0.21499 0.0
C49 C 0.5433 0.2395 0.13335 0.0
O50 O 0.56065 0.27003 0.14196 0.0
O51 O 0.55393 0.27162 0.22099 0.0
C52 C 0.07596 0.81512 0.1446 0.0
O53 O 0.06798 0.80272 0.11201 0.0
O54 O 0.12287 0.78016 0.0936 0.0
Zn55 Zn 0.13245 0.83183 0.12106 0.0
O56 O 0.12666 0.87491 0.09968 0.0
C57 C 0.18863 0.81804 0.14798 0.0
O58 O 0.17978 0.79094 0.1231 0.0
O59 O 0.10266 0.82961 0.15479 0.0
C60 C 0.11987 0.88069 0.07045 0.0
O61 O 0.11569 0.85551 0.04368 0.0
C62 C 0.11728 0.75839 0.06511 0.0
O63 O 0.11572 0.76925 0.03707 0.0
O64 O 0.17329 0.84026 0.15133 0.0
C65 C 0.59498 0.79083 0.41118 0.0
O66 O 0.60484 0.80378 0.44332 0.0
O67 O 0.543 0.73365 0.45694 0.0
Zn68 Zn 0.53852 0.77849 0.43702 0.0
O69 O 0.55095 0.83033 0.46493 0.0
C70 C 0.47676 0.78587 0.41385 0.0
O71 O 0.47637 0.79978 0.44579 0.0
O72 O 0.56775 0.7785 0.40277 0.0
C73 C 0.55448 0.84953 0.49475 0.0
O74 O 0.54978 0.83536 0.52044 0.0
C75 C 0.55168 0.72691 0.48518 0.0
O76 O 0.55879 0.75188 0.51231 0.0
O77 O 0.4987 0.77388 0.40575 0.0
C78 C 0.57836 0.32045 0.65137 0.0
O79 O 0.57016 0.30928 0.61868 0.0
O80 O 0.62369 0.27951 0.60217 0.0
Zn81 Zn 0.63364 0.33266 0.62588 0.0
O82 O 0.62647 0.37433 0.60251 0.0
C83 C 0.68032 0.32835 0.67674 0.0
O84 O 0.65752 0.30988 0.68597 0.0
O85 O 0.60538 0.33291 0.66156 0.0
C86 C 0.6217 0.38052 0.573 0.0
O87 O 0.62084 0.35621 0.54627 0.0
C88 C 0.6247 0.25843 0.5746 0.0
O89 O 0.63353 0.27037 0.54875 0.0
O90 O 0.67614 0.34221 0.65192 0.0
C91 C 0.09386 0.2925 0.90996 0.0
O92 O 0.10379 0.30583 0.94203 0.0
O93 O 0.04637 0.23659 0.96055 0.0
Zn94 Zn 0.0396 0.27918 0.93884 0.0
O95 O 0.05109 0.33086 0.96483 0.0
C96 C 0.99461 0.29164 0.89234 0.0
O97 O 1.01852 0.31013 0.88531 0.0
O98 O 0.06674 0.27891 0.90198 0.0
C99 C 0.05201 0.35055 0.9938 0.0
O100 O 0.04519 0.33718 0.01951 0.0
C101 C 0.05279 0.2298 0.98941 0.0
O102 O 0.05565 0.25384 0.01693 0.0
O103 O 0.99713 0.27389 0.91433 0.0
C104 C 0.4207 0.10141 0.303 0.0
O105 O 0.446 0.12344 0.30996 0.0
O106 O 0.48508 0.06824 0.28848 0.0
Zn107 Zn 0.45376 0.05283 0.3157 0.0
O108 O 0.47361 0.06258 0.36307 0.0
C109 C 0.42481 0.98655 0.27413 0.0
O110 O 0.41746 1.0035 0.25224 0.0
O111 O 0.41909 0.07151 0.30691 0.0
C112 C 0.49402 0.047 0.36204 0.0
O113 O 0.49678 0.02791 0.33301 0.0
C114 C 0.50573 0.09391 0.30197 0.0
O115 O 0.50419 0.11233 0.33185 0.0
O116 O 0.44021 1.00255 0.30191 0.0
C117 C 0.35953 0.15352 0.50768 0.0
O118 O 0.36018 0.16046 0.47767 0.0
O119 O 0.31606 0.22351 0.56454 0.0
Zn120 Zn 0.31196 0.19032 0.51836 0.0
O121 O 0.31778 0.20787 0.4748 0.0
C122 C 0.24867 0.16484 0.50606 0.0
O123 O 0.24915 0.19552 0.50173 0.0
O124 O 0.34146 0.1634 0.52639 0.0
C125 C 0.32887 0.23774 0.47158 0.0
O126 O 0.3377 0.26233 0.49887 0.0
C127 C 0.31628 0.25357 0.58033 0.0
O128 O 0.31267 0.27634 0.56325 0.0
O129 O 0.27267 0.1571 0.51242 0.0
C130 C 0.25113 0.96523 0.76019 0.0
O131 O 0.24875 0.96923 0.72904 0.0
O132 O 0.18694 1.02412 0.72798 0.0
Zn133 Zn 0.21266 0.02782 0.78039 0.0
O134 O 0.18708 0.03402 0.82723 0.0
C135 C 0.23699 0.1035 0.77611 0.0
O136 O 0.2108 0.09781 0.75975 0.0
O137 O 0.23912 0.98463 0.78195 0.0
C138 C 0.16637 1.01452 0.83854 0.0
O139 O 0.15567 0.98377 0.81972 0.0
C140 C 0.16367 0.03362 0.71813 0.0
O141 O 0.14907 0.04572 0.74188 0.0
O142 O 0.2435 0.07867 0.78757 0.0
C143 C 0.34188 0.02661 0.06809 0.0
O144 O 0.34923 1.0122 0.09226 0.0
O145 O 0.36645 0.95191 0.06067 0.0
Zn146 Zn 0.37716 0.98629 0.0331 0.0
O147 O 0.37235 0.96009 0.98459 0.0
C148 C 0.43574 0.99306 0.06192 0.0
O149 O 0.4234 0.96546 0.07122 0.0
O150 O 0.35195 1.02011 0.04007 0.0
C151 C 0.38396 0.93483 0.97878 0.0
O152 O 0.3993 0.92829 1.00378 0.0
C153 C 0.35006 0.92249 0.04919 0.0
O154 O 0.33467 0.9155 0.01926 0.0
O155 O 0.42 1.00812 0.04661 0.0
C156 C 0.30371 0.42638 0.02881 0.0
O157 O 0.29463 0.39355 0.01611 0.0
O158 O 0.34936 0.38572 0.09093 0.0
Zn159 Zn 0.35633 0.40595 0.04883 0.0
O160 O 0.35072 0.37324 1.00137 0.0
C161 C 0.41852 0.42356 0.04402 0.0
O162 O 0.41268 0.392 0.02642 0.0
O163 O 0.32921 0.43773 0.04504 0.0
C164 C 0.35684 0.39045 0.97913 0.0
O165 O 0.3655 0.42364 0.98966 0.0
C166 C 0.33361 0.35763 0.09398 0.0
O167 O 0.31918 0.33572 0.06666 0.0
O168 O 0.39814 0.43514 0.05694 0.0
C169 C 0.8333 0.08967 1.01221 0.0
O170 O 0.81658 0.0828 0.03527 0.0
O171 O 0.81831 0.17414 0.06295 0.0
Zn172 Zn 0.80676 0.14757 0.01453 0.0
O173 O 0.80634 0.17831 0.98246 0.0
C174 C 0.74857 0.14472 0.01596 0.0
O175 O 0.76075 0.17737 0.02287 0.0
O176 O 0.83241 0.11554 1.00032 0.0
C177 C 0.79054 0.16549 0.95409 0.0
O178 O 0.77917 0.1326 0.9459 0.0
C179 C 0.82038 0.2059 0.07248 0.0
O180 O 0.81839 0.22373 0.04958 0.0
O181 O 0.76477 0.12379 1.01181 0.0
C182 C 0.27294 0.51089 0.24274 0.0
O183 O 0.24665 0.49174 0.232 0.0
O184 O 0.22797 0.56502 0.19619 0.0
Zn185 Zn 0.2461 0.5669 0.24267 0.0
O186 O 0.21325 0.54998 0.26661 0.0
C187 C 0.2485 0.63547 0.27853 0.0
O188 O 0.21999 0.62611 0.27286 0.0
O189 O 0.27737 0.54268 0.24599 0.0
C190 C 0.21449 0.55997 0.29828 0.0
O191 O 0.23959 0.57661 0.31614 0.0
C192 C 0.20595 0.54034 0.18534 0.0
O193 O 0.20129 0.5155 0.20118 0.0
O194 O 0.26335 0.61457 0.26725 0.0
C195 C 0.81575 0.92233 0.53242 0.0
O196 O 0.80599 0.89041 0.51624 0.0
O197 O 0.85871 0.86982 0.58455 0.0
Zn198 Zn 0.86559 0.89655 0.54701 0.0
O199 O 0.85726 0.86991 0.4976 0.0
C200 C 0.92086 0.94877 0.57341 0.0
O201 O 0.90697 0.96182 0.59744 0.0
O202 O 0.84102 0.93135 0.54924 0.0
C203 C 0.8566 0.84125 0.47834 0.0
O204 O 0.86144 0.81628 0.49156 0.0
C205 C 0.84152 0.87679 0.60609 0.0
O206 O 0.82725 0.90002 0.60282 0.0
O207 O 0.90776 0.92184 0.55173 0.0
C208 C 0.92577 0.14428 0.30129 0.0
O209 O 0.92685 0.14083 0.33266 0.0
O210 O 0.98831 0.0731 0.23544 0.0
Zn211 Zn 0.96293 0.07974 0.28241 0.0
O212 O 0.98835 0.08191 0.3349 0.0
C213 C 0.93698 1.00432 0.28603 0.0
O214 O 0.96338 1.00892 0.30139 0.0
O215 O 0.93794 0.12415 0.28048 0.0
C216 C 1.01114 0.07125 0.34429 0.0
O217 O 0.02507 0.05852 0.32014 0.0
C218 C 1.00661 0.09374 0.22229 0.0
O219 O 1.01423 0.12572 0.23878 0.0
O220 O 0.93093 0.0297 0.27521 0.0
C221 C 0.36138 0.64136 0.49504 0.0
O222 O 0.37128 0.67427 0.4991 0.0
O223 O 0.32322 0.68996 0.56283 0.0
Zn224 Zn 0.31021 0.66241 0.51522 0.0
O225 O 0.30915 0.69431 0.48469 0.0
C226 C 0.25751 0.62967 0.53847 0.0
O227 O 0.27392 0.63431 0.56731 0.0
O228 O 0.3355 0.63017 0.5005 0.0
C229 C 0.29242 0.6837 0.45684 0.0
O230 O 0.2793 0.6513 0.4474 0.0
C231 C 0.30637 0.70785 0.57548 0.0
O232 O 0.28305 0.70887 0.55649 0.0
O233 O 0.26861 0.63788 0.51319 0.0
C234 C 0.43093 0.65619 0.80002 0.0
O235 O 0.43072 0.65258 0.83128 0.0
O236 O 0.49012 0.57897 0.73527 0.0
Zn237 Zn 0.46503 0.58825 0.78198 0.0
O238 O 0.48938 0.5878 0.83429 0.0
C239 C 0.4389 0.51193 0.77799 0.0
O240 O 0.46677 0.51411 0.78532 0.0
O241 O 0.44262 0.63502 0.77968 0.0
C242 C 0.51238 0.57777 0.84431 0.0
O243 O 0.52825 0.56787 0.82102 0.0
C244 C 0.50659 0.59893 0.71972 0.0
O245 O 0.51199 0.63169 0.73298 0.0
O246 O 0.43158 0.53965 0.77491 0.0
C247 C 0.77246 0.05315 0.8116 0.0
O248 O 0.76722 0.07724 0.8351 0.0
O249 O 0.71249 0.05751 0.72353 0.0
Zn250 Zn 0.72887 0.07118 0.77243 0.0
O251 O 0.69432 0.06355 0.797 0.0
C252 C 0.74653 0.14089 0.76733 0.0
O253 O 0.72869 0.13013 0.73893 0.0
O254 O 0.75724 0.0446 0.78275 0.0
C255 C 0.67424 0.07786 0.7898 0.0
O256 O 0.67881 0.0999 0.77066 0.0
C257 C 0.68997 0.03321 0.71458 0.0
O258 O 0.68034 1.0155 0.73635 0.0
O259 O 0.74984 0.12002 0.78528 0.0
C260 C 0.85769 0.66742 0.0295 0.0
O261 O 0.86848 0.7003 0.04032 0.0
O262 O 0.81581 0.7219 0.06112 0.0
Zn263 Zn 0.80802 0.69199 1.013 0.0
O264 O 0.81886 0.71332 0.97314 0.0
C265 C 0.75445 0.65644 0.02875 0.0
O266 O 0.77132 0.66177 0.05745 0.0
O267 O 0.83154 0.657 0.01527 0.0
C268 C 0.83106 0.74364 0.97231 0.0
O269 O 0.83804 0.76707 1.00067 0.0
C270 C 0.81429 0.75084 0.07808 0.0
O271 O 0.80606 0.77267 0.06247 0.0
O272 O 0.76529 0.66725 1.00436 0.0
C273 C 0.93549 0.61298 0.76846 0.0
O274 O 0.95552 0.60085 0.75303 0.0
O275 O 0.98671 0.57008 0.79403 0.0
Zn276 Zn 0.9515 0.57598 0.81619 0.0
O277 O 0.96612 0.59109 0.86594 0.0
C278 C 0.93574 0.50392 0.80607 0.0
O279 O 0.96333 0.5094 0.81782 0.0
O280 O 0.93088 0.60717 0.79726 0.0
C281 C 0.95903 0.57044 0.88457 0.0
O282 O 0.93497 0.54656 0.87494 0.0
C283 C 1.0121 0.57654 0.81011 0.0
O284 O 1.01716 0.59213 0.84222 0.0
O285 O 0.92496 0.52907 0.80393 0.0
C286 C 0.83865 0.52505 0.5646 0.0
O287 O 0.84915 0.51588 0.59111 0.0
O288 O 0.87427 0.45965 0.57136 0.0
Zn289 Zn 0.86871 0.47695 0.52934 0.0
O290 O 0.85221 0.43789 0.48878 0.0
C291 C 0.92709 0.51883 0.54451 0.0
O292 O 0.91744 0.53443 0.57116 0.0
O293 O 0.84452 0.51217 0.53552 0.0
C294 C 0.86889 0.41847 0.47917 0.0
O295 O 0.8946 0.42403 0.49661 0.0
C296 C 0.86497 0.42901 0.57297 0.0
O297 O 0.84807 0.40752 0.547 0.0
O298 O 0.90949 0.49608 0.52205 0.0
C299 C 0.7481 0.4551 0.25958 0.0
O300 O 0.75314 0.46358 0.2309 0.0
O301 O 0.68203 0.51499 0.22394 0.0
Zn302 Zn 0.70802 0.51754 0.2761 0.0
O303 O 0.68324 0.52597 0.32325 0.0
C304 C 0.73406 0.59265 0.2718 0.0
O305 O 0.70755 0.58801 0.25672 0.0
O306 O 0.73212 0.47211 0.27819 0.0
C307 C 0.66222 0.50747 0.33503 0.0
O308 O 0.65065 0.47672 0.31663 0.0
C309 C 0.65793 0.52316 0.21459 0.0
O310 O 0.64274 0.53303 0.23865 0.0
O311 O 0.74026 0.5673 0.28256 0.0
Tb312 Tb 0.05353 0.0289 1.00804 0.0
C313 C 0.13237 0.15348 0.10397 0.0
C314 C 0.13746 0.19649 0.07142 0.0
C315 C 0.14212 0.21312 0.13273 0.0
C316 C 0.13184 0.16205 0.07317 0.0
C317 C 0.13821 0.17889 0.13424 0.0
C318 C 0.14174 0.22191 0.10131 0.0
C319 C 0.1391 0.13513 0.16502 0.0
N320 N 0.12918 0.12027 0.10423 0.0
C321 C 0.13358 0.11095 0.13429 0.0
C322 C 0.14105 0.16923 0.16504 0.0
Tb323 Tb 0.11922 0.08196 0.05265 0.0
N324 N 0.12819 0.13672 0.04506 0.0
C325 C 0.13277 0.14463 0.01458 0.0
C326 C 0.13989 0.20438 0.03987 0.0
C327 C 0.13808 0.17834 1.01142 0.0
H328 H 0.132 0.08467 0.13475 0.0
H329 H 0.14063 0.18416 0.98696 0.0
H330 H 0.14576 0.24847 0.10046 0.0
H331 H 0.14185 0.12743 0.18866 0.0
H332 H 0.1312 0.12512 0.99209 0.0
H333 H 0.03433 0.92308 0.0691 0.0
H334 H 0.14412 0.23048 0.03739 0.0
H335 H 0.03824 0.02891 0.92662 0.0
H336 H 0.04241 0.98289 0.06636 0.0
H337 H 0.02912 0.98804 0.87166 0.0
H338 H 0.14639 0.23301 0.15568 0.0
H339 H 0.03173 0.87873 0.01722 0.0
H340 H 0.03081 0.86342 0.95401 0.0
H341 H 0.14554 0.18796 0.18885 0.0
H342 H 0.02993 0.88135 0.89999 0.0
N343 N 0.04518 0.97344 1.01337 0.0
C344 C 0.0411 0.96413 0.04332 0.0
C345 C 0.03518 0.9051 0.0158 0.0
C346 C 0.0372 0.91442 0.98484 0.0
C347 C 0.03655 0.93003 0.04508 0.0
C348 C 0.04181 0.94915 0.98448 0.0
H349 H 0.02796 0.92754 0.86897 0.0
N350 N 0.04331 0.9924 0.9554 0.0
C351 C 0.03267 0.97955 0.89472 0.0
C352 C 0.04097 0.95902 0.95432 0.0
C353 C 0.03787 1.0027 0.9261 0.0
C354 C 0.03212 0.94546 0.89329 0.0
C355 C 0.03574 0.93468 0.92335 0.0
O356 O 1.01782 0.04495 0.98862 0.0
O357 O 0.07726 0.08188 0.02786 0.0
O358 O 0.08587 0.08925 0.0881 0.0
O359 O 0.04922 0.04117 0.0642 0.0
O360 O 0.05639 0.06879 0.97977 0.0
O361 O 1.01323 1.01495 0.02583 0.0
O362 O 0.15638 0.07237 0.07717 0.0
O363 O 0.09551 0.02931 0.03324 0.0
O364 O 0.08633 1.02113 0.97204 0.0
O365 O 0.12396 0.06811 0.99661 0.0
O366 O 0.11709 0.04187 0.08084 0.0
O367 O 0.15784 0.0892 0.03065 0.0
C368 C 0.07147 0.09418 1.00245 0.0
C369 C 0.97099 1.0122 0.98939 0.0
C370 C 0.91988 1.01242 0.97888 0.0
C371 C 0.94799 0.02793 0.99555 0.0
C372 C 0.91479 0.98089 0.95586 0.0
C373 C 0.96579 0.98069 0.96631 0.0
C374 C 0.93776 0.96521 0.94956 0.0
C375 C 0.0612 0.06741 0.09033 0.0
C376 C 1.00016 0.03011 1.0066 0.0
C377 C 0.03324 0.90032 0.9235 0.0
C378 C 0.03383 0.89015 0.95424 0.0
C379 C 0.1018 1.01664 0.05818 0.0
C380 C 0.20197 0.10205 0.06683 0.0
C381 C 0.22483 0.08576 0.06853 0.0
C382 C 0.25371 0.1047 0.0768 0.0
C383 C 0.25962 0.14028 0.08375 0.0
C384 C 0.20799 0.13766 0.07445 0.0
C385 C 0.23678 0.15666 0.08301 0.0
C386 C 0.11157 0.0422 0.97027 0.0
C387 C 0.17252 0.08099 0.05465 0.0
H388 H 0.952 0.05249 1.0131 0.0
H389 H 0.89326 0.96875 0.94247 0.0
H390 H 0.98329 0.96827 0.96108 0.0
H391 H 0.93394 0.94123 0.93133 0.0
H392 H 0.22022 0.05822 0.06234 0.0
H393 H 0.28182 0.15529 0.08983 0.0
H394 H 0.19062 0.15066 0.07319 0.0
H395 H 0.24142 0.18412 0.0886 0.0
Tb396 Tb 0.34287 0.7818 0.24429 0.0
C397 C 0.3653 0.91446 0.33954 0.0
C398 C 0.39511 0.91786 0.3917 0.0
C399 C 0.40003 0.96735 0.36757 0.0
C400 C 0.37399 0.89916 0.36417 0.0
C401 C 0.37709 0.94937 0.34206 0.0
C402 C 0.40913 0.95153 0.39234 0.0
C403 C 0.33967 0.94749 0.29782 0.0
N404 N 0.34289 0.89618 0.31553 0.0
C405 C 0.32897 0.91287 0.29611 0.0
C406 C 0.36433 0.96563 0.32023 0.0
Tb407 Tb 0.32713 0.83922 0.31526 0.0
N408 N 0.35903 0.86721 0.36335 0.0
C409 C 0.36135 0.85428 0.39163 0.0
C410 C 0.40003 0.90297 0.41881 0.0
C411 C 0.3825 0.87136 0.41916 0.0
H412 H 0.30944 0.90026 0.27921 0.0
H413 H 0.3851 0.86024 0.44071 0.0
H414 H 0.4258 0.96614 0.41291 0.0
H415 H 0.32883 0.96014 0.28176 0.0
H416 H 0.3477 0.83 0.39231 0.0
H417 H 0.25311 0.67057 0.20917 0.0
H418 H 0.41609 0.91644 0.44039 0.0
H419 H 0.41238 0.78476 0.23207 0.0
H420 H 0.27538 0.73112 0.22289 0.0
H421 H 0.44553 0.74685 0.22999 0.0
H422 H 0.40983 0.99392 0.36934 0.0
H423 H 0.28305 0.62934 0.21296 0.0
H424 H 0.33192 0.61826 0.22578 0.0
H425 H 0.37256 0.99243 0.32146 0.0
H426 H 0.38498 0.63956 0.23321 0.0
N427 N 0.31841 0.72593 0.23659 0.0
C428 C 0.28919 0.71423 0.22585 0.0
C429 C 0.29311 0.65628 0.22004 0.0
C430 C 0.32301 0.66801 0.22996 0.0
C431 C 0.27621 0.67947 0.21756 0.0
C432 C 0.33533 0.70334 0.2371 0.0
H433 H 0.42757 0.6874 0.23389 0.0
N434 N 0.37596 0.74852 0.2409 0.0
C435 C 0.4231 0.73774 0.23346 0.0
C436 C 0.36516 0.71516 0.24001 0.0
C437 C 0.4041 0.75936 0.23508 0.0
C438 C 0.4129 0.70423 0.23575 0.0
C439 C 0.38339 0.69217 0.23764 0.0
O440 O 0.34158 0.80756 0.20501 0.0
O441 O 0.3475 0.83409 0.27024 0.0
O442 O 0.30428 0.84295 0.26673 0.0
O443 O 0.29788 0.7876 0.23816 0.0
O444 O 0.38292 0.82142 0.25018 0.0
O445 O 0.33646 0.75382 0.19369 0.0
O446 O 0.28153 0.83077 0.30931 0.0
O447 O 0.31738 0.78757 0.28537 0.0
O448 O 0.37422 0.7804 0.28732 0.0
O449 O 0.36824 0.82471 0.33069 0.0
O450 O 0.32138 0.79428 0.33666 0.0
O451 O 0.30597 0.85824 0.35623 0.0
C452 C 0.37374 0.84572 0.26759 0.0
C453 C 0.35629 0.78373 0.15386 0.0
C454 C 0.36908 0.81299 0.10941 0.0
C455 C 0.35427 0.80953 0.13717 0.0
C456 C 0.38604 0.79022 0.0979 0.0
C457 C 0.37358 0.76111 0.14266 0.0
C458 C 0.3884 0.76445 0.11471 0.0
C459 C 0.29022 0.81689 0.24189 0.0
C460 C 0.33861 0.78051 0.1814 0.0
C461 C 0.37129 0.65748 0.23459 0.0
C462 C 0.34109 0.64536 0.23039 0.0
C463 C 0.31647 0.77191 0.30873 0.0
C464 C 0.26002 0.82235 0.35697 0.0
C465 C 0.2703 0.80251 0.37699 0.0
C466 C 0.25095 0.77701 0.38729 0.0
C467 C 0.22091 0.77255 0.37878 0.0
C468 C 0.22997 0.8179 0.34894 0.0
C469 C 0.21051 0.79331 0.36014 0.0
C470 C 0.38183 0.80066 0.31822 0.0
C471 C 0.28015 0.84404 0.34041 0.0
H472 H 0.34074 0.82689 0.14557 0.0
H473 H 0.39759 0.79262 0.07632 0.0
H474 H 0.37542 0.74084 0.15516 0.0
H475 H 0.40162 0.74696 0.10598 0.0
H476 H 0.29341 0.80582 0.38335 0.0
H477 H 0.20555 0.75302 0.3865 0.0
H478 H 0.22162 0.83271 0.33317 0.0
H479 H 0.18735 0.78971 0.35356 0.0
Tb480 Tb 0.62994 0.06104 0.5255 0.0
C481 C 0.53567 0.9996 0.60459 0.0
C482 C 0.51094 0.94542 0.56812 0.0
C483 C 0.51329 0.9532 0.62914 0.0
C484 C 0.52731 0.97911 0.57264 0.0
C485 C 0.52824 0.98725 0.63327 0.0
C486 C 0.50464 0.93229 0.59658 0.0
C487 C 0.5483 0.04391 0.66739 0.0
N488 N 0.54969 0.03238 0.60734 0.0
C489 C 0.55502 0.05496 0.63811 0.0
C490 C 0.53522 1.00978 0.66504 0.0
Tb491 Tb 0.56098 0.04809 0.55824 0.0
N492 N 0.53362 0.99297 0.54593 0.0
C493 C 0.52188 0.9751 0.51384 0.0
C494 C 0.5006 0.92637 0.53522 0.0
C495 C 0.50567 0.9415 0.508 0.0
H496 H 0.56528 0.08136 0.6403 0.0
H497 H 0.4972 0.92727 0.48245 0.0
H498 H 0.49239 0.90635 0.59365 0.0
H499 H 0.55326 0.06172 0.69176 0.0
H500 H 0.52553 0.98604 0.4923 0.0
H501 H 0.68849 0.18113 0.60774 0.0
H502 H 0.48803 0.90037 0.53062 0.0
H503 H 0.6318 0.0313 0.44431 0.0
H504 H 0.66158 0.12148 0.59445 0.0
H505 H 0.64503 0.05389 0.3946 0.0
H506 H 0.50761 0.94308 0.65086 0.0
H507 H 0.69901 0.21088 0.56175 0.0
H508 H 0.69719 0.20782 0.49924 0.0
H509 H 0.52991 1.00131 0.68773 0.0
H510 H 0.6852 0.17309 0.44087 0.0
N511 N 0.65583 0.11686 0.541 0.0
C512 C 0.66593 0.1337 0.57385 0.0
C513 C 0.68712 0.18451 0.55565 0.0
C514 C 0.67845 0.16661 0.52205 0.0
C515 C 0.68128 0.16777 0.58164 0.0
C516 C 0.66296 0.13235 0.51557 0.0
H517 H 0.66603 0.11541 0.40152 0.0
N518 N 0.64319 0.07974 0.47852 0.0
C519 C 0.64806 0.07093 0.41929 0.0
C520 C 0.65629 0.11304 0.48303 0.0
C521 C 0.64042 0.05823 0.44746 0.0
C522 C 0.65986 0.10565 0.42329 0.0
C523 C 0.66476 0.12709 0.45562 0.0
O524 O 0.65482 0.02696 0.50548 0.0
O525 O 0.5938 1.02437 0.53643 0.0
O526 O 0.59111 0.03451 0.59317 0.0
O527 O 0.63491 0.06388 0.58022 0.0
O528 O 0.61177 1.00939 0.49398 0.0
O529 O 0.66953 0.06278 0.55336 0.0
O530 O 0.53523 0.08116 0.57799 0.0
O531 O 0.5966 0.08466 0.54612 0.0
O532 O 0.59892 0.06978 0.48786 0.0
O533 O 0.55545 0.0418 0.50333 0.0
O534 O 0.57975 0.09994 0.58902 0.0
O535 O 0.52251 0.0475 0.52869 0.0
C536 C 0.59222 0.99906 0.512 0.0
C537 C 0.70555 0.04447 0.52281 0.0
C538 C 0.75017 1.02435 0.5197 0.0
C539 C 0.72091 1.01953 0.5254 0.0
C540 C 0.76392 0.05471 0.51144 0.0
C541 C 0.71948 0.07449 0.51428 0.0
C542 C 0.74857 0.07951 0.50861 0.0
C543 C 0.61954 0.04668 0.59943 0.0
C544 C 0.67553 0.03897 0.53072 0.0
C545 C 0.67878 0.16167 0.4616 0.0
C546 C 0.68562 0.18143 0.49482 0.0
C547 C 0.5984 0.11036 0.57009 0.0
C548 C 0.485 0.06266 0.55805 0.0
C549 C 0.46649 0.08177 0.54737 0.0
C550 C 0.43709 0.07492 0.55258 0.0
C551 C 0.42637 0.04826 0.56813 0.0
C552 C 0.474 0.03638 0.57377 0.0
C553 C 0.44478 0.0292 0.5787 0.0
C554 C 0.57055 0.05661 0.48236 0.0
C555 C 0.51543 0.07009 0.55167 0.0
H556 H 0.71018 0.99659 0.53249 0.0
H557 H 0.78642 0.05908 0.50686 0.0
H558 H 0.70803 0.09408 0.51237 0.0
H559 H 0.7593 0.10275 0.50213 0.0
H560 H 0.47504 0.10218 0.53531 0.0
H561 H 0.40369 0.042 0.57187 0.0
H562 H 0.48787 1.02136 0.58206 0.0
H563 H 0.43634 1.00873 0.59066 0.0
Tb564 Tb 0.30101 0.32045 0.77228 0.0
C565 C 0.39036 0.26087 0.84221 0.0
C566 C 0.40968 0.30266 0.89429 0.0
C567 C 0.40849 0.24322 0.8915 0.0
C568 C 0.39645 0.29395 0.8604 0.0
C569 C 0.39731 0.23523 0.85707 0.0
C570 C 0.41463 0.27694 0.91013 0.0
C571 C 0.3851 0.19695 0.8019 0.0
N572 N 0.38008 0.25445 0.80898 0.0
C573 C 0.37853 0.22328 0.78838 0.0
C574 C 0.39412 0.2028 0.83652 0.0
Tb575 Tb 0.3699 0.29903 0.78875 0.0
N576 N 0.392 0.31798 0.84382 0.0
C577 C 0.40348 0.35158 0.85873 0.0
C578 C 0.41897 0.33702 0.91059 0.0
C579 C 0.4165 0.36159 0.89243 0.0
H580 H 0.37147 0.21841 0.7616 0.0
H581 H 0.42453 0.38827 0.90439 0.0
H582 H 0.42436 0.28306 0.93629 0.0
H583 H 0.38314 0.17216 0.78562 0.0
H584 H 0.40181 0.37106 0.84527 0.0
H585 H 0.24895 0.23171 0.65508 0.0
H586 H 0.42917 0.34482 0.93663 0.0
H587 H 0.29763 0.40058 0.79979 0.0
H588 H 0.27171 0.24867 0.71394 0.0
H589 H 0.28655 0.44706 0.77595 0.0
H590 H 0.41356 0.2238 0.90355 0.0
H591 H 0.24249 0.27532 0.62374 0.0
H592 H 0.24611 0.337 0.62478 0.0
H593 H 0.39932 0.18242 0.84692 0.0
H594 H 0.25647 0.39609 0.65788 0.0
N595 N 0.27909 0.30189 0.71689 0.0
C596 C 0.26894 0.26826 0.70123 0.0
C597 C 0.25251 0.28302 0.64986 0.0
C598 C 0.26091 0.31726 0.66662 0.0
C599 C 0.256 0.25837 0.6675 0.0
C600 C 0.27391 0.32583 0.70061 0.0
H601 H 0.27099 0.43733 0.71459 0.0
N602 N 0.28963 0.36478 0.75225 0.0
C603 C 0.28467 0.42236 0.75954 0.0
C604 C 0.27957 0.35868 0.71901 0.0
C605 C 0.29088 0.39581 0.77297 0.0
C606 C 0.27601 0.41682 0.7249 0.0
C607 C 0.27269 0.38443 0.70426 0.0
O608 O 0.27322 0.33645 0.80696 0.0
O609 O 0.33382 0.31558 0.81013 0.0
O610 O 0.33635 0.25682 0.79948 0.0
O611 O 0.29505 0.2646 0.77015 0.0
O612 O 0.31507 0.35616 0.82086 0.0
O613 O 0.26088 0.28725 0.77338 0.0
O614 O 0.39702 0.28181 0.75375 0.0
O615 O 0.33766 0.30527 0.75138 0.0
O616 O 0.33447 0.36408 0.7635 0.0
O617 O 0.37699 0.35445 0.78876 0.0
O618 O 0.35541 0.26419 0.73928 0.0
O619 O 0.41137 0.32993 0.78914 0.0
C620 C 0.33352 0.34166 0.83266 0.0
C621 C 0.22288 0.31255 0.79111 0.0
C622 C 0.17461 0.30893 0.80962 0.0
C623 C 0.2036 0.3059 0.81482 0.0
C624 C 0.1655 0.31926 0.78055 0.0
C625 C 0.21312 0.32246 0.76222 0.0
C626 C 0.18461 0.32586 0.75707 0.0
C627 C 0.30864 0.24543 0.78539 0.0
C628 C 0.25294 0.3087 0.79673 0.0
C629 C 0.26156 0.37661 0.66983 0.0
C630 C 0.25565 0.34299 0.651 0.0
C631 C 0.33779 0.28002 0.72789 0.0
C632 C 0.44781 0.30275 0.76954 0.0
C633 C 0.46692 0.30908 0.7456 0.0
C634 C 0.49531 0.30382 0.74947 0.0
C635 C 0.50425 0.29263 0.77804 0.0
C636 C 0.45727 0.29152 0.79769 0.0
C637 C 0.48536 0.28656 0.80189 0.0
C638 C 0.36285 0.37424 0.77519 0.0
C639 C 0.41831 0.30849 0.7649 0.0
H640 H 0.21107 0.29806 0.8371 0.0
H641 H 0.14369 0.32277 0.7762 0.0
H642 H 0.22751 0.32757 0.74368 0.0
H643 H 0.1773 0.33376 0.73481 0.0
H644 H 0.45974 0.31842 0.7242 0.0
H645 H 0.52576 0.28806 0.78171 0.0
H646 H 0.44303 0.28673 0.81646 0.0
H647 H 0.49252 0.27784 0.82369 0.0
Tb648 Tb 0.08012 0.0888 0.55326 0.0
C649 C 0.11 0.99085 0.43971 0.0
C650 C 0.06883 0.98042 0.39675 0.0
C651 C 0.11633 0.97747 0.38013 0.0
C652 C 0.08087 0.98908 0.43117 0.0
C653 C 0.12784 0.98404 0.41429 0.0
C654 C 0.08686 0.97565 0.37137 0.0
C655 C 0.16616 0.98655 0.458 0.0
N656 N 0.12035 0.9968 0.47293 0.0
C657 C 0.1476 0.99291 0.48222 0.0
C658 C 0.15642 0.98273 0.4239 0.0
Tb659 Tb 0.08898 1.0104 0.51074 0.0
N660 N 0.06403 0.99368 0.45645 0.0
C661 C 0.0344 0.98657 0.44839 0.0
C662 C 0.0389 0.97574 0.38875 0.0
C663 C 0.02158 0.97816 0.41469 0.0
H664 H 0.15545 0.99584 0.50847 0.0
H665 H 0.99825 0.97373 0.40878 0.0
H666 H 0.07804 0.96951 0.34488 0.0
H667 H 0.18795 0.9846 0.46567 0.0
H668 H 1.01999 0.98832 0.46724 0.0
H669 H 0.16878 0.13072 0.65614 0.0
H670 H 0.02887 0.96924 0.36268 0.0
H671 H 1.01067 0.09224 0.55161 0.0
H672 H 0.14678 0.10995 0.59712 0.0
H673 H 0.97743 0.10728 0.59226 0.0
H674 H 0.12979 0.97264 0.36028 0.0
H675 H 0.13809 0.14201 0.70139 0.0
H676 H 0.08864 0.14489 0.71764 0.0
H677 H 0.17079 0.9776 0.40514 0.0
H678 H 0.03664 0.13908 0.70022 0.0
N679 N 0.1032 0.10787 0.60791 0.0
C680 C 0.13272 0.11449 0.61615 0.0
C681 C 0.12813 0.13268 0.67532 0.0
C682 C 0.0982 0.12776 0.66669 0.0
C683 C 0.1455 0.12642 0.64985 0.0
C684 C 0.08633 0.11544 0.63235 0.0
H685 H 0.99511 0.1257 0.65349 0.0
N686 N 0.04719 0.10158 0.58924 0.0
C687 C 0.99985 0.1088 0.60118 0.0
C688 C 0.05729 0.11233 0.62265 0.0
C689 C 1.01888 0.10033 0.57817 0.0
C690 C 1.00989 0.11914 0.63571 0.0
C691 C 0.03898 0.12121 0.64685 0.0
O692 O 0.06498 0.12978 0.54142 0.0
O693 O 0.07666 0.05647 0.50182 0.0
O694 O 0.12673 0.04725 0.50208 0.0
O695 O 0.12444 0.096 0.54077 0.0
O696 O 0.0442 0.07985 0.51186 0.0
O697 O 0.11091 0.13326 0.55289 0.0
O698 O 0.07015 0.9769 0.53984 0.0
O699 O 0.0948 0.04378 0.56138 0.0
O700 O 0.04905 0.04986 0.56926 0.0
O701 O 0.0438 1.00837 0.52039 0.0
O702 O 0.12678 1.01996 0.54973 0.0
O703 O 0.09114 0.95893 0.49792 0.0
C704 C 0.05318 0.06143 0.48751 0.0
C705 C 0.09663 0.1848 0.55833 0.0
C706 C 0.11431 0.24177 0.54987 0.0
C707 C 0.10771 0.20646 0.53788 0.0
C708 C 0.10968 0.25532 0.58304 0.0
C709 C 0.09212 0.19832 0.5914 0.0
C710 C 0.09864 0.23361 0.60366 0.0
C711 C 0.13752 0.07913 0.51827 0.0
C712 C 0.09125 0.14839 0.54401 0.0
C713 C 0.05038 0.13236 0.68121 0.0
C714 C 0.07997 0.13562 0.69113 0.0
C715 C 0.11896 0.03936 0.57453 0.0
C716 C 0.09691 0.93702 0.5471 0.0
C717 C 0.08421 0.92527 0.57385 0.0
C718 C 0.1005 0.91347 0.59723 0.0
C719 C 0.12959 0.91323 0.59337 0.0
C720 C 0.12592 0.93604 0.54355 0.0
C721 C 0.14213 0.92437 0.56666 0.0
C722 C 0.03416 1.02137 0.54859 0.0
C723 C 0.08023 0.95209 0.5246 0.0
H724 H 0.11161 0.19567 0.5125 0.0
H725 H 0.11426 0.28253 0.59285 0.0
H726 H 0.08376 0.18176 0.60756 0.0
H727 H 0.09512 0.24418 0.62916 0.0
H728 H 0.06182 0.92582 0.5768 0.0
H729 H 0.14246 0.90371 0.61063 0.0
H730 H 0.13622 0.9444 0.52309 0.0
H731 H 0.16449 0.92385 0.56377 0.0
Tb732 Tb 0.37783 0.8409 0.76793 0.0
C733 C 0.31721 0.75617 0.85505 0.0
C734 C 0.32626 0.7006 0.83535 0.0
C735 C 0.31902 0.71915 0.89398 0.0
C736 C 0.32317 0.73214 0.82949 0.0
C737 C 0.31445 0.74975 0.88746 0.0
C738 C 0.32487 0.69458 0.86793 0.0
C739 C 0.30024 0.80278 0.90353 0.0
N740 N 0.31248 0.78511 0.84753 0.0
C741 C 0.30292 0.8078 0.8709 0.0
C742 C 0.30633 0.77381 0.91198 0.0
Tb743 Tb 0.31833 0.79146 0.79356 0.0
N744 N 0.32404 0.73885 0.79834 0.0
C745 C 0.32587 0.71388 0.77128 0.0
C746 C 0.32967 0.67569 0.80805 0.0
C747 C 0.32903 0.68221 0.77579 0.0
H748 H 0.29821 0.8304 0.86487 0.0
H749 H 0.33117 0.66293 0.75437 0.0
H750 H 0.32752 0.67066 0.87302 0.0
H751 H 0.29346 0.82128 0.92213 0.0
H752 H 0.32559 0.71835 0.74613 0.0
H753 H 0.35311 0.96466 0.78702 0.0
H754 H 0.33214 0.65115 0.81148 0.0
H755 H 0.41683 0.8082 0.70926 0.0
H756 H 0.36441 0.91519 0.8046 0.0
H757 H 0.42581 0.81249 0.65181 0.0
H758 H 0.31726 0.71386 0.9188 0.0
H759 H 0.35219 0.96803 0.72707 0.0
H760 H 0.36248 0.9439 0.66873 0.0
H761 H 0.30408 0.76989 0.93722 0.0
H762 H 0.38256 0.90213 0.63163 0.0
N763 N 0.3679 0.88899 0.75481 0.0
C764 C 0.3637 0.91577 0.77829 0.0
C765 C 0.35692 0.94596 0.73461 0.0
C766 C 0.36426 0.9202 0.71134 0.0
C767 C 0.35751 0.94419 0.76846 0.0
C768 C 0.37023 0.89201 0.72251 0.0
H769 H 0.40693 0.8535 0.62538 0.0
N770 N 0.39044 0.84438 0.71504 0.0
C771 C 0.41305 0.82816 0.66541 0.0
C772 C 0.38196 0.8689 0.70187 0.0
C773 C 0.40755 0.82559 0.6981 0.0
C774 C 0.40233 0.85131 0.65056 0.0
C775 C 0.38734 0.87278 0.66918 0.0
O776 O 0.41668 0.84067 0.79707 0.0
O777 O 0.36432 0.79482 0.78767 0.0
O778 O 0.35039 0.81613 0.83796 0.0
O779 O 0.36965 0.86335 0.81855 0.0
O780 O 0.39244 0.79295 0.75325 0.0
O781 O 0.41271 0.88402 0.77808 0.0
O782 O 0.2756 0.79636 0.79705 0.0
O783 O 0.3306 0.83662 0.77167 0.0
O784 O 0.35452 0.81024 0.72037 0.0
O785 O 0.31897 0.77249 0.73904 0.0
O786 O 0.30473 0.83963 0.80884 0.0
O787 O 0.28406 0.75233 0.76453 0.0
C788 C 0.37883 0.77459 0.7717 0.0
C789 C 0.45917 0.87227 0.78177 0.0
C790 C 0.50966 0.86958 0.79342 0.0
C791 C 0.48158 0.86674 0.80287 0.0
C792 C 0.51499 0.87724 0.76215 0.0
C793 C 0.46505 0.88071 0.75089 0.0
C794 C 0.49276 0.88284 0.74107 0.0
C795 C 0.36441 0.84825 0.84359 0.0
C796 C 0.43021 0.86996 0.79299 0.0
C797 C 0.37897 0.89903 0.65685 0.0
C798 C 0.3675 0.92278 0.67795 0.0
C799 C 0.31589 0.85656 0.78803 0.0
C800 C 0.23853 0.7466 0.78554 0.0
C801 C 0.21154 0.74938 0.77184 0.0
C802 C 0.18583 0.73251 0.78151 0.0
C803 C 0.18727 0.71261 0.80532 0.0
C804 C 0.23998 0.7263 0.80895 0.0
C805 C 0.21433 0.7093 0.81874 0.0
C806 C 0.33284 0.7833 0.71501 0.0
C807 C 0.26432 0.7673 0.77622 0.0
H808 H 0.47714 0.86025 0.82672 0.0
H809 H 0.53647 0.87955 0.75435 0.0
H810 H 0.44839 0.88586 0.7344 0.0
H811 H 0.4971 0.88921 0.71721 0.0
H812 H 0.21054 0.76554 0.75412 0.0
H813 H 0.1676 0.69958 0.81329 0.0
H814 H 0.2607 0.7239 0.81986 0.0
H815 H 0.21543 0.69381 0.83697 0.0
Tb816 Tb 0.61425 0.07396 0.079 0.0
C817 C 0.50948 0.07544 0.97868 0.0
C818 C 0.47227 1.02464 0.97647 0.0
C819 C 0.45859 0.075 0.96536 0.0
C820 C 0.50173 0.04244 0.98227 0.0
C821 C 0.48808 0.09201 0.96965 0.0
C822 C 0.4507 0.04133 0.9687 0.0
C823 C 0.52667 0.1397 0.96692 0.0
N824 N 0.53817 0.09078 0.98262 0.0
C825 C 0.54708 0.12201 0.9755 0.0
C826 C 0.49702 0.12478 0.96432 0.0
Tb827 Tb 0.56985 0.05979 0.99678 0.0
N828 N 0.52322 0.02728 0.98986 0.0
C829 C 0.51672 0.99345 0.98993 0.0
C830 C 0.46547 0.99039 0.9778 0.0
C831 C 0.48784 0.97463 0.98415 0.0
H832 H 0.56994 0.13376 0.97748 0.0
H833 H 0.48286 0.94803 0.9848 0.0
H834 H 0.42792 0.0282 0.96453 0.0
H835 H 0.53382 0.16476 0.96219 0.0
H836 H 0.53378 0.9809 0.99484 0.0
H837 H 0.70456 0.18272 0.09292 0.0
H838 H 0.44313 0.9758 0.9734 0.0
H839 H 0.61117 1.00027 0.10082 0.0
H840 H 0.65324 0.15166 0.08176 0.0
H841 H 0.64523 0.96866 0.11933 0.0
H842 H 0.44178 0.08738 0.95867 0.0
H843 H 0.74278 0.15327 0.10562 0.0
H844 H 0.75567 0.10004 0.11598 0.0
H845 H 0.48126 0.13843 0.95742 0.0
H846 H 0.73946 0.04168 0.12341 0.0
N847 N 0.66174 0.10471 0.08773 0.0
C848 C 0.66948 0.13843 0.08749 0.0
C849 C 0.72017 0.13951 0.10092 0.0
C850 C 0.7121 0.10547 0.1027 0.0
C851 C 0.69867 0.15622 0.09384 0.0
C852 C 0.68233 0.08882 0.0964 0.0
H853 H 0.69825 0.9927 0.12538 0.0
N854 N 0.64433 0.04231 0.09617 0.0
C855 C 0.65346 0.99329 0.11406 0.0
C856 C 0.67329 0.05635 0.10075 0.0
C857 C 0.63415 1.01149 0.10362 0.0
C858 C 0.68336 1.00687 0.11735 0.0
C859 C 0.69364 0.03901 0.11112 0.0
O860 O 0.59746 0.06905 0.12429 0.0
O861 O 0.57269 0.05605 0.0485 0.0
O862 O 0.5583 0.10053 0.03209 0.0
O863 O 0.60189 0.11983 0.06885 0.0
O864 O 0.5788 0.03357 0.08732 0.0
O865 O 0.61908 0.11828 0.11708 0.0
O866 O 0.5866 0.06696 0.9522 0.0
O867 O 0.61144 0.07711 0.02703 0.0
O868 O 0.62733 0.03424 0.04359 0.0
O869 O 0.58478 1.01471 1.00485 0.0
O870 O 0.60554 0.09979 0.98804 0.0
O871 O 0.56126 1.01776 0.95514 0.0
C872 C 0.56013 0.03416 0.06303 0.0
C873 C 0.61773 0.11137 0.17345 0.0
C874 C 0.60631 0.11583 0.23108 0.0
C875 C 0.59759 0.10717 0.19617 0.0
C876 C 0.63586 0.12975 0.24335 0.0
C877 C 0.64728 0.12508 0.18562 0.0
C878 C 0.65623 0.13439 0.2206 0.0
C879 C 0.57649 0.12377 0.05617 0.0
C880 C 0.60615 0.1015 0.13755 0.0
C881 C 0.72345 0.05469 0.11577 0.0
C882 C 0.73268 0.08791 0.11157 0.0
C883 C 0.62421 0.09854 1.01211 0.0
C884 C 0.56081 0.03238 0.90172 0.0
C885 C 0.57931 0.03518 0.87717 0.0
C886 C 0.56898 0.03701 0.84472 0.0
C887 C 0.53934 0.03507 0.83646 0.0
C888 C 0.53108 0.03012 0.8936 0.0
C889 C 0.52038 0.03116 0.86083 0.0
C890 C 0.61085 1.01227 0.01705 0.0
C891 C 0.57463 0.0359 0.93597 0.0
H892 H 0.57472 0.09715 0.18646 0.0
H893 H 0.64317 0.13654 0.27027 0.0
H894 H 0.66322 0.1286 0.16829 0.0
H895 H 0.67899 0.14505 0.2301 0.0
H896 H 0.60242 0.03781 0.88396 0.0
H897 H 0.53103 0.03682 0.81151 0.0
H898 H 0.51644 0.02829 0.91252 0.0
H899 H 0.49751 0.02972 0.85455 0.0
Tb900 Tb 0.36307 0.33057 0.29979 0.0
C901 C 0.24369 0.27432 0.26703 0.0
C902 C 0.22359 0.25451 0.31398 0.0
C903 C 0.19668 0.2834 0.28141 0.0
C904 C 0.2462 0.25883 0.2935 0.0
C905 C 0.2183 0.28565 0.2599 0.0
C906 C 0.19935 0.26789 0.30849 0.0
C907 C 0.23507 0.29549 0.208 0.0
N908 N 0.26499 0.27577 0.24667 0.0
C909 C 0.25937 0.28322 0.21581 0.0
C910 C 0.21478 0.29758 0.2306 0.0
Tb911 Tb 0.30566 0.25697 0.26313 0.0
N912 N 0.26968 0.24566 0.29757 0.0
C913 C 0.26927 0.22354 0.31856 0.0
C914 C 0.22542 0.23569 0.33847 0.0
C915 C 0.24802 0.21939 0.34016 0.0
H916 H 0.27257 0.27862 0.19599 0.0
H917 H 0.2487 0.20283 0.35743 0.0
H918 H 0.1821 0.26533 0.32432 0.0
H919 H 0.23158 0.30228 0.18398 0.0
H920 H 0.28486 0.20811 0.3184 0.0
H921 H 0.42569 0.35073 0.1961 0.0
H922 H 0.20866 0.23201 0.35481 0.0
H923 H 0.38835 0.32035 0.37721 0.0
H924 H 0.38541 0.35251 0.22796 0.0
H925 H 0.42799 0.30121 0.4017 0.0
H926 H 0.17739 0.29258 0.27667 0.0
H927 H 0.46784 0.33186 0.21763 0.0
H928 H 0.49271 0.31287 0.26357 0.0
H929 H 0.19569 0.30654 0.22426 0.0
H930 H 0.49239 0.2969 0.31821 0.0
N931 N 0.40056 0.32966 0.2664 0.0
C932 C 0.40176 0.34155 0.23733 0.0
C933 C 0.44929 0.33131 0.23153 0.0
C934 C 0.44921 0.3213 0.26216 0.0
C935 C 0.42551 0.34172 0.21923 0.0
C936 C 0.42431 0.32071 0.27924 0.0
H937 H 0.46809 0.2913 0.36919 0.0
N938 N 0.40086 0.31401 0.32702 0.0
C939 C 0.42692 0.30317 0.37556 0.0
C940 C 0.42423 0.31204 0.31018 0.0
C941 C 0.40351 0.31279 0.36066 0.0
C942 C 0.44955 0.29784 0.35726 0.0
C943 C 0.44906 0.30373 0.32477 0.0
O944 O 0.37321 0.36447 0.34745 0.0
O945 O 0.31799 0.30542 0.29832 0.0
O946 O 0.31716 0.28778 0.22537 0.0
O947 O 0.34492 0.34142 0.25327 0.0
O948 O 0.32672 0.35589 0.30054 0.0
O949 O 0.38659 0.38043 0.30294 0.0
O950 O 0.30009 0.23021 0.21219 0.0
O951 O 0.35093 0.28214 0.26398 0.0
O952 O 0.34764 0.30347 0.3388 0.0
O953 O 0.3243 0.24826 0.31099 0.0
O954 O 0.3419 0.23254 0.2671 0.0
O955 O 0.2835 0.2055 0.25033 0.0
C956 C 0.30607 0.32995 0.30036 0.0
C957 C 0.37244 0.42018 0.34495 0.0
C958 C 0.34478 0.45931 0.3299 0.0
C959 C 0.35972 0.43388 0.32043 0.0
C960 C 0.34399 0.47225 0.36452 0.0
C961 C 0.37166 0.43355 0.37933 0.0
C962 C 0.35759 0.4596 0.38902 0.0
C963 C 0.32948 0.31998 0.22587 0.0
C964 C 0.38422 0.39011 0.33491 0.0
C965 C 0.4733 0.30324 0.30735 0.0
C966 C 0.4735 0.31237 0.27628 0.0
C967 C 0.36247 0.25754 0.26476 0.0
C968 C 0.30277 0.17339 0.20677 0.0
C969 C 0.31796 0.15981 0.22947 0.0
C970 C 0.3339 0.13601 0.21762 0.0
C971 C 0.33363 0.12468 0.18262 0.0
C972 C 0.30282 0.16199 0.17191 0.0
C973 C 0.31817 0.13771 0.15995 0.0
C974 C 0.33727 0.27103 0.33879 0.0
C975 C 0.2889 0.20133 0.2192 0.0
H976 H 0.36099 0.42433 0.29391 0.0
H977 H 0.33244 0.49175 0.37266 0.0
H978 H 0.38142 0.42335 0.39862 0.0
H979 H 0.35679 0.46961 0.41557 0.0
H980 H 0.31826 0.16845 0.25651 0.0
H981 H 0.34625 0.1068 0.17288 0.0
H982 H 0.29159 0.1725 0.15407 0.0
H983 H 0.31886 0.12977 0.1331 0.0
Tb984 Tb 0.57378 0.58442 0.05468 0.0
C985 C 0.61667 0.50459 0.93695 0.0
C986 C 0.57665 0.48967 0.89177 0.0
C987 C 0.62621 0.49697 0.8784 0.0
C988 C 0.58717 0.49771 0.92662 0.0
C989 C 0.63651 0.50365 0.91295 0.0
C990 C 0.59634 0.49001 0.86782 0.0
C991 C 0.6751 0.51371 0.95878 0.0
N992 N 0.62587 0.51088 0.9705 0.0
C993 C 0.65467 0.51432 0.9816 0.0
C994 C 0.66604 0.50872 0.92432 0.0
Tb995 Tb 0.59073 0.51324 1.006 0.0
N996 N 0.56876 0.49765 0.95055 0.0
C997 C 0.53933 0.48747 0.94064 0.0
C998 C 0.54666 0.4809 0.8819 0.0
C999 C 0.52795 0.47941 0.90644 0.0
H1000 H 0.66204 0.51843 1.00821 0.0
H1001 H 0.50466 0.47224 0.89906 0.0
H1002 H 0.58863 0.48424 0.84102 0.0
H1003 H 0.69785 0.51722 0.96781 0.0
H1004 H 0.52394 0.48633 0.95846 0.0
H1005 H 0.6492 0.61913 0.1701 0.0
H1006 H 0.53774 0.47469 0.85544 0.0
H1007 H 0.50278 0.58345 0.0427 0.0
H1008 H 0.63482 0.60478 0.10896 0.0
H1009 H 0.46411 0.592 0.07709 0.0
H1010 H 0.64112 0.49646 0.85961 0.0
H1011 H 0.6121 0.62285 0.20905 0.0
H1012 H 0.55993 0.62102 0.21677 0.0
H1013 H 0.68192 0.50825 0.90667 0.0
H1014 H 0.50965 0.61451 0.19143 0.0
N1015 N 0.58941 0.59849 0.11196 0.0
C1016 C 0.6181 0.60591 0.12511 0.0
C1017 C 0.60555 0.61627 0.18196 0.0
C1018 C 0.57647 0.61079 0.16857 0.0
C1019 C 0.62651 0.61426 0.16009 0.0
C1020 C 0.5691 0.60207 0.13308 0.0
H1021 H 0.47393 0.60458 0.13945 0.0
N1022 N 0.53538 0.5909 0.08476 0.0
C1023 C 0.48568 0.59387 0.08925 0.0
C1024 C 0.54108 0.59842 0.11897 0.0
C1025 C 0.508 0.58906 0.06975 0.0
C1026 C 0.49128 0.60093 0.12442 0.0
C1027 C 0.51926 0.60335 0.13974 0.0
O1028 O 0.56035 0.6256 0.04087 0.0
O1029 O 0.5748 0.558 1.00166 0.0
O1030 O 0.62169 0.55818 0.99932 0.0
O1031 O 0.62035 0.59403 0.05001 0.0
O1032 O 0.54046 0.57749 1.01095 0.0
O1033 O 0.60388 0.6316 0.06515 0.0
O1034 O 0.56689 0.46869 0.01766 0.0
O1035 O 0.59088 0.53973 0.05868 0.0
O1036 O 0.54255 0.54091 0.06347 0.0
O1037 O 0.54444 0.50347 1.0134 0.0
O1038 O 0.62623 0.52216 0.04808 0.0
O1039 O 0.6071 0.46929 0.99756 0.0
C1040 C 0.5513 0.56192 0.98643 0.0
C1041 C 0.58767 0.68169 0.06564 0.0
C1042 C 0.60073 0.73928 0.05752 0.0
C1043 C 0.59675 0.70427 0.04537 0.0
C1044 C 0.59574 0.7517 0.09078 0.0
C1045 C 0.58234 0.69395 0.09867 0.0
C1046 C 0.58635 0.72902 0.11115 0.0
C1047 C 0.6335 0.58529 0.02346 0.0
C1048 C 0.58585 0.64592 0.05128 0.0
C1049 C 0.52615 0.61093 0.17507 0.0
C1050 C 0.55474 0.61459 0.18948 0.0
C1051 C 0.61495 0.53633 0.07309 0.0
C1052 C 0.59969 0.44313 0.04367 0.0
C1053 C 0.58079 0.43031 0.06535 0.0
C1054 C 0.59185 0.42267 0.09522 0.0
C1055 C 0.6221 0.42883 0.10359 0.0
C1056 C 0.62988 0.44826 0.05232 0.0
C1057 C 0.64091 0.44146 0.08223 0.0
C1058 C 0.53144 0.51255 0.0403 0.0
C1059 C 0.58813 0.45371 1.01373 0.0
H1060 H 0.60154 0.69452 0.02011 0.0
H1061 H 0.59897 0.77874 0.10086 0.0
H1062 H 0.5755 0.67663 0.11471 0.0
H1063 H 0.58243 0.73866 0.13673 0.0
H1064 H 0.55754 0.42665 0.05917 0.0
H1065 H 0.63123 0.42301 0.12627 0.0
H1066 H 0.64512 0.45826 0.0364 0.0
H1067 H 0.66417 0.44589 0.08881 0.0
Tb1068 Tb 0.86551 0.32379 0.27349 0.0
C1069 C 0.78903 0.23595 0.34832 0.0
C1070 C 0.80834 0.18591 0.3402 0.0
C1071 C 0.78503 0.2014 0.39007 0.0
C1072 C 0.80405 0.21523 0.32996 0.0
C1073 C 0.77827 0.22853 0.37789 0.0
C1074 C 0.80004 0.18003 0.37118 0.0
C1075 C 0.75039 0.27064 0.37722 0.0
N1076 N 0.78214 0.2611 0.33495 0.0
C1077 C 0.76141 0.27677 0.34767 0.0
C1078 C 0.75948 0.24709 0.39296 0.0
Tb1079 Tb 0.80244 0.27044 0.2872 0.0
N1080 N 0.8107 0.22122 0.29968 0.0
C1081 C 0.81767 0.19621 0.27649 0.0
C1082 C 0.81865 0.16208 0.31781 0.0
C1083 C 0.82238 0.16672 0.28535 0.0
H1084 H 0.7532 0.29416 0.33536 0.0
H1085 H 0.82903 0.14773 0.26717 0.0
H1086 H 0.80363 0.15799 0.37977 0.0
H1087 H 0.73463 0.28387 0.38762 0.0
H1088 H 0.82046 0.19932 0.25132 0.0
H1089 H 0.84713 0.44924 0.31758 0.0
H1090 H 0.82214 0.13917 0.3246 0.0
H1091 H 0.89616 0.29299 0.20679 0.0
H1092 H 0.85154 0.39249 0.32249 0.0
H1093 H 0.90965 0.30895 0.15435 0.0
H1094 H 0.77733 0.19558 0.41301 0.0
H1095 H 0.85462 0.46751 0.26421 0.0
H1096 H 0.86848 0.45486 0.2055 0.0
H1097 H 0.75062 0.24209 0.41559 0.0
H1098 H 0.88552 0.41662 0.16097 0.0
N1099 N 0.86069 0.37751 0.27184 0.0
C1100 C 0.85491 0.39973 0.2989 0.0
C1101 C 0.85655 0.44236 0.26614 0.0
C1102 C 0.864 0.42031 0.23916 0.0
C1103 C 0.8524 0.43218 0.29631 0.0
C1104 C 0.86616 0.3878 0.24299 0.0
H1105 H 0.90137 0.36238 0.14189 0.0
N1106 N 0.87926 0.3364 0.22391 0.0
C1107 C 0.90001 0.32531 0.17199 0.0
C1108 C 0.87579 0.36647 0.2181 0.0
C1109 C 0.8923 0.31637 0.20191 0.0
C1110 C 0.89522 0.35542 0.16499 0.0
C1111 C 0.88344 0.37674 0.18844 0.0
O1112 O 0.90844 0.31828 0.27803 0.0
O1113 O 0.85024 0.27568 0.28982 0.0
O1114 O 0.82081 0.29742 0.33862 0.0
O1115 O 0.85836 0.3379 0.32649 0.0
O1116 O 0.87947 0.27627 0.25613 0.0
O1117 O 0.89733 0.36193 0.30777 0.0
O1118 O 0.76293 0.27385 0.26208 0.0
O1119 O 0.81828 0.31886 0.272 0.0
O1120 O 0.83899 0.30344 0.22449 0.0
O1121 O 0.81481 0.25375 0.23664 0.0
O1122 O 0.78725 0.31757 0.30292 0.0
O1123 O 0.77173 0.22557 0.26229 0.0
C1124 C 0.86607 0.25703 0.27381 0.0
C1125 C 0.94612 0.36721 0.2961 0.0
C1126 C 0.99879 0.37946 0.30865 0.0
C1127 C 0.97105 0.36291 0.31371 0.0
C1128 C 1.00147 0.40059 0.28564 0.0
C1129 C 0.94889 0.38873 0.27351 0.0
C1130 C 0.97655 0.40541 0.26838 0.0
C1131 C 0.84219 0.32497 0.3477 0.0
C1132 C 0.91801 0.3467 0.30033 0.0
C1133 C 0.87999 0.40837 0.1837 0.0
C1134 C 0.87029 0.43014 0.20904 0.0
C1135 C 0.80225 0.33774 0.28716 0.0
C1136 C 0.72384 0.23094 0.26819 0.0
C1137 C 0.70107 0.24564 0.25997 0.0
C1138 C 0.67484 0.23846 0.2736 0.0
C1139 C 0.67141 0.21598 0.2953 0.0
C1140 C 0.71989 0.20808 0.2896 0.0
C1141 C 0.69381 0.20079 0.3031 0.0
C1142 C 0.82416 0.27159 0.21459 0.0
C1143 C 0.752 0.24144 0.256 0.0
H1144 H 0.96887 0.34587 0.33082 0.0
H1145 H 0.02273 0.41349 0.28126 0.0
H1146 H 0.92987 0.39231 0.25965 0.0
H1147 H 0.97869 0.42185 0.25078 0.0
H1148 H 0.70381 0.2627 0.24291 0.0
H1149 H 0.65147 0.21031 0.30632 0.0
H1150 H 0.73706 0.1963 0.29643 0.0
H1151 H 0.691 0.18347 0.31983 0.0
Tb1152 Tb 0.10596 0.56028 0.5788 0.0
C1153 C 0.02595 0.60956 0.48132 0.0
C1154 C 0.98235 0.56432 0.46573 0.0
C1155 C 0.97967 0.6224 0.46651 0.0
C1156 C 1.01245 0.57581 0.47673 0.0
C1157 C 1.00993 0.63324 0.47553 0.0
C1158 C 0.96588 0.58794 0.46159 0.0
C1159 C 0.05525 0.67554 0.48437 0.0
N1160 N 0.0552 0.6188 0.48963 0.0
C1161 C 0.07015 0.65098 0.48961 0.0
C1162 C 0.02495 0.66679 0.47784 0.0
Tb1163 Tb 0.0778 0.57742 0.49959 0.0
N1164 N 0.02924 0.55393 0.48079 0.0
C1165 C 1.01749 0.51965 0.47107 0.0
C1166 C 0.96996 0.5294 0.45798 0.0
C1167 C 0.98775 0.50695 0.45996 0.0
H1168 H 0.09356 0.65808 0.4945 0.0
H1169 H 0.97854 0.47981 0.45323 0.0
H1170 H 0.94267 0.57968 0.45357 0.0
H1171 H 0.06716 0.70119 0.48529 0.0
H1172 H 0.0307 0.50174 0.47262 0.0
H1173 H 0.1921 0.67344 0.6303 0.0
H1174 H 0.94692 0.5195 0.44947 0.0
H1175 H 0.10423 0.48105 0.58242 0.0
H1176 H 0.14207 0.64176 0.60942 0.0
H1177 H 0.13937 0.44593 0.5896 0.0
H1178 H 0.96689 0.64025 0.46227 0.0
H1179 H 0.23165 0.64332 0.63148 0.0
H1180 H 0.24666 0.58787 0.62261 0.0
H1181 H 1.01347 0.6858 0.4736 0.0
H1182 H 0.23231 0.5254 0.61061 0.0
N1183 N 0.15227 0.59313 0.59833 0.0
C1184 C 0.15865 0.62774 0.60982 0.0
C1185 C 0.20951 0.62901 0.62238 0.0
C1186 C 0.20276 0.59359 0.61215 0.0
C1187 C 0.18724 0.64608 0.62184 0.0
C1188 C 0.17356 0.57621 0.60058 0.0
H1189 H 0.19217 0.47214 0.59897 0.0
N1190 N 0.13694 0.52608 0.58585 0.0
C1191 C 0.14709 0.47266 0.59035 0.0
C1192 C 0.1656 0.54131 0.59374 0.0
C1193 C 0.12729 0.49258 0.58632 0.0
C1194 C 0.17687 0.48753 0.59556 0.0
C1195 C 0.18645 0.52249 0.59837 0.0
O1196 O 0.08654 0.53423 0.6134 0.0
O1197 O 0.06915 0.55996 0.54472 0.0
O1198 O 0.06674 0.61464 0.53876 0.0
O1199 O 0.09483 0.61037 0.5873 0.0
O1200 O 0.06488 0.5211 0.56887 0.0
O1201 O 0.10621 0.58824 0.628 0.0
O1202 O 0.10376 0.59428 0.46431 0.0
O1203 O 0.11487 0.57783 0.53394 0.0
O1204 O 0.11492 0.52282 0.53733 0.0
O1205 O 0.08108 0.52439 0.49304 0.0
O1206 O 0.11874 0.61674 0.51006 0.0
O1207 O 0.07275 0.5454 0.45132 0.0
C1208 C 0.05133 0.53424 0.54845 0.0
C1209 C 0.10664 0.55708 0.67023 0.0
C1210 C 0.0994 0.55121 0.72717 0.0
C1211 C 0.08863 0.55435 0.69528 0.0
C1212 C 0.12876 0.55102 0.73401 0.0
C1213 C 0.13594 0.55652 0.67689 0.0
C1214 C 0.14691 0.55338 0.70872 0.0
C1215 C 0.07837 0.62563 0.57076 0.0
C1216 C 0.09389 0.5613 0.63799 0.0
C1217 C 0.21588 0.53943 0.60746 0.0
C1218 C 0.22404 0.57499 0.61437 0.0
C1219 C 0.13243 0.60405 0.53072 0.0
C1220 C 0.08771 0.57066 0.40666 0.0
C1221 C 0.11094 0.56934 0.38823 0.0
C1222 C 0.10884 0.57252 0.35481 0.0
C1223 C 0.08273 0.57661 0.3394 0.0
C1224 C 0.06163 0.57511 0.39174 0.0
C1225 C 0.0592 0.57801 0.35798 0.0
C1226 C 0.10067 0.51077 0.50639 0.0
C1227 C 0.09244 0.56682 0.44115 0.0
H1228 H 0.06617 0.55567 0.6902 0.0
H1229 H 0.13755 0.54919 0.75873 0.0
H1230 H 0.15032 0.55892 0.65789 0.0
H1231 H 0.16956 0.55318 0.7139 0.0
H1232 H 0.13093 0.5655 0.40002 0.0
H1233 H 0.0807 0.57905 0.31341 0.0
H1234 H 0.04342 0.57622 0.40597 0.0
H1235 H 0.03911 0.58137 0.34623 0.0
Tb1236 Tb 0.80095 0.8098 0.27189 0.0
C1237 C 0.89142 0.74484 0.33353 0.0
C1238 C 0.91132 0.7834 0.38738 0.0
C1239 C 0.91083 0.72353 0.37961 0.0
C1240 C 0.89755 0.77698 0.35391 0.0
C1241 C 0.8988 0.71785 0.3457 0.0
C1242 C 0.91705 0.7563 0.40046 0.0
C1243 C 0.88477 0.68277 0.28913 0.0
N1244 N 0.88029 0.74067 0.30089 0.0
C1245 C 0.87787 0.71039 0.2783 0.0
C1246 C 0.89494 0.68638 0.3231 0.0
Tb1247 Tb 0.8696 0.78725 0.28503 0.0
N1248 N 0.89224 0.80243 0.33996 0.0
C1249 C 0.90279 0.83546 0.3574 0.0
C1250 C 0.92008 0.81698 0.40611 0.0
C1251 C 0.91629 0.84318 0.3908 0.0
H1252 H 0.86997 0.70715 0.25198 0.0
H1253 H 0.92363 0.86935 0.40473 0.0
H1254 H 0.92727 0.76065 0.42624 0.0
H1255 H 0.88219 0.65872 0.27128 0.0
H1256 H 0.89997 0.85618 0.34636 0.0
H1257 H 0.74778 0.72752 0.15192 0.0
H1258 H 0.93063 0.82302 0.43192 0.0
H1259 H 0.80015 0.88976 0.30474 0.0
H1260 H 0.77111 0.74081 0.2105 0.0
H1261 H 0.78798 0.93813 0.28519 0.0
H1262 H 0.91631 0.70304 0.38959 0.0
H1263 H 0.7409 0.77377 0.12456 0.0
H1264 H 0.74422 0.83612 0.13008 0.0
H1265 H 0.90038 0.66501 0.33141 0.0
H1266 H 0.75495 0.89376 0.16663 0.0
N1267 N 0.77869 0.79453 0.2168 0.0
C1268 C 0.76832 0.76148 0.19935 0.0
C1269 C 0.75127 0.77985 0.15045 0.0
C1270 C 0.75986 0.81345 0.16918 0.0
C1271 C 0.75502 0.75371 0.16586 0.0
C1272 C 0.7734 0.81993 0.20275 0.0
H1273 H 0.77037 0.93182 0.22487 0.0
N1274 N 0.7904 0.85633 0.25578 0.0
C1275 C 0.78563 0.91411 0.26737 0.0
C1276 C 0.77947 0.8521 0.22306 0.0
C1277 C 0.79249 0.88655 0.27834 0.0
C1278 C 0.77578 0.91049 0.2333 0.0
C1279 C 0.77216 0.87904 0.21074 0.0
O1280 O 0.77375 0.82451 0.30785 0.0
O1281 O 0.83339 0.80155 0.30763 0.0
O1282 O 0.83606 0.74409 0.29437 0.0
O1283 O 0.79448 0.75344 0.267 0.0
O1284 O 0.81551 0.84207 0.32248 0.0
O1285 O 0.75997 0.77734 0.27084 0.0
O1286 O 0.89675 0.77253 0.24901 0.0
O1287 O 0.83719 0.79551 0.24925 0.0
O1288 O 0.83453 0.85335 0.26337 0.0
O1289 O 0.87612 0.84363 0.29031 0.0
O1290 O 0.85474 0.7547 0.2346 0.0
O1291 O 0.91025 0.82009 0.28551 0.0
C1292 C 0.83348 0.82583 0.33221 0.0
C1293 C 0.72323 0.80381 0.29089 0.0
C1294 C 0.67576 0.80344 0.31063 0.0
C1295 C 0.70415 0.79838 0.31507 0.0
C1296 C 0.66709 0.81469 0.28199 0.0
C1297 C 0.71387 0.8146 0.26238 0.0
C1298 C 0.686 0.82011 0.25807 0.0
C1299 C 0.80813 0.73338 0.28084 0.0
C1300 C 0.75266 0.79787 0.29564 0.0
C1301 C 0.76036 0.8733 0.17674 0.0
C1302 C 0.75424 0.8405 0.15594 0.0
C1303 C 0.83704 0.77117 0.22468 0.0
C1304 C 0.94732 0.79458 0.26482 0.0
C1305 C 0.96579 0.80062 0.24021 0.0
C1306 C 0.99445 0.79622 0.24376 0.0
C1307 C 1.00429 0.78593 0.27253 0.0
C1308 C 0.95766 0.78421 0.29317 0.0
C1309 C 0.986 0.77996 0.29696 0.0
C1310 C 0.86248 0.86387 0.27676 0.0
C1311 C 0.91755 0.7996 0.26067 0.0
H1312 H 0.71126 0.78983 0.33704 0.0
H1313 H 0.64575 0.81968 0.27826 0.0
H1314 H 0.72803 0.81871 0.24344 0.0
H1315 H 0.67903 0.82868 0.2361 0.0
H1316 H 0.95793 0.80915 0.21856 0.0
H1317 H 0.02608 0.78208 0.27595 0.0
H1318 H 0.94391 0.77958 0.31241 0.0
H1319 H 0.99383 0.77194 0.31891 0.0
Tb1320 Tb 0.85227 0.30083 0.74736 0.0
C1321 C 0.85604 0.42404 0.84988 0.0
C1322 C 0.88776 0.43478 0.9024 0.0
C1323 C 0.8796 0.48216 0.87969 0.0
C1324 C 0.86944 0.41199 0.87434 0.0
C1325 C 0.86062 0.45941 0.85257 0.0
C1326 C 0.89308 0.46986 0.90464 0.0
C1327 C 0.82503 0.44764 0.80366 0.0
N1328 N 0.83728 0.40122 0.82449 0.0
C1329 C 0.82114 0.41289 0.80205 0.0
C1330 C 0.84514 0.47102 0.82874 0.0
Tb1331 Tb 0.83155 0.34427 0.82512 0.0
N1332 N 0.86275 0.37807 0.87202 0.0
C1333 C 0.87178 0.36574 0.89886 0.0
C1334 C 0.89906 0.42177 0.92821 0.0
C1335 C 0.89068 0.38708 0.92663 0.0
H1336 H 0.80545 0.39614 0.78207 0.0
H1337 H 0.89832 0.3768 0.94708 0.0
H1338 H 0.90675 0.48772 0.92617 0.0
H1339 H 0.81253 0.45634 0.78534 0.0
H1340 H 0.86452 0.33911 0.89863 0.0
H1341 H 0.80108 0.29184 0.6211 0.0
H1342 H 0.91327 0.43841 0.95006 0.0
H1343 H 0.86818 0.23592 0.78113 0.0
H1344 H 0.8332 0.3199 0.67449 0.0
H1345 H 0.85084 0.17505 0.77068 0.0
H1346 H 0.88315 0.50932 0.88224 0.0
H1347 H 0.77504 0.2315 0.61141 0.0
H1348 H 0.76708 0.17702 0.63096 0.0
H1349 H 0.84807 0.49793 0.82993 0.0
H1350 H 0.78088 0.14519 0.67182 0.0
N1351 N 0.82491 0.27627 0.6955 0.0
C1352 C 0.82221 0.29346 0.67043 0.0
C1353 C 0.78916 0.24373 0.63491 0.0
C1354 C 0.79394 0.22549 0.65929 0.0
C1355 C 0.80388 0.27771 0.64022 0.0
C1356 C 0.81248 0.24263 0.68953 0.0
H1357 H 0.81269 0.14406 0.72327 0.0
N1358 N 0.83964 0.24217 0.74029 0.0
C1359 C 0.84183 0.18879 0.75424 0.0
C1360 C 0.82025 0.2249 0.71256 0.0
C1361 C 0.8516 0.22409 0.76005 0.0
C1362 C 0.82029 0.17138 0.72753 0.0
C1363 C 0.80967 0.18926 0.70582 0.0
O1364 O 0.89796 0.31586 0.75554 0.0
O1365 O 0.85772 0.34728 0.78477 0.0
O1366 O 0.79753 0.34022 0.78296 0.0
O1367 O 0.81137 0.31441 0.73209 0.0
O1368 O 0.85744 0.35098 0.73551 0.0
O1369 O 0.87593 0.29085 0.70624 0.0
O1370 O 0.78751 0.34572 0.82672 0.0
O1371 O 0.82494 0.29784 0.78697 0.0
O1372 O 0.87937 0.29266 0.79001 0.0
O1373 O 0.87326 0.33097 0.8383 0.0
O1374 O 0.82544 0.29386 0.83617 0.0
O1375 O 0.81385 0.342 0.87032 0.0
C1376 C 0.86087 0.36829 0.76626 0.0
C1377 C 0.91796 0.33526 0.7107 0.0
C1378 C 0.92064 0.37732 0.67639 0.0
C1379 C 0.90506 0.34901 0.68643 0.0
C1380 C 0.94977 0.39159 0.69045 0.0
C1381 C 0.94704 0.34981 0.72462 0.0
C1382 C 0.96286 0.37779 0.71441 0.0
C1383 C 0.79336 0.32932 0.74948 0.0
C1384 C 0.90061 0.30784 0.72377 0.0
C1385 C 0.78962 0.1724 0.67698 0.0
C1386 C 0.78175 0.19051 0.65373 0.0
C1387 C 0.82112 0.27672 0.80534 0.0
C1388 C 0.76513 0.31021 0.86055 0.0
C1389 C 0.77279 0.28588 0.87668 0.0
C1390 C 0.75182 0.25778 0.88034 0.0
C1391 C 0.72265 0.25418 0.86764 0.0
C1392 C 0.73596 0.30608 0.84778 0.0
C1393 C 0.71486 0.27815 0.85131 0.0
C1394 C 0.88681 0.30867 0.82233 0.0
C1395 C 0.78761 0.33949 0.8567 0.0
H1396 H 0.88258 0.3383 0.67586 0.0
H1397 H 0.96244 0.41311 0.68268 0.0
H1398 H 0.95732 0.33983 0.74372 0.0
H1399 H 0.98528 0.38893 0.72525 0.0
H1400 H 0.79527 0.28858 0.88634 0.0
H1401 H 0.70579 0.23331 0.87087 0.0
H1402 H 0.72951 0.32444 0.83516 0.0
H1403 H 0.69236 0.27522 0.8416 0.0
Tb1404 Tb 0.8675 0.83922 0.80307 0.0
C1405 C 0.74624 0.76111 0.78069 0.0
C1406 C 0.73586 0.72026 0.8154 0.0
C1407 C 0.69968 0.75073 0.80253 0.0
C1408 C 0.75497 0.73845 0.79713 0.0
C1409 C 0.7179 0.76637 0.78191 0.0
C1410 C 0.70869 0.72769 0.81933 0.0
C1411 C 0.726 0.79741 0.73835 0.0
N1412 N 0.76447 0.77532 0.76078 0.0
C1413 C 0.75378 0.79117 0.73788 0.0
C1414 C 0.70823 0.78573 0.76111 0.0
Tb1415 Tb 0.81067 0.76542 0.76424 0.0
N1416 N 0.78097 0.73141 0.79189 0.0
C1417 C 0.78725 0.70295 0.7999 0.0
C1418 C 0.74391 0.69377 0.82729 0.0
C1419 C 0.76934 0.68442 0.81861 0.0
H1420 H 0.7658 0.79831 0.71822 0.0
H1421 H 0.77502 0.66278 0.82605 0.0
H1422 H 0.69392 0.71451 0.83385 0.0
H1423 H 0.71814 0.81073 0.72068 0.0
H1424 H 0.80665 0.69528 0.79272 0.0
H1425 H 0.96191 0.82839 0.73899 0.0
H1426 H 0.72988 0.67917 0.84145 0.0
H1427 H 0.86902 0.87757 0.88489 0.0
H1428 H 0.9122 0.83443 0.74326 0.0
H1429 H 0.89902 0.88396 0.93869 0.0
H1430 H 0.67812 0.75509 0.8044 0.0
H1431 H 0.9927 0.8242 0.78903 0.0
H1432 H 0.99922 0.82725 0.85147 0.0
H1433 H 0.68664 0.79033 0.76122 0.0
H1434 H 0.98144 0.84163 0.90649 0.0
N1435 N 0.91352 0.83246 0.79538 0.0
C1436 C 0.9248 0.83217 0.76545 0.0
C1437 C 0.97066 0.82677 0.79117 0.0
C1438 C 0.95984 0.82966 0.82227 0.0
C1439 C 0.95335 0.82913 0.76289 0.0
C1440 C 0.93113 0.83349 0.82372 0.0
H1441 H 0.94466 0.86442 0.93938 0.0
N1442 N 0.89544 0.85086 0.85489 0.0
C1443 C 0.90545 0.87183 0.91526 0.0
C1444 C 0.92166 0.8428 0.85462 0.0
C1445 C 0.88831 0.86785 0.8845 0.0
C1446 C 0.93114 0.8607 0.91557 0.0
C1447 C 0.94006 0.84707 0.88491 0.0
O1448 O 0.85227 0.88127 0.79433 0.0
O1449 O 0.82098 0.81758 0.79051 0.0
O1450 O 0.81364 0.80729 0.73739 0.0
O1451 O 0.86291 0.82809 0.74763 0.0
O1452 O 0.83527 0.85122 0.83647 0.0
O1453 O 0.8978 0.88464 0.80347 0.0
O1454 O 0.81784 0.75338 0.71317 0.0
O1455 O 0.85665 0.78906 0.77053 0.0
O1456 O 0.86343 0.80788 0.84066 0.0
O1457 O 0.82148 0.76436 0.81816 0.0
O1458 O 0.84537 0.74049 0.77548 0.0
O1459 O 0.78968 0.71733 0.73288 0.0
C1460 C 0.81272 0.83131 0.81748 0.0
C1461 C 0.88164 0.93461 0.82297 0.0
C1462 C 0.86461 0.98652 0.83763 0.0
C1463 C 0.86115 0.95345 0.81823 0.0
C1464 C 0.88854 1.00038 0.86287 0.0
C1465 C 0.90559 0.94875 0.84828 0.0
C1466 C 0.90891 0.98151 0.86815 0.0
C1467 C 0.83797 0.824 0.72883 0.0
C1468 C 0.87802 0.9012 0.79986 0.0
C1469 C 0.96736 0.83942 0.88349 0.0
C1470 C 0.9774 0.83106 0.85218 0.0
C1471 C 0.8672 0.76477 0.77514 0.0
C1472 C 0.81623 0.69636 0.68985 0.0
C1473 C 0.83517 0.68277 0.70817 0.0
C1474 C 0.85149 0.66147 0.69151 0.0
C1475 C 0.84683 0.65158 0.656 0.0
C1476 C 0.81221 0.68667 0.65442 0.0
C1477 C 0.82718 0.66401 0.63765 0.0
C1478 C 0.84313 0.7811 0.84268 0.0
C1479 C 0.80239 0.72266 0.70696 0.0
H1480 H 0.84243 0.94232 0.79908 0.0
H1481 H 0.89173 0.02594 0.87792 0.0
H1482 H 0.92183 0.93477 0.85252 0.0
H1483 H 0.92753 0.99252 0.88734 0.0
H1484 H 0.83788 0.68923 0.73536 0.0
H1485 H 0.8583 0.63422 0.64244 0.0
H1486 H 0.79775 0.69692 0.63976 0.0
H1487 H 0.82403 0.65652 0.61032 0.0
Tb1488 Tb 0.55213 0.52627 0.50745 0.0
C1489 C 0.63066 0.65288 0.59807 0.0
C1490 C 0.63568 0.69382 0.56315 0.0
C1491 C 0.64013 0.71316 0.62422 0.0
C1492 C 0.63021 0.65988 0.56656 0.0
C1493 C 0.63626 0.67942 0.62742 0.0
C1494 C 0.63986 0.72036 0.59209 0.0
C1495 C 0.63668 0.63761 0.66074 0.0
N1496 N 0.62741 0.62007 0.59998 0.0
C1497 C 0.63141 0.61226 0.63088 0.0
C1498 C 0.63877 0.67132 0.65903 0.0
Tb1499 Tb 0.61787 0.57981 0.54972 0.0
N1500 N 0.62647 0.63351 0.53937 0.0
C1501 C 0.63061 0.63984 0.50819 0.0
C1502 C 0.6379 0.70011 0.53094 0.0
C1503 C 0.63584 0.67301 0.50342 0.0
H1504 H 0.62966 0.58626 0.63263 0.0
H1505 H 0.63812 0.67758 0.47845 0.0
H1506 H 0.64376 0.74656 0.58996 0.0
H1507 H 0.63912 0.6311 0.68503 0.0
H1508 H 0.62881 0.61951 0.48636 0.0
H1509 H 0.53602 0.42076 0.5691 0.0
H1510 H 0.64201 0.72578 0.5272 0.0
H1511 H 0.53176 0.52493 0.42585 0.0
H1512 H 0.54192 0.48033 0.56641 0.0
H1513 H 0.52261 0.48356 0.37135 0.0
H1514 H 0.64421 0.7339 0.64643 0.0
H1515 H 0.53533 0.37705 0.5174 0.0
H1516 H 0.53386 0.36185 0.45434 0.0
H1517 H 0.64305 0.69096 0.68218 0.0
H1518 H 0.53011 0.37903 0.4002 0.0
N1519 N 0.54629 0.47154 0.51377 0.0
C1520 C 0.5418 0.46193 0.54349 0.0
C1521 C 0.53808 0.40337 0.516 0.0
C1522 C 0.53971 0.41279 0.48504 0.0
C1523 C 0.53835 0.42794 0.5452 0.0
C1524 C 0.54339 0.44744 0.48463 0.0
H1525 H 0.52513 0.42417 0.36903 0.0
N1526 N 0.54172 0.49019 0.4547 0.0
C1527 C 0.52817 0.47588 0.39439 0.0
C1528 C 0.54105 0.45707 0.4541 0.0
C1529 C 0.53363 0.4994 0.42552 0.0
C1530 C 0.52966 0.44239 0.39318 0.0
C1531 C 0.53537 0.43239 0.42329 0.0
O1532 O 0.50896 0.49825 0.50408 0.0
O1533 O 0.57586 0.57933 0.52437 0.0
O1534 O 0.58415 0.58811 0.58441 0.0
O1535 O 0.54925 0.53782 0.56385 0.0
O1536 O 0.55388 0.56418 0.47664 0.0
O1537 O 0.51839 0.55228 0.51229 0.0
O1538 O 0.65584 0.57421 0.57642 0.0
O1539 O 0.59431 0.5267 0.53252 0.0
O1540 O 0.58301 0.52043 0.46871 0.0
O1541 O 0.62319 0.56393 0.49417 0.0
O1542 O 0.6167 0.54111 0.57967 0.0
O1543 O 0.65599 0.58433 0.5267 0.0
C1544 C 0.5695 0.59042 0.49823 0.0
C1545 C 0.47358 0.5221 0.47991 0.0
C1546 C 0.43327 0.54483 0.46149 0.0
C1547 C 0.45715 0.54666 0.48506 0.0
C1548 C 0.42596 0.51812 0.43249 0.0
C1549 C 0.4658 0.49533 0.45086 0.0
C1550 C 0.44221 0.49356 0.42723 0.0
C1551 C 0.56045 0.56577 0.58839 0.0
C1552 C 0.4981 0.52456 0.50567 0.0
C1553 C 0.53407 0.39827 0.42363 0.0
C1554 C 0.53621 0.38848 0.45446 0.0
C1555 C 0.60127 0.51512 0.558 0.0
C1556 C 0.70074 0.6018 0.56218 0.0
C1557 C 0.7242 0.58659 0.56499 0.0
C1558 C 0.75288 0.6062 0.57047 0.0
C1559 C 0.758 0.64139 0.57351 0.0
C1560 C 0.70603 0.6371 0.56595 0.0
C1561 C 0.73461 0.6568 0.57175 0.0
C1562 C 0.6093 0.53944 0.46735 0.0
C1563 C 0.67138 0.5797 0.55241 0.0
H1564 H 0.46261 0.56686 0.50784 0.0
H1565 H 0.40775 0.51638 0.41392 0.0
H1566 H 0.47774 0.47569 0.44645 0.0
H1567 H 0.43641 0.47298 0.40486 0.0
H1568 H 0.72019 0.55925 0.56175 0.0
H1569 H 0.77996 0.65687 0.57709 0.0
H1570 H 0.68821 0.64928 0.5637 0.0
H1571 H 0.73865 0.68398 0.57425 0.0
Tb1572 Tb 0.11516 0.5615 1.00917 0.0
C1573 C 0.03669 0.50845 0.11155 0.0
C1574 C 1.01018 0.45144 0.08368 0.0
C1575 C 1.01932 0.46778 0.14507 0.0
C1576 C 0.02535 0.48429 0.08231 0.0
C1577 C 0.03348 0.50076 0.14339 0.0
C1578 C 1.0077 0.44312 0.11522 0.0
C1579 C 0.05768 0.55904 0.16932 0.0
N1580 N 0.05022 0.53988 0.10871 0.0
C1581 C 0.06029 0.56539 0.13714 0.0
C1582 C 0.04431 0.52655 0.1725 0.0
Tb1583 Tb 0.05285 0.54822 0.05489 0.0
N1584 N 0.02806 0.49353 0.0525 0.0
C1585 C 1.01406 0.47163 0.02306 0.0
C1586 C 0.99736 0.4283 0.05338 0.0
C1587 C 0.99899 0.43862 0.02295 0.0
H1588 H 0.07093 0.59058 0.13531 0.0
H1589 H 0.98867 0.42119 0.99936 0.0
H1590 H 0.99634 0.41795 0.11682 0.0
H1591 H 0.06606 0.57922 0.19167 0.0
H1592 H 1.01506 0.47911 0.99934 0.0
H1593 H 0.18415 0.68523 0.06889 0.0
H1594 H 0.98561 0.40276 0.05328 0.0
H1595 H 0.09391 0.5239 0.92786 0.0
H1596 H 0.15707 0.62718 0.06669 0.0
H1597 H 0.09519 0.53964 0.87289 0.0
H1598 H 1.01685 0.46126 0.16927 0.0
H1599 H 0.18518 0.70737 0.01697 0.0
H1600 H 0.17107 0.69663 0.95412 0.0
H1601 H 0.04234 0.52169 0.19745 0.0
H1602 H 0.14697 0.65693 0.90069 0.0
N1603 N 0.14185 0.61594 1.01391 0.0
C1604 C 0.15719 0.63605 0.04363 0.0
C1605 C 0.17318 0.68166 0.01577 0.0
C1606 C 0.15867 0.66049 0.98512 0.0
C1607 C 0.17269 0.66923 0.04509 0.0
C1608 C 0.14326 0.62731 0.98505 0.0
H1609 H 0.11874 0.59823 0.87009 0.0
N1610 N 0.11631 0.57323 0.9565 0.0
C1611 C 0.10507 0.55835 0.89587 0.0
C1612 C 0.12999 0.60512 0.95521 0.0
C1613 C 0.10455 0.54949 0.9272 0.0
C1614 C 0.11833 0.59145 0.89439 0.0
C1615 C 0.13131 0.61524 0.92426 0.0
O1616 O 0.13887 0.52728 0.98629 0.0
O1617 O 0.08359 0.52505 0.02746 0.0
O1618 O 0.08941 0.53916 0.08476 0.0
O1619 O 0.1267 0.57271 0.06444 0.0
O1620 O 0.09616 0.50853 0.98178 0.0
O1621 O 0.15668 0.56396 0.03292 0.0
O1622 O 0.02708 0.58149 0.07403 0.0
O1623 O 0.0853 0.58405 0.03773 0.0
O1624 O 0.07846 0.57356 0.9818 0.0
O1625 O 0.04218 0.5367 0.99975 0.0
O1626 O 0.06959 0.60243 0.08039 0.0
O1627 O 1.01126 0.54163 0.02903 0.0
C1628 C 0.08053 0.49871 1.00377 0.0
C1629 C 0.19017 0.54187 1.00051 0.0
C1630 C 0.23473 0.52123 1.00017 0.0
C1631 C 0.20613 0.51879 1.00803 0.0
C1632 C 0.24721 0.54748 0.98494 0.0
C1633 C 0.20286 0.56768 0.98509 0.0
C1634 C 0.23132 0.57043 0.97738 0.0
C1635 C 0.11708 0.55506 0.08666 0.0
C1636 C 0.16077 0.53888 1.01025 0.0
C1637 C 0.14583 0.64857 0.92416 0.0
C1638 C 0.15952 0.67116 0.95457 0.0
C1639 C 0.08719 0.61121 0.05979 0.0
C1640 C 0.97612 0.56108 0.06015 0.0
C1641 C 0.95798 0.58155 0.05177 0.0
C1642 C 0.92929 0.57634 0.05955 0.0
C1643 C 0.91903 0.55036 0.07611 0.0
C1644 C 0.96563 0.53525 0.07664 0.0
C1645 C 0.93716 0.52998 0.08459 0.0
C1646 C 0.05117 0.5561 0.97883 0.0
C1647 C 1.00546 0.5667 0.05022 0.0
H1648 H 0.19639 0.49924 0.02054 0.0
H1649 H 0.26915 0.55 0.97852 0.0
H1650 H 0.19089 0.58573 0.97928 0.0
H1651 H 0.24112 0.59043 0.96553 0.0
H1652 H 0.96609 0.60132 0.03874 0.0
H1653 H 0.89718 0.54614 0.08293 0.0
H1654 H 0.97932 0.51918 0.08319 0.0
H1655 H 0.92911 0.51007 0.09739 0.0
C1656 C 0.06043 0.1865 0.02456 0.0
C1657 C 0.05808 0.19526 0.99261 0.0
C1658 C 0.06543 0.15462 0.02836 0.0
C1659 C 0.06888 0.12987 1.00045 0.0
H1660 H 0.05804 0.20435 0.04703 0.0
H1661 H 0.06622 0.14921 0.05327 0.0
S1662 S 0.06656 0.13987 0.91162 0.0
N1663 N 0.06074 0.17583 0.9328 0.0
N1664 N 0.07043 0.11716 0.93981 0.0
C1665 C 0.06705 0.13852 0.96859 0.0
C1666 C 0.06172 0.17069 0.9647 0.0
C1667 C 0.2318 0.79587 0.16508 0.0
C1668 C 0.21532 0.82053 0.17221 0.0
C1669 C 0.25576 0.79531 0.18752 0.0
C1670 C 0.26486 0.81944 0.2185 0.0
H1671 H 0.22605 0.7763 0.14188 0.0
H1672 H 0.26725 0.77554 0.18035 0.0
S1673 S 0.22934 0.88938 0.2503 0.0
N1674 N 0.21013 0.86989 0.21319 0.0
N1675 N 0.25491 0.86876 0.25532 0.0
C1676 C 0.24884 0.84453 0.22603 0.0
C1677 C 0.22425 0.84509 0.20302 0.0
C1678 C 0.56366 0.9037 0.47268 0.0
C1679 C 0.56342 0.88799 0.50034 0.0
C1680 C 0.57218 0.9394 0.47711 0.0
C1681 C 0.58064 0.96155 0.50943 0.0
H1682 H 0.55728 0.88828 0.44717 0.0
H1683 H 0.5722 0.94985 0.45483 0.0
S1684 S 0.58648 0.93415 0.59037 0.0
N1685 N 0.57386 0.89825 0.56162 0.0
N1686 N 0.5904 0.96464 0.56944 0.0
C1687 C 0.58105 0.94634 0.5373 0.0
C1688 C 0.57223 0.90992 0.53289 0.0
C1689 C 0.56498 0.33056 0.71074 0.0
C1690 C 0.55651 0.31725 0.67577 0.0
C1691 C 0.54502 0.3267 0.7342 0.0
C1692 C 0.51565 0.30939 0.7238 0.0
H1693 H 0.5873 0.34389 0.72021 0.0
H1694 H 0.5527 0.33734 0.76081 0.0
S1695 S 0.48217 0.26908 0.63533 0.0
N1696 N 0.51634 0.28587 0.63204 0.0
N1697 N 0.47927 0.27831 0.67611 0.0
C1698 C 0.50681 0.2962 0.68894 0.0
C1699 C 0.52708 0.30016 0.66501 0.0
C1700 C 0.05116 0.85623 0.64138 0.0
C1701 C 0.06556 0.86483 0.67476 0.0
C1702 C 0.06171 0.87332 0.61686 0.0
C1703 C 0.08706 0.89969 0.62471 0.0
H1704 H 0.03231 0.83508 0.63357 0.0
H1705 H 0.05077 0.86466 0.59115 0.0
S1706 S 0.13009 0.93623 0.70932 0.0
N1707 N 0.10461 0.90459 0.71511 0.0
N1708 N 0.12422 0.9366 0.66892 0.0
C1709 C 0.10051 0.91019 0.65839 0.0
C1710 C 0.08979 0.89285 0.68343 0.0
C1711 C 0.57305 0.83739 0.82589 0.0
C1712 C 0.57882 0.85444 0.86021 0.0
C1713 C 0.55068 0.84246 0.80438 0.0
C1714 C 0.53345 0.8649 0.81642 0.0
H1715 H 0.58569 0.81972 0.81567 0.0
H1716 H 0.5466 0.82843 0.77822 0.0
S1717 S 0.54208 0.91887 0.90312 0.0
N1718 N 0.56689 0.89659 0.90462 0.0
N1719 N 0.52515 0.90635 0.86405 0.0
C1720 C 0.53949 0.88277 0.85044 0.0
C1721 C 0.56211 0.87749 0.87238 0.0
C1722 C 0.53057 0.1816 0.09499 0.0
C1723 C 0.55137 0.21206 0.1094 0.0
C1724 C 0.53855 0.15369 0.07567 0.0
C1725 C 0.56771 0.15507 0.07086 0.0
H1726 H 0.50808 0.17897 0.0994 0.0
H1727 H 0.52197 0.13045 0.06592 0.0
S1728 S 0.62984 0.23012 0.09907 0.0
N1729 N 0.60194 0.24298 0.11431 0.0
N1730 N 0.61675 0.19029 0.07835 0.0
C1731 C 0.58837 0.18592 0.0833 0.0
C1732 C 0.58024 0.2145 0.10251 0.0
C1733 C 0.25911 0.325 0.37106 0.0
C1734 C 0.23739 0.34127 0.36261 0.0
C1735 C 0.28117 0.32146 0.35075 0.0
C1736 C 0.28252 0.33414 0.3213 0.0
H1737 H 0.25865 0.31394 0.39296 0.0
H1738 H 0.29694 0.30817 0.35797 0.0
S1739 S 0.23266 0.38152 0.28959 0.0
N1740 N 0.2198 0.37226 0.32385 0.0
N1741 N 0.26152 0.36549 0.28598 0.0
C1742 C 0.26188 0.35188 0.31349 0.0
C1743 C 0.23917 0.3553 0.33394 0.0
C1744 C 0.04369 0.10793 0.18074 0.0
C1745 C 1.02009 0.08418 0.18861 0.0
C1746 C 0.05642 0.10227 0.14993 0.0
C1747 C 0.04666 0.07238 0.12379 0.0
H1748 H 0.0527 0.13184 0.1988 0.0
H1749 H 0.07409 0.12216 0.14651 0.0
S1750 S 0.98534 1.00105 0.12962 0.0
N1751 N 0.9877 0.02867 0.16595 0.0
N1752 N 1.01086 1.01821 0.10886 0.0
C1753 C 0.02301 0.0482 0.13109 0.0
C1754 C 1.01012 0.05392 0.16286 0.0
C1755 C 0.2633 0.69605 0.40904 0.0
C1756 C 0.28415 0.70807 0.43806 0.0
C1757 C 0.2526 0.71851 0.39289 0.0
C1758 C 0.26236 0.75384 0.40509 0.0
H1759 H 0.25471 0.66905 0.39896 0.0
H1760 H 0.23663 0.70816 0.37059 0.0
S1761 S 0.31752 0.79865 0.47913 0.0
N1762 N 0.31497 0.75795 0.47745 0.0
N1763 N 0.29444 0.79999 0.44724 0.0
C1764 C 0.28367 0.76629 0.4335 0.0
C1765 C 0.29467 0.74346 0.44993 0.0
C1766 C 0.64637 0.04698 0.68917 0.0
C1767 C 0.67037 0.03248 0.68487 0.0
C1768 C 0.62926 0.05069 0.66123 0.0
C1769 C 0.63555 0.03962 0.62834 0.0
H1770 H 0.64151 0.05672 0.71433 0.0
H1771 H 0.61194 0.06359 0.66552 0.0
S1772 S 0.69347 0.99553 0.60394 0.0
N1773 N 0.69828 1.00468 0.64572 0.0
N1774 N 0.66519 1.01002 0.59289 0.0
C1775 C 0.65852 1.02337 0.62377 0.0
C1776 C 0.67621 1.02018 0.6522 0.0
C1777 C 0.35721 0.39758 0.91989 0.0
C1778 C 0.3532 0.37525 0.94188 0.0
C1779 C 0.35214 0.38577 0.88478 0.0
C1780 C 0.34352 0.35095 0.86953 0.0
H1781 H 0.36355 0.42483 0.92973 0.0
H1782 H 0.35455 0.40429 0.86925 0.0
S1783 S 0.33088 0.2811 0.91466 0.0
N1784 N 0.34078 0.31594 0.94535 0.0
N1785 N 0.33126 0.29379 0.87876 0.0
C1786 C 0.34008 0.32794 0.89076 0.0
C1787 C 0.34503 0.34006 0.92701 0.0
C1788 C 1.00426 0.06855 0.40741 0.0
C1789 C 0.02232 0.07053 0.38146 0.0
C1790 C 1.01443 0.06485 0.44039 0.0
C1791 C 0.0434 0.06271 0.45026 0.0
H1792 H 0.98174 0.06926 0.40212 0.0
H1793 H 0.99909 0.06357 0.45863 0.0
S1794 S 0.10109 0.06991 0.39396 0.0
N1795 N 0.07202 0.0716 0.36986 0.0
N1796 N 0.0905 0.06596 0.43086 0.0
C1797 C 0.06189 0.06556 0.42498 0.0
C1798 C 0.05157 0.06899 0.39125 0.0
C1799 C 0.34106 0.73718 0.6275 0.0
C1800 C 0.31229 0.72616 0.61137 0.0
C1801 C 0.34736 0.75534 0.66123 0.0
C1802 C 0.32514 0.7628 0.68013 0.0
H1803 H 0.3589 0.7322 0.61385 0.0
H1804 H 0.36979 0.76323 0.67271 0.0
S1805 S 0.2461 0.73718 0.65077 0.0
N1806 N 0.26115 0.72232 0.61748 0.0
N1807 N 0.27326 0.75632 0.68119 0.0
C1808 C 0.29624 0.75095 0.66482 0.0
C1809 C 0.28976 0.73278 0.63028 0.0
C1810 C 0.6366 0.03356 0.80485 0.0
C1811 C 0.64501 0.06635 0.79903 0.0
C1812 C 0.60987 1.02254 0.81585 0.0
C1813 C 0.59074 0.04405 0.82177 0.0
H1814 H 0.65111 1.01655 0.80184 0.0
H1815 H 0.60499 0.99791 0.82212 0.0
S1816 S 0.60122 0.131 0.80733 0.0
N1817 N 0.63097 0.1191 0.79695 0.0
N1818 N 0.58085 0.09854 0.81874 0.0
C1819 C 0.59793 0.07599 0.81389 0.0
C1820 C 0.62512 0.08716 0.80232 0.0
C1821 C 0.3198 0.31584 0.13052 0.0
C1822 C 0.33169 0.34937 0.12808 0.0
C1823 C 0.31849 0.30696 0.162 0.0
C1824 C 0.32878 0.33113 0.19285 0.0
H1825 H 0.31195 0.29592 0.10782 0.0
H1826 H 0.31007 0.28048 0.16186 0.0
S1827 S 0.36019 0.42327 0.20079 0.0
N1828 N 0.3528 0.40737 0.1596 0.0
N1829 N 0.35009 0.39092 0.21849 0.0
C1830 C 0.33993 0.36507 0.19078 0.0
C1831 C 0.34149 0.37407 0.15862 0.0
C1832 C 0.31788 0.06965 0.05024 0.0
C1833 C 0.3207 0.04831 0.07252 0.0
C1834 C 0.29681 0.08884 0.05255 0.0
C1835 C 0.2775 0.08687 0.07681 0.0
H1836 H 0.33187 0.07135 0.03063 0.0
H1837 H 0.29503 0.10453 0.03461 0.0
S1838 S 0.27653 0.03678 0.14239 0.0
N1839 N 0.30311 0.02807 0.12099 0.0
N1840 N 0.26304 0.0634 0.1244 0.0
C1841 C 0.2803 0.06625 0.0996 0.0
C1842 C 0.30209 0.04724 0.09777 0.0
C1843 C 0.71051 0.63672 0.05554 0.0
C1844 C 0.72328 0.63886 0.02583 0.0
C1845 C 0.68143 0.61992 0.0543 0.0
C1846 C 0.66382 0.60408 0.02332 0.0
H1847 H 0.72306 0.64818 0.08016 0.0
H1848 H 0.67295 0.61881 0.07799 0.0
S1849 S 0.68622 0.60284 0.93801 0.0
N1850 N 0.71575 0.62419 0.96426 0.0
N1851 N 0.66094 0.59234 0.96204 0.0
C1852 C 0.67611 0.60615 0.99331 0.0
C1853 C 0.70581 0.62366 0.99454 0.0
C1854 C 0.77773 0.40807 0.24425 0.0
C1855 C 0.76203 0.42556 0.26795 0.0
C1856 C 0.791 0.38094 0.24991 0.0
C1857 C 0.79033 0.36909 0.28023 0.0
H1858 H 0.77973 0.41521 0.2203 0.0
H1859 H 0.80164 0.36894 0.22995 0.0
S1860 S 0.75229 0.40436 0.35133 0.0
N1861 N 0.74698 0.42697 0.32343 0.0
N1862 N 0.77147 0.37792 0.33431 0.0
C1863 C 0.77469 0.38627 0.30409 0.0
C1864 C 0.76097 0.41366 0.29815 0.0
C1865 C 0.97753 0.55489 0.55246 0.0
C1866 C 0.95854 0.52255 0.544 0.0
C1867 C 1.00761 0.5586 0.55319 0.0
C1868 C 1.01963 0.53008 0.54603 0.0
H1869 H 0.96909 0.57742 0.55838 0.0
H1870 H 0.02144 0.58392 0.55994 0.0
S1871 S 0.97929 0.43992 0.52469 0.0
N1872 N 0.95384 0.46147 0.52944 0.0
N1873 N 1.0105 0.46863 0.53187 0.0
C1874 C 1.00094 0.49766 0.53861 0.0
C1875 C 0.97032 0.49385 0.53708 0.0
C1876 C 0.39522 0.14331 0.28595 0.0
C1877 C 0.39576 0.10928 0.28469 0.0
C1878 C 0.3742 0.15155 0.26521 0.0
C1879 C 0.35341 0.12615 0.24189 0.0
H1880 H 0.41156 0.16379 0.30249 0.0
H1881 H 0.37489 0.17804 0.26648 0.0
S1882 S 0.34351 0.0332 0.23067 0.0
N1883 N 0.37189 0.04982 0.26004 0.0
N1884 N 0.33301 0.06573 0.22042 0.0
C1885 C 0.35286 0.09206 0.24126 0.0
C1886 C 0.37385 0.08353 0.26288 0.0
C1887 C 0.39742 0.11977 0.49799 0.0
C1888 C 0.37956 0.1341 0.51985 0.0
C1889 C 0.41613 0.10092 0.50879 0.0
C1890 C 0.41764 0.09556 0.54182 0.0
H1891 H 0.39682 0.12285 0.4722 0.0
H1892 H 0.4292 0.09 0.49098 0.0
S1893 S 0.37728 0.12954 0.60988 0.0
N1894 N 0.36581 0.14278 0.57685 0.0
N1895 N 0.40104 0.10757 0.59688 0.0
C1896 C 0.40037 0.11018 0.56412 0.0
C1897 C 0.38135 0.12939 0.55322 0.0
C1898 C 0.74707 0.65 0.25576 0.0
C1899 C 0.75511 0.62753 0.27477 0.0
C1900 C 0.76418 0.6832 0.25801 0.0
C1901 C 0.79086 0.69684 0.27944 0.0
H1902 H 0.72695 0.64197 0.23863 0.0
H1903 H 0.75608 0.69837 0.24252 0.0
S1904 S 0.82212 0.65026 0.33662 0.0
N1905 N 0.79205 0.62257 0.3169 0.0
N1906 N 0.82382 0.68464 0.32151 0.0
C1907 C 0.79934 0.67485 0.29887 0.0
C1908 C 0.78176 0.64061 0.29646 0.0
C1909 C 0.89372 0.46089 0.77004 0.0
C1910 C 0.91743 0.46898 0.79573 0.0
C1911 C 0.87591 0.42791 0.76 0.0
C1912 C 0.8805 0.40244 0.77634 0.0
H1913 H 0.88901 0.4801 0.75744 0.0
H1914 H 0.85787 0.42258 0.74011 0.0
S1915 S 0.94139 0.40945 0.84227 0.0
N1916 N 0.94602 0.44793 0.83508 0.0
N1917 N 0.91211 0.38631 0.81673 0.0
C1918 C 0.90475 0.4098 0.80105 0.0
C1919 C 0.92324 0.44308 0.81076 0.0
C1920 C 0.11153 0.93983 0.09417 0.0
C1921 C 0.11531 0.91524 0.0663 0.0
C1922 C 0.10654 0.97162 0.09066 0.0
C1923 C 0.1049 0.98095 0.05912 0.0
H1924 H 0.11224 0.93445 0.11909 0.0
H1925 H 0.10391 0.98928 0.11318 0.0
S1926 S 0.1156 0.92764 0.97816 0.0
N1927 N 0.11806 0.90375 1.00564 0.0
N1928 N 0.1097 0.96341 0.99974 0.0
C1929 C 0.10923 0.95706 0.0311 0.0
C1930 C 0.11404 0.92442 0.03451 0.0
C1931 C 0.96519 0.30267 0.84331 0.0
C1932 C 0.96585 0.29298 0.87461 0.0
C1933 C 0.93958 0.30703 0.82664 0.0
C1934 C 0.91328 0.30269 0.84067 0.0
H1935 H 0.98484 0.30716 0.83145 0.0
H1936 H 0.94064 0.31471 0.80284 0.0
S1937 S 0.9022 0.27616 0.92125 0.0
N1938 N 0.93701 0.27811 0.91834 0.0
N1939 N 0.8891 0.28671 0.8872 0.0
C1940 C 0.91331 0.29261 0.87169 0.0
C1941 C 0.93942 0.28759 0.88852 0.0
C1942 C 0.61812 0.20761 0.60196 0.0
C1943 C 0.6179 0.2204 0.5724 0.0
C1944 C 0.61251 0.17233 0.60056 0.0
C1945 C 0.60645 0.14772 0.5696 0.0
H1946 H 0.62289 0.22504 0.62657 0.0
H1947 H 0.61294 0.16417 0.62416 0.0
S1948 S 0.60015 0.16697 0.48462 0.0
N1949 N 0.60957 0.20478 0.51088 0.0
N1950 N 0.59801 0.13912 0.50859 0.0
C1951 C 0.60537 0.16003 0.53986 0.0
C1952 C 0.61145 0.19603 0.54119 0.0
C1953 C 0.64477 0.8097 0.39465 0.0
C1954 C 0.61539 0.792 0.38514 0.0
C1955 C 0.6643 0.81253 0.37063 0.0
C1956 C 0.6553 0.79786 0.33603 0.0
H1957 H 0.65277 0.82206 0.42086 0.0
H1958 H 0.68643 0.82714 0.37914 0.0
S1959 S 0.58165 0.74608 0.29792 0.0
N1960 N 0.57889 0.75775 0.33857 0.0
N1961 N 0.6156 0.76287 0.2937 0.0
C1962 C 0.62627 0.77922 0.32624 0.0
C1963 C 0.60636 0.77633 0.35066 0.0
C1964 C 0.12324 0.27579 0.47075 0.0
C1965 C 0.14863 0.3021 0.48029 0.0
C1966 C 0.11203 0.25707 0.49369 0.0
C1967 C 0.12578 0.26375 0.52709 0.0
H1968 H 0.1116 0.26982 0.44547 0.0
H1969 H 0.09232 0.23717 0.48519 0.0
S1970 S 0.19362 0.3287 0.56452 0.0
N1971 N 0.18765 0.33333 0.52545 0.0
N1972 N 0.16666 0.29762 0.56833 0.0
C1973 C 0.15125 0.2898 0.53701 0.0
C1974 C 0.16268 0.30902 0.51367 0.0
C1975 C 0.59997 0.24423 0.24037 0.0
C1976 C 0.60357 0.27898 0.24079 0.0
C1977 C 0.62311 0.23157 0.25136 0.0
C1978 C 0.65057 0.25319 0.26392 0.0
H1979 H 0.57943 0.22628 0.2301 0.0
H1980 H 0.61976 0.20445 0.2488 0.0
S1981 S 0.67099 0.34652 0.27295 0.0
N1982 N 0.63654 0.33505 0.25597 0.0
N1983 N 0.67989 0.31125 0.27796 0.0
C1984 C 0.65436 0.28813 0.2655 0.0
C1985 C 0.63087 0.30102 0.25372 0.0
C1986 C 0.64168 0.96907 0.94245 0.0
C1987 C 0.6494 0.94163 0.95323 0.0
C1988 C 0.62931 0.99181 0.96356 0.0
C1989 C 0.62414 0.98792 0.99612 0.0
H1990 H 0.64461 0.97269 0.91725 0.0
H1991 H 0.6238 1.01265 0.95433 0.0
S1992 S 0.64042 0.92109 0.03708 0.0
N1993 N 0.65141 0.91258 0.9995 0.0
N1994 N 0.62765 0.95534 0.03857 0.0
C1995 C 0.63225 0.96134 1.00769 0.0
C1996 C 0.64501 0.93815 0.98636 0.0
C1997 C 0.91737 0.75385 0.70886 0.0
C1998 C 0.94191 0.74899 0.72702 0.0
C1999 C 0.89284 0.75787 0.72452 0.0
C2000 C 0.89197 0.75676 0.75868 0.0
H2001 H 0.91776 0.75677 0.68308 0.0
H2002 H 0.87495 0.76333 0.7102 0.0
S2003 S 0.94764 0.73684 0.81478 0.0
N2004 N 0.96203 0.7379 0.77927 0.0
N2005 N 0.91527 0.74479 0.80844 0.0
C2006 C 0.91497 0.74841 0.77605 0.0
C2007 C 0.9402 0.74475 0.76027 0.0
C2008 C 0.12864 1.0014 0.87973 0.0
C2009 C 0.1533 1.02414 0.87253 0.0
C2010 C 0.11579 1.00741 0.91042 0.0
C2011 C 0.12641 0.03674 0.93705 0.0
H2012 H 0.11881 0.97804 0.86122 0.0
H2013 H 0.09726 0.98829 0.91332 0.0
S2014 S 0.19073 0.10536 0.93309 0.0
N2015 N 0.18771 0.07805 0.89641 0.0
N2016 N 0.16425 0.0892 0.95322 0.0
C2017 C 0.15117 0.05988 0.93045 0.0
C2018 C 0.16425 0.05375 0.89885 0.0
C2019 C 0.87591 0.38164 0.59686 0.0
C2020 C 0.87731 0.41654 0.6011 0.0
C2021 C 0.89009 0.36933 0.62128 0.0
C2022 C 0.90611 0.39138 0.651 0.0
H2023 H 0.86448 0.36367 0.57404 0.0
H2024 H 0.88891 0.34232 0.61655 0.0
S2025 S 0.91405 0.48447 0.6762 0.0
N2026 N 0.89452 0.47281 0.63849 0.0
N2027 N 0.92072 0.44934 0.68471 0.0
C2028 C 0.90696 0.42618 0.65619 0.0
C2029 C 0.89262 0.43882 0.63121 0.0
C2030 C 0.51276 0.07191 0.42316 0.0
C2031 C 0.51506 0.05088 0.39213 0.0
C2032 C 0.53189 0.07487 0.45216 0.0
C2033 C 0.55407 0.05727 0.45089 0.0
H2034 H 0.49578 0.08569 0.42528 0.0
H2035 H 0.52896 0.09046 0.4759 0.0
S2036 S 0.56938 0.99858 0.37672 0.0
N2037 N 0.54172 1.01218 0.36225 0.0
N2038 N 0.57702 1.01763 0.41721 0.0
C2039 C 0.55695 0.0366 0.42027 0.0
C2040 C 0.53758 0.03345 0.3907 0.0
C2041 C 0.81786 0.7304 0.13148 0.0
C2042 C 0.81938 0.75788 0.11577 0.0
C2043 C 0.82285 0.73543 0.16668 0.0
C2044 C 0.82943 0.76811 0.18797 0.0
H2045 H 0.81274 0.70454 0.11651 0.0
H2046 H 0.82157 0.71336 0.1774 0.0
S2047 S 0.83828 0.84904 0.16006 0.0
N2048 N 0.82893 0.81939 0.12452 0.0
N2049 N 0.83929 0.82873 0.19087 0.0
C2050 C 0.83154 0.79602 0.17286 0.0
C2051 C 0.82612 0.7909 0.13676 0.0
C2052 C 0.12462 0.0397 0.67235 0.0
C2053 C 0.15256 0.03362 0.68082 0.0
C2054 C 0.11372 0.04185 0.63906 0.0
C2055 C 0.13024 0.03897 0.6116 0.0
H2056 H 0.11059 0.04279 0.69186 0.0
H2057 H 0.09204 0.04574 0.63492 0.0
S2058 S 0.20456 1.02257 0.61827 0.0
N2059 N 0.19595 1.02415 0.65696 0.0
N2060 N 0.17649 0.0289 0.596 0.0
C2061 C 0.15811 0.03268 0.61962 0.0
C2062 C 0.16897 0.02998 0.65338 0.0
C2063 C 0.883 0.38086 0.43029 0.0
C2064 C 0.8609 0.39186 0.44732 0.0
C2065 C 0.87654 0.35804 0.39862 0.0
C2066 C 0.84772 0.3447 0.38311 0.0
H2067 H 0.90563 0.39092 0.44085 0.0
H2068 H 0.89432 0.35134 0.38581 0.0
S2069 S 0.78179 0.36382 0.4178 0.0
N2070 N 0.80891 0.38655 0.4469 0.0
N2071 N 0.79687 0.34355 0.38738 0.0
C2072 C 0.82535 0.35446 0.40035 0.0
C2073 C 0.83192 0.3781 0.43244 0.0
C2074 C 0.53789 0.07375 0.2612 0.0
C2075 C 0.5327 0.09996 0.28618 0.0
C2076 C 0.56293 0.07848 0.24536 0.0
C2077 C 0.58367 0.10973 0.25351 0.0
H2078 H 0.52239 0.04935 0.25353 0.0
H2079 H 0.56562 0.0578 0.22565 0.0
S2080 S 0.58153 0.18573 0.31884 0.0
N2081 N 0.55132 0.15767 0.31998 0.0
N2082 N 0.59834 0.16657 0.28957 0.0
C2083 C 0.57952 0.13564 0.27952 0.0
C2084 C 0.55398 0.1308 0.29591 0.0
C2085 C 0.84078 0.78677 0.93673 0.0
C2086 C 0.83631 0.7527 0.93932 0.0
C2087 C 0.8441 0.79579 0.90561 0.0
C2088 C 0.84306 0.77119 0.87573 0.0
H2089 H 0.8408 0.80661 0.95871 0.0
H2090 H 0.84591 0.82204 0.90467 0.0
S2091 S 0.83736 0.67948 0.86959 0.0
N2092 N 0.83443 0.69474 0.90962 0.0
N2093 N 0.84134 0.71213 0.85153 0.0
C2094 C 0.84024 0.73739 0.8782 0.0
C2095 C 0.83669 0.72805 0.90985 0.0
C2096 C 0.85793 0.04291 0.01827 0.0
C2097 C 0.8541 0.06854 1.0015 0.0
C2098 C 0.8787 1.02404 1.01014 0.0
C2099 C 0.89628 0.0301 0.98493 0.0
H2100 H 0.84525 0.03779 0.03836 0.0
H2101 H 0.88149 1.00513 0.02414 0.0
S2102 S 0.89442 0.09266 0.93226 0.0
N2103 N 0.86916 0.09757 0.95717 0.0
N2104 N 0.90846 0.06245 0.94272 0.0
C2105 C 0.89242 0.05494 0.96749 0.0
C2106 C 0.87123 0.07406 0.97552 0.0
C2107 C 0.46328 0.44021 0.01743 0.0
C2108 C 0.44758 0.44619 0.04494 0.0
C2109 C 0.49027 0.46158 0.01655 0.0
C2110 C 0.50304 0.48994 0.04322 0.0
H2111 H 0.4544 0.41913 0.99594 0.0
H2112 H 0.50105 0.45558 0.99449 0.0
S2113 S 0.47266 0.51342 0.12366 0.0
N2114 N 0.44766 0.48059 0.10093 0.0
N2115 N 0.49898 0.52017 0.09995 0.0
C2116 C 0.4881 0.49528 0.07169 0.0
C2117 C 0.46025 0.47367 0.07233 0.0
C2118 C 0.4069 0.70804 0.81687 0.0
C2119 C 0.41712 0.68565 0.79113 0.0
C2120 C 0.39419 0.73551 0.81115 0.0
C2121 C 0.39001 0.74295 0.77887 0.0
H2122 H 0.40895 0.70462 0.84251 0.0
H2123 H 0.38793 0.75137 0.83258 0.0
S2124 S 0.41197 0.6935 0.70158 0.0
N2125 N 0.42129 0.67449 0.73121 0.0
N2126 N 0.39787 0.72446 0.72046 0.0
C2127 C 0.40005 0.72086 0.75287 0.0
C2128 C 0.41313 0.69297 0.75878 0.0
C2129 C 0.21202 0.6492 0.54411 0.0
C2130 C 0.22592 0.62231 0.53729 0.0
C2131 C 0.18166 0.64288 0.54172 0.0
C2132 C 0.16439 0.6095 0.53322 0.0
H2133 H 0.22469 0.67523 0.55124 0.0
H2134 H 0.17163 0.6642 0.54726 0.0
S2135 S 0.19085 0.53095 0.50803 0.0
N2136 N 0.22073 0.56174 0.51868 0.0
N2137 N 0.16369 0.54972 0.51344 0.0
C2138 C 0.17823 0.58261 0.52477 0.0
C2139 C 0.20909 0.58907 0.52723 0.0
C2140 C 0.80752 0.03766 0.85128 0.0
C2141 C 0.79686 0.03747 0.81798 0.0
C2142 C 0.83018 1.0221 0.85769 0.0
C2143 C 0.84304 1.00613 0.831 0.0
H2144 H 0.79783 0.04917 0.87249 0.0
H2145 H 0.83707 1.02168 0.88357 0.0
S2146 S 0.82607 1.00317 0.73977 0.0
N2147 N 0.80275 1.02273 0.75833 0.0
N2148 N 0.84577 0.99439 0.77049 0.0
C2149 C 0.83359 1.00734 0.79778 0.0
C2150 C 0.81036 1.02275 0.79123 0.0
C2151 C 0.80936 0.98214 0.54584 0.0
C2152 C 0.79822 0.94767 0.52956 0.0
C2153 C 0.79379 1.00675 0.54243 0.0
C2154 C 0.76638 0.99789 0.52276 0.0
H2155 H 0.83039 0.99033 0.56123 0.0
H2156 H 0.80319 0.0329 0.55556 0.0
S2157 S 0.7276 0.9116 0.4741 0.0
N2158 N 0.75792 0.90623 0.49255 0.0
N2159 N 0.72901 0.95254 0.4861 0.0
C2160 C 0.75494 0.96363 0.50636 0.0
C2161 C 0.77076 0.93854 0.50975 0.0
C2162 C 0.38818 0.4722 0.77947 0.0
C2163 C 0.41775 0.4769 0.77386 0.0
C2164 C 0.37021 0.43935 0.77896 0.0
C2165 C 0.38073 0.4093 0.77289 0.0
H2166 H 0.37903 0.49417 0.78539 0.0
H2167 H 0.34819 0.4378 0.7846 0.0
S2168 S 0.45507 0.4062 0.75215 0.0
N2169 N 0.45534 0.44694 0.75888 0.0
N2170 N 0.42226 0.38699 0.75787 0.0
C2171 C 0.40977 0.41367 0.76589 0.0
C2172 C 0.42792 0.44672 0.76636 0.0
C2173 C 0.29365 0.67869 0.30553 0.0
C2174 C 0.26376 0.67104 0.2935 0.0
C2175 C 0.3106 0.71194 0.31198 0.0
C2176 C 0.29814 0.73819 0.30607 0.0
H2177 H 0.30437 0.65859 0.30812 0.0
H2178 H 0.33378 0.71679 0.31963 0.0
S2179 S 0.22043 0.73304 0.28088 0.0
N2180 N 0.22185 0.69357 0.28097 0.0
N2181 N 0.25407 0.75605 0.29255 0.0
C2182 C 0.26799 0.73166 0.29734 0.0
C2183 C 0.25062 0.69794 0.29119 0.0
C2184 C 0.55955 0.68344 0.52004 0.0
C2185 C 0.55558 0.69163 0.48799 0.0
C2186 C 0.5643 0.65141 0.52375 0.0
C2187 C 0.5661 0.62584 0.49563 0.0
H2188 H 0.55882 0.70197 0.54277 0.0
H2189 H 0.56646 0.64665 0.54887 0.0
S2190 S 0.55803 0.63354 0.40611 0.0
N2191 N 0.55402 0.67032 0.42762 0.0
N2192 N 0.56348 0.61144 0.43442 0.0
C2193 C 0.56221 0.63369 0.46355 0.0
C2194 C 0.55698 0.66602 0.45976 0.0
C2195 C 0.71223 0.32293 0.727 0.0
C2196 C 0.71003 0.33146 0.69518 0.0
C2197 C 0.73916 0.32327 0.74452 0.0
C2198 C 0.76538 0.33145 0.73089 0.0
H2199 H 0.69283 0.31562 0.73862 0.0
H2200 H 0.73929 0.31603 0.7686 0.0
S2201 S 0.77264 0.35811 0.64976 0.0
N2202 N 0.73728 0.35017 0.65173 0.0
N2203 N 0.78766 0.35056 0.68451 0.0
C2204 C 0.76376 0.34077 0.69951 0.0
C2205 C 0.73626 0.34089 0.68177 0.0
C2206 C 0.05522 0.40262 0.96932 0.0
C2207 C 0.05871 0.38861 0.99771 0.0
C2208 C 0.06124 0.43806 0.97221 0.0
C2209 C 0.07108 0.46153 1.00358 0.0
H2210 H 0.04769 0.38604 0.94449 0.0
H2211 H 0.05842 0.44726 0.94941 0.0
S2212 S 0.08601 0.43845 0.0854 0.0
N2213 N 0.07353 0.40148 0.05832 0.0
N2214 N 0.08591 0.46772 0.06335 0.0
C2215 C 0.07509 0.44797 0.03213 0.0
C2216 C 0.06855 0.41176 0.02929 0.0
C2217 C 0.06279 0.82553 0.20395 0.0
C2218 C 0.05436 0.81113 0.16914 0.0
C2219 C 0.04321 0.82108 0.22769 0.0
C2220 C 1.01428 0.8021 0.21773 0.0
H2221 H 0.0848 0.84021 0.2131 0.0
H2222 H 0.05085 0.83261 0.25416 0.0
S2223 S 0.98107 0.7584 0.12992 0.0
N2224 N 1.0147 0.77681 0.12606 0.0
N2225 N 0.97829 0.7683 0.1707 0.0
C2226 C 1.00543 0.78778 0.18305 0.0
C2227 C 0.02534 0.79229 0.15881 0.0
C2228 C 0.56334 0.39863 0.17351 0.0
C2229 C 0.54282 0.36772 0.15992 0.0
C2230 C 0.57786 0.41752 0.15236 0.0
C2231 C 0.57228 0.40629 0.11689 0.0
H2232 H 0.56959 0.40731 0.20059 0.0
H2233 H 0.59452 0.44032 0.16387 0.0
S2234 S 0.51752 0.32963 0.06869 0.0
N2235 N 0.51511 0.32898 0.10873 0.0
N2236 N 0.54285 0.36401 0.06919 0.0
C2237 C 0.55022 0.37687 0.10303 0.0
C2238 C 0.53539 0.3577 0.12451 0.0
C2239 C 0.06771 0.35024 0.32624 0.0
C2240 C 0.07171 0.3561 0.3618 0.0
C2241 C 0.04457 0.35885 0.30914 0.0
C2242 C 0.02465 0.37358 0.32701 0.0
H2243 H 0.08241 0.33867 0.31145 0.0
H2244 H 0.04183 0.35324 0.28175 0.0
S2245 S 0.02687 0.39754 0.42013 0.0
N2246 N 0.0547 0.38 0.41427 0.0
N2247 N 1.01126 0.39576 0.38192 0.0
C2248 C 0.02874 0.38038 0.36247 0.0
C2249 C 0.05225 0.37174 0.37992 0.0
C2250 C 0.03818 0.67561 0.62976 0.0
C2251 C 0.04592 0.70821 0.6231 0.0
C2252 C 0.04974 0.64918 0.61355 0.0
C2253 C 0.06933 0.6545 0.59016 0.0
H2254 H 0.02315 0.67046 0.64774 0.0
H2255 H 0.04292 0.62428 0.61886 0.0
S2256 S 0.09851 0.73496 0.5654 0.0
N2257 N 0.07568 0.74434 0.59233 0.0
N2258 N 0.09732 0.69429 0.56216 0.0
C2259 C 0.07761 0.68673 0.58348 0.0
C2260 C 0.06588 0.71372 0.59985 0.0
C2261 C 0.74 0.85388 0.82196 0.0
C2262 C 0.72914 0.83936 0.84821 0.0
C2263 C 0.76653 0.84972 0.81088 0.0
C2264 C 0.78297 0.83065 0.82541 0.0
H2265 H 0.72819 0.86904 0.81017 0.0
H2266 H 0.77455 0.86211 0.79136 0.0
S2267 S 0.76439 0.7868 0.89417 0.0
N2268 N 0.73704 0.80441 0.88778 0.0
N2269 N 0.78685 0.79738 0.86722 0.0
C2270 C 0.77248 0.81608 0.85152 0.0
C2271 C 0.74548 0.82003 0.86271 0.0
C2272 C 0.5423 0.61141 0.67641 0.0
C2273 C 0.52022 0.58763 0.6866 0.0
C2274 C 0.55484 0.60409 0.64568 0.0
C2275 C 0.54631 0.57233 0.62196 0.0
H2276 H 0.55022 0.63664 0.69248 0.0
H2277 H 0.57129 0.62414 0.64031 0.0
S2278 S 0.48931 0.49995 0.63465 0.0
N2279 N 0.49068 0.52993 0.66893 0.0
N2280 N 0.51346 0.51639 0.61191 0.0
C2281 C 0.52423 0.54807 0.63165 0.0
C2282 C 0.51157 0.55551 0.66337 0.0
C2283 C 0.79102 0.22338 0.94519 0.0
C2284 C 0.78129 0.18797 0.93356 0.0
C2285 C 0.78095 0.24549 0.9281 0.0
C2286 C 0.76096 0.23324 0.89838 0.0
H2287 H 0.80618 0.23431 0.9681 0.0
H2288 H 0.78875 0.27254 0.93857 0.0
S2289 S 0.72858 0.14272 0.85714 0.0
N2290 N 0.75014 0.14154 0.89047 0.0
N2291 N 0.73196 0.18334 0.85775 0.0
C2292 C 0.75111 0.1979 0.88625 0.0
C2293 C 0.76119 0.17524 0.90388 0.0
C2294 C 0.1899 0.56468 0.138 0.0
C2295 C 0.1831 0.54293 0.15995 0.0
C2296 C 0.16826 0.56907 0.11514 0.0
C2297 C 0.13888 0.55198 0.11332 0.0
H2298 H 0.21213 0.57842 0.13843 0.0
H2299 H 0.17487 0.58602 0.09872 0.0
S2300 S 0.10943 0.49485 0.16817 0.0
N2301 N 0.14478 0.50584 0.18028 0.0
N2302 N 0.10415 0.51418 0.13745 0.0
C2303 C 0.13174 0.53088 0.13591 0.0
C2304 C 0.15383 0.52624 0.15907 0.0
C2305 C 0.8452 0.80468 0.41856 0.0
C2306 C 0.85182 0.83713 0.44081 0.0
C2307 C 0.84 0.8007 0.38318 0.0
C2308 C 0.84175 0.82909 0.36883 0.0
H2309 H 0.84353 0.78214 0.42854 0.0
H2310 H 0.83416 0.77533 0.36706 0.0
S2311 S 0.86005 0.91944 0.41504 0.0
N2312 N 0.86089 0.89815 0.44501 0.0
N2313 N 0.85132 0.89044 0.37912 0.0
C2314 C 0.84871 0.86149 0.39062 0.0
C2315 C 0.85385 0.8656 0.42639 0.0
C2316 C 0.55086 0.57251 0.89149 0.0
C2317 C 0.52196 0.57499 0.88127 0.0
C2318 C 0.56051 0.56788 0.92432 0.0
C2319 C 0.54175 0.56428 0.94938 0.0
H2320 H 0.56664 0.57444 0.8738 0.0
H2321 H 0.58304 0.56744 0.93009 0.0
S2322 S 0.46364 0.56721 0.93678 0.0
N2323 N 0.47488 0.57278 0.90057 0.0
N2324 N 0.49206 0.56329 0.9604 0.0
C2325 C 0.51279 0.56641 0.93939 0.0
C2326 C 0.50318 0.57176 0.90625 0.0
C2327 C 0.82783 0.25755 0.11986 0.0
C2328 C 0.82167 0.22194 0.10889 0.0
C2329 C 0.82798 0.2733 0.15385 0.0
C2330 C 0.82191 0.25414 0.17835 0.0
H2331 H 0.83265 0.2735 0.10207 0.0
H2332 H 0.8329 0.30079 0.16092 0.0
S2333 S 0.803 0.15988 0.16249 0.0
N2334 N 0.80845 0.16787 0.12519 0.0
N2335 N 0.80845 0.19735 0.18872 0.0
C2336 C 0.81514 0.21846 0.16756 0.0
C2337 C 0.81521 0.20242 0.133 0.0
C2338 C 0.18738 0.58781 0.34074 0.0
C2339 C 0.18717 0.56179 0.31244 0.0
C2340 C 0.16154 0.59247 0.3528 0.0
C2341 C 0.13457 0.57113 0.33721 0.0
H2342 H 0.20758 0.60509 0.35346 0.0
H2343 H 0.16268 0.61244 0.37508 0.0
S2344 S 0.12207 0.49907 0.2627 0.0
N2345 N 0.15765 0.5145 0.2689 0.0
N2346 N 0.10897 0.52304 0.29239 0.0
C2347 C 0.13389 0.5453 0.30872 0.0
C2348 C 0.16024 0.5406 0.29621 0.0
C2349 C 0.86083 0.84576 0.64679 0.0
C2350 C 0.83918 0.86129 0.63617 0.0
C2351 C 0.86024 0.8337 0.67671 0.0
C2352 C 0.8377 0.83607 0.69689 0.0
H2353 H 0.87881 0.84366 0.63238 0.0
H2354 H 0.87758 0.82237 0.68406 0.0
S2355 S 0.77572 0.87424 0.68072 0.0
N2356 N 0.79433 0.87799 0.64862 0.0
N2357 N 0.79346 0.85535 0.70445 0.0
C2358 C 0.81574 0.85099 0.6864 0.0
C2359 C 0.81643 0.86358 0.6562 0.0
C2360 C 0.81245 0.5637 0.54143 0.0
C2361 C 0.81879 0.54849 0.56817 0.0
C2362 C 0.79209 0.58385 0.54305 0.0
C2363 C 0.77715 0.58918 0.5713 0.0
H2364 H 0.82292 0.55958 0.51878 0.0
H2365 H 0.78723 0.59431 0.52158 0.0
S2366 S 0.78663 0.55724 0.64886 0.0
N2367 N 0.80928 0.54205 0.6247 0.0
N2368 N 0.7707 0.57937 0.62711 0.0
C2369 C 0.78379 0.57515 0.59858 0.0
C2370 C 0.80474 0.55499 0.59721 0.0
C2371 C 0.19422 0.15056 0.5006 0.0
C2372 C 0.22045 0.14065 0.50612 0.0
C2373 C 0.16743 0.12977 0.50339 0.0
C2374 C 0.16566 0.09803 0.51137 0.0
H2375 H 0.19433 0.17499 0.4949 0.0
H2376 H 0.14793 0.13889 0.49982 0.0
S2377 S 0.22731 0.05978 0.52845 0.0
N2378 N 0.24257 0.09628 0.51971 0.0
N2379 N 0.19208 0.05768 0.52521 0.0
C2380 C 0.1914 0.08732 0.51625 0.0
C2381 C 0.21882 0.1085 0.51354 0.0
C2382 C 0.2762 0.9329 0.80027 0.0
C2383 C 0.26811 0.93769 0.76758 0.0
C2384 C 0.29196 0.90783 0.80593 0.0
C2385 C 0.30139 0.88541 0.77965 0.0
H2386 H 0.27027 0.94867 0.82202 0.0
H2387 H 0.29678 0.90591 0.83179 0.0
S2388 S 0.28518 0.88452 0.68871 0.0
N2389 N 0.27105 0.9153 0.70791 0.0
N2390 N 0.29934 0.86942 0.71891 0.0
C2391 C 0.29322 0.8895 0.74689 0.0
C2392 C 0.27726 0.91503 0.74095 0.0
C2393 C 0.48111 0.03706 0.06331 0.0
C2394 C 0.46775 1.00397 0.06547 0.0
C2395 C 0.51116 0.04691 0.06321 0.0
C2396 C 0.52874 1.02381 0.06427 0.0
H2397 H 0.46826 0.05537 0.06121 0.0
H2398 H 0.52053 0.07261 0.06186 0.0
S2399 S 0.50514 0.93515 0.0728 0.0
N2400 N 0.47493 0.9487 0.07114 0.0
N2401 N 0.53146 0.96758 0.07045 0.0
C2402 C 0.51605 0.99134 0.06832 0.0
C2403 C 0.48548 0.98124 0.06876 0.0
C2404 C 0.88763 0.62793 0.75966 0.0
C2405 C 0.91556 0.62836 0.75026 0.0
C2406 C 0.86711 0.63864 0.74055 0.0
C2407 C 0.87375 0.65045 0.71142 0.0
H2408 H 0.88116 0.61817 0.78132 0.0
H2409 H 0.84564 0.63691 0.74826 0.0
S2410 S 0.94494 0.66059 0.67837 0.0
N2411 N 0.94951 0.644 0.71136 0.0
N2412 N 0.91115 0.66491 0.6759 0.0
C2413 C 0.90199 0.65238 0.70255 0.0
C2414 C 0.92284 0.64121 0.72188 0.0
C2415 C 0.90393 0.65597 0.05298 0.0
C2416 C 0.87549 0.64326 0.03571 0.0
C2417 C 0.92109 0.63416 0.0604 0.0
C2418 C 0.91054 0.5987 0.05105 0.0
H2419 H 0.91308 0.68307 0.06115 0.0
H2420 H 0.94269 0.6452 0.07405 0.0
S2421 S 0.83835 0.55206 1.00387 0.0
N2422 N 0.83799 0.59252 1.00845 0.0
N2423 N 0.87044 0.55165 0.02238 0.0
C2424 C 0.88236 0.5855 0.03344 0.0
C2425 C 0.86483 0.60772 0.02573 0.0
C2426 C 0.24969 0.16028 0.759 0.0
C2427 C 0.25739 0.13882 0.77944 0.0
C2428 C 0.26614 0.1938 0.7614 0.0
C2429 C 0.29182 0.20879 0.78433 0.0
H2430 H 0.23036 0.15116 0.7406 0.0
H2431 H 0.25832 0.20807 0.74476 0.0
S2432 S 0.32127 0.16555 0.84615 0.0
N2433 N 0.29258 0.13647 0.82493 0.0
N2434 N 0.32311 0.19916 0.82975 0.0
C2435 C 0.29984 0.18791 0.80536 0.0
C2436 C 0.28292 0.15333 0.80283 0.0
C2437 C 0.42589 0.93151 0.28915 0.0
C2438 C 0.41307 0.9496 0.26884 0.0
C2439 C 0.41309 0.8976 0.28841 0.0
C2440 C 0.38684 0.88103 0.26787 0.0
H2441 H 0.44559 0.94386 0.30644 0.0
H2442 H 0.42327 0.88462 0.30475 0.0
S2443 S 0.34571 0.91527 0.20767 0.0
N2444 N 0.37356 0.94718 0.22574 0.0
N2445 N 0.34973 0.88322 0.22441 0.0
C2446 C 0.37462 0.89789 0.24603 0.0
C2447 C 0.38769 0.93234 0.24653 0.0
C2448 C 0.61174 0.43926 0.59565 0.0
C2449 C 0.6164 0.41471 0.56826 0.0
C2450 C 0.60645 0.47081 0.59156 0.0
C2451 C 0.60521 0.47985 0.55985 0.0
H2452 H 0.61209 0.4341 0.62065 0.0
H2453 H 0.60316 0.48846 0.61372 0.0
S2454 S 0.61811 0.42663 0.48001 0.0
N2455 N 0.62047 0.40313 0.50787 0.0
N2456 N 0.61129 0.46214 0.50091 0.0
C2457 C 0.6104 0.45603 0.53234 0.0
C2458 C 0.61566 0.42372 0.53635 0.0
C2459 C 0.42476 0.78855 0.39726 0.0
C2460 C 0.45249 0.78683 0.38778 0.0
C2461 C 0.40222 0.79243 0.37459 0.0
C2462 C 0.40619 0.79537 0.34129 0.0
H2463 H 0.42036 0.78695 0.42262 0.0
H2464 H 0.38136 0.79292 0.38327 0.0
S2465 S 0.47514 0.7955 0.30426 0.0
N2466 N 0.48262 0.78954 0.34255 0.0
N2467 N 0.4409 0.79824 0.30084 0.0
C2468 C 0.4338 0.79394 0.33149 0.0
C2469 C 0.4567 0.7894 0.35442 0.0
C2470 C 0.10195 0.69629 0.03246 0.0
C2471 C 0.11201 0.72059 0.06349 0.0
C2472 C 0.09538 0.66082 0.03065 0.0
C2473 C 0.09903 0.64791 0.05971 0.0
H2474 H 0.09836 0.70467 1.00933 0.0
H2475 H 0.0865 0.64351 1.00653 0.0
S2476 S 0.12635 0.6996 0.14674 0.0
N2477 N 0.12635 0.72808 0.12374 0.0
N2478 N 0.11427 0.66222 0.12018 0.0
C2479 C 0.10972 0.67175 0.09059 0.0
C2480 C 0.11627 0.70771 0.09252 0.0
C2481 C 0.14319 0.31366 0.89337 0.0
C2482 C 0.11414 0.29475 0.8838 0.0
C2483 C 0.16269 0.31742 0.86945 0.0
C2484 C 0.15406 0.3025 0.83484 0.0
H2485 H 0.15097 0.32623 0.91958 0.0
H2486 H 0.18453 0.33291 0.87809 0.0
S2487 S 0.08137 0.24793 0.79654 0.0
N2488 N 0.07833 0.25931 0.83716 0.0
N2489 N 0.11502 0.2661 0.79243 0.0
C2490 C 0.12536 0.28275 0.82496 0.0
C2491 C 0.10544 0.27893 0.84932 0.0
C2492 C 0.65058 0.8054 0.02341 0.0
C2493 C 0.63805 0.79906 0.98945 0.0
C2494 C 0.63758 0.78722 0.04596 0.0
C2495 C 0.61157 0.76213 0.03537 0.0
H2496 H 0.6709 0.82411 0.03258 0.0
H2497 H 0.64853 0.79192 0.07144 0.0
S2498 S 0.56817 0.73817 0.95054 0.0
N2499 N 0.59682 0.76745 0.94727 0.0
N2500 N 0.57246 0.73361 0.98979 0.0
C2501 C 0.59818 0.75648 1.002 0.0
C2502 C 0.61141 0.77482 0.979 0.0
C2503 C 0.11704 0.76396 0.77424 0.0
C2504 C 0.11031 0.75872 0.73899 0.0
C2505 C 0.14064 0.75353 0.78811 0.0
C2506 C 0.15798 0.73734 0.76709 0.0
H2507 H 0.10462 0.77716 0.7912 0.0
H2508 H 0.14614 0.75949 0.81534 0.0
S2509 S 0.14668 0.71272 0.6734 0.0
N2510 N 0.12096 0.73273 0.68347 0.0
N2511 N 0.16516 0.71329 0.70968 0.0
C2512 C 0.15045 0.73021 0.73192 0.0
C2513 C 0.12665 0.74089 0.71781 0.0
C2514 C 0.13455 0.47057 0.43299 0.0
C2515 C 0.13805 0.44028 0.44124 0.0
C2516 C 0.12136 0.49258 0.45377 0.0
C2517 C 0.11103 0.48499 0.48334 0.0
H2518 H 0.1423 0.47749 0.4105 0.0
H2519 H 0.12024 0.5163 0.44722 0.0
S2520 S 0.11116 0.40688 0.51383 0.0
N2521 N 0.12795 0.40255 0.47983 0.0
N2522 N 0.10253 0.44393 0.51818 0.0
C2523 C 0.11349 0.45442 0.49138 0.0
C2524 C 0.12717 0.43204 0.47047 0.0
C2525 C 0.4325 0.23634 0.23958 0.0
C2526 C 0.4326 0.24253 0.20688 0.0
C2527 C 0.40899 0.23965 0.25775 0.0
C2528 C 0.3855 0.25043 0.24418 0.0
H2529 H 0.45116 0.23017 0.25166 0.0
H2530 H 0.40998 0.23572 0.28326 0.0
S2531 S 0.37312 0.26362 0.15738 0.0
N2532 N 0.40545 0.25507 0.15998 0.0
N2533 N 0.36161 0.26181 0.19427 0.0
C2534 C 0.38435 0.25392 0.21055 0.0
C2535 C 0.40791 0.2499 0.19185 0.0
C2536 C 0.62413 0.4971 0.37636 0.0
C2537 C 0.64968 0.5183 0.36909 0.0
C2538 C 0.61172 0.50414 0.4072 0.0
C2539 C 0.62369 0.53302 0.43393 0.0
H2540 H 0.61326 0.47416 0.3578 0.0
H2541 H 0.59246 0.48612 0.41017 0.0
S2542 S 0.69083 0.59769 0.42987 0.0
N2543 N 0.68647 0.5703 0.393 0.0
N2544 N 0.66378 0.58331 0.45015 0.0
C2545 C 0.64936 0.55462 0.42728 0.0
C2546 C 0.662 0.54747 0.39549 0.0
C2547 C 0.3437 0.86068 0.04783 0.0
C2548 C 0.35404 0.89482 0.06562 0.0
C2549 C 0.34979 0.83412 0.06143 0.0
C2550 C 0.36636 0.8409 0.0932 0.0
H2551 H 0.33113 0.85435 0.02303 0.0
H2552 H 0.34101 0.80814 0.04739 0.0
S2553 S 0.39934 0.92518 0.14967 0.0
N2554 N 0.38208 0.93355 0.11681 0.0
N2555 N 0.39351 0.88342 0.14189 0.0
C2556 C 0.37696 0.87465 0.11117 0.0
C2557 C 0.37078 0.90168 0.09752 0.0
C2558 C 1.00614 0.59411 0.92314 0.0
C2559 C 0.98185 0.56685 0.90966 0.0
C2560 C 0.02938 0.59021 0.94436 0.0
C2561 C 0.02906 0.55893 0.95277 0.0
H2562 H 1.00722 0.61864 0.91724 0.0
H2563 H 0.04726 0.61202 0.95492 0.0
S2564 S 0.97265 0.47866 0.92123 0.0
N2565 N 0.96038 0.50677 0.90443 0.0
N2566 N 1.00392 0.49967 0.94399 0.0
C2567 C 1.00545 0.53132 0.93872 0.0
C2568 C 0.98183 0.53523 0.91733 0.0
C2569 C 0.3187 0.2355 0.63534 0.0
C2570 C 0.3206 0.26204 0.61821 0.0
C2571 C 0.32366 0.24199 0.6707 0.0
C2572 C 0.33041 0.27526 0.6908 0.0
H2573 H 0.31347 0.20927 0.62134 0.0
H2574 H 0.32217 0.22061 0.68251 0.0
S2575 S 0.34006 0.3542 0.65921 0.0
N2576 N 0.33073 0.32338 0.62457 0.0
N2577 N 0.34066 0.33533 0.69115 0.0
C2578 C 0.33279 0.30221 0.67432 0.0
C2579 C 0.32758 0.29564 0.63806 0.0
C2580 C 0.66483 0.52928 0.15238 0.0
C2581 C 0.64653 0.52416 0.17762 0.0
C2582 C 0.65433 0.53362 0.11981 0.0
C2583 C 0.62476 0.53331 0.1097 0.0
H2584 H 0.68778 0.5307 0.158 0.0
H2585 H 0.6699 0.5375 0.10215 0.0
S2586 S 0.56639 0.51708 0.16384 0.0
N2587 N 0.59599 0.51702 0.18804 0.0
N2588 N 0.57702 0.52417 0.12783 0.0
C2589 C 0.60604 0.52706 0.13412 0.0
C2590 C 0.61667 0.52291 0.16742 0.0
C2591 C 0.37386 0.92493 0.91613 0.0
C2592 C 0.37929 0.91217 0.94473 0.0
C2593 C 0.36947 0.90406 0.88358 0.0
C2594 C 0.36995 0.86951 0.87837 0.0
H2595 H 0.37322 0.95133 0.91887 0.0
H2596 H 0.36515 0.91508 0.8624 0.0
S2597 S 0.38241 0.82338 0.94497 0.0
N2598 N 0.38439 0.86261 0.96594 0.0
N2599 N 0.37602 0.82337 0.90453 0.0
C2600 C 0.3751 0.8563 0.90675 0.0
C2601 C 0.37986 0.87765 0.93998 0.0
C2602 C 0.0644 0.58529 0.80184 0.0
C2603 C 0.03561 0.56589 0.79269 0.0
C2604 C 0.08621 0.57827 0.78223 0.0
C2605 C 0.07979 0.55139 0.75336 0.0
H2606 H 0.06971 0.6073 0.82288 0.0
H2607 H 0.10756 0.59548 0.78818 0.0
S2608 S 1.00947 0.48834 0.72373 0.0
N2609 N 1.00295 0.51543 0.7564 0.0
N2610 N 0.04414 0.5019 0.72002 0.0
C2611 C 0.05186 0.52968 0.74625 0.0
C2612 C 0.02964 0.53708 0.76578 0.0
C2613 C 0.33516 0.27872 0.43354 0.0
C2614 C 0.33149 0.24511 0.43734 0.0
C2615 C 0.33741 0.28669 0.40183 0.0
C2616 C 0.33629 0.2615 0.37227 0.0
H2617 H 0.33588 0.29917 0.45522 0.0
H2618 H 0.3396 0.31296 0.40053 0.0
S2619 S 0.33005 0.16992 0.36869 0.0
N2620 N 0.32851 0.18652 0.40882 0.0
N2621 N 0.33362 0.20173 0.3495 0.0
C2622 C 0.3335 0.22788 0.37579 0.0
C2623 C 0.33086 0.21964 0.40814 0.0
C2624 C 0.36796 0.58219 0.47657 0.0
C2625 C 0.38013 0.61749 0.48494 0.0
C2626 C 0.38517 0.55892 0.4681 0.0
C2627 C 0.41527 0.56999 0.46803 0.0
H2628 H 0.34495 0.57233 0.47677 0.0
H2629 H 0.37496 0.53201 0.46242 0.0
S2630 S 0.45784 0.65931 0.48583 0.0
N2631 N 0.42426 0.66222 0.49097 0.0
N2632 N 0.45644 0.61826 0.47524 0.0
C2633 C 0.4277 0.60507 0.47557 0.0
C2634 C 0.41018 0.62886 0.48394 0.0
C2635 C 0.96092 0.95848 0.53776 0.0
C2636 C 0.95046 0.96691 0.56897 0.0
C2637 C 0.98793 0.97604 0.53175 0.0
C2638 C 1.00588 1.00296 0.55659 0.0
H2639 H 0.94793 0.93843 0.51737 0.0
H2640 H 0.99454 0.96835 0.50714 0.0
S2641 S 0.99033 0.03234 0.64428 0.0
N2642 N 0.96116 1.00237 0.6261 0.0
N2643 N 1.01231 0.03495 0.61502 0.0
C2644 C 0.99621 1.0109 0.58845 0.0
C2645 C 0.96846 0.99305 0.59454 0.0
C2646 C 0.89936 0.19383 0.31882 0.0
C2647 C 0.91002 0.17231 0.29276 0.0
C2648 C 0.88487 0.21999 0.31333 0.0
C2649 C 0.87936 0.22685 0.28101 0.0
H2650 H 0.9024 0.1907 0.34449 0.0
H2651 H 0.87814 0.23516 0.33488 0.0
S2652 S 0.90119 0.17874 0.2029 0.0
N2653 N 0.91269 0.16094 0.2325 0.0
N2654 N 0.88611 0.20859 0.22217 0.0
C2655 C 0.88973 0.20554 0.25469 0.0
C2656 C 0.90454 0.17896 0.26035 0.0
C2657 C 0.70398 0.09909 1.01357 0.0
C2658 C 0.71665 0.13295 1.0132 0.0
C2659 C 0.67395 0.08797 1.01307 0.0
C2660 C 0.65563 0.11039 1.01252 0.0
H2661 H 0.71736 0.08116 0.01489 0.0
H2662 H 0.66518 0.06168 1.01307 0.0
S2663 S 0.67713 0.20036 1.00759 0.0
N2664 N 0.70795 0.1881 1.00938 0.0
N2665 N 0.65146 0.16674 1.0085 0.0
C2666 C 0.66764 0.14366 1.01024 0.0
C2667 C 0.69822 0.15515 1.01087 0.0
C2668 C 0.31439 0.51962 0.28735 0.0
C2669 C 0.29478 0.49766 0.26011 0.0
C2670 C 0.3313 0.507 0.30888 0.0
C2671 C 0.32939 0.47199 0.30394 0.0
H2672 H 0.31561 0.54666 0.29333 0.0
H2673 H 0.34538 0.52478 0.33017 0.0
S2674 S 0.28545 0.40478 0.23206 0.0
N2675 N 0.2774 0.44016 0.22627 0.0
N2676 N 0.30886 0.4159 0.26699 0.0
C2677 C 0.31151 0.45 0.27516 0.0
C2678 C 0.29426 0.46299 0.25321 0.0
C2679 C 0.29652 0.48546 0.03225 0.0
C2680 C 0.28524 0.45001 0.02238 0.0
C2681 C 0.2801 0.50823 0.02505 0.0
C2682 C 0.2516 0.49657 1.00793 0.0
H2683 H 0.31838 0.49584 0.04535 0.0
H2684 H 0.28977 0.53523 0.03313 0.0
S2685 S 0.21175 0.40646 0.97604 0.0
N2686 N 0.24346 0.40452 0.99426 0.0
N2687 N 0.21292 0.44729 0.98077 0.0
C2688 C 0.23994 0.46129 0.99808 0.0
C2689 C 0.25665 0.43806 1.00526 0.0
C2690 C 0.92379 0.94695 0.30191 0.0
C2691 C 0.91586 0.9695 0.28295 0.0
C2692 C 0.90656 0.91382 0.29963 0.0
C2693 C 0.87984 0.90037 0.27827 0.0
H2694 H 0.94392 0.95484 0.31901 0.0
H2695 H 0.91461 0.89857 0.31506 0.0
S2696 S 0.84876 0.94729 0.22132 0.0
N2697 N 0.87896 0.97478 0.24095 0.0
N2698 N 0.8469 0.91288 0.2364 0.0
C2699 C 0.87144 0.92247 0.25892 0.0
C2700 C 0.88917 0.95662 0.26132 0.0
C2701 C 0.78618 0.18583 0.80532 0.0
C2702 C 0.76389 0.17637 0.77773 0.0
C2703 C 0.80429 0.21859 0.8143 0.0
C2704 C 0.80113 0.24281 0.79565 0.0
H2705 H 0.7901 0.16767 0.81977 0.0
H2706 H 0.82146 0.22471 0.83533 0.0
S2707 S 0.74297 0.23306 0.72545 0.0
N2708 N 0.73744 0.19543 0.73469 0.0
N2709 N 0.77152 0.25692 0.75179 0.0
C2710 C 0.77783 0.23448 0.76954 0.0
C2711 C 0.75928 0.20119 0.76041 0.0
loop_
_geom_bond_atom_site_label_1
_geom_bond_atom_site_label_2
_geom_bond_distance
_geom_bond_site_symmetry_2
_ccdc_geom_bond_type
C0 O1 1.160 . S
C0 O7 1.185 . S
O1 C0 1.160 . S
O2 Zn3 1.899 . S
O2 C10 1.284 . S
Zn3 O2 1.899 . S
Zn3 O4 2.032 . S
Zn3 O7 2.086 . S
Zn3 O12 1.977 . S
O4 Zn3 2.032 . S
O4 C8 1.278 . S
C5 O6 1.203 . S
C5 O12 1.267 . S
O6 C5 1.203 . S
O7 C0 1.185 . S
O7 Zn3 2.086 . S
C8 O4 1.278 . S
C8 O9 1.211 . S
O9 C8 1.211 . S
C10 O2 1.284 . S
C10 O11 1.273 . S
O11 C10 1.273 . S
O12 Zn3 1.977 . S
O12 C5 1.267 . S
C13 O14 1.160 . S
C13 O20 1.185 . S
O14 C13 1.160 . S
O15 Zn16 1.899 . S
O15 C23 1.284 . S
Zn16 O15 1.899 . S
Zn16 O17 2.032 . S
Zn16 O20 2.086 . S
Zn16 O25 1.977 1_655 S
O17 Zn16 2.032 . S
O17 C21 1.278 1_655 S
C18 O19 1.203 . S
C18 O25 1.267 . S
O19 C18 1.203 . S
O20 C13 1.185 . S
O20 Zn16 2.086 . S
C21 O17 1.278 1_455 S
C21 O22 1.211 . S
O22 C21 1.211 . S
C23 O15 1.284 . S
C23 O24 1.273 1_655 S
O24 C23 1.273 1_455 S
O25 Zn16 1.977 1_455 S
O25 C18 1.267 . S
C26 O27 1.160 . S
C26 O33 1.185 . S
O27 C26 1.160 . S
O28 Zn29 1.899 . S
O28 C36 1.284 . S
Zn29 O28 1.899 . S
Zn29 O30 2.032 . S
Zn29 O33 2.086 . S
Zn29 O38 1.977 . S
O30 Zn29 2.032 . S
O30 C34 1.278 . S
C31 O32 1.203 . S
C31 O38 1.267 . S
O32 C31 1.203 . S
O33 C26 1.185 . S
O33 Zn29 2.086 . S
C34 O30 1.278 . S
C34 O35 1.211 . S
O35 C34 1.211 . S
C36 O28 1.284 . S
C36 O37 1.273 . S
O37 C36 1.273 . S
O38 Zn29 1.977 . S
O38 C31 1.267 . S
C39 O40 1.160 . S
C39 O46 1.185 . S
O40 C39 1.160 . S
O41 Zn42 1.899 . S
O41 C49 1.284 . S
Zn42 O41 1.899 . S
Zn42 O43 2.032 . S
Zn42 O46 2.086 . S
Zn42 O51 1.977 . S
O43 Zn42 2.032 . S
O43 C47 1.278 . S
C44 O45 1.203 . S
C44 O51 1.267 . S
O45 C44 1.203 . S
O46 C39 1.185 . S
O46 Zn42 2.086 . S
C47 O43 1.278 . S
C47 O48 1.211 . S
O48 C47 1.211 . S
C49 O41 1.284 . S
C49 O50 1.273 . S
O50 C49 1.273 . S
O51 Zn42 1.977 . S
O51 C44 1.267 . S
C52 O53 1.160 . S
C52 O59 1.185 . S
O53 C52 1.160 . S
O54 Zn55 1.899 . S
O54 C62 1.284 . S
Zn55 O54 1.899 . S
Zn55 O56 2.032 . S
Zn55 O59 2.086 . S
Zn55 O64 1.977 . S
O56 Zn55 2.032 . S
O56 C60 1.278 . S
C57 O58 1.203 . S
C57 O64 1.267 . S
O58 C57 1.203 . S
O59 C52 1.185 . S
O59 Zn55 2.086 . S
C60 O56 1.278 . S
C60 O61 1.211 . S
O61 C60 1.211 . S
C62 O54 1.284 . S
C62 O63 1.273 . S
O63 C62 1.273 . S
O64 Zn55 1.977 . S
O64 C57 1.267 . S
C65 O66 1.160 . S
C65 O72 1.185 . S
O66 C65 1.160 . S
O67 Zn68 1.899 . S
O67 C75 1.284 . S
Zn68 O67 1.899 . S
Zn68 O69 2.032 . S
Zn68 O72 2.086 . S
Zn68 O77 1.977 . S
O69 Zn68 2.032 . S
O69 C73 1.278 . S
C70 O71 1.203 . S
C70 O77 1.267 . S
O71 C70 1.203 . S
O72 C65 1.185 . S
O72 Zn68 2.086 . S
C73 O69 1.278 . S
C73 O74 1.211 . S
O74 C73 1.211 . S
C75 O67 1.284 . S
C75 O76 1.273 . S
O76 C75 1.273 . S
O77 Zn68 1.977 . S
O77 C70 1.267 . S
C78 O79 1.160 . S
C78 O85 1.185 . S
O79 C78 1.160 . S
O80 Zn81 1.899 . S
O80 C88 1.284 . S
Zn81 O80 1.899 . S
Zn81 O82 2.032 . S
Zn81 O85 2.086 . S
Zn81 O90 1.977 . S
O82 Zn81 2.032 . S
O82 C86 1.278 . S
C83 O84 1.203 . S
C83 O90 1.267 . S
O84 C83 1.203 . S
O85 C78 1.185 . S
O85 Zn81 2.086 . S
C86 O82 1.278 . S
C86 O87 1.211 . S
O87 C86 1.211 . S
C88 O80 1.284 . S
C88 O89 1.273 . S
O89 C88 1.273 . S
O90 Zn81 1.977 . S
O90 C83 1.267 . S
C91 O92 1.160 . S
C91 O98 1.185 . S
O92 C91 1.160 . S
O93 Zn94 1.899 . S
O93 C101 1.284 . S
Zn94 O93 1.899 . S
Zn94 O95 2.032 . S
Zn94 O98 2.086 . S
Zn94 O103 1.977 1_455 S
O95 Zn94 2.032 . S
O95 C99 1.278 . S
C96 O97 1.203 . S
C96 O103 1.267 . S
O97 C96 1.203 . S
O98 C91 1.185 . S
O98 Zn94 2.086 . S
C99 O95 1.278 . S
C99 O100 1.211 . S
O100 C99 1.211 . S
C101 O93 1.284 . S
C101 O102 1.284 . S
O102 C101 1.284 . S
O103 Zn94 1.977 1_655 S
O103 C96 1.267 . S
C104 O105 1.160 . S
C104 O111 1.185 . S
O105 C104 1.160 . S
O106 Zn107 1.899 . S
O106 C114 1.279 1_545 S
Zn107 O106 1.899 . S
Zn107 O108 2.032 . S
Zn107 O111 2.086 . S
Zn107 O116 1.977 1_545 S
O108 Zn107 2.032 . S
O108 C112 1.278 . S
C109 O110 1.203 . S
C109 O116 1.267 . S
O110 C109 1.203 . S
O111 C104 1.185 . S
O111 Zn107 2.086 . S
C112 O108 1.278 . S
C112 O113 1.211 1_545 S
O113 C112 1.211 1_565 S
C114 O106 1.279 1_565 S
C114 O115 1.281 . S
O115 C114 1.281 . S
O116 Zn107 1.977 1_565 S
O116 C109 1.267 . S
C117 O118 1.160 . S
C117 O124 1.185 . S
O118 C117 1.160 . S
O119 Zn120 1.899 . S
O119 C127 1.284 . S
Zn120 O119 1.899 . S
Zn120 O121 2.032 . S
Zn120 O124 2.086 . S
Zn120 O129 1.977 . S
O121 Zn120 2.032 . S
O121 C125 1.278 . S
C122 O123 1.203 . S
C122 O129 1.267 . S
O123 C122 1.203 . S
O124 C117 1.185 . S
O124 Zn120 2.086 . S
C125 O121 1.278 . S
C125 O126 1.211 . S
O126 C125 1.211 . S
C127 O119 1.284 . S
C127 O128 1.273 . S
O128 C127 1.273 . S
O129 Zn120 1.977 . S
O129 C122 1.267 . S
C130 O131 1.160 . S
C130 O137 1.185 . S
O131 C130 1.160 . S
O132 Zn133 1.899 . S
O132 C140 1.284 . S
Zn133 O132 1.899 . S
Zn133 O134 2.032 . S
Zn133 O137 2.086 . S
Zn133 O142 1.977 1_565 S
O134 Zn133 2.032 . S
O134 C138 1.278 1_565 S
C135 O136 1.203 . S
C135 O142 1.267 . S
O136 C135 1.203 . S
O137 C130 1.185 . S
O137 Zn133 2.086 . S
C138 O134 1.278 1_545 S
C138 O139 1.211 . S
O139 C138 1.211 . S
C140 O132 1.284 . S
C140 O141 1.273 1_565 S
O141 C140 1.273 1_545 S
O142 Zn133 1.977 1_545 S
O142 C135 1.267 . S
C143 O144 1.160 . S
C143 O150 1.185 . S
O144 C143 1.160 . S
O145 Zn146 1.899 . S
O145 C153 1.284 . S
Zn146 O145 1.899 . S
Zn146 O147 2.032 1_554 S
Zn146 O150 2.086 . S
Zn146 O155 1.977 . S
O147 Zn146 2.032 1_556 S
O147 C151 1.278 . S
C148 O149 1.203 . S
C148 O155 1.267 . S
O149 C148 1.203 . S
O150 C143 1.185 . S
O150 Zn146 2.086 . S
C151 O147 1.278 . S
C151 O152 1.211 . S
O152 C151 1.211 . S
C153 O145 1.284 . S
C153 O154 1.273 . S
O154 C153 1.273 . S
O155 Zn146 1.977 . S
O155 C148 1.267 . S
C156 O157 1.160 . S
C156 O163 1.185 . S
O157 C156 1.160 . S
O158 Zn159 1.899 . S
O158 C166 1.284 . S
Zn159 O158 1.899 . S
Zn159 O160 2.032 . S
Zn159 O163 2.086 . S
Zn159 O168 1.977 . S
O160 Zn159 2.032 . S
O160 C164 1.278 1_554 S
C161 O162 1.203 . S
C161 O168 1.267 . S
O162 C161 1.203 . S
O163 C156 1.185 . S
O163 Zn159 2.086 . S
C164 O160 1.278 1_556 S
C164 O165 1.211 . S
O165 C164 1.211 . S
C166 O158 1.284 . S
C166 O167 1.273 . S
O167 C166 1.273 . S
O168 Zn159 1.977 . S
O168 C161 1.267 . S
C169 O170 1.160 . S
C169 O176 1.185 . S
O170 C169 1.160 . S
O171 Zn172 1.899 . S
O171 C179 1.284 . S
Zn172 O171 1.899 . S
Zn172 O173 2.032 . S
Zn172 O176 2.086 . S
Zn172 O181 1.977 . S
O173 Zn172 2.032 . S
O173 C177 1.278 1_554 S
C174 O175 1.203 . S
C174 O181 1.267 . S
O175 C174 1.203 . S
O176 C169 1.185 . S
O176 Zn172 2.086 . S
C177 O173 1.278 1_556 S
C177 O178 1.211 . S
O178 C177 1.211 . S
C179 O171 1.284 . S
C179 O180 1.273 . S
O180 C179 1.273 . S
O181 Zn172 1.977 . S
O181 C174 1.267 . S
C182 O183 1.160 . S
C182 O189 1.185 . S
O183 C182 1.160 . S
O184 Zn185 1.899 . S
O184 C192 1.284 . S
Zn185 O184 1.899 . S
Zn185 O186 2.032 . S
Zn185 O189 2.086 . S
Zn185 O194 1.977 . S
O186 Zn185 2.032 . S
O186 C190 1.278 . S
C187 O188 1.203 . S
C187 O194 1.267 . S
O188 C187 1.203 . S
O189 C182 1.185 . S
O189 Zn185 2.086 . S
C190 O186 1.278 . S
C190 O191 1.211 . S
O191 C190 1.211 . S
C192 O184 1.284 . S
C192 O193 1.273 . S
O193 C192 1.273 . S
O194 Zn185 1.977 . S
O194 C187 1.267 . S
C195 O196 1.160 . S
C195 O202 1.185 . S
O196 C195 1.160 . S
O197 Zn198 1.899 . S
O197 C205 1.284 . S
Zn198 O197 1.899 . S
Zn198 O199 2.032 . S
Zn198 O202 2.086 . S
Zn198 O207 1.977 . S
O199 Zn198 2.032 . S
O199 C203 1.278 . S
C200 O201 1.203 . S
C200 O207 1.267 . S
O201 C200 1.203 . S
O202 C195 1.185 . S
O202 Zn198 2.086 . S
C203 O199 1.278 . S
C203 O204 1.211 . S
O204 C203 1.211 . S
C205 O197 1.284 . S
C205 O206 1.273 . S
O206 C205 1.273 . S
O207 Zn198 1.977 . S
O207 C200 1.267 . S
C208 O209 1.160 . S
C208 O215 1.185 . S
O209 C208 1.160 . S
O210 Zn211 1.899 . S
O210 C218 1.284 . S
Zn211 O210 1.899 . S
Zn211 O212 2.032 . S
Zn211 O215 2.086 . S
Zn211 O220 1.977 . S
O212 Zn211 2.032 . S
O212 C216 1.278 . S
C213 O214 1.196 1_545 S
C213 O220 1.290 . S
O214 C213 1.196 1_565 S
O215 C208 1.185 . S
O215 Zn211 2.086 . S
C216 O212 1.278 . S
C216 O217 1.211 . S
O217 C216 1.211 . S
C218 O210 1.284 . S
C218 O219 1.273 1_655 S
O219 C218 1.273 1_455 S
O220 Zn211 1.977 . S
O220 C213 1.290 . S
C221 O222 1.160 . S
C221 O228 1.185 . S
O222 C221 1.160 . S
O223 Zn224 1.899 . S
O223 C231 1.284 . S
Zn224 O223 1.899 . S
Zn224 O225 2.032 . S
Zn224 O228 2.086 . S
Zn224 O233 1.977 . S
O225 Zn224 2.032 . S
O225 C229 1.278 . S
C226 O227 1.203 . S
C226 O233 1.267 . S
O227 C226 1.203 . S
O228 C221 1.185 . S
O228 Zn224 2.086 . S
C229 O225 1.278 . S
C229 O230 1.211 . S
O230 C229 1.211 . S
C231 O223 1.284 . S
C231 O232 1.273 . S
O232 C231 1.273 . S
O233 Zn224 1.977 . S
O233 C226 1.267 . S
C234 O235 1.160 . S
C234 O241 1.185 . S
O235 C234 1.160 . S
O236 Zn237 1.899 . S
O236 C244 1.284 . S
Zn237 O236 1.899 . S
Zn237 O238 2.032 . S
Zn237 O241 2.086 . S
Zn237 O246 1.977 . S
O238 Zn237 2.032 . S
O238 C242 1.278 . S
C239 O240 1.203 . S
C239 O246 1.267 . S
O240 C239 1.203 . S
O241 C234 1.185 . S
O241 Zn237 2.086 . S
C242 O238 1.278 . S
C242 O243 1.211 . S
O243 C242 1.211 . S
C244 O236 1.284 . S
C244 O245 1.273 . S
O245 C244 1.273 . S
O246 Zn237 1.977 . S
O246 C239 1.267 . S
C247 O248 1.160 1_545 S
C247 O254 1.185 . S
O248 C247 1.160 1_565 S
O249 Zn250 1.899 . S
O249 C257 1.284 . S
Zn250 O249 1.899 . S
Zn250 O251 2.032 . S
Zn250 O254 2.086 . S
Zn250 O259 1.977 . S
O251 Zn250 2.032 . S
O251 C255 1.278 . S
C252 O253 1.203 . S
C252 O259 1.267 . S
O253 C252 1.203 . S
O254 C247 1.185 . S
O254 Zn250 2.086 . S
C255 O251 1.278 . S
C255 O256 1.211 . S
O256 C255 1.211 . S
C257 O249 1.284 . S
C257 O258 1.273 . S
O258 C257 1.273 . S
O259 Zn250 1.977 . S
O259 C252 1.267 . S
C260 O261 1.160 . S
C260 O267 1.185 1_554 S
O261 C260 1.160 . S
O262 Zn263 1.899 . S
O262 C270 1.284 . S
Zn263 O262 1.899 . S
Zn263 O264 2.032 1_554 S
Zn263 O267 2.086 1_554 S
Zn263 O272 1.977 1_554 S
O264 Zn263 2.032 1_556 S
O264 C268 1.278 . S
C265 O266 1.203 1_556 S
C265 O272 1.267 . S
O266 C265 1.203 1_554 S
O267 C260 1.185 1_556 S
O267 Zn263 2.086 1_556 S
C268 O264 1.278 . S
C268 O269 1.211 . S
O269 C268 1.211 . S
C270 O262 1.284 . S
C270 O271 1.273 . S
O271 C270 1.273 . S
O272 Zn263 1.977 1_556 S
O272 C265 1.267 . S
C273 O274 1.160 . S
C273 O280 1.185 . S
O274 C273 1.160 . S
O275 Zn276 1.899 . S
O275 C283 1.284 . S
Zn276 O275 1.899 . S
Zn276 O277 2.032 . S
Zn276 O280 2.086 . S
Zn276 O285 1.977 . S
O277 Zn276 2.032 . S
O277 C281 1.278 . S
C278 O279 1.203 . S
C278 O285 1.267 . S
O279 C278 1.203 . S
O280 C273 1.185 . S
O280 Zn276 2.086 . S
C281 O277 1.278 . S
C281 O282 1.211 . S
O282 C281 1.211 . S
C283 O275 1.284 . S
C283 O284 1.273 . S
O284 C283 1.273 . S
O285 Zn276 1.977 . S
O285 C278 1.267 . S
C286 O287 1.160 . S
C286 O293 1.185 . S
O287 C286 1.160 . S
O288 Zn289 1.899 . S
O288 C296 1.284 . S
Zn289 O288 1.899 . S
Zn289 O290 2.032 . S
Zn289 O293 2.086 . S
Zn289 O298 1.977 . S
O290 Zn289 2.032 . S
O290 C294 1.278 . S
C291 O292 1.203 . S
C291 O298 1.267 . S
O292 C291 1.203 . S
O293 C286 1.185 . S
O293 Zn289 2.086 . S
C294 O290 1.278 . S
C294 O295 1.211 . S
O295 C294 1.211 . S
C296 O288 1.284 . S
C296 O297 1.273 . S
O297 C296 1.273 . S
O298 Zn289 1.977 . S
O298 C291 1.267 . S
C299 O300 1.160 . S
C299 O306 1.185 . S
O300 C299 1.160 . S
O301 Zn302 1.899 . S
O301 C309 1.284 . S
Zn302 O301 1.899 . S
Zn302 O303 2.032 . S
Zn302 O306 2.086 . S
Zn302 O311 1.977 . S
O303 Zn302 2.032 . S
O303 C307 1.278 . S
C304 O305 1.203 . S
C304 O311 1.267 . S
O305 C304 1.203 . S
O306 C299 1.185 . S
O306 Zn302 2.086 . S
C307 O303 1.278 . S
C307 O308 1.211 . S
O308 C307 1.211 . S
C309 O301 1.284 . S
C309 O310 1.273 . S
O310 C309 1.273 . S
O311 Zn302 1.977 . S
O311 C304 1.267 . S
Tb312 N343 2.660 1_546 S
Tb312 N350 2.600 1_545 S
Tb312 O356 2.546 1_455 S
Tb312 O357 2.610 1_556 S
Tb312 O359 2.320 1_556 S
Tb312 O360 2.552 . S
Tb312 O361 2.413 1_456 S
Tb312 O363 2.362 1_546 S
Tb312 O364 2.421 . S
Tb312 C376 2.833 1_455 S
C313 C316 1.432 . S
C313 C317 1.414 . S
C313 N320 1.359 . S
C314 C316 1.417 . S
C314 C318 1.432 . S
C314 C326 1.410 1_554 S
C315 C317 1.444 . S
C315 C318 1.317 . S
C315 H338 0.929 . S
C316 C313 1.432 . S
C316 C314 1.417 . S
C316 N324 1.360 . S
C317 C313 1.414 . S
C317 C315 1.444 . S
C317 C322 1.385 . S
C318 C314 1.432 . S
C318 C315 1.317 . S
C318 H330 0.930 . S
C319 C321 1.392 . S
C319 C322 1.370 . S
C319 H331 0.931 . S
N320 C313 1.359 . S
N320 C321 1.327 . S
N320 Tb323 2.600 . S
C321 C319 1.392 . S
C321 N320 1.327 . S
C321 H328 0.930 . S
C322 C317 1.385 . S
C322 C319 1.370 . S
C322 H341 0.930 . S
Tb323 N320 2.600 . S
Tb323 N324 2.660 . S
Tb323 O357 2.362 . S
Tb323 O358 2.421 . S
Tb323 O362 2.546 . S
Tb323 O363 2.610 1_545 S
Tb323 O365 2.320 1_554 S
Tb323 O366 2.552 1_545 S
Tb323 O367 2.413 . S
Tb323 C387 2.833 . S
N324 C316 1.360 . S
N324 Tb323 2.660 . S
N324 C325 1.305 1_554 S
C325 N324 1.305 1_556 S
C325 C327 1.407 . S
C325 H332 0.930 . S
C326 C314 1.410 1_556 S
C326 C327 1.345 . S
C326 H334 0.930 . S
C327 C325 1.407 . S
C327 C326 1.345 . S
C327 H329 0.930 . S
H328 C321 0.930 . S
H329 C327 0.930 . S
H330 C318 0.930 . S
H331 C319 0.931 . S
H332 C325 0.930 . S
H333 C347 0.930 . S
H334 C326 0.930 . S
H335 C353 0.930 . S
H336 C344 0.930 . S
H337 C351 0.931 . S
H338 C315 0.929 . S
H339 C345 0.930 . S
H340 C378 0.930 . S
H341 C322 0.930 . S
H342 C377 0.929 . S
N343 Tb312 2.660 1_564 S
N343 C344 1.305 . S
N343 C348 1.360 1_454 S
C344 H336 0.930 . S
C344 N343 1.305 . S
C344 C347 1.407 1_455 S
C345 H339 0.930 . S
C345 C346 1.410 . S
C345 C347 1.345 . S
C346 C345 1.410 . S
C346 C348 1.417 1_554 S
C346 C378 1.432 1_554 S
C347 H333 0.930 . S
C347 C344 1.407 1_655 S
C347 C345 1.345 . S
C348 N343 1.360 1_656 S
C348 C346 1.417 1_556 S
C348 C352 1.432 . S
H349 C354 0.930 . S
N350 Tb312 2.600 1_565 S
N350 C352 1.359 1_455 S
N350 C353 1.327 . S
C351 H337 0.931 . S
C351 C353 1.392 1_655 S
C351 C354 1.370 . S
C352 C348 1.432 . S
C352 N350 1.359 1_655 S
C352 C355 1.414 . S
C353 H335 0.930 . S
C353 N350 1.327 . S
C353 C351 1.392 1_455 S
C354 H349 0.930 . S
C354 C351 1.370 . S
C354 C355 1.385 . S
C355 C352 1.414 . S
C355 C354 1.385 . S
C355 C377 1.444 . S
O356 Tb312 2.546 1_655 S
O356 C376 1.251 . S
O357 Tb312 2.610 1_554 S
O357 Tb323 2.362 . S
O357 C368 1.283 . S
O358 Tb323 2.421 . S
O358 C375 1.262 . S
O359 Tb312 2.320 1_554 S
O359 C375 1.260 . S
O360 Tb312 2.552 . S
O360 C368 1.243 1_556 S
O361 Tb312 2.413 1_654 S
O361 C376 1.256 1_554 S
O362 Tb323 2.546 . S
O362 C387 1.251 . S
O363 Tb312 2.362 1_564 S
O363 Tb323 2.610 1_565 S
O363 C379 1.283 . S
O364 Tb312 2.421 . S
O364 C386 1.262 . S
O365 Tb323 2.320 1_556 S
O365 C386 1.260 . S
O366 Tb323 2.552 1_565 S
O366 C379 1.243 . S
O367 Tb323 2.413 . S
O367 C387 1.256 . S
C368 O357 1.283 . S
C368 O360 1.243 1_554 S
C369 C371 1.382 . S
C369 C373 1.393 1_545 S
C369 C376 1.500 . S
C370 C371 1.400 . S
C370 C372 1.384 . S
C371 C369 1.382 . S
C371 C370 1.400 . S
C371 H388 0.930 1_556 S
C372 C370 1.384 . S
C372 C374 1.392 . S
C372 H389 0.931 . S
C373 C369 1.393 1_565 S
C373 C374 1.401 1_565 S
C373 H390 0.930 . S
C374 C372 1.392 . S
C374 C373 1.401 1_545 S
C374 H391 0.930 1_545 S
C375 O358 1.262 . S
C375 O359 1.260 . S
C376 Tb312 2.833 1_655 S
C376 O356 1.251 . S
C376 O361 1.256 1_556 S
C376 C369 1.500 . S
C377 H342 0.929 . S
C377 C355 1.444 . S
C377 C378 1.317 . S
C378 H340 0.930 . S
C378 C346 1.432 1_556 S
C378 C377 1.317 . S
C379 O363 1.283 . S
C379 O366 1.243 . S
C380 C381 1.382 . S
C380 C384 1.393 . S
C380 C387 1.500 . S
C381 C380 1.382 . S
C381 C382 1.400 . S
C381 H392 0.930 . S
C382 C381 1.400 . S
C382 C383 1.384 . S
C383 C382 1.384 . S
C383 C385 1.392 . S
C383 H393 0.931 . S
C384 C380 1.393 . S
C384 C385 1.401 . S
C384 H394 0.930 . S
C385 C383 1.392 . S
C385 C384 1.401 . S
C385 H395 0.930 . S
C386 O364 1.262 . S
C386 O365 1.260 . S
C387 Tb323 2.833 . S
C387 O362 1.251 . S
C387 O367 1.256 . S
C387 C380 1.500 . S
H388 C371 0.930 1_554 S
H389 C372 0.931 . S
H390 C373 0.930 . S
H391 C374 0.930 1_565 S
H392 C381 0.930 . S
H393 C383 0.931 . S
H394 C384 0.930 . S
H395 C385 0.930 . S
Tb396 N427 2.660 . S
Tb396 N434 2.600 . S
Tb396 O440 2.546 . S
Tb396 O441 2.610 . S
Tb396 O443 2.320 . S
Tb396 O444 2.552 . S
Tb396 O445 2.413 . S
Tb396 O447 2.362 . S
Tb396 O448 2.421 . S
Tb396 C460 2.833 . S
C397 C400 1.432 . S
C397 C401 1.414 . S
C397 N404 1.359 . S
C398 C400 1.417 . S
C398 C402 1.432 . S
C398 C410 1.410 . S
C399 C401 1.444 . S
C399 C402 1.317 . S
C399 H422 0.929 . S
C400 C397 1.432 . S
C400 C398 1.417 . S
C400 N408 1.360 . S
C401 C397 1.414 . S
C401 C399 1.444 . S
C401 C406 1.385 . S
C402 C398 1.432 . S
C402 C399 1.317 . S
C402 H414 0.930 . S
C403 C405 1.392 . S
C403 C406 1.370 . S
C403 H415 0.931 . S
N404 C397 1.359 . S
N404 C405 1.327 . S
N404 Tb407 2.600 . S
C405 C403 1.392 . S
C405 N404 1.327 . S
C405 H412 0.930 . S
C406 C401 1.385 . S
C406 C403 1.370 . S
C406 H425 0.930 . S
Tb407 N404 2.600 . S
Tb407 N408 2.660 . S
Tb407 O441 2.362 . S
Tb407 O442 2.421 . S
Tb407 O446 2.546 . S
Tb407 O447 2.610 . S
Tb407 O449 2.320 . S
Tb407 O450 2.552 . S
Tb407 O451 2.413 . S
Tb407 C471 2.833 . S
N408 C400 1.360 . S
N408 Tb407 2.660 . S
N408 C409 1.305 . S
C409 N408 1.305 . S
C409 C411 1.407 . S
C409 H416 0.930 . S
C410 C398 1.410 . S
C410 C411 1.345 . S
C410 H418 0.930 . S
C411 C409 1.407 . S
C411 C410 1.345 . S
C411 H413 0.930 . S
H412 C405 0.930 . S
H413 C411 0.930 . S
H414 C402 0.930 . S
H415 C403 0.931 . S
H416 C409 0.930 . S
H417 C431 0.930 . S
H418 C410 0.930 . S
H419 C437 0.930 . S
H420 C428 0.930 . S
H421 C435 0.931 . S
H422 C399 0.929 . S
H423 C429 0.930 . S
H424 C462 0.930 . S
H425 C406 0.930 . S
H426 C461 0.929 . S
N427 Tb396 2.660 . S
N427 C428 1.305 . S
N427 C432 1.360 . S
C428 H420 0.930 . S
C428 N427 1.305 . S
C428 C431 1.407 . S
C429 H423 0.930 . S
C429 C430 1.410 . S
C429 C431 1.345 . S
C430 C429 1.410 . S
C430 C432 1.417 . S
C430 C462 1.432 . S
C431 H417 0.930 . S
C431 C428 1.407 . S
C431 C429 1.345 . S
C432 N427 1.360 . S
C432 C430 1.417 . S
C432 C436 1.432 . S
H433 C438 0.930 . S
N434 Tb396 2.600 . S
N434 C436 1.359 . S
N434 C437 1.327 . S
C435 H421 0.931 . S
C435 C437 1.392 . S
C435 C438 1.370 . S
C436 C432 1.432 . S
C436 N434 1.359 . S
C436 C439 1.414 . S
C437 H419 0.930 . S
C437 N434 1.327 . S
C437 C435 1.392 . S
C438 H433 0.930 . S
C438 C435 1.370 . S
C438 C439 1.385 . S
C439 C436 1.414 . S
C439 C438 1.385 . S
C439 C461 1.444 . S
O440 Tb396 2.546 . S
O440 C460 1.251 . S
O441 Tb396 2.610 . S
O441 Tb407 2.362 . S
O441 C452 1.283 . S
O442 Tb407 2.421 . S
O442 C459 1.262 . S
O443 Tb396 2.320 . S
O443 C459 1.260 . S
O444 Tb396 2.552 . S
O444 C452 1.243 . S
O445 Tb396 2.413 . S
O445 C460 1.256 . S
O446 Tb407 2.546 . S
O446 C471 1.251 . S
O447 Tb396 2.362 . S
O447 Tb407 2.610 . S
O447 C463 1.283 . S
O448 Tb396 2.421 . S
O448 C470 1.262 . S
O449 Tb407 2.320 . S
O449 C470 1.260 . S
O450 Tb407 2.552 . S
O450 C463 1.243 . S
O451 Tb407 2.413 . S
O451 C471 1.256 . S
C452 O441 1.283 . S
C452 O444 1.243 . S
C453 C455 1.382 . S
C453 C457 1.393 . S
C453 C460 1.500 . S
C454 C455 1.400 . S
C454 C456 1.384 . S
C455 C453 1.382 . S
C455 C454 1.400 . S
C455 H472 0.930 . S
C456 C454 1.384 . S
C456 C458 1.392 . S
C456 H473 0.931 . S
C457 C453 1.393 . S
C457 C458 1.401 . S
C457 H474 0.930 . S
C458 C456 1.392 . S
C458 C457 1.401 . S
C458 H475 0.930 . S
C459 O442 1.262 . S
C459 O443 1.260 . S
C460 Tb396 2.833 . S
C460 O440 1.251 . S
C460 O445 1.256 . S
C460 C453 1.500 . S
C461 H426 0.929 . S
C461 C439 1.444 . S
C461 C462 1.317 . S
C462 H424 0.930 . S
C462 C430 1.432 . S
C462 C461 1.317 . S
C463 O447 1.283 . S
C463 O450 1.243 . S
C464 C465 1.382 . S
C464 C468 1.393 . S
C464 C471 1.500 . S
C465 C464 1.382 . S
C465 C466 1.400 . S
C465 H476 0.930 . S
C466 C465 1.400 . S
C466 C467 1.384 . S
C467 C466 1.384 . S
C467 C469 1.392 . S
C467 H477 0.931 . S
C468 C464 1.393 . S
C468 C469 1.401 . S
C468 H478 0.930 . S
C469 C467 1.392 . S
C469 C468 1.401 . S
C469 H479 0.930 . S
C470 O448 1.262 . S
C470 O449 1.260 . S
C471 Tb407 2.833 . S
C471 O446 1.251 . S
C471 O451 1.256 . S
C471 C464 1.500 . S
H472 C455 0.930 . S
H473 C456 0.931 . S
H474 C457 0.930 . S
H475 C458 0.930 . S
H476 C465 0.930 . S
H477 C467 0.931 . S
H478 C468 0.930 . S
H479 C469 0.930 . S
Tb480 N511 2.660 . S
Tb480 N518 2.600 . S
Tb480 O524 2.546 . S
Tb480 O525 2.616 . S
Tb480 O527 2.320 . S
Tb480 O528 2.552 1_545 S
Tb480 O529 2.413 . S
Tb480 O531 2.362 . S
Tb480 O532 2.421 . S
Tb480 C544 2.833 . S
C481 C484 1.432 . S
C481 C485 1.414 . S
C481 N488 1.359 1_565 S
C482 C484 1.417 . S
C482 C486 1.432 . S
C482 C494 1.410 . S
C483 C485 1.444 . S
C483 C486 1.317 . S
C483 H506 0.929 . S
C484 C481 1.432 . S
C484 C482 1.417 . S
C484 N492 1.360 . S
C485 C481 1.414 . S
C485 C483 1.444 . S
C485 C490 1.385 . S
C486 C482 1.432 . S
C486 C483 1.317 . S
C486 H498 0.930 . S
C487 C489 1.386 1_565 S
C487 C490 1.378 . S
C487 H499 0.928 1_565 S
N488 C481 1.359 1_545 S
N488 C489 1.327 . S
N488 Tb491 2.600 . S
C489 C487 1.386 1_545 S
C489 N488 1.327 . S
C489 H496 0.930 . S
C490 C485 1.385 . S
C490 C487 1.378 . S
C490 H509 0.930 . S
Tb491 N488 2.600 . S
Tb491 N492 2.660 1_545 S
Tb491 O525 2.371 . S
Tb491 O526 2.421 . S
Tb491 O530 2.546 . S
Tb491 O531 2.610 . S
Tb491 O533 2.320 . S
Tb491 O534 2.552 . S
Tb491 O535 2.413 . S
Tb491 C555 2.833 . S
N492 C484 1.360 . S
N492 Tb491 2.660 1_565 S
N492 C493 1.305 . S
C493 N492 1.305 . S
C493 C495 1.407 . S
C493 H500 0.930 . S
C494 C482 1.410 . S
C494 C495 1.345 . S
C494 H502 0.930 . S
C495 C493 1.407 . S
C495 C494 1.345 . S
C495 H497 0.930 . S
H496 C489 0.930 . S
H497 C495 0.930 . S
H498 C486 0.930 . S
H499 C487 0.928 1_545 S
H500 C493 0.930 . S
H501 C515 0.930 . S
H502 C494 0.930 . S
H503 C521 0.930 . S
H504 C512 0.930 . S
H505 C519 0.931 . S
H506 C483 0.929 . S
H507 C513 0.930 . S
H508 C546 0.930 . S
H509 C490 0.930 . S
H510 C545 0.929 . S
N511 Tb480 2.660 . S
N511 C512 1.305 . S
N511 C516 1.360 . S
C512 H504 0.930 . S
C512 N511 1.305 . S
C512 C515 1.407 . S
C513 H507 0.930 . S
C513 C514 1.410 . S
C513 C515 1.345 . S
C514 C513 1.410 . S
C514 C516 1.417 . S
C514 C546 1.432 . S
C515 H501 0.930 . S
C515 C512 1.407 . S
C515 C513 1.345 . S
C516 N511 1.360 . S
C516 C514 1.417 . S
C516 C520 1.432 . S
H517 C522 0.930 . S
N518 Tb480 2.600 . S
N518 C520 1.359 . S
N518 C521 1.327 . S
C519 H505 0.931 . S
C519 C521 1.392 . S
C519 C522 1.370 . S
C520 C516 1.432 . S
C520 N518 1.359 . S
C520 C523 1.414 . S
C521 H503 0.930 . S
C521 N518 1.327 . S
C521 C519 1.392 . S
C522 H517 0.930 . S
C522 C519 1.370 . S
C522 C523 1.385 . S
C523 C520 1.414 . S
C523 C522 1.385 . S
C523 C545 1.444 . S
O524 Tb480 2.546 . S
O524 C544 1.251 . S
O525 Tb480 2.616 . S
O525 Tb491 2.371 . S
O525 C536 1.271 1_545 S
O526 Tb491 2.421 . S
O526 C543 1.262 . S
O527 Tb480 2.320 . S
O527 C543 1.260 . S
O528 Tb480 2.552 1_565 S
O528 C536 1.243 . S
O529 Tb480 2.413 . S
O529 C544 1.256 . S
O530 Tb491 2.546 . S
O530 C555 1.251 . S
O531 Tb480 2.362 . S
O531 Tb491 2.610 . S
O531 C547 1.283 . S
O532 Tb480 2.421 . S
O532 C554 1.262 . S
O533 Tb491 2.320 . S
O533 C554 1.260 . S
O534 Tb491 2.552 . S
O534 C547 1.243 . S
O535 Tb491 2.413 . S
O535 C555 1.256 . S
C536 O525 1.271 1_565 S
C536 O528 1.243 . S
C537 C539 1.382 . S
C537 C541 1.393 . S
C537 C544 1.500 1_565 S
C538 C539 1.400 . S
C538 C540 1.384 . S
C539 C537 1.382 . S
C539 C538 1.400 . S
C539 H556 0.930 . S
C540 C538 1.384 . S
C540 C542 1.392 . S
C540 H557 0.931 . S
C541 C537 1.393 . S
C541 C542 1.401 . S
C541 H558 0.930 . S
C542 C540 1.392 . S
C542 C541 1.401 . S
C542 H559 0.930 . S
C543 O526 1.262 . S
C543 O527 1.260 . S
C544 Tb480 2.833 . S
C544 O524 1.251 . S
C544 O529 1.256 . S
C544 C537 1.500 1_545 S
C545 H510 0.929 . S
C545 C523 1.444 . S
C545 C546 1.317 . S
C546 H508 0.930 . S
C546 C514 1.432 . S
C546 C545 1.317 . S
C547 O531 1.283 . S
C547 O534 1.243 . S
C548 C549 1.382 . S
C548 C552 1.393 . S
C548 C555 1.500 . S
C549 C548 1.382 . S
C549 C550 1.400 . S
C549 H560 0.930 . S
C550 C549 1.400 . S
C550 C551 1.384 . S
C551 C550 1.384 . S
C551 C553 1.392 . S
C551 H561 0.931 . S
C552 C548 1.393 . S
C552 C553 1.401 . S
C552 H562 0.930 . S
C553 C551 1.392 . S
C553 C552 1.401 . S
C553 H563 0.930 . S
C554 O532 1.262 . S
C554 O533 1.260 . S
C555 Tb491 2.833 . S
C555 O530 1.251 . S
C555 O535 1.256 . S
C555 C548 1.500 . S
H556 C539 0.930 . S
H557 C540 0.931 . S
H558 C541 0.930 . S
H559 C542 0.930 . S
H560 C549 0.930 . S
H561 C551 0.931 . S
H562 C552 0.930 . S
H563 C553 0.930 . S
Tb564 N595 2.660 . S
Tb564 N602 2.600 . S
Tb564 O608 2.546 . S
Tb564 O609 2.610 . S
Tb564 O611 2.320 . S
Tb564 O612 2.552 . S
Tb564 O613 2.413 . S
Tb564 O615 2.362 . S
Tb564 O616 2.421 . S
Tb564 C628 2.833 . S
C565 C568 1.432 . S
C565 C569 1.414 . S
C565 N572 1.359 . S
C566 C568 1.417 . S
C566 C570 1.432 . S
C566 C578 1.410 . S
C567 C569 1.444 . S
C567 C570 1.317 . S
C567 H590 0.929 . S
C568 C565 1.432 . S
C568 C566 1.417 . S
C568 N576 1.360 . S
C569 C565 1.414 . S
C569 C567 1.444 . S
C569 C574 1.385 . S
C570 C566 1.432 . S
C570 C567 1.317 . S
C570 H582 0.930 . S
C571 C573 1.392 . S
C571 C574 1.370 . S
C571 H583 0.931 . S
N572 C565 1.359 . S
N572 C573 1.327 . S
N572 Tb575 2.600 . S
C573 C571 1.392 . S
C573 N572 1.327 . S
C573 H580 0.930 . S
C574 C569 1.385 . S
C574 C571 1.370 . S
C574 H593 0.930 . S
Tb575 N572 2.600 . S
Tb575 N576 2.660 . S
Tb575 O609 2.362 . S
Tb575 O610 2.421 . S
Tb575 O614 2.546 . S
Tb575 O615 2.610 . S
Tb575 O617 2.320 . S
Tb575 O618 2.552 . S
Tb575 O619 2.413 . S
Tb575 C639 2.833 . S
N576 C568 1.360 . S
N576 Tb575 2.660 . S
N576 C577 1.305 . S
C577 N576 1.305 . S
C577 C579 1.407 . S
C577 H584 0.930 . S
C578 C566 1.410 . S
C578 C579 1.345 . S
C578 H586 0.930 . S
C579 C577 1.407 . S
C579 C578 1.345 . S
C579 H581 0.930 . S
H580 C573 0.930 . S
H581 C579 0.930 . S
H582 C570 0.930 . S
H583 C571 0.931 . S
H584 C577 0.930 . S
H585 C599 0.930 . S
H586 C578 0.930 . S
H587 C605 0.930 . S
H588 C596 0.930 . S
H589 C603 0.931 . S
H590 C567 0.929 . S
H591 C597 0.930 . S
H592 C630 0.930 . S
H593 C574 0.930 . S
H594 C629 0.929 . S
N595 Tb564 2.660 . S
N595 C596 1.305 . S
N595 C600 1.360 . S
C596 H588 0.930 . S
C596 N595 1.305 . S
C596 C599 1.407 . S
C597 H591 0.930 . S
C597 C598 1.410 . S
C597 C599 1.345 . S
C598 C597 1.410 . S
C598 C600 1.417 . S
C598 C630 1.432 . S
C599 H585 0.930 . S
C599 C596 1.407 . S
C599 C597 1.345 . S
C600 N595 1.360 . S
C600 C598 1.417 . S
C600 C604 1.432 . S
H601 C606 0.930 . S
N602 Tb564 2.600 . S
N602 C604 1.359 . S
N602 C605 1.327 . S
C603 H589 0.931 . S
C603 C605 1.392 . S
C603 C606 1.370 . S
C604 C600 1.432 . S
C604 N602 1.359 . S
C604 C607 1.414 . S
C605 H587 0.930 . S
C605 N602 1.327 . S
C605 C603 1.392 . S
C606 H601 0.930 . S
C606 C603 1.370 . S
C606 C607 1.385 . S
C607 C604 1.414 . S
C607 C606 1.385 . S
C607 C629 1.444 . S
O608 Tb564 2.546 . S
O608 C628 1.251 . S
O609 Tb564 2.610 . S
O609 Tb575 2.362 . S
O609 C620 1.283 . S
O610 Tb575 2.421 . S
O610 C627 1.262 . S
O611 Tb564 2.320 . S
O611 C627 1.260 . S
O612 Tb564 2.552 . S
O612 C620 1.243 . S
O613 Tb564 2.413 . S
O613 C628 1.256 . S
O614 Tb575 2.546 . S
O614 C639 1.251 . S
O615 Tb564 2.362 . S
O615 Tb575 2.610 . S
O615 C631 1.283 . S
O616 Tb564 2.421 . S
O616 C638 1.262 . S
O617 Tb575 2.320 . S
O617 C638 1.260 . S
O618 Tb575 2.552 . S
O618 C631 1.243 . S
O619 Tb575 2.413 . S
O619 C639 1.256 . S
C620 O609 1.283 . S
C620 O612 1.243 . S
C621 C623 1.382 . S
C621 C625 1.393 . S
C621 C628 1.500 . S
C622 C623 1.400 . S
C622 C624 1.384 . S
C623 C621 1.382 . S
C623 C622 1.400 . S
C623 H640 0.930 . S
C624 C622 1.384 . S
C624 C626 1.392 . S
C624 H641 0.931 . S
C625 C621 1.393 . S
C625 C626 1.401 . S
C625 H642 0.930 . S
C626 C624 1.392 . S
C626 C625 1.401 . S
C626 H643 0.930 . S
C627 O610 1.262 . S
C627 O611 1.260 . S
C628 Tb564 2.833 . S
C628 O608 1.251 . S
C628 O613 1.256 . S
C628 C621 1.500 . S
C629 H594 0.929 . S
C629 C607 1.444 . S
C629 C630 1.317 . S
C630 H592 0.930 . S
C630 C598 1.432 . S
C630 C629 1.317 . S
C631 O615 1.283 . S
C631 O618 1.243 . S
C632 C633 1.382 . S
C632 C636 1.393 . S
C632 C639 1.500 . S
C633 C632 1.382 . S
C633 C634 1.400 . S
C633 H644 0.930 . S
C634 C633 1.400 . S
C634 C635 1.384 . S
C635 C634 1.384 . S
C635 C637 1.392 . S
C635 H645 0.931 . S
C636 C632 1.393 . S
C636 C637 1.401 . S
C636 H646 0.930 . S
C637 C635 1.392 . S
C637 C636 1.401 . S
C637 H647 0.930 . S
C638 O616 1.262 . S
C638 O617 1.260 . S
C639 Tb575 2.833 . S
C639 O614 1.251 . S
C639 O619 1.256 . S
C639 C632 1.500 . S
H640 C623 0.930 . S
H641 C624 0.931 . S
H642 C625 0.930 . S
H643 C626 0.930 . S
H644 C633 0.930 . S
H645 C635 0.931 . S
H646 C636 0.930 . S
H647 C637 0.930 . S
Tb648 N679 2.660 . S
Tb648 N686 2.600 . S
Tb648 O692 2.546 . S
Tb648 O693 2.610 . S
Tb648 O695 2.320 . S
Tb648 O696 2.552 . S
Tb648 O697 2.413 . S
Tb648 O699 2.362 . S
Tb648 O700 2.421 . S
Tb648 C712 2.833 . S
C649 C652 1.432 . S
C649 C653 1.414 . S
C649 N656 1.359 . S
C650 C652 1.417 . S
C650 C654 1.432 . S
C650 C662 1.410 1_455 S
C651 C653 1.444 . S
C651 C654 1.317 . S
C651 H674 0.929 . S
C652 C649 1.432 . S
C652 C650 1.417 . S
C652 N660 1.360 . S
C653 C649 1.414 . S
C653 C651 1.444 . S
C653 C658 1.385 . S
C654 C650 1.432 . S
C654 C651 1.317 . S
C654 H666 0.930 . S
C655 C657 1.392 . S
C655 C658 1.370 . S
C655 H667 0.931 . S
N656 C649 1.359 . S
N656 C657 1.327 . S
N656 Tb659 2.600 . S
C657 C655 1.392 . S
C657 N656 1.327 . S
C657 H664 0.930 . S
C658 C653 1.385 . S
C658 C655 1.370 . S
C658 H677 0.930 . S
Tb659 N656 2.600 . S
Tb659 N660 2.660 . S
Tb659 O693 2.362 1_565 S
Tb659 O694 2.421 1_565 S
Tb659 O698 2.546 . S
Tb659 O699 2.610 1_565 S
Tb659 O701 2.320 . S
Tb659 O702 2.552 . S
Tb659 O703 2.413 . S
Tb659 C723 2.833 . S
N660 C652 1.360 . S
N660 Tb659 2.660 . S
N660 C661 1.305 . S
C661 N660 1.305 . S
C661 C663 1.407 1_455 S
C661 H668 0.930 . S
C662 C650 1.410 1_655 S
C662 C663 1.345 . S
C662 H670 0.930 . S
C663 C661 1.407 1_655 S
C663 C662 1.345 . S
C663 H665 0.930 . S
H664 C657 0.930 . S
H665 C663 0.930 . S
H666 C654 0.930 . S
H667 C655 0.931 . S
H668 C661 0.930 . S
H669 C683 0.930 . S
H670 C662 0.930 . S
H671 C689 0.930 . S
H672 C680 0.930 . S
H673 C687 0.931 1_655 S
H674 C651 0.929 . S
H675 C681 0.930 . S
H676 C714 0.930 . S
H677 C658 0.930 . S
H678 C713 0.929 . S
N679 Tb648 2.660 . S
N679 C680 1.305 . S
N679 C684 1.360 . S
C680 H672 0.930 . S
C680 N679 1.305 . S
C680 C683 1.407 . S
C681 H675 0.930 . S
C681 C682 1.410 . S
C681 C683 1.345 . S
C682 C681 1.410 . S
C682 C684 1.417 . S
C682 C714 1.432 . S
C683 H669 0.930 . S
C683 C680 1.407 . S
C683 C681 1.345 . S
C684 N679 1.360 . S
C684 C682 1.417 . S
C684 C688 1.432 . S
H685 C690 0.930 . S
N686 Tb648 2.600 . S
N686 C688 1.359 . S
N686 C689 1.327 . S
C687 H673 0.931 1_455 S
C687 C689 1.392 . S
C687 C690 1.370 . S
C688 C684 1.432 . S
C688 N686 1.359 . S
C688 C691 1.414 . S
C689 H671 0.930 . S
C689 N686 1.327 . S
C689 C687 1.392 . S
C690 H685 0.930 . S
C690 C687 1.370 . S
C690 C691 1.385 . S
C691 C688 1.414 . S
C691 C690 1.385 . S
C691 C713 1.444 . S
O692 Tb648 2.546 . S
O692 C712 1.251 . S
O693 Tb648 2.610 . S
O693 Tb659 2.362 1_545 S
O693 C704 1.283 . S
O694 Tb659 2.421 1_545 S
O694 C711 1.262 . S
O695 Tb648 2.320 . S
O695 C711 1.260 . S
O696 Tb648 2.552 . S
O696 C704 1.243 . S
O697 Tb648 2.413 . S
O697 C712 1.256 . S
O698 Tb659 2.546 . S
O698 C723 1.251 . S
O699 Tb648 2.362 . S
O699 Tb659 2.610 1_545 S
O699 C715 1.283 . S
O700 Tb648 2.421 . S
O700 C722 1.262 . S
O701 Tb659 2.320 . S
O701 C722 1.260 1_565 S
O702 Tb659 2.552 . S
O702 C715 1.243 1_565 S
O703 Tb659 2.413 . S
O703 C723 1.256 . S
C704 O693 1.283 . S
C704 O696 1.243 . S
C705 C707 1.382 . S
C705 C709 1.393 . S
C705 C712 1.500 . S
C706 C707 1.400 . S
C706 C708 1.384 . S
C707 C705 1.382 . S
C707 C706 1.400 . S
C707 H724 0.930 . S
C708 C706 1.384 . S
C708 C710 1.392 . S
C708 H725 0.931 . S
C709 C705 1.393 . S
C709 C710 1.401 . S
C709 H726 0.930 . S
C710 C708 1.392 . S
C710 C709 1.401 . S
C710 H727 0.930 . S
C711 O694 1.262 . S
C711 O695 1.260 . S
C712 Tb648 2.833 . S
C712 O692 1.251 . S
C712 O697 1.256 . S
C712 C705 1.500 . S
C713 H678 0.929 . S
C713 C691 1.444 . S
C713 C714 1.317 . S
C714 H676 0.930 . S
C714 C682 1.432 . S
C714 C713 1.317 . S
C715 O699 1.283 . S
C715 O702 1.243 1_545 S
C716 C717 1.382 . S
C716 C720 1.393 . S
C716 C723 1.500 . S
C717 C716 1.382 . S
C717 C718 1.400 . S
C717 H728 0.930 . S
C718 C717 1.400 . S
C718 C719 1.384 . S
C719 C718 1.384 . S
C719 C721 1.392 . S
C719 H729 0.931 . S
C720 C716 1.393 . S
C720 C721 1.401 . S
C720 H730 0.930 . S
C721 C719 1.392 . S
C721 C720 1.401 . S
C721 H731 0.930 . S
C722 O700 1.262 . S
C722 O701 1.260 1_545 S
C723 Tb659 2.833 . S
C723 O698 1.251 . S
C723 O703 1.256 . S
C723 C716 1.500 . S
H724 C707 0.930 . S
H725 C708 0.931 . S
H726 C709 0.930 . S
H727 C710 0.930 . S
H728 C717 0.930 . S
H729 C719 0.931 . S
H730 C720 0.930 . S
H731 C721 0.930 . S
Tb732 N763 2.660 . S
Tb732 N770 2.600 . S
Tb732 O776 2.546 . S
Tb732 O777 2.610 . S
Tb732 O779 2.320 . S
Tb732 O780 2.552 . S
Tb732 O781 2.413 . S
Tb732 O783 2.362 . S
Tb732 O784 2.421 . S
Tb732 C796 2.833 . S
C733 C736 1.432 . S
C733 C737 1.414 . S
C733 N740 1.359 . S
C734 C736 1.417 . S
C734 C738 1.432 . S
C734 C746 1.410 . S
C735 C737 1.444 . S
C735 C738 1.317 . S
C735 H758 0.929 . S
C736 C733 1.432 . S
C736 C734 1.417 . S
C736 N744 1.360 . S
C737 C733 1.414 . S
C737 C735 1.444 . S
C737 C742 1.385 . S
C738 C734 1.432 . S
C738 C735 1.317 . S
C738 H750 0.930 . S
C739 C741 1.392 . S
C739 C742 1.370 . S
C739 H751 0.931 . S
N740 C733 1.359 . S
N740 C741 1.327 . S
N740 Tb743 2.600 . S
C741 C739 1.392 . S
C741 N740 1.327 . S
C741 H748 0.930 . S
C742 C737 1.385 . S
C742 C739 1.370 . S
C742 H761 0.930 . S
Tb743 N740 2.600 . S
Tb743 N744 2.660 . S
Tb743 O777 2.362 . S
Tb743 O778 2.421 . S
Tb743 O782 2.546 . S
Tb743 O783 2.610 . S
Tb743 O785 2.320 . S
Tb743 O786 2.552 . S
Tb743 O787 2.413 . S
Tb743 C807 2.833 . S
N744 C736 1.360 . S
N744 Tb743 2.660 . S
N744 C745 1.305 . S
C745 N744 1.305 . S
C745 C747 1.407 . S
C745 H752 0.930 . S
C746 C734 1.410 . S
C746 C747 1.345 . S
C746 H754 0.930 . S
C747 C745 1.407 . S
C747 C746 1.345 . S
C747 H749 0.930 . S
H748 C741 0.930 . S
H749 C747 0.930 . S
H750 C738 0.930 . S
H751 C739 0.931 . S
H752 C745 0.930 . S
H753 C767 0.930 . S
H754 C746 0.930 . S
H755 C773 0.930 . S
H756 C764 0.930 . S
H757 C771 0.931 . S
H758 C735 0.929 . S
H759 C765 0.930 . S
H760 C798 0.930 . S
H761 C742 0.930 . S
H762 C797 0.929 . S
N763 Tb732 2.660 . S
N763 C764 1.305 . S
N763 C768 1.360 . S
C764 H756 0.930 . S
C764 N763 1.305 . S
C764 C767 1.407 . S
C765 H759 0.930 . S
C765 C766 1.410 . S
C765 C767 1.345 . S
C766 C765 1.410 . S
C766 C768 1.417 . S
C766 C798 1.432 . S
C767 H753 0.930 . S
C767 C764 1.407 . S
C767 C765 1.345 . S
C768 N763 1.360 . S
C768 C766 1.417 . S
C768 C772 1.432 . S
H769 C774 0.930 . S
N770 Tb732 2.600 . S
N770 C772 1.359 . S
N770 C773 1.327 . S
C771 H757 0.931 . S
C771 C773 1.392 . S
C771 C774 1.370 . S
C772 C768 1.432 . S
C772 N770 1.359 . S
C772 C775 1.414 . S
C773 H755 0.930 . S
C773 N770 1.327 . S
C773 C771 1.392 . S
C774 H769 0.930 . S
C774 C771 1.370 . S
C774 C775 1.385 . S
C775 C772 1.414 . S
C775 C774 1.385 . S
C775 C797 1.444 . S
O776 Tb732 2.546 . S
O776 C796 1.251 . S
O777 Tb732 2.610 . S
O777 Tb743 2.362 . S
O777 C788 1.283 . S
O778 Tb743 2.421 . S
O778 C795 1.262 . S
O779 Tb732 2.320 . S
O779 C795 1.260 . S
O780 Tb732 2.552 . S
O780 C788 1.243 . S
O781 Tb732 2.413 . S
O781 C796 1.256 . S
O782 Tb743 2.546 . S
O782 C807 1.251 . S
O783 Tb732 2.362 . S
O783 Tb743 2.610 . S
O783 C799 1.283 . S
O784 Tb732 2.421 . S
O784 C806 1.262 . S
O785 Tb743 2.320 . S
O785 C806 1.260 . S
O786 Tb743 2.552 . S
O786 C799 1.243 . S
O787 Tb743 2.413 . S
O787 C807 1.256 . S
C788 O777 1.283 . S
C788 O780 1.243 . S
C789 C791 1.382 . S
C789 C793 1.393 . S
C789 C796 1.500 . S
C790 C791 1.400 . S
C790 C792 1.384 . S
C791 C789 1.382 . S
C791 C790 1.400 . S
C791 H808 0.930 . S
C792 C790 1.384 . S
C792 C794 1.392 . S
C792 H809 0.931 . S
C793 C789 1.393 . S
C793 C794 1.401 . S
C793 H810 0.930 . S
C794 C792 1.392 . S
C794 C793 1.401 . S
C794 H811 0.930 . S
C795 O778 1.262 . S
C795 O779 1.260 . S
C796 Tb732 2.833 . S
C796 O776 1.251 . S
C796 O781 1.256 . S
C796 C789 1.500 . S
C797 H762 0.929 . S
C797 C775 1.444 . S
C797 C798 1.317 . S
C798 H760 0.930 . S
C798 C766 1.432 . S
C798 C797 1.317 . S
C799 O783 1.283 . S
C799 O786 1.243 . S
C800 C801 1.382 . S
C800 C804 1.393 . S
C800 C807 1.500 . S
C801 C800 1.382 . S
C801 C802 1.400 . S
C801 H812 0.930 . S
C802 C801 1.400 . S
C802 C803 1.384 . S
C803 C802 1.384 . S
C803 C805 1.392 . S
C803 H813 0.931 . S
C804 C800 1.393 . S
C804 C805 1.401 . S
C804 H814 0.930 . S
C805 C803 1.392 . S
C805 C804 1.401 . S
C805 H815 0.930 . S
C806 O784 1.262 . S
C806 O785 1.260 . S
C807 Tb743 2.833 . S
C807 O782 1.251 . S
C807 O787 1.256 . S
C807 C800 1.500 . S
H808 C791 0.930 . S
H809 C792 0.931 . S
H810 C793 0.930 . S
H811 C794 0.930 . S
H812 C801 0.930 . S
H813 C803 0.931 . S
H814 C804 0.930 . S
H815 C805 0.930 . S
Tb816 N847 2.660 . S
Tb816 N854 2.600 1_545 S
Tb816 O860 2.546 1_545 S
Tb816 O861 2.610 . S
Tb816 O863 2.320 . S
Tb816 O864 2.552 1_545 S
Tb816 O865 2.413 . S
Tb816 O867 2.362 . S
Tb816 O868 2.421 1_545 S
Tb816 C880 2.833 1_545 S
C817 C820 1.432 . S
C817 C821 1.414 . S
C817 N824 1.359 . S
C818 C820 1.417 1_565 S
C818 C822 1.432 1_565 S
C818 C830 1.410 . S
C819 C821 1.444 . S
C819 C822 1.317 . S
C819 H842 0.929 . S
C820 C817 1.432 . S
C820 C818 1.417 1_545 S
C820 N828 1.360 . S
C821 C817 1.414 . S
C821 C819 1.444 . S
C821 C826 1.385 . S
C822 C818 1.432 1_545 S
C822 C819 1.317 . S
C822 H834 0.930 1_545 S
C823 C825 1.392 . S
C823 C826 1.370 . S
C823 H835 0.931 . S
N824 C817 1.359 . S
N824 C825 1.327 . S
N824 Tb827 2.600 . S
C825 C823 1.392 . S
C825 N824 1.327 . S
C825 H832 0.930 . S
C826 C821 1.385 . S
C826 C823 1.370 . S
C826 H845 0.930 . S
Tb827 N824 2.600 . S
Tb827 N828 2.660 . S
Tb827 O861 2.362 1_556 S
Tb827 O862 2.421 1_556 S
Tb827 O866 2.546 . S
Tb827 O867 2.610 1_556 S
Tb827 O869 2.320 1_545 S
Tb827 O870 2.552 . S
Tb827 O871 2.413 . S
Tb827 C891 2.833 . S
N828 C820 1.360 . S
N828 Tb827 2.660 . S
N828 C829 1.305 1_545 S
C829 N828 1.305 1_565 S
C829 C831 1.407 . S
C829 H836 0.930 . S
C830 C818 1.410 . S
C830 C831 1.345 . S
C830 H838 0.930 . S
C831 C829 1.407 . S
C831 C830 1.345 . S
C831 H833 0.930 . S
H832 C825 0.930 . S
H833 C831 0.930 . S
H834 C822 0.930 1_565 S
H835 C823 0.931 . S
H836 C829 0.930 . S
H837 C851 0.930 . S
H838 C830 0.930 . S
H839 C857 0.930 . S
H840 C848 0.930 . S
H841 C855 0.931 . S
H842 C819 0.929 . S
H843 C849 0.930 . S
H844 C882 0.930 . S
H845 C826 0.930 . S
H846 C881 0.929 . S
N847 Tb816 2.660 . S
N847 C848 1.305 . S
N847 C852 1.360 . S
C848 H840 0.930 . S
C848 N847 1.305 . S
C848 C851 1.407 . S
C849 H843 0.930 . S
C849 C850 1.410 . S
C849 C851 1.345 . S
C850 C849 1.410 . S
C850 C852 1.417 . S
C850 C882 1.432 . S
C851 H837 0.930 . S
C851 C848 1.407 . S
C851 C849 1.345 . S
C852 N847 1.360 . S
C852 C850 1.417 . S
C852 C856 1.432 . S
H853 C858 0.930 . S
N854 Tb816 2.600 1_565 S
N854 C856 1.359 1_565 S
N854 C857 1.327 . S
C855 H841 0.931 . S
C855 C857 1.392 . S
C855 C858 1.370 . S
C856 C852 1.432 . S
C856 N854 1.359 1_545 S
C856 C859 1.414 1_545 S
C857 H839 0.930 . S
C857 N854 1.327 . S
C857 C855 1.392 . S
C858 H853 0.930 . S
C858 C855 1.370 . S
C858 C859 1.385 . S
C859 C856 1.414 1_565 S
C859 C858 1.385 . S
C859 C881 1.444 1_565 S
O860 Tb816 2.546 1_565 S
O860 C880 1.251 . S
O861 Tb816 2.610 . S
O861 Tb827 2.362 1_554 S
O861 C872 1.283 . S
O862 Tb827 2.421 1_554 S
O862 C879 1.262 . S
O863 Tb816 2.320 . S
O863 C879 1.260 . S
O864 Tb816 2.552 1_565 S
O864 C872 1.243 1_565 S
O865 Tb816 2.413 . S
O865 C880 1.256 1_545 S
O866 Tb827 2.546 . S
O866 C891 1.251 . S
O867 Tb816 2.362 . S
O867 Tb827 2.610 1_554 S
O867 C883 1.283 . S
O868 Tb816 2.421 1_565 S
O868 C890 1.262 1_554 S
O869 Tb827 2.320 1_565 S
O869 C890 1.260 . S
O870 Tb827 2.552 . S
O870 C883 1.243 1_556 S
O871 Tb827 2.413 . S
O871 C891 1.256 . S
C872 O861 1.283 . S
C872 O864 1.243 1_545 S
C873 C875 1.382 1_565 S
C873 C877 1.393 . S
C873 C880 1.500 . S
C874 C875 1.400 1_565 S
C874 C876 1.384 . S
C875 C873 1.382 1_545 S
C875 C874 1.400 1_545 S
C875 H892 0.930 . S
C876 C874 1.384 . S
C876 C878 1.392 . S
C876 H893 0.931 . S
C877 C873 1.393 . S
C877 C878 1.401 . S
C877 H894 0.930 . S
C878 C876 1.392 . S
C878 C877 1.401 . S
C878 H895 0.930 . S
C879 O862 1.262 . S
C879 O863 1.260 . S
C880 Tb816 2.833 1_565 S
C880 O860 1.251 . S
C880 O865 1.256 1_565 S
C880 C873 1.500 . S
C881 H846 0.929 . S
C881 C859 1.444 1_545 S
C881 C882 1.317 . S
C882 H844 0.930 . S
C882 C850 1.432 . S
C882 C881 1.317 . S
C883 O867 1.283 . S
C883 O870 1.243 1_554 S
C884 C885 1.382 . S
C884 C888 1.393 . S
C884 C891 1.500 . S
C885 C884 1.382 . S
C885 C886 1.400 . S
C885 H896 0.930 . S
C886 C885 1.400 . S
C886 C887 1.384 . S
C887 C886 1.384 . S
C887 C889 1.392 . S
C887 H897 0.931 . S
C888 C884 1.393 . S
C888 C889 1.401 . S
C888 H898 0.930 . S
C889 C887 1.392 . S
C889 C888 1.401 . S
C889 H899 0.930 . S
C890 O868 1.262 1_556 S
C890 O869 1.260 . S
C891 Tb827 2.833 . S
C891 O866 1.251 . S
C891 O871 1.256 . S
C891 C884 1.500 . S
H892 C875 0.930 . S
H893 C876 0.931 . S
H894 C877 0.930 . S
H895 C878 0.930 . S
H896 C885 0.930 . S
H897 C887 0.931 . S
H898 C888 0.930 . S
H899 C889 0.930 . S
Tb900 N931 2.660 . S
Tb900 N938 2.600 . S
Tb900 O944 2.546 . S
Tb900 O945 2.610 . S
Tb900 O947 2.320 . S
Tb900 O948 2.552 . S
Tb900 O949 2.413 . S
Tb900 O951 2.362 . S
Tb900 O952 2.421 . S
Tb900 C964 2.833 . S
C901 C904 1.432 . S
C901 C905 1.414 . S
C901 N908 1.359 . S
C902 C904 1.417 . S
C902 C906 1.432 . S
C902 C914 1.410 . S
C903 C905 1.444 . S
C903 C906 1.317 . S
C903 H926 0.929 . S
C904 C901 1.432 . S
C904 C902 1.417 . S
C904 N912 1.360 . S
C905 C901 1.414 . S
C905 C903 1.444 . S
C905 C910 1.385 . S
C906 C902 1.432 . S
C906 C903 1.317 . S
C906 H918 0.930 . S
C907 C909 1.392 . S
C907 C910 1.370 . S
C907 H919 0.931 . S
N908 C901 1.359 . S
N908 C909 1.327 . S
N908 Tb911 2.600 . S
C909 C907 1.392 . S
C909 N908 1.327 . S
C909 H916 0.930 . S
C910 C905 1.385 . S
C910 C907 1.370 . S
C910 H929 0.930 . S
Tb911 N908 2.600 . S
Tb911 N912 2.660 . S
Tb911 O945 2.362 . S
Tb911 O946 2.421 . S
Tb911 O950 2.546 . S
Tb911 O951 2.610 . S
Tb911 O953 2.320 . S
Tb911 O954 2.552 . S
Tb911 O955 2.413 . S
Tb911 C975 2.833 . S
N912 C904 1.360 . S
N912 Tb911 2.660 . S
N912 C913 1.305 . S
C913 N912 1.305 . S
C913 C915 1.407 . S
C913 H920 0.930 . S
C914 C902 1.410 . S
C914 C915 1.345 . S
C914 H922 0.930 . S
C915 C913 1.407 . S
C915 C914 1.345 . S
C915 H917 0.930 . S
H916 C909 0.930 . S
H917 C915 0.930 . S
H918 C906 0.930 . S
H919 C907 0.931 . S
H920 C913 0.930 . S
H921 C935 0.930 . S
H922 C914 0.930 . S
H923 C941 0.930 . S
H924 C932 0.930 . S
H925 C939 0.931 . S
H926 C903 0.929 . S
H927 C933 0.930 . S
H928 C966 0.930 . S
H929 C910 0.930 . S
H930 C965 0.929 . S
N931 Tb900 2.660 . S
N931 C932 1.305 . S
N931 C936 1.360 . S
C932 H924 0.930 . S
C932 N931 1.305 . S
C932 C935 1.407 . S
C933 H927 0.930 . S
C933 C934 1.410 . S
C933 C935 1.345 . S
C934 C933 1.410 . S
C934 C936 1.417 . S
C934 C966 1.432 . S
C935 H921 0.930 . S
C935 C932 1.407 . S
C935 C933 1.345 . S
C936 N931 1.360 . S
C936 C934 1.417 . S
C936 C940 1.432 . S
H937 C942 0.930 . S
N938 Tb900 2.600 . S
N938 C940 1.359 . S
N938 C941 1.327 . S
C939 H925 0.931 . S
C939 C941 1.392 . S
C939 C942 1.370 . S
C940 C936 1.432 . S
C940 N938 1.359 . S
C940 C943 1.414 . S
C941 H923 0.930 . S
C941 N938 1.327 . S
C941 C939 1.392 . S
C942 H937 0.930 . S
C942 C939 1.370 . S
C942 C943 1.385 . S
C943 C940 1.414 . S
C943 C942 1.385 . S
C943 C965 1.444 . S
O944 Tb900 2.546 . S
O944 C964 1.251 . S
O945 Tb900 2.610 . S
O945 Tb911 2.362 . S
O945 C956 1.283 . S
O946 Tb911 2.421 . S
O946 C963 1.262 . S
O947 Tb900 2.320 . S
O947 C963 1.260 . S
O948 Tb900 2.552 . S
O948 C956 1.243 . S
O949 Tb900 2.413 . S
O949 C964 1.256 . S
O950 Tb911 2.546 . S
O950 C975 1.251 . S
O951 Tb900 2.362 . S
O951 Tb911 2.610 . S
O951 C967 1.283 . S
O952 Tb900 2.421 . S
O952 C974 1.262 . S
O953 Tb911 2.320 . S
O953 C974 1.260 . S
O954 Tb911 2.552 . S
O954 C967 1.243 . S
O955 Tb911 2.413 . S
O955 C975 1.256 . S
C956 O945 1.283 . S
C956 O948 1.243 . S
C957 C959 1.382 . S
C957 C961 1.393 . S
C957 C964 1.500 . S
C958 C959 1.400 . S
C958 C960 1.384 . S
C959 C957 1.382 . S
C959 C958 1.400 . S
C959 H976 0.930 . S
C960 C958 1.384 . S
C960 C962 1.392 . S
C960 H977 0.931 . S
C961 C957 1.393 . S
C961 C962 1.401 . S
C961 H978 0.930 . S
C962 C960 1.392 . S
C962 C961 1.401 . S
C962 H979 0.930 . S
C963 O946 1.262 . S
C963 O947 1.260 . S
C964 Tb900 2.833 . S
C964 O944 1.251 . S
C964 O949 1.256 . S
C964 C957 1.500 . S
C965 H930 0.929 . S
C965 C943 1.444 . S
C965 C966 1.317 . S
C966 H928 0.930 . S
C966 C934 1.432 . S
C966 C965 1.317 . S
C967 O951 1.283 . S
C967 O954 1.243 . S
C968 C969 1.382 . S
C968 C972 1.393 . S
C968 C975 1.500 . S
C969 C968 1.382 . S
C969 C970 1.400 . S
C969 H980 0.930 . S
C970 C969 1.400 . S
C970 C971 1.384 . S
C971 C970 1.384 . S
C971 C973 1.392 . S
C971 H981 0.931 . S
C972 C968 1.393 . S
C972 C973 1.401 . S
C972 H982 0.930 . S
C973 C971 1.392 . S
C973 C972 1.401 . S
C973 H983 0.930 . S
C974 O952 1.262 . S
C974 O953 1.260 . S
C975 Tb911 2.833 . S
C975 O950 1.251 . S
C975 O955 1.256 . S
C975 C968 1.500 . S
H976 C959 0.930 . S
H977 C960 0.931 . S
H978 C961 0.930 . S
H979 C962 0.930 . S
H980 C969 0.930 . S
H981 C971 0.931 . S
H982 C972 0.930 . S
H983 C973 0.930 . S
Tb984 N1015 2.660 . S
Tb984 N1022 2.600 . S
Tb984 O1028 2.546 . S
Tb984 O1029 2.610 1_554 S
Tb984 O1031 2.320 . S
Tb984 O1032 2.552 1_554 S
Tb984 O1033 2.413 . S
Tb984 O1035 2.362 . S
Tb984 O1036 2.421 . S
Tb984 C1048 2.833 . S
C985 C988 1.432 . S
C985 C989 1.414 . S
C985 N992 1.359 . S
C986 C988 1.417 . S
C986 C990 1.432 . S
C986 C998 1.410 . S
C987 C989 1.444 . S
C987 C990 1.317 . S
C987 H1010 0.929 . S
C988 C985 1.432 . S
C988 C986 1.417 . S
C988 N996 1.360 . S
C989 C985 1.414 . S
C989 C987 1.444 . S
C989 C994 1.385 . S
C990 C986 1.432 . S
C990 C987 1.317 . S
C990 H1002 0.930 . S
C991 C993 1.392 . S
C991 C994 1.370 . S
C991 H1003 0.931 . S
N992 C985 1.359 . S
N992 C993 1.327 . S
N992 Tb995 2.600 1_556 S
C993 C991 1.392 . S
C993 N992 1.327 . S
C993 H1000 0.930 . S
C994 C989 1.385 . S
C994 C991 1.370 . S
C994 H1013 0.930 . S
Tb995 N992 2.600 1_554 S
Tb995 N996 2.660 1_554 S
Tb995 O1029 2.362 1_554 S
Tb995 O1030 2.421 . S
Tb995 O1034 2.546 . S
Tb995 O1035 2.610 . S
Tb995 O1037 2.320 . S
Tb995 O1038 2.552 . S
Tb995 O1039 2.413 . S
Tb995 C1059 2.833 . S
N996 C988 1.360 . S
N996 Tb995 2.660 1_556 S
N996 C997 1.305 . S
C997 N996 1.305 . S
C997 C999 1.407 . S
C997 H1004 0.930 . S
C998 C986 1.410 . S
C998 C999 1.345 . S
C998 H1006 0.930 . S
C999 C997 1.407 . S
C999 C998 1.345 . S
C999 H1001 0.930 . S
H1000 C993 0.930 . S
H1001 C999 0.930 . S
H1002 C990 0.930 . S
H1003 C991 0.931 . S
H1004 C997 0.930 . S
H1005 C1019 0.930 . S
H1006 C998 0.930 . S
H1007 C1025 0.930 . S
H1008 C1016 0.930 . S
H1009 C1023 0.931 . S
H1010 C987 0.929 . S
H1011 C1017 0.930 . S
H1012 C1050 0.930 . S
H1013 C994 0.930 . S
H1014 C1049 0.929 . S
N1015 Tb984 2.660 . S
N1015 C1016 1.305 . S
N1015 C1020 1.360 . S
C1016 H1008 0.930 . S
C1016 N1015 1.305 . S
C1016 C1019 1.407 . S
C1017 H1011 0.930 . S
C1017 C1018 1.410 . S
C1017 C1019 1.345 . S
C1018 C1017 1.410 . S
C1018 C1020 1.417 . S
C1018 C1050 1.432 . S
C1019 H1005 0.930 . S
C1019 C1016 1.407 . S
C1019 C1017 1.345 . S
C1020 N1015 1.360 . S
C1020 C1018 1.417 . S
C1020 C1024 1.432 . S
H1021 C1026 0.930 . S
N1022 Tb984 2.600 . S
N1022 C1024 1.359 . S
N1022 C1025 1.327 . S
C1023 H1009 0.931 . S
C1023 C1025 1.392 . S
C1023 C1026 1.370 . S
C1024 C1020 1.432 . S
C1024 N1022 1.359 . S
C1024 C1027 1.414 . S
C1025 H1007 0.930 . S
C1025 N1022 1.327 . S
C1025 C1023 1.392 . S
C1026 H1021 0.930 . S
C1026 C1023 1.370 . S
C1026 C1027 1.385 . S
C1027 C1024 1.414 . S
C1027 C1026 1.385 . S
C1027 C1049 1.444 . S
O1028 Tb984 2.546 . S
O1028 C1048 1.251 . S
O1029 Tb984 2.610 1_556 S
O1029 Tb995 2.362 1_556 S
O1029 C1040 1.283 . S
O1030 Tb995 2.421 . S
O1030 C1047 1.262 . S
O1031 Tb984 2.320 . S
O1031 C1047 1.260 . S
O1032 Tb984 2.552 1_556 S
O1032 C1040 1.243 . S
O1033 Tb984 2.413 . S
O1033 C1048 1.256 . S
O1034 Tb995 2.546 . S
O1034 C1059 1.251 . S
O1035 Tb984 2.362 . S
O1035 Tb995 2.610 . S
O1035 C1051 1.283 . S
O1036 Tb984 2.421 . S
O1036 C1058 1.262 . S
O1037 Tb995 2.320 . S
O1037 C1058 1.260 . S
O1038 Tb995 2.552 . S
O1038 C1051 1.243 . S
O1039 Tb995 2.413 . S
O1039 C1059 1.256 . S
C1040 O1029 1.283 . S
C1040 O1032 1.243 . S
C1041 C1043 1.382 . S
C1041 C1045 1.393 . S
C1041 C1048 1.500 . S
C1042 C1043 1.400 1_556 S
C1042 C1044 1.384 1_556 S
C1043 C1041 1.382 . S
C1043 C1042 1.400 1_554 S
C1043 H1060 0.930 1_554 S
C1044 C1042 1.384 1_554 S
C1044 C1046 1.392 . S
C1044 H1061 0.931 . S
C1045 C1041 1.393 . S
C1045 C1046 1.401 . S
C1045 H1062 0.930 . S
C1046 C1044 1.392 . S
C1046 C1045 1.401 . S
C1046 H1063 0.930 . S
C1047 O1030 1.262 . S
C1047 O1031 1.260 . S
C1048 Tb984 2.833 . S
C1048 O1028 1.251 . S
C1048 O1033 1.256 . S
C1048 C1041 1.500 . S
C1049 H1014 0.929 . S
C1049 C1027 1.444 . S
C1049 C1050 1.317 . S
C1050 H1012 0.930 . S
C1050 C1018 1.432 . S
C1050 C1049 1.317 . S
C1051 O1035 1.283 . S
C1051 O1038 1.243 . S
C1052 C1053 1.382 . S
C1052 C1056 1.393 . S
C1052 C1059 1.500 . S
C1053 C1052 1.382 . S
C1053 C1054 1.400 . S
C1053 H1064 0.930 . S
C1054 C1053 1.400 . S
C1054 C1055 1.384 . S
C1055 C1054 1.384 . S
C1055 C1057 1.392 . S
C1055 H1065 0.931 . S
C1056 C1052 1.393 . S
C1056 C1057 1.401 . S
C1056 H1066 0.930 1_554 S
C1057 C1055 1.392 . S
C1057 C1056 1.401 . S
C1057 H1067 0.930 . S
C1058 O1036 1.262 . S
C1058 O1037 1.260 . S
C1059 Tb995 2.833 . S
C1059 O1034 1.251 . S
C1059 O1039 1.256 . S
C1059 C1052 1.500 . S
H1060 C1043 0.930 1_556 S
H1061 C1044 0.931 . S
H1062 C1045 0.930 . S
H1063 C1046 0.930 . S
H1064 C1053 0.930 . S
H1065 C1055 0.931 . S
H1066 C1056 0.930 1_556 S
H1067 C1057 0.930 . S
Tb1068 N1099 2.660 . S
Tb1068 N1106 2.600 . S
Tb1068 O1112 2.546 . S
Tb1068 O1113 2.610 . S
Tb1068 O1115 2.320 . S
Tb1068 O1116 2.552 . S
Tb1068 O1117 2.413 . S
Tb1068 O1119 2.362 . S
Tb1068 O1120 2.421 . S
Tb1068 C1132 2.833 . S
C1069 C1072 1.432 . S
C1069 C1073 1.414 . S
C1069 N1076 1.359 . S
C1070 C1072 1.417 . S
C1070 C1074 1.432 . S
C1070 C1082 1.410 . S
C1071 C1073 1.444 . S
C1071 C1074 1.317 . S
C1071 H1094 0.929 . S
C1072 C1069 1.432 . S
C1072 C1070 1.417 . S
C1072 N1080 1.360 . S
C1073 C1069 1.414 . S
C1073 C1071 1.444 . S
C1073 C1078 1.385 . S
C1074 C1070 1.432 . S
C1074 C1071 1.317 . S
C1074 H1086 0.930 . S
C1075 C1077 1.392 . S
C1075 C1078 1.370 . S
C1075 H1087 0.931 . S
N1076 C1069 1.359 . S
N1076 C1077 1.327 . S
N1076 Tb1079 2.600 . S
C1077 C1075 1.392 . S
C1077 N1076 1.327 . S
C1077 H1084 0.930 . S
C1078 C1073 1.385 . S
C1078 C1075 1.370 . S
C1078 H1097 0.930 . S
Tb1079 N1076 2.600 . S
Tb1079 N1080 2.660 . S
Tb1079 O1113 2.362 . S
Tb1079 O1114 2.421 . S
Tb1079 O1118 2.546 . S
Tb1079 O1119 2.610 . S
Tb1079 O1121 2.320 . S
Tb1079 O1122 2.552 . S
Tb1079 O1123 2.413 . S
Tb1079 C1143 2.833 . S
N1080 C1072 1.360 . S
N1080 Tb1079 2.660 . S
N1080 C1081 1.305 . S
C1081 N1080 1.305 . S
C1081 C1083 1.407 . S
C1081 H1088 0.930 . S
C1082 C1070 1.410 . S
C1082 C1083 1.345 . S
C1082 H1090 0.930 . S
C1083 C1081 1.407 . S
C1083 C1082 1.345 . S
C1083 H1085 0.930 . S
H1084 C1077 0.930 . S
H1085 C1083 0.930 . S
H1086 C1074 0.930 . S
H1087 C1075 0.931 . S
H1088 C1081 0.930 . S
H1089 C1103 0.930 . S
H1090 C1082 0.930 . S
H1091 C1109 0.930 . S
H1092 C1100 0.930 . S
H1093 C1107 0.931 . S
H1094 C1071 0.929 . S
H1095 C1101 0.930 . S
H1096 C1134 0.930 . S
H1097 C1078 0.930 . S
H1098 C1133 0.929 . S
N1099 Tb1068 2.660 . S
N1099 C1100 1.305 . S
N1099 C1104 1.360 . S
C1100 H1092 0.930 . S
C1100 N1099 1.305 . S
C1100 C1103 1.407 . S
C1101 H1095 0.930 . S
C1101 C1102 1.410 . S
C1101 C1103 1.345 . S
C1102 C1101 1.410 . S
C1102 C1104 1.417 . S
C1102 C1134 1.432 . S
C1103 H1089 0.930 . S
C1103 C1100 1.407 . S
C1103 C1101 1.345 . S
C1104 N1099 1.360 . S
C1104 C1102 1.417 . S
C1104 C1108 1.432 . S
H1105 C1110 0.930 . S
N1106 Tb1068 2.600 . S
N1106 C1108 1.359 . S
N1106 C1109 1.327 . S
C1107 H1093 0.931 . S
C1107 C1109 1.392 . S
C1107 C1110 1.370 . S
C1108 C1104 1.432 . S
C1108 N1106 1.359 . S
C1108 C1111 1.414 . S
C1109 H1091 0.930 . S
C1109 N1106 1.327 . S
C1109 C1107 1.392 . S
C1110 H1105 0.930 . S
C1110 C1107 1.370 . S
C1110 C1111 1.385 . S
C1111 C1108 1.414 . S
C1111 C1110 1.385 . S
C1111 C1133 1.444 . S
O1112 Tb1068 2.546 . S
O1112 C1132 1.251 . S
O1113 Tb1068 2.610 . S
O1113 Tb1079 2.362 . S
O1113 C1124 1.283 . S
O1114 Tb1079 2.421 . S
O1114 C1131 1.262 . S
O1115 Tb1068 2.320 . S
O1115 C1131 1.260 . S
O1116 Tb1068 2.552 . S
O1116 C1124 1.243 . S
O1117 Tb1068 2.413 . S
O1117 C1132 1.256 . S
O1118 Tb1079 2.546 . S
O1118 C1143 1.251 . S
O1119 Tb1068 2.362 . S
O1119 Tb1079 2.610 . S
O1119 C1135 1.283 . S
O1120 Tb1068 2.421 . S
O1120 C1142 1.262 . S
O1121 Tb1079 2.320 . S
O1121 C1142 1.260 . S
O1122 Tb1079 2.552 . S
O1122 C1135 1.243 . S
O1123 Tb1079 2.413 . S
O1123 C1143 1.256 . S
C1124 O1113 1.283 . S
C1124 O1116 1.243 . S
C1125 C1127 1.382 . S
C1125 C1129 1.393 . S
C1125 C1132 1.500 . S
C1126 C1127 1.400 . S
C1126 C1128 1.384 1_655 S
C1127 C1125 1.382 . S
C1127 C1126 1.400 . S
C1127 H1144 0.930 . S
C1128 C1126 1.384 1_455 S
C1128 C1130 1.392 1_455 S
C1128 H1145 0.931 . S
C1129 C1125 1.393 . S
C1129 C1130 1.401 . S
C1129 H1146 0.930 . S
C1130 C1128 1.392 1_655 S
C1130 C1129 1.401 . S
C1130 H1147 0.930 1_655 S
C1131 O1114 1.262 . S
C1131 O1115 1.260 . S
C1132 Tb1068 2.833 . S
C1132 O1112 1.251 . S
C1132 O1117 1.256 . S
C1132 C1125 1.500 . S
C1133 H1098 0.929 . S
C1133 C1111 1.444 . S
C1133 C1134 1.317 . S
C1134 H1096 0.930 . S
C1134 C1102 1.432 . S
C1134 C1133 1.317 . S
C1135 O1119 1.283 . S
C1135 O1122 1.243 . S
C1136 C1137 1.382 . S
C1136 C1140 1.393 . S
C1136 C1143 1.500 . S
C1137 C1136 1.382 . S
C1137 C1138 1.400 . S
C1137 H1148 0.930 . S
C1138 C1137 1.400 . S
C1138 C1139 1.384 . S
C1139 C1138 1.384 . S
C1139 C1141 1.392 . S
C1139 H1149 0.931 . S
C1140 C1136 1.393 . S
C1140 C1141 1.401 . S
C1140 H1150 0.930 . S
C1141 C1139 1.392 . S
C1141 C1140 1.401 . S
C1141 H1151 0.930 . S
C1142 O1120 1.262 . S
C1142 O1121 1.260 . S
C1143 Tb1079 2.833 . S
C1143 O1118 1.251 . S
C1143 O1123 1.256 . S
C1143 C1136 1.500 . S
H1144 C1127 0.930 . S
H1145 C1128 0.931 . S
H1146 C1129 0.930 . S
H1147 C1130 0.930 1_455 S
H1148 C1137 0.930 . S
H1149 C1139 0.931 . S
H1150 C1140 0.930 . S
H1151 C1141 0.930 . S
Tb1152 N1183 2.660 . S
Tb1152 N1190 2.600 . S
Tb1152 O1196 2.546 . S
Tb1152 O1197 2.610 . S
Tb1152 O1199 2.320 . S
Tb1152 O1200 2.552 . S
Tb1152 O1201 2.413 . S
Tb1152 O1203 2.362 . S
Tb1152 O1204 2.421 . S
Tb1152 C1216 2.833 . S
C1153 C1156 1.432 . S
C1153 C1157 1.414 1_455 S
C1153 N1160 1.359 . S
C1154 C1156 1.417 1_655 S
C1154 C1158 1.432 . S
C1154 C1166 1.410 . S
C1155 C1157 1.444 . S
C1155 C1158 1.317 . S
C1155 H1178 0.929 . S
C1156 C1153 1.432 . S
C1156 C1154 1.417 1_455 S
C1156 N1164 1.360 . S
C1157 C1153 1.414 1_655 S
C1157 C1155 1.444 . S
C1157 C1162 1.385 . S
C1158 C1154 1.432 . S
C1158 C1155 1.317 . S
C1158 H1170 0.930 . S
C1159 C1161 1.392 . S
C1159 C1162 1.370 1_455 S
C1159 H1171 0.931 . S
N1160 C1153 1.359 . S
N1160 C1161 1.327 . S
N1160 Tb1163 2.600 . S
C1161 C1159 1.392 . S
C1161 N1160 1.327 . S
C1161 H1168 0.930 . S
C1162 C1157 1.385 . S
C1162 C1159 1.370 1_655 S
C1162 H1181 0.930 . S
Tb1163 N1160 2.600 . S
Tb1163 N1164 2.660 . S
Tb1163 O1197 2.362 . S
Tb1163 O1198 2.421 . S
Tb1163 O1202 2.546 . S
Tb1163 O1203 2.610 . S
Tb1163 O1205 2.320 . S
Tb1163 O1206 2.552 . S
Tb1163 O1207 2.413 . S
Tb1163 C1227 2.833 . S
N1164 C1156 1.360 . S
N1164 Tb1163 2.660 . S
N1164 C1165 1.305 . S
C1165 N1164 1.305 . S
C1165 C1167 1.407 1_455 S
C1165 H1172 0.930 . S
C1166 C1154 1.410 . S
C1166 C1167 1.345 . S
C1166 H1174 0.930 . S
C1167 C1165 1.407 1_655 S
C1167 C1166 1.345 . S
C1167 H1169 0.930 . S
H1168 C1161 0.930 . S
H1169 C1167 0.930 . S
H1170 C1158 0.930 . S
H1171 C1159 0.931 . S
H1172 C1165 0.930 . S
H1173 C1187 0.930 . S
H1174 C1166 0.930 . S
H1175 C1193 0.930 . S
H1176 C1184 0.930 . S
H1177 C1191 0.931 . S
H1178 C1155 0.929 . S
H1179 C1185 0.930 . S
H1180 C1218 0.930 . S
H1181 C1162 0.930 . S
H1182 C1217 0.929 . S
N1183 Tb1152 2.660 . S
N1183 C1184 1.305 . S
N1183 C1188 1.360 . S
C1184 H1176 0.930 . S
C1184 N1183 1.305 . S
C1184 C1187 1.407 . S
C1185 H1179 0.930 . S
C1185 C1186 1.410 . S
C1185 C1187 1.345 . S
C1186 C1185 1.410 . S
C1186 C1188 1.417 . S
C1186 C1218 1.432 . S
C1187 H1173 0.930 . S
C1187 C1184 1.407 . S
C1187 C1185 1.345 . S
C1188 N1183 1.360 . S
C1188 C1186 1.417 . S
C1188 C1192 1.432 . S
H1189 C1194 0.930 . S
N1190 Tb1152 2.600 . S
N1190 C1192 1.359 . S
N1190 C1193 1.327 . S
C1191 H1177 0.931 . S
C1191 C1193 1.392 . S
C1191 C1194 1.370 . S
C1192 C1188 1.432 . S
C1192 N1190 1.359 . S
C1192 C1195 1.414 . S
C1193 H1175 0.930 . S
C1193 N1190 1.327 . S
C1193 C1191 1.392 . S
C1194 H1189 0.930 . S
C1194 C1191 1.370 . S
C1194 C1195 1.385 . S
C1195 C1192 1.414 . S
C1195 C1194 1.385 . S
C1195 C1217 1.444 . S
O1196 Tb1152 2.546 . S
O1196 C1216 1.251 . S
O1197 Tb1152 2.610 . S
O1197 Tb1163 2.362 . S
O1197 C1208 1.283 . S
O1198 Tb1163 2.421 . S
O1198 C1215 1.262 . S
O1199 Tb1152 2.320 . S
O1199 C1215 1.260 . S
O1200 Tb1152 2.552 . S
O1200 C1208 1.243 . S
O1201 Tb1152 2.413 . S
O1201 C1216 1.256 . S
O1202 Tb1163 2.546 . S
O1202 C1227 1.251 . S
O1203 Tb1152 2.362 . S
O1203 Tb1163 2.610 . S
O1203 C1219 1.283 . S
O1204 Tb1152 2.421 . S
O1204 C1226 1.262 . S
O1205 Tb1163 2.320 . S
O1205 C1226 1.260 . S
O1206 Tb1163 2.552 . S
O1206 C1219 1.243 . S
O1207 Tb1163 2.413 . S
O1207 C1227 1.256 . S
C1208 O1197 1.283 . S
C1208 O1200 1.243 . S
C1209 C1211 1.382 . S
C1209 C1213 1.393 . S
C1209 C1216 1.500 . S
C1210 C1211 1.400 . S
C1210 C1212 1.384 . S
C1211 C1209 1.382 . S
C1211 C1210 1.400 . S
C1211 H1228 0.930 . S
C1212 C1210 1.384 . S
C1212 C1214 1.392 . S
C1212 H1229 0.920 1_455 S
C1213 C1209 1.393 . S
C1213 C1214 1.401 . S
C1213 H1230 0.930 . S
C1214 C1212 1.392 . S
C1214 C1213 1.401 . S
C1214 H1231 0.930 . S
C1215 O1198 1.262 . S
C1215 O1199 1.260 . S
C1216 Tb1152 2.833 . S
C1216 O1196 1.251 . S
C1216 O1201 1.256 . S
C1216 C1209 1.500 . S
C1217 H1182 0.929 . S
C1217 C1195 1.444 . S
C1217 C1218 1.317 . S
C1218 H1180 0.930 . S
C1218 C1186 1.432 . S
C1218 C1217 1.317 . S
C1219 O1203 1.283 . S
C1219 O1206 1.243 . S
C1220 C1221 1.382 . S
C1220 C1224 1.393 . S
C1220 C1227 1.500 . S
C1221 C1220 1.382 . S
C1221 C1222 1.400 . S
C1221 H1232 0.930 . S
C1222 C1221 1.400 . S
C1222 C1223 1.384 . S
C1223 C1222 1.384 . S
C1223 C1225 1.392 . S
C1223 H1233 0.931 . S
C1224 C1220 1.393 . S
C1224 C1225 1.401 . S
C1224 H1234 0.930 . S
C1225 C1223 1.392 . S
C1225 C1224 1.401 . S
C1225 H1235 0.930 . S
C1226 O1204 1.262 . S
C1226 O1205 1.260 . S
C1227 Tb1163 2.833 . S
C1227 O1202 1.251 . S
C1227 O1207 1.256 . S
C1227 C1220 1.500 . S
H1228 C1211 0.930 . S
H1229 C1212 0.920 1_655 S
H1230 C1213 0.930 . S
H1231 C1214 0.930 . S
H1232 C1221 0.930 . S
H1233 C1223 0.931 . S
H1234 C1224 0.930 . S
H1235 C1225 0.930 . S
Tb1236 N1267 2.660 . S
Tb1236 N1274 2.600 . S
Tb1236 O1280 2.546 . S
Tb1236 O1281 2.610 . S
Tb1236 O1283 2.320 . S
Tb1236 O1284 2.552 . S
Tb1236 O1285 2.413 . S
Tb1236 O1287 2.362 . S
Tb1236 O1288 2.421 . S
Tb1236 C1300 2.833 . S
C1237 C1240 1.432 . S
C1237 C1241 1.414 . S
C1237 N1244 1.359 . S
C1238 C1240 1.417 . S
C1238 C1242 1.432 . S
C1238 C1250 1.410 . S
C1239 C1241 1.444 . S
C1239 C1242 1.317 . S
C1239 H1262 0.929 . S
C1240 C1237 1.432 . S
C1240 C1238 1.417 . S
C1240 N1248 1.360 . S
C1241 C1237 1.414 . S
C1241 C1239 1.444 . S
C1241 C1246 1.385 . S
C1242 C1238 1.432 . S
C1242 C1239 1.317 . S
C1242 H1254 0.930 . S
C1243 C1245 1.392 . S
C1243 C1246 1.370 . S
C1243 H1255 0.931 . S
N1244 C1237 1.359 . S
N1244 C1245 1.327 . S
N1244 Tb1247 2.600 . S
C1245 C1243 1.392 . S
C1245 N1244 1.327 . S
C1245 H1252 0.930 . S
C1246 C1241 1.385 . S
C1246 C1243 1.370 . S
C1246 H1265 0.930 . S
Tb1247 N1244 2.600 . S
Tb1247 N1248 2.660 . S
Tb1247 O1281 2.362 . S
Tb1247 O1282 2.421 . S
Tb1247 O1286 2.546 . S
Tb1247 O1287 2.610 . S
Tb1247 O1289 2.320 . S
Tb1247 O1290 2.552 . S
Tb1247 O1291 2.413 . S
Tb1247 C1311 2.833 . S
N1248 C1240 1.360 . S
N1248 Tb1247 2.660 . S
N1248 C1249 1.305 . S
C1249 N1248 1.305 . S
C1249 C1251 1.407 . S
C1249 H1256 0.930 . S
C1250 C1238 1.410 . S
C1250 C1251 1.345 . S
C1250 H1258 0.930 . S
C1251 C1249 1.407 . S
C1251 C1250 1.345 . S
C1251 H1253 0.930 . S
H1252 C1245 0.930 . S
H1253 C1251 0.930 . S
H1254 C1242 0.930 . S
H1255 C1243 0.931 . S
H1256 C1249 0.930 . S
H1257 C1271 0.930 . S
H1258 C1250 0.930 . S
H1259 C1277 0.930 . S
H1260 C1268 0.930 . S
H1261 C1275 0.931 . S
H1262 C1239 0.929 . S
H1263 C1269 0.930 . S
H1264 C1302 0.930 . S
H1265 C1246 0.930 . S
H1266 C1301 0.929 . S
N1267 Tb1236 2.660 . S
N1267 C1268 1.305 . S
N1267 C1272 1.360 . S
C1268 H1260 0.930 . S
C1268 N1267 1.305 . S
C1268 C1271 1.407 . S
C1269 H1263 0.930 . S
C1269 C1270 1.410 . S
C1269 C1271 1.345 . S
C1270 C1269 1.410 . S
C1270 C1272 1.417 . S
C1270 C1302 1.432 . S
C1271 H1257 0.930 . S
C1271 C1268 1.407 . S
C1271 C1269 1.345 . S
C1272 N1267 1.360 . S
C1272 C1270 1.417 . S
C1272 C1276 1.432 . S
H1273 C1278 0.930 . S
N1274 Tb1236 2.600 . S
N1274 C1276 1.359 . S
N1274 C1277 1.327 . S
C1275 H1261 0.931 . S
C1275 C1277 1.392 . S
C1275 C1278 1.370 . S
C1276 C1272 1.432 . S
C1276 N1274 1.359 . S
C1276 C1279 1.414 . S
C1277 H1259 0.930 . S
C1277 N1274 1.327 . S
C1277 C1275 1.392 . S
C1278 H1273 0.930 . S
C1278 C1275 1.370 . S
C1278 C1279 1.385 . S
C1279 C1276 1.414 . S
C1279 C1278 1.385 . S
C1279 C1301 1.444 . S
O1280 Tb1236 2.546 . S
O1280 C1300 1.251 . S
O1281 Tb1236 2.610 . S
O1281 Tb1247 2.362 . S
O1281 C1292 1.283 . S
O1282 Tb1247 2.421 . S
O1282 C1299 1.262 . S
O1283 Tb1236 2.320 . S
O1283 C1299 1.260 . S
O1284 Tb1236 2.552 . S
O1284 C1292 1.243 . S
O1285 Tb1236 2.413 . S
O1285 C1300 1.256 . S
O1286 Tb1247 2.546 . S
O1286 C1311 1.251 . S
O1287 Tb1236 2.362 . S
O1287 Tb1247 2.610 . S
O1287 C1303 1.283 . S
O1288 Tb1236 2.421 . S
O1288 C1310 1.262 . S
O1289 Tb1247 2.320 . S
O1289 C1310 1.260 . S
O1290 Tb1247 2.552 . S
O1290 C1303 1.243 . S
O1291 Tb1247 2.413 . S
O1291 C1311 1.256 . S
C1292 O1281 1.283 . S
C1292 O1284 1.243 . S
C1293 C1295 1.382 . S
C1293 C1297 1.393 . S
C1293 C1300 1.500 . S
C1294 C1295 1.400 . S
C1294 C1296 1.384 . S
C1295 C1293 1.382 . S
C1295 C1294 1.400 . S
C1295 H1312 0.930 . S
C1296 C1294 1.384 . S
C1296 C1298 1.392 . S
C1296 H1313 0.931 . S
C1297 C1293 1.393 . S
C1297 C1298 1.401 . S
C1297 H1314 0.930 . S
C1298 C1296 1.392 . S
C1298 C1297 1.401 . S
C1298 H1315 0.930 . S
C1299 O1282 1.262 . S
C1299 O1283 1.260 . S
C1300 Tb1236 2.833 . S
C1300 O1280 1.251 . S
C1300 O1285 1.256 . S
C1300 C1293 1.500 . S
C1301 H1266 0.929 . S
C1301 C1279 1.444 . S
C1301 C1302 1.317 . S
C1302 H1264 0.930 . S
C1302 C1270 1.432 . S
C1302 C1301 1.317 . S
C1303 O1287 1.283 . S
C1303 O1290 1.243 . S
C1304 C1305 1.382 . S
C1304 C1308 1.393 . S
C1304 C1311 1.500 . S
C1305 C1304 1.382 . S
C1305 C1306 1.400 . S
C1305 H1316 0.930 . S
C1306 C1305 1.400 . S
C1306 C1307 1.384 . S
C1307 C1306 1.384 . S
C1307 C1309 1.392 . S
C1307 H1317 0.931 . S
C1308 C1304 1.393 . S
C1308 C1309 1.401 . S
C1308 H1318 0.930 . S
C1309 C1307 1.392 . S
C1309 C1308 1.401 . S
C1309 H1319 0.930 . S
C1310 O1288 1.262 . S
C1310 O1289 1.260 . S
C1311 Tb1247 2.833 . S
C1311 O1286 1.251 . S
C1311 O1291 1.256 . S
C1311 C1304 1.500 . S
H1312 C1295 0.930 . S
H1313 C1296 0.931 . S
H1314 C1297 0.930 . S
H1315 C1298 0.930 . S
H1316 C1305 0.930 . S
H1317 C1307 0.931 . S
H1318 C1308 0.930 . S
H1319 C1309 0.930 . S
Tb1320 N1351 2.660 . S
Tb1320 N1358 2.600 . S
Tb1320 O1364 2.546 . S
Tb1320 O1365 2.610 . S
Tb1320 O1367 2.320 . S
Tb1320 O1368 2.552 . S
Tb1320 O1369 2.413 . S
Tb1320 O1371 2.362 . S
Tb1320 O1372 2.421 . S
Tb1320 C1384 2.833 . S
C1321 C1324 1.432 . S
C1321 C1325 1.414 . S
C1321 N1328 1.359 . S
C1322 C1324 1.417 . S
C1322 C1326 1.432 . S
C1322 C1334 1.410 . S
C1323 C1325 1.444 . S
C1323 C1326 1.317 . S
C1323 H1346 0.929 . S
C1324 C1321 1.432 . S
C1324 C1322 1.417 . S
C1324 N1332 1.360 . S
C1325 C1321 1.414 . S
C1325 C1323 1.444 . S
C1325 C1330 1.385 . S
C1326 C1322 1.432 . S
C1326 C1323 1.317 . S
C1326 H1338 0.930 . S
C1327 C1329 1.392 . S
C1327 C1330 1.370 . S
C1327 H1339 0.931 . S
N1328 C1321 1.359 . S
N1328 C1329 1.327 . S
N1328 Tb1331 2.600 . S
C1329 C1327 1.392 . S
C1329 N1328 1.327 . S
C1329 H1336 0.930 . S
C1330 C1325 1.385 . S
C1330 C1327 1.370 . S
C1330 H1349 0.930 . S
Tb1331 N1328 2.600 . S
Tb1331 N1332 2.660 . S
Tb1331 O1365 2.362 . S
Tb1331 O1366 2.421 . S
Tb1331 O1370 2.546 . S
Tb1331 O1371 2.610 . S
Tb1331 O1373 2.320 . S
Tb1331 O1374 2.552 . S
Tb1331 O1375 2.413 . S
Tb1331 C1395 2.833 . S
N1332 C1324 1.360 . S
N1332 Tb1331 2.660 . S
N1332 C1333 1.305 . S
C1333 N1332 1.305 . S
C1333 C1335 1.407 . S
C1333 H1340 0.930 . S
C1334 C1322 1.410 . S
C1334 C1335 1.345 . S
C1334 H1342 0.930 . S
C1335 C1333 1.407 . S
C1335 C1334 1.345 . S
C1335 H1337 0.930 . S
H1336 C1329 0.930 . S
H1337 C1335 0.930 . S
H1338 C1326 0.930 . S
H1339 C1327 0.931 . S
H1340 C1333 0.930 . S
H1341 C1355 0.930 . S
H1342 C1334 0.930 . S
H1343 C1361 0.930 . S
H1344 C1352 0.930 . S
H1345 C1359 0.931 . S
H1346 C1323 0.929 . S
H1347 C1353 0.930 . S
H1348 C1386 0.930 . S
H1349 C1330 0.930 . S
H1350 C1385 0.929 . S
N1351 Tb1320 2.660 . S
N1351 C1352 1.305 . S
N1351 C1356 1.360 . S
C1352 H1344 0.930 . S
C1352 N1351 1.305 . S
C1352 C1355 1.407 . S
C1353 H1347 0.930 . S
C1353 C1354 1.410 . S
C1353 C1355 1.345 . S
C1354 C1353 1.410 . S
C1354 C1356 1.417 . S
C1354 C1386 1.432 . S
C1355 H1341 0.930 . S
C1355 C1352 1.407 . S
C1355 C1353 1.345 . S
C1356 N1351 1.360 . S
C1356 C1354 1.417 . S
C1356 C1360 1.432 . S
H1357 C1362 0.930 . S
N1358 Tb1320 2.600 . S
N1358 C1360 1.359 . S
N1358 C1361 1.327 . S
C1359 H1345 0.931 . S
C1359 C1361 1.392 . S
C1359 C1362 1.370 . S
C1360 C1356 1.432 . S
C1360 N1358 1.359 . S
C1360 C1363 1.414 . S
C1361 H1343 0.930 . S
C1361 N1358 1.327 . S
C1361 C1359 1.392 . S
C1362 H1357 0.930 . S
C1362 C1359 1.370 . S
C1362 C1363 1.385 . S
C1363 C1360 1.414 . S
C1363 C1362 1.385 . S
C1363 C1385 1.444 . S
O1364 Tb1320 2.546 . S
O1364 C1384 1.251 . S
O1365 Tb1320 2.610 . S
O1365 Tb1331 2.362 . S
O1365 C1376 1.283 . S
O1366 Tb1331 2.421 . S
O1366 C1383 1.262 . S
O1367 Tb1320 2.320 . S
O1367 C1383 1.260 . S
O1368 Tb1320 2.552 . S
O1368 C1376 1.243 . S
O1369 Tb1320 2.413 . S
O1369 C1384 1.256 . S
O1370 Tb1331 2.546 . S
O1370 C1395 1.251 . S
O1371 Tb1320 2.362 . S
O1371 Tb1331 2.610 . S
O1371 C1387 1.283 . S
O1372 Tb1320 2.421 . S
O1372 C1394 1.262 . S
O1373 Tb1331 2.320 . S
O1373 C1394 1.260 . S
O1374 Tb1331 2.552 . S
O1374 C1387 1.243 . S
O1375 Tb1331 2.413 . S
O1375 C1395 1.256 . S
C1376 O1365 1.283 . S
C1376 O1368 1.243 . S
C1377 C1379 1.382 . S
C1377 C1381 1.393 . S
C1377 C1384 1.500 . S
C1378 C1379 1.400 . S
C1378 C1380 1.384 . S
C1379 C1377 1.382 . S
C1379 C1378 1.400 . S
C1379 H1396 0.930 . S
C1380 C1378 1.384 . S
C1380 C1382 1.392 . S
C1380 H1397 0.931 . S
C1381 C1377 1.393 . S
C1381 C1382 1.401 . S
C1381 H1398 0.930 . S
C1382 C1380 1.392 . S
C1382 C1381 1.401 . S
C1382 H1399 0.930 . S
C1383 O1366 1.262 . S
C1383 O1367 1.260 . S
C1384 Tb1320 2.833 . S
C1384 O1364 1.251 . S
C1384 O1369 1.256 . S
C1384 C1377 1.500 . S
C1385 H1350 0.929 . S
C1385 C1363 1.444 . S
C1385 C1386 1.317 . S
C1386 H1348 0.930 . S
C1386 C1354 1.432 . S
C1386 C1385 1.317 . S
C1387 O1371 1.283 . S
C1387 O1374 1.243 . S
C1388 C1389 1.382 . S
C1388 C1392 1.393 . S
C1388 C1395 1.500 . S
C1389 C1388 1.382 . S
C1389 C1390 1.400 . S
C1389 H1400 0.930 . S
C1390 C1389 1.400 . S
C1390 C1391 1.384 . S
C1391 C1390 1.384 . S
C1391 C1393 1.392 . S
C1391 H1401 0.931 . S
C1392 C1388 1.393 . S
C1392 C1393 1.401 . S
C1392 H1402 0.930 . S
C1393 C1391 1.392 . S
C1393 C1392 1.401 . S
C1393 H1403 0.930 . S
C1394 O1372 1.262 . S
C1394 O1373 1.260 . S
C1395 Tb1331 2.833 . S
C1395 O1370 1.251 . S
C1395 O1375 1.256 . S
C1395 C1388 1.500 . S
H1396 C1379 0.930 . S
H1397 C1380 0.931 . S
H1398 C1381 0.930 . S
H1399 C1382 0.930 . S
H1400 C1389 0.930 . S
H1401 C1391 0.931 . S
H1402 C1392 0.930 . S
H1403 C1393 0.930 . S
Tb1404 N1435 2.660 . S
Tb1404 N1442 2.600 . S
Tb1404 O1448 2.546 . S
Tb1404 O1449 2.610 . S
Tb1404 O1451 2.320 . S
Tb1404 O1452 2.552 . S
Tb1404 O1453 2.413 . S
Tb1404 O1455 2.362 . S
Tb1404 O1456 2.421 . S
Tb1404 C1468 2.833 . S
C1405 C1408 1.432 . S
C1405 C1409 1.414 . S
C1405 N1412 1.359 . S
C1406 C1408 1.417 . S
C1406 C1410 1.432 . S
C1406 C1418 1.410 . S
C1407 C1409 1.444 . S
C1407 C1410 1.317 . S
C1407 H1430 0.929 . S
C1408 C1405 1.432 . S
C1408 C1406 1.417 . S
C1408 N1416 1.360 . S
C1409 C1405 1.414 . S
C1409 C1407 1.444 . S
C1409 C1414 1.385 . S
C1410 C1406 1.432 . S
C1410 C1407 1.317 . S
C1410 H1422 0.930 . S
C1411 C1413 1.392 . S
C1411 C1414 1.370 . S
C1411 H1423 0.931 . S
N1412 C1405 1.359 . S
N1412 C1413 1.327 . S
N1412 Tb1415 2.600 . S
C1413 C1411 1.392 . S
C1413 N1412 1.327 . S
C1413 H1420 0.930 . S
C1414 C1409 1.385 . S
C1414 C1411 1.370 . S
C1414 H1433 0.930 . S
Tb1415 N1412 2.600 . S
Tb1415 N1416 2.660 . S
Tb1415 O1449 2.362 . S
Tb1415 O1450 2.421 . S
Tb1415 O1454 2.546 . S
Tb1415 O1455 2.610 . S
Tb1415 O1457 2.320 . S
Tb1415 O1458 2.552 . S
Tb1415 O1459 2.413 . S
Tb1415 C1479 2.833 . S
N1416 C1408 1.360 . S
N1416 Tb1415 2.660 . S
N1416 C1417 1.305 . S
C1417 N1416 1.305 . S
C1417 C1419 1.407 . S
C1417 H1424 0.930 . S
C1418 C1406 1.410 . S
C1418 C1419 1.345 . S
C1418 H1426 0.930 . S
C1419 C1417 1.407 . S
C1419 C1418 1.345 . S
C1419 H1421 0.930 . S
H1420 C1413 0.930 . S
H1421 C1419 0.930 . S
H1422 C1410 0.930 . S
H1423 C1411 0.931 . S
H1424 C1417 0.930 . S
H1425 C1439 0.930 . S
H1426 C1418 0.930 . S
H1427 C1445 0.930 . S
H1428 C1436 0.930 . S
H1429 C1443 0.931 . S
H1430 C1407 0.929 . S
H1431 C1437 0.930 . S
H1432 C1470 0.930 . S
H1433 C1414 0.930 . S
H1434 C1469 0.929 . S
N1435 Tb1404 2.660 . S
N1435 C1436 1.305 . S
N1435 C1440 1.360 . S
C1436 H1428 0.930 . S
C1436 N1435 1.305 . S
C1436 C1439 1.407 . S
C1437 H1431 0.930 . S
C1437 C1438 1.410 . S
C1437 C1439 1.345 . S
C1438 C1437 1.410 . S
C1438 C1440 1.417 . S
C1438 C1470 1.432 . S
C1439 H1425 0.930 . S
C1439 C1436 1.407 . S
C1439 C1437 1.345 . S
C1440 N1435 1.360 . S
C1440 C1438 1.417 . S
C1440 C1444 1.432 . S
H1441 C1446 0.930 . S
N1442 Tb1404 2.600 . S
N1442 C1444 1.359 . S
N1442 C1445 1.327 . S
C1443 H1429 0.931 . S
C1443 C1445 1.392 . S
C1443 C1446 1.370 . S
C1444 C1440 1.432 . S
C1444 N1442 1.359 . S
C1444 C1447 1.414 . S
C1445 H1427 0.930 . S
C1445 N1442 1.327 . S
C1445 C1443 1.392 . S
C1446 H1441 0.930 . S
C1446 C1443 1.370 . S
C1446 C1447 1.385 . S
C1447 C1444 1.414 . S
C1447 C1446 1.385 . S
C1447 C1469 1.444 . S
O1448 Tb1404 2.546 . S
O1448 C1468 1.251 . S
O1449 Tb1404 2.610 . S
O1449 Tb1415 2.362 . S
O1449 C1460 1.283 . S
O1450 Tb1415 2.421 . S
O1450 C1467 1.262 . S
O1451 Tb1404 2.320 . S
O1451 C1467 1.260 . S
O1452 Tb1404 2.552 . S
O1452 C1460 1.243 . S
O1453 Tb1404 2.413 . S
O1453 C1468 1.256 . S
O1454 Tb1415 2.546 . S
O1454 C1479 1.251 . S
O1455 Tb1404 2.362 . S
O1455 Tb1415 2.610 . S
O1455 C1471 1.283 . S
O1456 Tb1404 2.421 . S
O1456 C1478 1.262 . S
O1457 Tb1415 2.320 . S
O1457 C1478 1.260 . S
O1458 Tb1415 2.552 . S
O1458 C1471 1.243 . S
O1459 Tb1415 2.413 . S
O1459 C1479 1.256 . S
C1460 O1449 1.283 . S
C1460 O1452 1.243 . S
C1461 C1463 1.382 . S
C1461 C1465 1.393 . S
C1461 C1468 1.500 . S
C1462 C1463 1.400 . S
C1462 C1464 1.384 1_565 S
C1463 C1461 1.382 . S
C1463 C1462 1.400 . S
C1463 H1480 0.930 . S
C1464 C1462 1.384 1_545 S
C1464 C1466 1.392 1_545 S
C1464 H1481 0.931 . S
C1465 C1461 1.393 . S
C1465 C1466 1.401 . S
C1465 H1482 0.930 . S
C1466 C1464 1.392 1_565 S
C1466 C1465 1.401 . S
C1466 H1483 0.930 1_565 S
C1467 O1450 1.262 . S
C1467 O1451 1.260 . S
C1468 Tb1404 2.833 . S
C1468 O1448 1.251 . S
C1468 O1453 1.256 . S
C1468 C1461 1.500 . S
C1469 H1434 0.929 . S
C1469 C1447 1.444 . S
C1469 C1470 1.317 . S
C1470 H1432 0.930 . S
C1470 C1438 1.432 . S
C1470 C1469 1.317 . S
C1471 O1455 1.283 . S
C1471 O1458 1.243 . S
C1472 C1473 1.382 . S
C1472 C1476 1.393 . S
C1472 C1479 1.500 . S
C1473 C1472 1.382 . S
C1473 C1474 1.400 . S
C1473 H1484 0.930 . S
C1474 C1473 1.400 . S
C1474 C1475 1.384 . S
C1475 C1474 1.384 . S
C1475 C1477 1.392 . S
C1475 H1485 0.931 . S
C1476 C1472 1.393 . S
C1476 C1477 1.401 . S
C1476 H1486 0.930 . S
C1477 C1475 1.392 . S
C1477 C1476 1.401 . S
C1477 H1487 0.930 . S
C1478 O1456 1.262 . S
C1478 O1457 1.260 . S
C1479 Tb1415 2.833 . S
C1479 O1454 1.251 . S
C1479 O1459 1.256 . S
C1479 C1472 1.500 . S
H1480 C1463 0.930 . S
H1481 C1464 0.931 . S
H1482 C1465 0.930 . S
H1483 C1466 0.930 1_545 S
H1484 C1473 0.930 . S
H1485 C1475 0.931 . S
H1486 C1476 0.930 . S
H1487 C1477 0.930 . S
Tb1488 N1519 2.660 . S
Tb1488 N1526 2.600 . S
Tb1488 O1532 2.546 . S
Tb1488 O1533 2.610 . S
Tb1488 O1535 2.320 . S
Tb1488 O1536 2.552 . S
Tb1488 O1537 2.413 . S
Tb1488 O1539 2.362 . S
Tb1488 O1540 2.421 . S
Tb1488 C1552 2.833 . S
C1489 C1492 1.432 . S
C1489 C1493 1.414 . S
C1489 N1496 1.359 . S
C1490 C1492 1.417 . S
C1490 C1494 1.432 . S
C1490 C1502 1.410 . S
C1491 C1493 1.444 . S
C1491 C1494 1.317 . S
C1491 H1514 0.929 . S
C1492 C1489 1.432 . S
C1492 C1490 1.417 . S
C1492 N1500 1.360 . S
C1493 C1489 1.414 . S
C1493 C1491 1.444 . S
C1493 C1498 1.385 . S
C1494 C1490 1.432 . S
C1494 C1491 1.317 . S
C1494 H1506 0.930 . S
C1495 C1497 1.392 . S
C1495 C1498 1.370 . S
C1495 H1507 0.931 . S
N1496 C1489 1.359 . S
N1496 C1497 1.327 . S
N1496 Tb1499 2.600 . S
C1497 C1495 1.392 . S
C1497 N1496 1.327 . S
C1497 H1504 0.930 . S
C1498 C1493 1.385 . S
C1498 C1495 1.370 . S
C1498 H1517 0.930 . S
Tb1499 N1496 2.600 . S
Tb1499 N1500 2.660 . S
Tb1499 O1533 2.362 . S
Tb1499 O1534 2.421 . S
Tb1499 O1538 2.546 . S
Tb1499 O1539 2.610 . S
Tb1499 O1541 2.320 . S
Tb1499 O1542 2.552 . S
Tb1499 O1543 2.413 . S
Tb1499 C1563 2.833 . S
N1500 C1492 1.360 . S
N1500 Tb1499 2.660 . S
N1500 C1501 1.305 . S
C1501 N1500 1.305 . S
C1501 C1503 1.407 . S
C1501 H1508 0.930 . S
C1502 C1490 1.410 . S
C1502 C1503 1.345 . S
C1502 H1510 0.930 . S
C1503 C1501 1.407 . S
C1503 C1502 1.345 . S
C1503 H1505 0.930 . S
H1504 C1497 0.930 . S
H1505 C1503 0.930 . S
H1506 C1494 0.930 . S
H1507 C1495 0.931 . S
H1508 C1501 0.930 . S
H1509 C1523 0.930 . S
H1510 C1502 0.930 . S
H1511 C1529 0.930 . S
H1512 C1520 0.930 . S
H1513 C1527 0.931 . S
H1514 C1491 0.929 . S
H1515 C1521 0.930 . S
H1516 C1554 0.930 . S
H1517 C1498 0.930 . S
H1518 C1553 0.929 . S
N1519 Tb1488 2.660 . S
N1519 C1520 1.305 . S
N1519 C1524 1.360 . S
C1520 H1512 0.930 . S
C1520 N1519 1.305 . S
C1520 C1523 1.407 . S
C1521 H1515 0.930 . S
C1521 C1522 1.410 . S
C1521 C1523 1.345 . S
C1522 C1521 1.410 . S
C1522 C1524 1.417 . S
C1522 C1554 1.432 . S
C1523 H1509 0.930 . S
C1523 C1520 1.407 . S
C1523 C1521 1.345 . S
C1524 N1519 1.360 . S
C1524 C1522 1.417 . S
C1524 C1528 1.432 . S
H1525 C1530 0.930 . S
N1526 Tb1488 2.600 . S
N1526 C1528 1.359 . S
N1526 C1529 1.327 . S
C1527 H1513 0.931 . S
C1527 C1529 1.392 . S
C1527 C1530 1.370 . S
C1528 C1524 1.432 . S
C1528 N1526 1.359 . S
C1528 C1531 1.414 . S
C1529 H1511 0.930 . S
C1529 N1526 1.327 . S
C1529 C1527 1.392 . S
C1530 H1525 0.930 . S
C1530 C1527 1.370 . S
C1530 C1531 1.385 . S
C1531 C1528 1.414 . S
C1531 C1530 1.385 . S
C1531 C1553 1.444 . S
O1532 Tb1488 2.546 . S
O1532 C1552 1.251 . S
O1533 Tb1488 2.610 . S
O1533 Tb1499 2.362 . S
O1533 C1544 1.283 . S
O1534 Tb1499 2.421 . S
O1534 C1551 1.262 . S
O1535 Tb1488 2.320 . S
O1535 C1551 1.260 . S
O1536 Tb1488 2.552 . S
O1536 C1544 1.243 . S
O1537 Tb1488 2.413 . S
O1537 C1552 1.256 . S
O1538 Tb1499 2.546 . S
O1538 C1563 1.251 . S
O1539 Tb1488 2.362 . S
O1539 Tb1499 2.610 . S
O1539 C1555 1.283 . S
O1540 Tb1488 2.421 . S
O1540 C1562 1.262 . S
O1541 Tb1499 2.320 . S
O1541 C1562 1.260 . S
O1542 Tb1499 2.552 . S
O1542 C1555 1.243 . S
O1543 Tb1499 2.413 . S
O1543 C1563 1.256 . S
C1544 O1533 1.283 . S
C1544 O1536 1.243 . S
C1545 C1547 1.382 . S
C1545 C1549 1.393 . S
C1545 C1552 1.500 . S
C1546 C1547 1.400 . S
C1546 C1548 1.384 . S
C1547 C1545 1.382 . S
C1547 C1546 1.400 . S
C1547 H1564 0.930 . S
C1548 C1546 1.384 . S
C1548 C1550 1.392 . S
C1548 H1565 0.931 . S
C1549 C1545 1.393 . S
C1549 C1550 1.401 . S
C1549 H1566 0.930 . S
C1550 C1548 1.392 . S
C1550 C1549 1.401 . S
C1550 H1567 0.930 . S
C1551 O1534 1.262 . S
C1551 O1535 1.260 . S
C1552 Tb1488 2.833 . S
C1552 O1532 1.251 . S
C1552 O1537 1.256 . S
C1552 C1545 1.500 . S
C1553 H1518 0.929 . S
C1553 C1531 1.444 . S
C1553 C1554 1.317 . S
C1554 H1516 0.930 . S
C1554 C1522 1.432 . S
C1554 C1553 1.317 . S
C1555 O1539 1.283 . S
C1555 O1542 1.243 . S
C1556 C1557 1.382 . S
C1556 C1560 1.393 . S
C1556 C1563 1.500 . S
C1557 C1556 1.382 . S
C1557 C1558 1.400 . S
C1557 H1568 0.930 . S
C1558 C1557 1.400 . S
C1558 C1559 1.384 . S
C1559 C1558 1.384 . S
C1559 C1561 1.392 . S
C1559 H1569 0.931 . S
C1560 C1556 1.393 . S
C1560 C1561 1.401 . S
C1560 H1570 0.930 . S
C1561 C1559 1.392 . S
C1561 C1560 1.401 . S
C1561 H1571 0.930 . S
C1562 O1540 1.262 . S
C1562 O1541 1.260 . S
C1563 Tb1499 2.833 . S
C1563 O1538 1.251 . S
C1563 O1543 1.256 . S
C1563 C1556 1.500 . S
H1564 C1547 0.930 . S
H1565 C1548 0.931 . S
H1566 C1549 0.930 . S
H1567 C1550 0.930 . S
H1568 C1557 0.930 . S
H1569 C1559 0.931 . S
H1570 C1560 0.930 . S
H1571 C1561 0.930 . S
Tb1572 N1603 2.660 1_556 S
Tb1572 N1610 2.600 . S
Tb1572 O1616 2.546 . S
Tb1572 O1617 2.610 1_556 S
Tb1572 O1619 2.320 1_556 S
Tb1572 O1620 2.552 . S
Tb1572 O1621 2.413 1_556 S
Tb1572 O1623 2.362 1_556 S
Tb1572 O1624 2.421 . S
Tb1572 C1636 2.833 . S
C1573 C1576 1.432 . S
C1573 C1577 1.414 . S
C1573 N1580 1.359 1_655 S
C1574 C1576 1.417 . S
C1574 C1578 1.432 . S
C1574 C1586 1.410 1_554 S
C1575 C1577 1.444 . S
C1575 C1578 1.317 . S
C1575 H1598 0.929 . S
C1576 C1573 1.432 . S
C1576 C1574 1.417 . S
C1576 N1584 1.370 . S
C1577 C1573 1.414 . S
C1577 C1575 1.444 . S
C1577 C1582 1.385 . S
C1578 C1574 1.432 . S
C1578 C1575 1.317 . S
C1578 H1590 0.930 . S
C1579 C1581 1.392 . S
C1579 C1582 1.370 1_455 S
C1579 H1591 0.931 . S
N1580 C1573 1.359 1_455 S
N1580 C1581 1.327 . S
N1580 Tb1583 2.600 . S
C1581 C1579 1.392 . S
C1581 N1580 1.327 . S
C1581 H1588 0.930 . S
C1582 C1577 1.385 . S
C1582 C1579 1.370 1_655 S
C1582 H1601 0.930 . S
Tb1583 N1580 2.600 . S
Tb1583 N1584 2.647 1_455 S
Tb1583 O1617 2.362 . S
Tb1583 O1618 2.421 . S
Tb1583 O1622 2.546 . S
Tb1583 O1623 2.610 . S
Tb1583 O1625 2.320 1_554 S
Tb1583 O1626 2.552 . S
Tb1583 O1627 2.413 1_455 S
Tb1583 C1647 2.833 1_455 S
N1584 C1576 1.370 . S
N1584 Tb1583 2.647 1_655 S
N1584 C1585 1.308 1_554 S
C1585 N1584 1.308 1_556 S
C1585 C1587 1.407 . S
C1585 H1592 0.936 . S
C1586 C1574 1.410 1_556 S
C1586 C1587 1.345 . S
C1586 H1594 0.930 . S
C1587 C1585 1.407 . S
C1587 C1586 1.345 . S
C1587 H1589 0.930 . S
H1588 C1581 0.930 . S
H1589 C1587 0.930 . S
H1590 C1578 0.930 . S
H1591 C1579 0.931 . S
H1592 C1585 0.936 . S
H1593 C1607 0.930 . S
H1594 C1586 0.930 . S
H1595 C1613 0.930 . S
H1596 C1604 0.930 . S
H1597 C1611 0.931 . S
H1598 C1575 0.929 . S
H1599 C1605 0.930 . S
H1600 C1638 0.930 . S
H1601 C1582 0.930 . S
H1602 C1637 0.929 . S
N1603 Tb1572 2.660 1_554 S
N1603 C1604 1.305 . S
N1603 C1608 1.360 1_554 S
C1604 H1596 0.930 . S
C1604 N1603 1.305 . S
C1604 C1607 1.407 . S
C1605 H1599 0.930 . S
C1605 C1606 1.410 . S
C1605 C1607 1.345 . S
C1606 C1605 1.410 . S
C1606 C1608 1.417 1_554 S
C1606 C1638 1.432 1_554 S
C1607 H1593 0.930 . S
C1607 C1604 1.407 . S
C1607 C1605 1.345 . S
C1608 N1603 1.360 1_556 S
C1608 C1606 1.417 1_556 S
C1608 C1612 1.432 . S
H1609 C1614 0.930 . S
N1610 Tb1572 2.600 . S
N1610 C1612 1.359 . S
N1610 C1613 1.327 . S
C1611 H1597 0.931 . S
C1611 C1613 1.392 . S
C1611 C1614 1.370 . S
C1612 C1608 1.432 . S
C1612 N1610 1.359 . S
C1612 C1615 1.414 . S
C1613 H1595 0.930 . S
C1613 N1610 1.327 . S
C1613 C1611 1.392 . S
C1614 H1609 0.930 . S
C1614 C1611 1.370 . S
C1614 C1615 1.385 . S
C1615 C1612 1.414 . S
C1615 C1614 1.385 . S
C1615 C1637 1.444 . S
O1616 Tb1572 2.546 . S
O1616 C1636 1.251 . S
O1617 Tb1572 2.610 1_554 S
O1617 Tb1583 2.362 . S
O1617 C1628 1.283 . S
O1618 Tb1583 2.421 . S
O1618 C1635 1.262 . S
O1619 Tb1572 2.320 1_554 S
O1619 C1635 1.260 . S
O1620 Tb1572 2.552 . S
O1620 C1628 1.243 1_556 S
O1621 Tb1572 2.413 1_554 S
O1621 C1636 1.256 1_554 S
O1622 Tb1583 2.546 . S
O1622 C1647 1.251 1_455 S
O1623 Tb1572 2.362 1_554 S
O1623 Tb1583 2.610 . S
O1623 C1639 1.283 . S
O1624 Tb1572 2.421 . S
O1624 C1646 1.262 . S
O1625 Tb1583 2.320 1_556 S
O1625 C1646 1.260 . S
O1626 Tb1583 2.552 . S
O1626 C1639 1.243 . S
O1627 Tb1583 2.413 1_655 S
O1627 C1647 1.256 . S
C1628 O1617 1.283 . S
C1628 O1620 1.243 1_554 S
C1629 C1631 1.382 . S
C1629 C1633 1.393 . S
C1629 C1636 1.500 . S
C1630 C1631 1.400 . S
C1630 C1632 1.384 . S
C1631 C1629 1.382 . S
C1631 C1630 1.400 . S
C1631 H1648 0.930 1_556 S
C1632 C1630 1.384 . S
C1632 C1634 1.392 . S
C1632 H1649 0.931 . S
C1633 C1629 1.393 . S
C1633 C1634 1.401 . S
C1633 H1650 0.930 . S
C1634 C1632 1.392 . S
C1634 C1633 1.401 . S
C1634 H1651 0.930 . S
C1635 O1618 1.262 . S
C1635 O1619 1.260 . S
C1636 Tb1572 2.833 . S
C1636 O1616 1.251 . S
C1636 O1621 1.256 1_556 S
C1636 C1629 1.500 . S
C1637 H1602 0.929 . S
C1637 C1615 1.444 . S
C1637 C1638 1.317 . S
C1638 H1600 0.930 . S
C1638 C1606 1.432 1_556 S
C1638 C1637 1.317 . S
C1639 O1623 1.283 . S
C1639 O1626 1.243 . S
C1640 C1641 1.382 . S
C1640 C1644 1.393 . S
C1640 C1647 1.500 . S
C1641 C1640 1.382 . S
C1641 C1642 1.400 . S
C1641 H1652 0.930 . S
C1642 C1641 1.400 . S
C1642 C1643 1.384 . S
C1643 C1642 1.384 . S
C1643 C1645 1.392 . S
C1643 H1653 0.931 . S
C1644 C1640 1.393 . S
C1644 C1645 1.401 . S
C1644 H1654 0.930 . S
C1645 C1643 1.392 . S
C1645 C1644 1.401 . S
C1645 H1655 0.930 . S
C1646 O1624 1.262 . S
C1646 O1625 1.260 . S
C1647 Tb1583 2.833 1_655 S
C1647 O1622 1.251 1_655 S
C1647 O1627 1.256 . S
C1647 C1640 1.500 . S
H1648 C1631 0.930 1_554 S
H1649 C1632 0.931 . S
H1650 C1633 0.930 . S
H1651 C1634 0.930 . S
H1652 C1641 0.930 . S
H1653 C1643 0.931 . S
H1654 C1644 0.930 . S
H1655 C1645 0.930 . S
C1656 C1657 1.369 1_554 S
C1656 C1658 1.419 . S
C1656 H1660 0.930 . S
C1657 C1656 1.369 1_556 S
C1657 C1666 1.429 . S
C1658 C1656 1.419 . S
C1658 C1659 1.363 . S
C1658 H1661 0.929 . S
C1659 C1658 1.363 . S
C1659 C1665 1.428 1_554 S
H1660 C1656 0.930 . S
H1661 C1658 0.929 . S
S1662 N1663 1.613 . S
S1662 N1664 1.610 . S
N1663 S1662 1.613 . S
N1663 C1666 1.350 1_655 S
N1664 S1662 1.610 . S
N1664 C1665 1.351 1_655 S
C1665 C1659 1.428 1_556 S
C1665 N1664 1.351 1_455 S
C1665 C1666 1.434 . S
C1666 C1657 1.429 . S
C1666 N1663 1.350 1_455 S
C1666 C1665 1.434 . S
C1667 C1668 1.369 . S
C1667 C1669 1.419 . S
C1667 H1671 0.930 . S
C1668 C1667 1.369 . S
C1668 C1677 1.429 . S
C1669 C1667 1.419 . S
C1669 C1670 1.363 . S
C1669 H1672 0.929 . S
C1670 C1669 1.363 . S
C1670 C1676 1.428 . S
H1671 C1667 0.930 . S
H1672 C1669 0.929 . S
S1673 N1674 1.613 . S
S1673 N1675 1.610 . S
N1674 S1673 1.613 . S
N1674 C1677 1.350 . S
N1675 S1673 1.610 . S
N1675 C1676 1.351 . S
C1676 C1670 1.428 . S
C1676 N1675 1.351 . S
C1676 C1677 1.434 . S
C1677 C1668 1.429 . S
C1677 N1674 1.350 . S
C1677 C1676 1.434 . S
C1678 C1679 1.369 . S
C1678 C1680 1.419 . S
C1678 H1682 0.930 . S
C1679 C1678 1.369 . S
C1679 C1688 1.429 . S
C1680 C1678 1.419 . S
C1680 C1681 1.363 . S
C1680 H1683 0.929 . S
C1681 C1680 1.363 . S
C1681 C1687 1.428 . S
H1682 C1678 0.930 . S
H1683 C1680 0.929 . S
S1684 N1685 1.613 . S
S1684 N1686 1.610 . S
N1685 S1684 1.613 . S
N1685 C1688 1.350 . S
N1686 S1684 1.610 . S
N1686 C1687 1.351 . S
C1687 C1681 1.428 . S
C1687 N1686 1.351 . S
C1687 C1688 1.434 . S
C1688 C1679 1.429 . S
C1688 N1685 1.350 . S
C1688 C1687 1.434 . S
C1689 C1690 1.369 . S
C1689 C1691 1.419 . S
C1689 H1693 0.930 . S
C1690 C1689 1.369 . S
C1690 C1699 1.429 . S
C1691 C1689 1.419 . S
C1691 C1692 1.363 . S
C1691 H1694 0.929 . S
C1692 C1691 1.363 . S
C1692 C1698 1.428 . S
H1693 C1689 0.930 . S
H1694 C1691 0.929 . S
S1695 N1696 1.613 . S
S1695 N1697 1.610 . S
N1696 S1695 1.613 . S
N1696 C1699 1.350 . S
N1697 S1695 1.610 . S
N1697 C1698 1.351 . S
C1698 C1692 1.428 . S
C1698 N1697 1.351 . S
C1698 C1699 1.434 . S
C1699 C1690 1.429 . S
C1699 N1696 1.350 . S
C1699 C1698 1.434 . S
C1700 C1701 1.369 . S
C1700 C1702 1.419 . S
C1700 H1704 0.930 1_455 S
C1701 C1700 1.369 . S
C1701 C1710 1.429 . S
C1702 C1700 1.419 . S
C1702 C1703 1.363 . S
C1702 H1705 0.929 . S
C1703 C1702 1.363 . S
C1703 C1709 1.428 . S
H1704 C1700 0.930 1_655 S
H1705 C1702 0.929 . S
S1706 N1707 1.613 . S
S1706 N1708 1.610 . S
N1707 S1706 1.613 . S
N1707 C1710 1.350 . S
N1708 S1706 1.610 . S
N1708 C1709 1.351 . S
C1709 C1703 1.428 . S
C1709 N1708 1.351 . S
C1709 C1710 1.434 . S
C1710 C1701 1.429 . S
C1710 N1707 1.350 . S
C1710 C1709 1.434 . S
C1711 C1712 1.369 . S
C1711 C1713 1.419 . S
C1711 H1715 0.930 . S
C1712 C1711 1.369 . S
C1712 C1721 1.429 . S
C1713 C1711 1.419 . S
C1713 C1714 1.363 . S
C1713 H1716 0.929 . S
C1714 C1713 1.363 . S
C1714 C1720 1.428 . S
H1715 C1711 0.930 . S
H1716 C1713 0.929 . S
S1717 N1718 1.613 . S
S1717 N1719 1.610 . S
N1718 S1717 1.613 . S
N1718 C1721 1.350 . S
N1719 S1717 1.610 . S
N1719 C1720 1.351 . S
C1720 C1714 1.428 . S
C1720 N1719 1.351 . S
C1720 C1721 1.434 . S
C1721 C1712 1.429 . S
C1721 N1718 1.350 . S
C1721 C1720 1.434 . S
C1722 C1723 1.369 . S
C1722 C1724 1.419 . S
C1722 H1726 0.930 . S
C1723 C1722 1.369 . S
C1723 C1732 1.429 . S
C1724 C1722 1.419 . S
C1724 C1725 1.363 . S
C1724 H1727 0.929 . S
C1725 C1724 1.363 . S
C1725 C1731 1.428 . S
H1726 C1722 0.930 . S
H1727 C1724 0.929 . S
S1728 N1729 1.613 . S
S1728 N1730 1.610 . S
N1729 S1728 1.613 . S
N1729 C1732 1.350 . S
N1730 S1728 1.610 . S
N1730 C1731 1.351 . S
C1731 C1725 1.428 . S
C1731 N1730 1.351 . S
C1731 C1732 1.434 . S
C1732 C1723 1.429 . S
C1732 N1729 1.350 . S
C1732 C1731 1.434 . S
C1733 C1734 1.369 . S
C1733 C1735 1.419 . S
C1733 H1737 0.930 . S
C1734 C1733 1.369 . S
C1734 C1743 1.429 . S
C1735 C1733 1.419 . S
C1735 C1736 1.363 . S
C1735 H1738 0.929 . S
C1736 C1735 1.363 . S
C1736 C1742 1.428 . S
H1737 C1733 0.930 . S
H1738 C1735 0.929 . S
S1739 N1740 1.613 . S
S1739 N1741 1.610 . S
N1740 S1739 1.613 . S
N1740 C1743 1.350 . S
N1741 S1739 1.610 . S
N1741 C1742 1.351 . S
C1742 C1736 1.428 . S
C1742 N1741 1.351 . S
C1742 C1743 1.434 . S
C1743 C1734 1.429 . S
C1743 N1740 1.350 . S
C1743 C1742 1.434 . S
C1744 C1745 1.369 . S
C1744 C1746 1.419 . S
C1744 H1748 0.930 . S
C1745 C1744 1.369 . S
C1745 C1754 1.429 1_455 S
C1746 C1744 1.419 . S
C1746 C1747 1.363 . S
C1746 H1749 0.929 . S
C1747 C1746 1.363 . S
C1747 C1753 1.428 . S
H1748 C1744 0.930 . S
H1749 C1746 0.929 . S
S1750 N1751 1.613 1_565 S
S1750 N1752 1.606 1_665 S
N1751 S1750 1.613 1_545 S
N1751 C1754 1.350 . S
N1752 S1750 1.606 1_445 S
N1752 C1753 1.351 . S
C1753 C1747 1.428 . S
C1753 N1752 1.351 . S
C1753 C1754 1.434 1_455 S
C1754 C1745 1.429 1_655 S
C1754 N1751 1.350 . S
C1754 C1753 1.434 1_655 S
C1755 C1756 1.369 . S
C1755 C1757 1.419 . S
C1755 H1759 0.930 . S
C1756 C1755 1.369 . S
C1756 C1765 1.429 . S
C1757 C1755 1.419 . S
C1757 C1758 1.363 . S
C1757 H1760 0.929 . S
C1758 C1757 1.363 . S
C1758 C1764 1.428 . S
H1759 C1755 0.930 . S
H1760 C1757 0.929 . S
S1761 N1762 1.613 . S
S1761 N1763 1.610 . S
N1762 S1761 1.613 . S
N1762 C1765 1.350 . S
N1763 S1761 1.610 . S
N1763 C1764 1.351 . S
C1764 C1758 1.428 . S
C1764 N1763 1.351 . S
C1764 C1765 1.434 . S
C1765 C1756 1.429 . S
C1765 N1762 1.350 . S
C1765 C1764 1.434 . S
C1766 C1767 1.369 . S
C1766 C1768 1.419 . S
C1766 H1770 0.930 . S
C1767 C1766 1.369 . S
C1767 C1776 1.429 . S
C1768 C1766 1.419 . S
C1768 C1769 1.363 . S
C1768 H1771 0.929 . S
C1769 C1768 1.363 . S
C1769 C1775 1.428 . S
H1770 C1766 0.930 . S
H1771 C1768 0.929 . S
S1772 N1773 1.613 . S
S1772 N1774 1.610 . S
N1773 S1772 1.613 . S
N1773 C1776 1.350 1_565 S
N1774 S1772 1.610 . S
N1774 C1775 1.351 1_565 S
C1775 C1769 1.428 . S
C1775 N1774 1.351 1_545 S
C1775 C1776 1.434 . S
C1776 C1767 1.429 . S
C1776 N1773 1.350 1_545 S
C1776 C1775 1.434 . S
C1777 C1778 1.369 . S
C1777 C1779 1.419 . S
C1777 H1781 0.930 . S
C1778 C1777 1.369 . S
C1778 C1787 1.429 . S
C1779 C1777 1.419 . S
C1779 C1780 1.363 . S
C1779 H1782 0.929 . S
C1780 C1779 1.363 . S
C1780 C1786 1.428 . S
H1781 C1777 0.930 . S
H1782 C1779 0.929 . S
S1783 N1784 1.613 . S
S1783 N1785 1.610 . S
N1784 S1783 1.613 . S
N1784 C1787 1.350 . S
N1785 S1783 1.610 . S
N1785 C1786 1.351 . S
C1786 C1780 1.428 . S
C1786 N1785 1.351 . S
C1786 C1787 1.434 . S
C1787 C1778 1.429 . S
C1787 N1784 1.350 . S
C1787 C1786 1.434 . S
C1788 C1789 1.369 1_655 S
C1788 C1790 1.419 1_655 S
C1788 H1792 0.930 . S
C1789 C1788 1.369 1_455 S
C1789 C1798 1.429 . S
C1790 C1788 1.419 1_455 S
C1790 C1791 1.363 . S
C1790 H1793 0.929 1_455 S
C1791 C1790 1.363 . S
C1791 C1797 1.428 . S
H1792 C1788 0.930 . S
H1793 C1790 0.929 1_655 S
S1794 N1795 1.613 . S
S1794 N1796 1.610 . S
N1795 S1794 1.613 . S
N1795 C1798 1.350 . S
N1796 S1794 1.610 . S
N1796 C1797 1.351 . S
C1797 C1791 1.428 . S
C1797 N1796 1.351 . S
C1797 C1798 1.434 . S
C1798 C1789 1.429 . S
C1798 N1795 1.350 . S
C1798 C1797 1.434 . S
C1799 C1800 1.369 . S
C1799 C1801 1.419 . S
C1799 H1803 0.930 . S
C1800 C1799 1.369 . S
C1800 C1809 1.429 . S
C1801 C1799 1.419 . S
C1801 C1802 1.363 . S
C1801 H1804 0.929 . S
C1802 C1801 1.363 . S
C1802 C1808 1.428 . S
H1803 C1799 0.930 . S
H1804 C1801 0.929 . S
S1805 N1806 1.613 . S
S1805 N1807 1.610 . S
N1806 S1805 1.613 . S
N1806 C1809 1.350 . S
N1807 S1805 1.610 . S
N1807 C1808 1.351 . S
C1808 C1802 1.428 . S
C1808 N1807 1.351 . S
C1808 C1809 1.434 . S
C1809 C1800 1.429 . S
C1809 N1806 1.350 . S
C1809 C1808 1.434 . S
C1810 C1811 1.369 . S
C1810 C1812 1.419 . S
C1810 H1814 0.930 . S
C1811 C1810 1.369 . S
C1811 C1820 1.429 . S
C1812 C1810 1.419 . S
C1812 C1813 1.363 . S
C1812 H1815 0.929 . S
C1813 C1812 1.363 . S
C1813 C1819 1.428 . S
H1814 C1810 0.930 . S
H1815 C1812 0.929 . S
S1816 N1817 1.613 . S
S1816 N1818 1.610 . S
N1817 S1816 1.613 . S
N1817 C1820 1.350 . S
N1818 S1816 1.610 . S
N1818 C1819 1.351 . S
C1819 C1813 1.428 . S
C1819 N1818 1.351 . S
C1819 C1820 1.434 . S
C1820 C1811 1.429 . S
C1820 N1817 1.350 . S
C1820 C1819 1.434 . S
C1821 C1822 1.369 . S
C1821 C1823 1.419 . S
C1821 H1825 0.930 . S
C1822 C1821 1.369 . S
C1822 C1831 1.429 . S
C1823 C1821 1.419 . S
C1823 C1824 1.363 . S
C1823 H1826 0.929 . S
C1824 C1823 1.363 . S
C1824 C1830 1.428 . S
H1825 C1821 0.930 . S
H1826 C1823 0.929 . S
S1827 N1828 1.613 . S
S1827 N1829 1.610 . S
N1828 S1827 1.613 . S
N1828 C1831 1.350 . S
N1829 S1827 1.610 . S
N1829 C1830 1.351 . S
C1830 C1824 1.428 . S
C1830 N1829 1.351 . S
C1830 C1831 1.434 . S
C1831 C1822 1.429 . S
C1831 N1828 1.350 . S
C1831 C1830 1.434 . S
C1832 C1833 1.369 1_546 S
C1832 C1834 1.408 1_556 S
C1832 H1836 0.930 . S
C1833 C1832 1.369 1_564 S
C1833 C1842 1.429 . S
C1834 C1832 1.408 1_554 S
C1834 C1835 1.397 . S
C1834 H1837 0.906 1_554 S
C1835 C1834 1.397 . S
C1835 C1841 1.428 1_545 S
H1836 C1832 0.930 . S
H1837 C1834 0.906 1_556 S
S1838 N1839 1.613 . S
S1838 N1840 1.610 . S
N1839 S1838 1.613 . S
N1839 C1842 1.350 . S
N1840 S1838 1.610 . S
N1840 C1841 1.351 . S
C1841 C1835 1.428 1_565 S
C1841 N1840 1.351 . S
C1841 C1842 1.434 . S
C1842 C1833 1.429 . S
C1842 N1839 1.350 . S
C1842 C1841 1.434 . S
C1843 C1844 1.372 . S
C1843 C1845 1.408 1_556 S
C1843 H1847 0.930 1_556 S
C1844 C1843 1.372 . S
C1844 C1853 1.429 . S
C1845 C1843 1.408 1_554 S
C1845 C1846 1.366 1_554 S
C1845 H1848 0.937 . S
C1846 C1845 1.366 1_556 S
C1846 C1852 1.428 . S
H1847 C1843 0.930 1_554 S
H1848 C1845 0.937 . S
S1849 N1850 1.613 . S
S1849 N1851 1.610 . S
N1850 S1849 1.613 . S
N1850 C1853 1.350 . S
N1851 S1849 1.610 . S
N1851 C1852 1.351 . S
C1852 C1846 1.428 . S
C1852 N1851 1.351 . S
C1852 C1853 1.434 . S
C1853 C1844 1.429 . S
C1853 N1850 1.350 . S
C1853 C1852 1.434 . S
C1854 C1855 1.369 . S
C1854 C1856 1.419 . S
C1854 H1858 0.930 . S
C1855 C1854 1.369 . S
C1855 C1864 1.429 . S
C1856 C1854 1.419 . S
C1856 C1857 1.363 . S
C1856 H1859 0.929 . S
C1857 C1856 1.363 . S
C1857 C1863 1.428 . S
H1858 C1854 0.930 . S
H1859 C1856 0.929 . S
S1860 N1861 1.613 . S
S1860 N1862 1.610 . S
N1861 S1860 1.613 . S
N1861 C1864 1.350 . S
N1862 S1860 1.610 . S
N1862 C1863 1.351 . S
C1863 C1857 1.428 . S
C1863 N1862 1.351 . S
C1863 C1864 1.434 . S
C1864 C1855 1.429 . S
C1864 N1861 1.350 . S
C1864 C1863 1.434 . S
C1865 C1866 1.369 . S
C1865 C1867 1.419 . S
C1865 H1869 0.930 . S
C1866 C1865 1.369 . S
C1866 C1875 1.429 . S
C1867 C1865 1.419 . S
C1867 C1868 1.363 1_655 S
C1867 H1870 0.909 1_655 S
C1868 C1867 1.363 1_455 S
C1868 C1874 1.428 1_455 S
H1869 C1865 0.930 . S
H1870 C1867 0.909 1_455 S
S1871 N1872 1.613 . S
S1871 N1873 1.610 . S
N1872 S1871 1.613 . S
N1872 C1875 1.350 . S
N1873 S1871 1.610 . S
N1873 C1874 1.351 . S
C1874 C1868 1.428 1_655 S
C1874 N1873 1.351 . S
C1874 C1875 1.434 . S
C1875 C1866 1.429 . S
C1875 N1872 1.350 . S
C1875 C1874 1.434 . S
C1876 C1877 1.369 . S
C1876 C1878 1.419 . S
C1876 H1880 0.930 . S
C1877 C1876 1.369 . S
C1877 C1886 1.429 . S
C1878 C1876 1.419 . S
C1878 C1879 1.363 . S
C1878 H1881 0.929 . S
C1879 C1878 1.363 . S
C1879 C1885 1.428 . S
H1880 C1876 0.930 . S
H1881 C1878 0.929 . S
S1882 N1883 1.613 . S
S1882 N1884 1.610 . S
N1883 S1882 1.613 . S
N1883 C1886 1.350 . S
N1884 S1882 1.610 . S
N1884 C1885 1.351 . S
C1885 C1879 1.428 . S
C1885 N1884 1.351 . S
C1885 C1886 1.434 . S
C1886 C1877 1.429 . S
C1886 N1883 1.350 . S
C1886 C1885 1.434 . S
C1887 C1888 1.369 . S
C1887 C1889 1.419 . S
C1887 H1891 0.930 . S
C1888 C1887 1.369 . S
C1888 C1897 1.429 . S
C1889 C1887 1.419 . S
C1889 C1890 1.363 . S
C1889 H1892 0.929 . S
C1890 C1889 1.363 . S
C1890 C1896 1.428 . S
H1891 C1887 0.930 . S
H1892 C1889 0.929 . S
S1893 N1894 1.613 . S
S1893 N1895 1.610 . S
N1894 S1893 1.613 . S
N1894 C1897 1.350 . S
N1895 S1893 1.610 . S
N1895 C1896 1.351 . S
C1896 C1890 1.428 . S
C1896 N1895 1.351 . S
C1896 C1897 1.434 . S
C1897 C1888 1.429 . S
C1897 N1894 1.350 . S
C1897 C1896 1.434 . S
C1898 C1899 1.369 . S
C1898 C1900 1.419 . S
C1898 H1902 0.930 . S
C1899 C1898 1.369 . S
C1899 C1908 1.429 . S
C1900 C1898 1.419 . S
C1900 C1901 1.363 . S
C1900 H1903 0.929 . S
C1901 C1900 1.363 . S
C1901 C1907 1.428 . S
H1902 C1898 0.930 . S
H1903 C1900 0.929 . S
S1904 N1905 1.613 . S
S1904 N1906 1.610 . S
N1905 S1904 1.613 . S
N1905 C1908 1.350 . S
N1906 S1904 1.610 . S
N1906 C1907 1.351 . S
C1907 C1901 1.428 . S
C1907 N1906 1.351 . S
C1907 C1908 1.434 . S
C1908 C1899 1.429 . S
C1908 N1905 1.350 . S
C1908 C1907 1.434 . S
C1909 C1910 1.369 . S
C1909 C1911 1.419 . S
C1909 H1913 0.930 . S
C1910 C1909 1.369 . S
C1910 C1919 1.429 . S
C1911 C1909 1.419 . S
C1911 C1912 1.363 . S
C1911 H1914 0.929 . S
C1912 C1911 1.363 . S
C1912 C1918 1.428 . S
H1913 C1909 0.930 . S
H1914 C1911 0.929 . S
S1915 N1916 1.613 . S
S1915 N1917 1.610 . S
N1916 S1915 1.613 . S
N1916 C1919 1.350 . S
N1917 S1915 1.610 . S
N1917 C1918 1.351 . S
C1918 C1912 1.428 . S
C1918 N1917 1.351 . S
C1918 C1919 1.434 . S
C1919 C1910 1.429 . S
C1919 N1916 1.350 . S
C1919 C1918 1.434 . S
C1920 C1921 1.369 . S
C1920 C1922 1.419 . S
C1920 H1924 0.930 . S
C1921 C1920 1.369 . S
C1921 C1930 1.429 . S
C1922 C1920 1.419 . S
C1922 C1923 1.363 . S
C1922 H1925 0.929 . S
C1923 C1922 1.363 . S
C1923 C1929 1.428 . S
H1924 C1920 0.930 . S
H1925 C1922 0.929 . S
S1926 N1927 1.613 1_556 S
S1926 N1928 1.610 . S
N1927 S1926 1.613 1_554 S
N1927 C1930 1.350 . S
N1928 S1926 1.610 . S
N1928 C1929 1.351 1_556 S
C1929 C1923 1.428 . S
C1929 N1928 1.351 1_554 S
C1929 C1930 1.434 . S
C1930 C1921 1.429 . S
C1930 N1927 1.350 . S
C1930 C1929 1.434 . S
C1931 C1932 1.369 . S
C1931 C1933 1.419 . S
C1931 H1935 0.930 . S
C1932 C1931 1.369 . S
C1932 C1941 1.429 . S
C1933 C1931 1.419 . S
C1933 C1934 1.363 . S
C1933 H1936 0.929 . S
C1934 C1933 1.363 . S
C1934 C1940 1.428 . S
H1935 C1931 0.930 . S
H1936 C1933 0.929 . S
S1937 N1938 1.613 . S
S1937 N1939 1.610 . S
N1938 S1937 1.613 . S
N1938 C1941 1.350 . S
N1939 S1937 1.610 . S
N1939 C1940 1.351 . S
C1940 C1934 1.428 . S
C1940 N1939 1.351 . S
C1940 C1941 1.434 . S
C1941 C1932 1.429 . S
C1941 N1938 1.350 . S
C1941 C1940 1.434 . S
C1942 C1943 1.369 . S
C1942 C1944 1.419 . S
C1942 H1946 0.930 . S
C1943 C1942 1.369 . S
C1943 C1952 1.429 . S
C1944 C1942 1.419 . S
C1944 C1945 1.363 . S
C1944 H1947 0.929 . S
C1945 C1944 1.363 . S
C1945 C1951 1.428 . S
H1946 C1942 0.930 . S
H1947 C1944 0.929 . S
S1948 N1949 1.613 . S
S1948 N1950 1.610 . S
N1949 S1948 1.613 . S
N1949 C1952 1.350 . S
N1950 S1948 1.610 . S
N1950 C1951 1.351 . S
C1951 C1945 1.428 . S
C1951 N1950 1.351 . S
C1951 C1952 1.434 . S
C1952 C1943 1.429 . S
C1952 N1949 1.350 . S
C1952 C1951 1.434 . S
C1953 C1954 1.369 . S
C1953 C1955 1.419 . S
C1953 H1957 0.930 . S
C1954 C1953 1.369 . S
C1954 C1963 1.429 . S
C1955 C1953 1.419 . S
C1955 C1956 1.363 . S
C1955 H1958 0.929 . S
C1956 C1955 1.363 . S
C1956 C1962 1.428 . S
H1957 C1953 0.930 . S
H1958 C1955 0.929 . S
S1959 N1960 1.613 . S
S1959 N1961 1.610 . S
N1960 S1959 1.613 . S
N1960 C1963 1.350 . S
N1961 S1959 1.610 . S
N1961 C1962 1.351 . S
C1962 C1956 1.428 . S
C1962 N1961 1.351 . S
C1962 C1963 1.434 . S
C1963 C1954 1.429 . S
C1963 N1960 1.350 . S
C1963 C1962 1.434 . S
C1964 C1965 1.369 . S
C1964 C1966 1.419 . S
C1964 H1968 0.930 . S
C1965 C1964 1.369 . S
C1965 C1974 1.429 . S
C1966 C1964 1.419 . S
C1966 C1967 1.363 . S
C1966 H1969 0.929 . S
C1967 C1966 1.363 . S
C1967 C1973 1.428 . S
H1968 C1964 0.930 . S
H1969 C1966 0.929 . S
S1970 N1971 1.613 . S
S1970 N1972 1.610 . S
N1971 S1970 1.613 . S
N1971 C1974 1.350 . S
N1972 S1970 1.610 . S
N1972 C1973 1.351 . S
C1973 C1967 1.428 . S
C1973 N1972 1.351 . S
C1973 C1974 1.434 . S
C1974 C1965 1.429 . S
C1974 N1971 1.350 . S
C1974 C1973 1.434 . S
C1975 C1976 1.369 . S
C1975 C1977 1.419 . S
C1975 H1979 0.930 . S
C1976 C1975 1.369 . S
C1976 C1985 1.429 . S
C1977 C1975 1.419 . S
C1977 C1978 1.363 . S
C1977 H1980 0.929 . S
C1978 C1977 1.363 . S
C1978 C1984 1.428 . S
H1979 C1975 0.930 . S
H1980 C1977 0.929 . S
S1981 N1982 1.613 . S
S1981 N1983 1.610 . S
N1982 S1981 1.613 . S
N1982 C1985 1.350 . S
N1983 S1981 1.610 . S
N1983 C1984 1.351 . S
C1984 C1978 1.428 . S
C1984 N1983 1.351 . S
C1984 C1985 1.434 . S
C1985 C1976 1.429 . S
C1985 N1982 1.350 . S
C1985 C1984 1.434 . S
C1986 C1987 1.369 . S
C1986 C1988 1.419 . S
C1986 H1990 0.930 . S
C1987 C1986 1.369 . S
C1987 C1996 1.429 . S
C1988 C1986 1.419 . S
C1988 C1989 1.363 . S
C1988 H1991 0.952 . S
C1989 C1988 1.363 . S
C1989 C1995 1.428 . S
H1990 C1986 0.930 . S
H1991 C1988 0.952 . S
S1992 N1993 1.613 . S
S1992 N1994 1.610 . S
N1993 S1992 1.613 . S
N1993 C1996 1.350 . S
N1994 S1992 1.610 . S
N1994 C1995 1.351 . S
C1995 C1989 1.428 . S
C1995 N1994 1.351 . S
C1995 C1996 1.434 . S
C1996 C1987 1.429 . S
C1996 N1993 1.350 . S
C1996 C1995 1.434 . S
C1997 C1998 1.369 . S
C1997 C1999 1.419 . S
C1997 H2001 0.930 . S
C1998 C1997 1.369 . S
C1998 C2007 1.429 . S
C1999 C1997 1.419 . S
C1999 C2000 1.363 . S
C1999 H2002 0.929 . S
C2000 C1999 1.363 . S
C2000 C2006 1.428 . S
H2001 C1997 0.930 . S
H2002 C1999 0.929 . S
S2003 N2004 1.613 . S
S2003 N2005 1.610 . S
N2004 S2003 1.613 . S
N2004 C2007 1.350 . S
N2005 S2003 1.610 . S
N2005 C2006 1.351 . S
C2006 C2000 1.428 . S
C2006 N2005 1.351 . S
C2006 C2007 1.434 . S
C2007 C1998 1.429 . S
C2007 N2004 1.350 . S
C2007 C2006 1.434 . S
C2008 C2009 1.369 1_565 S
C2008 C2010 1.419 . S
C2008 H2012 0.930 . S
C2009 C2008 1.369 1_545 S
C2009 C2018 1.429 . S
C2010 C2008 1.419 . S
C2010 C2011 1.363 1_565 S
C2010 H2013 0.929 . S
C2011 C2010 1.363 1_545 S
C2011 C2017 1.428 . S
H2012 C2008 0.930 . S
H2013 C2010 0.929 . S
S2014 N2015 1.613 . S
S2014 N2016 1.610 . S
N2015 S2014 1.613 . S
N2015 C2018 1.350 . S
N2016 S2014 1.610 . S
N2016 C2017 1.351 . S
C2017 C2011 1.428 . S
C2017 N2016 1.351 . S
C2017 C2018 1.434 . S
C2018 C2009 1.429 . S
C2018 N2015 1.350 . S
C2018 C2017 1.434 . S
C2019 C2020 1.369 . S
C2019 C2021 1.419 . S
C2019 H2023 0.930 . S
C2020 C2019 1.369 . S
C2020 C2029 1.429 . S
C2021 C2019 1.419 . S
C2021 C2022 1.363 . S
C2021 H2024 0.929 . S
C2022 C2021 1.363 . S
C2022 C2028 1.428 . S
H2023 C2019 0.930 . S
H2024 C2021 0.929 . S
S2025 N2026 1.613 . S
S2025 N2027 1.610 . S
N2026 S2025 1.613 . S
N2026 C2029 1.350 . S
N2027 S2025 1.610 . S
N2027 C2028 1.351 . S
C2028 C2022 1.428 . S
C2028 N2027 1.351 . S
C2028 C2029 1.434 . S
C2029 C2020 1.429 . S
C2029 N2026 1.350 . S
C2029 C2028 1.434 . S
C2030 C2031 1.369 . S
C2030 C2032 1.419 . S
C2030 H2034 0.930 . S
C2031 C2030 1.369 . S
C2031 C2040 1.434 . S
C2032 C2030 1.419 . S
C2032 C2033 1.363 . S
C2032 H2035 0.929 . S
C2033 C2032 1.363 . S
C2033 C2039 1.428 . S
H2034 C2030 0.930 . S
H2035 C2032 0.929 . S
S2036 N2037 1.613 . S
S2036 N2038 1.610 . S
N2037 S2036 1.613 . S
N2037 C2040 1.345 1_565 S
N2038 S2036 1.610 . S
N2038 C2039 1.351 1_565 S
C2039 C2033 1.428 . S
C2039 N2038 1.351 1_545 S
C2039 C2040 1.433 . S
C2040 C2031 1.434 . S
C2040 N2037 1.345 1_545 S
C2040 C2039 1.433 . S
C2041 C2042 1.369 . S
C2041 C2043 1.419 . S
C2041 H2045 0.930 . S
C2042 C2041 1.369 . S
C2042 C2051 1.429 . S
C2043 C2041 1.419 . S
C2043 C2044 1.363 . S
C2043 H2046 0.929 . S
C2044 C2043 1.363 . S
C2044 C2050 1.428 . S
H2045 C2041 0.930 . S
H2046 C2043 0.929 . S
S2047 N2048 1.613 . S
S2047 N2049 1.610 . S
N2048 S2047 1.613 . S
N2048 C2051 1.350 . S
N2049 S2047 1.610 . S
N2049 C2050 1.351 . S
C2050 C2044 1.428 . S
C2050 N2049 1.351 . S
C2050 C2051 1.434 . S
C2051 C2042 1.429 . S
C2051 N2048 1.350 . S
C2051 C2050 1.434 . S
C2052 C2053 1.369 1_545 S
C2052 C2054 1.419 . S
C2052 H2056 0.930 . S
C2053 C2052 1.369 1_565 S
C2053 C2062 1.429 . S
C2054 C2052 1.419 . S
C2054 C2055 1.363 . S
C2054 H2057 0.929 . S
C2055 C2054 1.363 . S
C2055 C2061 1.428 1_545 S
H2056 C2052 0.930 . S
H2057 C2054 0.929 . S
S2058 N2059 1.613 . S
S2058 N2060 1.610 . S
N2059 S2058 1.613 . S
N2059 C2062 1.350 . S
N2060 S2058 1.610 . S
N2060 C2061 1.351 . S
C2061 C2055 1.428 1_565 S
C2061 N2060 1.351 . S
C2061 C2062 1.434 . S
C2062 C2053 1.429 . S
C2062 N2059 1.350 . S
C2062 C2061 1.434 . S
C2063 C2064 1.369 . S
C2063 C2065 1.419 . S
C2063 H2067 0.930 . S
C2064 C2063 1.369 . S
C2064 C2073 1.429 . S
C2065 C2063 1.419 . S
C2065 C2066 1.363 . S
C2065 H2068 0.929 . S
C2066 C2065 1.363 . S
C2066 C2072 1.428 . S
H2067 C2063 0.930 . S
H2068 C2065 0.929 . S
S2069 N2070 1.613 . S
S2069 N2071 1.610 . S
N2070 S2069 1.613 . S
N2070 C2073 1.350 . S
N2071 S2069 1.610 . S
N2071 C2072 1.351 . S
C2072 C2066 1.428 . S
C2072 N2071 1.351 . S
C2072 C2073 1.434 . S
C2073 C2064 1.429 . S
C2073 N2070 1.350 . S
C2073 C2072 1.434 . S
C2074 C2075 1.369 . S
C2074 C2076 1.419 . S
C2074 H2078 0.930 . S
C2075 C2074 1.369 . S
C2075 C2084 1.429 1_565 S
C2076 C2074 1.419 . S
C2076 C2077 1.363 1_565 S
C2076 H2079 0.929 . S
C2077 C2076 1.363 1_545 S
C2077 C2083 1.428 . S
H2078 C2074 0.930 . S
H2079 C2076 0.929 . S
S2080 N2081 1.613 . S
S2080 N2082 1.610 . S
N2081 S2080 1.613 . S
N2081 C2084 1.350 . S
N2082 S2080 1.610 . S
N2082 C2083 1.351 . S
C2083 C2077 1.428 . S
C2083 N2082 1.351 . S
C2083 C2084 1.434 . S
C2084 C2075 1.429 1_545 S
C2084 N2081 1.350 . S
C2084 C2083 1.434 . S
C2085 C2086 1.369 . S
C2085 C2087 1.419 . S
C2085 H2089 0.930 . S
C2086 C2085 1.369 . S
C2086 C2095 1.429 . S
C2087 C2085 1.419 . S
C2087 C2088 1.363 . S
C2087 H2090 0.929 . S
C2088 C2087 1.363 . S
C2088 C2094 1.428 . S
H2089 C2085 0.930 . S
H2090 C2087 0.929 . S
S2091 N2092 1.613 . S
S2091 N2093 1.610 . S
N2092 S2091 1.613 . S
N2092 C2095 1.350 . S
N2093 S2091 1.610 . S
N2093 C2094 1.351 . S
C2094 C2088 1.428 . S
C2094 N2093 1.351 . S
C2094 C2095 1.434 . S
C2095 C2086 1.429 . S
C2095 N2092 1.350 . S
C2095 C2094 1.434 . S
C2096 C2097 1.369 . S
C2096 C2098 1.419 . S
C2096 H2100 0.930 . S
C2097 C2096 1.369 . S
C2097 C2106 1.429 1_554 S
C2098 C2096 1.419 . S
C2098 C2099 1.363 . S
C2098 H2101 0.929 . S
C2099 C2098 1.363 . S
C2099 C2105 1.428 1_554 S
H2100 C2096 0.930 . S
H2101 C2098 0.929 . S
S2102 N2103 1.613 . S
S2102 N2104 1.610 . S
N2103 S2102 1.613 . S
N2103 C2106 1.350 . S
N2104 S2102 1.610 . S
N2104 C2105 1.351 . S
C2105 C2099 1.428 1_556 S
C2105 N2104 1.351 . S
C2105 C2106 1.434 . S
C2106 C2097 1.429 1_556 S
C2106 N2103 1.350 . S
C2106 C2105 1.434 . S
C2107 C2108 1.369 . S
C2107 C2109 1.419 . S
C2107 H2111 0.930 . S
C2108 C2107 1.369 . S
C2108 C2117 1.429 . S
C2109 C2107 1.419 . S
C2109 C2110 1.363 . S
C2109 H2112 0.929 . S
C2110 C2109 1.363 . S
C2110 C2116 1.428 . S
H2111 C2107 0.930 . S
H2112 C2109 0.929 . S
S2113 N2114 1.613 . S
S2113 N2115 1.610 . S
N2114 S2113 1.613 . S
N2114 C2117 1.350 . S
N2115 S2113 1.610 . S
N2115 C2116 1.351 . S
C2116 C2110 1.428 . S
C2116 N2115 1.351 . S
C2116 C2117 1.434 . S
C2117 C2108 1.429 . S
C2117 N2114 1.350 . S
C2117 C2116 1.434 . S
C2118 C2119 1.369 . S
C2118 C2120 1.419 . S
C2118 H2122 0.930 . S
C2119 C2118 1.369 . S
C2119 C2128 1.429 . S
C2120 C2118 1.419 . S
C2120 C2121 1.363 . S
C2120 H2123 0.929 . S
C2121 C2120 1.363 . S
C2121 C2127 1.428 . S
H2122 C2118 0.930 . S
H2123 C2120 0.929 . S
S2124 N2125 1.613 . S
S2124 N2126 1.610 . S
N2125 S2124 1.613 . S
N2125 C2128 1.350 . S
N2126 S2124 1.610 . S
N2126 C2127 1.351 . S
C2127 C2121 1.428 . S
C2127 N2126 1.351 . S
C2127 C2128 1.434 . S
C2128 C2119 1.429 . S
C2128 N2125 1.350 . S
C2128 C2127 1.434 . S
C2129 C2130 1.369 . S
C2129 C2131 1.419 . S
C2129 H2133 0.930 . S
C2130 C2129 1.369 . S
C2130 C2139 1.429 . S
C2131 C2129 1.419 . S
C2131 C2132 1.363 . S
C2131 H2134 0.929 . S
C2132 C2131 1.363 . S
C2132 C2138 1.428 . S
H2133 C2129 0.930 . S
H2134 C2131 0.929 . S
S2135 N2136 1.613 . S
S2135 N2137 1.610 . S
N2136 S2135 1.613 . S
N2136 C2139 1.350 . S
N2137 S2135 1.610 . S
N2137 C2138 1.351 . S
C2138 C2132 1.428 . S
C2138 N2137 1.351 . S
C2138 C2139 1.434 . S
C2139 C2130 1.429 . S
C2139 N2136 1.350 . S
C2139 C2138 1.434 . S
C2140 C2141 1.369 . S
C2140 C2142 1.419 . S
C2140 H2144 0.930 . S
C2141 C2140 1.369 . S
C2141 C2150 1.429 1_565 S
C2142 C2140 1.419 . S
C2142 C2143 1.363 . S
C2142 H2145 0.929 . S
C2143 C2142 1.363 . S
C2143 C2149 1.428 1_565 S
H2144 C2140 0.930 . S
H2145 C2142 0.929 . S
S2146 N2147 1.613 . S
S2146 N2148 1.610 . S
N2147 S2146 1.613 . S
N2147 C2150 1.350 . S
N2148 S2146 1.610 . S
N2148 C2149 1.351 . S
C2149 C2143 1.428 1_545 S
C2149 N2148 1.351 . S
C2149 C2150 1.434 . S
C2150 C2141 1.429 1_545 S
C2150 N2147 1.350 . S
C2150 C2149 1.434 . S
C2151 C2152 1.369 . S
C2151 C2153 1.419 . S
C2151 H2155 0.930 . S
C2152 C2151 1.369 . S
C2152 C2161 1.429 . S
C2153 C2151 1.419 . S
C2153 C2154 1.363 . S
C2153 H2156 0.929 . S
C2154 C2153 1.363 . S
C2154 C2160 1.428 . S
H2155 C2151 0.930 . S
H2156 C2153 0.929 . S
S2157 N2158 1.613 . S
S2157 N2159 1.610 . S
N2158 S2157 1.613 . S
N2158 C2161 1.350 . S
N2159 S2157 1.610 . S
N2159 C2160 1.351 . S
C2160 C2154 1.428 . S
C2160 N2159 1.351 . S
C2160 C2161 1.434 . S
C2161 C2152 1.429 . S
C2161 N2158 1.350 . S
C2161 C2160 1.434 . S
C2162 C2163 1.369 . S
C2162 C2164 1.419 . S
C2162 H2166 0.930 . S
C2163 C2162 1.369 . S
C2163 C2172 1.429 . S
C2164 C2162 1.419 . S
C2164 C2165 1.363 . S
C2164 H2167 0.929 . S
C2165 C2164 1.363 . S
C2165 C2171 1.428 . S
H2166 C2162 0.930 . S
H2167 C2164 0.929 . S
S2168 N2169 1.613 . S
S2168 N2170 1.610 . S
N2169 S2168 1.613 . S
N2169 C2172 1.350 . S
N2170 S2168 1.610 . S
N2170 C2171 1.351 . S
C2171 C2165 1.428 . S
C2171 N2170 1.351 . S
C2171 C2172 1.434 . S
C2172 C2163 1.429 . S
C2172 N2169 1.350 . S
C2172 C2171 1.434 . S
C2173 C2174 1.369 . S
C2173 C2175 1.419 . S
C2173 H2177 0.930 . S
C2174 C2173 1.369 . S
C2174 C2183 1.429 . S
C2175 C2173 1.419 . S
C2175 C2176 1.363 . S
C2175 H2178 0.929 . S
C2176 C2175 1.363 . S
C2176 C2182 1.428 . S
H2177 C2173 0.930 . S
H2178 C2175 0.929 . S
S2179 N2180 1.613 . S
S2179 N2181 1.610 . S
N2180 S2179 1.613 . S
N2180 C2183 1.350 . S
N2181 S2179 1.610 . S
N2181 C2182 1.351 . S
C2182 C2176 1.428 . S
C2182 N2181 1.351 . S
C2182 C2183 1.434 . S
C2183 C2174 1.429 . S
C2183 N2180 1.350 . S
C2183 C2182 1.434 . S
C2184 C2185 1.369 . S
C2184 C2186 1.419 . S
C2184 H2188 0.930 . S
C2185 C2184 1.369 . S
C2185 C2194 1.429 . S
C2186 C2184 1.419 . S
C2186 C2187 1.363 . S
C2186 H2189 0.929 . S
C2187 C2186 1.363 . S
C2187 C2193 1.428 . S
H2188 C2184 0.930 . S
H2189 C2186 0.929 . S
S2190 N2191 1.613 . S
S2190 N2192 1.610 . S
N2191 S2190 1.613 . S
N2191 C2194 1.350 . S
N2192 S2190 1.610 . S
N2192 C2193 1.351 . S
C2193 C2187 1.428 . S
C2193 N2192 1.351 . S
C2193 C2194 1.434 . S
C2194 C2185 1.429 . S
C2194 N2191 1.350 . S
C2194 C2193 1.434 . S
C2195 C2196 1.369 . S
C2195 C2197 1.419 . S
C2195 H2199 0.930 . S
C2196 C2195 1.369 . S
C2196 C2205 1.429 . S
C2197 C2195 1.419 . S
C2197 C2198 1.363 . S
C2197 H2200 0.929 . S
C2198 C2197 1.363 . S
C2198 C2204 1.428 . S
H2199 C2195 0.930 . S
H2200 C2197 0.929 . S
S2201 N2202 1.613 . S
S2201 N2203 1.610 . S
N2202 S2201 1.613 . S
N2202 C2205 1.350 . S
N2203 S2201 1.610 . S
N2203 C2204 1.351 . S
C2204 C2198 1.428 . S
C2204 N2203 1.351 . S
C2204 C2205 1.434 . S
C2205 C2196 1.429 . S
C2205 N2202 1.350 . S
C2205 C2204 1.434 . S
C2206 C2207 1.369 . S
C2206 C2208 1.419 . S
C2206 H2210 0.930 . S
C2207 C2206 1.369 . S
C2207 C2216 1.429 1_556 S
C2208 C2206 1.419 . S
C2208 C2209 1.363 1_556 S
C2208 H2211 0.929 . S
C2209 C2208 1.363 1_554 S
C2209 C2215 1.428 . S
H2210 C2206 0.930 . S
H2211 C2208 0.929 . S
S2212 N2213 1.613 . S
S2212 N2214 1.610 . S
N2213 S2212 1.613 . S
N2213 C2216 1.350 . S
N2214 S2212 1.610 . S
N2214 C2215 1.351 . S
C2215 C2209 1.428 . S
C2215 N2214 1.351 . S
C2215 C2216 1.434 . S
C2216 C2207 1.429 1_554 S
C2216 N2213 1.350 . S
C2216 C2215 1.434 . S
C2217 C2218 1.369 . S
C2217 C2219 1.419 . S
C2217 H2221 0.930 . S
C2218 C2217 1.369 . S
C2218 C2227 1.429 . S
C2219 C2217 1.419 . S
C2219 C2220 1.363 1_455 S
C2219 H2222 0.929 . S
C2220 C2219 1.363 1_655 S
C2220 C2226 1.428 . S
H2221 C2217 0.930 . S
H2222 C2219 0.929 . S
S2223 N2224 1.613 1_655 S
S2223 N2225 1.610 . S
N2224 S2223 1.613 1_455 S
N2224 C2227 1.350 . S
N2225 S2223 1.610 . S
N2225 C2226 1.351 . S
C2226 C2220 1.428 . S
C2226 N2225 1.351 . S
C2226 C2227 1.434 1_655 S
C2227 C2218 1.429 . S
C2227 N2224 1.350 . S
C2227 C2226 1.434 1_455 S
C2228 C2229 1.369 . S
C2228 C2230 1.419 . S
C2228 H2232 0.930 . S
C2229 C2228 1.369 . S
C2229 C2238 1.429 . S
C2230 C2228 1.419 . S
C2230 C2231 1.363 . S
C2230 H2233 0.929 . S
C2231 C2230 1.363 . S
C2231 C2237 1.428 . S
H2232 C2228 0.930 . S
H2233 C2230 0.929 . S
S2234 N2235 1.613 . S
S2234 N2236 1.610 . S
N2235 S2234 1.613 . S
N2235 C2238 1.350 . S
N2236 S2234 1.610 . S
N2236 C2237 1.351 . S
C2237 C2231 1.428 . S
C2237 N2236 1.351 . S
C2237 C2238 1.434 . S
C2238 C2229 1.429 . S
C2238 N2235 1.350 . S
C2238 C2237 1.434 . S
C2239 C2240 1.369 . S
C2239 C2241 1.419 . S
C2239 H2243 0.930 . S
C2240 C2239 1.369 . S
C2240 C2249 1.429 . S
C2241 C2239 1.419 . S
C2241 C2242 1.363 . S
C2241 H2244 0.929 . S
C2242 C2241 1.363 . S
C2242 C2248 1.428 . S
H2243 C2239 0.930 . S
H2244 C2241 0.929 . S
S2245 N2246 1.613 . S
S2245 N2247 1.610 . S
N2246 S2245 1.613 . S
N2246 C2249 1.350 . S
N2247 S2245 1.610 . S
N2247 C2248 1.351 . S
C2248 C2242 1.428 . S
C2248 N2247 1.351 . S
C2248 C2249 1.434 . S
C2249 C2240 1.429 . S
C2249 N2246 1.350 . S
C2249 C2248 1.434 . S
C2250 C2251 1.362 1_455 S
C2250 C2252 1.419 . S
C2250 H2254 0.930 1_455 S
C2251 C2250 1.362 1_655 S
C2251 C2260 1.419 1_655 S
C2252 C2250 1.419 . S
C2252 C2253 1.363 . S
C2252 H2255 0.929 . S
C2253 C2252 1.363 . S
C2253 C2259 1.428 . S
H2254 C2250 0.930 1_655 S
H2255 C2252 0.929 . S
S2256 N2257 1.613 . S
S2256 N2258 1.610 . S
N2257 S2256 1.613 . S
N2257 C2260 1.350 . S
N2258 S2256 1.610 . S
N2258 C2259 1.351 . S
C2259 C2253 1.428 . S
C2259 N2258 1.351 . S
C2259 C2260 1.434 . S
C2260 C2251 1.419 1_455 S
C2260 N2257 1.350 . S
C2260 C2259 1.434 . S
C2261 C2262 1.369 . S
C2261 C2263 1.419 . S
C2261 H2265 0.930 . S
C2262 C2261 1.369 . S
C2262 C2271 1.429 . S
C2263 C2261 1.419 . S
C2263 C2264 1.363 . S
C2263 H2266 0.929 . S
C2264 C2263 1.363 . S
C2264 C2270 1.428 . S
H2265 C2261 0.930 . S
H2266 C2263 0.929 . S
S2267 N2268 1.613 . S
S2267 N2269 1.610 . S
N2268 S2267 1.613 . S
N2268 C2271 1.350 . S
N2269 S2267 1.610 . S
N2269 C2270 1.351 . S
C2270 C2264 1.428 . S
C2270 N2269 1.351 . S
C2270 C2271 1.434 . S
C2271 C2262 1.429 . S
C2271 N2268 1.350 . S
C2271 C2270 1.434 . S
C2272 C2273 1.369 . S
C2272 C2274 1.419 . S
C2272 H2276 0.930 . S
C2273 C2272 1.369 . S
C2273 C2282 1.429 . S
C2274 C2272 1.419 . S
C2274 C2275 1.363 . S
C2274 H2277 0.929 . S
C2275 C2274 1.363 . S
C2275 C2281 1.428 . S
H2276 C2272 0.930 . S
H2277 C2274 0.929 . S
S2278 N2279 1.613 . S
S2278 N2280 1.610 . S
N2279 S2278 1.613 . S
N2279 C2282 1.350 . S
N2280 S2278 1.610 . S
N2280 C2281 1.351 . S
C2281 C2275 1.428 . S
C2281 N2280 1.351 . S
C2281 C2282 1.434 . S
C2282 C2273 1.429 . S
C2282 N2279 1.350 . S
C2282 C2281 1.434 . S
C2283 C2284 1.369 . S
C2283 C2285 1.419 . S
C2283 H2287 0.930 1_556 S
C2284 C2283 1.369 . S
C2284 C2293 1.429 . S
C2285 C2283 1.419 . S
C2285 C2286 1.363 . S
C2285 H2288 0.929 . S
C2286 C2285 1.363 . S
C2286 C2292 1.428 . S
H2287 C2283 0.930 1_554 S
H2288 C2285 0.929 . S
S2289 N2290 1.613 . S
S2289 N2291 1.610 . S
N2290 S2289 1.613 . S
N2290 C2293 1.350 . S
N2291 S2289 1.610 . S
N2291 C2292 1.351 . S
C2292 C2286 1.428 . S
C2292 N2291 1.351 . S
C2292 C2293 1.434 . S
C2293 C2284 1.429 . S
C2293 N2290 1.350 . S
C2293 C2292 1.434 . S
C2294 C2295 1.369 . S
C2294 C2296 1.419 . S
C2294 H2298 0.930 . S
C2295 C2294 1.369 . S
C2295 C2304 1.429 . S
C2296 C2294 1.419 . S
C2296 C2297 1.363 . S
C2296 H2299 0.929 . S
C2297 C2296 1.363 . S
C2297 C2303 1.428 . S
H2298 C2294 0.930 . S
H2299 C2296 0.929 . S
S2300 N2301 1.613 . S
S2300 N2302 1.610 . S
N2301 S2300 1.613 . S
N2301 C2304 1.350 . S
N2302 S2300 1.610 . S
N2302 C2303 1.351 . S
C2303 C2297 1.428 . S
C2303 N2302 1.351 . S
C2303 C2304 1.434 . S
C2304 C2295 1.429 . S
C2304 N2301 1.350 . S
C2304 C2303 1.434 . S
C2305 C2306 1.369 . S
C2305 C2307 1.419 . S
C2305 H2309 0.930 . S
C2306 C2305 1.369 . S
C2306 C2315 1.429 . S
C2307 C2305 1.419 . S
C2307 C2308 1.363 . S
C2307 H2310 0.929 . S
C2308 C2307 1.363 . S
C2308 C2314 1.428 . S
H2309 C2305 0.930 . S
H2310 C2307 0.929 . S
S2311 N2312 1.613 . S
S2311 N2313 1.610 . S
N2312 S2311 1.613 . S
N2312 C2315 1.350 . S
N2313 S2311 1.610 . S
N2313 C2314 1.351 . S
C2314 C2308 1.428 . S
C2314 N2313 1.351 . S
C2314 C2315 1.434 . S
C2315 C2306 1.429 . S
C2315 N2312 1.350 . S
C2315 C2314 1.434 . S
C2316 C2317 1.369 . S
C2316 C2318 1.419 . S
C2316 H2320 0.930 . S
C2317 C2316 1.369 . S
C2317 C2326 1.429 . S
C2318 C2316 1.419 . S
C2318 C2319 1.363 . S
C2318 H2321 0.929 . S
C2319 C2318 1.363 . S
C2319 C2325 1.428 . S
H2320 C2316 0.930 . S
H2321 C2318 0.929 . S
S2322 N2323 1.613 . S
S2322 N2324 1.610 . S
N2323 S2322 1.613 . S
N2323 C2326 1.350 . S
N2324 S2322 1.610 . S
N2324 C2325 1.351 . S
C2325 C2319 1.428 . S
C2325 N2324 1.351 . S
C2325 C2326 1.434 . S
C2326 C2317 1.429 . S
C2326 N2323 1.350 . S
C2326 C2325 1.434 . S
C2327 C2328 1.369 . S
C2327 C2329 1.419 . S
C2327 H2331 0.930 . S
C2328 C2327 1.369 . S
C2328 C2337 1.429 . S
C2329 C2327 1.419 . S
C2329 C2330 1.363 . S
C2329 H2332 0.929 . S
C2330 C2329 1.363 . S
C2330 C2336 1.428 . S
H2331 C2327 0.930 . S
H2332 C2329 0.929 . S
S2333 N2334 1.613 . S
S2333 N2335 1.610 . S
N2334 S2333 1.613 . S
N2334 C2337 1.350 . S
N2335 S2333 1.610 . S
N2335 C2336 1.351 . S
C2336 C2330 1.428 . S
C2336 N2335 1.351 . S
C2336 C2337 1.434 . S
C2337 C2328 1.429 . S
C2337 N2334 1.350 . S
C2337 C2336 1.434 . S
C2338 C2339 1.369 . S
C2338 C2340 1.419 . S
C2338 H2342 0.930 . S
C2339 C2338 1.369 . S
C2339 C2348 1.429 . S
C2340 C2338 1.419 . S
C2340 C2341 1.363 . S
C2340 H2343 0.929 . S
C2341 C2340 1.363 . S
C2341 C2347 1.428 . S
H2342 C2338 0.930 . S
H2343 C2340 0.929 . S
S2344 N2345 1.613 . S
S2344 N2346 1.610 . S
N2345 S2344 1.613 . S
N2345 C2348 1.350 . S
N2346 S2344 1.610 . S
N2346 C2347 1.351 . S
C2347 C2341 1.428 . S
C2347 N2346 1.351 . S
C2347 C2348 1.434 . S
C2348 C2339 1.429 . S
C2348 N2345 1.350 . S
C2348 C2347 1.434 . S
C2349 C2350 1.369 . S
C2349 C2351 1.419 . S
C2349 H2353 0.930 . S
C2350 C2349 1.369 . S
C2350 C2359 1.429 . S
C2351 C2349 1.419 . S
C2351 C2352 1.363 . S
C2351 H2354 0.929 . S
C2352 C2351 1.363 . S
C2352 C2358 1.428 . S
H2353 C2349 0.930 . S
H2354 C2351 0.929 . S
S2355 N2356 1.613 . S
S2355 N2357 1.610 . S
N2356 S2355 1.613 . S
N2356 C2359 1.350 . S
N2357 S2355 1.610 . S
N2357 C2358 1.351 . S
C2358 C2352 1.428 . S
C2358 N2357 1.351 . S
C2358 C2359 1.434 . S
C2359 C2350 1.429 . S
C2359 N2356 1.350 . S
C2359 C2358 1.434 . S
C2360 C2361 1.369 . S
C2360 C2362 1.419 . S
C2360 H2364 0.930 . S
C2361 C2360 1.369 . S
C2361 C2370 1.429 . S
C2362 C2360 1.419 . S
C2362 C2363 1.363 . S
C2362 H2365 0.929 . S
C2363 C2362 1.363 . S
C2363 C2369 1.428 . S
H2364 C2360 0.930 . S
H2365 C2362 0.929 . S
S2366 N2367 1.613 . S
S2366 N2368 1.610 . S
N2367 S2366 1.613 . S
N2367 C2370 1.350 . S
N2368 S2366 1.610 . S
N2368 C2369 1.351 . S
C2369 C2363 1.428 . S
C2369 N2368 1.351 . S
C2369 C2370 1.434 . S
C2370 C2361 1.429 . S
C2370 N2367 1.350 . S
C2370 C2369 1.434 . S
C2371 C2372 1.369 . S
C2371 C2373 1.419 . S
C2371 H2375 0.930 . S
C2372 C2371 1.369 . S
C2372 C2381 1.429 . S
C2373 C2371 1.419 . S
C2373 C2374 1.363 . S
C2373 H2376 0.929 . S
C2374 C2373 1.363 . S
C2374 C2380 1.428 . S
H2375 C2371 0.930 . S
H2376 C2373 0.929 . S
S2377 N2378 1.613 . S
S2377 N2379 1.610 . S
N2378 S2377 1.613 . S
N2378 C2381 1.350 . S
N2379 S2377 1.610 . S
N2379 C2380 1.351 . S
C2380 C2374 1.428 . S
C2380 N2379 1.351 . S
C2380 C2381 1.434 . S
C2381 C2372 1.429 . S
C2381 N2378 1.350 . S
C2381 C2380 1.434 . S
C2382 C2383 1.369 . S
C2382 C2384 1.419 . S
C2382 H2386 0.930 . S
C2383 C2382 1.369 . S
C2383 C2392 1.429 . S
C2384 C2382 1.419 . S
C2384 C2385 1.363 . S
C2384 H2387 0.929 . S
C2385 C2384 1.363 . S
C2385 C2391 1.428 . S
H2386 C2382 0.930 . S
H2387 C2384 0.929 . S
S2388 N2389 1.613 . S
S2388 N2390 1.610 . S
N2389 S2388 1.613 . S
N2389 C2392 1.350 . S
N2390 S2388 1.610 . S
N2390 C2391 1.351 . S
C2391 C2385 1.428 . S
C2391 N2390 1.351 . S
C2391 C2392 1.434 . S
C2392 C2383 1.429 . S
C2392 N2389 1.350 . S
C2392 C2391 1.434 . S
C2393 C2394 1.369 1_546 S
C2393 C2395 1.419 . S
C2393 H2397 0.930 . S
C2394 C2393 1.369 1_564 S
C2394 C2403 1.429 . S
C2395 C2393 1.419 . S
C2395 C2396 1.363 1_556 S
C2395 H2398 0.929 . S
C2396 C2395 1.363 1_554 S
C2396 C2402 1.428 1_545 S
H2397 C2393 0.930 . S
H2398 C2395 0.929 . S
S2399 N2400 1.613 . S
S2399 N2401 1.610 . S
N2400 S2399 1.613 . S
N2400 C2403 1.350 . S
N2401 S2399 1.610 . S
N2401 C2402 1.351 . S
C2402 C2396 1.428 1_565 S
C2402 N2401 1.351 . S
C2402 C2403 1.434 . S
C2403 C2394 1.429 . S
C2403 N2400 1.350 . S
C2403 C2402 1.434 . S
C2404 C2405 1.369 . S
C2404 C2406 1.419 . S
C2404 H2408 0.930 . S
C2405 C2404 1.369 . S
C2405 C2414 1.429 . S
C2406 C2404 1.419 . S
C2406 C2407 1.363 . S
C2406 H2409 0.929 . S
C2407 C2406 1.363 . S
C2407 C2413 1.428 . S
H2408 C2404 0.930 . S
H2409 C2406 0.929 . S
S2410 N2411 1.613 . S
S2410 N2412 1.610 . S
N2411 S2410 1.613 . S
N2411 C2414 1.350 . S
N2412 S2410 1.610 . S
N2412 C2413 1.351 . S
C2413 C2407 1.428 . S
C2413 N2412 1.351 . S
C2413 C2414 1.434 . S
C2414 C2405 1.429 . S
C2414 N2411 1.350 . S
C2414 C2413 1.434 . S
C2415 C2416 1.369 . S
C2415 C2417 1.419 . S
C2415 H2419 0.930 . S
C2416 C2415 1.369 . S
C2416 C2425 1.429 1_554 S
C2417 C2415 1.419 . S
C2417 C2418 1.363 . S
C2417 H2420 0.929 . S
C2418 C2417 1.363 . S
C2418 C2424 1.428 . S
H2419 C2415 0.930 . S
H2420 C2417 0.929 . S
S2421 N2422 1.613 . S
S2421 N2423 1.610 1_556 S
N2422 S2421 1.613 . S
N2422 C2425 1.350 . S
N2423 S2421 1.610 1_554 S
N2423 C2424 1.351 . S
C2424 C2418 1.428 . S
C2424 N2423 1.351 . S
C2424 C2425 1.434 1_554 S
C2425 C2416 1.429 1_556 S
C2425 N2422 1.350 . S
C2425 C2424 1.434 1_556 S
C2426 C2427 1.369 . S
C2426 C2428 1.419 . S
C2426 H2430 0.930 . S
C2427 C2426 1.369 . S
C2427 C2436 1.429 . S
C2428 C2426 1.419 . S
C2428 C2429 1.363 . S
C2428 H2431 0.929 . S
C2429 C2428 1.363 . S
C2429 C2435 1.428 . S
H2430 C2426 0.930 . S
H2431 C2428 0.929 . S
S2432 N2433 1.613 . S
S2432 N2434 1.610 . S
N2433 S2432 1.613 . S
N2433 C2436 1.350 . S
N2434 S2432 1.610 . S
N2434 C2435 1.351 . S
C2435 C2429 1.428 . S
C2435 N2434 1.351 . S
C2435 C2436 1.434 . S
C2436 C2427 1.429 . S
C2436 N2433 1.350 . S
C2436 C2435 1.434 . S
C2437 C2438 1.369 . S
C2437 C2439 1.419 . S
C2437 H2441 0.930 . S
C2438 C2437 1.369 . S
C2438 C2447 1.429 . S
C2439 C2437 1.419 . S
C2439 C2440 1.363 . S
C2439 H2442 0.929 . S
C2440 C2439 1.363 . S
C2440 C2446 1.428 . S
H2441 C2437 0.930 . S
H2442 C2439 0.929 . S
S2443 N2444 1.613 . S
S2443 N2445 1.610 . S
N2444 S2443 1.613 . S
N2444 C2447 1.350 . S
N2445 S2443 1.610 . S
N2445 C2446 1.351 . S
C2446 C2440 1.428 . S
C2446 N2445 1.351 . S
C2446 C2447 1.434 . S
C2447 C2438 1.429 . S
C2447 N2444 1.350 . S
C2447 C2446 1.434 . S
C2448 C2449 1.369 . S
C2448 C2450 1.419 . S
C2448 H2452 0.930 . S
C2449 C2448 1.369 . S
C2449 C2458 1.429 . S
C2450 C2448 1.419 . S
C2450 C2451 1.363 . S
C2450 H2453 0.929 . S
C2451 C2450 1.363 . S
C2451 C2457 1.428 . S
H2452 C2448 0.930 . S
H2453 C2450 0.929 . S
S2454 N2455 1.613 . S
S2454 N2456 1.610 . S
N2455 S2454 1.613 . S
N2455 C2458 1.350 . S
N2456 S2454 1.610 . S
N2456 C2457 1.351 . S
C2457 C2451 1.428 . S
C2457 N2456 1.351 . S
C2457 C2458 1.434 . S
C2458 C2449 1.429 . S
C2458 N2455 1.350 . S
C2458 C2457 1.434 . S
C2459 C2460 1.369 . S
C2459 C2461 1.419 . S
C2459 H2463 0.930 . S
C2460 C2459 1.369 . S
C2460 C2469 1.429 . S
C2461 C2459 1.419 . S
C2461 C2462 1.363 . S
C2461 H2464 0.929 . S
C2462 C2461 1.363 . S
C2462 C2468 1.428 . S
H2463 C2459 0.930 . S
H2464 C2461 0.929 . S
S2465 N2466 1.613 . S
S2465 N2467 1.610 . S
N2466 S2465 1.613 . S
N2466 C2469 1.350 . S
N2467 S2465 1.610 . S
N2467 C2468 1.351 . S
C2468 C2462 1.428 . S
C2468 N2467 1.351 . S
C2468 C2469 1.434 . S
C2469 C2460 1.429 . S
C2469 N2466 1.350 . S
C2469 C2468 1.434 . S
C2470 C2471 1.369 . S
C2470 C2472 1.418 . S
C2470 H2474 0.930 1_554 S
C2471 C2470 1.369 . S
C2471 C2480 1.429 . S
C2472 C2470 1.418 . S
C2472 C2473 1.366 . S
C2472 H2475 0.926 1_554 S
C2473 C2472 1.366 . S
C2473 C2479 1.428 . S
H2474 C2470 0.930 1_556 S
H2475 C2472 0.926 1_556 S
S2476 N2477 1.613 . S
S2476 N2478 1.610 . S
N2477 S2476 1.613 . S
N2477 C2480 1.350 . S
N2478 S2476 1.610 . S
N2478 C2479 1.351 . S
C2479 C2473 1.428 . S
C2479 N2478 1.351 . S
C2479 C2480 1.434 . S
C2480 C2471 1.429 . S
C2480 N2477 1.350 . S
C2480 C2479 1.434 . S
C2481 C2482 1.369 . S
C2481 C2483 1.419 . S
C2481 H2485 0.930 . S
C2482 C2481 1.369 . S
C2482 C2491 1.429 . S
C2483 C2481 1.419 . S
C2483 C2484 1.363 . S
C2483 H2486 0.929 . S
C2484 C2483 1.363 . S
C2484 C2490 1.428 . S
H2485 C2481 0.930 . S
H2486 C2483 0.929 . S
S2487 N2488 1.613 . S
S2487 N2489 1.610 . S
N2488 S2487 1.613 . S
N2488 C2491 1.350 . S
N2489 S2487 1.610 . S
N2489 C2490 1.351 . S
C2490 C2484 1.428 . S
C2490 N2489 1.351 . S
C2490 C2491 1.434 . S
C2491 C2482 1.429 . S
C2491 N2488 1.350 . S
C2491 C2490 1.434 . S
C2492 C2493 1.369 . S
C2492 C2494 1.419 . S
C2492 H2496 0.930 . S
C2493 C2492 1.369 . S
C2493 C2502 1.429 . S
C2494 C2492 1.419 . S
C2494 C2495 1.363 . S
C2494 H2497 0.929 1_556 S
C2495 C2494 1.363 . S
C2495 C2501 1.428 . S
H2496 C2492 0.930 . S
H2497 C2494 0.929 1_554 S
S2498 N2499 1.613 . S
S2498 N2500 1.610 . S
N2499 S2498 1.613 . S
N2499 C2502 1.350 . S
N2500 S2498 1.610 . S
N2500 C2501 1.351 . S
C2501 C2495 1.428 . S
C2501 N2500 1.351 . S
C2501 C2502 1.434 . S
C2502 C2493 1.429 . S
C2502 N2499 1.350 . S
C2502 C2501 1.434 . S
C2503 C2504 1.369 . S
C2503 C2505 1.419 . S
C2503 H2507 0.930 . S
C2504 C2503 1.369 . S
C2504 C2513 1.429 . S
C2505 C2503 1.419 . S
C2505 C2506 1.363 . S
C2505 H2508 0.929 . S
C2506 C2505 1.363 . S
C2506 C2512 1.428 . S
H2507 C2503 0.930 . S
H2508 C2505 0.929 . S
S2509 N2510 1.613 . S
S2509 N2511 1.610 . S
N2510 S2509 1.613 . S
N2510 C2513 1.350 . S
N2511 S2509 1.610 . S
N2511 C2512 1.351 . S
C2512 C2506 1.428 . S
C2512 N2511 1.351 . S
C2512 C2513 1.434 . S
C2513 C2504 1.429 . S
C2513 N2510 1.350 . S
C2513 C2512 1.434 . S
C2514 C2515 1.369 . S
C2514 C2516 1.419 . S
C2514 H2518 0.930 . S
C2515 C2514 1.369 . S
C2515 C2524 1.429 . S
C2516 C2514 1.419 . S
C2516 C2517 1.363 . S
C2516 H2519 0.929 . S
C2517 C2516 1.363 . S
C2517 C2523 1.428 . S
H2518 C2514 0.930 . S
H2519 C2516 0.929 . S
S2520 N2521 1.613 . S
S2520 N2522 1.610 . S
N2521 S2520 1.613 . S
N2521 C2524 1.350 . S
N2522 S2520 1.610 . S
N2522 C2523 1.351 . S
C2523 C2517 1.428 . S
C2523 N2522 1.351 . S
C2523 C2524 1.434 . S
C2524 C2515 1.429 . S
C2524 N2521 1.350 . S
C2524 C2523 1.434 . S
C2525 C2526 1.369 . S
C2525 C2527 1.419 . S
C2525 H2529 0.930 . S
C2526 C2525 1.369 . S
C2526 C2535 1.429 . S
C2527 C2525 1.419 . S
C2527 C2528 1.363 . S
C2527 H2530 0.929 . S
C2528 C2527 1.363 . S
C2528 C2534 1.428 . S
H2529 C2525 0.930 . S
H2530 C2527 0.929 . S
S2531 N2532 1.613 . S
S2531 N2533 1.610 . S
N2532 S2531 1.613 . S
N2532 C2535 1.350 . S
N2533 S2531 1.610 . S
N2533 C2534 1.351 . S
C2534 C2528 1.428 . S
C2534 N2533 1.351 . S
C2534 C2535 1.434 . S
C2535 C2526 1.429 . S
C2535 N2532 1.350 . S
C2535 C2534 1.434 . S
C2536 C2537 1.369 . S
C2536 C2538 1.419 . S
C2536 H2540 0.930 . S
C2537 C2536 1.369 . S
C2537 C2546 1.429 . S
C2538 C2536 1.419 . S
C2538 C2539 1.363 . S
C2538 H2541 0.929 . S
C2539 C2538 1.363 . S
C2539 C2545 1.428 . S
H2540 C2536 0.930 . S
H2541 C2538 0.929 . S
S2542 N2543 1.613 . S
S2542 N2544 1.610 . S
N2543 S2542 1.613 . S
N2543 C2546 1.350 . S
N2544 S2542 1.610 . S
N2544 C2545 1.351 . S
C2545 C2539 1.428 . S
C2545 N2544 1.351 . S
C2545 C2546 1.434 . S
C2546 C2537 1.429 . S
C2546 N2543 1.350 . S
C2546 C2545 1.434 . S
C2547 C2548 1.369 . S
C2547 C2549 1.419 . S
C2547 H2551 0.930 . S
C2548 C2547 1.369 . S
C2548 C2557 1.429 . S
C2549 C2547 1.419 . S
C2549 C2550 1.363 . S
C2549 H2552 0.929 . S
C2550 C2549 1.363 . S
C2550 C2556 1.428 . S
H2551 C2547 0.930 . S
H2552 C2549 0.929 . S
S2553 N2554 1.613 . S
S2553 N2555 1.610 . S
N2554 S2553 1.613 . S
N2554 C2557 1.350 . S
N2555 S2553 1.610 . S
N2555 C2556 1.351 . S
C2556 C2550 1.428 . S
C2556 N2555 1.351 . S
C2556 C2557 1.434 . S
C2557 C2548 1.429 . S
C2557 N2554 1.350 . S
C2557 C2556 1.434 . S
C2558 C2559 1.369 . S
C2558 C2560 1.419 1_655 S
C2558 H2562 0.930 . S
C2559 C2558 1.369 . S
C2559 C2568 1.429 . S
C2560 C2558 1.419 1_455 S
C2560 C2561 1.363 . S
C2560 H2563 0.929 . S
C2561 C2560 1.363 . S
C2561 C2567 1.428 . S
H2562 C2558 0.930 . S
H2563 C2560 0.929 . S
S2564 N2565 1.597 1_455 S
S2564 N2566 1.619 . S
N2565 S2564 1.597 1_655 S
N2565 C2568 1.350 . S
N2566 S2564 1.619 . S
N2566 C2567 1.351 . S
C2567 C2561 1.428 . S
C2567 N2566 1.351 . S
C2567 C2568 1.434 1_455 S
C2568 C2559 1.429 . S
C2568 N2565 1.350 . S
C2568 C2567 1.434 1_655 S
C2569 C2570 1.369 . S
C2569 C2571 1.419 . S
C2569 H2573 0.930 . S
C2570 C2569 1.369 . S
C2570 C2579 1.429 . S
C2571 C2569 1.419 . S
C2571 C2572 1.363 . S
C2571 H2574 0.929 . S
C2572 C2571 1.363 . S
C2572 C2578 1.428 . S
H2573 C2569 0.930 . S
H2574 C2571 0.929 . S
S2575 N2576 1.613 . S
S2575 N2577 1.610 . S
N2576 S2575 1.613 . S
N2576 C2579 1.350 . S
N2577 S2575 1.610 . S
N2577 C2578 1.351 . S
C2578 C2572 1.428 . S
C2578 N2577 1.351 . S
C2578 C2579 1.434 . S
C2579 C2570 1.429 . S
C2579 N2576 1.350 . S
C2579 C2578 1.434 . S
C2580 C2581 1.369 . S
C2580 C2582 1.419 . S
C2580 H2584 0.930 . S
C2581 C2580 1.369 . S
C2581 C2590 1.429 . S
C2582 C2580 1.419 . S
C2582 C2583 1.363 . S
C2582 H2585 0.929 . S
C2583 C2582 1.363 . S
C2583 C2589 1.428 . S
H2584 C2580 0.930 . S
H2585 C2582 0.929 . S
S2586 N2587 1.613 . S
S2586 N2588 1.610 . S
N2587 S2586 1.613 . S
N2587 C2590 1.350 . S
N2588 S2586 1.610 . S
N2588 C2589 1.351 . S
C2589 C2583 1.428 . S
C2589 N2588 1.351 . S
C2589 C2590 1.434 . S
C2590 C2581 1.429 . S
C2590 N2587 1.350 . S
C2590 C2589 1.434 . S
C2591 C2592 1.369 . S
C2591 C2593 1.419 . S
C2591 H2595 0.930 . S
C2592 C2591 1.369 . S
C2592 C2601 1.429 . S
C2593 C2591 1.419 . S
C2593 C2594 1.363 . S
C2593 H2596 0.929 . S
C2594 C2593 1.363 . S
C2594 C2600 1.428 . S
H2595 C2591 0.930 . S
H2596 C2593 0.929 . S
S2597 N2598 1.613 . S
S2597 N2599 1.610 . S
N2598 S2597 1.613 . S
N2598 C2601 1.350 . S
N2599 S2597 1.610 . S
N2599 C2600 1.351 . S
C2600 C2594 1.428 . S
C2600 N2599 1.351 . S
C2600 C2601 1.434 . S
C2601 C2592 1.429 . S
C2601 N2598 1.350 . S
C2601 C2600 1.434 . S
C2602 C2603 1.369 . S
C2602 C2604 1.412 1_655 S
C2602 H2606 0.930 . S
C2603 C2602 1.369 . S
C2603 C2612 1.429 . S
C2604 C2602 1.412 1_455 S
C2604 C2605 1.363 1_455 S
C2604 H2607 0.936 . S
C2605 C2604 1.363 1_655 S
C2605 C2611 1.428 . S
H2606 C2602 0.930 . S
H2607 C2604 0.936 . S
S2608 N2609 1.613 . S
S2608 N2610 1.610 . S
N2609 S2608 1.613 . S
N2609 C2612 1.350 . S
N2610 S2608 1.610 . S
N2610 C2611 1.351 . S
C2611 C2605 1.428 . S
C2611 N2610 1.351 . S
C2611 C2612 1.434 . S
C2612 C2603 1.429 . S
C2612 N2609 1.350 . S
C2612 C2611 1.434 . S
C2613 C2614 1.369 . S
C2613 C2615 1.419 . S
C2613 H2617 0.930 . S
C2614 C2613 1.369 . S
C2614 C2623 1.429 . S
C2615 C2613 1.419 . S
C2615 C2616 1.363 . S
C2615 H2618 0.929 . S
C2616 C2615 1.363 . S
C2616 C2622 1.428 . S
H2617 C2613 0.930 . S
H2618 C2615 0.929 . S
S2619 N2620 1.613 . S
S2619 N2621 1.610 . S
N2620 S2619 1.613 . S
N2620 C2623 1.350 . S
N2621 S2619 1.610 . S
N2621 C2622 1.351 . S
C2622 C2616 1.428 . S
C2622 N2621 1.351 . S
C2622 C2623 1.434 . S
C2623 C2614 1.429 . S
C2623 N2620 1.350 . S
C2623 C2622 1.434 . S
C2624 C2625 1.369 . S
C2624 C2626 1.419 . S
C2624 H2628 0.930 . S
C2625 C2624 1.369 . S
C2625 C2634 1.429 . S
C2626 C2624 1.419 . S
C2626 C2627 1.363 . S
C2626 H2629 0.929 . S
C2627 C2626 1.363 . S
C2627 C2633 1.428 . S
H2628 C2624 0.930 . S
H2629 C2626 0.929 . S
S2630 N2631 1.613 . S
S2630 N2632 1.610 . S
N2631 S2630 1.613 . S
N2631 C2634 1.350 . S
N2632 S2630 1.610 . S
N2632 C2633 1.351 . S
C2633 C2627 1.428 . S
C2633 N2632 1.351 . S
C2633 C2634 1.434 . S
C2634 C2625 1.429 . S
C2634 N2631 1.350 . S
C2634 C2633 1.434 . S
C2635 C2636 1.369 . S
C2635 C2637 1.419 . S
C2635 H2639 0.930 . S
C2636 C2635 1.369 . S
C2636 C2645 1.429 . S
C2637 C2635 1.419 . S
C2637 C2638 1.363 . S
C2637 H2640 0.929 . S
C2638 C2637 1.363 . S
C2638 C2644 1.428 . S
H2639 C2635 0.930 . S
H2640 C2637 0.929 . S
S2641 N2642 1.613 1_545 S
S2641 N2643 1.610 . S
N2642 S2641 1.613 1_565 S
N2642 C2645 1.350 . S
N2643 S2641 1.610 . S
N2643 C2644 1.351 1_545 S
C2644 C2638 1.428 . S
C2644 N2643 1.351 1_565 S
C2644 C2645 1.434 . S
C2645 C2636 1.429 . S
C2645 N2642 1.350 . S
C2645 C2644 1.434 . S
C2646 C2647 1.369 . S
C2646 C2648 1.419 . S
C2646 H2650 0.930 . S
C2647 C2646 1.369 . S
C2647 C2656 1.429 . S
C2648 C2646 1.419 . S
C2648 C2649 1.363 . S
C2648 H2651 0.929 . S
C2649 C2648 1.363 . S
C2649 C2655 1.428 . S
H2650 C2646 0.930 . S
H2651 C2648 0.929 . S
S2652 N2653 1.613 . S
S2652 N2654 1.610 . S
N2653 S2652 1.613 . S
N2653 C2656 1.350 . S
N2654 S2652 1.610 . S
N2654 C2655 1.351 . S
C2655 C2649 1.428 . S
C2655 N2654 1.351 . S
C2655 C2656 1.434 . S
C2656 C2647 1.429 . S
C2656 N2653 1.350 . S
C2656 C2655 1.434 . S
C2657 C2658 1.369 . S
C2657 C2659 1.419 . S
C2657 H2661 0.930 . S
C2658 C2657 1.369 . S
C2658 C2667 1.429 . S
C2659 C2657 1.419 . S
C2659 C2660 1.363 . S
C2659 H2662 0.929 . S
C2660 C2659 1.363 . S
C2660 C2666 1.428 . S
H2661 C2657 0.930 . S
H2662 C2659 0.929 . S
S2663 N2664 1.613 . S
S2663 N2665 1.610 . S
N2664 S2663 1.613 . S
N2664 C2667 1.350 . S
N2665 S2663 1.610 . S
N2665 C2666 1.351 . S
C2666 C2660 1.428 . S
C2666 N2665 1.351 . S
C2666 C2667 1.434 . S
C2667 C2658 1.429 . S
C2667 N2664 1.350 . S
C2667 C2666 1.434 . S
C2668 C2669 1.369 . S
C2668 C2670 1.419 . S
C2668 H2672 0.930 . S
C2669 C2668 1.369 . S
C2669 C2678 1.429 . S
C2670 C2668 1.419 . S
C2670 C2671 1.363 . S
C2670 H2673 0.929 . S
C2671 C2670 1.363 . S
C2671 C2677 1.428 . S
H2672 C2668 0.930 . S
H2673 C2670 0.929 . S
S2674 N2675 1.613 . S
S2674 N2676 1.610 . S
N2675 S2674 1.613 . S
N2675 C2678 1.350 . S
N2676 S2674 1.610 . S
N2676 C2677 1.351 . S
C2677 C2671 1.428 . S
C2677 N2676 1.351 . S
C2677 C2678 1.434 . S
C2678 C2669 1.429 . S
C2678 N2675 1.350 . S
C2678 C2677 1.434 . S
C2679 C2680 1.369 . S
C2679 C2681 1.419 . S
C2679 H2683 0.930 . S
C2680 C2679 1.369 . S
C2680 C2689 1.429 1_554 S
C2681 C2679 1.419 . S
C2681 C2682 1.353 1_554 S
C2681 H2684 0.929 . S
C2682 C2681 1.353 1_556 S
C2682 C2688 1.432 . S
H2683 C2679 0.930 . S
H2684 C2681 0.929 . S
S2685 N2686 1.613 . S
S2685 N2687 1.610 . S
N2686 S2685 1.613 . S
N2686 C2689 1.350 . S
N2687 S2685 1.610 . S
N2687 C2688 1.351 . S
C2688 C2682 1.432 . S
C2688 N2687 1.351 . S
C2688 C2689 1.434 . S
C2689 C2680 1.429 1_556 S
C2689 N2686 1.350 . S
C2689 C2688 1.434 . S
C2690 C2691 1.369 . S
C2690 C2692 1.419 . S
C2690 H2694 0.930 . S
C2691 C2690 1.369 . S
C2691 C2700 1.429 . S
C2692 C2690 1.419 . S
C2692 C2693 1.363 . S
C2692 H2695 0.929 . S
C2693 C2692 1.363 . S
C2693 C2699 1.428 . S
H2694 C2690 0.930 . S
H2695 C2692 0.929 . S
S2696 N2697 1.613 . S
S2696 N2698 1.610 . S
N2697 S2696 1.613 . S
N2697 C2700 1.350 . S
N2698 S2696 1.610 . S
N2698 C2699 1.351 . S
C2699 C2693 1.428 . S
C2699 N2698 1.351 . S
C2699 C2700 1.434 . S
C2700 C2691 1.429 . S
C2700 N2697 1.350 . S
C2700 C2699 1.434 . S
C2701 C2702 1.369 . S
C2701 C2703 1.419 . S
C2701 H2705 0.930 . S
C2702 C2701 1.369 . S
C2702 C2711 1.429 . S
C2703 C2701 1.419 . S
C2703 C2704 1.363 . S
C2703 H2706 0.929 . S
C2704 C2703 1.363 . S
C2704 C2710 1.428 . S
H2705 C2701 0.930 . S
H2706 C2703 0.929 . S
S2707 N2708 1.613 . S
S2707 N2709 1.610 . S
N2708 S2707 1.613 . S
N2708 C2711 1.350 . S
N2709 S2707 1.610 . S
N2709 C2710 1.351 . S
C2710 C2704 1.428 . S
C2710 N2709 1.351 . S
C2710 C2711 1.434 . S
C2711 C2702 1.429 . S
C2711 N2708 1.350 . S
C2711 C2710 1.434 . S
C1657 C101 2.084 . S
C1659 C368 1.971 . S
C1668 C57 2.197 . S
C1670 C459 2.187 . S
C1679 C73 1.767 . S
C1681 C536 1.818 . S
C1692 C634 1.326 . S
C1690 C78 1.393 . S
C1701 C21 1.485 . S
C1703 C718 1.578 . S
C1714 C790 1.033 . S
C1712 C31 1.078 . S
C1725 C879 1.345 . S
C1723 C49 1.227 . S
C1734 C0 1.579 . S
C1736 C956 1.495 . S
C1747 C375 2.100 . S
C1745 C218 2.211 1_455 S
C1756 C229 0.830 . S
C1758 C466 0.814 . S
C1769 C543 1.173 . S
C1767 C257 1.204 . S
C1780 C620 1.699 . S
C1778 C164 1.678 . S
C1789 C216 2.054 1_455 S
C1791 C704 2.030 . S
C1802 C806 1.213 . S
C1800 C231 1.299 . S
C1813 C886 0.816 . S
C1811 C255 0.858 . S
C1824 C963 1.678 . S
C1822 C166 1.854 . S
C1835 C382 1.392 . S
C1833 C143 1.345 . S
C1844 C265 1.892 . S
C1846 C1047 1.857 1_556 S
C1857 C1135 2.225 . S
C1855 C299 2.401 . S
C1868 C1208 0.777 . S
C1866 C291 0.763 . S
C1877 C104 1.100 . S
C1879 C970 1.291 . S
C1888 C117 1.398 . S
C1890 C550 1.506 . S
C1899 C304 2.095 . S
C1901 C1299 2.068 . S
C1912 C1376 0.713 . S
C1910 C278 0.709 . S
C1923 C379 1.922 . S
C1921 C60 2.070 . S
C1934 C1394 2.132 . S
C1932 C96 2.199 . S
C1943 C88 1.782 . S
C1945 C547 1.722 . S
C1954 C65 1.366 . S
C1956 C1294 1.276 . S
C1967 C706 1.554 . S
C1965 C10 1.525 . S
C1976 C44 1.025 . S
C1978 C1138 1.007 . S
C1989 C890 1.231 . S
C1987 C34 1.005 . S
C2000 C1471 1.460 . S
C1998 C13 1.779 . S
C2011 C386 2.048 . S
C2009 C138 2.118 . S
C2022 C1378 0.784 . S
C2020 C296 0.793 . S
C2031 C112 1.184 . S
C2033 C554 1.135 . S
C2042 C270 1.699 . S
C2044 C1303 1.616 . S
C2053 C140 2.129 . S
C2055 C715 1.958 . S
C2066 C1131 1.174 . S
C2064 C294 1.287 . S
C2075 C114 0.804 . S
C2077 C874 0.792 1_545 S
C2086 C268 1.817 . S
C2088 C1478 1.623 . S
C2097 C169 1.423 . S
C2099 C370 1.379 1_554 S
C2108 C161 1.866 . S
C2110 C1058 1.808 . S
C2119 C234 2.381 . S
C2121 C788 2.180 . S
C2130 C226 0.686 . S
C2132 C1219 0.657 . S
C2143 C1462 1.463 . S
C2141 C247 1.423 1_565 S
C2152 C195 1.544 . S
C2154 C538 1.527 . S
C2165 C638 2.008 . S
C2163 C239 2.042 . S
C2176 C463 0.694 . S
C2174 C187 0.671 . S
C2185 C75 2.084 . S
C2187 C1544 1.971 . S
C2198 C1383 2.187 . S
C2196 C83 2.194 . S
C2207 C99 1.769 . S
C2209 C1628 1.818 . S
C2218 C52 1.399 . S
C2220 C1306 1.330 . S
C2229 C47 1.491 . S
C2231 C1054 1.579 . S
C2242 C1126 1.034 1_455 S
C2240 C5 1.077 . S
C2253 C1215 1.345 . S
C2251 C23 1.233 . S
C2264 C1460 1.491 . S
C2262 C26 1.573 . S
C2275 C1551 2.101 . S
C2273 C244 2.211 . S
C2284 C177 0.830 . S
C2286 C1390 0.820 . S
C2297 C1635 1.174 . S
C2295 C192 1.201 . S
C2308 C1292 1.699 . S
C2306 C203 1.669 . S
C2319 C1040 2.024 . S
C2317 C242 2.057 . S
C2328 C179 1.301 . S
C2330 C1142 1.206 . S
C2341 C1222 0.831 . S
C2339 C190 0.867 . S
C2350 C205 1.852 . S
C2352 C1467 1.682 . S
C2363 C1558 1.393 . S
C2361 C286 1.345 . S
C2372 C122 1.891 . S
C2374 C711 1.858 . S
C2385 C799 2.231 . S
C2383 C130 2.402 . S
C2396 C872 0.765 . S
C2394 C148 0.762 . S
C2407 C1474 1.291 . S
C2405 C273 1.097 . S
C2416 C260 1.405 . S
C2418 C1642 1.503 . S
C2429 C627 2.066 . S
C2427 C135 2.091 . S
C2440 C452 0.725 . S
C2438 C109 0.720 . S
C2449 C86 2.070 . S
C2451 C1555 1.920 . S
C2462 C470 2.129 . S
C2460 C70 2.198 . S
C2471 C62 1.779 . S
C2473 C1639 1.718 . S
C2482 C91 1.371 . S
C2484 C622 1.267 . S
C2493 C36 1.520 . S
C2495 C1042 1.551 . S
C2506 C802 1.006 . S
C2504 C18 1.018 . S
C2515 C8 1.007 . S
C2517 C1226 1.231 . S
C2526 C39 1.774 . S
C2528 C967 1.459 . S
C2539 C1562 2.051 . S
C2537 C307 2.119 . S
C2548 C153 0.803 . S
C2550 C454 0.791 . S
C2561 C1646 1.134 . S
C2559 C281 1.184 . S
C2570 C127 1.701 . S
C2572 C631 1.626 . S
C2581 C309 2.123 . S
C2583 C1051 1.968 . S
C2594 C795 1.178 . S
C2592 C151 1.283 . S
C2603 C283 0.810 . S
C2605 C1210 0.785 1_655 S
C2616 C974 1.618 . S
C2614 C125 1.817 . S
C2627 C1546 1.383 . S
C2625 C221 1.419 . S
C2638 C722 1.810 1_665 S
C2636 C200 1.866 . S
C2647 C208 2.381 . S
C2649 C1124 2.177 . S
C2660 C883 0.655 . S
C2658 C174 0.659 . S
C2669 C182 1.425 . S
C2671 C958 1.462 . S
C2680 C156 1.543 . S
C2682 C1630 1.531 . S
C2693 C1310 2.005 . S
C2691 C213 2.027 1_565 S
C2704 C1387 0.695 . S
C2702 C252 0.672 . S
