# Generated by pormake.
# Topology pth, (4,4)-cn, num edge types: 1
# Building blocks:
#     Node 0, Type 0, BuildingBlock: QUQFOY_clean_sbu_3, # of connection points: 4
#     Node 1, Type 0, BuildingBlock: QUQFOY_clean_sbu_3, # of connection points: 4
#     Node 2, Type 0, BuildingBlock: QUQFOY_clean_sbu_3, # of connection points: 4
#     Node 3, Type 1, BuildingBlock: NAWXER_clean_sbu_0, # of connection points: 4
#     Node 4, Type 1, BuildingBlock: NAWXER_clean_sbu_0, # of connection points: 4
#     Node 5, Type 1, BuildingBlock: NAWXER_clean_sbu_0, # of connection points: 4
#     Edge 6, Type (0, 1), BuildingBlock: TEMPAE_clean_linker_10, # of connection points: 2
#     Edge 7, Type (0, 1), BuildingBlock: TEMPAE_clean_linker_10, # of connection points: 2
#     Edge 8, Type (0, 1), BuildingBlock: TEMPAE_clean_linker_10, # of connection points: 2
#     Edge 9, Type (0, 1), BuildingBlock: TEMPAE_clean_linker_10, # of connection points: 2
#     Edge 10, Type (0, 1), BuildingBlock: TEMPAE_clean_linker_10, # of connection points: 2
#     Edge 11, Type (0, 1), BuildingBlock: TEMPAE_clean_linker_10, # of connection points: 2
#     Edge 12, Type (0, 1), BuildingBlock: TEMPAE_clean_linker_10, # of connection points: 2
#     Edge 13, Type (0, 1), BuildingBlock: TEMPAE_clean_linker_10, # of connection points: 2
#     Edge 14, Type (0, 1), BuildingBlock: TEMPAE_clean_linker_10, # of connection points: 2
#     Edge 15, Type (0, 1), BuildingBlock: TEMPAE_clean_linker_10, # of connection points: 2
#     Edge 16, Type (0, 1), BuildingBlock: TEMPAE_clean_linker_10, # of connection points: 2
#     Edge 17, Type (0, 1), BuildingBlock: TEMPAE_clean_linker_10, # of connection points: 2
# Relax obj value: 0.004
# Max RMSD: 0.054
# Mean RMSD: 0.030
data_MOF--net-pth--node1-QUQFOY_clean_sbu_3--node2-NAWXER_clean_sbu_0--edge1-TEMPAE_clean_linker_10
_symmetry_space_group_name_H-M    P1
_symmetry_Int_Tables_number       1
_symmetry_cell_setting            triclinic
loop_
_symmetry_equiv_pos_as_xyz
'x, y, z'
_cell_length_a     23.452913
_cell_length_b     23.251917
_cell_length_c     60.020222
_cell_angle_alpha  90.07209
_cell_angle_beta   90.779676
_cell_angle_gamma 120.68402
loop_
_atom_site_label
_atom_site_type_symbol
_atom_site_fract_x
_atom_site_fract_y
_atom_site_fract_z
_atom_type_partial_charge
C0 C 0.03493 0.2427 0.0874 0.0
O1 O 0.00876 0.24794 0.06946 0.0
Cd2 Cd 0.97833 0.17056 0.03899 0.0
O3 O 0.04333 0.1932 0.09015 0.0
Cd4 Cd 0.01987 0.09218 0.06833 0.0
C5 C 0.12831 0.18366 0.02943 0.0
O6 O 0.91106 0.05703 0.0507 0.0
O7 O 0.97095 0.02224 0.03541 0.0
O8 O 0.97812 0.02692 0.10225 0.0
C9 C 0.91523 0.01839 0.03674 0.0
O10 O 0.08109 0.19111 0.02232 0.0
C11 C 0.01095 -0.00247 0.10054 0.0
O12 O 0.12337 0.1541 0.04777 0.0
O13 O 0.04985 0.01377 0.08417 0.0
C14 C 0.191 0.19494 0.42808 0.0
O15 O 0.21353 0.23311 0.41137 0.0
Cd16 Cd 0.14518 0.22395 0.37991 0.0
O17 O 0.12941 0.15152 0.42915 0.0
Cd18 Cd 0.02642 0.1125 0.40657 0.0
C19 C 0.09136 0.05997 0.3672 0.0
O20 O 0.04607 0.21964 0.39226 0.0
O21 O 0.96977 0.13094 0.37544 0.0
O22 O 0.97368 0.10671 0.44175 0.0
C23 C -0.0013 0.19379 0.37807 0.0
O24 O 0.12429 0.1211 0.36147 0.0
C25 C 0.92094 0.05144 0.43765 0.0
O26 O 0.05417 0.04231 0.38416 0.0
O27 O 0.91802 0.02255 0.41932 0.0
C28 C 0.9249 0.11471 0.71487 0.0
O29 O 0.93003 0.14463 0.73316 0.0
Cd30 Cd 0.00391 0.15642 0.7631 0.0
O31 O 0.95965 0.08768 0.71152 0.0
Cd32 Cd 0.04447 0.07318 0.73192 0.0
C33 C 0.94487 0.99098 0.77481 0.0
O34 O 0.10801 0.18713 0.74689 0.0
O35 O 0.13107 0.11618 0.761 0.0
O36 O 0.09579 0.08298 0.69593 0.0
C37 C 0.14437 0.17616 0.75986 0.0
O38 O 0.95607 0.04805 0.78132 0.0
C39 C 0.10405 0.03356 0.69862 0.0
O40 O 0.96596 0.98417 0.75612 0.0
O41 O 0.08357 0.00168 0.71671 0.0
C42 C 0.084 0.70637 0.26844 0.0
C43 C 0.07938 0.55434 0.21091 0.0
O44 O 0.13425 0.70599 0.26086 0.0
Zn45 Zn 0.0857 0.63175 0.23993 0.0
O46 O 0.02576 0.66248 0.26153 0.0
Zn47 Zn 0.97857 0.58017 0.23895 0.0
O48 O 0.92865 0.50512 0.2588 0.0
O49 O 0.03707 0.54811 0.26137 0.0
O50 O 0.02207 0.54234 0.21683 0.0
O51 O 0.1312 0.60328 0.21972 0.0
O52 O 0.04356 0.67191 0.21768 0.0
O53 O 0.93424 0.61014 0.2184 0.0
C54 C 0.97832 0.50422 0.26719 0.0
C55 C 0.98655 0.66027 0.21093 0.0
C56 C 0.6136 0.10248 0.59471 0.0
C57 C 0.47917 0.12662 0.53728 0.0
O58 O 0.56624 0.04574 0.58759 0.0
Zn59 Zn 0.48752 0.00934 0.5629 0.0
O60 O 0.62099 0.156 0.58636 0.0
Zn61 Zn 0.54714 0.11482 0.56576 0.0
O62 O 0.46365 0.06888 0.58739 0.0
O63 O 0.40861 0.96021 0.58053 0.0
O64 O 0.52834 0.17233 0.54816 0.0
O65 O 0.46004 0.06504 0.54097 0.0
O66 O 0.51152 0.96027 0.5428 0.0
O67 O 0.5797 0.0696 0.5418 0.0
C68 C 0.41474 0.0102 0.59132 0.0
C69 C 0.56242 0.01063 0.53485 0.0
C70 C 0.5053 0.47333 0.93521 0.0
C71 C 0.64458 0.62497 0.8773 0.0
O72 O 0.48683 0.51379 0.92861 0.0
Zn73 Zn 0.51393 0.59039 0.90448 0.0
O74 O 0.55409 0.47367 0.92611 0.0
Zn75 Zn 0.57577 0.54757 0.90611 0.0
O76 O 0.60192 0.62962 0.92866 0.0
O77 O 0.53327 0.66701 0.92259 0.0
O78 O 0.65366 0.58253 0.88766 0.0
O79 O 0.59518 0.63161 0.88214 0.0
O80 O 0.43774 0.55274 0.88465 0.0
O81 O 0.49661 0.50327 0.88189 0.0
C82 C 0.58229 0.67065 0.93319 0.0
C83 C 0.44764 0.50941 0.87546 0.0
C84 C 0.04772 0.34971 0.1019 0.0
C85 C 0.05429 0.29366 0.10532 0.0
C86 C 0.06122 0.39596 0.11913 0.0
C87 C 0.08163 0.38592 0.14035 0.0
C88 C 0.09141 0.33126 0.14364 0.0
C89 C 0.07764 0.28575 0.12608 0.0
C90 C 0.05028 0.45368 0.11492 0.0
C91 C 0.11315 0.31891 0.16602 0.0
C92 C 0.14187 0.52862 0.1826 0.0
C93 C 0.08308 0.51021 0.19389 0.0
C94 C 0.14296 0.48786 0.16543 0.0
C95 C 0.08404 0.42742 0.15962 0.0
C96 C 0.02535 0.4077 0.17153 0.0
C97 C 0.0256 0.44928 0.18843 0.0
C98 C 0.20645 0.51033 0.15308 0.0
C99 C 0.96152 0.34344 0.16602 0.0
H100 H 0.03045 0.35676 0.08587 0.0
H101 H 0.08339 0.24292 0.12886 0.0
H102 H 0.00681 0.44629 0.12442 0.0
H103 H 0.09384 0.50132 0.12081 0.0
H104 H 0.04118 0.45849 0.09699 0.0
H105 H 0.12655 0.27953 0.16513 0.0
H106 H 0.15636 0.36556 0.17271 0.0
H107 H 0.07235 0.30293 0.17805 0.0
H108 H 0.18646 0.57556 0.18677 0.0
H109 H 0.98009 0.43412 0.19725 0.0
H110 H 0.20028 0.52164 0.13557 0.0
H111 H 0.21814 0.46974 0.15266 0.0
H112 H 0.24912 0.55563 0.16077 0.0
H113 H 0.9449 0.3456 0.1488 0.0
H114 H 0.92109 0.33384 0.17759 0.0
H115 H 0.9696 0.30044 0.16668 0.0
C116 C 0.79877 0.98679 0.44389 0.0
C117 C 0.86345 0.02629 0.45249 0.0
C118 C 0.74368 0.97332 0.45672 0.0
C119 C 0.75374 -0.00109 0.47876 0.0
C120 C 0.81872 0.03426 0.48805 0.0
C121 C 0.87285 0.0482 0.47471 0.0
C122 C 0.67534 0.93613 0.44612 0.0
C123 C 0.83149 0.06106 0.51165 0.0
C124 C 0.64169 0.0541 0.50362 0.0
C125 C 0.60436 0.00245 0.51854 0.0
C126 C 0.68786 0.05155 0.48973 0.0
C127 C 0.69813 0.9967 0.49115 0.0
C128 C 0.65886 0.94313 0.50562 0.0
C129 C 0.61178 0.94633 0.51902 0.0
C130 C 0.72758 0.10903 0.47416 0.0
C131 C 0.66905 0.88433 0.50784 0.0
H132 H 0.79133 0.96998 0.42667 0.0
H133 H 0.92279 0.07823 0.48147 0.0
H134 H 0.63936 0.89761 0.45754 0.0
H135 H 0.65808 0.97176 0.44274 0.0
H136 H 0.67477 0.91158 0.43016 0.0
H137 H 0.88336 0.07945 0.51728 0.0
H138 H 0.82202 0.1031 0.51275 0.0
H139 H 0.79734 0.0218 0.52326 0.0
H140 H 0.63556 0.09727 0.50309 0.0
H141 H 0.58324 0.90654 0.53067 0.0
H142 H 0.72584 0.09 0.45705 0.0
H143 H 0.78029 0.13682 0.47974 0.0
H144 H 0.70917 0.14457 0.47352 0.0
H145 H 0.66994 0.86407 0.49119 0.0
H146 H 0.62978 0.84353 0.51785 0.0
H147 H 0.71777 0.90104 0.51606 0.0
C148 C 0.88128 0.86699 0.78098 0.0
C149 C 0.90672 0.93224 0.78925 0.0
C150 C 0.8421 0.81123 0.79433 0.0
C151 C 0.82862 0.82112 0.81648 0.0
C152 C 0.85641 0.88682 0.82516 0.0
C153 C 0.89481 0.9415 0.81143 0.0
C154 C 0.81296 0.74189 0.78448 0.0
C155 C 0.84359 0.8995 0.84876 0.0
C156 C 0.66903 0.69858 0.84453 0.0
C157 C 0.69061 0.66834 0.86001 0.0
C158 C 0.71289 0.74573 0.82945 0.0
C159 C 0.78031 0.76369 0.82998 0.0
C160 C 0.80191 0.73108 0.84484 0.0
C161 C 0.75655 0.68332 0.85966 0.0
C162 C 0.68761 0.7787 0.81369 0.0
C163 C 0.8735 0.74914 0.84589 0.0
H164 H 0.89044 0.8594 0.76388 0.0
H165 H 0.91497 0.9917 0.81806 0.0
H166 H 0.82247 0.70977 0.79573 0.0
H167 H 0.75838 0.71852 0.7827 0.0
H168 H 0.83345 0.74245 0.76785 0.0
H169 H 0.87329 0.95324 0.85353 0.0
H170 H 0.79029 0.88264 0.85052 0.0
H171 H 0.85532 0.87035 0.86065 0.0
H172 H 0.61782 0.68643 0.84451 0.0
H173 H 0.77338 0.65999 0.8716 0.0
H174 H 0.70265 0.77677 0.79639 0.0
H175 H 0.7098 0.83219 0.81837 0.0
H176 H 0.63277 0.7547 0.81396 0.0
H177 H 0.89186 0.74942 0.82893 0.0
H178 H 0.88076 0.71402 0.8564 0.0
H179 H 0.90438 0.80034 0.85294 0.0
C180 C 0.97032 0.9382 0.13673 0.0
C181 C 0.0028 0.94565 0.11655 0.0
C182 C 0.96238 0.88932 0.15211 0.0
C183 C 0.98662 0.84626 0.14703 0.0
C184 C 0.01798 0.85248 0.12644 0.0
C185 C 0.0262 0.9025 0.11152 0.0
C186 C 0.92979 0.88505 0.17406 0.0
C187 C 0.0439 0.80704 0.12034 0.0
C188 C 0.03778 0.773 0.19409 0.0
C189 C 0.98362 0.70742 0.19513 0.0
C190 C 0.03853 0.81885 0.17885 0.0
C191 C 0.98418 0.79844 0.16396 0.0
C192 C 0.92886 0.73249 0.16503 0.0
C193 C 0.92893 0.68777 0.18081 0.0
C194 C 0.09793 0.88903 0.17856 0.0
C195 C 0.87043 0.70884 0.14921 0.0
H196 H 0.95206 0.97139 0.14068 0.0
H197 H 0.0507 0.90756 0.09585 0.0
H198 H 0.88806 0.83342 0.17671 0.0
H199 H 0.96606 0.89707 0.18793 0.0
H200 H 0.91071 0.91997 0.175 0.0
H201 H 0.06236 0.81494 0.10301 0.0
H202 H 0.08509 0.81613 0.13188 0.0
H203 H 0.00432 0.75393 0.12212 0.0
H204 H 0.07989 0.78877 0.20532 0.0
H205 H 0.88711 0.63707 0.18154 0.0
H206 H 0.08183 0.92604 0.18059 0.0
H207 H 0.12279 0.89859 0.16225 0.0
H208 H 0.13476 0.89772 0.19194 0.0
H209 H 0.84931 0.74187 0.15052 0.0
H210 H 0.8307 0.65659 0.15251 0.0
H211 H 0.887 0.71178 0.1318 0.0
C212 C 0.30456 0.22333 0.44065 0.0
C213 C 0.23728 0.1965 0.44542 0.0
C214 C 0.3474 0.21749 0.4558 0.0
C215 C 0.32261 0.18519 0.47638 0.0
C216 C 0.25561 0.1612 0.48178 0.0
C217 C 0.21355 0.16654 0.46614 0.0
C218 C 0.41827 0.24282 0.4493 0.0
C219 C 0.2277 0.12769 0.50375 0.0
C220 C 0.40239 0.09708 0.50452 0.0
C221 C 0.44222 0.14357 0.52102 0.0
C222 C 0.36441 0.11076 0.48959 0.0
C223 C 0.36524 0.17189 0.49151 0.0
C224 C 0.40571 0.2193 0.50804 0.0
C225 C 0.44431 0.20483 0.52248 0.0
C226 C 0.32289 0.05946 0.4719 0.0
C227 C 0.40698 0.28448 0.51081 0.0
H228 H 0.32318 0.24624 0.42463 0.0
H229 H 0.16173 0.14617 0.46998 0.0
H230 H 0.45299 0.2759 0.46256 0.0
H231 H 0.42619 0.19993 0.44738 0.0
H232 H 0.43105 0.27084 0.43341 0.0
H233 H 0.17665 0.11783 0.50629 0.0
H234 H 0.22647 0.07939 0.50442 0.0
H235 H 0.25993 0.15924 0.51775 0.0
H236 H 0.40095 0.04984 0.50324 0.0
H237 H 0.47465 0.24071 0.53534 0.0
H238 H 0.33544 0.08258 0.45517 0.0
H239 H 0.2696 0.04115 0.47453 0.0
H240 H 0.3302 0.01587 0.47199 0.0
H241 H 0.42124 0.31266 0.49499 0.0
H242 H 0.44209 0.31656 0.5242 0.0
H243 H 0.35664 0.27426 0.51488 0.0
C244 C 0.21681 0.29564 0.77142 0.0
C245 C 0.19082 0.22763 0.77583 0.0
C246 C 0.25938 0.34491 0.78684 0.0
C247 C 0.27476 0.3254 0.80733 0.0
C248 C 0.24818 0.25671 0.8119 0.0
C249 C 0.2072 0.20867 0.79596 0.0
C250 C 0.28822 0.41774 0.78117 0.0
C251 C 0.26249 0.23392 0.83374 0.0
C252 C 0.42929 0.44273 0.84092 0.0
C253 C 0.40378 0.46606 0.8573 0.0
C254 C 0.38822 0.39897 0.82403 0.0
C255 C 0.31967 0.3766 0.8239 0.0
C256 C 0.29375 0.40068 0.84025 0.0
C257 C 0.33643 0.446 0.85662 0.0
C258 C 0.41801 0.37577 0.80656 0.0
C259 C 0.22064 0.37676 0.84091 0.0
H260 H 0.2043 0.31034 0.75582 0.0
H261 H 0.18663 0.15606 0.7995 0.0
H262 H 0.27296 0.44232 0.79364 0.0
H263 H 0.34318 0.44385 0.78182 0.0
H264 H 0.27225 0.42454 0.76436 0.0
H265 H 0.23589 0.17855 0.83502 0.0
H266 H 0.31646 0.25352 0.83562 0.0
H267 H 0.24774 0.25418 0.84784 0.0
H268 H 0.48161 0.45889 0.8413 0.0
H269 H 0.31671 0.46382 0.86937 0.0
H270 H 0.40415 0.38416 0.78964 0.0
H271 H 0.39806 0.32128 0.8082 0.0
H272 H 0.47295 0.40203 0.80799 0.0
H273 H 0.20357 0.38598 0.8247 0.0
H274 H 0.20873 0.40179 0.8543 0.0
H275 H 0.19211 0.32198 0.8437 0.0
C276 C 0.88297 0.09351 0.67535 0.0
C277 C 0.87889 0.11225 0.69723 0.0
C278 C 0.84065 0.09259 0.65841 0.0
C279 C 0.79257 0.10998 0.66355 0.0
C280 C 0.78779 0.12836 0.68562 0.0
C281 C 0.83127 0.12966 0.70217 0.0
C282 C 0.84758 0.07335 0.635 0.0
C283 C 0.73656 0.14637 0.69179 0.0
C284 C 0.71936 0.16423 0.617 0.0
C285 C 0.65929 0.10494 0.61244 0.0
C286 C 0.76352 0.16648 0.63348 0.0
C287 C 0.74672 0.1083 0.64587 0.0
C288 C 0.6859 0.0485 0.64148 0.0
C289 C 0.64311 0.04744 0.62473 0.0
C290 C 0.8283 0.23097 0.63755 0.0
C291 C 0.66588 0.98569 0.65455 0.0
H292 H 0.91987 0.08036 0.67137 0.0
H293 H 0.82757 0.14392 0.71905 0.0
H294 H 0.80054 0.02862 0.62938 0.0
H295 H 0.85753 0.11445 0.62339 0.0
H296 H 0.88823 0.06226 0.63369 0.0
H297 H 0.73898 0.15899 0.70977 0.0
H298 H 0.74375 0.18977 0.68189 0.0
H299 H 0.68611 0.104 0.68774 0.0
H300 H 0.73231 0.20875 0.60748 0.0
H301 H 0.59661 0.00151 0.62138 0.0
H302 H 0.87041 0.2227 0.63513 0.0
H303 H 0.83131 0.24795 0.65504 0.0
H304 H 0.83433 0.27148 0.62627 0.0
H305 H 0.70311 0.97022 0.65247 0.0
H306 H 0.61651 0.94353 0.64925 0.0
H307 H 0.6645 0.99548 0.67258 0.0
C308 C 0.8736 0.95576 0.00098 0.0
C309 C 0.85999 0.97441 0.02152 0.0
C310 C 0.82227 0.91016 0.98687 0.0
C311 C 0.75574 0.88118 0.99373 0.0
C312 C 0.74151 0.90134 0.01418 0.0
C313 C 0.79401 0.94849 0.02777 0.0
C314 C 0.83951 0.89109 0.96497 0.0
C315 C 0.67128 0.87063 0.02221 0.0
C316 C 0.62688 0.78639 0.94824 0.0
C317 C 0.61845 0.72253 0.95039 0.0
C318 C 0.66924 0.83842 0.96294 0.0
C319 C 0.7024 0.82543 0.98036 0.0
C320 C 0.69018 0.75976 0.98344 0.0
C321 C 0.64901 0.70931 0.96824 0.0
C322 C 0.68183 0.90799 0.95893 0.0
C323 C 0.72337 0.74347 0.0021 0.0
H324 H 0.92464 0.97645 0.99601 0.0
H325 H 0.78354 0.96285 0.04371 0.0
H326 H 0.82741 0.83835 0.96556 0.0
H327 H 0.80972 0.89492 0.95116 0.0
H328 H 0.89292 0.92318 0.96109 0.0
H329 H 0.668 0.89658 0.03727 0.0
H330 H 0.63862 0.87188 0.00893 0.0
H331 H 0.65187 0.81733 0.02632 0.0
H332 H 0.60333 0.79658 0.93438 0.0
H333 H 0.64172 0.6596 0.97006 0.0
H334 H 0.73275 0.9399 0.95256 0.0
H335 H 0.67872 0.93104 0.9747 0.0
H336 H 0.64616 0.90818 0.9466 0.0
H337 H 0.77715 0.76708 -0.00118 0.0
H338 H 0.7023 0.68874 0.00384 0.0
H339 H 0.71826 0.76393 0.01817 0.0
C340 C 0.07641 0.94585 0.36268 0.0
C341 C 0.09709 0.00938 0.35398 0.0
C342 C 0.08073 0.89734 0.35007 0.0
C343 C 0.10518 0.91237 0.32811 0.0
C344 C 0.12747 0.97686 0.31943 0.0
C345 C 0.1236 0.02471 0.33252 0.0
C346 C 0.05723 0.82935 0.35999 0.0
C347 C 0.15273 0.99446 0.29594 0.0
C348 C 0.14948 0.79859 0.29647 0.0
C349 C 0.09085 0.7587 0.28416 0.0
C350 C 0.15474 0.84822 0.31124 0.0
C351 C 0.10056 0.8587 0.31335 0.0
C352 C 0.04154 0.8187 0.30088 0.0
C353 C 0.03729 0.76904 0.28661 0.0
C354 C 0.21807 0.88945 0.32456 0.0
C355 C 0.98298 0.82891 0.30233 0.0
H356 H 0.05667 0.93392 0.37936 0.0
H357 H 0.13975 0.07369 0.32567 0.0
H358 H 0.01146 0.79133 0.35114 0.0
H359 H 0.09515 0.81482 0.35783 0.0
H360 H 0.04641 0.82795 0.37801 0.0
H361 H 0.17258 0.04815 0.29226 0.0
H362 H 0.19234 0.98269 0.29313 0.0
H363 H 0.11182 0.96392 0.2839 0.0
H364 H 0.1909 0.79066 0.29469 0.0
H365 H 0.99195 0.73891 0.27701 0.0
H366 H 0.20713 0.88536 0.34261 0.0
H367 H 0.24086 0.94298 0.32015 0.0
H368 H 0.25471 0.87356 0.32161 0.0
H369 H 0.96552 0.82213 0.31973 0.0
H370 H 0.9408 0.79366 0.2914 0.0
H371 H -0.00193 0.88076 0.29748 0.0
C372 C 0.16568 0.97634 0.68794 0.0
C373 C 0.13946 0.01669 0.68205 0.0
C374 C 0.20605 0.96651 0.67321 0.0
C375 C 0.21959 0.99699 0.65202 0.0
C376 C 0.19004 0.03454 0.64553 0.0
C377 C 0.15077 0.0444 0.6607 0.0
C378 C 0.23719 0.92674 0.68083 0.0
C379 C 0.20242 0.06698 0.62295 0.0
C380 C 0.38357 0.05166 0.62449 0.0
C381 C 0.36551 0.00239 0.60797 0.0
C382 C 0.33693 0.04888 0.63943 0.0
C383 C 0.27019 0.99609 0.6376 0.0
C384 C 0.25185 0.94513 0.62134 0.0
C385 C 0.30001 0.94858 0.60679 0.0
C386 C 0.35883 0.10361 0.65679 0.0
C387 C 0.181 0.88854 0.61875 0.0
H388 H 0.15708 0.9548 0.70443 0.0
H389 H 0.13004 0.07507 0.65598 0.0
H390 H 0.23021 0.8893 0.66797 0.0
H391 H 0.29138 0.96083 0.68327 0.0
H392 H 0.21621 0.90045 0.69673 0.0
H393 H 0.17006 0.08807 0.61954 0.0
H394 H 0.25488 0.10803 0.62203 0.0
H395 H 0.19398 0.03022 0.60962 0.0
H396 H 0.43434 0.093 0.62561 0.0
H397 H 0.28583 0.91058 0.59397 0.0
H398 H 0.34375 0.08161 0.67359 0.0
H399 H 0.33427 0.13285 0.65345 0.0
H400 H 0.41336 0.13846 0.65698 0.0
H401 H 0.16191 0.86384 0.63498 0.0
H402 H 0.17576 0.85036 0.60643 0.0
H403 H 0.14931 0.90866 0.6132 0.0
C404 C 0.25006 0.22525 0.02624 0.0
C405 C 0.19 0.21258 0.01645 0.0
C406 C 0.3099 0.26059 0.01465 0.0
C407 C 0.30923 0.28335 0.99282 0.0
C408 C 0.24809 0.26648 0.98237 0.0
C409 C 0.18939 0.23153 0.99432 0.0
C410 C 0.37402 0.27712 0.02626 0.0
C411 C 0.24494 0.28912 0.95903 0.0
C412 C 0.44173 0.44741 0.96992 0.0
C413 C 0.46764 0.42626 0.95304 0.0
C414 C 0.39453 0.40157 0.98453 0.0
C415 C 0.37178 0.33263 0.98188 0.0
C416 C 0.4019 0.3116 0.96605 0.0
C417 C 0.45008 0.35902 0.95181 0.0
C418 C 0.36476 0.42646 0.00144 0.0
C419 C 0.37929 0.23865 0.96283 0.0
H420 H 0.25084 0.21033 0.04329 0.0
H421 H 0.14303 0.22084 0.98648 0.0
H422 H 0.4071 0.27083 0.01475 0.0
H423 H 0.40037 0.3302 0.0318 0.0
H424 H 0.36537 0.24536 0.04111 0.0
H425 H 0.19321 0.26615 0.95253 0.0
H426 H 0.26771 0.34429 0.95894 0.0
H427 H 0.27345 0.27635 0.94749 0.0
H428 H 0.45619 0.49972 0.97105 0.0
H429 H 0.47023 0.34276 0.93872 0.0
H430 H 0.36146 0.40346 0.0179 0.0
H431 H 0.31366 0.41187 0.99601 0.0
H432 H 0.39406 0.48173 0.00344 0.0
H433 H 0.37047 0.21307 0.9791 0.0
H434 H 0.41602 0.23185 0.95348 0.0
H435 H 0.33171 0.21381 0.95328 0.0
C436 C 0.94367 0.20739 0.3442 0.0
C437 C 0.98348 0.23539 0.36337 0.0
C438 C 0.93376 0.24738 0.32899 0.0
C439 C 0.96366 0.31683 0.33322 0.0
C440 C 0.00069 0.34464 0.3532 0.0
C441 C 0.01061 0.30366 0.36796 0.0
C442 C 0.89465 0.21595 0.30776 0.0
C443 C 0.0326 0.41834 0.35846 0.0
C444 C 0.01949 0.43529 0.2845 0.0
C445 C 0.97039 0.45259 0.2832 0.0
C446 C 0.01664 0.38984 0.30032 0.0
C447 C 0.96388 0.36167 0.31555 0.0
C448 C 0.91329 0.37788 0.31411 0.0
C449 C 0.9168 0.42285 0.29774 0.0
C450 C 0.07091 0.37294 0.30096 0.0
C451 C 0.85676 0.34932 0.33026 0.0
H452 H 0.9223 0.15456 0.34059 0.0
H453 H 0.04072 0.3254 0.3829 0.0
H454 H 0.85771 0.23151 0.30476 0.0
H455 H 0.92875 0.23342 0.29343 0.0
H456 H 0.86841 0.16046 0.30813 0.0
H457 H 0.05245 0.43051 0.37582 0.0
H458 H 0.07407 0.44732 0.34691 0.0
H459 H 0.99635 0.4351 0.356 0.0
H460 H 0.06061 0.45756 0.27309 0.0
H461 H 0.87896 0.43643 0.2968 0.0
H462 H 0.04909 0.31798 0.29982 0.0
H463 H 0.09872 0.38996 0.31702 0.0
H464 H 0.10654 0.3966 0.28719 0.0
H465 H 0.83143 0.29394 0.33027 0.0
H466 H 0.81968 0.36415 0.32622 0.0
H467 H 0.87638 0.36695 0.3474 0.0
loop_
_geom_bond_atom_site_label_1
_geom_bond_atom_site_label_2
_geom_bond_distance
_geom_bond_site_symmetry_2
_ccdc_geom_bond_type
C0 O1 1.306 1_455 S
C0 O3 1.160 . S
O1 C0 1.306 1_655 S
O1 Cd2 2.228 . S
Cd2 O1 2.228 . S
Cd2 O6 2.273 . S
Cd2 O10 2.277 1_655 S
O3 C0 1.160 . S
O3 Cd4 2.203 . S
Cd4 O3 2.203 . S
Cd4 O6 2.411 1_455 S
Cd4 O7 2.333 1_545 S
Cd4 O8 2.352 . S
Cd4 O12 2.277 . S
Cd4 O13 2.356 . S
C5 O10 1.209 . S
C5 O12 1.226 . S
O6 Cd2 2.273 . S
O6 Cd4 2.411 1_655 S
O6 C9 1.320 . S
O7 Cd4 2.333 1_565 S
O7 C9 1.214 1_465 S
O8 Cd4 2.352 . S
O8 C11 1.258 1_545 S
C9 O6 1.320 . S
C9 O7 1.214 1_645 S
O10 Cd2 2.277 1_455 S
O10 C5 1.209 . S
C11 O8 1.258 1_565 S
C11 O13 1.282 1_565 S
O12 Cd4 2.277 . S
O12 C5 1.226 . S
O13 Cd4 2.356 . S
O13 C11 1.282 1_545 S
C14 O15 1.306 . S
C14 O17 1.160 . S
O15 C14 1.306 . S
O15 Cd16 2.228 . S
Cd16 O15 2.228 . S
Cd16 O20 2.273 . S
Cd16 O24 2.277 . S
O17 C14 1.160 . S
O17 Cd18 2.203 . S
Cd18 O17 2.203 . S
Cd18 O20 2.411 . S
Cd18 O21 2.333 1_455 S
Cd18 O22 2.352 1_455 S
Cd18 O26 2.277 1_445 S
Cd18 O27 2.356 1_455 S
C19 O24 1.209 1_565 S
C19 O26 1.226 1_455 S
O20 Cd16 2.273 . S
O20 Cd18 2.411 . S
O20 C23 1.320 . S
O21 Cd18 2.333 1_655 S
O21 C23 1.214 1_655 S
O22 Cd18 2.352 1_655 S
O22 C25 1.258 . S
C23 O20 1.320 . S
C23 O21 1.214 1_455 S
O24 Cd16 2.277 . S
O24 C19 1.209 1_545 S
C25 O22 1.258 . S
C25 O27 1.282 . S
O26 Cd18 2.277 1_665 S
O26 C19 1.226 1_655 S
O27 Cd18 2.356 1_655 S
O27 C25 1.282 . S
C28 O29 1.306 . S
C28 O31 1.160 . S
O29 C28 1.306 . S
O29 Cd30 2.228 . S
Cd30 O29 2.228 . S
Cd30 O34 2.273 1_655 S
Cd30 O38 2.277 . S
O31 C28 1.160 . S
O31 Cd32 2.203 1_655 S
Cd32 O31 2.203 1_455 S
Cd32 O34 2.411 . S
Cd32 O35 2.333 . S
Cd32 O36 2.352 . S
Cd32 O40 2.277 1_445 S
Cd32 O41 2.356 . S
C33 O38 1.224 . S
C33 O40 1.216 1_545 S
O34 Cd30 2.273 1_455 S
O34 Cd32 2.411 . S
O34 C37 1.320 . S
O35 Cd32 2.333 . S
O35 C37 1.214 . S
O36 Cd32 2.352 . S
O36 C39 1.258 . S
C37 O34 1.320 . S
C37 O35 1.214 . S
O38 Cd30 2.277 . S
O38 C33 1.224 . S
C39 O36 1.258 . S
C39 O41 1.282 . S
O40 Cd32 2.277 1_665 S
O40 C33 1.216 1_565 S
O41 Cd32 2.356 . S
O41 C39 1.282 . S
C42 O44 1.247 . S
C42 O46 1.258 1_455 S
C43 O50 1.247 1_455 S
C43 O51 1.258 . S
O44 C42 1.247 . S
O44 Zn45 2.028 . S
Zn45 O44 2.028 . S
Zn45 O49 2.035 . S
Zn45 O51 2.035 . S
Zn45 O52 2.028 . S
O46 C42 1.258 1_655 S
O46 Zn47 2.035 . S
Zn47 O46 2.035 . S
Zn47 O48 2.028 . S
Zn47 O50 2.028 . S
Zn47 O53 2.035 . S
O48 Zn47 2.028 . S
O48 C54 1.247 1_655 S
O49 Zn45 2.035 . S
O49 C54 1.258 . S
O50 C43 1.247 1_655 S
O50 Zn47 2.028 . S
O51 C43 1.258 . S
O51 Zn45 2.035 . S
O52 Zn45 2.028 . S
O52 C55 1.247 . S
O53 Zn47 2.035 . S
O53 C55 1.258 1_655 S
C54 O48 1.247 1_455 S
C54 O49 1.258 . S
C55 O52 1.247 . S
C55 O53 1.258 1_455 S
C56 O58 1.247 . S
C56 O60 1.258 . S
C57 O64 1.247 . S
C57 O65 1.258 . S
O58 C56 1.247 . S
O58 Zn59 2.028 . S
Zn59 O58 2.028 . S
Zn59 O63 2.035 . S
Zn59 O65 2.035 . S
Zn59 O66 2.028 . S
O60 C56 1.258 . S
O60 Zn61 2.035 . S
Zn61 O60 2.035 . S
Zn61 O62 2.028 . S
Zn61 O64 2.028 . S
Zn61 O67 2.035 . S
O62 Zn61 2.028 . S
O62 C68 1.247 . S
O63 Zn59 2.035 . S
O63 C68 1.258 . S
O64 C57 1.247 . S
O64 Zn61 2.028 . S
O65 C57 1.258 . S
O65 Zn59 2.035 . S
O66 Zn59 2.028 . S
O66 C69 1.247 . S
O67 Zn61 2.035 . S
O67 C69 1.258 . S
C68 O62 1.247 . S
C68 O63 1.258 . S
C69 O66 1.247 . S
C69 O67 1.258 . S
C70 O72 1.247 . S
C70 O74 1.258 . S
C71 O78 1.247 . S
C71 O79 1.258 . S
O72 C70 1.247 . S
O72 Zn73 2.028 . S
Zn73 O72 2.028 . S
Zn73 O77 2.035 . S
Zn73 O79 2.035 . S
Zn73 O80 2.028 . S
O74 C70 1.258 . S
O74 Zn75 2.035 . S
Zn75 O74 2.035 . S
Zn75 O76 2.028 . S
Zn75 O78 2.028 . S
Zn75 O81 2.035 . S
O76 Zn75 2.028 . S
O76 C82 1.247 . S
O77 Zn73 2.035 . S
O77 C82 1.258 . S
O78 C71 1.247 . S
O78 Zn75 2.028 . S
O79 C71 1.258 . S
O79 Zn73 2.035 . S
O80 Zn73 2.028 . S
O80 C83 1.247 . S
O81 Zn75 2.035 . S
O81 C83 1.258 . S
C82 O76 1.247 . S
C82 O77 1.258 . S
C83 O80 1.247 . S
C83 O81 1.258 . S
C84 C85 1.391 1_655 S
C84 C86 1.394 . S
C84 H100 0.931 . S
C85 C84 1.391 1_455 S
C85 C89 1.376 . S
C86 C84 1.394 . S
C86 C87 1.369 1_655 S
C86 C90 1.531 . S
C87 C86 1.369 1_455 S
C87 C88 1.410 . S
C87 C95 1.503 . S
C88 C87 1.410 . S
C88 C89 1.392 . S
C88 C91 1.511 . S
C89 C85 1.376 . S
C89 C88 1.392 . S
C89 H101 0.929 . S
C90 C86 1.531 . S
C90 H102 0.960 . S
C90 H103 0.962 . S
C90 H104 0.960 . S
C91 C88 1.511 . S
C91 H105 0.961 . S
C91 H106 0.961 . S
C91 H107 0.961 . S
C92 C93 1.370 . S
C92 C94 1.363 . S
C92 H108 0.931 . S
C93 C92 1.370 . S
C93 C97 1.408 . S
C94 C92 1.363 . S
C94 C95 1.370 . S
C94 C98 1.524 . S
C95 C87 1.503 . S
C95 C94 1.370 . S
C95 C96 1.403 . S
C96 C95 1.403 . S
C96 C97 1.404 . S
C96 C99 1.539 . S
C97 C93 1.408 . S
C97 C96 1.404 . S
C97 H109 0.930 . S
C98 C94 1.524 . S
C98 H110 0.956 1_455 S
C98 H111 0.961 . S
C98 H112 0.961 1_455 S
C99 C96 1.539 . S
C99 H113 0.958 . S
C99 H114 0.961 . S
C99 H115 0.960 . S
H100 C84 0.931 . S
H101 C89 0.929 . S
H102 C90 0.960 . S
H103 C90 0.962 . S
H104 C90 0.960 . S
H105 C91 0.961 . S
H106 C91 0.961 . S
H107 C91 0.961 . S
H108 C92 0.931 . S
H109 C97 0.930 . S
H110 C98 0.956 1_655 S
H111 C98 0.961 . S
H112 C98 0.961 1_655 S
H113 C99 0.958 . S
H114 C99 0.961 . S
H115 C99 0.960 . S
C116 C117 1.391 . S
C116 C118 1.394 . S
C116 H132 0.931 1_545 S
C117 C116 1.391 . S
C117 C121 1.376 . S
C118 C116 1.394 . S
C118 C119 1.369 . S
C118 C122 1.531 1_545 S
C119 C118 1.369 . S
C119 C120 1.410 . S
C119 C127 1.503 . S
C120 C119 1.410 . S
C120 C121 1.392 . S
C120 C123 1.511 . S
C121 C117 1.376 . S
C121 C120 1.392 . S
C121 H133 0.929 . S
C122 C118 1.531 1_565 S
C122 H134 0.960 . S
C122 H135 0.962 . S
C122 H136 0.960 . S
C123 C120 1.511 . S
C123 H137 0.961 . S
C123 H138 0.961 . S
C123 H139 0.961 . S
C124 C125 1.370 . S
C124 C126 1.363 . S
C124 H140 0.931 . S
C125 C124 1.370 . S
C125 C129 1.408 . S
C126 C124 1.363 . S
C126 C127 1.370 . S
C126 C130 1.524 . S
C127 C119 1.503 . S
C127 C126 1.370 . S
C127 C128 1.403 . S
C128 C127 1.403 . S
C128 C129 1.404 . S
C128 C131 1.539 . S
C129 C125 1.408 . S
C129 C128 1.404 . S
C129 H141 0.930 . S
C130 C126 1.524 . S
C130 H142 0.956 1_545 S
C130 H143 0.961 . S
C130 H144 0.961 . S
C131 C128 1.539 . S
C131 H145 0.958 . S
C131 H146 0.961 . S
C131 H147 0.960 . S
H132 C116 0.931 1_565 S
H133 C121 0.929 . S
H134 C122 0.960 . S
H135 C122 0.962 . S
H136 C122 0.960 . S
H137 C123 0.961 . S
H138 C123 0.961 . S
H139 C123 0.961 . S
H140 C124 0.931 . S
H141 C129 0.930 . S
H142 C130 0.956 1_565 S
H143 C130 0.961 . S
H144 C130 0.961 . S
H145 C131 0.958 . S
H146 C131 0.961 . S
H147 C131 0.960 . S
C148 C149 1.391 . S
C148 C150 1.394 . S
C148 H164 0.931 . S
C149 C148 1.391 . S
C149 C153 1.376 . S
C150 C148 1.394 . S
C150 C151 1.369 . S
C150 C154 1.531 . S
C151 C150 1.369 . S
C151 C152 1.410 . S
C151 C159 1.503 . S
C152 C151 1.410 . S
C152 C153 1.392 . S
C152 C155 1.511 . S
C153 C149 1.376 . S
C153 C152 1.392 . S
C153 H165 0.929 1_565 S
C154 C150 1.531 . S
C154 H166 0.960 . S
C154 H167 0.962 . S
C154 H168 0.960 . S
C155 C152 1.511 . S
C155 H169 0.961 . S
C155 H170 0.961 . S
C155 H171 0.961 . S
C156 C157 1.370 . S
C156 C158 1.363 . S
C156 H172 0.931 . S
C157 C156 1.370 . S
C157 C161 1.408 . S
C158 C156 1.363 . S
C158 C159 1.370 . S
C158 C162 1.524 . S
C159 C151 1.503 . S
C159 C158 1.370 . S
C159 C160 1.403 . S
C160 C159 1.403 . S
C160 C161 1.404 . S
C160 C163 1.539 . S
C161 C157 1.408 . S
C161 C160 1.404 . S
C161 H173 0.930 . S
C162 C158 1.524 . S
C162 H174 0.956 . S
C162 H175 0.961 . S
C162 H176 0.961 . S
C163 C160 1.539 . S
C163 H177 0.958 . S
C163 H178 0.961 . S
C163 H179 0.960 . S
H164 C148 0.931 . S
H165 C153 0.929 1_545 S
H166 C154 0.960 . S
H167 C154 0.962 . S
H168 C154 0.960 . S
H169 C155 0.961 . S
H170 C155 0.961 . S
H171 C155 0.961 . S
H172 C156 0.931 . S
H173 C161 0.930 . S
H174 C162 0.956 . S
H175 C162 0.961 . S
H176 C162 0.961 . S
H177 C163 0.958 . S
H178 C163 0.961 . S
H179 C163 0.960 . S
C180 C181 1.391 1_655 S
C180 C182 1.394 . S
C180 H196 0.931 . S
C181 C180 1.391 1_455 S
C181 C185 1.376 . S
C182 C180 1.394 . S
C182 C183 1.369 1_655 S
C182 C186 1.531 . S
C183 C182 1.369 1_455 S
C183 C184 1.410 . S
C183 C191 1.503 . S
C184 C183 1.410 . S
C184 C185 1.392 . S
C184 C187 1.511 . S
C185 C181 1.376 . S
C185 C184 1.392 . S
C185 H197 0.929 . S
C186 C182 1.531 . S
C186 H198 0.960 . S
C186 H199 0.962 . S
C186 H200 0.960 . S
C187 C184 1.511 . S
C187 H201 0.961 . S
C187 H202 0.961 . S
C187 H203 0.961 . S
C188 C189 1.370 . S
C188 C190 1.363 . S
C188 H204 0.931 . S
C189 C188 1.370 . S
C189 C193 1.408 . S
C190 C188 1.363 . S
C190 C191 1.370 . S
C190 C194 1.524 . S
C191 C183 1.503 . S
C191 C190 1.370 . S
C191 C192 1.403 . S
C192 C191 1.403 . S
C192 C193 1.404 . S
C192 C195 1.539 . S
C193 C189 1.408 . S
C193 C192 1.404 . S
C193 H205 0.930 . S
C194 C190 1.524 . S
C194 H206 0.956 . S
C194 H207 0.961 . S
C194 H208 0.961 . S
C195 C192 1.539 . S
C195 H209 0.958 . S
C195 H210 0.961 . S
C195 H211 0.960 . S
H196 C180 0.931 . S
H197 C185 0.929 . S
H198 C186 0.960 . S
H199 C186 0.962 . S
H200 C186 0.960 . S
H201 C187 0.961 . S
H202 C187 0.961 . S
H203 C187 0.961 . S
H204 C188 0.931 . S
H205 C193 0.930 . S
H206 C194 0.956 . S
H207 C194 0.961 . S
H208 C194 0.961 . S
H209 C195 0.958 . S
H210 C195 0.961 . S
H211 C195 0.960 . S
C212 C213 1.391 . S
C212 C214 1.394 . S
C212 H228 0.931 . S
C213 C212 1.391 . S
C213 C217 1.376 . S
C214 C212 1.394 . S
C214 C215 1.369 . S
C214 C218 1.531 . S
C215 C214 1.369 . S
C215 C216 1.410 . S
C215 C223 1.503 . S
C216 C215 1.410 . S
C216 C217 1.392 . S
C216 C219 1.511 . S
C217 C213 1.376 . S
C217 C216 1.392 . S
C217 H229 0.929 . S
C218 C214 1.531 . S
C218 H230 0.960 . S
C218 H231 0.962 . S
C218 H232 0.960 . S
C219 C216 1.511 . S
C219 H233 0.961 1_545 S
C219 H234 0.961 1_545 S
C219 H235 0.961 . S
C220 C221 1.370 . S
C220 C222 1.363 . S
C220 H236 0.931 . S
C221 C220 1.370 . S
C221 C225 1.408 . S
C222 C220 1.363 . S
C222 C223 1.370 . S
C222 C226 1.524 . S
C223 C215 1.503 . S
C223 C222 1.370 . S
C223 C224 1.403 . S
C224 C223 1.403 . S
C224 C225 1.404 . S
C224 C227 1.539 . S
C225 C221 1.408 . S
C225 C224 1.404 . S
C225 H237 0.930 . S
C226 C222 1.524 . S
C226 H238 0.956 . S
C226 H239 0.961 1_545 S
C226 H240 0.961 1_545 S
C227 C224 1.539 . S
C227 H241 0.958 . S
C227 H242 0.961 . S
C227 H243 0.960 . S
H228 C212 0.931 . S
H229 C217 0.929 . S
H230 C218 0.960 . S
H231 C218 0.962 . S
H232 C218 0.960 . S
H233 C219 0.961 1_565 S
H234 C219 0.961 1_565 S
H235 C219 0.961 . S
H236 C220 0.931 . S
H237 C225 0.930 . S
H238 C226 0.956 . S
H239 C226 0.961 1_565 S
H240 C226 0.961 1_565 S
H241 C227 0.958 . S
H242 C227 0.961 . S
H243 C227 0.960 . S
C244 C245 1.391 . S
C244 C246 1.394 . S
C244 H260 0.931 . S
C245 C244 1.391 . S
C245 C249 1.376 . S
C246 C244 1.394 . S
C246 C247 1.369 . S
C246 C250 1.531 . S
C247 C246 1.369 . S
C247 C248 1.410 . S
C247 C255 1.503 . S
C248 C247 1.410 . S
C248 C249 1.392 . S
C248 C251 1.511 . S
C249 C245 1.376 . S
C249 C248 1.392 . S
C249 H261 0.929 . S
C250 C246 1.531 . S
C250 H262 0.960 . S
C250 H263 0.962 . S
C250 H264 0.960 . S
C251 C248 1.511 . S
C251 H265 0.961 . S
C251 H266 0.961 . S
C251 H267 0.961 . S
C252 C253 1.370 . S
C252 C254 1.363 . S
C252 H268 0.931 . S
C253 C252 1.370 . S
C253 C257 1.408 . S
C254 C252 1.363 . S
C254 C255 1.370 . S
C254 C258 1.524 . S
C255 C247 1.503 . S
C255 C254 1.370 . S
C255 C256 1.403 . S
C256 C255 1.403 . S
C256 C257 1.404 . S
C256 C259 1.539 . S
C257 C253 1.408 . S
C257 C256 1.404 . S
C257 H269 0.930 . S
C258 C254 1.524 . S
C258 H270 0.956 . S
C258 H271 0.961 . S
C258 H272 0.961 . S
C259 C256 1.539 . S
C259 H273 0.958 . S
C259 H274 0.961 . S
C259 H275 0.960 . S
H260 C244 0.931 . S
H261 C249 0.929 . S
H262 C250 0.960 . S
H263 C250 0.962 . S
H264 C250 0.960 . S
H265 C251 0.961 . S
H266 C251 0.961 . S
H267 C251 0.961 . S
H268 C252 0.931 . S
H269 C257 0.930 . S
H270 C258 0.956 . S
H271 C258 0.961 . S
H272 C258 0.961 . S
H273 C259 0.958 . S
H274 C259 0.961 . S
H275 C259 0.960 . S
C276 C277 1.391 . S
C276 C278 1.394 . S
C276 H292 0.931 1_545 S
C277 C276 1.391 . S
C277 C281 1.376 . S
C278 C276 1.394 . S
C278 C279 1.369 . S
C278 C282 1.531 1_545 S
C279 C278 1.369 . S
C279 C280 1.410 . S
C279 C287 1.503 . S
C280 C279 1.410 . S
C280 C281 1.392 . S
C280 C283 1.511 . S
C281 C277 1.376 . S
C281 C280 1.392 . S
C281 H293 0.929 . S
C282 C278 1.531 1_565 S
C282 H294 0.960 . S
C282 H295 0.962 . S
C282 H296 0.960 . S
C283 C280 1.511 . S
C283 H297 0.961 . S
C283 H298 0.961 . S
C283 H299 0.961 . S
C284 C285 1.370 . S
C284 C286 1.363 . S
C284 H300 0.931 . S
C285 C284 1.370 . S
C285 C289 1.408 . S
C286 C284 1.363 . S
C286 C287 1.370 . S
C286 C290 1.524 . S
C287 C279 1.503 . S
C287 C286 1.370 . S
C287 C288 1.403 . S
C288 C287 1.403 . S
C288 C289 1.404 . S
C288 C291 1.539 . S
C289 C285 1.408 . S
C289 C288 1.404 . S
C289 H301 0.930 . S
C290 C286 1.524 . S
C290 H302 0.956 . S
C290 H303 0.961 . S
C290 H304 0.961 . S
C291 C288 1.539 . S
C291 H305 0.958 . S
C291 H306 0.961 . S
C291 H307 0.960 . S
H292 C276 0.931 1_565 S
H293 C281 0.929 . S
H294 C282 0.960 . S
H295 C282 0.962 . S
H296 C282 0.960 . S
H297 C283 0.961 . S
H298 C283 0.961 . S
H299 C283 0.961 . S
H300 C284 0.931 . S
H301 C289 0.930 . S
H302 C290 0.956 . S
H303 C290 0.961 . S
H304 C290 0.961 . S
H305 C291 0.958 . S
H306 C291 0.961 . S
H307 C291 0.960 . S
C308 C309 1.391 . S
C308 C310 1.394 . S
C308 H324 0.931 . S
C309 C308 1.391 . S
C309 C313 1.376 . S
C310 C308 1.394 . S
C310 C311 1.369 . S
C310 C314 1.531 . S
C311 C310 1.369 . S
C311 C312 1.411 . S
C311 C319 1.503 1_554 S
C312 C311 1.411 . S
C312 C313 1.421 . S
C312 C315 1.483 1_554 S
C313 C309 1.376 . S
C313 C312 1.421 . S
C313 H325 0.929 1_565 S
C314 C310 1.531 . S
C314 H326 0.960 . S
C314 H327 0.962 . S
C314 H328 0.960 . S
C315 C312 1.483 1_556 S
C315 H329 0.961 1_565 S
C315 H330 0.961 . S
C315 H331 0.961 . S
C316 C317 1.370 . S
C316 C318 1.363 . S
C316 H332 0.931 . S
C317 C316 1.370 . S
C317 C321 1.408 . S
C318 C316 1.363 . S
C318 C319 1.370 . S
C318 C322 1.524 . S
C319 C311 1.503 1_556 S
C319 C318 1.370 . S
C319 C320 1.403 . S
C320 C319 1.403 . S
C320 C321 1.404 . S
C320 C323 1.539 1_556 S
C321 C317 1.408 . S
C321 C320 1.404 . S
C321 H333 0.930 . S
C322 C318 1.524 . S
C322 H334 0.956 . S
C322 H335 0.961 . S
C322 H336 0.961 . S
C323 C320 1.539 1_554 S
C323 H337 0.958 . S
C323 H338 0.961 . S
C323 H339 0.960 . S
H324 C308 0.931 . S
H325 C313 0.929 1_545 S
H326 C314 0.960 . S
H327 C314 0.962 . S
H328 C314 0.960 . S
H329 C315 0.961 1_545 S
H330 C315 0.961 . S
H331 C315 0.961 . S
H332 C316 0.931 . S
H333 C321 0.930 . S
H334 C322 0.956 . S
H335 C322 0.961 . S
H336 C322 0.961 . S
H337 C323 0.958 . S
H338 C323 0.961 . S
H339 C323 0.960 . S
C340 C341 1.391 1_655 S
C340 C342 1.394 . S
C340 H356 0.931 . S
C341 C340 1.391 1_455 S
C341 C345 1.376 . S
C342 C340 1.394 . S
C342 C343 1.369 1_655 S
C342 C346 1.531 . S
C343 C342 1.369 1_455 S
C343 C344 1.410 . S
C343 C351 1.503 . S
C344 C343 1.410 . S
C344 C345 1.392 . S
C344 C347 1.511 . S
C345 C341 1.376 . S
C345 C344 1.392 . S
C345 H357 0.936 . S
C346 C342 1.531 . S
C346 H358 0.960 . S
C346 H359 0.962 . S
C346 H360 0.960 . S
C347 C344 1.511 . S
C347 H361 0.961 . S
C347 H362 0.961 . S
C347 H363 0.961 . S
C348 C349 1.370 . S
C348 C350 1.363 . S
C348 H364 0.931 . S
C349 C348 1.370 . S
C349 C353 1.408 . S
C350 C348 1.363 . S
C350 C351 1.370 . S
C350 C354 1.524 . S
C351 C343 1.503 . S
C351 C350 1.370 . S
C351 C352 1.403 . S
C352 C351 1.403 . S
C352 C353 1.404 . S
C352 C355 1.539 . S
C353 C349 1.408 . S
C353 C352 1.404 . S
C353 H365 0.930 . S
C354 C350 1.524 . S
C354 H366 0.956 . S
C354 H367 0.961 . S
C354 H368 0.961 . S
C355 C352 1.539 . S
C355 H369 0.958 1_455 S
C355 H370 0.961 . S
C355 H371 0.960 . S
H356 C340 0.931 . S
H357 C345 0.936 . S
H358 C346 0.960 . S
H359 C346 0.962 . S
H360 C346 0.960 . S
H361 C347 0.961 . S
H362 C347 0.961 . S
H363 C347 0.961 . S
H364 C348 0.931 . S
H365 C353 0.930 . S
H366 C354 0.956 . S
H367 C354 0.961 . S
H368 C354 0.961 . S
H369 C355 0.958 1_655 S
H370 C355 0.961 . S
H371 C355 0.960 . S
C372 C373 1.391 . S
C372 C374 1.394 . S
C372 H388 0.931 1_545 S
C373 C372 1.391 . S
C373 C377 1.376 . S
C374 C372 1.394 . S
C374 C375 1.369 . S
C374 C378 1.531 1_545 S
C375 C374 1.369 . S
C375 C376 1.410 . S
C375 C383 1.503 . S
C376 C375 1.410 . S
C376 C377 1.392 . S
C376 C379 1.511 . S
C377 C373 1.376 . S
C377 C376 1.392 . S
C377 H389 0.929 . S
C378 C374 1.531 1_565 S
C378 H390 0.960 . S
C378 H391 0.962 . S
C378 H392 0.960 . S
C379 C376 1.511 . S
C379 H393 0.961 . S
C379 H394 0.961 . S
C379 H395 0.961 . S
C380 C381 1.370 . S
C380 C382 1.363 . S
C380 H396 0.931 . S
C381 C380 1.370 . S
C381 C385 1.408 . S
C382 C380 1.363 . S
C382 C383 1.370 . S
C382 C386 1.524 . S
C383 C375 1.503 . S
C383 C382 1.370 . S
C383 C384 1.403 . S
C384 C383 1.403 . S
C384 C385 1.404 . S
C384 C387 1.539 . S
C385 C381 1.408 . S
C385 C384 1.404 . S
C385 H397 0.930 . S
C386 C382 1.524 . S
C386 H398 0.956 . S
C386 H399 0.961 . S
C386 H400 0.961 . S
C387 C384 1.539 . S
C387 H401 0.958 . S
C387 H402 0.961 . S
C387 H403 0.960 . S
H388 C372 0.931 1_565 S
H389 C377 0.929 . S
H390 C378 0.960 . S
H391 C378 0.962 . S
H392 C378 0.960 . S
H393 C379 0.961 . S
H394 C379 0.961 . S
H395 C379 0.961 . S
H396 C380 0.931 . S
H397 C385 0.930 . S
H398 C386 0.956 . S
H399 C386 0.961 . S
H400 C386 0.961 . S
H401 C387 0.958 . S
H402 C387 0.961 . S
H403 C387 0.960 . S
C404 C405 1.391 . S
C404 C406 1.394 1_554 S
C404 H420 0.931 . S
C405 C404 1.391 . S
C405 C409 1.376 . S
C406 C404 1.394 1_556 S
C406 C407 1.369 . S
C406 C410 1.531 . S
C407 C406 1.369 . S
C407 C408 1.410 1_556 S
C407 C415 1.503 . S
C408 C407 1.410 1_554 S
C408 C409 1.392 . S
C408 C411 1.511 . S
C409 C405 1.376 . S
C409 C408 1.392 . S
C409 H421 0.929 . S
C410 C406 1.531 . S
C410 H422 0.960 . S
C410 H423 0.962 . S
C410 H424 0.960 . S
C411 C408 1.511 . S
C411 H425 0.961 . S
C411 H426 0.961 . S
C411 H427 0.961 1_554 S
C412 C413 1.370 . S
C412 C414 1.363 . S
C412 H428 0.931 . S
C413 C412 1.370 . S
C413 C417 1.408 . S
C414 C412 1.363 . S
C414 C415 1.370 . S
C414 C418 1.524 1_556 S
C415 C407 1.503 . S
C415 C414 1.370 . S
C415 C416 1.403 . S
C416 C415 1.403 . S
C416 C417 1.404 . S
C416 C419 1.539 . S
C417 C413 1.408 . S
C417 C416 1.404 . S
C417 H429 0.930 . S
C418 C414 1.524 1_554 S
C418 H430 0.956 . S
C418 H431 0.961 . S
C418 H432 0.961 . S
C419 C416 1.539 . S
C419 H433 0.958 . S
C419 H434 0.961 . S
C419 H435 0.960 . S
H420 C404 0.931 . S
H421 C409 0.929 . S
H422 C410 0.960 . S
H423 C410 0.962 . S
H424 C410 0.960 . S
H425 C411 0.961 . S
H426 C411 0.961 . S
H427 C411 0.961 1_556 S
H428 C412 0.931 . S
H429 C417 0.930 . S
H430 C418 0.956 . S
H431 C418 0.961 . S
H432 C418 0.961 . S
H433 C419 0.958 . S
H434 C419 0.961 . S
H435 C419 0.960 . S
C436 C437 1.391 . S
C436 C438 1.394 . S
C436 H452 0.931 1_455 S
C437 C436 1.391 . S
C437 C441 1.376 . S
C438 C436 1.394 . S
C438 C439 1.369 . S
C438 C442 1.531 1_455 S
C439 C438 1.369 . S
C439 C440 1.410 . S
C439 C447 1.503 . S
C440 C439 1.410 . S
C440 C441 1.392 . S
C440 C443 1.511 . S
C441 C437 1.376 . S
C441 C440 1.392 . S
C441 H453 0.929 . S
C442 C438 1.531 1_655 S
C442 H454 0.960 . S
C442 H455 0.962 . S
C442 H456 0.960 . S
C443 C440 1.511 . S
C443 H457 0.961 . S
C443 H458 0.961 . S
C443 H459 0.961 . S
C444 C445 1.370 . S
C444 C446 1.363 . S
C444 H460 0.931 1_455 S
C445 C444 1.370 . S
C445 C449 1.408 . S
C446 C444 1.363 . S
C446 C447 1.370 . S
C446 C450 1.524 1_455 S
C447 C439 1.503 . S
C447 C446 1.370 . S
C447 C448 1.403 . S
C448 C447 1.403 . S
C448 C449 1.404 . S
C448 C451 1.539 . S
C449 C445 1.408 . S
C449 C448 1.404 . S
C449 H461 0.930 . S
C450 C446 1.524 1_655 S
C450 H462 0.956 . S
C450 H463 0.961 1_655 S
C450 H464 0.961 . S
C451 C448 1.539 . S
C451 H465 0.958 . S
C451 H466 0.961 . S
C451 H467 0.960 . S
H452 C436 0.931 1_655 S
H453 C441 0.929 . S
H454 C442 0.960 . S
H455 C442 0.962 . S
H456 C442 0.960 . S
H457 C443 0.961 . S
H458 C443 0.961 . S
H459 C443 0.961 . S
H460 C444 0.931 1_655 S
H461 C449 0.930 . S
H462 C450 0.956 . S
H463 C450 0.961 1_455 S
H464 C450 0.961 . S
H465 C451 0.958 . S
H466 C451 0.961 . S
H467 C451 0.960 . S
C93 C43 1.444 . S
C85 C0 1.444 . S
C117 C25 1.464 . S
C125 C69 1.467 . S
C149 C33 1.474 1_565 S
C157 C71 1.484 . S
C181 C11 1.413 . S
C189 C55 1.416 . S
C221 C57 1.467 . S
C213 C14 1.467 . S
C245 C37 1.482 . S
C253 C83 1.482 . S
C285 C56 1.462 . S
C277 C28 1.449 . S
C309 C9 1.475 1_565 S
C317 C82 1.478 . S
C349 C42 1.506 . S
C341 C19 1.499 . S
C381 C68 1.465 . S
C373 C39 1.463 . S
C413 C70 1.484 . S
C405 C5 1.473 . S
C437 C23 1.519 . S
C445 C54 1.523 . S
