# Generated by pormake.
# Topology gar, (4,6)-cn, num edge types: 1
# Building blocks:
#     Node 0, Type 0, BuildingBlock: AZAVOO_clean_sbu_0, # of connection points: 4
#     Node 1, Type 0, BuildingBlock: AZAVOO_clean_sbu_0, # of connection points: 4
#     Node 2, Type 0, BuildingBlock: AZAVOO_clean_sbu_0, # of connection points: 4
#     Node 3, Type 0, BuildingBlock: AZAVOO_clean_sbu_0, # of connection points: 4
#     Node 4, Type 0, BuildingBlock: AZAVOO_clean_sbu_0, # of connection points: 4
#     Node 5, Type 0, BuildingBlock: AZAVOO_clean_sbu_0, # of connection points: 4
#     Node 6, Type 0, BuildingBlock: AZAVOO_clean_sbu_0, # of connection points: 4
#     Node 7, Type 0, BuildingBlock: AZAVOO_clean_sbu_0, # of connection points: 4
#     Node 8, Type 0, BuildingBlock: AZAVOO_clean_sbu_0, # of connection points: 4
#     Node 9, Type 0, BuildingBlock: AZAVOO_clean_sbu_0, # of connection points: 4
#     Node 10, Type 0, BuildingBlock: AZAVOO_clean_sbu_0, # of connection points: 4
#     Node 11, Type 0, BuildingBlock: AZAVOO_clean_sbu_0, # of connection points: 4
#     Node 12, Type 0, BuildingBlock: AZAVOO_clean_sbu_0, # of connection points: 4
#     Node 13, Type 0, BuildingBlock: AZAVOO_clean_sbu_0, # of connection points: 4
#     Node 14, Type 0, BuildingBlock: AZAVOO_clean_sbu_0, # of connection points: 4
#     Node 15, Type 0, BuildingBlock: AZAVOO_clean_sbu_0, # of connection points: 4
#     Node 16, Type 0, BuildingBlock: AZAVOO_clean_sbu_0, # of connection points: 4
#     Node 17, Type 0, BuildingBlock: AZAVOO_clean_sbu_0, # of connection points: 4
#     Node 18, Type 0, BuildingBlock: AZAVOO_clean_sbu_0, # of connection points: 4
#     Node 19, Type 0, BuildingBlock: AZAVOO_clean_sbu_0, # of connection points: 4
#     Node 20, Type 0, BuildingBlock: AZAVOO_clean_sbu_0, # of connection points: 4
#     Node 21, Type 0, BuildingBlock: AZAVOO_clean_sbu_0, # of connection points: 4
#     Node 22, Type 0, BuildingBlock: AZAVOO_clean_sbu_0, # of connection points: 4
#     Node 23, Type 0, BuildingBlock: AZAVOO_clean_sbu_0, # of connection points: 4
#     Node 24, Type 1, BuildingBlock: PAMTUU_clean_sbu_0, # of connection points: 6
#     Node 25, Type 1, BuildingBlock: PAMTUU_clean_sbu_0, # of connection points: 6
#     Node 26, Type 1, BuildingBlock: PAMTUU_clean_sbu_0, # of connection points: 6
#     Node 27, Type 1, BuildingBlock: PAMTUU_clean_sbu_0, # of connection points: 6
#     Node 28, Type 1, BuildingBlock: PAMTUU_clean_sbu_0, # of connection points: 6
#     Node 29, Type 1, BuildingBlock: PAMTUU_clean_sbu_0, # of connection points: 6
#     Node 30, Type 1, BuildingBlock: PAMTUU_clean_sbu_0, # of connection points: 6
#     Node 31, Type 1, BuildingBlock: PAMTUU_clean_sbu_0, # of connection points: 6
#     Node 32, Type 1, BuildingBlock: PAMTUU_clean_sbu_0, # of connection points: 6
#     Node 33, Type 1, BuildingBlock: PAMTUU_clean_sbu_0, # of connection points: 6
#     Node 34, Type 1, BuildingBlock: PAMTUU_clean_sbu_0, # of connection points: 6
#     Node 35, Type 1, BuildingBlock: PAMTUU_clean_sbu_0, # of connection points: 6
#     Node 36, Type 1, BuildingBlock: PAMTUU_clean_sbu_0, # of connection points: 6
#     Node 37, Type 1, BuildingBlock: PAMTUU_clean_sbu_0, # of connection points: 6
#     Node 38, Type 1, BuildingBlock: PAMTUU_clean_sbu_0, # of connection points: 6
#     Node 39, Type 1, BuildingBlock: PAMTUU_clean_sbu_0, # of connection points: 6
#     Edge 40, Type (0, 1), BuildingBlock: EZIPEK_clean_linker_0, # of connection points: 2
#     Edge 41, Type (0, 1), BuildingBlock: EZIPEK_clean_linker_0, # of connection points: 2
#     Edge 42, Type (0, 1), BuildingBlock: EZIPEK_clean_linker_0, # of connection points: 2
#     Edge 43, Type (0, 1), BuildingBlock: EZIPEK_clean_linker_0, # of connection points: 2
#     Edge 44, Type (0, 1), BuildingBlock: EZIPEK_clean_linker_0, # of connection points: 2
#     Edge 45, Type (0, 1), BuildingBlock: EZIPEK_clean_linker_0, # of connection points: 2
#     Edge 46, Type (0, 1), BuildingBlock: EZIPEK_clean_linker_0, # of connection points: 2
#     Edge 47, Type (0, 1), BuildingBlock: EZIPEK_clean_linker_0, # of connection points: 2
#     Edge 48, Type (0, 1), BuildingBlock: EZIPEK_clean_linker_0, # of connection points: 2
#     Edge 49, Type (0, 1), BuildingBlock: EZIPEK_clean_linker_0, # of connection points: 2
#     Edge 50, Type (0, 1), BuildingBlock: EZIPEK_clean_linker_0, # of connection points: 2
#     Edge 51, Type (0, 1), BuildingBlock: EZIPEK_clean_linker_0, # of connection points: 2
#     Edge 52, Type (0, 1), BuildingBlock: EZIPEK_clean_linker_0, # of connection points: 2
#     Edge 53, Type (0, 1), BuildingBlock: EZIPEK_clean_linker_0, # of connection points: 2
#     Edge 54, Type (0, 1), BuildingBlock: EZIPEK_clean_linker_0, # of connection points: 2
#     Edge 55, Type (0, 1), BuildingBlock: EZIPEK_clean_linker_0, # of connection points: 2
#     Edge 56, Type (0, 1), BuildingBlock: EZIPEK_clean_linker_0, # of connection points: 2
#     Edge 57, Type (0, 1), BuildingBlock: EZIPEK_clean_linker_0, # of connection points: 2
#     Edge 58, Type (0, 1), BuildingBlock: EZIPEK_clean_linker_0, # of connection points: 2
#     Edge 59, Type (0, 1), BuildingBlock: EZIPEK_clean_linker_0, # of connection points: 2
#     Edge 60, Type (0, 1), BuildingBlock: EZIPEK_clean_linker_0, # of connection points: 2
#     Edge 61, Type (0, 1), BuildingBlock: EZIPEK_clean_linker_0, # of connection points: 2
#     Edge 62, Type (0, 1), BuildingBlock: EZIPEK_clean_linker_0, # of connection points: 2
#     Edge 63, Type (0, 1), BuildingBlock: EZIPEK_clean_linker_0, # of connection points: 2
#     Edge 64, Type (0, 1), BuildingBlock: EZIPEK_clean_linker_0, # of connection points: 2
#     Edge 65, Type (0, 1), BuildingBlock: EZIPEK_clean_linker_0, # of connection points: 2
#     Edge 66, Type (0, 1), BuildingBlock: EZIPEK_clean_linker_0, # of connection points: 2
#     Edge 67, Type (0, 1), BuildingBlock: EZIPEK_clean_linker_0, # of connection points: 2
#     Edge 68, Type (0, 1), BuildingBlock: EZIPEK_clean_linker_0, # of connection points: 2
#     Edge 69, Type (0, 1), BuildingBlock: EZIPEK_clean_linker_0, # of connection points: 2
#     Edge 70, Type (0, 1), BuildingBlock: EZIPEK_clean_linker_0, # of connection points: 2
#     Edge 71, Type (0, 1), BuildingBlock: EZIPEK_clean_linker_0, # of connection points: 2
#     Edge 72, Type (0, 1), BuildingBlock: EZIPEK_clean_linker_0, # of connection points: 2
#     Edge 73, Type (0, 1), BuildingBlock: EZIPEK_clean_linker_0, # of connection points: 2
#     Edge 74, Type (0, 1), BuildingBlock: EZIPEK_clean_linker_0, # of connection points: 2
#     Edge 75, Type (0, 1), BuildingBlock: EZIPEK_clean_linker_0, # of connection points: 2
#     Edge 76, Type (0, 1), BuildingBlock: EZIPEK_clean_linker_0, # of connection points: 2
#     Edge 77, Type (0, 1), BuildingBlock: EZIPEK_clean_linker_0, # of connection points: 2
#     Edge 78, Type (0, 1), BuildingBlock: EZIPEK_clean_linker_0, # of connection points: 2
#     Edge 79, Type (0, 1), BuildingBlock: EZIPEK_clean_linker_0, # of connection points: 2
#     Edge 80, Type (0, 1), BuildingBlock: EZIPEK_clean_linker_0, # of connection points: 2
#     Edge 81, Type (0, 1), BuildingBlock: EZIPEK_clean_linker_0, # of connection points: 2
#     Edge 82, Type (0, 1), BuildingBlock: EZIPEK_clean_linker_0, # of connection points: 2
#     Edge 83, Type (0, 1), BuildingBlock: EZIPEK_clean_linker_0, # of connection points: 2
#     Edge 84, Type (0, 1), BuildingBlock: EZIPEK_clean_linker_0, # of connection points: 2
#     Edge 85, Type (0, 1), BuildingBlock: EZIPEK_clean_linker_0, # of connection points: 2
#     Edge 86, Type (0, 1), BuildingBlock: EZIPEK_clean_linker_0, # of connection points: 2
#     Edge 87, Type (0, 1), BuildingBlock: EZIPEK_clean_linker_0, # of connection points: 2
#     Edge 88, Type (0, 1), BuildingBlock: EZIPEK_clean_linker_0, # of connection points: 2
#     Edge 89, Type (0, 1), BuildingBlock: EZIPEK_clean_linker_0, # of connection points: 2
#     Edge 90, Type (0, 1), BuildingBlock: EZIPEK_clean_linker_0, # of connection points: 2
#     Edge 91, Type (0, 1), BuildingBlock: EZIPEK_clean_linker_0, # of connection points: 2
#     Edge 92, Type (0, 1), BuildingBlock: EZIPEK_clean_linker_0, # of connection points: 2
#     Edge 93, Type (0, 1), BuildingBlock: EZIPEK_clean_linker_0, # of connection points: 2
#     Edge 94, Type (0, 1), BuildingBlock: EZIPEK_clean_linker_0, # of connection points: 2
#     Edge 95, Type (0, 1), BuildingBlock: EZIPEK_clean_linker_0, # of connection points: 2
#     Edge 96, Type (0, 1), BuildingBlock: EZIPEK_clean_linker_0, # of connection points: 2
#     Edge 97, Type (0, 1), BuildingBlock: EZIPEK_clean_linker_0, # of connection points: 2
#     Edge 98, Type (0, 1), BuildingBlock: EZIPEK_clean_linker_0, # of connection points: 2
#     Edge 99, Type (0, 1), BuildingBlock: EZIPEK_clean_linker_0, # of connection points: 2
#     Edge 100, Type (0, 1), BuildingBlock: EZIPEK_clean_linker_0, # of connection points: 2
#     Edge 101, Type (0, 1), BuildingBlock: EZIPEK_clean_linker_0, # of connection points: 2
#     Edge 102, Type (0, 1), BuildingBlock: EZIPEK_clean_linker_0, # of connection points: 2
#     Edge 103, Type (0, 1), BuildingBlock: EZIPEK_clean_linker_0, # of connection points: 2
#     Edge 104, Type (0, 1), BuildingBlock: EZIPEK_clean_linker_0, # of connection points: 2
#     Edge 105, Type (0, 1), BuildingBlock: EZIPEK_clean_linker_0, # of connection points: 2
#     Edge 106, Type (0, 1), BuildingBlock: EZIPEK_clean_linker_0, # of connection points: 2
#     Edge 107, Type (0, 1), BuildingBlock: EZIPEK_clean_linker_0, # of connection points: 2
#     Edge 108, Type (0, 1), BuildingBlock: EZIPEK_clean_linker_0, # of connection points: 2
#     Edge 109, Type (0, 1), BuildingBlock: EZIPEK_clean_linker_0, # of connection points: 2
#     Edge 110, Type (0, 1), BuildingBlock: EZIPEK_clean_linker_0, # of connection points: 2
#     Edge 111, Type (0, 1), BuildingBlock: EZIPEK_clean_linker_0, # of connection points: 2
#     Edge 112, Type (0, 1), BuildingBlock: EZIPEK_clean_linker_0, # of connection points: 2
#     Edge 113, Type (0, 1), BuildingBlock: EZIPEK_clean_linker_0, # of connection points: 2
#     Edge 114, Type (0, 1), BuildingBlock: EZIPEK_clean_linker_0, # of connection points: 2
#     Edge 115, Type (0, 1), BuildingBlock: EZIPEK_clean_linker_0, # of connection points: 2
#     Edge 116, Type (0, 1), BuildingBlock: EZIPEK_clean_linker_0, # of connection points: 2
#     Edge 117, Type (0, 1), BuildingBlock: EZIPEK_clean_linker_0, # of connection points: 2
#     Edge 118, Type (0, 1), BuildingBlock: EZIPEK_clean_linker_0, # of connection points: 2
#     Edge 119, Type (0, 1), BuildingBlock: EZIPEK_clean_linker_0, # of connection points: 2
#     Edge 120, Type (0, 1), BuildingBlock: EZIPEK_clean_linker_0, # of connection points: 2
#     Edge 121, Type (0, 1), BuildingBlock: EZIPEK_clean_linker_0, # of connection points: 2
#     Edge 122, Type (0, 1), BuildingBlock: EZIPEK_clean_linker_0, # of connection points: 2
#     Edge 123, Type (0, 1), BuildingBlock: EZIPEK_clean_linker_0, # of connection points: 2
#     Edge 124, Type (0, 1), BuildingBlock: EZIPEK_clean_linker_0, # of connection points: 2
#     Edge 125, Type (0, 1), BuildingBlock: EZIPEK_clean_linker_0, # of connection points: 2
#     Edge 126, Type (0, 1), BuildingBlock: EZIPEK_clean_linker_0, # of connection points: 2
#     Edge 127, Type (0, 1), BuildingBlock: EZIPEK_clean_linker_0, # of connection points: 2
#     Edge 128, Type (0, 1), BuildingBlock: EZIPEK_clean_linker_0, # of connection points: 2
#     Edge 129, Type (0, 1), BuildingBlock: EZIPEK_clean_linker_0, # of connection points: 2
#     Edge 130, Type (0, 1), BuildingBlock: EZIPEK_clean_linker_0, # of connection points: 2
#     Edge 131, Type (0, 1), BuildingBlock: EZIPEK_clean_linker_0, # of connection points: 2
#     Edge 132, Type (0, 1), BuildingBlock: EZIPEK_clean_linker_0, # of connection points: 2
#     Edge 133, Type (0, 1), BuildingBlock: EZIPEK_clean_linker_0, # of connection points: 2
#     Edge 134, Type (0, 1), BuildingBlock: EZIPEK_clean_linker_0, # of connection points: 2
#     Edge 135, Type (0, 1), BuildingBlock: EZIPEK_clean_linker_0, # of connection points: 2
# Relax obj value: 0.272
# Max RMSD: 0.395
# Mean RMSD: 0.214
data_MOF--net-gar--node1-AZAVOO_clean_sbu_0--node2-PAMTUU_clean_sbu_0--edge1-EZIPEK_clean_linker_0
_symmetry_space_group_name_H-M    P1
_symmetry_Int_Tables_number       1
_symmetry_cell_setting            triclinic
loop_
_symmetry_equiv_pos_as_xyz
'x, y, z'
_cell_length_a     47.141993
_cell_length_b     41.818277
_cell_length_c     45.268516
_cell_angle_alpha  96.982863
_cell_angle_beta   94.068489
_cell_angle_gamma 110.55162
loop_
_atom_site_label
_atom_site_type_symbol
_atom_site_fract_x
_atom_site_fract_y
_atom_site_fract_z
_atom_type_partial_charge
Mg0 Mg 0.06821 0.30188 0.39415 0.0
O1 O 0.0747 0.35687 0.43092 0.0
O2 O 0.03463 0.34283 0.45712 0.0
Mg3 Mg 1.00131 0.28505 0.44101 0.0
C4 C 0.05889 0.36579 0.45095 0.0
C5 C 0.13934 0.30537 0.35464 0.0
O6 O 0.11979 0.28669 0.33141 0.0
O7 O 0.06934 0.25754 0.43 0.0
O8 O 0.02853 0.24877 0.45436 0.0
O9 O 0.03128 0.3138 0.35851 0.0
O10 O 1.01402 0.28962 0.39403 0.0
C11 C 0.05187 0.24099 0.44884 0.0
C12 C 1.00661 0.30073 0.37033 0.0
O13 O 0.12728 0.3144 0.37875 0.0
Mg14 Mg 0.06777 0.83477 0.70361 0.0
O15 O 0.06103 0.78086 0.6691 0.0
O16 O 0.02197 0.76817 0.63416 0.0
Mg17 Mg 0.99721 0.80934 0.64638 0.0
C18 C 0.04426 0.76072 0.64546 0.0
C19 C 0.13925 0.83151 0.74211 0.0
O20 O 0.12257 0.82339 0.76405 0.0
O21 O 0.07156 0.88325 0.66944 0.0
O22 O 0.03019 0.86372 0.6354 0.0
O23 O 0.03007 0.83485 0.7414 0.0
O24 O 1.01224 0.82342 0.69704 0.0
C25 C 0.0555 0.8881 0.64644 0.0
C26 C 1.00545 0.82739 0.72404 0.0
O27 O 0.12601 0.83931 0.71864 0.0
Mg28 Mg 0.56694 0.804 0.89373 0.0
O29 O 0.57466 0.85887 0.93124 0.0
O30 O 0.53528 0.84542 0.95842 0.0
Mg31 Mg 0.50061 0.7883 0.94134 0.0
C32 C 0.55962 0.86804 0.95196 0.0
C33 C 0.63713 0.80436 0.85452 0.0
O34 O 0.61713 0.78404 0.83223 0.0
O35 O 0.56808 0.75967 0.92963 0.0
O36 O 0.52795 0.75202 0.95464 0.0
O37 O 0.53014 0.81619 0.85754 0.0
O38 O 0.51341 0.79402 0.89466 0.0
C39 C 0.55095 0.74359 0.94891 0.0
C40 C 0.50624 0.8053 0.87097 0.0
O41 O 0.62559 0.81518 0.87823 0.0
Mg42 Mg 0.5695 0.33524 0.20423 0.0
O43 O 0.56566 0.28375 0.16819 0.0
O44 O 0.52493 0.26856 0.1347 0.0
Mg45 Mg 0.49844 0.30751 0.14706 0.0
C46 C 0.54855 0.26292 0.14504 0.0
C47 C 0.64076 0.32853 0.24012 0.0
O48 O 0.62213 0.30992 0.25706 0.0
O49 O 0.5728 0.38328 0.16974 0.0
O50 O 0.53119 0.36211 0.13601 0.0
O51 O 0.53283 0.34175 0.2412 0.0
O52 O 0.51403 0.32183 0.19741 0.0
C53 C 0.55625 0.38722 0.14663 0.0
C54 C 0.50764 0.32958 0.22398 0.0
O55 O 0.62842 0.34231 0.22026 0.0
Mg56 Mg 0.12838 0.85389 0.15308 0.0
O57 O 0.11967 0.8025 0.11993 0.0
O58 O 0.07129 0.78359 0.09915 0.0
Mg59 Mg 0.04834 0.82204 0.11577 0.0
C60 C 0.09677 0.77941 0.10325 0.0
C61 C 0.18817 0.85973 0.19383 0.0
O62 O 0.16877 0.86067 0.21302 0.0
O63 O 0.12846 0.89289 0.11724 0.0
O64 O 0.07845 0.87218 0.10049 0.0
O65 O 0.10721 0.82296 0.18901 0.0
O66 O 0.0809 0.84002 0.1568 0.0
C67 C 0.10508 0.89524 0.10196 0.0
C68 C 0.0815 0.82476 0.17947 0.0
O69 O 0.1803 0.85965 0.16598 0.0
Mg70 Mg 0.51344 0.7843 0.44045 0.0
O71 O 0.52392 0.83471 0.47352 0.0
O72 O 0.4856 0.82611 0.50082 0.0
Mg73 Mg 0.45526 0.76742 0.48618 0.0
C74 C 0.5102 0.84629 0.49289 0.0
C75 C 0.57009 0.7904 0.41181 0.0
O76 O 0.55084 0.75941 0.39999 0.0
O77 O 0.5277 0.75139 0.47257 0.0
O78 O 0.48784 0.73651 0.49809 0.0
O79 O 0.48944 0.8064 0.40981 0.0
O80 O 0.4638 0.76831 0.43731 0.0
C81 C 0.51295 0.73371 0.49136 0.0
C82 C 0.46356 0.78897 0.41804 0.0
O83 O 0.56197 0.80844 0.43147 0.0
Mg84 Mg 0.63571 0.35802 0.64785 0.0
O85 O 0.62889 0.30868 0.61148 0.0
O86 O 0.57838 0.27946 0.60345 0.0
Mg87 Mg 0.55112 0.3091 0.62559 0.0
C88 C 0.6056 0.28136 0.60046 0.0
C89 C 0.68794 0.35835 0.69496 0.0
O90 O 0.69383 0.39115 0.69322 0.0
O91 O 0.61426 0.38842 0.61758 0.0
O92 O 0.56559 0.35758 0.60127 0.0
O93 O 0.61701 0.37877 0.69021 0.0
O94 O 0.59072 0.33189 0.66081 0.0
C95 C 0.58905 0.38517 0.60258 0.0
C96 C 0.59199 0.35282 0.68382 0.0
O97 O 0.66343 0.33595 0.68005 0.0
Mg98 Mg 0.01684 0.28445 0.94071 0.0
O99 O 0.02675 0.33434 0.9746 0.0
O100 O 0.98545 0.32493 0.99785 0.0
Mg101 Mg 0.95602 0.26644 0.98345 0.0
C102 C 1.01093 0.34546 0.99192 0.0
C103 C 0.07011 0.30204 0.9053 0.0
O104 O 0.04616 0.28657 0.88513 0.0
O105 O 0.0291 0.25099 0.97268 0.0
O106 O 0.98853 0.23664 0.99726 0.0
O107 O 0.99494 0.30856 0.91079 0.0
O108 O 0.96678 0.26877 0.93528 0.0
C109 C 1.01382 0.23383 0.99137 0.0
C110 C 0.96811 0.29052 0.91664 0.0
O111 O 0.06642 0.30607 0.93278 0.0
Mg112 Mg 0.48586 0.09335 0.34286 0.0
O113 O 0.45214 0.041 0.34846 0.0
O114 O 0.42227 0.04957 0.3828 0.0
Mg115 Mg 0.44163 0.10635 0.40651 0.0
C116 C 0.42933 0.03007 0.36302 0.0
C117 C 0.53593 0.06186 0.33196 0.0
O118 O 0.55841 0.05079 0.33705 0.0
O119 O 0.44558 0.1044 0.32489 0.0
O120 O 0.42281 0.11829 0.36359 0.0
O121 O 0.52039 0.09168 0.37968 0.0
O122 O 0.48533 0.1121 0.3898 0.0
C123 C 0.42519 0.11404 0.33563 0.0
C124 C 0.50738 0.10403 0.39952 0.0
O125 O 0.52689 0.07642 0.35382 0.0
Mg126 Mg 0.31253 0.23312 0.53395 0.0
O127 O 0.30761 0.25989 0.58287 0.0
O128 O 0.35605 0.28892 0.59665 0.0
Mg129 Mg 0.35687 0.28967 0.54656 0.0
C130 C 0.32941 0.27602 0.60398 0.0
C131 C 0.24968 0.17585 0.53487 0.0
O132 O 0.26854 0.15998 0.54055 0.0
O133 O 0.30906 0.26341 0.49239 0.0
O134 O 0.35837 0.29102 0.49644 0.0
O135 O 0.32696 0.2011 0.562 0.0
O136 O 0.36272 0.23853 0.54083 0.0
C137 C 0.33271 0.2798 0.48031 0.0
C138 C 0.3543 0.21245 0.55506 0.0
O139 O 0.26021 0.20706 0.53013 0.0
Mg140 Mg 0.19115 0.07758 0.8741 0.0
O141 O 0.22587 0.13005 0.87429 0.0
O142 O 0.25938 0.15033 0.9158 0.0
Mg143 Mg 0.24681 0.10474 0.94155 0.0
C144 C 0.24868 0.15339 0.89011 0.0
C145 C 0.14865 0.08222 0.82259 0.0
O146 O 0.13264 0.08197 0.84517 0.0
O147 O 0.22614 0.0556 0.86083 0.0
O148 O 0.26049 0.07589 0.90197 0.0
O149 O 0.16383 0.10036 0.89963 0.0
O150 O 0.19895 0.08334 0.92033 0.0
C151 C 0.25173 0.05959 0.87519 0.0
C152 C 0.17829 0.09657 0.92351 0.0
O153 O 0.17432 0.07877 0.82634 0.0
Mg154 Mg 0.34381 0.97916 0.01474 0.0
O155 O 0.31865 0.94633 0.97105 0.0
O156 O 0.33536 0.906 0.98359 0.0
Mg157 Mg 0.38772 0.92853 0.99402 0.0
C158 C 0.32024 0.91653 0.96511 0.0
C159 C 0.30227 0.01766 0.02471 0.0
O160 O 0.32181 0.03677 0.00883 0.0
O161 O 0.33363 0.93366 0.04087 0.0
O162 O 0.37928 0.92823 0.04187 0.0
O163 O 0.37299 0.02575 0.99507 0.0
O164 O 0.38078 0.97723 0.99523 0.0
C165 C 0.35475 0.92543 0.0532 0.0
C166 C 0.39141 0.00916 0.99272 0.0
O167 O 0.30435 0.98985 0.03077 0.0
Mg168 Mg 0.33045 0.39399 0.05624 0.0
O169 O 0.31876 0.36387 0.0052 0.0
O170 O 0.35772 0.34735 0.00489 0.0
Mg171 Mg 0.35473 0.3506 0.05524 0.0
C172 C 0.33641 0.35279 0.99021 0.0
C173 C 0.28897 0.43417 0.04956 0.0
O174 O 0.31615 0.45813 0.05757 0.0
O175 O 0.30892 0.35866 0.09328 0.0
O176 O 0.35211 0.35279 0.10571 0.0
O177 O 0.36019 0.43512 0.03483 0.0
O178 O 0.3825 0.40762 0.06219 0.0
C179 C 0.32653 0.3525 0.11285 0.0
C180 C 0.38447 0.43284 0.04751 0.0
O181 O 0.28578 0.40249 0.04735 0.0
Mg182 Mg 0.79139 0.14903 0.08576 0.0
O183 O 0.81599 0.18606 0.12737 0.0
O184 O 0.85786 0.2251 0.11508 0.0
Mg185 Mg 0.86555 0.20365 0.06795 0.0
C186 C 0.83917 0.21381 0.13381 0.0
C187 C 0.73786 0.09043 0.04577 0.0
O188 O 0.72478 0.06878 0.02089 0.0
O189 O 0.78165 0.19083 0.06449 0.0
O190 O 0.8254 0.21465 0.04531 0.0
O191 O 0.81251 0.10935 0.09414 0.0
O192 O 0.83261 0.15168 0.06978 0.0
C193 C 0.7973 0.20987 0.04708 0.0
C194 C 0.83332 0.12398 0.07814 0.0
O195 O 0.76458 0.11209 0.04583 0.0
Mg196 Mg 0.16397 0.54361 0.24769 0.0
O197 O 0.19619 0.59993 0.25658 0.0
O198 O 0.21206 0.60887 0.30537 0.0
Mg199 Mg 0.18206 0.56605 0.32846 0.0
C200 C 0.2139 0.61853 0.27966 0.0
C201 C 0.14364 0.52642 0.18784 0.0
O202 O 0.12432 0.50627 0.20332 0.0
O203 O 0.20301 0.52668 0.25773 0.0
O204 O 0.2091 0.53595 0.30817 0.0
O205 O 0.12373 0.5595 0.25107 0.0
O206 O 0.14918 0.54698 0.28835 0.0
C207 C 0.21565 0.52505 0.28301 0.0
C208 C 0.12824 0.55769 0.27919 0.0
O209 O 0.17051 0.54375 0.19994 0.0
Mg210 Mg 0.8311 0.89218 0.55614 0.0
O211 O 0.81776 0.86071 0.50568 0.0
O212 O 0.85754 0.84588 0.50438 0.0
Mg213 Mg 0.8556 0.84974 0.55497 0.0
C214 C 0.83529 0.85008 0.49017 0.0
C215 C 0.78935 0.93123 0.55186 0.0
O216 O 0.8162 0.95492 0.56206 0.0
O217 O 0.81024 0.85722 0.59341 0.0
O218 O 0.85396 0.8526 0.6057 0.0
O219 O 0.85984 0.93317 0.53378 0.0
O220 O 0.88326 0.90665 0.56107 0.0
C221 C 0.82833 0.85191 0.61304 0.0
C222 C 0.88451 0.93155 0.54621 0.0
O223 O 0.78628 0.89961 0.54761 0.0
Mg224 Mg 0.95417 0.05334 0.22758 0.0
O225 O 0.92072 1.00188 0.23385 0.0
O226 O 0.90344 0.01795 0.27568 0.0
Mg227 Mg 0.94173 0.06275 0.30475 0.0
C228 C 0.90163 0.99592 0.25284 0.0
C229 C 0.96491 0.06485 0.17076 0.0
O230 O 0.97943 0.09225 0.19101 0.0
O231 O 0.917 0.07548 0.23 0.0
O232 O 0.92031 0.09311 0.27946 0.0
O233 O 0.99309 0.03609 0.23846 0.0
O234 O 0.97158 0.06104 0.27099 0.0
C235 C 0.90973 0.09126 0.25236 0.0
C236 C 0.9902 0.04531 0.26607 0.0
O237 O 0.94435 0.03944 0.17823 0.0
Mg238 Mg 0.31132 0.65353 0.585 0.0
O239 O 0.33093 0.68984 0.62823 0.0
O240 O 0.35907 0.73694 0.61242 0.0
Mg241 Mg 0.37921 0.71736 0.57228 0.0
C242 C 0.34163 0.72246 0.63093 0.0
C243 C 0.24591 0.62146 0.58442 0.0
O244 O 0.2503 0.61837 0.55605 0.0
O245 O 0.2963 0.69178 0.56272 0.0
O246 O 0.33863 0.72038 0.54317 0.0
O247 O 0.33376 0.61997 0.59792 0.0
O248 O 0.35237 0.6612 0.56991 0.0
C249 C 0.30999 0.7116 0.54478 0.0
C250 C 0.35408 0.63485 0.58115 0.0
O251 O 0.26839 0.63452 0.60446 0.0
Mg252 Mg 0.45135 0.55593 0.7324 0.0
O253 O 0.42432 0.49897 0.7174 0.0
O254 O 0.39933 0.48607 0.75695 0.0
Mg255 Mg 0.42652 0.52167 0.79947 0.0
C256 C 0.40301 0.479 0.72959 0.0
C257 C 0.46054 0.54887 0.66873 0.0
O258 O 0.47008 0.52637 0.67997 0.0
O259 O 0.40807 0.56517 0.73933 0.0
O260 O 0.40205 0.55612 0.78687 0.0
O261 O 0.49499 0.54584 0.74071 0.0
O262 O 0.46283 0.54678 0.77369 0.0
C263 C 0.39545 0.56685 0.76314 0.0
C264 C 0.48715 0.5419 0.76723 0.0
O265 O 0.44793 0.56523 0.68502 0.0
Mg266 Mg 0.65717 0.05164 0.73659 0.0
O267 O 0.69481 0.10329 0.7543 0.0
O268 O 0.70917 0.102 0.80211 0.0
Mg269 Mg 0.67768 0.05267 0.81664 0.0
C270 C 0.7121 0.11695 0.77891 0.0
C271 C 0.6035 0.99906 0.69498 0.0
O272 O 0.5797 0.97049 0.6861 0.0
O273 O 0.69168 0.02522 0.73691 0.0
O274 O 0.70086 0.02534 0.78627 0.0
O275 O 0.62124 0.07263 0.75187 0.0
O276 O 0.64395 0.04705 0.7791 0.0
C277 C 0.7049 0.01774 0.75917 0.0
C278 C 0.62561 0.06301 0.77689 0.0
O279 O 0.61897 1.00242 0.7199 0.0
Mg280 Mg 0.81098 0.738 0.03478 0.0
O281 O 0.80786 0.7672 0.08311 0.0
O282 O 0.85658 0.78993 0.09782 0.0
Mg283 Mg 0.85707 0.79296 0.04789 0.0
C284 C 0.8296 0.7797 0.10471 0.0
C285 C 0.74406 0.68376 0.02018 0.0
O286 O 0.75718 0.66989 1.00038 0.0
O287 O 0.8081 0.76902 0.99351 0.0
O288 O 0.85769 0.79585 0.99778 0.0
O289 O 0.82443 0.70508 0.06256 0.0
O290 O 0.86032 0.74066 0.04011 0.0
C291 C 0.83201 0.7854 0.98172 0.0
C292 C 0.85154 0.71506 0.05486 0.0
O293 O 0.75916 0.71366 0.03488 0.0
Mg294 Mg 0.98027 0.61464 0.84633 0.0
O295 O 0.947 0.55733 0.83624 0.0
O296 O 0.92426 0.54473 0.87759 0.0
Mg297 Mg 0.94149 0.59341 0.91198 0.0
C298 C 0.92829 0.53639 0.85058 0.0
C299 C 0.98845 0.60298 0.77525 0.0
O300 O 0.98724 0.61306 0.74899 0.0
O301 O 0.94084 0.63055 0.84159 0.0
O302 O 0.91299 0.61028 0.87771 0.0
O303 O 0.01746 0.59873 0.86247 0.0
O304 O 0.98415 0.61012 0.89051 0.0
C305 C 0.91647 0.6237 0.85373 0.0
C306 C 1.00681 0.59989 0.88803 0.0
O307 O 0.98283 0.62007 0.79758 0.0
Mg308 Mg 0.83733 0.47321 0.51458 0.0
O309 O 0.81562 0.44317 0.46848 0.0
O310 O 0.8372 0.40431 0.47384 0.0
Mg311 Mg 0.8882 0.43217 0.49 0.0
C312 C 0.82062 0.41609 0.45821 0.0
C313 C 0.79616 0.51075 0.5283 0.0
O314 O 0.79388 0.47954 0.53252 0.0
O315 O 0.82979 0.42515 0.53693 0.0
O316 O 0.8769 0.42393 0.53673 0.0
O317 O 0.86394 0.52354 0.49857 0.0
O318 O 0.8754 0.47697 0.49572 0.0
C319 C 0.85216 0.41835 0.54845 0.0
C320 C 0.88394 0.50924 0.49479 0.0
O321 O 0.79502 0.48073 0.53187 0.0
Mg322 Mg 0.69024 0.57914 0.3732 0.0
O323 O 0.73009 0.62793 0.37608 0.0
O324 O 0.76305 0.64138 0.41777 0.0
Mg325 Mg 0.7438 0.59407 0.4404 0.0
C326 C 0.75421 0.64769 0.39266 0.0
C327 C 0.65099 0.58601 0.32084 0.0
O328 O 0.63267 0.58116 0.34177 0.0
O329 O 0.71988 0.5505 0.35863 0.0
O330 O 0.75314 0.56247 0.40009 0.0
O331 O 0.66696 0.60756 0.39847 0.0
O332 O 0.69661 0.5834 0.41938 0.0
C333 C 0.7434 0.54874 0.37281 0.0
C334 C 0.67974 0.60189 0.42253 0.0
O335 O 0.67728 0.58463 0.32596 0.0
Tb336 Tb 0.10438 0.10008 0.06417 0.0
Tb337 Tb 0.03219 0.0384 0.02637 0.0
C338 C 0.05289 0.08782 0.09148 0.0
C339 C 0.18562 0.12156 0.07422 0.0
C340 C 0.22494 0.08518 0.06715 0.0
C341 C 0.21407 0.0892 0.09475 0.0
C342 C 0.19466 0.10755 0.09836 0.0
C343 C 0.19786 0.11872 0.04702 0.0
C344 C 0.21734 0.10051 0.04352 0.0
C345 C 0.16025 0.13419 0.0759 0.0
O346 O 0.09897 0.04681 0.07423 0.0
O347 O 0.05723 0.00596 0.04138 0.0
O348 O 0.05848 0.04836 0.98934 0.0
O349 O 0.09855 0.06256 0.02469 0.0
O350 O 0.99306 0.01038 0.04445 0.0
O351 O 0.99189 0.01334 0.99667 0.0
O352 O 0.03182 0.09065 0.02301 0.0
O353 O 0.08125 0.12989 0.04087 0.0
O354 O 0.07988 0.10899 0.10184 0.0
O355 O 0.05349 0.07312 0.06505 0.0
C356 C 0.08148 0.01415 0.06201 0.0
O357 O 0.1446 0.13225 0.05026 0.0
O358 O 0.14255 0.12341 0.0964 0.0
C359 C 0.08773 0.06451 0.99785 0.0
C360 C 0.95244 0.02166 0.0215 0.0
C361 C 0.90964 0.05306 0.03119 0.0
C362 C 0.89999 0.01884 0.01617 0.0
C363 C 0.92149 1.00312 0.01124 0.0
C364 C 0.96169 0.05619 0.03515 0.0
C365 C 0.94063 0.07191 0.03964 0.0
C366 C 0.97581 0.00612 0.01912 0.0
C367 C 0.05285 0.12252 0.02804 0.0
H368 H 0.22009 0.07754 0.11314 0.0
H369 H 0.1857 0.10941 0.11962 0.0
H370 H 0.19136 0.12922 0.02804 0.0
H371 H 0.22595 0.09766 0.02217 0.0
H372 H 0.87595 1.00407 0.00944 0.0
H373 H 0.91395 0.97649 1.00037 0.0
H374 H 0.98518 0.07066 0.04348 0.0
H375 H 0.94836 0.09843 0.05079 0.0
Tb376 Tb 0.30156 0.81606 0.326 0.0
Tb377 Tb 0.35014 0.82246 0.27644 0.0
C378 C 0.28687 0.83776 0.26397 0.0
C379 C 0.26498 0.78601 0.39171 0.0
C380 C 0.26697 0.75622 0.44373 0.0
C381 C 0.23931 0.7574 0.43122 0.0
C382 C 0.23834 0.77225 0.40522 0.0
C383 C 0.29243 0.78436 0.40417 0.0
C384 C 0.29342 0.76957 0.42996 0.0
C385 C 0.26407 0.8008 0.36404 0.0
O386 O 0.28487 0.77477 0.28815 0.0
O387 O 0.32946 0.76853 0.28128 0.0
O388 O 0.3761 0.81578 0.31535 0.0
O389 O 0.33913 0.80329 0.34728 0.0
O390 O 0.35682 0.80243 0.23385 0.0
O391 O 0.39281 0.84497 0.2616 0.0
O392 O 0.36372 0.87442 0.3004 0.0
O393 O 0.32804 0.87086 0.3337 0.0
O394 O 0.28115 0.83675 0.29198 0.0
O395 O 0.31034 0.83104 0.25405 0.0
C396 C 0.29998 0.75494 0.28057 0.0
O397 O 0.28406 0.83169 0.3643 0.0
O398 O 0.26287 0.7803 0.3396 0.0
C399 C 0.36684 0.8067 0.34085 0.0
C400 C 0.38463 0.84804 0.21095 0.0
C401 C 0.37617 0.87935 0.16187 0.0
C402 C 0.39142 0.85589 0.15959 0.0
C403 C 0.39553 0.84009 0.18414 0.0
C404 C 0.371 0.87303 0.2136 0.0
C405 C 0.36673 0.88857 0.18914 0.0
C406 C 0.38314 0.8273 0.23478 0.0
C407 C 0.35241 0.88815 0.32198 0.0
H408 H 0.21868 0.7469 0.44156 0.0
H409 H 0.21688 0.77292 0.39564 0.0
H410 H 0.31312 0.79448 0.39398 0.0
H411 H 0.31488 0.7686 0.43927 0.0
H412 H 0.39877 0.84868 0.13848 0.0
H413 H 0.40584 0.82063 0.18182 0.0
H414 H 0.36224 0.87917 0.23415 0.0
H415 H 0.3549 0.90662 0.19106 0.0
Tb416 Tb 0.53376 0.06264 0.55389 0.0
Tb417 Tb 0.61088 0.07283 0.53898 0.0
C418 C 0.57965 0.05117 0.59566 0.0
C419 C 0.4656 0.08842 0.55268 0.0
C420 C 0.43306 0.13347 0.55858 0.0
C421 C 0.43637 0.11556 0.582 0.0
C422 C 0.45238 0.0931 0.57903 0.0
C423 C 0.46294 0.10727 0.52959 0.0
C424 C 0.44676 0.12959 0.53254 0.0
C425 C 0.48048 0.06257 0.54905 0.0
O426 O 0.56205 0.1173 0.56963 0.0
O427 O 0.60949 0.12541 0.55127 0.0
O428 O 0.59847 0.08368 0.49472 0.0
O429 O 0.56345 0.06961 0.52165 0.0
O430 O 0.64945 0.07194 0.56429 0.0
O431 O 0.65114 0.08187 0.5187 0.0
O432 O 0.58085 0.01701 0.52666 0.0
O433 O 0.53085 0.00984 0.53787 0.0
O434 O 0.55016 0.04373 0.59065 0.0
O435 O 0.59834 0.07671 0.58424 0.0
C436 C 0.58947 0.13717 0.56383 0.0
O437 O 0.4961 0.06234 0.52617 0.0
O438 O 0.49411 0.05812 0.57369 0.0
C439 C 0.57059 0.08017 0.4968 0.0
C440 C 0.67932 0.04981 0.53537 0.0
C441 C 0.70771 1.00125 0.53121 0.0
C442 C 0.72509 0.03649 0.53283 0.0
C443 C 0.71092 0.06072 0.53499 0.0
C444 C 0.66167 0.01435 0.53171 0.0
C445 C 0.67586 0.9901 0.52978 0.0
C446 C 0.66529 0.07556 0.54171 0.0
C447 C 0.55185 0.99757 0.52878 0.0
H448 H 0.42562 0.11804 0.60209 0.0
H449 H 0.45379 0.07874 0.59709 0.0
H450 H 0.4727 0.10418 0.50896 0.0
H451 H 0.44413 0.14307 0.51416 0.0
H452 H 0.74973 0.04532 0.534 0.0
H453 H 0.72473 0.088 0.53759 0.0
H454 H 0.63715 1.00557 0.53161 0.0
H455 H 0.66227 0.96293 0.52864 0.0
Tb456 Tb 0.36087 0.30541 0.80032 0.0
Tb457 Tb 0.2959 0.32037 0.79259 0.0
C458 C 0.29879 0.2538 0.81524 0.0
C459 C 0.43719 0.30643 0.78438 0.0
C460 C 0.48611 0.32332 0.74937 0.0
C461 C 0.49029 0.3161 0.77853 0.0
C462 C 0.46605 0.30779 0.79588 0.0
C463 C 0.43284 0.31347 0.75515 0.0
C464 C 0.45712 0.32175 0.73771 0.0
C465 C 0.41249 0.29974 0.80375 0.0
O466 O 0.34122 0.28391 0.75298 0.0
O467 O 0.30587 0.30999 0.74603 0.0
O468 O 0.33271 0.36916 0.7928 0.0
O469 O 0.36754 0.34744 0.77608 0.0
O470 O 0.24883 0.30382 0.77787 0.0
O471 O 0.27412 0.35602 0.7996 0.0
O472 O 0.30676 0.32431 0.84126 0.0
O473 O 0.35772 0.3315 0.84503 0.0
O474 O 0.32864 0.26597 0.82011 0.0
O475 O 0.28343 0.26637 0.79771 0.0
C476 C 0.32307 0.29338 0.73512 0.0
O477 O 0.40765 0.32716 0.81556 0.0
O478 O 0.38696 0.27397 0.79355 0.0
C479 C 0.3558 0.37134 0.77794 0.0
C480 C 0.22373 0.3309 0.80988 0.0
C481 C 0.17843 0.32645 0.84794 0.0
C482 C 0.17215 0.32671 0.81723 0.0
C483 C 0.19468 0.32887 0.79829 0.0
C484 C 0.23016 0.33126 0.84076 0.0
C485 C 0.20759 0.32893 0.85968 0.0
C486 C 0.24721 0.33304 0.78973 0.0
C487 C 0.3331 0.33127 0.85759 0.0
H488 H 0.51239 0.31695 0.78786 0.0
H489 H 0.46992 0.30269 0.81843 0.0
H490 H 0.41075 0.31274 0.74595 0.0
H491 H 0.45334 0.32696 0.71519 0.0
H492 H 0.14965 0.32463 0.8079 0.0
H493 H 0.18939 0.32876 0.77458 0.0
H494 H 0.25256 0.3332 0.85021 0.0
H495 H 0.21268 0.3286 0.88334 0.0
Tb496 Tb 0.06615 0.09139 0.57623 0.0
Tb497 Tb 0.06382 0.04308 0.51576 0.0
C498 C 1.00456 0.03485 0.54458 0.0
C499 C 0.08515 0.12748 0.65691 0.0
C500 C 0.10385 0.11479 0.71308 0.0
C501 C 0.07266 0.10352 0.70263 0.0
C502 C 0.06331 0.10976 0.67458 0.0
C503 C 0.11629 0.14028 0.66841 0.0
C504 C 0.12555 0.13368 0.69612 0.0
C505 C 0.0767 0.13081 0.62574 0.0
O506 O 0.07439 0.04604 0.59359 0.0
O507 O 0.06348 0.00752 0.55008 0.0
O508 O 0.11116 0.06376 0.5351 0.0
O509 O 0.10754 0.11355 0.55596 0.0
O510 O 0.04266 0.99733 0.48495 0.0
O511 O 0.08491 0.03572 0.47759 0.0
O512 O 0.06423 0.09336 0.50028 0.0
O513 O 0.05334 0.12113 0.54242 0.0
O514 O 0.02071 0.05136 0.57026 0.0
O515 O 0.01676 0.03748 0.51949 0.0
C516 C 0.06887 0.01376 0.58 0.0
O517 O 0.09712 0.12996 0.60814 0.0
O518 O 0.04907 0.11261 0.61265 0.0
C519 C 0.12393 0.09662 0.54528 0.0
C520 C 0.04993 0.00686 0.43541 0.0
C521 C 0.03168 0.01448 0.3773 0.0
C522 C 0.05652 1.00405 0.38269 0.0
C523 C 0.06554 1.00016 0.41162 0.0
C524 C 0.02454 0.01642 0.42988 0.0
C525 C 0.01533 0.01999 0.40088 0.0
C526 C 0.06235 0.00742 0.4661 0.0
C527 C 0.05818 0.12029 0.51365 0.0
H528 H 0.05572 0.08911 0.71581 0.0
H529 H 0.0392 0.09992 0.66643 0.0
H530 H 0.13368 0.15438 0.65549 0.0
H531 H 0.1497 0.14264 0.70405 0.0
H532 H 0.0694 0.99994 0.36466 0.0
H533 H 0.08537 0.99315 0.41565 0.0
H534 H 1.01249 0.02222 0.44807 0.0
H535 H 0.99622 0.02827 0.39699 0.0
Tb536 Tb 0.34105 0.85644 0.79284 0.0
Tb537 Tb 0.30598 0.77885 0.80423 0.0
C538 C 0.33451 0.79399 0.74519 0.0
C539 C 0.35074 0.94466 0.79591 0.0
C540 C 0.32332 0.99112 0.81691 0.0
C541 C 0.35134 1.00331 0.80519 0.0
C542 C 0.36498 0.97996 0.79444 0.0
C543 C 0.32276 0.93308 0.80754 0.0
C544 C 0.30888 0.95583 0.81734 0.0
C545 C 0.36459 0.91911 0.78705 0.0
O546 O 0.29129 0.85027 0.78373 0.0
O547 O 0.26839 0.79198 0.78048 0.0
O548 O 0.29512 0.80751 0.84136 0.0
O549 O 0.3269 0.86196 0.83639 0.0
O550 O 0.27218 0.73092 0.78703 0.0
O551 O 0.29726 0.73944 0.83085 0.0
O552 O 0.35473 0.78922 0.82459 0.0
O553 O 0.3806 0.84 0.80782 0.0
O554 O 0.33401 0.8251 0.74974 0.0
O555 O 0.33068 0.77476 0.76635 0.0
C556 C 0.26597 0.82222 0.77715 0.0
O557 O 0.37315 0.90619 0.80927 0.0
O558 O 0.34873 0.89481 0.7651 0.0
C559 C 0.307 0.84067 0.85021 0.0
C560 C 0.28722 0.68632 0.80041 0.0
C561 C 0.31574 0.63947 0.78582 0.0
C562 C 0.31016 0.64642 0.81544 0.0
C563 C 0.29579 0.66977 0.82272 0.0
C564 C 0.29092 0.67709 0.77039 0.0
C565 C 0.30521 0.65384 0.76317 0.0
C566 C 0.279 0.71653 0.80906 0.0
C567 C 0.38141 0.81383 0.82192 0.0
H568 H 0.36285 0.03072 0.80511 0.0
H569 H 0.38677 0.98944 0.78584 0.0
H570 H 0.31198 0.90656 0.81025 0.0
H571 H 0.28748 0.94609 0.82669 0.0
H572 H 0.31841 0.63529 0.83301 0.0
H573 H 0.29309 0.67651 0.84595 0.0
H574 H 0.28444 0.68921 0.75264 0.0
H575 H 0.30959 0.64855 0.74025 0.0
Tb576 Tb 0.55949 0.0526 0.07962 0.0
Tb577 Tb 0.58764 0.09311 0.02798 0.0
C578 C 0.62888 0.08266 0.07624 0.0
C579 C 0.52902 0.03129 0.15163 0.0
C580 C 0.51079 0.04189 0.20848 0.0
C581 C 0.5418 0.05246 0.20492 0.0
C582 C 0.55085 0.04715 0.17687 0.0
C583 C 0.4978 0.02191 0.15496 0.0
C584 C 0.48869 0.02742 0.18334 0.0
C585 C 0.53919 0.02243 0.12276 0.0
O586 O 0.56688 0.10742 0.09924 0.0
O587 O 0.57423 0.13183 0.05655 0.0
O588 O 0.54138 0.06196 0.00955 0.0
O589 O 0.52497 0.06541 0.05522 0.0
O590 O 0.62472 0.10904 0.00344 0.0
O591 O 0.58746 0.12791 0.99868 0.0
O592 O 0.58795 0.03958 0.0128 0.0
O593 O 0.55486 0.00912 0.04285 0.0
O594 O 0.60634 0.05586 0.08101 0.0
O595 O 0.62286 0.10679 0.06469 0.0
C596 C 0.56891 0.13409 0.08501 0.0
O597 O 0.52203 0.02024 0.09813 0.0
O598 O 0.56804 0.03828 0.12069 0.0
C599 C 0.51947 0.05989 0.02598 0.0
C600 C 0.60901 0.11603 0.95567 0.0
C601 C 0.60435 0.09474 0.89447 0.0
C602 C 0.57789 0.09134 0.90787 0.0
C603 C 0.58016 0.10169 0.93849 0.0
C604 C 0.63543 0.11916 0.94212 0.0
C605 C 0.6331 0.10837 0.91154 0.0
C606 C 0.61177 0.12562 0.98795 0.0
C607 C 0.57111 0.0091 0.01996 0.0
H608 H 0.55908 0.06364 0.22419 0.0
H609 H 0.57507 0.05453 0.17526 0.0
H610 H 0.48051 0.00947 0.13589 0.0
H611 H 0.46464 0.01917 0.18592 0.0
H612 H 0.55568 0.08086 0.8946 0.0
H613 H 0.55939 0.09842 0.94863 0.0
H614 H 0.65775 0.12969 0.95522 0.0
H615 H 0.65362 0.11102 0.90109 0.0
Tb616 Tb 0.31082 0.27912 0.28452 0.0
Tb617 Tb 0.33994 0.35682 0.30818 0.0
C618 C 0.31426 0.33307 0.23919 0.0
C619 C 0.30403 0.19165 0.26744 0.0
C620 C 0.33761 0.14935 0.27313 0.0
C621 C 0.30907 0.1361 0.25546 0.0
C622 C 0.29211 0.15739 0.25271 0.0
C623 C 0.33306 0.20487 0.28389 0.0
C624 C 0.3497 0.18392 0.28674 0.0
C625 C 0.28741 0.21491 0.26639 0.0
O626 O 0.35852 0.28952 0.27037 0.0
O627 O 0.38128 0.3443 0.29477 0.0
O628 O 0.3353 0.33373 0.34914 0.0
O629 O 0.33339 0.28057 0.32962 0.0
O630 O 0.37362 0.40432 0.30428 0.0
O631 O 0.34863 0.39903 0.34228 0.0
O632 O 0.29061 0.34929 0.31482 0.0
O633 O 0.27043 0.29063 0.30202 0.0
O634 O 0.30955 0.30125 0.24333 0.0
O635 O 0.32078 0.35769 0.26251 0.0
C636 C 0.38379 0.31797 0.27657 0.0
O637 O 0.28493 0.22943 0.29259 0.0
O638 O 0.29707 0.23764 0.24878 0.0
C639 C 0.33501 0.30325 0.35323 0.0
C640 C 0.35436 0.44721 0.31966 0.0
C641 C 0.31312 0.47902 0.3073 0.0
C642 C 0.32666 0.48339 0.33681 0.0
C643 C 0.34734 0.4674 0.343 0.0
C644 C 0.34287 0.44596 0.28984 0.0
C645 C 0.32216 0.46159 0.28376 0.0
C646 C 0.36581 0.42053 0.32671 0.0
C647 C 0.26681 0.31974 0.31365 0.0
H648 H 0.29966 0.10928 0.24491 0.0
H649 H 0.26977 0.14711 0.23971 0.0
H650 H 0.34262 0.23133 0.29521 0.0
H651 H 0.37171 0.19442 0.30045 0.0
H652 H 0.31976 0.49719 0.35504 0.0
H653 H 0.35573 0.46829 0.36612 0.0
H654 H 0.34773 0.4305 0.27136 0.0
H655 H 0.31186 0.45844 0.26089 0.0
Tb656 Tb 0.56725 0.59116 0.07688 0.0
Tb657 Tb 0.56212 0.54517 0.01556 0.0
C658 C 0.50385 0.53721 0.04596 0.0
C659 C 0.58541 0.63093 0.15661 0.0
C660 C 0.60892 0.62276 0.21252 0.0
C661 C 0.57918 0.6016 0.20007 0.0
C662 C 0.56742 0.60563 0.17222 0.0
C663 C 0.61464 0.65322 0.16997 0.0
C664 C 0.62642 0.64905 0.19774 0.0
C665 C 0.57578 0.63211 0.12529 0.0
O666 O 0.5662 0.54241 0.09457 0.0
O667 O 0.57124 0.51341 0.05062 0.0
O668 O 0.6054 0.58734 0.01955 0.0
O669 O 0.61334 0.5938 0.06999 0.0
O670 O 0.53707 0.5017 0.98377 0.0
O671 O 0.58426 0.53055 0.98049 0.0
O672 O 0.55538 0.59067 0.99778 0.0
O673 O 0.5618 0.62515 0.04276 0.0
O674 O 0.52084 0.5533 0.07129 0.0
O675 O 0.51529 0.53895 0.02052 0.0
C676 C 0.56874 0.51397 0.08004 0.0
O677 O 0.59644 0.63347 0.10747 0.0
O678 O 0.54897 0.61056 0.113 0.0
C679 C 0.62378 0.59933 0.04435 0.0
C680 C 0.55075 0.5105 0.9359 0.0
C681 C 0.53654 0.51944 0.8771 0.0
C682 C 0.55918 0.50587 0.88361 0.0
C683 C 0.56612 0.50121 0.91293 0.0
C684 C 0.52843 0.52457 0.92936 0.0
C685 C 0.5212 0.52872 0.9001 0.0
C686 C 0.55895 0.50713 0.96686 0.0
C687 C 0.55788 0.62129 0.01277 0.0
H688 H 0.56551 0.58127 0.21147 0.0
H689 H 0.54481 0.58813 0.1625 0.0
H690 H 0.6289 0.67287 0.1583 0.0
H691 H 0.64947 0.66545 0.2072 0.0
H692 H 0.57138 0.49896 0.86604 0.0
H693 H 0.58366 0.49075 0.91773 0.0
H694 H 0.51669 0.53257 0.94688 0.0
H695 H 0.50392 0.53959 0.89541 0.0
Tb696 Tb 0.84355 0.35363 0.29199 0.0
Tb697 Tb 0.80218 0.2736 0.31054 0.0
C698 C 0.83391 0.2872 0.24793 0.0
C699 C 0.85413 0.4443 0.30179 0.0
C700 C 0.81924 0.48358 0.31896 0.0
C701 C 0.81063 0.46117 0.29162 0.0
C702 C 0.82793 0.44144 0.28308 0.0
C703 C 0.86383 0.46874 0.32807 0.0
C704 C 0.84635 0.48822 0.33671 0.0
C705 C 0.86784 0.41789 0.2974 0.0
O706 O 0.79443 0.34621 0.27578 0.0
O707 O 0.76678 0.29423 0.29145 0.0
O708 O 0.79392 0.29989 0.35241 0.0
O709 O 0.81965 0.33177 0.32511 0.0
O710 O 0.766 0.22685 0.29462 0.0
O711 O 0.79619 0.23231 0.33457 0.0
O712 O 0.85331 0.28501 0.32528 0.0
O713 O 0.88114 0.33651 0.30924 0.0
O714 O 0.84571 0.32116 0.25274 0.0
O715 O 0.81836 0.26753 0.26653 0.0
C716 C 0.76739 0.32179 0.27841 0.0
O717 O 0.86677 0.40073 0.31988 0.0
O718 O 0.86027 0.39766 0.27133 0.0
C719 C 0.80817 0.33141 0.34985 0.0
C720 C 0.78464 0.1823 0.29967 0.0
C721 C 0.81878 0.14502 0.27592 0.0
C722 C 0.81492 0.14683 0.3064 0.0
C723 C 0.79772 0.1653 0.31824 0.0
C724 C 0.78642 0.17762 0.2686 0.0
C725 C 0.8035 0.15914 0.25684 0.0
C726 C 0.77604 0.21071 0.31329 0.0
C727 C 0.88062 0.30925 0.32239 0.0
H728 H 0.7896 0.45744 0.27788 0.0
H729 H 0.81969 0.42248 0.26288 0.0
H730 H 0.88373 0.47098 0.34293 0.0
H731 H 0.853 0.50547 0.35797 0.0
H732 H 0.82669 0.13579 0.32123 0.0
H733 H 0.79676 0.16871 0.34222 0.0
H734 H 0.77669 0.19042 0.25363 0.0
H735 H 0.80643 0.15775 0.23324 0.0
Tb736 Tb 0.0526 0.54813 0.57895 0.0
Tb737 Tb 0.07868 0.58823 0.52582 0.0
C738 C 0.12198 0.58681 0.58073 0.0
C739 C 0.03005 0.51574 0.65026 0.0
C740 C 0.02364 0.5239 0.7114 0.0
C741 C 0.02928 0.495 0.6982 0.0
C742 C 0.03239 0.49091 0.66761 0.0
C743 C 0.02566 0.54528 0.66382 0.0
C744 C 0.02233 0.54921 0.69415 0.0
C745 C 0.03239 0.51065 0.61814 0.0
O746 O 0.05419 0.60058 0.59891 0.0
O747 O 0.07156 0.6286 0.55939 0.0
O748 O 0.03233 0.555 0.50962 0.0
O749 O 0.01728 0.56021 0.55556 0.0
O750 O 0.11454 0.61346 0.50228 0.0
O751 O 0.06987 0.61602 0.49309 0.0
O752 O 0.07896 0.53604 0.5073 0.0
O753 O 0.05336 0.50641 0.54248 0.0
O754 O 0.09946 0.57692 0.59665 0.0
O755 O 0.1182 0.58831 0.55224 0.0
C756 C 0.06166 0.62916 0.58629 0.0
O757 O 0.01569 0.52174 0.60092 0.0
O758 O 0.06003 0.5188 0.61104 0.0
C759 C 1.01109 0.55455 0.52647 0.0
C760 C 0.09607 0.61102 0.4521 0.0
C761 C 0.09467 0.59117 0.39082 0.0
C762 C 0.08105 0.61468 0.40079 0.0
C763 C 0.08193 0.62474 0.43138 0.0
C764 C 0.10841 0.58616 0.44196 0.0
C765 C 0.10785 0.57644 0.41139 0.0
C766 C 0.09657 0.6218 0.48409 0.0
C767 C 0.06647 0.50618 0.51734 0.0
H768 H 0.03049 0.47541 0.71131 0.0
H769 H 0.03622 0.46819 0.6574 0.0
H770 H 0.0243 0.56498 0.6509 0.0
H771 H 0.01802 0.57173 0.70412 0.0
H772 H 0.07084 0.62611 0.3849 0.0
H773 H 0.07186 0.64348 0.43889 0.0
H774 H 0.11883 0.5746 0.45755 0.0
H775 H 0.11842 0.55821 0.40377 0.0
Tb776 Tb 0.85591 0.8017 0.29962 0.0
Tb777 Tb 0.7864 0.80411 0.29188 0.0
C778 C 0.79878 0.74402 0.31528 0.0
C779 C 0.93114 0.79994 0.28156 0.0
C780 C 0.97677 0.80314 0.24409 0.0
C781 C 0.96739 0.7765 0.26136 0.0
C782 C 0.94477 0.77497 0.28002 0.0
C783 C 0.93978 0.82597 0.26341 0.0
C784 C 0.96261 0.82763 0.24488 0.0
C785 C 0.90815 0.79819 0.3023 0.0
O786 O 0.83763 0.77931 0.25247 0.0
O787 O 0.7987 0.79994 0.24584 0.0
O788 O 0.81826 0.85616 0.29934 0.0
O789 O 0.8579 0.846 0.27935 0.0
O790 O 0.73877 0.77879 0.28515 0.0
O791 O 0.75913 0.83395 0.28731 0.0
O792 O 0.79927 0.81345 0.34106 0.0
O793 O 0.85144 0.82627 0.34435 0.0
O794 O 0.8277 0.76238 0.32218 0.0
O795 O 0.78174 0.75131 0.29512 0.0
C796 C 0.81848 0.78738 0.23481 0.0
O797 O 0.90323 0.82664 0.31076 0.0
O798 O 0.88289 0.77117 0.29597 0.0
C799 C 0.84188 0.86533 0.28485 0.0
C800 C 0.71408 0.81313 0.30975 0.0
C801 C 0.67406 0.82267 0.34985 0.0
C802 C 0.68991 0.8497 0.33486 0.0
C803 C 0.70977 0.84489 0.31481 0.0
C804 C 0.69896 0.78668 0.3258 0.0
C805 C 0.6792 0.79152 0.34578 0.0
C806 C 0.73408 0.80784 0.2876 0.0
C807 C 0.82643 0.82389 0.35711 0.0
H808 H 0.97829 0.75758 0.2611 0.0
H809 H 0.93824 0.75458 0.29367 0.0
H810 H 0.92933 0.84531 0.26392 0.0
H811 H 0.96979 0.84846 0.23176 0.0
H812 H 0.68583 0.87376 0.33766 0.0
H813 H 0.7212 0.86568 0.30272 0.0
H814 H 0.7017 0.7619 0.32242 0.0
H815 H 0.66683 0.77038 0.3571 0.0
Tb816 Tb 0.80726 0.32608 0.83268 0.0
Tb817 Tb 0.84664 0.31987 0.77603 0.0
C818 C 0.78469 0.33618 0.7689 0.0
C819 C 0.77069 0.30229 0.90002 0.0
C820 C 0.76528 0.26502 0.94805 0.0
C821 C 0.73924 0.2678 0.93335 0.0
C822 C 0.74198 0.28644 0.90938 0.0
C823 C 0.79654 0.2988 0.91445 0.0
C824 C 0.79383 0.28033 0.93833 0.0
C825 C 0.7733 0.3204 0.87401 0.0
O826 O 0.78556 0.27788 0.80234 0.0
O827 O 0.82604 0.26766 0.78485 0.0
O828 O 0.8719 0.30832 0.8127 0.0
O829 O 0.84562 0.3141 0.85279 0.0
O830 O 0.84877 0.29882 0.73216 0.0
O831 O 0.88863 0.33743 0.75885 0.0
O832 O 0.86104 0.37476 0.79239 0.0
O833 O 0.83724 0.37904 0.83492 0.0
O834 O 0.78706 0.34604 0.79798 0.0
O835 O 0.80299 0.32189 0.75682 0.0
C836 C 0.79829 0.25651 0.79184 0.0
O837 O 0.79853 0.3466 0.87426 0.0
O838 O 0.76559 0.30036 0.84823 0.0
C839 C 0.86878 0.30848 0.84135 0.0
C840 C 0.87988 0.34206 0.70855 0.0
C841 C 0.87506 0.3747 0.65923 0.0
C842 C 0.89072 0.3516 0.65829 0.0
C843 C 0.89289 0.33504 0.68289 0.0
C844 C 0.86671 0.36743 0.71037 0.0
C845 C 0.86405 0.38349 0.68574 0.0
C846 C 0.87651 0.32058 0.73212 0.0
C847 C 0.85618 0.39254 0.81608 0.0
H848 H 0.71702 0.25568 0.94048 0.0
H849 H 0.72173 0.28833 0.89804 0.0
H850 H 0.8188 0.31027 0.90722 0.0
H851 H 0.81404 0.27799 0.94931 0.0
H852 H 0.89945 0.3448 0.63791 0.0
H853 H 0.90328 0.31564 0.68133 0.0
H854 H 0.85698 0.37333 0.7303 0.0
H855 H 0.85204 0.40137 0.6868 0.0
Tb856 Tb 0.80973 0.78149 0.7852 0.0
Tb857 Tb 0.83912 0.85956 0.80787 0.0
C858 C 0.81638 0.83362 0.7393 0.0
C859 C 0.79854 0.69131 0.75715 0.0
C860 C 0.83166 0.65265 0.77544 0.0
C861 C 0.79974 0.63772 0.77084 0.0
C862 C 0.78308 0.65732 0.76181 0.0
C863 C 0.83003 0.70279 0.75526 0.0
C864 C 0.84675 0.68374 0.76513 0.0
C865 C 0.78593 0.71708 0.76794 0.0
O866 O 0.85998 0.79086 0.77918 0.0
O867 O 0.87864 0.84977 0.78665 0.0
O868 O 0.85164 0.8384 0.84686 0.0
O869 O 0.81311 0.78631 0.83469 0.0
O870 O 0.86951 0.90904 0.80363 0.0
O871 O 0.8413 0.90214 0.83915 0.0
O872 O 0.79131 0.84598 0.82236 0.0
O873 O 0.76746 0.79427 0.79309 0.0
O874 O 0.81774 0.80392 0.74396 0.0
O875 O 0.81637 0.85596 0.76247 0.0
C876 C 0.88294 0.82039 0.77711 0.0
O877 O 0.79717 0.7316 0.7954 0.0
O878 O 0.78517 0.73975 0.75089 0.0
C879 C 0.83335 0.80992 0.85501 0.0
C880 C 0.84277 0.94687 0.8123 0.0
C881 C 0.80036 0.97263 0.78818 0.0
C882 C 0.80529 0.9739 0.81929 0.0
C883 C 0.82644 0.96104 0.83132 0.0
C884 C 0.83938 0.94845 0.78143 0.0
C885 C 0.81807 0.96084 0.76943 0.0
C886 C 0.85751 0.92407 0.82328 0.0
C887 C 0.76522 0.81928 0.81308 0.0
H888 H 0.78797 0.61331 0.77822 0.0
H889 H 0.75872 0.64803 0.76312 0.0
H890 H 0.84219 0.7287 0.75103 0.0
H891 H 0.87147 0.69506 0.76794 0.0
H892 H 0.79179 0.98331 0.83398 0.0
H893 H 0.82856 0.96007 0.85516 0.0
H894 H 0.85183 0.93827 0.76619 0.0
H895 H 0.81457 0.96006 0.74539 0.0
Tb896 Tb 0.59675 0.59116 0.56446 0.0
Tb897 Tb 0.53016 0.53445 0.51544 0.0
C898 C 0.54064 0.57563 0.58521 0.0
C899 C 0.6767 0.61046 0.58216 0.0
C900 C 0.72077 0.58006 0.57682 0.0
C901 C 0.72481 0.60663 0.6008 0.0
C902 C 0.70272 0.62188 0.60344 0.0
C903 C 0.6727 0.58347 0.55886 0.0
C904 C 0.69429 0.56824 0.55639 0.0
C905 C 0.65173 0.6233 0.58515 0.0
O906 O 0.58716 0.53587 0.57129 0.0
O907 O 0.55314 0.5001 0.5298 0.0
O908 O 0.56226 0.54943 0.48389 0.0
O909 O 0.59737 0.55896 0.52349 0.0
O910 O 0.49011 0.49531 0.52253 0.0
O911 O 0.49302 0.51771 0.48147 0.0
O912 O 0.52901 0.58738 0.51842 0.0
O913 O 0.57753 0.62442 0.54062 0.0
O914 O 0.56697 0.59653 0.59803 0.0
O915 O 0.54328 0.56269 0.55869 0.0
C916 C 0.5719 0.50467 0.55473 0.0
O917 O 0.63936 0.62789 0.55999 0.0
O918 O 0.63113 0.60628 0.601 0.0
C919 C 0.59054 0.56408 0.49638 0.0
C920 C 0.45242 0.51563 0.50834 0.0
C921 C 0.41376 0.54953 0.52662 0.0
C922 C 0.40225 0.51933 0.50508 0.0
C923 C 0.42185 0.50253 0.49555 0.0
C924 C 0.46315 0.54536 0.53001 0.0
C925 C 0.44438 0.56263 0.53855 0.0
C926 C 0.47491 0.50087 0.49963 0.0
C927 C 0.55008 0.61901 0.52621 0.0
H928 H 0.74503 0.61567 0.61706 0.0
H929 H 0.70579 0.64219 0.62202 0.0
H930 H 0.6525 0.57372 0.54277 0.0
H931 H 0.69022 0.54683 0.53859 0.0
H932 H 0.37842 0.50898 0.49583 0.0
H933 H 0.41326 0.47958 0.47869 0.0
H934 H 0.48623 0.55517 0.54075 0.0
H935 H 0.45357 0.58573 0.5553 0.0
Tb936 Tb 0.02666 0.56049 0.05241 0.0
Tb937 Tb 0.10382 0.57084 0.04128 0.0
C938 C 0.07257 0.55473 0.09668 0.0
C939 C 0.95881 0.58669 0.05095 0.0
C940 C 0.92786 0.63329 0.05764 0.0
C941 C 0.93124 0.61539 0.08104 0.0
C942 C 0.94646 0.59216 0.07766 0.0
C943 C 0.95609 0.60552 0.02783 0.0
C944 C 0.94069 0.62863 0.03119 0.0
C945 C 0.97315 0.56033 0.04713 0.0
O946 O 0.05396 0.61559 0.06699 0.0
O947 O 0.10192 0.6236 0.0502 0.0
O948 O 0.09284 0.57476 0.99533 0.0
O949 O 0.05049 0.56855 0.01499 0.0
O950 O 0.1381 0.56307 0.0679 0.0
O951 O 0.14779 0.58545 0.02743 0.0
O952 O 0.07453 0.51508 0.02966 0.0
O953 O 0.02341 0.50831 0.03449 0.0
O954 O 0.04296 0.54298 0.09057 0.0
O955 O 0.08865 0.58012 0.08383 0.0
C956 C 0.08141 0.63551 0.06151 0.0
O957 O 0.98901 0.56034 0.02454 0.0
O958 O 0.98641 0.55517 0.07154 0.0
C959 C 0.06507 0.57349 0.99199 0.0
C960 C 0.17334 0.54863 0.04046 0.0
C961 C 0.20478 0.50289 0.03357 0.0
C962 C 0.22068 0.53867 0.03658 0.0
C963 C 0.20502 0.56144 0.04005 0.0
C964 C 0.15718 0.51271 0.03545 0.0
C965 C 0.17286 0.48992 0.03205 0.0
C966 C 0.1579 0.57275 0.049 0.0
C967 C 0.04487 0.49583 0.02795 0.0
H968 H 0.92114 0.61846 0.10145 0.0
H969 H 0.94795 0.57787 0.09575 0.0
H970 H 0.9652 0.60187 0.00691 0.0
H971 H 0.93798 0.64211 0.01284 0.0
H972 H 0.24535 0.54897 0.03781 0.0
H973 H 0.21779 0.58905 0.04379 0.0
H974 H 0.13266 0.50234 0.03558 0.0
H975 H 0.16034 0.46235 0.02983 0.0
C976 C 0.04596 0.21283 0.0268 0.0
C977 C 0.02311 0.20556 1.00214 0.0
C978 C 0.02318 0.14605 0.99207 0.0
C979 C 0.04342 0.15181 0.01891 0.0
N980 N 0.06872 0.19055 0.06519 0.0
N981 N 0.98601 0.16285 0.96444 0.0
C982 C 0.0535 0.18525 0.03713 0.0
C983 C 1.01042 0.17138 0.98596 0.0
N984 N 0.06071 0.24626 0.04042 0.0
N985 N 0.01756 0.11745 0.97107 0.0
H986 H 0.97666 0.18067 0.9584 0.0
H987 H 0.97338 0.13746 0.95452 0.0
H988 H 0.02782 0.09933 0.97298 0.0
H989 H 1.00562 0.1138 0.94991 0.0
H990 H 0.08009 0.25398 0.05607 0.0
H991 H 0.05495 0.26669 0.03433 0.0
H992 H 0.07363 0.21309 0.08044 0.0
H993 H 0.07355 0.17141 0.07479 0.0
C994 C 0.21703 0.82082 0.20597 0.0
C995 C 0.21699 0.85477 0.2054 0.0
C996 C 0.26319 0.87783 0.24262 0.0
C997 C 0.26417 0.84412 0.24221 0.0
N998 N 0.24442 0.78406 0.21969 0.0
N999 N 0.2436 0.91603 0.21827 0.0
C1000 C 0.24196 0.81587 0.22247 0.0
C1001 C 0.24136 0.88338 0.2221 0.0
N1002 N 0.19238 0.79307 0.19199 0.0
N1003 N 0.28217 0.9044 0.26364 0.0
H1004 H 0.22798 0.92066 0.20347 0.0
H1005 H 0.26231 0.93811 0.22737 0.0
H1006 H 0.29759 0.9011 0.27952 0.0
H1007 H 0.28077 0.92884 0.26714 0.0
H1008 H 0.18875 0.76764 0.19478 0.0
H1009 H 0.17448 0.79568 0.1788 0.0
H1010 H 0.23092 0.76322 0.20363 0.0
H1011 H 0.26154 0.77909 0.23197 0.0
C1012 C 0.52679 0.90761 0.48074 0.0
C1013 C 0.52086 0.88507 0.50273 0.0
C1014 C 0.53285 0.93638 0.54179 0.0
C1015 C 0.54193 0.95885 0.52002 0.0
N1016 N 0.55196 0.96523 0.46912 0.0
N1017 N 0.52246 0.87895 0.55498 0.0
C1018 C 0.54054 0.94423 0.48971 0.0
C1019 C 0.52484 0.89975 0.53349 0.0
N1020 N 0.5171 0.89431 0.45112 0.0
N1021 N 0.53198 0.94998 0.57056 0.0
H1022 H 0.51742 0.8524 0.54989 0.0
H1023 H 0.52814 0.88828 0.57783 0.0
H1024 H 0.53984 0.97646 0.57819 0.0
H1025 H 0.52184 0.93506 0.58646 0.0
H1026 H 0.51799 0.90958 0.43441 0.0
H1027 H 0.50462 0.86822 0.44355 0.0
H1028 H 0.55519 0.95586 0.44772 0.0
H1029 H 0.56038 0.99213 0.47399 0.0
C1030 C 0.55221 0.37209 0.70766 0.0
C1031 C 0.56533 0.34655 0.70127 0.0
C1032 C 0.52283 0.30457 0.72089 0.0
C1033 C 0.51212 0.33119 0.73098 0.0
N1034 N 0.51862 0.39157 0.73718 0.0
N1035 N 0.566 0.29011 0.70732 0.0
C1036 C 0.52735 0.36535 0.72523 0.0
C1037 C 0.55136 0.31318 0.70933 0.0
N1038 N 0.56238 0.40203 0.69576 0.0
N1039 N 0.50537 0.27084 0.72169 0.0
H1040 H 0.58767 0.29582 0.70049 0.0
H1041 H 0.55819 0.26675 0.71557 0.0
H1042 H 0.48415 0.2635 0.7297 0.0
H1043 H 0.51046 0.25007 0.71162 0.0
H1044 H 0.5515 0.41986 0.69694 0.0
H1045 H 0.57995 0.40756 0.68223 0.0
H1046 H 0.53091 0.41754 0.7365 0.0
H1047 H 0.50039 0.38763 0.74985 0.0
C1048 C 0.05058 0.94877 0.64158 0.0
C1049 C 0.06363 0.92332 0.63237 0.0
C1050 C 0.08353 0.95953 0.59147 0.0
C1051 C 0.06796 0.98309 0.59887 0.0
N1052 N 0.03212 0.99441 0.62995 0.0
N1053 N 0.08996 0.90413 0.59479 0.0
C1054 C 0.0506 0.97617 0.62391 0.0
C1055 C 0.07936 0.92889 0.60626 0.0
N1056 N 0.03806 0.94704 0.6679 0.0
N1057 N 0.10378 0.96719 0.57092 0.0
H1058 H 0.08871 0.88292 0.60536 0.0
H1059 H 0.09812 0.9034 0.57404 0.0
H1060 H 0.10805 0.98898 0.56042 0.0
H1061 H 0.11849 0.95405 0.56647 0.0
H1062 H 0.03129 0.96631 0.67832 0.0
H1063 H 0.03713 0.92771 0.68079 0.0
H1064 H 0.01611 0.98854 0.64507 0.0
H1065 H 0.03057 0.01339 0.6177 0.0
C1066 C 0.459 0.82719 0.87546 0.0
C1067 C 0.47339 0.80652 0.85916 0.0
C1068 C 0.42679 0.78907 0.81936 0.0
C1069 C 0.4135 0.81153 0.83476 0.0
N1070 N 0.42199 0.85659 0.87631 0.0
N1071 N 0.47023 0.77033 0.81257 0.0
C1072 C 0.43117 0.83168 0.8625 0.0
C1073 C 0.4569 0.7884 0.83025 0.0
N1074 N 0.47198 0.84292 0.90386 0.0
N1075 N 0.41028 0.76762 0.79397 0.0
H1076 H 0.49038 0.76715 0.81996 0.0
H1077 H 0.46246 0.76015 0.79011 0.0
H1078 H 0.38944 0.76808 0.78501 0.0
H1079 H 0.41606 0.748 0.78272 0.0
H1080 H 0.46158 0.85484 0.91879 0.0
H1081 H 0.4924 0.84185 0.91324 0.0
H1082 H 0.43462 0.87487 0.89463 0.0
H1083 H 0.4028 0.86091 0.86762 0.0
C1084 C 0.56649 0.20952 0.14678 0.0
C1085 C 0.55533 0.23062 0.12992 0.0
C1086 C 0.54918 0.18583 0.08485 0.0
C1087 C 0.56419 0.16739 0.10085 0.0
N1088 N 0.59366 0.16953 0.14738 0.0
N1089 N 0.54437 0.24105 0.07984 0.0
C1090 C 0.57463 0.18154 0.1319 0.0
C1091 C 0.54913 0.21929 0.09811 0.0
N1092 N 0.56802 0.21468 0.17729 0.0
N1093 N 0.53315 0.17078 0.0573 0.0
H1094 H 0.54611 0.26619 0.08787 0.0
H1095 H 0.54262 0.23571 0.05653 0.0
H1096 H 0.53005 0.14568 0.04767 0.0
H1097 H 0.51958 0.18146 0.04585 0.0
H1098 H 0.57287 0.19807 0.19052 0.0
H1099 H 0.56101 0.23294 0.18914 0.0
H1100 H 0.6044 0.18094 0.16897 0.0
H1101 H 0.60165 0.15103 0.13749 0.0
C1102 C 0.1936 0.29716 0.36082 0.0
C1103 C 0.17488 0.31485 0.34943 0.0
C1104 C 0.21594 0.33549 0.31419 0.0
C1105 C 0.23514 0.31876 0.32635 0.0
N1106 N 0.2426 0.2884 0.36619 0.0
N1107 N 0.17206 0.3545 0.31634 0.0
C1108 C 0.22379 0.30095 0.351 0.0
C1109 C 0.18746 0.33497 0.32643 0.0
N1110 N 0.18191 0.27515 0.38053 0.0
N1111 N 0.22429 0.35096 0.28965 0.0
H1112 H 0.1522 0.35522 0.32473 0.0
H1113 H 0.17987 0.37198 0.30161 0.0
H1114 H 0.2443 0.35215 0.28057 0.0
H1115 H 0.21075 0.36052 0.27696 0.0
H1116 H 0.19148 0.25779 0.38714 0.0
H1117 H 0.16135 0.27288 0.38891 0.0
H1118 H 0.23827 0.27866 0.38617 0.0
H1119 H 0.26406 0.2906 0.36014 0.0
C1120 C 0.97958 0.08282 0.12301 0.0
C1121 C 0.97939 0.06057 0.144 0.0
C1122 C 0.02654 0.05535 0.12977 0.0
C1123 C 0.02718 0.07812 0.10893 0.0
N1124 N 1.00845 0.11917 0.08963 0.0
N1125 N 0.99718 0.01823 0.16228 0.0
C1126 C 1.00454 0.09308 0.10618 0.0
C1127 C 1.001 0.04422 0.14555 0.0
N1128 N 0.95579 0.09412 0.1197 0.0
N1129 N 0.05151 0.0469 0.13651 0.0
H1130 H 0.97855 0.00923 0.17412 0.0
H1131 H 1.01068 1.00313 0.16187 0.0
H1132 H 0.07086 0.05431 0.12538 0.0
H1133 H 0.05406 0.03459 0.15463 0.0
H1134 H 0.95335 0.10943 0.10399 0.0
H1135 H 0.93703 0.08581 0.13161 0.0
H1136 H 0.99457 0.13373 0.08901 0.0
H1137 H 0.02705 0.12786 0.07783 0.0
C1138 C 0.28542 0.75018 0.52523 0.0
C1139 C 0.29137 0.71918 0.52107 0.0
C1140 C 0.26953 0.70708 0.4684 0.0
C1141 C 0.26907 0.74098 0.47127 0.0
N1142 N 0.27452 0.79458 0.5019 0.0
N1143 N 0.28735 0.66622 0.49014 0.0
C1144 C 0.27581 0.76224 0.49971 0.0
C1145 C 0.28237 0.69672 0.49315 0.0
N1146 N 0.28906 0.76787 0.55353 0.0
N1147 N 0.25781 0.68511 0.4419 0.0
H1148 H 0.29531 0.65706 0.50819 0.0
H1149 H 0.28476 0.65048 0.46972 0.0
H1150 H 0.24835 0.69232 0.42346 0.0
H1151 H 0.25511 0.6591 0.43879 0.0
H1152 H 0.28267 0.78914 0.5586 0.0
H1153 H 0.29624 0.75941 0.57245 0.0
H1154 H 0.28241 0.81297 0.52119 0.0
H1155 H 0.26653 0.80362 0.48379 0.0
C1156 C 0.60753 0.05353 0.67535 0.0
C1157 C 0.61458 0.02331 0.67342 0.0
C1158 C 0.60801 0.0183 0.61915 0.0
C1159 C 0.59174 0.04133 0.62221 0.0
N1160 N 0.57645 0.08171 0.65431 0.0
N1161 N 0.63099 0.98323 0.64417 0.0
C1162 C 0.59076 0.05845 0.65072 0.0
C1163 C 0.61846 0.00819 0.64531 0.0
N1164 N 0.62439 0.08175 0.69559 0.0
N1165 N 0.61295 1.00587 0.59153 0.0
H1166 H 0.63997 0.97744 0.66373 0.0
H1167 H 0.63239 0.96838 0.62455 0.0
H1168 H 0.60498 0.01234 0.57212 0.0
H1169 H 0.62619 0.99079 0.58781 0.0
H1170 H 0.62153 0.10548 0.69643 0.0
H1171 H 0.64497 0.08322 0.70662 0.0
H1172 H 0.57451 0.09304 0.67557 0.0
H1173 H 0.56548 0.08832 0.63652 0.0
C1174 C 0.33471 0.31582 0.94038 0.0
C1175 C 0.33292 0.34663 0.95595 0.0
C1176 C 0.32829 0.36606 0.90657 0.0
C1177 C 0.33425 0.33742 0.89167 0.0
N1178 N 0.34724 0.2871 0.89621 0.0
N1179 N 0.33256 0.40385 0.95326 0.0
C1180 C 0.3388 0.31306 0.90917 0.0
C1181 C 0.33062 0.37236 0.93882 0.0
N1182 N 0.33082 0.28816 0.95505 0.0
N1183 N 0.32059 0.38765 0.88999 0.0
H1184 H 0.33504 0.41016 0.97649 0.0
H1185 H 0.33451 0.42492 0.94234 0.0
H1186 H 0.3209 0.38575 0.86684 0.0
H1187 H 0.31201 0.40604 0.89893 0.0
H1188 H 0.32844 0.26371 0.94431 0.0
H1189 H 0.32632 0.28846 0.9773 0.0
H1190 H 0.35423 0.27104 0.90842 0.0
H1191 H 0.34998 0.28344 0.87364 0.0
C1192 C 0.02172 0.06501 0.31586 0.0
C1193 C 1.00669 0.03769 0.29175 0.0
C1194 C 1.00975 0.99505 0.32328 0.0
C1195 C 0.02431 0.02235 0.3474 0.0
N1196 N 0.05009 0.08324 0.3656 0.0
N1197 N 0.99315 0.97752 0.27009 0.0
C1198 C 0.03207 0.05736 0.34337 0.0
C1199 C 1.00327 1.00302 0.29452 0.0
N1200 N 0.02587 0.09835 0.31242 0.0
N1201 N 1.00038 0.9615 0.32833 0.0
H1202 H 0.98623 0.98129 0.2489 0.0
H1203 H 0.99364 0.95285 0.27025 0.0
H1204 H 1.00456 0.95465 0.34915 0.0
H1205 H 0.98632 0.94054 0.31269 0.0
H1206 H 0.0321 0.11877 0.33015 0.0
H1207 H 0.02226 0.1056 0.29164 0.0
H1208 H 0.05906 0.10919 0.36314 0.0
H1209 H 0.05825 0.07863 0.38606 0.0
C1210 C 0.31219 0.72733 0.67552 0.0
C1211 C 0.33488 0.74338 0.65708 0.0
C1212 C 0.3555 0.79464 0.69562 0.0
C1213 C 0.33405 0.77787 0.71435 0.0
N1214 N 0.28398 0.73602 0.71625 0.0
N1215 N 0.36337 0.79952 0.64416 0.0
C1216 C 0.31008 0.74633 0.70274 0.0
C1217 C 0.35228 0.7793 0.66531 0.0
N1218 N 0.29149 0.69465 0.66672 0.0
N1219 N 0.37922 0.82475 0.70661 0.0
H1220 H 0.35676 0.79089 0.62128 0.0
H1221 H 0.37448 0.82625 0.64935 0.0
H1222 H 0.38289 0.83649 0.72894 0.0
H1223 H 0.39673 0.83616 0.69407 0.0
H1224 H 0.27934 0.67961 0.68168 0.0
H1225 H 0.28525 0.68363 0.64436 0.0
H1226 H 0.26447 0.71483 0.70716 0.0
H1227 H 0.28036 0.75104 0.73465 0.0
C1228 C 0.59586 0.04408 0.81779 0.0
C1229 C 0.61198 0.0716 0.80299 0.0
C1230 C 0.61256 0.11362 0.84527 0.0
C1231 C 0.60247 0.08616 0.86206 0.0
N1232 N 0.58531 0.02524 0.86555 0.0
N1233 N 0.63652 0.13286 0.80195 0.0
C1234 C 0.59375 0.05123 0.84861 0.0
C1235 C 0.61998 0.10657 0.81615 0.0
N1236 N 0.5829 0.01123 0.80225 0.0
N1237 N 0.6154 0.14633 0.85746 0.0
H1238 H 0.6425 0.12899 0.78047 0.0
H1239 H 0.64615 0.15857 0.81221 0.0
H1240 H 0.61025 0.15224 0.87901 0.0
H1241 H 0.62009 0.16686 0.84536 0.0
H1242 H 0.56875 0.99046 0.81128 0.0
H1243 H 0.58388 1.00558 0.77931 0.0
H1244 H 0.58221 0.99969 0.85746 0.0
H1245 H 0.58336 0.02954 0.88837 0.0
C1246 C 0.29826 0.31872 0.15242 0.0
C1247 C 0.31955 0.34936 0.14486 0.0
C1248 C 0.33703 0.37039 0.19897 0.0
C1249 C 0.31417 0.34085 0.20696 0.0
N1250 N 0.2679 0.29137 0.18992 0.0
N1251 N 0.35306 0.40826 0.16178 0.0
C1252 C 0.29328 0.31634 0.18321 0.0
C1253 C 0.33679 0.37642 0.16846 0.0
N1254 N 0.28341 0.29132 0.13031 0.0
N1255 N 0.36076 0.39142 0.2197 0.0
H1256 H 0.35348 0.41366 0.13986 0.0
H1257 H 0.3634 0.43001 0.17813 0.0
H1258 H 0.3639 0.38696 0.24154 0.0
H1259 H 0.37947 0.41106 0.21424 0.0
H1260 H 0.27047 0.26684 0.13463 0.0
H1261 H 0.28594 0.29248 0.1077 0.0
H1262 H 0.25068 0.2745 0.17367 0.0
H1263 H 0.26226 0.29019 0.21173 0.0
C1264 C 0.24988 0.01512 0.03242 0.0
C1265 C 0.28185 0.03145 0.03991 0.0
C1266 C 0.276 0.08011 0.07076 0.0
C1267 C 0.24412 0.0645 0.06233 0.0
N1268 N 0.19992 0.01363 0.04328 0.0
N1269 N 0.32473 0.07269 0.07319 0.0
C1270 C 0.23076 0.03069 0.04585 0.0
C1271 C 0.29476 0.06184 0.06139 0.0
N1272 N 0.23798 0.98595 0.01138 0.0
N1273 N 0.28838 0.11289 0.08648 0.0
H1274 H 0.33899 0.05939 0.06708 0.0
H1275 H 0.33464 0.0928 0.09105 0.0
H1276 H 0.27517 0.1267 0.09455 0.0
H1277 H 0.31173 0.12717 0.09008 0.0
H1278 H 0.21506 0.97517 0.00251 0.0
H1279 H 0.25139 0.97361 1.00125 0.0
H1280 H 0.18925 0.98758 0.03427 0.0
H1281 H 0.18538 0.02469 0.05291 0.0
C1282 C 0.70792 0.62809 0.03348 0.0
C1283 C 0.71372 0.66273 0.02852 0.0
C1284 C 0.66299 0.65751 0.04246 0.0
C1285 C 0.6558 0.62166 0.04278 0.0
N1286 N 0.66992 0.57154 0.03474 0.0
N1287 N 0.69468 0.70885 0.02432 0.0
C1288 C 0.67782 0.60656 0.03712 0.0
C1289 C 0.69079 0.6772 0.03224 0.0
N1290 N 0.7314 0.61624 0.0365 0.0
N1291 N 0.64318 0.67274 0.05184 0.0
H1292 H 0.71399 0.72348 0.01542 0.0
H1293 H 0.67752 0.71914 0.02371 0.0
H1294 H 0.62248 0.65895 0.05905 0.0
H1295 H 0.64848 0.69938 0.05513 0.0
H1296 H 0.72874 0.59226 0.04269 0.0
H1297 H 0.75418 0.63177 0.03646 0.0
H1298 H 0.68391 0.55867 0.02692 0.0
H1299 H 0.6485 0.55512 0.03861 0.0
C1300 C 0.7788 0.5464 0.33523 0.0
C1301 C 0.76067 0.53066 0.35698 0.0
C1302 C 0.77798 0.48199 0.35057 0.0
C1303 C 0.79809 0.49916 0.3308 0.0
N1304 N 0.81954 0.54758 0.30493 0.0
N1305 N 0.74319 0.48506 0.3868 0.0
C1306 C 0.79885 0.53122 0.32305 0.0
C1307 C 0.76021 0.4988 0.365 0.0
N1308 N 0.77692 0.57588 0.32648 0.0
N1309 N 0.77557 0.44937 0.35504 0.0
H1310 H 0.72826 0.49546 0.39648 0.0
H1311 H 0.74476 0.46431 0.39646 0.0
H1312 H 0.78888 0.43652 0.3455 0.0
H1313 H 0.75903 0.43385 0.36651 0.0
H1314 H 0.7871 0.58679 0.30864 0.0
H1315 H 0.76372 0.58884 0.33607 0.0
H1316 H 0.82373 0.57268 0.30086 0.0
H1317 H 0.834 0.53664 0.29501 0.0
C1318 C 0.92876 0.51931 0.52897 0.0
C1319 C 0.91643 0.52856 0.50351 0.0
C1320 C 0.96789 0.558 0.4918 0.0
C1321 C 0.97894 0.54266 0.51423 0.0
N1322 N 0.96703 0.49787 0.54543 0.0
N1323 N 0.9235 0.55461 0.45876 0.0
C1324 C 0.95844 0.51983 0.53008 0.0
C1325 C 0.93573 0.54741 0.48417 0.0
N1326 N 0.91175 0.50915 0.55164 0.0
N1327 N 0.98761 0.58313 0.47878 0.0
H1328 H 0.9 0.54793 0.45364 0.0
H1329 H 0.93655 0.56552 0.44239 0.0
H1330 H 1.01117 0.5916 0.48407 0.0
H1331 H 0.98039 0.59716 0.46439 0.0
H1332 H 0.92084 0.50388 0.57136 0.0
H1333 H 0.88991 0.51002 0.55185 0.0
H1334 H 0.9517 0.47927 0.55579 0.0
H1335 H 0.9883 0.49555 0.54449 0.0
C1336 C 0.37008 0.09997 0.31961 0.0
C1337 C 0.40096 0.11621 0.3147 0.0
C1338 C 0.38398 0.1359 0.27069 0.0
C1339 C 0.35485 0.12769 0.28048 0.0
N1340 N 0.32001 0.10334 0.31552 0.0
N1341 N 0.4378 0.15249 0.28651 0.0
C1342 C 0.34754 0.1094 0.3049 0.0
C1343 C 0.40817 0.13434 0.29004 0.0
N1344 N 0.36219 0.07529 0.33788 0.0
N1345 N 0.3886 0.14716 0.24375 0.0
H1346 H 0.45639 0.15428 0.30138 0.0
H1347 H 0.44387 0.16872 0.27044 0.0
H1348 H 0.37084 0.14892 0.22967 0.0
H1349 H 0.40887 0.15127 0.23431 0.0
H1350 H 0.33959 0.06094 0.34012 0.0
H1351 H 0.37786 0.06633 0.34807 0.0
H1352 H 0.3154 0.09451 0.33586 0.0
H1353 H 0.3024 0.10903 0.30492 0.0
C1354 C 0.36369 0.15732 0.54249 0.0
C1355 C 0.37392 0.19178 0.55793 0.0
C1356 C 0.42359 0.1885 0.57373 0.0
C1357 C 0.41251 0.15339 0.55988 0.0
N1358 N 0.37023 0.10212 0.53684 0.0
N1359 N 0.41136 0.23851 0.59233 0.0
C1360 C 0.38195 0.13708 0.54615 0.0
C1361 C 0.40328 0.20695 0.57475 0.0
N1362 N 0.3375 0.14453 0.52276 0.0
N1363 N 0.45363 0.20435 0.58521 0.0
H1364 H 0.39692 0.25253 0.59369 0.0
H1365 H 0.4312 0.24952 0.60742 0.0
H1366 H 0.46885 0.19129 0.58551 0.0
H1367 H 0.46397 0.23083 0.59265 0.0
H1368 H 0.33079 0.12098 0.5085 0.0
H1369 H 0.32392 0.15879 0.51826 0.0
H1370 H 0.34712 0.08828 0.52989 0.0
H1371 H 0.38303 0.08639 0.53855 0.0
C1372 C 0.79406 0.67513 0.36241 0.0
C1373 C 0.77202 0.67841 0.38079 0.0
C1374 C 0.76575 0.724 0.35531 0.0
C1375 C 0.78546 0.71811 0.33456 0.0
N1376 N 0.81577 0.68589 0.31604 0.0
N1377 N 0.7383 0.70636 0.39763 0.0
C1378 C 0.7991 0.6932 0.33765 0.0
C1379 C 0.75879 0.70358 0.37845 0.0
N1380 N 0.80977 0.65434 0.36869 0.0
N1381 N 0.75392 0.74921 0.35314 0.0
H1382 H 0.73456 0.69301 0.41591 0.0
H1383 H 0.7246 0.72095 0.39535 0.0
H1384 H 0.75429 0.76105 0.33428 0.0
H1385 H 0.74368 0.75863 0.36998 0.0
H1386 H 0.82794 0.65263 0.35766 0.0
H1387 H 0.80624 0.64099 0.38695 0.0
H1388 H 0.82417 0.66594 0.31547 0.0
H1389 H 0.8189 0.69792 0.297 0.0
C1390 C 0.92485 0.47583 0.83534 0.0
C1391 C 0.91064 0.50058 0.83618 0.0
C1392 C 0.86102 0.45442 0.819 0.0
C1393 C 0.87468 0.42973 0.82269 0.0
N1394 N 0.91842 0.41679 0.83997 0.0
N1395 N 0.86471 0.51378 0.83176 0.0
C1396 C 0.90635 0.44035 0.8322 0.0
C1397 C 0.87855 0.49001 0.82867 0.0
N1398 N 0.95592 0.48617 0.83766 0.0
N1399 N 0.83153 0.4439 0.80591 0.0
H1400 H 0.87681 0.54015 0.83848 0.0
H1401 H 0.84113 0.50713 0.82971 0.0
H1402 H 0.81798 0.41793 0.79892 0.0
H1403 H 0.82137 0.46094 0.79972 0.0
H1404 H 0.96732 0.46892 0.83478 0.0
H1405 H 0.97013 0.51199 0.83924 0.0
H1406 H 0.94076 0.42361 0.84997 0.0
H1407 H 0.9051 0.39083 0.83941 0.0
C1408 C 0.08907 0.94687 0.11049 0.0
C1409 C 0.10508 0.9294 0.09341 0.0
C1410 C 0.10873 0.97007 0.05685 0.0
C1411 C 0.08968 0.98465 0.07242 0.0
N1412 N 0.05459 0.97823 0.10917 0.0
N1413 N 0.12695 0.92203 0.04797 0.0
C1414 C 0.07801 0.97071 0.09797 0.0
C1415 C 0.11405 0.9404 0.06584 0.0
N1416 N 0.08427 0.94059 0.13899 0.0
N1417 N 0.12183 0.98477 0.03354 0.0
H1418 H 0.13188 0.9013 0.05459 0.0
H1419 H 0.13119 0.92601 0.0262 0.0
H1420 H 0.11966 0.00729 0.02793 0.0
H1421 H 0.13644 0.97639 0.02131 0.0
H1422 H 0.07529 0.95482 0.1535 0.0
H1423 H 0.09223 0.92371 0.14912 0.0
H1424 H 0.0432 0.9665 0.12616 0.0
H1425 H 0.0441 0.99285 0.09882 0.0
C1426 C 0.91199 0.28704 0.90803 0.0
C1427 C 0.94064 0.29121 0.89751 0.0
C1428 C 0.92354 0.31151 0.85343 0.0
C1429 C 0.89325 0.30252 0.86132 0.0
N1430 N 0.85787 0.27039 0.89313 0.0
N1431 N 0.96626 0.29285 0.85282 0.0
C1432 C 0.88713 0.28694 0.88778 0.0
C1433 C 0.94411 0.29886 0.86793 0.0
N1434 N 0.90846 0.2846 0.93736 0.0
N1435 N 0.93379 0.33347 0.83327 0.0
H1436 H 0.97953 0.27964 0.86087 0.0
H1437 H 0.96816 0.29643 0.83052 0.0
H1438 H 0.92135 0.34684 0.82415 0.0
H1439 H 0.95649 0.34203 0.82894 0.0
H1440 H 0.88861 0.28424 0.94637 0.0
H1441 H 0.92647 0.28718 0.9532 0.0
H1442 H 0.85261 0.25654 0.91094 0.0
H1443 H 0.83906 0.26653 0.8778 0.0
C1444 C 0.59049 0.22913 0.56042 0.0
C1445 C 0.60891 0.24794 0.58756 0.0
C1446 C 0.62003 0.19564 0.59545 0.0
C1447 C 0.59769 0.17574 0.57101 0.0
N1448 N 0.55885 0.17328 0.53212 0.0
N1449 N 0.63874 0.24716 0.63308 0.0
C1450 C 0.58225 0.19247 0.55394 0.0
C1451 C 0.62352 0.23088 0.60542 0.0
N1452 N 0.58105 0.24659 0.54062 0.0
N1453 N 0.63748 0.18071 0.60971 0.0
H1454 H 0.64211 0.27264 0.64155 0.0
H1455 H 0.64622 0.2346 0.64869 0.0
H1456 H 0.63442 0.15465 0.6043 0.0
H1457 H 0.65645 0.19471 0.62534 0.0
H1458 H 0.57001 0.23513 0.51915 0.0
H1459 H 0.58723 0.27343 0.54461 0.0
H1460 H 0.54451 0.18343 0.52126 0.0
H1461 H 0.55222 0.14657 0.52634 0.0
C1462 C 0.62708 0.81829 0.41388 0.0
C1463 C 0.59755 0.80669 0.39753 0.0
C1464 C 0.61926 0.81453 0.35047 0.0
C1465 C 0.64873 0.82432 0.36648 0.0
N1466 N 0.68185 0.8453 0.41306 0.0
N1467 N 0.56607 0.80603 0.35294 0.0
C1468 C 0.65302 0.82965 0.39821 0.0
C1469 C 0.59383 0.80882 0.36663 0.0
N1470 N 0.63027 0.81663 0.44384 0.0
N1471 N 0.61537 0.80879 0.3198 0.0
H1472 H 0.54707 0.80273 0.36445 0.0
H1473 H 0.56268 0.81063 0.3311 0.0
H1474 H 0.63348 0.81364 0.30695 0.0
H1475 H 0.59407 0.7972 0.30704 0.0
H1476 H 0.65111 0.82134 0.45636 0.0
H1477 H 0.61172 0.80862 0.456 0.0
H1478 H 0.68653 0.8527 0.43621 0.0
H1479 H 0.70104 0.85371 0.40175 0.0
C1480 C 0.03327 0.175 0.4562 0.0
C1481 C 0.05593 0.20949 0.46344 0.0
C1482 C 0.0815 0.1848 0.50152 0.0
C1483 C 0.05753 0.15111 0.49594 0.0
N1484 N 1.00863 0.11668 0.46866 0.0
N1485 N 0.10041 0.24651 0.49648 0.0
C1486 C 0.03307 0.14714 0.47329 0.0
C1487 C 0.07974 0.21387 0.48698 0.0
N1488 N 1.01207 0.16827 0.43184 0.0
N1489 N 0.10693 0.18897 0.52029 0.0
H1490 H 0.10038 0.2675 0.48617 0.0
H1491 H 0.11617 0.25327 0.51561 0.0
H1492 H 0.10896 0.16925 0.53132 0.0
H1493 H 0.12686 0.21076 0.52313 0.0
H1494 H 0.99693 0.14361 0.42267 0.0
H1495 H 1.01145 0.18714 0.41897 0.0
H1496 H 0.98824 0.11262 0.45561 0.0
H1497 H 1.0079 0.09605 0.47984 0.0
C1498 C 0.68084 0.29729 0.24079 0.0
C1499 C 0.67501 0.32909 0.24448 0.0
C1500 C 0.72938 0.35643 0.27128 0.0
C1501 C 0.73575 0.32496 0.26597 0.0
N1502 N 0.71695 0.26714 0.23844 0.0
N1503 N 0.69758 0.39035 0.26012 0.0
C1504 C 0.71112 0.296 0.24883 0.0
C1505 C 0.70063 0.35898 0.25859 0.0
N1506 N 0.65696 0.26738 0.22959 0.0
N1507 N 0.75 0.38379 0.29039 0.0
H1508 H 0.67733 0.39286 0.25192 0.0
H1509 H 0.71565 0.4138 0.26684 0.0
H1510 H 0.77004 0.38291 0.30091 0.0
H1511 H 0.74595 0.40606 0.29816 0.0
H1512 H 0.65765 0.24289 0.23051 0.0
H1513 H 0.63578 0.26701 0.22074 0.0
H1514 H 0.70169 0.2465 0.22328 0.0
H1515 H 0.73836 0.26535 0.24229 0.0
C1516 C 0.56716 0.93406 0.95361 0.0
C1517 C 0.56804 0.9062 0.96884 0.0
C1518 C 0.57303 0.94607 0.0174 0.0
C1519 C 0.57083 0.97368 1.0022 0.0
N1520 N 0.56079 0.98983 0.95435 0.0
N1521 N 0.57754 0.88911 0.016 0.0
C1522 C 0.56712 0.96659 0.96989 0.0
C1523 C 0.5723 0.91335 1.00096 0.0
N1524 N 0.56643 0.92956 0.92314 0.0
N1525 N 0.57535 0.95067 0.04801 0.0
H1526 H 0.57803 0.86593 0.00501 0.0
H1527 H 0.58408 0.89273 0.03894 0.0
H1528 H 0.57916 0.97424 0.06124 0.0
H1529 H 0.57234 0.93089 0.06072 0.0
H1530 H 0.56974 0.9494 0.91042 0.0
H1531 H 0.56491 0.90631 0.91057 0.0
H1532 H 0.55442 0.98544 0.93131 0.0
H1533 H 0.55895 0.01252 0.96471 0.0
C1534 C 0.95516 0.84426 0.72798 0.0
C1535 C 0.97273 0.8238 0.73592 0.0
C1536 C 0.93276 0.80226 0.7722 0.0
C1537 C 0.91406 0.821 0.76276 0.0
N1538 N 0.90676 0.85409 0.72514 0.0
N1539 N 0.97314 0.77864 0.76386 0.0
C1540 C 0.92547 0.84052 0.739 0.0
C1541 C 0.95992 0.80173 0.75767 0.0
N1542 N 0.96733 0.86874 0.7104 0.0
N1543 N 0.92539 0.78568 0.79631 0.0
H1544 H 0.9921 0.77713 0.75408 0.0
H1545 H 0.96377 0.75892 0.77626 0.0
H1546 H 0.90654 0.78534 0.80719 0.0
H1547 H 0.93921 0.7749 0.80714 0.0
H1548 H 0.9585 0.88768 0.70661 0.0
H1549 H 0.98786 0.87186 0.70165 0.0
H1550 H 0.91128 0.86563 0.706 0.0
H1551 H 0.88488 0.84982 0.73078 0.0
C1552 C 0.15665 0.06644 0.96413 0.0
C1553 C 0.16439 0.09707 0.95147 0.0
C1554 C 0.11988 0.10701 0.96884 0.0
C1555 C 0.10961 0.07307 0.97614 0.0
N1556 N 0.11452 0.01753 0.97354 0.0
N1557 N 0.15785 0.1505 0.94658 0.0
C1558 C 0.12691 0.05185 0.97157 0.0
C1559 C 0.14752 0.11897 0.95587 0.0
N1560 N 0.17773 0.0517 0.96954 0.0
N1561 N 0.10287 0.12716 0.97385 0.0
H1562 H 0.17904 0.15975 0.93859 0.0
H1563 H 0.14596 0.16728 0.94676 0.0
H1564 H 0.081 0.11713 0.97995 0.0
H1565 H 0.10991 0.15317 0.97164 0.0
H1566 H 0.17325 0.0302 0.98048 0.0
H1567 H 0.20067 0.06398 0.96704 0.0
H1568 H 0.12559 1.00039 0.96793 0.0
H1569 H 0.09206 0.00595 0.97803 0.0
C1570 C 0.84041 0.37186 0.58034 0.0
C1571 C 0.85151 0.4074 0.57805 0.0
C1572 C 0.87842 0.42181 0.62876 0.0
C1573 C 0.86665 0.38628 0.63151 0.0
N1574 N 0.82959 0.32893 0.61344 0.0
N1575 N 0.87248 0.46655 0.60247 0.0
C1576 C 0.8455 0.36165 0.60835 0.0
C1577 C 0.86777 0.43254 0.60312 0.0
N1578 N 0.82581 0.34789 0.5556 0.0
N1579 N 0.90055 0.445 0.64993 0.0
H1580 H 0.86323 0.47455 0.58442 0.0
H1581 H 0.88227 0.48593 0.62092 0.0
H1582 H 0.90931 0.43792 0.66885 0.0
H1583 H 0.91209 0.47061 0.64739 0.0
H1584 H 0.82051 0.32143 0.55504 0.0
H1585 H 0.82052 0.35474 0.53507 0.0
H1586 H 0.81185 0.31102 0.59829 0.0
H1587 H 0.83199 0.32066 0.63398 0.0
C1588 C 0.5037 0.0782 0.44566 0.0
C1589 C 0.51769 0.10677 0.43128 0.0
C1590 C 0.56377 0.12358 0.46663 0.0
C1591 C 0.55175 0.09082 0.47617 0.0
N1592 N 0.51196 0.03418 0.47057 0.0
N1593 N 0.56028 0.15831 0.42833 0.0
C1594 C 0.52198 0.06751 0.46499 0.0
C1595 C 0.54739 0.13039 0.44227 0.0
N1596 N 0.47304 0.06103 0.44059 0.0
N1597 N 0.59045 0.14809 0.4809 0.0
H1598 H 0.54786 0.16473 0.41153 0.0
H1599 H 0.58326 0.17414 0.43256 0.0
H1600 H 0.60285 0.14425 0.49919 0.0
H1601 H 0.59875 0.17342 0.47658 0.0
H1602 H 0.46136 0.04209 0.45293 0.0
H1603 H 0.45931 0.06907 0.4268 0.0
H1604 H 0.49149 0.01537 0.46006 0.0
H1605 H 0.52526 0.02437 0.48332 0.0
C1606 C 0.80192 0.75482 0.14902 0.0
C1607 C 0.82412 0.78221 0.13763 0.0
C1608 C 0.84474 0.80977 0.19 0.0
C1609 C 0.82069 0.78464 0.20131 0.0
N1610 N 0.77298 0.73632 0.19038 0.0
N1611 N 0.86001 0.84106 0.14866 0.0
C1612 C 0.79807 0.75834 0.18038 0.0
C1613 C 0.84353 0.81122 0.15857 0.0
N1614 N 0.78578 0.72438 0.13061 0.0
N1615 N 0.8694 0.83196 0.20901 0.0
H1616 H 0.85822 0.84417 0.12618 0.0
H1617 H 0.87229 0.86398 0.16312 0.0
H1618 H 0.87224 0.83058 0.23169 0.0
H1619 H 0.88873 0.84871 0.20157 0.0
H1620 H 0.77175 0.70251 0.13838 0.0
H1621 H 0.78866 0.71954 0.10815 0.0
H1622 H 0.75407 0.71921 0.17602 0.0
H1623 H 0.77012 0.737 0.21307 0.0
C1624 C 0.13785 0.12431 0.79349 0.0
C1625 C 0.13829 0.09063 0.79414 0.0
C1626 C 0.11676 0.07291 0.74133 0.0
C1627 C 0.11435 0.10584 0.74135 0.0
N1628 N 0.11921 0.1617 0.76733 0.0
N1629 N 0.12741 0.0322 0.77027 0.0
C1630 C 0.12398 0.13125 0.76742 0.0
C1631 C 0.12767 0.06473 0.76843 0.0
N1632 N 0.1518 0.14993 0.81741 0.0
N1633 N 0.10916 0.04987 0.71522 0.0
H1634 H 0.1358 0.0256 0.78964 0.0
H1635 H 0.11761 0.01109 0.75332 0.0
H1636 H 0.10047 0.0547 0.6951 0.0
H1637 H 0.11274 0.02659 0.71275 0.0
H1638 H 0.15509 0.17585 0.81728 0.0
H1639 H 0.16253 0.14588 0.83681 0.0
H1640 H 0.12276 0.1799 0.7864 0.0
H1641 H 0.10942 0.16779 0.74845 0.0
C1642 C 0.78686 0.38498 0.41041 0.0
C1643 C 0.81616 0.40466 0.42569 0.0
C1644 C 0.84058 0.38241 0.38701 0.0
C1645 C 0.81134 0.36116 0.37228 0.0
N1646 N 0.75742 0.34997 0.364 0.0
N1647 N 0.86962 0.43359 0.42242 0.0
C1648 C 0.78463 0.36517 0.38196 0.0
C1649 C 0.84258 0.40742 0.41166 0.0
N1650 N 0.7615 0.38379 0.42373 0.0
N1651 N 0.86616 0.37679 0.37942 0.0
H1652 H 0.87117 0.45292 0.44001 0.0
H1653 H 0.88921 0.43826 0.4117 0.0
H1654 H 0.86573 0.35786 0.36203 0.0
H1655 H 0.88751 0.38907 0.39202 0.0
H1656 H 0.73955 0.36689 0.41513 0.0
H1657 H 0.76274 0.399 0.44419 0.0
H1658 H 0.73764 0.35427 0.3687 0.0
H1659 H 0.75549 0.33564 0.34291 0.0
C1660 C 0.52021 0.08383 0.28658 0.0
C1661 C 0.52002 0.05566 0.30137 0.0
C1662 C 0.49979 0.01533 0.25456 0.0
C1663 C 0.5029 0.04386 0.23943 0.0
N1664 N 0.505 0.10207 0.24093 0.0
N1665 N 0.49954 0.99435 0.30222 0.0
C1666 C 0.50896 0.07704 0.25565 0.0
C1667 C 0.50633 0.02122 0.28623 0.0
N1668 N 0.53316 0.11704 0.30134 0.0
N1669 N 0.49273 0.98313 0.23848 0.0
H1670 H 0.50371 0.99815 0.32558 0.0
H1671 H 0.48718 0.96876 0.29276 0.0
H1672 H 0.48652 0.97777 0.21534 0.0
H1673 H 0.49411 0.96211 0.24785 0.0
H1674 H 0.53675 0.1387 0.29084 0.0
H1675 H 0.54208 0.1232 0.3239 0.0
H1676 H 0.50674 0.12629 0.25165 0.0
H1677 H 0.49699 0.09703 0.21809 0.0
C1678 C 0.81591 0.81181 0.93805 0.0
C1679 C 0.83091 0.79064 0.94891 0.0
C1680 C 0.85036 0.78545 0.8994 0.0
C1681 C 0.83377 0.80477 0.8879 0.0
N1682 N 0.79781 0.83315 0.89577 0.0
N1683 N 0.85836 0.75252 0.93793 0.0
C1684 C 0.81572 0.81697 0.90716 0.0
C1685 C 0.84713 0.7763 0.929 0.0
N1686 N 0.80295 0.82842 0.95765 0.0
N1687 N 0.86982 0.77637 0.88218 0.0
H1688 H 0.85596 0.74459 0.95888 0.0
H1689 H 0.86752 0.73822 0.92375 0.0
H1690 H 0.8723 0.78206 0.86047 0.0
H1691 H 0.88525 0.76573 0.89007 0.0
H1692 H 0.79482 0.84746 0.95243 0.0
H1693 H 0.80231 0.82504 0.98007 0.0
H1694 H 0.78093 0.8384 0.9068 0.0
H1695 H 0.79874 0.83967 0.87437 0.0
C1696 C 0.86466 0.08687 0.08387 0.0
C1697 C 0.85352 0.10655 0.06596 0.0
C1698 C 0.8804 0.09195 0.025 0.0
C1699 C 0.88787 0.0688 0.0415 0.0
N1700 N 0.88288 0.03959 0.08473 0.0
N1701 N 0.84385 0.11881 0.01572 0.0
C1702 C 0.87842 0.06459 0.07025 0.0
C1703 C 0.85956 0.10689 0.03549 0.0
N1704 N 0.86374 0.09084 0.11417 0.0
N1705 N 0.89316 0.09978 0.99937 0.0
H1706 H 0.82552 0.126 0.02072 0.0
H1707 H 0.84619 0.11703 0.99292 0.0
H1708 H 0.90752 0.08814 0.99022 0.0
H1709 H 0.89129 0.11977 0.98863 0.0
H1710 H 0.87401 0.07932 0.12855 0.0
H1711 H 0.85601 0.10886 0.12544 0.0
H1712 H 0.87346 0.033 0.10428 0.0
H1713 H 0.89375 0.0234 0.07591 0.0
C1714 C 0.42125 0.49448 0.06135 0.0
C1715 C 0.41455 0.46012 0.04673 0.0
C1716 C 0.46694 0.47591 0.03484 0.0
C1717 C 0.47289 0.51112 0.04644 0.0
N1718 N 0.45459 0.55489 0.06744 0.0
N1719 N 0.42911 0.41988 0.01435 0.0
C1720 C 0.44972 0.52072 0.05885 0.0
C1721 C 0.43683 0.45137 0.03193 0.0
N1722 N 0.40095 0.50174 0.07858 0.0
N1723 N 0.49038 0.46535 0.02823 0.0
H1724 H 0.40718 0.40122 0.01148 0.0
H1725 H 0.44363 0.41362 1.00034 0.0
H1726 H 0.513 0.48212 0.0315 0.0
H1727 H 0.48779 0.43947 0.02279 0.0
H1728 H 0.40585 0.52534 0.09231 0.0
H1729 H 0.38006 0.48316 0.08117 0.0
H1730 H 0.43755 0.5638 0.0738 0.0
H1731 H 0.47515 0.57463 0.06586 0.0
C1732 C 0.387 0.62174 0.77184 0.0
C1733 C 0.37455 0.58527 0.76484 0.0
C1734 C 0.3232 0.58411 0.77058 0.0
C1735 C 0.33585 0.62053 0.77882 0.0
N1736 N 0.37919 0.67428 0.79072 0.0
N1737 N 0.33186 0.53133 0.75314 0.0
C1738 C 0.36758 0.63953 0.78014 0.0
C1739 C 0.34287 0.56623 0.76295 0.0
N1740 N 0.41731 0.63922 0.77013 0.0
N1741 N 0.29265 0.56688 0.77106 0.0
H1742 H 0.34597 0.51781 0.74706 0.0
H1743 H 0.30884 0.51582 0.74928 0.0
H1744 H 0.27764 0.57949 0.77619 0.0
H1745 H 0.28206 0.54013 0.76769 0.0
H1746 H 0.42722 0.66595 0.77169 0.0
H1747 H 0.43255 0.62694 0.765 0.0
H1748 H 0.40238 0.68876 0.79598 0.0
H1749 H 0.36561 0.68859 0.79633 0.0
C1750 C 0.20349 0.6361 0.60454 0.0
C1751 C 0.2151 0.61077 0.59271 0.0
C1752 C 0.16462 0.5662 0.58465 0.0
C1753 C 0.15273 0.59205 0.59363 0.0
N1754 N 0.15938 0.64782 0.62028 0.0
N1755 N 0.20943 0.55102 0.58045 0.0
C1756 C 0.17186 0.62572 0.60686 0.0
C1757 C 0.19649 0.57542 0.58587 0.0
N1758 N 0.22208 0.67018 0.61111 0.0
N1759 N 0.14512 0.53346 0.57327 0.0
H1760 H 0.23301 0.55739 0.58153 0.0
H1761 H 0.19722 0.52451 0.57741 0.0
H1762 H 0.12171 0.52608 0.574 0.0
H1763 H 0.15183 0.51429 0.56255 0.0
H1764 H 0.21441 0.6902 0.61739 0.0
H1765 H 0.24519 0.67901 0.60847 0.0
H1766 H 0.17212 0.67215 0.63233 0.0
H1767 H 0.13598 0.64031 0.62147 0.0
C1768 C 0.72104 0.968 0.76034 0.0
C1769 C 0.72799 1.00224 0.75487 0.0
C1770 C 0.78257 0.01529 0.76644 0.0
C1771 C 0.77557 0.98204 0.77481 0.0
N1772 N 0.73935 0.92546 0.77829 0.0
N1773 N 0.76387 0.05516 0.74407 0.0
C1774 C 0.7451 0.95772 0.77088 0.0
C1775 C 0.75842 0.02474 0.7549 0.0
N1776 N 0.69131 0.94574 0.75528 0.0
N1777 N 0.81205 0.03835 0.77122 0.0
H1778 H 0.7462 0.06175 0.73483 0.0
H1779 H 0.78544 0.07222 0.74158 0.0
H1780 H 0.83036 0.03222 0.7796 0.0
H1781 H 0.81843 0.06419 0.76854 0.0
H1782 H 0.684 0.91976 0.75762 0.0
H1783 H 0.6738 0.95315 0.74671 0.0
H1784 H 0.71766 0.90736 0.77864 0.0
H1785 H 0.75666 0.91672 0.78472 0.0
C1786 C 0.75619 0.94727 0.51558 0.0
C1787 C 0.7634 0.94195 0.5451 0.0
C1788 C 0.73041 0.97108 0.56467 0.0
C1789 C 0.72356 0.97702 0.53525 0.0
N1790 N 0.72388 0.96486 0.48195 0.0
N1791 N 0.75243 0.94063 0.59611 0.0
C1792 C 0.73444 0.96303 0.51038 0.0
C1793 C 0.74877 0.95115 0.56912 0.0
N1794 N 0.77116 0.93868 0.49292 0.0
N1795 N 0.72064 0.98598 0.58851 0.0
H1796 H 0.76592 0.92604 0.59996 0.0
H1797 H 0.74009 0.94358 0.61375 0.0
H1798 H 0.70641 1.00002 0.5862 0.0
H1799 H 0.72806 0.98628 0.61078 0.0
H1800 H 0.76966 0.94549 0.47167 0.0
H1801 H 0.78645 0.92601 0.49584 0.0
H1802 H 0.72875 0.95251 0.46268 0.0
H1803 H 0.7081 0.97657 0.47767 0.0
C1804 C 0.3585 0.42716 0.7166 0.0
C1805 C 0.39033 0.44217 0.7177 0.0
C1806 C 0.39838 0.40937 0.75508 0.0
C1807 C 0.36668 0.39749 0.75816 0.0
N1808 N 0.31524 0.38607 0.73424 0.0
N1809 N 0.4371 0.43183 0.7237 0.0
C1810 C 0.34604 0.40339 0.73651 0.0
C1811 C 0.40836 0.42597 0.73063 0.0
N1812 N 0.34096 0.43853 0.69851 0.0
N1813 N 0.41919 0.40579 0.77573 0.0
H1814 H 0.44571 0.44565 0.70653 0.0
H1815 H 0.44571 0.44565 0.70653 0.0
H1816 H 0.41356 0.39725 0.79602 0.0
H1817 H 0.44241 0.414 0.77339 0.0
H1818 H 0.31749 0.43183 0.69836 0.0
H1819 H 0.35094 0.45592 0.68411 0.0
H1820 H 0.29999 0.38674 0.71676 0.0
H1821 H 0.3047 0.36943 0.74872 0.0
C1822 C 0.24504 0.6788 0.3034 0.0
C1823 C 0.23682 0.65311 0.27757 0.0
C1824 C 0.27379 0.69476 0.25191 0.0
C1825 C 0.28406 0.71761 0.27942 0.0
N1826 N 0.28751 0.72398 0.33315 0.0
N1827 N 0.24952 0.635 0.22852 0.0
C1828 C 0.27244 0.70701 0.30577 0.0
C1829 C 0.25285 0.66044 0.25194 0.0
N1830 N 0.22604 0.67773 0.32497 0.0
N1831 N 0.28362 0.70582 0.226 0.0
H1832 H 0.23644 0.60909 0.22825 0.0
H1833 H 0.26255 0.6391 0.21071 0.0
H1834 H 0.29987 0.73034 0.22579 0.0
H1835 H 0.27435 0.6914 0.20484 0.0
H1836 H 0.23098 0.69765 0.34306 0.0
H1837 H 0.20383 0.65978 0.32267 0.0
H1838 H 0.28029 0.71582 0.35315 0.0
H1839 H 0.30915 0.74299 0.33522 0.0
C1840 C 0.54661 0.71178 0.52474 0.0
C1841 C 0.52252 0.70496 0.50135 0.0
C1842 C 0.52115 0.64475 0.491 0.0
C1843 C 0.54201 0.64972 0.51734 0.0
N1844 N 0.57041 0.68944 0.5623 0.0
N1845 N 0.48332 0.6623 0.46539 0.0
C1846 C 0.55377 0.68373 0.53494 0.0
C1847 C 0.50861 0.67058 0.48575 0.0
N1848 N 0.56295 0.74524 0.53735 0.0
N1849 N 0.51486 0.61655 0.46938 0.0
H1850 H 0.47412 0.68039 0.45975 0.0
H1851 H 0.46998 0.63687 0.4561 0.0
H1852 H 0.5256 0.59871 0.46991 0.0
H1853 H 0.50217 0.61339 0.44871 0.0
H1854 H 0.58313 0.75253 0.55181 0.0
H1855 H 0.55765 0.766 0.53138 0.0
H1856 H 0.57646 0.71244 0.57722 0.0
H1857 H 0.57557 0.67051 0.57185 0.0
C1858 C 0.70459 0.32832 0.73523 0.0
C1859 C 0.71172 0.34865 0.71186 0.0
C1860 C 0.7666 0.36234 0.72714 0.0
C1861 C 0.75951 0.34014 0.74904 0.0
N1862 N 0.72123 0.29662 0.76995 0.0
N1863 N 0.74943 0.37721 0.68084 0.0
C1864 C 0.72831 0.32153 0.75189 0.0
C1865 C 0.74273 0.36332 0.70645 0.0
N1866 N 0.67547 0.31685 0.74259 0.0
N1867 N 0.79607 0.38389 0.72697 0.0
H1868 H 0.73263 0.377 0.66444 0.0
H1869 H 0.77127 0.3853 0.67428 0.0
H1870 H 0.81388 0.38487 0.7425 0.0
H1871 H 0.80226 0.40324 0.71358 0.0
H1872 H 0.66956 0.30539 0.76156 0.0
H1873 H 0.65756 0.32123 0.73112 0.0
H1874 H 0.69909 0.27953 0.77046 0.0
H1875 H 0.73776 0.29096 0.7825 0.0
C1876 C 0.01777 0.39784 0.03112 0.0
C1877 C 0.02011 0.38405 1.00154 0.0
C1878 C 0.04051 0.44372 0.98996 0.0
C1879 C 0.03526 0.45718 0.01857 0.0
N1880 N 1.01037 0.44417 0.06317 0.0
N1881 N 0.02444 0.3946 0.95033 0.0
C1882 C 0.02117 0.4334 0.03812 0.0
C1883 C 0.02912 0.4072 0.98028 0.0
N1884 N 1.01353 0.37745 0.05304 0.0
N1885 N 0.05563 0.4656 0.97137 0.0
H1886 H 1.01354 0.36852 0.94175 0.0
H1887 H 0.02764 0.41035 0.93375 0.0
H1888 H 0.06241 0.4924 0.97617 0.0
H1889 H 0.06323 0.45706 0.95195 0.0
H1890 H 0.01482 0.3871 0.07564 0.0
H1891 H 1.0121 0.35181 0.04914 0.0
H1892 H 0.99723 0.42707 0.0762 0.0
H1893 H 1.012 0.46955 0.06959 0.0
C1894 C 0.05817 0.83714 0.22528 0.0
C1895 C 0.05538 0.81634 0.19718 0.0
C1896 C 1.00032 0.78845 0.19867 0.0
C1897 C 1.00367 0.80742 0.22773 0.0
N1898 N 0.03627 0.84518 0.2711 0.0
N1899 N 0.02531 0.76857 0.15917 0.0
C1900 C 0.03278 0.83029 0.24178 0.0
C1901 C 0.02682 0.79091 0.18442 0.0
N1902 N 0.0845 0.86481 0.23548 0.0
N1903 N 0.97179 0.76883 0.18448 0.0
H1904 H 0.04457 0.7693 0.14885 0.0
H1905 H 1.00574 0.74751 0.15006 0.0
H1906 H 0.952 0.76614 0.19453 0.0
H1907 H 0.96753 0.75733 0.16209 0.0
H1908 H 0.08641 0.88336 0.25385 0.0
H1909 H 0.10378 0.87119 0.22422 0.0
H1910 H 0.05749 0.85876 0.28357 0.0
H1911 H 0.01813 0.84164 0.28383 0.0
C1912 C 0.57053 0.45564 0.14569 0.0
C1913 C 0.56434 0.42118 0.13051 0.0
C1914 C 0.55994 0.44629 0.0824 0.0
C1915 C 0.56857 0.48176 0.09728 0.0
N1916 N 0.59092 0.51797 0.14517 0.0
N1917 N 0.56157 0.38836 0.08239 0.0
C1918 C 0.57621 0.48553 0.1295 0.0
C1919 C 0.56155 0.41823 0.09838 0.0
N1920 N 0.57012 0.4602 0.17597 0.0
N1921 N 0.54853 0.43792 0.05279 0.0
H1922 H 0.56355 0.36807 0.09262 0.0
H1923 H 0.56339 0.38542 0.05949 0.0
H1924 H 0.54683 0.45557 0.0393 0.0
H1925 H 0.53784 0.41246 0.04207 0.0
H1926 H 0.57053 0.48315 0.18823 0.0
H1927 H 0.56669 0.44001 0.18839 0.0
H1928 H 0.59936 0.52253 0.16777 0.0
H1929 H 0.59855 0.53992 0.13493 0.0
C1930 C 0.94606 0.28951 0.37241 0.0
C1931 C 0.97325 0.30075 0.35744 0.0
C1932 C 0.93877 0.31441 0.31801 0.0
C1933 C 0.91255 0.30581 0.33436 0.0
N1934 N 0.8964 0.29229 0.38205 0.0
N1935 N 0.98783 0.31055 0.3082 0.0
C1936 C 0.91783 0.29518 0.36276 0.0
C1937 C 0.96747 0.31011 0.32835 0.0
N1938 N 0.9456 0.26988 0.39442 0.0
N1939 N 0.93661 0.32673 0.29169 0.0
H1940 H 1.00594 0.30227 0.31176 0.0
H1941 H 0.98438 0.31361 0.28593 0.0
H1942 H 0.91601 0.32463 0.28016 0.0
H1943 H 0.95555 0.34047 0.28184 0.0
H1944 H 0.92611 0.25784 0.40427 0.0
H1945 H 0.96292 0.26073 0.39928 0.0
H1946 H 0.89997 0.28908 0.4043 0.0
H1947 H 0.87654 0.29717 0.37703 0.0
C1948 C 0.04492 0.71647 0.59873 0.0
C1949 C 0.05018 0.7275 0.63064 0.0
C1950 C 0.06692 0.67642 0.63333 0.0
C1951 C 0.05768 0.66307 0.60199 0.0
N1952 N 0.03013 0.66873 0.55716 0.0
N1953 N 0.06092 0.71089 0.67829 0.0
C1954 C 0.04459 0.68278 0.58547 0.0
C1955 C 0.05988 0.70552 0.64782 0.0
N1956 N 0.0417 0.73888 0.58037 0.0
N1957 N 0.08358 0.6622 0.64954 0.0
H1958 H 0.05461 0.72991 0.68986 0.0
H1959 H 0.06466 0.69395 0.69181 0.0
H1960 H 0.08947 0.6417 0.64026 0.0
H1961 H 0.09416 0.67301 0.67129 0.0
H1962 H 0.04075 0.73383 0.55713 0.0
H1963 H 0.04398 0.7642 0.58837 0.0
H1964 H 0.01745 0.67996 0.54515 0.0
H1965 H 0.02758 0.64394 0.54711 0.0
C1966 C 0.69429 0.84299 0.84513 0.0
C1967 C 0.67238 0.8106 0.84996 0.0
C1968 C 0.71067 0.78416 0.83087 0.0
C1969 C 0.73308 0.8167 0.8262 0.0
N1970 N 0.74498 0.87852 0.83411 0.0
N1971 N 0.66388 0.75087 0.85098 0.0
C1972 C 0.72442 0.84633 0.83515 0.0
C1973 C 0.68195 0.78156 0.84345 0.0
N1974 N 0.68561 0.87097 0.84849 0.0
N1975 N 0.71677 0.75477 0.82372 0.0
H1976 H 0.64385 0.74804 0.86062 0.0
H1977 H 0.6698 0.72911 0.85053 0.0
H1978 H 0.7385 0.7549 0.82091 0.0
H1979 H 0.70018 0.73001 0.82017 0.0
H1980 H 0.69748 0.89444 0.8417 0.0
H1981 H 0.66514 0.86987 0.85657 0.0
H1982 H 0.74317 0.90119 0.84456 0.0
H1983 H 0.76464 0.88287 0.82369 0.0
C1984 C 0.46821 0.53035 0.61773 0.0
C1985 C 0.46919 0.55799 0.63942 0.0
C1986 C 0.50661 0.59777 0.61371 0.0
C1987 C 0.51221 0.56924 0.59887 0.0
N1988 N 0.4993 0.50742 0.58867 0.0
N1989 N 0.48792 0.61993 0.6567 0.0
C1990 C 0.49269 0.53512 0.60052 0.0
C1991 C 0.48728 0.59248 0.63659 0.0
N1992 N 0.44497 0.49913 0.61527 0.0
N1993 N 0.51966 0.6297 0.60579 0.0
H1994 H 0.47243 0.6183 0.67219 0.0
H1995 H 0.50449 0.64457 0.65825 0.0
H1996 H 0.5328 0.6335 0.58807 0.0
H1997 H 0.51455 0.65107 0.61427 0.0
H1998 H 0.44208 0.47857 0.59834 0.0
H1999 H 0.42703 0.49552 0.62834 0.0
H2000 H 0.48726 0.48225 0.59206 0.0
H2001 H 0.51863 0.51013 0.57805 0.0
C2002 C 0.77249 0.24871 0.02808 0.0
C2003 C 0.78081 0.21936 0.02281 0.0
C2004 C 0.7654 0.21285 0.96895 0.0
C2005 C 0.76349 0.24605 0.97375 0.0
N2006 N 0.76275 0.29513 0.00714 0.0
N2007 N 0.78209 0.17047 0.9893 0.0
C2008 C 0.76561 0.26353 0.00318 0.0
C2009 C 0.77583 0.20016 0.99353 0.0
N2010 N 0.77138 0.26229 0.05678 0.0
N2011 N 0.75736 0.19386 0.94082 0.0
H2012 H 0.78801 0.15933 0.00701 0.0
H2013 H 0.78245 0.15734 0.96836 0.0
H2014 H 0.74958 0.20288 0.92256 0.0
H2015 H 0.75589 0.16833 0.93591 0.0
H2016 H 0.763 0.28194 0.06217 0.0
H2017 H 0.77638 0.25169 0.07525 0.0
H2018 H 0.76752 0.31114 0.02777 0.0
H2019 H 0.75671 0.3061 0.98938 0.0
C2020 C 0.12094 0.5152 0.1358 0.0
C2021 C 0.13089 0.5381 0.16295 0.0
C2022 C 0.10048 0.57143 0.14758 0.0
C2023 C 0.08797 0.54605 0.12181 0.0
N2024 N 0.0824 0.49128 0.09333 0.0
N2025 N 0.13284 0.58956 0.19509 0.0
C2026 C 0.09719 0.51725 0.11642 0.0
C2027 C 0.12167 0.56695 0.16889 0.0
N2028 N 0.13464 0.4919 0.12855 0.0
N2029 N 0.09231 0.5999 0.15123 0.0
H2030 H 0.15094 0.58941 0.20956 0.0
H2031 H 0.12421 0.60834 0.2028 0.0
H2032 H 0.07504 0.60246 0.13706 0.0
H2033 H 0.103 0.62146 0.16761 0.0
H2034 H 0.13055 0.47666 0.10759 0.0
H2035 H 0.15256 0.49051 0.14264 0.0
H2036 H 0.08637 0.46825 0.08928 0.0
H2037 H 0.06349 0.49143 0.08051 0.0
C2038 C 0.82461 0.86628 0.43816 0.0
C2039 C 0.83033 0.84262 0.4559 0.0
C2040 C 0.83686 0.80938 0.40935 0.0
C2041 C 0.82849 0.8311 0.39125 0.0
N2042 N 0.80966 0.87753 0.38899 0.0
N2043 N 0.83294 0.78614 0.45607 0.0
C2044 C 0.82061 0.85847 0.40587 0.0
C2045 C 0.83394 0.81268 0.44076 0.0
N2046 N 0.82492 0.89739 0.4519 0.0
N2047 N 0.84797 0.78551 0.39685 0.0
H2048 H 0.82906 0.78648 0.47848 0.0
H2049 H 0.83214 0.76215 0.44566 0.0
H2050 H 0.85031 0.78154 0.37424 0.0
H2051 H 0.85767 0.77191 0.40953 0.0
H2052 H 0.82411 0.91713 0.44029 0.0
H2053 H 0.82898 0.905 0.47504 0.0
H2054 H 0.79985 0.89472 0.39799 0.0
H2055 H 0.80854 0.87453 0.36568 0.0
C2056 C 0.50504 0.50319 0.79477 0.0
C2057 C 0.50708 0.53697 0.79125 0.0
C2058 C 0.53638 0.55969 0.8408 0.0
C2059 C 0.52928 0.52525 0.8464 0.0
N2060 N 0.50443 0.46372 0.82982 0.0
N2061 N 0.52444 0.59793 0.81011 0.0
C2062 C 0.51335 0.49675 0.82355 0.0
C2063 C 0.52304 0.56549 0.81393 0.0
N2064 N 0.4952 0.47747 0.77062 0.0
N2065 N 0.55607 0.58669 0.86108 0.0
H2066 H 0.51665 0.60346 0.78988 0.0
H2067 H 0.53201 0.61904 0.82729 0.0
H2068 H 0.56651 0.58324 0.88093 0.0
H2069 H 0.56421 0.61216 0.85709 0.0
H2070 H 0.4959 0.45292 0.77113 0.0
H2071 H 0.48967 0.48219 0.74926 0.0
H2072 H 0.48991 0.4423 0.81487 0.0
H2073 H 0.50954 0.45787 0.85082 0.0
C2074 C 0.82188 0.25537 0.16438 0.0
C2075 C 0.84106 0.23571 0.16252 0.0
C2076 C 0.85745 0.2521 0.21653 0.0
C2077 C 0.83659 0.26959 0.21864 0.0
N2078 N 0.79551 0.28372 0.19605 0.0
N2079 N 0.87406 0.21127 0.18659 0.0
C2080 C 0.81792 0.27023 0.19294 0.0
C2081 C 0.85816 0.23306 0.18852 0.0
N2082 N 0.80769 0.26 0.13871 0.0
N2083 N 0.87695 0.25429 0.24116 0.0
H2084 H 0.87581 0.19783 0.16623 0.0
H2085 H 0.88391 0.20485 0.20519 0.0
H2086 H 0.87619 0.26682 0.26229 0.0
H2087 H 0.89518 0.24575 0.2403 0.0
H2088 H 0.79574 0.27669 0.13822 0.0
H2089 H 0.80998 0.24927 0.11739 0.0
H2090 H 0.77878 0.28135 0.17876 0.0
H2091 H 0.79201 0.29504 0.21663 0.0
C2092 C 0.0883 0.54383 0.31275 0.0
C2093 C 0.11149 0.56924 0.30123 0.0
C2094 C 0.12082 0.61027 0.34682 0.0
C2095 C 0.09814 0.58469 0.35897 0.0
N2096 N 0.05629 0.52984 0.35258 0.0
N2097 N 0.14254 0.62879 0.30213 0.0
C2098 C 0.08035 0.55231 0.34149 0.0
C2099 C 0.1251 0.60335 0.31653 0.0
N2100 N 0.0751 0.51132 0.29663 0.0
N2101 N 0.13984 0.63994 0.36475 0.0
H2102 H 0.14613 0.62389 0.27981 0.0
H2103 H 0.15059 0.65493 0.31124 0.0
H2104 H 0.13807 0.64588 0.38742 0.0
H2105 H 0.15903 0.65741 0.35775 0.0
H2106 H 0.06059 0.49021 0.30493 0.0
H2107 H 0.07952 0.50534 0.27476 0.0
H2108 H 0.04106 0.50683 0.3402 0.0
H2109 H 0.05026 0.53539 0.37381 0.0
C2110 C 0.7994 0.81941 0.65286 0.0
C2111 C 0.8217 0.84932 0.64522 0.0
C2112 C 0.83848 0.87143 0.69943 0.0
C2113 C 0.81602 0.84154 0.70725 0.0
N2114 N 0.77029 0.79154 0.69108 0.0
N2115 N 0.85725 0.90746 0.6614 0.0
C2116 C 0.79507 0.81688 0.68378 0.0
C2117 C 0.83952 0.87644 0.66863 0.0
N2118 N 0.78303 0.79275 0.63061 0.0
N2119 N 0.86022 0.89413 0.72113 0.0
H2120 H 0.85863 0.9121 0.63931 0.0
H2121 H 0.86822 0.92961 0.67713 0.0
H2122 H 0.86124 0.89094 0.74355 0.0
H2123 H 0.87922 0.91413 0.71667 0.0
H2124 H 0.76902 0.76857 0.6346 0.0
H2125 H 0.78503 0.79411 0.60795 0.0
H2126 H 0.75254 0.77465 0.67537 0.0
H2127 H 0.76588 0.78964 0.71319 0.0
C2128 C 0.7896 0.5648 0.54911 0.0
C2129 C 0.77724 0.52811 0.54283 0.0
C2130 C 0.73439 0.52784 0.56998 0.0
C2131 C 0.74379 0.56414 0.57148 0.0
N2132 N 0.77861 0.61708 0.55839 0.0
N2133 N 0.73255 0.47571 0.53954 0.0
C2134 C 0.77114 0.58278 0.56027 0.0
C2135 C 0.74828 0.5096 0.55137 0.0
N2136 N 0.81904 0.58259 0.54463 0.0
N2137 N 0.71136 0.51078 0.58545 0.0
H2138 H 0.73956 0.46255 0.52224 0.0
H2139 H 0.71035 0.46228 0.54367 0.0
H2140 H 0.70081 0.52379 0.59935 0.0
H2141 H 0.7051 0.48451 0.58673 0.0
H2142 H 0.83009 0.60902 0.55207 0.0
H2143 H 0.83331 0.57066 0.53576 0.0
H2144 H 0.79628 0.63064 0.54693 0.0
H2145 H 0.76584 0.6315 0.5662 0.0
C2146 C 0.20734 0.15346 0.56588 0.0
C2147 C 0.21685 0.1581 0.53715 0.0
C2148 C 0.16475 0.12402 0.51358 0.0
C2149 C 0.1562 0.1161 0.54208 0.0
N2150 N 0.1698 0.11991 0.59506 0.0
N2151 N 0.20588 0.14546 0.48333 0.0
C2152 C 0.17764 0.12993 0.56818 0.0
C2153 C 0.19588 0.1428 0.51087 0.0
N2154 N 0.22645 0.17258 0.59093 0.0
N2155 N 0.14296 0.11489 0.48935 0.0
H2156 H 0.22828 0.16003 0.48053 0.0
H2157 H 0.19255 0.1315 0.46338 0.0
H2158 H 0.11999 0.10118 0.49046 0.0
H2159 H 0.14718 0.1233 0.46881 0.0
H2160 H 0.22002 0.17297 0.61246 0.0
H2161 H 0.24789 0.19087 0.58973 0.0
H2162 H 0.18533 0.12627 0.61433 0.0
H2163 H 0.14818 0.10274 0.59756 0.0
C2164 C 0.28654 0.02626 0.87643 0.0
C2165 C 0.27213 0.04468 0.86041 0.0
C2166 C 0.29327 0.03003 0.81513 0.0
C2167 C 0.30983 0.01458 0.83202 0.0
N2168 N 0.32853 0.00598 0.88028 0.0
N2169 N 0.2686 0.07189 0.81667 0.0
C2170 C 0.30873 0.01569 0.86329 0.0
C2171 C 0.27749 0.04896 0.83035 0.0
N2172 N 0.27758 0.01653 0.90309 0.0
N2173 N 0.2915 0.02549 0.78457 0.0
H2174 H 0.25845 0.08777 0.82748 0.0
H2175 H 0.27439 0.0779 0.79569 0.0
H2176 H 0.30314 0.01214 0.77264 0.0
H2177 H 0.27669 0.03277 0.77109 0.0
H2178 H 0.28561 1.00031 0.91406 0.0
H2179 H 0.25952 0.02103 0.9125 0.0
H2180 H 0.33035 0.0091 0.90362 0.0
H2181 H 0.34526 0.9982 0.87122 0.0
C2182 C 0.44338 0.04827 0.98239 0.0
C2183 C 0.42434 0.02683 1.00054 0.0
C2184 C 0.46756 0.0206 0.02722 0.0
C2185 C 0.48745 0.04592 0.01288 0.0
N2186 N 0.49462 0.08792 0.97904 0.0
N2187 N 0.42037 1.0055 0.04803 0.0
C2188 C 0.4756 0.061 0.99084 0.0
C2189 C 0.43713 0.01724 0.02555 0.0
N2190 N 0.4309 0.05598 0.95738 0.0
N2191 N 0.4775 0.99917 0.0419 0.0
H2192 H 0.39823 1.00527 0.04869 0.0
H2193 H 0.42989 1.00018 0.06751 0.0
H2194 H 0.49946 0.99898 0.04125 0.0
H2195 H 0.46277 0.97892 0.05117 0.0
H2196 H 0.44392 0.069 0.94188 0.0
H2197 H 0.40734 0.04745 0.95145 0.0
H2198 H 0.48673 0.10174 0.96496 0.0
H2199 H 0.51819 0.09792 0.98501 0.0
C2200 C 0.87365 0.6458 0.84725 0.0
C2201 C 0.89016 0.62573 0.83559 0.0
C2202 C 0.866 0.62048 0.78464 0.0
C2203 C 0.84914 0.64002 0.79621 0.0
N2204 N 0.83219 0.66632 0.83869 0.0
N2205 N 0.89543 0.58547 0.79506 0.0
C2206 C 0.85121 0.65075 0.82765 0.0
C2207 C 0.8842 0.61037 0.80483 0.0
N2208 N 0.88083 0.66209 0.87636 0.0
N2209 N 0.86544 0.61258 0.75433 0.0
H2210 H 0.90824 0.57658 0.80931 0.0
H2211 H 0.88938 0.57105 0.77362 0.0
H2212 H 0.8512 0.61823 0.73875 0.0
H2213 H 0.88056 0.60254 0.74465 0.0
H2214 H 0.87217 0.68044 0.88518 0.0
H2215 H 0.8972 0.65918 0.8914 0.0
H2216 H 0.83009 0.67083 0.86141 0.0
H2217 H 0.81683 0.67271 0.82514 0.0
C2218 C 0.8592 0.65879 0.04312 0.0
C2219 C 0.87043 0.6936 0.05786 0.0
C2220 C 0.91985 0.68917 0.0728 0.0
C2221 C 0.90791 0.6539 0.0594 0.0
N2222 N 0.86458 0.60298 0.03782 0.0
N2223 N 0.90921 0.74034 0.0911 0.0
C2224 C 0.87702 0.63803 0.04654 0.0
C2225 C 0.90018 0.70839 0.074 0.0
N2226 N 0.8324 0.64609 0.02426 0.0
N2227 N 0.95011 0.70442 0.08372 0.0
H2228 H 0.89526 0.75493 0.09256 0.0
H2229 H 0.92937 0.75119 0.10576 0.0
H2230 H 0.96487 0.69078 0.08392 0.0
H2231 H 0.96104 0.73089 0.09083 0.0
H2232 H 0.82493 0.62223 0.01036 0.0
H2233 H 0.81891 0.66055 0.02011 0.0
H2234 H 0.8413 0.58952 0.03158 0.0
H2235 H 0.87704 0.58686 0.03934 0.0
C2236 C 0.25393 0.20981 0.87486 0.0
C2237 C 0.26503 0.18262 0.87549 0.0
C2238 C 0.2921 0.19791 0.83228 0.0
C2239 C 0.28264 0.22654 0.83246 0.0
N2240 N 0.25542 0.26114 0.85476 0.0
N2241 N 0.2988 0.15402 0.85931 0.0
C2242 C 0.26366 0.23286 0.8539 0.0
C2243 C 0.28555 0.17782 0.85564 0.0
N2244 N 0.23323 0.21271 0.89373 0.0
N2245 N 0.30624 0.18919 0.80893 0.0
H2246 H 0.29444 0.13896 0.87642 0.0
H2247 H 0.31605 0.15133 0.84727 0.0
H2248 H 0.31022 0.20274 0.7908 0.0
H2249 H 0.31116 0.1667 0.80591 0.0
H2250 H 0.22104 0.22903 0.89208 0.0
H2251 H 0.22734 0.19753 0.91064 0.0
H2252 H 0.2464 0.27042 0.87277 0.0
H2253 H 0.2577 0.2758 0.83757 0.0
C2254 C 0.4047 0.96945 0.37293 0.0
C2255 C 0.40798 0.99425 0.35354 0.0
C2256 C 0.3737 0.94983 0.3137 0.0
C2257 C 0.36882 0.92525 0.33371 0.0
N2258 N 0.37522 0.91326 0.38433 0.0
N2259 N 0.39087 0.0102 0.30798 0.0
C2260 C 0.38267 0.93562 0.36403 0.0
C2261 C 0.39105 0.98508 0.32465 0.0
N2262 N 0.42389 0.9776 0.39905 0.0
N2263 N 0.36234 0.93955 0.28404 0.0
H2264 H 0.40356 0.03638 0.315 0.0
H2265 H 0.37608 1.00553 0.28839 0.0
H2266 H 0.34803 0.91442 0.27511 0.0
H2267 H 0.36868 0.95548 0.26779 0.0
H2268 H 0.42507 0.95954 0.41256 0.0
H2269 H 0.44084 1.0019 0.40575 0.0
H2270 H 0.38206 0.92076 0.40729 0.0
H2271 H 0.3601 0.88787 0.37885 0.0
C2272 C 0.60837 0.43789 0.57436 0.0
C2273 C 0.58543 0.41582 0.58944 0.0
C2274 C 0.55207 0.44721 0.57521 0.0
C2275 C 0.57635 0.47287 0.56475 0.0
N2276 N 0.629 0.49281 0.55575 0.0
N2277 N 0.53898 0.40898 0.61201 0.0
C2278 C 0.60503 0.46838 0.56505 0.0
C2279 C 0.55828 0.42316 0.59203 0.0
N2280 N 0.63261 0.42896 0.56744 0.0
N2281 N 0.52264 0.44467 0.5685 0.0
H2282 H 0.54377 0.39414 0.62715 0.0
H2283 H 0.52033 0.41598 0.61634 0.0
H2284 H 0.51655 0.4593 0.55405 0.0
H2285 H 0.5041 0.42471 0.57389 0.0
H2286 H 0.64854 0.44199 0.55408 0.0
H2287 H 0.63511 0.40633 0.5724 0.0
H2288 H 0.65123 0.49319 0.55823 0.0
H2289 H 0.62677 0.51376 0.54688 0.0
C2290 C 0.42947 0.77453 0.36878 0.0
C2291 C 0.43485 0.78748 0.40004 0.0
C2292 C 0.39391 0.81102 0.39361 0.0
C2293 C 0.38827 0.79777 0.36223 0.0
N2294 N 0.39461 0.75739 0.32279 0.0
N2295 N 0.41755 0.81084 0.44322 0.0
C2296 C 0.40437 0.77681 0.35066 0.0
C2297 C 0.41537 0.80315 0.41276 0.0
N2298 N 0.44854 0.76007 0.35618 0.0
N2299 N 0.38036 0.833 0.40502 0.0
H2300 H 0.43355 0.80637 0.4576 0.0
H2301 H 0.40187 0.81865 0.45424 0.0
H2302 H 0.36481 0.83973 0.39223 0.0
H2303 H 0.38627 0.84678 0.4267 0.0
H2304 H 0.44877 0.75496 0.33311 0.0
H2305 H 0.46523 0.75467 0.36879 0.0
H2306 H 0.40352 0.73921 0.31411 0.0
H2307 H 0.37513 0.75632 0.30966 0.0
C2308 C 0.0842 0.72862 0.06117 0.0
C2309 C 0.098 0.7446 0.09086 0.0
C2310 C 0.10802 0.69141 0.09762 0.0
C2311 C 0.08979 0.67392 0.07005 0.0
N2312 N 0.0572 0.67511 0.02703 0.0
N2313 N 0.11814 0.73742 0.13943 0.0
C2314 C 0.07699 0.69236 0.05221 0.0
C2315 C 0.10906 0.7252 0.10956 0.0
N2316 N 0.07872 0.74833 0.04115 0.0
N2317 N 0.12385 0.67548 0.11289 0.0
H2318 H 0.11747 0.76059 0.15006 0.0
H2319 H 0.12327 0.72277 0.15456 0.0
H2320 H 0.12279 0.65043 0.10548 0.0
H2321 H 0.14011 0.68822 0.13138 0.0
H2322 H 0.0713 0.73888 0.01847 0.0
H2323 H 0.08486 0.77506 0.04651 0.0
H2324 H 0.04447 0.68625 0.01499 0.0
H2325 H 0.05175 0.64885 0.01945 0.0
C2326 C 0.11873 0.34396 0.89247 0.0
C2327 C 0.10088 0.3098 0.89611 0.0
C2328 C 0.13604 0.28722 0.87156 0.0
C2329 C 0.15364 0.32126 0.86728 0.0
N2330 N 0.16627 0.38278 0.87899 0.0
N2331 N 0.09613 0.25069 0.89676 0.0
C2332 C 0.14645 0.34996 0.87956 0.0
C2333 C 0.11075 0.28198 0.8881 0.0
N2334 N 0.10851 0.37028 0.90026 0.0
N2335 N 0.14273 0.25979 0.85873 0.0
H2336 H 0.07755 0.24613 0.90903 0.0
H2337 H 0.10399 0.23027 0.89429 0.0
H2338 H 0.16163 0.2626 0.84719 0.0
H2339 H 0.12861 0.23409 0.85787 0.0
H2340 H 0.11856 0.3951 0.89517 0.0
H2341 H 0.08883 0.36683 0.91069 0.0
H2342 H 0.16392 0.40491 0.88995 0.0
H2343 H 0.18657 0.38782 0.86939 0.0
C2344 C 0.5497 0.71051 0.99579 0.0
C2345 C 0.55592 0.71344 0.9653 0.0
C2346 C 0.5673 0.65824 0.96685 0.0
C2347 C 0.55672 0.65277 0.99577 0.0
N2348 N 0.52991 0.67313 0.03276 0.0
N2349 N 0.56498 0.68274 0.92059 0.0
C2350 C 0.54587 0.67893 0.00871 0.0
C2351 C 0.56316 0.68517 0.95066 0.0
N2352 N 0.54856 0.73876 0.01351 0.0
N2353 N 0.583 0.63894 0.95492 0.0
H2354 H 0.56199 0.70082 0.90801 0.0
H2355 H 0.56645 0.66105 0.90777 0.0
H2356 H 0.58862 0.62123 0.96605 0.0
H2357 H 0.59371 0.64358 0.93568 0.0
H2358 H 0.54724 0.73982 0.03648 0.0
H2359 H 0.5529 0.76251 0.00614 0.0
H2360 H 0.51901 0.68932 0.04148 0.0
H2361 H 0.52395 0.64999 0.04136 0.0
C2362 C 0.17569 0.80045 0.76042 0.0
C2363 C 0.17218 0.82821 0.74637 0.0
C2364 C 0.23008 0.84959 0.74808 0.0
C2365 C 0.23359 0.82466 0.76626 0.0
N2366 N 0.206 0.78206 0.79566 0.0
N2367 N 0.19961 0.88263 0.73119 0.0
C2368 C 0.20526 0.80171 0.77386 0.0
C2369 C 0.2005 0.85363 0.74143 0.0
N2370 N 0.15053 0.77141 0.76008 0.0
N2371 N 0.25473 0.86871 0.7356 0.0
H2372 H 0.17915 0.88616 0.72581 0.0
H2373 H 0.21912 0.90409 0.7304 0.0
H2374 H 0.27568 0.86559 0.73801 0.0
H2375 H 0.25339 0.88473 0.72006 0.0
H2376 H 0.15173 0.74909 0.76722 0.0
H2377 H 0.12924 0.76803 0.74906 0.0
H2378 H 0.18644 0.7675 0.80425 0.0
H2379 H 0.22615 0.78384 0.80799 0.0
C2380 C 0.07114 0.412 0.4993 0.0
C2381 C 0.06633 0.40397 0.46724 0.0
C2382 C 0.06005 0.46181 0.46767 0.0
C2383 C 0.06663 0.47082 0.49982 0.0
N2384 N 0.0833 0.45386 0.5451 0.0
N2385 N 0.06024 0.4251 0.4211 0.0
C2386 C 0.07338 0.44555 0.51512 0.0
C2387 C 0.06231 0.43029 0.45166 0.0
N2388 N 0.07317 0.38694 0.51517 0.0
N2389 N 0.04921 0.48207 0.4522 0.0
H2390 H 0.06053 0.40247 0.40882 0.0
H2391 H 0.06089 0.44417 0.40809 0.0
H2392 H 0.04553 0.50366 0.46258 0.0
H2393 H 0.04074 0.47563 0.42954 0.0
H2394 H 0.07183 0.38813 0.53811 0.0
H2395 H 0.07459 0.36387 0.50503 0.0
H2396 H 0.09302 0.4396 0.55687 0.0
H2397 H 0.0841 0.47643 0.55806 0.0
C2398 C 0.46817 0.35601 0.24778 0.0
C2399 C 0.47486 0.32643 0.23527 0.0
C2400 C 0.42425 0.2913 0.25312 0.0
C2401 C 0.41573 0.3208 0.2626 0.0
N2402 N 0.43043 0.38184 0.25981 0.0
N2403 N 0.45391 0.26459 0.2229 0.0
C2404 C 0.43818 0.3532 0.2575 0.0
C2405 C 0.45105 0.29389 0.23687 0.0
N2406 N 0.4907 0.3878 0.25047 0.0
N2407 N 0.40805 0.26044 0.26147 0.0
H2408 H 0.47285 0.26513 0.21206 0.0
H2409 H 0.43644 0.24041 0.21978 0.0
H2410 H 0.39087 0.25776 0.2752 0.0
H2411 H 0.4142 0.23878 0.25822 0.0
H2412 H 0.4895 0.40991 0.26282 0.0
H2413 H 0.51154 0.39156 0.2422 0.0
H2414 H 0.44382 0.40503 0.25348 0.0
H2415 H 0.40901 0.3814 0.26423 0.0
C2416 C 0.6669 0.58264 0.47015 0.0
C2417 C 0.66754 0.60689 0.45118 0.0
C2418 C 0.61937 0.60838 0.46628 0.0
C2419 C 0.61548 0.57746 0.47845 0.0
N2420 N 0.63397 0.53184 0.48726 0.0
N2421 N 0.65066 0.65175 0.43866 0.0
C2422 C 0.63887 0.56358 0.47913 0.0
C2423 C 0.64584 0.62308 0.45209 0.0
N2424 N 0.69311 0.57808 0.47926 0.0
N2425 N 0.59791 0.62332 0.46827 0.0
H2426 H 0.67128 0.66358 0.4303 0.0
H2427 H 0.63503 0.66391 0.43604 0.0
H2428 H 0.57772 0.61208 0.4772 0.0
H2429 H 0.60002 0.64687 0.46156 0.0
H2430 H 0.69408 0.55963 0.49232 0.0
H2431 H 0.71413 0.59627 0.47665 0.0
H2432 H 0.65005 0.51998 0.48612 0.0
H2433 H 0.61273 0.51596 0.49202 0.0
C2434 C 0.33851 0.87993 0.08548 0.0
C2435 C 0.35278 0.91515 0.08287 0.0
C2436 C 0.38195 0.92723 0.13212 0.0
C2437 C 0.36751 0.89203 0.13507 0.0
N2438 N 0.3265 0.83697 0.1186 0.0
N2439 N 0.38021 0.97393 0.10616 0.0
C2440 C 0.34394 0.86896 0.113 0.0
C2441 C 0.37189 0.93937 0.10715 0.0
N2442 N 0.32091 0.85688 0.06131 0.0
N2443 N 0.40612 0.94854 0.15232 0.0
H2444 H 0.37182 0.98318 0.08842 0.0
H2445 H 0.39241 0.99308 0.12412 0.0
H2446 H 0.41442 0.94039 0.17084 0.0
H2447 H 0.41954 0.97341 0.14933 0.0
H2448 H 0.31299 0.83018 0.06068 0.0
H2449 H 0.31549 0.86456 0.04124 0.0
H2450 H 0.30721 0.82041 0.10445 0.0
H2451 H 0.32968 0.82813 0.1387 0.0
C2452 C 0.04951 0.61796 0.92899 0.0
C2453 C 0.02192 0.59241 0.91424 0.0
C2454 C 0.02334 0.55374 0.95012 0.0
C2455 C 0.05061 0.57973 0.96511 0.0
N2456 N 0.08604 0.63885 0.97371 0.0
N2457 N 0.98196 0.5366 0.90993 0.0
C2458 C 0.06281 0.61248 0.95592 0.0
C2459 C 1.00849 0.56056 0.92477 0.0
N2460 N 0.06328 0.64723 0.91694 0.0
N2461 N 1.01263 0.52204 0.95925 0.0
H2462 H 0.97361 0.53876 0.88879 0.0
H2463 H 0.96825 0.51501 0.91825 0.0
H2464 H 0.02297 0.516 0.9777 0.0
H2465 H 0.9946 0.50072 0.94777 0.0
H2466 H 0.0853 0.66462 0.92455 0.0
H2467 H 0.05364 0.65312 0.89787 0.0
H2468 H 0.09347 0.66441 0.96998 0.0
H2469 H 0.09631 0.63605 0.99388 0.0
C2470 C 0.30681 0.25205 0.65091 0.0
C2471 C 0.32452 0.28024 0.63698 0.0
C2472 C 0.34457 0.31375 0.68744 0.0
C2473 C 0.32391 0.28782 0.70128 0.0
N2474 N 0.28141 0.23368 0.69435 0.0
N2475 N 0.35303 0.34166 0.64345 0.0
C2476 C 0.30359 0.25752 0.68237 0.0
C2477 C 0.341 0.31224 0.65572 0.0
N2478 N 0.29493 0.21949 0.63492 0.0
N2479 N 0.36931 0.33868 0.70411 0.0
H2480 H 0.34965 0.34213 0.62051 0.0
H2481 H 0.36307 0.36607 0.65648 0.0
H2482 H 0.37522 0.33763 0.72631 0.0
H2483 H 0.38633 0.3565 0.6947 0.0
H2484 H 0.28426 0.19762 0.64456 0.0
H2485 H 0.29863 0.21388 0.61281 0.0
H2486 H 0.26405 0.21282 0.68125 0.0
H2487 H 0.27914 0.23636 0.7172 0.0
C2488 C 0.63504 0.62716 0.29456 0.0
C2489 C 0.64238 0.59687 0.29293 0.0
C2490 C 0.63427 0.58879 0.23825 0.0
C2491 C 0.62241 0.61567 0.24016 0.0
N2492 N 0.60933 0.65933 0.26966 0.0
N2493 N 0.64617 0.54657 0.26364 0.0
C2494 C 0.62226 0.63467 0.2682 0.0
C2495 C 0.64152 0.57717 0.26487 0.0
N2496 N 0.64153 0.64947 0.32099 0.0
N2497 N 0.63911 0.57487 0.21102 0.0
H2498 H 0.65119 0.53688 0.28269 0.0
H2499 H 0.64249 0.52931 0.24388 0.0
H2500 H 0.63406 0.58286 0.191 0.0
H2501 H 0.65063 0.55772 0.20854 0.0
H2502 H 0.63953 0.67364 0.32278 0.0
H2503 H 0.65187 0.64545 0.34062 0.0
H2504 H 0.60543 0.67126 0.28971 0.0
H2505 H 0.60055 0.66623 0.25066 0.0
C2506 C 0.28594 0.88763 0.91647 0.0
C2507 C 0.31496 0.89975 0.93385 0.0
C2508 C 0.33233 0.86332 0.90029 0.0
C2509 C 0.30528 0.85415 0.88076 0.0
N2510 N 0.25747 0.86074 0.86733 0.0
N2511 N 0.36872 0.91187 0.93269 0.0
C2512 C 0.28218 0.86718 0.8879 0.0
C2513 C 0.33914 0.89131 0.92302 0.0
N2514 N 0.26233 0.89517 0.92722 0.0
N2515 N 0.3521 0.84634 0.89637 0.0
H2516 H 0.37416 0.93604 0.9457 0.0
H2517 H 0.38712 0.90739 0.92394 0.0
H2518 H 0.34745 0.82505 0.87964 0.0
H2519 H 0.37131 0.85143 0.91176 0.0
H2520 H 0.24006 0.88455 0.91642 0.0
H2521 H 0.26482 0.91071 0.9478 0.0
H2522 H 0.2415 0.87253 0.87013 0.0
H2523 H 0.25398 0.8448 0.84674 0.0
C2524 C 0.02819 0.57812 0.78116 0.0
C2525 C 0.99676 0.57258 0.77761 0.0
C2526 C 0.98571 0.51675 0.7468 0.0
C2527 C 0.01689 0.52797 0.74267 0.0
N2528 N 0.06884 0.56152 0.76178 0.0
N2529 N 0.94494 0.53343 0.76558 0.0
C2530 C 0.03859 0.55548 0.76287 0.0
C2531 C 0.97523 0.54008 0.76403 0.0
N2532 N 0.04775 0.60645 0.80007 0.0
N2533 N 0.96631 0.48552 0.73179 0.0
H2534 H 0.93758 0.55119 0.77783 0.0
H2535 H 0.92742 0.51084 0.75533 0.0
H2536 H 0.97438 0.46883 0.71892 0.0
H2537 H 0.94299 0.47538 0.73318 0.0
H2538 H 0.07114 0.6123 0.80422 0.0
H2539 H 0.03975 0.62328 0.81286 0.0
H2540 H 0.0865 0.58245 0.7743 0.0
H2541 H 0.07594 0.54458 0.748 0.0
C2542 C 0.34845 0.31812 0.43989 0.0
C2543 C 0.33134 0.28534 0.44757 0.0
C2544 C 0.31496 0.26387 0.39314 0.0
C2545 C 0.33539 0.29526 0.38541 0.0
N2546 N 0.37722 0.34917 0.4033 0.0
N2547 N 0.30366 0.22457 0.42969 0.0
C2548 C 0.35371 0.32146 0.40939 0.0
C2549 C 0.3161 0.25753 0.42367 0.0
N2550 N 0.35885 0.34667 0.46159 0.0
N2551 N 0.2931 0.24066 0.37187 0.0
H2552 H 0.3045 0.21837 0.45125 0.0
H2553 H 0.29527 0.203 0.41292 0.0
H2554 H 0.29009 0.24477 0.34988 0.0
H2555 H 0.27574 0.21925 0.37693 0.0
H2556 H 0.36881 0.37171 0.45685 0.0
H2557 H 0.3543 0.34575 0.48375 0.0
H2558 H 0.39292 0.36746 0.41999 0.0
H2559 H 0.38331 0.35157 0.38175 0.0
C2560 C 0.3664 0.60585 0.53461 0.0
C2561 C 0.3699 0.61387 0.56652 0.0
C2562 C 0.39268 0.57035 0.57018 0.0
C2563 C 0.39443 0.56745 0.53889 0.0
N2564 N 0.38812 0.58777 0.49198 0.0
N2565 N 0.39081 0.60735 0.61471 0.0
C2566 C 0.38285 0.58677 0.5212 0.0
C2567 C 0.38433 0.59711 0.58437 0.0
N2568 N 0.34582 0.61388 0.51703 0.0
N2569 N 0.39898 0.54744 0.58618 0.0
H2570 H 0.38581 0.62775 0.62579 0.0
H2571 H 0.40386 0.59797 0.62832 0.0
H2572 H 0.40444 0.52688 0.57612 0.0
H2573 H 0.39576 0.54676 0.60867 0.0
H2574 H 0.3412 0.60584 0.49391 0.0
H2575 H 0.33037 0.6242 0.52548 0.0
H2576 H 0.38278 0.60464 0.47939 0.0
H2577 H 0.40008 0.57403 0.48114 0.0
C2578 C 0.93586 0.95011 0.52853 0.0
C2579 C 0.91433 0.95887 0.54456 0.0
C2580 C 0.95038 0.019 0.55731 0.0
C2581 C 0.97314 0.00912 0.54421 0.0
N2582 N 0.98895 0.96262 0.52387 0.0
N2583 N 0.90198 1.00041 0.5778 0.0
C2584 C 0.96623 0.97399 0.53144 0.0
C2585 C 0.92175 0.99305 0.5599 0.0
N2586 N 0.9272 0.91917 0.5099 0.0
N2587 N 0.95573 0.0532 0.56642 0.0
H2588 H 0.8809 0.98211 0.58021 0.0
H2589 H 0.90747 0.02377 0.59208 0.0
H2590 H 0.97623 0.07283 0.56448 0.0
H2591 H 0.939 0.06232 0.5734 0.0
H2592 H 0.94117 0.91304 0.49513 0.0
H2593 H 0.90499 0.9011 0.50692 0.0
H2594 H 0.98558 0.9366 0.51769 0.0
H2595 H 1.01173 0.97857 0.52708 0.0
C2596 C 0.89404 0.14143 0.25552 0.0
C2597 C 0.88577 0.10535 0.24807 0.0
C2598 C 0.8325 0.09562 0.25419 0.0
C2599 C 0.84135 0.13152 0.26444 0.0
N2600 N 0.87979 0.18903 0.27624 0.0
N2601 N 0.84748 0.04834 0.23362 0.0
C2602 C 0.87185 0.15474 0.26499 0.0
C2603 C 0.85496 0.08249 0.24502 0.0
N2604 N 0.92324 0.16258 0.2534 0.0
N2605 N 0.80305 0.07412 0.25493 0.0
H2606 H 0.86359 0.03808 0.2268 0.0
H2607 H 0.82527 0.03048 0.22875 0.0
H2608 H 0.78594 0.08315 0.26098 0.0
H2609 H 0.79554 0.04728 0.2509 0.0
H2610 H 0.93076 0.18944 0.25648 0.0
H2611 H 0.93955 0.15288 0.24599 0.0
H2612 H 0.90213 0.20667 0.28037 0.0
H2613 H 0.86403 0.19989 0.28302 0.0
C2614 C 0.69869 0.05629 0.07347 0.0
C2615 C 0.72061 0.08866 0.07237 0.0
C2616 C 0.68522 0.11648 0.08716 0.0
C2617 C 0.66083 0.08381 0.07946 0.0
N2618 N 0.64567 0.02168 0.06202 0.0
N2619 N 0.73856 0.14289 0.10472 0.0
C2620 C 0.66779 0.05308 0.0729 0.0
C2621 C 0.71556 0.11801 0.08594 0.0
N2622 N 0.70757 0.02853 0.07259 0.0
N2623 N 0.6798 0.14585 0.09668 0.0
H2624 H 0.75615 0.13651 0.11438 0.0
H2625 H 0.73662 0.16509 0.11612 0.0
H2626 H 0.65902 0.14561 0.10334 0.0
H2627 H 0.69628 0.17051 0.09782 0.0
H2628 H 0.69318 1.00413 0.07579 0.0
H2629 H 0.73047 0.03153 0.07186 0.0
H2630 H 0.65036 0.99958 0.05508 0.0
H2631 H 0.62317 0.01813 0.05568 0.0
C2632 C 0.26909 0.53092 0.27885 0.0
C2633 C 0.23939 0.51045 0.28402 0.0
C2634 C 0.25783 0.46902 0.30428 0.0
C2635 C 0.28787 0.49056 0.30063 0.0
N2636 N 0.32341 0.54257 0.28732 0.0
N2637 N 0.20348 0.45821 0.29629 0.0
C2638 C 0.29387 0.52153 0.28839 0.0
C2639 C 0.23315 0.47886 0.29521 0.0
N2640 N 0.27339 0.55916 0.26479 0.0
N2641 N 0.25323 0.43971 0.31691 0.0
H2642 H 0.18498 0.46449 0.28862 0.0
H2643 H 0.1967 0.43404 0.30299 0.0
H2644 H 0.27076 0.43113 0.32294 0.0
H2645 H 0.23239 0.42427 0.32261 0.0
H2646 H 0.29395 0.57338 0.25771 0.0
H2647 H 0.25573 0.5673 0.2582 0.0
H2648 H 0.32977 0.56711 0.28132 0.0
H2649 H 0.34218 0.53649 0.29443 0.0
C2650 C 0.24671 0.45074 0.06752 0.0
C2651 C 0.2627 0.44472 0.04348 0.0
C2652 C 0.23463 0.46905 0.01081 0.0
C2653 C 0.22211 0.47967 0.03607 0.0
N2654 N 0.21719 0.4828 0.089 0.0
N2655 N 0.27283 0.4477 0.99227 0.0
C2656 C 0.22805 0.47068 0.06452 0.0
C2657 C 0.25668 0.45339 0.01496 0.0
N2658 N 0.24949 0.4374 0.09322 0.0
N2659 N 0.2252 0.47377 0.98295 0.0
H2660 H 0.28809 0.43482 0.99425 0.0
H2661 H 0.27223 0.45698 0.97201 0.0
H2662 H 0.2092 0.48538 0.97941 0.0
H2663 H 0.23127 0.46388 0.96319 0.0
H2664 H 0.23616 0.43788 0.11052 0.0
H2665 H 0.26335 0.42301 0.09616 0.0
H2666 H 0.22381 0.48081 0.11091 0.0
H2667 H 0.20299 0.49703 0.08779 0.0
C2668 C 0.85896 0.9384 0.24016 0.0
C2669 C 0.88673 0.96036 0.25731 0.0
C2670 C 0.88017 0.92297 0.29522 0.0
C2671 C 0.85361 0.8998 0.2775 0.0
N2672 N 0.81686 0.88301 0.23327 0.0
N2673 N 0.92783 0.96972 0.29632 0.0
C2674 C 0.84262 0.90673 0.24989 0.0
C2675 C 0.89862 0.95127 0.28328 0.0
N2676 N 0.84828 0.9482 0.21527 0.0
N2677 N 0.8873 0.91826 0.3238 0.0
H2678 H 0.94231 0.99086 0.28801 0.0
H2679 H 0.93861 0.96218 0.31358 0.0
H2680 H 0.87359 0.89772 0.33349 0.0
H2681 H 0.90488 0.93652 0.33888 0.0
H2682 H 0.827 0.9347 0.20296 0.0
H2683 H 0.86079 0.97079 0.20736 0.0
H2684 H 0.80925 0.88455 0.21154 0.0
H2685 H 0.80312 0.8612 0.24135 0.0
C2686 C 0.75343 0.16272 0.75789 0.0
C2687 C 0.73529 0.1523 0.78144 0.0
C2688 C 0.7652 0.20706 0.81312 0.0
C2689 C 0.77997 0.2194 0.78843 0.0
N2690 N 0.78392 0.21106 0.73533 0.0
N2691 N 0.71848 0.17019 0.82793 0.0
C2692 C 0.77309 0.19784 0.76019 0.0
C2693 C 0.7397 0.17596 0.80817 0.0
N2694 N 0.75281 0.13924 0.73383 0.0
N2695 N 0.77543 0.22515 0.84143 0.0
H2696 H 0.69771 0.14943 0.82403 0.0
H2697 H 0.71972 0.18848 0.84631 0.0
H2698 H 0.79435 0.24813 0.84601 0.0
H2699 H 0.76701 0.21546 0.8605 0.0
H2700 H 0.76783 0.14517 0.71776 0.0
H2701 H 0.73957 0.11308 0.73138 0.0
H2702 H 0.77663 0.1973 0.71368 0.0
H2703 H 0.79806 0.23674 0.73596 0.0
loop_
_geom_bond_atom_site_label_1
_geom_bond_atom_site_label_2
_geom_bond_distance
_geom_bond_site_symmetry_2
_ccdc_geom_bond_type
Mg0 O1 2.028 . S
Mg0 O7 1.986 . S
Mg0 O9 2.114 . S
Mg0 O10 2.251 1_455 S
Mg0 O13 2.010 . S
O1 Mg0 2.028 . S
O1 C4 1.250 . S
O2 Mg3 2.028 1_455 S
O2 C4 1.248 . S
Mg3 O2 2.028 1_655 S
Mg3 O8 2.032 1_655 S
Mg3 O10 2.079 . S
C4 O1 1.250 . S
C4 O2 1.248 . S
C5 O6 1.264 . S
C5 O13 1.249 . S
O6 C5 1.264 . S
O7 Mg0 1.986 . S
O7 C11 1.246 . S
O8 Mg3 2.032 1_455 S
O8 C11 1.259 . S
O9 Mg0 2.114 . S
O9 C12 1.252 1_455 S
O10 Mg0 2.251 1_655 S
O10 Mg3 2.079 . S
O10 C12 1.273 . S
C11 O7 1.246 . S
C11 O8 1.259 . S
C12 O9 1.252 1_655 S
C12 O10 1.273 . S
O13 Mg0 2.010 . S
O13 C5 1.249 . S
Mg14 O15 2.028 . S
Mg14 O21 1.986 . S
Mg14 O23 2.114 . S
Mg14 O24 2.251 . S
Mg14 O27 2.010 . S
O15 Mg14 2.028 . S
O15 C18 1.250 . S
O16 Mg17 2.028 1_455 S
O16 C18 1.248 . S
Mg17 O16 2.028 1_655 S
Mg17 O22 2.032 1_655 S
Mg17 O24 2.079 1_655 S
C18 O15 1.250 . S
C18 O16 1.248 . S
C19 O20 1.264 . S
C19 O27 1.249 . S
O20 C19 1.264 . S
O21 Mg14 1.986 . S
O21 C25 1.246 . S
O22 Mg17 2.032 1_455 S
O22 C25 1.259 . S
O23 Mg14 2.114 . S
O23 C26 1.252 . S
O24 Mg14 2.251 . S
O24 Mg17 2.079 1_455 S
O24 C26 1.273 . S
C25 O21 1.246 . S
C25 O22 1.259 . S
C26 O23 1.252 . S
C26 O24 1.273 . S
O27 Mg14 2.010 . S
O27 C19 1.249 . S
Mg28 O29 2.028 . S
Mg28 O35 1.986 . S
Mg28 O37 2.114 . S
Mg28 O38 2.251 . S
Mg28 O41 2.010 . S
O29 Mg28 2.028 . S
O29 C32 1.250 . S
O30 Mg31 2.028 . S
O30 C32 1.248 . S
Mg31 O30 2.028 . S
Mg31 O36 2.032 . S
Mg31 O38 2.079 . S
C32 O29 1.250 . S
C32 O30 1.248 . S
C33 O34 1.264 . S
C33 O41 1.249 . S
O34 C33 1.264 . S
O35 Mg28 1.986 . S
O35 C39 1.246 . S
O36 Mg31 2.032 . S
O36 C39 1.259 . S
O37 Mg28 2.114 . S
O37 C40 1.252 . S
O38 Mg28 2.251 . S
O38 Mg31 2.079 . S
O38 C40 1.273 . S
C39 O35 1.246 . S
C39 O36 1.259 . S
C40 O37 1.252 . S
C40 O38 1.273 . S
O41 Mg28 2.010 . S
O41 C33 1.249 . S
Mg42 O43 2.028 . S
Mg42 O49 1.986 . S
Mg42 O51 2.114 . S
Mg42 O52 2.251 . S
Mg42 O55 2.010 . S
O43 Mg42 2.028 . S
O43 C46 1.250 . S
O44 Mg45 2.028 . S
O44 C46 1.248 . S
Mg45 O44 2.028 . S
Mg45 O50 2.032 . S
Mg45 O52 2.079 . S
C46 O43 1.250 . S
C46 O44 1.248 . S
C47 O48 1.264 . S
C47 O55 1.249 . S
O48 C47 1.264 . S
O49 Mg42 1.986 . S
O49 C53 1.246 . S
O50 Mg45 2.032 . S
O50 C53 1.259 . S
O51 Mg42 2.114 . S
O51 C54 1.252 . S
O52 Mg42 2.251 . S
O52 Mg45 2.079 . S
O52 C54 1.273 . S
C53 O49 1.246 . S
C53 O50 1.259 . S
C54 O51 1.252 . S
C54 O52 1.273 . S
O55 Mg42 2.010 . S
O55 C47 1.249 . S
Mg56 O57 2.028 . S
Mg56 O63 1.986 . S
Mg56 O65 2.114 . S
Mg56 O66 2.251 . S
Mg56 O69 2.010 . S
O57 Mg56 2.028 . S
O57 C60 1.250 . S
O58 Mg59 2.028 . S
O58 C60 1.248 . S
Mg59 O58 2.028 . S
Mg59 O64 2.032 . S
Mg59 O66 2.079 . S
C60 O57 1.250 . S
C60 O58 1.248 . S
C61 O62 1.264 . S
C61 O69 1.249 . S
O62 C61 1.264 . S
O63 Mg56 1.986 . S
O63 C67 1.246 . S
O64 Mg59 2.032 . S
O64 C67 1.259 . S
O65 Mg56 2.114 . S
O65 C68 1.252 . S
O66 Mg56 2.251 . S
O66 Mg59 2.079 . S
O66 C68 1.273 . S
C67 O63 1.246 . S
C67 O64 1.259 . S
C68 O65 1.252 . S
C68 O66 1.273 . S
O69 Mg56 2.010 . S
O69 C61 1.249 . S
Mg70 O71 2.028 . S
Mg70 O77 1.986 . S
Mg70 O79 2.114 . S
Mg70 O80 2.251 . S
Mg70 O83 2.010 . S
O71 Mg70 2.028 . S
O71 C74 1.250 . S
O72 Mg73 2.028 . S
O72 C74 1.248 . S
Mg73 O72 2.028 . S
Mg73 O78 2.032 . S
Mg73 O80 2.079 . S
C74 O71 1.250 . S
C74 O72 1.248 . S
C75 O76 1.264 . S
C75 O83 1.249 . S
O76 C75 1.264 . S
O77 Mg70 1.986 . S
O77 C81 1.246 . S
O78 Mg73 2.032 . S
O78 C81 1.259 . S
O79 Mg70 2.114 . S
O79 C82 1.252 . S
O80 Mg70 2.251 . S
O80 Mg73 2.079 . S
O80 C82 1.273 . S
C81 O77 1.246 . S
C81 O78 1.259 . S
C82 O79 1.252 . S
C82 O80 1.273 . S
O83 Mg70 2.010 . S
O83 C75 1.249 . S
Mg84 O85 2.028 . S
Mg84 O91 1.986 . S
Mg84 O93 2.114 . S
Mg84 O94 2.251 . S
Mg84 O97 2.010 . S
O85 Mg84 2.028 . S
O85 C88 1.250 . S
O86 Mg87 2.028 . S
O86 C88 1.248 . S
Mg87 O86 2.028 . S
Mg87 O92 2.032 . S
Mg87 O94 2.079 . S
C88 O85 1.250 . S
C88 O86 1.248 . S
C89 O90 1.264 . S
C89 O97 1.249 . S
O90 C89 1.264 . S
O91 Mg84 1.986 . S
O91 C95 1.246 . S
O92 Mg87 2.032 . S
O92 C95 1.259 . S
O93 Mg84 2.114 . S
O93 C96 1.252 . S
O94 Mg84 2.251 . S
O94 Mg87 2.079 . S
O94 C96 1.273 . S
C95 O91 1.246 . S
C95 O92 1.259 . S
C96 O93 1.252 . S
C96 O94 1.273 . S
O97 Mg84 2.010 . S
O97 C89 1.249 . S
Mg98 O99 2.028 1_655 S
Mg98 O105 1.986 1_655 S
Mg98 O107 2.114 . S
Mg98 O108 2.251 . S
Mg98 O111 2.010 1_655 S
O99 Mg98 2.028 1_455 S
O99 C102 1.250 . S
O100 Mg101 2.028 . S
O100 C102 1.248 1_655 S
Mg101 O100 2.028 . S
Mg101 O106 2.032 . S
Mg101 O108 2.079 . S
C102 O99 1.250 . S
C102 O100 1.248 1_455 S
C103 O104 1.264 . S
C103 O111 1.249 . S
O104 C103 1.264 . S
O105 Mg98 1.986 1_455 S
O105 C109 1.246 1_455 S
O106 Mg101 2.032 . S
O106 C109 1.259 . S
O107 Mg98 2.114 . S
O107 C110 1.252 . S
O108 Mg98 2.251 . S
O108 Mg101 2.079 . S
O108 C110 1.273 . S
C109 O105 1.246 1_655 S
C109 O106 1.259 . S
C110 O107 1.252 . S
C110 O108 1.273 . S
O111 Mg98 2.010 1_455 S
O111 C103 1.249 . S
Mg112 O113 2.028 . S
Mg112 O119 1.986 . S
Mg112 O121 2.114 . S
Mg112 O122 2.251 . S
Mg112 O125 2.010 . S
O113 Mg112 2.028 . S
O113 C116 1.250 1_545 S
O114 Mg115 2.012 1_565 S
O114 C116 1.254 . S
Mg115 O114 2.012 1_545 S
Mg115 O120 2.032 . S
Mg115 O122 2.079 . S
C116 O113 1.250 1_565 S
C116 O114 1.254 . S
C117 O118 1.264 . S
C117 O125 1.249 . S
O118 C117 1.264 . S
O119 Mg112 1.986 . S
O119 C123 1.246 . S
O120 Mg115 2.032 . S
O120 C123 1.259 . S
O121 Mg112 2.114 . S
O121 C124 1.252 . S
O122 Mg112 2.251 . S
O122 Mg115 2.079 . S
O122 C124 1.273 . S
C123 O119 1.246 . S
C123 O120 1.259 . S
C124 O121 1.252 . S
C124 O122 1.273 . S
O125 Mg112 2.010 . S
O125 C117 1.249 . S
Mg126 O127 2.028 . S
Mg126 O133 1.986 . S
Mg126 O135 2.114 . S
Mg126 O136 2.251 . S
Mg126 O139 2.010 . S
O127 Mg126 2.028 . S
O127 C130 1.250 . S
O128 Mg129 2.028 . S
O128 C130 1.248 . S
Mg129 O128 2.028 . S
Mg129 O134 2.032 . S
Mg129 O136 2.079 . S
C130 O127 1.250 . S
C130 O128 1.248 . S
C131 O132 1.264 . S
C131 O139 1.249 . S
O132 C131 1.264 . S
O133 Mg126 1.986 . S
O133 C137 1.246 . S
O134 Mg129 2.032 . S
O134 C137 1.259 . S
O135 Mg126 2.114 . S
O135 C138 1.252 . S
O136 Mg126 2.251 . S
O136 Mg129 2.079 . S
O136 C138 1.273 . S
C137 O133 1.246 . S
C137 O134 1.259 . S
C138 O135 1.252 . S
C138 O136 1.273 . S
O139 Mg126 2.010 . S
O139 C131 1.249 . S
Mg140 O141 2.028 . S
Mg140 O147 1.986 . S
Mg140 O149 2.114 . S
Mg140 O150 2.251 . S
Mg140 O153 2.010 . S
O141 Mg140 2.028 . S
O141 C144 1.250 . S
O142 Mg143 2.028 . S
O142 C144 1.248 . S
Mg143 O142 2.028 . S
Mg143 O148 2.032 . S
Mg143 O150 2.079 . S
C144 O141 1.250 . S
C144 O142 1.248 . S
C145 O146 1.264 . S
C145 O153 1.249 . S
O146 C145 1.264 . S
O147 Mg140 1.986 . S
O147 C151 1.246 . S
O148 Mg143 2.032 . S
O148 C151 1.259 . S
O149 Mg140 2.114 . S
O149 C152 1.252 . S
O150 Mg140 2.251 . S
O150 Mg143 2.079 . S
O150 C152 1.273 . S
C151 O147 1.246 . S
C151 O148 1.259 . S
C152 O149 1.252 . S
C152 O150 1.273 . S
O153 Mg140 2.010 . S
O153 C145 1.249 . S
Mg154 O155 2.028 1_554 S
Mg154 O161 1.986 . S
Mg154 O163 2.114 1_564 S
Mg154 O164 2.251 . S
Mg154 O167 2.010 . S
O155 Mg154 2.028 1_556 S
O155 C158 1.250 . S
O156 Mg157 2.028 1_556 S
O156 C158 1.248 . S
Mg157 O156 2.028 1_554 S
Mg157 O162 2.032 . S
Mg157 O164 2.079 . S
C158 O155 1.250 . S
C158 O156 1.248 . S
C159 O160 1.264 . S
C159 O167 1.249 1_545 S
O160 C159 1.264 . S
O161 Mg154 1.986 . S
O161 C165 1.246 . S
O162 Mg157 2.032 . S
O162 C165 1.259 . S
O163 Mg154 2.114 1_546 S
O163 C166 1.252 1_556 S
O164 Mg154 2.251 . S
O164 Mg157 2.079 . S
O164 C166 1.273 1_565 S
C165 O161 1.246 . S
C165 O162 1.259 . S
C166 O163 1.252 1_554 S
C166 O164 1.273 1_545 S
O167 Mg154 2.010 . S
O167 C159 1.249 1_565 S
Mg168 O169 2.028 . S
Mg168 O175 1.986 . S
Mg168 O177 2.114 . S
Mg168 O178 2.251 . S
Mg168 O181 2.010 . S
O169 Mg168 2.028 . S
O169 C172 1.250 . S
O170 Mg171 2.028 . S
O170 C172 1.248 . S
Mg171 O170 2.028 . S
Mg171 O176 2.032 . S
Mg171 O178 2.079 . S
C172 O169 1.250 . S
C172 O170 1.248 . S
C173 O174 1.264 . S
C173 O181 1.249 . S
O174 C173 1.264 . S
O175 Mg168 1.986 . S
O175 C179 1.246 . S
O176 Mg171 2.032 . S
O176 C179 1.259 . S
O177 Mg168 2.114 . S
O177 C180 1.252 . S
O178 Mg168 2.251 . S
O178 Mg171 2.079 . S
O178 C180 1.273 . S
C179 O175 1.246 . S
C179 O176 1.259 . S
C180 O177 1.252 . S
C180 O178 1.273 . S
O181 Mg168 2.010 . S
O181 C173 1.249 . S
Mg182 O183 2.028 . S
Mg182 O189 1.986 . S
Mg182 O191 2.114 . S
Mg182 O192 2.251 . S
Mg182 O195 2.010 . S
O183 Mg182 2.028 . S
O183 C186 1.250 . S
O184 Mg185 2.028 . S
O184 C186 1.248 . S
Mg185 O184 2.028 . S
Mg185 O190 2.032 . S
Mg185 O192 2.079 . S
C186 O183 1.250 . S
C186 O184 1.248 . S
C187 O188 1.264 . S
C187 O195 1.249 . S
O188 C187 1.264 . S
O189 Mg182 1.986 . S
O189 C193 1.246 . S
O190 Mg185 2.032 . S
O190 C193 1.259 . S
O191 Mg182 2.114 . S
O191 C194 1.252 . S
O192 Mg182 2.251 . S
O192 Mg185 2.079 . S
O192 C194 1.273 . S
C193 O189 1.246 . S
C193 O190 1.259 . S
C194 O191 1.252 . S
C194 O192 1.273 . S
O195 Mg182 2.010 . S
O195 C187 1.249 . S
Mg196 O197 2.028 . S
Mg196 O203 1.986 . S
Mg196 O205 2.114 . S
Mg196 O206 2.251 . S
Mg196 O209 2.010 . S
O197 Mg196 2.028 . S
O197 C200 1.250 . S
O198 Mg199 2.028 . S
O198 C200 1.248 . S
Mg199 O198 2.028 . S
Mg199 O204 2.032 . S
Mg199 O206 2.079 . S
C200 O197 1.250 . S
C200 O198 1.248 . S
C201 O202 1.264 . S
C201 O209 1.249 . S
O202 C201 1.264 . S
O203 Mg196 1.986 . S
O203 C207 1.246 . S
O204 Mg199 2.032 . S
O204 C207 1.259 . S
O205 Mg196 2.114 . S
O205 C208 1.252 . S
O206 Mg196 2.251 . S
O206 Mg199 2.079 . S
O206 C208 1.273 . S
C207 O203 1.246 . S
C207 O204 1.259 . S
C208 O205 1.252 . S
C208 O206 1.273 . S
O209 Mg196 2.010 . S
O209 C201 1.249 . S
Mg210 O211 2.028 . S
Mg210 O217 1.986 . S
Mg210 O219 2.114 . S
Mg210 O220 2.251 . S
Mg210 O223 2.010 . S
O211 Mg210 2.028 . S
O211 C214 1.250 . S
O212 Mg213 2.028 . S
O212 C214 1.248 . S
Mg213 O212 2.028 . S
Mg213 O218 2.032 . S
Mg213 O220 2.079 . S
C214 O211 1.250 . S
C214 O212 1.248 . S
C215 O216 1.264 . S
C215 O223 1.249 . S
O216 C215 1.264 . S
O217 Mg210 1.986 . S
O217 C221 1.246 . S
O218 Mg213 2.032 . S
O218 C221 1.259 . S
O219 Mg210 2.114 . S
O219 C222 1.252 . S
O220 Mg210 2.251 . S
O220 Mg213 2.079 . S
O220 C222 1.273 . S
C221 O217 1.246 . S
C221 O218 1.259 . S
C222 O219 1.252 . S
C222 O220 1.273 . S
O223 Mg210 2.010 . S
O223 C215 1.249 . S
Mg224 O225 2.028 1_545 S
Mg224 O231 1.986 . S
Mg224 O233 2.114 . S
Mg224 O234 2.251 . S
Mg224 O237 2.010 . S
O225 Mg224 2.028 1_565 S
O225 C228 1.250 . S
O226 Mg227 2.028 . S
O226 C228 1.248 . S
Mg227 O226 2.028 . S
Mg227 O232 2.032 1_565 S
Mg227 O234 2.079 1_565 S
C228 O225 1.250 . S
C228 O226 1.248 . S
C229 O230 1.264 . S
C229 O237 1.249 . S
O230 C229 1.264 . S
O231 Mg224 1.986 . S
O231 C235 1.246 . S
O232 Mg227 2.032 1_545 S
O232 C235 1.259 . S
O233 Mg224 2.114 . S
O233 C236 1.252 . S
O234 Mg224 2.251 . S
O234 Mg227 2.079 1_545 S
O234 C236 1.273 . S
C235 O231 1.246 . S
C235 O232 1.259 . S
C236 O233 1.252 . S
C236 O234 1.273 . S
O237 Mg224 2.010 . S
O237 C229 1.249 . S
Mg238 O239 2.028 . S
Mg238 O245 1.986 . S
Mg238 O247 2.114 . S
Mg238 O248 2.251 . S
Mg238 O251 2.010 . S
O239 Mg238 2.028 . S
O239 C242 1.250 . S
O240 Mg241 2.028 . S
O240 C242 1.248 . S
Mg241 O240 2.028 . S
Mg241 O246 2.032 . S
Mg241 O248 2.079 . S
C242 O239 1.250 . S
C242 O240 1.248 . S
C243 O244 1.264 . S
C243 O251 1.249 . S
O244 C243 1.264 . S
O245 Mg238 1.986 . S
O245 C249 1.246 . S
O246 Mg241 2.032 . S
O246 C249 1.259 . S
O247 Mg238 2.114 . S
O247 C250 1.252 . S
O248 Mg238 2.251 . S
O248 Mg241 2.079 . S
O248 C250 1.273 . S
C249 O245 1.246 . S
C249 O246 1.259 . S
C250 O247 1.252 . S
C250 O248 1.273 . S
O251 Mg238 2.010 . S
O251 C243 1.249 . S
Mg252 O253 2.028 . S
Mg252 O259 1.986 . S
Mg252 O261 2.114 . S
Mg252 O262 2.251 . S
Mg252 O265 2.010 . S
O253 Mg252 2.028 . S
O253 C256 1.250 . S
O254 Mg255 2.028 . S
O254 C256 1.248 . S
Mg255 O254 2.028 . S
Mg255 O260 2.032 . S
Mg255 O262 2.079 . S
C256 O253 1.250 . S
C256 O254 1.248 . S
C257 O258 1.264 . S
C257 O265 1.249 . S
O258 C257 1.264 . S
O259 Mg252 1.986 . S
O259 C263 1.246 . S
O260 Mg255 2.032 . S
O260 C263 1.259 . S
O261 Mg252 2.114 . S
O261 C264 1.252 . S
O262 Mg252 2.251 . S
O262 Mg255 2.079 . S
O262 C264 1.273 . S
C263 O259 1.246 . S
C263 O260 1.259 . S
C264 O261 1.252 . S
C264 O262 1.273 . S
O265 Mg252 2.010 . S
O265 C257 1.249 . S
Mg266 O267 2.028 . S
Mg266 O273 1.986 . S
Mg266 O275 2.114 . S
Mg266 O276 2.251 . S
Mg266 O279 2.010 . S
O267 Mg266 2.028 . S
O267 C270 1.250 . S
O268 Mg269 2.028 . S
O268 C270 1.248 . S
Mg269 O268 2.028 . S
Mg269 O274 2.032 . S
Mg269 O276 2.079 . S
C270 O267 1.250 . S
C270 O268 1.248 . S
C271 O272 1.264 . S
C271 O279 1.249 . S
O272 C271 1.264 . S
O273 Mg266 1.986 . S
O273 C277 1.246 . S
O274 Mg269 2.032 . S
O274 C277 1.259 . S
O275 Mg266 2.114 . S
O275 C278 1.252 . S
O276 Mg266 2.251 . S
O276 Mg269 2.079 . S
O276 C278 1.273 . S
C277 O273 1.246 . S
C277 O274 1.259 . S
C278 O275 1.252 . S
C278 O276 1.273 . S
O279 Mg266 2.010 . S
O279 C271 1.249 . S
Mg280 O281 2.028 . S
Mg280 O287 1.986 . S
Mg280 O289 2.114 . S
Mg280 O290 2.251 . S
Mg280 O293 2.010 . S
O281 Mg280 2.028 . S
O281 C284 1.250 . S
O282 Mg283 2.028 . S
O282 C284 1.248 . S
Mg283 O282 2.028 . S
Mg283 O288 2.032 . S
Mg283 O290 2.079 . S
C284 O281 1.250 . S
C284 O282 1.248 . S
C285 O286 1.264 . S
C285 O293 1.249 . S
O286 C285 1.264 . S
O287 Mg280 1.986 . S
O287 C291 1.246 . S
O288 Mg283 2.032 . S
O288 C291 1.259 . S
O289 Mg280 2.114 . S
O289 C292 1.252 . S
O290 Mg280 2.251 . S
O290 Mg283 2.079 . S
O290 C292 1.273 . S
C291 O287 1.246 . S
C291 O288 1.259 . S
C292 O289 1.252 . S
C292 O290 1.273 . S
O293 Mg280 2.010 . S
O293 C285 1.249 . S
Mg294 O295 2.028 . S
Mg294 O301 1.986 . S
Mg294 O303 2.114 . S
Mg294 O304 2.251 . S
Mg294 O307 2.010 . S
O295 Mg294 2.028 . S
O295 C298 1.250 . S
O296 Mg297 2.028 . S
O296 C298 1.248 . S
Mg297 O296 2.028 . S
Mg297 O302 2.032 . S
Mg297 O304 2.079 . S
C298 O295 1.250 . S
C298 O296 1.248 . S
C299 O300 1.264 1_655 S
C299 O307 1.249 . S
O300 C299 1.264 1_455 S
O301 Mg294 1.986 . S
O301 C305 1.246 . S
O302 Mg297 2.032 . S
O302 C305 1.259 . S
O303 Mg294 2.114 . S
O303 C306 1.252 . S
O304 Mg294 2.251 . S
O304 Mg297 2.079 . S
O304 C306 1.273 . S
C305 O301 1.246 . S
C305 O302 1.259 . S
C306 O303 1.252 . S
C306 O304 1.273 . S
O307 Mg294 2.010 . S
O307 C299 1.249 . S
Mg308 O309 2.028 . S
Mg308 O315 1.986 . S
Mg308 O317 2.114 . S
Mg308 O318 2.251 . S
Mg308 O321 2.010 . S
O309 Mg308 2.028 . S
O309 C312 1.250 . S
O310 Mg311 2.028 . S
O310 C312 1.248 . S
Mg311 O310 2.028 . S
Mg311 O316 2.032 . S
Mg311 O318 2.079 . S
C312 O309 1.250 . S
C312 O310 1.248 . S
C313 O314 1.264 . S
C313 O321 1.249 . S
O314 C313 1.264 . S
O315 Mg308 1.986 . S
O315 C319 1.246 . S
O316 Mg311 2.032 . S
O316 C319 1.259 . S
O317 Mg308 2.114 . S
O317 C320 1.252 . S
O318 Mg308 2.251 . S
O318 Mg311 2.079 . S
O318 C320 1.273 . S
C319 O315 1.246 . S
C319 O316 1.259 . S
C320 O317 1.252 . S
C320 O318 1.273 . S
O321 Mg308 2.010 . S
O321 C313 1.249 . S
Mg322 O323 2.028 . S
Mg322 O329 1.986 . S
Mg322 O331 2.114 . S
Mg322 O332 2.251 . S
Mg322 O335 2.010 . S
O323 Mg322 2.028 . S
O323 C326 1.250 . S
O324 Mg325 2.028 . S
O324 C326 1.248 . S
Mg325 O324 2.028 . S
Mg325 O330 2.032 . S
Mg325 O332 2.079 . S
C326 O323 1.250 . S
C326 O324 1.248 . S
C327 O328 1.264 . S
C327 O335 1.249 . S
O328 C327 1.264 . S
O329 Mg322 1.986 . S
O329 C333 1.246 . S
O330 Mg325 2.032 . S
O330 C333 1.259 . S
O331 Mg322 2.114 . S
O331 C334 1.252 . S
O332 Mg322 2.251 . S
O332 Mg325 2.079 . S
O332 C334 1.273 . S
C333 O329 1.246 . S
C333 O330 1.259 . S
C334 O331 1.252 . S
C334 O332 1.273 . S
O335 Mg322 2.010 . S
O335 C327 1.249 . S
Tb336 C345 2.764 . S
Tb336 O346 2.325 . S
Tb336 O349 2.303 . S
Tb336 O353 2.322 . S
Tb336 O354 2.349 . S
Tb336 O357 2.415 . S
Tb336 O358 2.399 . S
Tb337 O347 2.322 1_545 S
Tb337 O348 2.349 1_554 S
Tb337 O350 2.415 1_455 S
Tb337 O351 2.399 1_454 S
Tb337 O352 2.325 . S
Tb337 O355 2.303 . S
Tb337 C366 2.764 1_455 S
C338 O354 1.261 . S
C338 O355 1.257 . S
C339 C342 1.358 . S
C339 C343 1.332 . S
C339 C345 1.504 . S
C340 C341 1.373 . S
C340 C344 1.308 . S
C341 C340 1.373 . S
C341 C342 1.429 . S
C341 H368 0.932 . S
C342 C339 1.358 . S
C342 C341 1.429 . S
C342 H369 0.930 . S
C343 C339 1.332 . S
C343 C344 1.394 . S
C343 H370 0.932 . S
C344 C340 1.308 . S
C344 C343 1.394 . S
C344 H371 0.929 . S
C345 Tb336 2.764 . S
C345 C339 1.504 . S
C345 O357 1.239 . S
C345 O358 1.263 . S
O346 Tb336 2.325 . S
O346 C356 1.236 1_545 S
O347 Tb337 2.322 1_565 S
O347 C356 1.257 . S
O348 Tb337 2.349 1_556 S
O348 C359 1.261 . S
O349 Tb336 2.303 . S
O349 C359 1.257 1_554 S
O350 Tb337 2.415 1_655 S
O350 C366 1.239 . S
O351 Tb337 2.399 1_656 S
O351 C366 1.263 1_556 S
O352 Tb337 2.325 . S
O352 C367 1.236 . S
O353 Tb336 2.322 . S
O353 C367 1.257 . S
O354 Tb336 2.349 . S
O354 C338 1.261 . S
O355 Tb337 2.303 . S
O355 C338 1.257 . S
C356 O346 1.236 1_565 S
C356 O347 1.257 . S
O357 Tb336 2.415 . S
O357 C345 1.239 . S
O358 Tb336 2.399 . S
O358 C345 1.263 . S
C359 O348 1.261 . S
C359 O349 1.257 1_556 S
C360 C363 1.358 . S
C360 C364 1.332 1_556 S
C360 C366 1.504 1_556 S
C361 C362 1.373 . S
C361 C365 1.308 1_556 S
C362 C361 1.373 . S
C362 C363 1.429 . S
C362 H372 0.932 . S
C363 C360 1.358 . S
C363 C362 1.429 . S
C363 H373 0.930 . S
C364 C360 1.332 1_554 S
C364 C365 1.394 . S
C364 H374 0.932 . S
C365 C361 1.308 1_554 S
C365 C364 1.394 . S
C365 H375 0.929 . S
C366 Tb337 2.764 1_655 S
C366 O350 1.239 . S
C366 O351 1.263 1_554 S
C366 C360 1.504 1_554 S
C367 O352 1.236 . S
C367 O353 1.257 . S
H368 C341 0.932 . S
H369 C342 0.930 . S
H370 C343 0.932 . S
H371 C344 0.929 . S
H372 C362 0.932 . S
H373 C363 0.930 . S
H374 C364 0.932 . S
H375 C365 0.929 . S
Tb376 C385 2.764 . S
Tb376 O386 2.325 . S
Tb376 O389 2.303 . S
Tb376 O393 2.322 . S
Tb376 O394 2.349 . S
Tb376 O397 2.415 . S
Tb376 O398 2.399 . S
Tb377 O387 2.322 . S
Tb377 O388 2.349 . S
Tb377 O390 2.415 . S
Tb377 O391 2.399 . S
Tb377 O392 2.325 . S
Tb377 O395 2.303 . S
Tb377 C406 2.764 . S
C378 O394 1.261 . S
C378 O395 1.257 . S
C379 C382 1.358 . S
C379 C383 1.332 . S
C379 C385 1.504 . S
C380 C381 1.373 . S
C380 C384 1.308 . S
C381 C380 1.373 . S
C381 C382 1.429 . S
C381 H408 0.932 . S
C382 C379 1.358 . S
C382 C381 1.429 . S
C382 H409 0.930 . S
C383 C379 1.332 . S
C383 C384 1.394 . S
C383 H410 0.932 . S
C384 C380 1.308 . S
C384 C383 1.394 . S
C384 H411 0.929 . S
C385 Tb376 2.764 . S
C385 C379 1.504 . S
C385 O397 1.239 . S
C385 O398 1.263 . S
O386 Tb376 2.325 . S
O386 C396 1.236 . S
O387 Tb377 2.322 . S
O387 C396 1.257 . S
O388 Tb377 2.349 . S
O388 C399 1.261 . S
O389 Tb376 2.303 . S
O389 C399 1.257 . S
O390 Tb377 2.415 . S
O390 C406 1.239 . S
O391 Tb377 2.399 . S
O391 C406 1.263 . S
O392 Tb377 2.325 . S
O392 C407 1.236 . S
O393 Tb376 2.322 . S
O393 C407 1.257 . S
O394 Tb376 2.349 . S
O394 C378 1.261 . S
O395 Tb377 2.303 . S
O395 C378 1.257 . S
C396 O386 1.236 . S
C396 O387 1.257 . S
O397 Tb376 2.415 . S
O397 C385 1.239 . S
O398 Tb376 2.399 . S
O398 C385 1.263 . S
C399 O388 1.261 . S
C399 O389 1.257 . S
C400 C403 1.358 . S
C400 C404 1.332 . S
C400 C406 1.504 . S
C401 C402 1.373 . S
C401 C405 1.308 . S
C402 C401 1.373 . S
C402 C403 1.429 . S
C402 H412 0.932 . S
C403 C400 1.358 . S
C403 C402 1.429 . S
C403 H413 0.930 . S
C404 C400 1.332 . S
C404 C405 1.394 . S
C404 H414 0.932 . S
C405 C401 1.308 . S
C405 C404 1.394 . S
C405 H415 0.929 . S
C406 Tb377 2.764 . S
C406 O390 1.239 . S
C406 O391 1.263 . S
C406 C400 1.504 . S
C407 O392 1.236 . S
C407 O393 1.257 . S
H408 C381 0.932 . S
H409 C382 0.930 . S
H410 C383 0.932 . S
H411 C384 0.929 . S
H412 C402 0.932 . S
H413 C403 0.930 . S
H414 C404 0.932 . S
H415 C405 0.929 . S
Tb416 C425 2.764 . S
Tb416 O426 2.325 . S
Tb416 O429 2.303 . S
Tb416 O433 2.322 . S
Tb416 O434 2.349 . S
Tb416 O437 2.415 . S
Tb416 O438 2.399 . S
Tb417 O427 2.322 . S
Tb417 O428 2.349 . S
Tb417 O430 2.415 . S
Tb417 O431 2.399 . S
Tb417 O432 2.325 . S
Tb417 O435 2.303 . S
Tb417 C446 2.764 . S
C418 O434 1.261 . S
C418 O435 1.257 . S
C419 C422 1.358 . S
C419 C423 1.332 . S
C419 C425 1.504 . S
C420 C421 1.373 . S
C420 C424 1.308 . S
C421 C420 1.373 . S
C421 C422 1.429 . S
C421 H448 0.932 . S
C422 C419 1.358 . S
C422 C421 1.429 . S
C422 H449 0.930 . S
C423 C419 1.332 . S
C423 C424 1.394 . S
C423 H450 0.932 . S
C424 C420 1.308 . S
C424 C423 1.394 . S
C424 H451 0.929 . S
C425 Tb416 2.764 . S
C425 C419 1.504 . S
C425 O437 1.239 . S
C425 O438 1.263 . S
O426 Tb416 2.325 . S
O426 C436 1.236 . S
O427 Tb417 2.322 . S
O427 C436 1.257 . S
O428 Tb417 2.349 . S
O428 C439 1.261 . S
O429 Tb416 2.303 . S
O429 C439 1.257 . S
O430 Tb417 2.415 . S
O430 C446 1.239 . S
O431 Tb417 2.399 . S
O431 C446 1.263 . S
O432 Tb417 2.325 . S
O432 C447 1.236 1_545 S
O433 Tb416 2.322 . S
O433 C447 1.257 1_545 S
O434 Tb416 2.349 . S
O434 C418 1.261 . S
O435 Tb417 2.303 . S
O435 C418 1.257 . S
C436 O426 1.236 . S
C436 O427 1.257 . S
O437 Tb416 2.415 . S
O437 C425 1.239 . S
O438 Tb416 2.399 . S
O438 C425 1.263 . S
C439 O428 1.261 . S
C439 O429 1.257 . S
C440 C443 1.358 . S
C440 C444 1.332 . S
C440 C446 1.504 . S
C441 C442 1.373 1_565 S
C441 C445 1.308 . S
C442 C441 1.373 1_545 S
C442 C443 1.429 . S
C442 H452 0.932 . S
C443 C440 1.358 . S
C443 C442 1.429 . S
C443 H453 0.930 . S
C444 C440 1.332 . S
C444 C445 1.394 1_545 S
C444 H454 0.932 1_545 S
C445 C441 1.308 . S
C445 C444 1.394 1_565 S
C445 H455 0.929 . S
C446 Tb417 2.764 . S
C446 O430 1.239 . S
C446 O431 1.263 . S
C446 C440 1.504 . S
C447 O432 1.236 1_565 S
C447 O433 1.257 1_565 S
H448 C421 0.932 . S
H449 C422 0.930 . S
H450 C423 0.932 . S
H451 C424 0.929 . S
H452 C442 0.932 . S
H453 C443 0.930 . S
H454 C444 0.932 1_565 S
H455 C445 0.929 . S
Tb456 C465 2.764 . S
Tb456 O466 2.325 . S
Tb456 O469 2.303 . S
Tb456 O473 2.322 . S
Tb456 O474 2.349 . S
Tb456 O477 2.415 . S
Tb456 O478 2.399 . S
Tb457 O467 2.322 . S
Tb457 O468 2.349 . S
Tb457 O470 2.415 . S
Tb457 O471 2.399 . S
Tb457 O472 2.325 . S
Tb457 O475 2.303 . S
Tb457 C486 2.764 . S
C458 O474 1.261 . S
C458 O475 1.257 . S
C459 C462 1.358 . S
C459 C463 1.332 . S
C459 C465 1.504 . S
C460 C461 1.373 . S
C460 C464 1.308 . S
C461 C460 1.373 . S
C461 C462 1.429 . S
C461 H488 0.932 . S
C462 C459 1.358 . S
C462 C461 1.429 . S
C462 H489 0.930 . S
C463 C459 1.332 . S
C463 C464 1.394 . S
C463 H490 0.932 . S
C464 C460 1.308 . S
C464 C463 1.394 . S
C464 H491 0.929 . S
C465 Tb456 2.764 . S
C465 C459 1.504 . S
C465 O477 1.239 . S
C465 O478 1.263 . S
O466 Tb456 2.325 . S
O466 C476 1.236 . S
O467 Tb457 2.322 . S
O467 C476 1.257 . S
O468 Tb457 2.349 . S
O468 C479 1.261 . S
O469 Tb456 2.303 . S
O469 C479 1.257 . S
O470 Tb457 2.415 . S
O470 C486 1.239 . S
O471 Tb457 2.399 . S
O471 C486 1.263 . S
O472 Tb457 2.325 . S
O472 C487 1.236 . S
O473 Tb456 2.322 . S
O473 C487 1.257 . S
O474 Tb456 2.349 . S
O474 C458 1.261 . S
O475 Tb457 2.303 . S
O475 C458 1.257 . S
C476 O466 1.236 . S
C476 O467 1.257 . S
O477 Tb456 2.415 . S
O477 C465 1.239 . S
O478 Tb456 2.399 . S
O478 C465 1.263 . S
C479 O468 1.261 . S
C479 O469 1.257 . S
C480 C483 1.358 . S
C480 C484 1.332 . S
C480 C486 1.504 . S
C481 C482 1.373 . S
C481 C485 1.308 . S
C482 C481 1.373 . S
C482 C483 1.429 . S
C482 H492 0.932 . S
C483 C480 1.358 . S
C483 C482 1.429 . S
C483 H493 0.930 . S
C484 C480 1.332 . S
C484 C485 1.394 . S
C484 H494 0.932 . S
C485 C481 1.308 . S
C485 C484 1.394 . S
C485 H495 0.929 . S
C486 Tb457 2.764 . S
C486 O470 1.239 . S
C486 O471 1.263 . S
C486 C480 1.504 . S
C487 O472 1.236 . S
C487 O473 1.257 . S
H488 C461 0.932 . S
H489 C462 0.930 . S
H490 C463 0.932 . S
H491 C464 0.929 . S
H492 C482 0.932 . S
H493 C483 0.930 . S
H494 C484 0.932 . S
H495 C485 0.929 . S
Tb496 C505 2.764 . S
Tb496 O506 2.325 . S
Tb496 O509 2.303 . S
Tb496 O513 2.322 . S
Tb496 O514 2.349 1_455 S
Tb496 O517 2.415 . S
Tb496 O518 2.399 . S
Tb497 O507 2.322 . S
Tb497 O508 2.349 . S
Tb497 O510 2.415 . S
Tb497 O511 2.399 . S
Tb497 O512 2.325 . S
Tb497 O515 2.303 . S
Tb497 C526 2.764 . S
C498 O514 1.261 . S
C498 O515 1.257 1_655 S
C499 C502 1.358 . S
C499 C503 1.332 . S
C499 C505 1.504 . S
C500 C501 1.373 . S
C500 C504 1.308 . S
C501 C500 1.373 . S
C501 C502 1.429 . S
C501 H528 0.932 . S
C502 C499 1.358 . S
C502 C501 1.429 . S
C502 H529 0.930 . S
C503 C499 1.332 . S
C503 C504 1.394 . S
C503 H530 0.932 . S
C504 C500 1.308 . S
C504 C503 1.394 . S
C504 H531 0.929 . S
C505 Tb496 2.764 . S
C505 C499 1.504 . S
C505 O517 1.239 . S
C505 O518 1.263 . S
O506 Tb496 2.325 . S
O506 C516 1.236 . S
O507 Tb497 2.322 . S
O507 C516 1.257 . S
O508 Tb497 2.349 . S
O508 C519 1.261 . S
O509 Tb496 2.303 . S
O509 C519 1.257 . S
O510 Tb497 2.415 . S
O510 C526 1.239 . S
O511 Tb497 2.399 . S
O511 C526 1.263 . S
O512 Tb497 2.325 . S
O512 C527 1.236 . S
O513 Tb496 2.322 . S
O513 C527 1.257 . S
O514 Tb496 2.349 1_655 S
O514 C498 1.261 . S
O515 Tb497 2.303 . S
O515 C498 1.257 1_455 S
C516 O506 1.236 . S
C516 O507 1.257 . S
O517 Tb496 2.415 . S
O517 C505 1.239 . S
O518 Tb496 2.399 . S
O518 C505 1.263 . S
C519 O508 1.261 . S
C519 O509 1.257 . S
C520 C523 1.358 . S
C520 C524 1.332 1_455 S
C520 C526 1.504 . S
C521 C522 1.373 1_655 S
C521 C525 1.308 . S
C522 C521 1.373 1_455 S
C522 C523 1.429 . S
C522 H532 0.932 . S
C523 C520 1.358 . S
C523 C522 1.429 . S
C523 H533 0.930 . S
C524 C520 1.332 1_655 S
C524 C525 1.394 . S
C524 H534 0.932 . S
C525 C521 1.308 . S
C525 C524 1.394 . S
C525 H535 0.929 . S
C526 Tb497 2.764 . S
C526 O510 1.239 . S
C526 O511 1.263 . S
C526 C520 1.504 . S
C527 O512 1.236 . S
C527 O513 1.257 . S
H528 C501 0.932 . S
H529 C502 0.930 . S
H530 C503 0.932 . S
H531 C504 0.929 . S
H532 C522 0.932 . S
H533 C523 0.930 . S
H534 C524 0.932 . S
H535 C525 0.929 . S
Tb536 C545 2.764 . S
Tb536 O546 2.325 . S
Tb536 O549 2.303 . S
Tb536 O553 2.322 . S
Tb536 O554 2.349 . S
Tb536 O557 2.415 . S
Tb536 O558 2.399 . S
Tb537 O547 2.322 . S
Tb537 O548 2.349 . S
Tb537 O550 2.415 . S
Tb537 O551 2.399 . S
Tb537 O552 2.325 . S
Tb537 O555 2.303 . S
Tb537 C566 2.764 . S
C538 O554 1.261 . S
C538 O555 1.257 . S
C539 C542 1.358 . S
C539 C543 1.332 . S
C539 C545 1.504 . S
C540 C541 1.373 . S
C540 C544 1.308 . S
C541 C540 1.373 . S
C541 C542 1.429 . S
C541 H568 0.932 . S
C542 C539 1.358 . S
C542 C541 1.429 . S
C542 H569 0.930 . S
C543 C539 1.332 . S
C543 C544 1.394 . S
C543 H570 0.932 . S
C544 C540 1.308 . S
C544 C543 1.394 . S
C544 H571 0.929 . S
C545 Tb536 2.764 . S
C545 C539 1.504 . S
C545 O557 1.239 . S
C545 O558 1.263 . S
O546 Tb536 2.325 . S
O546 C556 1.236 . S
O547 Tb537 2.322 . S
O547 C556 1.257 . S
O548 Tb537 2.349 . S
O548 C559 1.261 . S
O549 Tb536 2.303 . S
O549 C559 1.257 . S
O550 Tb537 2.415 . S
O550 C566 1.239 . S
O551 Tb537 2.399 . S
O551 C566 1.263 . S
O552 Tb537 2.325 . S
O552 C567 1.236 . S
O553 Tb536 2.322 . S
O553 C567 1.257 . S
O554 Tb536 2.349 . S
O554 C538 1.261 . S
O555 Tb537 2.303 . S
O555 C538 1.257 . S
C556 O546 1.236 . S
C556 O547 1.257 . S
O557 Tb536 2.415 . S
O557 C545 1.239 . S
O558 Tb536 2.399 . S
O558 C545 1.263 . S
C559 O548 1.261 . S
C559 O549 1.257 . S
C560 C563 1.358 . S
C560 C564 1.332 . S
C560 C566 1.504 . S
C561 C562 1.373 . S
C561 C565 1.308 . S
C562 C561 1.373 . S
C562 C563 1.429 . S
C562 H572 0.932 . S
C563 C560 1.358 . S
C563 C562 1.429 . S
C563 H573 0.930 . S
C564 C560 1.332 . S
C564 C565 1.394 . S
C564 H574 0.932 . S
C565 C561 1.308 . S
C565 C564 1.394 . S
C565 H575 0.929 . S
C566 Tb537 2.764 . S
C566 O550 1.239 . S
C566 O551 1.263 . S
C566 C560 1.504 . S
C567 O552 1.236 . S
C567 O553 1.257 . S
H568 C541 0.932 . S
H569 C542 0.930 . S
H570 C543 0.932 . S
H571 C544 0.929 . S
H572 C562 0.932 . S
H573 C563 0.930 . S
H574 C564 0.932 . S
H575 C565 0.929 . S
Tb576 C585 2.764 . S
Tb576 O586 2.325 . S
Tb576 O589 2.303 . S
Tb576 O593 2.322 . S
Tb576 O594 2.349 . S
Tb576 O597 2.415 . S
Tb576 O598 2.399 . S
Tb577 O587 2.322 . S
Tb577 O588 2.349 . S
Tb577 O590 2.415 1_554 S
Tb577 O591 2.399 1_554 S
Tb577 O592 2.325 1_554 S
Tb577 O595 2.303 . S
Tb577 C606 2.764 1_554 S
C578 O594 1.261 . S
C578 O595 1.257 . S
C579 C582 1.358 . S
C579 C583 1.332 . S
C579 C585 1.504 . S
C580 C581 1.373 . S
C580 C584 1.308 . S
C581 C580 1.373 . S
C581 C582 1.429 . S
C581 H608 0.932 . S
C582 C579 1.358 . S
C582 C581 1.429 . S
C582 H609 0.930 . S
C583 C579 1.332 . S
C583 C584 1.394 . S
C583 H610 0.932 . S
C584 C580 1.308 . S
C584 C583 1.394 . S
C584 H611 0.929 . S
C585 Tb576 2.764 . S
C585 C579 1.504 . S
C585 O597 1.239 . S
C585 O598 1.263 . S
O586 Tb576 2.325 . S
O586 C596 1.236 . S
O587 Tb577 2.322 . S
O587 C596 1.257 . S
O588 Tb577 2.349 . S
O588 C599 1.261 . S
O589 Tb576 2.303 . S
O589 C599 1.257 . S
O590 Tb577 2.415 1_556 S
O590 C606 1.239 . S
O591 Tb577 2.399 1_556 S
O591 C606 1.263 . S
O592 Tb577 2.325 1_556 S
O592 C607 1.236 1_556 S
O593 Tb576 2.322 . S
O593 C607 1.257 . S
O594 Tb576 2.349 . S
O594 C578 1.261 . S
O595 Tb577 2.303 . S
O595 C578 1.257 . S
C596 O586 1.236 . S
C596 O587 1.257 . S
O597 Tb576 2.415 . S
O597 C585 1.239 . S
O598 Tb576 2.399 . S
O598 C585 1.263 . S
C599 O588 1.261 . S
C599 O589 1.257 . S
C600 C603 1.358 . S
C600 C604 1.332 . S
C600 C606 1.504 . S
C601 C602 1.373 . S
C601 C605 1.308 . S
C602 C601 1.373 . S
C602 C603 1.429 . S
C602 H612 0.932 . S
C603 C600 1.358 . S
C603 C602 1.429 . S
C603 H613 0.930 . S
C604 C600 1.332 . S
C604 C605 1.394 . S
C604 H614 0.932 . S
C605 C601 1.308 . S
C605 C604 1.394 . S
C605 H615 0.929 . S
C606 Tb577 2.764 1_556 S
C606 O590 1.239 . S
C606 O591 1.263 . S
C606 C600 1.504 . S
C607 O592 1.236 1_554 S
C607 O593 1.257 . S
H608 C581 0.932 . S
H609 C582 0.930 . S
H610 C583 0.932 . S
H611 C584 0.929 . S
H612 C602 0.932 . S
H613 C603 0.930 . S
H614 C604 0.932 . S
H615 C605 0.929 . S
Tb616 C625 2.764 . S
Tb616 O626 2.325 . S
Tb616 O629 2.303 . S
Tb616 O633 2.322 . S
Tb616 O634 2.349 . S
Tb616 O637 2.415 . S
Tb616 O638 2.399 . S
Tb617 O627 2.322 . S
Tb617 O628 2.349 . S
Tb617 O630 2.415 . S
Tb617 O631 2.399 . S
Tb617 O632 2.325 . S
Tb617 O635 2.303 . S
Tb617 C646 2.764 . S
C618 O634 1.261 . S
C618 O635 1.257 . S
C619 C622 1.358 . S
C619 C623 1.332 . S
C619 C625 1.504 . S
C620 C621 1.373 . S
C620 C624 1.308 . S
C621 C620 1.373 . S
C621 C622 1.429 . S
C621 H648 0.932 . S
C622 C619 1.358 . S
C622 C621 1.429 . S
C622 H649 0.930 . S
C623 C619 1.332 . S
C623 C624 1.394 . S
C623 H650 0.932 . S
C624 C620 1.308 . S
C624 C623 1.394 . S
C624 H651 0.929 . S
C625 Tb616 2.764 . S
C625 C619 1.504 . S
C625 O637 1.239 . S
C625 O638 1.263 . S
O626 Tb616 2.325 . S
O626 C636 1.236 . S
O627 Tb617 2.322 . S
O627 C636 1.257 . S
O628 Tb617 2.349 . S
O628 C639 1.261 . S
O629 Tb616 2.303 . S
O629 C639 1.257 . S
O630 Tb617 2.415 . S
O630 C646 1.239 . S
O631 Tb617 2.399 . S
O631 C646 1.263 . S
O632 Tb617 2.325 . S
O632 C647 1.236 . S
O633 Tb616 2.322 . S
O633 C647 1.257 . S
O634 Tb616 2.349 . S
O634 C618 1.261 . S
O635 Tb617 2.303 . S
O635 C618 1.257 . S
C636 O626 1.236 . S
C636 O627 1.257 . S
O637 Tb616 2.415 . S
O637 C625 1.239 . S
O638 Tb616 2.399 . S
O638 C625 1.263 . S
C639 O628 1.261 . S
C639 O629 1.257 . S
C640 C643 1.358 . S
C640 C644 1.332 . S
C640 C646 1.504 . S
C641 C642 1.373 . S
C641 C645 1.308 . S
C642 C641 1.373 . S
C642 C643 1.429 . S
C642 H652 0.932 . S
C643 C640 1.358 . S
C643 C642 1.429 . S
C643 H653 0.930 . S
C644 C640 1.332 . S
C644 C645 1.394 . S
C644 H654 0.932 . S
C645 C641 1.308 . S
C645 C644 1.394 . S
C645 H655 0.929 . S
C646 Tb617 2.764 . S
C646 O630 1.239 . S
C646 O631 1.263 . S
C646 C640 1.504 . S
C647 O632 1.236 . S
C647 O633 1.257 . S
H648 C621 0.932 . S
H649 C622 0.930 . S
H650 C623 0.932 . S
H651 C624 0.929 . S
H652 C642 0.932 . S
H653 C643 0.930 . S
H654 C644 0.932 . S
H655 C645 0.929 . S
Tb656 C665 2.764 . S
Tb656 O666 2.325 . S
Tb656 O669 2.303 . S
Tb656 O673 2.322 . S
Tb656 O674 2.349 . S
Tb656 O677 2.415 . S
Tb656 O678 2.399 . S
Tb657 O667 2.322 . S
Tb657 O668 2.349 . S
Tb657 O670 2.415 1_554 S
Tb657 O671 2.399 1_554 S
Tb657 O672 2.325 . S
Tb657 O675 2.303 . S
Tb657 C686 2.764 1_554 S
C658 O674 1.261 . S
C658 O675 1.257 . S
C659 C662 1.358 . S
C659 C663 1.332 . S
C659 C665 1.504 . S
C660 C661 1.373 . S
C660 C664 1.308 . S
C661 C660 1.373 . S
C661 C662 1.429 . S
C661 H688 0.932 . S
C662 C659 1.358 . S
C662 C661 1.429 . S
C662 H689 0.930 . S
C663 C659 1.332 . S
C663 C664 1.394 . S
C663 H690 0.932 . S
C664 C660 1.308 . S
C664 C663 1.394 . S
C664 H691 0.929 . S
C665 Tb656 2.764 . S
C665 C659 1.504 . S
C665 O677 1.239 . S
C665 O678 1.263 . S
O666 Tb656 2.325 . S
O666 C676 1.236 . S
O667 Tb657 2.322 . S
O667 C676 1.257 . S
O668 Tb657 2.349 . S
O668 C679 1.261 . S
O669 Tb656 2.303 . S
O669 C679 1.257 . S
O670 Tb657 2.415 1_556 S
O670 C686 1.239 . S
O671 Tb657 2.399 1_556 S
O671 C686 1.263 . S
O672 Tb657 2.325 . S
O672 C687 1.236 . S
O673 Tb656 2.322 . S
O673 C687 1.257 . S
O674 Tb656 2.349 . S
O674 C658 1.261 . S
O675 Tb657 2.303 . S
O675 C658 1.257 . S
C676 O666 1.236 . S
C676 O667 1.257 . S
O677 Tb656 2.415 . S
O677 C665 1.239 . S
O678 Tb656 2.399 . S
O678 C665 1.263 . S
C679 O668 1.261 . S
C679 O669 1.257 . S
C680 C683 1.358 . S
C680 C684 1.332 . S
C680 C686 1.504 . S
C681 C682 1.373 . S
C681 C685 1.308 . S
C682 C681 1.373 . S
C682 C683 1.429 . S
C682 H692 0.932 . S
C683 C680 1.358 . S
C683 C682 1.429 . S
C683 H693 0.930 . S
C684 C680 1.332 . S
C684 C685 1.394 . S
C684 H694 0.932 . S
C685 C681 1.308 . S
C685 C684 1.394 . S
C685 H695 0.929 . S
C686 Tb657 2.764 1_556 S
C686 O670 1.239 . S
C686 O671 1.263 . S
C686 C680 1.504 . S
C687 O672 1.236 . S
C687 O673 1.257 . S
H688 C661 0.932 . S
H689 C662 0.930 . S
H690 C663 0.932 . S
H691 C664 0.929 . S
H692 C682 0.932 . S
H693 C683 0.930 . S
H694 C684 0.932 . S
H695 C685 0.929 . S
Tb696 C705 2.764 . S
Tb696 O706 2.325 . S
Tb696 O709 2.303 . S
Tb696 O713 2.322 . S
Tb696 O714 2.349 . S
Tb696 O717 2.415 . S
Tb696 O718 2.399 . S
Tb697 O707 2.322 . S
Tb697 O708 2.349 . S
Tb697 O710 2.415 . S
Tb697 O711 2.399 . S
Tb697 O712 2.325 . S
Tb697 O715 2.303 . S
Tb697 C726 2.764 . S
C698 O714 1.261 . S
C698 O715 1.257 . S
C699 C702 1.358 . S
C699 C703 1.332 . S
C699 C705 1.504 . S
C700 C701 1.373 . S
C700 C704 1.308 . S
C701 C700 1.373 . S
C701 C702 1.429 . S
C701 H728 0.932 . S
C702 C699 1.358 . S
C702 C701 1.429 . S
C702 H729 0.930 . S
C703 C699 1.332 . S
C703 C704 1.394 . S
C703 H730 0.932 . S
C704 C700 1.308 . S
C704 C703 1.394 . S
C704 H731 0.929 . S
C705 Tb696 2.764 . S
C705 C699 1.504 . S
C705 O717 1.239 . S
C705 O718 1.263 . S
O706 Tb696 2.325 . S
O706 C716 1.236 . S
O707 Tb697 2.322 . S
O707 C716 1.257 . S
O708 Tb697 2.349 . S
O708 C719 1.261 . S
O709 Tb696 2.303 . S
O709 C719 1.257 . S
O710 Tb697 2.415 . S
O710 C726 1.239 . S
O711 Tb697 2.399 . S
O711 C726 1.263 . S
O712 Tb697 2.325 . S
O712 C727 1.236 . S
O713 Tb696 2.322 . S
O713 C727 1.257 . S
O714 Tb696 2.349 . S
O714 C698 1.261 . S
O715 Tb697 2.303 . S
O715 C698 1.257 . S
C716 O706 1.236 . S
C716 O707 1.257 . S
O717 Tb696 2.415 . S
O717 C705 1.239 . S
O718 Tb696 2.399 . S
O718 C705 1.263 . S
C719 O708 1.261 . S
C719 O709 1.257 . S
C720 C723 1.358 . S
C720 C724 1.332 . S
C720 C726 1.504 . S
C721 C722 1.373 . S
C721 C725 1.308 . S
C722 C721 1.373 . S
C722 C723 1.429 . S
C722 H732 0.932 . S
C723 C720 1.358 . S
C723 C722 1.429 . S
C723 H733 0.930 . S
C724 C720 1.332 . S
C724 C725 1.394 . S
C724 H734 0.932 . S
C725 C721 1.308 . S
C725 C724 1.394 . S
C725 H735 0.929 . S
C726 Tb697 2.764 . S
C726 O710 1.239 . S
C726 O711 1.263 . S
C726 C720 1.504 . S
C727 O712 1.236 . S
C727 O713 1.257 . S
H728 C701 0.932 . S
H729 C702 0.930 . S
H730 C703 0.932 . S
H731 C704 0.929 . S
H732 C722 0.932 . S
H733 C723 0.930 . S
H734 C724 0.932 . S
H735 C725 0.929 . S
Tb736 C745 2.764 . S
Tb736 O746 2.325 . S
Tb736 O749 2.303 . S
Tb736 O753 2.322 . S
Tb736 O754 2.349 . S
Tb736 O757 2.415 . S
Tb736 O758 2.399 . S
Tb737 O747 2.322 . S
Tb737 O748 2.349 . S
Tb737 O750 2.415 . S
Tb737 O751 2.399 . S
Tb737 O752 2.325 . S
Tb737 O755 2.303 . S
Tb737 C766 2.764 . S
C738 O754 1.261 . S
C738 O755 1.257 . S
C739 C742 1.358 . S
C739 C743 1.332 1_455 S
C739 C745 1.504 . S
C740 C741 1.373 . S
C740 C744 1.308 1_455 S
C741 C740 1.373 . S
C741 C742 1.429 . S
C741 H768 0.932 . S
C742 C739 1.358 . S
C742 C741 1.429 . S
C742 H769 0.930 . S
C743 C739 1.332 1_655 S
C743 C744 1.394 . S
C743 H770 0.932 . S
C744 C740 1.308 1_655 S
C744 C743 1.394 . S
C744 H771 0.929 . S
C745 Tb736 2.764 . S
C745 C739 1.504 . S
C745 O757 1.239 . S
C745 O758 1.263 . S
O746 Tb736 2.325 . S
O746 C756 1.236 . S
O747 Tb737 2.322 . S
O747 C756 1.257 . S
O748 Tb737 2.349 . S
O748 C759 1.261 1_455 S
O749 Tb736 2.303 . S
O749 C759 1.257 1_455 S
O750 Tb737 2.415 . S
O750 C766 1.239 . S
O751 Tb737 2.399 . S
O751 C766 1.263 . S
O752 Tb737 2.325 . S
O752 C767 1.236 . S
O753 Tb736 2.322 . S
O753 C767 1.257 . S
O754 Tb736 2.349 . S
O754 C738 1.261 . S
O755 Tb737 2.303 . S
O755 C738 1.257 . S
C756 O746 1.236 . S
C756 O747 1.257 . S
O757 Tb736 2.415 . S
O757 C745 1.239 . S
O758 Tb736 2.399 . S
O758 C745 1.263 . S
C759 O748 1.261 1_655 S
C759 O749 1.257 1_655 S
C760 C763 1.358 . S
C760 C764 1.332 . S
C760 C766 1.504 . S
C761 C762 1.373 . S
C761 C765 1.308 . S
C762 C761 1.373 . S
C762 C763 1.429 . S
C762 H772 0.932 . S
C763 C760 1.358 . S
C763 C762 1.429 . S
C763 H773 0.930 . S
C764 C760 1.332 . S
C764 C765 1.394 . S
C764 H774 0.932 . S
C765 C761 1.308 . S
C765 C764 1.394 . S
C765 H775 0.929 . S
C766 Tb737 2.764 . S
C766 O750 1.239 . S
C766 O751 1.263 . S
C766 C760 1.504 . S
C767 O752 1.236 . S
C767 O753 1.257 . S
H768 C741 0.932 . S
H769 C742 0.930 . S
H770 C743 0.932 . S
H771 C744 0.929 . S
H772 C762 0.932 . S
H773 C763 0.930 . S
H774 C764 0.932 . S
H775 C765 0.929 . S
Tb776 C785 2.764 . S
Tb776 O786 2.325 . S
Tb776 O789 2.303 . S
Tb776 O793 2.322 . S
Tb776 O794 2.349 . S
Tb776 O797 2.415 . S
Tb776 O798 2.399 . S
Tb777 O787 2.322 . S
Tb777 O788 2.349 . S
Tb777 O790 2.415 . S
Tb777 O791 2.399 . S
Tb777 O792 2.325 . S
Tb777 O795 2.303 . S
Tb777 C806 2.764 . S
C778 O794 1.261 . S
C778 O795 1.257 . S
C779 C782 1.358 . S
C779 C783 1.332 . S
C779 C785 1.504 . S
C780 C781 1.373 . S
C780 C784 1.308 . S
C781 C780 1.373 . S
C781 C782 1.429 . S
C781 H808 0.932 . S
C782 C779 1.358 . S
C782 C781 1.429 . S
C782 H809 0.930 . S
C783 C779 1.332 . S
C783 C784 1.394 . S
C783 H810 0.932 . S
C784 C780 1.308 . S
C784 C783 1.394 . S
C784 H811 0.929 . S
C785 Tb776 2.764 . S
C785 C779 1.504 . S
C785 O797 1.239 . S
C785 O798 1.263 . S
O786 Tb776 2.325 . S
O786 C796 1.236 . S
O787 Tb777 2.322 . S
O787 C796 1.257 . S
O788 Tb777 2.349 . S
O788 C799 1.261 . S
O789 Tb776 2.303 . S
O789 C799 1.257 . S
O790 Tb777 2.415 . S
O790 C806 1.239 . S
O791 Tb777 2.399 . S
O791 C806 1.263 . S
O792 Tb777 2.325 . S
O792 C807 1.236 . S
O793 Tb776 2.322 . S
O793 C807 1.257 . S
O794 Tb776 2.349 . S
O794 C778 1.261 . S
O795 Tb777 2.303 . S
O795 C778 1.257 . S
C796 O786 1.236 . S
C796 O787 1.257 . S
O797 Tb776 2.415 . S
O797 C785 1.239 . S
O798 Tb776 2.399 . S
O798 C785 1.263 . S
C799 O788 1.261 . S
C799 O789 1.257 . S
C800 C803 1.358 . S
C800 C804 1.332 . S
C800 C806 1.504 . S
C801 C802 1.373 . S
C801 C805 1.308 . S
C802 C801 1.373 . S
C802 C803 1.429 . S
C802 H812 0.932 . S
C803 C800 1.358 . S
C803 C802 1.429 . S
C803 H813 0.930 . S
C804 C800 1.332 . S
C804 C805 1.394 . S
C804 H814 0.932 . S
C805 C801 1.308 . S
C805 C804 1.394 . S
C805 H815 0.929 . S
C806 Tb777 2.764 . S
C806 O790 1.239 . S
C806 O791 1.263 . S
C806 C800 1.504 . S
C807 O792 1.236 . S
C807 O793 1.257 . S
H808 C781 0.932 . S
H809 C782 0.930 . S
H810 C783 0.932 . S
H811 C784 0.929 . S
H812 C802 0.932 . S
H813 C803 0.930 . S
H814 C804 0.932 . S
H815 C805 0.929 . S
Tb816 C825 2.764 . S
Tb816 O826 2.325 . S
Tb816 O829 2.303 . S
Tb816 O833 2.322 . S
Tb816 O834 2.349 . S
Tb816 O837 2.415 . S
Tb816 O838 2.399 . S
Tb817 O827 2.322 . S
Tb817 O828 2.349 . S
Tb817 O830 2.415 . S
Tb817 O831 2.399 . S
Tb817 O832 2.325 . S
Tb817 O835 2.303 . S
Tb817 C846 2.764 . S
C818 O834 1.261 . S
C818 O835 1.257 . S
C819 C822 1.358 . S
C819 C823 1.332 . S
C819 C825 1.504 . S
C820 C821 1.373 . S
C820 C824 1.308 . S
C821 C820 1.373 . S
C821 C822 1.429 . S
C821 H848 0.932 . S
C822 C819 1.358 . S
C822 C821 1.429 . S
C822 H849 0.930 . S
C823 C819 1.332 . S
C823 C824 1.394 . S
C823 H850 0.932 . S
C824 C820 1.308 . S
C824 C823 1.394 . S
C824 H851 0.929 . S
C825 Tb816 2.764 . S
C825 C819 1.504 . S
C825 O837 1.239 . S
C825 O838 1.263 . S
O826 Tb816 2.325 . S
O826 C836 1.236 . S
O827 Tb817 2.322 . S
O827 C836 1.257 . S
O828 Tb817 2.349 . S
O828 C839 1.261 . S
O829 Tb816 2.303 . S
O829 C839 1.257 . S
O830 Tb817 2.415 . S
O830 C846 1.239 . S
O831 Tb817 2.399 . S
O831 C846 1.263 . S
O832 Tb817 2.325 . S
O832 C847 1.236 . S
O833 Tb816 2.322 . S
O833 C847 1.257 . S
O834 Tb816 2.349 . S
O834 C818 1.261 . S
O835 Tb817 2.303 . S
O835 C818 1.257 . S
C836 O826 1.236 . S
C836 O827 1.257 . S
O837 Tb816 2.415 . S
O837 C825 1.239 . S
O838 Tb816 2.399 . S
O838 C825 1.263 . S
C839 O828 1.261 . S
C839 O829 1.257 . S
C840 C843 1.358 . S
C840 C844 1.332 . S
C840 C846 1.504 . S
C841 C842 1.373 . S
C841 C845 1.308 . S
C842 C841 1.373 . S
C842 C843 1.429 . S
C842 H852 0.932 . S
C843 C840 1.358 . S
C843 C842 1.429 . S
C843 H853 0.930 . S
C844 C840 1.332 . S
C844 C845 1.394 . S
C844 H854 0.932 . S
C845 C841 1.308 . S
C845 C844 1.394 . S
C845 H855 0.929 . S
C846 Tb817 2.764 . S
C846 O830 1.239 . S
C846 O831 1.263 . S
C846 C840 1.504 . S
C847 O832 1.236 . S
C847 O833 1.257 . S
H848 C821 0.932 . S
H849 C822 0.930 . S
H850 C823 0.932 . S
H851 C824 0.929 . S
H852 C842 0.932 . S
H853 C843 0.930 . S
H854 C844 0.932 . S
H855 C845 0.929 . S
Tb856 C865 2.764 . S
Tb856 O866 2.325 . S
Tb856 O869 2.303 . S
Tb856 O873 2.322 . S
Tb856 O874 2.349 . S
Tb856 O877 2.415 . S
Tb856 O878 2.399 . S
Tb857 O867 2.322 . S
Tb857 O868 2.349 . S
Tb857 O870 2.415 . S
Tb857 O871 2.399 . S
Tb857 O872 2.325 . S
Tb857 O875 2.303 . S
Tb857 C886 2.764 . S
C858 O874 1.261 . S
C858 O875 1.257 . S
C859 C862 1.358 . S
C859 C863 1.332 . S
C859 C865 1.504 . S
C860 C861 1.373 . S
C860 C864 1.308 . S
C861 C860 1.373 . S
C861 C862 1.429 . S
C861 H888 0.932 . S
C862 C859 1.358 . S
C862 C861 1.429 . S
C862 H889 0.930 . S
C863 C859 1.332 . S
C863 C864 1.394 . S
C863 H890 0.932 . S
C864 C860 1.308 . S
C864 C863 1.394 . S
C864 H891 0.929 . S
C865 Tb856 2.764 . S
C865 C859 1.504 . S
C865 O877 1.239 . S
C865 O878 1.263 . S
O866 Tb856 2.325 . S
O866 C876 1.236 . S
O867 Tb857 2.322 . S
O867 C876 1.257 . S
O868 Tb857 2.349 . S
O868 C879 1.261 . S
O869 Tb856 2.303 . S
O869 C879 1.257 . S
O870 Tb857 2.415 . S
O870 C886 1.239 . S
O871 Tb857 2.399 . S
O871 C886 1.263 . S
O872 Tb857 2.325 . S
O872 C887 1.236 . S
O873 Tb856 2.322 . S
O873 C887 1.257 . S
O874 Tb856 2.349 . S
O874 C858 1.261 . S
O875 Tb857 2.303 . S
O875 C858 1.257 . S
C876 O866 1.236 . S
C876 O867 1.257 . S
O877 Tb856 2.415 . S
O877 C865 1.239 . S
O878 Tb856 2.399 . S
O878 C865 1.263 . S
C879 O868 1.261 . S
C879 O869 1.257 . S
C880 C883 1.358 . S
C880 C884 1.332 . S
C880 C886 1.504 . S
C881 C882 1.373 . S
C881 C885 1.308 . S
C882 C881 1.373 . S
C882 C883 1.429 . S
C882 H892 0.932 1_565 S
C883 C880 1.358 . S
C883 C882 1.429 . S
C883 H893 0.930 . S
C884 C880 1.332 . S
C884 C885 1.394 . S
C884 H894 0.932 . S
C885 C881 1.308 . S
C885 C884 1.394 . S
C885 H895 0.929 . S
C886 Tb857 2.764 . S
C886 O870 1.239 . S
C886 O871 1.263 . S
C886 C880 1.504 . S
C887 O872 1.236 . S
C887 O873 1.257 . S
H888 C861 0.932 . S
H889 C862 0.930 . S
H890 C863 0.932 . S
H891 C864 0.929 . S
H892 C882 0.932 1_545 S
H893 C883 0.930 . S
H894 C884 0.932 . S
H895 C885 0.929 . S
Tb896 C905 2.764 . S
Tb896 O906 2.325 . S
Tb896 O909 2.303 . S
Tb896 O913 2.322 . S
Tb896 O914 2.349 . S
Tb896 O917 2.415 . S
Tb896 O918 2.399 . S
Tb897 O907 2.322 . S
Tb897 O908 2.349 . S
Tb897 O910 2.415 . S
Tb897 O911 2.399 . S
Tb897 O912 2.325 . S
Tb897 O915 2.303 . S
Tb897 C926 2.764 . S
C898 O914 1.261 . S
C898 O915 1.257 . S
C899 C902 1.358 . S
C899 C903 1.332 . S
C899 C905 1.504 . S
C900 C901 1.373 . S
C900 C904 1.308 . S
C901 C900 1.373 . S
C901 C902 1.429 . S
C901 H928 0.932 . S
C902 C899 1.358 . S
C902 C901 1.429 . S
C902 H929 0.930 . S
C903 C899 1.332 . S
C903 C904 1.394 . S
C903 H930 0.932 . S
C904 C900 1.308 . S
C904 C903 1.394 . S
C904 H931 0.929 . S
C905 Tb896 2.764 . S
C905 C899 1.504 . S
C905 O917 1.239 . S
C905 O918 1.263 . S
O906 Tb896 2.325 . S
O906 C916 1.236 . S
O907 Tb897 2.322 . S
O907 C916 1.257 . S
O908 Tb897 2.349 . S
O908 C919 1.261 . S
O909 Tb896 2.303 . S
O909 C919 1.257 . S
O910 Tb897 2.415 . S
O910 C926 1.239 . S
O911 Tb897 2.399 . S
O911 C926 1.263 . S
O912 Tb897 2.325 . S
O912 C927 1.236 . S
O913 Tb896 2.322 . S
O913 C927 1.257 . S
O914 Tb896 2.349 . S
O914 C898 1.261 . S
O915 Tb897 2.303 . S
O915 C898 1.257 . S
C916 O906 1.236 . S
C916 O907 1.257 . S
O917 Tb896 2.415 . S
O917 C905 1.239 . S
O918 Tb896 2.399 . S
O918 C905 1.263 . S
C919 O908 1.261 . S
C919 O909 1.257 . S
C920 C923 1.358 . S
C920 C924 1.332 . S
C920 C926 1.504 . S
C921 C922 1.373 . S
C921 C925 1.308 . S
C922 C921 1.373 . S
C922 C923 1.429 . S
C922 H932 0.932 . S
C923 C920 1.358 . S
C923 C922 1.429 . S
C923 H933 0.930 . S
C924 C920 1.332 . S
C924 C925 1.394 . S
C924 H934 0.932 . S
C925 C921 1.308 . S
C925 C924 1.394 . S
C925 H935 0.929 . S
C926 Tb897 2.764 . S
C926 O910 1.239 . S
C926 O911 1.263 . S
C926 C920 1.504 . S
C927 O912 1.236 . S
C927 O913 1.257 . S
H928 C901 0.932 . S
H929 C902 0.930 . S
H930 C903 0.932 . S
H931 C904 0.929 . S
H932 C922 0.932 . S
H933 C923 0.930 . S
H934 C924 0.932 . S
H935 C925 0.929 . S
Tb936 C945 2.764 1_455 S
Tb936 O946 2.325 . S
Tb936 O949 2.303 . S
Tb936 O953 2.322 . S
Tb936 O954 2.349 . S
Tb936 O957 2.415 1_455 S
Tb936 O958 2.399 1_455 S
Tb937 O947 2.322 . S
Tb937 O948 2.349 1_554 S
Tb937 O950 2.415 . S
Tb937 O951 2.399 1_554 S
Tb937 O952 2.325 . S
Tb937 O955 2.303 . S
Tb937 C966 2.764 . S
C938 O954 1.261 . S
C938 O955 1.257 . S
C939 C942 1.358 . S
C939 C943 1.332 . S
C939 C945 1.504 . S
C940 C941 1.373 . S
C940 C944 1.308 . S
C941 C940 1.373 . S
C941 C942 1.429 . S
C941 H968 0.932 . S
C942 C939 1.358 . S
C942 C941 1.429 . S
C942 H969 0.930 . S
C943 C939 1.332 . S
C943 C944 1.394 . S
C943 H970 0.932 . S
C944 C940 1.308 . S
C944 C943 1.394 . S
C944 H971 0.929 . S
C945 Tb936 2.764 1_655 S
C945 C939 1.504 . S
C945 O957 1.239 . S
C945 O958 1.263 . S
O946 Tb936 2.325 . S
O946 C956 1.236 . S
O947 Tb937 2.322 . S
O947 C956 1.257 . S
O948 Tb937 2.349 1_556 S
O948 C959 1.261 . S
O949 Tb936 2.303 . S
O949 C959 1.257 1_554 S
O950 Tb937 2.415 . S
O950 C966 1.239 . S
O951 Tb937 2.399 1_556 S
O951 C966 1.263 1_556 S
O952 Tb937 2.325 . S
O952 C967 1.236 . S
O953 Tb936 2.322 . S
O953 C967 1.257 . S
O954 Tb936 2.349 . S
O954 C938 1.261 . S
O955 Tb937 2.303 . S
O955 C938 1.257 . S
C956 O946 1.236 . S
C956 O947 1.257 . S
O957 Tb936 2.415 1_655 S
O957 C945 1.239 . S
O958 Tb936 2.399 1_655 S
O958 C945 1.263 . S
C959 O948 1.261 . S
C959 O949 1.257 1_556 S
C960 C963 1.358 1_554 S
C960 C964 1.332 . S
C960 C966 1.504 . S
C961 C962 1.373 1_554 S
C961 C965 1.308 . S
C962 C961 1.373 1_556 S
C962 C963 1.429 . S
C962 H972 0.932 . S
C963 C960 1.358 1_556 S
C963 C962 1.429 . S
C963 H973 0.930 . S
C964 C960 1.332 . S
C964 C965 1.394 . S
C964 H974 0.932 . S
C965 C961 1.308 . S
C965 C964 1.394 . S
C965 H975 0.929 . S
C966 Tb937 2.764 . S
C966 O950 1.239 . S
C966 O951 1.263 1_554 S
C966 C960 1.504 . S
C967 O952 1.236 . S
C967 O953 1.257 . S
H968 C941 0.932 . S
H969 C942 0.930 . S
H970 C943 0.932 . S
H971 C944 0.929 . S
H972 C962 0.932 . S
H973 C963 0.930 . S
H974 C964 0.932 . S
H975 C965 0.929 . S
C976 C977 1.377 . S
C976 C982 1.379 . S
C976 N984 1.356 . S
C977 C976 1.377 . S
C977 C983 1.358 1_454 S
C978 C979 1.365 . S
C978 C983 1.378 1_454 S
C978 N985 1.356 1_554 S
C979 C978 1.365 . S
C979 C982 1.363 . S
N980 C982 1.356 . S
N980 H992 0.984 . S
N980 H993 0.985 . S
N981 C983 1.356 . S
N981 H986 0.984 . S
N981 H987 0.985 . S
C982 C976 1.379 . S
C982 C979 1.363 . S
C982 N980 1.356 . S
C983 C977 1.358 1_656 S
C983 C978 1.378 1_656 S
C983 N981 1.356 . S
N984 C976 1.356 . S
N984 H990 0.984 . S
N984 H991 0.984 . S
N985 C978 1.356 1_556 S
N985 H988 0.984 1_556 S
N985 H989 0.985 1_455 S
H986 N981 0.984 . S
H987 N981 0.985 . S
H988 N985 0.984 1_554 S
H989 N985 0.985 1_655 S
H990 N984 0.984 . S
H991 N984 0.984 . S
H992 N980 0.984 . S
H993 N980 0.985 . S
C994 C995 1.363 . S
C994 C1000 1.379 . S
C994 N1002 1.356 . S
C995 C994 1.363 . S
C995 C1001 1.363 . S
C996 C997 1.363 . S
C996 C1001 1.379 . S
C996 N1003 1.356 . S
C997 C996 1.363 . S
C997 C1000 1.363 . S
N998 C1000 1.356 . S
N998 H1010 0.984 . S
N998 H1011 0.985 . S
N999 C1001 1.356 . S
N999 H1004 0.984 . S
N999 H1005 0.985 . S
C1000 C994 1.379 . S
C1000 C997 1.363 . S
C1000 N998 1.356 . S
C1001 C995 1.363 . S
C1001 C996 1.379 . S
C1001 N999 1.356 . S
N1002 C994 1.356 . S
N1002 H1008 0.984 . S
N1002 H1009 0.984 . S
N1003 C996 1.356 . S
N1003 H1006 0.984 . S
N1003 H1007 0.985 . S
H1004 N999 0.984 . S
H1005 N999 0.985 . S
H1006 N1003 0.984 . S
H1007 N1003 0.985 . S
H1008 N1002 0.984 . S
H1009 N1002 0.984 . S
H1010 N998 0.984 . S
H1011 N998 0.985 . S
C1012 C1013 1.363 . S
C1012 C1018 1.379 . S
C1012 N1020 1.356 . S
C1013 C1012 1.363 . S
C1013 C1019 1.363 . S
C1014 C1015 1.363 . S
C1014 C1019 1.379 . S
C1014 N1021 1.356 . S
C1015 C1014 1.363 . S
C1015 C1018 1.363 . S
N1016 C1018 1.356 . S
N1016 H1028 0.984 . S
N1016 H1029 0.985 . S
N1017 C1019 1.356 . S
N1017 H1022 0.984 . S
N1017 H1023 0.985 . S
C1018 C1012 1.379 . S
C1018 C1015 1.363 . S
C1018 N1016 1.356 . S
C1019 C1013 1.363 . S
C1019 C1014 1.379 . S
C1019 N1017 1.356 . S
N1020 C1012 1.356 . S
N1020 H1026 0.984 . S
N1020 H1027 0.984 . S
N1021 C1014 1.356 . S
N1021 H1024 0.984 . S
N1021 H1025 0.985 . S
H1022 N1017 0.984 . S
H1023 N1017 0.985 . S
H1024 N1021 0.984 . S
H1025 N1021 0.985 . S
H1026 N1020 0.984 . S
H1027 N1020 0.984 . S
H1028 N1016 0.984 . S
H1029 N1016 0.985 . S
C1030 C1031 1.363 . S
C1030 C1036 1.379 . S
C1030 N1038 1.356 . S
C1031 C1030 1.363 . S
C1031 C1037 1.363 . S
C1032 C1033 1.363 . S
C1032 C1037 1.379 . S
C1032 N1039 1.356 . S
C1033 C1032 1.363 . S
C1033 C1036 1.363 . S
N1034 C1036 1.356 . S
N1034 H1046 0.984 . S
N1034 H1047 0.985 . S
N1035 C1037 1.356 . S
N1035 H1040 0.984 . S
N1035 H1041 0.985 . S
C1036 C1030 1.379 . S
C1036 C1033 1.363 . S
C1036 N1034 1.356 . S
C1037 C1031 1.363 . S
C1037 C1032 1.379 . S
C1037 N1035 1.356 . S
N1038 C1030 1.356 . S
N1038 H1044 0.984 . S
N1038 H1045 0.984 . S
N1039 C1032 1.356 . S
N1039 H1042 0.984 . S
N1039 H1043 0.985 . S
H1040 N1035 0.984 . S
H1041 N1035 0.985 . S
H1042 N1039 0.984 . S
H1043 N1039 0.985 . S
H1044 N1038 0.984 . S
H1045 N1038 0.984 . S
H1046 N1034 0.984 . S
H1047 N1034 0.985 . S
C1048 C1049 1.363 . S
C1048 C1054 1.379 . S
C1048 N1056 1.356 . S
C1049 C1048 1.363 . S
C1049 C1055 1.363 . S
C1050 C1051 1.363 . S
C1050 C1055 1.379 . S
C1050 N1057 1.356 . S
C1051 C1050 1.363 . S
C1051 C1054 1.363 . S
N1052 C1054 1.356 . S
N1052 H1064 0.984 . S
N1052 H1065 0.985 1_565 S
N1053 C1055 1.356 . S
N1053 H1058 0.984 . S
N1053 H1059 0.985 . S
C1054 C1048 1.379 . S
C1054 C1051 1.363 . S
C1054 N1052 1.356 . S
C1055 C1049 1.363 . S
C1055 C1050 1.379 . S
C1055 N1053 1.356 . S
N1056 C1048 1.356 . S
N1056 H1062 0.984 . S
N1056 H1063 0.984 . S
N1057 C1050 1.356 . S
N1057 H1060 0.984 . S
N1057 H1061 0.985 . S
H1058 N1053 0.984 . S
H1059 N1053 0.985 . S
H1060 N1057 0.984 . S
H1061 N1057 0.985 . S
H1062 N1056 0.984 . S
H1063 N1056 0.984 . S
H1064 N1052 0.984 . S
H1065 N1052 0.985 1_545 S
C1066 C1067 1.363 . S
C1066 C1072 1.379 . S
C1066 N1074 1.356 . S
C1067 C1066 1.363 . S
C1067 C1073 1.363 . S
C1068 C1069 1.363 . S
C1068 C1073 1.379 . S
C1068 N1075 1.356 . S
C1069 C1068 1.363 . S
C1069 C1072 1.363 . S
N1070 C1072 1.356 . S
N1070 H1082 0.984 . S
N1070 H1083 0.985 . S
N1071 C1073 1.356 . S
N1071 H1076 0.984 . S
N1071 H1077 0.985 . S
C1072 C1066 1.379 . S
C1072 C1069 1.363 . S
C1072 N1070 1.356 . S
C1073 C1067 1.363 . S
C1073 C1068 1.379 . S
C1073 N1071 1.356 . S
N1074 C1066 1.356 . S
N1074 H1080 0.984 . S
N1074 H1081 0.984 . S
N1075 C1068 1.356 . S
N1075 H1078 0.984 . S
N1075 H1079 0.985 . S
H1076 N1071 0.984 . S
H1077 N1071 0.985 . S
H1078 N1075 0.984 . S
H1079 N1075 0.985 . S
H1080 N1074 0.984 . S
H1081 N1074 0.984 . S
H1082 N1070 0.984 . S
H1083 N1070 0.985 . S
C1084 C1085 1.363 . S
C1084 C1090 1.379 . S
C1084 N1092 1.356 . S
C1085 C1084 1.363 . S
C1085 C1091 1.363 . S
C1086 C1087 1.363 . S
C1086 C1091 1.379 . S
C1086 N1093 1.356 . S
C1087 C1086 1.363 . S
C1087 C1090 1.363 . S
N1088 C1090 1.356 . S
N1088 H1100 0.984 . S
N1088 H1101 0.985 . S
N1089 C1091 1.356 . S
N1089 H1094 0.984 . S
N1089 H1095 0.985 . S
C1090 C1084 1.379 . S
C1090 C1087 1.363 . S
C1090 N1088 1.356 . S
C1091 C1085 1.363 . S
C1091 C1086 1.379 . S
C1091 N1089 1.356 . S
N1092 C1084 1.356 . S
N1092 H1098 0.984 . S
N1092 H1099 0.984 . S
N1093 C1086 1.356 . S
N1093 H1096 0.984 . S
N1093 H1097 0.985 . S
H1094 N1089 0.984 . S
H1095 N1089 0.985 . S
H1096 N1093 0.984 . S
H1097 N1093 0.985 . S
H1098 N1092 0.984 . S
H1099 N1092 0.984 . S
H1100 N1088 0.984 . S
H1101 N1088 0.985 . S
C1102 C1103 1.363 . S
C1102 C1108 1.379 . S
C1102 N1110 1.356 . S
C1103 C1102 1.363 . S
C1103 C1109 1.363 . S
C1104 C1105 1.363 . S
C1104 C1109 1.379 . S
C1104 N1111 1.356 . S
C1105 C1104 1.363 . S
C1105 C1108 1.363 . S
N1106 C1108 1.356 . S
N1106 H1118 0.984 . S
N1106 H1119 0.985 . S
N1107 C1109 1.356 . S
N1107 H1112 0.984 . S
N1107 H1113 0.985 . S
C1108 C1102 1.379 . S
C1108 C1105 1.363 . S
C1108 N1106 1.356 . S
C1109 C1103 1.363 . S
C1109 C1104 1.379 . S
C1109 N1107 1.356 . S
N1110 C1102 1.356 . S
N1110 H1116 0.984 . S
N1110 H1117 0.984 . S
N1111 C1104 1.356 . S
N1111 H1114 0.984 . S
N1111 H1115 0.985 . S
H1112 N1107 0.984 . S
H1113 N1107 0.985 . S
H1114 N1111 0.984 . S
H1115 N1111 0.985 . S
H1116 N1110 0.984 . S
H1117 N1110 0.984 . S
H1118 N1106 0.984 . S
H1119 N1106 0.985 . S
C1120 C1121 1.363 . S
C1120 C1126 1.379 . S
C1120 N1128 1.356 . S
C1121 C1120 1.363 . S
C1121 C1127 1.363 . S
C1122 C1123 1.363 . S
C1122 C1127 1.379 1_455 S
C1122 N1129 1.356 . S
C1123 C1122 1.363 . S
C1123 C1126 1.363 1_455 S
N1124 C1126 1.356 . S
N1124 H1136 0.984 . S
N1124 H1137 0.985 1_655 S
N1125 C1127 1.356 1_565 S
N1125 H1130 0.984 . S
N1125 H1131 0.985 . S
C1126 C1120 1.379 . S
C1126 C1123 1.363 1_655 S
C1126 N1124 1.356 . S
C1127 C1121 1.363 . S
C1127 C1122 1.379 1_655 S
C1127 N1125 1.356 1_545 S
N1128 C1120 1.356 . S
N1128 H1134 0.984 . S
N1128 H1135 0.984 . S
N1129 C1122 1.356 . S
N1129 H1132 0.984 . S
N1129 H1133 0.985 . S
H1130 N1125 0.984 . S
H1131 N1125 0.985 . S
H1132 N1129 0.984 . S
H1133 N1129 0.985 . S
H1134 N1128 0.984 . S
H1135 N1128 0.984 . S
H1136 N1124 0.984 . S
H1137 N1124 0.985 1_455 S
C1138 C1139 1.363 . S
C1138 C1144 1.379 . S
C1138 N1146 1.356 . S
C1139 C1138 1.363 . S
C1139 C1145 1.363 . S
C1140 C1141 1.363 . S
C1140 C1145 1.379 . S
C1140 N1147 1.356 . S
C1141 C1140 1.363 . S
C1141 C1144 1.363 . S
N1142 C1144 1.356 . S
N1142 H1154 0.984 . S
N1142 H1155 0.985 . S
N1143 C1145 1.356 . S
N1143 H1148 0.984 . S
N1143 H1149 0.985 . S
C1144 C1138 1.379 . S
C1144 C1141 1.363 . S
C1144 N1142 1.356 . S
C1145 C1139 1.363 . S
C1145 C1140 1.379 . S
C1145 N1143 1.356 . S
N1146 C1138 1.356 . S
N1146 H1152 0.984 . S
N1146 H1153 0.984 . S
N1147 C1140 1.356 . S
N1147 H1150 0.984 . S
N1147 H1151 0.985 . S
H1148 N1143 0.984 . S
H1149 N1143 0.985 . S
H1150 N1147 0.984 . S
H1151 N1147 0.985 . S
H1152 N1146 0.984 . S
H1153 N1146 0.984 . S
H1154 N1142 0.984 . S
H1155 N1142 0.985 . S
C1156 C1157 1.363 . S
C1156 C1162 1.379 . S
C1156 N1164 1.356 . S
C1157 C1156 1.363 . S
C1157 C1163 1.363 . S
C1158 C1159 1.363 . S
C1158 C1163 1.379 . S
C1158 N1165 1.356 . S
C1159 C1158 1.363 . S
C1159 C1162 1.363 . S
N1160 C1162 1.356 . S
N1160 H1172 0.984 . S
N1160 H1173 0.985 . S
N1161 C1163 1.356 . S
N1161 H1166 0.984 . S
N1161 H1167 0.985 . S
C1162 C1156 1.379 . S
C1162 C1159 1.363 . S
C1162 N1160 1.356 . S
C1163 C1157 1.363 . S
C1163 C1158 1.379 . S
C1163 N1161 1.356 . S
N1164 C1156 1.356 . S
N1164 H1170 0.984 . S
N1164 H1171 0.984 . S
N1165 C1158 1.356 . S
N1165 H1168 0.984 . S
N1165 H1169 0.985 1_545 S
H1166 N1161 0.984 . S
H1167 N1161 0.985 . S
H1168 N1165 0.984 . S
H1169 N1165 0.985 1_565 S
H1170 N1164 0.984 . S
H1171 N1164 0.984 . S
H1172 N1160 0.984 . S
H1173 N1160 0.985 . S
C1174 C1175 1.363 . S
C1174 C1180 1.379 . S
C1174 N1182 1.356 . S
C1175 C1174 1.363 . S
C1175 C1181 1.363 . S
C1176 C1177 1.363 . S
C1176 C1181 1.379 . S
C1176 N1183 1.356 . S
C1177 C1176 1.363 . S
C1177 C1180 1.363 . S
N1178 C1180 1.356 . S
N1178 H1190 0.984 . S
N1178 H1191 0.985 . S
N1179 C1181 1.356 . S
N1179 H1184 0.984 . S
N1179 H1185 0.985 . S
C1180 C1174 1.379 . S
C1180 C1177 1.363 . S
C1180 N1178 1.356 . S
C1181 C1175 1.363 . S
C1181 C1176 1.379 . S
C1181 N1179 1.356 . S
N1182 C1174 1.356 . S
N1182 H1188 0.984 . S
N1182 H1189 0.984 . S
N1183 C1176 1.356 . S
N1183 H1186 0.984 . S
N1183 H1187 0.985 . S
H1184 N1179 0.984 . S
H1185 N1179 0.985 . S
H1186 N1183 0.984 . S
H1187 N1183 0.985 . S
H1188 N1182 0.984 . S
H1189 N1182 0.984 . S
H1190 N1178 0.984 . S
H1191 N1178 0.985 . S
C1192 C1193 1.363 . S
C1192 C1198 1.379 . S
C1192 N1200 1.356 . S
C1193 C1192 1.363 . S
C1193 C1199 1.363 1_545 S
C1194 C1195 1.363 1_565 S
C1194 C1199 1.379 . S
C1194 N1201 1.356 . S
C1195 C1194 1.363 1_545 S
C1195 C1198 1.363 . S
N1196 C1198 1.356 1_455 S
N1196 H1208 0.984 . S
N1196 H1209 0.985 . S
N1197 C1199 1.356 . S
N1197 H1202 0.984 . S
N1197 H1203 0.985 . S
C1198 C1192 1.379 . S
C1198 C1195 1.363 . S
C1198 N1196 1.356 1_655 S
C1199 C1193 1.363 1_565 S
C1199 C1194 1.379 . S
C1199 N1197 1.356 . S
N1200 C1192 1.356 . S
N1200 H1206 0.984 . S
N1200 H1207 0.984 . S
N1201 C1194 1.356 . S
N1201 H1204 0.984 . S
N1201 H1205 0.985 . S
H1202 N1197 0.984 . S
H1203 N1197 0.985 . S
H1204 N1201 0.984 . S
H1205 N1201 0.985 . S
H1206 N1200 0.984 . S
H1207 N1200 0.984 . S
H1208 N1196 0.984 . S
H1209 N1196 0.985 . S
C1210 C1211 1.363 . S
C1210 C1216 1.379 . S
C1210 N1218 1.356 . S
C1211 C1210 1.363 . S
C1211 C1217 1.363 . S
C1212 C1213 1.363 . S
C1212 C1217 1.379 . S
C1212 N1219 1.356 . S
C1213 C1212 1.363 . S
C1213 C1216 1.363 . S
N1214 C1216 1.356 . S
N1214 H1226 0.984 . S
N1214 H1227 0.985 . S
N1215 C1217 1.356 . S
N1215 H1220 0.984 . S
N1215 H1221 0.985 . S
C1216 C1210 1.379 . S
C1216 C1213 1.363 . S
C1216 N1214 1.356 . S
C1217 C1211 1.363 . S
C1217 C1212 1.379 . S
C1217 N1215 1.356 . S
N1218 C1210 1.356 . S
N1218 H1224 0.984 . S
N1218 H1225 0.984 . S
N1219 C1212 1.356 . S
N1219 H1222 0.984 . S
N1219 H1223 0.985 . S
H1220 N1215 0.984 . S
H1221 N1215 0.985 . S
H1222 N1219 0.984 . S
H1223 N1219 0.985 . S
H1224 N1218 0.984 . S
H1225 N1218 0.984 . S
H1226 N1214 0.984 . S
H1227 N1214 0.985 . S
C1228 C1229 1.363 . S
C1228 C1234 1.379 . S
C1228 N1236 1.356 . S
C1229 C1228 1.363 . S
C1229 C1235 1.363 . S
C1230 C1231 1.363 . S
C1230 C1235 1.379 . S
C1230 N1237 1.356 . S
C1231 C1230 1.363 . S
C1231 C1234 1.363 . S
N1232 C1234 1.356 . S
N1232 H1244 0.984 1_545 S
N1232 H1245 0.985 . S
N1233 C1235 1.356 . S
N1233 H1238 0.984 . S
N1233 H1239 0.985 . S
C1234 C1228 1.379 . S
C1234 C1231 1.363 . S
C1234 N1232 1.356 . S
C1235 C1229 1.363 . S
C1235 C1230 1.379 . S
C1235 N1233 1.356 . S
N1236 C1228 1.356 . S
N1236 H1242 0.984 . S
N1236 H1243 0.984 . S
N1237 C1230 1.356 . S
N1237 H1240 0.984 . S
N1237 H1241 0.985 . S
H1238 N1233 0.984 . S
H1239 N1233 0.985 . S
H1240 N1237 0.984 . S
H1241 N1237 0.985 . S
H1242 N1236 0.984 . S
H1243 N1236 0.984 . S
H1244 N1232 0.984 1_565 S
H1245 N1232 0.985 . S
C1246 C1247 1.363 . S
C1246 C1252 1.379 . S
C1246 N1254 1.356 . S
C1247 C1246 1.363 . S
C1247 C1253 1.363 . S
C1248 C1249 1.363 . S
C1248 C1253 1.379 . S
C1248 N1255 1.356 . S
C1249 C1248 1.363 . S
C1249 C1252 1.363 . S
N1250 C1252 1.356 . S
N1250 H1262 0.984 . S
N1250 H1263 0.985 . S
N1251 C1253 1.356 . S
N1251 H1256 0.984 . S
N1251 H1257 0.985 . S
C1252 C1246 1.379 . S
C1252 C1249 1.363 . S
C1252 N1250 1.356 . S
C1253 C1247 1.363 . S
C1253 C1248 1.379 . S
C1253 N1251 1.356 . S
N1254 C1246 1.356 . S
N1254 H1260 0.984 . S
N1254 H1261 0.984 . S
N1255 C1248 1.356 . S
N1255 H1258 0.984 . S
N1255 H1259 0.985 . S
H1256 N1251 0.984 . S
H1257 N1251 0.985 . S
H1258 N1255 0.984 . S
H1259 N1255 0.985 . S
H1260 N1254 0.984 . S
H1261 N1254 0.984 . S
H1262 N1250 0.984 . S
H1263 N1250 0.985 . S
C1264 C1265 1.363 . S
C1264 C1270 1.379 . S
C1264 N1272 1.356 1_544 S
C1265 C1264 1.363 . S
C1265 C1271 1.363 . S
C1266 C1267 1.363 . S
C1266 C1271 1.379 . S
C1266 N1273 1.356 . S
C1267 C1266 1.363 . S
C1267 C1270 1.363 . S
N1268 C1270 1.356 . S
N1268 H1280 0.980 1_545 S
N1268 H1281 0.985 . S
N1269 C1271 1.356 . S
N1269 H1274 0.984 . S
N1269 H1275 0.985 . S
C1270 C1264 1.379 . S
C1270 C1267 1.363 . S
C1270 N1268 1.356 . S
C1271 C1265 1.363 . S
C1271 C1266 1.379 . S
C1271 N1269 1.356 . S
N1272 C1264 1.356 1_566 S
N1272 H1278 0.984 . S
N1272 H1279 0.984 . S
N1273 C1266 1.356 . S
N1273 H1276 0.984 . S
N1273 H1277 0.985 . S
H1274 N1269 0.984 . S
H1275 N1269 0.985 . S
H1276 N1273 0.984 . S
H1277 N1273 0.985 . S
H1278 N1272 0.984 . S
H1279 N1272 0.984 . S
H1280 N1268 0.980 1_565 S
H1281 N1268 0.985 . S
C1282 C1283 1.363 . S
C1282 C1288 1.379 . S
C1282 N1290 1.356 . S
C1283 C1282 1.363 . S
C1283 C1289 1.363 . S
C1284 C1285 1.363 . S
C1284 C1289 1.379 . S
C1284 N1291 1.356 . S
C1285 C1284 1.363 . S
C1285 C1288 1.363 . S
N1286 C1288 1.356 . S
N1286 H1298 0.984 . S
N1286 H1299 0.985 . S
N1287 C1289 1.356 . S
N1287 H1292 0.984 . S
N1287 H1293 0.985 . S
C1288 C1282 1.379 . S
C1288 C1285 1.363 . S
C1288 N1286 1.356 . S
C1289 C1283 1.363 . S
C1289 C1284 1.379 . S
C1289 N1287 1.356 . S
N1290 C1282 1.356 . S
N1290 H1296 0.984 . S
N1290 H1297 0.984 . S
N1291 C1284 1.356 . S
N1291 H1294 0.984 . S
N1291 H1295 0.985 . S
H1292 N1287 0.984 . S
H1293 N1287 0.985 . S
H1294 N1291 0.984 . S
H1295 N1291 0.985 . S
H1296 N1290 0.984 . S
H1297 N1290 0.984 . S
H1298 N1286 0.984 . S
H1299 N1286 0.985 . S
C1300 C1301 1.363 . S
C1300 C1306 1.379 . S
C1300 N1308 1.356 . S
C1301 C1300 1.363 . S
C1301 C1307 1.363 . S
C1302 C1303 1.363 . S
C1302 C1307 1.379 . S
C1302 N1309 1.356 . S
C1303 C1302 1.363 . S
C1303 C1306 1.363 . S
N1304 C1306 1.356 . S
N1304 H1316 0.984 . S
N1304 H1317 0.985 . S
N1305 C1307 1.356 . S
N1305 H1310 0.984 . S
N1305 H1311 0.985 . S
C1306 C1300 1.379 . S
C1306 C1303 1.363 . S
C1306 N1304 1.356 . S
C1307 C1301 1.363 . S
C1307 C1302 1.379 . S
C1307 N1305 1.356 . S
N1308 C1300 1.356 . S
N1308 H1314 0.984 . S
N1308 H1315 0.984 . S
N1309 C1302 1.356 . S
N1309 H1312 0.984 . S
N1309 H1313 0.985 . S
H1310 N1305 0.984 . S
H1311 N1305 0.985 . S
H1312 N1309 0.984 . S
H1313 N1309 0.985 . S
H1314 N1308 0.984 . S
H1315 N1308 0.984 . S
H1316 N1304 0.984 . S
H1317 N1304 0.985 . S
C1318 C1319 1.363 . S
C1318 C1324 1.379 . S
C1318 N1326 1.356 . S
C1319 C1318 1.363 . S
C1319 C1325 1.363 . S
C1320 C1321 1.363 . S
C1320 C1325 1.379 . S
C1320 N1327 1.356 1_655 S
C1321 C1320 1.363 . S
C1321 C1324 1.363 . S
N1322 C1324 1.356 . S
N1322 H1334 0.984 . S
N1322 H1335 0.985 . S
N1323 C1325 1.356 . S
N1323 H1328 0.984 . S
N1323 H1329 0.985 . S
C1324 C1318 1.379 . S
C1324 C1321 1.363 . S
C1324 N1322 1.356 . S
C1325 C1319 1.363 . S
C1325 C1320 1.379 . S
C1325 N1323 1.356 . S
N1326 C1318 1.356 . S
N1326 H1332 0.984 . S
N1326 H1333 0.984 . S
N1327 C1320 1.356 1_455 S
N1327 H1330 0.984 . S
N1327 H1331 0.985 . S
H1328 N1323 0.984 . S
H1329 N1323 0.985 . S
H1330 N1327 0.984 . S
H1331 N1327 0.985 . S
H1332 N1326 0.984 . S
H1333 N1326 0.984 . S
H1334 N1322 0.984 . S
H1335 N1322 0.985 . S
C1336 C1337 1.363 . S
C1336 C1342 1.379 . S
C1336 N1344 1.356 . S
C1337 C1336 1.363 . S
C1337 C1343 1.363 . S
C1338 C1339 1.363 . S
C1338 C1343 1.379 . S
C1338 N1345 1.356 . S
C1339 C1338 1.363 . S
C1339 C1342 1.363 . S
N1340 C1342 1.356 . S
N1340 H1352 0.984 . S
N1340 H1353 0.985 . S
N1341 C1343 1.356 . S
N1341 H1346 0.984 . S
N1341 H1347 0.985 . S
C1342 C1336 1.379 . S
C1342 C1339 1.363 . S
C1342 N1340 1.356 . S
C1343 C1337 1.363 . S
C1343 C1338 1.379 . S
C1343 N1341 1.356 . S
N1344 C1336 1.356 . S
N1344 H1350 0.984 . S
N1344 H1351 0.984 . S
N1345 C1338 1.356 . S
N1345 H1348 0.984 . S
N1345 H1349 0.985 . S
H1346 N1341 0.984 . S
H1347 N1341 0.985 . S
H1348 N1345 0.984 . S
H1349 N1345 0.985 . S
H1350 N1344 0.984 . S
H1351 N1344 0.984 . S
H1352 N1340 0.984 . S
H1353 N1340 0.985 . S
C1354 C1355 1.363 . S
C1354 C1360 1.379 . S
C1354 N1362 1.356 . S
C1355 C1354 1.363 . S
C1355 C1361 1.363 . S
C1356 C1357 1.363 . S
C1356 C1361 1.379 . S
C1356 N1363 1.356 . S
C1357 C1356 1.363 . S
C1357 C1360 1.363 . S
N1358 C1360 1.356 . S
N1358 H1370 0.984 . S
N1358 H1371 0.985 . S
N1359 C1361 1.356 . S
N1359 H1364 0.984 . S
N1359 H1365 0.985 . S
C1360 C1354 1.379 . S
C1360 C1357 1.363 . S
C1360 N1358 1.356 . S
C1361 C1355 1.363 . S
C1361 C1356 1.379 . S
C1361 N1359 1.356 . S
N1362 C1354 1.356 . S
N1362 H1368 0.984 . S
N1362 H1369 0.984 . S
N1363 C1356 1.356 . S
N1363 H1366 0.984 . S
N1363 H1367 0.985 . S
H1364 N1359 0.984 . S
H1365 N1359 0.985 . S
H1366 N1363 0.984 . S
H1367 N1363 0.985 . S
H1368 N1362 0.984 . S
H1369 N1362 0.984 . S
H1370 N1358 0.984 . S
H1371 N1358 0.985 . S
C1372 C1373 1.363 . S
C1372 C1378 1.379 . S
C1372 N1380 1.356 . S
C1373 C1372 1.363 . S
C1373 C1379 1.363 . S
C1374 C1375 1.363 . S
C1374 C1379 1.379 . S
C1374 N1381 1.356 . S
C1375 C1374 1.363 . S
C1375 C1378 1.363 . S
N1376 C1378 1.356 . S
N1376 H1388 0.984 . S
N1376 H1389 0.985 . S
N1377 C1379 1.356 . S
N1377 H1382 0.984 . S
N1377 H1383 0.985 . S
C1378 C1372 1.379 . S
C1378 C1375 1.363 . S
C1378 N1376 1.356 . S
C1379 C1373 1.363 . S
C1379 C1374 1.379 . S
C1379 N1377 1.356 . S
N1380 C1372 1.356 . S
N1380 H1386 0.984 . S
N1380 H1387 0.984 . S
N1381 C1374 1.356 . S
N1381 H1384 0.984 . S
N1381 H1385 0.985 . S
H1382 N1377 0.984 . S
H1383 N1377 0.985 . S
H1384 N1381 0.984 . S
H1385 N1381 0.985 . S
H1386 N1380 0.984 . S
H1387 N1380 0.984 . S
H1388 N1376 0.984 . S
H1389 N1376 0.985 . S
C1390 C1391 1.363 . S
C1390 C1396 1.379 . S
C1390 N1398 1.356 . S
C1391 C1390 1.363 . S
C1391 C1397 1.363 . S
C1392 C1393 1.363 . S
C1392 C1397 1.379 . S
C1392 N1399 1.356 . S
C1393 C1392 1.363 . S
C1393 C1396 1.363 . S
N1394 C1396 1.356 . S
N1394 H1406 0.984 . S
N1394 H1407 0.985 . S
N1395 C1397 1.356 . S
N1395 H1400 0.984 . S
N1395 H1401 0.985 . S
C1396 C1390 1.379 . S
C1396 C1393 1.363 . S
C1396 N1394 1.356 . S
C1397 C1391 1.363 . S
C1397 C1392 1.379 . S
C1397 N1395 1.356 . S
N1398 C1390 1.356 . S
N1398 H1404 0.984 . S
N1398 H1405 0.984 . S
N1399 C1392 1.356 . S
N1399 H1402 0.984 . S
N1399 H1403 0.985 . S
H1400 N1395 0.984 . S
H1401 N1395 0.985 . S
H1402 N1399 0.984 . S
H1403 N1399 0.985 . S
H1404 N1398 0.984 . S
H1405 N1398 0.984 . S
H1406 N1394 0.984 . S
H1407 N1394 0.985 . S
C1408 C1409 1.363 . S
C1408 C1414 1.379 . S
C1408 N1416 1.356 . S
C1409 C1408 1.363 . S
C1409 C1415 1.363 . S
C1410 C1411 1.363 . S
C1410 C1415 1.379 . S
C1410 N1417 1.356 . S
C1411 C1410 1.363 . S
C1411 C1414 1.363 . S
N1412 C1414 1.356 . S
N1412 H1424 0.984 . S
N1412 H1425 0.985 . S
N1413 C1415 1.356 . S
N1413 H1418 0.984 . S
N1413 H1419 0.985 . S
C1414 C1408 1.379 . S
C1414 C1411 1.363 . S
C1414 N1412 1.356 . S
C1415 C1409 1.363 . S
C1415 C1410 1.379 . S
C1415 N1413 1.356 . S
N1416 C1408 1.356 . S
N1416 H1422 0.984 . S
N1416 H1423 0.984 . S
N1417 C1410 1.356 . S
N1417 H1420 0.984 . S
N1417 H1421 0.985 1_554 S
H1418 N1413 0.984 . S
H1419 N1413 0.985 . S
H1420 N1417 0.984 . S
H1421 N1417 0.985 1_556 S
H1422 N1416 0.984 . S
H1423 N1416 0.984 . S
H1424 N1412 0.984 . S
H1425 N1412 0.985 . S
C1426 C1427 1.363 . S
C1426 C1432 1.379 . S
C1426 N1434 1.356 . S
C1427 C1426 1.363 . S
C1427 C1433 1.363 . S
C1428 C1429 1.363 . S
C1428 C1433 1.379 . S
C1428 N1435 1.356 . S
C1429 C1428 1.363 . S
C1429 C1432 1.363 . S
N1430 C1432 1.356 . S
N1430 H1442 0.984 . S
N1430 H1443 0.985 . S
N1431 C1433 1.356 . S
N1431 H1436 0.984 . S
N1431 H1437 0.985 . S
C1432 C1426 1.379 . S
C1432 C1429 1.363 . S
C1432 N1430 1.356 . S
C1433 C1427 1.363 . S
C1433 C1428 1.379 . S
C1433 N1431 1.356 . S
N1434 C1426 1.356 . S
N1434 H1440 0.984 . S
N1434 H1441 0.984 . S
N1435 C1428 1.356 . S
N1435 H1438 0.984 . S
N1435 H1439 0.985 . S
H1436 N1431 0.984 . S
H1437 N1431 0.985 . S
H1438 N1435 0.984 . S
H1439 N1435 0.985 . S
H1440 N1434 0.984 . S
H1441 N1434 0.984 . S
H1442 N1430 0.984 . S
H1443 N1430 0.985 . S
C1444 C1445 1.363 . S
C1444 C1450 1.379 . S
C1444 N1452 1.356 . S
C1445 C1444 1.363 . S
C1445 C1451 1.363 . S
C1446 C1447 1.363 . S
C1446 C1451 1.379 . S
C1446 N1453 1.356 . S
C1447 C1446 1.363 . S
C1447 C1450 1.363 . S
N1448 C1450 1.356 . S
N1448 H1460 0.984 . S
N1448 H1461 0.985 . S
N1449 C1451 1.356 . S
N1449 H1454 0.984 . S
N1449 H1455 0.985 . S
C1450 C1444 1.379 . S
C1450 C1447 1.363 . S
C1450 N1448 1.356 . S
C1451 C1445 1.363 . S
C1451 C1446 1.379 . S
C1451 N1449 1.356 . S
N1452 C1444 1.356 . S
N1452 H1458 0.984 . S
N1452 H1459 0.984 . S
N1453 C1446 1.356 . S
N1453 H1456 0.984 . S
N1453 H1457 0.985 . S
H1454 N1449 0.984 . S
H1455 N1449 0.985 . S
H1456 N1453 0.984 . S
H1457 N1453 0.985 . S
H1458 N1452 0.984 . S
H1459 N1452 0.984 . S
H1460 N1448 0.984 . S
H1461 N1448 0.985 . S
C1462 C1463 1.363 . S
C1462 C1468 1.379 . S
C1462 N1470 1.356 . S
C1463 C1462 1.363 . S
C1463 C1469 1.363 . S
C1464 C1465 1.363 . S
C1464 C1469 1.379 . S
C1464 N1471 1.356 . S
C1465 C1464 1.363 . S
C1465 C1468 1.363 . S
N1466 C1468 1.356 . S
N1466 H1478 0.984 . S
N1466 H1479 0.985 . S
N1467 C1469 1.356 . S
N1467 H1472 0.984 . S
N1467 H1473 0.985 . S
C1468 C1462 1.379 . S
C1468 C1465 1.363 . S
C1468 N1466 1.356 . S
C1469 C1463 1.363 . S
C1469 C1464 1.379 . S
C1469 N1467 1.356 . S
N1470 C1462 1.356 . S
N1470 H1476 0.984 . S
N1470 H1477 0.984 . S
N1471 C1464 1.356 . S
N1471 H1474 0.984 . S
N1471 H1475 0.985 . S
H1472 N1467 0.984 . S
H1473 N1467 0.985 . S
H1474 N1471 0.984 . S
H1475 N1471 0.985 . S
H1476 N1470 0.984 . S
H1477 N1470 0.984 . S
H1478 N1466 0.984 . S
H1479 N1466 0.985 . S
C1480 C1481 1.363 . S
C1480 C1486 1.379 . S
C1480 N1488 1.356 1_455 S
C1481 C1480 1.363 . S
C1481 C1487 1.363 . S
C1482 C1483 1.363 . S
C1482 C1487 1.379 . S
C1482 N1489 1.356 . S
C1483 C1482 1.363 . S
C1483 C1486 1.363 . S
N1484 C1486 1.356 1_655 S
N1484 H1496 0.984 . S
N1484 H1497 0.985 . S
N1485 C1487 1.356 . S
N1485 H1490 0.984 . S
N1485 H1491 0.985 . S
C1486 C1480 1.379 . S
C1486 C1483 1.363 . S
C1486 N1484 1.356 1_455 S
C1487 C1481 1.363 . S
C1487 C1482 1.379 . S
C1487 N1485 1.356 . S
N1488 C1480 1.356 1_655 S
N1488 H1494 0.984 . S
N1488 H1495 0.984 1_655 S
N1489 C1482 1.356 . S
N1489 H1492 0.984 . S
N1489 H1493 0.985 . S
H1490 N1485 0.984 . S
H1491 N1485 0.985 . S
H1492 N1489 0.984 . S
H1493 N1489 0.985 . S
H1494 N1488 0.984 . S
H1495 N1488 0.984 1_455 S
H1496 N1484 0.984 . S
H1497 N1484 0.985 . S
C1498 C1499 1.363 . S
C1498 C1504 1.379 . S
C1498 N1506 1.356 . S
C1499 C1498 1.363 . S
C1499 C1505 1.363 . S
C1500 C1501 1.363 . S
C1500 C1505 1.379 . S
C1500 N1507 1.356 . S
C1501 C1500 1.363 . S
C1501 C1504 1.363 . S
N1502 C1504 1.356 . S
N1502 H1514 0.984 . S
N1502 H1515 0.985 . S
N1503 C1505 1.356 . S
N1503 H1508 0.984 . S
N1503 H1509 0.985 . S
C1504 C1498 1.379 . S
C1504 C1501 1.363 . S
C1504 N1502 1.356 . S
C1505 C1499 1.363 . S
C1505 C1500 1.379 . S
C1505 N1503 1.356 . S
N1506 C1498 1.356 . S
N1506 H1512 0.984 . S
N1506 H1513 0.984 . S
N1507 C1500 1.356 . S
N1507 H1510 0.984 . S
N1507 H1511 0.985 . S
H1508 N1503 0.984 . S
H1509 N1503 0.985 . S
H1510 N1507 0.984 . S
H1511 N1507 0.985 . S
H1512 N1506 0.984 . S
H1513 N1506 0.984 . S
H1514 N1502 0.984 . S
H1515 N1502 0.985 . S
C1516 C1517 1.363 . S
C1516 C1522 1.379 . S
C1516 N1524 1.356 . S
C1517 C1516 1.363 . S
C1517 C1523 1.363 . S
C1518 C1519 1.363 . S
C1518 C1523 1.379 . S
C1518 N1525 1.356 1_556 S
C1519 C1518 1.363 . S
C1519 C1522 1.363 . S
N1520 C1522 1.356 . S
N1520 H1532 0.984 . S
N1520 H1533 1.007 . S
N1521 C1523 1.356 . S
N1521 H1526 0.984 . S
N1521 H1527 0.985 1_556 S
C1522 C1516 1.379 . S
C1522 C1519 1.363 . S
C1522 N1520 1.356 . S
C1523 C1517 1.363 . S
C1523 C1518 1.379 . S
C1523 N1521 1.356 . S
N1524 C1516 1.356 . S
N1524 H1530 0.984 . S
N1524 H1531 0.984 . S
N1525 C1518 1.356 1_554 S
N1525 H1528 0.984 . S
N1525 H1529 0.985 . S
H1526 N1521 0.984 . S
H1527 N1521 0.985 1_554 S
H1528 N1525 0.984 . S
H1529 N1525 0.985 . S
H1530 N1524 0.984 . S
H1531 N1524 0.984 . S
H1532 N1520 0.984 . S
H1533 N1520 1.007 . S
C1534 C1535 1.363 . S
C1534 C1540 1.379 . S
C1534 N1542 1.356 . S
C1535 C1534 1.363 . S
C1535 C1541 1.363 . S
C1536 C1537 1.363 . S
C1536 C1541 1.379 . S
C1536 N1543 1.356 . S
C1537 C1536 1.363 . S
C1537 C1540 1.363 . S
N1538 C1540 1.356 . S
N1538 H1550 0.984 . S
N1538 H1551 0.985 . S
N1539 C1541 1.356 . S
N1539 H1544 0.984 . S
N1539 H1545 0.985 . S
C1540 C1534 1.379 . S
C1540 C1537 1.363 . S
C1540 N1538 1.356 . S
C1541 C1535 1.363 . S
C1541 C1536 1.379 . S
C1541 N1539 1.356 . S
N1542 C1534 1.356 . S
N1542 H1548 0.984 . S
N1542 H1549 0.984 . S
N1543 C1536 1.356 . S
N1543 H1546 0.984 . S
N1543 H1547 0.985 . S
H1544 N1539 0.984 . S
H1545 N1539 0.985 . S
H1546 N1543 0.984 . S
H1547 N1543 0.985 . S
H1548 N1542 0.984 . S
H1549 N1542 0.984 . S
H1550 N1538 0.984 . S
H1551 N1538 0.985 . S
C1552 C1553 1.363 . S
C1552 C1558 1.379 . S
C1552 N1560 1.356 . S
C1553 C1552 1.363 . S
C1553 C1559 1.363 . S
C1554 C1555 1.363 . S
C1554 C1559 1.379 . S
C1554 N1561 1.356 . S
C1555 C1554 1.363 . S
C1555 C1558 1.363 . S
N1556 C1558 1.356 . S
N1556 H1568 0.984 . S
N1556 H1569 0.985 . S
N1557 C1559 1.356 . S
N1557 H1562 0.984 . S
N1557 H1563 0.985 . S
C1558 C1552 1.379 . S
C1558 C1555 1.363 . S
C1558 N1556 1.356 . S
C1559 C1553 1.363 . S
C1559 C1554 1.379 . S
C1559 N1557 1.356 . S
N1560 C1552 1.356 . S
N1560 H1566 0.984 . S
N1560 H1567 0.984 . S
N1561 C1554 1.356 . S
N1561 H1564 0.984 . S
N1561 H1565 0.985 . S
H1562 N1557 0.984 . S
H1563 N1557 0.985 . S
H1564 N1561 0.984 . S
H1565 N1561 0.985 . S
H1566 N1560 0.984 . S
H1567 N1560 0.984 . S
H1568 N1556 0.984 . S
H1569 N1556 0.985 . S
C1570 C1571 1.363 . S
C1570 C1576 1.379 . S
C1570 N1578 1.356 . S
C1571 C1570 1.363 . S
C1571 C1577 1.363 . S
C1572 C1573 1.363 . S
C1572 C1577 1.379 . S
C1572 N1579 1.356 . S
C1573 C1572 1.363 . S
C1573 C1576 1.363 . S
N1574 C1576 1.356 . S
N1574 H1586 0.984 . S
N1574 H1587 0.985 . S
N1575 C1577 1.356 . S
N1575 H1580 0.984 . S
N1575 H1581 0.985 . S
C1576 C1570 1.379 . S
C1576 C1573 1.363 . S
C1576 N1574 1.356 . S
C1577 C1571 1.363 . S
C1577 C1572 1.379 . S
C1577 N1575 1.356 . S
N1578 C1570 1.356 . S
N1578 H1584 0.984 . S
N1578 H1585 0.984 . S
N1579 C1572 1.356 . S
N1579 H1582 0.984 . S
N1579 H1583 0.985 . S
H1580 N1575 0.984 . S
H1581 N1575 0.985 . S
H1582 N1579 0.984 . S
H1583 N1579 0.985 . S
H1584 N1578 0.984 . S
H1585 N1578 0.984 . S
H1586 N1574 0.984 . S
H1587 N1574 0.985 . S
C1588 C1589 1.363 . S
C1588 C1594 1.379 . S
C1588 N1596 1.356 . S
C1589 C1588 1.363 . S
C1589 C1595 1.363 . S
C1590 C1591 1.363 . S
C1590 C1595 1.379 . S
C1590 N1597 1.356 . S
C1591 C1590 1.363 . S
C1591 C1594 1.363 . S
N1592 C1594 1.356 . S
N1592 H1604 0.984 . S
N1592 H1605 0.985 . S
N1593 C1595 1.356 . S
N1593 H1598 0.984 . S
N1593 H1599 0.985 . S
C1594 C1588 1.379 . S
C1594 C1591 1.363 . S
C1594 N1592 1.356 . S
C1595 C1589 1.363 . S
C1595 C1590 1.379 . S
C1595 N1593 1.356 . S
N1596 C1588 1.356 . S
N1596 H1602 0.984 1_545 S
N1596 H1603 0.984 . S
N1597 C1590 1.356 . S
N1597 H1600 0.984 . S
N1597 H1601 0.985 . S
H1598 N1593 0.984 . S
H1599 N1593 0.985 . S
H1600 N1597 0.984 . S
H1601 N1597 0.985 . S
H1602 N1596 0.984 1_565 S
H1603 N1596 0.984 . S
H1604 N1592 0.984 . S
H1605 N1592 0.985 . S
C1606 C1607 1.363 . S
C1606 C1612 1.379 . S
C1606 N1614 1.356 . S
C1607 C1606 1.363 . S
C1607 C1613 1.363 . S
C1608 C1609 1.363 . S
C1608 C1613 1.379 . S
C1608 N1615 1.356 . S
C1609 C1608 1.363 . S
C1609 C1612 1.363 . S
N1610 C1612 1.356 . S
N1610 H1622 0.984 . S
N1610 H1623 0.985 . S
N1611 C1613 1.356 . S
N1611 H1616 0.984 . S
N1611 H1617 0.985 . S
C1612 C1606 1.379 . S
C1612 C1609 1.363 . S
C1612 N1610 1.356 . S
C1613 C1607 1.363 . S
C1613 C1608 1.379 . S
C1613 N1611 1.356 . S
N1614 C1606 1.356 . S
N1614 H1620 0.984 . S
N1614 H1621 0.984 . S
N1615 C1608 1.356 . S
N1615 H1618 0.984 . S
N1615 H1619 0.985 . S
H1616 N1611 0.984 . S
H1617 N1611 0.985 . S
H1618 N1615 0.984 . S
H1619 N1615 0.985 . S
H1620 N1614 0.984 . S
H1621 N1614 0.984 . S
H1622 N1610 0.984 . S
H1623 N1610 0.985 . S
C1624 C1625 1.363 . S
C1624 C1630 1.379 . S
C1624 N1632 1.356 . S
C1625 C1624 1.363 . S
C1625 C1631 1.363 . S
C1626 C1627 1.363 . S
C1626 C1631 1.379 . S
C1626 N1633 1.356 . S
C1627 C1626 1.363 . S
C1627 C1630 1.363 . S
N1628 C1630 1.356 . S
N1628 H1640 0.984 . S
N1628 H1641 0.985 . S
N1629 C1631 1.356 . S
N1629 H1634 0.984 . S
N1629 H1635 0.985 . S
C1630 C1624 1.379 . S
C1630 C1627 1.363 . S
C1630 N1628 1.356 . S
C1631 C1625 1.363 . S
C1631 C1626 1.379 . S
C1631 N1629 1.356 . S
N1632 C1624 1.356 . S
N1632 H1638 0.984 . S
N1632 H1639 0.984 . S
N1633 C1626 1.356 . S
N1633 H1636 0.984 . S
N1633 H1637 0.985 . S
H1634 N1629 0.984 . S
H1635 N1629 0.985 . S
H1636 N1633 0.984 . S
H1637 N1633 0.985 . S
H1638 N1632 0.984 . S
H1639 N1632 0.984 . S
H1640 N1628 0.984 . S
H1641 N1628 0.985 . S
C1642 C1643 1.363 . S
C1642 C1648 1.379 . S
C1642 N1650 1.356 . S
C1643 C1642 1.363 . S
C1643 C1649 1.363 . S
C1644 C1645 1.363 . S
C1644 C1649 1.379 . S
C1644 N1651 1.356 . S
C1645 C1644 1.363 . S
C1645 C1648 1.363 . S
N1646 C1648 1.356 . S
N1646 H1658 0.984 . S
N1646 H1659 0.985 . S
N1647 C1649 1.356 . S
N1647 H1652 0.984 . S
N1647 H1653 0.985 . S
C1648 C1642 1.379 . S
C1648 C1645 1.363 . S
C1648 N1646 1.356 . S
C1649 C1643 1.363 . S
C1649 C1644 1.379 . S
C1649 N1647 1.356 . S
N1650 C1642 1.356 . S
N1650 H1656 0.984 . S
N1650 H1657 0.984 . S
N1651 C1644 1.356 . S
N1651 H1654 0.984 . S
N1651 H1655 0.985 . S
H1652 N1647 0.984 . S
H1653 N1647 0.985 . S
H1654 N1651 0.984 . S
H1655 N1651 0.985 . S
H1656 N1650 0.984 . S
H1657 N1650 0.984 . S
H1658 N1646 0.984 . S
H1659 N1646 0.985 . S
C1660 C1661 1.363 . S
C1660 C1666 1.379 . S
C1660 N1668 1.356 . S
C1661 C1660 1.363 . S
C1661 C1667 1.363 . S
C1662 C1663 1.363 . S
C1662 C1667 1.379 . S
C1662 N1669 1.356 . S
C1663 C1662 1.363 . S
C1663 C1666 1.363 . S
N1664 C1666 1.356 . S
N1664 H1676 0.984 . S
N1664 H1677 0.985 . S
N1665 C1667 1.356 1_565 S
N1665 H1670 0.984 1_565 S
N1665 H1671 0.985 . S
C1666 C1660 1.379 . S
C1666 C1663 1.363 . S
C1666 N1664 1.356 . S
C1667 C1661 1.363 . S
C1667 C1662 1.379 . S
C1667 N1665 1.356 1_545 S
N1668 C1660 1.356 . S
N1668 H1674 0.984 . S
N1668 H1675 0.984 . S
N1669 C1662 1.356 . S
N1669 H1672 0.984 . S
N1669 H1673 0.985 1_545 S
H1670 N1665 0.984 1_545 S
H1671 N1665 0.985 . S
H1672 N1669 0.984 . S
H1673 N1669 0.985 1_565 S
H1674 N1668 0.984 . S
H1675 N1668 0.984 . S
H1676 N1664 0.984 . S
H1677 N1664 0.985 . S
C1678 C1679 1.363 . S
C1678 C1684 1.379 . S
C1678 N1686 1.356 . S
C1679 C1678 1.363 . S
C1679 C1685 1.363 . S
C1680 C1681 1.363 . S
C1680 C1685 1.379 . S
C1680 N1687 1.356 . S
C1681 C1680 1.363 . S
C1681 C1684 1.363 . S
N1682 C1684 1.356 . S
N1682 H1694 0.984 . S
N1682 H1695 0.985 . S
N1683 C1685 1.356 . S
N1683 H1688 0.984 . S
N1683 H1689 0.985 . S
C1684 C1678 1.379 . S
C1684 C1681 1.363 . S
C1684 N1682 1.356 . S
C1685 C1679 1.363 . S
C1685 C1680 1.379 . S
C1685 N1683 1.356 . S
N1686 C1678 1.356 . S
N1686 H1692 0.984 . S
N1686 H1693 0.984 . S
N1687 C1680 1.356 . S
N1687 H1690 0.984 . S
N1687 H1691 0.985 . S
H1688 N1683 0.984 . S
H1689 N1683 0.985 . S
H1690 N1687 0.984 . S
H1691 N1687 0.985 . S
H1692 N1686 0.984 . S
H1693 N1686 0.984 . S
H1694 N1682 0.984 . S
H1695 N1682 0.985 . S
C1696 C1697 1.363 . S
C1696 C1702 1.379 . S
C1696 N1704 1.356 . S
C1697 C1696 1.363 . S
C1697 C1703 1.363 . S
C1698 C1699 1.363 . S
C1698 C1703 1.379 . S
C1698 N1705 1.356 1_554 S
C1699 C1698 1.363 . S
C1699 C1702 1.363 . S
N1700 C1702 1.356 . S
N1700 H1712 0.984 . S
N1700 H1713 0.985 . S
N1701 C1703 1.356 . S
N1701 H1706 0.984 . S
N1701 H1707 0.985 . S
C1702 C1696 1.379 . S
C1702 C1699 1.363 . S
C1702 N1700 1.356 . S
C1703 C1697 1.363 . S
C1703 C1698 1.379 . S
C1703 N1701 1.356 . S
N1704 C1696 1.356 . S
N1704 H1710 0.984 . S
N1704 H1711 0.984 . S
N1705 C1698 1.356 1_556 S
N1705 H1708 0.984 . S
N1705 H1709 0.985 . S
H1706 N1701 0.984 . S
H1707 N1701 0.985 . S
H1708 N1705 0.984 . S
H1709 N1705 0.985 . S
H1710 N1704 0.984 . S
H1711 N1704 0.984 . S
H1712 N1700 0.984 . S
H1713 N1700 0.985 . S
C1714 C1715 1.363 . S
C1714 C1720 1.379 . S
C1714 N1722 1.356 . S
C1715 C1714 1.363 . S
C1715 C1721 1.363 . S
C1716 C1717 1.363 . S
C1716 C1721 1.379 . S
C1716 N1723 1.356 . S
C1717 C1716 1.363 . S
C1717 C1720 1.363 . S
N1718 C1720 1.356 . S
N1718 H1730 0.984 . S
N1718 H1731 0.985 . S
N1719 C1721 1.356 . S
N1719 H1724 0.984 . S
N1719 H1725 0.985 . S
C1720 C1714 1.379 . S
C1720 C1717 1.363 . S
C1720 N1718 1.356 . S
C1721 C1715 1.363 . S
C1721 C1716 1.379 . S
C1721 N1719 1.356 . S
N1722 C1714 1.356 . S
N1722 H1728 0.984 . S
N1722 H1729 0.984 . S
N1723 C1716 1.356 . S
N1723 H1726 0.984 . S
N1723 H1727 0.985 . S
H1724 N1719 0.984 . S
H1725 N1719 0.985 . S
H1726 N1723 0.984 . S
H1727 N1723 0.985 . S
H1728 N1722 0.984 . S
H1729 N1722 0.984 . S
H1730 N1718 0.984 . S
H1731 N1718 0.985 . S
C1732 C1733 1.363 . S
C1732 C1738 1.379 . S
C1732 N1740 1.356 . S
C1733 C1732 1.363 . S
C1733 C1739 1.363 . S
C1734 C1735 1.363 . S
C1734 C1739 1.379 . S
C1734 N1741 1.356 . S
C1735 C1734 1.363 . S
C1735 C1738 1.363 . S
N1736 C1738 1.356 . S
N1736 H1748 0.984 . S
N1736 H1749 0.985 . S
N1737 C1739 1.356 . S
N1737 H1742 0.984 . S
N1737 H1743 0.985 . S
C1738 C1732 1.379 . S
C1738 C1735 1.363 . S
C1738 N1736 1.356 . S
C1739 C1733 1.363 . S
C1739 C1734 1.379 . S
C1739 N1737 1.356 . S
N1740 C1732 1.356 . S
N1740 H1746 0.984 . S
N1740 H1747 0.984 . S
N1741 C1734 1.356 . S
N1741 H1744 0.984 . S
N1741 H1745 0.985 . S
H1742 N1737 0.984 . S
H1743 N1737 0.985 . S
H1744 N1741 0.984 . S
H1745 N1741 0.985 . S
H1746 N1740 0.984 . S
H1747 N1740 0.984 . S
H1748 N1736 0.984 . S
H1749 N1736 0.985 . S
C1750 C1751 1.363 . S
C1750 C1756 1.379 . S
C1750 N1758 1.356 . S
C1751 C1750 1.363 . S
C1751 C1757 1.363 . S
C1752 C1753 1.363 . S
C1752 C1757 1.379 . S
C1752 N1759 1.356 . S
C1753 C1752 1.363 . S
C1753 C1756 1.363 . S
N1754 C1756 1.356 . S
N1754 H1766 0.984 . S
N1754 H1767 0.985 . S
N1755 C1757 1.356 . S
N1755 H1760 0.984 . S
N1755 H1761 0.985 . S
C1756 C1750 1.379 . S
C1756 C1753 1.363 . S
C1756 N1754 1.356 . S
C1757 C1751 1.363 . S
C1757 C1752 1.379 . S
C1757 N1755 1.356 . S
N1758 C1750 1.356 . S
N1758 H1764 0.984 . S
N1758 H1765 0.984 . S
N1759 C1752 1.356 . S
N1759 H1762 0.984 . S
N1759 H1763 0.985 . S
H1760 N1755 0.984 . S
H1761 N1755 0.985 . S
H1762 N1759 0.984 . S
H1763 N1759 0.985 . S
H1764 N1758 0.984 . S
H1765 N1758 0.984 . S
H1766 N1754 0.984 . S
H1767 N1754 0.985 . S
C1768 C1769 1.363 1_565 S
C1768 C1774 1.379 . S
C1768 N1776 1.356 . S
C1769 C1768 1.363 1_545 S
C1769 C1775 1.363 . S
C1770 C1771 1.363 . S
C1770 C1775 1.379 . S
C1770 N1777 1.356 . S
C1771 C1770 1.363 . S
C1771 C1774 1.363 1_545 S
N1772 C1774 1.356 . S
N1772 H1784 0.984 . S
N1772 H1785 0.985 . S
N1773 C1775 1.356 . S
N1773 H1778 0.984 . S
N1773 H1779 0.985 . S
C1774 C1768 1.379 . S
C1774 C1771 1.363 1_565 S
C1774 N1772 1.356 . S
C1775 C1769 1.363 . S
C1775 C1770 1.379 . S
C1775 N1773 1.356 . S
N1776 C1768 1.356 . S
N1776 H1782 0.984 . S
N1776 H1783 0.984 . S
N1777 C1770 1.356 . S
N1777 H1780 0.984 . S
N1777 H1781 0.985 . S
H1778 N1773 0.984 . S
H1779 N1773 0.985 . S
H1780 N1777 0.984 . S
H1781 N1777 0.985 . S
H1782 N1776 0.984 . S
H1783 N1776 0.984 . S
H1784 N1772 0.984 . S
H1785 N1772 0.985 . S
C1786 C1787 1.363 . S
C1786 C1792 1.379 . S
C1786 N1794 1.356 . S
C1787 C1786 1.363 . S
C1787 C1793 1.363 . S
C1788 C1789 1.363 . S
C1788 C1793 1.379 . S
C1788 N1795 1.356 . S
C1789 C1788 1.363 . S
C1789 C1792 1.363 . S
N1790 C1792 1.356 . S
N1790 H1802 0.984 . S
N1790 H1803 0.985 . S
N1791 C1793 1.356 . S
N1791 H1796 0.984 . S
N1791 H1797 0.985 . S
C1792 C1786 1.379 . S
C1792 C1789 1.363 . S
C1792 N1790 1.356 . S
C1793 C1787 1.363 . S
C1793 C1788 1.379 . S
C1793 N1791 1.356 . S
N1794 C1786 1.356 . S
N1794 H1800 0.984 . S
N1794 H1801 0.984 . S
N1795 C1788 1.356 . S
N1795 H1798 0.984 . S
N1795 H1799 0.985 . S
H1796 N1791 0.984 . S
H1797 N1791 0.985 . S
H1798 N1795 0.984 . S
H1799 N1795 0.985 . S
H1800 N1794 0.984 . S
H1801 N1794 0.984 . S
H1802 N1790 0.984 . S
H1803 N1790 0.985 . S
C1804 C1805 1.363 . S
C1804 C1810 1.379 . S
C1804 N1812 1.356 . S
C1805 C1804 1.363 . S
C1805 C1811 1.363 . S
C1806 C1807 1.363 . S
C1806 C1811 1.379 . S
C1806 N1813 1.356 . S
C1807 C1806 1.363 . S
C1807 C1810 1.363 . S
N1808 C1810 1.356 . S
N1808 H1820 0.984 . S
N1808 H1821 0.985 . S
N1809 C1811 1.356 . S
N1809 H1814 0.984 . S
N1809 H1815 0.985 . S
C1810 C1804 1.379 . S
C1810 C1807 1.363 . S
C1810 N1808 1.356 . S
C1811 C1805 1.363 . S
C1811 C1806 1.379 . S
C1811 N1809 1.356 . S
N1812 C1804 1.356 . S
N1812 H1818 0.984 . S
N1812 H1819 0.984 . S
N1813 C1806 1.356 . S
N1813 H1816 0.984 . S
N1813 H1817 0.985 . S
H1814 N1809 0.984 . S
H1815 N1809 0.985 . S
H1816 N1813 0.984 . S
H1817 N1813 0.985 . S
H1818 N1812 0.984 . S
H1819 N1812 0.984 . S
H1820 N1808 0.984 . S
H1821 N1808 0.985 . S
C1822 C1823 1.363 . S
C1822 C1828 1.379 . S
C1822 N1830 1.356 . S
C1823 C1822 1.363 . S
C1823 C1829 1.363 . S
C1824 C1825 1.363 . S
C1824 C1829 1.379 . S
C1824 N1831 1.356 . S
C1825 C1824 1.363 . S
C1825 C1828 1.363 . S
N1826 C1828 1.356 . S
N1826 H1838 0.984 . S
N1826 H1839 0.985 . S
N1827 C1829 1.356 . S
N1827 H1832 0.984 . S
N1827 H1833 0.985 . S
C1828 C1822 1.379 . S
C1828 C1825 1.363 . S
C1828 N1826 1.356 . S
C1829 C1823 1.363 . S
C1829 C1824 1.379 . S
C1829 N1827 1.356 . S
N1830 C1822 1.356 . S
N1830 H1836 0.984 . S
N1830 H1837 0.984 . S
N1831 C1824 1.356 . S
N1831 H1834 0.984 . S
N1831 H1835 0.985 . S
H1832 N1827 0.984 . S
H1833 N1827 0.985 . S
H1834 N1831 0.984 . S
H1835 N1831 0.985 . S
H1836 N1830 0.984 . S
H1837 N1830 0.984 . S
H1838 N1826 0.984 . S
H1839 N1826 0.985 . S
C1840 C1841 1.363 . S
C1840 C1846 1.379 . S
C1840 N1848 1.356 . S
C1841 C1840 1.363 . S
C1841 C1847 1.363 . S
C1842 C1843 1.363 . S
C1842 C1847 1.379 . S
C1842 N1849 1.356 . S
C1843 C1842 1.363 . S
C1843 C1846 1.363 . S
N1844 C1846 1.356 . S
N1844 H1856 0.984 . S
N1844 H1857 0.985 . S
N1845 C1847 1.356 . S
N1845 H1850 0.984 . S
N1845 H1851 0.985 . S
C1846 C1840 1.379 . S
C1846 C1843 1.363 . S
C1846 N1844 1.356 . S
C1847 C1841 1.363 . S
C1847 C1842 1.379 . S
C1847 N1845 1.356 . S
N1848 C1840 1.356 . S
N1848 H1854 0.984 . S
N1848 H1855 0.984 . S
N1849 C1842 1.356 . S
N1849 H1852 0.984 . S
N1849 H1853 0.985 . S
H1850 N1845 0.984 . S
H1851 N1845 0.985 . S
H1852 N1849 0.984 . S
H1853 N1849 0.985 . S
H1854 N1848 0.984 . S
H1855 N1848 0.984 . S
H1856 N1844 0.984 . S
H1857 N1844 0.985 . S
C1858 C1859 1.363 . S
C1858 C1864 1.379 . S
C1858 N1866 1.356 . S
C1859 C1858 1.363 . S
C1859 C1865 1.363 . S
C1860 C1861 1.363 . S
C1860 C1865 1.379 . S
C1860 N1867 1.356 . S
C1861 C1860 1.363 . S
C1861 C1864 1.363 . S
N1862 C1864 1.356 . S
N1862 H1874 0.984 . S
N1862 H1875 0.985 . S
N1863 C1865 1.356 . S
N1863 H1868 0.984 . S
N1863 H1869 0.985 . S
C1864 C1858 1.379 . S
C1864 C1861 1.363 . S
C1864 N1862 1.356 . S
C1865 C1859 1.363 . S
C1865 C1860 1.379 . S
C1865 N1863 1.356 . S
N1866 C1858 1.356 . S
N1866 H1872 0.984 . S
N1866 H1873 0.984 . S
N1867 C1860 1.356 . S
N1867 H1870 0.984 . S
N1867 H1871 0.985 . S
H1868 N1863 0.984 . S
H1869 N1863 0.985 . S
H1870 N1867 0.984 . S
H1871 N1867 0.985 . S
H1872 N1866 0.984 . S
H1873 N1866 0.984 . S
H1874 N1862 0.984 . S
H1875 N1862 0.985 . S
C1876 C1877 1.363 1_554 S
C1876 C1882 1.379 . S
C1876 N1884 1.356 1_455 S
C1877 C1876 1.363 1_556 S
C1877 C1883 1.363 . S
C1878 C1879 1.363 1_556 S
C1878 C1883 1.379 . S
C1878 N1885 1.356 . S
C1879 C1878 1.363 1_554 S
C1879 C1882 1.363 . S
N1880 C1882 1.356 . S
N1880 H1892 0.984 1_455 S
N1880 H1893 0.985 . S
N1881 C1883 1.356 . S
N1881 H1886 0.984 . S
N1881 H1887 0.985 . S
C1882 C1876 1.379 . S
C1882 C1879 1.363 . S
C1882 N1880 1.356 . S
C1883 C1877 1.363 . S
C1883 C1878 1.379 . S
C1883 N1881 1.356 . S
N1884 C1876 1.356 1_655 S
N1884 H1890 0.984 . S
N1884 H1891 0.984 . S
N1885 C1878 1.356 . S
N1885 H1888 0.988 . S
N1885 H1889 0.985 . S
H1886 N1881 0.984 . S
H1887 N1881 0.985 . S
H1888 N1885 0.988 . S
H1889 N1885 0.985 . S
H1890 N1884 0.984 . S
H1891 N1884 0.984 . S
H1892 N1880 0.984 1_655 S
H1893 N1880 0.985 . S
C1894 C1895 1.363 . S
C1894 C1900 1.379 . S
C1894 N1902 1.356 . S
C1895 C1894 1.363 . S
C1895 C1901 1.363 . S
C1896 C1897 1.363 . S
C1896 C1901 1.379 1_655 S
C1896 N1903 1.356 . S
C1897 C1896 1.363 . S
C1897 C1900 1.363 1_655 S
N1898 C1900 1.356 . S
N1898 H1910 0.984 . S
N1898 H1911 0.985 1_455 S
N1899 C1901 1.356 . S
N1899 H1904 0.984 . S
N1899 H1905 0.985 . S
C1900 C1894 1.379 . S
C1900 C1897 1.363 1_455 S
C1900 N1898 1.356 . S
C1901 C1895 1.363 . S
C1901 C1896 1.379 1_455 S
C1901 N1899 1.356 . S
N1902 C1894 1.356 . S
N1902 H1908 0.984 . S
N1902 H1909 0.984 . S
N1903 C1896 1.356 . S
N1903 H1906 0.984 . S
N1903 H1907 0.985 . S
H1904 N1899 0.984 . S
H1905 N1899 0.985 . S
H1906 N1903 0.984 . S
H1907 N1903 0.985 . S
H1908 N1902 0.984 . S
H1909 N1902 0.984 . S
H1910 N1898 0.984 . S
H1911 N1898 0.985 1_655 S
C1912 C1913 1.363 . S
C1912 C1918 1.379 . S
C1912 N1920 1.356 . S
C1913 C1912 1.363 . S
C1913 C1919 1.363 . S
C1914 C1915 1.363 . S
C1914 C1919 1.379 . S
C1914 N1921 1.356 . S
C1915 C1914 1.363 . S
C1915 C1918 1.363 . S
N1916 C1918 1.356 . S
N1916 H1928 0.984 . S
N1916 H1929 0.985 . S
N1917 C1919 1.356 . S
N1917 H1922 0.984 . S
N1917 H1923 0.985 . S
C1918 C1912 1.379 . S
C1918 C1915 1.363 . S
C1918 N1916 1.356 . S
C1919 C1913 1.363 . S
C1919 C1914 1.379 . S
C1919 N1917 1.356 . S
N1920 C1912 1.356 . S
N1920 H1926 0.984 . S
N1920 H1927 0.984 . S
N1921 C1914 1.356 . S
N1921 H1924 0.984 . S
N1921 H1925 0.985 . S
H1922 N1917 0.984 . S
H1923 N1917 0.985 . S
H1924 N1921 0.984 . S
H1925 N1921 0.985 . S
H1926 N1920 0.984 . S
H1927 N1920 0.984 . S
H1928 N1916 0.984 . S
H1929 N1916 0.985 . S
C1930 C1931 1.363 . S
C1930 C1936 1.379 . S
C1930 N1938 1.356 . S
C1931 C1930 1.363 . S
C1931 C1937 1.363 . S
C1932 C1933 1.363 . S
C1932 C1937 1.379 . S
C1932 N1939 1.356 . S
C1933 C1932 1.363 . S
C1933 C1936 1.363 . S
N1934 C1936 1.356 . S
N1934 H1946 0.984 . S
N1934 H1947 0.985 . S
N1935 C1937 1.356 . S
N1935 H1940 0.984 . S
N1935 H1941 0.985 . S
C1936 C1930 1.379 . S
C1936 C1933 1.363 . S
C1936 N1934 1.356 . S
C1937 C1931 1.363 . S
C1937 C1932 1.379 . S
C1937 N1935 1.356 . S
N1938 C1930 1.356 . S
N1938 H1944 0.984 . S
N1938 H1945 0.984 . S
N1939 C1932 1.356 . S
N1939 H1942 0.984 . S
N1939 H1943 0.985 . S
H1940 N1935 0.984 . S
H1941 N1935 0.985 . S
H1942 N1939 0.984 . S
H1943 N1939 0.985 . S
H1944 N1938 0.984 . S
H1945 N1938 0.984 . S
H1946 N1934 0.984 . S
H1947 N1934 0.985 . S
C1948 C1949 1.363 . S
C1948 C1954 1.379 . S
C1948 N1956 1.356 . S
C1949 C1948 1.363 . S
C1949 C1955 1.363 . S
C1950 C1951 1.363 . S
C1950 C1955 1.379 . S
C1950 N1957 1.356 . S
C1951 C1950 1.363 . S
C1951 C1954 1.363 . S
N1952 C1954 1.356 . S
N1952 H1964 0.984 . S
N1952 H1965 0.985 . S
N1953 C1955 1.356 . S
N1953 H1958 0.984 . S
N1953 H1959 0.985 . S
C1954 C1948 1.379 . S
C1954 C1951 1.363 . S
C1954 N1952 1.356 . S
C1955 C1949 1.363 . S
C1955 C1950 1.379 . S
C1955 N1953 1.356 . S
N1956 C1948 1.356 . S
N1956 H1962 0.984 . S
N1956 H1963 0.984 . S
N1957 C1950 1.356 . S
N1957 H1960 0.984 . S
N1957 H1961 0.985 . S
H1958 N1953 0.984 . S
H1959 N1953 0.985 . S
H1960 N1957 0.984 . S
H1961 N1957 0.985 . S
H1962 N1956 0.984 . S
H1963 N1956 0.984 . S
H1964 N1952 0.984 . S
H1965 N1952 0.985 . S
C1966 C1967 1.363 . S
C1966 C1972 1.379 . S
C1966 N1974 1.356 . S
C1967 C1966 1.363 . S
C1967 C1973 1.363 . S
C1968 C1969 1.363 . S
C1968 C1973 1.379 . S
C1968 N1975 1.356 . S
C1969 C1968 1.363 . S
C1969 C1972 1.363 . S
N1970 C1972 1.356 . S
N1970 H1982 0.984 . S
N1970 H1983 0.985 . S
N1971 C1973 1.356 . S
N1971 H1976 0.984 . S
N1971 H1977 0.985 . S
C1972 C1966 1.379 . S
C1972 C1969 1.363 . S
C1972 N1970 1.356 . S
C1973 C1967 1.363 . S
C1973 C1968 1.379 . S
C1973 N1971 1.356 . S
N1974 C1966 1.356 . S
N1974 H1980 0.984 . S
N1974 H1981 0.984 . S
N1975 C1968 1.356 . S
N1975 H1978 0.984 . S
N1975 H1979 0.985 . S
H1976 N1971 0.984 . S
H1977 N1971 0.985 . S
H1978 N1975 0.984 . S
H1979 N1975 0.985 . S
H1980 N1974 0.984 . S
H1981 N1974 0.984 . S
H1982 N1970 0.984 . S
H1983 N1970 0.985 . S
C1984 C1985 1.363 . S
C1984 C1990 1.379 . S
C1984 N1992 1.356 . S
C1985 C1984 1.363 . S
C1985 C1991 1.363 . S
C1986 C1987 1.363 . S
C1986 C1991 1.379 . S
C1986 N1993 1.356 . S
C1987 C1986 1.363 . S
C1987 C1990 1.363 . S
N1988 C1990 1.356 . S
N1988 H2000 0.984 . S
N1988 H2001 0.985 . S
N1989 C1991 1.356 . S
N1989 H1994 0.984 . S
N1989 H1995 0.985 . S
C1990 C1984 1.379 . S
C1990 C1987 1.363 . S
C1990 N1988 1.356 . S
C1991 C1985 1.363 . S
C1991 C1986 1.379 . S
C1991 N1989 1.356 . S
N1992 C1984 1.356 . S
N1992 H1998 0.984 . S
N1992 H1999 0.984 . S
N1993 C1986 1.356 . S
N1993 H1996 0.984 . S
N1993 H1997 0.985 . S
H1994 N1989 0.984 . S
H1995 N1989 0.985 . S
H1996 N1993 0.984 . S
H1997 N1993 0.985 . S
H1998 N1992 0.984 . S
H1999 N1992 0.984 . S
H2000 N1988 0.984 . S
H2001 N1988 0.985 . S
C2002 C2003 1.363 . S
C2002 C2008 1.379 1_554 S
C2002 N2010 1.356 . S
C2003 C2002 1.363 . S
C2003 C2009 1.363 1_554 S
C2004 C2005 1.363 . S
C2004 C2009 1.379 . S
C2004 N2011 1.356 . S
C2005 C2004 1.363 . S
C2005 C2008 1.363 . S
N2006 C2008 1.356 . S
N2006 H2018 0.984 1_556 S
N2006 H2019 0.985 . S
N2007 C2009 1.356 1_554 S
N2007 H2012 0.984 . S
N2007 H2013 0.985 1_554 S
C2008 C2002 1.379 1_556 S
C2008 C2005 1.363 . S
C2008 N2006 1.356 . S
C2009 C2003 1.363 1_556 S
C2009 C2004 1.379 . S
C2009 N2007 1.356 1_556 S
N2010 C2002 1.356 . S
N2010 H2016 0.984 . S
N2010 H2017 0.984 . S
N2011 C2004 1.356 . S
N2011 H2014 0.984 . S
N2011 H2015 0.985 . S
H2012 N2007 0.984 . S
H2013 N2007 0.985 1_556 S
H2014 N2011 0.984 . S
H2015 N2011 0.985 . S
H2016 N2010 0.984 . S
H2017 N2010 0.984 . S
H2018 N2006 0.984 1_554 S
H2019 N2006 0.985 . S
C2020 C2021 1.363 . S
C2020 C2026 1.379 . S
C2020 N2028 1.356 . S
C2021 C2020 1.363 . S
C2021 C2027 1.363 . S
C2022 C2023 1.363 . S
C2022 C2027 1.379 . S
C2022 N2029 1.356 . S
C2023 C2022 1.363 . S
C2023 C2026 1.363 . S
N2024 C2026 1.356 . S
N2024 H2036 0.984 . S
N2024 H2037 0.985 . S
N2025 C2027 1.356 . S
N2025 H2030 0.984 . S
N2025 H2031 0.985 . S
C2026 C2020 1.379 . S
C2026 C2023 1.363 . S
C2026 N2024 1.356 . S
C2027 C2021 1.363 . S
C2027 C2022 1.379 . S
C2027 N2025 1.356 . S
N2028 C2020 1.356 . S
N2028 H2034 0.984 . S
N2028 H2035 0.984 . S
N2029 C2022 1.356 . S
N2029 H2032 0.984 . S
N2029 H2033 0.985 . S
H2030 N2025 0.984 . S
H2031 N2025 0.985 . S
H2032 N2029 0.984 . S
H2033 N2029 0.985 . S
H2034 N2028 0.984 . S
H2035 N2028 0.984 . S
H2036 N2024 0.984 . S
H2037 N2024 0.985 . S
C2038 C2039 1.363 . S
C2038 C2044 1.379 . S
C2038 N2046 1.356 . S
C2039 C2038 1.363 . S
C2039 C2045 1.363 . S
C2040 C2041 1.363 . S
C2040 C2045 1.379 . S
C2040 N2047 1.356 . S
C2041 C2040 1.363 . S
C2041 C2044 1.363 . S
N2042 C2044 1.356 . S
N2042 H2054 0.984 . S
N2042 H2055 0.985 . S
N2043 C2045 1.356 . S
N2043 H2048 0.984 . S
N2043 H2049 0.985 . S
C2044 C2038 1.379 . S
C2044 C2041 1.363 . S
C2044 N2042 1.356 . S
C2045 C2039 1.363 . S
C2045 C2040 1.379 . S
C2045 N2043 1.356 . S
N2046 C2038 1.356 . S
N2046 H2052 0.984 . S
N2046 H2053 0.984 . S
N2047 C2040 1.356 . S
N2047 H2050 0.984 . S
N2047 H2051 0.985 . S
H2048 N2043 0.984 . S
H2049 N2043 0.985 . S
H2050 N2047 0.984 . S
H2051 N2047 0.985 . S
H2052 N2046 0.984 . S
H2053 N2046 0.984 . S
H2054 N2042 0.984 . S
H2055 N2042 0.985 . S
C2056 C2057 1.363 . S
C2056 C2062 1.379 . S
C2056 N2064 1.356 . S
C2057 C2056 1.363 . S
C2057 C2063 1.363 . S
C2058 C2059 1.363 . S
C2058 C2063 1.379 . S
C2058 N2065 1.356 . S
C2059 C2058 1.363 . S
C2059 C2062 1.363 . S
N2060 C2062 1.356 . S
N2060 H2072 0.984 . S
N2060 H2073 0.985 . S
N2061 C2063 1.356 . S
N2061 H2066 0.984 . S
N2061 H2067 0.985 . S
C2062 C2056 1.379 . S
C2062 C2059 1.363 . S
C2062 N2060 1.356 . S
C2063 C2057 1.363 . S
C2063 C2058 1.379 . S
C2063 N2061 1.356 . S
N2064 C2056 1.356 . S
N2064 H2070 0.984 . S
N2064 H2071 0.984 . S
N2065 C2058 1.356 . S
N2065 H2068 0.984 . S
N2065 H2069 0.985 . S
H2066 N2061 0.984 . S
H2067 N2061 0.985 . S
H2068 N2065 0.984 . S
H2069 N2065 0.985 . S
H2070 N2064 0.984 . S
H2071 N2064 0.984 . S
H2072 N2060 0.984 . S
H2073 N2060 0.985 . S
C2074 C2075 1.363 . S
C2074 C2080 1.379 . S
C2074 N2082 1.356 . S
C2075 C2074 1.363 . S
C2075 C2081 1.363 . S
C2076 C2077 1.363 . S
C2076 C2081 1.379 . S
C2076 N2083 1.356 . S
C2077 C2076 1.363 . S
C2077 C2080 1.363 . S
N2078 C2080 1.356 . S
N2078 H2090 0.984 . S
N2078 H2091 0.985 . S
N2079 C2081 1.356 . S
N2079 H2084 0.984 . S
N2079 H2085 0.985 . S
C2080 C2074 1.379 . S
C2080 C2077 1.363 . S
C2080 N2078 1.356 . S
C2081 C2075 1.363 . S
C2081 C2076 1.379 . S
C2081 N2079 1.356 . S
N2082 C2074 1.356 . S
N2082 H2088 0.984 . S
N2082 H2089 0.984 . S
N2083 C2076 1.356 . S
N2083 H2086 0.984 . S
N2083 H2087 0.985 . S
H2084 N2079 0.984 . S
H2085 N2079 0.985 . S
H2086 N2083 0.984 . S
H2087 N2083 0.985 . S
H2088 N2082 0.984 . S
H2089 N2082 0.984 . S
H2090 N2078 0.984 . S
H2091 N2078 0.985 . S
C2092 C2093 1.363 . S
C2092 C2098 1.379 . S
C2092 N2100 1.356 . S
C2093 C2092 1.363 . S
C2093 C2099 1.363 . S
C2094 C2095 1.363 . S
C2094 C2099 1.379 . S
C2094 N2101 1.356 . S
C2095 C2094 1.363 . S
C2095 C2098 1.363 . S
N2096 C2098 1.356 . S
N2096 H2108 0.984 . S
N2096 H2109 0.985 . S
N2097 C2099 1.356 . S
N2097 H2102 0.984 . S
N2097 H2103 0.985 . S
C2098 C2092 1.379 . S
C2098 C2095 1.363 . S
C2098 N2096 1.356 . S
C2099 C2093 1.363 . S
C2099 C2094 1.379 . S
C2099 N2097 1.356 . S
N2100 C2092 1.356 . S
N2100 H2106 0.984 . S
N2100 H2107 0.984 . S
N2101 C2094 1.356 . S
N2101 H2104 0.984 . S
N2101 H2105 0.985 . S
H2102 N2097 0.984 . S
H2103 N2097 0.985 . S
H2104 N2101 0.984 . S
H2105 N2101 0.985 . S
H2106 N2100 0.984 . S
H2107 N2100 0.984 . S
H2108 N2096 0.984 . S
H2109 N2096 0.985 . S
C2110 C2111 1.363 . S
C2110 C2116 1.379 . S
C2110 N2118 1.356 . S
C2111 C2110 1.363 . S
C2111 C2117 1.363 . S
C2112 C2113 1.363 . S
C2112 C2117 1.379 . S
C2112 N2119 1.356 . S
C2113 C2112 1.363 . S
C2113 C2116 1.363 . S
N2114 C2116 1.356 . S
N2114 H2126 0.984 . S
N2114 H2127 0.985 . S
N2115 C2117 1.356 . S
N2115 H2120 0.984 . S
N2115 H2121 0.985 . S
C2116 C2110 1.379 . S
C2116 C2113 1.363 . S
C2116 N2114 1.356 . S
C2117 C2111 1.363 . S
C2117 C2112 1.379 . S
C2117 N2115 1.356 . S
N2118 C2110 1.356 . S
N2118 H2124 0.984 . S
N2118 H2125 0.984 . S
N2119 C2112 1.356 . S
N2119 H2122 0.984 . S
N2119 H2123 0.985 . S
H2120 N2115 0.984 . S
H2121 N2115 0.985 . S
H2122 N2119 0.984 . S
H2123 N2119 0.985 . S
H2124 N2118 0.984 . S
H2125 N2118 0.984 . S
H2126 N2114 0.984 . S
H2127 N2114 0.985 . S
C2128 C2129 1.363 . S
C2128 C2134 1.379 . S
C2128 N2136 1.356 . S
C2129 C2128 1.363 . S
C2129 C2135 1.363 . S
C2130 C2131 1.363 . S
C2130 C2135 1.379 . S
C2130 N2137 1.356 . S
C2131 C2130 1.363 . S
C2131 C2134 1.363 . S
N2132 C2134 1.356 . S
N2132 H2144 0.984 . S
N2132 H2145 0.985 . S
N2133 C2135 1.356 . S
N2133 H2138 0.984 . S
N2133 H2139 0.985 . S
C2134 C2128 1.379 . S
C2134 C2131 1.363 . S
C2134 N2132 1.356 . S
C2135 C2129 1.363 . S
C2135 C2130 1.379 . S
C2135 N2133 1.356 . S
N2136 C2128 1.356 . S
N2136 H2142 0.984 . S
N2136 H2143 0.984 . S
N2137 C2130 1.356 . S
N2137 H2140 0.984 . S
N2137 H2141 0.985 . S
H2138 N2133 0.984 . S
H2139 N2133 0.985 . S
H2140 N2137 0.984 . S
H2141 N2137 0.985 . S
H2142 N2136 0.984 . S
H2143 N2136 0.984 . S
H2144 N2132 0.984 . S
H2145 N2132 0.985 . S
C2146 C2147 1.363 . S
C2146 C2152 1.379 . S
C2146 N2154 1.356 . S
C2147 C2146 1.363 . S
C2147 C2153 1.363 . S
C2148 C2149 1.363 . S
C2148 C2153 1.379 . S
C2148 N2155 1.356 . S
C2149 C2148 1.363 . S
C2149 C2152 1.363 . S
N2150 C2152 1.356 . S
N2150 H2162 0.984 . S
N2150 H2163 0.985 . S
N2151 C2153 1.356 . S
N2151 H2156 0.984 . S
N2151 H2157 0.985 . S
C2152 C2146 1.379 . S
C2152 C2149 1.363 . S
C2152 N2150 1.356 . S
C2153 C2147 1.363 . S
C2153 C2148 1.379 . S
C2153 N2151 1.356 . S
N2154 C2146 1.356 . S
N2154 H2160 0.984 . S
N2154 H2161 0.984 . S
N2155 C2148 1.356 . S
N2155 H2158 0.984 . S
N2155 H2159 0.985 . S
H2156 N2151 0.984 . S
H2157 N2151 0.985 . S
H2158 N2155 0.984 . S
H2159 N2155 0.985 . S
H2160 N2154 0.984 . S
H2161 N2154 0.984 . S
H2162 N2150 0.984 . S
H2163 N2150 0.985 . S
C2164 C2165 1.363 . S
C2164 C2170 1.379 . S
C2164 N2172 1.356 . S
C2165 C2164 1.363 . S
C2165 C2171 1.363 . S
C2166 C2167 1.363 . S
C2166 C2171 1.379 . S
C2166 N2173 1.356 . S
C2167 C2166 1.363 . S
C2167 C2170 1.363 . S
N2168 C2170 1.356 1_565 S
N2168 H2180 0.984 . S
N2168 H2181 0.985 . S
N2169 C2171 1.356 . S
N2169 H2174 0.984 . S
N2169 H2175 0.985 . S
C2170 C2164 1.379 . S
C2170 C2167 1.363 . S
C2170 N2168 1.356 1_545 S
C2171 C2165 1.363 . S
C2171 C2166 1.379 . S
C2171 N2169 1.356 . S
N2172 C2164 1.356 . S
N2172 H2178 0.984 . S
N2172 H2179 0.984 . S
N2173 C2166 1.356 . S
N2173 H2176 0.984 . S
N2173 H2177 0.985 . S
H2174 N2169 0.984 . S
H2175 N2169 0.985 . S
H2176 N2173 0.984 . S
H2177 N2173 0.985 . S
H2178 N2172 0.984 . S
H2179 N2172 0.984 . S
H2180 N2168 0.984 . S
H2181 N2168 0.985 . S
C2182 C2183 1.363 1_556 S
C2182 C2188 1.379 1_556 S
C2182 N2190 1.356 . S
C2183 C2182 1.363 1_554 S
C2183 C2189 1.363 1_545 S
C2184 C2185 1.363 . S
C2184 C2189 1.379 1_545 S
C2184 N2191 1.356 1_545 S
C2185 C2184 1.363 . S
C2185 C2188 1.363 . S
N2186 C2188 1.356 . S
N2186 H2198 0.972 1_554 S
N2186 H2199 0.985 . S
N2187 C2189 1.356 . S
N2187 H2192 0.984 . S
N2187 H2193 0.985 . S
C2188 C2182 1.379 1_554 S
C2188 C2185 1.363 . S
C2188 N2186 1.356 . S
C2189 C2183 1.363 1_565 S
C2189 C2184 1.379 1_565 S
C2189 N2187 1.356 . S
N2190 C2182 1.356 . S
N2190 H2196 0.984 . S
N2190 H2197 0.984 . S
N2191 C2184 1.356 1_565 S
N2191 H2194 0.985 . S
N2191 H2195 0.985 . S
H2192 N2187 0.984 . S
H2193 N2187 0.985 . S
H2194 N2191 0.985 . S
H2195 N2191 0.985 . S
H2196 N2190 0.984 . S
H2197 N2190 0.984 . S
H2198 N2186 0.972 1_556 S
H2199 N2186 0.985 . S
C2200 C2201 1.363 . S
C2200 C2206 1.379 . S
C2200 N2208 1.356 . S
C2201 C2200 1.363 . S
C2201 C2207 1.363 . S
C2202 C2203 1.363 . S
C2202 C2207 1.379 . S
C2202 N2209 1.356 . S
C2203 C2202 1.363 . S
C2203 C2206 1.363 . S
N2204 C2206 1.356 . S
N2204 H2216 0.984 . S
N2204 H2217 0.985 . S
N2205 C2207 1.356 . S
N2205 H2210 0.984 . S
N2205 H2211 0.985 . S
C2206 C2200 1.379 . S
C2206 C2203 1.363 . S
C2206 N2204 1.356 . S
C2207 C2201 1.363 . S
C2207 C2202 1.379 . S
C2207 N2205 1.356 . S
N2208 C2200 1.356 . S
N2208 H2214 0.984 . S
N2208 H2215 0.984 . S
N2209 C2202 1.356 . S
N2209 H2212 0.984 . S
N2209 H2213 0.985 . S
H2210 N2205 0.984 . S
H2211 N2205 0.985 . S
H2212 N2209 0.984 . S
H2213 N2209 0.985 . S
H2214 N2208 0.984 . S
H2215 N2208 0.984 . S
H2216 N2204 0.984 . S
H2217 N2204 0.985 . S
C2218 C2219 1.363 . S
C2218 C2224 1.379 . S
C2218 N2226 1.356 . S
C2219 C2218 1.363 . S
C2219 C2225 1.363 . S
C2220 C2221 1.363 . S
C2220 C2225 1.379 . S
C2220 N2227 1.356 . S
C2221 C2220 1.363 . S
C2221 C2224 1.363 . S
N2222 C2224 1.356 . S
N2222 H2234 0.984 . S
N2222 H2235 0.985 . S
N2223 C2225 1.356 . S
N2223 H2228 0.984 . S
N2223 H2229 0.985 . S
C2224 C2218 1.379 . S
C2224 C2221 1.363 . S
C2224 N2222 1.356 . S
C2225 C2219 1.363 . S
C2225 C2220 1.379 . S
C2225 N2223 1.356 . S
N2226 C2218 1.356 . S
N2226 H2232 0.984 . S
N2226 H2233 0.984 . S
N2227 C2220 1.356 . S
N2227 H2230 0.984 . S
N2227 H2231 0.985 . S
H2228 N2223 0.984 . S
H2229 N2223 0.985 . S
H2230 N2227 0.984 . S
H2231 N2227 0.985 . S
H2232 N2226 0.984 . S
H2233 N2226 0.984 . S
H2234 N2222 0.984 . S
H2235 N2222 0.985 . S
C2236 C2237 1.363 . S
C2236 C2242 1.379 . S
C2236 N2244 1.356 . S
C2237 C2236 1.363 . S
C2237 C2243 1.363 . S
C2238 C2239 1.363 . S
C2238 C2243 1.379 . S
C2238 N2245 1.356 . S
C2239 C2238 1.363 . S
C2239 C2242 1.363 . S
N2240 C2242 1.356 . S
N2240 H2252 0.984 . S
N2240 H2253 0.985 . S
N2241 C2243 1.356 . S
N2241 H2246 0.984 . S
N2241 H2247 0.985 . S
C2242 C2236 1.379 . S
C2242 C2239 1.363 . S
C2242 N2240 1.356 . S
C2243 C2237 1.363 . S
C2243 C2238 1.379 . S
C2243 N2241 1.356 . S
N2244 C2236 1.356 . S
N2244 H2250 0.984 . S
N2244 H2251 0.984 . S
N2245 C2238 1.356 . S
N2245 H2248 0.984 . S
N2245 H2249 0.985 . S
H2246 N2241 0.984 . S
H2247 N2241 0.985 . S
H2248 N2245 0.984 . S
H2249 N2245 0.985 . S
H2250 N2244 0.984 . S
H2251 N2244 0.984 . S
H2252 N2240 0.984 . S
H2253 N2240 0.985 . S
C2254 C2255 1.363 . S
C2254 C2260 1.379 . S
C2254 N2262 1.356 . S
C2255 C2254 1.363 . S
C2255 C2261 1.363 . S
C2256 C2257 1.363 . S
C2256 C2261 1.379 . S
C2256 N2263 1.356 . S
C2257 C2256 1.363 . S
C2257 C2260 1.363 . S
N2258 C2260 1.356 . S
N2258 H2270 0.984 . S
N2258 H2271 0.985 . S
N2259 C2261 1.356 . S
N2259 H2264 0.984 1_565 S
N2259 H2265 0.986 1_565 S
C2260 C2254 1.379 . S
C2260 C2257 1.363 . S
C2260 N2258 1.356 . S
C2261 C2255 1.363 . S
C2261 C2256 1.379 . S
C2261 N2259 1.356 . S
N2262 C2254 1.356 . S
N2262 H2268 0.984 . S
N2262 H2269 0.984 . S
N2263 C2256 1.356 . S
N2263 H2266 0.984 . S
N2263 H2267 0.985 . S
H2264 N2259 0.984 1_545 S
H2265 N2259 0.986 1_545 S
H2266 N2263 0.984 . S
H2267 N2263 0.985 . S
H2268 N2262 0.984 . S
H2269 N2262 0.984 . S
H2270 N2258 0.984 . S
H2271 N2258 0.985 . S
C2272 C2273 1.363 . S
C2272 C2278 1.379 . S
C2272 N2280 1.356 . S
C2273 C2272 1.363 . S
C2273 C2279 1.363 . S
C2274 C2275 1.363 . S
C2274 C2279 1.379 . S
C2274 N2281 1.356 . S
C2275 C2274 1.363 . S
C2275 C2278 1.363 . S
N2276 C2278 1.356 . S
N2276 H2288 0.984 . S
N2276 H2289 0.985 . S
N2277 C2279 1.356 . S
N2277 H2282 0.984 . S
N2277 H2283 0.985 . S
C2278 C2272 1.379 . S
C2278 C2275 1.363 . S
C2278 N2276 1.356 . S
C2279 C2273 1.363 . S
C2279 C2274 1.379 . S
C2279 N2277 1.356 . S
N2280 C2272 1.356 . S
N2280 H2286 0.984 . S
N2280 H2287 0.984 . S
N2281 C2274 1.356 . S
N2281 H2284 0.984 . S
N2281 H2285 0.985 . S
H2282 N2277 0.984 . S
H2283 N2277 0.985 . S
H2284 N2281 0.984 . S
H2285 N2281 0.985 . S
H2286 N2280 0.984 . S
H2287 N2280 0.984 . S
H2288 N2276 0.984 . S
H2289 N2276 0.985 . S
C2290 C2291 1.363 . S
C2290 C2296 1.379 . S
C2290 N2298 1.356 . S
C2291 C2290 1.363 . S
C2291 C2297 1.363 . S
C2292 C2293 1.363 . S
C2292 C2297 1.379 . S
C2292 N2299 1.356 . S
C2293 C2292 1.363 . S
C2293 C2296 1.363 . S
N2294 C2296 1.356 . S
N2294 H2306 0.984 . S
N2294 H2307 0.985 . S
N2295 C2297 1.356 . S
N2295 H2300 0.984 . S
N2295 H2301 0.985 . S
C2296 C2290 1.379 . S
C2296 C2293 1.363 . S
C2296 N2294 1.356 . S
C2297 C2291 1.363 . S
C2297 C2292 1.379 . S
C2297 N2295 1.356 . S
N2298 C2290 1.356 . S
N2298 H2304 0.984 . S
N2298 H2305 0.984 . S
N2299 C2292 1.356 . S
N2299 H2302 0.984 . S
N2299 H2303 0.985 . S
H2300 N2295 0.984 . S
H2301 N2295 0.985 . S
H2302 N2299 0.984 . S
H2303 N2299 0.985 . S
H2304 N2298 0.984 . S
H2305 N2298 0.984 . S
H2306 N2294 0.984 . S
H2307 N2294 0.985 . S
C2308 C2309 1.363 . S
C2308 C2314 1.379 . S
C2308 N2316 1.356 . S
C2309 C2308 1.363 . S
C2309 C2315 1.363 . S
C2310 C2311 1.363 . S
C2310 C2315 1.379 . S
C2310 N2317 1.356 . S
C2311 C2310 1.363 . S
C2311 C2314 1.363 . S
N2312 C2314 1.356 . S
N2312 H2324 0.984 . S
N2312 H2325 0.985 . S
N2313 C2315 1.356 . S
N2313 H2318 0.984 . S
N2313 H2319 0.985 . S
C2314 C2308 1.379 . S
C2314 C2311 1.363 . S
C2314 N2312 1.356 . S
C2315 C2309 1.363 . S
C2315 C2310 1.379 . S
C2315 N2313 1.356 . S
N2316 C2308 1.356 . S
N2316 H2322 0.984 . S
N2316 H2323 0.984 . S
N2317 C2310 1.356 . S
N2317 H2320 0.984 . S
N2317 H2321 0.985 . S
H2318 N2313 0.984 . S
H2319 N2313 0.985 . S
H2320 N2317 0.984 . S
H2321 N2317 0.985 . S
H2322 N2316 0.984 . S
H2323 N2316 0.984 . S
H2324 N2312 0.984 . S
H2325 N2312 0.985 . S
C2326 C2327 1.363 . S
C2326 C2332 1.379 . S
C2326 N2334 1.356 . S
C2327 C2326 1.363 . S
C2327 C2333 1.363 . S
C2328 C2329 1.363 . S
C2328 C2333 1.379 . S
C2328 N2335 1.356 . S
C2329 C2328 1.363 . S
C2329 C2332 1.363 . S
N2330 C2332 1.356 . S
N2330 H2342 0.984 . S
N2330 H2343 0.985 . S
N2331 C2333 1.356 . S
N2331 H2336 0.984 . S
N2331 H2337 0.985 . S
C2332 C2326 1.379 . S
C2332 C2329 1.363 . S
C2332 N2330 1.356 . S
C2333 C2327 1.363 . S
C2333 C2328 1.379 . S
C2333 N2331 1.356 . S
N2334 C2326 1.356 . S
N2334 H2340 0.984 . S
N2334 H2341 0.984 . S
N2335 C2328 1.356 . S
N2335 H2338 0.984 . S
N2335 H2339 0.985 . S
H2336 N2331 0.984 . S
H2337 N2331 0.985 . S
H2338 N2335 0.984 . S
H2339 N2335 0.985 . S
H2340 N2334 0.984 . S
H2341 N2334 0.984 . S
H2342 N2330 0.984 . S
H2343 N2330 0.985 . S
C2344 C2345 1.363 . S
C2344 C2350 1.379 1_556 S
C2344 N2352 1.356 . S
C2345 C2344 1.363 . S
C2345 C2351 1.363 . S
C2346 C2347 1.363 . S
C2346 C2351 1.379 . S
C2346 N2353 1.356 . S
C2347 C2346 1.363 . S
C2347 C2350 1.363 1_556 S
N2348 C2350 1.356 . S
N2348 H2360 0.984 . S
N2348 H2361 0.985 . S
N2349 C2351 1.356 . S
N2349 H2354 0.984 . S
N2349 H2355 0.985 . S
C2350 C2344 1.379 1_554 S
C2350 C2347 1.363 1_554 S
C2350 N2348 1.356 . S
C2351 C2345 1.363 . S
C2351 C2346 1.379 . S
C2351 N2349 1.356 . S
N2352 C2344 1.356 . S
N2352 H2358 0.984 1_556 S
N2352 H2359 0.984 . S
N2353 C2346 1.356 . S
N2353 H2356 0.984 . S
N2353 H2357 0.985 . S
H2354 N2349 0.984 . S
H2355 N2349 0.985 . S
H2356 N2353 0.984 . S
H2357 N2353 0.985 . S
H2358 N2352 0.984 1_554 S
H2359 N2352 0.984 . S
H2360 N2348 0.984 . S
H2361 N2348 0.985 . S
C2362 C2363 1.363 . S
C2362 C2368 1.379 . S
C2362 N2370 1.356 . S
C2363 C2362 1.363 . S
C2363 C2369 1.363 . S
C2364 C2365 1.363 . S
C2364 C2369 1.379 . S
C2364 N2371 1.356 . S
C2365 C2364 1.363 . S
C2365 C2368 1.363 . S
N2366 C2368 1.356 . S
N2366 H2378 0.984 . S
N2366 H2379 0.985 . S
N2367 C2369 1.356 . S
N2367 H2372 0.984 . S
N2367 H2373 0.985 . S
C2368 C2362 1.379 . S
C2368 C2365 1.363 . S
C2368 N2366 1.356 . S
C2369 C2363 1.363 . S
C2369 C2364 1.379 . S
C2369 N2367 1.356 . S
N2370 C2362 1.356 . S
N2370 H2376 0.984 . S
N2370 H2377 0.984 . S
N2371 C2364 1.356 . S
N2371 H2374 0.984 . S
N2371 H2375 0.985 . S
H2372 N2367 0.984 . S
H2373 N2367 0.985 . S
H2374 N2371 0.984 . S
H2375 N2371 0.985 . S
H2376 N2370 0.984 . S
H2377 N2370 0.984 . S
H2378 N2366 0.984 . S
H2379 N2366 0.985 . S
C2380 C2381 1.363 . S
C2380 C2386 1.379 . S
C2380 N2388 1.356 . S
C2381 C2380 1.363 . S
C2381 C2387 1.363 . S
C2382 C2383 1.363 . S
C2382 C2387 1.379 . S
C2382 N2389 1.356 . S
C2383 C2382 1.363 . S
C2383 C2386 1.363 . S
N2384 C2386 1.356 . S
N2384 H2396 0.984 . S
N2384 H2397 0.985 . S
N2385 C2387 1.356 . S
N2385 H2390 0.984 . S
N2385 H2391 0.985 . S
C2386 C2380 1.379 . S
C2386 C2383 1.363 . S
C2386 N2384 1.356 . S
C2387 C2381 1.363 . S
C2387 C2382 1.379 . S
C2387 N2385 1.356 . S
N2388 C2380 1.356 . S
N2388 H2394 0.984 . S
N2388 H2395 0.984 . S
N2389 C2382 1.356 . S
N2389 H2392 0.984 . S
N2389 H2393 0.985 . S
H2390 N2385 0.984 . S
H2391 N2385 0.985 . S
H2392 N2389 0.984 . S
H2393 N2389 0.985 . S
H2394 N2388 0.984 . S
H2395 N2388 0.984 . S
H2396 N2384 0.984 . S
H2397 N2384 0.985 . S
C2398 C2399 1.363 . S
C2398 C2404 1.379 . S
C2398 N2406 1.356 . S
C2399 C2398 1.363 . S
C2399 C2405 1.363 . S
C2400 C2401 1.363 . S
C2400 C2405 1.379 . S
C2400 N2407 1.356 . S
C2401 C2400 1.363 . S
C2401 C2404 1.363 . S
N2402 C2404 1.356 . S
N2402 H2414 0.984 . S
N2402 H2415 0.985 . S
N2403 C2405 1.356 . S
N2403 H2408 0.984 . S
N2403 H2409 0.985 . S
C2404 C2398 1.379 . S
C2404 C2401 1.363 . S
C2404 N2402 1.356 . S
C2405 C2399 1.363 . S
C2405 C2400 1.379 . S
C2405 N2403 1.356 . S
N2406 C2398 1.356 . S
N2406 H2412 0.984 . S
N2406 H2413 0.984 . S
N2407 C2400 1.356 . S
N2407 H2410 0.984 . S
N2407 H2411 0.985 . S
H2408 N2403 0.984 . S
H2409 N2403 0.985 . S
H2410 N2407 0.984 . S
H2411 N2407 0.985 . S
H2412 N2406 0.984 . S
H2413 N2406 0.984 . S
H2414 N2402 0.984 . S
H2415 N2402 0.985 . S
C2416 C2417 1.363 . S
C2416 C2422 1.379 . S
C2416 N2424 1.356 . S
C2417 C2416 1.363 . S
C2417 C2423 1.363 . S
C2418 C2419 1.363 . S
C2418 C2423 1.379 . S
C2418 N2425 1.356 . S
C2419 C2418 1.363 . S
C2419 C2422 1.363 . S
N2420 C2422 1.356 . S
N2420 H2432 0.984 . S
N2420 H2433 0.985 . S
N2421 C2423 1.356 . S
N2421 H2426 0.984 . S
N2421 H2427 0.985 . S
C2422 C2416 1.379 . S
C2422 C2419 1.363 . S
C2422 N2420 1.356 . S
C2423 C2417 1.363 . S
C2423 C2418 1.379 . S
C2423 N2421 1.356 . S
N2424 C2416 1.356 . S
N2424 H2430 0.984 . S
N2424 H2431 0.984 . S
N2425 C2418 1.356 . S
N2425 H2428 0.984 . S
N2425 H2429 0.985 . S
H2426 N2421 0.984 . S
H2427 N2421 0.985 . S
H2428 N2425 0.984 . S
H2429 N2425 0.985 . S
H2430 N2424 0.984 . S
H2431 N2424 0.984 . S
H2432 N2420 0.984 . S
H2433 N2420 0.985 . S
C2434 C2435 1.363 . S
C2434 C2440 1.379 . S
C2434 N2442 1.356 . S
C2435 C2434 1.363 . S
C2435 C2441 1.363 . S
C2436 C2437 1.363 . S
C2436 C2441 1.379 . S
C2436 N2443 1.356 . S
C2437 C2436 1.363 . S
C2437 C2440 1.363 . S
N2438 C2440 1.356 . S
N2438 H2450 0.984 . S
N2438 H2451 0.985 . S
N2439 C2441 1.356 . S
N2439 H2444 0.984 . S
N2439 H2445 0.985 . S
C2440 C2434 1.379 . S
C2440 C2437 1.363 . S
C2440 N2438 1.356 . S
C2441 C2435 1.363 . S
C2441 C2436 1.379 . S
C2441 N2439 1.356 . S
N2442 C2434 1.356 . S
N2442 H2448 0.984 . S
N2442 H2449 0.984 . S
N2443 C2436 1.356 . S
N2443 H2446 0.984 . S
N2443 H2447 0.985 . S
H2444 N2439 0.984 . S
H2445 N2439 0.985 . S
H2446 N2443 0.984 . S
H2447 N2443 0.985 . S
H2448 N2442 0.984 . S
H2449 N2442 0.984 . S
H2450 N2438 0.984 . S
H2451 N2438 0.985 . S
C2452 C2453 1.363 1_455 S
C2452 C2458 1.379 . S
C2452 N2460 1.356 . S
C2453 C2452 1.363 1_655 S
C2453 C2459 1.363 . S
C2454 C2455 1.363 . S
C2454 C2459 1.379 1_455 S
C2454 N2461 1.356 . S
C2455 C2454 1.363 . S
C2455 C2458 1.363 . S
N2456 C2458 1.356 . S
N2456 H2468 0.984 . S
N2456 H2469 0.985 . S
N2457 C2459 1.356 . S
N2457 H2462 0.984 . S
N2457 H2463 0.985 . S
C2458 C2452 1.379 . S
C2458 C2455 1.363 . S
C2458 N2456 1.356 . S
C2459 C2453 1.363 . S
C2459 C2454 1.379 1_655 S
C2459 N2457 1.356 . S
N2460 C2452 1.356 . S
N2460 H2466 0.984 . S
N2460 H2467 0.984 . S
N2461 C2454 1.356 . S
N2461 H2464 0.984 1_556 S
N2461 H2465 0.985 1_455 S
H2462 N2457 0.984 . S
H2463 N2457 0.985 . S
H2464 N2461 0.984 1_554 S
H2465 N2461 0.985 1_655 S
H2466 N2460 0.984 . S
H2467 N2460 0.984 . S
H2468 N2456 0.984 . S
H2469 N2456 0.985 . S
C2470 C2471 1.363 . S
C2470 C2476 1.379 . S
C2470 N2478 1.356 . S
C2471 C2470 1.363 . S
C2471 C2477 1.363 . S
C2472 C2473 1.363 . S
C2472 C2477 1.379 . S
C2472 N2479 1.356 . S
C2473 C2472 1.363 . S
C2473 C2476 1.363 . S
N2474 C2476 1.356 . S
N2474 H2486 0.984 . S
N2474 H2487 0.985 . S
N2475 C2477 1.356 . S
N2475 H2480 0.984 . S
N2475 H2481 0.985 . S
C2476 C2470 1.379 . S
C2476 C2473 1.363 . S
C2476 N2474 1.356 . S
C2477 C2471 1.363 . S
C2477 C2472 1.379 . S
C2477 N2475 1.356 . S
N2478 C2470 1.356 . S
N2478 H2484 0.984 . S
N2478 H2485 0.984 . S
N2479 C2472 1.356 . S
N2479 H2482 0.984 . S
N2479 H2483 0.985 . S
H2480 N2475 0.984 . S
H2481 N2475 0.985 . S
H2482 N2479 0.984 . S
H2483 N2479 0.985 . S
H2484 N2478 0.984 . S
H2485 N2478 0.984 . S
H2486 N2474 0.984 . S
H2487 N2474 0.985 . S
C2488 C2489 1.363 . S
C2488 C2494 1.379 . S
C2488 N2496 1.356 . S
C2489 C2488 1.363 . S
C2489 C2495 1.363 . S
C2490 C2491 1.363 . S
C2490 C2495 1.379 . S
C2490 N2497 1.356 . S
C2491 C2490 1.363 . S
C2491 C2494 1.363 . S
N2492 C2494 1.356 . S
N2492 H2504 0.984 . S
N2492 H2505 0.985 . S
N2493 C2495 1.356 . S
N2493 H2498 0.984 . S
N2493 H2499 0.985 . S
C2494 C2488 1.379 . S
C2494 C2491 1.363 . S
C2494 N2492 1.356 . S
C2495 C2489 1.363 . S
C2495 C2490 1.379 . S
C2495 N2493 1.356 . S
N2496 C2488 1.356 . S
N2496 H2502 0.984 . S
N2496 H2503 0.984 . S
N2497 C2490 1.356 . S
N2497 H2500 0.984 . S
N2497 H2501 0.985 . S
H2498 N2493 0.984 . S
H2499 N2493 0.985 . S
H2500 N2497 0.984 . S
H2501 N2497 0.985 . S
H2502 N2496 0.984 . S
H2503 N2496 0.984 . S
H2504 N2492 0.984 . S
H2505 N2492 0.985 . S
C2506 C2507 1.363 . S
C2506 C2512 1.379 . S
C2506 N2514 1.356 . S
C2507 C2506 1.363 . S
C2507 C2513 1.363 . S
C2508 C2509 1.363 . S
C2508 C2513 1.379 . S
C2508 N2515 1.356 . S
C2509 C2508 1.363 . S
C2509 C2512 1.363 . S
N2510 C2512 1.356 . S
N2510 H2522 0.984 . S
N2510 H2523 0.985 . S
N2511 C2513 1.356 . S
N2511 H2516 0.984 . S
N2511 H2517 0.985 . S
C2512 C2506 1.379 . S
C2512 C2509 1.363 . S
C2512 N2510 1.356 . S
C2513 C2507 1.363 . S
C2513 C2508 1.379 . S
C2513 N2511 1.356 . S
N2514 C2506 1.356 . S
N2514 H2520 0.984 . S
N2514 H2521 0.984 . S
N2515 C2508 1.356 . S
N2515 H2518 0.984 . S
N2515 H2519 0.985 . S
H2516 N2511 0.984 . S
H2517 N2511 0.985 . S
H2518 N2515 0.984 . S
H2519 N2515 0.985 . S
H2520 N2514 0.984 . S
H2521 N2514 0.984 . S
H2522 N2510 0.984 . S
H2523 N2510 0.985 . S
C2524 C2525 1.363 1_455 S
C2524 C2530 1.379 . S
C2524 N2532 1.356 . S
C2525 C2524 1.363 1_655 S
C2525 C2531 1.363 . S
C2526 C2527 1.340 1_655 S
C2526 C2531 1.379 . S
C2526 N2533 1.356 . S
C2527 C2526 1.340 1_455 S
C2527 C2530 1.379 . S
N2528 C2530 1.356 . S
N2528 H2540 0.984 . S
N2528 H2541 0.985 . S
N2529 C2531 1.356 . S
N2529 H2534 0.984 . S
N2529 H2535 0.985 . S
C2530 C2524 1.379 . S
C2530 C2527 1.379 . S
C2530 N2528 1.356 . S
C2531 C2525 1.363 . S
C2531 C2526 1.379 . S
C2531 N2529 1.356 . S
N2532 C2524 1.356 . S
N2532 H2538 0.984 . S
N2532 H2539 0.984 . S
N2533 C2526 1.356 . S
N2533 H2536 0.984 . S
N2533 H2537 0.985 . S
H2534 N2529 0.984 . S
H2535 N2529 0.985 . S
H2536 N2533 0.984 . S
H2537 N2533 0.985 . S
H2538 N2532 0.984 . S
H2539 N2532 0.984 . S
H2540 N2528 0.984 . S
H2541 N2528 0.985 . S
C2542 C2543 1.363 . S
C2542 C2548 1.379 . S
C2542 N2550 1.356 . S
C2543 C2542 1.363 . S
C2543 C2549 1.363 . S
C2544 C2545 1.363 . S
C2544 C2549 1.379 . S
C2544 N2551 1.356 . S
C2545 C2544 1.363 . S
C2545 C2548 1.363 . S
N2546 C2548 1.356 . S
N2546 H2558 0.984 . S
N2546 H2559 0.985 . S
N2547 C2549 1.356 . S
N2547 H2552 0.984 . S
N2547 H2553 0.985 . S
C2548 C2542 1.379 . S
C2548 C2545 1.363 . S
C2548 N2546 1.356 . S
C2549 C2543 1.363 . S
C2549 C2544 1.379 . S
C2549 N2547 1.356 . S
N2550 C2542 1.356 . S
N2550 H2556 0.984 . S
N2550 H2557 0.984 . S
N2551 C2544 1.356 . S
N2551 H2554 0.984 . S
N2551 H2555 0.985 . S
H2552 N2547 0.984 . S
H2553 N2547 0.985 . S
H2554 N2551 0.984 . S
H2555 N2551 0.985 . S
H2556 N2550 0.984 . S
H2557 N2550 0.984 . S
H2558 N2546 0.984 . S
H2559 N2546 0.985 . S
C2560 C2561 1.363 . S
C2560 C2566 1.379 . S
C2560 N2568 1.356 . S
C2561 C2560 1.363 . S
C2561 C2567 1.363 . S
C2562 C2563 1.363 . S
C2562 C2567 1.379 . S
C2562 N2569 1.356 . S
C2563 C2562 1.363 . S
C2563 C2566 1.363 . S
N2564 C2566 1.356 . S
N2564 H2576 0.984 . S
N2564 H2577 0.985 . S
N2565 C2567 1.356 . S
N2565 H2570 0.984 . S
N2565 H2571 0.985 . S
C2566 C2560 1.379 . S
C2566 C2563 1.363 . S
C2566 N2564 1.356 . S
C2567 C2561 1.363 . S
C2567 C2562 1.379 . S
C2567 N2565 1.356 . S
N2568 C2560 1.356 . S
N2568 H2574 0.984 . S
N2568 H2575 0.984 . S
N2569 C2562 1.356 . S
N2569 H2572 0.984 . S
N2569 H2573 0.985 . S
H2570 N2565 0.984 . S
H2571 N2565 0.985 . S
H2572 N2569 0.984 . S
H2573 N2569 0.985 . S
H2574 N2568 0.984 . S
H2575 N2568 0.984 . S
H2576 N2564 0.984 . S
H2577 N2564 0.985 . S
C2578 C2579 1.363 . S
C2578 C2584 1.379 . S
C2578 N2586 1.356 . S
C2579 C2578 1.363 . S
C2579 C2585 1.363 . S
C2580 C2581 1.363 . S
C2580 C2585 1.379 1_545 S
C2580 N2587 1.356 . S
C2581 C2580 1.363 . S
C2581 C2584 1.363 1_545 S
N2582 C2584 1.356 . S
N2582 H2594 0.984 . S
N2582 H2595 0.985 1_565 S
N2583 C2585 1.356 . S
N2583 H2588 0.984 . S
N2583 H2589 0.985 1_565 S
C2584 C2578 1.379 . S
C2584 C2581 1.363 1_565 S
C2584 N2582 1.356 . S
C2585 C2579 1.363 . S
C2585 C2580 1.379 1_565 S
C2585 N2583 1.356 . S
N2586 C2578 1.356 . S
N2586 H2592 0.984 . S
N2586 H2593 0.984 . S
N2587 C2580 1.356 . S
N2587 H2590 0.984 . S
N2587 H2591 0.985 . S
H2588 N2583 0.984 . S
H2589 N2583 0.985 1_545 S
H2590 N2587 0.984 . S
H2591 N2587 0.985 . S
H2592 N2586 0.984 . S
H2593 N2586 0.984 . S
H2594 N2582 0.984 . S
H2595 N2582 0.985 1_545 S
C2596 C2597 1.363 . S
C2596 C2602 1.379 . S
C2596 N2604 1.356 . S
C2597 C2596 1.363 . S
C2597 C2603 1.363 . S
C2598 C2599 1.363 . S
C2598 C2603 1.379 . S
C2598 N2605 1.356 . S
C2599 C2598 1.363 . S
C2599 C2602 1.363 . S
N2600 C2602 1.356 . S
N2600 H2612 0.984 . S
N2600 H2613 0.985 . S
N2601 C2603 1.356 . S
N2601 H2606 0.984 . S
N2601 H2607 0.985 1_545 S
C2602 C2596 1.379 . S
C2602 C2599 1.363 . S
C2602 N2600 1.356 . S
C2603 C2597 1.363 . S
C2603 C2598 1.379 . S
C2603 N2601 1.356 . S
N2604 C2596 1.356 . S
N2604 H2610 0.984 . S
N2604 H2611 0.984 . S
N2605 C2598 1.356 . S
N2605 H2608 0.984 . S
N2605 H2609 0.985 . S
H2606 N2601 0.984 . S
H2607 N2601 0.985 1_565 S
H2608 N2605 0.984 . S
H2609 N2605 0.985 . S
H2610 N2604 0.984 . S
H2611 N2604 0.984 . S
H2612 N2600 0.984 . S
H2613 N2600 0.985 . S
C2614 C2615 1.363 . S
C2614 C2620 1.379 . S
C2614 N2622 1.356 . S
C2615 C2614 1.363 . S
C2615 C2621 1.363 . S
C2616 C2617 1.363 . S
C2616 C2621 1.379 . S
C2616 N2623 1.356 . S
C2617 C2616 1.363 . S
C2617 C2620 1.363 . S
N2618 C2620 1.356 . S
N2618 H2630 0.984 . S
N2618 H2631 0.985 . S
N2619 C2621 1.356 . S
N2619 H2624 0.984 . S
N2619 H2625 0.985 . S
C2620 C2614 1.379 . S
C2620 C2617 1.363 . S
C2620 N2618 1.356 . S
C2621 C2615 1.363 . S
C2621 C2616 1.379 . S
C2621 N2619 1.356 . S
N2622 C2614 1.356 . S
N2622 H2628 0.984 . S
N2622 H2629 0.984 . S
N2623 C2616 1.356 . S
N2623 H2626 0.984 . S
N2623 H2627 0.985 . S
H2624 N2619 0.984 . S
H2625 N2619 0.985 . S
H2626 N2623 0.984 . S
H2627 N2623 0.985 . S
H2628 N2622 0.984 . S
H2629 N2622 0.984 . S
H2630 N2618 0.984 . S
H2631 N2618 0.985 . S
C2632 C2633 1.363 . S
C2632 C2638 1.379 . S
C2632 N2640 1.356 . S
C2633 C2632 1.363 . S
C2633 C2639 1.363 . S
C2634 C2635 1.363 . S
C2634 C2639 1.379 . S
C2634 N2641 1.356 . S
C2635 C2634 1.363 . S
C2635 C2638 1.363 . S
N2636 C2638 1.356 . S
N2636 H2648 0.984 . S
N2636 H2649 0.985 . S
N2637 C2639 1.356 . S
N2637 H2642 0.984 . S
N2637 H2643 0.985 . S
C2638 C2632 1.379 . S
C2638 C2635 1.363 . S
C2638 N2636 1.356 . S
C2639 C2633 1.363 . S
C2639 C2634 1.379 . S
C2639 N2637 1.356 . S
N2640 C2632 1.356 . S
N2640 H2646 0.984 . S
N2640 H2647 0.984 . S
N2641 C2634 1.356 . S
N2641 H2644 0.984 . S
N2641 H2645 0.985 . S
H2642 N2637 0.984 . S
H2643 N2637 0.985 . S
H2644 N2641 0.984 . S
H2645 N2641 0.985 . S
H2646 N2640 0.984 . S
H2647 N2640 0.984 . S
H2648 N2636 0.984 . S
H2649 N2636 0.985 . S
C2650 C2651 1.363 . S
C2650 C2656 1.379 . S
C2650 N2658 1.356 . S
C2651 C2650 1.363 . S
C2651 C2657 1.363 . S
C2652 C2653 1.363 1_556 S
C2652 C2657 1.379 1_556 S
C2652 N2659 1.356 . S
C2653 C2652 1.363 1_554 S
C2653 C2656 1.363 . S
N2654 C2656 1.356 . S
N2654 H2666 0.984 . S
N2654 H2667 0.985 . S
N2655 C2657 1.356 1_556 S
N2655 H2660 0.984 1_556 S
N2655 H2661 0.985 . S
C2656 C2650 1.379 . S
C2656 C2653 1.363 . S
C2656 N2654 1.356 . S
C2657 C2651 1.363 . S
C2657 C2652 1.379 1_554 S
C2657 N2655 1.356 1_554 S
N2658 C2650 1.356 . S
N2658 H2664 0.984 . S
N2658 H2665 0.984 . S
N2659 C2652 1.356 . S
N2659 H2662 0.984 . S
N2659 H2663 0.985 . S
H2660 N2655 0.984 1_554 S
H2661 N2655 0.985 . S
H2662 N2659 0.984 . S
H2663 N2659 0.985 . S
H2664 N2658 0.984 . S
H2665 N2658 0.984 . S
H2666 N2654 0.984 . S
H2667 N2654 0.985 . S
C2668 C2669 1.363 . S
C2668 C2674 1.379 . S
C2668 N2676 1.356 . S
C2669 C2668 1.363 . S
C2669 C2675 1.363 . S
C2670 C2671 1.363 . S
C2670 C2675 1.379 . S
C2670 N2677 1.356 . S
C2671 C2670 1.363 . S
C2671 C2674 1.363 . S
N2672 C2674 1.356 . S
N2672 H2684 0.984 . S
N2672 H2685 0.985 . S
N2673 C2675 1.356 . S
N2673 H2678 0.984 . S
N2673 H2679 0.985 . S
C2674 C2668 1.379 . S
C2674 C2671 1.363 . S
C2674 N2672 1.356 . S
C2675 C2669 1.363 . S
C2675 C2670 1.379 . S
C2675 N2673 1.356 . S
N2676 C2668 1.356 . S
N2676 H2682 0.984 . S
N2676 H2683 0.984 . S
N2677 C2670 1.356 . S
N2677 H2680 0.984 . S
N2677 H2681 0.985 . S
H2678 N2673 0.984 . S
H2679 N2673 0.985 . S
H2680 N2677 0.984 . S
H2681 N2677 0.985 . S
H2682 N2676 0.984 . S
H2683 N2676 0.984 . S
H2684 N2672 0.984 . S
H2685 N2672 0.985 . S
C2686 C2687 1.363 . S
C2686 C2692 1.379 . S
C2686 N2694 1.356 . S
C2687 C2686 1.363 . S
C2687 C2693 1.363 . S
C2688 C2689 1.363 . S
C2688 C2693 1.379 . S
C2688 N2695 1.356 . S
C2689 C2688 1.363 . S
C2689 C2692 1.363 . S
N2690 C2692 1.356 . S
N2690 H2702 0.984 . S
N2690 H2703 0.985 . S
N2691 C2693 1.356 . S
N2691 H2696 0.984 . S
N2691 H2697 0.985 . S
C2692 C2686 1.379 . S
C2692 C2689 1.363 . S
C2692 N2690 1.356 . S
C2693 C2687 1.363 . S
C2693 C2688 1.379 . S
C2693 N2691 1.356 . S
N2694 C2686 1.356 . S
N2694 H2700 0.984 . S
N2694 H2701 0.984 . S
N2695 C2688 1.356 . S
N2695 H2698 0.984 . S
N2695 H2699 0.985 . S
H2696 N2691 0.984 . S
H2697 N2691 0.985 . S
H2698 N2695 0.984 . S
H2699 N2695 0.985 . S
H2700 N2694 0.984 . S
H2701 N2694 0.984 . S
H2702 N2690 0.984 . S
H2703 N2690 0.985 . S
C977 C109 2.326 1_454 S
C979 C367 2.285 . S
C995 C61 1.657 . S
C997 C378 1.881 . S
C1013 C74 1.827 . S
C1015 C447 1.838 . S
C1033 C460 1.194 . S
C1031 C96 1.228 . S
C1049 C25 2.440 . S
C1051 C516 2.441 1_565 S
C1069 C567 2.286 . S
C1067 C40 2.292 . S
C1087 C596 2.413 . S
C1085 C46 2.414 . S
C1103 C5 2.154 . S
C1105 C647 2.520 . S
C1123 C338 1.473 . S
C1121 C229 0.975 . S
C1139 C249 1.248 . S
C1141 C380 1.143 . S
C1159 C418 0.935 . S
C1157 C271 0.842 . S
C1177 C487 2.045 . S
C1175 C172 1.949 1_556 S
C1193 C236 0.721 . S
C1195 C521 0.723 . S
C1213 C538 1.502 . S
C1211 C242 1.450 . S
C1231 C601 0.513 . S
C1229 C278 0.520 . S
C1249 C618 2.230 . S
C1247 C179 2.274 . S
C1267 C340 2.045 . S
C1265 C159 1.554 . S
C1283 C285 1.339 . S
C1285 C679 1.530 . S
C1303 C700 1.699 . S
C1301 C333 1.906 . S
C1321 C759 0.677 . S
C1319 C320 0.676 . S
C1337 C123 1.369 . S
C1339 C620 1.260 . S
C1355 C138 1.536 . S
C1357 C420 1.469 . S
C1373 C326 1.272 . S
C1375 C778 1.283 . S
C1393 C847 0.986 . S
C1391 C298 1.016 . S
C1411 C356 2.274 . S
C1409 C67 2.190 . S
C1429 C839 1.812 . S
C1427 C110 1.778 . S
C1445 C88 1.828 . S
C1447 C436 1.830 . S
C1463 C75 1.057 . S
C1465 C801 1.140 . S
C1483 C527 2.369 . S
C1481 C11 2.399 . S
C1499 C47 2.207 . S
C1501 C716 2.293 . S
C1519 C607 2.291 1_566 S
C1517 C32 2.204 . S
C1537 C876 2.561 . S
C1535 C26 2.624 1_655 S
C1555 C359 1.638 . S
C1553 C152 1.604 . S
C1573 C841 1.162 . S
C1571 C319 1.182 . S
C1589 C124 0.889 . S
C1591 C439 0.882 . S
C1607 C284 2.000 . S
C1609 C796 2.046 . S
C1625 C145 0.732 . S
C1627 C500 0.716 . S
C1645 C719 1.400 . S
C1643 C312 1.386 . S
C1661 C117 0.691 . S
C1663 C580 0.377 . S
C1679 C291 2.148 1_556 S
C1681 C879 2.139 . S
C1697 C194 2.391 . S
C1699 C361 2.202 1_554 S
C1715 C180 1.557 . S
C1717 C658 1.505 . S
C1733 C263 1.674 . S
C1735 C561 1.696 . S
C1751 C243 0.741 . S
C1753 C738 0.689 . S
C1771 C881 1.302 1_545 S
C1769 C277 1.240 . S
C1787 C215 1.413 . S
C1789 C441 1.469 . S
C1807 C479 1.196 . S
C1805 C256 0.967 . S
C1825 C396 1.063 . S
C1823 C200 1.030 . S
C1841 C81 2.334 . S
C1843 C927 2.285 . S
C1861 C818 1.881 . S
C1859 C89 1.657 . S
C1877 C102 1.827 . S
C1879 C967 1.838 . S
C1895 C68 1.227 . S
C1897 C780 1.194 . S
C1913 C53 2.440 . S
C1915 C676 2.441 . S
C1933 C727 2.286 . S
C1931 C12 2.292 . S
C1951 C756 2.413 . S
C1949 C18 2.414 . S
C1969 C887 2.520 . S
C1967 C33 2.155 . S
C1987 C898 1.474 . S
C1985 C257 0.974 . S
C2003 C193 1.248 . S
C2005 C820 1.144 . S
C2023 C938 0.935 . S
C2021 C201 0.842 . S
C2041 C807 2.045 . S
C2039 C214 1.949 . S
C2059 C681 0.723 . S
C2057 C264 0.721 . S
C2075 C186 1.450 . S
C2077 C698 1.502 . S
C2095 C761 0.513 . S
C2093 C208 0.519 . S
C2111 C221 2.274 . S
C2113 C858 2.230 . S
C2131 C900 2.046 . S
C2129 C313 1.554 . S
C2147 C131 1.339 . S
C2149 C519 1.530 . S
C2167 C540 1.700 1_545 S
C2165 C151 1.906 . S
C2185 C599 0.677 . S
C2183 C166 0.676 . S
C2203 C860 1.260 . S
C2201 C305 1.369 . S
C2219 C292 1.536 . S
C2221 C940 1.469 . S
C2239 C458 1.283 . S
C2237 C144 1.272 . S
C2257 C407 0.986 . S
C2255 C116 1.016 . S
C2273 C95 2.190 . S
C2275 C916 2.274 . S
C2293 C399 1.812 . S
C2291 C82 1.779 . S
C2309 C60 1.828 . S
C2311 C956 1.830 . S
C2327 C103 1.057 . S
C2329 C481 1.140 . S
C2345 C39 2.399 . S
C2347 C687 2.369 1_556 S
C2365 C556 2.292 . S
C2363 C19 2.207 . S
C2381 C4 2.204 . S
C2383 C767 2.291 . S
C2399 C54 2.624 . S
C2401 C636 2.561 . S
C2419 C919 1.638 . S
C2417 C334 1.604 . S
C2435 C165 1.182 . S
C2437 C401 1.162 . S
C2455 C959 0.882 . S
C2453 C306 0.888 . S
C2471 C130 2.000 . S
C2473 C476 2.046 . S
C2489 C327 0.732 . S
C2491 C660 0.717 . S
C2509 C559 1.400 . S
C2507 C158 1.386 . S
C2525 C299 0.691 . S
C2527 C740 0.386 . S
C2545 C639 2.139 . S
C2543 C137 2.148 . S
C2563 C921 2.202 . S
C2561 C250 2.391 . S
C2581 C498 1.505 . S
C2579 C222 1.557 . S
C2597 C235 1.674 . S
C2599 C721 1.693 . S
C2617 C578 0.690 . S
C2615 C187 0.741 . S
C2633 C207 1.240 . S
C2635 C641 1.302 . S
C2651 C173 1.413 . S
C2653 C961 1.469 . S
C2671 C799 1.196 . S
C2669 C228 0.970 . S
C2689 C836 1.063 . S
C2687 C270 1.029 . S
