# Generated by pormake.
# Topology wbl, (4,4)-cn, num edge types: 1
# Building blocks:
#     Node 0, Type 0, BuildingBlock: MUDLON_clean_sbu_0, # of connection points: 4
#     Node 1, Type 0, BuildingBlock: MUDLON_clean_sbu_0, # of connection points: 4
#     Node 2, Type 0, BuildingBlock: MUDLON_clean_sbu_0, # of connection points: 4
#     Node 3, Type 0, BuildingBlock: MUDLON_clean_sbu_0, # of connection points: 4
#     Node 4, Type 0, BuildingBlock: MUDLON_clean_sbu_0, # of connection points: 4
#     Node 5, Type 0, BuildingBlock: MUDLON_clean_sbu_0, # of connection points: 4
#     Node 6, Type 0, BuildingBlock: MUDLON_clean_sbu_0, # of connection points: 4
#     Node 7, Type 0, BuildingBlock: MUDLON_clean_sbu_0, # of connection points: 4
#     Node 8, Type 1, BuildingBlock: KUFVIS_clean_sbu_0, # of connection points: 4
#     Node 9, Type 1, BuildingBlock: KUFVIS_clean_sbu_0, # of connection points: 4
#     Node 10, Type 1, BuildingBlock: KUFVIS_clean_sbu_0, # of connection points: 4
#     Node 11, Type 1, BuildingBlock: KUFVIS_clean_sbu_0, # of connection points: 4
#     Node 12, Type 1, BuildingBlock: KUFVIS_clean_sbu_0, # of connection points: 4
#     Node 13, Type 1, BuildingBlock: KUFVIS_clean_sbu_0, # of connection points: 4
#     Node 14, Type 1, BuildingBlock: KUFVIS_clean_sbu_0, # of connection points: 4
#     Node 15, Type 1, BuildingBlock: KUFVIS_clean_sbu_0, # of connection points: 4
#     Edge 16, Type (0, 1), BuildingBlock: ZUJKAS_clean_linker_0, # of connection points: 2
#     Edge 17, Type (0, 1), BuildingBlock: ZUJKAS_clean_linker_0, # of connection points: 2
#     Edge 18, Type (0, 1), BuildingBlock: ZUJKAS_clean_linker_0, # of connection points: 2
#     Edge 19, Type (0, 1), BuildingBlock: ZUJKAS_clean_linker_0, # of connection points: 2
#     Edge 20, Type (0, 1), BuildingBlock: ZUJKAS_clean_linker_0, # of connection points: 2
#     Edge 21, Type (0, 1), BuildingBlock: ZUJKAS_clean_linker_0, # of connection points: 2
#     Edge 22, Type (0, 1), BuildingBlock: ZUJKAS_clean_linker_0, # of connection points: 2
#     Edge 23, Type (0, 1), BuildingBlock: ZUJKAS_clean_linker_0, # of connection points: 2
#     Edge 24, Type (0, 1), BuildingBlock: ZUJKAS_clean_linker_0, # of connection points: 2
#     Edge 25, Type (0, 1), BuildingBlock: ZUJKAS_clean_linker_0, # of connection points: 2
#     Edge 26, Type (0, 1), BuildingBlock: ZUJKAS_clean_linker_0, # of connection points: 2
#     Edge 27, Type (0, 1), BuildingBlock: ZUJKAS_clean_linker_0, # of connection points: 2
#     Edge 28, Type (0, 1), BuildingBlock: ZUJKAS_clean_linker_0, # of connection points: 2
#     Edge 29, Type (0, 1), BuildingBlock: ZUJKAS_clean_linker_0, # of connection points: 2
#     Edge 30, Type (0, 1), BuildingBlock: ZUJKAS_clean_linker_0, # of connection points: 2
#     Edge 31, Type (0, 1), BuildingBlock: ZUJKAS_clean_linker_0, # of connection points: 2
#     Edge 32, Type (0, 1), BuildingBlock: ZUJKAS_clean_linker_0, # of connection points: 2
#     Edge 33, Type (0, 1), BuildingBlock: ZUJKAS_clean_linker_0, # of connection points: 2
#     Edge 34, Type (0, 1), BuildingBlock: ZUJKAS_clean_linker_0, # of connection points: 2
#     Edge 35, Type (0, 1), BuildingBlock: ZUJKAS_clean_linker_0, # of connection points: 2
#     Edge 36, Type (0, 1), BuildingBlock: ZUJKAS_clean_linker_0, # of connection points: 2
#     Edge 37, Type (0, 1), BuildingBlock: ZUJKAS_clean_linker_0, # of connection points: 2
#     Edge 38, Type (0, 1), BuildingBlock: ZUJKAS_clean_linker_0, # of connection points: 2
#     Edge 39, Type (0, 1), BuildingBlock: ZUJKAS_clean_linker_0, # of connection points: 2
#     Edge 40, Type (0, 1), BuildingBlock: ZUJKAS_clean_linker_0, # of connection points: 2
#     Edge 41, Type (0, 1), BuildingBlock: ZUJKAS_clean_linker_0, # of connection points: 2
#     Edge 42, Type (0, 1), BuildingBlock: ZUJKAS_clean_linker_0, # of connection points: 2
#     Edge 43, Type (0, 1), BuildingBlock: ZUJKAS_clean_linker_0, # of connection points: 2
#     Edge 44, Type (0, 1), BuildingBlock: ZUJKAS_clean_linker_0, # of connection points: 2
#     Edge 45, Type (0, 1), BuildingBlock: ZUJKAS_clean_linker_0, # of connection points: 2
#     Edge 46, Type (0, 1), BuildingBlock: ZUJKAS_clean_linker_0, # of connection points: 2
#     Edge 47, Type (0, 1), BuildingBlock: ZUJKAS_clean_linker_0, # of connection points: 2
# Relax obj value: 0.226
# Max RMSD: 0.214
# Mean RMSD: 0.170
data_MOF--net-wbl--node1-MUDLON_clean_sbu_0--node2-KUFVIS_clean_sbu_0--edge1-ZUJKAS_clean_linker_0
_symmetry_space_group_name_H-M    P1
_symmetry_Int_Tables_number       1
_symmetry_cell_setting            triclinic
loop_
_symmetry_equiv_pos_as_xyz
'x, y, z'
_cell_length_a     44.942782
_cell_length_b     44.943468
_cell_length_c     96.750334
_cell_angle_alpha  90.004352
_cell_angle_beta   90.533787
_cell_angle_gamma 89.99025
loop_
_atom_site_label
_atom_site_type_symbol
_atom_site_fract_x
_atom_site_fract_y
_atom_site_fract_z
_atom_type_partial_charge
Mg0 Mg 0.02988 0.05671 0.33184 0.0
C1 C 0.01405 0.0087 0.35186 0.0
O2 O 0.99029 0.02558 0.35278 0.0
C3 C 0.98294 0.08737 0.31514 0.0
O4 O 0.00348 0.10812 0.31595 0.0
C5 C 0.07643 0.03945 0.31137 0.0
O6 O 0.05961 0.01553 0.31125 0.0
O7 O 0.0689 0.06135 0.3189 0.0
O8 O 0.03309 0.01457 0.34262 0.0
O9 O 0.03046 0.0877 0.34911 0.0
C10 C 0.0057 0.09581 0.35414 0.0
O11 O 0.98105 0.08869 0.34753 0.0
O12 O 0.98831 0.06206 0.32047 0.0
Mg13 Mg 0.10425 0.53264 0.58734 0.0
C14 C 0.1636 0.54581 0.60039 0.0
O15 O 0.16016 0.57006 0.59296 0.0
C16 C 0.10794 0.47689 0.56896 0.0
O17 O 0.13656 0.47834 0.57177 0.0
C18 C 0.10682 0.57893 0.56422 0.0
O19 O 0.10522 0.55531 0.55625 0.0
O20 O 0.10613 0.57572 0.57726 0.0
O21 O 0.14531 0.52454 0.59867 0.0
O22 O 0.07295 0.53301 0.60421 0.0
C23 C 0.06998 0.50782 0.61 0.0
O24 O 0.08344 0.48471 0.60456 0.0
O25 O 0.09069 0.49679 0.57366 0.0
Mg26 Mg 0.64504 0.60842 0.8357 0.0
C27 C 0.66493 0.64561 0.85908 0.0
O28 O 0.68455 0.62394 0.85917 0.0
C29 C 0.68674 0.58322 0.81429 0.0
O30 O 0.66167 0.57187 0.80959 0.0
C31 C 0.59984 0.62734 0.81347 0.0
O32 O 0.62015 0.64723 0.81039 0.0
O33 O 0.60507 0.60869 0.82305 0.0
O34 O 0.64669 0.64729 0.84898 0.0
O35 O 0.6401 0.57403 0.85113 0.0
C36 C 0.66186 0.55781 0.85487 0.0
O37 O 0.68663 0.55883 0.84778 0.0
O38 O 0.6861 0.60059 0.82465 0.0
Mg39 Mg 0.55553 0.13005 0.0814 0.0
C40 C 0.60271 0.14487 0.10274 0.0
O41 O 0.6023 0.17026 0.09602 0.0
C42 C 0.57481 0.07356 0.06708 0.0
O43 O 0.5995 0.07968 0.07388 0.0
C44 C 0.59061 0.17422 0.06476 0.0
O45 O 0.60913 0.15158 0.06472 0.0
O46 O 0.56554 0.17121 0.07059 0.0
O47 O 0.58763 0.12316 0.09801 0.0
O48 O 0.51524 0.13323 0.09347 0.0
C49 C 0.51579 0.15199 0.10331 0.0
O50 O 0.53757 0.17147 0.10378 0.0
O51 O 0.55292 0.09135 0.06799 0.0
Mg52 Mg 0.13552 0.56121 0.94464 0.0
C53 C 0.15733 0.60625 0.92398 0.0
O54 O 0.18183 0.60261 0.93128 0.0
C55 C 0.07474 0.5784 0.95572 0.0
O56 O 0.07387 0.59385 0.94419 0.0
C57 C 0.1828 0.58871 0.96247 0.0
O58 O 0.16158 0.6087 0.96342 0.0
O59 O 0.17786 0.56521 0.9555 0.0
O60 O 0.13356 0.59371 0.92798 0.0
O61 O 0.13188 0.52006 0.93301 0.0
C62 C 0.10743 0.51794 0.92636 0.0
O63 O 0.08709 0.5385 0.92828 0.0
O64 O 0.0981 0.56371 0.95871 0.0
Mg65 Mg 0.61441 0.6333 0.19816 0.0
C66 C 0.5654 0.64942 0.17803 0.0
O67 O 0.56792 0.67504 0.18446 0.0
C68 C 0.59585 0.5762 0.21213 0.0
O69 O 0.5741 0.57867 0.20303 0.0
C70 C 0.58787 0.68102 0.21615 0.0
O71 O 0.57145 0.65828 0.21991 0.0
O72 O 0.60876 0.67679 0.2076 0.0
O73 O 0.58013 0.62723 0.18251 0.0
O74 O 0.65349 0.63091 0.18525 0.0
C75 C 0.65657 0.60568 0.1795 0.0
O76 O 0.63887 0.58391 0.18325 0.0
O77 O 0.61544 0.59657 0.2128 0.0
Mg78 Mg 0.53069 0.10907 0.44367 0.0
C79 C 0.54267 0.16728 0.42955 0.0
O80 O 0.56791 0.16442 0.43637 0.0
C81 C 0.47424 0.10899 0.46165 0.0
O82 O 0.47426 0.13785 0.45951 0.0
C83 C 0.57794 0.12706 0.46468 0.0
O84 O 0.55576 0.14269 0.46965 0.0
O85 O 0.57349 0.11078 0.45412 0.0
O86 O 0.52139 0.1497 0.43233 0.0
O87 O 0.53235 0.07852 0.42646 0.0
C88 C 0.50795 0.07791 0.41973 0.0
O89 O 0.48523 0.09298 0.42455 0.0
O90 O 0.49506 0.09319 0.45673 0.0
Mg91 Mg 0.04626 0.01655 0.6916 0.0
C92 C 0.09075 0.99625 0.67061 0.0
O93 O 0.08655 0.97107 0.67721 0.0
C94 C 0.05751 0.07997 0.69967 0.0
O95 O 0.06706 0.0801 0.68688 0.0
C96 C 0.07031 0.97521 0.71368 0.0
O97 O 0.08044 0.00052 0.71863 0.0
O98 O 0.05418 0.97549 0.70283 0.0
O99 O 0.07863 0.01977 0.6752 0.0
O100 O 0.00549 0.0155 0.67947 0.0
C101 C 0.98899 0.03841 0.67863 0.0
O102 O 0.99384 0.06063 0.68718 0.0
O103 O 0.04772 0.0558 0.70472 0.0
Mn104 Mn 0.51672 0.72725 0.01486 0.0
Mn105 Mn 0.53827 0.65529 0.0149 0.0
C106 C 0.5158 0.70027 0.03517 0.0
C107 C 0.52867 0.77766 0.01648 0.0
C108 C 0.47765 0.67587 0.00459 0.0
O109 O 0.53799 0.72311 0.99651 0.0
O110 O 0.55403 0.6758 0.99827 0.0
C111 C 0.60255 0.66643 0.0193 0.0
N112 N 0.57702 0.65244 0.02307 0.0
C113 C 0.60191 0.628 0.04204 0.0
C114 C 0.62859 0.6418 0.03824 0.0
C115 C 0.62877 0.66144 0.02694 0.0
C116 C 0.57637 0.63418 0.03416 0.0
H117 H 0.60279 0.68153 0.01061 0.0
C118 C 0.5524 0.70079 0.99194 0.0
O119 O 0.50443 0.76883 0.01032 0.0
O120 O 0.54619 0.75719 0.02135 0.0
N121 N 0.52519 0.63236 0.03035 0.0
C122 C 0.49717 0.62294 0.03336 0.0
C123 C 0.49283 0.60392 0.04468 0.0
C124 C 0.51733 0.59462 0.0527 0.0
C125 C 0.54593 0.60469 0.04943 0.0
C126 C 0.54895 0.62326 0.03792 0.0
H127 H 0.4783 0.62981 0.02716 0.0
O128 O 0.5003 0.72446 0.03386 0.0
O129 O 0.53218 0.693 0.02466 0.0
O130 O 0.48136 0.70346 0.00725 0.0
O131 O 0.49774 0.65617 0.00669 0.0
C132 C 0.57151 0.59734 0.05725 0.0
C133 C 0.59947 0.60912 0.0536 0.0
H134 H 0.64892 0.63792 0.04406 0.0
H135 H 0.64909 0.67274 0.02413 0.0
H136 H 0.47068 0.59633 0.04718 0.0
H137 H 0.51391 0.5798 0.06136 0.0
H138 H 0.56985 0.58308 0.06624 0.0
H139 H 0.61887 0.60383 0.05987 0.0
Mn140 Mn 0.42373 0.00845 0.25846 0.0
Mn141 Mn 0.49419 0.03452 0.25982 0.0
C142 C 0.44941 0.00922 0.27922 0.0
C143 C 0.37261 0.0175 0.25935 0.0
C144 C 0.47841 0.97248 0.24969 0.0
O145 O 0.42764 0.02991 0.24008 0.0
O146 O 0.47409 0.048 0.2425 0.0
C147 C 0.47822 0.09805 0.26286 0.0
N148 N 0.49336 0.0737 0.26748 0.0
C149 C 0.51329 0.10095 0.28687 0.0
C150 C 0.4982 0.12641 0.28223 0.0
C151 C 0.48033 0.12485 0.27026 0.0
C152 C 0.51004 0.07475 0.27916 0.0
H153 H 0.46447 0.09697 0.25367 0.0
C154 C 0.44962 0.04508 0.23574 0.0
O155 O 0.38304 0.9938 0.2534 0.0
O156 O 0.39189 0.03615 0.26434 0.0
N157 N 0.51664 0.02385 0.27598 0.0
C158 C 0.52829 0.99688 0.27952 0.0
C159 C 0.54589 0.99434 0.29153 0.0
C160 C 0.55164 0.01959 0.29969 0.0
C161 C 0.5399 0.04722 0.2957 0.0
C162 C 0.52267 0.04843 0.28358 0.0
H163 H 0.524 0.9774 0.27328 0.0
O164 O 0.42636 0.9922 0.2776 0.0
O165 O 0.45627 0.02602 0.26878 0.0
O166 O 0.45032 0.97466 0.25142 0.0
O167 O 0.49671 0.99365 0.25228 0.0
C168 C 0.54429 0.07354 0.30337 0.0
C169 C 0.53086 0.10035 0.299 0.0
H170 H 0.4999 0.14719 0.28786 0.0
H171 H 0.46836 0.14432 0.26669 0.0
H172 H 0.55493 0.97295 0.29453 0.0
H173 H 0.565 0.01749 0.30901 0.0
H174 H 0.55761 0.07332 0.31276 0.0
H175 H 0.53394 0.12032 0.30513 0.0
Mn176 Mn 0.16389 0.93081 0.50149 0.0
Mn177 Mn 0.0888 0.92924 0.50236 0.0
C178 C 0.13688 0.92706 0.48118 0.0
C179 C 0.20799 0.95815 0.50085 0.0
C180 C 0.1275 0.87588 0.5094 0.0
O181 O 0.15486 0.9452 0.52085 0.0
O182 O 0.10475 0.94583 0.52006 0.0
C183 C 0.07764 0.99418 0.50264 0.0
N184 N 0.07358 0.96705 0.49664 0.0
C185 C 0.0423 0.98813 0.47884 0.0
C186 C 0.04602 0.01628 0.48487 0.0
C187 C 0.06382 0.0193 0.49681 0.0
C188 C 0.05652 0.96388 0.48515 0.0
H189 H 0.09136 0.99662 0.51179 0.0
C190 C 0.12965 0.95035 0.52631 0.0
O191 O 0.20756 0.93105 0.50553 0.0
O192 O 0.1828 0.96937 0.49682 0.0
N193 N 0.07022 0.91397 0.48595 0.0
C194 C 0.06964 0.88545 0.48117 0.0
C195 C 0.05315 0.8787 0.46917 0.0
C196 C 0.03727 0.90127 0.46228 0.0
C197 C 0.03795 0.93038 0.46748 0.0
C198 C 0.05454 0.93573 0.47955 0.0
H199 H 0.08182 0.86803 0.48641 0.0
O200 O 0.16462 0.91909 0.48161 0.0
O201 O 0.12591 0.93751 0.49259 0.0
O202 O 0.15255 0.88832 0.50715 0.0
O203 O 0.10253 0.88927 0.50805 0.0
C204 C 0.02319 0.9544 0.46104 0.0
C205 C 0.0254 0.98326 0.4667 0.0
H206 H 0.03549 0.03574 0.48038 0.0
H207 H 0.06694 0.04097 0.50147 0.0
H208 H 0.05275 0.85618 0.46522 0.0
H209 H 0.02472 0.896 0.453 0.0
H210 H 0.01035 0.95097 0.45164 0.0
H211 H 0.0142 0.0016 0.46158 0.0
Mn212 Mn 0.24215 0.6602 0.75469 0.0
Mn213 Mn 0.24604 0.58572 0.7588 0.0
C214 C 0.24536 0.62968 0.73554 0.0
C215 C 0.2144 0.70382 0.75273 0.0
C216 C 0.2986 0.62696 0.76352 0.0
O217 O 0.22922 0.65432 0.77456 0.0
O218 O 0.22958 0.60429 0.7758 0.0
C219 C 0.18152 0.57279 0.7599 0.0
N220 N 0.20855 0.56831 0.75401 0.0
C221 C 0.18797 0.5327 0.738 0.0
C222 C 0.15992 0.53677 0.74396 0.0
C223 C 0.15668 0.55702 0.75491 0.0
C224 C 0.21189 0.54908 0.74339 0.0
H225 H 0.17892 0.58833 0.76832 0.0
C226 C 0.22468 0.63004 0.78103 0.0
O227 O 0.24186 0.70415 0.75701 0.0
O228 O 0.20293 0.67806 0.74976 0.0
N229 N 0.26124 0.56472 0.74318 0.0
C230 C 0.28955 0.56423 0.73827 0.0
C231 C 0.29653 0.54535 0.7272 0.0
C232 C 0.27441 0.52704 0.72139 0.0
C233 C 0.24542 0.52793 0.72661 0.0
C234 C 0.23986 0.54698 0.73774 0.0
H235 H 0.3067 0.57812 0.74275 0.0
O236 O 0.25248 0.65761 0.73473 0.0
O237 O 0.23585 0.62056 0.74748 0.0
O238 O 0.28519 0.65095 0.76019 0.0
O239 O 0.2859 0.60152 0.76362 0.0
C240 C 0.22179 0.51083 0.72117 0.0
C241 C 0.19305 0.51331 0.72682 0.0
H242 H 0.14069 0.52467 0.74014 0.0
H243 H 0.13509 0.56052 0.75947 0.0
H244 H 0.31892 0.54483 0.7232 0.0
H245 H 0.28 0.51234 0.71294 0.0
H246 H 0.2254 0.49589 0.71257 0.0
H247 H 0.17499 0.50031 0.72244 0.0
Mn248 Mn 0.93631 0.16611 0.52335 0.0
Mn249 Mn 0.92984 0.09125 0.52207 0.0
C250 C 0.92991 0.13949 0.54344 0.0
C251 C 0.96554 0.20891 0.52455 0.0
C252 C 0.87903 0.13307 0.51512 0.0
O253 O 0.95117 0.1563 0.50418 0.0
O254 O 0.94659 0.10643 0.50439 0.0
C255 C 0.99409 0.07667 0.5215 0.0
N256 N 0.96701 0.07402 0.52758 0.0
C257 C 0.98711 0.04177 0.54519 0.0
C258 C 0.01519 0.04402 0.53907 0.0
C259 C 0.01869 0.0616 0.52719 0.0
C260 C 0.9634 0.0572 0.53903 0.0
H261 H 0.99691 0.09022 0.51239 0.0
C262 C 0.95365 0.13091 0.49845 0.0
O263 O 0.93871 0.20957 0.51945 0.0
O264 O 0.97554 0.18328 0.52865 0.0
N265 N 0.91415 0.07321 0.53838 0.0
C266 C 0.88571 0.07371 0.54313 0.0
C267 C 0.87855 0.05755 0.55507 0.0
C268 C 0.90059 0.0408 0.5619 0.0
C269 C 0.92957 0.04017 0.55666 0.0
C270 C 0.93535 0.05655 0.54467 0.0
H271 H 0.86867 0.08655 0.53793 0.0
O272 O 0.92368 0.16766 0.54298 0.0
O273 O 0.94041 0.12774 0.53218 0.0
O274 O 0.89345 0.15718 0.51716 0.0
O275 O 0.8905 0.10723 0.51664 0.0
C276 C 0.95305 0.02427 0.56298 0.0
C277 C 0.98181 0.0251 0.55726 0.0
H278 H 0.03424 0.03249 0.54345 0.0
H279 H 0.04031 0.06357 0.52246 0.0
H280 H 0.85611 0.05809 0.55903 0.0
H281 H 0.89504 0.02855 0.57116 0.0
H282 H 0.94929 0.01155 0.57231 0.0
H283 H 0.99973 0.01297 0.56227 0.0
Mn284 Mn 0.00748 0.41832 0.77652 0.0
Mn285 Mn 0.08201 0.41987 0.77261 0.0
C286 C 0.03839 0.41346 0.79558 0.0
C287 C 0.96236 0.44317 0.77928 0.0
C288 C 0.04452 0.36544 0.7663 0.0
O289 O 0.01204 0.4353 0.75723 0.0
O290 O 0.06194 0.43617 0.75581 0.0
C291 C 0.08942 0.48531 0.77242 0.0
N292 N 0.09635 0.45826 0.77791 0.0
C293 C 0.1315 0.48028 0.79377 0.0
C294 C 0.12491 0.50837 0.78823 0.0
C295 C 0.10361 0.5109 0.77757 0.0
C296 C 0.11644 0.45561 0.78831 0.0
H297 H 0.07319 0.48735 0.76417 0.0
C298 C 0.03593 0.44104 0.75076 0.0
O299 O 0.96343 0.41652 0.77411 0.0
O300 O 0.98749 0.45537 0.78276 0.0
N301 N 0.10469 0.40517 0.78798 0.0
C302 C 0.10768 0.37662 0.79252 0.0
C303 C 0.12751 0.37036 0.80344 0.0
C304 C 0.14445 0.3934 0.80939 0.0
C305 C 0.1413 0.42253 0.8044 0.0
C306 C 0.12104 0.42746 0.79357 0.0
H307 H 0.09494 0.3588 0.78788 0.0
O308 O 0.011 0.40442 0.796 0.0
O309 O 0.04676 0.42588 0.78409 0.0
O310 O 0.01955 0.37704 0.76946 0.0
O311 O 0.06924 0.37944 0.76716 0.0
C312 C 0.15741 0.44691 0.80976 0.0
C313 C 0.15232 0.47579 0.80455 0.0
H314 H 0.13591 0.52815 0.79212 0.0
H315 H 0.09815 0.53251 0.77332 0.0
H316 H 0.12985 0.34782 0.80722 0.0
H317 H 0.15977 0.38846 0.81779 0.0
H318 H 0.17362 0.44373 0.81798 0.0
H319 H 0.16451 0.4944 0.80891 0.0
Mn320 Mn 0.7426 0.50811 0.018 0.0
Mn321 Mn 0.67006 0.5277 0.01793 0.0
C322 C 0.71573 0.50768 0.99758 0.0
C323 C 0.79271 0.52129 0.01656 0.0
C324 C 0.6918 0.46674 0.02684 0.0
O325 O 0.73817 0.52832 0.03665 0.0
O326 O 0.68984 0.54104 0.03535 0.0
C327 C 0.68049 0.59256 0.01602 0.0
N328 N 0.66692 0.56752 0.01118 0.0
C329 C 0.64288 0.59488 0.99284 0.0
C330 C 0.65627 0.62105 0.99775 0.0
C331 C 0.67548 0.61978 0.00928 0.0
C332 C 0.64904 0.56832 0.99988 0.0
H333 H 0.69528 0.59169 0.02488 0.0
C334 C 0.71498 0.54032 0.04169 0.0
O335 O 0.78459 0.49655 0.02237 0.0
O336 O 0.77173 0.53863 0.01204 0.0
N337 N 0.64758 0.51673 0.00184 0.0
C338 C 0.6384 0.48917 0.99777 0.0
C339 C 0.6198 0.48633 0.9861 0.0
C340 C 0.61059 0.51183 0.97884 0.0
C341 C 0.62027 0.53996 0.98324 0.0
C342 C 0.63845 0.54144 0.99504 0.0
H343 H 0.64524 0.46951 0.00337 0.0
O344 O 0.7402 0.4926 0.99879 0.0
O345 O 0.708 0.5234 0.00828 0.0
O346 O 0.71949 0.4717 0.02497 0.0
O347 O 0.67152 0.48618 0.02462 0.0
C348 C 0.61297 0.56652 0.97625 0.0
C349 C 0.62441 0.59395 0.981 0.0
H350 H 0.65237 0.64213 0.99262 0.0
H351 H 0.68641 0.63974 0.01296 0.0
H352 H 0.61249 0.46454 0.98273 0.0
H353 H 0.59618 0.50957 0.96987 0.0
H354 H 0.59903 0.56604 0.96706 0.0
H355 H 0.61921 0.61412 0.97535 0.0
Mn356 Mn 0.64899 0.23122 0.26564 0.0
Mn357 Mn 0.6252 0.15996 0.26679 0.0
C358 C 0.64693 0.20346 0.24558 0.0
C359 C 0.63889 0.28203 0.26397 0.0
C360 C 0.6876 0.17876 0.27526 0.0
O361 O 0.62967 0.22859 0.28448 0.0
O362 O 0.61274 0.18151 0.28379 0.0
C363 C 0.56086 0.17326 0.26446 0.0
N364 N 0.58527 0.15838 0.2599 0.0
C365 C 0.55674 0.13443 0.24191 0.0
C366 C 0.53123 0.14929 0.24649 0.0
C367 C 0.53339 0.16901 0.25773 0.0
C368 C 0.58359 0.13982 0.24893 0.0
H369 H 0.56242 0.18844 0.27308 0.0
C370 C 0.61569 0.20678 0.28978 0.0
O371 O 0.66333 0.27232 0.26965 0.0
O372 O 0.6201 0.26219 0.25956 0.0
N373 N 0.63505 0.13597 0.25116 0.0
C374 C 0.66212 0.12515 0.24739 0.0
C375 C 0.66401 0.10557 0.23612 0.0
C376 C 0.63806 0.0971 0.22894 0.0
C377 C 0.61047 0.10851 0.233 0.0
C378 C 0.60991 0.12761 0.24442 0.0
H379 H 0.68211 0.13139 0.25295 0.0
O380 O 0.6633 0.22718 0.24635 0.0
O381 O 0.63133 0.1971 0.25648 0.0
O382 O 0.68423 0.20642 0.27266 0.0
O383 O 0.66684 0.15954 0.27368 0.0
C384 C 0.58356 0.10202 0.22604 0.0
C385 C 0.55674 0.11513 0.23044 0.0
H386 H 0.50996 0.14602 0.24135 0.0
H387 H 0.51389 0.18087 0.26121 0.0
H388 H 0.68541 0.09694 0.23301 0.0
H389 H 0.63958 0.0819 0.22029 0.0
H390 H 0.58333 0.08741 0.21713 0.0
H391 H 0.53631 0.11049 0.22481 0.0
H392 H 0.09977 0.99524 0.29536 0.0
H393 H 0.14862 0.99399 0.28446 0.0
H394 H 0.16639 0.08294 0.29904 0.0
H395 H 0.11769 0.08429 0.31015 0.0
H396 H 0.17579 0.03111 0.26454 0.0
H397 H 0.23579 0.03385 0.31499 0.0
H398 H 0.19643 0.02636 0.3136 0.0
H399 H 0.21 0.06387 0.31233 0.0
C400 C 0.11396 0.01464 0.29619 0.0
C401 C 0.10492 0.03976 0.30376 0.0
C402 C 0.14186 0.01389 0.28993 0.0
C403 C 0.16131 0.03816 0.29114 0.0
C404 C 0.15192 0.06374 0.29821 0.0
H405 H 0.34565 0.06664 0.26993 0.0
H406 H 0.29346 0.07249 0.27613 0.0
C407 C 0.12402 0.06452 0.30449 0.0
C408 C 0.19179 0.03625 0.28545 0.0
H409 H 0.26514 0.03655 0.29492 0.0
C410 C 0.19536 0.03228 0.27116 0.0
C411 C 0.21726 0.0376 0.29413 0.0
C412 C 0.21482 0.04038 0.30963 0.0
C413 C 0.2238 0.03021 0.26529 0.0
C414 C 0.24925 0.03169 0.27398 0.0
C415 C 0.24561 0.03558 0.28826 0.0
C416 C 0.27999 0.02916 0.26862 0.0
C417 C 0.2264 0.02704 0.24982 0.0
C418 C 0.28972 0.00298 0.26213 0.0
C419 C 0.31964 0.99958 0.25851 0.0
C420 C 0.34036 0.02221 0.26145 0.0
C421 C 0.3303 0.04874 0.26754 0.0
C422 C 0.30046 0.05214 0.2711 0.0
H423 H 0.20564 0.03396 0.24439 0.0
H424 H 0.2452 0.04048 0.24585 0.0
H425 H 0.23067 0.00337 0.24725 0.0
H426 H 0.27444 0.98472 0.26035 0.0
H427 H 0.32674 0.97882 0.25391 0.0
H428 H 0.10148 0.5953 0.53703 0.0
H429 H 0.10701 0.64518 0.52724 0.0
H430 H 0.12649 0.68012 0.56786 0.0
H431 H 0.12019 0.6306 0.57776 0.0
H432 H 0.08711 0.71408 0.55464 0.0
H433 H 0.18186 0.69176 0.5199 0.0
H434 H 0.15072 0.66766 0.51671 0.0
H435 H 0.17029 0.66575 0.533 0.0
C436 C 0.10704 0.61359 0.54387 0.0
C437 C 0.11037 0.60897 0.55817 0.0
C438 C 0.11045 0.64206 0.53824 0.0
C439 C 0.11771 0.66633 0.54677 0.0
C440 C 0.12102 0.66173 0.56105 0.0
H441 H 0.17398 0.84244 0.51953 0.0
H442 H 0.17204 0.79156 0.52854 0.0
C443 C 0.11736 0.63338 0.5667 0.0
C444 C 0.12053 0.6968 0.54099 0.0
H445 H 0.15709 0.73832 0.51693 0.0
C446 C 0.10252 0.71938 0.54643 0.0
C447 C 0.14097 0.70384 0.53043 0.0
C448 C 0.16228 0.68106 0.52476 0.0
C449 C 0.10403 0.74868 0.54149 0.0
C450 C 0.12348 0.75545 0.53051 0.0
C451 C 0.14191 0.73302 0.52522 0.0
C452 C 0.12498 0.78573 0.52443 0.0
C453 C 0.08514 0.77217 0.5483 0.0
C454 C 0.09937 0.79905 0.51881 0.0
C455 C 0.10032 0.82816 0.51379 0.0
C456 C 0.12707 0.84444 0.51407 0.0
C457 C 0.15301 0.8306 0.51919 0.0
C458 C 0.15194 0.80151 0.52434 0.0
H459 H 0.07865 0.76551 0.55891 0.0
H460 H 0.09702 0.7938 0.5489 0.0
H461 H 0.06442 0.77537 0.54215 0.0
H462 H 0.07851 0.787 0.5184 0.0
H463 H 0.07999 0.83792 0.50975 0.0
H464 H 0.58078 0.66295 0.79209 0.0
H465 H 0.53051 0.66553 0.78201 0.0
H466 H 0.50169 0.59597 0.80947 0.0
H467 H 0.5516 0.59304 0.81954 0.0
H468 H 0.49356 0.61459 0.77001 0.0
H469 H 0.44528 0.67085 0.81583 0.0
H470 H 0.48462 0.67147 0.81216 0.0
H471 H 0.468 0.63873 0.81937 0.0
C472 C 0.56379 0.64807 0.79592 0.0
C473 C 0.57017 0.6279 0.80667 0.0
C474 C 0.53514 0.64958 0.79015 0.0
C475 C 0.51245 0.63116 0.79513 0.0
C476 C 0.5189 0.61056 0.8056 0.0
H477 H 0.33754 0.58079 0.7676 0.0
H478 H 0.39006 0.58365 0.77422 0.0
C479 C 0.54748 0.60889 0.81131 0.0
C480 C 0.48176 0.6336 0.78963 0.0
H481 H 0.41125 0.65282 0.79891 0.0
C482 C 0.47555 0.62317 0.77625 0.0
C483 C 0.45849 0.64506 0.79778 0.0
C484 C 0.4643 0.65741 0.81206 0.0
C485 C 0.44632 0.62297 0.77098 0.0
C486 C 0.42287 0.63331 0.77936 0.0
C487 C 0.42929 0.64472 0.79255 0.0
C488 C 0.39138 0.63174 0.77482 0.0
C489 C 0.4407 0.61165 0.75651 0.0
C490 C 0.37463 0.65785 0.77318 0.0
C491 C 0.34457 0.65634 0.76941 0.0
C492 C 0.33059 0.62863 0.76737 0.0
C493 C 0.34751 0.6025 0.76909 0.0
C494 C 0.37761 0.60407 0.77277 0.0
H495 H 0.46139 0.61139 0.75031 0.0
H496 H 0.43205 0.58856 0.75704 0.0
H497 H 0.42381 0.62554 0.7511 0.0
H498 H 0.38486 0.67941 0.77482 0.0
H499 H 0.33225 0.67691 0.76822 0.0
H500 H 0.52624 0.05306 0.0526 0.0
H501 H 0.51982 0.00407 0.0419 0.0
H502 H 0.6096 0.98065 0.05359 0.0
H503 H 0.61623 0.02941 0.0644 0.0
H504 H 0.55397 0.97334 0.02076 0.0
H505 H 0.55641 0.91608 0.07167 0.0
H506 H 0.55081 0.9557 0.06999 0.0
H507 H 0.58747 0.94019 0.06844 0.0
C508 C 0.54472 0.03759 0.05281 0.0
C509 C 0.57167 0.04506 0.05949 0.0
C510 C 0.54101 0.00964 0.04666 0.0
C511 C 0.56409 0.98864 0.04714 0.0
C512 C 0.59137 0.99642 0.0533 0.0
H513 H 0.57928 0.80179 0.02743 0.0
H514 H 0.58841 0.8538 0.03343 0.0
C515 C 0.59513 0.02435 0.05944 0.0
C516 C 0.55926 0.95816 0.04173 0.0
H517 H 0.55549 0.88553 0.05182 0.0
C518 C 0.55423 0.95409 0.02752 0.0
C519 C 0.55951 0.93318 0.05061 0.0
C520 C 0.56358 0.93637 0.06605 0.0
C521 C 0.55013 0.92551 0.02189 0.0
C522 C 0.55053 0.9005 0.03078 0.0
C523 C 0.55536 0.90469 0.04501 0.0
C524 C 0.54596 0.86966 0.02569 0.0
C525 C 0.54609 0.92228 0.00647 0.0
C526 C 0.51916 0.86131 0.01919 0.0
C527 C 0.51392 0.83153 0.01567 0.0
C528 C 0.53527 0.80957 0.01875 0.0
C529 C 0.56236 0.81815 0.02494 0.0
C530 C 0.56762 0.84787 0.02838 0.0
H531 H 0.5543 0.94216 0.00085 0.0
H532 H 0.55793 0.90232 0.00258 0.0
H533 H 0.52206 0.91968 0.00403 0.0
H534 H 0.50187 0.87761 0.01727 0.0
H535 H 0.49276 0.82559 0.01099 0.0
H536 H 0.23215 0.55285 0.96195 0.0
H537 H 0.28259 0.56511 0.96986 0.0
H538 H 0.25226 0.65154 0.98303 0.0
H539 H 0.20181 0.63929 0.97545 0.0
H540 H 0.31823 0.60995 0.96061 0.0
H541 H 0.29864 0.62397 0.01667 0.0
H542 H 0.27189 0.60641 0.00528 0.0
H543 H 0.27418 0.64634 0.00623 0.0
C544 C 0.23613 0.57431 0.96671 0.0
C545 C 0.2129 0.59504 0.96812 0.0
C546 C 0.26499 0.5813 0.97119 0.0
C547 C 0.27113 0.60908 0.97721 0.0
C548 C 0.24794 0.6297 0.97872 0.0
H549 H 0.42666 0.70894 0.00181 0.0
H550 H 0.37726 0.69167 0.99471 0.0
C551 C 0.21909 0.6227 0.97431 0.0
C552 C 0.30203 0.6172 0.98122 0.0
H553 H 0.34462 0.64294 0.0081 0.0
C554 C 0.32408 0.61686 0.97103 0.0
C555 C 0.30963 0.62621 0.99482 0.0
C556 C 0.28741 0.62549 0.00641 0.0
C557 C 0.35331 0.62611 0.97397 0.0
C558 C 0.36067 0.63574 0.98748 0.0
C559 C 0.33879 0.63571 0.99772 0.0
C560 C 0.39094 0.6462 0.99119 0.0
C561 C 0.37595 0.6263 0.96256 0.0
C562 C 0.41496 0.62629 0.99153 0.0
C563 C 0.44326 0.63603 0.99562 0.0
C564 C 0.44806 0.6659 0.99943 0.0
C565 C 0.4239 0.68583 0.99889 0.0
C566 C 0.3956 0.67601 0.99488 0.0
H567 H 0.36543 0.6235 0.9522 0.0
H568 H 0.38878 0.64741 0.96267 0.0
H569 H 0.39189 0.60775 0.9642 0.0
H570 H 0.4117 0.6031 0.98887 0.0
H571 H 0.46126 0.62001 0.99595 0.0
H572 H 0.61049 0.7337 0.20667 0.0
H573 H 0.59409 0.78408 0.21247 0.0
H574 H 0.5304 0.74804 0.24099 0.0
H575 H 0.5466 0.69758 0.23528 0.0
H576 H 0.53358 0.8057 0.20931 0.0
H577 H 0.57577 0.81352 0.26337 0.0
H578 H 0.58987 0.78669 0.25116 0.0
H579 H 0.55469 0.78059 0.25934 0.0
C580 C 0.59326 0.73646 0.21431 0.0
C581 C 0.57988 0.71159 0.22053 0.0
C582 C 0.58386 0.76527 0.21757 0.0
C583 C 0.56119 0.76975 0.22722 0.0
C584 C 0.54819 0.74505 0.23364 0.0
H585 H 0.44785 0.92266 0.24124 0.0
H586 H 0.46844 0.87405 0.23516 0.0
C587 C 0.55743 0.71622 0.23033 0.0
C588 C 0.55017 0.80018 0.2301 0.0
H589 H 0.54372 0.85216 0.25563 0.0
C590 C 0.53588 0.81595 0.21941 0.0
C591 C 0.55342 0.81349 0.24326 0.0
C592 C 0.56947 0.79788 0.25494 0.0
C593 C 0.52421 0.84453 0.22163 0.0
C594 C 0.5268 0.85754 0.23489 0.0
C595 C 0.54161 0.84201 0.2455 0.0
C596 C 0.51435 0.88731 0.23798 0.0
C597 C 0.50943 0.86073 0.20976 0.0
C598 C 0.53336 0.91081 0.24163 0.0
C599 C 0.52172 0.93865 0.24508 0.0
C600 C 0.49075 0.94347 0.2451 0.0
C601 C 0.47178 0.91984 0.24132 0.0
C602 C 0.48349 0.89204 0.23779 0.0
H603 H 0.51489 0.85054 0.19964 0.0
H604 H 0.48493 0.85988 0.21104 0.0
H605 H 0.51622 0.88449 0.20963 0.0
H606 H 0.55725 0.90755 0.24188 0.0
H607 H 0.53706 0.95621 0.24798 0.0
H608 H 0.42617 0.13517 0.47408 0.0
H609 H 0.38216 0.11024 0.48343 0.0
H610 H 0.42045 0.02488 0.4738 0.0
H611 H 0.46443 0.04937 0.46454 0.0
H612 H 0.36026 0.03767 0.4627 0.0
H613 H 0.37237 0.05653 0.51936 0.0
H614 H 0.37827 0.08795 0.50815 0.0
H615 H 0.40374 0.05725 0.5078 0.0
C616 C 0.42541 0.11109 0.47413 0.0
C617 C 0.4488 0.09429 0.46851 0.0
C618 C 0.40031 0.0969 0.47952 0.0
C619 C 0.39821 0.06575 0.47936 0.0
C620 C 0.42176 0.04894 0.47407 0.0
H621 H 0.26452 0.94101 0.50828 0.0
H622 H 0.31105 0.96795 0.50395 0.0
C623 C 0.44689 0.06304 0.46878 0.0
C624 C 0.37053 0.05062 0.48363 0.0
H625 H 0.32786 0.03348 0.51157 0.0
C626 C 0.35316 0.03673 0.47338 0.0
C627 C 0.36153 0.04935 0.49757 0.0
C628 C 0.37994 0.06337 0.50893 0.0
C629 C 0.32678 0.02182 0.4767 0.0
C630 C 0.31753 0.02085 0.49061 0.0
C631 C 0.33504 0.03442 0.50091 0.0
C632 C 0.28949 0.00594 0.49448 0.0
C633 C 0.30897 0.00702 0.46532 0.0
C634 C 0.2621 0.01874 0.49083 0.0
C635 C 0.23559 0.00352 0.4933 0.0
C636 C 0.23601 0.97514 0.49944 0.0
C637 C 0.26348 0.96279 0.50351 0.0
C638 C 0.29004 0.97814 0.50108 0.0
H639 H 0.32158 0.00559 0.45552 0.0
H640 H 0.30226 0.98425 0.46847 0.0
H641 H 0.28837 0.02003 0.46334 0.0
H642 H 0.26129 0.04024 0.48578 0.0
H643 H 0.21482 0.01372 0.49008 0.0
H644 H 0.10289 0.96638 0.73738 0.0
H645 H 0.12438 0.91953 0.74573 0.0
H646 H 0.083 0.87265 0.71179 0.0
H647 H 0.06126 0.91923 0.70336 0.0
H648 H 0.09258 0.85817 0.75096 0.0
H649 H 0.17884 0.86218 0.71001 0.0
H650 H 0.15963 0.89511 0.71586 0.0
H651 H 0.14079 0.86891 0.70489 0.0
C652 C 0.09801 0.94606 0.73178 0.0
C653 C 0.08052 0.94658 0.71965 0.0
C654 C 0.11026 0.91934 0.7366 0.0
C655 C 0.10537 0.89281 0.72931 0.0
C656 C 0.08705 0.893 0.71751 0.0
H657 H 0.15572 0.70973 0.74551 0.0
H658 H 0.12844 0.75592 0.74091 0.0
C659 C 0.07463 0.91964 0.71273 0.0
C660 C 0.121 0.86528 0.7335 0.0
H661 H 0.17855 0.81997 0.72444 0.0
C662 C 0.11137 0.84973 0.7452 0.0
C663 C 0.14562 0.85465 0.72598 0.0
C664 C 0.1571 0.87105 0.71351 0.0
C665 C 0.12561 0.82342 0.74949 0.0
C666 C 0.14998 0.81255 0.74184 0.0
C667 C 0.1598 0.82837 0.73025 0.0
C668 C 0.16571 0.78475 0.74563 0.0
C669 C 0.11482 0.80758 0.76224 0.0
C670 C 0.19569 0.78573 0.74976 0.0
C671 C 0.21131 0.75942 0.75242 0.0
C672 C 0.1973 0.73166 0.75082 0.0
C673 C 0.16712 0.73077 0.74685 0.0
C674 C 0.15146 0.75712 0.74428 0.0
H675 H 0.09985 0.82182 0.76848 0.0
H676 H 0.10232 0.78735 0.7591 0.0
H677 H 0.13391 0.80044 0.76881 0.0
H678 H 0.20709 0.80687 0.75078 0.0
H679 H 0.23454 0.76086 0.75543 0.0
H680 H 0.74239 0.59361 0.8249 0.0
H681 H 0.78943 0.57206 0.81726 0.0
H682 H 0.74372 0.52754 0.78381 0.0
H683 H 0.69642 0.54887 0.79139 0.0
H684 H 0.79795 0.50686 0.81474 0.0
H685 H 0.8188 0.56945 0.76613 0.0
H686 H 0.79534 0.58375 0.77968 0.0
H687 H 0.78191 0.55478 0.7685 0.0
C688 C 0.74234 0.57961 0.81579 0.0
C689 C 0.71561 0.57291 0.80877 0.0
C690 C 0.76924 0.56728 0.81147 0.0
C691 C 0.77001 0.54837 0.79995 0.0
C692 C 0.74359 0.54235 0.79264 0.0
H693 H 0.90603 0.42082 0.77631 0.0
H694 H 0.85892 0.44643 0.78086 0.0
C695 C 0.71659 0.55449 0.79702 0.0
C696 C 0.79808 0.53331 0.79619 0.0
H697 H 0.85175 0.52987 0.77147 0.0
C698 C 0.80973 0.51186 0.80528 0.0
C699 C 0.81334 0.54002 0.78387 0.0
C700 C 0.80195 0.56338 0.77397 0.0
C701 C 0.83621 0.49671 0.80231 0.0
C702 C 0.85134 0.50322 0.78994 0.0
C703 C 0.83988 0.52485 0.78089 0.0
C704 C 0.87959 0.48821 0.7865 0.0
C705 C 0.84811 0.47405 0.81245 0.0
C706 C 0.90664 0.50341 0.78802 0.0
C707 C 0.93354 0.48883 0.78555 0.0
C708 C 0.9338 0.45885 0.78137 0.0
C709 C 0.90656 0.4439 0.77953 0.0
C710 C 0.87967 0.45845 0.78212 0.0
H711 H 0.83573 0.47423 0.82234 0.0
H712 H 0.8463 0.4515 0.80785 0.0
H713 H 0.87201 0.47833 0.81468 0.0
H714 H 0.90695 0.5264 0.7914 0.0
H715 H 0.95414 0.50099 0.787 0.0
H716 H 0.64513 0.18962 0.05469 0.0
H717 H 0.66247 0.23922 0.04824 0.0
H718 H 0.5755 0.27517 0.0566 0.0
H719 H 0.5581 0.22573 0.06335 0.0
H720 H 0.64361 0.27857 0.02823 0.0
H721 H 0.62915 0.32736 0.08042 0.0
H722 H 0.62748 0.28782 0.07728 0.0
H723 H 0.59586 0.31101 0.07341 0.0
C724 C 0.62962 0.20803 0.05511 0.0
C725 C 0.60028 0.20374 0.05966 0.0
C726 C 0.63959 0.23638 0.05142 0.0
C727 C 0.62047 0.261 0.05222 0.0
C728 C 0.59086 0.25661 0.05625 0.0
H729 H 0.63583 0.44849 0.03391 0.0
H730 H 0.61962 0.3984 0.04004 0.0
C731 C 0.58089 0.22829 0.06 0.0
C732 C 0.63161 0.29124 0.0489 0.0
H733 H 0.64099 0.36097 0.06233 0.0
C734 C 0.64319 0.29655 0.0357 0.0
C735 C 0.63117 0.31464 0.0587 0.0
C736 C 0.62052 0.30994 0.07329 0.0
C737 C 0.65371 0.32481 0.03193 0.0
C738 C 0.65292 0.34824 0.04168 0.0
C739 C 0.6415 0.34293 0.05489 0.0
C740 C 0.66327 0.37864 0.03825 0.0
C741 C 0.66497 0.32961 0.01746 0.0
C742 C 0.69335 0.38421 0.03547 0.0
C743 C 0.70281 0.41291 0.03201 0.0
C744 C 0.68231 0.43657 0.03127 0.0
C745 C 0.65227 0.43088 0.03433 0.0
C746 C 0.6429 0.40224 0.03785 0.0
H747 H 0.6585 0.31113 0.01042 0.0
H748 H 0.65631 0.35083 0.01313 0.0
H749 H 0.68962 0.33098 0.01773 0.0
H750 H 0.70949 0.36633 0.03594 0.0
H751 H 0.72609 0.41642 0.02974 0.0
H752 H 0.96362 0.1405 0.30472 0.0
H753 H 0.91301 0.15403 0.29776 0.0
H754 H 0.88337 0.06479 0.3064 0.0
H755 H 0.93408 0.05091 0.31337 0.0
H756 H 0.86123 0.09077 0.28066 0.0
H757 H 0.84479 0.16412 0.32618 0.0
H758 H 0.87786 0.17145 0.31645 0.0
H759 H 0.87411 0.13669 0.32544 0.0
C760 C 0.94644 0.12363 0.30505 0.0
C761 C 0.95288 0.09466 0.3097 0.0
C762 C 0.91749 0.13147 0.30113 0.0
C763 C 0.89441 0.11055 0.3018 0.0
C764 C 0.90089 0.0813 0.30591 0.0
H765 H 0.70443 0.12192 0.28221 0.0
H766 H 0.75404 0.10444 0.28882 0.0
C767 C 0.92987 0.07342 0.30987 0.0
C768 C 0.86345 0.11946 0.29844 0.0
H769 H 0.80749 0.16559 0.30872 0.0
C770 C 0.84934 0.10697 0.28682 0.0
C771 C 0.84809 0.14059 0.30652 0.0
C772 C 0.86181 0.15386 0.31942 0.0
C773 C 0.82051 0.11575 0.28282 0.0
C774 C 0.80523 0.1371 0.29085 0.0
C775 C 0.81926 0.14928 0.30257 0.0
C776 C 0.77491 0.14765 0.28712 0.0
C777 C 0.80706 0.10279 0.2698 0.0
C778 C 0.76994 0.17793 0.28442 0.0
C779 C 0.74154 0.1881 0.28078 0.0
C780 C 0.71744 0.16818 0.2798 0.0
C781 C 0.72243 0.1379 0.28278 0.0
C782 C 0.75085 0.12779 0.28647 0.0
H783 H 0.82425 0.09283 0.26304 0.0
H784 H 0.79112 0.08498 0.27261 0.0
H785 H 0.79476 0.12003 0.26383 0.0
H786 H 0.78817 0.19367 0.28495 0.0
H787 H 0.73862 0.21155 0.27858 0.0
H788 H 0.13769 0.43035 0.55694 0.0
H789 H 0.11594 0.38517 0.5468 0.0
H790 H 0.02791 0.41897 0.55455 0.0
H791 H 0.04923 0.46411 0.56458 0.0
H792 H 0.04423 0.3587 0.56578 0.0
H793 H 0.0645 0.37397 0.5095 0.0
H794 H 0.09451 0.38203 0.52142 0.0
H795 H 0.06194 0.40505 0.5213 0.0
C796 C 0.1137 0.42835 0.55631 0.0
C797 C 0.09521 0.45081 0.56162 0.0
C798 C 0.10134 0.40259 0.55048 0.0
C799 C 0.07036 0.3989 0.5499 0.0
C800 C 0.05188 0.42153 0.55487 0.0
H801 H 0.95069 0.26571 0.51694 0.0
H802 H 0.9781 0.31153 0.52227 0.0
C803 C 0.06415 0.44731 0.5606 0.0
C804 C 0.05706 0.37056 0.54513 0.0
H805 H 0.04199 0.32887 0.51639 0.0
C806 C 0.04382 0.35208 0.555 0.0
C807 C 0.05648 0.36223 0.53105 0.0
C808 C 0.06995 0.38182 0.52012 0.0
C809 C 0.02996 0.32535 0.55115 0.0
C810 C 0.02947 0.31688 0.53707 0.0
C811 C 0.04261 0.33541 0.52717 0.0
C812 C 0.01468 0.2891 0.53254 0.0
C813 C 0.01543 0.30657 0.56212 0.0
C814 C 0.0266 0.26138 0.53628 0.0
C815 C 0.01107 0.23522 0.53324 0.0
C816 C 0.9833 0.23635 0.52644 0.0
C817 C 0.97198 0.26412 0.52223 0.0
C818 C 0.98761 0.29029 0.52523 0.0
H819 H 0.01321 0.31875 0.57205 0.0
H820 H 0.99301 0.29917 0.55863 0.0
H821 H 0.02914 0.28642 0.56402 0.0
H822 H 0.04759 0.26006 0.54184 0.0
H823 H 0.02046 0.21419 0.53658 0.0
H824 H 0.59547 0.15946 0.48733 0.0
H825 H 0.64593 0.1645 0.49688 0.0
H826 H 0.67898 0.10516 0.46555 0.0
H827 H 0.62886 0.10011 0.45589 0.0
H828 H 0.68474 0.11955 0.50699 0.0
H829 H 0.73264 0.17922 0.46223 0.0
H830 H 0.69304 0.1758 0.46482 0.0
H831 H 0.71375 0.14536 0.45764 0.0
C832 C 0.61348 0.14749 0.48247 0.0
C833 C 0.60816 0.12949 0.47081 0.0
C834 C 0.64227 0.15041 0.48794 0.0
C835 C 0.66621 0.1356 0.48177 0.0
C836 C 0.66089 0.11724 0.47029 0.0
H837 H 0.83952 0.08724 0.51163 0.0
H838 H 0.78745 0.0902 0.50446 0.0
C839 C 0.63217 0.11425 0.46484 0.0
C840 C 0.69676 0.13877 0.48744 0.0
H841 H 0.7672 0.15949 0.47872 0.0
C842 C 0.70275 0.12853 0.50088 0.0
C843 C 0.72007 0.15093 0.47951 0.0
C844 C 0.71459 0.16373 0.4653 0.0
C845 C 0.73175 0.12902 0.5064 0.0
C846 C 0.75533 0.13967 0.49817 0.0
C847 C 0.74912 0.15104 0.48495 0.0
C848 C 0.78676 0.1382 0.50288 0.0
C849 C 0.73691 0.11806 0.52096 0.0
C850 C 0.80385 0.16421 0.50408 0.0
C851 C 0.83379 0.16264 0.50811 0.0
C852 C 0.84725 0.13496 0.51089 0.0
C853 C 0.82998 0.10896 0.5096 0.0
C854 C 0.80009 0.11058 0.5056 0.0
H855 H 0.71614 0.11875 0.5271 0.0
H856 H 0.74467 0.09464 0.52063 0.0
H857 H 0.75419 0.13154 0.52634 0.0
H858 H 0.794 0.18573 0.50192 0.0
H859 H 0.84637 0.18312 0.50897 0.0
H860 H 0.07756 0.13469 0.69185 0.0
H861 H 0.07464 0.18134 0.70471 0.0
H862 H 0.03206 0.13576 0.73839 0.0
H863 H 0.03526 0.08876 0.72567 0.0
H864 H 0.02379 0.20978 0.71378 0.0
H865 H 0.09898 0.18194 0.75783 0.0
H866 H 0.09767 0.16022 0.74214 0.0
H867 H 0.06918 0.15598 0.75489 0.0
C868 C 0.06777 0.13447 0.70204 0.0
C869 C 0.05672 0.10796 0.70775 0.0
C870 C 0.06608 0.16119 0.70936 0.0
C871 C 0.05342 0.16197 0.72255 0.0
C872 C 0.04242 0.13556 0.72833 0.0
H873 H 0.99715 0.32778 0.76202 0.0
H874 H 0.99809 0.27762 0.75223 0.0
C875 C 0.04415 0.10875 0.72101 0.0
C876 C 0.05088 0.19072 0.72997 0.0
H877 H 0.07358 0.22803 0.75896 0.0
C878 C 0.03461 0.21377 0.72368 0.0
C879 C 0.06522 0.1959 0.74283 0.0
C880 C 0.08398 0.17233 0.7498 0.0
C881 C 0.0324 0.24194 0.72984 0.0
C882 C 0.04642 0.24703 0.74278 0.0
C883 C 0.06262 0.22396 0.74911 0.0
C884 C 0.04582 0.27663 0.74954 0.0
C885 C 0.01583 0.26626 0.72225 0.0
C886 C 0.07243 0.2923 0.7517 0.0
C887 C 0.07204 0.32088 0.75736 0.0
C888 C 0.04497 0.33441 0.76103 0.0
C889 C 0.01839 0.31822 0.75923 0.0
C890 C 0.01884 0.28958 0.75357 0.0
H891 H 0.01234 0.26074 0.71116 0.0
H892 H 0.99366 0.26934 0.727 0.0
H893 H 0.02802 0.2877 0.72297 0.0
H894 H 0.09351 0.28264 0.74871 0.0
H895 H 0.09299 0.33251 0.75867 0.0
H896 H 0.01877 0.59903 0.94997 0.0
H897 H 0.97338 0.5903 0.96312 0.0
H898 H 0.02387 0.54235 0.99396 0.0
H899 H 0.06951 0.55079 0.98085 0.0
H900 H 0.95344 0.52861 0.97062 0.0
H901 H 0.96961 0.60501 0.01541 0.0
H902 H 0.98769 0.61101 0.99903 0.0
H903 H 0.0005 0.58203 0.01033 0.0
C904 C 0.02036 0.58695 0.95964 0.0
C905 C 0.04779 0.57555 0.96434 0.0
C906 C 0.99437 0.58195 0.96712 0.0
C907 C 0.99536 0.56582 0.97952 0.0
C908 C 0.02275 0.5551 0.98447 0.0
H909 H 0.84113 0.48464 0.01937 0.0
H910 H 0.89215 0.49476 0.01185 0.0
C911 C 0.04876 0.55988 0.97694 0.0
C912 C 0.96738 0.55862 0.98674 0.0
H913 H 0.92625 0.5753 0.01524 0.0
C914 C 0.94754 0.53864 0.98042 0.0
C915 C 0.95985 0.57187 0.99949 0.0
C916 C 0.98035 0.59382 0.00651 0.0
C917 C 0.92015 0.53168 0.98646 0.0
C918 C 0.9125 0.54502 0.99918 0.0
C919 C 0.93239 0.56493 0.00556 0.0
C920 C 0.88298 0.53995 0.00541 0.0
C921 C 0.89917 0.51074 0.97905 0.0
C922 C 0.8613 0.56231 0.00464 0.0
C923 C 0.8322 0.55658 0.00883 0.0
C924 C 0.82433 0.52843 0.01399 0.0
C925 C 0.84651 0.50655 0.01545 0.0
C926 C 0.87561 0.51225 0.01113 0.0
H927 H 0.90677 0.50537 0.96844 0.0
H928 H 0.89751 0.48967 0.98498 0.0
H929 H 0.87653 0.52058 0.97838 0.0
H930 H 0.8666 0.58383 0.00025 0.0
H931 H 0.81565 0.57394 0.00763 0.0
H932 H 0.64007 0.56217 0.23073 0.0
H933 H 0.64756 0.51481 0.24278 0.0
H934 H 0.56706 0.48042 0.2242 0.0
H935 H 0.55915 0.52772 0.21226 0.0
H936 H 0.57406 0.4661 0.25263 0.0
H937 H 0.67533 0.43955 0.22237 0.0
H938 H 0.67601 0.47453 0.23136 0.0
H939 H 0.64991 0.46885 0.21744 0.0
C940 C 0.6238 0.54463 0.2293 0.0
C941 C 0.59913 0.54865 0.22043 0.0
C942 C 0.62822 0.51753 0.23614 0.0
C943 C 0.60814 0.49395 0.23419 0.0
C944 C 0.5829 0.4983 0.22579 0.0
H945 H 0.59013 0.30805 0.25208 0.0
H946 H 0.58286 0.36061 0.24663 0.0
C947 C 0.57844 0.52536 0.21896 0.0
C948 C 0.61385 0.46435 0.24044 0.0
H949 H 0.66096 0.40481 0.23923 0.0
C950 C 0.59313 0.45273 0.24977 0.0
C951 C 0.63878 0.447 0.23669 0.0
C952 C 0.66121 0.45791 0.22634 0.0
C953 C 0.59659 0.42411 0.2554 0.0
C954 C 0.62113 0.40648 0.25139 0.0
C955 C 0.64221 0.41839 0.24232 0.0
C956 C 0.62455 0.37503 0.25579 0.0
C957 C 0.57399 0.41304 0.26562 0.0
C958 C 0.65056 0.36555 0.26263 0.0
C959 C 0.65488 0.33541 0.26569 0.0
C960 C 0.63335 0.31419 0.26185 0.0
C961 C 0.60709 0.32384 0.25523 0.0
C962 C 0.60279 0.35393 0.25219 0.0
H963 H 0.56233 0.43178 0.27075 0.0
H964 H 0.55701 0.39952 0.26008 0.0
H965 H 0.58459 0.39888 0.27368 0.0
H966 H 0.66773 0.38143 0.26541 0.0
H967 H 0.67538 0.32868 0.27076 0.0
H968 H 0.06296 0.97262 0.35412 0.0
H969 H 0.08192 0.94893 0.37517 0.0
H970 H 0.00376 0.97733 0.39709 0.0
H971 H 0.98438 0.00051 0.37609 0.0
H972 H 0.09527 0.98236 0.39766 0.0
H973 H 0.01568 0.89417 0.41245 0.0
H974 H 0.01655 0.90986 0.39526 0.0
H975 H 0.99779 0.9291 0.40897 0.0
C976 C 0.04936 0.97304 0.36331 0.0
C977 C 0.02227 0.98869 0.36345 0.0
C978 C 0.06026 0.95952 0.37534 0.0
C979 C 0.04422 0.96126 0.3877 0.0
C980 C 0.01628 0.97518 0.38763 0.0
H981 H 0.11212 0.97693 0.47054 0.0
H982 H 0.08955 0.98332 0.44756 0.0
C983 C 0.00529 0.98858 0.37559 0.0
C984 C 0.05848 0.95252 0.40097 0.0
H985 H 0.04839 0.91206 0.43043 0.0
C986 C 0.0852 0.96666 0.40474 0.0
C987 C 0.04537 0.93202 0.41019 0.0
C988 C 0.01741 0.91519 0.40646 0.0
C989 C 0.0987 0.96157 0.41763 0.0
C990 C 0.08487 0.94218 0.4271 0.0
C991 C 0.05871 0.92721 0.42319 0.0
C992 C 0.09707 0.93778 0.44119 0.0
C993 C 0.1276 0.97715 0.42105 0.0
C994 C 0.10827 0.90994 0.44526 0.0
C995 C 0.121 0.90628 0.4584 0.0
C996 C 0.12184 0.93017 0.46773 0.0
C997 C 0.11079 0.958 0.46362 0.0
C998 C 0.09823 0.96172 0.45049 0.0
H999 H 0.139 0.98504 0.41159 0.0
H1000 H 0.12294 0.99681 0.42763 0.0
H1001 H 0.14291 0.9622 0.42685 0.0
H1002 H 0.10768 0.89127 0.43818 0.0
H1003 H 0.13003 0.8848 0.46131 0.0
H1004 H 0.16557 0.50556 0.62167 0.0
H1005 H 0.18656 0.51395 0.64475 0.0
H1006 H 0.22491 0.59657 0.63098 0.0
H1007 H 0.20378 0.58862 0.6079 0.0
H1008 H 0.2448 0.52811 0.65668 0.0
H1009 H 0.16216 0.61972 0.66062 0.0
H1010 H 0.16057 0.59203 0.64712 0.0
H1011 H 0.18674 0.62216 0.64612 0.0
C1012 C 0.17915 0.52514 0.62342 0.0
C1013 C 0.18252 0.54672 0.613 0.0
C1014 C 0.19111 0.52988 0.63664 0.0
C1015 C 0.20668 0.55618 0.63961 0.0
C1016 C 0.2125 0.57637 0.62892 0.0
H1017 H 0.28644 0.6226 0.71543 0.0
H1018 H 0.27854 0.60044 0.69249 0.0
C1019 C 0.20048 0.57172 0.61572 0.0
C1020 C 0.2137 0.56414 0.65413 0.0
H1021 H 0.19523 0.6135 0.67945 0.0
C1022 C 0.23416 0.54686 0.66168 0.0
C1023 C 0.1991 0.58814 0.66068 0.0
C1024 C 0.17571 0.60648 0.6533 0.0
C1025 C 0.2409 0.55345 0.67557 0.0
C1026 C 0.22682 0.57789 0.68199 0.0
C1027 C 0.20607 0.59483 0.67448 0.0
C1028 C 0.23325 0.58675 0.69646 0.0
C1029 C 0.26196 0.53359 0.68349 0.0
C1030 C 0.21037 0.58654 0.70624 0.0
C1031 C 0.21482 0.59933 0.71927 0.0
C1032 C 0.24231 0.61221 0.72276 0.0
C1033 C 0.26532 0.61208 0.71305 0.0
C1034 C 0.26088 0.59928 0.70002 0.0
H1035 H 0.26968 0.51442 0.67723 0.0
H1036 H 0.28169 0.54646 0.687 0.0
H1037 H 0.25057 0.525 0.69279 0.0
H1038 H 0.18872 0.57746 0.70361 0.0
H1039 H 0.19642 0.60021 0.72641 0.0
H1040 H 0.6891 0.63551 0.88459 0.0
H1041 H 0.67235 0.6556 0.90655 0.0
H1042 H 0.61161 0.7141 0.88499 0.0
H1043 H 0.62748 0.69317 0.86286 0.0
H1044 H 0.66934 0.70893 0.91918 0.0
H1045 H 0.55524 0.66649 0.90832 0.0
H1046 H 0.58643 0.65749 0.89752 0.0
H1047 H 0.56851 0.69316 0.89603 0.0
C1048 C 0.67254 0.65303 0.88445 0.0
C1049 C 0.65927 0.66241 0.87196 0.0
C1050 C 0.66297 0.66451 0.89706 0.0
C1051 C 0.64015 0.68579 0.89745 0.0
C1052 C 0.62862 0.69705 0.88495 0.0
H1053 H 0.54197 0.74134 0.97127 0.0
H1054 H 0.56462 0.74264 0.94831 0.0
C1055 C 0.63789 0.68525 0.87231 0.0
C1056 C 0.62713 0.69419 0.91096 0.0
H1057 H 0.56327 0.68971 0.92975 0.0
C1058 C 0.64608 0.70501 0.92145 0.0
C1059 C 0.59678 0.68884 0.91395 0.0
C1060 C 0.57557 0.67561 0.90343 0.0
C1061 C 0.63564 0.71003 0.93489 0.0
C1062 C 0.60553 0.70412 0.93789 0.0
C1063 C 0.58632 0.69438 0.92733 0.0
C1064 C 0.59398 0.70537 0.95215 0.0
C1065 C 0.65692 0.72113 0.94587 0.0
C1066 C 0.60307 0.68398 0.96185 0.0
C1067 C 0.59 0.68295 0.97488 0.0
C1068 C 0.56763 0.70338 0.97847 0.0
C1069 C 0.55919 0.72536 0.96885 0.0
C1070 C 0.57207 0.72614 0.95573 0.0
H1071 H 0.67733 0.73087 0.94132 0.0
H1072 H 0.64607 0.73812 0.95247 0.0
H1073 H 0.66365 0.70225 0.9526 0.0
H1074 H 0.61967 0.6675 0.9592 0.0
H1075 H 0.59716 0.66587 0.98208 0.0
H1076 H 0.5229 0.17725 0.12874 0.0
H1077 H 0.50018 0.16142 0.15027 0.0
H1078 H 0.4441 0.09999 0.12778 0.0
H1079 H 0.46762 0.11498 0.10612 0.0
H1080 H 0.44498 0.15869 0.16129 0.0
H1081 H 0.4896 0.04462 0.15308 0.0
H1082 H 0.49977 0.07556 0.14227 0.0
H1083 H 0.46442 0.05742 0.13987 0.0
C1084 C 0.50534 0.16077 0.12829 0.0
C1085 C 0.49739 0.14704 0.11572 0.0
C1086 C 0.49235 0.15172 0.14064 0.0
C1087 C 0.47099 0.12896 0.14068 0.0
C1088 C 0.46116 0.117 0.12803 0.0
H1089 H 0.4113 0.03195 0.21436 0.0
H1090 H 0.41095 0.05359 0.19107 0.0
C1091 C 0.47445 0.12576 0.11565 0.0
C1092 C 0.46111 0.11637 0.15406 0.0
H1093 H 0.46438 0.05336 0.17379 0.0
C1094 C 0.44891 0.13558 0.16397 0.0
C1095 C 0.46644 0.08621 0.15759 0.0
C1096 C 0.48101 0.06477 0.14772 0.0
C1097 C 0.44256 0.12562 0.17739 0.0
C1098 C 0.4486 0.09574 0.18096 0.0
C1099 C 0.45963 0.07623 0.17094 0.0
C1100 C 0.44642 0.08487 0.19535 0.0
C1101 C 0.42997 0.1472 0.18773 0.0
C1102 C 0.46646 0.09537 0.20542 0.0
C1103 C 0.46694 0.08291 0.21863 0.0
C1104 C 0.44732 0.05971 0.22205 0.0
C1105 C 0.42662 0.04985 0.21206 0.0
C1106 C 0.42638 0.06215 0.19877 0.0
H1107 H 0.4198 0.16688 0.18259 0.0
H1108 H 0.41297 0.13623 0.19425 0.0
H1109 H 0.44816 0.15515 0.19464 0.0
H1110 H 0.48241 0.11258 0.20291 0.0
H1111 H 0.483 0.09118 0.22611 0.0
H1112 H 0.11644 0.60157 0.90289 0.0
H1113 H 0.12482 0.61218 0.87843 0.0
H1114 H 0.21071 0.64942 0.88853 0.0
H1115 H 0.20281 0.63842 0.91296 0.0
H1116 H 0.14028 0.66258 0.86207 0.0
H1117 H 0.22976 0.57729 0.86392 0.0
H1118 H 0.20358 0.58219 0.87775 0.0
H1119 H 0.2345 0.60726 0.87602 0.0
C1120 C 0.13682 0.61267 0.89996 0.0
C1121 C 0.15919 0.61871 0.90984 0.0
C1122 C 0.14158 0.61868 0.88597 0.0
C1123 C 0.16867 0.63093 0.88166 0.0
C1124 C 0.18991 0.63937 0.89163 0.0
H1125 H 0.21978 0.67918 0.79773 0.0
H1126 H 0.20437 0.68068 0.8219 0.0
C1127 C 0.18529 0.63317 0.90559 0.0
C1128 C 0.1759 0.63208 0.86675 0.0
H1129 H 0.22326 0.6031 0.84289 0.0
C1130 C 0.15844 0.64966 0.85784 0.0
C1131 C 0.19926 0.61472 0.86126 0.0
C1132 C 0.21772 0.59407 0.87018 0.0
C1133 C 0.16399 0.6506 0.84356 0.0
C1134 C 0.18783 0.63379 0.83815 0.0
C1135 C 0.2051 0.6161 0.84707 0.0
C1136 C 0.19509 0.63352 0.82322 0.0
C1137 C 0.14388 0.66898 0.83437 0.0
C1138 C 0.19533 0.60647 0.81598 0.0
C1139 C 0.20445 0.60545 0.80223 0.0
C1140 C 0.21359 0.63151 0.79541 0.0
C1141 C 0.21278 0.65871 0.80262 0.0
C1142 C 0.20377 0.65966 0.81643 0.0
H1143 H 0.12245 0.67418 0.83946 0.0
H1144 H 0.15507 0.69033 0.83194 0.0
H1145 H 0.13914 0.65728 0.82448 0.0
H1146 H 0.18879 0.58601 0.82103 0.0
H1147 H 0.20457 0.58414 0.797 0.0
H1148 H 0.56984 0.60511 0.15873 0.0
H1149 H 0.55677 0.60856 0.13421 0.0
H1150 H 0.51698 0.69452 0.14113 0.0
H1151 H 0.53049 0.6916 0.16563 0.0
H1152 H 0.50483 0.61831 0.11829 0.0
H1153 H 0.58494 0.71185 0.11425 0.0
H1154 H 0.58275 0.68852 0.12938 0.0
H1155 H 0.55608 0.71782 0.12666 0.0
C1156 C 0.55772 0.62448 0.15512 0.0
C1157 C 0.55164 0.64834 0.16409 0.0
C1158 C 0.5503 0.6264 0.14108 0.0
C1159 C 0.53659 0.6521 0.13583 0.0
C1160 C 0.52819 0.67479 0.14496 0.0
H1161 H 0.47122 0.68552 0.05252 0.0
H1162 H 0.47599 0.67048 0.07677 0.0
C1163 C 0.53579 0.67301 0.15896 0.0
C1164 C 0.53353 0.65632 0.1207 0.0
H1165 H 0.55621 0.70096 0.09433 0.0
C1166 C 0.51608 0.63631 0.113 0.0
C1167 C 0.54879 0.67943 0.11382 0.0
C1168 C 0.56943 0.70048 0.12141 0.0
C1169 C 0.51298 0.63919 0.09859 0.0
C1170 C 0.52738 0.663 0.09177 0.0
C1171 C 0.54515 0.6827 0.09951 0.0
C1172 C 0.52416 0.66855 0.07669 0.0
C1173 C 0.49474 0.61637 0.09086 0.0
C1174 C 0.54959 0.67303 0.06859 0.0
C1175 C 0.54683 0.68235 0.05487 0.0
C1176 C 0.51862 0.68641 0.04887 0.0
C1177 C 0.49318 0.68158 0.05686 0.0
C1178 C 0.49591 0.67275 0.07066 0.0
H1179 H 0.49428 0.59479 0.09646 0.0
H1180 H 0.47148 0.62443 0.08988 0.0
H1181 H 0.50356 0.61256 0.08037 0.0
H1182 H 0.57164 0.67032 0.07304 0.0
H1183 H 0.56674 0.68736 0.0491 0.0
H1184 H 0.55189 0.04965 0.40511 0.0
H1185 H 0.54859 0.03122 0.38126 0.0
H1186 H 0.45629 0.05734 0.37926 0.0
H1187 H 0.45914 0.07506 0.403 0.0
H1188 H 0.4659 0.00259 0.36784 0.0
H1189 H 0.54583 0.08611 0.34756 0.0
H1190 H 0.55964 0.0625 0.36117 0.0
H1191 H 0.53044 0.08864 0.36468 0.0
C1192 C 0.53082 0.05113 0.39962 0.0
C1193 C 0.50582 0.06398 0.40591 0.0
C1194 C 0.52905 0.04082 0.38597 0.0
C1195 C 0.50234 0.04342 0.37843 0.0
C1196 C 0.47716 0.05523 0.38488 0.0
H1197 H 0.45423 0.06025 0.29385 0.0
H1198 H 0.47097 0.06573 0.31789 0.0
C1199 C 0.47885 0.06538 0.39847 0.0
C1200 C 0.50023 0.03465 0.3637 0.0
H1201 H 0.52326 0.05404 0.33142 0.0
C1202 C 0.47868 0.01355 0.35986 0.0
C1203 C 0.51674 0.04929 0.35334 0.0
C1204 C 0.53931 0.07308 0.35681 0.0
C1205 C 0.47235 0.00745 0.34593 0.0
C1206 C 0.48869 0.02227 0.33555 0.0
C1207 C 0.51097 0.0426 0.3394 0.0
C1208 C 0.48112 0.01898 0.3207 0.0
C1209 C 0.44713 0.98645 0.34248 0.0
C1210 C 0.48176 0.99101 0.31425 0.0
C1211 C 0.47193 0.98788 0.30058 0.0
C1212 C 0.46246 0.01285 0.29305 0.0
C1213 C 0.46232 0.04088 0.29939 0.0
C1214 C 0.47176 0.04396 0.3131 0.0
H1215 H 0.43251 0.98253 0.3515 0.0
H1216 H 0.43328 0.99525 0.33384 0.0
H1217 H 0.45641 0.96467 0.33927 0.0
H1218 H 0.48936 0.97154 0.31985 0.0
H1219 H 0.47176 0.96601 0.29587 0.0
H1220 H 0.09057 0.04118 0.65149 0.0
H1221 H 0.10235 0.03696 0.62695 0.0
H1222 H 0.13165 0.94661 0.63334 0.0
H1223 H 0.11944 0.95038 0.65785 0.0
H1224 H 0.15283 0.02146 0.61123 0.0
H1225 H 0.06166 0.9387 0.60594 0.0
H1226 H 0.06676 0.96112 0.62124 0.0
H1227 H 0.08969 0.92892 0.61848 0.0
C1228 C 0.10008 0.02059 0.64775 0.0
C1229 C 0.10361 0.99593 0.65658 0.0
C1230 C 0.10678 0.01823 0.63371 0.0
C1231 C 0.11719 0.99126 0.62829 0.0
C1232 C 0.123 0.96741 0.63728 0.0
H1233 H 0.17575 0.95207 0.54504 0.0
H1234 H 0.1734 0.96472 0.56954 0.0
C1235 C 0.11614 0.96966 0.6513 0.0
C1236 C 0.11957 0.98729 0.61314 0.0
H1237 H 0.09097 0.94719 0.58618 0.0
C1238 C 0.13934 0.00525 0.60572 0.0
C1239 C 0.10144 0.96655 0.60597 0.0
C1240 C 0.07847 0.9479 0.61327 0.0
C1241 C 0.14188 0.0026 0.5913 0.0
C1242 C 0.12447 0.98113 0.58421 0.0
C1243 C 0.10441 0.96353 0.59164 0.0
C1244 C 0.12663 0.97621 0.5691 0.0
C1245 C 0.16274 0.02314 0.58377 0.0
C1246 C 0.10106 0.97824 0.5607 0.0
C1247 C 0.10222 0.97066 0.54671 0.0
C1248 C 0.129 0.96085 0.54083 0.0
C1249 C 0.15478 0.95968 0.54919 0.0
C1250 C 0.15355 0.9671 0.5632 0.0
H1251 H 0.16775 0.04345 0.58991 0.0
H1252 H 0.18405 0.01138 0.58191 0.0
H1253 H 0.15326 0.02994 0.57361 0.0
H1254 H 0.08004 0.98516 0.56505 0.0
H1255 H 0.08197 0.97202 0.54058 0.0
H1256 H 0.61778 0.56041 0.87415 0.0
H1257 H 0.62209 0.54764 0.89861 0.0
H1258 H 0.70981 0.51205 0.89177 0.0
H1259 H 0.70598 0.52516 0.86728 0.0
H1260 H 0.63479 0.49529 0.91404 0.0
H1261 H 0.72291 0.58124 0.91928 0.0
H1262 H 0.69936 0.57822 0.90415 0.0
H1263 H 0.73033 0.55333 0.90648 0.0
C1264 C 0.63778 0.5493 0.87776 0.0
C1265 C 0.66176 0.54423 0.8688 0.0
C1266 C 0.64017 0.54204 0.89175 0.0
C1267 C 0.66651 0.52954 0.89701 0.0
C1268 C 0.68953 0.52225 0.88792 0.0
H1269 H 0.70295 0.46337 0.97958 0.0
H1270 H 0.68786 0.46849 0.95533 0.0
C1271 C 0.68723 0.52961 0.87392 0.0
C1272 C 0.67082 0.52648 0.91211 0.0
H1273 H 0.71381 0.55143 0.93889 0.0
C1274 C 0.65198 0.50757 0.91953 0.0
C1275 C 0.6928 0.54313 0.91924 0.0
C1276 C 0.71235 0.56536 0.91193 0.0
C1277 C 0.655 0.50431 0.93391 0.0
C1278 C 0.67785 0.52003 0.94099 0.0
C1279 C 0.6963 0.53933 0.93353 0.0
C1280 C 0.68377 0.51651 0.95603 0.0
C1281 C 0.63337 0.48437 0.94131 0.0
C1282 C 0.68723 0.54178 0.96447 0.0
C1283 C 0.69669 0.53885 0.97819 0.0
C1284 C 0.70184 0.5106 0.98385 0.0
C1285 C 0.69812 0.48532 0.97551 0.0
C1286 C 0.68924 0.48824 0.96171 0.0
H1287 H 0.61161 0.48346 0.93578 0.0
H1288 H 0.64247 0.46143 0.94165 0.0
H1289 H 0.62955 0.49194 0.95204 0.0
H1290 H 0.68355 0.56387 0.96031 0.0
H1291 H 0.7009 0.5587 0.98425 0.0
H1292 H 0.59459 0.10113 0.12209 0.0
H1293 H 0.60421 0.10491 0.14697 0.0
H1294 H 0.64542 0.19049 0.14098 0.0
H1295 H 0.63567 0.18714 0.11614 0.0
H1296 H 0.65644 0.11558 0.16387 0.0
H1297 H 0.57331 0.20668 0.16648 0.0
H1298 H 0.57661 0.18255 0.15167 0.0
H1299 H 0.6023 0.21278 0.15414 0.0
C1300 C 0.6063 0.12048 0.12601 0.0
C1301 C 0.61403 0.14403 0.11715 0.0
C1302 C 0.6117 0.1226 0.14024 0.0
C1303 C 0.62493 0.14825 0.1458 0.0
C1304 C 0.63466 0.17076 0.13688 0.0
H1305 H 0.69036 0.18704 0.228 0.0
H1306 H 0.68437 0.17007 0.20412 0.0
C1307 C 0.6292 0.16873 0.12268 0.0
C1308 C 0.62662 0.15254 0.16095 0.0
H1309 H 0.60223 0.19796 0.18667 0.0
C1310 C 0.64448 0.13343 0.16892 0.0
C1311 C 0.61042 0.17541 0.1675 0.0
C1312 C 0.58934 0.19538 0.15955 0.0
C1313 C 0.64738 0.13725 0.18329 0.0
C1314 C 0.63237 0.16116 0.18979 0.0
C1315 C 0.61383 0.17967 0.18178 0.0
C1316 C 0.6362 0.16836 0.20471 0.0
C1317 C 0.66636 0.11543 0.19127 0.0
C1318 C 0.61119 0.1739 0.21296 0.0
C1319 C 0.61466 0.18445 0.22647 0.0
C1320 C 0.64317 0.18866 0.23213 0.0
C1321 C 0.66817 0.18296 0.22397 0.0
C1322 C 0.66473 0.17299 0.21037 0.0
H1323 H 0.66612 0.09316 0.18628 0.0
H1324 H 0.68973 0.1234 0.19141 0.0
H1325 H 0.6588 0.11302 0.20207 0.0
H1326 H 0.58892 0.17093 0.20881 0.0
H1327 H 0.59508 0.19017 0.23234 0.0
H1328 H 0.05192 0.10975 0.37177 0.0
H1329 H 0.04864 0.12141 0.39645 0.0
H1330 H 0.95285 0.11806 0.39366 0.0
H1331 H 0.95586 0.10742 0.36904 0.0
H1332 H 0.97091 0.16246 0.4102 0.0
H1333 H 0.02954 0.05794 0.42461 0.0
H1334 H 0.0507 0.08258 0.4139 0.0
H1335 H 0.01734 0.06564 0.40717 0.0
C1336 C 0.03016 0.11199 0.37638 0.0
C1337 C 0.00415 0.10734 0.36845 0.0
C1338 C 0.02833 0.11836 0.39051 0.0
C1339 C 0.00052 0.11982 0.39698 0.0
C1340 C 0.97457 0.11683 0.38892 0.0
H1341 H 0.9494 0.08435 0.48033 0.0
H1342 H 0.9633 0.08358 0.45602 0.0
C1343 C 0.97635 0.11073 0.37481 0.0
C1344 C 0.99805 0.12321 0.41219 0.0
H1345 H 0.01466 0.0891 0.44286 0.0
C1346 C 0.98064 0.14655 0.41737 0.0
C1347 C 0.01038 0.10212 0.42149 0.0
C1348 C 0.0278 0.07549 0.41655 0.0
C1349 C 0.97468 0.14909 0.43154 0.0
C1350 C 0.9873 0.12822 0.44086 0.0
C1351 C 0.00522 0.10522 0.43571 0.0
C1352 C 0.9805 0.12857 0.45586 0.0
C1353 C 0.95376 0.17327 0.43625 0.0
C1354 C 0.98617 0.15388 0.46398 0.0
C1355 C 0.97784 0.15455 0.47787 0.0
C1356 C 0.96421 0.12968 0.48398 0.0
C1357 C 0.95978 0.10392 0.47597 0.0
C1358 C 0.96775 0.10342 0.46205 0.0
H1359 H 0.94005 0.18212 0.42756 0.0
H1360 H 0.9386 0.16498 0.44438 0.0
H1361 H 0.96692 0.192 0.4406 0.0
H1362 H 0.99678 0.17323 0.45955 0.0
H1363 H 0.98196 0.17461 0.48379 0.0
H1364 H 0.06252 0.45727 0.62504 0.0
H1365 H 0.04625 0.45311 0.64884 0.0
H1366 H 0.02881 0.54746 0.64996 0.0
H1367 H 0.04595 0.552 0.62607 0.0
H1368 H 0.06233 0.53088 0.67135 0.0
H1369 H 0.96747 0.45356 0.66775 0.0
H1370 H 0.99897 0.43811 0.65909 0.0
H1371 H 0.98234 0.47206 0.65276 0.0
C1372 C 0.0547 0.47711 0.63021 0.0
C1373 C 0.05565 0.505 0.62365 0.0
C1374 C 0.04511 0.47463 0.64383 0.0
C1375 C 0.03582 0.49988 0.65115 0.0
C1376 C 0.03567 0.52764 0.64447 0.0
H1377 H 0.98598 0.4611 0.73705 0.0
H1378 H 0.98275 0.48068 0.71347 0.0
C1379 C 0.04541 0.53019 0.63082 0.0
C1380 C 0.02969 0.49745 0.66615 0.0
H1381 H 0.9945 0.45366 0.68972 0.0
C1382 C 0.047 0.51445 0.67537 0.0
C1383 C 0.0093 0.47647 0.67147 0.0
C1384 C 0.98825 0.45929 0.66222 0.0
C1385 C 0.04602 0.50952 0.68968 0.0
C1386 C 0.02783 0.48644 0.69486 0.0
C1387 C 0.0089 0.47097 0.68574 0.0
C1388 C 0.02985 0.47641 0.70945 0.0
C1389 C 0.06492 0.52877 0.69905 0.0
C1390 C 0.05733 0.46726 0.71499 0.0
C1391 C 0.05931 0.45627 0.72845 0.0
C1392 C 0.03372 0.45367 0.73663 0.0
C1393 C 0.00614 0.46276 0.73105 0.0
C1394 C 0.00424 0.474 0.71758 0.0
H1395 H 0.06837 0.55116 0.69447 0.0
H1396 H 0.05469 0.53147 0.70937 0.0
H1397 H 0.08713 0.51833 0.7004 0.0
H1398 H 0.07726 0.46801 0.70879 0.0
H1399 H 0.08089 0.44928 0.73233 0.0
H1400 H 0.50609 0.15796 0.40724 0.0
H1401 H 0.51475 0.17448 0.3836 0.0
H1402 H 0.58724 0.22976 0.39785 0.0
H1403 H 0.57951 0.2123 0.42152 0.0
H1404 H 0.51803 0.22521 0.36856 0.0
H1405 H 0.62964 0.17261 0.37275 0.0
H1406 H 0.60195 0.16862 0.38596 0.0
H1407 H 0.62386 0.20206 0.38494 0.0
C1408 C 0.5234 0.17423 0.40543 0.0
C1409 C 0.54247 0.18347 0.41623 0.0
C1410 C 0.52837 0.18361 0.39187 0.0
C1411 C 0.55225 0.20261 0.38889 0.0
C1412 C 0.56929 0.21432 0.39986 0.0
H1413 H 0.62906 0.24944 0.3091 0.0
H1414 H 0.61157 0.25219 0.33297 0.0
C1415 C 0.56468 0.20455 0.41339 0.0
C1416 C 0.561 0.2076 0.3743 0.0
H1417 H 0.61771 0.19588 0.35163 0.0
C1418 C 0.53988 0.21898 0.36488 0.0
C1419 C 0.58942 0.19903 0.36944 0.0
C1420 C 0.61244 0.18463 0.37875 0.0
C1421 C 0.54646 0.22196 0.35076 0.0
C1422 C 0.57483 0.21349 0.34602 0.0
C1423 C 0.59608 0.20262 0.35541 0.0
C1424 C 0.58257 0.21399 0.3312 0.0
C1425 C 0.52311 0.23387 0.34095 0.0
C1426 C 0.57189 0.19164 0.32235 0.0
C1427 C 0.58207 0.18975 0.30877 0.0
C1428 C 0.60304 0.2103 0.30378 0.0
C1429 C 0.61287 0.23331 0.31258 0.0
C1430 C 0.60291 0.23496 0.32621 0.0
H1431 H 0.50374 0.24333 0.34648 0.0
H1432 H 0.5328 0.25132 0.33422 0.0
H1433 H 0.51511 0.21558 0.33415 0.0
H1434 H 0.55641 0.17507 0.32609 0.0
H1435 H 0.57388 0.17186 0.30226 0.0
H1436 H 0.95308 0.08586 0.67264 0.0
H1437 H 0.93302 0.09939 0.64995 0.0
H1438 H 0.96449 0.01632 0.63323 0.0
H1439 H 0.98411 0.00235 0.6559 0.0
H1440 H 0.9714 0.10694 0.62874 0.0
H1441 H 0.88474 0.02534 0.61346 0.0
H1442 H 0.89684 0.03021 0.63118 0.0
H1443 H 0.91856 0.00822 0.61946 0.0
C1444 C 0.9549 0.07003 0.66425 0.0
C1445 C 0.97053 0.04319 0.66606 0.0
C1446 C 0.94343 0.07782 0.65128 0.0
C1447 C 0.94723 0.05888 0.63989 0.0
C1448 C 0.96082 0.03108 0.64189 0.0
H1449 H 0.97655 0.1109 0.55537 0.0
H1450 H 0.97906 0.08979 0.57876 0.0
C1451 C 0.97219 0.0232 0.65489 0.0
C1452 C 0.9414 0.07006 0.6257 0.0
H1453 H 0.90587 0.05444 0.59517 0.0
C1454 C 0.95678 0.09563 0.62147 0.0
C1455 C 0.92238 0.05527 0.61621 0.0
C1456 C 0.90446 0.02839 0.62033 0.0
C1457 C 0.95419 0.10644 0.60794 0.0
C1458 C 0.93606 0.09105 0.59831 0.0
C1459 C 0.92003 0.06593 0.60257 0.0
C1460 C 0.93361 0.10106 0.5838 0.0
C1461 C 0.97094 0.13425 0.60401 0.0
C1462 C 0.9071 0.11388 0.57889 0.0
C1463 C 0.90567 0.12584 0.56557 0.0
C1464 C 0.93045 0.12433 0.55688 0.0
C1465 C 0.9569 0.11138 0.56177 0.0
C1466 C 0.9584 0.09958 0.57512 0.0
H1467 H 0.97871 0.14685 0.61324 0.0
H1468 H 0.99073 0.12801 0.59788 0.0
H1469 H 0.95678 0.14908 0.59754 0.0
H1470 H 0.88786 0.11543 0.58551 0.0
H1471 H 0.88528 0.13638 0.56205 0.0
H1472 H 0.059 0.51142 0.90963 0.0
H1473 H 0.05433 0.48086 0.88907 0.0
H1474 H 0.14128 0.44344 0.89691 0.0
H1475 H 0.14662 0.47508 0.91746 0.0
H1476 H 0.13723 0.46141 0.87125 0.0
H1477 H 0.03668 0.39582 0.88158 0.0
H1478 H 0.0285 0.43432 0.88437 0.0
H1479 H 0.05599 0.41595 0.89509 0.0
C1480 C 0.07699 0.49632 0.90719 0.0
C1481 C 0.10325 0.49579 0.91519 0.0
C1482 C 0.07413 0.47856 0.89545 0.0
C1483 C 0.09719 0.45936 0.89154 0.0
C1484 C 0.12308 0.45792 0.89978 0.0
H1485 H 0.04774 0.36934 0.81426 0.0
H1486 H 0.06891 0.37441 0.83763 0.0
C1487 C 0.12608 0.47594 0.91154 0.0
C1488 C 0.09523 0.44372 0.87804 0.0
H1489 H 0.04585 0.40703 0.85718 0.0
C1490 C 0.11755 0.44891 0.86827 0.0
C1491 C 0.07003 0.42666 0.87417 0.0
C1492 C 0.04667 0.4176 0.88445 0.0
C1493 C 0.11414 0.43964 0.85449 0.0
C1494 C 0.08734 0.42572 0.85027 0.0
C1495 C 0.06617 0.41833 0.86029 0.0
C1496 C 0.07946 0.42118 0.83546 0.0
C1497 C 0.13918 0.44501 0.84456 0.0
C1498 C 0.07868 0.44562 0.8264 0.0
C1499 C 0.06687 0.44263 0.81306 0.0
C1500 C 0.05569 0.41516 0.80854 0.0
C1501 C 0.05686 0.39059 0.81747 0.0
C1502 C 0.06889 0.39349 0.83079 0.0
H1503 H 0.16093 0.44672 0.85006 0.0
H1504 H 0.14042 0.42669 0.83691 0.0
H1505 H 0.13534 0.46625 0.83899 0.0
H1506 H 0.08562 0.46746 0.82987 0.0
H1507 H 0.06509 0.46215 0.80653 0.0
H1508 H 0.66415 0.55543 0.16429 0.0
H1509 H 0.68688 0.55109 0.14173 0.0
H1510 H 0.71436 0.64297 0.14377 0.0
H1511 H 0.69053 0.64782 0.16635 0.0
H1512 H 0.68667 0.63283 0.12041 0.0
H1513 H 0.76866 0.54309 0.12706 0.0
H1514 H 0.73354 0.53061 0.13342 0.0
H1515 H 0.75209 0.56162 0.14164 0.0
C1516 C 0.67556 0.57462 0.16012 0.0
C1517 C 0.67536 0.60204 0.16711 0.0
C1518 C 0.68887 0.57199 0.14722 0.0
C1519 C 0.7028 0.59655 0.14108 0.0
C1520 C 0.70391 0.62365 0.14833 0.0
H1521 H 0.76477 0.55121 0.05765 0.0
H1522 H 0.76663 0.5706 0.0813 0.0
C1523 C 0.69035 0.62637 0.16125 0.0
C1524 C 0.71261 0.59454 0.12648 0.0
H1525 H 0.74639 0.54734 0.1039 0.0
C1526 C 0.70035 0.61454 0.11684 0.0
C1527 C 0.73103 0.57118 0.12175 0.0
C1528 C 0.74732 0.55068 0.13157 0.0
C1529 C 0.70402 0.61038 0.10258 0.0
C1530 C 0.71955 0.585 0.09782 0.0
C1531 C 0.73388 0.56644 0.10748 0.0
C1532 C 0.71892 0.5758 0.08306 0.0
C1533 C 0.69068 0.63299 0.09279 0.0
C1534 C 0.69153 0.57217 0.07617 0.0
C1535 C 0.69041 0.56145 0.06264 0.0
C1536 C 0.71665 0.55341 0.05576 0.0
C1537 C 0.74413 0.55712 0.06264 0.0
C1538 C 0.74524 0.56823 0.07616 0.0
H1539 H 0.69057 0.6555 0.09754 0.0
H1540 H 0.70306 0.63408 0.08292 0.0
H1541 H 0.66722 0.6269 0.0905 0.0
H1542 H 0.67082 0.57684 0.08137 0.0
H1543 H 0.66882 0.5587 0.05774 0.0
loop_
_geom_bond_atom_site_label_1
_geom_bond_atom_site_label_2
_geom_bond_distance
_geom_bond_site_symmetry_2
_ccdc_geom_bond_type
Mg0 O7 2.141 . S
Mg0 O8 2.051 . S
Mg0 O9 2.048 1_455 S
Mg0 O12 2.141 1_455 S
C1 O2 1.313 . S
C1 O8 1.189 1_565 S
O2 C1 1.313 . S
C3 O4 1.245 . S
C3 O12 1.289 . S
O4 C3 1.245 . S
C5 O6 1.245 . S
C5 O7 1.289 1_565 S
O6 C5 1.245 . S
O7 Mg0 2.141 . S
O7 C5 1.289 1_545 S
O8 Mg0 2.051 . S
O8 C1 1.189 1_545 S
O9 Mg0 2.048 1_655 S
O9 C10 1.195 . S
C10 O9 1.195 . S
C10 O11 1.313 . S
O11 C10 1.313 . S
O12 Mg0 2.141 1_655 S
O12 C3 1.289 . S
Mg13 O20 2.141 . S
Mg13 O21 2.048 . S
Mg13 O22 2.048 . S
Mg13 O25 2.141 . S
C14 O15 1.313 . S
C14 O21 1.195 . S
O15 C14 1.313 . S
C16 O17 1.245 . S
C16 O25 1.289 . S
O17 C16 1.245 . S
C18 O19 1.245 . S
C18 O20 1.289 . S
O19 C18 1.245 . S
O20 Mg13 2.141 . S
O20 C18 1.289 . S
O21 Mg13 2.048 . S
O21 C14 1.195 . S
O22 Mg13 2.048 . S
O22 C23 1.195 . S
C23 O22 1.195 . S
C23 O24 1.313 . S
O24 C23 1.313 . S
O25 Mg13 2.141 . S
O25 C16 1.289 . S
Mg26 O33 2.141 . S
Mg26 O34 2.048 . S
Mg26 O35 2.048 . S
Mg26 O38 2.141 . S
C27 O28 1.313 . S
C27 O34 1.195 . S
O28 C27 1.313 . S
C29 O30 1.245 . S
C29 O38 1.289 . S
O30 C29 1.245 . S
C31 O32 1.245 . S
C31 O33 1.289 . S
O32 C31 1.245 . S
O33 Mg26 2.141 . S
O33 C31 1.289 . S
O34 Mg26 2.048 . S
O34 C27 1.195 . S
O35 Mg26 2.048 . S
O35 C36 1.195 . S
C36 O35 1.195 . S
C36 O37 1.313 . S
O37 C36 1.313 . S
O38 Mg26 2.141 . S
O38 C29 1.289 . S
Mg39 O46 2.141 . S
Mg39 O47 2.048 . S
Mg39 O48 2.048 . S
Mg39 O51 2.141 . S
C40 O41 1.313 . S
C40 O47 1.195 . S
O41 C40 1.313 . S
C42 O43 1.245 . S
C42 O51 1.289 . S
O43 C42 1.245 . S
C44 O45 1.245 . S
C44 O46 1.289 . S
O45 C44 1.245 . S
O46 Mg39 2.141 . S
O46 C44 1.289 . S
O47 Mg39 2.048 . S
O47 C40 1.195 . S
O48 Mg39 2.048 . S
O48 C49 1.195 . S
C49 O48 1.195 . S
C49 O50 1.313 . S
O50 C49 1.313 . S
O51 Mg39 2.141 . S
O51 C42 1.289 . S
Mg52 O59 2.141 . S
Mg52 O60 2.048 . S
Mg52 O61 2.048 . S
Mg52 O64 2.141 . S
C53 O54 1.313 . S
C53 O60 1.195 . S
O54 C53 1.313 . S
C55 O56 1.245 . S
C55 O64 1.289 . S
O56 C55 1.245 . S
C57 O58 1.245 . S
C57 O59 1.289 . S
O58 C57 1.245 . S
O59 Mg52 2.141 . S
O59 C57 1.289 . S
O60 Mg52 2.048 . S
O60 C53 1.195 . S
O61 Mg52 2.048 . S
O61 C62 1.195 . S
C62 O61 1.195 . S
C62 O63 1.313 . S
O63 C62 1.313 . S
O64 Mg52 2.141 . S
O64 C55 1.289 . S
Mg65 O72 2.141 . S
Mg65 O73 2.048 . S
Mg65 O74 2.048 . S
Mg65 O77 2.141 . S
C66 O67 1.313 . S
C66 O73 1.195 . S
O67 C66 1.313 . S
C68 O69 1.245 . S
C68 O77 1.289 . S
O69 C68 1.245 . S
C70 O71 1.245 . S
C70 O72 1.289 . S
O71 C70 1.245 . S
O72 Mg65 2.141 . S
O72 C70 1.289 . S
O73 Mg65 2.048 . S
O73 C66 1.195 . S
O74 Mg65 2.048 . S
O74 C75 1.195 . S
C75 O74 1.195 . S
C75 O76 1.313 . S
O76 C75 1.313 . S
O77 Mg65 2.141 . S
O77 C68 1.289 . S
Mg78 O85 2.141 . S
Mg78 O86 2.048 . S
Mg78 O87 2.048 . S
Mg78 O90 2.141 . S
C79 O80 1.313 . S
C79 O86 1.195 . S
O80 C79 1.313 . S
C81 O82 1.245 . S
C81 O90 1.289 . S
O82 C81 1.245 . S
C83 O84 1.245 . S
C83 O85 1.289 . S
O84 C83 1.245 . S
O85 Mg78 2.141 . S
O85 C83 1.289 . S
O86 Mg78 2.048 . S
O86 C79 1.195 . S
O87 Mg78 2.048 . S
O87 C88 1.195 . S
C88 O87 1.195 . S
C88 O89 1.313 . S
O89 C88 1.313 . S
O90 Mg78 2.141 . S
O90 C81 1.289 . S
Mg91 O98 2.141 . S
Mg91 O99 2.048 . S
Mg91 O100 2.048 1_465 S
Mg91 O103 2.141 1_465 S
C92 O93 1.313 . S
C92 O99 1.195 . S
O93 C92 1.313 . S
C94 O95 1.245 1_655 S
C94 O103 1.289 . S
O95 C94 1.245 1_455 S
C96 O97 1.245 . S
C96 O98 1.289 . S
O97 C96 1.245 . S
O98 Mg91 2.141 . S
O98 C96 1.289 . S
O99 Mg91 2.048 . S
O99 C92 1.195 . S
O100 Mg91 2.048 1_645 S
O100 C101 1.195 . S
C101 O100 1.195 . S
C101 O102 1.313 1_655 S
O102 C101 1.313 1_455 S
O103 Mg91 2.141 1_645 S
O103 C94 1.289 . S
Mn104 O109 2.095 1_554 S
Mn104 O119 2.162 . S
Mn104 O120 2.297 . S
Mn104 O128 2.385 . S
Mn104 O129 2.209 . S
Mn104 O130 2.094 . S
Mn105 O110 2.121 1_554 S
Mn105 N112 2.257 . S
Mn105 N121 2.282 . S
Mn105 O129 2.215 . S
Mn105 O131 2.117 . S
C106 O128 1.234 . S
C106 O129 1.283 . S
C107 O119 1.281 . S
C107 O120 1.236 . S
C108 O130 1.234 1_556 S
C108 O131 1.263 1_556 S
O109 Mn104 2.095 1_556 S
O109 C118 1.250 . S
O110 Mn105 2.121 1_556 S
O110 C118 1.258 . S
C111 N112 1.326 . S
C111 C115 1.460 . S
C111 H117 0.929 1_554 S
N112 Mn105 2.257 . S
N112 C111 1.326 . S
N112 C116 1.362 . S
C113 C114 1.258 . S
C113 C116 1.431 . S
C113 C133 1.449 . S
C114 C113 1.258 . S
C114 C115 1.477 . S
C114 H134 0.931 . S
C115 C111 1.460 . S
C115 C114 1.477 . S
C115 H135 0.930 . S
C116 N112 1.362 . S
C116 C113 1.431 . S
C116 C126 1.476 . S
H117 C111 0.929 1_556 S
C118 O109 1.250 . S
C118 O110 1.258 . S
O119 Mn104 2.162 . S
O119 C107 1.281 . S
O120 Mn104 2.297 . S
O120 C107 1.236 . S
N121 Mn105 2.282 . S
N121 C122 1.328 . S
N121 C126 1.318 . S
C122 N121 1.328 . S
C122 C123 1.457 . S
C122 H127 0.929 . S
C123 C122 1.457 . S
C123 C124 1.291 . S
C123 H136 0.931 . S
C124 C123 1.291 . S
C124 C125 1.373 . S
C124 H137 0.929 . S
C125 C124 1.373 . S
C125 C126 1.396 . S
C125 C132 1.403 . S
C126 C116 1.476 . S
C126 N121 1.318 . S
C126 C125 1.396 . S
H127 C122 0.929 . S
O128 Mn104 2.385 . S
O128 C106 1.234 . S
O129 Mn104 2.209 . S
O129 Mn105 2.215 . S
O129 C106 1.283 . S
O130 Mn104 2.094 . S
O130 C108 1.234 1_554 S
O131 Mn105 2.117 . S
O131 C108 1.263 1_554 S
C132 C125 1.403 . S
C132 C133 1.399 . S
C132 H138 0.929 . S
C133 C113 1.449 . S
C133 C132 1.399 . S
C133 H139 0.930 . S
H134 C114 0.931 . S
H135 C115 0.930 . S
H136 C123 0.931 . S
H137 C124 0.929 . S
H138 C132 0.929 . S
H139 C133 0.930 . S
Mn140 O145 2.095 . S
Mn140 O155 2.162 . S
Mn140 O156 2.297 . S
Mn140 O164 2.385 . S
Mn140 O165 2.209 . S
Mn140 O166 2.094 . S
Mn141 O146 2.121 . S
Mn141 N148 2.257 1_565 S
Mn141 N157 2.282 . S
Mn141 O165 2.215 . S
Mn141 O167 2.117 . S
C142 O164 1.234 . S
C142 O165 1.283 . S
C143 O155 1.281 . S
C143 O156 1.236 . S
C144 O166 1.240 . S
C144 O167 1.264 . S
O145 Mn140 2.095 . S
O145 C154 1.250 . S
O146 Mn141 2.121 . S
O146 C154 1.258 . S
C147 N148 1.326 . S
C147 C151 1.460 . S
C147 H153 0.929 . S
N148 Mn141 2.257 1_545 S
N148 C147 1.326 . S
N148 C152 1.361 1_545 S
C149 C150 1.258 . S
C149 C152 1.410 1_545 S
C149 C169 1.449 . S
C150 C149 1.258 . S
C150 C151 1.477 . S
C150 H170 0.931 . S
C151 C147 1.460 . S
C151 C150 1.477 . S
C151 H171 0.930 . S
C152 N148 1.361 1_565 S
C152 C149 1.410 1_565 S
C152 C162 1.499 . S
H153 C147 0.929 . S
C154 O145 1.250 . S
C154 O146 1.258 . S
O155 Mn140 2.162 . S
O155 C143 1.281 . S
O156 Mn140 2.297 . S
O156 C143 1.236 . S
N157 Mn141 2.282 . S
N157 C158 1.328 . S
N157 C162 1.318 . S
C158 N157 1.328 . S
C158 C159 1.457 . S
C158 H163 0.929 . S
C159 C158 1.457 . S
C159 C160 1.291 . S
C159 H172 0.931 . S
C160 C159 1.291 . S
C160 C161 1.373 . S
C160 H173 0.929 . S
C161 C160 1.373 . S
C161 C162 1.396 . S
C161 C168 1.403 . S
C162 C152 1.499 . S
C162 N157 1.318 . S
C162 C161 1.396 . S
H163 C158 0.929 . S
O164 Mn140 2.385 . S
O164 C142 1.234 . S
O165 Mn140 2.209 . S
O165 Mn141 2.215 . S
O165 C142 1.283 . S
O166 Mn140 2.094 . S
O166 C144 1.240 . S
O167 Mn141 2.117 . S
O167 C144 1.264 . S
C168 C161 1.403 . S
C168 C169 1.399 1_565 S
C168 H174 0.929 . S
C169 C149 1.449 . S
C169 C168 1.399 1_545 S
C169 H175 0.930 . S
H170 C150 0.931 . S
H171 C151 0.930 . S
H172 C159 0.931 . S
H173 C160 0.929 . S
H174 C168 0.929 . S
H175 C169 0.930 . S
Mn176 O181 2.095 . S
Mn176 O191 2.162 . S
Mn176 O192 2.297 . S
Mn176 O200 2.385 . S
Mn176 O201 2.209 . S
Mn176 O202 2.094 . S
Mn177 O182 2.121 . S
Mn177 N184 2.257 . S
Mn177 N193 2.282 . S
Mn177 O201 2.215 . S
Mn177 O203 2.117 . S
C178 O200 1.234 . S
C178 O201 1.283 . S
C179 O191 1.281 . S
C179 O192 1.236 . S
C180 O202 1.240 . S
C180 O203 1.264 . S
O181 Mn176 2.095 . S
O181 C190 1.250 . S
O182 Mn177 2.121 . S
O182 C190 1.258 . S
C183 N184 1.326 . S
C183 C187 1.460 . S
C183 H189 0.929 . S
N184 Mn177 2.257 . S
N184 C183 1.326 . S
N184 C188 1.362 . S
C185 C186 1.258 . S
C185 C188 1.431 . S
C185 C205 1.449 . S
C186 C185 1.258 . S
C186 C187 1.477 . S
C186 H206 0.931 . S
C187 C183 1.460 . S
C187 C186 1.477 . S
C187 H207 0.930 . S
C188 N184 1.362 . S
C188 C185 1.431 . S
C188 C198 1.476 . S
H189 C183 0.929 . S
C190 O181 1.250 . S
C190 O182 1.258 . S
O191 Mn176 2.162 . S
O191 C179 1.281 . S
O192 Mn176 2.297 . S
O192 C179 1.236 . S
N193 Mn177 2.282 . S
N193 C194 1.328 . S
N193 C198 1.318 . S
C194 N193 1.328 . S
C194 C195 1.457 . S
C194 H199 0.929 . S
C195 C194 1.457 . S
C195 C196 1.291 . S
C195 H208 0.931 . S
C196 C195 1.291 . S
C196 C197 1.373 . S
C196 H209 0.929 . S
C197 C196 1.373 . S
C197 C198 1.396 . S
C197 C204 1.403 . S
C198 C188 1.476 . S
C198 N193 1.318 . S
C198 C197 1.396 . S
H199 C194 0.929 . S
O200 Mn176 2.385 . S
O200 C178 1.234 . S
O201 Mn176 2.209 . S
O201 Mn177 2.215 . S
O201 C178 1.283 . S
O202 Mn176 2.094 . S
O202 C180 1.240 . S
O203 Mn177 2.117 . S
O203 C180 1.264 . S
C204 C197 1.403 . S
C204 C205 1.399 . S
C204 H210 0.929 . S
C205 C185 1.449 . S
C205 C204 1.399 . S
C205 H211 0.930 . S
H206 C186 0.931 . S
H207 C187 0.930 . S
H208 C195 0.931 . S
H209 C196 0.929 . S
H210 C204 0.929 . S
H211 C205 0.930 . S
Mn212 O217 2.095 . S
Mn212 O227 2.162 . S
Mn212 O228 2.297 . S
Mn212 O236 2.385 . S
Mn212 O237 2.209 . S
Mn212 O238 2.094 . S
Mn213 O218 2.121 . S
Mn213 N220 2.257 . S
Mn213 N229 2.282 . S
Mn213 O237 2.215 . S
Mn213 O239 2.117 . S
C214 O236 1.234 . S
C214 O237 1.283 . S
C215 O227 1.281 . S
C215 O228 1.236 . S
C216 O238 1.240 . S
C216 O239 1.264 . S
O217 Mn212 2.095 . S
O217 C226 1.250 . S
O218 Mn213 2.121 . S
O218 C226 1.258 . S
C219 N220 1.326 . S
C219 C223 1.460 . S
C219 H225 0.929 . S
N220 Mn213 2.257 . S
N220 C219 1.326 . S
N220 C224 1.362 . S
C221 C222 1.258 . S
C221 C224 1.431 . S
C221 C241 1.449 . S
C222 C221 1.258 . S
C222 C223 1.477 . S
C222 H242 0.931 . S
C223 C219 1.460 . S
C223 C222 1.477 . S
C223 H243 0.930 . S
C224 N220 1.362 . S
C224 C221 1.431 . S
C224 C234 1.476 . S
H225 C219 0.929 . S
C226 O217 1.250 . S
C226 O218 1.258 . S
O227 Mn212 2.162 . S
O227 C215 1.281 . S
O228 Mn212 2.297 . S
O228 C215 1.236 . S
N229 Mn213 2.282 . S
N229 C230 1.328 . S
N229 C234 1.318 . S
C230 N229 1.328 . S
C230 C231 1.457 . S
C230 H235 0.929 . S
C231 C230 1.457 . S
C231 C232 1.291 . S
C231 H244 0.931 . S
C232 C231 1.291 . S
C232 C233 1.373 . S
C232 H245 0.929 . S
C233 C232 1.373 . S
C233 C234 1.396 . S
C233 C240 1.403 . S
C234 C224 1.476 . S
C234 N229 1.318 . S
C234 C233 1.396 . S
H235 C230 0.929 . S
O236 Mn212 2.385 . S
O236 C214 1.234 . S
O237 Mn212 2.209 . S
O237 Mn213 2.215 . S
O237 C214 1.283 . S
O238 Mn212 2.094 . S
O238 C216 1.240 . S
O239 Mn213 2.117 . S
O239 C216 1.264 . S
C240 C233 1.403 . S
C240 C241 1.399 . S
C240 H246 0.929 . S
C241 C221 1.449 . S
C241 C240 1.399 . S
C241 H247 0.930 . S
H242 C222 0.931 . S
H243 C223 0.930 . S
H244 C231 0.931 . S
H245 C232 0.929 . S
H246 C240 0.929 . S
H247 C241 0.930 . S
Mn248 O253 2.095 . S
Mn248 O263 2.162 . S
Mn248 O264 2.297 . S
Mn248 O272 2.385 . S
Mn248 O273 2.209 . S
Mn248 O274 2.094 . S
Mn249 O254 2.121 . S
Mn249 N256 2.257 . S
Mn249 N265 2.282 . S
Mn249 O273 2.215 . S
Mn249 O275 2.117 . S
C250 O272 1.234 . S
C250 O273 1.283 . S
C251 O263 1.281 . S
C251 O264 1.236 . S
C252 O274 1.240 . S
C252 O275 1.264 . S
O253 Mn248 2.095 . S
O253 C262 1.250 . S
O254 Mn249 2.121 . S
O254 C262 1.258 . S
C255 N256 1.326 . S
C255 C259 1.460 . S
C255 H261 0.929 . S
N256 Mn249 2.257 . S
N256 C255 1.326 . S
N256 C260 1.362 . S
C257 C258 1.258 . S
C257 C260 1.431 . S
C257 C277 1.449 . S
C258 C257 1.258 . S
C258 C259 1.477 . S
C258 H278 0.931 . S
C259 C255 1.460 . S
C259 C258 1.477 . S
C259 H279 0.930 . S
C260 N256 1.362 . S
C260 C257 1.431 . S
C260 C270 1.476 . S
H261 C255 0.929 . S
C262 O253 1.250 . S
C262 O254 1.258 . S
O263 Mn248 2.162 . S
O263 C251 1.281 . S
O264 Mn248 2.297 . S
O264 C251 1.236 . S
N265 Mn249 2.282 . S
N265 C266 1.328 . S
N265 C270 1.318 . S
C266 N265 1.328 . S
C266 C267 1.457 . S
C266 H271 0.929 . S
C267 C266 1.457 . S
C267 C268 1.291 . S
C267 H280 0.931 . S
C268 C267 1.291 . S
C268 C269 1.373 . S
C268 H281 0.929 . S
C269 C268 1.373 . S
C269 C270 1.396 . S
C269 C276 1.403 . S
C270 C260 1.476 . S
C270 N265 1.318 . S
C270 C269 1.396 . S
H271 C266 0.929 . S
O272 Mn248 2.385 . S
O272 C250 1.234 . S
O273 Mn248 2.209 . S
O273 Mn249 2.215 . S
O273 C250 1.283 . S
O274 Mn248 2.094 . S
O274 C252 1.240 . S
O275 Mn249 2.117 . S
O275 C252 1.264 . S
C276 C269 1.403 . S
C276 C277 1.399 . S
C276 H282 0.929 . S
C277 C257 1.449 . S
C277 C276 1.399 . S
C277 H283 0.930 . S
H278 C258 0.931 . S
H279 C259 0.930 . S
H280 C267 0.931 . S
H281 C268 0.929 . S
H282 C276 0.929 . S
H283 C277 0.930 . S
Mn284 O289 2.095 . S
Mn284 O299 2.162 . S
Mn284 O300 2.297 . S
Mn284 O308 2.385 . S
Mn284 O309 2.209 . S
Mn284 O310 2.094 . S
Mn285 O290 2.121 1_455 S
Mn285 N292 2.257 . S
Mn285 N301 2.282 . S
Mn285 O309 2.215 1_455 S
Mn285 O311 2.117 1_455 S
C286 O308 1.234 . S
C286 O309 1.283 . S
C287 O299 1.281 . S
C287 O300 1.236 . S
C288 O310 1.240 . S
C288 O311 1.264 . S
O289 Mn284 2.095 . S
O289 C298 1.250 . S
O290 Mn285 2.121 1_655 S
O290 C298 1.258 . S
C291 N292 1.326 . S
C291 C295 1.460 . S
C291 H297 0.929 . S
N292 Mn285 2.257 . S
N292 C291 1.326 . S
N292 C296 1.362 . S
C293 C294 1.258 . S
C293 C296 1.431 . S
C293 C313 1.449 . S
C294 C293 1.258 . S
C294 C295 1.477 . S
C294 H314 0.931 . S
C295 C291 1.460 . S
C295 C294 1.477 . S
C295 H315 0.930 . S
C296 N292 1.362 . S
C296 C293 1.431 . S
C296 C306 1.476 . S
H297 C291 0.929 . S
C298 O289 1.250 . S
C298 O290 1.258 . S
O299 Mn284 2.162 . S
O299 C287 1.281 . S
O300 Mn284 2.297 . S
O300 C287 1.236 . S
N301 Mn285 2.282 . S
N301 C302 1.328 . S
N301 C306 1.318 . S
C302 N301 1.328 . S
C302 C303 1.457 . S
C302 H307 0.929 1_455 S
C303 C302 1.457 . S
C303 C304 1.291 . S
C303 H316 0.931 . S
C304 C303 1.291 . S
C304 C305 1.373 . S
C304 H317 0.929 . S
C305 C304 1.373 . S
C305 C306 1.396 . S
C305 C312 1.403 . S
C306 C296 1.476 . S
C306 N301 1.318 . S
C306 C305 1.396 . S
H307 C302 0.929 1_655 S
O308 Mn284 2.385 . S
O308 C286 1.234 . S
O309 Mn284 2.209 . S
O309 Mn285 2.215 1_655 S
O309 C286 1.283 . S
O310 Mn284 2.094 . S
O310 C288 1.240 . S
O311 Mn285 2.117 1_655 S
O311 C288 1.264 . S
C312 C305 1.403 . S
C312 C313 1.399 . S
C312 H318 0.929 . S
C313 C293 1.449 . S
C313 C312 1.399 . S
C313 H319 0.930 . S
H314 C294 0.931 . S
H315 C295 0.930 . S
H316 C303 0.931 . S
H317 C304 0.929 . S
H318 C312 0.929 . S
H319 C313 0.930 . S
Mn320 O325 2.095 . S
Mn320 O335 2.162 . S
Mn320 O336 2.297 . S
Mn320 O344 2.385 1_554 S
Mn320 O345 2.209 . S
Mn320 O346 2.094 . S
Mn321 O326 2.121 . S
Mn321 N328 2.257 . S
Mn321 N337 2.282 . S
Mn321 O345 2.215 . S
Mn321 O347 2.117 . S
C322 O344 1.224 1_554 S
C322 O345 1.344 . S
C323 O335 1.281 . S
C323 O336 1.236 . S
C324 O346 1.240 . S
C324 O347 1.264 . S
O325 Mn320 2.095 . S
O325 C334 1.250 . S
O326 Mn321 2.121 . S
O326 C334 1.258 . S
C327 N328 1.326 . S
C327 C331 1.460 . S
C327 H333 0.929 . S
N328 Mn321 2.257 . S
N328 C327 1.326 . S
N328 C332 1.362 . S
C329 C330 1.258 . S
C329 C332 1.431 . S
C329 C349 1.449 1_554 S
C330 C329 1.258 . S
C330 C331 1.477 . S
C330 H350 0.931 . S
C331 C327 1.460 . S
C331 C330 1.477 . S
C331 H351 0.930 . S
C332 N328 1.362 . S
C332 C329 1.431 . S
C332 C342 1.476 . S
H333 C327 0.929 . S
C334 O325 1.250 . S
C334 O326 1.258 . S
O335 Mn320 2.162 . S
O335 C323 1.281 . S
O336 Mn320 2.297 . S
O336 C323 1.236 . S
N337 Mn321 2.282 . S
N337 C338 1.328 . S
N337 C342 1.318 . S
C338 N337 1.328 . S
C338 C339 1.457 1_554 S
C338 H343 0.929 . S
C339 C338 1.457 1_556 S
C339 C340 1.291 . S
C339 H352 0.931 . S
C340 C339 1.291 . S
C340 C341 1.373 . S
C340 H353 0.929 . S
C341 C340 1.373 . S
C341 C342 1.396 1_556 S
C341 C348 1.403 . S
C342 C332 1.476 . S
C342 N337 1.318 . S
C342 C341 1.396 1_554 S
H343 C338 0.929 . S
O344 Mn320 2.385 1_556 S
O344 C322 1.224 1_556 S
O345 Mn320 2.209 . S
O345 Mn321 2.215 . S
O345 C322 1.344 . S
O346 Mn320 2.094 . S
O346 C324 1.240 . S
O347 Mn321 2.117 . S
O347 C324 1.264 . S
C348 C341 1.403 . S
C348 C349 1.399 . S
C348 H354 0.929 . S
C349 C329 1.449 1_556 S
C349 C348 1.399 . S
C349 H355 0.930 . S
H350 C330 0.931 . S
H351 C331 0.930 . S
H352 C339 0.931 . S
H353 C340 0.929 . S
H354 C348 0.929 . S
H355 C349 0.930 . S
Mn356 O361 2.095 . S
Mn356 O371 2.162 . S
Mn356 O372 2.297 . S
Mn356 O380 2.385 . S
Mn356 O381 2.209 . S
Mn356 O382 2.094 . S
Mn357 O362 2.121 . S
Mn357 N364 2.257 . S
Mn357 N373 2.282 . S
Mn357 O381 2.215 . S
Mn357 O383 2.117 . S
C358 O380 1.234 . S
C358 O381 1.283 . S
C359 O371 1.281 . S
C359 O372 1.236 . S
C360 O382 1.240 . S
C360 O383 1.264 . S
O361 Mn356 2.095 . S
O361 C370 1.250 . S
O362 Mn357 2.121 . S
O362 C370 1.258 . S
C363 N364 1.326 . S
C363 C367 1.460 . S
C363 H369 0.929 . S
N364 Mn357 2.257 . S
N364 C363 1.326 . S
N364 C368 1.362 . S
C365 C366 1.258 . S
C365 C368 1.431 . S
C365 C385 1.449 . S
C366 C365 1.258 . S
C366 C367 1.477 . S
C366 H386 0.931 . S
C367 C363 1.460 . S
C367 C366 1.477 . S
C367 H387 0.930 . S
C368 N364 1.362 . S
C368 C365 1.431 . S
C368 C378 1.476 . S
H369 C363 0.929 . S
C370 O361 1.250 . S
C370 O362 1.258 . S
O371 Mn356 2.162 . S
O371 C359 1.281 . S
O372 Mn356 2.297 . S
O372 C359 1.236 . S
N373 Mn357 2.282 . S
N373 C374 1.328 . S
N373 C378 1.318 . S
C374 N373 1.328 . S
C374 C375 1.457 . S
C374 H379 0.929 . S
C375 C374 1.457 . S
C375 C376 1.291 . S
C375 H388 0.931 . S
C376 C375 1.291 . S
C376 C377 1.373 . S
C376 H389 0.929 . S
C377 C376 1.373 . S
C377 C378 1.396 . S
C377 C384 1.403 . S
C378 C368 1.476 . S
C378 N373 1.318 . S
C378 C377 1.396 . S
H379 C374 0.929 . S
O380 Mn356 2.385 . S
O380 C358 1.234 . S
O381 Mn356 2.209 . S
O381 Mn357 2.215 . S
O381 C358 1.283 . S
O382 Mn356 2.094 . S
O382 C360 1.240 . S
O383 Mn357 2.117 . S
O383 C360 1.264 . S
C384 C377 1.403 . S
C384 C385 1.399 . S
C384 H390 0.929 . S
C385 C365 1.449 . S
C385 C384 1.399 . S
C385 H391 0.930 . S
H386 C366 0.931 . S
H387 C367 0.930 . S
H388 C375 0.931 . S
H389 C376 0.929 . S
H390 C384 0.929 . S
H391 C385 0.930 . S
H392 C400 0.929 . S
H393 C402 0.930 . S
H394 C404 0.930 1_545 S
H395 C407 0.929 . S
H396 C410 0.930 . S
H397 C412 0.960 . S
H398 C412 0.960 . S
H399 C412 0.960 . S
C400 H392 0.929 . S
C400 C401 1.377 . S
C400 C402 1.384 . S
C401 C400 1.377 . S
C401 C407 1.390 1_565 S
C402 H393 0.930 . S
C402 C400 1.384 . S
C402 C403 1.372 . S
C403 C402 1.372 . S
C403 C404 1.400 . S
C403 C408 1.490 . S
C404 H394 0.930 1_565 S
C404 C403 1.400 . S
C404 C407 1.386 1_565 S
H405 C421 0.930 . S
H406 C422 0.931 . S
C407 H395 0.929 . S
C407 C401 1.390 1_545 S
C407 C404 1.386 1_545 S
C408 C403 1.490 . S
C408 C410 1.395 . S
C408 C411 1.403 . S
H409 C415 0.930 . S
C410 H396 0.930 . S
C410 C408 1.395 . S
C410 C413 1.403 . S
C411 C408 1.403 . S
C411 C412 1.524 . S
C411 C415 1.400 . S
C412 H397 0.960 . S
C412 H398 0.960 . S
C412 H399 0.960 . S
C412 C411 1.524 . S
C413 C410 1.403 . S
C413 C414 1.392 . S
C413 C417 1.495 . S
C414 C413 1.392 . S
C414 C415 1.385 . S
C414 C416 1.478 . S
C415 H409 0.930 . S
C415 C411 1.400 . S
C415 C414 1.385 . S
C416 C414 1.478 . S
C416 C418 1.381 . S
C416 C422 1.383 . S
C417 C413 1.495 . S
C417 H423 0.959 . S
C417 H424 0.961 . S
C417 H425 0.960 . S
C418 C416 1.381 . S
C418 C419 1.394 . S
C418 H426 0.930 . S
C419 C418 1.394 . S
C419 C420 1.383 . S
C419 H427 0.929 . S
C420 C419 1.383 . S
C420 C421 1.377 . S
C421 H405 0.930 . S
C421 C420 1.377 . S
C421 C422 1.379 . S
C422 H406 0.931 . S
C422 C416 1.383 . S
C422 C421 1.379 . S
H423 C417 0.959 . S
H424 C417 0.961 . S
H425 C417 0.960 . S
H426 C418 0.930 . S
H427 C419 0.929 . S
H428 C436 0.929 . S
H429 C438 0.930 . S
H430 C440 0.930 . S
H431 C443 0.929 . S
H432 C446 0.930 . S
H433 C448 0.960 . S
H434 C448 0.960 . S
H435 C448 0.960 . S
C436 H428 0.929 . S
C436 C437 1.377 . S
C436 C438 1.384 . S
C437 C436 1.377 . S
C437 C443 1.390 . S
C438 H429 0.930 . S
C438 C436 1.384 . S
C438 C439 1.372 . S
C439 C438 1.372 . S
C439 C440 1.400 . S
C439 C444 1.490 . S
C440 H430 0.930 . S
C440 C439 1.400 . S
C440 C443 1.386 . S
H441 C457 0.930 . S
H442 C458 0.931 . S
C443 H431 0.929 . S
C443 C437 1.390 . S
C443 C440 1.386 . S
C444 C439 1.490 . S
C444 C446 1.395 . S
C444 C447 1.403 . S
H445 C451 0.930 . S
C446 H432 0.930 . S
C446 C444 1.395 . S
C446 C449 1.403 . S
C447 C444 1.403 . S
C447 C448 1.524 . S
C447 C451 1.400 . S
C448 H433 0.960 . S
C448 H434 0.960 . S
C448 H435 0.960 . S
C448 C447 1.524 . S
C449 C446 1.403 . S
C449 C450 1.392 . S
C449 C453 1.495 . S
C450 C449 1.392 . S
C450 C451 1.385 . S
C450 C452 1.478 . S
C451 H445 0.930 . S
C451 C447 1.400 . S
C451 C450 1.385 . S
C452 C450 1.478 . S
C452 C454 1.381 . S
C452 C458 1.383 . S
C453 C449 1.495 . S
C453 H459 0.959 . S
C453 H460 0.961 . S
C453 H461 0.960 . S
C454 C452 1.381 . S
C454 C455 1.394 . S
C454 H462 0.930 . S
C455 C454 1.394 . S
C455 C456 1.383 . S
C455 H463 0.929 . S
C456 C455 1.383 . S
C456 C457 1.377 . S
C457 H441 0.930 . S
C457 C456 1.377 . S
C457 C458 1.379 . S
C458 H442 0.931 . S
C458 C452 1.383 . S
C458 C457 1.379 . S
H459 C453 0.959 . S
H460 C453 0.961 . S
H461 C453 0.960 . S
H462 C454 0.930 . S
H463 C455 0.929 . S
H464 C472 0.929 . S
H465 C474 0.930 . S
H466 C476 0.930 . S
H467 C479 0.929 . S
H468 C482 0.930 . S
H469 C484 0.960 . S
H470 C484 0.960 . S
H471 C484 0.960 . S
C472 H464 0.929 . S
C472 C473 1.377 . S
C472 C474 1.384 . S
C473 C472 1.377 . S
C473 C479 1.390 . S
C474 H465 0.930 . S
C474 C472 1.384 . S
C474 C475 1.372 . S
C475 C474 1.372 . S
C475 C476 1.400 . S
C475 C480 1.490 . S
C476 H466 0.930 . S
C476 C475 1.400 . S
C476 C479 1.386 . S
H477 C493 0.930 . S
H478 C494 0.931 . S
C479 H467 0.929 . S
C479 C473 1.390 . S
C479 C476 1.386 . S
C480 C475 1.490 . S
C480 C482 1.395 . S
C480 C483 1.403 . S
H481 C487 0.930 . S
C482 H468 0.930 . S
C482 C480 1.395 . S
C482 C485 1.403 . S
C483 C480 1.403 . S
C483 C484 1.524 . S
C483 C487 1.400 . S
C484 H469 0.960 . S
C484 H470 0.960 . S
C484 H471 0.960 . S
C484 C483 1.524 . S
C485 C482 1.403 . S
C485 C486 1.392 . S
C485 C489 1.495 . S
C486 C485 1.392 . S
C486 C487 1.385 . S
C486 C488 1.478 . S
C487 H481 0.930 . S
C487 C483 1.400 . S
C487 C486 1.385 . S
C488 C486 1.478 . S
C488 C490 1.381 . S
C488 C494 1.383 . S
C489 C485 1.495 . S
C489 H495 0.959 . S
C489 H496 0.961 . S
C489 H497 0.960 . S
C490 C488 1.381 . S
C490 C491 1.394 . S
C490 H498 0.930 . S
C491 C490 1.394 . S
C491 C492 1.383 . S
C491 H499 0.929 . S
C492 C491 1.383 . S
C492 C493 1.377 . S
C493 H477 0.930 . S
C493 C492 1.377 . S
C493 C494 1.379 . S
C494 H478 0.931 . S
C494 C488 1.383 . S
C494 C493 1.379 . S
H495 C489 0.959 . S
H496 C489 0.961 . S
H497 C489 0.960 . S
H498 C490 0.930 . S
H499 C491 0.929 . S
H500 C508 0.929 . S
H501 C510 0.930 . S
H502 C512 0.930 . S
H503 C515 0.929 . S
H504 C518 0.930 . S
H505 C520 0.931 1_565 S
H506 C520 0.964 . S
H507 C520 0.987 . S
C508 H500 0.929 . S
C508 C509 1.377 . S
C508 C510 1.384 . S
C509 C508 1.377 . S
C509 C515 1.390 . S
C510 H501 0.930 . S
C510 C508 1.384 . S
C510 C511 1.372 . S
C511 C510 1.372 . S
C511 C512 1.400 . S
C511 C516 1.490 . S
C512 H502 0.930 . S
C512 C511 1.400 . S
C512 C515 1.386 . S
H513 C529 0.930 . S
H514 C530 0.931 . S
C515 H503 0.929 . S
C515 C509 1.390 . S
C515 C512 1.386 . S
C516 C511 1.490 . S
C516 C518 1.395 . S
C516 C519 1.419 . S
H517 C523 0.930 . S
C518 H504 0.930 . S
C518 C516 1.395 . S
C518 C521 1.403 1_545 S
C519 C516 1.419 . S
C519 C520 1.524 . S
C519 C523 1.383 1_545 S
C520 H505 0.931 1_545 S
C520 H506 0.964 . S
C520 H507 0.987 . S
C520 C519 1.524 . S
C521 C518 1.403 1_565 S
C521 C522 1.392 . S
C521 C525 1.495 . S
C522 C521 1.392 . S
C522 C523 1.385 . S
C522 C524 1.478 . S
C523 H517 0.930 . S
C523 C519 1.383 1_565 S
C523 C522 1.385 . S
C524 C522 1.478 . S
C524 C526 1.381 . S
C524 C530 1.383 . S
C525 C521 1.495 . S
C525 H531 0.959 1_565 S
C525 H532 0.961 . S
C525 H533 0.960 . S
C526 C524 1.381 . S
C526 C527 1.394 . S
C526 H534 0.930 . S
C527 C526 1.394 . S
C527 C528 1.383 . S
C527 H535 0.929 . S
C528 C527 1.383 . S
C528 C529 1.377 . S
C529 H513 0.930 . S
C529 C528 1.377 . S
C529 C530 1.379 . S
C530 H514 0.931 . S
C530 C524 1.383 . S
C530 C529 1.379 . S
H531 C525 0.959 1_545 S
H532 C525 0.961 . S
H533 C525 0.960 . S
H534 C526 0.930 . S
H535 C527 0.929 . S
H536 C544 0.929 . S
H537 C546 0.930 . S
H538 C548 0.930 . S
H539 C551 0.929 . S
H540 C554 0.930 . S
H541 C556 0.960 . S
H542 C556 0.960 . S
H543 C556 0.960 . S
C544 H536 0.929 . S
C544 C545 1.377 . S
C544 C546 1.384 . S
C545 C544 1.377 . S
C545 C551 1.390 . S
C546 H537 0.930 . S
C546 C544 1.384 . S
C546 C547 1.372 . S
C547 C546 1.372 . S
C547 C548 1.400 . S
C547 C552 1.490 . S
C548 H538 0.930 . S
C548 C547 1.400 . S
C548 C551 1.386 . S
H549 C565 0.930 . S
H550 C566 0.931 . S
C551 H539 0.929 . S
C551 C545 1.390 . S
C551 C548 1.386 . S
C552 C547 1.490 . S
C552 C554 1.395 . S
C552 C555 1.403 . S
H553 C559 0.930 . S
C554 H540 0.930 . S
C554 C552 1.395 . S
C554 C557 1.403 . S
C555 C552 1.403 . S
C555 C556 1.524 . S
C555 C559 1.400 . S
C556 H541 0.960 . S
C556 H542 0.960 . S
C556 H543 0.960 . S
C556 C555 1.524 . S
C557 C554 1.403 . S
C557 C558 1.392 . S
C557 C561 1.495 . S
C558 C557 1.392 . S
C558 C559 1.385 . S
C558 C560 1.478 . S
C559 H553 0.930 . S
C559 C555 1.400 . S
C559 C558 1.385 . S
C560 C558 1.478 . S
C560 C562 1.381 . S
C560 C566 1.383 . S
C561 C557 1.495 . S
C561 H567 0.959 . S
C561 H568 0.961 . S
C561 H569 0.960 . S
C562 C560 1.381 . S
C562 C563 1.394 . S
C562 H570 0.930 . S
C563 C562 1.394 . S
C563 C564 1.383 . S
C563 H571 0.929 1_556 S
C564 C563 1.383 . S
C564 C565 1.377 . S
C565 H549 0.930 . S
C565 C564 1.377 . S
C565 C566 1.379 . S
C566 H550 0.931 . S
C566 C560 1.383 . S
C566 C565 1.379 . S
H567 C561 0.959 . S
H568 C561 0.961 . S
H569 C561 0.960 . S
H570 C562 0.930 . S
H571 C563 0.929 1_554 S
H572 C580 0.929 . S
H573 C582 0.930 . S
H574 C584 0.930 . S
H575 C587 0.929 . S
H576 C590 0.930 . S
H577 C592 0.960 . S
H578 C592 0.960 . S
H579 C592 0.960 . S
C580 H572 0.929 . S
C580 C581 1.377 . S
C580 C582 1.384 . S
C581 C580 1.377 . S
C581 C587 1.390 . S
C582 H573 0.930 . S
C582 C580 1.384 . S
C582 C583 1.372 . S
C583 C582 1.372 . S
C583 C584 1.400 . S
C583 C588 1.490 . S
C584 H574 0.930 . S
C584 C583 1.400 . S
C584 C587 1.386 . S
H585 C601 0.930 . S
H586 C602 0.931 . S
C587 H575 0.929 . S
C587 C581 1.390 . S
C587 C584 1.386 . S
C588 C583 1.490 . S
C588 C590 1.395 . S
C588 C591 1.403 . S
H589 C595 0.930 . S
C590 H576 0.930 . S
C590 C588 1.395 . S
C590 C593 1.403 . S
C591 C588 1.403 . S
C591 C592 1.524 . S
C591 C595 1.400 . S
C592 H577 0.960 . S
C592 H578 0.960 . S
C592 H579 0.960 . S
C592 C591 1.524 . S
C593 C590 1.403 . S
C593 C594 1.392 . S
C593 C597 1.495 . S
C594 C593 1.392 . S
C594 C595 1.385 . S
C594 C596 1.478 . S
C595 H589 0.930 . S
C595 C591 1.400 . S
C595 C594 1.385 . S
C596 C594 1.478 . S
C596 C598 1.381 . S
C596 C602 1.383 . S
C597 C593 1.495 . S
C597 H603 0.959 . S
C597 H604 0.961 . S
C597 H605 0.960 . S
C598 C596 1.381 . S
C598 C599 1.394 . S
C598 H606 0.930 . S
C599 C598 1.394 . S
C599 C600 1.383 . S
C599 H607 0.929 . S
C600 C599 1.383 . S
C600 C601 1.377 . S
C601 H585 0.930 . S
C601 C600 1.377 . S
C601 C602 1.379 . S
C602 H586 0.931 . S
C602 C596 1.383 . S
C602 C601 1.379 . S
H603 C597 0.959 . S
H604 C597 0.961 . S
H605 C597 0.960 . S
H606 C598 0.930 . S
H607 C599 0.929 . S
H608 C616 0.929 . S
H609 C618 0.930 . S
H610 C620 0.930 . S
H611 C623 0.929 . S
H612 C626 0.930 . S
H613 C628 0.960 1_565 S
H614 C628 0.960 . S
H615 C628 0.961 . S
C616 H608 0.929 . S
C616 C617 1.377 . S
C616 C618 1.384 . S
C617 C616 1.377 . S
C617 C623 1.390 . S
C618 H609 0.930 . S
C618 C616 1.384 . S
C618 C619 1.372 . S
C619 C618 1.372 . S
C619 C620 1.400 . S
C619 C624 1.490 . S
C620 H610 0.930 . S
C620 C619 1.400 . S
C620 C623 1.386 . S
H621 C637 0.930 . S
H622 C638 0.931 . S
C623 H611 0.929 . S
C623 C617 1.390 . S
C623 C620 1.386 . S
C624 C619 1.490 . S
C624 C626 1.395 . S
C624 C627 1.403 . S
H625 C631 0.930 . S
C626 H612 0.930 . S
C626 C624 1.395 . S
C626 C629 1.403 . S
C627 C624 1.403 . S
C627 C628 1.524 . S
C627 C631 1.400 1_545 S
C628 H613 0.960 1_545 S
C628 H614 0.960 . S
C628 H615 0.961 . S
C628 C627 1.524 . S
C629 C626 1.403 . S
C629 C630 1.392 1_545 S
C629 C633 1.495 . S
C630 C629 1.392 1_565 S
C630 C631 1.385 . S
C630 C632 1.478 . S
C631 H625 0.930 . S
C631 C627 1.400 1_565 S
C631 C630 1.385 . S
C632 C630 1.478 . S
C632 C634 1.381 . S
C632 C638 1.383 . S
C633 C629 1.495 . S
C633 H639 0.959 . S
C633 H640 0.961 1_545 S
C633 H641 0.960 . S
C634 C632 1.381 . S
C634 C635 1.394 . S
C634 H642 0.930 . S
C635 C634 1.394 . S
C635 C636 1.383 . S
C635 H643 0.929 . S
C636 C635 1.383 . S
C636 C637 1.377 . S
C637 H621 0.930 . S
C637 C636 1.377 . S
C637 C638 1.379 . S
C638 H622 0.931 . S
C638 C632 1.383 . S
C638 C637 1.379 . S
H639 C633 0.959 . S
H640 C633 0.961 1_565 S
H641 C633 0.960 . S
H642 C634 0.930 . S
H643 C635 0.929 . S
H644 C652 0.929 . S
H645 C654 0.930 . S
H646 C656 0.930 . S
H647 C659 0.929 . S
H648 C662 0.930 . S
H649 C664 0.960 . S
H650 C664 0.960 . S
H651 C664 0.960 . S
C652 H644 0.929 . S
C652 C653 1.377 . S
C652 C654 1.384 . S
C653 C652 1.377 . S
C653 C659 1.390 . S
C654 H645 0.930 . S
C654 C652 1.384 . S
C654 C655 1.372 . S
C655 C654 1.372 . S
C655 C656 1.400 . S
C655 C660 1.490 . S
C656 H646 0.930 . S
C656 C655 1.400 . S
C656 C659 1.386 . S
H657 C673 0.930 . S
H658 C674 0.931 . S
C659 H647 0.929 . S
C659 C653 1.390 . S
C659 C656 1.386 . S
C660 C655 1.490 . S
C660 C662 1.395 . S
C660 C663 1.403 . S
H661 C667 0.930 . S
C662 H648 0.930 . S
C662 C660 1.395 . S
C662 C665 1.403 . S
C663 C660 1.403 . S
C663 C664 1.524 . S
C663 C667 1.400 . S
C664 H649 0.960 . S
C664 H650 0.960 . S
C664 H651 0.960 . S
C664 C663 1.524 . S
C665 C662 1.403 . S
C665 C666 1.392 . S
C665 C669 1.495 . S
C666 C665 1.392 . S
C666 C667 1.385 . S
C666 C668 1.478 . S
C667 H661 0.930 . S
C667 C663 1.400 . S
C667 C666 1.385 . S
C668 C666 1.478 . S
C668 C670 1.381 . S
C668 C674 1.383 . S
C669 C665 1.495 . S
C669 H675 0.959 . S
C669 H676 0.961 . S
C669 H677 0.960 . S
C670 C668 1.381 . S
C670 C671 1.394 . S
C670 H678 0.930 . S
C671 C670 1.394 . S
C671 C672 1.383 . S
C671 H679 0.929 . S
C672 C671 1.383 . S
C672 C673 1.377 . S
C673 H657 0.930 . S
C673 C672 1.377 . S
C673 C674 1.379 . S
C674 H658 0.931 . S
C674 C668 1.383 . S
C674 C673 1.379 . S
H675 C669 0.959 . S
H676 C669 0.961 . S
H677 C669 0.960 . S
H678 C670 0.930 . S
H679 C671 0.929 . S
H680 C688 0.929 . S
H681 C690 0.930 . S
H682 C692 0.930 . S
H683 C695 0.929 . S
H684 C698 0.930 . S
H685 C700 0.960 . S
H686 C700 0.960 . S
H687 C700 0.960 . S
C688 H680 0.929 . S
C688 C689 1.377 . S
C688 C690 1.384 . S
C689 C688 1.377 . S
C689 C695 1.390 . S
C690 H681 0.930 . S
C690 C688 1.384 . S
C690 C691 1.372 . S
C691 C690 1.372 . S
C691 C692 1.400 . S
C691 C696 1.490 . S
C692 H682 0.930 . S
C692 C691 1.400 . S
C692 C695 1.386 . S
H693 C709 0.930 . S
H694 C710 0.931 . S
C695 H683 0.929 . S
C695 C689 1.390 . S
C695 C692 1.386 . S
C696 C691 1.490 . S
C696 C698 1.395 . S
C696 C699 1.403 . S
H697 C703 0.930 . S
C698 H684 0.930 . S
C698 C696 1.395 . S
C698 C701 1.403 . S
C699 C696 1.403 . S
C699 C700 1.524 . S
C699 C703 1.400 . S
C700 H685 0.960 . S
C700 H686 0.960 . S
C700 H687 0.960 . S
C700 C699 1.524 . S
C701 C698 1.403 . S
C701 C702 1.392 . S
C701 C705 1.495 . S
C702 C701 1.392 . S
C702 C703 1.385 . S
C702 C704 1.478 . S
C703 H697 0.930 . S
C703 C699 1.400 . S
C703 C702 1.385 . S
C704 C702 1.478 . S
C704 C706 1.381 . S
C704 C710 1.383 . S
C705 C701 1.495 . S
C705 H711 0.959 . S
C705 H712 0.961 . S
C705 H713 0.960 . S
C706 C704 1.381 . S
C706 C707 1.394 . S
C706 H714 0.930 . S
C707 C706 1.394 . S
C707 C708 1.383 . S
C707 H715 0.929 . S
C708 C707 1.383 . S
C708 C709 1.377 . S
C709 H693 0.930 . S
C709 C708 1.377 . S
C709 C710 1.379 . S
C710 H694 0.931 . S
C710 C704 1.383 . S
C710 C709 1.379 . S
H711 C705 0.959 . S
H712 C705 0.961 . S
H713 C705 0.960 . S
H714 C706 0.930 . S
H715 C707 0.929 . S
H716 C724 0.929 . S
H717 C726 0.930 . S
H718 C728 0.930 . S
H719 C731 0.929 . S
H720 C734 0.930 . S
H721 C736 0.960 . S
H722 C736 0.960 . S
H723 C736 0.960 . S
C724 H716 0.929 . S
C724 C725 1.377 . S
C724 C726 1.384 . S
C725 C724 1.377 . S
C725 C731 1.390 . S
C726 H717 0.930 . S
C726 C724 1.384 . S
C726 C727 1.372 . S
C727 C726 1.372 . S
C727 C728 1.400 . S
C727 C732 1.490 . S
C728 H718 0.930 . S
C728 C727 1.400 . S
C728 C731 1.386 . S
H729 C745 0.930 . S
H730 C746 0.931 . S
C731 H719 0.929 . S
C731 C725 1.390 . S
C731 C728 1.386 . S
C732 C727 1.490 . S
C732 C734 1.395 . S
C732 C735 1.403 . S
H733 C739 0.930 . S
C734 H720 0.930 . S
C734 C732 1.395 . S
C734 C737 1.403 . S
C735 C732 1.403 . S
C735 C736 1.524 . S
C735 C739 1.400 . S
C736 H721 0.960 . S
C736 H722 0.960 . S
C736 H723 0.960 . S
C736 C735 1.524 . S
C737 C734 1.403 . S
C737 C738 1.392 . S
C737 C741 1.495 . S
C738 C737 1.392 . S
C738 C739 1.385 . S
C738 C740 1.478 . S
C739 H733 0.930 . S
C739 C735 1.400 . S
C739 C738 1.385 . S
C740 C738 1.478 . S
C740 C742 1.381 . S
C740 C746 1.383 . S
C741 C737 1.495 . S
C741 H747 0.959 . S
C741 H748 0.961 . S
C741 H749 0.960 . S
C742 C740 1.381 . S
C742 C743 1.394 . S
C742 H750 0.930 . S
C743 C742 1.394 . S
C743 C744 1.383 . S
C743 H751 0.929 . S
C744 C743 1.383 . S
C744 C745 1.377 . S
C745 H729 0.930 . S
C745 C744 1.377 . S
C745 C746 1.379 . S
C746 H730 0.931 . S
C746 C740 1.383 . S
C746 C745 1.379 . S
H747 C741 0.959 . S
H748 C741 0.961 . S
H749 C741 0.960 . S
H750 C742 0.930 . S
H751 C743 0.929 . S
H752 C760 0.929 . S
H753 C762 0.930 . S
H754 C764 0.930 . S
H755 C767 0.929 . S
H756 C770 0.930 . S
H757 C772 0.960 . S
H758 C772 0.960 . S
H759 C772 0.960 . S
C760 H752 0.929 . S
C760 C761 1.377 . S
C760 C762 1.384 . S
C761 C760 1.377 . S
C761 C767 1.390 . S
C762 H753 0.930 . S
C762 C760 1.384 . S
C762 C763 1.372 . S
C763 C762 1.372 . S
C763 C764 1.400 . S
C763 C768 1.490 . S
C764 H754 0.930 . S
C764 C763 1.400 . S
C764 C767 1.386 . S
H765 C781 0.930 . S
H766 C782 0.931 . S
C767 H755 0.929 . S
C767 C761 1.390 . S
C767 C764 1.386 . S
C768 C763 1.490 . S
C768 C770 1.395 . S
C768 C771 1.403 . S
H769 C775 0.930 . S
C770 H756 0.930 . S
C770 C768 1.395 . S
C770 C773 1.403 . S
C771 C768 1.403 . S
C771 C772 1.524 . S
C771 C775 1.400 . S
C772 H757 0.960 . S
C772 H758 0.960 . S
C772 H759 0.960 . S
C772 C771 1.524 . S
C773 C770 1.403 . S
C773 C774 1.392 . S
C773 C777 1.495 . S
C774 C773 1.392 . S
C774 C775 1.385 . S
C774 C776 1.478 . S
C775 H769 0.930 . S
C775 C771 1.400 . S
C775 C774 1.385 . S
C776 C774 1.478 . S
C776 C778 1.381 . S
C776 C782 1.383 . S
C777 C773 1.495 . S
C777 H783 0.959 . S
C777 H784 0.961 . S
C777 H785 0.960 . S
C778 C776 1.381 . S
C778 C779 1.394 . S
C778 H786 0.930 . S
C779 C778 1.394 . S
C779 C780 1.383 . S
C779 H787 0.929 . S
C780 C779 1.383 . S
C780 C781 1.377 . S
C781 H765 0.930 . S
C781 C780 1.377 . S
C781 C782 1.379 . S
C782 H766 0.931 . S
C782 C776 1.383 . S
C782 C781 1.379 . S
H783 C777 0.959 . S
H784 C777 0.961 . S
H785 C777 0.960 . S
H786 C778 0.930 . S
H787 C779 0.929 . S
H788 C796 0.929 . S
H789 C798 0.930 . S
H790 C800 0.930 . S
H791 C803 0.929 . S
H792 C806 0.930 . S
H793 C808 0.960 . S
H794 C808 0.960 1_455 S
H795 C808 0.960 . S
C796 H788 0.929 . S
C796 C797 1.377 . S
C796 C798 1.384 . S
C797 C796 1.377 . S
C797 C803 1.390 . S
C798 H789 0.930 . S
C798 C796 1.384 . S
C798 C799 1.372 . S
C799 C798 1.372 . S
C799 C800 1.400 . S
C799 C804 1.490 . S
C800 H790 0.930 . S
C800 C799 1.400 . S
C800 C803 1.386 . S
H801 C817 0.930 . S
H802 C818 0.931 . S
C803 H791 0.929 . S
C803 C797 1.390 . S
C803 C800 1.386 . S
C804 C799 1.490 . S
C804 C806 1.395 . S
C804 C807 1.403 . S
H805 C811 0.930 . S
C806 H792 0.930 . S
C806 C804 1.395 . S
C806 C809 1.403 . S
C807 C804 1.403 . S
C807 C808 1.524 1_455 S
C807 C811 1.400 1_455 S
C808 H793 0.960 . S
C808 H794 0.960 1_655 S
C808 H795 0.960 . S
C808 C807 1.524 1_655 S
C809 C806 1.403 . S
C809 C810 1.392 1_455 S
C809 C813 1.495 . S
C810 C809 1.392 1_655 S
C810 C811 1.385 . S
C810 C812 1.478 . S
C811 H805 0.930 . S
C811 C807 1.400 1_655 S
C811 C810 1.385 . S
C812 C810 1.478 . S
C812 C814 1.381 . S
C812 C818 1.383 . S
C813 C809 1.495 . S
C813 H819 0.959 . S
C813 H820 0.961 . S
C813 H821 0.960 . S
C814 C812 1.381 . S
C814 C815 1.394 . S
C814 H822 0.930 . S
C815 C814 1.394 . S
C815 C816 1.383 . S
C815 H823 0.929 . S
C816 C815 1.383 . S
C816 C817 1.377 . S
C817 H801 0.930 . S
C817 C816 1.377 . S
C817 C818 1.379 . S
C818 H802 0.931 . S
C818 C812 1.383 . S
C818 C817 1.379 . S
H819 C813 0.959 . S
H820 C813 0.961 . S
H821 C813 0.960 . S
H822 C814 0.930 . S
H823 C815 0.929 . S
H824 C832 0.929 . S
H825 C834 0.930 . S
H826 C836 0.930 . S
H827 C839 0.929 . S
H828 C842 0.930 . S
H829 C844 0.960 . S
H830 C844 0.960 . S
H831 C844 0.960 . S
C832 H824 0.929 . S
C832 C833 1.377 . S
C832 C834 1.384 . S
C833 C832 1.377 . S
C833 C839 1.390 . S
C834 H825 0.930 . S
C834 C832 1.384 . S
C834 C835 1.372 . S
C835 C834 1.372 . S
C835 C836 1.400 . S
C835 C840 1.490 . S
C836 H826 0.930 . S
C836 C835 1.400 . S
C836 C839 1.386 . S
H837 C853 0.930 . S
H838 C854 0.931 . S
C839 H827 0.929 . S
C839 C833 1.390 . S
C839 C836 1.386 . S
C840 C835 1.490 . S
C840 C842 1.395 . S
C840 C843 1.403 . S
H841 C847 0.930 . S
C842 H828 0.930 . S
C842 C840 1.395 . S
C842 C845 1.403 . S
C843 C840 1.403 . S
C843 C844 1.524 . S
C843 C847 1.400 . S
C844 H829 0.960 . S
C844 H830 0.960 . S
C844 H831 0.960 . S
C844 C843 1.524 . S
C845 C842 1.403 . S
C845 C846 1.392 . S
C845 C849 1.495 . S
C846 C845 1.392 . S
C846 C847 1.385 . S
C846 C848 1.478 . S
C847 H841 0.930 . S
C847 C843 1.400 . S
C847 C846 1.385 . S
C848 C846 1.478 . S
C848 C850 1.381 . S
C848 C854 1.383 . S
C849 C845 1.495 . S
C849 H855 0.959 . S
C849 H856 0.961 . S
C849 H857 0.960 . S
C850 C848 1.381 . S
C850 C851 1.394 . S
C850 H858 0.930 . S
C851 C850 1.394 . S
C851 C852 1.383 . S
C851 H859 0.929 . S
C852 C851 1.383 . S
C852 C853 1.377 . S
C853 H837 0.930 . S
C853 C852 1.377 . S
C853 C854 1.379 . S
C854 H838 0.931 . S
C854 C848 1.383 . S
C854 C853 1.379 . S
H855 C849 0.959 . S
H856 C849 0.961 . S
H857 C849 0.960 . S
H858 C850 0.930 . S
H859 C851 0.929 . S
H860 C868 0.929 . S
H861 C870 0.930 . S
H862 C872 0.930 . S
H863 C875 0.929 . S
H864 C878 0.930 1_455 S
H865 C880 0.960 . S
H866 C880 0.960 . S
H867 C880 0.960 . S
C868 H860 0.929 . S
C868 C869 1.377 1_455 S
C868 C870 1.384 . S
C869 C868 1.377 1_655 S
C869 C875 1.390 . S
C870 H861 0.930 . S
C870 C868 1.384 . S
C870 C871 1.372 1_455 S
C871 C870 1.372 1_655 S
C871 C872 1.400 . S
C871 C876 1.490 . S
C872 H862 0.930 . S
C872 C871 1.400 . S
C872 C875 1.386 . S
H873 C889 0.930 . S
H874 C890 0.931 . S
C875 H863 0.929 . S
C875 C869 1.390 . S
C875 C872 1.386 . S
C876 C871 1.490 . S
C876 C878 1.395 . S
C876 C879 1.403 . S
H877 C883 0.930 . S
C878 H864 0.930 1_655 S
C878 C876 1.395 . S
C878 C881 1.403 . S
C879 C876 1.403 . S
C879 C880 1.524 . S
C879 C883 1.400 . S
C880 H865 0.960 . S
C880 H866 0.960 . S
C880 H867 0.960 . S
C880 C879 1.524 . S
C881 C878 1.403 . S
C881 C882 1.392 . S
C881 C885 1.495 1_655 S
C882 C881 1.392 . S
C882 C883 1.385 . S
C882 C884 1.478 . S
C883 H877 0.930 . S
C883 C879 1.400 . S
C883 C882 1.385 . S
C884 C882 1.478 . S
C884 C886 1.381 . S
C884 C890 1.383 . S
C885 C881 1.495 1_455 S
C885 H891 0.959 . S
C885 H892 0.961 . S
C885 H893 0.960 . S
C886 C884 1.381 . S
C886 C887 1.394 . S
C886 H894 0.930 . S
C887 C886 1.394 . S
C887 C888 1.383 . S
C887 H895 0.929 . S
C888 C887 1.383 . S
C888 C889 1.377 . S
C889 H873 0.930 . S
C889 C888 1.377 . S
C889 C890 1.379 . S
C890 H874 0.931 . S
C890 C884 1.383 . S
C890 C889 1.379 . S
H891 C885 0.959 . S
H892 C885 0.961 . S
H893 C885 0.960 . S
H894 C886 0.930 . S
H895 C887 0.929 . S
H896 C904 0.929 . S
H897 C906 0.930 . S
H898 C908 0.930 . S
H899 C911 0.929 . S
H900 C914 0.930 . S
H901 C916 0.960 1_554 S
H902 C916 0.960 . S
H903 C916 0.960 . S
C904 H896 0.929 . S
C904 C905 1.377 . S
C904 C906 1.384 . S
C905 C904 1.377 . S
C905 C911 1.390 . S
C906 H897 0.930 . S
C906 C904 1.384 . S
C906 C907 1.372 . S
C907 C906 1.372 . S
C907 C908 1.400 . S
C907 C912 1.490 . S
C908 H898 0.930 . S
C908 C907 1.400 . S
C908 C911 1.386 . S
H909 C925 0.930 . S
H910 C926 0.931 . S
C911 H899 0.929 . S
C911 C905 1.390 . S
C911 C908 1.386 . S
C912 C907 1.490 . S
C912 C914 1.395 . S
C912 C915 1.403 . S
H913 C919 0.930 1_554 S
C914 H900 0.930 . S
C914 C912 1.395 . S
C914 C917 1.403 1_455 S
C915 C912 1.403 . S
C915 C916 1.524 . S
C915 C919 1.400 1_455 S
C916 H901 0.960 1_556 S
C916 H902 0.960 . S
C916 H903 0.960 . S
C916 C915 1.524 . S
C917 C914 1.403 1_655 S
C917 C918 1.392 . S
C917 C921 1.495 . S
C918 C917 1.392 . S
C918 C919 1.385 . S
C918 C920 1.478 . S
C919 H913 0.930 1_556 S
C919 C915 1.400 1_655 S
C919 C918 1.385 . S
C920 C918 1.478 . S
C920 C922 1.381 . S
C920 C926 1.383 1_556 S
C921 C917 1.495 . S
C921 H927 0.959 . S
C921 H928 0.961 . S
C921 H929 0.960 . S
C922 C920 1.381 . S
C922 C923 1.394 1_556 S
C922 H930 0.930 . S
C923 C922 1.394 1_554 S
C923 C924 1.383 . S
C923 H931 0.931 . S
C924 C923 1.383 . S
C924 C925 1.377 . S
C925 H909 0.930 . S
C925 C924 1.377 . S
C925 C926 1.379 . S
C926 H910 0.931 . S
C926 C920 1.383 1_554 S
C926 C925 1.379 . S
H927 C921 0.959 . S
H928 C921 0.961 . S
H929 C921 0.960 . S
H930 C922 0.930 . S
H931 C923 0.931 . S
H932 C940 0.929 . S
H933 C942 0.930 . S
H934 C944 0.930 . S
H935 C947 0.929 . S
H936 C950 0.930 . S
H937 C952 0.960 . S
H938 C952 0.960 . S
H939 C952 0.960 . S
C940 H932 0.929 . S
C940 C941 1.377 . S
C940 C942 1.384 . S
C941 C940 1.377 . S
C941 C947 1.390 . S
C942 H933 0.930 . S
C942 C940 1.384 . S
C942 C943 1.372 . S
C943 C942 1.372 . S
C943 C944 1.400 . S
C943 C948 1.490 . S
C944 H934 0.930 . S
C944 C943 1.400 . S
C944 C947 1.386 . S
H945 C961 0.930 . S
H946 C962 0.931 . S
C947 H935 0.929 . S
C947 C941 1.390 . S
C947 C944 1.386 . S
C948 C943 1.490 . S
C948 C950 1.395 . S
C948 C951 1.403 . S
H949 C955 0.930 . S
C950 H936 0.930 . S
C950 C948 1.395 . S
C950 C953 1.403 . S
C951 C948 1.403 . S
C951 C952 1.524 . S
C951 C955 1.400 . S
C952 H937 0.960 . S
C952 H938 0.960 . S
C952 H939 0.960 . S
C952 C951 1.524 . S
C953 C950 1.403 . S
C953 C954 1.392 . S
C953 C957 1.495 . S
C954 C953 1.392 . S
C954 C955 1.385 . S
C954 C956 1.478 . S
C955 H949 0.930 . S
C955 C951 1.400 . S
C955 C954 1.385 . S
C956 C954 1.478 . S
C956 C958 1.381 . S
C956 C962 1.383 . S
C957 C953 1.495 . S
C957 H963 0.959 . S
C957 H964 0.961 . S
C957 H965 0.960 . S
C958 C956 1.381 . S
C958 C959 1.394 . S
C958 H966 0.930 . S
C959 C958 1.394 . S
C959 C960 1.383 . S
C959 H967 0.929 . S
C960 C959 1.383 . S
C960 C961 1.377 . S
C961 H945 0.930 . S
C961 C960 1.377 . S
C961 C962 1.379 . S
C962 H946 0.931 . S
C962 C956 1.383 . S
C962 C961 1.379 . S
H963 C957 0.959 . S
H964 C957 0.961 . S
H965 C957 0.960 . S
H966 C958 0.930 . S
H967 C959 0.929 . S
H968 C976 0.929 . S
H969 C978 0.930 . S
H970 C980 0.930 . S
H971 C983 0.929 . S
H972 C986 0.930 . S
H973 C988 0.960 . S
H974 C988 0.960 . S
H975 C988 0.960 . S
C976 H968 0.929 . S
C976 C977 1.377 . S
C976 C978 1.384 . S
C977 C976 1.377 . S
C977 C983 1.390 . S
C978 H969 0.930 . S
C978 C976 1.384 . S
C978 C979 1.372 . S
C979 C978 1.372 . S
C979 C980 1.400 . S
C979 C984 1.490 . S
C980 H970 0.930 . S
C980 C979 1.400 . S
C980 C983 1.386 . S
H981 C997 0.930 . S
H982 C998 0.931 . S
C983 H971 0.929 . S
C983 C977 1.390 . S
C983 C980 1.386 . S
C984 C979 1.490 . S
C984 C986 1.395 . S
C984 C987 1.403 . S
H985 C991 0.930 . S
C986 H972 0.930 . S
C986 C984 1.395 . S
C986 C989 1.403 . S
C987 C984 1.403 . S
C987 C988 1.524 . S
C987 C991 1.400 . S
C988 H973 0.960 . S
C988 H974 0.960 . S
C988 H975 0.960 . S
C988 C987 1.524 . S
C989 C986 1.403 . S
C989 C990 1.392 . S
C989 C993 1.495 . S
C990 C989 1.392 . S
C990 C991 1.385 . S
C990 C992 1.478 . S
C991 H985 0.930 . S
C991 C987 1.400 . S
C991 C990 1.385 . S
C992 C990 1.478 . S
C992 C994 1.381 . S
C992 C998 1.383 . S
C993 C989 1.495 . S
C993 H999 0.959 . S
C993 H1000 0.961 . S
C993 H1001 0.960 . S
C994 C992 1.381 . S
C994 C995 1.394 . S
C994 H1002 0.930 . S
C995 C994 1.394 . S
C995 C996 1.383 . S
C995 H1003 0.929 . S
C996 C995 1.383 . S
C996 C997 1.377 . S
C997 H981 0.930 . S
C997 C996 1.377 . S
C997 C998 1.379 . S
C998 H982 0.931 . S
C998 C992 1.383 . S
C998 C997 1.379 . S
H999 C993 0.959 . S
H1000 C993 0.961 . S
H1001 C993 0.960 . S
H1002 C994 0.930 . S
H1003 C995 0.929 . S
H1004 C1012 0.929 . S
H1005 C1014 0.930 . S
H1006 C1016 0.930 . S
H1007 C1019 0.929 . S
H1008 C1022 0.930 . S
H1009 C1024 0.960 . S
H1010 C1024 0.960 . S
H1011 C1024 0.960 . S
C1012 H1004 0.929 . S
C1012 C1013 1.377 . S
C1012 C1014 1.384 . S
C1013 C1012 1.377 . S
C1013 C1019 1.390 . S
C1014 H1005 0.930 . S
C1014 C1012 1.384 . S
C1014 C1015 1.372 . S
C1015 C1014 1.372 . S
C1015 C1016 1.400 . S
C1015 C1020 1.490 . S
C1016 H1006 0.930 . S
C1016 C1015 1.400 . S
C1016 C1019 1.386 . S
H1017 C1033 0.930 . S
H1018 C1034 0.931 . S
C1019 H1007 0.929 . S
C1019 C1013 1.390 . S
C1019 C1016 1.386 . S
C1020 C1015 1.490 . S
C1020 C1022 1.395 . S
C1020 C1023 1.403 . S
H1021 C1027 0.930 . S
C1022 H1008 0.930 . S
C1022 C1020 1.395 . S
C1022 C1025 1.403 . S
C1023 C1020 1.403 . S
C1023 C1024 1.524 . S
C1023 C1027 1.400 . S
C1024 H1009 0.960 . S
C1024 H1010 0.960 . S
C1024 H1011 0.960 . S
C1024 C1023 1.524 . S
C1025 C1022 1.403 . S
C1025 C1026 1.392 . S
C1025 C1029 1.495 . S
C1026 C1025 1.392 . S
C1026 C1027 1.385 . S
C1026 C1028 1.478 . S
C1027 H1021 0.930 . S
C1027 C1023 1.400 . S
C1027 C1026 1.385 . S
C1028 C1026 1.478 . S
C1028 C1030 1.381 . S
C1028 C1034 1.383 . S
C1029 C1025 1.495 . S
C1029 H1035 0.959 . S
C1029 H1036 0.961 . S
C1029 H1037 0.960 . S
C1030 C1028 1.381 . S
C1030 C1031 1.394 . S
C1030 H1038 0.930 . S
C1031 C1030 1.394 . S
C1031 C1032 1.383 . S
C1031 H1039 0.929 . S
C1032 C1031 1.383 . S
C1032 C1033 1.377 . S
C1033 H1017 0.930 . S
C1033 C1032 1.377 . S
C1033 C1034 1.379 . S
C1034 H1018 0.931 . S
C1034 C1028 1.383 . S
C1034 C1033 1.379 . S
H1035 C1029 0.959 . S
H1036 C1029 0.961 . S
H1037 C1029 0.960 . S
H1038 C1030 0.930 . S
H1039 C1031 0.929 . S
H1040 C1048 0.929 . S
H1041 C1050 0.930 . S
H1042 C1052 0.930 . S
H1043 C1055 0.929 . S
H1044 C1058 0.930 . S
H1045 C1060 0.960 . S
H1046 C1060 0.960 . S
H1047 C1060 0.960 . S
C1048 H1040 0.929 . S
C1048 C1049 1.377 . S
C1048 C1050 1.384 . S
C1049 C1048 1.377 . S
C1049 C1055 1.390 . S
C1050 H1041 0.930 . S
C1050 C1048 1.384 . S
C1050 C1051 1.372 . S
C1051 C1050 1.372 . S
C1051 C1052 1.400 . S
C1051 C1056 1.490 . S
C1052 H1042 0.930 . S
C1052 C1051 1.400 . S
C1052 C1055 1.386 . S
H1053 C1069 0.930 . S
H1054 C1070 0.931 . S
C1055 H1043 0.929 . S
C1055 C1049 1.390 . S
C1055 C1052 1.386 . S
C1056 C1051 1.490 . S
C1056 C1058 1.395 . S
C1056 C1059 1.403 . S
H1057 C1063 0.930 . S
C1058 H1044 0.930 . S
C1058 C1056 1.395 . S
C1058 C1061 1.403 . S
C1059 C1056 1.403 . S
C1059 C1060 1.524 . S
C1059 C1063 1.400 . S
C1060 H1045 0.960 . S
C1060 H1046 0.960 . S
C1060 H1047 0.960 . S
C1060 C1059 1.524 . S
C1061 C1058 1.403 . S
C1061 C1062 1.392 . S
C1061 C1065 1.495 . S
C1062 C1061 1.392 . S
C1062 C1063 1.385 . S
C1062 C1064 1.478 . S
C1063 H1057 0.930 . S
C1063 C1059 1.400 . S
C1063 C1062 1.385 . S
C1064 C1062 1.478 . S
C1064 C1066 1.381 . S
C1064 C1070 1.383 . S
C1065 C1061 1.495 . S
C1065 H1071 0.959 . S
C1065 H1072 0.961 . S
C1065 H1073 0.960 . S
C1066 C1064 1.381 . S
C1066 C1067 1.394 . S
C1066 H1074 0.930 . S
C1067 C1066 1.394 . S
C1067 C1068 1.383 . S
C1067 H1075 0.929 . S
C1068 C1067 1.383 . S
C1068 C1069 1.377 . S
C1069 H1053 0.930 . S
C1069 C1068 1.377 . S
C1069 C1070 1.379 . S
C1070 H1054 0.931 . S
C1070 C1064 1.383 . S
C1070 C1069 1.379 . S
H1071 C1065 0.959 . S
H1072 C1065 0.961 . S
H1073 C1065 0.960 . S
H1074 C1066 0.930 . S
H1075 C1067 0.929 . S
H1076 C1084 0.929 . S
H1077 C1086 0.930 . S
H1078 C1088 0.930 . S
H1079 C1091 0.929 . S
H1080 C1094 0.930 . S
H1081 C1096 0.960 1_565 S
H1082 C1096 0.960 . S
H1083 C1096 0.960 . S
C1084 H1076 0.929 . S
C1084 C1085 1.377 . S
C1084 C1086 1.384 . S
C1085 C1084 1.377 . S
C1085 C1091 1.390 . S
C1086 H1077 0.930 . S
C1086 C1084 1.384 . S
C1086 C1087 1.372 . S
C1087 C1086 1.372 . S
C1087 C1088 1.400 . S
C1087 C1092 1.490 . S
C1088 H1078 0.930 . S
C1088 C1087 1.400 . S
C1088 C1091 1.386 . S
H1089 C1105 0.930 . S
H1090 C1106 0.931 . S
C1091 H1079 0.929 . S
C1091 C1085 1.390 . S
C1091 C1088 1.386 . S
C1092 C1087 1.490 . S
C1092 C1094 1.395 . S
C1092 C1095 1.403 . S
H1093 C1099 0.930 . S
C1094 H1080 0.930 . S
C1094 C1092 1.395 . S
C1094 C1097 1.403 . S
C1095 C1092 1.403 . S
C1095 C1096 1.524 . S
C1095 C1099 1.400 . S
C1096 H1081 0.960 1_545 S
C1096 H1082 0.960 . S
C1096 H1083 0.960 . S
C1096 C1095 1.524 . S
C1097 C1094 1.403 . S
C1097 C1098 1.392 . S
C1097 C1101 1.495 . S
C1098 C1097 1.392 . S
C1098 C1099 1.385 . S
C1098 C1100 1.478 . S
C1099 H1093 0.930 . S
C1099 C1095 1.400 . S
C1099 C1098 1.385 . S
C1100 C1098 1.478 . S
C1100 C1102 1.381 . S
C1100 C1106 1.383 . S
C1101 C1097 1.495 . S
C1101 H1107 0.959 . S
C1101 H1108 0.961 . S
C1101 H1109 0.960 . S
C1102 C1100 1.381 . S
C1102 C1103 1.398 . S
C1102 H1110 0.930 . S
C1103 C1102 1.398 . S
C1103 C1104 1.381 1_545 S
C1103 H1111 0.928 1_545 S
C1104 C1103 1.381 1_565 S
C1104 C1105 1.377 . S
C1105 H1089 0.930 . S
C1105 C1104 1.377 . S
C1105 C1106 1.379 1_565 S
C1106 H1090 0.931 . S
C1106 C1100 1.383 . S
C1106 C1105 1.379 1_545 S
H1107 C1101 0.959 . S
H1108 C1101 0.961 . S
H1109 C1101 0.960 . S
H1110 C1102 0.930 . S
H1111 C1103 0.928 1_565 S
H1112 C1120 0.929 . S
H1113 C1122 0.930 . S
H1114 C1124 0.930 . S
H1115 C1127 0.929 . S
H1116 C1130 0.930 . S
H1117 C1132 0.960 . S
H1118 C1132 0.960 . S
H1119 C1132 0.960 . S
C1120 H1112 0.929 . S
C1120 C1121 1.377 . S
C1120 C1122 1.384 . S
C1121 C1120 1.377 . S
C1121 C1127 1.390 . S
C1122 H1113 0.930 . S
C1122 C1120 1.384 . S
C1122 C1123 1.372 . S
C1123 C1122 1.372 . S
C1123 C1124 1.400 . S
C1123 C1128 1.490 . S
C1124 H1114 0.930 . S
C1124 C1123 1.400 . S
C1124 C1127 1.386 . S
H1125 C1141 0.930 . S
H1126 C1142 0.931 . S
C1127 H1115 0.929 . S
C1127 C1121 1.390 . S
C1127 C1124 1.386 . S
C1128 C1123 1.490 . S
C1128 C1130 1.395 . S
C1128 C1131 1.403 . S
H1129 C1135 0.930 . S
C1130 H1116 0.930 . S
C1130 C1128 1.395 . S
C1130 C1133 1.403 . S
C1131 C1128 1.403 . S
C1131 C1132 1.524 . S
C1131 C1135 1.400 . S
C1132 H1117 0.960 . S
C1132 H1118 0.960 . S
C1132 H1119 0.960 . S
C1132 C1131 1.524 . S
C1133 C1130 1.403 . S
C1133 C1134 1.392 . S
C1133 C1137 1.495 . S
C1134 C1133 1.392 . S
C1134 C1135 1.385 . S
C1134 C1136 1.478 . S
C1135 H1129 0.930 . S
C1135 C1131 1.400 . S
C1135 C1134 1.385 . S
C1136 C1134 1.478 . S
C1136 C1138 1.381 . S
C1136 C1142 1.383 . S
C1137 C1133 1.495 . S
C1137 H1143 0.959 . S
C1137 H1144 0.961 . S
C1137 H1145 0.960 . S
C1138 C1136 1.381 . S
C1138 C1139 1.394 . S
C1138 H1146 0.930 . S
C1139 C1138 1.394 . S
C1139 C1140 1.383 . S
C1139 H1147 0.929 . S
C1140 C1139 1.383 . S
C1140 C1141 1.377 . S
C1141 H1125 0.930 . S
C1141 C1140 1.377 . S
C1141 C1142 1.379 . S
C1142 H1126 0.931 . S
C1142 C1136 1.383 . S
C1142 C1141 1.379 . S
H1143 C1137 0.959 . S
H1144 C1137 0.961 . S
H1145 C1137 0.960 . S
H1146 C1138 0.930 . S
H1147 C1139 0.929 . S
H1148 C1156 0.929 . S
H1149 C1158 0.930 . S
H1150 C1160 0.930 . S
H1151 C1163 0.929 . S
H1152 C1166 0.930 . S
H1153 C1168 0.960 . S
H1154 C1168 0.960 . S
H1155 C1168 0.960 . S
C1156 H1148 0.929 . S
C1156 C1157 1.377 . S
C1156 C1158 1.384 . S
C1157 C1156 1.377 . S
C1157 C1163 1.390 . S
C1158 H1149 0.930 . S
C1158 C1156 1.384 . S
C1158 C1159 1.372 . S
C1159 C1158 1.372 . S
C1159 C1160 1.400 . S
C1159 C1164 1.490 . S
C1160 H1150 0.930 . S
C1160 C1159 1.400 . S
C1160 C1163 1.386 . S
H1161 C1177 0.930 . S
H1162 C1178 0.931 . S
C1163 H1151 0.929 . S
C1163 C1157 1.390 . S
C1163 C1160 1.386 . S
C1164 C1159 1.490 . S
C1164 C1166 1.395 . S
C1164 C1167 1.403 . S
H1165 C1171 0.930 . S
C1166 H1152 0.930 . S
C1166 C1164 1.395 . S
C1166 C1169 1.403 . S
C1167 C1164 1.403 . S
C1167 C1168 1.524 . S
C1167 C1171 1.400 . S
C1168 H1153 0.960 . S
C1168 H1154 0.960 . S
C1168 H1155 0.960 . S
C1168 C1167 1.524 . S
C1169 C1166 1.403 . S
C1169 C1170 1.392 . S
C1169 C1173 1.495 . S
C1170 C1169 1.392 . S
C1170 C1171 1.385 . S
C1170 C1172 1.478 . S
C1171 H1165 0.930 . S
C1171 C1167 1.400 . S
C1171 C1170 1.385 . S
C1172 C1170 1.478 . S
C1172 C1174 1.381 . S
C1172 C1178 1.383 . S
C1173 C1169 1.495 . S
C1173 H1179 0.959 . S
C1173 H1180 0.961 . S
C1173 H1181 0.960 . S
C1174 C1172 1.381 . S
C1174 C1175 1.394 . S
C1174 H1182 0.930 . S
C1175 C1174 1.394 . S
C1175 C1176 1.383 . S
C1175 H1183 0.929 . S
C1176 C1175 1.383 . S
C1176 C1177 1.377 . S
C1177 H1161 0.930 . S
C1177 C1176 1.377 . S
C1177 C1178 1.379 . S
C1178 H1162 0.931 . S
C1178 C1172 1.383 . S
C1178 C1177 1.379 . S
H1179 C1173 0.959 . S
H1180 C1173 0.961 . S
H1181 C1173 0.960 . S
H1182 C1174 0.930 . S
H1183 C1175 0.929 . S
H1184 C1192 0.929 . S
H1185 C1194 0.930 . S
H1186 C1196 0.930 . S
H1187 C1199 0.929 . S
H1188 C1202 0.930 . S
H1189 C1204 0.960 . S
H1190 C1204 0.960 . S
H1191 C1204 0.960 . S
C1192 H1184 0.929 . S
C1192 C1193 1.377 . S
C1192 C1194 1.384 . S
C1193 C1192 1.377 . S
C1193 C1199 1.390 . S
C1194 H1185 0.930 . S
C1194 C1192 1.384 . S
C1194 C1195 1.372 . S
C1195 C1194 1.372 . S
C1195 C1196 1.400 . S
C1195 C1200 1.490 . S
C1196 H1186 0.930 . S
C1196 C1195 1.400 . S
C1196 C1199 1.386 . S
H1197 C1213 0.930 . S
H1198 C1214 0.931 . S
C1199 H1187 0.929 . S
C1199 C1193 1.390 . S
C1199 C1196 1.386 . S
C1200 C1195 1.490 . S
C1200 C1202 1.395 . S
C1200 C1203 1.403 . S
H1201 C1207 0.930 . S
C1202 H1188 0.930 . S
C1202 C1200 1.395 . S
C1202 C1205 1.403 . S
C1203 C1200 1.403 . S
C1203 C1204 1.524 . S
C1203 C1207 1.400 . S
C1204 H1189 0.960 . S
C1204 H1190 0.960 . S
C1204 H1191 0.960 . S
C1204 C1203 1.524 . S
C1205 C1202 1.403 . S
C1205 C1206 1.392 . S
C1205 C1209 1.495 . S
C1206 C1205 1.392 . S
C1206 C1207 1.385 . S
C1206 C1208 1.478 . S
C1207 H1201 0.930 . S
C1207 C1203 1.400 . S
C1207 C1206 1.385 . S
C1208 C1206 1.478 . S
C1208 C1210 1.381 1_545 S
C1208 C1214 1.383 . S
C1209 C1205 1.495 . S
C1209 H1215 0.959 . S
C1209 H1216 0.961 . S
C1209 H1217 0.960 1_545 S
C1210 C1208 1.381 1_565 S
C1210 C1211 1.394 . S
C1210 H1218 0.930 . S
C1211 C1210 1.394 . S
C1211 C1212 1.383 . S
C1211 H1219 0.929 . S
C1212 C1211 1.383 . S
C1212 C1213 1.377 1_565 S
C1213 H1197 0.930 . S
C1213 C1212 1.377 1_545 S
C1213 C1214 1.379 . S
C1214 H1198 0.931 . S
C1214 C1208 1.383 . S
C1214 C1213 1.379 . S
H1215 C1209 0.959 . S
H1216 C1209 0.961 . S
H1217 C1209 0.960 1_565 S
H1218 C1210 0.930 . S
H1219 C1211 0.929 . S
H1220 C1228 0.929 . S
H1221 C1230 0.930 . S
H1222 C1232 0.930 . S
H1223 C1235 0.929 . S
H1224 C1238 0.930 . S
H1225 C1240 0.960 . S
H1226 C1240 0.960 . S
H1227 C1240 0.960 . S
C1228 H1220 0.929 . S
C1228 C1229 1.377 . S
C1228 C1230 1.384 . S
C1229 C1228 1.377 . S
C1229 C1235 1.390 . S
C1230 H1221 0.930 . S
C1230 C1228 1.384 . S
C1230 C1231 1.372 . S
C1231 C1230 1.372 . S
C1231 C1232 1.400 . S
C1231 C1236 1.490 . S
C1232 H1222 0.930 . S
C1232 C1231 1.400 . S
C1232 C1235 1.386 . S
H1233 C1249 0.930 . S
H1234 C1250 0.931 . S
C1235 H1223 0.929 . S
C1235 C1229 1.390 . S
C1235 C1232 1.386 . S
C1236 C1231 1.490 . S
C1236 C1238 1.395 . S
C1236 C1239 1.403 . S
H1237 C1243 0.930 . S
C1238 H1224 0.930 . S
C1238 C1236 1.395 . S
C1238 C1241 1.403 . S
C1239 C1236 1.403 . S
C1239 C1240 1.524 . S
C1239 C1243 1.400 . S
C1240 H1225 0.960 . S
C1240 H1226 0.960 . S
C1240 H1227 0.960 . S
C1240 C1239 1.524 . S
C1241 C1238 1.403 . S
C1241 C1242 1.392 . S
C1241 C1245 1.495 . S
C1242 C1241 1.392 . S
C1242 C1243 1.385 . S
C1242 C1244 1.478 . S
C1243 H1237 0.930 . S
C1243 C1239 1.400 . S
C1243 C1242 1.385 . S
C1244 C1242 1.478 . S
C1244 C1246 1.381 . S
C1244 C1250 1.383 . S
C1245 C1241 1.495 . S
C1245 H1251 0.959 . S
C1245 H1252 0.961 . S
C1245 H1253 0.960 . S
C1246 C1244 1.381 . S
C1246 C1247 1.394 . S
C1246 H1254 0.930 . S
C1247 C1246 1.394 . S
C1247 C1248 1.383 . S
C1247 H1255 0.929 . S
C1248 C1247 1.383 . S
C1248 C1249 1.377 . S
C1249 H1233 0.930 . S
C1249 C1248 1.377 . S
C1249 C1250 1.379 . S
C1250 H1234 0.931 . S
C1250 C1244 1.383 . S
C1250 C1249 1.379 . S
H1251 C1245 0.959 . S
H1252 C1245 0.961 . S
H1253 C1245 0.960 . S
H1254 C1246 0.930 . S
H1255 C1247 0.929 . S
H1256 C1264 0.929 . S
H1257 C1266 0.930 . S
H1258 C1268 0.930 . S
H1259 C1271 0.929 . S
H1260 C1274 0.930 . S
H1261 C1276 0.960 . S
H1262 C1276 0.960 . S
H1263 C1276 0.960 . S
C1264 H1256 0.929 . S
C1264 C1265 1.377 . S
C1264 C1266 1.384 . S
C1265 C1264 1.377 . S
C1265 C1271 1.390 . S
C1266 H1257 0.930 . S
C1266 C1264 1.384 . S
C1266 C1267 1.372 . S
C1267 C1266 1.372 . S
C1267 C1268 1.400 . S
C1267 C1272 1.490 . S
C1268 H1258 0.930 . S
C1268 C1267 1.400 . S
C1268 C1271 1.386 . S
H1269 C1285 0.930 . S
H1270 C1286 0.931 . S
C1271 H1259 0.929 . S
C1271 C1265 1.390 . S
C1271 C1268 1.386 . S
C1272 C1267 1.490 . S
C1272 C1274 1.395 . S
C1272 C1275 1.403 . S
H1273 C1279 0.930 . S
C1274 H1260 0.930 . S
C1274 C1272 1.395 . S
C1274 C1277 1.403 . S
C1275 C1272 1.403 . S
C1275 C1276 1.524 . S
C1275 C1279 1.400 . S
C1276 H1261 0.960 . S
C1276 H1262 0.960 . S
C1276 H1263 0.960 . S
C1276 C1275 1.524 . S
C1277 C1274 1.403 . S
C1277 C1278 1.392 . S
C1277 C1281 1.495 . S
C1278 C1277 1.392 . S
C1278 C1279 1.385 . S
C1278 C1280 1.478 . S
C1279 H1273 0.930 . S
C1279 C1275 1.400 . S
C1279 C1278 1.385 . S
C1280 C1278 1.478 . S
C1280 C1282 1.381 . S
C1280 C1286 1.383 . S
C1281 C1277 1.495 . S
C1281 H1287 0.959 . S
C1281 H1288 0.961 . S
C1281 H1289 0.960 . S
C1282 C1280 1.381 . S
C1282 C1283 1.394 . S
C1282 H1290 0.930 . S
C1283 C1282 1.394 . S
C1283 C1284 1.383 . S
C1283 H1291 0.929 . S
C1284 C1283 1.383 . S
C1284 C1285 1.377 . S
C1285 H1269 0.930 . S
C1285 C1284 1.377 . S
C1285 C1286 1.379 . S
C1286 H1270 0.931 . S
C1286 C1280 1.383 . S
C1286 C1285 1.379 . S
H1287 C1281 0.959 . S
H1288 C1281 0.961 . S
H1289 C1281 0.960 . S
H1290 C1282 0.930 . S
H1291 C1283 0.929 . S
H1292 C1300 0.929 . S
H1293 C1302 0.930 . S
H1294 C1304 0.930 . S
H1295 C1307 0.929 . S
H1296 C1310 0.930 . S
H1297 C1312 0.960 . S
H1298 C1312 0.960 . S
H1299 C1312 0.960 . S
C1300 H1292 0.929 . S
C1300 C1301 1.377 . S
C1300 C1302 1.384 . S
C1301 C1300 1.377 . S
C1301 C1307 1.390 . S
C1302 H1293 0.930 . S
C1302 C1300 1.384 . S
C1302 C1303 1.372 . S
C1303 C1302 1.372 . S
C1303 C1304 1.400 . S
C1303 C1308 1.490 . S
C1304 H1294 0.930 . S
C1304 C1303 1.400 . S
C1304 C1307 1.386 . S
H1305 C1321 0.930 . S
H1306 C1322 0.931 . S
C1307 H1295 0.929 . S
C1307 C1301 1.390 . S
C1307 C1304 1.386 . S
C1308 C1303 1.490 . S
C1308 C1310 1.395 . S
C1308 C1311 1.403 . S
H1309 C1315 0.930 . S
C1310 H1296 0.930 . S
C1310 C1308 1.395 . S
C1310 C1313 1.403 . S
C1311 C1308 1.403 . S
C1311 C1312 1.524 . S
C1311 C1315 1.400 . S
C1312 H1297 0.960 . S
C1312 H1298 0.960 . S
C1312 H1299 0.960 . S
C1312 C1311 1.524 . S
C1313 C1310 1.403 . S
C1313 C1314 1.392 . S
C1313 C1317 1.495 . S
C1314 C1313 1.392 . S
C1314 C1315 1.385 . S
C1314 C1316 1.478 . S
C1315 H1309 0.930 . S
C1315 C1311 1.400 . S
C1315 C1314 1.385 . S
C1316 C1314 1.478 . S
C1316 C1318 1.381 . S
C1316 C1322 1.383 . S
C1317 C1313 1.495 . S
C1317 H1323 0.959 . S
C1317 H1324 0.961 . S
C1317 H1325 0.960 . S
C1318 C1316 1.381 . S
C1318 C1319 1.394 . S
C1318 H1326 0.930 . S
C1319 C1318 1.394 . S
C1319 C1320 1.383 . S
C1319 H1327 0.929 . S
C1320 C1319 1.383 . S
C1320 C1321 1.377 . S
C1321 H1305 0.930 . S
C1321 C1320 1.377 . S
C1321 C1322 1.379 . S
C1322 H1306 0.931 . S
C1322 C1316 1.383 . S
C1322 C1321 1.379 . S
H1323 C1317 0.959 . S
H1324 C1317 0.961 . S
H1325 C1317 0.960 . S
H1326 C1318 0.930 . S
H1327 C1319 0.929 . S
H1328 C1336 0.929 . S
H1329 C1338 0.930 . S
H1330 C1340 0.930 . S
H1331 C1343 0.929 . S
H1332 C1346 0.930 . S
H1333 C1348 0.960 . S
H1334 C1348 0.960 . S
H1335 C1348 0.960 . S
C1336 H1328 0.929 . S
C1336 C1337 1.377 . S
C1336 C1338 1.384 . S
C1337 C1336 1.377 . S
C1337 C1343 1.390 . S
C1338 H1329 0.930 . S
C1338 C1336 1.384 . S
C1338 C1339 1.372 . S
C1339 C1338 1.372 . S
C1339 C1340 1.400 . S
C1339 C1344 1.490 . S
C1340 H1330 0.930 . S
C1340 C1339 1.400 . S
C1340 C1343 1.386 . S
H1341 C1357 0.930 . S
H1342 C1358 0.931 . S
C1343 H1331 0.929 . S
C1343 C1337 1.390 . S
C1343 C1340 1.386 . S
C1344 C1339 1.490 . S
C1344 C1346 1.395 . S
C1344 C1347 1.403 . S
H1345 C1351 0.930 . S
C1346 H1332 0.930 . S
C1346 C1344 1.395 . S
C1346 C1349 1.403 . S
C1347 C1344 1.403 . S
C1347 C1348 1.524 . S
C1347 C1351 1.400 . S
C1348 H1333 0.960 . S
C1348 H1334 0.960 . S
C1348 H1335 0.960 . S
C1348 C1347 1.524 . S
C1349 C1346 1.403 . S
C1349 C1350 1.392 . S
C1349 C1353 1.495 . S
C1350 C1349 1.392 . S
C1350 C1351 1.385 . S
C1350 C1352 1.478 . S
C1351 H1345 0.930 . S
C1351 C1347 1.400 . S
C1351 C1350 1.385 . S
C1352 C1350 1.478 . S
C1352 C1354 1.381 . S
C1352 C1358 1.383 . S
C1353 C1349 1.495 . S
C1353 H1359 0.959 . S
C1353 H1360 0.961 . S
C1353 H1361 0.960 . S
C1354 C1352 1.381 . S
C1354 C1355 1.394 . S
C1354 H1362 0.930 . S
C1355 C1354 1.394 . S
C1355 C1356 1.383 . S
C1355 H1363 0.929 . S
C1356 C1355 1.383 . S
C1356 C1357 1.377 . S
C1357 H1341 0.930 . S
C1357 C1356 1.377 . S
C1357 C1358 1.379 . S
C1358 H1342 0.931 . S
C1358 C1352 1.383 . S
C1358 C1357 1.379 . S
H1359 C1353 0.959 . S
H1360 C1353 0.961 . S
H1361 C1353 0.960 . S
H1362 C1354 0.930 . S
H1363 C1355 0.929 . S
H1364 C1372 0.929 . S
H1365 C1374 0.930 . S
H1366 C1376 0.930 . S
H1367 C1379 0.929 . S
H1368 C1382 0.930 . S
H1369 C1384 0.960 1_655 S
H1370 C1384 0.960 . S
H1371 C1384 0.960 . S
C1372 H1364 0.929 . S
C1372 C1373 1.377 . S
C1372 C1374 1.384 . S
C1373 C1372 1.377 . S
C1373 C1379 1.390 . S
C1374 H1365 0.930 . S
C1374 C1372 1.384 . S
C1374 C1375 1.372 . S
C1375 C1374 1.372 . S
C1375 C1376 1.400 . S
C1375 C1380 1.490 . S
C1376 H1366 0.930 . S
C1376 C1375 1.400 . S
C1376 C1379 1.386 . S
H1377 C1393 0.930 . S
H1378 C1394 0.931 . S
C1379 H1367 0.929 . S
C1379 C1373 1.390 . S
C1379 C1376 1.386 . S
C1380 C1375 1.490 . S
C1380 C1382 1.395 . S
C1380 C1383 1.403 . S
H1381 C1387 0.917 1_655 S
C1382 H1368 0.930 . S
C1382 C1380 1.395 . S
C1382 C1385 1.403 . S
C1383 C1380 1.403 . S
C1383 C1384 1.524 . S
C1383 C1387 1.400 . S
C1384 H1369 0.960 1_455 S
C1384 H1370 0.960 . S
C1384 H1371 0.960 . S
C1384 C1383 1.524 . S
C1385 C1382 1.403 . S
C1385 C1386 1.392 . S
C1385 C1389 1.495 . S
C1386 C1385 1.392 . S
C1386 C1387 1.385 . S
C1386 C1388 1.478 . S
C1387 H1381 0.917 1_455 S
C1387 C1383 1.400 . S
C1387 C1386 1.385 . S
C1388 C1386 1.478 . S
C1388 C1390 1.381 . S
C1388 C1394 1.383 . S
C1389 C1385 1.495 . S
C1389 H1395 0.959 . S
C1389 H1396 0.961 . S
C1389 H1397 0.960 . S
C1390 C1388 1.381 . S
C1390 C1391 1.394 1_455 S
C1390 H1398 0.930 . S
C1391 C1390 1.394 1_655 S
C1391 C1392 1.383 . S
C1391 H1399 0.929 . S
C1392 C1391 1.383 . S
C1392 C1393 1.377 . S
C1393 H1377 0.930 . S
C1393 C1392 1.377 . S
C1393 C1394 1.379 1_655 S
C1394 H1378 0.931 . S
C1394 C1388 1.383 . S
C1394 C1393 1.379 1_455 S
H1395 C1389 0.959 . S
H1396 C1389 0.961 . S
H1397 C1389 0.960 . S
H1398 C1390 0.930 . S
H1399 C1391 0.929 . S
H1400 C1408 0.929 . S
H1401 C1410 0.930 . S
H1402 C1412 0.930 . S
H1403 C1415 0.929 . S
H1404 C1418 0.930 . S
H1405 C1420 0.960 . S
H1406 C1420 0.960 . S
H1407 C1420 0.960 . S
C1408 H1400 0.929 . S
C1408 C1409 1.377 . S
C1408 C1410 1.384 . S
C1409 C1408 1.377 . S
C1409 C1415 1.390 . S
C1410 H1401 0.930 . S
C1410 C1408 1.384 . S
C1410 C1411 1.372 . S
C1411 C1410 1.372 . S
C1411 C1412 1.400 . S
C1411 C1416 1.490 . S
C1412 H1402 0.930 . S
C1412 C1411 1.400 . S
C1412 C1415 1.386 . S
H1413 C1429 0.930 . S
H1414 C1430 0.931 . S
C1415 H1403 0.929 . S
C1415 C1409 1.390 . S
C1415 C1412 1.386 . S
C1416 C1411 1.490 . S
C1416 C1418 1.395 . S
C1416 C1419 1.403 . S
H1417 C1423 0.930 . S
C1418 H1404 0.930 . S
C1418 C1416 1.395 . S
C1418 C1421 1.403 . S
C1419 C1416 1.403 . S
C1419 C1420 1.524 . S
C1419 C1423 1.400 . S
C1420 H1405 0.960 . S
C1420 H1406 0.960 . S
C1420 H1407 0.960 . S
C1420 C1419 1.524 . S
C1421 C1418 1.403 . S
C1421 C1422 1.392 . S
C1421 C1425 1.495 . S
C1422 C1421 1.392 . S
C1422 C1423 1.385 . S
C1422 C1424 1.478 . S
C1423 H1417 0.930 . S
C1423 C1419 1.400 . S
C1423 C1422 1.385 . S
C1424 C1422 1.478 . S
C1424 C1426 1.381 . S
C1424 C1430 1.383 . S
C1425 C1421 1.495 . S
C1425 H1431 0.959 . S
C1425 H1432 0.961 . S
C1425 H1433 0.960 . S
C1426 C1424 1.381 . S
C1426 C1427 1.394 . S
C1426 H1434 0.930 . S
C1427 C1426 1.394 . S
C1427 C1428 1.383 . S
C1427 H1435 0.929 . S
C1428 C1427 1.383 . S
C1428 C1429 1.377 . S
C1429 H1413 0.930 . S
C1429 C1428 1.377 . S
C1429 C1430 1.379 . S
C1430 H1414 0.931 . S
C1430 C1424 1.383 . S
C1430 C1429 1.379 . S
H1431 C1425 0.959 . S
H1432 C1425 0.961 . S
H1433 C1425 0.960 . S
H1434 C1426 0.930 . S
H1435 C1427 0.929 . S
H1436 C1444 0.929 . S
H1437 C1446 0.930 . S
H1438 C1448 0.930 . S
H1439 C1451 0.929 . S
H1440 C1454 0.930 . S
H1441 C1456 0.960 . S
H1442 C1456 0.960 . S
H1443 C1456 0.960 . S
C1444 H1436 0.929 . S
C1444 C1445 1.377 . S
C1444 C1446 1.384 . S
C1445 C1444 1.377 . S
C1445 C1451 1.390 . S
C1446 H1437 0.930 . S
C1446 C1444 1.384 . S
C1446 C1447 1.372 . S
C1447 C1446 1.372 . S
C1447 C1448 1.400 . S
C1447 C1452 1.490 . S
C1448 H1438 0.930 . S
C1448 C1447 1.400 . S
C1448 C1451 1.386 . S
H1449 C1465 0.930 . S
H1450 C1466 0.931 . S
C1451 H1439 0.929 . S
C1451 C1445 1.390 . S
C1451 C1448 1.386 . S
C1452 C1447 1.490 . S
C1452 C1454 1.395 . S
C1452 C1455 1.403 . S
H1453 C1459 0.930 . S
C1454 H1440 0.930 . S
C1454 C1452 1.395 . S
C1454 C1457 1.403 . S
C1455 C1452 1.403 . S
C1455 C1456 1.524 . S
C1455 C1459 1.400 . S
C1456 H1441 0.960 . S
C1456 H1442 0.960 . S
C1456 H1443 0.960 . S
C1456 C1455 1.524 . S
C1457 C1454 1.403 . S
C1457 C1458 1.392 . S
C1457 C1461 1.495 . S
C1458 C1457 1.392 . S
C1458 C1459 1.385 . S
C1458 C1460 1.478 . S
C1459 H1453 0.930 . S
C1459 C1455 1.400 . S
C1459 C1458 1.385 . S
C1460 C1458 1.478 . S
C1460 C1462 1.381 . S
C1460 C1466 1.383 . S
C1461 C1457 1.495 . S
C1461 H1467 0.959 . S
C1461 H1468 0.961 . S
C1461 H1469 0.960 . S
C1462 C1460 1.381 . S
C1462 C1463 1.394 . S
C1462 H1470 0.930 . S
C1463 C1462 1.394 . S
C1463 C1464 1.383 . S
C1463 H1471 0.929 . S
C1464 C1463 1.383 . S
C1464 C1465 1.377 . S
C1465 H1449 0.930 . S
C1465 C1464 1.377 . S
C1465 C1466 1.379 . S
C1466 H1450 0.931 . S
C1466 C1460 1.383 . S
C1466 C1465 1.379 . S
H1467 C1461 0.959 . S
H1468 C1461 0.961 . S
H1469 C1461 0.960 . S
H1470 C1462 0.930 . S
H1471 C1463 0.929 . S
H1472 C1480 0.929 . S
H1473 C1482 0.930 . S
H1474 C1484 0.930 . S
H1475 C1487 0.929 . S
H1476 C1490 0.930 . S
H1477 C1492 0.960 . S
H1478 C1492 0.960 . S
H1479 C1492 0.960 . S
C1480 H1472 0.929 . S
C1480 C1481 1.377 . S
C1480 C1482 1.384 . S
C1481 C1480 1.377 . S
C1481 C1487 1.390 . S
C1482 H1473 0.930 . S
C1482 C1480 1.384 . S
C1482 C1483 1.372 . S
C1483 C1482 1.372 . S
C1483 C1484 1.400 . S
C1483 C1488 1.490 . S
C1484 H1474 0.930 . S
C1484 C1483 1.400 . S
C1484 C1487 1.386 . S
H1485 C1501 0.930 . S
H1486 C1502 0.931 . S
C1487 H1475 0.929 . S
C1487 C1481 1.390 . S
C1487 C1484 1.386 . S
C1488 C1483 1.490 . S
C1488 C1490 1.395 . S
C1488 C1491 1.403 . S
H1489 C1495 0.930 . S
C1490 H1476 0.930 . S
C1490 C1488 1.395 . S
C1490 C1493 1.403 . S
C1491 C1488 1.403 . S
C1491 C1492 1.524 . S
C1491 C1495 1.400 . S
C1492 H1477 0.960 . S
C1492 H1478 0.960 . S
C1492 H1479 0.960 . S
C1492 C1491 1.524 . S
C1493 C1490 1.403 . S
C1493 C1494 1.392 . S
C1493 C1497 1.495 . S
C1494 C1493 1.392 . S
C1494 C1495 1.385 . S
C1494 C1496 1.478 . S
C1495 H1489 0.930 . S
C1495 C1491 1.400 . S
C1495 C1494 1.385 . S
C1496 C1494 1.478 . S
C1496 C1498 1.381 . S
C1496 C1502 1.383 . S
C1497 C1493 1.495 . S
C1497 H1503 0.959 . S
C1497 H1504 0.961 . S
C1497 H1505 0.960 . S
C1498 C1496 1.381 . S
C1498 C1499 1.394 1_455 S
C1498 H1506 0.930 . S
C1499 C1498 1.394 1_655 S
C1499 C1500 1.383 . S
C1499 H1507 0.929 . S
C1500 C1499 1.383 . S
C1500 C1501 1.377 1_655 S
C1501 H1485 0.930 . S
C1501 C1500 1.377 1_455 S
C1501 C1502 1.379 . S
C1502 H1486 0.931 . S
C1502 C1496 1.383 . S
C1502 C1501 1.379 . S
H1503 C1497 0.959 . S
H1504 C1497 0.961 . S
H1505 C1497 0.960 . S
H1506 C1498 0.930 . S
H1507 C1499 0.929 . S
H1508 C1516 0.929 . S
H1509 C1518 0.930 . S
H1510 C1520 0.930 . S
H1511 C1523 0.929 . S
H1512 C1526 0.930 . S
H1513 C1528 0.960 . S
H1514 C1528 0.960 . S
H1515 C1528 0.960 . S
C1516 H1508 0.929 . S
C1516 C1517 1.377 . S
C1516 C1518 1.384 . S
C1517 C1516 1.377 . S
C1517 C1523 1.390 . S
C1518 H1509 0.930 . S
C1518 C1516 1.384 . S
C1518 C1519 1.372 . S
C1519 C1518 1.372 . S
C1519 C1520 1.400 . S
C1519 C1524 1.490 . S
C1520 H1510 0.930 . S
C1520 C1519 1.400 . S
C1520 C1523 1.386 . S
H1521 C1537 0.930 . S
H1522 C1538 0.931 . S
C1523 H1511 0.929 . S
C1523 C1517 1.390 . S
C1523 C1520 1.386 . S
C1524 C1519 1.490 . S
C1524 C1526 1.395 . S
C1524 C1527 1.403 . S
H1525 C1531 0.930 . S
C1526 H1512 0.930 . S
C1526 C1524 1.395 . S
C1526 C1529 1.403 . S
C1527 C1524 1.403 . S
C1527 C1528 1.524 . S
C1527 C1531 1.400 . S
C1528 H1513 0.960 . S
C1528 H1514 0.960 . S
C1528 H1515 0.960 . S
C1528 C1527 1.524 . S
C1529 C1526 1.403 . S
C1529 C1530 1.392 . S
C1529 C1533 1.495 . S
C1530 C1529 1.392 . S
C1530 C1531 1.385 . S
C1530 C1532 1.478 . S
C1531 H1525 0.930 . S
C1531 C1527 1.400 . S
C1531 C1530 1.385 . S
C1532 C1530 1.478 . S
C1532 C1534 1.381 . S
C1532 C1538 1.383 . S
C1533 C1529 1.495 . S
C1533 H1539 0.959 . S
C1533 H1540 0.961 . S
C1533 H1541 0.960 . S
C1534 C1532 1.381 . S
C1534 C1535 1.394 . S
C1534 H1542 0.930 . S
C1535 C1534 1.394 . S
C1535 C1536 1.383 . S
C1535 H1543 0.929 . S
C1536 C1535 1.383 . S
C1536 C1537 1.377 . S
C1537 H1521 0.930 . S
C1537 C1536 1.377 . S
C1537 C1538 1.379 . S
C1538 H1522 0.931 . S
C1538 C1532 1.383 . S
C1538 C1537 1.379 . S
H1539 C1533 0.959 . S
H1540 C1533 0.961 . S
H1541 C1533 0.960 . S
H1542 C1534 0.930 . S
H1543 C1535 0.929 . S
C420 C143 1.151 . S
C401 C5 1.140 . S
C456 C180 1.115 . S
C437 C18 1.144 . S
C492 C216 1.156 . S
C473 C31 1.148 . S
C509 C42 1.101 . S
C528 C107 1.156 . S
C545 C57 1.420 . S
C564 C108 1.408 . S
C581 C70 1.414 . S
C600 C144 1.389 . S
C636 C179 1.407 . S
C617 C81 1.425 . S
C672 C215 1.419 . S
C653 C96 1.398 . S
C689 C29 1.420 . S
C708 C287 1.427 . S
C744 C324 1.400 . S
C725 C44 1.406 . S
C761 C3 1.448 . S
C780 C360 1.392 . S
C816 C251 1.415 . S
C797 C16 1.431 . S
C833 C83 1.150 . S
C852 C252 1.139 . S
C869 C94 1.106 . S
C888 C288 1.096 . S
C924 C323 1.123 . S
C905 C55 1.094 . S
C941 C68 1.114 . S
C960 C359 1.146 . S
C996 C178 1.254 . S
C977 C1 1.274 . S
C1032 C214 1.243 . S
C1013 C14 1.252 . S
C1049 C27 1.216 . S
C1068 C118 1.170 . S
C1085 C49 1.230 . S
C1104 C154 1.152 . S
C1121 C53 1.565 . S
C1140 C226 1.520 . S
C1176 C106 1.673 . S
C1157 C66 1.604 . S
C1212 C142 1.671 . S
C1193 C88 1.676 . S
C1248 C190 1.521 . S
C1229 C92 1.585 . S
C1284 C322 1.636 1_556 S
C1265 C36 1.677 . S
C1320 C358 1.663 . S
C1301 C40 1.604 . S
C1337 C10 1.618 . S
C1356 C262 1.530 . S
C1392 C298 1.479 . S
C1373 C23 1.640 . S
C1428 C370 1.143 . S
C1409 C79 1.219 . S
C1445 C101 1.244 . S
C1464 C250 1.229 . S
C1500 C286 1.272 . S
C1481 C62 1.260 . S
C1536 C334 1.099 . S
C1517 C75 1.234 . S
