# Generated by pormake.
# Topology soc, (4,6)-cn, num edge types: 1
# Building blocks:
#     Node 0, Type 0, BuildingBlock: ESEHIV_clean_sbu_0, # of connection points: 4
#     Node 1, Type 0, BuildingBlock: ESEHIV_clean_sbu_0, # of connection points: 4
#     Node 2, Type 0, BuildingBlock: ESEHIV_clean_sbu_0, # of connection points: 4
#     Node 3, Type 0, BuildingBlock: ESEHIV_clean_sbu_0, # of connection points: 4
#     Node 4, Type 0, BuildingBlock: ESEHIV_clean_sbu_0, # of connection points: 4
#     Node 5, Type 0, BuildingBlock: ESEHIV_clean_sbu_0, # of connection points: 4
#     Node 6, Type 0, BuildingBlock: ESEHIV_clean_sbu_0, # of connection points: 4
#     Node 7, Type 0, BuildingBlock: ESEHIV_clean_sbu_0, # of connection points: 4
#     Node 8, Type 0, BuildingBlock: ESEHIV_clean_sbu_0, # of connection points: 4
#     Node 9, Type 0, BuildingBlock: ESEHIV_clean_sbu_0, # of connection points: 4
#     Node 10, Type 0, BuildingBlock: ESEHIV_clean_sbu_0, # of connection points: 4
#     Node 11, Type 0, BuildingBlock: ESEHIV_clean_sbu_0, # of connection points: 4
#     Node 12, Type 1, BuildingBlock: INOVEN_clean_sbu_0, # of connection points: 6
#     Node 13, Type 1, BuildingBlock: INOVEN_clean_sbu_0, # of connection points: 6
#     Node 14, Type 1, BuildingBlock: INOVEN_clean_sbu_0, # of connection points: 6
#     Node 15, Type 1, BuildingBlock: INOVEN_clean_sbu_0, # of connection points: 6
#     Node 16, Type 1, BuildingBlock: INOVEN_clean_sbu_0, # of connection points: 6
#     Node 17, Type 1, BuildingBlock: INOVEN_clean_sbu_0, # of connection points: 6
#     Node 18, Type 1, BuildingBlock: INOVEN_clean_sbu_0, # of connection points: 6
#     Node 19, Type 1, BuildingBlock: INOVEN_clean_sbu_0, # of connection points: 6
#     Edge 20, Type (0, 1), BuildingBlock: KIFKEQ_clean_linker_1, # of connection points: 2
#     Edge 21, Type (0, 1), BuildingBlock: KIFKEQ_clean_linker_1, # of connection points: 2
#     Edge 22, Type (0, 1), BuildingBlock: KIFKEQ_clean_linker_1, # of connection points: 2
#     Edge 23, Type (0, 1), BuildingBlock: KIFKEQ_clean_linker_1, # of connection points: 2
#     Edge 24, Type (0, 1), BuildingBlock: KIFKEQ_clean_linker_1, # of connection points: 2
#     Edge 25, Type (0, 1), BuildingBlock: KIFKEQ_clean_linker_1, # of connection points: 2
#     Edge 26, Type (0, 1), BuildingBlock: KIFKEQ_clean_linker_1, # of connection points: 2
#     Edge 27, Type (0, 1), BuildingBlock: KIFKEQ_clean_linker_1, # of connection points: 2
#     Edge 28, Type (0, 1), BuildingBlock: KIFKEQ_clean_linker_1, # of connection points: 2
#     Edge 29, Type (0, 1), BuildingBlock: KIFKEQ_clean_linker_1, # of connection points: 2
#     Edge 30, Type (0, 1), BuildingBlock: KIFKEQ_clean_linker_1, # of connection points: 2
#     Edge 31, Type (0, 1), BuildingBlock: KIFKEQ_clean_linker_1, # of connection points: 2
#     Edge 32, Type (0, 1), BuildingBlock: KIFKEQ_clean_linker_1, # of connection points: 2
#     Edge 33, Type (0, 1), BuildingBlock: KIFKEQ_clean_linker_1, # of connection points: 2
#     Edge 34, Type (0, 1), BuildingBlock: KIFKEQ_clean_linker_1, # of connection points: 2
#     Edge 35, Type (0, 1), BuildingBlock: KIFKEQ_clean_linker_1, # of connection points: 2
#     Edge 36, Type (0, 1), BuildingBlock: KIFKEQ_clean_linker_1, # of connection points: 2
#     Edge 37, Type (0, 1), BuildingBlock: KIFKEQ_clean_linker_1, # of connection points: 2
#     Edge 38, Type (0, 1), BuildingBlock: KIFKEQ_clean_linker_1, # of connection points: 2
#     Edge 39, Type (0, 1), BuildingBlock: KIFKEQ_clean_linker_1, # of connection points: 2
#     Edge 40, Type (0, 1), BuildingBlock: KIFKEQ_clean_linker_1, # of connection points: 2
#     Edge 41, Type (0, 1), BuildingBlock: KIFKEQ_clean_linker_1, # of connection points: 2
#     Edge 42, Type (0, 1), BuildingBlock: KIFKEQ_clean_linker_1, # of connection points: 2
#     Edge 43, Type (0, 1), BuildingBlock: KIFKEQ_clean_linker_1, # of connection points: 2
#     Edge 44, Type (0, 1), BuildingBlock: KIFKEQ_clean_linker_1, # of connection points: 2
#     Edge 45, Type (0, 1), BuildingBlock: KIFKEQ_clean_linker_1, # of connection points: 2
#     Edge 46, Type (0, 1), BuildingBlock: KIFKEQ_clean_linker_1, # of connection points: 2
#     Edge 47, Type (0, 1), BuildingBlock: KIFKEQ_clean_linker_1, # of connection points: 2
#     Edge 48, Type (0, 1), BuildingBlock: KIFKEQ_clean_linker_1, # of connection points: 2
#     Edge 49, Type (0, 1), BuildingBlock: KIFKEQ_clean_linker_1, # of connection points: 2
#     Edge 50, Type (0, 1), BuildingBlock: KIFKEQ_clean_linker_1, # of connection points: 2
#     Edge 51, Type (0, 1), BuildingBlock: KIFKEQ_clean_linker_1, # of connection points: 2
#     Edge 52, Type (0, 1), BuildingBlock: KIFKEQ_clean_linker_1, # of connection points: 2
#     Edge 53, Type (0, 1), BuildingBlock: KIFKEQ_clean_linker_1, # of connection points: 2
#     Edge 54, Type (0, 1), BuildingBlock: KIFKEQ_clean_linker_1, # of connection points: 2
#     Edge 55, Type (0, 1), BuildingBlock: KIFKEQ_clean_linker_1, # of connection points: 2
#     Edge 56, Type (0, 1), BuildingBlock: KIFKEQ_clean_linker_1, # of connection points: 2
#     Edge 57, Type (0, 1), BuildingBlock: KIFKEQ_clean_linker_1, # of connection points: 2
#     Edge 58, Type (0, 1), BuildingBlock: KIFKEQ_clean_linker_1, # of connection points: 2
#     Edge 59, Type (0, 1), BuildingBlock: KIFKEQ_clean_linker_1, # of connection points: 2
#     Edge 60, Type (0, 1), BuildingBlock: KIFKEQ_clean_linker_1, # of connection points: 2
#     Edge 61, Type (0, 1), BuildingBlock: KIFKEQ_clean_linker_1, # of connection points: 2
#     Edge 62, Type (0, 1), BuildingBlock: KIFKEQ_clean_linker_1, # of connection points: 2
#     Edge 63, Type (0, 1), BuildingBlock: KIFKEQ_clean_linker_1, # of connection points: 2
#     Edge 64, Type (0, 1), BuildingBlock: KIFKEQ_clean_linker_1, # of connection points: 2
#     Edge 65, Type (0, 1), BuildingBlock: KIFKEQ_clean_linker_1, # of connection points: 2
#     Edge 66, Type (0, 1), BuildingBlock: KIFKEQ_clean_linker_1, # of connection points: 2
#     Edge 67, Type (0, 1), BuildingBlock: KIFKEQ_clean_linker_1, # of connection points: 2
# Relax obj value: 0.171
# Max RMSD: 0.282
# Mean RMSD: 0.173
data_MOF--net-soc--node1-ESEHIV_clean_sbu_0--node2-INOVEN_clean_sbu_0--edge1-KIFKEQ_clean_linker_1
_symmetry_space_group_name_H-M    P1
_symmetry_Int_Tables_number       1
_symmetry_cell_setting            triclinic
loop_
_symmetry_equiv_pos_as_xyz
'x, y, z'
_cell_length_a     51.96884
_cell_length_b     50.911362
_cell_length_c     43.853324
_cell_angle_alpha  81.807788
_cell_angle_beta   82.758275
_cell_angle_gamma 69.536134
loop_
_atom_site_label
_atom_site_type_symbol
_atom_site_fract_x
_atom_site_fract_y
_atom_site_fract_z
_atom_type_partial_charge
Cu0 Cu 0.05131 0.03827 0.38937 0.0
N1 N 0.06819 0.05174 0.41538 0.0
N2 N 0.0947 0.0742 0.42784 0.0
C3 C 0.08726 0.06382 0.40506 0.0
C4 C 0.07953 0.0684 0.45359 0.0
C5 C 0.06307 0.05459 0.44577 0.0
O6 O 0.08121 0.01545 0.3621 0.0
C7 C 1.00578 0.07646 0.35239 0.0
O8 O 1.00866 0.05664 0.33479 0.0
H9 H 0.09452 0.06602 0.38092 0.0
H10 H 0.04789 0.04795 0.46093 0.0
N11 N 0.0344 0.01366 0.41072 0.0
N12 N 1.01309 0.98194 0.41503 0.0
C13 C 1.0183 1.00376 0.39739 0.0
C14 C 0.0395 0.99779 0.43801 0.0
C15 C 0.02623 0.97825 0.44082 0.0
C16 C 0.09953 0.99586 0.37707 0.0
O17 O 0.09698 0.99367 0.40739 0.0
H18 H 1.01169 0.01171 0.37448 0.0
H19 H 0.05337 0.99898 0.45376 0.0
O20 O 1.02244 0.07211 0.37303 0.0
H21 H 0.07991 0.07409 0.47633 0.0
H22 H 0.02764 0.96157 0.4595 0.0
Cu23 Cu 0.05066 0.04612 0.74589 0.0
N24 N 0.03509 0.02884 0.72188 0.0
N25 N 1.0078 1.00674 0.71018 0.0
C26 C 1.01383 0.01963 0.73181 0.0
C27 C 1.02603 0.00795 0.68566 0.0
C28 C 0.04279 0.0216 0.69292 0.0
O29 O 1.0203 0.07339 0.76777 0.0
C30 C 0.09685 1.00072 0.75295 0.0
O31 O 0.09626 1.00637 0.72283 0.0
H32 H 1.00359 0.0216 0.75487 0.0
H33 H 0.0598 0.02531 0.67831 0.0
N34 N 0.07045 0.06733 0.7226 0.0
N35 N 0.09682 0.09453 0.71511 0.0
C36 C 0.0852 0.07888 0.73587 0.0
C37 C 0.07247 0.07602 0.69223 0.0
C38 C 0.08883 0.0928 0.68752 0.0
C39 C 1.00463 0.09121 0.74866 0.0
O40 O 1.01064 0.0884 0.71903 0.0
H41 H 0.08651 0.07643 0.76059 0.0
H42 H 0.0623 0.07116 0.67486 0.0
O43 O 0.07752 0.01631 0.77014 0.0
H44 H 0.02731 0.99944 0.66405 0.0
H45 H 0.09424 0.10296 0.6655 0.0
Cu46 Cu 0.29892 0.0692 0.09808 0.0
N47 N 0.27029 0.06229 0.08274 0.0
N48 N 0.2488 0.0366 0.06592 0.0
C49 C 0.27006 0.03627 0.08097 0.0
C50 C 0.23498 0.06421 0.05812 0.0
C51 C 0.24826 0.07998 0.06852 0.0
O52 O 0.31871 0.0328 0.12099 0.0
C53 C 0.30457 0.10965 0.05104 0.0
O54 O 0.28078 0.12283 0.06542 0.0
H55 H 0.28587 0.01748 0.08982 0.0
H56 H 0.24267 0.10264 0.06495 0.0
N57 N 0.28473 0.09646 0.12589 0.0
N58 N 0.28238 0.12755 0.15811 0.0
C59 C 0.29913 0.1065 0.14189 0.0
C60 C 0.25804 0.11145 0.1325 0.0
C61 C 0.25653 0.13077 0.15223 0.0
C62 C 0.30542 0.0264 0.14586 0.0
O63 O 0.28187 0.04502 0.1548 0.0
H64 H 0.32142 0.09916 0.14085 0.0
H65 H 0.2409 0.10886 0.12317 0.0
O66 O 0.31834 0.08473 0.06223 0.0
H67 H 0.21728 0.07257 0.04462 0.0
H68 H 0.23791 0.14606 0.1615 0.0
Cu69 Cu 0.08305 0.30435 0.11327 0.0
N70 N 0.0929 0.32913 0.08308 0.0
N71 N 0.11635 0.33917 0.03948 0.0
C72 C 0.11584 0.32024 0.06415 0.0
C73 C 0.09282 0.36122 0.04342 0.0
C74 C 0.07822 0.35483 0.07035 0.0
O75 O 0.11557 0.28899 0.13746 0.0
C76 C 0.05689 0.26682 0.09333 0.0
O77 O 0.05185 0.25726 0.12207 0.0
H78 H 0.13107 0.29944 0.06775 0.0
H79 H 0.05764 0.36709 0.07881 0.0
N80 N 0.05248 0.32377 0.13803 0.0
N81 N 1.01135 0.33414 0.16466 0.0
C82 C 0.0277 0.32043 0.14148 0.0
C83 C 0.05159 0.34078 0.15925 0.0
C84 C 0.02616 0.34724 0.17578 0.0
C85 C 0.11573 0.28283 0.16674 0.0
O86 O 0.0936 0.28006 0.18288 0.0
H87 H 1.02187 0.30774 0.1278 0.0
H88 H 0.06874 0.34678 0.16347 0.0
O89 O 0.07228 0.28201 0.08734 0.0
H90 H 0.08574 0.37972 0.02703 0.0
H91 H 1.01972 0.3592 0.19557 0.0
Cu92 Cu 0.80582 1.0024 1.01738 0.0
N93 N 0.82579 0.01915 0.98796 0.0
N94 N 0.83138 0.05515 0.95582 0.0
C95 C 0.81412 0.04601 0.97645 0.0
C96 C 0.85513 0.033 0.95436 0.0
C97 C 0.85158 0.01064 0.97425 0.0
O98 O 0.78872 0.03105 0.04568 0.0
C99 C 0.79841 0.97142 0.97741 0.0
O100 O 0.82526 0.96375 0.97807 0.0
H101 H 0.79343 0.05879 0.98395 0.0
H102 H 0.86667 0.98987 0.97835 0.0
N103 N 0.8264 0.9712 0.04196 0.0
N104 N 0.83264 0.94159 0.08512 0.0
C105 C 0.81424 0.96097 0.06729 0.0
C106 C 0.85364 0.95765 0.0433 0.0
C107 C 0.85756 0.93915 0.06999 0.0
C108 C 0.80746 0.03515 0.05866 0.0
O109 O 0.83337 0.02064 0.05131 0.0
H110 H 0.79217 0.96852 0.07284 0.0
H111 H 0.86951 0.96192 0.0271 0.0
O112 O 0.7831 0.98973 0.99496 0.0
H113 H 0.87366 0.03288 0.93994 0.0
H114 H 0.87723 0.92602 0.07827 0.0
Cu115 Cu 0.03237 0.76364 1.0182 0.0
N116 N 1.01681 0.74719 0.99359 0.0
N117 N 0.98821 0.74369 0.96136 0.0
C118 C 0.99524 0.76113 0.97669 0.0
C119 C 1.00634 0.71772 0.96908 0.0
C120 C 1.02392 0.71998 0.98889 0.0
O121 O 1.001 0.78457 0.04608 0.0
C122 C 0.07151 0.79423 0.99391 0.0
O123 O 0.06758 0.80505 1.02028 0.0
H124 H 0.98509 0.78369 0.97582 0.0
H125 H 0.04055 0.70298 0.99933 0.0
N126 N 0.05567 0.73608 0.04429 0.0
N127 N 0.08724 0.7233 0.07856 0.0
C128 C 0.07986 0.73709 0.05082 0.0
C129 C 0.04775 0.72037 0.06844 0.0
C130 C 0.06709 0.71273 0.08984 0.0
C131 C 1.00307 0.78863 0.07368 0.0
O132 O 0.02736 0.78596 0.08187 0.0
H133 H 0.08976 0.75115 0.03796 0.0
H134 H 0.02757 0.71822 0.07225 0.0
O135 O 0.05659 0.78013 0.98909 0.0
H136 H 1.00672 0.69826 0.96156 0.0
H137 H 0.06475 0.70342 0.11335 0.0
Cu138 Cu 0.547 0.52951 0.88777 0.0
N139 N 0.56056 0.54898 0.91058 0.0
N140 N 0.58531 0.57422 0.92061 0.0
C141 C 0.57959 0.56087 0.89931 0.0
C142 C 0.56907 0.57064 0.94631 0.0
C143 C 0.55377 0.55501 0.94002 0.0
O144 O 0.57799 0.50606 0.86289 0.0
C145 C 0.49536 0.56843 0.88253 0.0
O146 O 0.49482 0.56018 0.91232 0.0
H147 H 0.58849 0.56024 0.87563 0.0
H148 H 0.53861 0.54874 0.95564 0.0
N149 N 0.53265 0.50469 0.91311 0.0
N150 N 0.51154 0.47278 0.92438 0.0
C151 C 0.51592 0.49323 0.90345 0.0
C152 C 0.53902 0.49139 0.94133 0.0
C153 C 0.52592 0.47168 0.94841 0.0
C154 C 0.59768 0.48985 0.87857 0.0
O155 O 0.59597 0.49104 0.90847 0.0
H156 H 0.50786 0.49941 0.88097 0.0
H157 H 0.55323 0.49477 0.95509 0.0
O158 O 0.51723 0.55728 0.8655 0.0
H159 H 0.56827 0.57869 0.96808 0.0
H160 H 0.52806 0.45676 0.96893 0.0
Cu161 Cu 0.55597 0.55008 0.24807 0.0
N162 N 0.5401 0.53267 0.22494 0.0
N163 N 0.51314 0.50936 0.21571 0.0
C164 C 0.5204 0.52181 0.23676 0.0
C165 C 0.52902 0.51253 0.18955 0.0
C166 C 0.54565 0.52694 0.19532 0.0
O167 O 0.5255 0.57849 0.26871 0.0
C168 C 0.60072 0.5034 0.2554 0.0
O169 O 0.59986 0.50898 0.2253 0.0
H170 H 0.51223 0.52234 0.2607 0.0
H171 H 0.56111 0.53219 0.17926 0.0
N172 N 0.57645 0.56997 0.2239 0.0
N173 N 0.60439 0.59537 0.21549 0.0
C174 C 0.59339 0.57935 0.23637 0.0
C175 C 0.5765 0.58042 0.19392 0.0
C176 C 0.59381 0.59618 0.18864 0.0
C177 C 0.51039 0.59587 0.24877 0.0
O178 O 0.51702 0.5919 0.21947 0.0
H179 H 0.59656 0.5754 0.26076 0.0
H180 H 0.56414 0.57772 0.17736 0.0
O181 O 0.58227 0.51986 0.27269 0.0
H182 H 0.52879 0.50489 0.16783 0.0
H183 H 0.598 0.60756 0.1669 0.0
Cu184 Cu 0.78386 0.5805 0.59801 0.0
N185 N 0.78631 0.59879 0.55824 0.0
N186 N 0.79493 0.62281 0.51386 0.0
C187 C 0.80535 0.6078 0.54027 0.0
C188 C 0.76893 0.62278 0.51518 0.0
C189 C 0.7637 0.60822 0.54242 0.0
O190 O 0.77554 0.60806 0.6278 0.0
C191 C 0.76656 0.54454 0.57459 0.0
O192 O 0.79074 0.54196 0.55971 0.0
H193 H 0.82573 0.60454 0.54681 0.0
H194 H 0.7443 0.60526 0.55066 0.0
N195 N 0.81412 0.55018 0.61083 0.0
N196 N 0.83215 0.50837 0.63804 0.0
C197 C 0.80941 0.53089 0.63284 0.0
C198 C 0.84105 0.53984 0.60141 0.0
C199 C 0.8523 0.51386 0.61828 0.0
C200 C 0.79431 0.61888 0.62772 0.0
O201 O 0.81624 0.61084 0.60822 0.0
H202 H 0.78897 0.53288 0.64345 0.0
H203 H 0.85145 0.54986 0.583 0.0
O204 O 0.75722 0.56189 0.59503 0.0
H205 H 0.7545 0.63307 0.49782 0.0
H206 H 0.87345 0.49995 0.61565 0.0
Cu207 Cu 0.57456 0.81295 0.60741 0.0
N208 N 0.60049 0.80859 0.57182 0.0
N209 N 0.63163 0.80106 0.53045 0.0
C210 C 0.62022 0.78882 0.55572 0.0
C211 C 0.61893 0.82893 0.53082 0.0
C212 C 0.60016 0.83339 0.55596 0.0
O213 O 0.58955 0.82772 0.63718 0.0
C214 C 0.53558 0.82513 0.56955 0.0
O215 O 0.55207 0.79956 0.56472 0.0
H216 H 0.62604 0.76632 0.56219 0.0
H217 H 0.58681 0.85374 0.56253 0.0
N218 N 0.56111 0.78495 0.62994 0.0
N219 N 0.52826 0.77311 0.66192 0.0
C220 C 0.53373 0.79071 0.63794 0.0
C221 C 0.57344 0.76284 0.6501 0.0
C222 C 0.5533 0.75546 0.6697 0.0
C223 C 0.61456 0.81335 0.64198 0.0
O224 O 0.62716 0.79093 0.62732 0.0
H225 H 0.51805 0.80948 0.6288 0.0
H226 H 0.59539 0.75434 0.65236 0.0
O227 O 0.54139 0.83804 0.58916 0.0
H228 H 0.62317 0.84499 0.51403 0.0
H229 H 0.55687 0.73937 0.6892 0.0
Cu230 Cu 0.30186 0.50469 0.53157 0.0
N231 N 0.32098 0.52048 0.49894 0.0
N232 N 0.32707 0.55541 0.46447 0.0
C233 C 0.31418 0.54865 0.49152 0.0
C234 C 0.34263 0.53039 0.45426 0.0
C235 C 0.33881 0.50888 0.47556 0.0
O236 O 0.28773 0.53452 0.55848 0.0
C237 C 0.28398 0.46803 0.50588 0.0
O238 O 0.30808 0.4507 0.51391 0.0
H239 H 0.29865 0.56399 0.5048 0.0
H240 H 0.34735 0.48652 0.47338 0.0
N241 N 0.3221 0.47342 0.55755 0.0
N242 N 0.32854 0.44006 0.59818 0.0
C243 C 0.31011 0.46169 0.58219 0.0
C244 C 0.34921 0.45888 0.5577 0.0
C245 C 0.35324 0.43834 0.58267 0.0
C246 C 0.30814 0.53935 0.56691 0.0
O247 O 0.33327 0.52333 0.55849 0.0
H248 H 0.2881 0.46907 0.58794 0.0
H249 H 0.3649 0.46309 0.54108 0.0
O250 O 0.27586 0.49353 0.51224 0.0
H251 H 0.3553 0.5278 0.4326 0.0
H252 H 0.37302 0.42356 0.58888 0.0
Cu253 Cu 0.5222 0.27575 0.52412 0.0
N254 N 0.55304 0.25567 0.49992 0.0
N255 N 0.59387 0.24642 0.47263 0.0
C256 C 0.57421 0.26485 0.48965 0.0
C257 C 0.58465 0.2248 0.47214 0.0
C258 C 0.55948 0.23055 0.48898 0.0
O259 O 0.53614 0.29761 0.54777 0.0
C260 C 0.48539 0.27803 0.48281 0.0
O261 O 0.49816 0.25088 0.48881 0.0
H262 H 0.57523 0.28454 0.49501 0.0
H263 H 0.54687 0.21726 0.49266 0.0
N264 N 0.50965 0.25165 0.55338 0.0
N265 N 0.48637 0.23844 0.59555 0.0
C266 C 0.48975 0.2603 0.57612 0.0
C267 C 0.51927 0.22334 0.55844 0.0
C268 C 0.50489 0.21514 0.58435 0.0
C269 C 0.55338 0.28197 0.56694 0.0
O270 O 0.55922 0.25455 0.56903 0.0
H271 H 0.47838 0.28231 0.57847 0.0
H272 H 0.53627 0.2096 0.54517 0.0
O273 O 0.49213 0.29495 0.49659 0.0
H274 H 0.59509 0.20632 0.4601 0.0
H275 H 0.50869 0.19369 0.59478 0.0
Gd276 Gd 0.2782 0.28813 0.35239 0.0
Gd277 Gd 0.30765 0.31697 0.2996 0.0
C278 C 0.31133 0.25414 0.29336 0.0
C279 C 0.25149 0.25992 0.38793 0.0
C280 C 0.2386 0.23841 0.38734 0.0
C281 C 0.2486 0.21246 0.4054 0.0
C282 C 0.21527 0.24404 0.3711 0.0
C283 C 0.21106 0.19885 0.3929 0.0
C284 C 0.20163 0.22441 0.37386 0.0
C285 C 0.23504 0.19285 0.40808 0.0
C286 C 0.32259 0.29768 0.36879 0.0
C287 C 0.2682 0.35302 0.35309 0.0
C288 C 0.34125 0.33847 0.26598 0.0
C289 C 0.35628 0.35827 0.26549 0.0
C290 C 0.34905 0.38287 0.24478 0.0
C291 C 0.37855 0.35249 0.28347 0.0
C292 C 0.38711 0.39487 0.25834 0.0
C293 C 0.39385 0.37071 0.27993 0.0
C294 C 0.36419 0.40104 0.24134 0.0
C295 C 0.25972 0.31666 0.2797 0.0
O296 O 0.29397 0.25552 0.31839 0.0
O297 O 0.32184 0.27422 0.28307 0.0
O298 O 0.2785 0.25153 0.38434 0.0
O299 O 0.23952 0.2852 0.37406 0.0
O300 O 0.30066 0.2986 0.38673 0.0
O301 O 0.32101 0.28975 0.34313 0.0
O302 O 0.29023 0.34951 0.33329 0.0
O303 O 0.25614 0.33367 0.35951 0.0
O304 O 0.31441 0.34983 0.26654 0.0
O305 O 0.34961 0.31397 0.28271 0.0
O306 O 0.27677 0.32764 0.26368 0.0
O307 O 0.26871 0.30754 0.30594 0.0
H308 H 0.26656 0.20763 0.41812 0.0
H309 H 0.20703 0.26388 0.357 0.0
H310 H 0.18311 0.22975 0.36202 0.0
H311 H 0.24312 0.17312 0.42245 0.0
H312 H 0.33197 0.38778 0.23064 0.0
H313 H 0.38457 0.33364 0.29964 0.0
H314 H 0.41152 0.36535 0.29324 0.0
H315 H 0.35815 0.41974 0.22497 0.0
Gd316 Gd 0.8032 0.31189 0.34153 0.0
Gd317 Gd 0.79757 0.27356 0.29321 0.0
C318 C 0.76459 0.27271 0.35974 0.0
C319 C 0.79325 0.35513 0.37124 0.0
C320 C 0.78604 0.36667 0.40149 0.0
C321 C 0.80603 0.37236 0.41563 0.0
C322 C 0.75848 0.37611 0.41397 0.0
C323 C 0.77068 0.39889 0.4524 0.0
C324 C 0.7509 0.39202 0.43916 0.0
C325 C 0.79846 0.38821 0.44088 0.0
C326 C 0.84094 0.25856 0.34923 0.0
C327 C 0.84121 0.30712 0.27812 0.0
C328 C 0.80191 0.24006 0.25318 0.0
C329 C 0.80441 0.22079 0.2302 0.0
C330 C 0.78755 0.22953 0.20549 0.0
C331 C 0.82263 0.19298 0.23381 0.0
C332 C 0.80545 0.18207 0.1898 0.0
C333 C 0.8233 0.17385 0.21367 0.0
C334 C 0.788 0.21029 0.18549 0.0
C335 C 0.75694 0.32366 0.29776 0.0
O336 O 0.77058 0.29478 0.36524 0.0
O337 O 0.77577 0.25841 0.3356 0.0
O338 O 0.81822 0.33752 0.3654 0.0
O339 O 0.77419 0.34932 0.35935 0.0
O340 O 0.83853 0.27832 0.36633 0.0
O341 O 0.8225 0.2685 0.33074 0.0
O342 O 0.83441 0.28551 0.27297 0.0
O343 O 0.82895 0.32301 0.30062 0.0
O344 O 0.79358 0.26751 0.24633 0.0
O345 O 0.80806 0.23087 0.28178 0.0
O346 O 0.75322 0.30093 0.29237 0.0
O347 O 0.78235 0.31928 0.29862 0.0
H348 H 0.82735 0.36576 0.40625 0.0
H349 H 0.74249 0.3723 0.4035 0.0
H350 H 0.72939 0.39962 0.44771 0.0
H351 H 0.81419 0.39338 0.45025 0.0
H352 H 0.77327 0.25092 0.20235 0.0
H353 H 0.83607 0.1859 0.25252 0.0
H354 H 0.83746 0.15244 0.21716 0.0
H355 H 0.77385 0.21726 0.16749 0.0
Gd356 Gd 0.80875 0.76403 0.2864 0.0
Gd357 Gd 0.82842 0.80108 0.32109 0.0
C358 C 0.7727 0.78883 0.34884 0.0
C359 C 0.79363 0.72722 0.26537 0.0
C360 C 0.76968 0.71778 0.26668 0.0
C361 C 0.75096 0.72899 0.24376 0.0
C362 C 0.76673 0.69578 0.28851 0.0
C363 C 0.7281 0.69503 0.26291 0.0
C364 C 0.74606 0.68453 0.28667 0.0
C365 C 0.73035 0.71781 0.24197 0.0
C366 C 0.79371 0.81863 0.26336 0.0
C367 C 0.86475 0.77566 0.25857 0.0
C368 C 0.84096 0.84025 0.34079 0.0
C369 C 0.8646 0.84872 0.34465 0.0
C370 C 0.8748 0.84365 0.37388 0.0
C371 C 0.87525 0.86436 0.32061 0.0
C372 C 0.9045 0.87129 0.3557 0.0
C373 C 0.89511 0.87547 0.32607 0.0
C374 C 0.89457 0.85475 0.37933 0.0
C375 C 0.84476 0.74656 0.34402 0.0
O376 O 0.77784 0.77039 0.32847 0.0
O377 O 0.78691 0.80617 0.3472 0.0
O378 O 0.79072 0.75234 0.25132 0.0
O379 O 0.80764 0.72134 0.28971 0.0
O380 O 0.79882 0.79794 0.24705 0.0
O381 O 0.79464 0.80977 0.29181 0.0
O382 O 0.86107 0.79239 0.28053 0.0
O383 O 0.84932 0.75973 0.25858 0.0
O384 O 0.83889 0.81795 0.35827 0.0
O385 O 0.83376 0.842 0.31286 0.0
O386 O 0.84102 0.76717 0.36006 0.0
O387 O 0.84273 0.7554 0.31565 0.0
H388 H 0.75285 0.74574 0.22636 0.0
H389 H 0.78089 0.68664 0.30637 0.0
H390 H 0.74456 0.66714 0.30334 0.0
H391 H 0.7171 0.7261 0.22316 0.0
H392 H 0.86672 0.832 0.39298 0.0
H393 H 0.86768 0.86875 0.29786 0.0
H394 H 0.90264 0.88786 0.30729 0.0
H395 H 0.90104 0.85149 0.40251 0.0
Gd396 Gd 0.28485 0.79677 0.29515 0.0
Gd397 Gd 0.32877 0.79851 0.3334 0.0
C398 C 0.31646 0.84286 0.27435 0.0
C399 C 0.24112 0.8101 0.26589 0.0
C400 C 0.22843 0.80174 0.24282 0.0
C401 C 0.24158 0.77689 0.2286 0.0
C402 C 0.20238 0.8196 0.23476 0.0
C403 C 0.2014 0.787 0.20003 0.0
C404 C 0.18894 0.81232 0.21355 0.0
C405 C 0.2281 0.76958 0.20714 0.0
C406 C 0.33429 0.75788 0.28238 0.0
C407 C 0.30215 0.74878 0.35067 0.0
C408 C 0.37048 0.78622 0.36562 0.0
C409 C 0.38323 0.7963 0.3872 0.0
C410 C 0.36771 0.81729 0.40623 0.0
C411 C 0.41143 0.78295 0.39024 0.0
C412 C 0.4089 0.81145 0.43114 0.0
C413 C 0.42418 0.79039 0.41204 0.0
C414 C 0.3805 0.82476 0.42819 0.0
C415 C 0.27859 0.83769 0.34492 0.0
O416 O 0.2939 0.83644 0.27427 0.0
O417 O 0.3356 0.82867 0.29338 0.0
O418 O 0.24415 0.79484 0.29267 0.0
O419 O 0.26204 0.81836 0.2558 0.0
O420 O 0.3111 0.75552 0.27763 0.0
O421 O 0.33039 0.78235 0.28902 0.0
O422 O 0.32409 0.7563 0.34978 0.0
O423 O 0.28126 0.76379 0.33414 0.0
O424 O 0.37044 0.79748 0.33687 0.0
O425 O 0.34769 0.7814 0.37608 0.0
O426 O 0.30166 0.84086 0.34849 0.0
O427 O 0.28307 0.81279 0.33942 0.0
H428 H 0.26189 0.76304 0.23446 0.0
H429 H 0.19221 0.83904 0.2453 0.0
H430 H 0.16852 0.82624 0.20815 0.0
H431 H 0.23802 0.74989 0.19706 0.0
H432 H 0.3458 0.82763 0.40426 0.0
H433 H 0.42354 0.76641 0.376 0.0
H434 H 0.44597 0.77943 0.4142 0.0
H435 H 0.36831 0.84114 0.44256 0.0
Gd436 Gd 0.30525 0.80102 0.84261 0.0
Gd437 Gd 0.28976 0.77222 0.80065 0.0
C438 C 0.25374 0.77847 0.86456 0.0
C439 C 0.31018 0.8304 0.88326 0.0
C440 C 0.29347 0.84643 0.9081 0.0
C441 C 0.3064 0.84707 0.93392 0.0
C442 C 0.26524 0.86138 0.90632 0.0
C443 C 0.26368 0.87974 0.95497 0.0
C444 C 0.25043 0.87812 0.92961 0.0
C445 C 0.29165 0.86356 0.95721 0.0
C446 C 0.34093 0.74807 0.8387 0.0
C447 C 0.34162 0.7944 0.77907 0.0
C448 C 0.28369 0.74288 0.76073 0.0
C449 C 0.29734 0.72511 0.73593 0.0
C450 C 0.28635 0.73282 0.70712 0.0
C451 C 0.31813 0.69894 0.74157 0.0
C452 C 0.31325 0.6866 0.69163 0.0
C453 C 0.32606 0.67978 0.71948 0.0
C454 C 0.29427 0.71376 0.68509 0.0
C455 C 0.25325 0.82465 0.8051 0.0
O456 O 0.26566 0.79682 0.8679 0.0
O457 O 0.26248 0.76253 0.84159 0.0
O458 O 0.31562 0.80316 0.88812 0.0
O459 O 0.30424 0.84095 0.85496 0.0
O460 O 0.34787 0.76971 0.84056 0.0
O461 O 0.31498 0.7548 0.84022 0.0
O462 O 0.32968 0.77604 0.77573 0.0
O463 O 0.33269 0.81055 0.80184 0.0
O464 O 0.28018 0.76975 0.75487 0.0
O465 O 0.28941 0.73257 0.78915 0.0
O466 O 0.24713 0.80262 0.80291 0.0
O467 O 0.2792 0.81867 0.80342 0.0
H468 H 0.32815 0.83543 0.93563 0.0
H469 H 0.25488 0.86068 0.88665 0.0
H470 H 0.22888 0.89033 0.92743 0.0
H471 H 0.30255 0.86475 0.97617 0.0
H472 H 0.27023 0.75291 0.7024 0.0
H473 H 0.3271 0.69264 0.76359 0.0
H474 H 0.34106 0.6591 0.72484 0.0
H475 H 0.28384 0.71957 0.664 0.0
Gd476 Gd 0.29776 0.25582 0.81173 0.0
Gd477 Gd 0.32289 0.29626 0.83873 0.0
C478 C 0.26078 0.29808 0.86189 0.0
C479 C 0.27936 0.21613 0.80504 0.0
C480 C 0.25598 0.21083 0.79465 0.0
C481 C 0.24608 0.22199 0.76551 0.0
C482 C 0.24451 0.19262 0.81382 0.0
C483 C 0.21443 0.19543 0.7744 0.0
C484 C 0.22396 0.18498 0.80385 0.0
C485 C 0.22547 0.21429 0.75544 0.0
C486 C 0.29352 0.30469 0.77587 0.0
C487 C 0.35844 0.25491 0.78838 0.0
C488 C 0.33699 0.33813 0.84762 0.0
C489 C 0.35942 0.34441 0.85889 0.0
C490 C 0.36658 0.33632 0.88956 0.0
C491 C 0.37298 0.36021 0.83874 0.0
C492 C 0.39994 0.36072 0.87982 0.0
C493 C 0.39312 0.36821 0.84905 0.0
C494 C 0.38664 0.34456 0.89999 0.0
C495 C 0.33652 0.24382 0.8717 0.0
O496 O 0.2637 0.27651 0.84651 0.0
O497 O 0.2793 0.3108 0.85946 0.0
O498 O 0.29558 0.22493 0.784 0.0
O499 O 0.27477 0.22815 0.83055 0.0
O500 O 0.29142 0.28282 0.76588 0.0
O501 O 0.29274 0.30125 0.80509 0.0
O502 O 0.35321 0.27914 0.79961 0.0
O503 O 0.34281 0.23892 0.79629 0.0
O504 O 0.32151 0.32754 0.86797 0.0
O505 O 0.34263 0.32696 0.82144 0.0
O506 O 0.34426 0.26398 0.87792 0.0
O507 O 0.32373 0.25293 0.84787 0.0
H508 H 0.25457 0.2362 0.75032 0.0
H509 H 0.252 0.18368 0.8363 0.0
H510 H 0.21626 0.17006 0.81883 0.0
H511 H 0.21835 0.22288 0.73277 0.0
H512 H 0.35643 0.32407 0.90559 0.0
H513 H 0.36759 0.36687 0.81509 0.0
H514 H 0.40273 0.38107 0.83318 0.0
H515 H 0.39165 0.33849 0.92379 0.0
Gd516 Gd 0.78236 0.29446 0.79798 0.0
Gd517 Gd 0.82924 0.29743 0.83366 0.0
C518 C 0.81746 0.33536 0.76975 0.0
C519 C 0.73706 0.30287 0.77283 0.0
C520 C 0.72075 0.30655 0.74612 0.0
C521 C 0.72893 0.28771 0.72331 0.0
C522 C 0.69442 0.32713 0.7461 0.0
C523 C 0.68379 0.3089 0.70246 0.0
C524 C 0.67617 0.32828 0.72464 0.0
C525 C 0.71068 0.289 0.70157 0.0
C526 C 0.83197 0.25543 0.78572 0.0
C527 C 0.79807 0.25282 0.85907 0.0
C528 C 0.87351 0.28925 0.86083 0.0
C529 C 0.88688 0.28787 0.88939 0.0
C530 C 0.89574 0.31014 0.8936 0.0
C531 C 0.89475 0.26307 0.90996 0.0
C532 C 0.92176 0.28215 0.93666 0.0
C533 C 0.91187 0.26031 0.93345 0.0
C534 C 0.91292 0.30733 0.91688 0.0
C535 C 0.77846 0.33495 0.84722 0.0
O536 O 0.79366 0.33092 0.77148 0.0
O537 O 0.83711 0.32008 0.78777 0.0
O538 O 0.75471 0.27795 0.78048 0.0
O539 O 0.74453 0.32354 0.77876 0.0
O540 O 0.80869 0.25266 0.78253 0.0
O541 O 0.8282 0.2804 0.79058 0.0
O542 O 0.82078 0.25914 0.85765 0.0
O543 O 0.77733 0.26782 0.84229 0.0
O544 O 0.85818 0.31393 0.84877 0.0
O545 O 0.86467 0.26888 0.85708 0.0
O546 O 0.80127 0.3392 0.84925 0.0
O547 O 0.78361 0.30995 0.84179 0.0
H548 H 0.74901 0.27137 0.72294 0.0
H549 H 0.68749 0.34168 0.76362 0.0
H550 H 0.65581 0.34409 0.72582 0.0
H551 H 0.71718 0.27362 0.68497 0.0
H552 H 0.89035 0.32941 0.87801 0.0
H553 H 0.88863 0.24533 0.90718 0.0
H554 H 0.91839 0.24058 0.94817 0.0
H555 H 0.9198 0.32473 0.91897 0.0
Gd556 Gd 0.76767 0.78828 0.83638 0.0
Gd557 Gd 0.80731 0.80981 0.78677 0.0
C558 C 0.7951 0.75496 0.77542 0.0
C559 C 0.73766 0.7631 0.87079 0.0
C560 C 0.72565 0.74082 0.87133 0.0
C561 C 0.73493 0.71659 0.89224 0.0
C562 C 0.70438 0.74371 0.85294 0.0
C563 C 0.70056 0.69929 0.87824 0.0
C564 C 0.69191 0.72305 0.85639 0.0
C565 C 0.72263 0.69598 0.89555 0.0
C566 C 0.81709 0.78337 0.85378 0.0
C567 C 0.76785 0.85007 0.83887 0.0
C568 C 0.85052 0.82234 0.76434 0.0
C569 C 0.86034 0.84681 0.75898 0.0
C570 C 0.85361 0.867 0.73315 0.0
C571 C 0.87833 0.84896 0.77911 0.0
C572 C 0.88353 0.89036 0.74729 0.0
C573 C 0.88972 0.87044 0.7734 0.0
C574 C 0.86509 0.88857 0.72739 0.0
C575 C 0.75562 0.82772 0.76743 0.0
O576 O 0.77499 0.76098 0.79781 0.0
O577 O 0.81336 0.76822 0.76962 0.0
O578 O 0.76459 0.75439 0.87014 0.0
O579 O 0.72706 0.78725 0.85393 0.0
O580 O 0.79428 0.79094 0.87112 0.0
O581 O 0.81296 0.77828 0.82774 0.0
O582 O 0.78998 0.84419 0.81878 0.0
O583 O 0.75309 0.83318 0.84657 0.0
O584 O 0.83194 0.82175 0.74703 0.0
O585 O 0.84657 0.81281 0.79326 0.0
O586 O 0.77609 0.83399 0.75188 0.0
O587 O 0.76397 0.81373 0.79241 0.0
H588 H 0.75138 0.71387 0.90661 0.0
H589 H 0.69693 0.76216 0.83653 0.0
H590 H 0.67483 0.72621 0.84283 0.0
H591 H 0.73009 0.67765 0.91212 0.0
H592 H 0.83989 0.86591 0.7171 0.0
H593 H 0.8842 0.83355 0.79901 0.0
H594 H 0.90421 0.87078 0.78894 0.0
H595 H 0.85967 0.90372 0.70722 0.0
H596 H 0.0956 0.11237 0.4648 0.0
H597 H 0.13596 0.07238 0.38275 0.0
H598 H 0.12488 0.14149 0.45664 0.0
H599 H 0.16489 0.10177 0.37445 0.0
H600 H 0.18632 0.18317 0.3504 0.0
H601 H 0.15891 0.15201 0.35981 0.0
H602 H 0.17318 0.13838 0.45665 0.0
H603 H 0.19972 0.17024 0.44749 0.0
C604 C 0.11089 0.1095 0.44526 0.0
C605 C 0.11319 0.09015 0.42431 0.0
C606 C 0.12765 0.12625 0.44055 0.0
C607 C 0.14702 0.12407 0.41475 0.0
C608 C 0.14978 0.1043 0.39421 0.0
C609 C 0.13315 0.08748 0.39899 0.0
C610 C 0.18349 0.17361 0.3737 0.0
C611 C 0.19525 0.17912 0.39817 0.0
C612 C 0.16804 0.15556 0.37904 0.0
C613 C 0.16395 0.14272 0.40897 0.0
C614 C 0.17579 0.14814 0.43339 0.0
C615 C 0.19127 0.16613 0.42806 0.0
H616 H 0.97206 0.10048 0.30488 0.0
H617 H 0.9839 0.11215 0.39699 0.0
H618 H 0.93224 0.14394 0.30325 0.0
H619 H 0.94341 0.15409 0.39646 0.0
H620 H 0.88675 0.24298 0.37988 0.0
H621 H 0.92617 0.20008 0.37904 0.0
H622 H 0.88685 0.1684 0.31846 0.0
H623 H 0.84792 0.21272 0.31799 0.0
C624 C 0.96608 0.11225 0.32484 0.0
C625 C 0.9815 0.10299 0.35084 0.0
C626 C 0.94299 0.13712 0.32409 0.0
C627 C 0.93435 0.15312 0.3496 0.0
C628 C 0.94958 0.14325 0.37584 0.0
C629 C 0.9729 0.11887 0.37628 0.0
C630 C 0.88647 0.22684 0.3664 0.0
C631 C 0.8641 0.23126 0.34912 0.0
C632 C 0.90913 0.2019 0.3661 0.0
C633 C 0.90999 0.18011 0.34902 0.0
C634 C 0.8874 0.18457 0.33168 0.0
C635 C 0.86483 0.20993 0.33156 0.0
H636 H 0.99088 0.94698 0.45315 0.0
H637 H 1.00372 0.9767 0.3569 0.0
H638 H 0.96645 0.91825 0.43811 0.0
H639 H 0.97888 0.94875 0.34234 0.0
H640 H 0.90184 0.92535 0.336 0.0
H641 H 0.92953 0.95078 0.35047 0.0
H642 H 0.97532 0.87651 0.40708 0.0
H643 H 0.94792 0.85067 0.39211 0.0
C644 C 0.98868 0.94735 0.42888 0.0
C645 C 0.99902 0.96455 0.40637 0.0
C646 C 0.97471 0.93088 0.4203 0.0
C647 C 0.97065 0.93152 0.3891 0.0
C648 C 0.98134 0.94827 0.36661 0.0
C649 C 0.99546 0.96447 0.37509 0.0
C650 C 0.91819 0.91421 0.35099 0.0
C651 C 0.9228 0.88594 0.36276 0.0
C652 C 0.93393 0.92884 0.35941 0.0
C653 C 0.9545 0.91558 0.37991 0.0
C654 C 0.95935 0.88727 0.39152 0.0
C655 C 0.94371 0.87253 0.38291 0.0
H656 H 0.15033 0.99983 0.3649 0.0
H657 H 0.10422 0.94511 0.35995 0.0
H658 H 0.19328 0.96156 0.35467 0.0
H659 H 0.14711 0.90605 0.35122 0.0
H660 H 0.23073 0.84283 0.32044 0.0
H661 H 0.18718 0.88227 0.32238 0.0
H662 H 0.22133 0.9216 0.38046 0.0
H663 H 0.265 0.88325 0.37651 0.0
C664 C 0.14945 0.97974 0.36054 0.0
C665 C 0.124 0.97565 0.36213 0.0
C666 C 0.17411 0.95748 0.35544 0.0
C667 C 0.17402 0.93024 0.35262 0.0
C668 C 0.14829 0.92659 0.35289 0.0
C669 C 0.12359 0.94904 0.35769 0.0
C670 C 0.22876 0.85997 0.33357 0.0
C671 C 0.25128 0.86007 0.34814 0.0
C672 C 0.20374 0.88263 0.33482 0.0
C673 C 0.20053 0.90569 0.35118 0.0
C674 C 0.223 0.905 0.36664 0.0
C675 C 0.24807 0.88274 0.36476 0.0
H676 H 0.12453 0.95384 0.72514 0.0
H677 H 0.12092 0.99234 0.80795 0.0
H678 H 0.16392 0.91394 0.74217 0.0
H679 H 0.16117 0.95187 0.82491 0.0
H680 H 0.25849 0.87796 0.7957 0.0
H681 H 0.22044 0.92338 0.78745 0.0
H682 H 0.16181 0.87936 0.80311 0.0
H683 H 0.19883 0.83487 0.81173 0.0
C684 C 0.13225 0.95384 0.74697 0.0
C685 C 0.11961 0.97619 0.76527 0.0
C686 C 0.15489 0.93108 0.75656 0.0
C687 C 0.16575 0.93024 0.78447 0.0
C688 C 0.15329 0.95243 0.80302 0.0
C689 C 0.13016 0.97526 0.79356 0.0
C690 C 0.23742 0.87821 0.79799 0.0
C691 C 0.23168 0.85286 0.80388 0.0
C692 C 0.21574 0.90406 0.79344 0.0
C693 C 0.18834 0.90462 0.79482 0.0
C694 C 0.18273 0.87943 0.80215 0.0
C695 C 0.20406 0.85395 0.80684 0.0
H696 H 0.10764 0.13832 0.67898 0.0
H697 H 0.12403 0.08673 0.76643 0.0
H698 H 0.1344 0.1658 0.69158 0.0
H699 H 0.1498 0.11461 0.77908 0.0
H700 H 0.16888 0.18723 0.80673 0.0
H701 H 0.13932 0.16447 0.79078 0.0
H702 H 0.1843 0.158 0.70082 0.0
H703 H 0.21431 0.18035 0.71691 0.0
C704 C 0.11694 0.1327 0.70076 0.0
C705 C 0.11331 0.11039 0.72178 0.0
C706 C 0.13216 0.14854 0.70799 0.0
C707 C 0.1438 0.14256 0.73648 0.0
C708 C 0.14051 0.1201 0.75725 0.0
C709 C 0.12563 0.10413 0.74994 0.0
C710 C 0.17243 0.18104 0.78351 0.0
C711 C 0.19415 0.18528 0.76322 0.0
C712 C 0.15549 0.16806 0.77439 0.0
C713 C 0.15975 0.15921 0.7447 0.0
C714 C 0.18048 0.16477 0.72379 0.0
C715 C 0.1976 0.17763 0.73299 0.0
H716 H 0.96156 0.11928 0.71498 0.0
H717 H 0.99188 0.11672 0.8031 0.0
H718 H 0.92156 0.15948 0.72707 0.0
H719 H 0.9509 0.15775 0.81537 0.0
H720 H 0.88423 0.25382 0.79539 0.0
H721 H 0.92736 0.2132 0.79072 0.0
H722 H 0.88124 0.16351 0.76845 0.0
H723 H 0.83894 0.20327 0.773 0.0
C724 C 0.95968 0.12729 0.73705 0.0
C725 C 0.97987 0.11471 0.75814 0.0
C726 C 0.93668 0.15037 0.74395 0.0
C727 C 0.93315 0.16169 0.77213 0.0
C728 C 0.95332 0.14943 0.79339 0.0
C729 C 0.9765 0.12586 0.78654 0.0
C730 C 0.88349 0.23412 0.78964 0.0
C731 C 0.85835 0.2318 0.78406 0.0
C732 C 0.90801 0.2109 0.78726 0.0
C733 C 0.90754 0.18534 0.77905 0.0
C734 C 0.88223 0.18302 0.77454 0.0
C735 C 0.858 0.20588 0.77706 0.0
H736 H 1.00931 0.96279 0.6808 0.0
H737 H 0.95994 0.01938 0.74697 0.0
H738 H 0.97633 0.93795 0.68818 0.0
H739 H 0.92659 0.99472 0.75415 0.0
H740 H 0.89503 0.92035 0.78778 0.0
H741 H 0.92311 0.9506 0.77725 0.0
H742 H 0.93109 0.94017 0.68002 0.0
H743 H 0.90421 0.90865 0.69084 0.0
C744 C 0.99117 0.97025 0.69655 0.0
C745 C 0.98739 0.99301 0.7134 0.0
C746 C 0.97215 0.95602 0.70075 0.0
C747 C 0.94874 0.96426 0.72181 0.0
C748 C 0.94461 0.98748 0.73813 0.0
C749 C 0.96373 1.00163 0.73402 0.0
C750 C 0.90278 0.92448 0.76414 0.0
C751 C 0.89759 0.91176 0.74023 0.0
C752 C 0.91863 0.94216 0.75802 0.0
C753 C 0.9296 0.94771 0.72779 0.0
C754 C 0.92338 0.93598 0.70367 0.0
C755 C 0.90762 0.91819 0.70981 0.0
H756 H 0.32334 0.1092 0.19657 0.0
H757 H 0.2591 0.18343 0.16153 0.0
H758 H 0.33551 0.13764 0.22956 0.0
H759 H 0.27152 0.21183 0.19385 0.0
H760 H 0.3215 0.25685 0.2308 0.0
H761 H 0.31774 0.22436 0.19701 0.0
H762 H 0.30483 0.16875 0.27672 0.0
H763 H 0.30787 0.20161 0.31078 0.0
C764 C 0.31208 0.13161 0.19574 0.0
C765 C 0.29026 0.14418 0.17665 0.0
C766 C 0.31894 0.14778 0.2146 0.0
C767 C 0.30454 0.17687 0.214 0.0
C768 C 0.28309 0.18947 0.19448 0.0
C769 C 0.27585 0.17324 0.17621 0.0
C770 C 0.31865 0.23733 0.24118 0.0
C771 C 0.31508 0.23172 0.27347 0.0
C772 C 0.31629 0.21889 0.22181 0.0
C773 C 0.31093 0.19419 0.23435 0.0
C774 C 0.30913 0.18761 0.26656 0.0
C775 C 0.31087 0.20639 0.28599 0.0
H776 H 0.96969 0.37327 0.19354 0.0
H777 H 0.99426 0.28947 0.1655 0.0
H778 H 0.9267 0.36841 0.21823 0.0
H779 H 0.9519 0.28403 0.19106 0.0
H780 H 0.86436 0.28874 0.22212 0.0
H781 H 0.90396 0.29699 0.19177 0.0
H782 H 0.91118 0.34504 0.26212 0.0
H783 H 0.87095 0.33802 0.29141 0.0
C784 C 0.96588 0.3538 0.19275 0.0
C785 C 0.98532 0.33182 0.17766 0.0
C786 C 0.94133 0.3509 0.20701 0.0
C787 C 0.93586 0.32571 0.20695 0.0
C788 C 0.95513 0.3039 0.19122 0.0
C789 C 0.97951 0.30699 0.1766 0.0
C790 C 0.87428 0.30132 0.23085 0.0
C791 C 0.86444 0.31291 0.259 0.0
C792 C 0.89711 0.30588 0.21359 0.0
C793 C 0.9108 0.32178 0.22439 0.0
C794 C 0.90082 0.33331 0.25261 0.0
C795 C 0.87779 0.32914 0.26956 0.0
H796 H 0.86448 0.89224 0.11369 0.0
H797 H 0.78692 0.96031 0.12461 0.0
H798 H 0.85303 0.86827 0.16287 0.0
H799 H 0.77537 0.93605 0.17335 0.0
H800 H 0.75527 0.85754 0.22993 0.0
H801 H 0.76419 0.89177 0.18873 0.0
H802 H 0.8453 0.87276 0.21889 0.0
H803 H 0.83669 0.83825 0.25848 0.0
C804 C 0.84519 0.90226 0.12667 0.0
C805 C 0.82657 0.92803 0.11491 0.0
C806 C 0.83863 0.88858 0.15489 0.0
C807 C 0.81329 0.9004 0.17192 0.0
C808 C 0.7949 0.92639 0.16054 0.0
C809 C 0.80153 0.94014 0.13245 0.0
C810 C 0.77441 0.86183 0.22869 0.0
C811 C 0.79486 0.84589 0.24841 0.0
C812 C 0.77962 0.88123 0.20497 0.0
C813 C 0.80557 0.88469 0.20049 0.0
C814 C 0.82518 0.87038 0.22169 0.0
C815 C 0.81994 0.85099 0.24516 0.0
H816 H 0.14229 0.70123 0.07973 0.0
H817 H 0.06966 0.76387 0.11624 0.0
H818 H 0.17105 0.71678 0.10841 0.0
H819 H 0.09783 0.78112 0.14298 0.0
H820 H 0.14994 0.78545 0.21473 0.0
H821 H 0.12307 0.76922 0.18536 0.0
H822 H 0.18914 0.75244 0.1123 0.0
H823 H 0.21668 0.76758 0.14295 0.0
C824 C 0.13265 0.71823 0.09413 0.0
C825 C 0.10397 0.7309 0.09676 0.0
C826 C 0.14898 0.7275 0.11011 0.0
C827 C 0.1368 0.75008 0.12836 0.0
C828 C 0.10797 0.76313 0.13006 0.0
C829 C 0.09176 0.75342 0.11471 0.0
C830 C 0.15865 0.77841 0.19231 0.0
C831 C 0.18529 0.7778 0.18101 0.0
C832 C 0.14318 0.76924 0.17531 0.0
C833 C 0.15375 0.75967 0.14624 0.0
C834 C 0.18046 0.75925 0.13479 0.0
C835 C 0.1962 0.76805 0.15217 0.0
H836 H 0.28394 0.98211 0.06871 0.0
H837 H 0.20309 0.03563 0.04211 0.0
H838 H 0.2785 0.94328 0.04814 0.0
H839 H 0.19798 0.99614 1.02099 0.0
H840 H 0.2327 0.93471 0.94156 0.0
H841 H 0.22167 0.97202 0.97498 0.0
H842 H 0.25349 0.91 0.05143 0.0
H843 H 0.26461 0.87255 1.0178 0.0
C844 C 0.2647 0.98572 0.05913 0.0
C845 C 0.24415 0.01254 0.05678 0.0
C846 C 0.26154 0.96313 0.04741 0.0
C847 C 0.2378 0.96664 0.03293 0.0
C848 C 0.21661 0.99293 0.03183 0.0
C849 C 0.21968 0.01561 0.04378 0.0
C850 C 0.23629 0.92894 0.96579 0.0
C851 C 0.24994 0.90082 0.977 0.0
C852 C 0.22997 0.95035 0.98498 0.0
C853 C 0.2372 0.94394 1.01566 0.0
C854 C 0.24818 0.91555 0.02769 0.0
C855 C 0.2545 0.89416 1.0085 0.0
H856 H 0.12795 0.37907 0.99765 0.0
H857 H 0.14922 0.28891 1.02006 0.0
H858 H 0.16066 0.37117 0.95188 0.0
H859 H 0.18257 0.28118 0.97569 0.0
H860 H 0.2209 0.2741 0.87881 0.0
H861 H 0.18433 0.28576 0.9202 0.0
H862 H 0.21021 0.35351 0.93864 0.0
H863 H 0.2464 0.34238 0.89671 0.0
C864 C 0.13956 0.35764 0.99291 0.0
C865 C 0.13597 0.33472 1.01272 0.0
C866 C 0.15846 0.3531 0.96686 0.0
C867 C 0.1741 0.32555 0.96009 0.0
C868 C 0.17053 0.30267 0.97993 0.0
C869 C 0.15165 0.30718 1.0058 0.0
C870 C 0.21852 0.29181 0.89128 0.0
C871 C 0.2366 0.30728 0.88442 0.0
C872 C 0.19771 0.29832 0.91522 0.0
C873 C 0.19454 0.3204 0.93287 0.0
C874 C 0.21196 0.33654 0.92529 0.0
C875 C 0.23278 0.33005 0.90131 0.0
H876 H 0.78114 0.09271 0.94313 0.0
H877 H 0.86799 0.08167 0.9335 0.0
H878 H 0.77049 0.14177 0.9222 0.0
H879 H 0.8574 0.13045 0.91094 0.0
H880 H 0.82982 0.22447 0.90579 0.0
H881 H 0.83676 0.1765 0.92888 0.0
H882 H 0.77444 0.172 0.87518 0.0
H883 H 0.76706 0.22049 0.8524 0.0
C884 C 0.79801 0.10069 0.93646 0.0
C885 C 0.82545 0.08331 0.94044 0.0
C886 C 0.79187 0.12878 0.92411 0.0
C887 C 0.81304 0.1401 0.91525 0.0
C888 C 0.84055 0.12249 0.91818 0.0
C889 C 0.84669 0.0944 0.93069 0.0
C890 C 0.8172 0.21345 0.89932 0.0
C891 C 0.79791 0.22622 0.87727 0.0
C892 C 0.82143 0.18584 0.91228 0.0
C893 C 0.80658 0.17025 0.90338 0.0
C894 C 0.78617 0.1835 0.88256 0.0
C895 C 0.78183 0.21131 0.86963 0.0
H896 H 0.97851 0.71074 0.92314 0.0
H897 H 0.94573 0.79377 0.95473 0.0
H898 H 0.93863 0.72201 0.89394 0.0
H899 H 0.90698 0.80538 0.92415 0.0
H900 H 0.82446 0.80164 0.90544 0.0
H901 H 0.86695 0.79309 0.92835 0.0
H902 H 0.91323 0.74938 0.85066 0.0
H903 H 0.86984 0.75727 0.82801 0.0
C904 C 0.96308 0.73144 0.92384 0.0
C905 C 0.96552 0.75107 0.94197 0.0
C906 C 0.94029 0.73805 0.90659 0.0
C907 C 0.91941 0.76454 0.90681 0.0
C908 C 0.92238 0.78455 0.92386 0.0
C909 C 0.94496 0.77789 0.9413 0.0
C910 C 0.84368 0.79034 0.89305 0.0
C911 C 0.84383 0.78003 0.86497 0.0
C912 C 0.86817 0.78566 0.9061 0.0
C913 C 0.89365 0.77066 0.89136 0.0
C914 C 0.89393 0.76082 0.86278 0.0
C915 C 0.86918 0.76551 0.84965 0.0
H916 H 0.13902 0.25126 0.219 0.0
H917 H 0.14185 0.32131 0.15245 0.0
H918 H 0.17383 0.2578 0.24709 0.0
H919 H 0.1743 0.32973 0.18145 0.0
H920 H 0.24946 0.32832 0.21988 0.0
H921 H 0.21736 0.31759 0.19327 0.0
H922 H 0.18732 0.28133 0.27969 0.0
H923 H 0.22186 0.29043 0.30618 0.0
C924 C 0.14715 0.26806 0.21039 0.0
C925 C 0.13816 0.28531 0.18308 0.0
C926 C 0.1669 0.27213 0.22674 0.0
C927 C 0.17757 0.29421 0.21679 0.0
C928 C 0.16785 0.31176 0.18967 0.0
C929 C 0.14893 0.30707 0.17288 0.0
C930 C 0.23601 0.3181 0.23342 0.0
C931 C 0.23808 0.31064 0.26535 0.0
C932 C 0.2171 0.31214 0.21803 0.0
C933 C 0.19873 0.29911 0.23401 0.0
C934 C 0.20093 0.29132 0.2662 0.0
C935 C 0.22054 0.29682 0.28163 0.0
H936 H 0.10263 0.82883 0.98916 0.0
H937 H 0.0984 0.75702 0.95115 0.0
H938 H 0.14551 0.82524 0.9577 0.0
H939 H 0.1422 0.75194 0.92129 0.0
H940 H 0.21328 0.75905 0.85259 0.0
H941 H 0.16895 0.76431 0.88142 0.0
H942 H 0.19127 0.80376 0.95025 0.0
H943 H 0.23467 0.80012 0.92008 0.0
C944 C 0.11087 0.81222 0.97404 0.0
C945 C 0.09672 0.79345 0.97262 0.0
C946 C 0.13589 0.80981 0.95615 0.0
C947 C 0.14815 0.78802 0.93673 0.0
C948 C 0.1337 0.76938 0.93522 0.0
C949 C 0.10836 0.77223 0.95259 0.0
C950 C 0.20878 0.76865 0.87404 0.0
C951 C 0.22779 0.77895 0.88404 0.0
C952 C 0.18317 0.77164 0.89083 0.0
C953 C 0.17581 0.78461 0.9186 0.0
C954 C 0.19531 0.7943 0.9288 0.0
C955 C 0.22064 0.79184 0.91165 0.0
H956 H 0.35707 0.1051 0.02377 0.0
H957 H 0.27058 0.14686 1.01124 0.0
H958 H 0.3685 0.13354 0.97706 0.0
H959 H 0.2818 0.17466 0.96529 0.0
H960 H 0.30798 0.20765 0.8709 0.0
H961 H 0.3034 0.17084 0.91141 0.0
H962 H 0.36164 0.18596 0.96261 0.0
H963 H 0.36584 0.22299 0.92216 0.0
C964 C 0.34059 0.11992 1.01084 0.0
C965 C 0.31293 0.12377 1.0213 0.0
C966 C 0.34708 0.13631 0.98424 0.0
C967 C 0.32604 0.15631 0.96731 0.0
C968 C 0.29855 0.15925 0.97737 0.0
C969 C 0.29212 0.14339 1.00397 0.0
C970 C 0.32007 0.20283 0.89051 0.0
C971 C 0.337 0.21844 0.89341 0.0
C972 C 0.31745 0.18176 0.91382 0.0
C973 C 0.33205 0.17551 0.94042 0.0
C974 C 0.35026 0.19002 0.94239 0.0
C975 C 0.35256 0.21135 0.91926 0.0
H976 H 0.04518 0.30249 0.04032 0.0
H977 H 0.02829 0.23058 0.09147 0.0
H978 H 1.01279 0.30588 1.00372 0.0
H979 H 0.9971 0.23251 0.05333 0.0
H980 H 0.92185 0.25919 0.9974 0.0
H981 H 0.95491 0.25436 0.03443 0.0
H982 H 1.00236 0.29005 0.96312 0.0
H983 H 0.96854 0.29611 0.92703 0.0
C984 C 0.0351 0.28682 0.04331 0.0
C985 C 0.03964 0.26608 0.06886 0.0
C986 C 1.01642 0.28868 0.02203 0.0
C987 C 1.00203 0.26942 0.02502 0.0
C988 C 1.00715 0.24817 0.05024 0.0
C989 C 1.02542 0.24675 0.07203 0.0
C990 C 0.93938 0.266 0.98976 0.0
C991 C 0.94232 0.27835 0.95934 0.0
C992 C 0.95858 0.26306 1.01098 0.0
C993 C 0.98163 0.2719 1.00223 0.0
C994 C 0.98472 0.28365 0.97143 0.0
C995 C 0.96529 0.28704 0.95047 0.0
H996 H 0.74714 0.96563 0.97952 0.0
H997 H 0.8256 0.94929 0.92567 0.0
H998 H 0.73236 0.94133 0.94389 0.0
H999 H 0.81129 0.92526 0.89098 0.0
H1000 H 0.77958 0.89812 0.81958 0.0
H1001 H 0.78008 0.93324 0.8516 0.0
H1002 H 0.74555 0.89159 0.93035 0.0
H1003 H 0.74413 0.85692 0.8979 0.0
C1004 C 0.761 0.95725 0.95993 0.0
C1005 C 0.78751 0.9593 0.9554 0.0
C1006 C 0.75264 0.94324 0.93967 0.0
C1007 C 0.77054 0.93162 0.91438 0.0
C1008 C 0.79671 0.93444 0.90973 0.0
C1009 C 0.80505 0.94801 0.92991 0.0
C1010 C 0.77136 0.89692 0.8435 0.0
C1011 C 0.7621 0.87461 0.85629 0.0
C1012 C 0.77176 0.91696 0.86191 0.0
C1013 C 0.76342 0.91485 0.89369 0.0
C1014 C 0.75202 0.89389 0.90595 0.0
C1015 C 0.75125 0.87399 0.88735 0.0
H1016 H 0.99081 0.81641 0.12552 0.0
H1017 H 0.96413 0.76284 0.07871 0.0
H1018 H 0.95696 0.81469 0.16856 0.0
H1019 H 0.93195 0.75863 0.12272 0.0
H1020 H 0.86406 0.76461 0.19951 0.0
H1021 H 0.8943 0.77059 0.15435 0.0
H1022 H 0.94317 0.79398 0.2117 0.0
H1023 H 0.91119 0.79029 0.25606 0.0
C1024 C 0.97755 0.80427 0.12443 0.0
C1025 C 0.97998 0.79017 0.09834 0.0
C1026 C 0.95826 0.80275 0.14959 0.0
C1027 C 0.94133 0.78608 0.15024 0.0
C1028 C 0.94374 0.77221 0.12368 0.0
C1029 C 0.96243 0.77454 0.09809 0.0
C1030 C 0.88143 0.77084 0.20245 0.0
C1031 C 0.88531 0.77659 0.23165 0.0
C1032 C 0.89911 0.77423 0.1763 0.0
C1033 C 0.92189 0.78281 0.17843 0.0
C1034 C 0.92585 0.78805 0.20807 0.0
C1035 C 0.90763 0.78548 0.23401 0.0
H1036 H 0.33192 0.97429 0.12428 0.0
H1037 H 0.29581 0.01425 0.20724 0.0
H1038 H 0.33772 0.92779 0.1537 0.0
H1039 H 0.30191 0.96834 0.23636 0.0
H1040 H 0.34025 0.88019 0.28548 0.0
H1041 H 0.34189 0.923 0.25301 0.0
H1042 H 0.3016 0.90382 0.18318 0.0
H1043 H 0.29925 0.86132 0.21613 0.0
C1044 C 0.32594 0.97312 0.14887 0.0
C1045 C 0.31373 0.99794 0.16353 0.0
C1046 C 0.32894 0.94657 0.16562 0.0
C1047 C 0.32035 0.9444 0.19741 0.0
C1048 C 0.30905 0.96921 0.21205 0.0
C1049 C 0.30558 0.99555 0.19533 0.0
C1050 C 0.33204 0.88493 0.26306 0.0
C1051 C 0.31952 0.86746 0.25344 0.0
C1052 C 0.33292 0.90946 0.24449 0.0
C1053 C 0.32194 0.91677 0.21548 0.0
C1054 C 0.31042 0.89867 0.20528 0.0
C1055 C 0.3089 0.87447 0.22424 0.0
H1056 H 0.76777 0.08779 0.05878 0.0
H1057 H 0.83577 0.02957 0.10759 0.0
H1058 H 0.76531 0.1245 0.09114 0.0
H1059 H 0.83362 0.06575 0.13929 0.0
H1060 H 0.807 0.12839 0.20964 0.0
H1061 H 0.80384 0.09331 0.17951 0.0
H1062 H 0.79605 0.15241 0.09725 0.0
H1063 H 0.79954 0.18772 0.12748 0.0
C1064 C 0.78165 0.0827 0.07688 0.0
C1065 C 0.8018 0.05591 0.08093 0.0
C1066 C 0.78055 0.10372 0.09504 0.0
C1067 C 0.79932 0.09797 0.11768 0.0
C1068 C 0.81867 0.07077 0.12233 0.0
C1069 C 0.81992 0.05006 0.10414 0.0
C1070 C 0.80493 0.13389 0.18507 0.0
C1071 C 0.80378 0.1608 0.17093 0.0
C1072 C 0.80292 0.11382 0.16785 0.0
C1073 C 0.7996 0.12014 0.13605 0.0
C1074 C 0.79814 0.14712 0.12184 0.0
C1075 C 0.80025 0.16727 0.13912 0.0
H1076 H 0.62984 0.56705 0.87899 0.0
H1077 H 0.5829 0.61753 0.95158 0.0
H1078 H 0.65938 0.59591 0.86883 0.0
H1079 H 0.61257 0.64618 0.94158 0.0
H1080 H 0.68563 0.67595 0.93441 0.0
H1081 H 0.66006 0.64332 0.94542 0.0
H1082 H 0.65485 0.64484 0.84758 0.0
H1083 H 0.68146 0.6768 0.83644 0.0
C1084 C 0.62574 0.58434 0.89272 0.0
C1085 C 0.60384 0.59011 0.91597 0.0
C1086 C 0.6427 0.60083 0.8869 0.0
C1087 C 0.63819 0.62335 0.90431 0.0
C1088 C 0.61674 0.62873 0.92802 0.0
C1089 C 0.59974 0.61229 0.93379 0.0
C1090 C 0.67944 0.66897 0.9152 0.0
C1091 C 0.6856 0.67888 0.88453 0.0
C1092 C 0.66452 0.65054 0.92155 0.0
C1093 C 0.65535 0.64166 0.89738 0.0
C1094 C 0.66187 0.65117 0.86666 0.0
C1095 C 0.67681 0.66968 0.86029 0.0
H1096 H 0.49236 0.60224 0.82719 0.0
H1097 H 0.44367 0.58675 0.91064 0.0
H1098 H 0.45319 0.64342 0.81088 0.0
H1099 H 0.40505 0.62782 0.89482 0.0
H1100 H 0.33327 0.69661 0.85383 0.0
H1101 H 0.36966 0.65018 0.85902 0.0
H1102 H 0.43119 0.68956 0.82836 0.0
H1103 H 0.39518 0.73523 0.82276 0.0
C1104 C 0.47321 0.60735 0.84179 0.0
C1105 C 0.47119 0.59136 0.87029 0.0
C1106 C 0.45082 0.63101 0.83258 0.0
C1107 C 0.42593 0.63899 0.85158 0.0
C1108 C 0.42367 0.62216 0.87938 0.0
C1109 C 0.44599 0.59871 0.88861 0.0
C1110 C 0.35456 0.6951 0.84771 0.0
C1111 C 0.36149 0.71946 0.83832 0.0
C1112 C 0.3754 0.66862 0.85081 0.0
C1113 C 0.40341 0.66614 0.84426 0.0
C1114 C 0.40995 0.69051 0.83328 0.0
C1115 C 0.38927 0.71678 0.83038 0.0
H1116 H 0.4988 0.46248 0.87007 0.0
H1117 H 0.49126 0.44054 0.969 0.0
H1118 H 0.47383 0.43223 0.86281 0.0
H1119 H 0.46739 0.40862 0.96135 0.0
H1120 H 0.39407 0.38641 0.93199 0.0
H1121 H 0.42325 0.41096 0.94537 0.0
H1122 H 0.47967 0.38319 0.86582 0.0
H1123 H 0.45019 0.35925 0.85221 0.0
C1124 C 0.49186 0.45128 0.89039 0.0
C1125 C 0.49697 0.45425 0.92022 0.0
C1126 C 0.4779 0.43342 0.88611 0.0
C1127 C 0.46894 0.41772 0.91147 0.0
C1128 C 0.47402 0.42052 0.94136 0.0
C1129 C 0.4879 0.43863 0.94569 0.0
C1130 C 0.41304 0.38509 0.91782 0.0
C1131 C 0.41977 0.3713 0.89088 0.0
C1132 C 0.42975 0.39911 0.92547 0.0
C1133 C 0.4535 0.39941 0.90634 0.0
C1134 C 0.46113 0.38393 0.88058 0.0
C1135 C 0.44436 0.37014 0.87285 0.0
H1136 H 0.64609 0.49599 0.8549 0.0
H1137 H 0.60384 0.43552 0.87469 0.0
H1138 H 0.68939 0.45829 0.84404 0.0
H1139 H 0.64717 0.3973 0.86575 0.0
H1140 H 0.72859 0.33294 0.83514 0.0
H1141 H 0.68432 0.37129 0.83575 0.0
H1142 H 0.7219 0.42341 0.87073 0.0
H1143 H 0.76621 0.38619 0.86694 0.0
C1144 C 0.64608 0.47458 0.85604 0.0
C1145 C 0.62173 0.46857 0.8648 0.0
C1146 C 0.67097 0.4528 0.85054 0.0
C1147 C 0.67216 0.4244 0.85452 0.0
C1148 C 0.64731 0.41873 0.86203 0.0
C1149 C 0.62237 0.44062 0.86712 0.0
C1150 C 0.72733 0.35285 0.84231 0.0
C1151 C 0.75094 0.35684 0.85022 0.0
C1152 C 0.70186 0.3748 0.8431 0.0
C1153 C 0.6993 0.40092 0.85283 0.0
C1154 C 0.72295 0.40422 0.86193 0.0
C1155 C 0.74843 0.38265 0.86023 0.0
H1156 H 0.62894 0.49364 0.30773 0.0
H1157 H 0.62167 0.45492 0.2293 0.0
H1158 H 0.66797 0.45099 0.32295 0.0
H1159 H 0.65972 0.41295 0.2445 0.0
H1160 H 0.70283 0.33181 0.29951 0.0
H1161 H 0.66472 0.37605 0.29445 0.0
H1162 H 0.72052 0.42215 0.29322 0.0
H1163 H 0.75941 0.37722 0.29805 0.0
C1164 C 0.6354 0.47596 0.2941 0.0
C1165 C 0.62222 0.47748 0.26746 0.0
C1166 C 0.65782 0.4518 0.30256 0.0
C1167 C 0.66679 0.42876 0.28485 0.0
C1168 C 0.65319 0.43033 0.25864 0.0
C1169 C 0.63136 0.45438 0.24997 0.0
C1170 C 0.70709 0.35129 0.29856 0.0
C1171 C 0.73418 0.35103 0.29876 0.0
C1172 C 0.68519 0.37662 0.29578 0.0
C1173 C 0.68969 0.40246 0.29333 0.0
C1174 C 0.71653 0.40244 0.29529 0.0
C1175 C 0.73872 0.37681 0.29791 0.0
H1176 H 0.639 0.57993 0.26095 0.0
H1177 H 0.61056 0.6432 0.18438 0.0
H1178 H 0.66718 0.6052 0.27398 0.0
H1179 H 0.64015 0.66786 0.19649 0.0
H1180 H 0.67464 0.71924 0.2479 0.0
H1181 H 0.64432 0.69534 0.23592 0.0
H1182 H 0.70833 0.61483 0.25379 0.0
H1183 H 0.73836 0.63861 0.26593 0.0
C1184 C 0.63876 0.59924 0.24684 0.0
C1185 C 0.62237 0.60963 0.22171 0.0
C1186 C 0.65521 0.61357 0.25411 0.0
C1187 C 0.65594 0.63849 0.23624 0.0
C1188 C 0.63976 0.64885 0.21091 0.0
C1189 C 0.62313 0.63452 0.2037 0.0
C1190 C 0.68211 0.69643 0.24937 0.0
C1191 C 0.70877 0.68076 0.25809 0.0
C1192 C 0.66484 0.68277 0.24235 0.0
C1193 C 0.67395 0.65321 0.2439 0.0
C1194 C 0.70052 0.63761 0.2529 0.0
C1195 C 0.71771 0.65123 0.25997 0.0
H1196 H 0.49158 0.61762 0.30532 0.0
H1197 H 0.473 0.6293 0.20989 0.0
H1198 H 0.44961 0.65813 0.31606 0.0
H1199 H 0.43209 0.66886 0.22059 0.0
H1200 H 0.34431 0.70886 0.25884 0.0
H1201 H 0.38757 0.66993 0.25428 0.0
H1202 H 0.42808 0.71485 0.29643 0.0
H1203 H 0.38425 0.75444 0.30087 0.0
C1204 C 0.47869 0.62872 0.28675 0.0
C1205 C 0.48557 0.62003 0.25684 0.0
C1206 C 0.45488 0.65195 0.29282 0.0
C1207 C 0.43759 0.66642 0.26914 0.0
C1208 C 0.44485 0.65792 0.23934 0.0
C1209 C 0.46843 0.63516 0.23328 0.0
C1210 C 0.36238 0.71054 0.26717 0.0
C1211 C 0.36102 0.73481 0.27985 0.0
C1212 C 0.38713 0.6882 0.26462 0.0
C1213 C 0.41114 0.68942 0.27496 0.0
C1214 C 0.40978 0.71337 0.28846 0.0
C1215 C 0.38486 0.73605 0.2907 0.0
H1216 H 0.46991 0.51702 0.25929 0.0
H1217 H 0.51216 0.46771 0.18408 0.0
H1218 H 0.43851 0.49018 0.26974 0.0
H1219 H 0.48066 0.44108 0.19442 0.0
H1220 H 0.4037 0.41725 0.20236 0.0
H1221 H 0.43244 0.44682 0.1917 0.0
H1222 H 0.43999 0.44194 0.28953 0.0
H1223 H 0.41022 0.41311 0.30033 0.0
C1224 C 0.47262 0.5004 0.24506 0.0
C1225 C 0.49371 0.49445 0.22091 0.0
C1226 C 0.4546 0.48504 0.25107 0.0
C1227 C 0.45718 0.46347 0.23299 0.0
C1228 C 0.47793 0.45783 0.20853 0.0
C1229 C 0.49598 0.47313 0.20256 0.0
C1230 C 0.41116 0.42279 0.22166 0.0
C1231 C 0.40461 0.41293 0.25222 0.0
C1232 C 0.42789 0.43947 0.2155 0.0
C1233 C 0.43856 0.44661 0.23975 0.0
C1234 C 0.43186 0.43697 0.27037 0.0
C1235 C 0.41509 0.42022 0.27654 0.0
H1236 H 0.76008 0.63167 0.68093 0.0
H1237 H 0.82525 0.65279 0.62327 0.0
H1238 H 0.76072 0.66331 0.71766 0.0
H1239 H 0.8251 0.68515 0.65877 0.0
H1240 H 0.83888 0.7216 0.7406 0.0
H1241 H 0.83817 0.68814 0.70627 0.0
H1242 H 0.75014 0.70977 0.72772 0.0
H1243 H 0.75131 0.74181 0.76316 0.0
C1244 C 0.77428 0.64332 0.67591 0.0
C1245 C 0.7927 0.63953 0.64928 0.0
C1246 C 0.77463 0.6616 0.69691 0.0
C1247 C 0.79321 0.67677 0.69155 0.0
C1248 C 0.81105 0.67339 0.66438 0.0
C1249 C 0.81093 0.65494 0.64373 0.0
C1250 C 0.81947 0.71901 0.73805 0.0
C1251 C 0.79525 0.73421 0.75474 0.0
C1252 C 0.81893 0.69997 0.71816 0.0
C1253 C 0.79402 0.69615 0.71388 0.0
C1254 C 0.76982 0.71152 0.73068 0.0
C1255 C 0.77048 0.73009 0.75098 0.0
H1256 H 0.51617 0.76445 0.72396 0.0
H1257 H 0.47911 0.7887 0.63717 0.0
H1258 H 0.47067 0.77076 0.75146 0.0
H1259 H 0.43362 0.79488 0.66453 0.0
H1260 H 0.36238 0.7708 0.72469 0.0
H1261 H 0.4072 0.76581 0.69621 0.0
H1262 H 0.42605 0.80981 0.76274 0.0
H1263 H 0.38117 0.81508 0.79105 0.0
C1264 C 0.49836 0.77087 0.71071 0.0
C1265 C 0.50143 0.77589 0.67827 0.0
C1266 C 0.47219 0.77477 0.72649 0.0
C1267 C 0.44834 0.78336 0.71029 0.0
C1268 C 0.45146 0.78808 0.67781 0.0
C1269 C 0.47756 0.78468 0.6621 0.0
C1270 C 0.37591 0.77975 0.73306 0.0
C1271 C 0.36789 0.7936 0.76008 0.0
C1272 C 0.40166 0.77689 0.71668 0.0
C1273 C 0.4204 0.78732 0.72715 0.0
C1274 C 0.41231 0.8013 0.75409 0.0
C1275 C 0.38639 0.80458 0.77017 0.0
H1276 H 0.36447 0.39231 0.62659 0.0
H1277 H 0.27949 0.44757 0.63354 0.0
H1278 H 0.35475 0.36281 0.67186 0.0
H1279 H 0.27001 0.41785 0.67869 0.0
H1280 H 0.25851 0.33644 0.73357 0.0
H1281 H 0.26632 0.37093 0.69191 0.0
H1282 H 0.34332 0.36123 0.72743 0.0
H1283 H 0.33576 0.32618 0.76798 0.0
C1284 C 0.34377 0.3985 0.63766 0.0
C1285 C 0.32289 0.42263 0.62575 0.0
C1286 C 0.33821 0.38148 0.6639 0.0
C1287 C 0.31157 0.38791 0.67907 0.0
C1288 C 0.2907 0.41204 0.66743 0.0
C1289 C 0.29626 0.42918 0.6413 0.0
C1290 C 0.2767 0.34234 0.73291 0.0
C1291 C 0.29596 0.32941 0.75494 0.0
C1292 C 0.28123 0.36208 0.70903 0.0
C1293 C 0.30546 0.36899 0.70624 0.0
C1294 C 0.32446 0.35644 0.72874 0.0
C1295 C 0.31979 0.33681 0.75267 0.0
H1296 H 0.55987 0.26578 0.62738 0.0
H1297 H 0.58055 0.32066 0.5515 0.0
H1298 H 0.59029 0.27491 0.65924 0.0
H1299 H 0.61156 0.32983 0.58362 0.0
H1300 H 0.69098 0.30265 0.64015 0.0
H1301 H 0.65706 0.30068 0.60713 0.0
H1302 H 0.59596 0.31242 0.68502 0.0
H1303 H 0.62972 0.31405 0.7179 0.0
C1304 C 0.57046 0.28042 0.61777 0.0
C1305 C 0.56743 0.29287 0.5871 0.0
C1306 C 0.58798 0.28562 0.63605 0.0
C1307 C 0.60346 0.30309 0.62407 0.0
C1308 C 0.60001 0.31617 0.59352 0.0
C1309 C 0.58197 0.31129 0.57527 0.0
C1310 C 0.67028 0.30486 0.65017 0.0
C1311 C 0.66313 0.30856 0.68171 0.0
C1312 C 0.65075 0.30404 0.63117 0.0
C1313 C 0.6237 0.30649 0.64335 0.0
C1314 C 0.61658 0.31039 0.67483 0.0
C1315 C 0.63594 0.31151 0.69367 0.0
H1316 H 0.74108 0.5536 0.52266 0.0
H1317 H 0.7624 0.49562 0.60459 0.0
H1318 H 0.73564 0.51688 0.49684 0.0
H1319 H 0.75633 0.4586 0.57916 0.0
H1320 H 0.79644 0.39635 0.50411 0.0
H1321 H 0.78611 0.43255 0.53896 0.0
H1322 H 0.71492 0.48305 0.49005 0.0
H1323 H 0.72599 0.44735 0.45437 0.0
C1324 C 0.74292 0.53338 0.53576 0.0
C1325 C 0.75153 0.52756 0.56578 0.0
C1326 C 0.74003 0.51218 0.5209 0.0
C1327 C 0.74594 0.48457 0.53574 0.0
C1328 C 0.75202 0.47951 0.5669 0.0
C1329 C 0.75492 0.50082 0.58175 0.0
C1330 C 0.77847 0.41508 0.50095 0.0
C1331 C 0.7622 0.41901 0.4763 0.0
C1332 C 0.77227 0.43571 0.52123 0.0
C1333 C 0.74963 0.46081 0.51739 0.0
C1334 C 0.73261 0.46411 0.49359 0.0
C1335 C 0.73883 0.44348 0.47328 0.0
H1336 H 0.68632 0.78595 0.53393 0.0
H1337 H 0.62487 0.79404 0.47287 0.0
H1338 H 0.72119 0.78118 0.48985 0.0
H1339 H 0.65929 0.78961 0.42854 0.0
H1340 H 0.73363 0.76274 0.35641 0.0
H1341 H 0.70094 0.76062 0.40117 0.0
H1342 H 0.73129 0.81249 0.44662 0.0
H1343 H 0.76398 0.81448 0.40204 0.0
C1344 C 0.68061 0.78542 0.51118 0.0
C1345 C 0.65313 0.78925 0.50701 0.0
C1346 C 0.70039 0.78335 0.48575 0.0
C1347 C 0.69317 0.7852 0.45536 0.0
C1348 C 0.66588 0.78767 0.45146 0.0
C1349 C 0.64614 0.78989 0.4769 0.0
C1350 C 0.73323 0.77386 0.37586 0.0
C1351 C 0.75139 0.78901 0.3753 0.0
C1352 C 0.71442 0.77264 0.40161 0.0
C1353 C 0.71344 0.7862 0.42782 0.0
C1354 C 0.73161 0.80138 0.4272 0.0
C1355 C 0.7502 0.80284 0.40134 0.0
H1356 H 0.32782 0.57111 0.40264 0.0
H1357 H 0.3161 0.60368 0.49083 0.0
H1358 H 0.3195 0.61875 0.37633 0.0
H1359 H 0.3078 0.65134 0.46455 0.0
H1360 H 0.33036 0.72378 0.40133 0.0
H1361 H 0.33517 0.67762 0.42953 0.0
H1362 H 0.28063 0.66588 0.37029 0.0
H1363 H 0.27554 0.71248 0.34212 0.0
C1364 C 0.32365 0.5884 0.4164 0.0
C1365 C 0.32278 0.5835 0.44884 0.0
C1366 C 0.31856 0.61577 0.40135 0.0
C1367 C 0.31287 0.63893 0.4183 0.0
C1368 C 0.3122 0.634 0.45076 0.0
C1369 C 0.31685 0.6067 0.46583 0.0
C1370 C 0.31913 0.71151 0.39447 0.0
C1371 C 0.30254 0.72186 0.36942 0.0
C1372 C 0.32183 0.68506 0.41075 0.0
C1373 C 0.30842 0.66793 0.40211 0.0
C1374 C 0.29144 0.67844 0.37737 0.0
C1375 C 0.28831 0.70523 0.3614 0.0
H1376 H 0.48235 0.25025 0.43603 0.0
H1377 H 0.43857 0.32582 0.48012 0.0
H1378 H 0.44415 0.25928 0.40501 0.0
H1379 H 0.39998 0.33543 0.44825 0.0
H1380 H 0.32455 0.31662 0.42263 0.0
H1381 H 0.36437 0.31665 0.44609 0.0
H1382 H 0.4164 0.28597 0.36476 0.0
H1383 H 0.37611 0.28518 0.34153 0.0
C1384 C 0.46466 0.26919 0.43869 0.0
C1385 C 0.46349 0.28722 0.46078 0.0
C1386 C 0.44272 0.27452 0.42058 0.0
C1387 C 0.41869 0.29804 0.42398 0.0
C1388 C 0.41797 0.31688 0.44515 0.0
C1389 C 0.44019 0.31159 0.46325 0.0
C1390 C 0.34445 0.31006 0.40954 0.0
C1391 C 0.34717 0.30049 0.38033 0.0
C1392 C 0.36737 0.31037 0.42296 0.0
C1393 C 0.39387 0.30119 0.40758 0.0
C1394 C 0.39644 0.29279 0.37762 0.0
C1395 C 0.37334 0.29247 0.36413 0.0
H1396 H 0.66456 0.81792 0.6266 0.0
H1397 H 0.60147 0.8262 0.70213 0.0
H1398 H 0.69511 0.82487 0.66003 0.0
H1399 H 0.6325 0.83285 0.73628 0.0
H1400 H 0.71751 0.80107 0.78721 0.0
H1401 H 0.67942 0.80184 0.75855 0.0
H1402 H 0.69832 0.8625 0.68829 0.0
H1403 H 0.73609 0.86154 0.7165 0.0
C1404 C 0.65711 0.82173 0.65034 0.0
C1405 C 0.63061 0.82189 0.66173 0.0
C1406 C 0.67458 0.82572 0.66952 0.0
C1407 C 0.66622 0.82948 0.70082 0.0
C1408 C 0.6395 0.82998 0.71226 0.0
C1409 C 0.62167 0.82652 0.69272 0.0
C1410 C 0.71298 0.81505 0.76604 0.0
C1411 C 0.72976 0.83122 0.75399 0.0
C1412 C 0.69121 0.81551 0.74966 0.0
C1413 C 0.68603 0.83207 0.72101 0.0
C1414 C 0.70198 0.84928 0.71006 0.0
C1415 C 0.72356 0.84881 0.7263 0.0
H1416 H 0.64079 0.20436 0.45723 0.0
H1417 H 0.60485 0.29499 0.45499 0.0
H1418 H 0.68365 0.20909 0.43212 0.0
H1419 H 0.64766 0.29972 0.42982 0.0
H1420 H 0.73523 0.29826 0.41002 0.0
H1421 H 0.69485 0.29089 0.43897 0.0
H1422 H 0.70169 0.22536 0.38257 0.0
H1423 H 0.74254 0.23218 0.35402 0.0
C1424 C 0.64193 0.2253 0.45119 0.0
C1425 C 0.61932 0.24927 0.45808 0.0
C1426 C 0.66653 0.228 0.43682 0.0
C1427 C 0.66908 0.25476 0.42899 0.0
C1428 C 0.64653 0.27875 0.43604 0.0
C1429 C 0.62194 0.27604 0.45045 0.0
C1430 C 0.72844 0.28195 0.40405 0.0
C1431 C 0.7422 0.26578 0.37967 0.0
C1432 C 0.70509 0.27794 0.42049 0.0
C1433 C 0.69493 0.25771 0.41291 0.0
C1434 C 0.70917 0.24092 0.3892 0.0
C1435 C 0.73258 0.24489 0.37277 0.0
H1436 H 0.76915 0.67386 0.48555 0.0
H1437 H 0.84766 0.60663 0.48779 0.0
H1438 H 0.78604 0.69732 0.43948 0.0
H1439 H 0.86506 0.63059 0.44107 0.0
H1440 H 0.88216 0.71259 0.38213 0.0
H1441 H 0.87385 0.67804 0.42342 0.0
H1442 H 0.79888 0.68597 0.38454 0.0
H1443 H 0.80663 0.72108 0.34469 0.0
C1444 C 0.79012 0.66413 0.47608 0.0
C1445 C 0.80696 0.63819 0.48977 0.0
C1446 C 0.79973 0.67745 0.44959 0.0
C1447 C 0.82654 0.66524 0.43614 0.0
C1448 C 0.84414 0.64014 0.45082 0.0
C1449 C 0.83435 0.62661 0.47754 0.0
C1450 C 0.8647 0.70574 0.38156 0.0
C1451 C 0.84552 0.71882 0.35945 0.0
C1452 C 0.8599 0.68611 0.40526 0.0
C1453 C 0.83562 0.67959 0.40728 0.0
C1454 C 0.81776 0.69072 0.38353 0.0
C1455 C 0.82254 0.71038 0.36003 0.0
H1456 H 0.49526 0.80344 0.58609 0.0
H1457 H 0.5182 0.86538 0.52184 0.0
H1458 H 0.45943 0.80595 0.5541 0.0
H1459 H 0.48207 0.86816 0.48934 0.0
H1460 H 0.45765 0.82097 0.42097 0.0
H1461 H 0.48257 0.83177 0.45799 0.0
H1462 H 0.41675 0.83188 0.5289 0.0
H1463 H 0.39204 0.82015 0.49176 0.0
C1464 C 0.49146 0.81885 0.56598 0.0
C1465 C 0.50883 0.83482 0.55676 0.0
C1466 C 0.47108 0.82013 0.54747 0.0
C1467 C 0.46808 0.8371 0.51908 0.0
C1468 C 0.4841 0.85475 0.51104 0.0
C1469 C 0.50443 0.85356 0.52978 0.0
C1470 C 0.44845 0.82339 0.44443 0.0
C1471 C 0.42295 0.81969 0.45352 0.0
C1472 C 0.46252 0.83003 0.46553 0.0
C1473 C 0.45141 0.83315 0.49624 0.0
C1474 C 0.42571 0.82978 0.50532 0.0
C1475 C 0.41154 0.8232 0.48409 0.0
H1476 H 0.26366 0.49356 0.45069 0.0
H1477 H 0.27392 0.41895 0.51504 0.0
H1478 H 0.25196 0.47047 0.41159 0.0
H1479 H 0.26209 0.39598 0.47649 0.0
H1480 H 0.23291 0.36126 0.40573 0.0
H1481 H 0.22791 0.39444 0.44299 0.0
H1482 H 0.28209 0.43049 0.38272 0.0
H1483 H 0.28687 0.39772 0.34539 0.0
C1484 C 0.26222 0.47271 0.45685 0.0
C1485 C 0.26934 0.45809 0.48589 0.0
C1486 C 0.25589 0.45935 0.43441 0.0
C1487 C 0.25617 0.43133 0.44088 0.0
C1488 C 0.26131 0.41764 0.4708 0.0
C1489 C 0.26809 0.43078 0.49293 0.0
C1490 C 0.24313 0.37678 0.39999 0.0
C1491 C 0.26039 0.37668 0.37257 0.0
C1492 C 0.2404 0.39568 0.42147 0.0
C1493 C 0.2547 0.41503 0.41592 0.0
C1494 C 0.2705 0.41614 0.38759 0.0
C1495 C 0.27335 0.39718 0.36621 0.0
H1496 H 0.46941 0.19642 0.62636 0.0
H1497 H 0.46196 0.28343 0.62866 0.0
H1498 H 0.44092 0.19777 0.67478 0.0
H1499 H 0.43188 0.28536 0.67575 0.0
H1500 H 0.40112 0.27488 0.77479 0.0
H1501 H 0.43287 0.26959 0.72867 0.0
H1502 H 0.39534 0.2159 0.69691 0.0
H1503 H 0.36429 0.22031 0.74384 0.0
C1504 C 0.4617 0.21587 0.63706 0.0
C1505 C 0.46826 0.23973 0.62351 0.0
C1506 C 0.44501 0.21674 0.6647 0.0
C1507 C 0.43418 0.24161 0.67934 0.0
C1508 C 0.4403 0.26564 0.66551 0.0
C1509 C 0.45726 0.26466 0.63808 0.0
C1510 C 0.40005 0.26145 0.75827 0.0
C1511 C 0.38038 0.24781 0.76306 0.0
C1512 C 0.41801 0.25872 0.73158 0.0
C1513 C 0.41647 0.24262 0.70881 0.0
C1514 C 0.39736 0.2282 0.71411 0.0
C1515 C 0.37958 0.23066 0.74106 0.0
H1516 H 0.8707 0.45576 0.63626 0.0
H1517 H 0.79534 0.50315 0.68635 0.0
H1518 H 0.86886 0.41249 0.66749 0.0
H1519 H 0.79313 0.46011 0.71619 0.0
H1520 H 0.7798 0.37541 0.73461 0.0
H1521 H 0.78537 0.41666 0.7028 0.0
H1522 H 0.87002 0.3904 0.72455 0.0
H1523 H 0.86459 0.34893 0.75655 0.0
C1524 C 0.85391 0.45711 0.65393 0.0
C1525 C 0.83292 0.48306 0.65819 0.0
C1526 C 0.85281 0.4323 0.67171 0.0
C1527 C 0.83057 0.43295 0.69379 0.0
C1528 C 0.81017 0.4589 0.6988 0.0
C1529 C 0.81146 0.48362 0.68149 0.0
C1530 C 0.79972 0.37816 0.73237 0.0
C1531 C 0.82175 0.35883 0.74811 0.0
C1532 C 0.80284 0.4019 0.71431 0.0
C1533 C 0.82809 0.40675 0.71138 0.0
C1534 C 0.8504 0.38703 0.72628 0.0
C1535 C 0.84723 0.36335 0.74463 0.0
H1536 H 0.27251 0.56052 0.61607 0.0
H1537 H 0.3379 0.57358 0.55146 0.0
H1538 H 0.27446 0.59729 0.64557 0.0
H1539 H 0.34009 0.60979 0.5807 0.0
H1540 H 0.31839 0.69048 0.62844 0.0
H1541 H 0.3141 0.65704 0.59631 0.0
H1542 H 0.30979 0.59965 0.67791 0.0
H1543 H 0.3131 0.63338 0.71007 0.0
C1544 C 0.28678 0.57172 0.6079 0.0
C1545 C 0.30509 0.56437 0.58176 0.0
C1546 C 0.28818 0.5924 0.62485 0.0
C1547 C 0.30767 0.60609 0.61554 0.0
C1548 C 0.32484 0.59969 0.58836 0.0
C1549 C 0.32363 0.57893 0.57172 0.0
C1550 C 0.31675 0.67061 0.63942 0.0
C1551 C 0.31603 0.66455 0.67172 0.0
C1552 C 0.3143 0.65151 0.62108 0.0
C1553 C 0.31106 0.62604 0.63475 0.0
C1554 C 0.31159 0.61944 0.66689 0.0
C1555 C 0.31407 0.6385 0.68521 0.0
loop_
_geom_bond_atom_site_label_1
_geom_bond_atom_site_label_2
_geom_bond_distance
_geom_bond_site_symmetry_2
_ccdc_geom_bond_type
Cu0 N1 1.999 . S
Cu0 O6 1.974 1_545 S
Cu0 N11 1.985 1_545 S
Cu0 O20 1.959 1_455 S
N1 Cu0 1.999 . S
N1 C3 1.263 . S
N1 C5 1.389 . S
N2 C3 1.358 . S
N2 C4 1.400 . S
C3 N1 1.263 . S
C3 N2 1.358 . S
C3 H9 0.930 . S
C4 N2 1.400 . S
C4 C5 1.351 . S
C4 H21 0.930 . S
C5 N1 1.389 . S
C5 C4 1.351 . S
C5 H10 0.930 . S
O6 Cu0 1.974 1_565 S
O6 C16 1.282 . S
C7 O8 1.261 1_655 S
C7 O20 1.251 . S
O8 C7 1.261 1_455 S
H9 C3 0.930 . S
H10 C5 0.930 . S
N11 Cu0 1.985 1_565 S
N11 C13 1.335 1_455 S
N11 C14 1.390 . S
N12 C13 1.345 . S
N12 C15 1.336 1_655 S
C13 N11 1.335 1_655 S
C13 N12 1.345 . S
C13 H18 0.930 1_565 S
C14 N11 1.390 . S
C14 C15 1.346 . S
C14 H19 0.930 . S
C15 N12 1.336 1_455 S
C15 C14 1.346 . S
C15 H22 0.929 . S
C16 O6 1.282 . S
C16 O17 1.216 . S
O17 C16 1.216 . S
H18 C13 0.930 1_545 S
H19 C14 0.930 . S
O20 Cu0 1.959 1_655 S
O20 C7 1.251 . S
H21 C4 0.930 . S
H22 C15 0.929 . S
Cu23 N24 1.972 1_455 S
Cu23 O29 1.974 1_455 S
Cu23 N34 1.985 . S
Cu23 O43 1.959 . S
N24 Cu23 1.972 1_655 S
N24 C26 1.295 . S
N24 C28 1.390 1_645 S
N25 C26 1.358 . S
N25 C27 1.400 1_545 S
C26 N24 1.295 . S
C26 N25 1.358 . S
C26 H32 0.930 . S
C27 N25 1.400 1_565 S
C27 C28 1.351 1_655 S
C27 H44 0.930 . S
C28 N24 1.390 1_465 S
C28 C27 1.351 1_455 S
C28 H33 0.930 . S
O29 Cu23 1.974 1_655 S
O29 C39 1.282 . S
C30 O31 1.261 . S
C30 O43 1.251 . S
O31 C30 1.261 . S
H32 C26 0.930 . S
H33 C28 0.930 . S
N34 Cu23 1.985 . S
N34 C36 1.335 . S
N34 C37 1.390 . S
N35 C36 1.345 . S
N35 C38 1.336 . S
C36 N34 1.335 . S
C36 N35 1.345 . S
C36 H41 0.930 . S
C37 N34 1.390 . S
C37 C38 1.346 . S
C37 H42 0.930 . S
C38 N35 1.336 . S
C38 C37 1.346 . S
C38 H45 0.929 . S
C39 O29 1.282 . S
C39 O40 1.216 . S
O40 C39 1.216 . S
H41 C36 0.930 . S
H42 C37 0.930 . S
O43 Cu23 1.959 . S
O43 C30 1.251 . S
H44 C27 0.930 . S
H45 C38 0.929 . S
Cu46 N47 1.999 . S
Cu46 O52 1.974 . S
Cu46 N57 1.985 . S
Cu46 O66 1.959 . S
N47 Cu46 1.999 . S
N47 C49 1.263 . S
N47 C51 1.389 . S
N48 C49 1.358 . S
N48 C50 1.400 . S
C49 N47 1.263 . S
C49 N48 1.358 . S
C49 H55 0.930 . S
C50 N48 1.400 . S
C50 C51 1.351 . S
C50 H67 0.930 1_554 S
C51 N47 1.389 . S
C51 C50 1.351 . S
C51 H56 0.930 . S
O52 Cu46 1.974 . S
O52 C62 1.282 . S
C53 O54 1.261 . S
C53 O66 1.251 . S
O54 C53 1.261 . S
H55 C49 0.930 . S
H56 C51 0.930 . S
N57 Cu46 1.985 . S
N57 C59 1.335 . S
N57 C60 1.390 . S
N58 C59 1.345 . S
N58 C61 1.336 . S
C59 N57 1.335 . S
C59 N58 1.345 . S
C59 H64 0.930 . S
C60 N57 1.390 . S
C60 C61 1.346 . S
C60 H65 0.930 . S
C61 N58 1.336 . S
C61 C60 1.346 . S
C61 H68 0.929 . S
C62 O52 1.282 . S
C62 O63 1.216 . S
O63 C62 1.216 . S
H64 C59 0.930 . S
H65 C60 0.930 . S
O66 Cu46 1.959 . S
O66 C53 1.251 . S
H67 C50 0.930 1_556 S
H68 C61 0.929 . S
Cu69 N70 1.999 . S
Cu69 O75 1.974 . S
Cu69 N80 1.985 . S
Cu69 O89 1.959 . S
N70 Cu69 1.999 . S
N70 C72 1.263 . S
N70 C74 1.389 . S
N71 C72 1.358 . S
N71 C73 1.400 1_554 S
C72 N70 1.263 . S
C72 N71 1.358 . S
C72 H78 0.930 . S
C73 N71 1.400 1_556 S
C73 C74 1.351 1_556 S
C73 H90 0.930 . S
C74 N70 1.389 . S
C74 C73 1.351 1_554 S
C74 H79 0.936 . S
O75 Cu69 1.974 . S
O75 C85 1.282 . S
C76 O77 1.261 . S
C76 O89 1.251 . S
O77 C76 1.261 . S
H78 C72 0.930 . S
H79 C74 0.936 . S
N80 Cu69 1.985 . S
N80 C82 1.335 1_455 S
N80 C83 1.390 . S
N81 C82 1.345 . S
N81 C84 1.336 1_655 S
C82 N80 1.335 1_655 S
C82 N81 1.345 . S
C82 H87 0.930 . S
C83 N80 1.390 . S
C83 C84 1.346 . S
C83 H88 0.930 . S
C84 N81 1.336 1_455 S
C84 C83 1.346 . S
C84 H91 0.929 . S
C85 O75 1.282 . S
C85 O86 1.216 . S
O86 C85 1.216 . S
H87 C82 0.930 . S
H88 C83 0.930 . S
O89 Cu69 1.959 . S
O89 C76 1.251 . S
H90 C73 0.930 . S
H91 C84 0.929 . S
Cu92 N93 1.999 1_554 S
Cu92 O98 1.974 . S
Cu92 N103 1.985 1_545 S
Cu92 O112 1.959 1_544 S
N93 Cu92 1.999 1_556 S
N93 C95 1.263 . S
N93 C97 1.389 . S
N94 C95 1.358 . S
N94 C96 1.400 . S
C95 N93 1.263 . S
C95 N94 1.358 . S
C95 H101 0.930 . S
C96 N94 1.400 . S
C96 C97 1.351 . S
C96 H113 0.930 . S
C97 N93 1.389 . S
C97 C96 1.351 . S
C97 H102 0.930 . S
O98 Cu92 1.974 . S
O98 C108 1.282 . S
C99 O100 1.261 . S
C99 O112 1.251 . S
O100 C99 1.261 . S
H101 C95 0.930 . S
H102 C97 0.930 . S
N103 Cu92 1.985 1_565 S
N103 C105 1.335 . S
N103 C106 1.390 . S
N104 C105 1.345 . S
N104 C107 1.336 . S
C105 N103 1.335 . S
C105 N104 1.345 . S
C105 H110 0.930 . S
C106 N103 1.390 . S
C106 C107 1.346 . S
C106 H111 0.930 . S
C107 N104 1.336 . S
C107 C106 1.346 . S
C107 H114 0.929 . S
C108 O98 1.282 . S
C108 O109 1.216 . S
O109 C108 1.216 . S
H110 C105 0.930 . S
H111 C106 0.930 . S
O112 Cu92 1.959 1_566 S
O112 C99 1.251 . S
H113 C96 0.930 . S
H114 C107 0.929 . S
Cu115 N116 1.999 1_454 S
Cu115 O121 1.974 1_455 S
Cu115 N126 1.985 . S
Cu115 O135 1.959 1_554 S
N116 Cu115 1.999 1_656 S
N116 C118 1.263 . S
N116 C120 1.389 . S
N117 C118 1.358 . S
N117 C119 1.400 . S
C118 N116 1.263 . S
C118 N117 1.358 . S
C118 H124 0.930 . S
C119 N117 1.400 . S
C119 C120 1.351 . S
C119 H136 0.930 . S
C120 N116 1.389 . S
C120 C119 1.351 . S
C120 H125 0.930 1_655 S
O121 Cu115 1.974 1_655 S
O121 C131 1.282 . S
C122 O123 1.261 . S
C122 O135 1.251 . S
O123 C122 1.261 . S
H124 C118 0.930 . S
H125 C120 0.930 1_455 S
N126 Cu115 1.985 . S
N126 C128 1.335 . S
N126 C129 1.390 . S
N127 C128 1.345 . S
N127 C130 1.336 . S
C128 N126 1.335 . S
C128 N127 1.345 . S
C128 H133 0.930 . S
C129 N126 1.390 . S
C129 C130 1.346 . S
C129 H134 0.930 . S
C130 N127 1.336 . S
C130 C129 1.346 . S
C130 H137 0.929 . S
C131 O121 1.282 . S
C131 O132 1.216 . S
O132 C131 1.216 . S
H133 C128 0.930 . S
H134 C129 0.930 . S
O135 Cu115 1.959 1_556 S
O135 C122 1.251 . S
H136 C119 0.930 . S
H137 C130 0.929 . S
Cu138 N139 1.999 . S
Cu138 O144 1.974 . S
Cu138 N149 1.985 . S
Cu138 O158 1.959 . S
N139 Cu138 1.999 . S
N139 C141 1.263 . S
N139 C143 1.389 . S
N140 C141 1.358 . S
N140 C142 1.400 . S
C141 N139 1.263 . S
C141 N140 1.358 . S
C141 H147 0.930 . S
C142 N140 1.400 . S
C142 C143 1.351 . S
C142 H159 0.930 . S
C143 N139 1.389 . S
C143 C142 1.351 . S
C143 H148 0.930 . S
O144 Cu138 1.974 . S
O144 C154 1.282 . S
C145 O146 1.261 . S
C145 O158 1.251 . S
O146 C145 1.261 . S
H147 C141 0.930 . S
H148 C143 0.930 . S
N149 Cu138 1.985 . S
N149 C151 1.335 . S
N149 C152 1.390 . S
N150 C151 1.345 . S
N150 C153 1.336 . S
C151 N149 1.335 . S
C151 N150 1.345 . S
C151 H156 0.930 . S
C152 N149 1.390 . S
C152 C153 1.346 . S
C152 H157 0.930 . S
C153 N150 1.336 . S
C153 C152 1.346 . S
C153 H160 0.929 . S
C154 O144 1.282 . S
C154 O155 1.216 . S
O155 C154 1.216 . S
H156 C151 0.930 . S
H157 C152 0.930 . S
O158 Cu138 1.959 . S
O158 C145 1.251 . S
H159 C142 0.930 . S
H160 C153 0.929 . S
Cu161 N162 1.999 . S
Cu161 O167 1.974 . S
Cu161 N172 1.985 . S
Cu161 O181 1.959 . S
N162 Cu161 1.999 . S
N162 C164 1.263 . S
N162 C166 1.389 . S
N163 C164 1.358 . S
N163 C165 1.400 . S
C164 N162 1.263 . S
C164 N163 1.358 . S
C164 H170 0.930 . S
C165 N163 1.400 . S
C165 C166 1.351 . S
C165 H182 0.930 . S
C166 N162 1.389 . S
C166 C165 1.351 . S
C166 H171 0.930 . S
O167 Cu161 1.974 . S
O167 C177 1.282 . S
C168 O169 1.261 . S
C168 O181 1.251 . S
O169 C168 1.261 . S
H170 C164 0.930 . S
H171 C166 0.930 . S
N172 Cu161 1.985 . S
N172 C174 1.335 . S
N172 C175 1.390 . S
N173 C174 1.345 . S
N173 C176 1.336 . S
C174 N172 1.335 . S
C174 N173 1.345 . S
C174 H179 0.930 . S
C175 N172 1.390 . S
C175 C176 1.346 . S
C175 H180 0.930 . S
C176 N173 1.336 . S
C176 C175 1.346 . S
C176 H183 0.929 . S
C177 O167 1.282 . S
C177 O178 1.216 . S
O178 C177 1.216 . S
H179 C174 0.930 . S
H180 C175 0.930 . S
O181 Cu161 1.959 . S
O181 C168 1.251 . S
H182 C165 0.930 . S
H183 C176 0.929 . S
Cu184 N185 1.999 . S
Cu184 O190 1.974 . S
Cu184 N195 1.985 . S
Cu184 O204 1.959 . S
N185 Cu184 1.999 . S
N185 C187 1.263 . S
N185 C189 1.389 . S
N186 C187 1.358 . S
N186 C188 1.400 . S
C187 N185 1.263 . S
C187 N186 1.358 . S
C187 H193 0.930 . S
C188 N186 1.400 . S
C188 C189 1.351 . S
C188 H205 0.930 . S
C189 N185 1.389 . S
C189 C188 1.351 . S
C189 H194 0.930 . S
O190 Cu184 1.974 . S
O190 C200 1.282 . S
C191 O192 1.261 . S
C191 O204 1.251 . S
O192 C191 1.261 . S
H193 C187 0.930 . S
H194 C189 0.930 . S
N195 Cu184 1.985 . S
N195 C197 1.335 . S
N195 C198 1.390 . S
N196 C197 1.345 . S
N196 C199 1.336 . S
C197 N195 1.335 . S
C197 N196 1.345 . S
C197 H202 0.930 . S
C198 N195 1.390 . S
C198 C199 1.346 . S
C198 H203 0.930 . S
C199 N196 1.336 . S
C199 C198 1.346 . S
C199 H206 0.929 . S
C200 O190 1.282 . S
C200 O201 1.216 . S
O201 C200 1.216 . S
H202 C197 0.930 . S
H203 C198 0.930 . S
O204 Cu184 1.959 . S
O204 C191 1.251 . S
H205 C188 0.930 . S
H206 C199 0.929 . S
Cu207 N208 1.999 . S
Cu207 O213 1.974 . S
Cu207 N218 1.985 . S
Cu207 O227 1.959 . S
N208 Cu207 1.999 . S
N208 C210 1.263 . S
N208 C212 1.389 . S
N209 C210 1.358 . S
N209 C211 1.400 . S
C210 N208 1.263 . S
C210 N209 1.358 . S
C210 H216 0.930 . S
C211 N209 1.400 . S
C211 C212 1.351 . S
C211 H228 0.930 . S
C212 N208 1.389 . S
C212 C211 1.351 . S
C212 H217 0.930 . S
O213 Cu207 1.974 . S
O213 C223 1.282 . S
C214 O215 1.261 . S
C214 O227 1.251 . S
O215 C214 1.261 . S
H216 C210 0.930 . S
H217 C212 0.930 . S
N218 Cu207 1.985 . S
N218 C220 1.335 . S
N218 C221 1.390 . S
N219 C220 1.345 . S
N219 C222 1.336 . S
C220 N218 1.335 . S
C220 N219 1.345 . S
C220 H225 0.930 . S
C221 N218 1.390 . S
C221 C222 1.346 . S
C221 H226 0.930 . S
C222 N219 1.336 . S
C222 C221 1.346 . S
C222 H229 0.929 . S
C223 O213 1.282 . S
C223 O224 1.216 . S
O224 C223 1.216 . S
H225 C220 0.930 . S
H226 C221 0.930 . S
O227 Cu207 1.959 . S
O227 C214 1.251 . S
H228 C211 0.930 . S
H229 C222 0.929 . S
Cu230 N231 1.999 . S
Cu230 O236 1.974 . S
Cu230 N241 1.985 . S
Cu230 O250 1.959 . S
N231 Cu230 1.999 . S
N231 C233 1.263 . S
N231 C235 1.389 . S
N232 C233 1.358 . S
N232 C234 1.400 . S
C233 N231 1.263 . S
C233 N232 1.358 . S
C233 H239 0.930 . S
C234 N232 1.400 . S
C234 C235 1.351 . S
C234 H251 0.930 . S
C235 N231 1.389 . S
C235 C234 1.351 . S
C235 H240 0.930 . S
O236 Cu230 1.974 . S
O236 C246 1.282 . S
C237 O238 1.261 . S
C237 O250 1.251 . S
O238 C237 1.261 . S
H239 C233 0.930 . S
H240 C235 0.930 . S
N241 Cu230 1.985 . S
N241 C243 1.335 . S
N241 C244 1.390 . S
N242 C243 1.345 . S
N242 C245 1.336 . S
C243 N241 1.335 . S
C243 N242 1.345 . S
C243 H248 0.930 . S
C244 N241 1.390 . S
C244 C245 1.346 . S
C244 H249 0.930 . S
C245 N242 1.336 . S
C245 C244 1.346 . S
C245 H252 0.929 . S
C246 O236 1.282 . S
C246 O247 1.216 . S
O247 C246 1.216 . S
H248 C243 0.930 . S
H249 C244 0.930 . S
O250 Cu230 1.959 . S
O250 C237 1.251 . S
H251 C234 0.930 . S
H252 C245 0.929 . S
Cu253 N254 1.999 . S
Cu253 O259 1.974 . S
Cu253 N264 1.985 . S
Cu253 O273 1.959 . S
N254 Cu253 1.999 . S
N254 C256 1.263 . S
N254 C258 1.389 . S
N255 C256 1.358 . S
N255 C257 1.400 . S
C256 N254 1.263 . S
C256 N255 1.358 . S
C256 H262 0.930 . S
C257 N255 1.400 . S
C257 C258 1.351 . S
C257 H274 0.930 . S
C258 N254 1.389 . S
C258 C257 1.351 . S
C258 H263 0.930 . S
O259 Cu253 1.974 . S
O259 C269 1.282 . S
C260 O261 1.261 . S
C260 O273 1.251 . S
O261 C260 1.261 . S
H262 C256 0.930 . S
H263 C258 0.930 . S
N264 Cu253 1.985 . S
N264 C266 1.335 . S
N264 C267 1.390 . S
N265 C266 1.345 . S
N265 C268 1.336 . S
C266 N264 1.335 . S
C266 N265 1.345 . S
C266 H271 0.930 . S
C267 N264 1.390 . S
C267 C268 1.346 . S
C267 H272 0.930 . S
C268 N265 1.336 . S
C268 C267 1.346 . S
C268 H275 0.929 . S
C269 O259 1.282 . S
C269 O270 1.216 . S
O270 C269 1.216 . S
H271 C266 0.930 . S
H272 C267 0.930 . S
O273 Cu253 1.959 . S
O273 C260 1.251 . S
H274 C257 0.930 . S
H275 C268 0.929 . S
Gd276 C279 2.818 . S
Gd276 O296 2.377 . S
Gd276 O298 2.448 . S
Gd276 O299 2.506 . S
Gd276 O300 2.435 . S
Gd276 O301 2.717 . S
Gd276 O303 2.395 . S
Gd276 O307 2.327 . S
Gd277 C288 2.818 . S
Gd277 O297 2.395 . S
Gd277 O301 2.327 . S
Gd277 O302 2.377 . S
Gd277 O304 2.448 . S
Gd277 O305 2.506 . S
Gd277 O306 2.435 . S
Gd277 O307 2.717 . S
C278 O296 1.240 . S
C278 O297 1.240 . S
C279 Gd276 2.818 . S
C279 C280 1.510 . S
C279 O298 1.249 . S
C279 O299 1.252 . S
C280 C279 1.510 . S
C280 C281 1.404 . S
C280 C282 1.352 . S
C281 C280 1.404 . S
C281 C285 1.389 . S
C281 H308 0.930 . S
C282 C280 1.352 . S
C282 C284 1.374 . S
C282 H309 0.931 . S
C283 C284 1.359 . S
C283 C285 1.364 . S
C284 C282 1.374 . S
C284 C283 1.359 . S
C284 H310 0.931 . S
C285 C281 1.389 . S
C285 C283 1.364 . S
C285 H311 0.931 . S
C286 O300 1.256 . S
C286 O301 1.257 . S
C287 O302 1.240 . S
C287 O303 1.240 . S
C288 Gd277 2.818 . S
C288 C289 1.510 . S
C288 O304 1.249 . S
C288 O305 1.252 . S
C289 C288 1.510 . S
C289 C290 1.404 . S
C289 C291 1.352 . S
C290 C289 1.404 . S
C290 C294 1.389 . S
C290 H312 0.930 . S
C291 C289 1.352 . S
C291 C293 1.374 . S
C291 H313 0.931 . S
C292 C293 1.359 . S
C292 C294 1.364 . S
C293 C291 1.374 . S
C293 C292 1.359 . S
C293 H314 0.931 . S
C294 C290 1.389 . S
C294 C292 1.364 . S
C294 H315 0.931 . S
C295 O306 1.256 . S
C295 O307 1.257 . S
O296 Gd276 2.377 . S
O296 C278 1.240 . S
O297 Gd277 2.395 . S
O297 C278 1.240 . S
O298 Gd276 2.448 . S
O298 C279 1.249 . S
O299 Gd276 2.506 . S
O299 C279 1.252 . S
O300 Gd276 2.435 . S
O300 C286 1.256 . S
O301 Gd276 2.717 . S
O301 Gd277 2.327 . S
O301 C286 1.257 . S
O302 Gd277 2.377 . S
O302 C287 1.240 . S
O303 Gd276 2.395 . S
O303 C287 1.240 . S
O304 Gd277 2.448 . S
O304 C288 1.249 . S
O305 Gd277 2.506 . S
O305 C288 1.252 . S
O306 Gd277 2.435 . S
O306 C295 1.256 . S
O307 Gd276 2.327 . S
O307 Gd277 2.717 . S
O307 C295 1.257 . S
H308 C281 0.930 . S
H309 C282 0.931 . S
H310 C284 0.931 . S
H311 C285 0.931 . S
H312 C290 0.930 . S
H313 C291 0.931 . S
H314 C293 0.931 . S
H315 C294 0.931 . S
Gd316 C319 2.818 . S
Gd316 O336 2.377 . S
Gd316 O338 2.448 . S
Gd316 O339 2.506 . S
Gd316 O340 2.435 . S
Gd316 O341 2.717 . S
Gd316 O343 2.395 . S
Gd316 O347 2.327 . S
Gd317 C328 2.818 . S
Gd317 O337 2.395 . S
Gd317 O341 2.327 . S
Gd317 O342 2.377 . S
Gd317 O344 2.448 . S
Gd317 O345 2.506 . S
Gd317 O346 2.435 . S
Gd317 O347 2.717 . S
C318 O336 1.240 . S
C318 O337 1.240 . S
C319 Gd316 2.818 . S
C319 C320 1.510 . S
C319 O338 1.249 . S
C319 O339 1.252 . S
C320 C319 1.510 . S
C320 C321 1.404 . S
C320 C322 1.352 . S
C321 C320 1.404 . S
C321 C325 1.389 . S
C321 H348 0.930 . S
C322 C320 1.352 . S
C322 C324 1.374 . S
C322 H349 0.931 . S
C323 C324 1.359 . S
C323 C325 1.364 . S
C324 C322 1.374 . S
C324 C323 1.359 . S
C324 H350 0.931 . S
C325 C321 1.389 . S
C325 C323 1.364 . S
C325 H351 0.931 . S
C326 O340 1.256 . S
C326 O341 1.257 . S
C327 O342 1.240 . S
C327 O343 1.240 . S
C328 Gd317 2.818 . S
C328 C329 1.510 . S
C328 O344 1.249 . S
C328 O345 1.252 . S
C329 C328 1.510 . S
C329 C330 1.404 . S
C329 C331 1.352 . S
C330 C329 1.404 . S
C330 C334 1.389 . S
C330 H352 0.930 . S
C331 C329 1.352 . S
C331 C333 1.374 . S
C331 H353 0.931 . S
C332 C333 1.359 . S
C332 C334 1.364 . S
C333 C331 1.374 . S
C333 C332 1.359 . S
C333 H354 0.931 . S
C334 C330 1.389 . S
C334 C332 1.364 . S
C334 H355 0.931 . S
C335 O346 1.256 . S
C335 O347 1.257 . S
O336 Gd316 2.377 . S
O336 C318 1.240 . S
O337 Gd317 2.395 . S
O337 C318 1.240 . S
O338 Gd316 2.448 . S
O338 C319 1.249 . S
O339 Gd316 2.506 . S
O339 C319 1.252 . S
O340 Gd316 2.435 . S
O340 C326 1.256 . S
O341 Gd316 2.717 . S
O341 Gd317 2.327 . S
O341 C326 1.257 . S
O342 Gd317 2.377 . S
O342 C327 1.240 . S
O343 Gd316 2.395 . S
O343 C327 1.240 . S
O344 Gd317 2.448 . S
O344 C328 1.249 . S
O345 Gd317 2.506 . S
O345 C328 1.252 . S
O346 Gd317 2.435 . S
O346 C335 1.256 . S
O347 Gd316 2.327 . S
O347 Gd317 2.717 . S
O347 C335 1.257 . S
H348 C321 0.930 . S
H349 C322 0.931 . S
H350 C324 0.931 . S
H351 C325 0.931 . S
H352 C330 0.930 . S
H353 C331 0.931 . S
H354 C333 0.931 . S
H355 C334 0.931 . S
Gd356 C359 2.818 . S
Gd356 O376 2.377 . S
Gd356 O378 2.448 . S
Gd356 O379 2.506 . S
Gd356 O380 2.435 . S
Gd356 O381 2.717 . S
Gd356 O383 2.395 . S
Gd356 O387 2.327 . S
Gd357 C368 2.818 . S
Gd357 O377 2.395 . S
Gd357 O381 2.327 . S
Gd357 O382 2.377 . S
Gd357 O384 2.448 . S
Gd357 O385 2.506 . S
Gd357 O386 2.435 . S
Gd357 O387 2.717 . S
C358 O376 1.240 . S
C358 O377 1.240 . S
C359 Gd356 2.818 . S
C359 C360 1.510 . S
C359 O378 1.249 . S
C359 O379 1.252 . S
C360 C359 1.510 . S
C360 C361 1.404 . S
C360 C362 1.352 . S
C361 C360 1.404 . S
C361 C365 1.389 . S
C361 H388 0.930 . S
C362 C360 1.352 . S
C362 C364 1.374 . S
C362 H389 0.931 . S
C363 C364 1.359 . S
C363 C365 1.364 . S
C364 C362 1.374 . S
C364 C363 1.359 . S
C364 H390 0.931 . S
C365 C361 1.389 . S
C365 C363 1.364 . S
C365 H391 0.931 . S
C366 O380 1.256 . S
C366 O381 1.257 . S
C367 O382 1.240 . S
C367 O383 1.240 . S
C368 Gd357 2.818 . S
C368 C369 1.510 . S
C368 O384 1.249 . S
C368 O385 1.252 . S
C369 C368 1.510 . S
C369 C370 1.404 . S
C369 C371 1.352 . S
C370 C369 1.404 . S
C370 C374 1.389 . S
C370 H392 0.930 . S
C371 C369 1.352 . S
C371 C373 1.374 . S
C371 H393 0.931 . S
C372 C373 1.359 . S
C372 C374 1.364 . S
C373 C371 1.374 . S
C373 C372 1.359 . S
C373 H394 0.931 . S
C374 C370 1.389 . S
C374 C372 1.364 . S
C374 H395 0.931 . S
C375 O386 1.256 . S
C375 O387 1.257 . S
O376 Gd356 2.377 . S
O376 C358 1.240 . S
O377 Gd357 2.395 . S
O377 C358 1.240 . S
O378 Gd356 2.448 . S
O378 C359 1.249 . S
O379 Gd356 2.506 . S
O379 C359 1.252 . S
O380 Gd356 2.435 . S
O380 C366 1.256 . S
O381 Gd356 2.717 . S
O381 Gd357 2.327 . S
O381 C366 1.257 . S
O382 Gd357 2.377 . S
O382 C367 1.240 . S
O383 Gd356 2.395 . S
O383 C367 1.240 . S
O384 Gd357 2.448 . S
O384 C368 1.249 . S
O385 Gd357 2.506 . S
O385 C368 1.252 . S
O386 Gd357 2.435 . S
O386 C375 1.256 . S
O387 Gd356 2.327 . S
O387 Gd357 2.717 . S
O387 C375 1.257 . S
H388 C361 0.930 . S
H389 C362 0.931 . S
H390 C364 0.931 . S
H391 C365 0.931 . S
H392 C370 0.930 . S
H393 C371 0.931 . S
H394 C373 0.931 . S
H395 C374 0.931 . S
Gd396 C399 2.818 . S
Gd396 O416 2.377 . S
Gd396 O418 2.448 . S
Gd396 O419 2.506 . S
Gd396 O420 2.435 . S
Gd396 O421 2.717 . S
Gd396 O423 2.395 . S
Gd396 O427 2.327 . S
Gd397 C408 2.818 . S
Gd397 O417 2.395 . S
Gd397 O421 2.327 . S
Gd397 O422 2.377 . S
Gd397 O424 2.448 . S
Gd397 O425 2.506 . S
Gd397 O426 2.435 . S
Gd397 O427 2.717 . S
C398 O416 1.240 . S
C398 O417 1.240 . S
C399 Gd396 2.818 . S
C399 C400 1.510 . S
C399 O418 1.249 . S
C399 O419 1.252 . S
C400 C399 1.510 . S
C400 C401 1.404 . S
C400 C402 1.352 . S
C401 C400 1.404 . S
C401 C405 1.389 . S
C401 H428 0.930 . S
C402 C400 1.352 . S
C402 C404 1.374 . S
C402 H429 0.931 . S
C403 C404 1.359 . S
C403 C405 1.364 . S
C404 C402 1.374 . S
C404 C403 1.359 . S
C404 H430 0.931 . S
C405 C401 1.389 . S
C405 C403 1.364 . S
C405 H431 0.931 . S
C406 O420 1.256 . S
C406 O421 1.257 . S
C407 O422 1.240 . S
C407 O423 1.240 . S
C408 Gd397 2.818 . S
C408 C409 1.510 . S
C408 O424 1.249 . S
C408 O425 1.252 . S
C409 C408 1.510 . S
C409 C410 1.404 . S
C409 C411 1.352 . S
C410 C409 1.404 . S
C410 C414 1.389 . S
C410 H432 0.930 . S
C411 C409 1.352 . S
C411 C413 1.374 . S
C411 H433 0.931 . S
C412 C413 1.359 . S
C412 C414 1.364 . S
C413 C411 1.374 . S
C413 C412 1.359 . S
C413 H434 0.931 . S
C414 C410 1.389 . S
C414 C412 1.364 . S
C414 H435 0.931 . S
C415 O426 1.256 . S
C415 O427 1.257 . S
O416 Gd396 2.377 . S
O416 C398 1.240 . S
O417 Gd397 2.395 . S
O417 C398 1.240 . S
O418 Gd396 2.448 . S
O418 C399 1.249 . S
O419 Gd396 2.506 . S
O419 C399 1.252 . S
O420 Gd396 2.435 . S
O420 C406 1.256 . S
O421 Gd396 2.717 . S
O421 Gd397 2.327 . S
O421 C406 1.257 . S
O422 Gd397 2.377 . S
O422 C407 1.240 . S
O423 Gd396 2.395 . S
O423 C407 1.240 . S
O424 Gd397 2.448 . S
O424 C408 1.249 . S
O425 Gd397 2.506 . S
O425 C408 1.252 . S
O426 Gd397 2.435 . S
O426 C415 1.256 . S
O427 Gd396 2.327 . S
O427 Gd397 2.717 . S
O427 C415 1.257 . S
H428 C401 0.930 . S
H429 C402 0.931 . S
H430 C404 0.931 . S
H431 C405 0.931 . S
H432 C410 0.930 . S
H433 C411 0.931 . S
H434 C413 0.931 . S
H435 C414 0.931 . S
Gd436 C439 2.818 . S
Gd436 O456 2.377 . S
Gd436 O458 2.448 . S
Gd436 O459 2.506 . S
Gd436 O460 2.435 . S
Gd436 O461 2.717 . S
Gd436 O463 2.395 . S
Gd436 O467 2.327 . S
Gd437 C448 2.818 . S
Gd437 O457 2.395 . S
Gd437 O461 2.327 . S
Gd437 O462 2.377 . S
Gd437 O464 2.448 . S
Gd437 O465 2.506 . S
Gd437 O466 2.435 . S
Gd437 O467 2.717 . S
C438 O456 1.240 . S
C438 O457 1.240 . S
C439 Gd436 2.818 . S
C439 C440 1.510 . S
C439 O458 1.249 . S
C439 O459 1.252 . S
C440 C439 1.510 . S
C440 C441 1.404 . S
C440 C442 1.352 . S
C441 C440 1.404 . S
C441 C445 1.389 . S
C441 H468 0.930 . S
C442 C440 1.352 . S
C442 C444 1.374 . S
C442 H469 0.931 . S
C443 C444 1.359 . S
C443 C445 1.364 . S
C444 C442 1.374 . S
C444 C443 1.359 . S
C444 H470 0.931 . S
C445 C441 1.389 . S
C445 C443 1.364 . S
C445 H471 0.931 . S
C446 O460 1.256 . S
C446 O461 1.257 . S
C447 O462 1.240 . S
C447 O463 1.240 . S
C448 Gd437 2.818 . S
C448 C449 1.510 . S
C448 O464 1.249 . S
C448 O465 1.252 . S
C449 C448 1.510 . S
C449 C450 1.404 . S
C449 C451 1.352 . S
C450 C449 1.404 . S
C450 C454 1.389 . S
C450 H472 0.930 . S
C451 C449 1.352 . S
C451 C453 1.374 . S
C451 H473 0.931 . S
C452 C453 1.359 . S
C452 C454 1.364 . S
C453 C451 1.374 . S
C453 C452 1.359 . S
C453 H474 0.931 . S
C454 C450 1.389 . S
C454 C452 1.364 . S
C454 H475 0.931 . S
C455 O466 1.256 . S
C455 O467 1.257 . S
O456 Gd436 2.377 . S
O456 C438 1.240 . S
O457 Gd437 2.395 . S
O457 C438 1.240 . S
O458 Gd436 2.448 . S
O458 C439 1.249 . S
O459 Gd436 2.506 . S
O459 C439 1.252 . S
O460 Gd436 2.435 . S
O460 C446 1.256 . S
O461 Gd436 2.717 . S
O461 Gd437 2.327 . S
O461 C446 1.257 . S
O462 Gd437 2.377 . S
O462 C447 1.240 . S
O463 Gd436 2.395 . S
O463 C447 1.240 . S
O464 Gd437 2.448 . S
O464 C448 1.249 . S
O465 Gd437 2.506 . S
O465 C448 1.252 . S
O466 Gd437 2.435 . S
O466 C455 1.256 . S
O467 Gd436 2.327 . S
O467 Gd437 2.717 . S
O467 C455 1.257 . S
H468 C441 0.930 . S
H469 C442 0.931 . S
H470 C444 0.931 . S
H471 C445 0.931 . S
H472 C450 0.930 . S
H473 C451 0.931 . S
H474 C453 0.931 . S
H475 C454 0.931 . S
Gd476 C479 2.818 . S
Gd476 O496 2.377 . S
Gd476 O498 2.448 . S
Gd476 O499 2.506 . S
Gd476 O500 2.435 . S
Gd476 O501 2.717 . S
Gd476 O503 2.395 . S
Gd476 O507 2.327 . S
Gd477 C488 2.818 . S
Gd477 O497 2.395 . S
Gd477 O501 2.327 . S
Gd477 O502 2.377 . S
Gd477 O504 2.448 . S
Gd477 O505 2.506 . S
Gd477 O506 2.435 . S
Gd477 O507 2.717 . S
C478 O496 1.240 . S
C478 O497 1.240 . S
C479 Gd476 2.818 . S
C479 C480 1.510 . S
C479 O498 1.249 . S
C479 O499 1.252 . S
C480 C479 1.510 . S
C480 C481 1.404 . S
C480 C482 1.352 . S
C481 C480 1.404 . S
C481 C485 1.389 . S
C481 H508 0.930 . S
C482 C480 1.352 . S
C482 C484 1.374 . S
C482 H509 0.931 . S
C483 C484 1.359 . S
C483 C485 1.364 . S
C484 C482 1.374 . S
C484 C483 1.359 . S
C484 H510 0.931 . S
C485 C481 1.389 . S
C485 C483 1.364 . S
C485 H511 0.931 . S
C486 O500 1.256 . S
C486 O501 1.257 . S
C487 O502 1.240 . S
C487 O503 1.240 . S
C488 Gd477 2.818 . S
C488 C489 1.510 . S
C488 O504 1.249 . S
C488 O505 1.252 . S
C489 C488 1.510 . S
C489 C490 1.404 . S
C489 C491 1.352 . S
C490 C489 1.404 . S
C490 C494 1.389 . S
C490 H512 0.930 . S
C491 C489 1.352 . S
C491 C493 1.374 . S
C491 H513 0.931 . S
C492 C493 1.359 . S
C492 C494 1.364 . S
C493 C491 1.374 . S
C493 C492 1.359 . S
C493 H514 0.931 . S
C494 C490 1.389 . S
C494 C492 1.364 . S
C494 H515 0.931 . S
C495 O506 1.256 . S
C495 O507 1.257 . S
O496 Gd476 2.377 . S
O496 C478 1.240 . S
O497 Gd477 2.395 . S
O497 C478 1.240 . S
O498 Gd476 2.448 . S
O498 C479 1.249 . S
O499 Gd476 2.506 . S
O499 C479 1.252 . S
O500 Gd476 2.435 . S
O500 C486 1.256 . S
O501 Gd476 2.717 . S
O501 Gd477 2.327 . S
O501 C486 1.257 . S
O502 Gd477 2.377 . S
O502 C487 1.240 . S
O503 Gd476 2.395 . S
O503 C487 1.240 . S
O504 Gd477 2.448 . S
O504 C488 1.249 . S
O505 Gd477 2.506 . S
O505 C488 1.252 . S
O506 Gd477 2.435 . S
O506 C495 1.256 . S
O507 Gd476 2.327 . S
O507 Gd477 2.717 . S
O507 C495 1.257 . S
H508 C481 0.930 . S
H509 C482 0.931 . S
H510 C484 0.931 . S
H511 C485 0.931 . S
H512 C490 0.930 . S
H513 C491 0.931 . S
H514 C493 0.931 . S
H515 C494 0.931 . S
Gd516 C519 2.818 . S
Gd516 O536 2.377 . S
Gd516 O538 2.448 . S
Gd516 O539 2.506 . S
Gd516 O540 2.435 . S
Gd516 O541 2.717 . S
Gd516 O543 2.395 . S
Gd516 O547 2.327 . S
Gd517 C528 2.818 . S
Gd517 O537 2.395 . S
Gd517 O541 2.327 . S
Gd517 O542 2.377 . S
Gd517 O544 2.448 . S
Gd517 O545 2.506 . S
Gd517 O546 2.435 . S
Gd517 O547 2.717 . S
C518 O536 1.240 . S
C518 O537 1.240 . S
C519 Gd516 2.818 . S
C519 C520 1.510 . S
C519 O538 1.249 . S
C519 O539 1.252 . S
C520 C519 1.510 . S
C520 C521 1.404 . S
C520 C522 1.352 . S
C521 C520 1.404 . S
C521 C525 1.389 . S
C521 H548 0.930 . S
C522 C520 1.352 . S
C522 C524 1.374 . S
C522 H549 0.931 . S
C523 C524 1.359 . S
C523 C525 1.364 . S
C524 C522 1.374 . S
C524 C523 1.359 . S
C524 H550 0.931 . S
C525 C521 1.389 . S
C525 C523 1.364 . S
C525 H551 0.931 . S
C526 O540 1.256 . S
C526 O541 1.257 . S
C527 O542 1.240 . S
C527 O543 1.240 . S
C528 Gd517 2.818 . S
C528 C529 1.510 . S
C528 O544 1.249 . S
C528 O545 1.252 . S
C529 C528 1.510 . S
C529 C530 1.404 . S
C529 C531 1.352 . S
C530 C529 1.404 . S
C530 C534 1.389 . S
C530 H552 0.930 . S
C531 C529 1.352 . S
C531 C533 1.374 . S
C531 H553 0.931 . S
C532 C533 1.359 . S
C532 C534 1.364 . S
C533 C531 1.374 . S
C533 C532 1.359 . S
C533 H554 0.931 . S
C534 C530 1.389 . S
C534 C532 1.364 . S
C534 H555 0.931 . S
C535 O546 1.256 . S
C535 O547 1.257 . S
O536 Gd516 2.377 . S
O536 C518 1.240 . S
O537 Gd517 2.395 . S
O537 C518 1.240 . S
O538 Gd516 2.448 . S
O538 C519 1.249 . S
O539 Gd516 2.506 . S
O539 C519 1.252 . S
O540 Gd516 2.435 . S
O540 C526 1.256 . S
O541 Gd516 2.717 . S
O541 Gd517 2.327 . S
O541 C526 1.257 . S
O542 Gd517 2.377 . S
O542 C527 1.240 . S
O543 Gd516 2.395 . S
O543 C527 1.240 . S
O544 Gd517 2.448 . S
O544 C528 1.249 . S
O545 Gd517 2.506 . S
O545 C528 1.252 . S
O546 Gd517 2.435 . S
O546 C535 1.256 . S
O547 Gd516 2.327 . S
O547 Gd517 2.717 . S
O547 C535 1.257 . S
H548 C521 0.930 . S
H549 C522 0.931 . S
H550 C524 0.931 . S
H551 C525 0.931 . S
H552 C530 0.930 . S
H553 C531 0.931 . S
H554 C533 0.931 . S
H555 C534 0.931 . S
Gd556 C559 2.818 . S
Gd556 O576 2.377 . S
Gd556 O578 2.448 . S
Gd556 O579 2.506 . S
Gd556 O580 2.435 . S
Gd556 O581 2.717 . S
Gd556 O583 2.395 . S
Gd556 O587 2.327 . S
Gd557 C568 2.818 . S
Gd557 O577 2.395 . S
Gd557 O581 2.327 . S
Gd557 O582 2.377 . S
Gd557 O584 2.448 . S
Gd557 O585 2.506 . S
Gd557 O586 2.435 . S
Gd557 O587 2.717 . S
C558 O576 1.240 . S
C558 O577 1.240 . S
C559 Gd556 2.818 . S
C559 C560 1.510 . S
C559 O578 1.249 . S
C559 O579 1.252 . S
C560 C559 1.510 . S
C560 C561 1.404 . S
C560 C562 1.352 . S
C561 C560 1.404 . S
C561 C565 1.389 . S
C561 H588 0.930 . S
C562 C560 1.352 . S
C562 C564 1.374 . S
C562 H589 0.931 . S
C563 C564 1.359 . S
C563 C565 1.364 . S
C564 C562 1.374 . S
C564 C563 1.359 . S
C564 H590 0.931 . S
C565 C561 1.389 . S
C565 C563 1.364 . S
C565 H591 0.931 . S
C566 O580 1.256 . S
C566 O581 1.257 . S
C567 O582 1.240 . S
C567 O583 1.240 . S
C568 Gd557 2.818 . S
C568 C569 1.510 . S
C568 O584 1.249 . S
C568 O585 1.252 . S
C569 C568 1.510 . S
C569 C570 1.404 . S
C569 C571 1.352 . S
C570 C569 1.404 . S
C570 C574 1.389 . S
C570 H592 0.930 . S
C571 C569 1.352 . S
C571 C573 1.374 . S
C571 H593 0.931 . S
C572 C573 1.359 . S
C572 C574 1.364 . S
C573 C571 1.374 . S
C573 C572 1.359 . S
C573 H594 0.931 . S
C574 C570 1.389 . S
C574 C572 1.364 . S
C574 H595 0.931 . S
C575 O586 1.256 . S
C575 O587 1.257 . S
O576 Gd556 2.377 . S
O576 C558 1.240 . S
O577 Gd557 2.395 . S
O577 C558 1.240 . S
O578 Gd556 2.448 . S
O578 C559 1.249 . S
O579 Gd556 2.506 . S
O579 C559 1.252 . S
O580 Gd556 2.435 . S
O580 C566 1.256 . S
O581 Gd556 2.717 . S
O581 Gd557 2.327 . S
O581 C566 1.257 . S
O582 Gd557 2.377 . S
O582 C567 1.240 . S
O583 Gd556 2.395 . S
O583 C567 1.240 . S
O584 Gd557 2.448 . S
O584 C568 1.249 . S
O585 Gd557 2.506 . S
O585 C568 1.252 . S
O586 Gd557 2.435 . S
O586 C575 1.256 . S
O587 Gd556 2.327 . S
O587 Gd557 2.717 . S
O587 C575 1.257 . S
H588 C561 0.930 . S
H589 C562 0.931 . S
H590 C564 0.931 . S
H591 C565 0.931 . S
H592 C570 0.930 . S
H593 C571 0.931 . S
H594 C573 0.931 . S
H595 C574 0.931 . S
H596 C604 0.950 . S
H597 C609 0.950 . S
H598 C606 0.950 . S
H599 C608 0.950 . S
H600 C610 0.950 . S
H601 C612 0.950 . S
H602 C614 0.950 . S
H603 C615 0.950 . S
C604 H596 0.950 . S
C604 C605 1.386 . S
C604 C606 1.391 . S
C605 C604 1.386 . S
C605 C609 1.393 . S
C606 H598 0.950 . S
C606 C604 1.391 . S
C606 C607 1.400 . S
C607 C606 1.400 . S
C607 C608 1.398 . S
C607 C613 1.491 . S
C608 H599 0.950 . S
C608 C607 1.398 . S
C608 C609 1.391 . S
C609 H597 0.950 . S
C609 C605 1.393 . S
C609 C608 1.391 . S
C610 H600 0.950 . S
C610 C611 1.386 . S
C610 C612 1.391 . S
C611 C610 1.386 . S
C611 C615 1.393 . S
C612 H601 0.950 . S
C612 C610 1.391 . S
C612 C613 1.400 . S
C613 C607 1.491 . S
C613 C612 1.400 . S
C613 C614 1.398 . S
C614 H602 0.950 . S
C614 C613 1.398 . S
C614 C615 1.391 . S
C615 H603 0.950 . S
C615 C611 1.393 . S
C615 C614 1.391 . S
H616 C624 0.950 . S
H617 C629 0.950 . S
H618 C626 0.950 . S
H619 C628 0.950 . S
H620 C630 0.950 . S
H621 C632 0.950 . S
H622 C634 0.950 . S
H623 C635 0.950 . S
C624 H616 0.950 . S
C624 C625 1.386 . S
C624 C626 1.391 . S
C625 C624 1.386 . S
C625 C629 1.393 . S
C626 H618 0.950 . S
C626 C624 1.391 . S
C626 C627 1.400 . S
C627 C626 1.400 . S
C627 C628 1.398 . S
C627 C633 1.491 . S
C628 H619 0.950 . S
C628 C627 1.398 . S
C628 C629 1.391 . S
C629 H617 0.950 . S
C629 C625 1.393 . S
C629 C628 1.391 . S
C630 H620 0.950 . S
C630 C631 1.386 . S
C630 C632 1.391 . S
C631 C630 1.386 . S
C631 C635 1.393 . S
C632 H621 0.950 . S
C632 C630 1.391 . S
C632 C633 1.400 . S
C633 C627 1.491 . S
C633 C632 1.400 . S
C633 C634 1.398 . S
C634 H622 0.950 . S
C634 C633 1.398 . S
C634 C635 1.391 . S
C635 H623 0.950 . S
C635 C631 1.393 . S
C635 C634 1.391 . S
H636 C644 0.950 . S
H637 C649 0.950 . S
H638 C646 0.950 . S
H639 C648 0.950 . S
H640 C650 0.950 . S
H641 C652 0.950 . S
H642 C654 0.950 . S
H643 C655 0.950 . S
C644 H636 0.950 . S
C644 C645 1.386 . S
C644 C646 1.391 . S
C645 C644 1.386 . S
C645 C649 1.393 . S
C646 H638 0.950 . S
C646 C644 1.391 . S
C646 C647 1.400 . S
C647 C646 1.400 . S
C647 C648 1.398 . S
C647 C653 1.491 . S
C648 H639 0.950 . S
C648 C647 1.398 . S
C648 C649 1.391 . S
C649 H637 0.950 . S
C649 C645 1.393 . S
C649 C648 1.391 . S
C650 H640 0.950 . S
C650 C651 1.386 . S
C650 C652 1.391 . S
C651 C650 1.386 . S
C651 C655 1.393 . S
C652 H641 0.950 . S
C652 C650 1.391 . S
C652 C653 1.400 . S
C653 C647 1.491 . S
C653 C652 1.400 . S
C653 C654 1.398 . S
C654 H642 0.950 . S
C654 C653 1.398 . S
C654 C655 1.391 . S
C655 H643 0.950 . S
C655 C651 1.393 . S
C655 C654 1.391 . S
H656 C664 0.950 . S
H657 C669 0.950 . S
H658 C666 0.950 . S
H659 C668 0.950 . S
H660 C670 0.950 . S
H661 C672 0.950 . S
H662 C674 0.950 . S
H663 C675 0.950 . S
C664 H656 0.950 . S
C664 C665 1.386 . S
C664 C666 1.391 . S
C665 C664 1.386 . S
C665 C669 1.393 . S
C666 H658 0.950 . S
C666 C664 1.391 . S
C666 C667 1.400 . S
C667 C666 1.400 . S
C667 C668 1.398 . S
C667 C673 1.491 . S
C668 H659 0.950 . S
C668 C667 1.398 . S
C668 C669 1.391 . S
C669 H657 0.950 . S
C669 C665 1.393 . S
C669 C668 1.391 . S
C670 H660 0.950 . S
C670 C671 1.386 . S
C670 C672 1.391 . S
C671 C670 1.386 . S
C671 C675 1.393 . S
C672 H661 0.950 . S
C672 C670 1.391 . S
C672 C673 1.400 . S
C673 C667 1.491 . S
C673 C672 1.400 . S
C673 C674 1.398 . S
C674 H662 0.950 . S
C674 C673 1.398 . S
C674 C675 1.391 . S
C675 H663 0.950 . S
C675 C671 1.393 . S
C675 C674 1.391 . S
H676 C684 0.950 . S
H677 C689 0.950 . S
H678 C686 0.950 . S
H679 C688 0.950 . S
H680 C690 0.950 . S
H681 C692 0.950 . S
H682 C694 0.950 . S
H683 C695 0.950 . S
C684 H676 0.950 . S
C684 C685 1.386 . S
C684 C686 1.391 . S
C685 C684 1.386 . S
C685 C689 1.393 . S
C686 H678 0.950 . S
C686 C684 1.391 . S
C686 C687 1.400 . S
C687 C686 1.400 . S
C687 C688 1.398 . S
C687 C693 1.491 . S
C688 H679 0.950 . S
C688 C687 1.398 . S
C688 C689 1.391 . S
C689 H677 0.950 . S
C689 C685 1.393 . S
C689 C688 1.391 . S
C690 H680 0.950 . S
C690 C691 1.386 . S
C690 C692 1.391 . S
C691 C690 1.386 . S
C691 C695 1.393 . S
C692 H681 0.950 . S
C692 C690 1.391 . S
C692 C693 1.400 . S
C693 C687 1.491 . S
C693 C692 1.400 . S
C693 C694 1.398 . S
C694 H682 0.950 . S
C694 C693 1.398 . S
C694 C695 1.391 . S
C695 H683 0.950 . S
C695 C691 1.393 . S
C695 C694 1.391 . S
H696 C704 0.950 . S
H697 C709 0.950 . S
H698 C706 0.950 . S
H699 C708 0.950 . S
H700 C710 0.950 . S
H701 C712 0.950 . S
H702 C714 0.950 . S
H703 C715 0.950 . S
C704 H696 0.950 . S
C704 C705 1.386 . S
C704 C706 1.391 . S
C705 C704 1.386 . S
C705 C709 1.393 . S
C706 H698 0.950 . S
C706 C704 1.391 . S
C706 C707 1.400 . S
C707 C706 1.400 . S
C707 C708 1.398 . S
C707 C713 1.491 . S
C708 H699 0.950 . S
C708 C707 1.398 . S
C708 C709 1.391 . S
C709 H697 0.950 . S
C709 C705 1.393 . S
C709 C708 1.391 . S
C710 H700 0.950 . S
C710 C711 1.386 . S
C710 C712 1.391 . S
C711 C710 1.386 . S
C711 C715 1.393 . S
C712 H701 0.950 . S
C712 C710 1.391 . S
C712 C713 1.400 . S
C713 C707 1.491 . S
C713 C712 1.400 . S
C713 C714 1.398 . S
C714 H702 0.950 . S
C714 C713 1.398 . S
C714 C715 1.391 . S
C715 H703 0.950 . S
C715 C711 1.393 . S
C715 C714 1.391 . S
H716 C724 0.950 . S
H717 C729 0.950 . S
H718 C726 0.950 . S
H719 C728 0.950 . S
H720 C730 0.950 . S
H721 C732 0.950 . S
H722 C734 0.950 . S
H723 C735 0.950 . S
C724 H716 0.950 . S
C724 C725 1.386 . S
C724 C726 1.391 . S
C725 C724 1.386 . S
C725 C729 1.393 . S
C726 H718 0.950 . S
C726 C724 1.391 . S
C726 C727 1.400 . S
C727 C726 1.400 . S
C727 C728 1.398 . S
C727 C733 1.491 . S
C728 H719 0.950 . S
C728 C727 1.398 . S
C728 C729 1.391 . S
C729 H717 0.950 . S
C729 C725 1.393 . S
C729 C728 1.391 . S
C730 H720 0.950 . S
C730 C731 1.386 . S
C730 C732 1.391 . S
C731 C730 1.386 . S
C731 C735 1.393 . S
C732 H721 0.950 . S
C732 C730 1.391 . S
C732 C733 1.400 . S
C733 C727 1.491 . S
C733 C732 1.400 . S
C733 C734 1.398 . S
C734 H722 0.950 . S
C734 C733 1.398 . S
C734 C735 1.391 . S
C735 H723 0.950 . S
C735 C731 1.393 . S
C735 C734 1.391 . S
H736 C744 0.950 . S
H737 C749 0.950 . S
H738 C746 0.950 . S
H739 C748 0.950 . S
H740 C750 0.950 . S
H741 C752 0.950 . S
H742 C754 0.950 . S
H743 C755 0.950 . S
C744 H736 0.950 . S
C744 C745 1.386 . S
C744 C746 1.391 . S
C745 C744 1.386 . S
C745 C749 1.393 1_565 S
C746 H738 0.950 . S
C746 C744 1.391 . S
C746 C747 1.400 . S
C747 C746 1.400 . S
C747 C748 1.398 . S
C747 C753 1.491 . S
C748 H739 0.950 . S
C748 C747 1.398 . S
C748 C749 1.391 1_565 S
C749 H737 0.950 . S
C749 C745 1.393 1_545 S
C749 C748 1.391 1_545 S
C750 H740 0.950 . S
C750 C751 1.386 . S
C750 C752 1.391 . S
C751 C750 1.386 . S
C751 C755 1.393 . S
C752 H741 0.950 . S
C752 C750 1.391 . S
C752 C753 1.400 . S
C753 C747 1.491 . S
C753 C752 1.400 . S
C753 C754 1.398 . S
C754 H742 0.950 . S
C754 C753 1.398 . S
C754 C755 1.391 . S
C755 H743 0.950 . S
C755 C751 1.393 . S
C755 C754 1.391 . S
H756 C764 0.950 . S
H757 C769 0.950 . S
H758 C766 0.950 . S
H759 C768 0.950 . S
H760 C770 0.950 . S
H761 C772 0.950 . S
H762 C774 0.950 . S
H763 C775 0.950 . S
C764 H756 0.950 . S
C764 C765 1.386 . S
C764 C766 1.391 . S
C765 C764 1.386 . S
C765 C769 1.393 . S
C766 H758 0.950 . S
C766 C764 1.391 . S
C766 C767 1.400 . S
C767 C766 1.400 . S
C767 C768 1.398 . S
C767 C773 1.491 . S
C768 H759 0.950 . S
C768 C767 1.398 . S
C768 C769 1.391 . S
C769 H757 0.950 . S
C769 C765 1.393 . S
C769 C768 1.391 . S
C770 H760 0.950 . S
C770 C771 1.386 . S
C770 C772 1.391 . S
C771 C770 1.386 . S
C771 C775 1.393 . S
C772 H761 0.950 . S
C772 C770 1.391 . S
C772 C773 1.400 . S
C773 C767 1.491 . S
C773 C772 1.400 . S
C773 C774 1.398 . S
C774 H762 0.950 . S
C774 C773 1.398 . S
C774 C775 1.391 . S
C775 H763 0.950 . S
C775 C771 1.393 . S
C775 C774 1.391 . S
H776 C784 0.950 . S
H777 C789 0.950 . S
H778 C786 0.950 . S
H779 C788 0.950 . S
H780 C790 0.950 . S
H781 C792 0.950 . S
H782 C794 0.950 . S
H783 C795 0.950 . S
C784 H776 0.950 . S
C784 C785 1.386 . S
C784 C786 1.391 . S
C785 C784 1.386 . S
C785 C789 1.393 . S
C786 H778 0.950 . S
C786 C784 1.391 . S
C786 C787 1.400 . S
C787 C786 1.400 . S
C787 C788 1.398 . S
C787 C793 1.491 . S
C788 H779 0.950 . S
C788 C787 1.398 . S
C788 C789 1.391 . S
C789 H777 0.950 . S
C789 C785 1.393 . S
C789 C788 1.391 . S
C790 H780 0.950 . S
C790 C791 1.386 . S
C790 C792 1.391 . S
C791 C790 1.386 . S
C791 C795 1.393 . S
C792 H781 0.950 . S
C792 C790 1.391 . S
C792 C793 1.400 . S
C793 C787 1.491 . S
C793 C792 1.400 . S
C793 C794 1.398 . S
C794 H782 0.950 . S
C794 C793 1.398 . S
C794 C795 1.391 . S
C795 H783 0.950 . S
C795 C791 1.393 . S
C795 C794 1.391 . S
H796 C804 0.950 . S
H797 C809 0.950 . S
H798 C806 0.950 . S
H799 C808 0.950 . S
H800 C810 0.950 . S
H801 C812 0.950 . S
H802 C814 0.950 . S
H803 C815 0.950 . S
C804 H796 0.950 . S
C804 C805 1.386 . S
C804 C806 1.391 . S
C805 C804 1.386 . S
C805 C809 1.393 . S
C806 H798 0.950 . S
C806 C804 1.391 . S
C806 C807 1.400 . S
C807 C806 1.400 . S
C807 C808 1.398 . S
C807 C813 1.491 . S
C808 H799 0.950 . S
C808 C807 1.398 . S
C808 C809 1.391 . S
C809 H797 0.950 . S
C809 C805 1.393 . S
C809 C808 1.391 . S
C810 H800 0.950 . S
C810 C811 1.386 . S
C810 C812 1.391 . S
C811 C810 1.386 . S
C811 C815 1.393 . S
C812 H801 0.950 . S
C812 C810 1.391 . S
C812 C813 1.400 . S
C813 C807 1.491 . S
C813 C812 1.400 . S
C813 C814 1.398 . S
C814 H802 0.950 . S
C814 C813 1.398 . S
C814 C815 1.391 . S
C815 H803 0.950 . S
C815 C811 1.393 . S
C815 C814 1.391 . S
H816 C824 0.950 . S
H817 C829 0.950 . S
H818 C826 0.950 . S
H819 C828 0.950 . S
H820 C830 0.950 . S
H821 C832 0.950 . S
H822 C834 0.950 . S
H823 C835 0.950 . S
C824 H816 0.950 . S
C824 C825 1.386 . S
C824 C826 1.391 . S
C825 C824 1.386 . S
C825 C829 1.393 . S
C826 H818 0.950 . S
C826 C824 1.391 . S
C826 C827 1.400 . S
C827 C826 1.400 . S
C827 C828 1.398 . S
C827 C833 1.491 . S
C828 H819 0.950 . S
C828 C827 1.398 . S
C828 C829 1.391 . S
C829 H817 0.950 . S
C829 C825 1.393 . S
C829 C828 1.391 . S
C830 H820 0.950 . S
C830 C831 1.386 . S
C830 C832 1.391 . S
C831 C830 1.386 . S
C831 C835 1.393 . S
C832 H821 0.950 . S
C832 C830 1.391 . S
C832 C833 1.400 . S
C833 C827 1.491 . S
C833 C832 1.400 . S
C833 C834 1.398 . S
C834 H822 0.950 . S
C834 C833 1.398 . S
C834 C835 1.391 . S
C835 H823 0.950 . S
C835 C831 1.393 . S
C835 C834 1.391 . S
H836 C844 0.950 . S
H837 C849 0.950 1_545 S
H838 C846 0.950 . S
H839 C848 0.965 . S
H840 C850 0.950 . S
H841 C852 0.950 . S
H842 C854 0.950 . S
H843 C855 0.950 . S
C844 H836 0.950 . S
C844 C845 1.386 . S
C844 C846 1.391 . S
C845 C844 1.386 . S
C845 C849 1.393 . S
C846 H838 0.950 . S
C846 C844 1.391 . S
C846 C847 1.400 1_554 S
C847 C846 1.400 1_556 S
C847 C848 1.401 . S
C847 C853 1.491 . S
C848 H839 0.965 . S
C848 C847 1.401 . S
C848 C849 1.374 1_556 S
C849 H837 0.950 1_565 S
C849 C845 1.393 . S
C849 C848 1.374 1_554 S
C850 H840 0.950 . S
C850 C851 1.386 . S
C850 C852 1.391 . S
C851 C850 1.386 . S
C851 C855 1.393 . S
C852 H841 0.950 . S
C852 C850 1.391 . S
C852 C853 1.400 . S
C853 C847 1.491 . S
C853 C852 1.400 . S
C853 C854 1.398 . S
C854 H842 0.950 . S
C854 C853 1.398 . S
C854 C855 1.391 . S
C855 H843 0.950 . S
C855 C851 1.393 . S
C855 C854 1.391 . S
H856 C864 0.950 . S
H857 C869 0.950 . S
H858 C866 0.950 . S
H859 C868 0.950 . S
H860 C870 0.950 . S
H861 C872 0.950 . S
H862 C874 0.950 . S
H863 C875 0.950 . S
C864 H856 0.950 . S
C864 C865 1.386 . S
C864 C866 1.391 . S
C865 C864 1.386 . S
C865 C869 1.393 . S
C866 H858 0.950 . S
C866 C864 1.391 . S
C866 C867 1.400 . S
C867 C866 1.400 . S
C867 C868 1.398 . S
C867 C873 1.491 . S
C868 H859 0.950 . S
C868 C867 1.398 . S
C868 C869 1.391 . S
C869 H857 0.950 . S
C869 C865 1.393 . S
C869 C868 1.391 . S
C870 H860 0.950 . S
C870 C871 1.386 . S
C870 C872 1.391 . S
C871 C870 1.386 . S
C871 C875 1.393 . S
C872 H861 0.950 . S
C872 C870 1.391 . S
C872 C873 1.400 . S
C873 C867 1.491 . S
C873 C872 1.400 . S
C873 C874 1.398 . S
C874 H862 0.950 . S
C874 C873 1.398 . S
C874 C875 1.391 . S
C875 H863 0.950 . S
C875 C871 1.393 . S
C875 C874 1.391 . S
H876 C884 0.950 . S
H877 C889 0.950 . S
H878 C886 0.950 . S
H879 C888 0.950 . S
H880 C890 0.950 . S
H881 C892 0.950 . S
H882 C894 0.950 . S
H883 C895 0.950 . S
C884 H876 0.950 . S
C884 C885 1.386 . S
C884 C886 1.391 . S
C885 C884 1.386 . S
C885 C889 1.393 . S
C886 H878 0.950 . S
C886 C884 1.391 . S
C886 C887 1.400 . S
C887 C886 1.400 . S
C887 C888 1.398 . S
C887 C893 1.491 . S
C888 H879 0.950 . S
C888 C887 1.398 . S
C888 C889 1.391 . S
C889 H877 0.950 . S
C889 C885 1.393 . S
C889 C888 1.391 . S
C890 H880 0.950 . S
C890 C891 1.386 . S
C890 C892 1.391 . S
C891 C890 1.386 . S
C891 C895 1.393 . S
C892 H881 0.950 . S
C892 C890 1.391 . S
C892 C893 1.400 . S
C893 C887 1.491 . S
C893 C892 1.400 . S
C893 C894 1.398 . S
C894 H882 0.950 . S
C894 C893 1.398 . S
C894 C895 1.391 . S
C895 H883 0.950 . S
C895 C891 1.393 . S
C895 C894 1.391 . S
H896 C904 0.950 . S
H897 C909 0.950 . S
H898 C906 0.950 . S
H899 C908 0.950 . S
H900 C910 0.950 . S
H901 C912 0.950 . S
H902 C914 0.950 . S
H903 C915 0.950 . S
C904 H896 0.950 . S
C904 C905 1.386 . S
C904 C906 1.391 . S
C905 C904 1.386 . S
C905 C909 1.393 . S
C906 H898 0.950 . S
C906 C904 1.391 . S
C906 C907 1.400 . S
C907 C906 1.400 . S
C907 C908 1.398 . S
C907 C913 1.491 . S
C908 H899 0.950 . S
C908 C907 1.398 . S
C908 C909 1.391 . S
C909 H897 0.950 . S
C909 C905 1.393 . S
C909 C908 1.391 . S
C910 H900 0.950 . S
C910 C911 1.386 . S
C910 C912 1.391 . S
C911 C910 1.386 . S
C911 C915 1.393 . S
C912 H901 0.950 . S
C912 C910 1.391 . S
C912 C913 1.400 . S
C913 C907 1.491 . S
C913 C912 1.400 . S
C913 C914 1.398 . S
C914 H902 0.950 . S
C914 C913 1.398 . S
C914 C915 1.391 . S
C915 H903 0.950 . S
C915 C911 1.393 . S
C915 C914 1.391 . S
H916 C924 0.950 . S
H917 C929 0.950 . S
H918 C926 0.950 . S
H919 C928 0.950 . S
H920 C930 0.950 . S
H921 C932 0.950 . S
H922 C934 0.950 . S
H923 C935 0.950 . S
C924 H916 0.950 . S
C924 C925 1.386 . S
C924 C926 1.391 . S
C925 C924 1.386 . S
C925 C929 1.393 . S
C926 H918 0.950 . S
C926 C924 1.391 . S
C926 C927 1.400 . S
C927 C926 1.400 . S
C927 C928 1.398 . S
C927 C933 1.491 . S
C928 H919 0.950 . S
C928 C927 1.398 . S
C928 C929 1.391 . S
C929 H917 0.950 . S
C929 C925 1.393 . S
C929 C928 1.391 . S
C930 H920 0.950 . S
C930 C931 1.386 . S
C930 C932 1.391 . S
C931 C930 1.386 . S
C931 C935 1.393 . S
C932 H921 0.950 . S
C932 C930 1.391 . S
C932 C933 1.400 . S
C933 C927 1.491 . S
C933 C932 1.400 . S
C933 C934 1.398 . S
C934 H922 0.950 . S
C934 C933 1.398 . S
C934 C935 1.391 . S
C935 H923 0.950 . S
C935 C931 1.393 . S
C935 C934 1.391 . S
H936 C944 0.950 . S
H937 C949 0.950 . S
H938 C946 0.950 . S
H939 C948 0.950 . S
H940 C950 0.950 . S
H941 C952 0.950 . S
H942 C954 0.950 . S
H943 C955 0.950 . S
C944 H936 0.950 . S
C944 C945 1.386 . S
C944 C946 1.391 . S
C945 C944 1.386 . S
C945 C949 1.393 . S
C946 H938 0.950 . S
C946 C944 1.391 . S
C946 C947 1.400 . S
C947 C946 1.400 . S
C947 C948 1.398 . S
C947 C953 1.491 . S
C948 H939 0.950 . S
C948 C947 1.398 . S
C948 C949 1.391 . S
C949 H937 0.950 . S
C949 C945 1.393 . S
C949 C948 1.391 . S
C950 H940 0.950 . S
C950 C951 1.386 . S
C950 C952 1.391 . S
C951 C950 1.386 . S
C951 C955 1.393 . S
C952 H941 0.950 . S
C952 C950 1.391 . S
C952 C953 1.400 . S
C953 C947 1.491 . S
C953 C952 1.400 . S
C953 C954 1.398 . S
C954 H942 0.950 . S
C954 C953 1.398 . S
C954 C955 1.391 . S
C955 H943 0.950 . S
C955 C951 1.393 . S
C955 C954 1.391 . S
H956 C964 0.950 . S
H957 C969 0.948 1_554 S
H958 C966 0.950 . S
H959 C968 0.950 . S
H960 C970 0.950 . S
H961 C972 0.950 . S
H962 C974 0.950 . S
H963 C975 0.950 . S
C964 H956 0.950 . S
C964 C965 1.386 . S
C964 C966 1.391 1_554 S
C965 C964 1.386 . S
C965 C969 1.393 1_554 S
C966 H958 0.950 . S
C966 C964 1.391 1_556 S
C966 C967 1.400 . S
C967 C966 1.400 . S
C967 C968 1.398 . S
C967 C973 1.491 . S
C968 H959 0.950 . S
C968 C967 1.398 . S
C968 C969 1.391 . S
C969 H957 0.948 1_556 S
C969 C965 1.393 1_556 S
C969 C968 1.391 . S
C970 H960 0.950 . S
C970 C971 1.386 . S
C970 C972 1.391 . S
C971 C970 1.386 . S
C971 C975 1.393 . S
C972 H961 0.950 . S
C972 C970 1.391 . S
C972 C973 1.400 . S
C973 C967 1.491 . S
C973 C972 1.400 . S
C973 C974 1.398 . S
C974 H962 0.950 . S
C974 C973 1.398 . S
C974 C975 1.391 . S
C975 H963 0.950 . S
C975 C971 1.393 . S
C975 C974 1.391 . S
H976 C984 0.950 . S
H977 C989 0.950 . S
H978 C986 0.950 . S
H979 C988 0.950 . S
H980 C990 0.950 . S
H981 C992 0.950 1_554 S
H982 C994 0.950 . S
H983 C995 0.950 . S
C984 H976 0.950 . S
C984 C985 1.386 1_556 S
C984 C986 1.391 . S
C985 C984 1.386 1_554 S
C985 C989 1.393 . S
C986 H978 0.950 . S
C986 C984 1.391 . S
C986 C987 1.400 . S
C987 C986 1.400 . S
C987 C988 1.398 1_556 S
C987 C993 1.491 . S
C988 H979 0.950 . S
C988 C987 1.398 1_554 S
C988 C989 1.391 . S
C989 H977 0.950 . S
C989 C985 1.393 . S
C989 C988 1.391 . S
C990 H980 0.950 . S
C990 C991 1.386 . S
C990 C992 1.391 . S
C991 C990 1.386 . S
C991 C995 1.393 . S
C992 H981 0.950 1_556 S
C992 C990 1.391 . S
C992 C993 1.400 . S
C993 C987 1.491 . S
C993 C992 1.400 . S
C993 C994 1.398 . S
C994 H982 0.950 . S
C994 C993 1.398 . S
C994 C995 1.391 . S
C995 H983 0.950 . S
C995 C991 1.393 . S
C995 C994 1.391 . S
H996 C1004 0.950 . S
H997 C1009 0.950 . S
H998 C1006 0.950 . S
H999 C1008 0.950 . S
H1000 C1010 0.950 . S
H1001 C1012 0.950 . S
H1002 C1014 0.950 . S
H1003 C1015 0.950 . S
C1004 H996 0.950 . S
C1004 C1005 1.386 . S
C1004 C1006 1.391 . S
C1005 C1004 1.386 . S
C1005 C1009 1.393 . S
C1006 H998 0.950 . S
C1006 C1004 1.391 . S
C1006 C1007 1.400 . S
C1007 C1006 1.400 . S
C1007 C1008 1.398 . S
C1007 C1013 1.491 . S
C1008 H999 0.950 . S
C1008 C1007 1.398 . S
C1008 C1009 1.391 . S
C1009 H997 0.950 . S
C1009 C1005 1.393 . S
C1009 C1008 1.391 . S
C1010 H1000 0.950 . S
C1010 C1011 1.386 . S
C1010 C1012 1.391 . S
C1011 C1010 1.386 . S
C1011 C1015 1.393 . S
C1012 H1001 0.950 . S
C1012 C1010 1.391 . S
C1012 C1013 1.400 . S
C1013 C1007 1.491 . S
C1013 C1012 1.400 . S
C1013 C1014 1.398 . S
C1014 H1002 0.950 . S
C1014 C1013 1.398 . S
C1014 C1015 1.391 . S
C1015 H1003 0.950 . S
C1015 C1011 1.393 . S
C1015 C1014 1.391 . S
H1016 C1024 0.950 . S
H1017 C1029 0.950 . S
H1018 C1026 0.950 . S
H1019 C1028 0.950 . S
H1020 C1030 0.950 . S
H1021 C1032 0.950 . S
H1022 C1034 0.950 . S
H1023 C1035 0.950 . S
C1024 H1016 0.950 . S
C1024 C1025 1.386 . S
C1024 C1026 1.391 . S
C1025 C1024 1.386 . S
C1025 C1029 1.393 . S
C1026 H1018 0.950 . S
C1026 C1024 1.391 . S
C1026 C1027 1.400 . S
C1027 C1026 1.400 . S
C1027 C1028 1.398 . S
C1027 C1033 1.491 . S
C1028 H1019 0.950 . S
C1028 C1027 1.398 . S
C1028 C1029 1.391 . S
C1029 H1017 0.950 . S
C1029 C1025 1.393 . S
C1029 C1028 1.391 . S
C1030 H1020 0.950 . S
C1030 C1031 1.386 . S
C1030 C1032 1.391 . S
C1031 C1030 1.386 . S
C1031 C1035 1.393 . S
C1032 H1021 0.950 . S
C1032 C1030 1.391 . S
C1032 C1033 1.400 . S
C1033 C1027 1.491 . S
C1033 C1032 1.400 . S
C1033 C1034 1.398 . S
C1034 H1022 0.950 . S
C1034 C1033 1.398 . S
C1034 C1035 1.391 . S
C1035 H1023 0.950 . S
C1035 C1031 1.393 . S
C1035 C1034 1.391 . S
H1036 C1044 0.950 . S
H1037 C1049 0.950 1_545 S
H1038 C1046 0.950 . S
H1039 C1048 0.950 . S
H1040 C1050 0.950 . S
H1041 C1052 0.950 . S
H1042 C1054 0.950 . S
H1043 C1055 0.950 . S
C1044 H1036 0.950 . S
C1044 C1045 1.386 . S
C1044 C1046 1.391 . S
C1045 C1044 1.386 . S
C1045 C1049 1.393 . S
C1046 H1038 0.950 . S
C1046 C1044 1.391 . S
C1046 C1047 1.400 . S
C1047 C1046 1.400 . S
C1047 C1048 1.398 . S
C1047 C1053 1.491 . S
C1048 H1039 0.950 . S
C1048 C1047 1.398 . S
C1048 C1049 1.391 . S
C1049 H1037 0.950 1_565 S
C1049 C1045 1.393 . S
C1049 C1048 1.391 . S
C1050 H1040 0.950 . S
C1050 C1051 1.386 . S
C1050 C1052 1.391 . S
C1051 C1050 1.386 . S
C1051 C1055 1.393 . S
C1052 H1041 0.950 . S
C1052 C1050 1.391 . S
C1052 C1053 1.400 . S
C1053 C1047 1.491 . S
C1053 C1052 1.400 . S
C1053 C1054 1.398 . S
C1054 H1042 0.950 . S
C1054 C1053 1.398 . S
C1054 C1055 1.391 . S
C1055 H1043 0.950 . S
C1055 C1051 1.393 . S
C1055 C1054 1.391 . S
H1056 C1064 0.950 . S
H1057 C1069 0.950 . S
H1058 C1066 0.950 . S
H1059 C1068 0.950 . S
H1060 C1070 0.950 . S
H1061 C1072 0.950 . S
H1062 C1074 0.950 . S
H1063 C1075 0.950 . S
C1064 H1056 0.950 . S
C1064 C1065 1.386 . S
C1064 C1066 1.391 . S
C1065 C1064 1.386 . S
C1065 C1069 1.393 . S
C1066 H1058 0.950 . S
C1066 C1064 1.391 . S
C1066 C1067 1.400 . S
C1067 C1066 1.400 . S
C1067 C1068 1.398 . S
C1067 C1073 1.491 . S
C1068 H1059 0.950 . S
C1068 C1067 1.398 . S
C1068 C1069 1.391 . S
C1069 H1057 0.950 . S
C1069 C1065 1.393 . S
C1069 C1068 1.391 . S
C1070 H1060 0.950 . S
C1070 C1071 1.386 . S
C1070 C1072 1.391 . S
C1071 C1070 1.386 . S
C1071 C1075 1.393 . S
C1072 H1061 0.950 . S
C1072 C1070 1.391 . S
C1072 C1073 1.400 . S
C1073 C1067 1.491 . S
C1073 C1072 1.400 . S
C1073 C1074 1.398 . S
C1074 H1062 0.950 . S
C1074 C1073 1.398 . S
C1074 C1075 1.391 . S
C1075 H1063 0.950 . S
C1075 C1071 1.393 . S
C1075 C1074 1.391 . S
H1076 C1084 0.950 . S
H1077 C1089 0.950 . S
H1078 C1086 0.950 . S
H1079 C1088 0.950 . S
H1080 C1090 0.950 . S
H1081 C1092 0.950 . S
H1082 C1094 0.950 . S
H1083 C1095 0.950 . S
C1084 H1076 0.950 . S
C1084 C1085 1.386 . S
C1084 C1086 1.391 . S
C1085 C1084 1.386 . S
C1085 C1089 1.393 . S
C1086 H1078 0.950 . S
C1086 C1084 1.391 . S
C1086 C1087 1.400 . S
C1087 C1086 1.400 . S
C1087 C1088 1.398 . S
C1087 C1093 1.491 . S
C1088 H1079 0.950 . S
C1088 C1087 1.398 . S
C1088 C1089 1.391 . S
C1089 H1077 0.950 . S
C1089 C1085 1.393 . S
C1089 C1088 1.391 . S
C1090 H1080 0.950 . S
C1090 C1091 1.386 . S
C1090 C1092 1.391 . S
C1091 C1090 1.386 . S
C1091 C1095 1.393 . S
C1092 H1081 0.950 . S
C1092 C1090 1.391 . S
C1092 C1093 1.400 . S
C1093 C1087 1.491 . S
C1093 C1092 1.400 . S
C1093 C1094 1.398 . S
C1094 H1082 0.950 . S
C1094 C1093 1.398 . S
C1094 C1095 1.391 . S
C1095 H1083 0.950 . S
C1095 C1091 1.393 . S
C1095 C1094 1.391 . S
H1096 C1104 0.950 . S
H1097 C1109 0.950 . S
H1098 C1106 0.950 . S
H1099 C1108 0.950 . S
H1100 C1110 0.950 . S
H1101 C1112 0.950 . S
H1102 C1114 0.950 . S
H1103 C1115 0.950 . S
C1104 H1096 0.950 . S
C1104 C1105 1.386 . S
C1104 C1106 1.391 . S
C1105 C1104 1.386 . S
C1105 C1109 1.393 . S
C1106 H1098 0.950 . S
C1106 C1104 1.391 . S
C1106 C1107 1.400 . S
C1107 C1106 1.400 . S
C1107 C1108 1.398 . S
C1107 C1113 1.491 . S
C1108 H1099 0.950 . S
C1108 C1107 1.398 . S
C1108 C1109 1.391 . S
C1109 H1097 0.950 . S
C1109 C1105 1.393 . S
C1109 C1108 1.391 . S
C1110 H1100 0.950 . S
C1110 C1111 1.386 . S
C1110 C1112 1.391 . S
C1111 C1110 1.386 . S
C1111 C1115 1.393 . S
C1112 H1101 0.950 . S
C1112 C1110 1.391 . S
C1112 C1113 1.400 . S
C1113 C1107 1.491 . S
C1113 C1112 1.400 . S
C1113 C1114 1.398 . S
C1114 H1102 0.950 . S
C1114 C1113 1.398 . S
C1114 C1115 1.391 . S
C1115 H1103 0.950 . S
C1115 C1111 1.393 . S
C1115 C1114 1.391 . S
H1116 C1124 0.950 . S
H1117 C1129 0.950 . S
H1118 C1126 0.950 . S
H1119 C1128 0.950 . S
H1120 C1130 0.950 . S
H1121 C1132 0.950 . S
H1122 C1134 0.950 . S
H1123 C1135 0.950 . S
C1124 H1116 0.950 . S
C1124 C1125 1.386 . S
C1124 C1126 1.391 . S
C1125 C1124 1.386 . S
C1125 C1129 1.393 . S
C1126 H1118 0.950 . S
C1126 C1124 1.391 . S
C1126 C1127 1.400 . S
C1127 C1126 1.400 . S
C1127 C1128 1.398 . S
C1127 C1133 1.491 . S
C1128 H1119 0.950 . S
C1128 C1127 1.398 . S
C1128 C1129 1.391 . S
C1129 H1117 0.950 . S
C1129 C1125 1.393 . S
C1129 C1128 1.391 . S
C1130 H1120 0.950 . S
C1130 C1131 1.386 . S
C1130 C1132 1.391 . S
C1131 C1130 1.386 . S
C1131 C1135 1.393 . S
C1132 H1121 0.950 . S
C1132 C1130 1.391 . S
C1132 C1133 1.400 . S
C1133 C1127 1.491 . S
C1133 C1132 1.400 . S
C1133 C1134 1.398 . S
C1134 H1122 0.950 . S
C1134 C1133 1.398 . S
C1134 C1135 1.391 . S
C1135 H1123 0.950 . S
C1135 C1131 1.393 . S
C1135 C1134 1.391 . S
H1136 C1144 0.950 . S
H1137 C1149 0.950 . S
H1138 C1146 0.950 . S
H1139 C1148 0.950 . S
H1140 C1150 0.950 . S
H1141 C1152 0.950 . S
H1142 C1154 0.950 . S
H1143 C1155 0.950 . S
C1144 H1136 0.950 . S
C1144 C1145 1.386 . S
C1144 C1146 1.391 . S
C1145 C1144 1.386 . S
C1145 C1149 1.393 . S
C1146 H1138 0.950 . S
C1146 C1144 1.391 . S
C1146 C1147 1.400 . S
C1147 C1146 1.400 . S
C1147 C1148 1.398 . S
C1147 C1153 1.491 . S
C1148 H1139 0.950 . S
C1148 C1147 1.398 . S
C1148 C1149 1.391 . S
C1149 H1137 0.950 . S
C1149 C1145 1.393 . S
C1149 C1148 1.391 . S
C1150 H1140 0.950 . S
C1150 C1151 1.386 . S
C1150 C1152 1.391 . S
C1151 C1150 1.386 . S
C1151 C1155 1.393 . S
C1152 H1141 0.950 . S
C1152 C1150 1.391 . S
C1152 C1153 1.400 . S
C1153 C1147 1.491 . S
C1153 C1152 1.400 . S
C1153 C1154 1.398 . S
C1154 H1142 0.950 . S
C1154 C1153 1.398 . S
C1154 C1155 1.391 . S
C1155 H1143 0.950 . S
C1155 C1151 1.393 . S
C1155 C1154 1.391 . S
H1156 C1164 0.950 . S
H1157 C1169 0.950 . S
H1158 C1166 0.950 . S
H1159 C1168 0.950 . S
H1160 C1170 0.950 . S
H1161 C1172 0.950 . S
H1162 C1174 0.950 . S
H1163 C1175 0.950 . S
C1164 H1156 0.950 . S
C1164 C1165 1.386 . S
C1164 C1166 1.391 . S
C1165 C1164 1.386 . S
C1165 C1169 1.393 . S
C1166 H1158 0.950 . S
C1166 C1164 1.391 . S
C1166 C1167 1.400 . S
C1167 C1166 1.400 . S
C1167 C1168 1.398 . S
C1167 C1173 1.491 . S
C1168 H1159 0.950 . S
C1168 C1167 1.398 . S
C1168 C1169 1.391 . S
C1169 H1157 0.950 . S
C1169 C1165 1.393 . S
C1169 C1168 1.391 . S
C1170 H1160 0.950 . S
C1170 C1171 1.386 . S
C1170 C1172 1.391 . S
C1171 C1170 1.386 . S
C1171 C1175 1.393 . S
C1172 H1161 0.950 . S
C1172 C1170 1.391 . S
C1172 C1173 1.400 . S
C1173 C1167 1.491 . S
C1173 C1172 1.400 . S
C1173 C1174 1.398 . S
C1174 H1162 0.950 . S
C1174 C1173 1.398 . S
C1174 C1175 1.391 . S
C1175 H1163 0.950 . S
C1175 C1171 1.393 . S
C1175 C1174 1.391 . S
H1176 C1184 0.950 . S
H1177 C1189 0.950 . S
H1178 C1186 0.950 . S
H1179 C1188 0.950 . S
H1180 C1190 0.950 . S
H1181 C1192 0.950 . S
H1182 C1194 0.950 . S
H1183 C1195 0.950 . S
C1184 H1176 0.950 . S
C1184 C1185 1.386 . S
C1184 C1186 1.391 . S
C1185 C1184 1.386 . S
C1185 C1189 1.393 . S
C1186 H1178 0.950 . S
C1186 C1184 1.391 . S
C1186 C1187 1.400 . S
C1187 C1186 1.400 . S
C1187 C1188 1.398 . S
C1187 C1193 1.491 . S
C1188 H1179 0.950 . S
C1188 C1187 1.398 . S
C1188 C1189 1.391 . S
C1189 H1177 0.950 . S
C1189 C1185 1.393 . S
C1189 C1188 1.391 . S
C1190 H1180 0.950 . S
C1190 C1191 1.386 . S
C1190 C1192 1.391 . S
C1191 C1190 1.386 . S
C1191 C1195 1.393 . S
C1192 H1181 0.950 . S
C1192 C1190 1.391 . S
C1192 C1193 1.400 . S
C1193 C1187 1.491 . S
C1193 C1192 1.400 . S
C1193 C1194 1.398 . S
C1194 H1182 0.950 . S
C1194 C1193 1.398 . S
C1194 C1195 1.391 . S
C1195 H1183 0.950 . S
C1195 C1191 1.393 . S
C1195 C1194 1.391 . S
H1196 C1204 0.950 . S
H1197 C1209 0.950 . S
H1198 C1206 0.950 . S
H1199 C1208 0.950 . S
H1200 C1210 0.950 . S
H1201 C1212 0.950 . S
H1202 C1214 0.950 . S
H1203 C1215 0.950 . S
C1204 H1196 0.950 . S
C1204 C1205 1.386 . S
C1204 C1206 1.391 . S
C1205 C1204 1.386 . S
C1205 C1209 1.393 . S
C1206 H1198 0.950 . S
C1206 C1204 1.391 . S
C1206 C1207 1.400 . S
C1207 C1206 1.400 . S
C1207 C1208 1.398 . S
C1207 C1213 1.491 . S
C1208 H1199 0.950 . S
C1208 C1207 1.398 . S
C1208 C1209 1.391 . S
C1209 H1197 0.950 . S
C1209 C1205 1.393 . S
C1209 C1208 1.391 . S
C1210 H1200 0.950 . S
C1210 C1211 1.386 . S
C1210 C1212 1.391 . S
C1211 C1210 1.386 . S
C1211 C1215 1.393 . S
C1212 H1201 0.950 . S
C1212 C1210 1.391 . S
C1212 C1213 1.400 . S
C1213 C1207 1.491 . S
C1213 C1212 1.400 . S
C1213 C1214 1.398 . S
C1214 H1202 0.950 . S
C1214 C1213 1.398 . S
C1214 C1215 1.391 . S
C1215 H1203 0.950 . S
C1215 C1211 1.393 . S
C1215 C1214 1.391 . S
H1216 C1224 0.950 . S
H1217 C1229 0.950 . S
H1218 C1226 0.950 . S
H1219 C1228 0.950 . S
H1220 C1230 0.950 . S
H1221 C1232 0.950 . S
H1222 C1234 0.950 . S
H1223 C1235 0.950 . S
C1224 H1216 0.950 . S
C1224 C1225 1.386 . S
C1224 C1226 1.391 . S
C1225 C1224 1.386 . S
C1225 C1229 1.393 . S
C1226 H1218 0.950 . S
C1226 C1224 1.391 . S
C1226 C1227 1.400 . S
C1227 C1226 1.400 . S
C1227 C1228 1.398 . S
C1227 C1233 1.491 . S
C1228 H1219 0.950 . S
C1228 C1227 1.398 . S
C1228 C1229 1.391 . S
C1229 H1217 0.950 . S
C1229 C1225 1.393 . S
C1229 C1228 1.391 . S
C1230 H1220 0.950 . S
C1230 C1231 1.386 . S
C1230 C1232 1.391 . S
C1231 C1230 1.386 . S
C1231 C1235 1.393 . S
C1232 H1221 0.950 . S
C1232 C1230 1.391 . S
C1232 C1233 1.400 . S
C1233 C1227 1.491 . S
C1233 C1232 1.400 . S
C1233 C1234 1.398 . S
C1234 H1222 0.950 . S
C1234 C1233 1.398 . S
C1234 C1235 1.391 . S
C1235 H1223 0.950 . S
C1235 C1231 1.393 . S
C1235 C1234 1.391 . S
H1236 C1244 0.950 . S
H1237 C1249 0.950 . S
H1238 C1246 0.950 . S
H1239 C1248 0.950 . S
H1240 C1250 0.950 . S
H1241 C1252 0.950 . S
H1242 C1254 0.950 . S
H1243 C1255 0.950 . S
C1244 H1236 0.950 . S
C1244 C1245 1.386 . S
C1244 C1246 1.391 . S
C1245 C1244 1.386 . S
C1245 C1249 1.393 . S
C1246 H1238 0.950 . S
C1246 C1244 1.391 . S
C1246 C1247 1.400 . S
C1247 C1246 1.400 . S
C1247 C1248 1.398 . S
C1247 C1253 1.491 . S
C1248 H1239 0.950 . S
C1248 C1247 1.398 . S
C1248 C1249 1.391 . S
C1249 H1237 0.950 . S
C1249 C1245 1.393 . S
C1249 C1248 1.391 . S
C1250 H1240 0.950 . S
C1250 C1251 1.386 . S
C1250 C1252 1.391 . S
C1251 C1250 1.386 . S
C1251 C1255 1.393 . S
C1252 H1241 0.950 . S
C1252 C1250 1.391 . S
C1252 C1253 1.400 . S
C1253 C1247 1.491 . S
C1253 C1252 1.400 . S
C1253 C1254 1.398 . S
C1254 H1242 0.950 . S
C1254 C1253 1.398 . S
C1254 C1255 1.391 . S
C1255 H1243 0.950 . S
C1255 C1251 1.393 . S
C1255 C1254 1.391 . S
H1256 C1264 0.950 . S
H1257 C1269 0.950 . S
H1258 C1266 0.950 . S
H1259 C1268 0.950 . S
H1260 C1270 0.950 . S
H1261 C1272 0.950 . S
H1262 C1274 0.950 . S
H1263 C1275 0.950 . S
C1264 H1256 0.950 . S
C1264 C1265 1.386 . S
C1264 C1266 1.391 . S
C1265 C1264 1.386 . S
C1265 C1269 1.393 . S
C1266 H1258 0.950 . S
C1266 C1264 1.391 . S
C1266 C1267 1.400 . S
C1267 C1266 1.400 . S
C1267 C1268 1.398 . S
C1267 C1273 1.491 . S
C1268 H1259 0.950 . S
C1268 C1267 1.398 . S
C1268 C1269 1.391 . S
C1269 H1257 0.950 . S
C1269 C1265 1.393 . S
C1269 C1268 1.391 . S
C1270 H1260 0.950 . S
C1270 C1271 1.386 . S
C1270 C1272 1.391 . S
C1271 C1270 1.386 . S
C1271 C1275 1.393 . S
C1272 H1261 0.950 . S
C1272 C1270 1.391 . S
C1272 C1273 1.400 . S
C1273 C1267 1.491 . S
C1273 C1272 1.400 . S
C1273 C1274 1.398 . S
C1274 H1262 0.950 . S
C1274 C1273 1.398 . S
C1274 C1275 1.391 . S
C1275 H1263 0.950 . S
C1275 C1271 1.393 . S
C1275 C1274 1.391 . S
H1276 C1284 0.950 . S
H1277 C1289 0.950 . S
H1278 C1286 0.950 . S
H1279 C1288 0.950 . S
H1280 C1290 0.950 . S
H1281 C1292 0.950 . S
H1282 C1294 0.950 . S
H1283 C1295 0.950 . S
C1284 H1276 0.950 . S
C1284 C1285 1.386 . S
C1284 C1286 1.391 . S
C1285 C1284 1.386 . S
C1285 C1289 1.393 . S
C1286 H1278 0.950 . S
C1286 C1284 1.391 . S
C1286 C1287 1.400 . S
C1287 C1286 1.400 . S
C1287 C1288 1.398 . S
C1287 C1293 1.491 . S
C1288 H1279 0.950 . S
C1288 C1287 1.398 . S
C1288 C1289 1.391 . S
C1289 H1277 0.950 . S
C1289 C1285 1.393 . S
C1289 C1288 1.391 . S
C1290 H1280 0.950 . S
C1290 C1291 1.386 . S
C1290 C1292 1.391 . S
C1291 C1290 1.386 . S
C1291 C1295 1.393 . S
C1292 H1281 0.950 . S
C1292 C1290 1.391 . S
C1292 C1293 1.400 . S
C1293 C1287 1.491 . S
C1293 C1292 1.400 . S
C1293 C1294 1.398 . S
C1294 H1282 0.950 . S
C1294 C1293 1.398 . S
C1294 C1295 1.391 . S
C1295 H1283 0.950 . S
C1295 C1291 1.393 . S
C1295 C1294 1.391 . S
H1296 C1304 0.950 . S
H1297 C1309 0.950 . S
H1298 C1306 0.950 . S
H1299 C1308 0.950 . S
H1300 C1310 0.950 . S
H1301 C1312 0.950 . S
H1302 C1314 0.950 . S
H1303 C1315 0.950 . S
C1304 H1296 0.950 . S
C1304 C1305 1.386 . S
C1304 C1306 1.391 . S
C1305 C1304 1.386 . S
C1305 C1309 1.393 . S
C1306 H1298 0.950 . S
C1306 C1304 1.391 . S
C1306 C1307 1.400 . S
C1307 C1306 1.400 . S
C1307 C1308 1.398 . S
C1307 C1313 1.491 . S
C1308 H1299 0.950 . S
C1308 C1307 1.398 . S
C1308 C1309 1.391 . S
C1309 H1297 0.950 . S
C1309 C1305 1.393 . S
C1309 C1308 1.391 . S
C1310 H1300 0.950 . S
C1310 C1311 1.386 . S
C1310 C1312 1.391 . S
C1311 C1310 1.386 . S
C1311 C1315 1.393 . S
C1312 H1301 0.950 . S
C1312 C1310 1.391 . S
C1312 C1313 1.400 . S
C1313 C1307 1.491 . S
C1313 C1312 1.400 . S
C1313 C1314 1.398 . S
C1314 H1302 0.950 . S
C1314 C1313 1.398 . S
C1314 C1315 1.391 . S
C1315 H1303 0.950 . S
C1315 C1311 1.393 . S
C1315 C1314 1.391 . S
H1316 C1324 0.950 . S
H1317 C1329 0.950 . S
H1318 C1326 0.950 . S
H1319 C1328 0.950 . S
H1320 C1330 0.950 . S
H1321 C1332 0.950 . S
H1322 C1334 0.950 . S
H1323 C1335 0.950 . S
C1324 H1316 0.950 . S
C1324 C1325 1.386 . S
C1324 C1326 1.391 . S
C1325 C1324 1.386 . S
C1325 C1329 1.393 . S
C1326 H1318 0.950 . S
C1326 C1324 1.391 . S
C1326 C1327 1.400 . S
C1327 C1326 1.400 . S
C1327 C1328 1.398 . S
C1327 C1333 1.491 . S
C1328 H1319 0.950 . S
C1328 C1327 1.398 . S
C1328 C1329 1.391 . S
C1329 H1317 0.950 . S
C1329 C1325 1.393 . S
C1329 C1328 1.391 . S
C1330 H1320 0.950 . S
C1330 C1331 1.386 . S
C1330 C1332 1.391 . S
C1331 C1330 1.386 . S
C1331 C1335 1.393 . S
C1332 H1321 0.950 . S
C1332 C1330 1.391 . S
C1332 C1333 1.400 . S
C1333 C1327 1.491 . S
C1333 C1332 1.400 . S
C1333 C1334 1.398 . S
C1334 H1322 0.950 . S
C1334 C1333 1.398 . S
C1334 C1335 1.391 . S
C1335 H1323 0.950 . S
C1335 C1331 1.393 . S
C1335 C1334 1.391 . S
H1336 C1344 0.950 . S
H1337 C1349 0.950 . S
H1338 C1346 0.950 . S
H1339 C1348 0.950 . S
H1340 C1350 0.950 . S
H1341 C1352 0.950 . S
H1342 C1354 0.950 . S
H1343 C1355 0.950 . S
C1344 H1336 0.950 . S
C1344 C1345 1.386 . S
C1344 C1346 1.391 . S
C1345 C1344 1.386 . S
C1345 C1349 1.393 . S
C1346 H1338 0.950 . S
C1346 C1344 1.391 . S
C1346 C1347 1.400 . S
C1347 C1346 1.400 . S
C1347 C1348 1.398 . S
C1347 C1353 1.491 . S
C1348 H1339 0.950 . S
C1348 C1347 1.398 . S
C1348 C1349 1.391 . S
C1349 H1337 0.950 . S
C1349 C1345 1.393 . S
C1349 C1348 1.391 . S
C1350 H1340 0.950 . S
C1350 C1351 1.386 . S
C1350 C1352 1.391 . S
C1351 C1350 1.386 . S
C1351 C1355 1.393 . S
C1352 H1341 0.950 . S
C1352 C1350 1.391 . S
C1352 C1353 1.400 . S
C1353 C1347 1.491 . S
C1353 C1352 1.400 . S
C1353 C1354 1.398 . S
C1354 H1342 0.950 . S
C1354 C1353 1.398 . S
C1354 C1355 1.391 . S
C1355 H1343 0.950 . S
C1355 C1351 1.393 . S
C1355 C1354 1.391 . S
H1356 C1364 0.950 . S
H1357 C1369 0.950 . S
H1358 C1366 0.950 . S
H1359 C1368 0.950 . S
H1360 C1370 0.950 . S
H1361 C1372 0.950 . S
H1362 C1374 0.950 . S
H1363 C1375 0.950 . S
C1364 H1356 0.950 . S
C1364 C1365 1.386 . S
C1364 C1366 1.391 . S
C1365 C1364 1.386 . S
C1365 C1369 1.393 . S
C1366 H1358 0.950 . S
C1366 C1364 1.391 . S
C1366 C1367 1.400 . S
C1367 C1366 1.400 . S
C1367 C1368 1.398 . S
C1367 C1373 1.491 . S
C1368 H1359 0.950 . S
C1368 C1367 1.398 . S
C1368 C1369 1.391 . S
C1369 H1357 0.950 . S
C1369 C1365 1.393 . S
C1369 C1368 1.391 . S
C1370 H1360 0.950 . S
C1370 C1371 1.386 . S
C1370 C1372 1.391 . S
C1371 C1370 1.386 . S
C1371 C1375 1.393 . S
C1372 H1361 0.950 . S
C1372 C1370 1.391 . S
C1372 C1373 1.400 . S
C1373 C1367 1.491 . S
C1373 C1372 1.400 . S
C1373 C1374 1.398 . S
C1374 H1362 0.950 . S
C1374 C1373 1.398 . S
C1374 C1375 1.391 . S
C1375 H1363 0.950 . S
C1375 C1371 1.393 . S
C1375 C1374 1.391 . S
H1376 C1384 0.950 . S
H1377 C1389 0.950 . S
H1378 C1386 0.950 . S
H1379 C1388 0.950 . S
H1380 C1390 0.950 . S
H1381 C1392 0.950 . S
H1382 C1394 0.950 . S
H1383 C1395 0.950 . S
C1384 H1376 0.950 . S
C1384 C1385 1.386 . S
C1384 C1386 1.391 . S
C1385 C1384 1.386 . S
C1385 C1389 1.393 . S
C1386 H1378 0.950 . S
C1386 C1384 1.391 . S
C1386 C1387 1.400 . S
C1387 C1386 1.400 . S
C1387 C1388 1.398 . S
C1387 C1393 1.491 . S
C1388 H1379 0.950 . S
C1388 C1387 1.398 . S
C1388 C1389 1.391 . S
C1389 H1377 0.950 . S
C1389 C1385 1.393 . S
C1389 C1388 1.391 . S
C1390 H1380 0.950 . S
C1390 C1391 1.386 . S
C1390 C1392 1.391 . S
C1391 C1390 1.386 . S
C1391 C1395 1.393 . S
C1392 H1381 0.950 . S
C1392 C1390 1.391 . S
C1392 C1393 1.400 . S
C1393 C1387 1.491 . S
C1393 C1392 1.400 . S
C1393 C1394 1.398 . S
C1394 H1382 0.950 . S
C1394 C1393 1.398 . S
C1394 C1395 1.391 . S
C1395 H1383 0.950 . S
C1395 C1391 1.393 . S
C1395 C1394 1.391 . S
H1396 C1404 0.950 . S
H1397 C1409 0.950 . S
H1398 C1406 0.950 . S
H1399 C1408 0.950 . S
H1400 C1410 0.950 . S
H1401 C1412 0.950 . S
H1402 C1414 0.950 . S
H1403 C1415 0.950 . S
C1404 H1396 0.950 . S
C1404 C1405 1.386 . S
C1404 C1406 1.391 . S
C1405 C1404 1.386 . S
C1405 C1409 1.393 . S
C1406 H1398 0.950 . S
C1406 C1404 1.391 . S
C1406 C1407 1.400 . S
C1407 C1406 1.400 . S
C1407 C1408 1.398 . S
C1407 C1413 1.491 . S
C1408 H1399 0.950 . S
C1408 C1407 1.398 . S
C1408 C1409 1.391 . S
C1409 H1397 0.950 . S
C1409 C1405 1.393 . S
C1409 C1408 1.391 . S
C1410 H1400 0.950 . S
C1410 C1411 1.386 . S
C1410 C1412 1.391 . S
C1411 C1410 1.386 . S
C1411 C1415 1.393 . S
C1412 H1401 0.950 . S
C1412 C1410 1.391 . S
C1412 C1413 1.400 . S
C1413 C1407 1.491 . S
C1413 C1412 1.400 . S
C1413 C1414 1.398 . S
C1414 H1402 0.950 . S
C1414 C1413 1.398 . S
C1414 C1415 1.391 . S
C1415 H1403 0.950 . S
C1415 C1411 1.393 . S
C1415 C1414 1.391 . S
H1416 C1424 0.950 . S
H1417 C1429 0.950 . S
H1418 C1426 0.950 . S
H1419 C1428 0.950 . S
H1420 C1430 0.950 . S
H1421 C1432 0.950 . S
H1422 C1434 0.950 . S
H1423 C1435 0.950 . S
C1424 H1416 0.950 . S
C1424 C1425 1.386 . S
C1424 C1426 1.391 . S
C1425 C1424 1.386 . S
C1425 C1429 1.393 . S
C1426 H1418 0.950 . S
C1426 C1424 1.391 . S
C1426 C1427 1.400 . S
C1427 C1426 1.400 . S
C1427 C1428 1.398 . S
C1427 C1433 1.491 . S
C1428 H1419 0.950 . S
C1428 C1427 1.398 . S
C1428 C1429 1.391 . S
C1429 H1417 0.950 . S
C1429 C1425 1.393 . S
C1429 C1428 1.391 . S
C1430 H1420 0.950 . S
C1430 C1431 1.386 . S
C1430 C1432 1.391 . S
C1431 C1430 1.386 . S
C1431 C1435 1.393 . S
C1432 H1421 0.950 . S
C1432 C1430 1.391 . S
C1432 C1433 1.400 . S
C1433 C1427 1.491 . S
C1433 C1432 1.400 . S
C1433 C1434 1.398 . S
C1434 H1422 0.950 . S
C1434 C1433 1.398 . S
C1434 C1435 1.391 . S
C1435 H1423 0.950 . S
C1435 C1431 1.393 . S
C1435 C1434 1.391 . S
H1436 C1444 0.950 . S
H1437 C1449 0.950 . S
H1438 C1446 0.950 . S
H1439 C1448 0.950 . S
H1440 C1450 0.950 . S
H1441 C1452 0.950 . S
H1442 C1454 0.950 . S
H1443 C1455 0.950 . S
C1444 H1436 0.950 . S
C1444 C1445 1.386 . S
C1444 C1446 1.391 . S
C1445 C1444 1.386 . S
C1445 C1449 1.393 . S
C1446 H1438 0.950 . S
C1446 C1444 1.391 . S
C1446 C1447 1.400 . S
C1447 C1446 1.400 . S
C1447 C1448 1.398 . S
C1447 C1453 1.491 . S
C1448 H1439 0.950 . S
C1448 C1447 1.398 . S
C1448 C1449 1.391 . S
C1449 H1437 0.950 . S
C1449 C1445 1.393 . S
C1449 C1448 1.391 . S
C1450 H1440 0.950 . S
C1450 C1451 1.386 . S
C1450 C1452 1.391 . S
C1451 C1450 1.386 . S
C1451 C1455 1.393 . S
C1452 H1441 0.950 . S
C1452 C1450 1.391 . S
C1452 C1453 1.400 . S
C1453 C1447 1.491 . S
C1453 C1452 1.400 . S
C1453 C1454 1.398 . S
C1454 H1442 0.950 . S
C1454 C1453 1.398 . S
C1454 C1455 1.391 . S
C1455 H1443 0.950 . S
C1455 C1451 1.393 . S
C1455 C1454 1.391 . S
H1456 C1464 0.950 . S
H1457 C1469 0.950 . S
H1458 C1466 0.950 . S
H1459 C1468 0.950 . S
H1460 C1470 0.950 . S
H1461 C1472 0.950 . S
H1462 C1474 0.950 . S
H1463 C1475 0.950 . S
C1464 H1456 0.950 . S
C1464 C1465 1.386 . S
C1464 C1466 1.391 . S
C1465 C1464 1.386 . S
C1465 C1469 1.393 . S
C1466 H1458 0.950 . S
C1466 C1464 1.391 . S
C1466 C1467 1.400 . S
C1467 C1466 1.400 . S
C1467 C1468 1.398 . S
C1467 C1473 1.491 . S
C1468 H1459 0.950 . S
C1468 C1467 1.398 . S
C1468 C1469 1.391 . S
C1469 H1457 0.950 . S
C1469 C1465 1.393 . S
C1469 C1468 1.391 . S
C1470 H1460 0.950 . S
C1470 C1471 1.386 . S
C1470 C1472 1.391 . S
C1471 C1470 1.386 . S
C1471 C1475 1.393 . S
C1472 H1461 0.950 . S
C1472 C1470 1.391 . S
C1472 C1473 1.400 . S
C1473 C1467 1.491 . S
C1473 C1472 1.400 . S
C1473 C1474 1.398 . S
C1474 H1462 0.950 . S
C1474 C1473 1.398 . S
C1474 C1475 1.391 . S
C1475 H1463 0.950 . S
C1475 C1471 1.393 . S
C1475 C1474 1.391 . S
H1476 C1484 0.950 . S
H1477 C1489 0.950 . S
H1478 C1486 0.950 . S
H1479 C1488 0.950 . S
H1480 C1490 0.950 . S
H1481 C1492 0.950 . S
H1482 C1494 0.950 . S
H1483 C1495 0.950 . S
C1484 H1476 0.950 . S
C1484 C1485 1.386 . S
C1484 C1486 1.391 . S
C1485 C1484 1.386 . S
C1485 C1489 1.393 . S
C1486 H1478 0.950 . S
C1486 C1484 1.391 . S
C1486 C1487 1.400 . S
C1487 C1486 1.400 . S
C1487 C1488 1.398 . S
C1487 C1493 1.491 . S
C1488 H1479 0.950 . S
C1488 C1487 1.398 . S
C1488 C1489 1.391 . S
C1489 H1477 0.950 . S
C1489 C1485 1.393 . S
C1489 C1488 1.391 . S
C1490 H1480 0.950 . S
C1490 C1491 1.386 . S
C1490 C1492 1.391 . S
C1491 C1490 1.386 . S
C1491 C1495 1.393 . S
C1492 H1481 0.950 . S
C1492 C1490 1.391 . S
C1492 C1493 1.400 . S
C1493 C1487 1.491 . S
C1493 C1492 1.400 . S
C1493 C1494 1.398 . S
C1494 H1482 0.950 . S
C1494 C1493 1.398 . S
C1494 C1495 1.391 . S
C1495 H1483 0.950 . S
C1495 C1491 1.393 . S
C1495 C1494 1.391 . S
H1496 C1504 0.950 . S
H1497 C1509 0.950 . S
H1498 C1506 0.950 . S
H1499 C1508 0.950 . S
H1500 C1510 0.950 . S
H1501 C1512 0.950 . S
H1502 C1514 0.950 . S
H1503 C1515 0.950 . S
C1504 H1496 0.950 . S
C1504 C1505 1.386 . S
C1504 C1506 1.391 . S
C1505 C1504 1.386 . S
C1505 C1509 1.393 . S
C1506 H1498 0.950 . S
C1506 C1504 1.391 . S
C1506 C1507 1.400 . S
C1507 C1506 1.400 . S
C1507 C1508 1.398 . S
C1507 C1513 1.491 . S
C1508 H1499 0.950 . S
C1508 C1507 1.398 . S
C1508 C1509 1.391 . S
C1509 H1497 0.950 . S
C1509 C1505 1.393 . S
C1509 C1508 1.391 . S
C1510 H1500 0.950 . S
C1510 C1511 1.386 . S
C1510 C1512 1.391 . S
C1511 C1510 1.386 . S
C1511 C1515 1.393 . S
C1512 H1501 0.950 . S
C1512 C1510 1.391 . S
C1512 C1513 1.400 . S
C1513 C1507 1.491 . S
C1513 C1512 1.400 . S
C1513 C1514 1.398 . S
C1514 H1502 0.950 . S
C1514 C1513 1.398 . S
C1514 C1515 1.391 . S
C1515 H1503 0.950 . S
C1515 C1511 1.393 . S
C1515 C1514 1.391 . S
H1516 C1524 0.950 . S
H1517 C1529 0.950 . S
H1518 C1526 0.950 . S
H1519 C1528 0.950 . S
H1520 C1530 0.950 . S
H1521 C1532 0.950 . S
H1522 C1534 0.950 . S
H1523 C1535 0.950 . S
C1524 H1516 0.950 . S
C1524 C1525 1.386 . S
C1524 C1526 1.391 . S
C1525 C1524 1.386 . S
C1525 C1529 1.393 . S
C1526 H1518 0.950 . S
C1526 C1524 1.391 . S
C1526 C1527 1.400 . S
C1527 C1526 1.400 . S
C1527 C1528 1.398 . S
C1527 C1533 1.491 . S
C1528 H1519 0.950 . S
C1528 C1527 1.398 . S
C1528 C1529 1.391 . S
C1529 H1517 0.950 . S
C1529 C1525 1.393 . S
C1529 C1528 1.391 . S
C1530 H1520 0.950 . S
C1530 C1531 1.386 . S
C1530 C1532 1.391 . S
C1531 C1530 1.386 . S
C1531 C1535 1.393 . S
C1532 H1521 0.950 . S
C1532 C1530 1.391 . S
C1532 C1533 1.400 . S
C1533 C1527 1.491 . S
C1533 C1532 1.400 . S
C1533 C1534 1.398 . S
C1534 H1522 0.950 . S
C1534 C1533 1.398 . S
C1534 C1535 1.391 . S
C1535 H1523 0.950 . S
C1535 C1531 1.393 . S
C1535 C1534 1.391 . S
H1536 C1544 0.950 . S
H1537 C1549 0.950 . S
H1538 C1546 0.950 . S
H1539 C1548 0.950 . S
H1540 C1550 0.950 . S
H1541 C1552 0.950 . S
H1542 C1554 0.950 . S
H1543 C1555 0.950 . S
C1544 H1536 0.950 . S
C1544 C1545 1.386 . S
C1544 C1546 1.391 . S
C1545 C1544 1.386 . S
C1545 C1549 1.393 . S
C1546 H1538 0.950 . S
C1546 C1544 1.391 . S
C1546 C1547 1.400 . S
C1547 C1546 1.400 . S
C1547 C1548 1.398 . S
C1547 C1553 1.491 . S
C1548 H1539 0.950 . S
C1548 C1547 1.398 . S
C1548 C1549 1.391 . S
C1549 H1537 0.950 . S
C1549 C1545 1.393 . S
C1549 C1548 1.391 . S
C1550 H1540 0.950 . S
C1550 C1551 1.386 . S
C1550 C1552 1.391 . S
C1551 C1550 1.386 . S
C1551 C1555 1.393 . S
C1552 H1541 0.950 . S
C1552 C1550 1.391 . S
C1552 C1553 1.400 . S
C1553 C1547 1.491 . S
C1553 C1552 1.400 . S
C1553 C1554 1.398 . S
C1554 H1542 0.950 . S
C1554 C1553 1.398 . S
C1554 C1555 1.391 . S
C1555 H1543 0.950 . S
C1555 C1551 1.393 . S
C1555 C1554 1.391 . S
C611 C283 1.338 . S
C605 N2 1.337 . S
C631 C326 2.592 . S
C625 C7 2.622 . S
C651 C372 1.731 . S
C645 N12 1.626 . S
C665 C16 1.874 . S
C671 C415 1.902 . S
C691 C455 2.696 . S
C685 C30 2.703 1_565 S
C711 C483 1.479 . S
C705 N35 1.430 . S
C725 C39 2.067 . S
C731 C526 2.028 . S
C751 C572 1.215 . S
C745 N25 1.131 1_565 S
C771 C278 1.205 . S
C765 N58 1.177 . S
C785 N81 1.959 . S
C791 C327 1.933 . S
C811 C366 1.390 . S
C805 N104 1.369 . S
C825 N127 1.197 . S
C831 C403 1.168 . S
C851 C443 0.848 . S
C845 N48 0.901 1_565 S
C871 C478 1.532 . S
C865 N71 1.495 1_556 S
C885 N94 1.341 . S
C891 C527 1.305 . S
C911 C566 1.890 . S
C905 N117 1.892 . S
C925 C85 2.511 . S
C931 C295 2.443 . S
C945 C122 2.438 . S
C951 C438 2.405 . S
C965 C53 2.066 . S
C971 C495 1.999 . S
C991 C532 1.383 . S
C985 C76 1.426 1_655 S
C1011 C567 1.834 . S
C1005 C99 1.842 . S
C1031 C367 1.971 . S
C1025 C131 1.970 . S
C1051 C398 1.737 . S
C1045 C62 1.759 1_565 S
C1065 C108 1.142 . S
C1071 C332 1.126 . S
C1091 C563 1.413 . S
C1085 N140 1.387 . S
C1105 C145 2.612 . S
C1111 C446 2.581 . S
C1131 C492 1.589 . S
C1125 N150 1.476 . S
C1145 C154 1.883 . S
C1151 C535 1.910 . S
C1171 C335 2.700 . S
C1165 C168 2.698 . S
C1185 N173 1.333 . S
C1191 C363 1.375 . S
C1211 C406 2.029 . S
C1205 C177 2.077 . S
C1231 C292 1.268 . S
C1225 N163 1.220 . S
C1251 C558 1.652 . S
C1245 C200 1.641 . S
C1271 C447 2.224 . S
C1265 N219 2.242 . S
C1285 N242 1.618 . S
C1291 C486 1.649 . S
C1311 C523 1.412 . S
C1305 C269 1.487 . S
C1331 C323 1.156 . S
C1325 C191 1.194 . S
C1345 N209 1.727 . S
C1351 C358 1.772 . S
C1365 N232 1.636 . S
C1371 C407 1.618 . S
C1385 C260 2.449 . S
C1391 C286 2.400 . S
C1405 C223 2.208 . S
C1411 C575 2.132 . S
C1425 N255 1.981 . S
C1431 C318 1.991 . S
C1445 N186 1.594 . S
C1451 C375 1.572 . S
C1471 C412 1.102 . S
C1465 C214 1.136 . S
C1491 C287 1.532 . S
C1485 C237 1.534 . S
C1511 C487 1.542 . S
C1505 N265 1.470 . S
C1531 C518 1.366 . S
C1525 N196 1.356 . S
C1551 C452 0.827 . S
C1545 C246 0.834 . S
