# Generated by pormake.
# Topology pth, (4,4)-cn, num edge types: 1
# Building blocks:
#     Node 0, Type 0, BuildingBlock: TATPOV_clean_sbu_0, # of connection points: 4
#     Node 1, Type 0, BuildingBlock: TATPOV_clean_sbu_0, # of connection points: 4
#     Node 2, Type 0, BuildingBlock: TATPOV_clean_sbu_0, # of connection points: 4
#     Node 3, Type 1, BuildingBlock: KOZSID_clean_sbu_0, # of connection points: 4
#     Node 4, Type 1, BuildingBlock: KOZSID_clean_sbu_0, # of connection points: 4
#     Node 5, Type 1, BuildingBlock: KOZSID_clean_sbu_0, # of connection points: 4
#     Edge 6, Type (0, 1), BuildingBlock: AJUNOK_clean_linker_0, # of connection points: 2
#     Edge 7, Type (0, 1), BuildingBlock: AJUNOK_clean_linker_0, # of connection points: 2
#     Edge 8, Type (0, 1), BuildingBlock: AJUNOK_clean_linker_0, # of connection points: 2
#     Edge 9, Type (0, 1), BuildingBlock: AJUNOK_clean_linker_0, # of connection points: 2
#     Edge 10, Type (0, 1), BuildingBlock: AJUNOK_clean_linker_0, # of connection points: 2
#     Edge 11, Type (0, 1), BuildingBlock: AJUNOK_clean_linker_0, # of connection points: 2
#     Edge 12, Type (0, 1), BuildingBlock: AJUNOK_clean_linker_0, # of connection points: 2
#     Edge 13, Type (0, 1), BuildingBlock: AJUNOK_clean_linker_0, # of connection points: 2
#     Edge 14, Type (0, 1), BuildingBlock: AJUNOK_clean_linker_0, # of connection points: 2
#     Edge 15, Type (0, 1), BuildingBlock: AJUNOK_clean_linker_0, # of connection points: 2
#     Edge 16, Type (0, 1), BuildingBlock: AJUNOK_clean_linker_0, # of connection points: 2
#     Edge 17, Type (0, 1), BuildingBlock: AJUNOK_clean_linker_0, # of connection points: 2
# Relax obj value: 0.036
# Max RMSD: 0.169
# Mean RMSD: 0.081
data_MOF--net-pth--node1-TATPOV_clean_sbu_0--node2-KOZSID_clean_sbu_0--edge1-AJUNOK_clean_linker_0
_symmetry_space_group_name_H-M    P1
_symmetry_Int_Tables_number       1
_symmetry_cell_setting            triclinic
loop_
_symmetry_equiv_pos_as_xyz
'x, y, z'
_cell_length_a     20.552777
_cell_length_b     20.319454
_cell_length_c     45.033068
_cell_angle_alpha  89.128224
_cell_angle_beta   88.975115
_cell_angle_gamma 121.28394
loop_
_atom_site_label
_atom_site_type_symbol
_atom_site_fract_x
_atom_site_fract_y
_atom_site_fract_z
_atom_type_partial_charge
Zn0 Zn 0.20863 0.04122 0.00721 0.0
Zn1 Zn 0.14598 0.09781 0.04094 0.0
O2 O 0.15295 0.01956 0.0692 0.0
O3 O 0.20804 0.97469 0.04058 0.0
O4 O 0.11496 0.15774 0.067 0.0
O5 O 0.29859 0.14213 0.99413 0.0
O6 O 0.24117 0.18942 0.01991 0.0
C7 C 0.17711 0.9736 0.06527 0.0
C8 C 0.05961 0.00375 0.98873 0.0
O9 O 0.05958 0.03957 0.01174 0.0
O10 O 0.11686 -0.00141 0.98207 0.0
C11 C 0.16242 0.20232 0.08575 0.0
O12 O 0.22507 0.20114 0.08949 0.0
C13 C 0.29499 0.19935 0.00236 0.0
Zn14 Zn 0.19443 0.17425 0.34269 0.0
Zn15 Zn 0.076 0.12638 0.38006 0.0
O16 O 0.16486 0.14857 0.40728 0.0
O17 O 0.26453 0.19623 0.37665 0.0
O18 O 0.98783 0.10605 0.4073 0.0
O19 O 0.18069 0.25391 0.32247 0.0
O20 O 0.08134 0.2123 0.35285 0.0
C21 C 0.23583 0.1754 0.40269 0.0
C22 C 0.07556 0.01403 0.33713 0.0
O23 O 0.04155 0.02565 0.35848 0.0
O24 O 0.13931 0.06755 0.32674 0.0
C25 C 0.9944 0.13075 0.43353 0.0
O26 O 0.06177 0.16695 0.4454 0.0
C27 C 0.12325 0.25622 0.33133 0.0
Zn28 Zn 0.13873 0.94597 0.74123 0.0
Zn29 Zn 0.08614 0.01419 0.70722 0.0
O30 O 0.1589 0.00137 0.67871 0.0
O31 O 0.19849 0.94005 0.70661 0.0
O32 O 0.03037 0.04989 0.68147 0.0
O33 O 0.03558 0.86085 0.75512 0.0
O34 O 0.99298 0.92072 0.72805 0.0
C35 C 0.20028 0.97202 0.68199 0.0
C36 C 0.18474 0.10051 0.75862 0.0
O37 O 0.14789 0.10085 0.73618 0.0
O38 O 0.18785 0.04144 0.76526 0.0
C39 C 0.99206 0.00783 0.66021 0.0
O40 O 0.99772 0.94821 0.65357 0.0
C41 C 0.98073 0.86667 0.74624 0.0
C42 C 0.18171 0.74612 0.16965 0.0
C43 C 0.25489 0.80802 0.1635 0.0
C44 C 0.30187 0.79966 0.18204 0.0
C45 C 0.25499 0.73359 0.1984 0.0
N46 N 0.18081 0.69844 0.19123 0.0
Co47 Co 0.09286 0.60292 0.21041 0.0
N48 N 0.16153 0.59554 0.23957 0.0
C49 C 0.23763 0.64373 0.24169 0.0
C50 C 0.26879 0.62477 0.26442 0.0
C51 C 0.20929 0.55973 0.27736 0.0
C52 C 0.14518 0.5426 0.26151 0.0
N53 N 0.00503 0.50774 0.22988 0.0
C54 C 0.00455 0.461 0.25184 0.0
C55 C 0.93178 0.39887 0.25805 0.0
C56 C 0.88446 0.40641 0.23924 0.0
C57 C 0.93091 0.47234 0.22263 0.0
N58 N 0.02457 0.61103 0.18114 0.0
C59 C 0.94863 0.56215 0.17876 0.0
C60 C 0.91703 0.5843 0.1572 0.0
C61 C 0.97605 0.6518 0.14532 0.0
C62 C 0.04047 0.66706 0.16042 0.0
N63 N 0.10969 0.5372 0.18279 0.0
C64 C 0.12924 0.43364 0.1481 0.0
C65 C 0.05728 0.42318 0.15319 0.0
C66 C 0.04905 0.47548 0.17007 0.0
C67 C 0.19172 0.49791 0.16024 0.0
C68 C 0.18079 0.54872 0.17732 0.0
N69 N 0.0751 0.66725 0.23815 0.0
C70 C 0.98987 0.70113 0.26149 0.0
C71 C 0.04966 0.75904 0.27693 0.0
C72 C 0.12229 0.77044 0.27292 0.0
C73 C 0.13381 0.72462 0.25336 0.0
C74 C 0.00359 0.6556 0.2426 0.0
H75 H 0.1908 0.73741 0.25058 0.0
H76 H 0.95548 0.612 0.23165 0.0
H77 H 0.99256 0.46349 0.17302 0.0
H78 H 0.23043 0.59618 0.18621 0.0
C79 C 0.27832 0.70625 0.22195 0.0
C80 C 0.11496 0.73656 0.15489 0.0
C81 C 0.07191 0.47178 0.2665 0.0
C82 C 0.90777 0.49932 0.19867 0.0
H83 H 0.27238 0.85525 0.14765 0.0
H84 H 0.36264 0.83834 0.18398 0.0
H85 H 0.32787 0.65412 0.27057 0.0
H86 H 0.21291 0.52723 0.29585 0.0
H87 H 0.91496 0.35226 0.27413 0.0
H88 H 0.82377 0.36727 0.23732 0.0
H89 H 0.85773 0.55599 0.15142 0.0
H90 H 0.97195 0.68679 0.12795 0.0
H91 H 0.00678 0.37352 0.14489 0.0
H92 H 0.24881 0.50882 0.15672 0.0
H93 H 0.93289 0.69126 0.26389 0.0
H94 H 0.17045 0.81617 0.28412 0.0
C95 C 0.44405 0.97369 0.5821 0.0
C96 C 0.38575 0.89733 0.58624 0.0
C97 C 0.39847 0.85611 0.56585 0.0
C98 C 0.46342 0.90931 0.55048 0.0
N99 N 0.49363 0.98204 0.56003 0.0
Co100 Co 0.58672 0.07722 0.54332 0.0
N101 N 0.60021 0.01739 0.51133 0.0
C102 C 0.55282 0.94221 0.50549 0.0
C103 C 0.57846 0.91662 0.48278 0.0
C104 C 0.64708 0.97875 0.47392 0.0
C105 C 0.65926 0.03899 0.49182 0.0
N106 N 0.6818 0.17154 0.52729 0.0
C107 C 0.73465 0.17742 0.5072 0.0
C108 C 0.79618 0.25234 0.50416 0.0
C109 C 0.7827 0.29514 0.52362 0.0
C110 C 0.71402 0.24403 0.53736 0.0
N111 N 0.57139 0.13746 0.57464 0.0
C112 C 0.61466 0.2143 0.57858 0.0
C113 C 0.5869 0.24 0.60052 0.0
C114 C 0.52117 0.17608 0.61082 0.0
C115 C 0.51261 0.11484 0.59449 0.0
N116 N 0.65147 0.05775 0.56985 0.0
C117 C 0.758 0.03907 0.60176 0.0
C118 C 0.75897 0.10824 0.60206 0.0
C119 C 0.70502 0.11579 0.58655 0.0
C120 C 0.70128 0.97849 0.58576 0.0
C121 C 0.64878 0.9889 0.57013 0.0
N122 N 0.52245 0.09781 0.51676 0.0
C123 C 0.49306 0.18815 0.49444 0.0
C124 C 0.42579 0.12828 0.48335 0.0
C125 C 0.40827 0.05278 0.48858 0.0
C126 C 0.45733 0.03894 0.50504 0.0
C127 C 0.53997 0.17182 0.51095 0.0
H128 H 0.44119 0.9802 0.50806 0.0
H129 H 0.58968 0.22039 0.51895 0.0
H130 H 0.70922 0.17004 0.58779 0.0
H131 H 0.60741 0.94112 0.55797 0.0
C132 C 0.49164 0.89447 0.52472 0.0
C133 C 0.44674 0.03671 0.59814 0.0
C134 C 0.73055 0.1131 0.49159 0.0
C135 C 0.68028 0.26097 0.56094 0.0
H136 H 0.33733 0.8741 0.60163 0.0
H137 H 0.3626 0.79525 0.56175 0.0
H138 H 0.55272 0.85848 0.4749 0.0
H139 H 0.68522 0.97834 0.45718 0.0
H140 H 0.84649 0.27324 0.48994 0.0
H141 H 0.81982 0.35567 0.52799 0.0
H142 H 0.61083 0.2985 0.60777 0.0
H143 H 0.48308 0.17483 0.62804 0.0
H144 H 0.80252 0.1575 0.61355 0.0
H145 H 0.69766 0.92342 0.58514 0.0
H146 H 0.50915 0.2476 0.49065 0.0
H147 H 0.35754 0.00465 0.47964 0.0
C148 C 0.69175 0.59909 0.81858 0.0
C149 C 0.73341 0.57097 0.8051 0.0
C150 C 0.73533 0.52106 0.82519 0.0
C151 C 0.69434 0.52118 0.84953 0.0
N152 N 0.66565 0.56738 0.84598 0.0
Co153 Co 0.59588 0.57875 0.874 0.0
N154 N 0.60491 0.51202 0.90462 0.0
C155 C 0.65171 0.4838 0.90361 0.0
C156 C 0.64946 0.44519 0.92921 0.0
C157 C 0.59735 0.44819 0.94746 0.0
C158 C 0.57048 0.48809 0.93171 0.0
N159 N 0.52143 0.58484 0.90147 0.0
C160 C 0.48623 0.54308 0.92674 0.0
C161 C 0.43074 0.55693 0.9372 0.0
C162 C 0.43062 0.60919 0.91772 0.0
C163 C 0.48532 0.62354 0.8964 0.0
N164 N 0.59194 0.65031 0.84394 0.0
C165 C 0.55278 0.68674 0.8466 0.0
C166 C 0.56877 0.73957 0.82401 0.0
C167 C 0.62257 0.73791 0.80625 0.0
C168 C 0.63568 0.68343 0.81893 0.0
N169 N 0.50904 0.48844 0.85594 0.0
C170 C 0.39069 0.36349 0.82682 0.0
C171 C 0.39206 0.43249 0.82913 0.0
C172 C 0.45136 0.49381 0.84365 0.0
C173 C 0.4477 0.35684 0.84039 0.0
C174 C 0.50573 0.41945 0.85487 0.0
N175 N 0.68249 0.6694 0.89204 0.0
C176 C 0.73381 0.79042 0.91689 0.0
C177 C 0.80284 0.79423 0.9204 0.0
C178 C 0.81173 0.73608 0.90864 0.0
C179 C 0.75134 0.67471 0.89459 0.0
C180 C 0.67483 0.72801 0.90267 0.0
H181 H 0.76145 0.63188 0.88623 0.0
H182 H 0.62359 0.72847 0.90072 0.0
H183 H 0.44942 0.54504 0.84446 0.0
H184 H 0.54773 0.41101 0.86474 0.0
C185 C 0.6895 0.48634 0.87713 0.0
C186 C 0.6917 0.66633 0.80716 0.0
C187 C 0.50237 0.4882 0.94082 0.0
C188 C 0.50304 0.67125 0.87099 0.0
H189 H 0.76344 0.58884 0.78375 0.0
H190 H 0.76622 0.49146 0.82293 0.0
H191 H 0.67904 0.41498 0.9335 0.0
H192 H 0.57741 0.41991 0.96911 0.0
H193 H 0.39354 0.53111 0.95662 0.0
H194 H 0.39371 0.63244 0.91859 0.0
H195 H 0.54554 0.77633 0.8212 0.0
H196 H 0.64989 0.77351 0.7865 0.0
H197 H 0.34768 0.43931 0.81973 0.0
H198 H 0.44853 0.30405 0.8393 0.0
H199 H 0.72528 0.83535 0.92506 0.0
H200 H 0.86462 0.73701 0.91083 0.0
C201 C 0.19048 0.29204 0.12767 0.0
C202 C 0.15122 0.2596 0.10147 0.0
C203 C 0.1838 0.34878 0.14236 0.0
C204 C 0.13814 0.37597 0.1313 0.0
H205 H 0.22635 0.27307 0.13709 0.0
H206 H 0.21376 0.37063 0.16281 0.0
S207 S 0.02916 0.31519 0.06195 0.0
N208 N 0.06789 0.26168 0.06429 0.0
N209 N 0.05698 0.36962 0.0914 0.0
C210 C 0.0998 0.34516 0.10477 0.0
C211 C 0.10589 0.28672 0.09 0.0
C212 C 0.87001 0.12483 0.43229 0.0
C213 C 0.92803 0.12641 0.44904 0.0
C214 C 0.80742 0.12289 0.44615 0.0
C215 C 0.79995 0.12099 0.47723 0.0
H216 H 0.87334 0.12604 0.40823 0.0
H217 H 0.7639 0.12165 0.43252 0.0
S218 S 0.93438 0.12294 0.53135 0.0
N219 N 0.97367 0.12642 0.49856 0.0
N220 N 0.85451 0.12055 0.52449 0.0
C221 C 0.85726 0.12285 0.4943 0.0
C222 C 0.92165 0.12596 0.48023 0.0
C223 C 0.9009 0.80348 0.79158 0.0
C224 C 0.90508 0.81867 0.76083 0.0
C225 C 0.8308 0.75886 0.80663 0.0
C226 C 0.76228 0.72637 0.7914 0.0
H227 H 0.95233 0.82632 0.80417 0.0
H228 H 0.83017 0.74694 0.83021 0.0
S229 S 0.74193 0.74956 0.711 0.0
N230 N 0.83482 0.8008 0.71582 0.0
N231 N 0.70227 0.71247 0.74406 0.0
C232 C 0.76522 0.74211 0.76079 0.0
C233 C 0.83692 0.78944 0.7455 0.0
C234 C 0.13592 0.91551 0.11705 0.0
C235 C 0.16228 0.91329 0.08817 0.0
C236 C 0.11848 0.85701 0.13843 0.0
C237 C 0.12586 0.79399 0.13149 0.0
H238 H 0.12914 0.96294 0.12328 0.0
H239 H 0.10004 0.86146 0.1606 0.0
S240 S 0.18962 0.75802 0.05954 0.0
N241 N 0.19311 0.84032 0.05405 0.0
N242 N 0.15961 0.73124 0.09433 0.0
C243 C 0.15096 0.7902 0.10288 0.0
C244 C 0.16942 0.84966 0.08119 0.0
C245 C 0.36292 0.20979 0.42159 0.0
C246 C 0.28341 0.17193 0.4264 0.0
C247 C 0.40857 0.19691 0.44061 0.0
C248 C 0.37659 0.14521 0.4651 0.0
H249 H 0.39007 0.24783 0.40235 0.0
H250 H 0.4691 0.22549 0.43544 0.0
S251 S 0.17336 0.03801 0.48978 0.0
N252 N 0.1757 0.08522 0.4592 0.0
N253 N 0.26211 0.06122 0.49489 0.0
C254 C 0.29796 0.10979 0.47112 0.0
C255 C 0.25129 0.12334 0.45187 0.0
C256 C 0.24429 0.16036 0.80605 0.0
C257 C 0.22815 0.16954 0.77656 0.0
C258 C 0.2946 0.22373 0.82251 0.0
C259 C 0.33105 0.29874 0.81007 0.0
H260 H 0.21933 0.10341 0.81631 0.0
H261 H 0.30638 0.21374 0.84495 0.0
S262 S 0.30654 0.35432 0.73407 0.0
N263 N 0.25009 0.25965 0.73596 0.0
N264 N 0.34614 0.3792 0.76679 0.0
C265 C 0.31322 0.30923 0.78101 0.0
C266 C 0.26134 0.24449 0.76428 0.0
C267 C 0.91089 0.99116 0.61681 0.0
C268 C 0.93501 0.01976 0.64535 0.0
C269 C 0.85348 0.99722 0.60298 0.0
C270 C 0.81727 0.03137 0.61728 0.0
H271 H 0.93675 0.96402 0.60498 0.0
H272 H 0.83793 0.97568 0.58078 0.0
S273 S 0.85484 0.10923 0.69325 0.0
N274 N 0.91601 0.0807 0.68795 0.0
N275 N 0.80671 0.08994 0.66241 0.0
C276 C 0.84007 0.05911 0.64604 0.0
C277 C 0.89923 0.05388 0.65994 0.0
C278 C 0.0017 0.94685 0.94081 0.0
C279 C 0.99188 0.96246 0.97036 0.0
C280 C 0.93964 0.89531 0.92428 0.0
C281 C 0.86539 0.85733 0.93668 0.0
H282 H 0.05823 0.97234 0.9307 0.0
H283 H 0.95012 0.88304 0.90196 0.0
S284 S 0.80816 0.88238 0.01228 0.0
N285 N 0.90171 0.94005 0.01065 0.0
N286 N 0.78452 0.84204 0.97956 0.0
C287 C 0.85403 0.87578 0.96555 0.0
C288 C 0.91748 0.92876 0.98241 0.0
C289 C 0.02274 0.92323 0.29611 0.0
C290 C 0.04631 0.93708 0.3256 0.0
C291 C 0.01791 0.86103 0.28113 0.0
C292 C 0.0385 0.81236 0.29504 0.0
H293 H 0.01286 0.96358 0.28399 0.0
H294 H 0.00353 0.85443 0.25789 0.0
S295 S 0.09773 0.82107 0.37276 0.0
N296 N 0.08452 0.89431 0.36892 0.0
N297 N 0.07716 0.77805 0.34049 0.0
C298 C 0.05773 0.82297 0.32504 0.0
C299 C 0.06122 0.88537 0.34043 0.0
C300 C 0.31418 0.96592 0.66606 0.0
C301 C 0.25848 0.98398 0.65891 0.0
C302 C 0.37517 0.98401 0.64645 0.0
C303 C 0.38262 0.02025 0.61882 0.0
H304 H 0.31194 0.93908 0.68732 0.0
H305 H 0.41696 0.96967 0.65292 0.0
S306 S 0.25183 0.07625 0.58807 0.0
N307 N 0.21446 0.03836 0.6213 0.0
N308 N 0.32918 0.0711 0.58435 0.0
C309 C 0.32722 0.03732 0.61089 0.0
C310 C 0.26504 0.01934 0.63092 0.0
C311 C 0.36521 0.27741 0.95735 0.0
C312 C 0.34548 0.27505 0.98757 0.0
C313 C 0.41166 0.34738 0.94203 0.0
C314 C 0.4414 0.41765 0.95646 0.0
H315 H 0.34438 0.22465 0.94534 0.0
H316 H 0.42685 0.34654 0.91892 0.0
S317 S 0.40664 0.44336 0.03521 0.0
N318 N 0.35671 0.34906 0.03115 0.0
N319 N 0.44821 0.48138 0.00248 0.0
C320 C 0.42142 0.41661 0.9865 0.0
C321 C 0.37235 0.34502 0.00203 0.0
C322 C 0.12496 0.32472 0.28483 0.0
C323 C 0.10235 0.30591 0.31497 0.0
C324 C 0.10933 0.37396 0.26871 0.0
C325 C 0.07131 0.4069 0.28222 0.0
H326 H 0.15594 0.30201 0.27361 0.0
H327 H 0.13019 0.38928 0.24586 0.0
S328 S 0.99756 0.37473 0.35998 0.0
N329 N 0.03649 0.32138 0.35726 0.0
N330 N 0.00953 0.41659 0.32692 0.0
C331 C 0.04614 0.38704 0.31195 0.0
C332 C 0.06105 0.33579 0.32836 0.0
loop_
_geom_bond_atom_site_label_1
_geom_bond_atom_site_label_2
_geom_bond_distance
_geom_bond_site_symmetry_2
_ccdc_geom_bond_type
Zn0 O3 2.031 1_545 S
Zn0 O5 2.049 1_554 S
Zn0 O10 2.069 1_544 S
Zn1 O2 1.962 . S
Zn1 O4 1.986 . S
Zn1 O6 1.996 . S
Zn1 O9 1.943 . S
O2 Zn1 1.962 . S
O2 C7 1.254 1_545 S
O3 Zn0 2.031 1_565 S
O3 C7 1.269 . S
O4 Zn1 1.986 . S
O4 C11 1.262 . S
O5 Zn0 2.049 1_556 S
O5 C13 1.260 1_556 S
O6 Zn1 1.996 . S
O6 C13 1.257 . S
C7 O2 1.254 1_565 S
C7 O3 1.269 . S
C8 O9 1.249 . S
C8 O10 1.268 1_544 S
O9 Zn1 1.943 . S
O9 C8 1.249 . S
O10 Zn0 2.069 1_566 S
O10 C8 1.268 1_566 S
C11 O4 1.262 . S
C11 O12 1.232 . S
O12 C11 1.232 . S
C13 O5 1.260 1_554 S
C13 O6 1.257 . S
Zn14 O17 2.031 . S
Zn14 O19 2.049 . S
Zn14 O24 2.067 . S
Zn15 O16 1.962 . S
Zn15 O18 1.986 1_455 S
Zn15 O20 1.996 . S
Zn15 O23 1.943 . S
O16 Zn15 1.962 . S
O16 C21 1.254 . S
O17 Zn14 2.031 . S
O17 C21 1.269 . S
O18 Zn15 1.986 1_655 S
O18 C25 1.262 . S
O19 Zn14 2.049 . S
O19 C27 1.260 . S
O20 Zn15 1.996 . S
O20 C27 1.257 . S
C21 O16 1.254 . S
C21 O17 1.269 . S
C22 O23 1.249 . S
C22 O24 1.270 . S
O23 Zn15 1.943 . S
O23 C22 1.249 . S
O24 Zn14 2.067 . S
O24 C22 1.270 . S
C25 O18 1.262 . S
C25 O26 1.232 . S
O26 C25 1.232 . S
C27 O19 1.260 . S
C27 O20 1.257 . S
Zn28 O31 2.031 1_565 S
Zn28 O33 2.049 . S
Zn28 O38 2.067 1_565 S
Zn29 O30 1.962 . S
Zn29 O32 1.986 1_455 S
Zn29 O34 1.996 1_545 S
Zn29 O37 1.943 . S
O30 Zn29 1.962 . S
O30 C35 1.254 . S
O31 Zn28 2.031 1_545 S
O31 C35 1.269 . S
O32 Zn29 1.986 1_655 S
O32 C39 1.262 . S
O33 Zn28 2.049 . S
O33 C41 1.260 . S
O34 Zn29 1.996 1_565 S
O34 C41 1.257 . S
C35 O30 1.254 . S
C35 O31 1.269 . S
C36 O37 1.249 . S
C36 O38 1.270 . S
O37 Zn29 1.943 . S
O37 C36 1.249 . S
O38 Zn28 2.067 1_545 S
O38 C36 1.270 . S
C39 O32 1.262 . S
C39 O40 1.232 1_655 S
O40 C39 1.232 1_455 S
C41 O33 1.260 . S
C41 O34 1.257 . S
C42 C43 1.443 . S
C42 N46 1.376 . S
C42 C80 1.389 . S
C43 C42 1.443 . S
C43 C44 1.340 . S
C43 H83 0.951 . S
C44 C43 1.340 . S
C44 C45 1.439 . S
C44 H84 0.950 . S
C45 C44 1.439 . S
C45 N46 1.374 . S
C45 C79 1.395 . S
N46 C42 1.376 . S
N46 C45 1.374 . S
N46 Co47 2.008 . S
Co47 N46 2.008 . S
Co47 N48 1.995 . S
Co47 N53 2.008 1_455 S
Co47 N58 1.987 1_455 S
Co47 N63 2.282 . S
Co47 N69 2.282 . S
N48 Co47 1.995 . S
N48 C49 1.376 . S
N48 C52 1.383 . S
C49 N48 1.376 . S
C49 C50 1.446 . S
C49 C79 1.391 . S
C50 C49 1.446 . S
C50 C51 1.339 . S
C50 H85 0.949 . S
C51 C50 1.339 . S
C51 C52 1.439 . S
C51 H86 0.950 . S
C52 N48 1.383 . S
C52 C51 1.439 . S
C52 C81 1.392 . S
N53 Co47 2.008 1_655 S
N53 C54 1.376 . S
N53 C57 1.374 . S
C54 N53 1.376 . S
C54 C55 1.443 . S
C54 C81 1.389 1_655 S
C55 C54 1.443 . S
C55 C56 1.340 . S
C55 H87 0.951 . S
C56 C55 1.340 . S
C56 C57 1.439 . S
C56 H88 0.950 . S
C57 N53 1.374 . S
C57 C56 1.439 . S
C57 C82 1.395 . S
N58 Co47 1.987 1_655 S
N58 C59 1.383 . S
N58 C62 1.385 1_655 S
C59 N58 1.383 . S
C59 C60 1.446 . S
C59 C82 1.391 . S
C60 C59 1.446 . S
C60 C61 1.339 . S
C60 H89 0.949 . S
C61 C60 1.339 . S
C61 C62 1.439 1_655 S
C61 H90 0.950 . S
C62 N58 1.385 1_455 S
C62 C61 1.439 1_455 S
C62 C80 1.392 . S
N63 Co47 2.282 . S
N63 C66 1.332 . S
N63 C68 1.332 . S
C64 C65 1.386 . S
C64 C67 1.388 . S
C65 C64 1.386 . S
C65 C66 1.382 . S
C65 H91 0.950 1_455 S
C66 N63 1.332 . S
C66 C65 1.382 . S
C66 H77 0.952 1_455 S
C67 C64 1.388 . S
C67 C68 1.382 . S
C67 H92 0.950 . S
C68 N63 1.332 . S
C68 C67 1.382 . S
C68 H78 0.948 . S
N69 Co47 2.282 . S
N69 C73 1.332 . S
N69 C74 1.332 1_455 S
C70 C71 1.388 1_655 S
C70 C74 1.382 . S
C70 H93 0.950 . S
C71 C70 1.388 1_455 S
C71 C72 1.386 . S
C72 C71 1.386 . S
C72 C73 1.382 . S
C72 H94 0.950 . S
C73 N69 1.332 . S
C73 C72 1.382 . S
C73 H75 0.952 . S
C74 N69 1.332 1_655 S
C74 C70 1.382 . S
C74 H76 0.948 . S
H75 C73 0.952 . S
H76 C74 0.948 . S
H77 C66 0.952 1_655 S
H78 C68 0.948 . S
C79 C45 1.395 . S
C79 C49 1.391 . S
C80 C42 1.389 . S
C80 C62 1.392 . S
C81 C52 1.392 . S
C81 C54 1.389 1_455 S
C82 C57 1.395 . S
C82 C59 1.391 . S
H83 C43 0.951 . S
H84 C44 0.950 . S
H85 C50 0.949 . S
H86 C51 0.950 . S
H87 C55 0.951 . S
H88 C56 0.950 . S
H89 C60 0.949 . S
H90 C61 0.950 . S
H91 C65 0.950 1_655 S
H92 C67 0.950 . S
H93 C70 0.950 . S
H94 C72 0.950 . S
C95 C96 1.443 1_545 S
C95 N99 1.376 . S
C95 C133 1.389 . S
C96 C95 1.443 1_565 S
C96 C97 1.340 . S
C96 H136 0.951 . S
C97 C96 1.340 . S
C97 C98 1.439 . S
C97 H137 0.950 . S
C98 C97 1.439 . S
C98 N99 1.374 1_565 S
C98 C132 1.395 . S
N99 C95 1.376 . S
N99 C98 1.374 1_545 S
N99 Co100 2.008 . S
Co100 N99 2.008 . S
Co100 N101 1.995 . S
Co100 N106 2.008 . S
Co100 N111 1.995 . S
Co100 N116 2.282 . S
Co100 N122 2.282 . S
N101 Co100 1.995 . S
N101 C102 1.376 1_545 S
N101 C105 1.383 . S
C102 N101 1.376 1_565 S
C102 C103 1.446 . S
C102 C132 1.391 . S
C103 C102 1.446 . S
C103 C104 1.339 . S
C103 H138 0.949 . S
C104 C103 1.339 . S
C104 C105 1.439 1_565 S
C104 H139 0.950 . S
C105 N101 1.383 . S
C105 C104 1.439 1_545 S
C105 C134 1.392 . S
N106 Co100 2.008 . S
N106 C107 1.376 . S
N106 C110 1.374 . S
C107 N106 1.376 . S
C107 C108 1.443 . S
C107 C134 1.389 . S
C108 C107 1.443 . S
C108 C109 1.340 . S
C108 H140 0.951 . S
C109 C108 1.340 . S
C109 C110 1.439 . S
C109 H141 0.950 . S
C110 N106 1.374 . S
C110 C109 1.439 . S
C110 C135 1.395 . S
N111 Co100 1.995 . S
N111 C112 1.376 . S
N111 C115 1.383 . S
C112 N111 1.376 . S
C112 C113 1.446 . S
C112 C135 1.391 . S
C113 C112 1.446 . S
C113 C114 1.339 . S
C113 H142 0.949 . S
C114 C113 1.339 . S
C114 C115 1.439 . S
C114 H143 0.950 . S
C115 N111 1.383 . S
C115 C114 1.439 . S
C115 C133 1.392 . S
N116 Co100 2.282 . S
N116 C119 1.332 . S
N116 C121 1.332 . S
C117 C118 1.386 . S
C117 C120 1.388 . S
C118 C117 1.386 . S
C118 C119 1.382 . S
C118 H144 0.950 . S
C119 N116 1.332 . S
C119 C118 1.382 . S
C119 H130 0.952 . S
C120 C117 1.388 . S
C120 C121 1.382 . S
C120 H145 0.950 1_545 S
C121 N116 1.332 . S
C121 C120 1.382 . S
C121 H131 0.948 1_545 S
N122 Co100 2.282 . S
N122 C126 1.332 . S
N122 C127 1.332 . S
C123 C124 1.388 . S
C123 C127 1.382 . S
C123 H146 0.950 . S
C124 C123 1.388 . S
C124 C125 1.386 . S
C125 C124 1.386 . S
C125 C126 1.382 . S
C125 H147 0.950 . S
C126 N122 1.332 . S
C126 C125 1.382 . S
C126 H128 0.952 . S
C127 N122 1.332 . S
C127 C123 1.382 . S
C127 H129 0.948 . S
H128 C126 0.952 . S
H129 C127 0.948 . S
H130 C119 0.952 . S
H131 C121 0.948 1_565 S
C132 C98 1.395 . S
C132 C102 1.391 . S
C133 C95 1.389 . S
C133 C115 1.392 . S
C134 C105 1.392 . S
C134 C107 1.389 . S
C135 C110 1.395 . S
C135 C112 1.391 . S
H136 C96 0.951 . S
H137 C97 0.950 . S
H138 C103 0.949 . S
H139 C104 0.950 . S
H140 C108 0.951 . S
H141 C109 0.950 . S
H142 C113 0.949 . S
H143 C114 0.950 . S
H144 C118 0.950 . S
H145 C120 0.950 1_565 S
H146 C123 0.950 . S
H147 C125 0.950 . S
C148 C149 1.443 . S
C148 N152 1.376 . S
C148 C186 1.389 . S
C149 C148 1.443 . S
C149 C150 1.340 . S
C149 H189 0.951 . S
C150 C149 1.340 . S
C150 C151 1.439 . S
C150 H190 0.950 . S
C151 C150 1.439 . S
C151 N152 1.374 . S
C151 C185 1.395 . S
N152 C148 1.376 . S
N152 C151 1.374 . S
N152 Co153 2.008 . S
Co153 N152 2.008 . S
Co153 N154 1.995 . S
Co153 N159 2.008 . S
Co153 N164 1.995 . S
Co153 N169 2.282 . S
Co153 N175 2.282 . S
N154 Co153 1.995 . S
N154 C155 1.376 . S
N154 C158 1.383 . S
C155 N154 1.376 . S
C155 C156 1.446 . S
C155 C185 1.391 . S
C156 C155 1.446 . S
C156 C157 1.339 . S
C156 H191 0.949 . S
C157 C156 1.339 . S
C157 C158 1.439 . S
C157 H192 0.950 . S
C158 N154 1.383 . S
C158 C157 1.439 . S
C158 C187 1.392 . S
N159 Co153 2.008 . S
N159 C160 1.376 . S
N159 C163 1.374 . S
C160 N159 1.376 . S
C160 C161 1.443 . S
C160 C187 1.389 . S
C161 C160 1.443 . S
C161 C162 1.340 . S
C161 H193 0.951 . S
C162 C161 1.340 . S
C162 C163 1.439 . S
C162 H194 0.950 . S
C163 N159 1.374 . S
C163 C162 1.439 . S
C163 C188 1.395 . S
N164 Co153 1.995 . S
N164 C165 1.376 . S
N164 C168 1.383 . S
C165 N164 1.376 . S
C165 C166 1.446 . S
C165 C188 1.391 . S
C166 C165 1.446 . S
C166 C167 1.339 . S
C166 H195 0.949 . S
C167 C166 1.339 . S
C167 C168 1.439 . S
C167 H196 0.950 . S
C168 N164 1.383 . S
C168 C167 1.439 . S
C168 C186 1.392 . S
N169 Co153 2.282 . S
N169 C172 1.332 . S
N169 C174 1.332 . S
C170 C171 1.386 . S
C170 C173 1.388 . S
C171 C170 1.386 . S
C171 C172 1.382 . S
C171 H197 0.950 . S
C172 N169 1.332 . S
C172 C171 1.382 . S
C172 H183 0.952 . S
C173 C170 1.388 . S
C173 C174 1.382 . S
C173 H198 0.950 . S
C174 N169 1.332 . S
C174 C173 1.382 . S
C174 H184 0.948 . S
N175 Co153 2.282 . S
N175 C179 1.332 . S
N175 C180 1.332 . S
C176 C177 1.388 . S
C176 C180 1.382 . S
C176 H199 0.950 . S
C177 C176 1.388 . S
C177 C178 1.386 . S
C178 C177 1.386 . S
C178 C179 1.382 . S
C178 H200 0.950 . S
C179 N175 1.332 . S
C179 C178 1.382 . S
C179 H181 0.952 . S
C180 N175 1.332 . S
C180 C176 1.382 . S
C180 H182 0.948 . S
H181 C179 0.952 . S
H182 C180 0.948 . S
H183 C172 0.952 . S
H184 C174 0.948 . S
C185 C151 1.395 . S
C185 C155 1.391 . S
C186 C148 1.389 . S
C186 C168 1.392 . S
C187 C158 1.392 . S
C187 C160 1.389 . S
C188 C163 1.395 . S
C188 C165 1.391 . S
H189 C149 0.951 . S
H190 C150 0.950 . S
H191 C156 0.949 . S
H192 C157 0.950 . S
H193 C161 0.951 . S
H194 C162 0.950 . S
H195 C166 0.949 . S
H196 C167 0.950 . S
H197 C171 0.950 . S
H198 C173 0.950 . S
H199 C176 0.950 . S
H200 C178 0.950 . S
C201 C202 1.369 . S
C201 C203 1.419 . S
C201 H205 0.930 . S
C202 C201 1.369 . S
C202 C211 1.429 . S
C203 C201 1.419 . S
C203 C204 1.363 . S
C203 H206 0.929 . S
C204 C203 1.363 . S
C204 C210 1.428 . S
H205 C201 0.930 . S
H206 C203 0.929 . S
S207 N208 1.613 . S
S207 N209 1.610 . S
N208 S207 1.613 . S
N208 C211 1.350 . S
N209 S207 1.610 . S
N209 C210 1.351 . S
C210 C204 1.428 . S
C210 N209 1.351 . S
C210 C211 1.434 . S
C211 C202 1.429 . S
C211 N208 1.350 . S
C211 C210 1.434 . S
C212 C213 1.369 . S
C212 C214 1.419 . S
C212 H216 0.930 . S
C213 C212 1.369 . S
C213 C222 1.429 . S
C214 C212 1.419 . S
C214 C215 1.363 . S
C214 H217 0.929 . S
C215 C214 1.363 . S
C215 C221 1.428 . S
H216 C212 0.930 . S
H217 C214 0.929 . S
S218 N219 1.613 . S
S218 N220 1.610 . S
N219 S218 1.613 . S
N219 C222 1.350 1_565 S
N220 S218 1.610 . S
N220 C221 1.351 1_565 S
C221 C215 1.428 . S
C221 N220 1.351 1_545 S
C221 C222 1.434 . S
C222 C213 1.429 . S
C222 N219 1.350 1_545 S
C222 C221 1.434 . S
C223 C224 1.369 . S
C223 C225 1.419 . S
C223 H227 0.930 . S
C224 C223 1.369 . S
C224 C233 1.429 . S
C225 C223 1.419 . S
C225 C226 1.363 . S
C225 H228 0.929 . S
C226 C225 1.363 . S
C226 C232 1.428 . S
H227 C223 0.930 . S
H228 C225 0.929 . S
S229 N230 1.613 . S
S229 N231 1.610 . S
N230 S229 1.613 . S
N230 C233 1.350 . S
N231 S229 1.610 . S
N231 C232 1.351 . S
C232 C226 1.428 . S
C232 N231 1.351 . S
C232 C233 1.434 . S
C233 C224 1.429 . S
C233 N230 1.350 . S
C233 C232 1.434 . S
C234 C235 1.369 . S
C234 C236 1.419 . S
C234 H238 0.930 . S
C235 C234 1.369 . S
C235 C244 1.429 . S
C236 C234 1.419 . S
C236 C237 1.363 . S
C236 H239 0.929 . S
C237 C236 1.363 . S
C237 C243 1.428 . S
H238 C234 0.930 . S
H239 C236 0.929 . S
S240 N241 1.613 . S
S240 N242 1.610 . S
N241 S240 1.613 . S
N241 C244 1.350 . S
N242 S240 1.610 . S
N242 C243 1.351 . S
C243 C237 1.428 . S
C243 N242 1.351 . S
C243 C244 1.434 . S
C244 C235 1.429 . S
C244 N241 1.350 . S
C244 C243 1.434 . S
C245 C246 1.369 . S
C245 C247 1.419 . S
C245 H249 0.930 . S
C246 C245 1.369 . S
C246 C255 1.429 . S
C247 C245 1.419 . S
C247 C248 1.363 . S
C247 H250 0.929 . S
C248 C247 1.363 . S
C248 C254 1.428 . S
H249 C245 0.930 . S
H250 C247 0.929 . S
S251 N252 1.613 . S
S251 N253 1.610 . S
N252 S251 1.613 . S
N252 C255 1.350 . S
N253 S251 1.610 . S
N253 C254 1.351 . S
C254 C248 1.428 . S
C254 N253 1.351 . S
C254 C255 1.434 . S
C255 C246 1.429 . S
C255 N252 1.350 . S
C255 C254 1.434 . S
C256 C257 1.369 . S
C256 C258 1.419 . S
C256 H260 0.930 . S
C257 C256 1.369 . S
C257 C266 1.429 . S
C258 C256 1.419 . S
C258 C259 1.363 . S
C258 H261 0.929 . S
C259 C258 1.363 . S
C259 C265 1.428 . S
H260 C256 0.930 . S
H261 C258 0.929 . S
S262 N263 1.613 . S
S262 N264 1.610 . S
N263 S262 1.613 . S
N263 C266 1.350 . S
N264 S262 1.610 . S
N264 C265 1.351 . S
C265 C259 1.428 . S
C265 N264 1.351 . S
C265 C266 1.434 . S
C266 C257 1.429 . S
C266 N263 1.350 . S
C266 C265 1.434 . S
C267 C268 1.369 . S
C267 C269 1.419 . S
C267 H271 0.930 . S
C268 C267 1.369 . S
C268 C277 1.429 . S
C269 C267 1.419 . S
C269 C270 1.363 . S
C269 H272 0.929 . S
C270 C269 1.363 . S
C270 C276 1.428 . S
H271 C267 0.930 . S
H272 C269 0.929 . S
S273 N274 1.613 . S
S273 N275 1.610 . S
N274 S273 1.613 . S
N274 C277 1.350 . S
N275 S273 1.610 . S
N275 C276 1.351 . S
C276 C270 1.428 . S
C276 N275 1.351 . S
C276 C277 1.434 . S
C277 C268 1.429 . S
C277 N274 1.350 . S
C277 C276 1.434 . S
C278 C279 1.369 1_455 S
C278 C280 1.419 1_455 S
C278 H282 0.930 . S
C279 C278 1.369 1_655 S
C279 C288 1.429 . S
C280 C278 1.419 1_655 S
C280 C281 1.363 . S
C280 H283 0.929 . S
C281 C280 1.363 . S
C281 C287 1.428 . S
H282 C278 0.930 . S
H283 C280 0.929 . S
S284 N285 1.613 1_556 S
S284 N286 1.610 . S
N285 S284 1.613 1_554 S
N285 C288 1.350 1_554 S
N286 S284 1.610 . S
N286 C287 1.351 . S
C287 C281 1.428 . S
C287 N286 1.351 . S
C287 C288 1.434 . S
C288 C279 1.429 . S
C288 N285 1.350 1_556 S
C288 C287 1.434 . S
C289 C290 1.369 . S
C289 C291 1.419 . S
C289 H293 0.930 1_455 S
C290 C289 1.369 . S
C290 C299 1.429 . S
C291 C289 1.419 . S
C291 C292 1.363 . S
C291 H294 0.929 1_455 S
C292 C291 1.363 . S
C292 C298 1.428 . S
H293 C289 0.930 1_655 S
H294 C291 0.929 1_655 S
S295 N296 1.613 . S
S295 N297 1.610 . S
N296 S295 1.613 . S
N296 C299 1.350 . S
N297 S295 1.610 . S
N297 C298 1.351 . S
C298 C292 1.428 . S
C298 N297 1.351 . S
C298 C299 1.434 . S
C299 C290 1.429 . S
C299 N296 1.350 . S
C299 C298 1.434 . S
C300 C301 1.369 . S
C300 C302 1.419 . S
C300 H304 0.930 . S
C301 C300 1.369 . S
C301 C310 1.429 1_545 S
C302 C300 1.419 . S
C302 C303 1.363 . S
C302 H305 0.929 . S
C303 C302 1.363 . S
C303 C309 1.428 . S
H304 C300 0.930 . S
H305 C302 0.929 . S
S306 N307 1.613 . S
S306 N308 1.610 . S
N307 S306 1.613 . S
N307 C310 1.350 . S
N308 S306 1.610 . S
N308 C309 1.351 1_565 S
C309 C303 1.428 . S
C309 N308 1.351 1_545 S
C309 C310 1.434 1_545 S
C310 C301 1.429 1_565 S
C310 N307 1.350 . S
C310 C309 1.434 1_565 S
C311 C312 1.369 . S
C311 C313 1.419 . S
C311 H315 0.930 . S
C312 C311 1.369 . S
C312 C321 1.429 . S
C313 C311 1.419 . S
C313 C314 1.363 . S
C313 H316 0.929 . S
C314 C313 1.363 . S
C314 C320 1.428 . S
H315 C311 0.930 . S
H316 C313 0.929 . S
S317 N318 1.613 . S
S317 N319 1.610 1_554 S
N318 S317 1.613 . S
N318 C321 1.350 1_554 S
N319 S317 1.610 1_556 S
N319 C320 1.351 . S
C320 C314 1.428 . S
C320 N319 1.351 . S
C320 C321 1.434 . S
C321 C312 1.429 . S
C321 N318 1.350 1_556 S
C321 C320 1.434 . S
C322 C323 1.369 . S
C322 C324 1.419 . S
C322 H326 0.930 . S
C323 C322 1.369 . S
C323 C332 1.429 . S
C324 C322 1.419 . S
C324 C325 1.363 . S
C324 H327 0.929 1_455 S
C325 C324 1.363 . S
C325 C331 1.428 . S
H326 C322 0.930 . S
H327 C324 0.929 1_655 S
S328 N329 1.613 . S
S328 N330 1.610 . S
N329 S328 1.613 . S
N329 C332 1.350 . S
N330 S328 1.610 . S
N330 C331 1.351 . S
C331 C325 1.428 . S
C331 N330 1.351 . S
C331 C332 1.434 . S
C332 C323 1.429 . S
C332 N329 1.350 . S
C332 C331 1.434 . S
C204 C64 1.382 . S
C202 C11 1.371 . S
C213 C25 1.434 . S
C215 C134 1.452 . S
C224 C41 1.412 1_655 S
C226 C186 1.466 . S
C235 C7 1.421 . S
C237 C80 1.419 . S
C248 C124 1.460 . S
C246 C21 1.459 . S
C257 C36 1.419 . S
C259 C170 1.490 . S
C270 C117 1.431 . S
C268 C39 1.418 . S
C279 C8 1.424 1_666 S
C281 C177 1.480 . S
C292 C71 1.524 . S
C290 C22 1.461 1_565 S
C303 C133 1.469 . S
C301 C35 1.473 . S
C314 C187 1.459 . S
C312 C13 1.409 1_556 S
C323 C27 1.490 . S
C325 C81 1.517 . S
